# Generated by pormake.
# Topology pyr, (3,6)-cn, num edge types: 1
# Building blocks:
#     Node 0, Type 0, BuildingBlock: VETTIZ_charged_linker_0, # of connection points: 3
#     Node 1, Type 0, BuildingBlock: VETTIZ_charged_linker_0, # of connection points: 3
#     Node 2, Type 0, BuildingBlock: VETTIZ_charged_linker_0, # of connection points: 3
#     Node 3, Type 0, BuildingBlock: VETTIZ_charged_linker_0, # of connection points: 3
#     Node 4, Type 0, BuildingBlock: VETTIZ_charged_linker_0, # of connection points: 3
#     Node 5, Type 0, BuildingBlock: VETTIZ_charged_linker_0, # of connection points: 3
#     Node 6, Type 0, BuildingBlock: VETTIZ_charged_linker_0, # of connection points: 3
#     Node 7, Type 0, BuildingBlock: VETTIZ_charged_linker_0, # of connection points: 3
#     Node 8, Type 1, BuildingBlock: MIFKUJ_clean_sbu_0, # of connection points: 6
#     Node 9, Type 1, BuildingBlock: MIFKUJ_clean_sbu_0, # of connection points: 6
#     Node 10, Type 1, BuildingBlock: MIFKUJ_clean_sbu_0, # of connection points: 6
#     Node 11, Type 1, BuildingBlock: MIFKUJ_clean_sbu_0, # of connection points: 6
#     Edge 12, Type (0, 1), BuildingBlock: ZUJKAS_clean_linker_0, # of connection points: 2
#     Edge 13, Type (0, 1), BuildingBlock: ZUJKAS_clean_linker_0, # of connection points: 2
#     Edge 14, Type (0, 1), BuildingBlock: ZUJKAS_clean_linker_0, # of connection points: 2
#     Edge 15, Type (0, 1), BuildingBlock: ZUJKAS_clean_linker_0, # of connection points: 2
#     Edge 16, Type (0, 1), BuildingBlock: ZUJKAS_clean_linker_0, # of connection points: 2
#     Edge 17, Type (0, 1), BuildingBlock: ZUJKAS_clean_linker_0, # of connection points: 2
#     Edge 18, Type (0, 1), BuildingBlock: ZUJKAS_clean_linker_0, # of connection points: 2
#     Edge 19, Type (0, 1), BuildingBlock: ZUJKAS_clean_linker_0, # of connection points: 2
#     Edge 20, Type (0, 1), BuildingBlock: ZUJKAS_clean_linker_0, # of connection points: 2
#     Edge 21, Type (0, 1), BuildingBlock: ZUJKAS_clean_linker_0, # of connection points: 2
#     Edge 22, Type (0, 1), BuildingBlock: ZUJKAS_clean_linker_0, # of connection points: 2
#     Edge 23, Type (0, 1), BuildingBlock: ZUJKAS_clean_linker_0, # of connection points: 2
#     Edge 24, Type (0, 1), BuildingBlock: ZUJKAS_clean_linker_0, # of connection points: 2
#     Edge 25, Type (0, 1), BuildingBlock: ZUJKAS_clean_linker_0, # of connection points: 2
#     Edge 26, Type (0, 1), BuildingBlock: ZUJKAS_clean_linker_0, # of connection points: 2
#     Edge 27, Type (0, 1), BuildingBlock: ZUJKAS_clean_linker_0, # of connection points: 2
#     Edge 28, Type (0, 1), BuildingBlock: ZUJKAS_clean_linker_0, # of connection points: 2
#     Edge 29, Type (0, 1), BuildingBlock: ZUJKAS_clean_linker_0, # of connection points: 2
#     Edge 30, Type (0, 1), BuildingBlock: ZUJKAS_clean_linker_0, # of connection points: 2
#     Edge 31, Type (0, 1), BuildingBlock: ZUJKAS_clean_linker_0, # of connection points: 2
#     Edge 32, Type (0, 1), BuildingBlock: ZUJKAS_clean_linker_0, # of connection points: 2
#     Edge 33, Type (0, 1), BuildingBlock: ZUJKAS_clean_linker_0, # of connection points: 2
#     Edge 34, Type (0, 1), BuildingBlock: ZUJKAS_clean_linker_0, # of connection points: 2
#     Edge 35, Type (0, 1), BuildingBlock: ZUJKAS_clean_linker_0, # of connection points: 2
# Relax obj value: 0.025
# Max RMSD: 0.077
# Mean RMSD: 0.046
data_MOF--net-pyr--node1-MIFKUJ_clean_sbu_0--node2-VETTIZ_charged_linker_0--edge1-ZUJKAS_clean_linker_0
_symmetry_space_group_name_H-M    P1
_symmetry_Int_Tables_number       1
_symmetry_cell_setting            triclinic
loop_
_symmetry_equiv_pos_as_xyz
'x, y, z'
_cell_length_a     59.21329
_cell_length_b     53.133041
_cell_length_c     57.932561
_cell_angle_alpha  86.621841
_cell_angle_beta   88.627668
_cell_angle_gamma 95.306368
loop_
_atom_site_label
_atom_site_type_symbol
_atom_site_fract_x
_atom_site_fract_y
_atom_site_fract_z
_atom_type_partial_charge
C0 C 0.18763 0.14553 0.28958 0.0
C1 C 0.16897 0.15397 0.30138 0.0
C2 C 0.15856 0.17475 0.29158 0.0
C3 C 0.18404 0.17696 0.25805 0.0
C4 C 0.19483 0.15725 0.26802 0.0
C5 C 0.2137 0.14991 0.25267 0.0
H6 H 0.26982 0.16304 0.14882 0.0
C7 C 0.19454 0.18374 0.23489 0.0
C8 C 0.21205 0.16808 0.23166 0.0
H9 H 0.2818 0.1126 0.20767 0.0
H10 H 0.25253 0.12989 0.22986 0.0
H11 H 0.26441 0.212 0.17778 0.0
H12 H 0.21613 0.15512 0.15287 0.0
H13 H 0.20453 0.18419 0.14865 0.0
H14 H 0.23093 0.17955 0.13404 0.0
H15 H 0.25765 0.21093 0.1478 0.0
H16 H 0.24138 0.22762 0.16762 0.0
C17 C 0.23638 0.15511 0.26512 0.0
C18 C 0.20804 0.12195 0.24692 0.0
C19 C 0.16126 0.24919 0.18154 0.0
C20 C 0.16637 0.25825 0.15853 0.0
C21 C 0.18476 0.2492 0.14665 0.0
C22 C 0.19765 0.2313 0.15738 0.0
C23 C 0.19208 0.22214 0.18024 0.0
C24 C 0.17424 0.23121 0.19198 0.0
C25 C 0.17059 0.21905 0.21604 0.0
C26 C 0.18919 0.2012 0.21679 0.0
C27 C 0.20164 0.20305 0.19576 0.0
C28 C 0.17448 0.23997 0.23346 0.0
C29 C 0.14657 0.20459 0.21764 0.0
C30 C 0.26604 0.15561 0.16644 0.0
C31 C 0.27805 0.13633 0.17645 0.0
C32 C 0.27291 0.12757 0.1996 0.0
C33 C 0.2558 0.13753 0.21242 0.0
C34 C 0.24365 0.15644 0.20199 0.0
C35 C 0.24904 0.16535 0.17946 0.0
C36 C 0.23453 0.18563 0.17123 0.0
C37 C 0.21946 0.18738 0.19251 0.0
C38 C 0.22476 0.17013 0.21042 0.0
C39 C 0.25016 0.21039 0.16561 0.0
C40 C 0.22085 0.17589 0.15051 0.0
H41 H 0.15712 0.20171 0.2634 0.0
H42 H 0.1962 0.12984 0.29675 0.0
H43 H 0.1896 0.11802 0.24385 0.0
H44 H 0.21666 0.11707 0.23093 0.0
H45 H 0.2124 0.10879 0.2614 0.0
H46 H 0.23599 0.17176 0.27585 0.0
H47 H 0.23984 0.13862 0.27676 0.0
H48 H 0.25099 0.16001 0.25295 0.0
H49 H 0.14744 0.25595 0.19129 0.0
H50 H 0.18893 0.25556 0.12882 0.0
H51 H 0.21128 0.22507 0.14733 0.0
H52 H 0.1879 0.25488 0.22686 0.0
H53 H 0.15875 0.24932 0.23654 0.0
H54 H 0.18066 0.23278 0.25022 0.0
H55 H 0.14236 0.19592 0.20106 0.0
H56 H 0.14497 0.18854 0.23073 0.0
H57 H 0.13341 0.21751 0.22135 0.0
H58 H 0.14401 0.1815 0.30011 0.0
C59 C 0.16604 0.18632 0.27008 0.0
C60 C 0.26301 0.86421 0.64106 0.0
C61 C 0.25086 0.88225 0.65153 0.0
C62 C 0.25855 0.89174 0.67248 0.0
C63 C 0.28983 0.86531 0.67216 0.0
C64 C 0.28231 0.85604 0.65162 0.0
C65 C 0.29704 0.83693 0.64273 0.0
H66 H 0.38684 0.76806 0.65712 0.0
C67 C 0.31027 0.85278 0.67859 0.0
C68 C 0.31455 0.8361 0.6614 0.0
H69 H 0.34098 0.76889 0.60008 0.0
H70 H 0.32046 0.79994 0.61806 0.0
H71 H 0.39297 0.82831 0.65993 0.0
H72 H 0.34952 0.76962 0.69737 0.0
H73 H 0.35918 0.79129 0.71752 0.0
H74 H 0.3794 0.77459 0.70211 0.0
H75 H 0.40336 0.80726 0.68171 0.0
H76 H 0.39205 0.8363 0.68887 0.0
C77 C 0.30777 0.84755 0.61905 0.0
C78 C 0.2823 0.81135 0.64194 0.0
C79 C 0.35128 0.87438 0.75217 0.0
C80 C 0.37041 0.8654 0.7627 0.0
C81 C 0.38161 0.84662 0.75208 0.0
C82 C 0.374 0.83698 0.73138 0.0
C83 C 0.35492 0.84616 0.72104 0.0
C84 C 0.34383 0.86446 0.73146 0.0
C85 C 0.32366 0.87164 0.71807 0.0
C86 C 0.32469 0.85485 0.69779 0.0
C87 C 0.34307 0.84002 0.69964 0.0
C88 C 0.32775 0.90011 0.71023 0.0
C89 C 0.30203 0.86453 0.73354 0.0
C90 C 0.37252 0.77507 0.64835 0.0
C91 C 0.36553 0.76579 0.62714 0.0
C92 C 0.34656 0.7753 0.61659 0.0
C93 C 0.33471 0.79351 0.627 0.0
C94 C 0.34187 0.80247 0.64822 0.0
C95 C 0.36056 0.79335 0.65846 0.0
C96 C 0.36596 0.80535 0.68079 0.0
C97 C 0.34737 0.8231 0.68231 0.0
C98 C 0.33326 0.82126 0.66324 0.0
C99 C 0.38986 0.81998 0.67793 0.0
C100 C 0.3636 0.78425 0.70059 0.0
H101 H 0.28284 0.89129 0.69877 0.0
H102 H 0.2578 0.85677 0.62481 0.0
H103 H 0.27025 0.80832 0.6571 0.0
H104 H 0.29232 0.79483 0.6429 0.0
H105 H 0.27216 0.81086 0.62606 0.0
H106 H 0.31103 0.86854 0.61853 0.0
H107 H 0.29638 0.84273 0.60468 0.0
H108 H 0.32455 0.84084 0.61551 0.0
H109 H 0.34216 0.8886 0.75999 0.0
H110 H 0.39656 0.83961 0.75962 0.0
H111 H 0.38334 0.8228 0.7242 0.0
H112 H 0.34589 0.90531 0.70508 0.0
H113 H 0.32343 0.91216 0.72443 0.0
H114 H 0.31817 0.90528 0.69483 0.0
H115 H 0.30367 0.84702 0.74466 0.0
H116 H 0.28672 0.86009 0.72349 0.0
H117 H 0.29895 0.87987 0.74512 0.0
H118 H 0.24939 0.90541 0.68109 0.0
C119 C 0.27793 0.88339 0.68282 0.0
C120 C 0.63334 0.2768 0.86079 0.0
C121 C 0.61373 0.2644 0.85187 0.0
C122 C 0.60534 0.27412 0.83094 0.0
C123 C 0.63574 0.30823 0.82838 0.0
C124 C 0.64408 0.29845 0.84875 0.0
C125 C 0.66551 0.31332 0.8555 0.0
H126 H 0.74648 0.41094 0.83373 0.0
C127 C 0.65093 0.33092 0.82028 0.0
C128 C 0.66847 0.33389 0.83603 0.0
H129 H 0.74195 0.35293 0.88968 0.0
H130 H 0.70704 0.33423 0.87517 0.0
H131 H 0.69219 0.41996 0.83523 0.0
H132 H 0.73068 0.37337 0.79354 0.0
H133 H 0.71222 0.3892 0.77564 0.0
H134 H 0.73407 0.40735 0.79032 0.0
H135 H 0.7121 0.4333 0.81295 0.0
H136 H 0.68319 0.42288 0.80657 0.0
C137 C 0.66092 0.32432 0.87917 0.0
C138 C 0.68494 0.29562 0.85532 0.0
C139 C 0.63237 0.38217 0.74754 0.0
C140 C 0.64268 0.40434 0.73574 0.0
C141 C 0.66266 0.41626 0.74463 0.0
C142 C 0.67219 0.40621 0.76477 0.0
C143 C 0.66165 0.38399 0.77629 0.0
C144 C 0.64204 0.37242 0.76761 0.0
C145 C 0.63294 0.34911 0.78208 0.0
C146 C 0.65024 0.34855 0.80095 0.0
C147 C 0.66712 0.36897 0.79752 0.0
C148 C 0.60909 0.35353 0.79174 0.0
C149 C 0.63334 0.32602 0.76696 0.0
C150 C 0.73783 0.39432 0.8429 0.0
C151 C 0.74715 0.3833 0.86282 0.0
C152 C 0.73541 0.36156 0.87412 0.0
C153 C 0.71502 0.35075 0.86571 0.0
C154 C 0.7061 0.36166 0.84565 0.0
C155 C 0.71739 0.38312 0.83457 0.0
C156 C 0.70529 0.39177 0.81329 0.0
C157 C 0.68507 0.37182 0.8134 0.0
C158 C 0.68568 0.35433 0.83249 0.0
C159 C 0.69786 0.41845 0.81696 0.0
C160 C 0.72132 0.39059 0.79198 0.0
H161 H 0.60886 0.30249 0.80343 0.0
H162 H 0.64044 0.26953 0.87662 0.0
H163 H 0.68199 0.28098 0.84247 0.0
H164 H 0.70156 0.30574 0.84997 0.0
H165 H 0.68637 0.28558 0.87251 0.0
H166 H 0.64351 0.33056 0.88016 0.0
H167 H 0.66234 0.30992 0.89363 0.0
H168 H 0.67232 0.34138 0.88218 0.0
H169 H 0.61683 0.37269 0.7415 0.0
H170 H 0.67112 0.43322 0.73583 0.0
H171 H 0.68744 0.41609 0.77057 0.0
H172 H 0.60861 0.37347 0.7965 0.0
H173 H 0.59594 0.34981 0.77869 0.0
H174 H 0.60413 0.34191 0.80778 0.0
H175 H 0.64798 0.32856 0.75436 0.0
H176 H 0.63565 0.30825 0.77714 0.0
H177 H 0.61763 0.32335 0.75695 0.0
H178 H 0.5902 0.26496 0.82377 0.0
C179 C 0.61616 0.29598 0.81921 0.0
C180 C 0.88236 0.7276 0.32441 0.0
C181 C 0.8742 0.73939 0.34369 0.0
C182 C 0.85253 0.73075 0.35328 0.0
C183 C 0.84796 0.69873 0.32524 0.0
C184 C 0.86898 0.70738 0.31551 0.0
C185 C 0.87504 0.69257 0.29522 0.0
H186 H 0.84826 0.59582 0.22634 0.0
C187 C 0.83854 0.67723 0.31227 0.0
C188 C 0.85427 0.67351 0.29458 0.0
H189 H 0.90809 0.6493 0.22235 0.0
H190 H 0.89387 0.67032 0.25467 0.0
H191 H 0.84547 0.58776 0.28282 0.0
H192 H 0.81295 0.6369 0.2348 0.0
H193 H 0.79275 0.62524 0.25644 0.0
H194 H 0.8049 0.60344 0.23804 0.0
H195 H 0.82428 0.57608 0.26344 0.0
H196 H 0.81664 0.58693 0.2912 0.0
C197 C 0.89673 0.67954 0.30103 0.0
C198 C 0.87745 0.71093 0.27332 0.0
C199 C 0.76228 0.63115 0.33781 0.0
C200 C 0.74892 0.61043 0.32965 0.0
C201 C 0.75696 0.59872 0.31019 0.0
C202 C 0.77788 0.6074 0.29921 0.0
C203 C 0.79102 0.62809 0.30769 0.0
C204 C 0.78304 0.63963 0.32662 0.0
C205 C 0.79906 0.66146 0.33323 0.0
C206 C 0.81802 0.66113 0.3152 0.0
C207 C 0.81333 0.64151 0.3003 0.0
C208 C 0.80709 0.6552 0.35802 0.0
C209 C 0.78671 0.68593 0.33048 0.0
C210 C 0.85836 0.61193 0.23257 0.0
C211 C 0.87936 0.62087 0.22174 0.0
C212 C 0.89177 0.64218 0.23018 0.0
C213 C 0.88353 0.6543 0.24906 0.0
C214 C 0.86257 0.64515 0.25972 0.0
C215 C 0.85028 0.62438 0.25137 0.0
C216 C 0.82812 0.61767 0.2646 0.0
C217 C 0.82924 0.63768 0.28235 0.0
C218 C 0.84954 0.65366 0.27946 0.0
C219 C 0.8284 0.59064 0.27608 0.0
C220 C 0.80853 0.62074 0.2477 0.0
H221 H 0.8232 0.70496 0.35242 0.0
H222 H 0.89893 0.73364 0.31663 0.0
H223 H 0.86538 0.72572 0.27423 0.0
H224 H 0.87322 0.70142 0.25731 0.0
H225 H 0.89485 0.72073 0.27136 0.0
H226 H 0.89627 0.67249 0.31952 0.0
H227 H 0.91217 0.69298 0.29798 0.0
H228 H 0.89859 0.66267 0.29118 0.0
H229 H 0.7569 0.64044 0.35287 0.0
H230 H 0.74696 0.58295 0.30327 0.0
H231 H 0.78301 0.59769 0.28452 0.0
H232 H 0.8092 0.63466 0.36077 0.0
H233 H 0.79458 0.66 0.37126 0.0
H234 H 0.82387 0.66485 0.36147 0.0
H235 H 0.77451 0.68484 0.31617 0.0
H236 H 0.79838 0.70298 0.32566 0.0
H237 H 0.77699 0.68905 0.34653 0.0
H238 H 0.84554 0.73978 0.36776 0.0
C239 C 0.83945 0.71057 0.34422 0.0
C240 C 0.82471 0.74481 0.84531 0.0
C241 C 0.8442 0.73512 0.83634 0.0
C242 C 0.85323 0.74469 0.81451 0.0
C243 C 0.82439 0.7741 0.81158 0.0
C244 C 0.81509 0.76418 0.83265 0.0
C245 C 0.79466 0.77702 0.83983 0.0
H246 H 0.72643 0.87098 0.82052 0.0
C247 C 0.81109 0.79488 0.80345 0.0
C248 C 0.79352 0.79658 0.81978 0.0
H249 H 0.72287 0.81421 0.87749 0.0
H250 H 0.75394 0.79486 0.8604 0.0
H251 H 0.73471 0.83284 0.78033 0.0
H252 H 0.7807 0.88121 0.81849 0.0
H253 H 0.78994 0.88424 0.78934 0.0
H254 H 0.76239 0.89343 0.79717 0.0
H255 H 0.73764 0.86665 0.77522 0.0
H256 H 0.75601 0.84689 0.76078 0.0
C257 C 0.77373 0.75712 0.84115 0.0
C258 C 0.79989 0.7895 0.86286 0.0
C259 C 0.83787 0.84902 0.73136 0.0
C260 C 0.83026 0.87073 0.72022 0.0
C261 C 0.81019 0.8799 0.72849 0.0
C262 C 0.79832 0.86807 0.74806 0.0
C263 C 0.80664 0.84688 0.75949 0.0
C264 C 0.82591 0.83751 0.75084 0.0
C265 C 0.83241 0.81492 0.76509 0.0
C266 C 0.81401 0.8124 0.78394 0.0
C267 C 0.79902 0.8312 0.78068 0.0
C268 C 0.83083 0.79186 0.7498 0.0
C269 C 0.85627 0.82184 0.77471 0.0
C270 C 0.73242 0.85445 0.82937 0.0
C271 C 0.72223 0.8442 0.85045 0.0
C272 C 0.73028 0.82237 0.86115 0.0
C273 C 0.74845 0.81126 0.85128 0.0
C274 C 0.75881 0.8221 0.8305 0.0
C275 C 0.75059 0.84314 0.81975 0.0
C276 C 0.76365 0.85201 0.79772 0.0
C277 C 0.78112 0.83287 0.79711 0.0
C278 C 0.7783 0.81552 0.81645 0.0
C279 C 0.74726 0.84972 0.77735 0.0
C280 C 0.7747 0.8792 0.80057 0.0
H281 H 0.8513 0.77075 0.78574 0.0
H282 H 0.81716 0.73757 0.86187 0.0
H283 H 0.81779 0.79802 0.86273 0.0
H284 H 0.78956 0.80526 0.86599 0.0
H285 H 0.79745 0.77533 0.8778 0.0
H286 H 0.77536 0.74269 0.8282 0.0
H287 H 0.77176 0.74699 0.85851 0.0
H288 H 0.7578 0.76546 0.83694 0.0
H289 H 0.85299 0.84121 0.72516 0.0
H290 H 0.804 0.89663 0.7202 0.0
H291 H 0.78334 0.87613 0.75375 0.0
H292 H 0.81735 0.7933 0.73686 0.0
H293 H 0.84708 0.79054 0.74017 0.0
H294 H 0.82597 0.77374 0.75984 0.0
H295 H 0.85822 0.84194 0.77935 0.0
H296 H 0.85948 0.81081 0.79083 0.0
H297 H 0.86983 0.81938 0.76168 0.0
H298 H 0.86832 0.73769 0.80729 0.0
C299 C 0.84341 0.76405 0.80208 0.0
C300 C 0.73217 0.13298 0.35931 0.0
C301 C 0.74463 0.11525 0.34876 0.0
C302 C 0.73725 0.10591 0.32765 0.0
C303 C 0.70573 0.13195 0.32788 0.0
C304 C 0.7129 0.14104 0.3486 0.0
C305 C 0.69788 0.15993 0.35744 0.0
H306 H 0.60907 0.23006 0.34124 0.0
C307 C 0.68533 0.1444 0.32124 0.0
C308 C 0.68066 0.16086 0.33847 0.0
H309 H 0.65271 0.22725 0.39987 0.0
H310 H 0.67327 0.19573 0.38238 0.0
H311 H 0.60186 0.17069 0.33808 0.0
H312 H 0.64817 0.22711 0.30118 0.0
H313 H 0.63682 0.20623 0.28106 0.0
H314 H 0.61812 0.22433 0.29693 0.0
H315 H 0.59284 0.19103 0.31495 0.0
H316 H 0.60411 0.1614 0.30963 0.0
C317 C 0.68685 0.149 0.38089 0.0
C318 C 0.71243 0.18556 0.35867 0.0
C319 C 0.64568 0.12281 0.24705 0.0
C320 C 0.62654 0.13142 0.23628 0.0
C321 C 0.61515 0.1503 0.24655 0.0
C322 C 0.62255 0.16026 0.26722 0.0
C323 C 0.64156 0.15128 0.27788 0.0
C324 C 0.65285 0.13296 0.26773 0.0
C325 C 0.6728 0.12581 0.28145 0.0
C326 C 0.67133 0.14251 0.30172 0.0
C327 C 0.65302 0.1574 0.29951 0.0
C328 C 0.66867 0.09731 0.2892 0.0
C329 C 0.69465 0.13307 0.26634 0.0
C330 C 0.62317 0.22273 0.35017 0.0
C331 C 0.62942 0.23119 0.37185 0.0
C332 C 0.64756 0.22089 0.38319 0.0
C333 C 0.65952 0.20268 0.37296 0.0
C334 C 0.65319 0.19448 0.3512 0.0
C335 C 0.6351 0.20425 0.34031 0.0
C336 C 0.63009 0.19239 0.31783 0.0
C337 C 0.6484 0.17424 0.31682 0.0
C338 C 0.66201 0.17574 0.3363 0.0
C339 C 0.60595 0.17824 0.31998 0.0
C340 C 0.63327 0.2135 0.2981 0.0
H341 H 0.71321 0.10627 0.30116 0.0
H342 H 0.73747 0.14075 0.37539 0.0
H343 H 0.72419 0.18918 0.34331 0.0
H344 H 0.70226 0.20194 0.3585 0.0
H345 H 0.72287 0.18562 0.37435 0.0
H346 H 0.68446 0.12795 0.38159 0.0
H347 H 0.69757 0.15454 0.39558 0.0
H348 H 0.66961 0.15483 0.3838 0.0
H349 H 0.655 0.10857 0.23949 0.0
H350 H 0.6002 0.15708 0.2388 0.0
H351 H 0.61307 0.17446 0.27418 0.0
H352 H 0.65045 0.09198 0.29387 0.0
H353 H 0.67344 0.08531 0.27513 0.0
H354 H 0.67786 0.09216 0.30488 0.0
H355 H 0.69303 0.15041 0.25499 0.0
H356 H 0.70972 0.13787 0.27666 0.0
H357 H 0.69817 0.11766 0.25501 0.0
H358 H 0.74632 0.09197 0.3193 0.0
C359 C 0.71792 0.11414 0.31718 0.0
C360 C 0.37041 0.62207 0.25878 0.0
C361 C 0.36064 0.60002 0.27119 0.0
C362 C 0.34 0.58821 0.26362 0.0
C363 C 0.33918 0.62052 0.23223 0.0
C364 C 0.35948 0.63193 0.23954 0.0
C365 C 0.36774 0.65528 0.2247 0.0
H366 H 0.35258 0.73735 0.13381 0.0
C367 C 0.33221 0.63585 0.21181 0.0
C368 C 0.34896 0.65625 0.2074 0.0
H369 H 0.40853 0.73885 0.18053 0.0
H370 H 0.39125 0.70106 0.20139 0.0
H371 H 0.31398 0.72473 0.17235 0.0
H372 H 0.34836 0.67727 0.12832 0.0
H373 H 0.31943 0.66631 0.12904 0.0
H374 H 0.32823 0.69819 0.11789 0.0
H375 H 0.30709 0.72206 0.14256 0.0
H376 H 0.29353 0.70064 0.16519 0.0
C377 C 0.36888 0.6782 0.24012 0.0
C378 C 0.39069 0.65068 0.213 0.0
C379 C 0.25851 0.61058 0.1713 0.0
C380 C 0.24754 0.62206 0.15267 0.0
C381 C 0.25779 0.64479 0.14172 0.0
C382 C 0.27854 0.65591 0.14904 0.0
C383 C 0.28929 0.64434 0.16765 0.0
C384 C 0.27924 0.62215 0.1786 0.0
C385 C 0.29294 0.61315 0.19859 0.0
C386 C 0.31295 0.63341 0.19755 0.0
C387 C 0.3107 0.65151 0.17927 0.0
C388 C 0.27836 0.61341 0.22111 0.0
C389 C 0.3004 0.58682 0.19353 0.0
C390 C 0.36104 0.7297 0.14866 0.0
C391 C 0.38202 0.74119 0.15545 0.0
C392 C 0.39253 0.73026 0.17469 0.0
C393 C 0.38239 0.70835 0.18689 0.0
C394 C 0.36144 0.69711 0.17986 0.0
C395 C 0.35114 0.70782 0.16103 0.0
C396 C 0.32896 0.69331 0.15598 0.0
C397 C 0.3277 0.67203 0.17479 0.0
C398 C 0.34674 0.67435 0.18874 0.0
C399 C 0.30979 0.71098 0.15896 0.0
C400 C 0.33111 0.6833 0.1315 0.0
H401 H 0.31356 0.58852 0.23948 0.0
H402 H 0.38642 0.63144 0.26377 0.0
H403 H 0.39099 0.63049 0.20896 0.0
H404 H 0.3939 0.66144 0.19616 0.0
H405 H 0.40506 0.65538 0.22446 0.0
H406 H 0.35458 0.6762 0.25312 0.0
H407 H 0.38493 0.67981 0.24968 0.0
H408 H 0.36716 0.69634 0.2303 0.0
H409 H 0.25094 0.59324 0.18022 0.0
H410 H 0.24985 0.65386 0.1272 0.0
H411 H 0.28541 0.67314 0.13985 0.0
H412 H 0.26805 0.6299 0.22049 0.0
H413 H 0.26649 0.59596 0.22367 0.0
H414 H 0.28865 0.61552 0.23663 0.0
H415 H 0.30544 0.58623 0.17495 0.0
H416 H 0.31543 0.58206 0.20318 0.0
H417 H 0.28636 0.57172 0.1975 0.0
H418 H 0.33194 0.57134 0.27291 0.0
C419 C 0.32925 0.59832 0.24427 0.0
C420 C 0.13212 0.26926 0.66819 0.0
C421 C 0.14124 0.25799 0.64906 0.0
C422 C 0.16205 0.26878 0.63889 0.0
C423 C 0.16452 0.30101 0.66681 0.0
C424 C 0.14406 0.29067 0.67677 0.0
C425 C 0.13704 0.30504 0.69705 0.0
H426 H 0.1589 0.40294 0.76603 0.0
C427 C 0.17266 0.32307 0.67973 0.0
C428 C 0.15668 0.32562 0.69751 0.0
H429 H 0.10124 0.34643 0.76986 0.0
H430 H 0.11644 0.32661 0.7373 0.0
H431 H 0.16123 0.41163 0.71058 0.0
H432 H 0.19663 0.36346 0.75691 0.0
H433 H 0.21623 0.37762 0.73566 0.0
H434 H 0.20246 0.39729 0.75491 0.0
H435 H 0.18278 0.42403 0.72924 0.0
H436 H 0.1898 0.41367 0.7011 0.0
C437 C 0.1144 0.31613 0.69132 0.0
C438 C 0.13583 0.28683 0.71902 0.0
C439 C 0.24713 0.37325 0.65456 0.0
C440 C 0.25936 0.3948 0.66258 0.0
C441 C 0.25064 0.40605 0.68197 0.0
C442 C 0.23004 0.39614 0.69296 0.0
C443 C 0.21795 0.3747 0.68455 0.0
C444 C 0.22664 0.36364 0.66568 0.0
C445 C 0.21166 0.34103 0.65899 0.0
C446 C 0.19246 0.34031 0.67688 0.0
C447 C 0.19616 0.36003 0.69185 0.0
C448 C 0.20356 0.34672 0.63411 0.0
C449 C 0.22518 0.31745 0.66191 0.0
C450 C 0.14964 0.38617 0.76001 0.0
C451 C 0.12873 0.37638 0.77058 0.0
C452 C 0.11716 0.35467 0.76188 0.0
C453 C 0.12609 0.34306 0.74301 0.0
C454 C 0.14688 0.35317 0.73257 0.0
C455 C 0.15833 0.37434 0.74113 0.0
C456 C 0.18022 0.38245 0.72783 0.0
C457 C 0.17998 0.36273 0.70987 0.0
C458 C 0.16037 0.3456 0.71271 0.0
C459 C 0.17867 0.40942 0.71665 0.0
C460 C 0.20003 0.38033 0.74459 0.0
H461 H 0.18941 0.29725 0.63903 0.0
H462 H 0.11624 0.2614 0.67651 0.0
H463 H 0.14953 0.27386 0.71848 0.0
H464 H 0.1385 0.29678 0.73507 0.0
H465 H 0.11934 0.27497 0.72056 0.0
H466 H 0.11416 0.32254 0.6727 0.0
H467 H 0.09973 0.30174 0.69498 0.0
H468 H 0.11172 0.33311 0.70074 0.0
H469 H 0.25344 0.36383 0.63997 0.0
H470 H 0.25959 0.42279 0.68842 0.0
H471 H 0.22426 0.40565 0.70752 0.0
H472 H 0.20159 0.36724 0.63082 0.0
H473 H 0.2159 0.34139 0.62094 0.0
H474 H 0.18662 0.33717 0.63098 0.0
H475 H 0.23663 0.31895 0.67683 0.0
H476 H 0.21421 0.29968 0.66588 0.0
H477 H 0.23588 0.31539 0.64625 0.0
H478 H 0.16928 0.26089 0.62388 0.0
C479 C 0.17369 0.29009 0.64764 0.0
Zn480 Zn 0.02472 0.99943 0.51893 0.0
Zn481 Zn 0.97288 0.00024 0.47908 0.0
C482 C 0.05285 0.04478 0.52759 0.0
O483 O 0.06844 0.03209 0.51836 0.0
C484 C 0.96029 0.94942 0.46735 0.0
O485 O 0.94786 0.94989 0.48638 0.0
O486 O 0.0494 0.97894 0.53116 0.0
O487 O 0.99546 0.98591 0.53546 0.0
O488 O 0.96613 0.98947 0.5126 0.0
C489 C 0.0533 0.97894 0.55265 0.0
O490 O 0.04063 0.99144 0.566 0.0
O491 O 0.03237 0.03508 0.52874 0.0
C492 C 0.94494 0.02375 0.44633 0.0
O493 O 0.96165 0.01923 0.43228 0.0
O494 O 0.94603 0.01752 0.46776 0.0
O495 O 1.00055 0.0244 0.47141 0.0
O496 O 0.02532 0.99909 0.48426 0.0
O497 O 0.97344 0.96894 0.46072 0.0
C498 C 0.97423 0.98378 0.53215 0.0
C499 C 0.02098 0.01928 0.47314 0.0
Zn500 Zn 0.51395 0.98494 0.98843 0.0
Zn501 Zn 0.48023 0.01569 0.01192 0.0
C502 C 0.48402 0.95388 0.96238 0.0
O503 O 0.49364 0.93661 0.97487 0.0
C504 C 0.5116 0.04476 0.03792 0.0
O505 O 0.50199 0.06269 0.02631 0.0
O506 O 0.54026 0.9672 0.97729 0.0
O507 O 0.52442 0.02221 0.98475 0.0
O508 O 0.49006 0.03428 0.9814 0.0
C509 C 0.54707 0.97214 0.9564 0.0
O510 O 0.53711 0.98888 0.94362 0.0
O511 O 0.48945 0.97712 0.96552 0.0
C512 C 0.44785 0.02444 0.0458 0.0
O513 O 0.4577 0.00571 0.05586 0.0
O514 O 0.45447 0.03266 0.02548 0.0
O515 O 0.46931 0.97849 0.01354 0.0
O516 O 0.50368 0.96798 0.01956 0.0
O517 O 0.50553 0.02178 0.03429 0.0
C518 C 0.51126 0.03802 0.97684 0.0
C519 C 0.48236 0.96337 0.02278 0.0
Zn520 Zn 0.51495 0.48135 0.48704 0.0
Zn521 Zn 0.49729 0.52585 0.51412 0.0
C522 C 0.54252 0.50709 0.45089 0.0
O523 O 0.52785 0.49316 0.43922 0.0
C524 C 0.46915 0.49832 0.54895 0.0
O525 O 0.48372 0.51117 0.56159 0.0
O526 O 0.52119 0.44786 0.47451 0.0
O527 O 0.51886 0.47639 0.52158 0.0
O528 O 0.52675 0.51658 0.52798 0.0
C529 C 0.54171 0.44255 0.47467 0.0
O530 O 0.5571 0.45848 0.48329 0.0
O531 O 0.54016 0.50642 0.47282 0.0
C532 C 0.46967 0.56454 0.52333 0.0
O533 O 0.4562 0.54972 0.51118 0.0
O534 O 0.48968 0.55866 0.52694 0.0
O535 O 0.49444 0.53111 0.47946 0.0
O536 O 0.48517 0.49092 0.47417 0.0
O537 O 0.47188 0.50037 0.52705 0.0
C538 C 0.52868 0.49335 0.53343 0.0
C539 C 0.48373 0.51414 0.46829 0.0
Zn540 Zn 0.98866 0.51547 0.97993 0.0
Zn541 Zn 0.02083 0.48032 0.01895 0.0
C542 C 0.95848 0.48247 0.95604 0.0
O543 O 0.97432 0.48934 0.94006 0.0
C544 C 0.04485 0.5119 0.05037 0.0
O545 O 0.0286 0.50095 0.06438 0.0
O546 O 0.97936 0.54632 0.9624 0.0
O547 O 0.99155 0.52573 0.01291 0.0
O548 O 0.98972 0.48783 0.03063 0.0
C549 C 0.96077 0.55383 0.96941 0.0
O550 O 0.95019 0.54204 0.98772 0.0
O551 O 0.96122 0.49006 0.97633 0.0
C552 C 0.0494 0.44416 0.03313 0.0
O553 O 0.06241 0.45924 0.0185 0.0
O554 O 0.02897 0.44887 0.03658 0.0
O555 O 0.02713 0.47369 0.98543 0.0
O556 O 0.0153 0.50416 0.96228 0.0
O557 O 0.04454 0.50731 0.02905 0.0
C558 C 0.98505 0.51072 0.03014 0.0
C559 C 0.02651 0.48505 0.96555 0.0
H560 H 0.16288 0.10272 0.31073 0.0
H561 H 0.14203 0.07979 0.34359 0.0
H562 H 0.1309 0.15053 0.37284 0.0
H563 H 0.15242 0.17369 0.34039 0.0
H564 H 0.14048 0.11035 0.40615 0.0
H565 H 0.07221 0.08168 0.34609 0.0
H566 H 0.09995 0.07344 0.33802 0.0
H567 H 0.09468 0.10619 0.3382 0.0
C568 C 0.15654 0.11343 0.32444 0.0
C569 C 0.1591 0.14007 0.32282 0.0
C570 C 0.14446 0.10028 0.3431 0.0
C571 C 0.13463 0.11352 0.36038 0.0
C572 C 0.13827 0.14001 0.35957 0.0
H573 H 0.01695 0.06251 0.44628 0.0
H574 H 0.04592 0.08626 0.42094 0.0
C575 C 0.1504 0.15319 0.34093 0.0
C576 C 0.11896 0.09992 0.37816 0.0
H577 H 0.06754 0.06524 0.38476 0.0
C578 C 0.12454 0.10041 0.40155 0.0
C579 C 0.09805 0.08735 0.37203 0.0
C580 C 0.09068 0.08724 0.34726 0.0
C581 C 0.10977 0.0884 0.41903 0.0
C582 C 0.08906 0.07546 0.41281 0.0
C583 C 0.08349 0.0751 0.38944 0.0
C584 C 0.0725 0.06254 0.43017 0.0
C585 C 0.11616 0.09008 0.44397 0.0
C586 C 0.07795 0.04149 0.44397 0.0
C587 C 0.0614 0.02781 0.45852 0.0
C588 C 0.03907 0.03487 0.45933 0.0
C589 C 0.03392 0.05644 0.44598 0.0
C590 C 0.05045 0.07008 0.4315 0.0
H591 H 0.12988 0.10542 0.44611 0.0
H592 H 0.10124 0.09346 0.45495 0.0
H593 H 0.1223 0.07189 0.45033 0.0
H594 H 0.09478 0.03512 0.44291 0.0
H595 H 0.06594 0.01133 0.46863 0.0
H596 H 0.37525 0.9149 0.77419 0.0
H597 H 0.39215 0.93175 0.80902 0.0
H598 H 0.40175 0.85593 0.83515 0.0
H599 H 0.3849 0.83897 0.80053 0.0
H600 H 0.38081 0.92181 0.85699 0.0
H601 H 0.46586 0.89297 0.83431 0.0
H602 H 0.44345 0.89373 0.81378 0.0
H603 H 0.44363 0.86755 0.83488 0.0
C604 C 0.38072 0.90181 0.78749 0.0
C605 C 0.37901 0.87562 0.78448 0.0
C606 C 0.39042 0.91147 0.80733 0.0
C607 C 0.39859 0.89511 0.82442 0.0
C608 C 0.39603 0.86891 0.8219 0.0
H609 H 0.4696 0.90591 0.95152 0.0
H610 H 0.44728 0.89307 0.9186 0.0
C611 C 0.38643 0.85926 0.8021 0.0
C612 C 0.41035 0.90533 0.84464 0.0
H613 H 0.46077 0.90693 0.87211 0.0
C614 C 0.39833 0.91875 0.86026 0.0
C615 C 0.43326 0.90142 0.84874 0.0
C616 C 0.44741 0.88835 0.83194 0.0
C617 C 0.40844 0.9276 0.88034 0.0
C618 C 0.43117 0.92313 0.88467 0.0
C619 C 0.44327 0.91015 0.86882 0.0
C620 C 0.44279 0.93127 0.90572 0.0
C621 C 0.39456 0.94099 0.8971 0.0
C622 C 0.4475 0.95706 0.90951 0.0
C623 C 0.46031 0.96451 0.92837 0.0
C624 C 0.46872 0.94627 0.94365 0.0
C625 C 0.46344 0.92046 0.94008 0.0
C626 C 0.45068 0.91307 0.92127 0.0
H627 H 0.37613 0.93819 0.89377 0.0
H628 H 0.39738 0.9342 0.9152 0.0
H629 H 0.39991 0.96161 0.89533 0.0
H630 H 0.44189 0.97142 0.8975 0.0
H631 H 0.46415 0.98454 0.93059 0.0
H632 H 0.63834 0.45424 0.72265 0.0
H633 H 0.61985 0.47109 0.68841 0.0
H634 H 0.60542 0.39537 0.66631 0.0
H635 H 0.62396 0.3784 0.70028 0.0
H636 H 0.62872 0.46672 0.64068 0.0
H637 H 0.54284 0.42252 0.66741 0.0
H638 H 0.56599 0.42496 0.68712 0.0
H639 H 0.56406 0.4005 0.66689 0.0
C640 C 0.63143 0.44118 0.71039 0.0
C641 C 0.63246 0.41491 0.71439 0.0
C642 C 0.62078 0.45084 0.69088 0.0
C643 C 0.61085 0.43446 0.67503 0.0
C644 C 0.61244 0.40833 0.6786 0.0
H645 H 0.53693 0.44553 0.54886 0.0
H646 H 0.55747 0.4328 0.58301 0.0
C647 C 0.62306 0.39866 0.69806 0.0
C648 C 0.59876 0.44455 0.65476 0.0
H649 H 0.54739 0.44065 0.6289 0.0
C650 C 0.6109 0.46121 0.63817 0.0
C651 C 0.57548 0.43738 0.65153 0.0
C652 C 0.56124 0.42055 0.66927 0.0
C653 C 0.60057 0.4702 0.61806 0.0
C654 C 0.57737 0.46267 0.61466 0.0
C655 C 0.56518 0.44634 0.63145 0.0
C656 C 0.56549 0.4709 0.59355 0.0
C657 C 0.61474 0.48702 0.60028 0.0
C658 C 0.56302 0.4966 0.58812 0.0
C659 C 0.55125 0.504 0.56851 0.0
C660 C 0.5416 0.48581 0.55402 0.0
C661 C 0.54411 0.46009 0.55958 0.0
C662 C 0.55586 0.45274 0.57913 0.0
H663 H 0.6332 0.48607 0.60277 0.0
H664 H 0.6107 0.48169 0.58249 0.0
H665 H 0.61099 0.50693 0.60183 0.0
H666 H 0.5699 0.51093 0.59922 0.0
H667 H 0.54953 0.52395 0.56485 0.0
H668 H 0.89928 0.64299 0.18154 0.0
H669 H 0.91548 0.62215 0.14929 0.0
H670 H 0.89622 0.5492 0.18429 0.0
H671 H 0.88015 0.56995 0.21682 0.0
H672 H 0.94312 0.55785 0.16635 0.0
H673 H 0.88012 0.58044 0.10057 0.0
H674 H 0.89176 0.60683 0.11593 0.0
H675 H 0.8744 0.58142 0.13126 0.0
C676 C 0.8985 0.62251 0.1824 0.0
C677 C 0.88843 0.60812 0.20176 0.0
C678 C 0.9076 0.61063 0.16387 0.0
C679 C 0.90685 0.58413 0.1643 0.0
C680 C 0.89684 0.56968 0.18357 0.0
H681 H 0.96796 0.48428 0.06993 0.0
H682 H 0.94841 0.50072 0.10274 0.0
C683 C 0.88756 0.58154 0.20206 0.0
C684 C 0.9172 0.57166 0.14493 0.0
H685 H 0.91336 0.56353 0.08708 0.0
C686 C 0.93654 0.55886 0.14904 0.0
C687 C 0.9086 0.57314 0.12239 0.0
C688 C 0.88746 0.58601 0.11719 0.0
C689 C 0.94797 0.54817 0.13101 0.0
C690 C 0.93947 0.5498 0.10838 0.0
C691 C 0.91989 0.56228 0.1044 0.0
C692 C 0.95103 0.53947 0.0884 0.0
C693 C 0.96952 0.5361 0.13624 0.0
C694 C 0.95841 0.55557 0.06908 0.0
C695 C 0.96934 0.54619 0.0502 0.0
C696 C 0.97313 0.52042 0.05016 0.0
C697 C 0.96548 0.50424 0.06943 0.0
C698 C 0.95443 0.51365 0.08829 0.0
H699 H 0.97688 0.54229 0.15267 0.0
H700 H 0.96572 0.51522 0.13801 0.0
H701 H 0.98245 0.54074 0.12206 0.0
H702 H 0.9559 0.57553 0.0687 0.0
H703 H 0.97491 0.55921 0.03566 0.0
H704 H 0.27568 0.12305 0.13167 0.0
H705 H 0.30447 0.10454 0.10881 0.0
H706 H 0.34846 0.10522 0.16706 0.0
H707 H 0.31992 0.12428 0.18995 0.0
H708 H 0.36976 0.12443 0.12361 0.0
H709 H 0.32101 0.03051 0.11813 0.0
H710 H 0.30608 0.05732 0.1095 0.0
H711 H 0.31405 0.05268 0.13906 0.0
C712 C 0.29155 0.11944 0.13957 0.0
C713 C 0.29553 0.12508 0.16263 0.0
C714 C 0.30787 0.10866 0.12656 0.0
C715 C 0.32843 0.10326 0.13637 0.0
C716 C 0.33261 0.10913 0.15926 0.0
H717 H 0.42873 0.00929 0.08821 0.0
H718 H 0.39983 0.02914 0.1096 0.0
C719 C 0.31626 0.11985 0.17234 0.0
C720 C 0.34564 0.09163 0.12268 0.0
H721 H 0.35525 0.03801 0.09579 0.0
C722 C 0.36664 0.10554 0.11751 0.0
C723 C 0.3415 0.06692 0.11496 0.0
C724 C 0.31953 0.05083 0.12082 0.0
C725 C 0.38361 0.09543 0.10459 0.0
C726 C 0.3793 0.0709 0.0965 0.0
C727 C 0.35837 0.05692 0.10186 0.0
C728 C 0.39662 0.059 0.08319 0.0
C729 C 0.40616 0.11082 0.10006 0.0
C730 C 0.40414 0.06907 0.06111 0.0
C731 C 0.42066 0.05774 0.04878 0.0
C732 C 0.42988 0.03614 0.05835 0.0
C733 C 0.42205 0.02596 0.08036 0.0
C734 C 0.40551 0.03724 0.09262 0.0
H735 H 0.4084 0.1269 0.11148 0.0
H736 H 0.42037 0.09879 0.10266 0.0
H737 H 0.40719 0.11865 0.08184 0.0
H738 H 0.39719 0.08565 0.05342 0.0
H739 H 0.4263 0.066 0.03184 0.0
H740 H 0.21696 0.85396 0.63076 0.0
H741 H 0.18338 0.86867 0.61241 0.0
H742 H 0.20399 0.94491 0.63016 0.0
H743 H 0.23799 0.93054 0.64786 0.0
H744 H 0.14836 0.89228 0.63182 0.0
H745 H 0.19275 0.95377 0.56095 0.0
H746 H 0.20674 0.9307 0.5781 0.0
H747 H 0.20237 0.96083 0.58921 0.0
C748 C 0.21452 0.87392 0.63049 0.0
C749 C 0.23025 0.8911 0.64066 0.0
C750 C 0.19523 0.88226 0.62013 0.0
C751 C 0.19136 0.90794 0.61962 0.0
C752 C 0.20686 0.92509 0.62998 0.0
H753 H 0.06674 0.977 0.59744 0.0
H754 H 0.09966 0.95822 0.61314 0.0
C755 C 0.22615 0.91678 0.64034 0.0
C756 C 0.17083 0.91669 0.60871 0.0
H757 H 0.15332 0.95782 0.5668 0.0
C758 C 0.14942 0.9065 0.61752 0.0
C759 C 0.17226 0.93495 0.58982 0.0
C760 C 0.19475 0.94555 0.57878 0.0
C761 C 0.12938 0.91461 0.60835 0.0
C762 C 0.13084 0.93368 0.59013 0.0
C763 C 0.15224 0.94336 0.58091 0.0
C764 C 0.1104 0.94426 0.58069 0.0
C765 C 0.10685 0.90252 0.61814 0.0
C766 C 0.10572 0.94306 0.55712 0.0
C767 C 0.08695 0.95395 0.54802 0.0
C768 C 0.07261 0.96637 0.56233 0.0
C769 C 0.07733 0.96745 0.58595 0.0
C770 C 0.09609 0.95658 0.59501 0.0
H771 H 0.10852 0.88369 0.62702 0.0
H772 H 0.10021 0.91482 0.63103 0.0
H773 H 0.09425 0.90019 0.60435 0.0
H774 H 0.11664 0.93376 0.54574 0.0
H775 H 0.08384 0.95286 0.52975 0.0
H776 H 0.76151 0.43314 0.86855 0.0
H777 H 0.79684 0.45005 0.88561 0.0
H778 H 0.81759 0.37448 0.89473 0.0
H779 H 0.78232 0.35751 0.87798 0.0
H780 H 0.82419 0.40017 0.93333 0.0
H781 H 0.86009 0.45924 0.85665 0.0
H782 H 0.83238 0.46656 0.86575 0.0
H783 H 0.836 0.43607 0.855 0.0
C784 C 0.77375 0.42019 0.87393 0.0
C785 C 0.76909 0.39398 0.87193 0.0
C786 C 0.79395 0.42987 0.88367 0.0
C787 C 0.81003 0.41357 0.89126 0.0
C788 C 0.80546 0.38744 0.88907 0.0
H789 H 0.95093 0.45563 0.91798 0.0
H790 H 0.91463 0.438 0.90398 0.0
C791 C 0.78526 0.37776 0.87951 0.0
C792 C 0.83147 0.42349 0.90188 0.0
H793 H 0.87971 0.46341 0.89155 0.0
C794 C 0.83635 0.41399 0.9242 0.0
C795 C 0.84746 0.44132 0.88988 0.0
C796 C 0.84389 0.45124 0.86542 0.0
C797 C 0.85675 0.42178 0.9348 0.0
C798 C 0.87253 0.44001 0.92298 0.0
C799 C 0.86759 0.44955 0.90069 0.0
C800 C 0.89465 0.44889 0.93288 0.0
C801 C 0.86145 0.40983 0.95826 0.0
C802 C 0.89568 0.46053 0.95407 0.0
C803 C 0.91656 0.47035 0.96232 0.0
C804 C 0.93675 0.46908 0.94933 0.0
C805 C 0.9357 0.45695 0.92841 0.0
C806 C 0.91492 0.44693 0.92032 0.0
H807 H 0.85092 0.39155 0.96197 0.0
H808 H 0.8796 0.40643 0.95959 0.0
H809 H 0.85729 0.42276 0.97177 0.0
H810 H 0.88027 0.4628 0.96387 0.0
H811 H 0.91677 0.47989 0.97834 0.0
H812 H 0.7308 0.56118 0.33811 0.0
H813 H 0.69496 0.54587 0.35826 0.0
H814 H 0.68187 0.62276 0.36954 0.0
H815 H 0.71708 0.6383 0.34847 0.0
H816 H 0.68169 0.55115 0.40264 0.0
H817 H 0.62263 0.59542 0.34327 0.0
H818 H 0.65214 0.59371 0.33565 0.0
H819 H 0.6439 0.61771 0.35395 0.0
C820 C 0.72011 0.57489 0.34447 0.0
C821 C 0.72686 0.60101 0.34153 0.0
C822 C 0.69971 0.56608 0.35618 0.0
C823 C 0.68555 0.58316 0.36517 0.0
C824 C 0.69226 0.60922 0.36238 0.0
H825 H 0.57713 0.53695 0.46932 0.0
H826 H 0.61165 0.55703 0.4492 0.0
C827 C 0.71259 0.61806 0.35057 0.0
C828 C 0.66414 0.57361 0.37804 0.0
H829 H 0.60673 0.5766 0.37892 0.0
C830 C 0.66529 0.55669 0.39745 0.0
C831 C 0.64272 0.58067 0.37113 0.0
C832 C 0.64017 0.59768 0.34974 0.0
C833 C 0.64565 0.54664 0.41013 0.0
C834 C 0.62429 0.55419 0.40356 0.0
C835 C 0.62314 0.57108 0.38413 0.0
C836 C 0.6028 0.54358 0.41573 0.0
C837 C 0.64793 0.52745 0.43 0.0
C838 C 0.58592 0.53027 0.40345 0.0
C839 C 0.5661 0.51909 0.41481 0.0
C840 C 0.56269 0.52096 0.43874 0.0
C841 C 0.57929 0.53501 0.45091 0.0
C842 C 0.59911 0.54633 0.43947 0.0
H843 H 0.6644 0.51905 0.42908 0.0
H844 H 0.64704 0.53689 0.44654 0.0
H845 H 0.634 0.51193 0.43029 0.0
H846 H 0.58831 0.528 0.38512 0.0
H847 H 0.55367 0.50848 0.40486 0.0
H848 H 0.18084 0.29898 0.12898 0.0
H849 H 0.15758 0.32818 0.10842 0.0
H850 H 0.09713 0.28875 0.14098 0.0
H851 H 0.12017 0.25902 0.16124 0.0
H852 H 0.11986 0.31281 0.07796 0.0
H853 H 0.09404 0.36592 0.15285 0.0
H854 H 0.11864 0.34817 0.1533 0.0
H855 H 0.09073 0.33186 0.15616 0.0
C856 C 0.16259 0.29639 0.13169 0.0
C857 C 0.15237 0.27664 0.14675 0.0
C858 C 0.14936 0.31318 0.12003 0.0
C859 C 0.12572 0.31067 0.12337 0.0
C860 C 0.11541 0.29115 0.13847 0.0
H861 H 0.02773 0.40908 0.06487 0.0
H862 H 0.04432 0.37448 0.08638 0.0
C863 C 0.12862 0.27426 0.15007 0.0
C864 C 0.11189 0.32813 0.11043 0.0
H865 H 0.08007 0.37782 0.11649 0.0
C866 C 0.11105 0.32696 0.08635 0.0
C867 C 0.10026 0.3463 0.12155 0.0
C868 C 0.10096 0.34839 0.14738 0.0
C869 C 0.09911 0.34382 0.07297 0.0
C870 C 0.08822 0.36269 0.08395 0.0
C871 C 0.08847 0.36334 0.10814 0.0
C872 C 0.07783 0.38296 0.07051 0.0
C873 C 0.09828 0.34124 0.04719 0.0
C874 C 0.09124 0.39928 0.05471 0.0
C875 C 0.08185 0.4189 0.0424 0.0
C876 C 0.05888 0.42279 0.04582 0.0
C877 C 0.04545 0.4065 0.06178 0.0
C878 C 0.05489 0.38677 0.07409 0.0
H879 H 0.10089 0.32167 0.04266 0.0
H880 H 0.08182 0.34626 0.04033 0.0
H881 H 0.11206 0.3542 0.03845 0.0
H882 H 0.10911 0.39707 0.05212 0.0
H883 H 0.09273 0.4312 0.03039 0.0
H884 H 0.60265 0.25698 0.89795 0.0
H885 H 0.58435 0.21864 0.91853 0.0
H886 H 0.58098 0.18112 0.85449 0.0
H887 H 0.59873 0.2197 0.83374 0.0
H888 H 0.54233 0.17094 0.87903 0.0
H889 H 0.61393 0.15582 0.93639 0.0
H890 H 0.60364 0.18624 0.93907 0.0
H891 H 0.61639 0.1788 0.91207 0.0
C892 C 0.59808 0.2405 0.8883 0.0
C893 C 0.60225 0.24127 0.86427 0.0
C894 C 0.58772 0.21856 0.90009 0.0
C895 C 0.58174 0.19676 0.88817 0.0
C896 C 0.58553 0.19764 0.86409 0.0
H897 H 0.55304 0.04635 0.95542 0.0
H898 H 0.56923 0.08438 0.93297 0.0
C899 C 0.59563 0.2197 0.85224 0.0
C900 C 0.57138 0.17311 0.90075 0.0
H901 H 0.57923 0.13061 0.94573 0.0
C902 C 0.55045 0.16205 0.89355 0.0
C903 C 0.58213 0.16123 0.91946 0.0
C904 C 0.60537 0.17097 0.92706 0.0
C905 C 0.53985 0.13968 0.90472 0.0
C906 C 0.55013 0.12844 0.92407 0.0
C907 C 0.57119 0.13934 0.93107 0.0
C908 C 0.5397 0.10506 0.93706 0.0
C909 C 0.51803 0.12804 0.89526 0.0
C910 C 0.5177 0.10396 0.94696 0.0
C911 C 0.50826 0.08205 0.95957 0.0
C912 C 0.52083 0.06101 0.96294 0.0
C913 C 0.54292 0.06225 0.95321 0.0
C914 C 0.55221 0.084 0.94036 0.0
H915 H 0.51623 0.13427 0.8768 0.0
H916 H 0.5171 0.10704 0.89675 0.0
H917 H 0.50346 0.13413 0.90519 0.0
H918 H 0.50792 0.12017 0.94525 0.0
H919 H 0.4913 0.08179 0.96707 0.0
H920 H 0.87892 0.74756 0.38956 0.0
H921 H 0.89906 0.78369 0.40664 0.0
H922 H 0.92199 0.81466 0.33873 0.0
H923 H 0.90095 0.779 0.32133 0.0
H924 H 0.94396 0.80154 0.40543 0.0
H925 H 0.89227 0.87333 0.36457 0.0
H926 H 0.88423 0.83978 0.36426 0.0
H927 H 0.90629 0.85463 0.34484 0.0
C928 C 0.88803 0.76216 0.37818 0.0
C929 C 0.88798 0.76054 0.35402 0.0
C930 C 0.89973 0.78271 0.38801 0.0
C931 C 0.91171 0.80213 0.37397 0.0
C932 C 0.91246 0.80017 0.34989 0.0
H933 H 0.97452 0.94586 0.42228 0.0
H934 H 0.96629 0.91002 0.39794 0.0
C935 C 0.90064 0.77961 0.33999 0.0
C936 C 0.92294 0.82448 0.3848 0.0
H937 H 0.92082 0.88808 0.3893 0.0
C938 C 0.93904 0.8205 0.40174 0.0
C939 C 0.91657 0.84925 0.37995 0.0
C940 C 0.89877 0.8546 0.36257 0.0
C941 C 0.94847 0.84045 0.41436 0.0
C942 C 0.9415 0.86498 0.41007 0.0
C943 C 0.92616 0.86922 0.39249 0.0
C944 C 0.94822 0.88593 0.42505 0.0
C945 C 0.96557 0.83508 0.43246 0.0
C946 C 0.94081 0.88421 0.44831 0.0
C947 C 0.94532 0.90462 0.46216 0.0
C948 C 0.95739 0.92719 0.45304 0.0
C949 C 0.9653 0.92868 0.42985 0.0
C950 C 0.96058 0.90827 0.41591 0.0
H951 H 0.97373 0.81754 0.42931 0.0
H952 H 0.97896 0.85111 0.43291 0.0
H953 H 0.95683 0.83246 0.44972 0.0
H954 H 0.93093 0.8673 0.45559 0.0
H955 H 0.93897 0.90283 0.47992 0.0
H956 H 0.41147 0.76191 0.6251 0.0
H957 H 0.43152 0.72945 0.60715 0.0
H958 H 0.36784 0.69332 0.58593 0.0
H959 H 0.34756 0.7252 0.6043 0.0
H960 H 0.42386 0.67431 0.6168 0.0
H961 H 0.40883 0.70513 0.5256 0.0
H962 H 0.40637 0.72559 0.54919 0.0
H963 H 0.38406 0.70132 0.5445 0.0
C964 C 0.40168 0.74695 0.6168 0.0
C965 C 0.37787 0.74626 0.61609 0.0
C966 C 0.4132 0.72852 0.60644 0.0
C967 C 0.40117 0.70924 0.59499 0.0
C968 C 0.37745 0.70835 0.59435 0.0
H969 H 0.42674 0.57899 0.52175 0.0
H970 H 0.41191 0.61481 0.53948 0.0
C971 C 0.3659 0.72665 0.60479 0.0
C972 C 0.41328 0.68967 0.58405 0.0
H973 H 0.42387 0.66552 0.53201 0.0
C974 C 0.4241 0.67246 0.59825 0.0
C975 C 0.41348 0.68741 0.55987 0.0
C976 C 0.40274 0.70594 0.54381 0.0
C977 C 0.4344 0.65237 0.58896 0.0
C978 C 0.43431 0.64985 0.56476 0.0
C979 C 0.42392 0.66746 0.55055 0.0
C980 C 0.44382 0.62836 0.55391 0.0
C981 C 0.44444 0.63344 0.60523 0.0
C982 C 0.4668 0.62424 0.55586 0.0
C983 C 0.47536 0.60359 0.54583 0.0
C984 C 0.46109 0.5869 0.53345 0.0
C985 C 0.43821 0.59144 0.53116 0.0
C986 C 0.42968 0.61194 0.54128 0.0
H987 H 0.43825 0.63453 0.62337 0.0
H988 H 0.4403 0.61383 0.59996 0.0
H989 H 0.46317 0.63744 0.60477 0.0
H990 H 0.47814 0.637 0.56509 0.0
H991 H 0.49309 0.60071 0.54778 0.0
H992 H 0.81498 0.89018 0.67916 0.0
H993 H 0.83801 0.91042 0.64615 0.0
H994 H 0.89884 0.90169 0.68413 0.0
H995 H 0.87609 0.88164 0.71703 0.0
H996 H 0.86998 0.95404 0.6436 0.0
H997 H 0.91025 0.8673 0.62377 0.0
H998 H 0.88519 0.86655 0.64227 0.0
H999 H 0.91275 0.87527 0.65334 0.0
C1000 C 0.83325 0.89276 0.68048 0.0
C1001 C 0.84377 0.88403 0.70053 0.0
C1002 C 0.84636 0.90422 0.66163 0.0
C1003 C 0.87011 0.90703 0.66259 0.0
C1004 C 0.88056 0.89909 0.68286 0.0
H1005 H 0.98475 0.96742 0.57599 0.0
H1006 H 0.9585 0.94978 0.60729 0.0
C1007 C 0.86754 0.88763 0.70162 0.0
C1008 C 0.88417 0.91825 0.64249 0.0
H1009 H 0.92666 0.90606 0.60512 0.0
C1010 C 0.88223 0.94354 0.63501 0.0
C1011 C 0.90008 0.9044 0.63135 0.0
C1012 C 0.9021 0.8768 0.63792 0.0
C1013 C 0.8964 0.95564 0.61712 0.0
C1014 C 0.91264 0.94193 0.60636 0.0
C1015 C 0.91428 0.91653 0.61357 0.0
C1016 C 0.92827 0.95357 0.58764 0.0
C1017 C 0.89435 0.98316 0.61031 0.0
C1018 C 0.9199 0.96139 0.56623 0.0
C1019 C 0.93482 0.97143 0.54827 0.0
C1020 C 0.95841 0.97375 0.55141 0.0
C1021 C 0.9667 0.96596 0.57297 0.0
C1022 C 0.95175 0.95587 0.59088 0.0
H1023 H 0.88457 0.99238 0.6235 0.0
H1024 H 0.91138 0.99374 0.60772 0.0
H1025 H 0.88543 0.98461 0.59372 0.0
H1026 H 0.90184 0.95934 0.56328 0.0
H1027 H 0.92783 0.97714 0.53188 0.0
H1028 H 0.61104 0.15652 0.19808 0.0
H1029 H 0.59523 0.13828 0.16349 0.0
H1030 H 0.60785 0.06371 0.19057 0.0
H1031 H 0.62311 0.08169 0.22556 0.0
H1032 H 0.61519 0.10818 0.13079 0.0
H1033 H 0.53956 0.05686 0.17703 0.0
H1034 H 0.5572 0.08153 0.18983 0.0
H1035 H 0.56661 0.05048 0.18828 0.0
C1036 C 0.61032 0.13621 0.19676 0.0
C1037 C 0.61814 0.12053 0.21468 0.0
C1038 C 0.60145 0.12585 0.17691 0.0
C1039 C 0.60011 0.09963 0.17462 0.0
C1040 C 0.60844 0.08396 0.19216 0.0
H1041 H 0.53121 0.01259 0.06856 0.0
H1042 H 0.55547 0.02415 0.10072 0.0
C1043 C 0.61735 0.09431 0.21203 0.0
C1044 C 0.58953 0.08878 0.15405 0.0
H1045 H 0.5432 0.05216 0.13702 0.0
C1046 C 0.59952 0.09582 0.13213 0.0
C1047 C 0.56915 0.07256 0.1559 0.0
C1048 C 0.55733 0.065 0.17897 0.0
C1049 C 0.5895 0.08728 0.11194 0.0
C1050 C 0.56876 0.07169 0.11374 0.0
C1051 C 0.55913 0.06407 0.1357 0.0
C1052 C 0.55588 0.06456 0.0931 0.0
C1053 C 0.60123 0.09505 0.08887 0.0
C1054 C 0.54812 0.08343 0.07816 0.0
C1055 C 0.5343 0.07691 0.05983 0.0
C1056 C 0.52781 0.05136 0.05616 0.0
C1057 C 0.53596 0.03244 0.07088 0.0
C1058 C 0.54979 0.039 0.08927 0.0
H1059 H 0.61973 0.09991 0.09074 0.0
H1060 H 0.59873 0.07978 0.07663 0.0
H1061 H 0.59402 0.1121 0.08125 0.0
H1062 H 0.55217 0.10326 0.08109 0.0
H1063 H 0.52829 0.09196 0.04888 0.0
H1064 H 0.38177 0.62621 0.30523 0.0
H1065 H 0.4015 0.60934 0.33846 0.0
H1066 H 0.38415 0.53337 0.31813 0.0
H1067 H 0.36498 0.55014 0.28436 0.0
H1068 H 0.38493 0.5761 0.37514 0.0
H1069 H 0.4528 0.53546 0.32546 0.0
H1070 H 0.43475 0.5575 0.31233 0.0
H1071 H 0.42437 0.52481 0.31803 0.0
C1072 C 0.38235 0.60591 0.30763 0.0
C1073 C 0.37194 0.58956 0.29193 0.0
C1074 C 0.39351 0.59629 0.32676 0.0
C1075 C 0.39463 0.57012 0.33062 0.0
C1076 C 0.38389 0.55367 0.31528 0.0
H1077 H 0.46111 0.48328 0.43827 0.0
H1078 H 0.43849 0.49593 0.4054 0.0
C1079 C 0.3727 0.56328 0.29611 0.0
C1080 C 0.40687 0.5602 0.35086 0.0
H1081 H 0.45203 0.52772 0.36609 0.0
C1082 C 0.3996 0.56551 0.37315 0.0
C1083 C 0.42597 0.54631 0.34828 0.0
C1084 C 0.43512 0.54082 0.32475 0.0
C1085 C 0.41085 0.55729 0.39292 0.0
C1086 C 0.43016 0.54376 0.39032 0.0
C1087 C 0.43722 0.53808 0.36806 0.0
C1088 C 0.44368 0.53605 0.41042 0.0
C1089 C 0.4018 0.56295 0.41643 0.0
C1090 C 0.45437 0.5544 0.424 0.0
C1091 C 0.4673 0.54726 0.44276 0.0
C1092 C 0.46994 0.52157 0.44832 0.0
C1093 C 0.45937 0.50321 0.43456 0.0
C1094 C 0.44645 0.5104 0.41574 0.0
H1095 H 0.38371 0.56691 0.41591 0.0
H1096 H 0.40337 0.54691 0.4293 0.0
H1097 H 0.41173 0.57996 0.42241 0.0
H1098 H 0.45288 0.57433 0.41996 0.0
H1099 H 0.47525 0.56193 0.4529 0.0
H1100 H 0.08425 0.38428 0.77898 0.0
H1101 H 0.06805 0.40383 0.81195 0.0
H1102 H 0.13457 0.41608 0.84025 0.0
H1103 H 0.15093 0.39635 0.8074 0.0
H1104 H 0.06888 0.38897 0.85859 0.0
H1105 H 0.11112 0.48617 0.84136 0.0
H1106 H 0.1102 0.46273 0.81998 0.0
H1107 H 0.13019 0.46176 0.84281 0.0
C1108 C 0.09546 0.391 0.79226 0.0
C1109 C 0.11892 0.38873 0.79049 0.0
C1110 C 0.08617 0.4023 0.81104 0.0
C1111 C 0.10012 0.41173 0.82842 0.0
C1112 C 0.12353 0.40945 0.82679 0.0
H1113 H 0.05364 0.44589 0.96603 0.0
H1114 H 0.07191 0.42851 0.93304 0.0
C1115 C 0.13286 0.39815 0.80799 0.0
C1116 C 0.08999 0.42323 0.84856 0.0
H1117 H 0.0906 0.47778 0.87712 0.0
C1118 C 0.07361 0.40839 0.86264 0.0
C1119 C 0.09598 0.44867 0.85367 0.0
C1120 C 0.11268 0.46589 0.83857 0.0
C1121 C 0.06325 0.41819 0.8818 0.0
C1122 C 0.06969 0.44342 0.88728 0.0
C1123 C 0.08586 0.45837 0.87304 0.0
C1124 C 0.05946 0.45473 0.90745 0.0
C1125 C 0.04518 0.40158 0.89576 0.0
C1126 C 0.04699 0.47581 0.90415 0.0
C1127 C 0.0366 0.48594 0.92301 0.0
C1128 C 0.03856 0.47525 0.94562 0.0
C1129 C 0.05159 0.45452 0.94889 0.0
C1130 C 0.06198 0.44444 0.93002 0.0
H1131 H 0.03823 0.38533 0.88604 0.0
H1132 H 0.05263 0.39388 0.91177 0.0
H1133 H 0.03098 0.41257 0.90083 0.0
H1134 H 0.04492 0.48413 0.88689 0.0
H1135 H 0.02674 0.5019 0.91981 0.0
H1136 H 0.71949 0.89485 0.85426 0.0
H1137 H 0.68933 0.91531 0.87316 0.0
H1138 H 0.65334 0.84226 0.89133 0.0
H1139 H 0.68316 0.82162 0.87187 0.0
H1140 H 0.62587 0.87838 0.87264 0.0
H1141 H 0.67801 0.91607 0.94346 0.0
H1142 H 0.69008 0.92438 0.91498 0.0
H1143 H 0.68678 0.89175 0.92564 0.0
C1144 C 0.70506 0.88313 0.86209 0.0
C1145 C 0.70373 0.8566 0.86161 0.0
C1146 C 0.68799 0.89484 0.87311 0.0
C1147 C 0.66934 0.88025 0.88396 0.0
C1148 C 0.66773 0.85381 0.88322 0.0
H1149 H 0.57051 0.93564 0.97762 0.0
H1150 H 0.59974 0.91236 0.96027 0.0
C1151 C 0.68482 0.84206 0.87222 0.0
C1152 C 0.6513 0.89266 0.89572 0.0
H1153 H 0.64169 0.93132 0.93921 0.0
C1154 C 0.62926 0.88985 0.88728 0.0
C1155 C 0.65577 0.90731 0.91499 0.0
C1156 C 0.67889 0.90992 0.92548 0.0
C1157 C 0.61165 0.90189 0.89724 0.0
C1158 C 0.61634 0.91737 0.91591 0.0
C1159 C 0.63823 0.91963 0.92474 0.0
C1160 C 0.59877 0.93157 0.92638 0.0
C1161 C 0.58814 0.89777 0.88783 0.0
C1162 C 0.58887 0.95034 0.91314 0.0
C1163 C 0.57221 0.96367 0.92297 0.0
C1164 C 0.56523 0.95854 0.94628 0.0
C1165 C 0.57547 0.94 0.95961 0.0
C1166 C 0.59216 0.92668 0.94975 0.0
H1167 H 0.5861 0.8805 0.87787 0.0
H1168 H 0.57502 0.89606 0.90201 0.0
H1169 H 0.58506 0.91424 0.87602 0.0
H1170 H 0.59409 0.95474 0.8952 0.0
H1171 H 0.56476 0.97792 0.91226 0.0
H1172 H 0.78498 0.10758 0.32745 0.0
H1173 H 0.81875 0.09273 0.34529 0.0
H1174 H 0.78525 0.0895 0.41245 0.0
H1175 H 0.75113 0.10356 0.39469 0.0
H1176 H 0.84549 0.11497 0.37939 0.0
H1177 H 0.80728 0.01881 0.40941 0.0
H1178 H 0.79402 0.03877 0.38848 0.0
H1179 H 0.79209 0.04433 0.41873 0.0
C1180 C 0.78467 0.10339 0.34599 0.0
C1181 C 0.76528 0.10658 0.35963 0.0
C1182 C 0.80404 0.0951 0.35616 0.0
C1183 C 0.80438 0.08969 0.38014 0.0
C1184 C 0.7852 0.09316 0.39386 0.0
H1185 H 0.90672 0.03386 0.47032 0.0
H1186 H 0.87298 0.05129 0.45475 0.0
C1187 C 0.7658 0.10146 0.38371 0.0
C1188 C 0.82494 0.08073 0.39075 0.0
H1189 H 0.84453 0.03067 0.42127 0.0
C1190 C 0.84532 0.09653 0.38852 0.0
C1191 C 0.82461 0.05669 0.40269 0.0
C1192 C 0.8034 0.03853 0.40485 0.0
C1193 C 0.86538 0.08901 0.3981 0.0
C1194 C 0.86509 0.06489 0.40987 0.0
C1195 C 0.84466 0.04918 0.41227 0.0
C1196 C 0.88589 0.05529 0.41934 0.0
C1197 C 0.88662 0.10709 0.39582 0.0
C1198 C 0.90426 0.05162 0.40456 0.0
C1199 C 0.92355 0.04168 0.41338 0.0
C1200 C 0.92479 0.03507 0.43715 0.0
C1201 C 0.90635 0.03882 0.45193 0.0
C1202 C 0.88705 0.04875 0.44308 0.0
H1203 H 0.88269 0.12693 0.39201 0.0
H1204 H 0.89649 0.10625 0.41187 0.0
H1205 H 0.89747 0.10176 0.38136 0.0
H1206 H 0.90353 0.05607 0.38612 0.0
H1207 H 0.93739 0.03893 0.4015 0.0
H1208 H 0.20971 0.64583 0.14263 0.0
H1209 H 0.17446 0.62788 0.12641 0.0
H1210 H 0.20078 0.55482 0.12664 0.0
H1211 H 0.2359 0.57263 0.14344 0.0
H1212 H 0.16783 0.60789 0.08614 0.0
H1213 H 0.13911 0.53529 0.15573 0.0
H1214 H 0.16187 0.55958 0.15944 0.0
H1215 H 0.16713 0.53167 0.14475 0.0
C1216 C 0.20789 0.62588 0.1394 0.0
C1217 C 0.22556 0.61062 0.14436 0.0
C1218 C 0.18773 0.61564 0.13012 0.0
C1219 C 0.18476 0.5899 0.1255 0.0
C1220 C 0.20236 0.57457 0.13057 0.0
H1221 H 0.08683 0.5252 0.02991 0.0
H1222 H 0.12048 0.54505 0.04772 0.0
C1223 C 0.22247 0.58476 0.14012 0.0
C1224 C 0.16368 0.57955 0.11446 0.0
H1225 H 0.11996 0.53272 0.12012 0.0
C1226 C 0.1573 0.59153 0.09365 0.0
C1227 C 0.1497 0.55841 0.12437 0.0
C1228 C 0.15465 0.54565 0.14742 0.0
C1229 C 0.13758 0.58282 0.08237 0.0
C1230 C 0.12412 0.56104 0.09178 0.0
C1231 C 0.13034 0.54926 0.11274 0.0
C1232 C 0.10343 0.55021 0.08036 0.0
C1233 C 0.13113 0.59743 0.06077 0.0
C1234 C 0.08262 0.5461 0.09279 0.0
C1235 C 0.06344 0.53441 0.08275 0.0
C1236 C 0.06459 0.52664 0.06 0.0
C1237 C 0.08528 0.53127 0.04736 0.0
C1238 C 0.10455 0.54272 0.05751 0.0
H1239 H 0.13882 0.61736 0.06001 0.0
H1240 H 0.1375 0.58847 0.04537 0.0
H1241 H 0.11244 0.59748 0.05973 0.0
H1242 H 0.08128 0.55166 0.11043 0.0
H1243 H 0.04778 0.53112 0.09298 0.0
H1244 H 0.29885 0.41335 0.68202 0.0
H1245 H 0.33458 0.42996 0.66208 0.0
H1246 H 0.30485 0.41585 0.59631 0.0
H1247 H 0.26895 0.40006 0.61598 0.0
H1248 H 0.36209 0.40506 0.63261 0.0
H1249 H 0.33134 0.48951 0.58689 0.0
H1250 H 0.31553 0.47192 0.61057 0.0
H1251 H 0.31489 0.46029 0.58205 0.0
C1252 C 0.29981 0.41415 0.6633 0.0
C1253 C 0.281 0.40542 0.65061 0.0
C1254 C 0.32029 0.42346 0.65194 0.0
C1255 C 0.3223 0.42443 0.6277 0.0
C1256 C 0.30359 0.41569 0.615 0.0
H1257 H 0.43215 0.4756 0.52805 0.0
H1258 H 0.39695 0.45559 0.5469 0.0
C1259 C 0.28314 0.4064 0.62631 0.0
C1260 C 0.3441 0.434 0.61568 0.0
H1261 H 0.36821 0.47948 0.57617 0.0
C1262 C 0.36346 0.42139 0.62033 0.0
C1263 C 0.34583 0.45524 0.59959 0.0
C1264 C 0.32586 0.4702 0.59458 0.0
C1265 C 0.38446 0.42926 0.60912 0.0
C1266 C 0.38619 0.45055 0.5931 0.0
C1267 C 0.36681 0.46308 0.58836 0.0
C1268 C 0.40812 0.46082 0.58173 0.0
C1269 C 0.40451 0.4145 0.61426 0.0
C1270 C 0.42609 0.4703 0.59505 0.0
C1271 C 0.44618 0.48171 0.58436 0.0
C1272 C 0.44868 0.48401 0.56009 0.0
C1273 C 0.43082 0.47403 0.54677 0.0
C1274 C 0.41067 0.46266 0.55751 0.0
H1275 H 0.39909 0.39507 0.62169 0.0
H1276 H 0.41512 0.41314 0.5984 0.0
H1277 H 0.41518 0.42435 0.62708 0.0
H1278 H 0.42435 0.46953 0.61374 0.0
H1279 H 0.45955 0.48926 0.59516 0.0
H1280 H 0.85286 0.73389 0.88246 0.0
H1281 H 0.87338 0.70318 0.90466 0.0
H1282 H 0.88257 0.66261 0.84332 0.0
H1283 H 0.86161 0.69294 0.82107 0.0
H1284 H 0.86788 0.63159 0.88369 0.0
H1285 H 0.94283 0.69875 0.89912 0.0
H1286 H 0.91594 0.70939 0.90711 0.0
H1287 H 0.92252 0.70509 0.87725 0.0
C1288 C 0.85902 0.71827 0.87375 0.0
C1289 C 0.85569 0.71585 0.85001 0.0
C1290 C 0.87095 0.70093 0.88639 0.0
C1291 C 0.87978 0.68094 0.8755 0.0
C1292 C 0.87604 0.67809 0.85195 0.0
H1293 H 0.97687 0.58077 0.92967 0.0
H1294 H 0.95752 0.61181 0.90645 0.0
C1295 C 0.86417 0.69546 0.83927 0.0
C1296 C 0.89274 0.66282 0.88875 0.0
H1297 H 0.94082 0.65844 0.91953 0.0
C1298 C 0.88386 0.6374 0.89147 0.0
C1299 C 0.91372 0.67048 0.89857 0.0
C1300 C 0.92448 0.69736 0.89525 0.0
C1301 C 0.89518 0.61947 0.90428 0.0
C1302 C 0.91575 0.62731 0.91479 0.0
C1303 C 0.92492 0.6526 0.9116 0.0
C1304 C 0.92787 0.60948 0.92931 0.0
C1305 C 0.88514 0.59224 0.90634 0.0
C1306 C 0.9178 0.59845 0.95007 0.0
C1307 C 0.92878 0.58082 0.96337 0.0
C1308 C 0.95009 0.57394 0.95615 0.0
C1309 C 0.96045 0.58562 0.93566 0.0
C1310 C 0.94944 0.60332 0.92238 0.0
H1311 H 0.87245 0.58824 0.89289 0.0
H1312 H 0.8986 0.57914 0.90486 0.0
H1313 H 0.87648 0.58821 0.92354 0.0
H1314 H 0.90132 0.60334 0.95588 0.0
H1315 H 0.92038 0.57229 0.97912 0.0
H1316 H 0.42708 0.75282 0.14366 0.0
H1317 H 0.44486 0.79099 0.12238 0.0
H1318 H 0.37942 0.81972 0.11574 0.0
H1319 H 0.36161 0.78208 0.13768 0.0
H1320 H 0.43696 0.8092 0.07773 0.0
H1321 H 0.41758 0.87925 0.14091 0.0
H1322 H 0.41504 0.8456 0.14825 0.0
H1323 H 0.39309 0.85976 0.1326 0.0
C1324 C 0.4165 0.76743 0.13799 0.0
C1325 C 0.39291 0.76441 0.14251 0.0
C1326 C 0.42668 0.78915 0.12568 0.0
C1327 C 0.41353 0.80838 0.11776 0.0
C1328 C 0.38997 0.80536 0.12207 0.0
H1329 H 0.43783 0.9497 0.03503 0.0
H1330 H 0.42188 0.91181 0.05793 0.0
C1331 C 0.37978 0.78366 0.13438 0.0
C1332 C 0.42434 0.83123 0.10439 0.0
H1333 H 0.4317 0.89582 0.10375 0.0
C1334 C 0.43596 0.82813 0.08349 0.0
C1335 C 0.42301 0.85592 0.11194 0.0
C1336 C 0.4117 0.86041 0.13475 0.0
C1337 C 0.44581 0.84908 0.06964 0.0
C1338 C 0.44427 0.87377 0.07708 0.0
C1339 C 0.4328 0.87687 0.09806 0.0
C1340 C 0.45417 0.89668 0.06319 0.0
C1341 C 0.45724 0.84467 0.04687 0.0
C1342 C 0.47767 0.90089 0.05876 0.0
C1343 C 0.48688 0.92256 0.04566 0.0
C1344 C 0.47273 0.94046 0.0368 0.0
C1345 C 0.44921 0.93626 0.04148 0.0
C1346 C 0.44005 0.91464 0.05461 0.0
H1347 H 0.45234 0.82536 0.04118 0.0
H1348 H 0.45294 0.85877 0.03314 0.0
H1349 H 0.47591 0.84677 0.04876 0.0
H1350 H 0.48892 0.8875 0.06557 0.0
H1351 H 0.50506 0.92525 0.04247 0.0
H1352 H 0.09565 0.24778 0.64196 0.0
H1353 H 0.07687 0.21123 0.62372 0.0
H1354 H 0.14141 0.18086 0.6152 0.0
H1355 H 0.16006 0.2166 0.63409 0.0
H1356 H 0.0841 0.19678 0.57968 0.0
H1357 H 0.10241 0.11967 0.6428 0.0
H1358 H 0.10581 0.15258 0.64936 0.0
H1359 H 0.12768 0.13911 0.63332 0.0
C1360 C 0.10574 0.23304 0.63663 0.0
C1361 C 0.12937 0.23516 0.63945 0.0
C1362 C 0.09502 0.21226 0.62607 0.0
C1363 C 0.10768 0.19313 0.61835 0.0
C1364 C 0.1312 0.19509 0.62142 0.0
H1365 H 0.0957 0.06689 0.53327 0.0
H1366 H 0.10694 0.10371 0.55517 0.0
C1367 C 0.14189 0.21574 0.63197 0.0
C1368 C 0.09674 0.17177 0.60594 0.0
H1369 H 0.0922 0.10728 0.60489 0.0
C1370 C 0.08554 0.1772 0.58537 0.0
C1371 C 0.09856 0.14621 0.61342 0.0
C1372 C 0.10906 0.13902 0.63606 0.0
C1373 C 0.07706 0.15777 0.57157 0.0
C1374 C 0.07981 0.13235 0.57858 0.0
C1375 C 0.09034 0.12686 0.59947 0.0
C1376 C 0.07263 0.11114 0.5641 0.0
C1377 C 0.06599 0.16452 0.54915 0.0
C1378 C 0.04957 0.10328 0.56173 0.0
C1379 C 0.04304 0.08213 0.54928 0.0
C1380 C 0.0595 0.06853 0.53896 0.0
C1381 C 0.08257 0.07692 0.54093 0.0
C1382 C 0.08905 0.09793 0.55349 0.0
H1383 H 0.06773 0.18525 0.54475 0.0
H1384 H 0.07356 0.15485 0.53477 0.0
H1385 H 0.04766 0.15788 0.55058 0.0
H1386 H 0.03665 0.11314 0.56998 0.0
H1387 H 0.02514 0.07615 0.54814 0.0
H1388 H 0.61158 0.22996 0.41579 0.0
H1389 H 0.59251 0.26306 0.43391 0.0
H1390 H 0.60199 0.31031 0.37058 0.0
H1391 H 0.62021 0.27682 0.3522 0.0
H1392 H 0.60828 0.30807 0.44328 0.0
H1393 H 0.53717 0.31844 0.38457 0.0
H1394 H 0.55467 0.29247 0.38349 0.0
H1395 H 0.5638 0.32272 0.36885 0.0
C1396 C 0.60935 0.24734 0.40572 0.0
C1397 C 0.61724 0.25084 0.38259 0.0
C1398 C 0.59844 0.26622 0.41605 0.0
C1399 C 0.5954 0.28906 0.40352 0.0
C1400 C 0.60341 0.29259 0.38041 0.0
H1401 H 0.58432 0.43241 0.46215 0.0
H1402 H 0.59596 0.39433 0.44564 0.0
C1403 C 0.61398 0.27353 0.36996 0.0
C1404 C 0.58527 0.3098 0.41508 0.0
H1405 H 0.54628 0.35306 0.40879 0.0
C1406 C 0.59452 0.31768 0.43585 0.0
C1407 C 0.56701 0.3221 0.40571 0.0
C1408 C 0.55494 0.31329 0.38457 0.0
C1409 C 0.58661 0.33799 0.44705 0.0
C1410 C 0.56952 0.35148 0.43677 0.0
C1411 C 0.55965 0.34302 0.41648 0.0
C1412 C 0.56217 0.37479 0.44644 0.0
C1413 C 0.59657 0.34458 0.46992 0.0
C1414 C 0.53912 0.37704 0.45145 0.0
C1415 C 0.53233 0.39912 0.46047 0.0
C1416 C 0.5485 0.41926 0.46476 0.0
C1417 C 0.57148 0.41708 0.45941 0.0
C1418 C 0.5782 0.39522 0.4501 0.0
H1419 H 0.60305 0.32782 0.47901 0.0
H1420 H 0.61111 0.35922 0.4668 0.0
H1421 H 0.58388 0.35206 0.48147 0.0
H1422 H 0.52642 0.36161 0.44857 0.0
H1423 H 0.51449 0.40029 0.46435 0.0
loop_
_geom_bond_atom_site_label_1
_geom_bond_atom_site_label_2
_geom_bond_distance
_geom_bond_site_symmetry_2
_ccdc_geom_bond_type
C0 C1 1.391 . S
C0 C4 1.391 . S
C0 H42 0.948 . S
C1 C0 1.391 . S
C1 C2 1.391 . S
C2 C1 1.391 . S
C2 H58 0.947 . S
C2 C59 1.392 . S
C3 C4 1.391 . S
C3 C7 1.397 . S
C3 C59 1.419 . S
C4 C0 1.391 . S
C4 C3 1.391 . S
C4 C5 1.399 . S
C5 C4 1.399 . S
C5 C8 1.396 . S
C5 C17 1.453 . S
C5 C18 1.684 . S
H6 C30 0.948 . S
C7 C3 1.397 . S
C7 C8 1.394 . S
C7 C26 1.723 . S
C8 C5 1.396 . S
C8 C7 1.394 . S
C8 C38 1.723 . S
H9 C32 0.947 . S
H10 C33 0.948 . S
H11 C39 0.982 . S
H12 C40 0.979 . S
H13 C40 0.980 . S
H14 C40 0.983 . S
H15 C39 0.979 . S
H16 C39 0.977 . S
C17 C5 1.453 . S
C17 H46 0.982 . S
C17 H47 0.979 . S
C17 H48 0.977 . S
C18 C5 1.684 . S
C18 H43 0.979 . S
C18 H44 0.980 . S
C18 H45 0.983 . S
C19 C20 1.391 . S
C19 C24 1.391 . S
C19 H49 0.948 . S
C20 C19 1.391 . S
C20 C21 1.391 . S
C21 C20 1.391 . S
C21 C22 1.392 . S
C21 H50 0.947 . S
C22 C21 1.392 . S
C22 C23 1.419 . S
C22 H51 0.948 . S
C23 C22 1.419 . S
C23 C24 1.391 . S
C23 C27 1.397 . S
C24 C19 1.391 . S
C24 C23 1.391 . S
C24 C25 1.399 . S
C25 C24 1.399 . S
C25 C26 1.396 . S
C25 C28 1.453 . S
C25 C29 1.684 . S
C26 C7 1.723 . S
C26 C25 1.396 . S
C26 C27 1.394 . S
C27 C23 1.397 . S
C27 C26 1.394 . S
C27 C37 1.723 . S
C28 C25 1.453 . S
C28 H52 0.982 . S
C28 H53 0.979 . S
C28 H54 0.977 . S
C29 C25 1.684 . S
C29 H55 0.979 . S
C29 H56 0.980 . S
C29 H57 0.983 . S
C30 H6 0.948 . S
C30 C31 1.391 . S
C30 C35 1.391 . S
C31 C30 1.391 . S
C31 C32 1.391 . S
C32 H9 0.947 . S
C32 C31 1.391 . S
C32 C33 1.392 . S
C33 H10 0.948 . S
C33 C32 1.392 . S
C33 C34 1.419 . S
C34 C33 1.419 . S
C34 C35 1.391 . S
C34 C38 1.397 . S
C35 C30 1.391 . S
C35 C34 1.391 . S
C35 C36 1.399 . S
C36 C35 1.399 . S
C36 C37 1.396 . S
C36 C39 1.453 . S
C36 C40 1.684 . S
C37 C27 1.723 . S
C37 C36 1.396 . S
C37 C38 1.394 . S
C38 C8 1.723 . S
C38 C34 1.397 . S
C38 C37 1.394 . S
C39 H11 0.982 . S
C39 H15 0.979 . S
C39 H16 0.977 . S
C39 C36 1.453 . S
C40 H12 0.979 . S
C40 H13 0.980 . S
C40 H14 0.983 . S
C40 C36 1.684 . S
H41 C59 0.948 . S
H42 C0 0.948 . S
H43 C18 0.979 . S
H44 C18 0.980 . S
H45 C18 0.983 . S
H46 C17 0.982 . S
H47 C17 0.979 . S
H48 C17 0.977 . S
H49 C19 0.948 . S
H50 C21 0.947 . S
H51 C22 0.948 . S
H52 C28 0.982 . S
H53 C28 0.979 . S
H54 C28 0.977 . S
H55 C29 0.979 . S
H56 C29 0.980 . S
H57 C29 0.983 . S
H58 C2 0.947 . S
C59 C2 1.392 . S
C59 C3 1.419 . S
C59 H41 0.948 . S
C60 C61 1.391 . S
C60 C64 1.391 . S
C60 H102 0.948 . S
C61 C60 1.391 . S
C61 C62 1.391 . S
C62 C61 1.391 . S
C62 H118 0.947 . S
C62 C119 1.392 . S
C63 C64 1.391 . S
C63 C67 1.397 . S
C63 C119 1.419 . S
C64 C60 1.391 . S
C64 C63 1.391 . S
C64 C65 1.399 . S
C65 C64 1.399 . S
C65 C68 1.396 . S
C65 C77 1.453 . S
C65 C78 1.684 . S
H66 C90 0.948 . S
C67 C63 1.397 . S
C67 C68 1.394 . S
C67 C86 1.723 . S
C68 C65 1.396 . S
C68 C67 1.394 . S
C68 C98 1.723 . S
H69 C92 0.947 . S
H70 C93 0.948 . S
H71 C99 0.982 . S
H72 C100 0.979 . S
H73 C100 0.980 . S
H74 C100 0.983 . S
H75 C99 0.979 . S
H76 C99 0.977 . S
C77 C65 1.453 . S
C77 H106 0.982 . S
C77 H107 0.979 . S
C77 H108 0.977 . S
C78 C65 1.684 . S
C78 H103 0.979 . S
C78 H104 0.980 . S
C78 H105 0.983 . S
C79 C80 1.391 . S
C79 C84 1.391 . S
C79 H109 0.948 . S
C80 C79 1.391 . S
C80 C81 1.391 . S
C81 C80 1.391 . S
C81 C82 1.392 . S
C81 H110 0.947 . S
C82 C81 1.392 . S
C82 C83 1.419 . S
C82 H111 0.948 . S
C83 C82 1.419 . S
C83 C84 1.391 . S
C83 C87 1.397 . S
C84 C79 1.391 . S
C84 C83 1.391 . S
C84 C85 1.399 . S
C85 C84 1.399 . S
C85 C86 1.396 . S
C85 C88 1.453 . S
C85 C89 1.684 . S
C86 C67 1.723 . S
C86 C85 1.396 . S
C86 C87 1.394 . S
C87 C83 1.397 . S
C87 C86 1.394 . S
C87 C97 1.723 . S
C88 C85 1.453 . S
C88 H112 0.982 . S
C88 H113 0.979 . S
C88 H114 0.977 . S
C89 C85 1.684 . S
C89 H115 0.979 . S
C89 H116 0.980 . S
C89 H117 0.983 . S
C90 H66 0.948 . S
C90 C91 1.391 . S
C90 C95 1.391 . S
C91 C90 1.391 . S
C91 C92 1.391 . S
C92 H69 0.947 . S
C92 C91 1.391 . S
C92 C93 1.392 . S
C93 H70 0.948 . S
C93 C92 1.392 . S
C93 C94 1.419 . S
C94 C93 1.419 . S
C94 C95 1.391 . S
C94 C98 1.397 . S
C95 C90 1.391 . S
C95 C94 1.391 . S
C95 C96 1.399 . S
C96 C95 1.399 . S
C96 C97 1.396 . S
C96 C99 1.453 . S
C96 C100 1.684 . S
C97 C87 1.723 . S
C97 C96 1.396 . S
C97 C98 1.394 . S
C98 C68 1.723 . S
C98 C94 1.397 . S
C98 C97 1.394 . S
C99 H71 0.982 . S
C99 H75 0.979 . S
C99 H76 0.977 . S
C99 C96 1.453 . S
C100 H72 0.979 . S
C100 H73 0.980 . S
C100 H74 0.983 . S
C100 C96 1.684 . S
H101 C119 0.948 . S
H102 C60 0.948 . S
H103 C78 0.979 . S
H104 C78 0.980 . S
H105 C78 0.983 . S
H106 C77 0.982 . S
H107 C77 0.979 . S
H108 C77 0.977 . S
H109 C79 0.948 . S
H110 C81 0.947 . S
H111 C82 0.948 . S
H112 C88 0.982 . S
H113 C88 0.979 . S
H114 C88 0.977 . S
H115 C89 0.979 . S
H116 C89 0.980 . S
H117 C89 0.983 . S
H118 C62 0.947 . S
C119 C62 1.392 . S
C119 C63 1.419 . S
C119 H101 0.948 . S
C120 C121 1.391 . S
C120 C124 1.391 . S
C120 H162 0.948 . S
C121 C120 1.391 . S
C121 C122 1.391 . S
C122 C121 1.391 . S
C122 H178 0.947 . S
C122 C179 1.392 . S
C123 C124 1.391 . S
C123 C127 1.397 . S
C123 C179 1.419 . S
C124 C120 1.391 . S
C124 C123 1.391 . S
C124 C125 1.399 . S
C125 C124 1.399 . S
C125 C128 1.396 . S
C125 C137 1.453 . S
C125 C138 1.684 . S
H126 C150 0.948 . S
C127 C123 1.397 . S
C127 C128 1.394 . S
C127 C146 1.723 . S
C128 C125 1.396 . S
C128 C127 1.394 . S
C128 C158 1.723 . S
H129 C152 0.947 . S
H130 C153 0.948 . S
H131 C159 0.982 . S
H132 C160 0.979 . S
H133 C160 0.980 . S
H134 C160 0.983 . S
H135 C159 0.979 . S
H136 C159 0.977 . S
C137 C125 1.453 . S
C137 H166 0.982 . S
C137 H167 0.979 . S
C137 H168 0.977 . S
C138 C125 1.684 . S
C138 H163 0.979 . S
C138 H164 0.980 . S
C138 H165 0.983 . S
C139 C140 1.391 . S
C139 C144 1.391 . S
C139 H169 0.948 . S
C140 C139 1.391 . S
C140 C141 1.391 . S
C141 C140 1.391 . S
C141 C142 1.392 . S
C141 H170 0.947 . S
C142 C141 1.392 . S
C142 C143 1.419 . S
C142 H171 0.948 . S
C143 C142 1.419 . S
C143 C144 1.391 . S
C143 C147 1.397 . S
C144 C139 1.391 . S
C144 C143 1.391 . S
C144 C145 1.399 . S
C145 C144 1.399 . S
C145 C146 1.396 . S
C145 C148 1.453 . S
C145 C149 1.684 . S
C146 C127 1.723 . S
C146 C145 1.396 . S
C146 C147 1.394 . S
C147 C143 1.397 . S
C147 C146 1.394 . S
C147 C157 1.723 . S
C148 C145 1.453 . S
C148 H172 0.982 . S
C148 H173 0.979 . S
C148 H174 0.977 . S
C149 C145 1.684 . S
C149 H175 0.979 . S
C149 H176 0.980 . S
C149 H177 0.983 . S
C150 H126 0.948 . S
C150 C151 1.391 . S
C150 C155 1.391 . S
C151 C150 1.391 . S
C151 C152 1.391 . S
C152 H129 0.947 . S
C152 C151 1.391 . S
C152 C153 1.392 . S
C153 H130 0.948 . S
C153 C152 1.392 . S
C153 C154 1.419 . S
C154 C153 1.419 . S
C154 C155 1.391 . S
C154 C158 1.397 . S
C155 C150 1.391 . S
C155 C154 1.391 . S
C155 C156 1.399 . S
C156 C155 1.399 . S
C156 C157 1.396 . S
C156 C159 1.453 . S
C156 C160 1.684 . S
C157 C147 1.723 . S
C157 C156 1.396 . S
C157 C158 1.394 . S
C158 C128 1.723 . S
C158 C154 1.397 . S
C158 C157 1.394 . S
C159 H131 0.982 . S
C159 H135 0.979 . S
C159 H136 0.977 . S
C159 C156 1.453 . S
C160 H132 0.979 . S
C160 H133 0.980 . S
C160 H134 0.983 . S
C160 C156 1.684 . S
H161 C179 0.948 . S
H162 C120 0.948 . S
H163 C138 0.979 . S
H164 C138 0.980 . S
H165 C138 0.983 . S
H166 C137 0.982 . S
H167 C137 0.979 . S
H168 C137 0.977 . S
H169 C139 0.948 . S
H170 C141 0.947 . S
H171 C142 0.948 . S
H172 C148 0.982 . S
H173 C148 0.979 . S
H174 C148 0.977 . S
H175 C149 0.979 . S
H176 C149 0.980 . S
H177 C149 0.983 . S
H178 C122 0.947 . S
C179 C122 1.392 . S
C179 C123 1.419 . S
C179 H161 0.948 . S
C180 C181 1.391 . S
C180 C184 1.391 . S
C180 H222 0.948 . S
C181 C180 1.391 . S
C181 C182 1.391 . S
C182 C181 1.391 . S
C182 H238 0.947 . S
C182 C239 1.392 . S
C183 C184 1.391 . S
C183 C187 1.397 . S
C183 C239 1.419 . S
C184 C180 1.391 . S
C184 C183 1.391 . S
C184 C185 1.399 . S
C185 C184 1.399 . S
C185 C188 1.396 . S
C185 C197 1.453 . S
C185 C198 1.684 . S
H186 C210 0.948 . S
C187 C183 1.397 . S
C187 C188 1.394 . S
C187 C206 1.723 . S
C188 C185 1.396 . S
C188 C187 1.394 . S
C188 C218 1.723 . S
H189 C212 0.947 . S
H190 C213 0.948 . S
H191 C219 0.982 . S
H192 C220 0.979 . S
H193 C220 0.980 . S
H194 C220 0.983 . S
H195 C219 0.979 . S
H196 C219 0.977 . S
C197 C185 1.453 . S
C197 H226 0.982 . S
C197 H227 0.979 . S
C197 H228 0.977 . S
C198 C185 1.684 . S
C198 H223 0.979 . S
C198 H224 0.980 . S
C198 H225 0.983 . S
C199 C200 1.391 . S
C199 C204 1.391 . S
C199 H229 0.948 . S
C200 C199 1.391 . S
C200 C201 1.391 . S
C201 C200 1.391 . S
C201 C202 1.392 . S
C201 H230 0.947 . S
C202 C201 1.392 . S
C202 C203 1.419 . S
C202 H231 0.948 . S
C203 C202 1.419 . S
C203 C204 1.391 . S
C203 C207 1.397 . S
C204 C199 1.391 . S
C204 C203 1.391 . S
C204 C205 1.399 . S
C205 C204 1.399 . S
C205 C206 1.396 . S
C205 C208 1.453 . S
C205 C209 1.684 . S
C206 C187 1.723 . S
C206 C205 1.396 . S
C206 C207 1.394 . S
C207 C203 1.397 . S
C207 C206 1.394 . S
C207 C217 1.723 . S
C208 C205 1.453 . S
C208 H232 0.982 . S
C208 H233 0.979 . S
C208 H234 0.977 . S
C209 C205 1.684 . S
C209 H235 0.979 . S
C209 H236 0.980 . S
C209 H237 0.983 . S
C210 H186 0.948 . S
C210 C211 1.391 . S
C210 C215 1.391 . S
C211 C210 1.391 . S
C211 C212 1.391 . S
C212 H189 0.947 . S
C212 C211 1.391 . S
C212 C213 1.392 . S
C213 H190 0.948 . S
C213 C212 1.392 . S
C213 C214 1.419 . S
C214 C213 1.419 . S
C214 C215 1.391 . S
C214 C218 1.397 . S
C215 C210 1.391 . S
C215 C214 1.391 . S
C215 C216 1.399 . S
C216 C215 1.399 . S
C216 C217 1.396 . S
C216 C219 1.453 . S
C216 C220 1.684 . S
C217 C207 1.723 . S
C217 C216 1.396 . S
C217 C218 1.394 . S
C218 C188 1.723 . S
C218 C214 1.397 . S
C218 C217 1.394 . S
C219 H191 0.982 . S
C219 H195 0.979 . S
C219 H196 0.977 . S
C219 C216 1.453 . S
C220 H192 0.979 . S
C220 H193 0.980 . S
C220 H194 0.983 . S
C220 C216 1.684 . S
H221 C239 0.948 . S
H222 C180 0.948 . S
H223 C198 0.979 . S
H224 C198 0.980 . S
H225 C198 0.983 . S
H226 C197 0.982 . S
H227 C197 0.979 . S
H228 C197 0.977 . S
H229 C199 0.948 . S
H230 C201 0.947 . S
H231 C202 0.948 . S
H232 C208 0.982 . S
H233 C208 0.979 . S
H234 C208 0.977 . S
H235 C209 0.979 . S
H236 C209 0.980 . S
H237 C209 0.983 . S
H238 C182 0.947 . S
C239 C182 1.392 . S
C239 C183 1.419 . S
C239 H221 0.948 . S
C240 C241 1.391 . S
C240 C244 1.391 . S
C240 H282 0.948 . S
C241 C240 1.391 . S
C241 C242 1.391 . S
C242 C241 1.391 . S
C242 H298 0.947 . S
C242 C299 1.392 . S
C243 C244 1.391 . S
C243 C247 1.397 . S
C243 C299 1.419 . S
C244 C240 1.391 . S
C244 C243 1.391 . S
C244 C245 1.399 . S
C245 C244 1.399 . S
C245 C248 1.396 . S
C245 C257 1.453 . S
C245 C258 1.684 . S
H246 C270 0.948 . S
C247 C243 1.397 . S
C247 C248 1.394 . S
C247 C266 1.723 . S
C248 C245 1.396 . S
C248 C247 1.394 . S
C248 C278 1.723 . S
H249 C272 0.947 . S
H250 C273 0.948 . S
H251 C279 0.982 . S
H252 C280 0.979 . S
H253 C280 0.980 . S
H254 C280 0.983 . S
H255 C279 0.979 . S
H256 C279 0.977 . S
C257 C245 1.453 . S
C257 H286 0.982 . S
C257 H287 0.979 . S
C257 H288 0.977 . S
C258 C245 1.684 . S
C258 H283 0.979 . S
C258 H284 0.980 . S
C258 H285 0.983 . S
C259 C260 1.391 . S
C259 C264 1.391 . S
C259 H289 0.948 . S
C260 C259 1.391 . S
C260 C261 1.391 . S
C261 C260 1.391 . S
C261 C262 1.392 . S
C261 H290 0.947 . S
C262 C261 1.392 . S
C262 C263 1.419 . S
C262 H291 0.948 . S
C263 C262 1.419 . S
C263 C264 1.391 . S
C263 C267 1.397 . S
C264 C259 1.391 . S
C264 C263 1.391 . S
C264 C265 1.399 . S
C265 C264 1.399 . S
C265 C266 1.396 . S
C265 C268 1.453 . S
C265 C269 1.684 . S
C266 C247 1.723 . S
C266 C265 1.396 . S
C266 C267 1.394 . S
C267 C263 1.397 . S
C267 C266 1.394 . S
C267 C277 1.723 . S
C268 C265 1.453 . S
C268 H292 0.982 . S
C268 H293 0.979 . S
C268 H294 0.977 . S
C269 C265 1.684 . S
C269 H295 0.979 . S
C269 H296 0.980 . S
C269 H297 0.983 . S
C270 H246 0.948 . S
C270 C271 1.391 . S
C270 C275 1.391 . S
C271 C270 1.391 . S
C271 C272 1.391 . S
C272 H249 0.947 . S
C272 C271 1.391 . S
C272 C273 1.392 . S
C273 H250 0.948 . S
C273 C272 1.392 . S
C273 C274 1.419 . S
C274 C273 1.419 . S
C274 C275 1.391 . S
C274 C278 1.397 . S
C275 C270 1.391 . S
C275 C274 1.391 . S
C275 C276 1.399 . S
C276 C275 1.399 . S
C276 C277 1.396 . S
C276 C279 1.453 . S
C276 C280 1.684 . S
C277 C267 1.723 . S
C277 C276 1.396 . S
C277 C278 1.394 . S
C278 C248 1.723 . S
C278 C274 1.397 . S
C278 C277 1.394 . S
C279 H251 0.982 . S
C279 H255 0.979 . S
C279 H256 0.977 . S
C279 C276 1.453 . S
C280 H252 0.979 . S
C280 H253 0.980 . S
C280 H254 0.983 . S
C280 C276 1.684 . S
H281 C299 0.948 . S
H282 C240 0.948 . S
H283 C258 0.979 . S
H284 C258 0.980 . S
H285 C258 0.983 . S
H286 C257 0.982 . S
H287 C257 0.979 . S
H288 C257 0.977 . S
H289 C259 0.948 . S
H290 C261 0.947 . S
H291 C262 0.948 . S
H292 C268 0.982 . S
H293 C268 0.979 . S
H294 C268 0.977 . S
H295 C269 0.979 . S
H296 C269 0.980 . S
H297 C269 0.983 . S
H298 C242 0.947 . S
C299 C242 1.392 . S
C299 C243 1.419 . S
C299 H281 0.948 . S
C300 C301 1.391 . S
C300 C304 1.391 . S
C300 H342 0.948 . S
C301 C300 1.391 . S
C301 C302 1.391 . S
C302 C301 1.391 . S
C302 H358 0.947 . S
C302 C359 1.392 . S
C303 C304 1.391 . S
C303 C307 1.397 . S
C303 C359 1.419 . S
C304 C300 1.391 . S
C304 C303 1.391 . S
C304 C305 1.399 . S
C305 C304 1.399 . S
C305 C308 1.396 . S
C305 C317 1.453 . S
C305 C318 1.684 . S
H306 C330 0.948 . S
C307 C303 1.397 . S
C307 C308 1.394 . S
C307 C326 1.723 . S
C308 C305 1.396 . S
C308 C307 1.394 . S
C308 C338 1.723 . S
H309 C332 0.947 . S
H310 C333 0.948 . S
H311 C339 0.982 . S
H312 C340 0.979 . S
H313 C340 0.980 . S
H314 C340 0.983 . S
H315 C339 0.979 . S
H316 C339 0.977 . S
C317 C305 1.453 . S
C317 H346 0.982 . S
C317 H347 0.979 . S
C317 H348 0.977 . S
C318 C305 1.684 . S
C318 H343 0.979 . S
C318 H344 0.980 . S
C318 H345 0.983 . S
C319 C320 1.391 . S
C319 C324 1.391 . S
C319 H349 0.948 . S
C320 C319 1.391 . S
C320 C321 1.391 . S
C321 C320 1.391 . S
C321 C322 1.392 . S
C321 H350 0.947 . S
C322 C321 1.392 . S
C322 C323 1.419 . S
C322 H351 0.948 . S
C323 C322 1.419 . S
C323 C324 1.391 . S
C323 C327 1.397 . S
C324 C319 1.391 . S
C324 C323 1.391 . S
C324 C325 1.399 . S
C325 C324 1.399 . S
C325 C326 1.396 . S
C325 C328 1.453 . S
C325 C329 1.684 . S
C326 C307 1.723 . S
C326 C325 1.396 . S
C326 C327 1.394 . S
C327 C323 1.397 . S
C327 C326 1.394 . S
C327 C337 1.723 . S
C328 C325 1.453 . S
C328 H352 0.982 . S
C328 H353 0.979 . S
C328 H354 0.977 . S
C329 C325 1.684 . S
C329 H355 0.979 . S
C329 H356 0.980 . S
C329 H357 0.983 . S
C330 H306 0.948 . S
C330 C331 1.391 . S
C330 C335 1.391 . S
C331 C330 1.391 . S
C331 C332 1.391 . S
C332 H309 0.947 . S
C332 C331 1.391 . S
C332 C333 1.392 . S
C333 H310 0.948 . S
C333 C332 1.392 . S
C333 C334 1.419 . S
C334 C333 1.419 . S
C334 C335 1.391 . S
C334 C338 1.397 . S
C335 C330 1.391 . S
C335 C334 1.391 . S
C335 C336 1.399 . S
C336 C335 1.399 . S
C336 C337 1.396 . S
C336 C339 1.453 . S
C336 C340 1.684 . S
C337 C327 1.723 . S
C337 C336 1.396 . S
C337 C338 1.394 . S
C338 C308 1.723 . S
C338 C334 1.397 . S
C338 C337 1.394 . S
C339 H311 0.982 . S
C339 H315 0.979 . S
C339 H316 0.977 . S
C339 C336 1.453 . S
C340 H312 0.979 . S
C340 H313 0.980 . S
C340 H314 0.983 . S
C340 C336 1.684 . S
H341 C359 0.948 . S
H342 C300 0.948 . S
H343 C318 0.979 . S
H344 C318 0.980 . S
H345 C318 0.983 . S
H346 C317 0.982 . S
H347 C317 0.979 . S
H348 C317 0.977 . S
H349 C319 0.948 . S
H350 C321 0.947 . S
H351 C322 0.948 . S
H352 C328 0.982 . S
H353 C328 0.979 . S
H354 C328 0.977 . S
H355 C329 0.979 . S
H356 C329 0.980 . S
H357 C329 0.983 . S
H358 C302 0.947 . S
C359 C302 1.392 . S
C359 C303 1.419 . S
C359 H341 0.948 . S
C360 C361 1.391 . S
C360 C364 1.391 . S
C360 H402 0.948 . S
C361 C360 1.391 . S
C361 C362 1.391 . S
C362 C361 1.391 . S
C362 H418 0.947 . S
C362 C419 1.392 . S
C363 C364 1.391 . S
C363 C367 1.397 . S
C363 C419 1.419 . S
C364 C360 1.391 . S
C364 C363 1.391 . S
C364 C365 1.399 . S
C365 C364 1.399 . S
C365 C368 1.396 . S
C365 C377 1.453 . S
C365 C378 1.684 . S
H366 C390 0.948 . S
C367 C363 1.397 . S
C367 C368 1.394 . S
C367 C386 1.723 . S
C368 C365 1.396 . S
C368 C367 1.394 . S
C368 C398 1.723 . S
H369 C392 0.947 . S
H370 C393 0.948 . S
H371 C399 0.982 . S
H372 C400 0.979 . S
H373 C400 0.980 . S
H374 C400 0.983 . S
H375 C399 0.979 . S
H376 C399 0.977 . S
C377 C365 1.453 . S
C377 H406 0.982 . S
C377 H407 0.979 . S
C377 H408 0.977 . S
C378 C365 1.684 . S
C378 H403 0.979 . S
C378 H404 0.980 . S
C378 H405 0.983 . S
C379 C380 1.391 . S
C379 C384 1.391 . S
C379 H409 0.948 . S
C380 C379 1.391 . S
C380 C381 1.391 . S
C381 C380 1.391 . S
C381 C382 1.392 . S
C381 H410 0.947 . S
C382 C381 1.392 . S
C382 C383 1.419 . S
C382 H411 0.948 . S
C383 C382 1.419 . S
C383 C384 1.391 . S
C383 C387 1.397 . S
C384 C379 1.391 . S
C384 C383 1.391 . S
C384 C385 1.399 . S
C385 C384 1.399 . S
C385 C386 1.396 . S
C385 C388 1.453 . S
C385 C389 1.684 . S
C386 C367 1.723 . S
C386 C385 1.396 . S
C386 C387 1.394 . S
C387 C383 1.397 . S
C387 C386 1.394 . S
C387 C397 1.723 . S
C388 C385 1.453 . S
C388 H412 0.982 . S
C388 H413 0.979 . S
C388 H414 0.977 . S
C389 C385 1.684 . S
C389 H415 0.979 . S
C389 H416 0.980 . S
C389 H417 0.983 . S
C390 H366 0.948 . S
C390 C391 1.391 . S
C390 C395 1.391 . S
C391 C390 1.391 . S
C391 C392 1.391 . S
C392 H369 0.947 . S
C392 C391 1.391 . S
C392 C393 1.392 . S
C393 H370 0.948 . S
C393 C392 1.392 . S
C393 C394 1.419 . S
C394 C393 1.419 . S
C394 C395 1.391 . S
C394 C398 1.397 . S
C395 C390 1.391 . S
C395 C394 1.391 . S
C395 C396 1.399 . S
C396 C395 1.399 . S
C396 C397 1.396 . S
C396 C399 1.453 . S
C396 C400 1.684 . S
C397 C387 1.723 . S
C397 C396 1.396 . S
C397 C398 1.394 . S
C398 C368 1.723 . S
C398 C394 1.397 . S
C398 C397 1.394 . S
C399 H371 0.982 . S
C399 H375 0.979 . S
C399 H376 0.977 . S
C399 C396 1.453 . S
C400 H372 0.979 . S
C400 H373 0.980 . S
C400 H374 0.983 . S
C400 C396 1.684 . S
H401 C419 0.948 . S
H402 C360 0.948 . S
H403 C378 0.979 . S
H404 C378 0.980 . S
H405 C378 0.983 . S
H406 C377 0.982 . S
H407 C377 0.979 . S
H408 C377 0.977 . S
H409 C379 0.948 . S
H410 C381 0.947 . S
H411 C382 0.948 . S
H412 C388 0.982 . S
H413 C388 0.979 . S
H414 C388 0.977 . S
H415 C389 0.979 . S
H416 C389 0.980 . S
H417 C389 0.983 . S
H418 C362 0.947 . S
C419 C362 1.392 . S
C419 C363 1.419 . S
C419 H401 0.948 . S
C420 C421 1.391 . S
C420 C424 1.391 . S
C420 H462 0.948 . S
C421 C420 1.391 . S
C421 C422 1.391 . S
C422 C421 1.391 . S
C422 H478 0.947 . S
C422 C479 1.392 . S
C423 C424 1.391 . S
C423 C427 1.397 . S
C423 C479 1.419 . S
C424 C420 1.391 . S
C424 C423 1.391 . S
C424 C425 1.399 . S
C425 C424 1.399 . S
C425 C428 1.396 . S
C425 C437 1.453 . S
C425 C438 1.684 . S
H426 C450 0.948 . S
C427 C423 1.397 . S
C427 C428 1.394 . S
C427 C446 1.723 . S
C428 C425 1.396 . S
C428 C427 1.394 . S
C428 C458 1.723 . S
H429 C452 0.947 . S
H430 C453 0.948 . S
H431 C459 0.982 . S
H432 C460 0.979 . S
H433 C460 0.980 . S
H434 C460 0.983 . S
H435 C459 0.979 . S
H436 C459 0.977 . S
C437 C425 1.453 . S
C437 H466 0.982 . S
C437 H467 0.979 . S
C437 H468 0.977 . S
C438 C425 1.684 . S
C438 H463 0.979 . S
C438 H464 0.980 . S
C438 H465 0.983 . S
C439 C440 1.391 . S
C439 C444 1.391 . S
C439 H469 0.948 . S
C440 C439 1.391 . S
C440 C441 1.391 . S
C441 C440 1.391 . S
C441 C442 1.392 . S
C441 H470 0.947 . S
C442 C441 1.392 . S
C442 C443 1.419 . S
C442 H471 0.948 . S
C443 C442 1.419 . S
C443 C444 1.391 . S
C443 C447 1.397 . S
C444 C439 1.391 . S
C444 C443 1.391 . S
C444 C445 1.399 . S
C445 C444 1.399 . S
C445 C446 1.396 . S
C445 C448 1.453 . S
C445 C449 1.684 . S
C446 C427 1.723 . S
C446 C445 1.396 . S
C446 C447 1.394 . S
C447 C443 1.397 . S
C447 C446 1.394 . S
C447 C457 1.723 . S
C448 C445 1.453 . S
C448 H472 0.982 . S
C448 H473 0.979 . S
C448 H474 0.977 . S
C449 C445 1.684 . S
C449 H475 0.979 . S
C449 H476 0.980 . S
C449 H477 0.983 . S
C450 H426 0.948 . S
C450 C451 1.391 . S
C450 C455 1.391 . S
C451 C450 1.391 . S
C451 C452 1.391 . S
C452 H429 0.947 . S
C452 C451 1.391 . S
C452 C453 1.392 . S
C453 H430 0.948 . S
C453 C452 1.392 . S
C453 C454 1.419 . S
C454 C453 1.419 . S
C454 C455 1.391 . S
C454 C458 1.397 . S
C455 C450 1.391 . S
C455 C454 1.391 . S
C455 C456 1.399 . S
C456 C455 1.399 . S
C456 C457 1.396 . S
C456 C459 1.453 . S
C456 C460 1.684 . S
C457 C447 1.723 . S
C457 C456 1.396 . S
C457 C458 1.394 . S
C458 C428 1.723 . S
C458 C454 1.397 . S
C458 C457 1.394 . S
C459 H431 0.982 . S
C459 H435 0.979 . S
C459 H436 0.977 . S
C459 C456 1.453 . S
C460 H432 0.979 . S
C460 H433 0.980 . S
C460 H434 0.983 . S
C460 C456 1.684 . S
H461 C479 0.948 . S
H462 C420 0.948 . S
H463 C438 0.979 . S
H464 C438 0.980 . S
H465 C438 0.983 . S
H466 C437 0.982 . S
H467 C437 0.979 . S
H468 C437 0.977 . S
H469 C439 0.948 . S
H470 C441 0.947 . S
H471 C442 0.948 . S
H472 C448 0.982 . S
H473 C448 0.979 . S
H474 C448 0.977 . S
H475 C449 0.979 . S
H476 C449 0.980 . S
H477 C449 0.983 . S
H478 C422 0.947 . S
C479 C422 1.392 . S
C479 C423 1.419 . S
C479 H461 0.948 . S
Zn480 O486 1.969 1_545 S
Zn480 O487 1.965 1_545 S
Zn480 O491 2.024 . S
Zn480 O496 1.969 . S
Zn481 O488 1.969 . S
Zn481 O494 1.969 1_565 S
Zn481 O495 1.965 1_565 S
Zn481 O497 2.024 . S
C482 O483 1.229 . S
C482 O491 1.058 . S
O483 C482 1.229 . S
C484 O485 1.229 . S
C484 O497 1.058 . S
O485 C484 1.229 . S
O486 Zn480 1.969 1_565 S
O486 C489 1.267 . S
O487 Zn480 1.965 1_565 S
O487 C498 1.260 1_455 S
O488 Zn481 1.969 . S
O488 C498 1.258 . S
C489 O486 1.267 . S
C489 O490 1.228 . S
O490 C489 1.228 . S
O491 Zn480 2.024 . S
O491 C482 1.058 . S
C492 O493 1.228 . S
C492 O494 1.267 . S
O493 C492 1.228 . S
O494 Zn481 1.969 1_545 S
O494 C492 1.267 . S
O495 Zn481 1.965 1_545 S
O495 C499 1.260 1_655 S
O496 Zn480 1.969 . S
O496 C499 1.258 . S
O497 Zn481 2.024 . S
O497 C484 1.058 . S
C498 O487 1.260 1_655 S
C498 O488 1.258 . S
C499 O495 1.260 1_455 S
C499 O496 1.258 . S
Zn500 O506 1.969 . S
Zn500 O507 1.965 1_565 S
Zn500 O511 2.024 . S
Zn500 O516 1.969 . S
Zn501 O508 1.969 . S
Zn501 O514 1.969 . S
Zn501 O515 1.965 1_545 S
Zn501 O517 2.024 . S
C502 O503 1.229 . S
C502 O511 1.058 . S
O503 C502 1.229 . S
C504 O505 1.229 . S
C504 O517 1.058 . S
O505 C504 1.229 . S
O506 Zn500 1.969 . S
O506 C509 1.267 . S
O507 Zn500 1.965 1_545 S
O507 C518 1.260 . S
O508 Zn501 1.969 . S
O508 C518 1.258 1_554 S
C509 O506 1.267 . S
C509 O510 1.228 . S
O510 C509 1.228 . S
O511 Zn500 2.024 . S
O511 C502 1.058 . S
C512 O513 1.228 . S
C512 O514 1.267 . S
O513 C512 1.228 . S
O514 Zn501 1.969 . S
O514 C512 1.267 . S
O515 Zn501 1.965 1_565 S
O515 C519 1.260 . S
O516 Zn500 1.969 . S
O516 C519 1.258 1_556 S
O517 Zn501 2.024 . S
O517 C504 1.058 . S
C518 O507 1.260 . S
C518 O508 1.258 1_556 S
C519 O515 1.260 . S
C519 O516 1.258 1_554 S
Zn520 O526 1.969 . S
Zn520 O527 1.965 . S
Zn520 O531 2.024 . S
Zn520 O536 1.969 . S
Zn521 O528 1.969 . S
Zn521 O534 1.969 . S
Zn521 O535 1.965 . S
Zn521 O537 2.024 . S
C522 O523 1.229 . S
C522 O531 1.058 . S
O523 C522 1.229 . S
C524 O525 1.229 . S
C524 O537 1.058 . S
O525 C524 1.229 . S
O526 Zn520 1.969 . S
O526 C529 1.267 . S
O527 Zn520 1.965 . S
O527 C538 1.260 . S
O528 Zn521 1.969 . S
O528 C538 1.258 . S
C529 O526 1.267 . S
C529 O530 1.228 . S
O530 C529 1.228 . S
O531 Zn520 2.024 . S
O531 C522 1.058 . S
C532 O533 1.228 . S
C532 O534 1.267 . S
O533 C532 1.228 . S
O534 Zn521 1.969 . S
O534 C532 1.267 . S
O535 Zn521 1.965 . S
O535 C539 1.260 . S
O536 Zn520 1.969 . S
O536 C539 1.258 . S
O537 Zn521 2.024 . S
O537 C524 1.058 . S
C538 O527 1.260 . S
C538 O528 1.258 . S
C539 O535 1.260 . S
C539 O536 1.258 . S
Zn540 O546 1.969 . S
Zn540 O547 1.965 1_556 S
Zn540 O551 2.024 . S
Zn540 O556 1.991 . S
Zn541 O548 2.000 . S
Zn541 O554 1.969 . S
Zn541 O555 1.965 1_554 S
Zn541 O557 2.024 . S
C542 O543 1.229 . S
C542 O551 1.058 . S
O543 C542 1.229 . S
C544 O545 1.229 . S
C544 O557 1.058 . S
O545 C544 1.229 . S
O546 Zn540 1.969 . S
O546 C549 1.267 . S
O547 Zn540 1.965 1_554 S
O547 C558 1.260 . S
O548 Zn541 2.000 . S
O548 C558 1.227 1_455 S
C549 O546 1.267 . S
C549 O550 1.228 . S
O550 C549 1.228 . S
O551 Zn540 2.024 . S
O551 C542 1.058 . S
C552 O553 1.228 . S
C552 O554 1.267 . S
O553 C552 1.228 . S
O554 Zn541 1.969 . S
O554 C552 1.267 . S
O555 Zn541 1.965 1_556 S
O555 C559 1.260 . S
O556 Zn540 1.991 . S
O556 C559 1.237 1_655 S
O557 Zn541 2.024 . S
O557 C544 1.058 . S
C558 O547 1.260 . S
C558 O548 1.227 1_655 S
C559 O555 1.260 . S
C559 O556 1.237 1_455 S
H560 C568 0.929 . S
H561 C570 0.930 . S
H562 C572 0.930 . S
H563 C575 0.929 . S
H564 C578 0.930 . S
H565 C580 0.960 . S
H566 C580 0.960 . S
H567 C580 0.960 . S
C568 H560 0.929 . S
C568 C569 1.377 . S
C568 C570 1.384 . S
C569 C568 1.377 . S
C569 C575 1.390 . S
C570 H561 0.930 . S
C570 C568 1.384 . S
C570 C571 1.372 . S
C571 C570 1.372 . S
C571 C572 1.400 . S
C571 C576 1.490 . S
C572 H562 0.930 . S
C572 C571 1.400 . S
C572 C575 1.386 . S
H573 C589 0.930 . S
H574 C590 0.931 . S
C575 H563 0.929 . S
C575 C569 1.390 . S
C575 C572 1.386 . S
C576 C571 1.490 . S
C576 C578 1.395 . S
C576 C579 1.403 . S
H577 C583 0.930 . S
C578 H564 0.930 . S
C578 C576 1.395 . S
C578 C581 1.403 . S
C579 C576 1.403 . S
C579 C580 1.524 . S
C579 C583 1.400 . S
C580 H565 0.960 . S
C580 H566 0.960 . S
C580 H567 0.960 . S
C580 C579 1.524 . S
C581 C578 1.403 . S
C581 C582 1.392 . S
C581 C585 1.495 . S
C582 C581 1.392 . S
C582 C583 1.385 . S
C582 C584 1.478 . S
C583 H577 0.930 . S
C583 C579 1.400 . S
C583 C582 1.385 . S
C584 C582 1.478 . S
C584 C586 1.381 . S
C584 C590 1.383 . S
C585 C581 1.495 . S
C585 H591 0.959 . S
C585 H592 0.961 . S
C585 H593 0.960 . S
C586 C584 1.381 . S
C586 C587 1.394 . S
C586 H594 0.930 . S
C587 C586 1.394 . S
C587 C588 1.383 . S
C587 H595 0.929 . S
C588 C587 1.383 . S
C588 C589 1.377 . S
C589 H573 0.930 . S
C589 C588 1.377 . S
C589 C590 1.379 . S
C590 H574 0.931 . S
C590 C584 1.383 . S
C590 C589 1.379 . S
H591 C585 0.959 . S
H592 C585 0.961 . S
H593 C585 0.960 . S
H594 C586 0.930 . S
H595 C587 0.929 . S
H596 C604 0.929 . S
H597 C606 0.930 . S
H598 C608 0.930 . S
H599 C611 0.929 . S
H600 C614 0.930 . S
H601 C616 0.960 . S
H602 C616 0.960 . S
H603 C616 0.960 . S
C604 H596 0.929 . S
C604 C605 1.377 . S
C604 C606 1.384 . S
C605 C604 1.377 . S
C605 C611 1.390 . S
C606 H597 0.930 . S
C606 C604 1.384 . S
C606 C607 1.372 . S
C607 C606 1.372 . S
C607 C608 1.400 . S
C607 C612 1.490 . S
C608 H598 0.930 . S
C608 C607 1.400 . S
C608 C611 1.386 . S
H609 C625 0.930 . S
H610 C626 0.931 . S
C611 H599 0.929 . S
C611 C605 1.390 . S
C611 C608 1.386 . S
C612 C607 1.490 . S
C612 C614 1.395 . S
C612 C615 1.403 . S
H613 C619 0.930 . S
C614 H600 0.930 . S
C614 C612 1.395 . S
C614 C617 1.403 . S
C615 C612 1.403 . S
C615 C616 1.524 . S
C615 C619 1.400 . S
C616 H601 0.960 . S
C616 H602 0.960 . S
C616 H603 0.960 . S
C616 C615 1.524 . S
C617 C614 1.403 . S
C617 C618 1.392 . S
C617 C621 1.495 . S
C618 C617 1.392 . S
C618 C619 1.385 . S
C618 C620 1.478 . S
C619 H613 0.930 . S
C619 C615 1.400 . S
C619 C618 1.385 . S
C620 C618 1.478 . S
C620 C622 1.381 . S
C620 C626 1.383 . S
C621 C617 1.495 . S
C621 H627 0.959 . S
C621 H628 0.961 . S
C621 H629 0.960 . S
C622 C620 1.381 . S
C622 C623 1.394 . S
C622 H630 0.930 . S
C623 C622 1.394 . S
C623 C624 1.383 . S
C623 H631 0.929 . S
C624 C623 1.383 . S
C624 C625 1.377 . S
C625 H609 0.930 . S
C625 C624 1.377 . S
C625 C626 1.379 . S
C626 H610 0.931 . S
C626 C620 1.383 . S
C626 C625 1.379 . S
H627 C621 0.959 . S
H628 C621 0.961 . S
H629 C621 0.960 . S
H630 C622 0.930 . S
H631 C623 0.929 . S
H632 C640 0.929 . S
H633 C642 0.930 . S
H634 C644 0.930 . S
H635 C647 0.929 . S
H636 C650 0.930 . S
H637 C652 0.960 . S
H638 C652 0.960 . S
H639 C652 0.960 . S
C640 H632 0.929 . S
C640 C641 1.377 . S
C640 C642 1.384 . S
C641 C640 1.377 . S
C641 C647 1.390 . S
C642 H633 0.930 . S
C642 C640 1.384 . S
C642 C643 1.372 . S
C643 C642 1.372 . S
C643 C644 1.400 . S
C643 C648 1.490 . S
C644 H634 0.930 . S
C644 C643 1.400 . S
C644 C647 1.386 . S
H645 C661 0.930 . S
H646 C662 0.931 . S
C647 H635 0.929 . S
C647 C641 1.390 . S
C647 C644 1.386 . S
C648 C643 1.490 . S
C648 C650 1.395 . S
C648 C651 1.403 . S
H649 C655 0.930 . S
C650 H636 0.930 . S
C650 C648 1.395 . S
C650 C653 1.403 . S
C651 C648 1.403 . S
C651 C652 1.524 . S
C651 C655 1.400 . S
C652 H637 0.960 . S
C652 H638 0.960 . S
C652 H639 0.960 . S
C652 C651 1.524 . S
C653 C650 1.403 . S
C653 C654 1.392 . S
C653 C657 1.495 . S
C654 C653 1.392 . S
C654 C655 1.385 . S
C654 C656 1.478 . S
C655 H649 0.930 . S
C655 C651 1.400 . S
C655 C654 1.385 . S
C656 C654 1.478 . S
C656 C658 1.381 . S
C656 C662 1.383 . S
C657 C653 1.495 . S
C657 H663 0.959 . S
C657 H664 0.961 . S
C657 H665 0.960 . S
C658 C656 1.381 . S
C658 C659 1.394 . S
C658 H666 0.930 . S
C659 C658 1.394 . S
C659 C660 1.383 . S
C659 H667 0.929 . S
C660 C659 1.383 . S
C660 C661 1.377 . S
C661 H645 0.930 . S
C661 C660 1.377 . S
C661 C662 1.379 . S
C662 H646 0.931 . S
C662 C656 1.383 . S
C662 C661 1.379 . S
H663 C657 0.959 . S
H664 C657 0.961 . S
H665 C657 0.960 . S
H666 C658 0.930 . S
H667 C659 0.929 . S
H668 C676 0.929 . S
H669 C678 0.930 . S
H670 C680 0.930 . S
H671 C683 0.929 . S
H672 C686 0.930 . S
H673 C688 0.960 . S
H674 C688 0.960 . S
H675 C688 0.960 . S
C676 H668 0.929 . S
C676 C677 1.377 . S
C676 C678 1.384 . S
C677 C676 1.377 . S
C677 C683 1.390 . S
C678 H669 0.930 . S
C678 C676 1.384 . S
C678 C679 1.372 . S
C679 C678 1.372 . S
C679 C680 1.400 . S
C679 C684 1.490 . S
C680 H670 0.930 . S
C680 C679 1.400 . S
C680 C683 1.386 . S
H681 C697 0.930 . S
H682 C698 0.931 . S
C683 H671 0.929 . S
C683 C677 1.390 . S
C683 C680 1.386 . S
C684 C679 1.490 . S
C684 C686 1.395 . S
C684 C687 1.403 . S
H685 C691 0.930 . S
C686 H672 0.930 . S
C686 C684 1.395 . S
C686 C689 1.403 . S
C687 C684 1.403 . S
C687 C688 1.524 . S
C687 C691 1.400 . S
C688 H673 0.960 . S
C688 H674 0.960 . S
C688 H675 0.960 . S
C688 C687 1.524 . S
C689 C686 1.403 . S
C689 C690 1.392 . S
C689 C693 1.495 . S
C690 C689 1.392 . S
C690 C691 1.385 . S
C690 C692 1.478 . S
C691 H685 0.930 . S
C691 C687 1.400 . S
C691 C690 1.385 . S
C692 C690 1.478 . S
C692 C694 1.381 . S
C692 C698 1.383 . S
C693 C689 1.495 . S
C693 H699 0.959 . S
C693 H700 0.961 . S
C693 H701 0.960 . S
C694 C692 1.381 . S
C694 C695 1.394 . S
C694 H702 0.930 . S
C695 C694 1.394 . S
C695 C696 1.383 . S
C695 H703 0.929 . S
C696 C695 1.383 . S
C696 C697 1.377 . S
C697 H681 0.930 . S
C697 C696 1.377 . S
C697 C698 1.379 . S
C698 H682 0.931 . S
C698 C692 1.383 . S
C698 C697 1.379 . S
H699 C693 0.959 . S
H700 C693 0.961 . S
H701 C693 0.960 . S
H702 C694 0.930 . S
H703 C695 0.929 . S
H704 C712 0.929 . S
H705 C714 0.930 . S
H706 C716 0.930 . S
H707 C719 0.929 . S
H708 C722 0.930 . S
H709 C724 0.960 . S
H710 C724 0.960 . S
H711 C724 0.960 . S
C712 H704 0.929 . S
C712 C713 1.377 . S
C712 C714 1.384 . S
C713 C712 1.377 . S
C713 C719 1.390 . S
C714 H705 0.930 . S
C714 C712 1.384 . S
C714 C715 1.372 . S
C715 C714 1.372 . S
C715 C716 1.400 . S
C715 C720 1.490 . S
C716 H706 0.930 . S
C716 C715 1.400 . S
C716 C719 1.386 . S
H717 C733 0.930 . S
H718 C734 0.931 . S
C719 H707 0.929 . S
C719 C713 1.390 . S
C719 C716 1.386 . S
C720 C715 1.490 . S
C720 C722 1.395 . S
C720 C723 1.403 . S
H721 C727 0.930 . S
C722 H708 0.930 . S
C722 C720 1.395 . S
C722 C725 1.403 . S
C723 C720 1.403 . S
C723 C724 1.524 . S
C723 C727 1.400 . S
C724 H709 0.960 . S
C724 H710 0.960 . S
C724 H711 0.960 . S
C724 C723 1.524 . S
C725 C722 1.403 . S
C725 C726 1.392 . S
C725 C729 1.495 . S
C726 C725 1.392 . S
C726 C727 1.385 . S
C726 C728 1.478 . S
C727 H721 0.930 . S
C727 C723 1.400 . S
C727 C726 1.385 . S
C728 C726 1.478 . S
C728 C730 1.381 . S
C728 C734 1.383 . S
C729 C725 1.495 . S
C729 H735 0.959 . S
C729 H736 0.961 . S
C729 H737 0.960 . S
C730 C728 1.381 . S
C730 C731 1.394 . S
C730 H738 0.930 . S
C731 C730 1.394 . S
C731 C732 1.383 . S
C731 H739 0.929 . S
C732 C731 1.383 . S
C732 C733 1.377 . S
C733 H717 0.930 . S
C733 C732 1.377 . S
C733 C734 1.379 . S
C734 H718 0.931 . S
C734 C728 1.383 . S
C734 C733 1.379 . S
H735 C729 0.959 . S
H736 C729 0.961 . S
H737 C729 0.960 . S
H738 C730 0.930 . S
H739 C731 0.929 . S
H740 C748 0.929 . S
H741 C750 0.930 . S
H742 C752 0.930 . S
H743 C755 0.929 . S
H744 C758 0.930 . S
H745 C760 0.960 . S
H746 C760 0.960 . S
H747 C760 0.960 . S
C748 H740 0.929 . S
C748 C749 1.377 . S
C748 C750 1.384 . S
C749 C748 1.377 . S
C749 C755 1.390 . S
C750 H741 0.930 . S
C750 C748 1.384 . S
C750 C751 1.372 . S
C751 C750 1.372 . S
C751 C752 1.400 . S
C751 C756 1.490 . S
C752 H742 0.930 . S
C752 C751 1.400 . S
C752 C755 1.386 . S
H753 C769 0.930 . S
H754 C770 0.931 . S
C755 H743 0.929 . S
C755 C749 1.390 . S
C755 C752 1.386 . S
C756 C751 1.490 . S
C756 C758 1.395 . S
C756 C759 1.403 . S
H757 C763 0.930 . S
C758 H744 0.930 . S
C758 C756 1.395 . S
C758 C761 1.403 . S
C759 C756 1.403 . S
C759 C760 1.524 . S
C759 C763 1.400 . S
C760 H745 0.960 . S
C760 H746 0.960 . S
C760 H747 0.960 . S
C760 C759 1.524 . S
C761 C758 1.403 . S
C761 C762 1.392 . S
C761 C765 1.495 . S
C762 C761 1.392 . S
C762 C763 1.385 . S
C762 C764 1.478 . S
C763 H757 0.930 . S
C763 C759 1.400 . S
C763 C762 1.385 . S
C764 C762 1.478 . S
C764 C766 1.381 . S
C764 C770 1.383 . S
C765 C761 1.495 . S
C765 H771 0.959 . S
C765 H772 0.961 . S
C765 H773 0.960 . S
C766 C764 1.381 . S
C766 C767 1.394 . S
C766 H774 0.930 . S
C767 C766 1.394 . S
C767 C768 1.383 . S
C767 H775 0.929 . S
C768 C767 1.383 . S
C768 C769 1.377 . S
C769 H753 0.930 . S
C769 C768 1.377 . S
C769 C770 1.379 . S
C770 H754 0.931 . S
C770 C764 1.383 . S
C770 C769 1.379 . S
H771 C765 0.959 . S
H772 C765 0.961 . S
H773 C765 0.960 . S
H774 C766 0.930 . S
H775 C767 0.929 . S
H776 C784 0.929 . S
H777 C786 0.930 . S
H778 C788 0.930 . S
H779 C791 0.929 . S
H780 C794 0.930 . S
H781 C796 0.960 . S
H782 C796 0.960 . S
H783 C796 0.960 . S
C784 H776 0.929 . S
C784 C785 1.377 . S
C784 C786 1.384 . S
C785 C784 1.377 . S
C785 C791 1.390 . S
C786 H777 0.930 . S
C786 C784 1.384 . S
C786 C787 1.372 . S
C787 C786 1.372 . S
C787 C788 1.400 . S
C787 C792 1.490 . S
C788 H778 0.930 . S
C788 C787 1.400 . S
C788 C791 1.386 . S
H789 C805 0.930 . S
H790 C806 0.931 . S
C791 H779 0.929 . S
C791 C785 1.390 . S
C791 C788 1.386 . S
C792 C787 1.490 . S
C792 C794 1.395 . S
C792 C795 1.403 . S
H793 C799 0.930 . S
C794 H780 0.930 . S
C794 C792 1.395 . S
C794 C797 1.403 . S
C795 C792 1.403 . S
C795 C796 1.524 . S
C795 C799 1.400 . S
C796 H781 0.960 . S
C796 H782 0.960 . S
C796 H783 0.960 . S
C796 C795 1.524 . S
C797 C794 1.403 . S
C797 C798 1.392 . S
C797 C801 1.495 . S
C798 C797 1.392 . S
C798 C799 1.385 . S
C798 C800 1.478 . S
C799 H793 0.930 . S
C799 C795 1.400 . S
C799 C798 1.385 . S
C800 C798 1.478 . S
C800 C802 1.381 . S
C800 C806 1.383 . S
C801 C797 1.495 . S
C801 H807 0.959 . S
C801 H808 0.961 . S
C801 H809 0.960 . S
C802 C800 1.381 . S
C802 C803 1.394 . S
C802 H810 0.930 . S
C803 C802 1.394 . S
C803 C804 1.383 . S
C803 H811 0.929 . S
C804 C803 1.383 . S
C804 C805 1.377 . S
C805 H789 0.930 . S
C805 C804 1.377 . S
C805 C806 1.379 . S
C806 H790 0.931 . S
C806 C800 1.383 . S
C806 C805 1.379 . S
H807 C801 0.959 . S
H808 C801 0.961 . S
H809 C801 0.960 . S
H810 C802 0.930 . S
H811 C803 0.929 . S
H812 C820 0.929 . S
H813 C822 0.930 . S
H814 C824 0.930 . S
H815 C827 0.929 . S
H816 C830 0.930 . S
H817 C832 0.960 . S
H818 C832 0.960 . S
H819 C832 0.960 . S
C820 H812 0.929 . S
C820 C821 1.377 . S
C820 C822 1.384 . S
C821 C820 1.377 . S
C821 C827 1.390 . S
C822 H813 0.930 . S
C822 C820 1.384 . S
C822 C823 1.372 . S
C823 C822 1.372 . S
C823 C824 1.400 . S
C823 C828 1.490 . S
C824 H814 0.930 . S
C824 C823 1.400 . S
C824 C827 1.386 . S
H825 C841 0.930 . S
H826 C842 0.931 . S
C827 H815 0.929 . S
C827 C821 1.390 . S
C827 C824 1.386 . S
C828 C823 1.490 . S
C828 C830 1.395 . S
C828 C831 1.403 . S
H829 C835 0.930 . S
C830 H816 0.930 . S
C830 C828 1.395 . S
C830 C833 1.403 . S
C831 C828 1.403 . S
C831 C832 1.524 . S
C831 C835 1.400 . S
C832 H817 0.960 . S
C832 H818 0.960 . S
C832 H819 0.960 . S
C832 C831 1.524 . S
C833 C830 1.403 . S
C833 C834 1.392 . S
C833 C837 1.495 . S
C834 C833 1.392 . S
C834 C835 1.385 . S
C834 C836 1.478 . S
C835 H829 0.930 . S
C835 C831 1.400 . S
C835 C834 1.385 . S
C836 C834 1.478 . S
C836 C838 1.381 . S
C836 C842 1.383 . S
C837 C833 1.495 . S
C837 H843 0.959 . S
C837 H844 0.961 . S
C837 H845 0.960 . S
C838 C836 1.381 . S
C838 C839 1.394 . S
C838 H846 0.930 . S
C839 C838 1.394 . S
C839 C840 1.383 . S
C839 H847 0.929 . S
C840 C839 1.383 . S
C840 C841 1.377 . S
C841 H825 0.930 . S
C841 C840 1.377 . S
C841 C842 1.379 . S
C842 H826 0.931 . S
C842 C836 1.383 . S
C842 C841 1.379 . S
H843 C837 0.959 . S
H844 C837 0.961 . S
H845 C837 0.960 . S
H846 C838 0.930 . S
H847 C839 0.929 . S
H848 C856 0.929 . S
H849 C858 0.930 . S
H850 C860 0.930 . S
H851 C863 0.929 . S
H852 C866 0.930 . S
H853 C868 0.960 . S
H854 C868 0.960 . S
H855 C868 0.960 . S
C856 H848 0.929 . S
C856 C857 1.377 . S
C856 C858 1.384 . S
C857 C856 1.377 . S
C857 C863 1.390 . S
C858 H849 0.930 . S
C858 C856 1.384 . S
C858 C859 1.372 . S
C859 C858 1.372 . S
C859 C860 1.400 . S
C859 C864 1.490 . S
C860 H850 0.930 . S
C860 C859 1.400 . S
C860 C863 1.386 . S
H861 C877 0.930 . S
H862 C878 0.931 . S
C863 H851 0.929 . S
C863 C857 1.390 . S
C863 C860 1.386 . S
C864 C859 1.490 . S
C864 C866 1.395 . S
C864 C867 1.403 . S
H865 C871 0.930 . S
C866 H852 0.930 . S
C866 C864 1.395 . S
C866 C869 1.403 . S
C867 C864 1.403 . S
C867 C868 1.524 . S
C867 C871 1.400 . S
C868 H853 0.960 . S
C868 H854 0.960 . S
C868 H855 0.960 . S
C868 C867 1.524 . S
C869 C866 1.403 . S
C869 C870 1.392 . S
C869 C873 1.495 . S
C870 C869 1.392 . S
C870 C871 1.385 . S
C870 C872 1.478 . S
C871 H865 0.930 . S
C871 C867 1.400 . S
C871 C870 1.385 . S
C872 C870 1.478 . S
C872 C874 1.381 . S
C872 C878 1.383 . S
C873 C869 1.495 . S
C873 H879 0.959 . S
C873 H880 0.961 . S
C873 H881 0.960 . S
C874 C872 1.381 . S
C874 C875 1.394 . S
C874 H882 0.930 . S
C875 C874 1.394 . S
C875 C876 1.383 . S
C875 H883 0.929 . S
C876 C875 1.383 . S
C876 C877 1.377 . S
C877 H861 0.930 . S
C877 C876 1.377 . S
C877 C878 1.379 . S
C878 H862 0.931 . S
C878 C872 1.383 . S
C878 C877 1.379 . S
H879 C873 0.959 . S
H880 C873 0.961 . S
H881 C873 0.960 . S
H882 C874 0.930 . S
H883 C875 0.929 . S
H884 C892 0.929 . S
H885 C894 0.930 . S
H886 C896 0.930 . S
H887 C899 0.929 . S
H888 C902 0.930 . S
H889 C904 0.960 . S
H890 C904 0.960 . S
H891 C904 0.960 . S
C892 H884 0.929 . S
C892 C893 1.377 . S
C892 C894 1.384 . S
C893 C892 1.377 . S
C893 C899 1.390 . S
C894 H885 0.930 . S
C894 C892 1.384 . S
C894 C895 1.372 . S
C895 C894 1.372 . S
C895 C896 1.400 . S
C895 C900 1.490 . S
C896 H886 0.930 . S
C896 C895 1.400 . S
C896 C899 1.386 . S
H897 C913 0.930 . S
H898 C914 0.931 . S
C899 H887 0.929 . S
C899 C893 1.390 . S
C899 C896 1.386 . S
C900 C895 1.490 . S
C900 C902 1.395 . S
C900 C903 1.403 . S
H901 C907 0.930 . S
C902 H888 0.930 . S
C902 C900 1.395 . S
C902 C905 1.403 . S
C903 C900 1.403 . S
C903 C904 1.524 . S
C903 C907 1.400 . S
C904 H889 0.960 . S
C904 H890 0.960 . S
C904 H891 0.960 . S
C904 C903 1.524 . S
C905 C902 1.403 . S
C905 C906 1.392 . S
C905 C909 1.495 . S
C906 C905 1.392 . S
C906 C907 1.385 . S
C906 C908 1.478 . S
C907 H901 0.930 . S
C907 C903 1.400 . S
C907 C906 1.385 . S
C908 C906 1.478 . S
C908 C910 1.381 . S
C908 C914 1.383 . S
C909 C905 1.495 . S
C909 H915 0.959 . S
C909 H916 0.961 . S
C909 H917 0.960 . S
C910 C908 1.381 . S
C910 C911 1.394 . S
C910 H918 0.930 . S
C911 C910 1.394 . S
C911 C912 1.383 . S
C911 H919 0.929 . S
C912 C911 1.383 . S
C912 C913 1.377 . S
C913 H897 0.930 . S
C913 C912 1.377 . S
C913 C914 1.379 . S
C914 H898 0.931 . S
C914 C908 1.383 . S
C914 C913 1.379 . S
H915 C909 0.959 . S
H916 C909 0.961 . S
H917 C909 0.960 . S
H918 C910 0.930 . S
H919 C911 0.929 . S
H920 C928 0.929 . S
H921 C930 0.930 . S
H922 C932 0.930 . S
H923 C935 0.929 . S
H924 C938 0.930 . S
H925 C940 0.960 . S
H926 C940 0.960 . S
H927 C940 0.960 . S
C928 H920 0.929 . S
C928 C929 1.377 . S
C928 C930 1.384 . S
C929 C928 1.377 . S
C929 C935 1.390 . S
C930 H921 0.930 . S
C930 C928 1.384 . S
C930 C931 1.372 . S
C931 C930 1.372 . S
C931 C932 1.400 . S
C931 C936 1.490 . S
C932 H922 0.930 . S
C932 C931 1.400 . S
C932 C935 1.386 . S
H933 C949 0.930 . S
H934 C950 0.931 . S
C935 H923 0.929 . S
C935 C929 1.390 . S
C935 C932 1.386 . S
C936 C931 1.490 . S
C936 C938 1.395 . S
C936 C939 1.403 . S
H937 C943 0.930 . S
C938 H924 0.930 . S
C938 C936 1.395 . S
C938 C941 1.403 . S
C939 C936 1.403 . S
C939 C940 1.524 . S
C939 C943 1.400 . S
C940 H925 0.960 . S
C940 H926 0.960 . S
C940 H927 0.960 . S
C940 C939 1.524 . S
C941 C938 1.403 . S
C941 C942 1.392 . S
C941 C945 1.495 . S
C942 C941 1.392 . S
C942 C943 1.385 . S
C942 C944 1.478 . S
C943 H937 0.930 . S
C943 C939 1.400 . S
C943 C942 1.385 . S
C944 C942 1.478 . S
C944 C946 1.381 . S
C944 C950 1.383 . S
C945 C941 1.495 . S
C945 H951 0.959 . S
C945 H952 0.961 . S
C945 H953 0.960 . S
C946 C944 1.381 . S
C946 C947 1.394 . S
C946 H954 0.930 . S
C947 C946 1.394 . S
C947 C948 1.383 . S
C947 H955 0.929 . S
C948 C947 1.383 . S
C948 C949 1.377 . S
C949 H933 0.930 . S
C949 C948 1.377 . S
C949 C950 1.379 . S
C950 H934 0.931 . S
C950 C944 1.383 . S
C950 C949 1.379 . S
H951 C945 0.959 . S
H952 C945 0.961 . S
H953 C945 0.960 . S
H954 C946 0.930 . S
H955 C947 0.929 . S
H956 C964 0.929 . S
H957 C966 0.930 . S
H958 C968 0.930 . S
H959 C971 0.929 . S
H960 C974 0.930 . S
H961 C976 0.960 . S
H962 C976 0.960 . S
H963 C976 0.960 . S
C964 H956 0.929 . S
C964 C965 1.377 . S
C964 C966 1.384 . S
C965 C964 1.377 . S
C965 C971 1.390 . S
C966 H957 0.930 . S
C966 C964 1.384 . S
C966 C967 1.372 . S
C967 C966 1.372 . S
C967 C968 1.400 . S
C967 C972 1.490 . S
C968 H958 0.930 . S
C968 C967 1.400 . S
C968 C971 1.386 . S
H969 C985 0.930 . S
H970 C986 0.931 . S
C971 H959 0.929 . S
C971 C965 1.390 . S
C971 C968 1.386 . S
C972 C967 1.490 . S
C972 C974 1.395 . S
C972 C975 1.403 . S
H973 C979 0.930 . S
C974 H960 0.930 . S
C974 C972 1.395 . S
C974 C977 1.403 . S
C975 C972 1.403 . S
C975 C976 1.524 . S
C975 C979 1.400 . S
C976 H961 0.960 . S
C976 H962 0.960 . S
C976 H963 0.960 . S
C976 C975 1.524 . S
C977 C974 1.403 . S
C977 C978 1.392 . S
C977 C981 1.495 . S
C978 C977 1.392 . S
C978 C979 1.385 . S
C978 C980 1.478 . S
C979 H973 0.930 . S
C979 C975 1.400 . S
C979 C978 1.385 . S
C980 C978 1.478 . S
C980 C982 1.381 . S
C980 C986 1.383 . S
C981 C977 1.495 . S
C981 H987 0.959 . S
C981 H988 0.961 . S
C981 H989 0.960 . S
C982 C980 1.381 . S
C982 C983 1.394 . S
C982 H990 0.930 . S
C983 C982 1.394 . S
C983 C984 1.383 . S
C983 H991 0.929 . S
C984 C983 1.383 . S
C984 C985 1.377 . S
C985 H969 0.930 . S
C985 C984 1.377 . S
C985 C986 1.379 . S
C986 H970 0.931 . S
C986 C980 1.383 . S
C986 C985 1.379 . S
H987 C981 0.959 . S
H988 C981 0.961 . S
H989 C981 0.960 . S
H990 C982 0.930 . S
H991 C983 0.929 . S
H992 C1000 0.929 . S
H993 C1002 0.930 . S
H994 C1004 0.930 . S
H995 C1007 0.929 . S
H996 C1010 0.930 . S
H997 C1012 0.960 . S
H998 C1012 0.960 . S
H999 C1012 0.960 . S
C1000 H992 0.929 . S
C1000 C1001 1.377 . S
C1000 C1002 1.384 . S
C1001 C1000 1.377 . S
C1001 C1007 1.390 . S
C1002 H993 0.930 . S
C1002 C1000 1.384 . S
C1002 C1003 1.372 . S
C1003 C1002 1.372 . S
C1003 C1004 1.400 . S
C1003 C1008 1.490 . S
C1004 H994 0.930 . S
C1004 C1003 1.400 . S
C1004 C1007 1.386 . S
H1005 C1021 0.930 . S
H1006 C1022 0.931 . S
C1007 H995 0.929 . S
C1007 C1001 1.390 . S
C1007 C1004 1.386 . S
C1008 C1003 1.490 . S
C1008 C1010 1.395 . S
C1008 C1011 1.403 . S
H1009 C1015 0.930 . S
C1010 H996 0.930 . S
C1010 C1008 1.395 . S
C1010 C1013 1.403 . S
C1011 C1008 1.403 . S
C1011 C1012 1.524 . S
C1011 C1015 1.400 . S
C1012 H997 0.960 . S
C1012 H998 0.960 . S
C1012 H999 0.960 . S
C1012 C1011 1.524 . S
C1013 C1010 1.403 . S
C1013 C1014 1.392 . S
C1013 C1017 1.495 . S
C1014 C1013 1.392 . S
C1014 C1015 1.385 . S
C1014 C1016 1.478 . S
C1015 H1009 0.930 . S
C1015 C1011 1.400 . S
C1015 C1014 1.385 . S
C1016 C1014 1.478 . S
C1016 C1018 1.381 . S
C1016 C1022 1.383 . S
C1017 C1013 1.495 . S
C1017 H1023 0.959 . S
C1017 H1024 0.961 . S
C1017 H1025 0.960 . S
C1018 C1016 1.381 . S
C1018 C1019 1.394 . S
C1018 H1026 0.930 . S
C1019 C1018 1.394 . S
C1019 C1020 1.383 . S
C1019 H1027 0.929 . S
C1020 C1019 1.383 . S
C1020 C1021 1.377 . S
C1021 H1005 0.930 . S
C1021 C1020 1.377 . S
C1021 C1022 1.379 . S
C1022 H1006 0.931 . S
C1022 C1016 1.383 . S
C1022 C1021 1.379 . S
H1023 C1017 0.959 . S
H1024 C1017 0.961 . S
H1025 C1017 0.960 . S
H1026 C1018 0.930 . S
H1027 C1019 0.929 . S
H1028 C1036 0.929 . S
H1029 C1038 0.930 . S
H1030 C1040 0.930 . S
H1031 C1043 0.929 . S
H1032 C1046 0.930 . S
H1033 C1048 0.960 . S
H1034 C1048 0.960 . S
H1035 C1048 0.960 . S
C1036 H1028 0.929 . S
C1036 C1037 1.377 . S
C1036 C1038 1.384 . S
C1037 C1036 1.377 . S
C1037 C1043 1.390 . S
C1038 H1029 0.930 . S
C1038 C1036 1.384 . S
C1038 C1039 1.372 . S
C1039 C1038 1.372 . S
C1039 C1040 1.400 . S
C1039 C1044 1.490 . S
C1040 H1030 0.930 . S
C1040 C1039 1.400 . S
C1040 C1043 1.386 . S
H1041 C1057 0.930 . S
H1042 C1058 0.931 . S
C1043 H1031 0.929 . S
C1043 C1037 1.390 . S
C1043 C1040 1.386 . S
C1044 C1039 1.490 . S
C1044 C1046 1.395 . S
C1044 C1047 1.403 . S
H1045 C1051 0.930 . S
C1046 H1032 0.930 . S
C1046 C1044 1.395 . S
C1046 C1049 1.403 . S
C1047 C1044 1.403 . S
C1047 C1048 1.524 . S
C1047 C1051 1.400 . S
C1048 H1033 0.960 . S
C1048 H1034 0.960 . S
C1048 H1035 0.960 . S
C1048 C1047 1.524 . S
C1049 C1046 1.403 . S
C1049 C1050 1.392 . S
C1049 C1053 1.495 . S
C1050 C1049 1.392 . S
C1050 C1051 1.385 . S
C1050 C1052 1.478 . S
C1051 H1045 0.930 . S
C1051 C1047 1.400 . S
C1051 C1050 1.385 . S
C1052 C1050 1.478 . S
C1052 C1054 1.381 . S
C1052 C1058 1.383 . S
C1053 C1049 1.495 . S
C1053 H1059 0.959 . S
C1053 H1060 0.961 . S
C1053 H1061 0.960 . S
C1054 C1052 1.381 . S
C1054 C1055 1.394 . S
C1054 H1062 0.930 . S
C1055 C1054 1.394 . S
C1055 C1056 1.383 . S
C1055 H1063 0.929 . S
C1056 C1055 1.383 . S
C1056 C1057 1.377 . S
C1057 H1041 0.930 . S
C1057 C1056 1.377 . S
C1057 C1058 1.379 . S
C1058 H1042 0.931 . S
C1058 C1052 1.383 . S
C1058 C1057 1.379 . S
H1059 C1053 0.959 . S
H1060 C1053 0.961 . S
H1061 C1053 0.960 . S
H1062 C1054 0.930 . S
H1063 C1055 0.929 . S
H1064 C1072 0.929 . S
H1065 C1074 0.930 . S
H1066 C1076 0.930 . S
H1067 C1079 0.929 . S
H1068 C1082 0.930 . S
H1069 C1084 0.960 . S
H1070 C1084 0.960 . S
H1071 C1084 0.960 . S
C1072 H1064 0.929 . S
C1072 C1073 1.377 . S
C1072 C1074 1.384 . S
C1073 C1072 1.377 . S
C1073 C1079 1.390 . S
C1074 H1065 0.930 . S
C1074 C1072 1.384 . S
C1074 C1075 1.372 . S
C1075 C1074 1.372 . S
C1075 C1076 1.400 . S
C1075 C1080 1.490 . S
C1076 H1066 0.930 . S
C1076 C1075 1.400 . S
C1076 C1079 1.386 . S
H1077 C1093 0.930 . S
H1078 C1094 0.931 . S
C1079 H1067 0.929 . S
C1079 C1073 1.390 . S
C1079 C1076 1.386 . S
C1080 C1075 1.490 . S
C1080 C1082 1.395 . S
C1080 C1083 1.403 . S
H1081 C1087 0.930 . S
C1082 H1068 0.930 . S
C1082 C1080 1.395 . S
C1082 C1085 1.403 . S
C1083 C1080 1.403 . S
C1083 C1084 1.524 . S
C1083 C1087 1.400 . S
C1084 H1069 0.960 . S
C1084 H1070 0.960 . S
C1084 H1071 0.960 . S
C1084 C1083 1.524 . S
C1085 C1082 1.403 . S
C1085 C1086 1.392 . S
C1085 C1089 1.495 . S
C1086 C1085 1.392 . S
C1086 C1087 1.385 . S
C1086 C1088 1.478 . S
C1087 H1081 0.930 . S
C1087 C1083 1.400 . S
C1087 C1086 1.385 . S
C1088 C1086 1.478 . S
C1088 C1090 1.381 . S
C1088 C1094 1.383 . S
C1089 C1085 1.495 . S
C1089 H1095 0.959 . S
C1089 H1096 0.961 . S
C1089 H1097 0.960 . S
C1090 C1088 1.381 . S
C1090 C1091 1.394 . S
C1090 H1098 0.930 . S
C1091 C1090 1.394 . S
C1091 C1092 1.383 . S
C1091 H1099 0.929 . S
C1092 C1091 1.383 . S
C1092 C1093 1.377 . S
C1093 H1077 0.930 . S
C1093 C1092 1.377 . S
C1093 C1094 1.379 . S
C1094 H1078 0.931 . S
C1094 C1088 1.383 . S
C1094 C1093 1.379 . S
H1095 C1089 0.959 . S
H1096 C1089 0.961 . S
H1097 C1089 0.960 . S
H1098 C1090 0.930 . S
H1099 C1091 0.929 . S
H1100 C1108 0.929 . S
H1101 C1110 0.930 . S
H1102 C1112 0.930 . S
H1103 C1115 0.929 . S
H1104 C1118 0.930 . S
H1105 C1120 0.960 . S
H1106 C1120 0.960 . S
H1107 C1120 0.960 . S
C1108 H1100 0.929 . S
C1108 C1109 1.377 . S
C1108 C1110 1.384 . S
C1109 C1108 1.377 . S
C1109 C1115 1.390 . S
C1110 H1101 0.930 . S
C1110 C1108 1.384 . S
C1110 C1111 1.372 . S
C1111 C1110 1.372 . S
C1111 C1112 1.400 . S
C1111 C1116 1.490 . S
C1112 H1102 0.930 . S
C1112 C1111 1.400 . S
C1112 C1115 1.386 . S
H1113 C1129 0.930 . S
H1114 C1130 0.931 . S
C1115 H1103 0.929 . S
C1115 C1109 1.390 . S
C1115 C1112 1.386 . S
C1116 C1111 1.490 . S
C1116 C1118 1.395 . S
C1116 C1119 1.403 . S
H1117 C1123 0.930 . S
C1118 H1104 0.930 . S
C1118 C1116 1.395 . S
C1118 C1121 1.403 . S
C1119 C1116 1.403 . S
C1119 C1120 1.524 . S
C1119 C1123 1.400 . S
C1120 H1105 0.960 . S
C1120 H1106 0.960 . S
C1120 H1107 0.960 . S
C1120 C1119 1.524 . S
C1121 C1118 1.403 . S
C1121 C1122 1.392 . S
C1121 C1125 1.495 . S
C1122 C1121 1.392 . S
C1122 C1123 1.385 . S
C1122 C1124 1.478 . S
C1123 H1117 0.930 . S
C1123 C1119 1.400 . S
C1123 C1122 1.385 . S
C1124 C1122 1.478 . S
C1124 C1126 1.381 . S
C1124 C1130 1.383 . S
C1125 C1121 1.495 . S
C1125 H1131 0.959 . S
C1125 H1132 0.961 . S
C1125 H1133 0.960 . S
C1126 C1124 1.381 . S
C1126 C1127 1.394 . S
C1126 H1134 0.930 . S
C1127 C1126 1.394 . S
C1127 C1128 1.383 . S
C1127 H1135 0.929 . S
C1128 C1127 1.383 . S
C1128 C1129 1.377 . S
C1129 H1113 0.930 . S
C1129 C1128 1.377 . S
C1129 C1130 1.379 . S
C1130 H1114 0.931 . S
C1130 C1124 1.383 . S
C1130 C1129 1.379 . S
H1131 C1125 0.959 . S
H1132 C1125 0.961 . S
H1133 C1125 0.960 . S
H1134 C1126 0.930 . S
H1135 C1127 0.929 . S
H1136 C1144 0.929 . S
H1137 C1146 0.930 . S
H1138 C1148 0.930 . S
H1139 C1151 0.929 . S
H1140 C1154 0.930 . S
H1141 C1156 0.960 . S
H1142 C1156 0.960 . S
H1143 C1156 0.960 . S
C1144 H1136 0.929 . S
C1144 C1145 1.377 . S
C1144 C1146 1.384 . S
C1145 C1144 1.377 . S
C1145 C1151 1.390 . S
C1146 H1137 0.930 . S
C1146 C1144 1.384 . S
C1146 C1147 1.372 . S
C1147 C1146 1.372 . S
C1147 C1148 1.400 . S
C1147 C1152 1.490 . S
C1148 H1138 0.930 . S
C1148 C1147 1.400 . S
C1148 C1151 1.386 . S
H1149 C1165 0.930 . S
H1150 C1166 0.931 . S
C1151 H1139 0.929 . S
C1151 C1145 1.390 . S
C1151 C1148 1.386 . S
C1152 C1147 1.490 . S
C1152 C1154 1.395 . S
C1152 C1155 1.403 . S
H1153 C1159 0.930 . S
C1154 H1140 0.930 . S
C1154 C1152 1.395 . S
C1154 C1157 1.403 . S
C1155 C1152 1.403 . S
C1155 C1156 1.524 . S
C1155 C1159 1.400 . S
C1156 H1141 0.960 . S
C1156 H1142 0.960 . S
C1156 H1143 0.960 . S
C1156 C1155 1.524 . S
C1157 C1154 1.403 . S
C1157 C1158 1.392 . S
C1157 C1161 1.495 . S
C1158 C1157 1.392 . S
C1158 C1159 1.385 . S
C1158 C1160 1.478 . S
C1159 H1153 0.930 . S
C1159 C1155 1.400 . S
C1159 C1158 1.385 . S
C1160 C1158 1.478 . S
C1160 C1162 1.381 . S
C1160 C1166 1.383 . S
C1161 C1157 1.495 . S
C1161 H1167 0.959 . S
C1161 H1168 0.961 . S
C1161 H1169 0.960 . S
C1162 C1160 1.381 . S
C1162 C1163 1.394 . S
C1162 H1170 0.930 . S
C1163 C1162 1.394 . S
C1163 C1164 1.383 . S
C1163 H1171 0.929 . S
C1164 C1163 1.383 . S
C1164 C1165 1.377 . S
C1165 H1149 0.930 . S
C1165 C1164 1.377 . S
C1165 C1166 1.379 . S
C1166 H1150 0.931 . S
C1166 C1160 1.383 . S
C1166 C1165 1.379 . S
H1167 C1161 0.959 . S
H1168 C1161 0.961 . S
H1169 C1161 0.960 . S
H1170 C1162 0.930 . S
H1171 C1163 0.929 . S
H1172 C1180 0.929 . S
H1173 C1182 0.930 . S
H1174 C1184 0.930 . S
H1175 C1187 0.929 . S
H1176 C1190 0.930 . S
H1177 C1192 0.960 . S
H1178 C1192 0.960 . S
H1179 C1192 0.960 . S
C1180 H1172 0.929 . S
C1180 C1181 1.377 . S
C1180 C1182 1.384 . S
C1181 C1180 1.377 . S
C1181 C1187 1.390 . S
C1182 H1173 0.930 . S
C1182 C1180 1.384 . S
C1182 C1183 1.372 . S
C1183 C1182 1.372 . S
C1183 C1184 1.400 . S
C1183 C1188 1.490 . S
C1184 H1174 0.930 . S
C1184 C1183 1.400 . S
C1184 C1187 1.386 . S
H1185 C1201 0.930 . S
H1186 C1202 0.931 . S
C1187 H1175 0.929 . S
C1187 C1181 1.390 . S
C1187 C1184 1.386 . S
C1188 C1183 1.490 . S
C1188 C1190 1.395 . S
C1188 C1191 1.403 . S
H1189 C1195 0.930 . S
C1190 H1176 0.930 . S
C1190 C1188 1.395 . S
C1190 C1193 1.403 . S
C1191 C1188 1.403 . S
C1191 C1192 1.524 . S
C1191 C1195 1.400 . S
C1192 H1177 0.960 . S
C1192 H1178 0.960 . S
C1192 H1179 0.960 . S
C1192 C1191 1.524 . S
C1193 C1190 1.403 . S
C1193 C1194 1.392 . S
C1193 C1197 1.495 . S
C1194 C1193 1.392 . S
C1194 C1195 1.385 . S
C1194 C1196 1.478 . S
C1195 H1189 0.930 . S
C1195 C1191 1.400 . S
C1195 C1194 1.385 . S
C1196 C1194 1.478 . S
C1196 C1198 1.381 . S
C1196 C1202 1.383 . S
C1197 C1193 1.495 . S
C1197 H1203 0.959 . S
C1197 H1204 0.961 . S
C1197 H1205 0.960 . S
C1198 C1196 1.381 . S
C1198 C1199 1.394 . S
C1198 H1206 0.930 . S
C1199 C1198 1.394 . S
C1199 C1200 1.383 . S
C1199 H1207 0.929 . S
C1200 C1199 1.383 . S
C1200 C1201 1.377 . S
C1201 H1185 0.930 . S
C1201 C1200 1.377 . S
C1201 C1202 1.379 . S
C1202 H1186 0.931 . S
C1202 C1196 1.383 . S
C1202 C1201 1.379 . S
H1203 C1197 0.959 . S
H1204 C1197 0.961 . S
H1205 C1197 0.960 . S
H1206 C1198 0.930 . S
H1207 C1199 0.929 . S
H1208 C1216 0.929 . S
H1209 C1218 0.930 . S
H1210 C1220 0.930 . S
H1211 C1223 0.929 . S
H1212 C1226 0.930 . S
H1213 C1228 0.960 . S
H1214 C1228 0.960 . S
H1215 C1228 0.960 . S
C1216 H1208 0.929 . S
C1216 C1217 1.377 . S
C1216 C1218 1.384 . S
C1217 C1216 1.377 . S
C1217 C1223 1.390 . S
C1218 H1209 0.930 . S
C1218 C1216 1.384 . S
C1218 C1219 1.372 . S
C1219 C1218 1.372 . S
C1219 C1220 1.400 . S
C1219 C1224 1.490 . S
C1220 H1210 0.930 . S
C1220 C1219 1.400 . S
C1220 C1223 1.386 . S
H1221 C1237 0.930 . S
H1222 C1238 0.931 . S
C1223 H1211 0.929 . S
C1223 C1217 1.390 . S
C1223 C1220 1.386 . S
C1224 C1219 1.490 . S
C1224 C1226 1.395 . S
C1224 C1227 1.403 . S
H1225 C1231 0.930 . S
C1226 H1212 0.930 . S
C1226 C1224 1.395 . S
C1226 C1229 1.403 . S
C1227 C1224 1.403 . S
C1227 C1228 1.524 . S
C1227 C1231 1.400 . S
C1228 H1213 0.960 . S
C1228 H1214 0.960 . S
C1228 H1215 0.960 . S
C1228 C1227 1.524 . S
C1229 C1226 1.403 . S
C1229 C1230 1.392 . S
C1229 C1233 1.495 . S
C1230 C1229 1.392 . S
C1230 C1231 1.385 . S
C1230 C1232 1.478 . S
C1231 H1225 0.930 . S
C1231 C1227 1.400 . S
C1231 C1230 1.385 . S
C1232 C1230 1.478 . S
C1232 C1234 1.381 . S
C1232 C1238 1.383 . S
C1233 C1229 1.495 . S
C1233 H1239 0.959 . S
C1233 H1240 0.961 . S
C1233 H1241 0.960 . S
C1234 C1232 1.381 . S
C1234 C1235 1.394 . S
C1234 H1242 0.930 . S
C1235 C1234 1.394 . S
C1235 C1236 1.383 . S
C1235 H1243 0.929 . S
C1236 C1235 1.383 . S
C1236 C1237 1.377 . S
C1237 H1221 0.930 . S
C1237 C1236 1.377 . S
C1237 C1238 1.379 . S
C1238 H1222 0.931 . S
C1238 C1232 1.383 . S
C1238 C1237 1.379 . S
H1239 C1233 0.959 . S
H1240 C1233 0.961 . S
H1241 C1233 0.960 . S
H1242 C1234 0.930 . S
H1243 C1235 0.929 . S
H1244 C1252 0.929 . S
H1245 C1254 0.930 . S
H1246 C1256 0.930 . S
H1247 C1259 0.929 . S
H1248 C1262 0.930 . S
H1249 C1264 0.960 . S
H1250 C1264 0.960 . S
H1251 C1264 0.960 . S
C1252 H1244 0.929 . S
C1252 C1253 1.377 . S
C1252 C1254 1.384 . S
C1253 C1252 1.377 . S
C1253 C1259 1.390 . S
C1254 H1245 0.930 . S
C1254 C1252 1.384 . S
C1254 C1255 1.372 . S
C1255 C1254 1.372 . S
C1255 C1256 1.400 . S
C1255 C1260 1.490 . S
C1256 H1246 0.930 . S
C1256 C1255 1.400 . S
C1256 C1259 1.386 . S
H1257 C1273 0.930 . S
H1258 C1274 0.931 . S
C1259 H1247 0.929 . S
C1259 C1253 1.390 . S
C1259 C1256 1.386 . S
C1260 C1255 1.490 . S
C1260 C1262 1.395 . S
C1260 C1263 1.403 . S
H1261 C1267 0.930 . S
C1262 H1248 0.930 . S
C1262 C1260 1.395 . S
C1262 C1265 1.403 . S
C1263 C1260 1.403 . S
C1263 C1264 1.524 . S
C1263 C1267 1.400 . S
C1264 H1249 0.960 . S
C1264 H1250 0.960 . S
C1264 H1251 0.960 . S
C1264 C1263 1.524 . S
C1265 C1262 1.403 . S
C1265 C1266 1.392 . S
C1265 C1269 1.495 . S
C1266 C1265 1.392 . S
C1266 C1267 1.385 . S
C1266 C1268 1.478 . S
C1267 H1261 0.930 . S
C1267 C1263 1.400 . S
C1267 C1266 1.385 . S
C1268 C1266 1.478 . S
C1268 C1270 1.381 . S
C1268 C1274 1.383 . S
C1269 C1265 1.495 . S
C1269 H1275 0.959 . S
C1269 H1276 0.961 . S
C1269 H1277 0.960 . S
C1270 C1268 1.381 . S
C1270 C1271 1.394 . S
C1270 H1278 0.930 . S
C1271 C1270 1.394 . S
C1271 C1272 1.383 . S
C1271 H1279 0.929 . S
C1272 C1271 1.383 . S
C1272 C1273 1.377 . S
C1273 H1257 0.930 . S
C1273 C1272 1.377 . S
C1273 C1274 1.379 . S
C1274 H1258 0.931 . S
C1274 C1268 1.383 . S
C1274 C1273 1.379 . S
H1275 C1269 0.959 . S
H1276 C1269 0.961 . S
H1277 C1269 0.960 . S
H1278 C1270 0.930 . S
H1279 C1271 0.929 . S
H1280 C1288 0.929 . S
H1281 C1290 0.930 . S
H1282 C1292 0.930 . S
H1283 C1295 0.929 . S
H1284 C1298 0.930 . S
H1285 C1300 0.960 . S
H1286 C1300 0.960 . S
H1287 C1300 0.960 . S
C1288 H1280 0.929 . S
C1288 C1289 1.377 . S
C1288 C1290 1.384 . S
C1289 C1288 1.377 . S
C1289 C1295 1.390 . S
C1290 H1281 0.930 . S
C1290 C1288 1.384 . S
C1290 C1291 1.372 . S
C1291 C1290 1.372 . S
C1291 C1292 1.400 . S
C1291 C1296 1.490 . S
C1292 H1282 0.930 . S
C1292 C1291 1.400 . S
C1292 C1295 1.386 . S
H1293 C1309 0.930 . S
H1294 C1310 0.931 . S
C1295 H1283 0.929 . S
C1295 C1289 1.390 . S
C1295 C1292 1.386 . S
C1296 C1291 1.490 . S
C1296 C1298 1.395 . S
C1296 C1299 1.403 . S
H1297 C1303 0.930 . S
C1298 H1284 0.930 . S
C1298 C1296 1.395 . S
C1298 C1301 1.403 . S
C1299 C1296 1.403 . S
C1299 C1300 1.524 . S
C1299 C1303 1.400 . S
C1300 H1285 0.960 . S
C1300 H1286 0.960 . S
C1300 H1287 0.960 . S
C1300 C1299 1.524 . S
C1301 C1298 1.403 . S
C1301 C1302 1.392 . S
C1301 C1305 1.495 . S
C1302 C1301 1.392 . S
C1302 C1303 1.385 . S
C1302 C1304 1.478 . S
C1303 H1297 0.930 . S
C1303 C1299 1.400 . S
C1303 C1302 1.385 . S
C1304 C1302 1.478 . S
C1304 C1306 1.381 . S
C1304 C1310 1.383 . S
C1305 C1301 1.495 . S
C1305 H1311 0.959 . S
C1305 H1312 0.961 . S
C1305 H1313 0.960 . S
C1306 C1304 1.381 . S
C1306 C1307 1.394 . S
C1306 H1314 0.930 . S
C1307 C1306 1.394 . S
C1307 C1308 1.383 . S
C1307 H1315 0.929 . S
C1308 C1307 1.383 . S
C1308 C1309 1.377 . S
C1309 H1293 0.930 . S
C1309 C1308 1.377 . S
C1309 C1310 1.379 . S
C1310 H1294 0.931 . S
C1310 C1304 1.383 . S
C1310 C1309 1.379 . S
H1311 C1305 0.959 . S
H1312 C1305 0.961 . S
H1313 C1305 0.960 . S
H1314 C1306 0.930 . S
H1315 C1307 0.929 . S
H1316 C1324 0.929 . S
H1317 C1326 0.930 . S
H1318 C1328 0.930 . S
H1319 C1331 0.929 . S
H1320 C1334 0.930 . S
H1321 C1336 0.960 . S
H1322 C1336 0.960 . S
H1323 C1336 0.960 . S
C1324 H1316 0.929 . S
C1324 C1325 1.377 . S
C1324 C1326 1.384 . S
C1325 C1324 1.377 . S
C1325 C1331 1.390 . S
C1326 H1317 0.930 . S
C1326 C1324 1.384 . S
C1326 C1327 1.372 . S
C1327 C1326 1.372 . S
C1327 C1328 1.400 . S
C1327 C1332 1.490 . S
C1328 H1318 0.930 . S
C1328 C1327 1.400 . S
C1328 C1331 1.386 . S
H1329 C1345 0.930 . S
H1330 C1346 0.931 . S
C1331 H1319 0.929 . S
C1331 C1325 1.390 . S
C1331 C1328 1.386 . S
C1332 C1327 1.490 . S
C1332 C1334 1.395 . S
C1332 C1335 1.403 . S
H1333 C1339 0.930 . S
C1334 H1320 0.930 . S
C1334 C1332 1.395 . S
C1334 C1337 1.403 . S
C1335 C1332 1.403 . S
C1335 C1336 1.524 . S
C1335 C1339 1.400 . S
C1336 H1321 0.960 . S
C1336 H1322 0.960 . S
C1336 H1323 0.960 . S
C1336 C1335 1.524 . S
C1337 C1334 1.403 . S
C1337 C1338 1.392 . S
C1337 C1341 1.495 . S
C1338 C1337 1.392 . S
C1338 C1339 1.385 . S
C1338 C1340 1.478 . S
C1339 H1333 0.930 . S
C1339 C1335 1.400 . S
C1339 C1338 1.385 . S
C1340 C1338 1.478 . S
C1340 C1342 1.381 . S
C1340 C1346 1.383 . S
C1341 C1337 1.495 . S
C1341 H1347 0.959 . S
C1341 H1348 0.961 . S
C1341 H1349 0.960 . S
C1342 C1340 1.381 . S
C1342 C1343 1.394 . S
C1342 H1350 0.930 . S
C1343 C1342 1.394 . S
C1343 C1344 1.383 . S
C1343 H1351 0.929 . S
C1344 C1343 1.383 . S
C1344 C1345 1.377 . S
C1345 H1329 0.930 . S
C1345 C1344 1.377 . S
C1345 C1346 1.379 . S
C1346 H1330 0.931 . S
C1346 C1340 1.383 . S
C1346 C1345 1.379 . S
H1347 C1341 0.959 . S
H1348 C1341 0.961 . S
H1349 C1341 0.960 . S
H1350 C1342 0.930 . S
H1351 C1343 0.929 . S
H1352 C1360 0.929 . S
H1353 C1362 0.930 . S
H1354 C1364 0.930 . S
H1355 C1367 0.929 . S
H1356 C1370 0.930 . S
H1357 C1372 0.960 . S
H1358 C1372 0.960 . S
H1359 C1372 0.960 . S
C1360 H1352 0.929 . S
C1360 C1361 1.377 . S
C1360 C1362 1.384 . S
C1361 C1360 1.377 . S
C1361 C1367 1.390 . S
C1362 H1353 0.930 . S
C1362 C1360 1.384 . S
C1362 C1363 1.372 . S
C1363 C1362 1.372 . S
C1363 C1364 1.400 . S
C1363 C1368 1.490 . S
C1364 H1354 0.930 . S
C1364 C1363 1.400 . S
C1364 C1367 1.386 . S
H1365 C1381 0.930 . S
H1366 C1382 0.931 . S
C1367 H1355 0.929 . S
C1367 C1361 1.390 . S
C1367 C1364 1.386 . S
C1368 C1363 1.490 . S
C1368 C1370 1.395 . S
C1368 C1371 1.403 . S
H1369 C1375 0.930 . S
C1370 H1356 0.930 . S
C1370 C1368 1.395 . S
C1370 C1373 1.403 . S
C1371 C1368 1.403 . S
C1371 C1372 1.524 . S
C1371 C1375 1.400 . S
C1372 H1357 0.960 . S
C1372 H1358 0.960 . S
C1372 H1359 0.960 . S
C1372 C1371 1.524 . S
C1373 C1370 1.403 . S
C1373 C1374 1.392 . S
C1373 C1377 1.495 . S
C1374 C1373 1.392 . S
C1374 C1375 1.385 . S
C1374 C1376 1.478 . S
C1375 H1369 0.930 . S
C1375 C1371 1.400 . S
C1375 C1374 1.385 . S
C1376 C1374 1.478 . S
C1376 C1378 1.381 . S
C1376 C1382 1.383 . S
C1377 C1373 1.495 . S
C1377 H1383 0.959 . S
C1377 H1384 0.961 . S
C1377 H1385 0.960 . S
C1378 C1376 1.381 . S
C1378 C1379 1.394 . S
C1378 H1386 0.930 . S
C1379 C1378 1.394 . S
C1379 C1380 1.383 . S
C1379 H1387 0.929 . S
C1380 C1379 1.383 . S
C1380 C1381 1.377 . S
C1381 H1365 0.930 . S
C1381 C1380 1.377 . S
C1381 C1382 1.379 . S
C1382 H1366 0.931 . S
C1382 C1376 1.383 . S
C1382 C1381 1.379 . S
H1383 C1377 0.959 . S
H1384 C1377 0.961 . S
H1385 C1377 0.960 . S
H1386 C1378 0.930 . S
H1387 C1379 0.929 . S
H1388 C1396 0.929 . S
H1389 C1398 0.930 . S
H1390 C1400 0.930 . S
H1391 C1403 0.929 . S
H1392 C1406 0.930 . S
H1393 C1408 0.960 . S
H1394 C1408 0.960 . S
H1395 C1408 0.960 . S
C1396 H1388 0.929 . S
C1396 C1397 1.377 . S
C1396 C1398 1.384 . S
C1397 C1396 1.377 . S
C1397 C1403 1.390 . S
C1398 H1389 0.930 . S
C1398 C1396 1.384 . S
C1398 C1399 1.372 . S
C1399 C1398 1.372 . S
C1399 C1400 1.400 . S
C1399 C1404 1.490 . S
C1400 H1390 0.930 . S
C1400 C1399 1.400 . S
C1400 C1403 1.386 . S
H1401 C1417 0.930 . S
H1402 C1418 0.931 . S
C1403 H1391 0.929 . S
C1403 C1397 1.390 . S
C1403 C1400 1.386 . S
C1404 C1399 1.490 . S
C1404 C1406 1.395 . S
C1404 C1407 1.403 . S
H1405 C1411 0.930 . S
C1406 H1392 0.930 . S
C1406 C1404 1.395 . S
C1406 C1409 1.403 . S
C1407 C1404 1.403 . S
C1407 C1408 1.524 . S
C1407 C1411 1.400 . S
C1408 H1393 0.960 . S
C1408 H1394 0.960 . S
C1408 H1395 0.960 . S
C1408 C1407 1.524 . S
C1409 C1406 1.403 . S
C1409 C1410 1.392 . S
C1409 C1413 1.495 . S
C1410 C1409 1.392 . S
C1410 C1411 1.385 . S
C1410 C1412 1.478 . S
C1411 H1405 0.930 . S
C1411 C1407 1.400 . S
C1411 C1410 1.385 . S
C1412 C1410 1.478 . S
C1412 C1414 1.381 . S
C1412 C1418 1.383 . S
C1413 C1409 1.495 . S
C1413 H1419 0.959 . S
C1413 H1420 0.961 . S
C1413 H1421 0.960 . S
C1414 C1412 1.381 . S
C1414 C1415 1.394 . S
C1414 H1422 0.930 . S
C1415 C1414 1.394 . S
C1415 C1416 1.383 . S
C1415 H1423 0.929 . S
C1416 C1415 1.383 . S
C1416 C1417 1.377 . S
C1417 H1401 0.930 . S
C1417 C1416 1.377 . S
C1417 C1418 1.379 . S
C1418 H1402 0.931 . S
C1418 C1412 1.383 . S
C1418 C1417 1.379 . S
H1419 C1413 0.959 . S
H1420 C1413 0.961 . S
H1421 C1413 0.960 . S
H1422 C1414 0.930 . S
H1423 C1415 0.929 . S
C569 C1 1.458 . S
C588 C499 1.456 . S
C605 C80 1.293 . S
C624 C502 1.285 . S
C660 C538 1.733 . S
C641 C140 1.739 . S
C677 C211 1.627 . S
C696 C558 1.606 . S
C732 C512 1.727 . S
C713 C31 1.729 . S
C768 C489 1.550 . S
C749 C61 1.563 . S
C804 C542 1.541 . S
C785 C151 1.608 . S
C840 C522 1.374 . S
C821 C200 1.459 . S
C857 C20 1.325 . S
C876 C552 1.278 . S
C912 C518 1.581 . S
C893 C121 1.589 . S
C929 C181 1.616 . S
C948 C484 1.614 . S
C965 C91 1.332 . S
C984 C532 1.317 . S
C1020 C498 1.470 . S
C1001 C260 1.489 . S
C1037 C320 1.286 . S
C1056 C504 1.285 . S
C1073 C361 1.732 . S
C1092 C539 1.733 . S
C1109 C451 1.628 . S
C1128 C559 1.615 . S
C1145 C271 1.720 . S
C1164 C509 1.717 . S
C1200 C492 1.550 . S
C1181 C301 1.558 . S
C1236 C544 1.558 . S
C1217 C380 1.590 . S
C1272 C524 1.375 . S
C1253 C440 1.459 . S
C1289 C241 1.306 . S
C1308 C549 1.270 . S
C1344 C519 1.561 . S
C1325 C391 1.576 . S
C1380 C482 1.608 . S
C1361 C421 1.619 . S
C1397 C331 1.333 . S
C1416 C529 1.304 . S
