# Generated by pormake.
# Topology pto, (3,4)-cn, num edge types: 1
# Building blocks:
#     Node 0, Type 0, BuildingBlock: WUSLED_clean_sbu_0, # of connection points: 3
#     Node 1, Type 0, BuildingBlock: WUSLED_clean_sbu_0, # of connection points: 3
#     Node 2, Type 0, BuildingBlock: WUSLED_clean_sbu_0, # of connection points: 3
#     Node 3, Type 0, BuildingBlock: WUSLED_clean_sbu_0, # of connection points: 3
#     Node 4, Type 0, BuildingBlock: WUSLED_clean_sbu_0, # of connection points: 3
#     Node 5, Type 0, BuildingBlock: WUSLED_clean_sbu_0, # of connection points: 3
#     Node 6, Type 0, BuildingBlock: WUSLED_clean_sbu_0, # of connection points: 3
#     Node 7, Type 0, BuildingBlock: WUSLED_clean_sbu_0, # of connection points: 3
#     Node 8, Type 1, BuildingBlock: NAWXER_clean_linker_0, # of connection points: 4
#     Node 9, Type 1, BuildingBlock: NAWXER_clean_linker_0, # of connection points: 4
#     Node 10, Type 1, BuildingBlock: NAWXER_clean_linker_0, # of connection points: 4
#     Node 11, Type 1, BuildingBlock: NAWXER_clean_linker_0, # of connection points: 4
#     Node 12, Type 1, BuildingBlock: NAWXER_clean_linker_0, # of connection points: 4
#     Node 13, Type 1, BuildingBlock: NAWXER_clean_linker_0, # of connection points: 4
#     Edge 14, Type (0, 1), BuildingBlock: ZUJKAS_clean_linker_0, # of connection points: 2
#     Edge 15, Type (0, 1), BuildingBlock: ZUJKAS_clean_linker_0, # of connection points: 2
#     Edge 16, Type (0, 1), BuildingBlock: ZUJKAS_clean_linker_0, # of connection points: 2
#     Edge 17, Type (0, 1), BuildingBlock: ZUJKAS_clean_linker_0, # of connection points: 2
#     Edge 18, Type (0, 1), BuildingBlock: ZUJKAS_clean_linker_0, # of connection points: 2
#     Edge 19, Type (0, 1), BuildingBlock: ZUJKAS_clean_linker_0, # of connection points: 2
#     Edge 20, Type (0, 1), BuildingBlock: ZUJKAS_clean_linker_0, # of connection points: 2
#     Edge 21, Type (0, 1), BuildingBlock: ZUJKAS_clean_linker_0, # of connection points: 2
#     Edge 22, Type (0, 1), BuildingBlock: ZUJKAS_clean_linker_0, # of connection points: 2
#     Edge 23, Type (0, 1), BuildingBlock: ZUJKAS_clean_linker_0, # of connection points: 2
#     Edge 24, Type (0, 1), BuildingBlock: ZUJKAS_clean_linker_0, # of connection points: 2
#     Edge 25, Type (0, 1), BuildingBlock: ZUJKAS_clean_linker_0, # of connection points: 2
#     Edge 26, Type (0, 1), BuildingBlock: ZUJKAS_clean_linker_0, # of connection points: 2
#     Edge 27, Type (0, 1), BuildingBlock: ZUJKAS_clean_linker_0, # of connection points: 2
#     Edge 28, Type (0, 1), BuildingBlock: ZUJKAS_clean_linker_0, # of connection points: 2
#     Edge 29, Type (0, 1), BuildingBlock: ZUJKAS_clean_linker_0, # of connection points: 2
#     Edge 30, Type (0, 1), BuildingBlock: ZUJKAS_clean_linker_0, # of connection points: 2
#     Edge 31, Type (0, 1), BuildingBlock: ZUJKAS_clean_linker_0, # of connection points: 2
#     Edge 32, Type (0, 1), BuildingBlock: ZUJKAS_clean_linker_0, # of connection points: 2
#     Edge 33, Type (0, 1), BuildingBlock: ZUJKAS_clean_linker_0, # of connection points: 2
#     Edge 34, Type (0, 1), BuildingBlock: ZUJKAS_clean_linker_0, # of connection points: 2
#     Edge 35, Type (0, 1), BuildingBlock: ZUJKAS_clean_linker_0, # of connection points: 2
#     Edge 36, Type (0, 1), BuildingBlock: ZUJKAS_clean_linker_0, # of connection points: 2
#     Edge 37, Type (0, 1), BuildingBlock: ZUJKAS_clean_linker_0, # of connection points: 2
# Relax obj value: 0.000
# Max RMSD: 0.010
# Mean RMSD: 0.005
data_MOF--net-pto--node1-WUSLED_clean_sbu_0--node2-NAWXER_clean_linker_0--edge1-ZUJKAS_clean_linker_0
_symmetry_space_group_name_H-M    P1
_symmetry_Int_Tables_number       1
_symmetry_cell_setting            triclinic
loop_
_symmetry_equiv_pos_as_xyz
'x, y, z'
_cell_length_a     62.388508
_cell_length_b     84.955202
_cell_length_c     73.973168
_cell_angle_alpha  89.581697
_cell_angle_beta   90.5773
_cell_angle_gamma 90.608646
loop_
_atom_site_label
_atom_site_type_symbol
_atom_site_fract_x
_atom_site_fract_y
_atom_site_fract_z
_atom_type_partial_charge
C0 C 0.24367 0.2368 0.33607 0.0
C1 C 0.25878 0.22526 0.33206 0.0
C2 C 0.24594 0.20902 0.35709 0.0
C3 C 0.25993 0.21149 0.3425 0.0
C4 C 0.2308 0.22066 0.36098 0.0
C5 C 0.2297 0.23442 0.35055 0.0
U6 U 0.26123 0.26232 0.2962 0.0
O7 O 0.24224 0.27713 0.27772 0.0
O8 O 0.26743 0.28784 0.29466 0.0
C9 C 0.2514 0.29023 0.28334 0.0
C10 C 0.24235 0.25137 0.32532 0.0
C11 C 0.23662 0.30279 0.28831 0.0
C12 C 0.20828 0.31289 0.30717 0.0
C13 C 0.22261 0.30093 0.30291 0.0
C14 C 0.22202 0.32869 0.28236 0.0
C15 C 0.20774 0.32689 0.29686 0.0
C16 C 0.2363 0.31674 0.27814 0.0
C17 C 0.30328 0.2473 0.26348 0.0
C18 C 0.32601 0.26328 0.24392 0.0
C19 C 0.31917 0.23588 0.23681 0.0
C20 C 0.30638 0.23439 0.25215 0.0
C21 C 0.32922 0.25032 0.23257 0.0
C22 C 0.31305 0.26181 0.25919 0.0
C23 C 0.2898 0.24536 0.27962 0.0
O24 O 0.25955 0.26044 0.32581 0.0
O25 O 0.23424 0.24978 0.30896 0.0
O26 O 0.2691 0.24403 0.27645 0.0
O27 O 0.29449 0.25452 0.2934 0.0
H28 H 0.26965 0.22691 0.32085 0.0
H29 H 0.2716 0.20269 0.33902 0.0
H30 H 0.22 0.21924 0.37225 0.0
H31 H 0.21798 0.24325 0.35385 0.0
H32 H 0.19738 0.31106 0.3183 0.0
H33 H 0.22264 0.29018 0.31089 0.0
H34 H 0.22227 0.3394 0.27434 0.0
H35 H 0.24708 0.31838 0.26686 0.0
H36 H 0.33333 0.2746 0.24089 0.0
H37 H 0.3215 0.22565 0.22842 0.0
H38 H 0.29896 0.2231 0.25522 0.0
H39 H 0.31071 0.27201 0.26762 0.0
C40 C 0.24513 0.78987 0.68681 0.0
C41 C 0.25672 0.80297 0.6932 0.0
C42 C 0.24799 0.81755 0.66565 0.0
C43 C 0.25809 0.81672 0.68273 0.0
C44 C 0.23649 0.80432 0.65932 0.0
C45 C 0.23507 0.79061 0.66983 0.0
U46 U 0.26222 0.76483 0.72722 0.0
O47 O 0.24303 0.75026 0.7458 0.0
O48 O 0.26775 0.73933 0.72931 0.0
C49 C 0.25178 0.73709 0.74052 0.0
C50 C 0.24346 0.77537 0.69769 0.0
C51 C 0.23666 0.7244 0.73566 0.0
C52 C 0.2071 0.71421 0.71741 0.0
C53 C 0.22162 0.72636 0.72162 0.0
C54 C 0.22273 0.69804 0.74113 0.0
C55 C 0.20742 0.69993 0.7272 0.0
C56 C 0.23719 0.71018 0.74532 0.0
C57 C 0.30504 0.78027 0.75984 0.0
C58 C 0.31459 0.7662 0.78742 0.0
C59 C 0.33424 0.78981 0.77886 0.0
C60 C 0.32137 0.79129 0.76338 0.0
C61 C 0.33097 0.77728 0.79112 0.0
C62 C 0.30175 0.76768 0.7719 0.0
C63 C 0.29157 0.78208 0.74357 0.0
O64 O 0.26041 0.76633 0.69753 0.0
O65 O 0.23544 0.77708 0.71392 0.0
O66 O 0.27093 0.78346 0.74649 0.0
O67 O 0.29586 0.77249 0.73026 0.0
H68 H 0.2647 0.80254 0.70627 0.0
H69 H 0.26727 0.82662 0.6879 0.0
H70 H 0.22831 0.80464 0.64634 0.0
H71 H 0.22604 0.7806 0.66471 0.0
H72 H 0.1954 0.71612 0.70673 0.0
H73 H 0.22102 0.7373 0.71402 0.0
H74 H 0.22367 0.68712 0.74873 0.0
H75 H 0.24879 0.70846 0.75614 0.0
H76 H 0.31148 0.75651 0.79666 0.0
H77 H 0.3469 0.79841 0.78112 0.0
H78 H 0.32418 0.80103 0.75415 0.0
H79 H 0.28918 0.75905 0.76934 0.0
C80 C 0.732 0.78154 0.26711 0.0
C81 C 0.73519 0.76938 0.25472 0.0
C82 C 0.70508 0.77862 0.2364 0.0
C83 C 0.72187 0.76794 0.23948 0.0
C84 C 0.70188 0.79068 0.24903 0.0
C85 C 0.71524 0.79212 0.26422 0.0
U86 U 0.7749 0.76577 0.29923 0.0
O87 O 0.80286 0.7777 0.31149 0.0
O88 O 0.77788 0.76749 0.3288 0.0
C89 C 0.7954 0.77619 0.32797 0.0
C90 C 0.74606 0.78334 0.28304 0.0
C91 C 0.79513 0.79072 0.33859 0.0
C92 C 0.78142 0.8169 0.34405 0.0
C93 C 0.78153 0.80314 0.33377 0.0
C94 C 0.80851 0.80592 0.36403 0.0
C95 C 0.79493 0.81846 0.35932 0.0
C96 C 0.8086 0.79219 0.35375 0.0
C97 C 0.79767 0.72484 0.29167 0.0
C98 C 0.82943 0.71513 0.30725 0.0
C99 C 0.80714 0.69728 0.28965 0.0
C100 C 0.79347 0.70966 0.28518 0.0
C101 C 0.82534 0.69987 0.30067 0.0
C102 C 0.81565 0.7275 0.30284 0.0
C103 C 0.78317 0.73771 0.28664 0.0
O104 O 0.74164 0.77398 0.29676 0.0
O105 O 0.76666 0.78437 0.27963 0.0
O106 O 0.79249 0.75066 0.28065 0.0
O107 O 0.76768 0.74037 0.29809 0.0
H108 H 0.74807 0.76108 0.25678 0.0
H109 H 0.72496 0.75864 0.22996 0.0
H110 H 0.68891 0.79893 0.24726 0.0
H111 H 0.71249 0.80151 0.27372 0.0
H112 H 0.77095 0.82638 0.33993 0.0
H113 H 0.77105 0.80219 0.32205 0.0
H114 H 0.81888 0.80663 0.37584 0.0
H115 H 0.81914 0.78267 0.35768 0.0
H116 H 0.84317 0.71746 0.31592 0.0
H117 H 0.80369 0.68572 0.2842 0.0
H118 H 0.77965 0.70741 0.27656 0.0
H119 H 0.81904 0.73915 0.30809 0.0
C120 C 0.76145 0.21669 0.71034 0.0
C121 C 0.77098 0.22059 0.69377 0.0
C122 C 0.76928 0.19309 0.68467 0.0
C123 C 0.77478 0.20889 0.68101 0.0
C124 C 0.75994 0.18926 0.70139 0.0
C125 C 0.75603 0.20097 0.71409 0.0
U126 U 0.77176 0.25741 0.72992 0.0
O127 O 0.7494 0.27474 0.74071 0.0
O128 O 0.77463 0.26498 0.75824 0.0
C129 C 0.75739 0.27371 0.75718 0.0
C130 C 0.7572 0.22883 0.72386 0.0
C131 C 0.74165 0.27111 0.77156 0.0
C132 C 0.71306 0.25564 0.78529 0.0
C133 C 0.72813 0.2578 0.77157 0.0
C134 C 0.72504 0.27999 0.79915 0.0
C135 C 0.71128 0.26675 0.79922 0.0
C136 C 0.74006 0.28214 0.78544 0.0
C137 C 0.81279 0.28473 0.70779 0.0
C138 C 0.8206 0.31081 0.71955 0.0
C139 C 0.83977 0.3013 0.69354 0.0
C140 C 0.82818 0.28715 0.69438 0.0
C141 C 0.83616 0.3133 0.70613 0.0
C142 C 0.80901 0.29664 0.72036 0.0
C143 C 0.80101 0.26969 0.70864 0.0
O144 O 0.77313 0.23189 0.73509 0.0
O145 O 0.7477 0.24156 0.7177 0.0
O146 O 0.78034 0.27049 0.70521 0.0
O147 O 0.80561 0.26073 0.72267 0.0
H148 H 0.77545 0.23267 0.69071 0.0
H149 H 0.78221 0.21219 0.66834 0.0
H150 H 0.7553 0.17723 0.70455 0.0
H151 H 0.7487 0.19775 0.72683 0.0
H152 H 0.70259 0.2454 0.78482 0.0
H153 H 0.72917 0.24916 0.76092 0.0
H154 H 0.72438 0.28863 0.80982 0.0
H155 H 0.75046 0.29243 0.78568 0.0
H156 H 0.81724 0.31987 0.72932 0.0
H157 H 0.85183 0.30273 0.68321 0.0
H158 H 0.83134 0.27803 0.68461 0.0
H159 H 0.79713 0.29495 0.7308 0.0
C160 C 0.7951 0.7219 0.73791 0.0
C161 C 0.80892 0.7239 0.72321 0.0
C162 C 0.82311 0.69758 0.72825 0.0
C163 C 0.82284 0.71184 0.71842 0.0
C164 C 0.80915 0.69569 0.74296 0.0
C165 C 0.79527 0.70776 0.74773 0.0
U166 U 0.77173 0.76266 0.7305 0.0
O167 O 0.73848 0.77078 0.73276 0.0
O168 O 0.76374 0.78101 0.75003 0.0
C169 C 0.74309 0.78005 0.74644 0.0
C170 C 0.78047 0.73448 0.74314 0.0
C171 C 0.72915 0.77828 0.76223 0.0
C172 C 0.71924 0.76489 0.79012 0.0
C173 C 0.73243 0.7662 0.77497 0.0
C174 C 0.69919 0.78756 0.77975 0.0
C175 C 0.7025 0.77561 0.79274 0.0
C176 C 0.71242 0.78888 0.76466 0.0
C177 C 0.79146 0.78808 0.69122 0.0
C178 C 0.77644 0.81376 0.68451 0.0
C179 C 0.80625 0.80422 0.66709 0.0
C180 C 0.8063 0.79034 0.67734 0.0
C181 C 0.79133 0.81611 0.67055 0.0
C182 C 0.77653 0.79987 0.69479 0.0
C183 C 0.79182 0.77344 0.70189 0.0
O184 O 0.78979 0.74738 0.74918 0.0
O185 O 0.7647 0.73725 0.73168 0.0
O186 O 0.77431 0.76474 0.70095 0.0
O187 O 0.79949 0.77479 0.71842 0.0
H188 H 0.80892 0.73476 0.71545 0.0
H189 H 0.8332 0.71361 0.70691 0.0
H190 H 0.80916 0.68497 0.75096 0.0
H191 H 0.78473 0.70606 0.75915 0.0
H192 H 0.72239 0.75565 0.79992 0.0
H193 H 0.74529 0.75788 0.77327 0.0
H194 H 0.68625 0.79585 0.78115 0.0
H195 H 0.70959 0.79821 0.75489 0.0
H196 H 0.7649 0.82275 0.68765 0.0
H197 H 0.81773 0.80555 0.65629 0.0
H198 H 0.8179 0.78133 0.6744 0.0
H199 H 0.76501 0.79832 0.70554 0.0
C200 C 0.72855 0.24454 0.26792 0.0
C201 C 0.72817 0.25891 0.25846 0.0
C202 C 0.70171 0.2482 0.23728 0.0
C203 C 0.71485 0.26073 0.24327 0.0
C204 C 0.7022 0.23383 0.24687 0.0
C205 C 0.71551 0.23203 0.26205 0.0
U206 U 0.77167 0.25993 0.30015 0.0
O207 O 0.7748 0.25758 0.32968 0.0
O208 O 0.79958 0.24801 0.31215 0.0
C209 C 0.79228 0.24914 0.32869 0.0
C210 C 0.74261 0.24242 0.28377 0.0
C211 C 0.79214 0.23446 0.33929 0.0
C212 C 0.77855 0.20799 0.34492 0.0
C213 C 0.77849 0.22188 0.33462 0.0
C214 C 0.80591 0.21917 0.3646 0.0
C215 C 0.7923 0.20647 0.36003 0.0
C216 C 0.80582 0.23303 0.35431 0.0
C217 C 0.79503 0.30116 0.29308 0.0
C218 C 0.82682 0.31062 0.30904 0.0
C219 C 0.80567 0.32866 0.29088 0.0
C220 C 0.79158 0.31638 0.28635 0.0
C221 C 0.82353 0.32592 0.3022 0.0
C222 C 0.81264 0.29835 0.30458 0.0
C223 C 0.78024 0.28835 0.2879 0.0
O224 O 0.76319 0.24172 0.28026 0.0
O225 O 0.73837 0.25138 0.29768 0.0
O226 O 0.76478 0.28529 0.29938 0.0
O227 O 0.78931 0.27561 0.28168 0.0
H228 H 0.73816 0.2687 0.26284 0.0
H229 H 0.71469 0.272 0.23634 0.0
H230 H 0.69255 0.22387 0.24248 0.0
H231 H 0.7157 0.22084 0.26916 0.0
H232 H 0.76804 0.19838 0.34092 0.0
H233 H 0.76784 0.2228 0.323 0.0
H234 H 0.81645 0.2185 0.3763 0.0
H235 H 0.8164 0.24267 0.35813 0.0
H236 H 0.84028 0.30817 0.31795 0.0
H237 H 0.80282 0.34025 0.28521 0.0
H238 H 0.77806 0.31874 0.27747 0.0
H239 H 0.81546 0.28666 0.31001 0.0
C240 C 0.24517 0.23704 0.6856 0.0
C241 C 0.25957 0.22514 0.69048 0.0
C242 C 0.24689 0.20914 0.66523 0.0
C243 C 0.26045 0.2113 0.68037 0.0
C244 C 0.23253 0.22117 0.66043 0.0
C245 C 0.23169 0.23499 0.67054 0.0
U246 U 0.26332 0.26272 0.72506 0.0
O247 O 0.26922 0.2883 0.72612 0.0
O248 O 0.24454 0.27743 0.74324 0.0
C249 C 0.25335 0.29059 0.73731 0.0
C250 C 0.244 0.25162 0.69608 0.0
C251 C 0.23834 0.30306 0.73199 0.0
C252 C 0.20664 0.31194 0.71566 0.0
C253 C 0.22094 0.29995 0.72033 0.0
C254 C 0.22725 0.33029 0.73398 0.0
C255 C 0.20962 0.32725 0.72246 0.0
C256 C 0.24144 0.31829 0.73871 0.0
C257 C 0.30632 0.24809 0.75796 0.0
C258 C 0.31372 0.26018 0.78707 0.0
C259 C 0.33819 0.24098 0.77514 0.0
C260 C 0.32515 0.23936 0.75977 0.0
C261 C 0.33256 0.25134 0.78902 0.0
C262 C 0.30075 0.25862 0.77163 0.0
C263 C 0.29265 0.246 0.74182 0.0
O264 O 0.23622 0.25001 0.71245 0.0
O265 O 0.26111 0.26075 0.69547 0.0
O266 O 0.29695 0.25544 0.72815 0.0
O267 O 0.27201 0.24442 0.74487 0.0
H268 H 0.27007 0.22654 0.70213 0.0
H269 H 0.27152 0.20221 0.68455 0.0
H270 H 0.2221 0.22001 0.64872 0.0
H271 H 0.22053 0.2441 0.66656 0.0
H272 H 0.19337 0.30926 0.7066 0.0
H273 H 0.21839 0.28826 0.7149 0.0
H274 H 0.22985 0.34189 0.73963 0.0
H275 H 0.2548 0.32088 0.74772 0.0
H276 H 0.30909 0.26839 0.79742 0.0
H277 H 0.35246 0.23388 0.77631 0.0
H278 H 0.32969 0.23118 0.74934 0.0
H279 H 0.28634 0.26557 0.77039 0.0
C280 C 0.22083 0.74056 0.31841 0.0
C281 C 0.22443 0.72894 0.30545 0.0
C282 C 0.1971 0.71211 0.31916 0.0
C283 C 0.21266 0.71484 0.30581 0.0
C284 C 0.19361 0.72384 0.33212 0.0
C285 C 0.20538 0.73794 0.33173 0.0
U286 U 0.26261 0.76773 0.29721 0.0
O287 O 0.26227 0.79334 0.29272 0.0
O288 O 0.2872 0.78284 0.30997 0.0
C289 C 0.27836 0.79587 0.30398 0.0
C290 C 0.23299 0.75546 0.31813 0.0
C291 C 0.27475 0.80795 0.31769 0.0
C292 C 0.25567 0.81756 0.34381 0.0
C293 C 0.25901 0.80587 0.33092 0.0
C294 C 0.28387 0.83345 0.33036 0.0
C295 C 0.26803 0.83152 0.34364 0.0
C296 C 0.28717 0.82177 0.31751 0.0
C297 C 0.29199 0.7545 0.25501 0.0
C298 C 0.3172 0.77151 0.23913 0.0
C299 C 0.31096 0.74478 0.22895 0.0
C300 C 0.29633 0.74238 0.24291 0.0
C301 C 0.32152 0.7594 0.22683 0.0
C302 C 0.30254 0.76907 0.25311 0.0
C303 C 0.27634 0.75178 0.26944 0.0
O304 O 0.25362 0.75426 0.32154 0.0
O305 O 0.22867 0.76487 0.30442 0.0
O306 O 0.25932 0.76076 0.26875 0.0
O307 O 0.28445 0.75031 0.28582 0.0
H308 H 0.23636 0.7308 0.29507 0.0
H309 H 0.21592 0.70599 0.29576 0.0
H310 H 0.18156 0.72224 0.34242 0.0
H311 H 0.20236 0.74682 0.3418 0.0
H312 H 0.24321 0.81576 0.35372 0.0
H313 H 0.24925 0.79524 0.33122 0.0
H314 H 0.2939 0.84393 0.33 0.0
H315 H 0.29946 0.82353 0.30742 0.0
H316 H 0.32487 0.78294 0.23779 0.0
H317 H 0.31416 0.73513 0.21993 0.0
H318 H 0.28838 0.73103 0.24425 0.0
H319 H 0.29934 0.77857 0.26237 0.0
C320 C 0.98376 0.46027 0.31217 0.0
C321 C 0.96745 0.45789 0.32492 0.0
C322 C 0.99675 0.47377 0.31278 0.0
C323 C 0.99396 0.48504 0.32634 0.0
C324 C 0.96451 0.46929 0.33834 0.0
C325 C 0.97758 0.48274 0.33899 0.0
C326 C 1.00712 0.49967 0.32678 0.0
C327 C 0.05254 0.45962 0.33615 0.0
C328 C 0.068 0.45808 0.32257 0.0
C329 C 0.04012 0.47319 0.33712 0.0
C330 C 0.04275 0.48543 0.32442 0.0
C331 C 0.0709 0.47052 0.31015 0.0
C332 C 0.05849 0.48407 0.31113 0.0
C333 C 0.02969 0.49987 0.32514 0.0
C334 C 0.05243 0.56817 0.33781 0.0
C335 C 0.06814 0.5704 0.3245 0.0
C336 C 0.03993 0.55441 0.33821 0.0
C337 C 0.04273 0.54267 0.32519 0.0
C338 C 0.07117 0.55849 0.3117 0.0
C339 C 0.05867 0.54474 0.31211 0.0
C340 C 0.02968 0.52799 0.32543 0.0
C341 C 0.98371 0.5671 0.31289 0.0
C342 C 0.96739 0.56895 0.32566 0.0
C343 C 0.99674 0.55382 0.31337 0.0
C344 C 0.99395 0.54221 0.32679 0.0
C345 C 0.9645 0.55723 0.33898 0.0
C346 C 0.97759 0.54397 0.33948 0.0
C347 C 1.00711 0.52779 0.32704 0.0
H348 H 0.98614 0.45188 0.30144 0.0
H349 H 1.00873 0.4755 0.30244 0.0
H350 H 0.95217 0.46776 0.34842 0.0
H351 H 0.97497 0.49135 0.34946 0.0
H352 H 0.04986 0.45025 0.3459 0.0
H353 H 0.02847 0.47412 0.3478 0.0
H354 H 0.08294 0.46985 0.29974 0.0
H355 H 0.06102 0.49344 0.30134 0.0
H356 H 0.04962 0.57713 0.34783 0.0
H357 H 0.02813 0.55293 0.34874 0.0
H358 H 0.08338 0.5597 0.30147 0.0
H359 H 0.06132 0.53576 0.30207 0.0
H360 H 0.98606 0.57573 0.30222 0.0
H361 H 1.00874 0.55249 0.30303 0.0
H362 H 0.95218 0.55835 0.34908 0.0
H363 H 0.975 0.5351 0.34985 0.0
N364 N 0.99676 0.51363 0.32779 0.0
N365 N 0.04004 0.51403 0.32442 0.0
C366 C 0.9807 0.45723 0.68552 0.0
C367 C 0.96472 0.45511 0.69863 0.0
C368 C 0.99317 0.47101 0.68512 0.0
C369 C 0.99006 0.48287 0.69795 0.0
C370 C 0.96141 0.46714 0.71123 0.0
C371 C 0.97388 0.48089 0.71082 0.0
C372 C 1.00296 0.49762 0.69771 0.0
C373 C 0.04895 0.45873 0.71086 0.0
C374 C 0.06555 0.45697 0.69833 0.0
C375 C 0.0359 0.472 0.71027 0.0
C376 C 0.03892 0.48366 0.69694 0.0
C377 C 0.06875 0.46877 0.68518 0.0
C378 C 0.05561 0.48201 0.68454 0.0
C379 C 0.02557 0.498 0.69647 0.0
C380 C 0.04735 0.56548 0.71266 0.0
C381 C 0.06401 0.56824 0.70031 0.0
C382 C 0.03463 0.55188 0.71151 0.0
C383 C 0.03803 0.54085 0.6978 0.0
C384 C 0.06751 0.55709 0.6867 0.0
C385 C 0.05471 0.54351 0.68553 0.0
C386 C 0.02513 0.52612 0.69684 0.0
C387 C 0.979 0.56575 0.68678 0.0
C388 C 0.96264 0.56678 0.69967 0.0
C389 C 0.99201 0.55245 0.68616 0.0
C390 C 0.98914 0.54003 0.69859 0.0
C391 C 0.95965 0.55422 0.71191 0.0
C392 C 0.97268 0.54098 0.71131 0.0
C393 C 1.00251 0.52573 0.69804 0.0
H394 H 0.98371 0.44818 0.67566 0.0
H395 H 1.00517 0.47242 0.67474 0.0
H396 H 0.94899 0.46602 0.72129 0.0
H397 H 0.97098 0.48996 0.72071 0.0
H398 H 0.04636 0.45003 0.72141 0.0
H399 H 0.02366 0.47324 0.72042 0.0
H400 H 0.08131 0.46773 0.67528 0.0
H401 H 0.0584 0.49093 0.67426 0.0
H402 H 0.04411 0.57384 0.72324 0.0
H403 H 0.0223 0.54991 0.7215 0.0
H404 H 0.08041 0.5587 0.67717 0.0
H405 H 0.05786 0.53505 0.67501 0.0
H406 H 0.98148 0.57509 0.67697 0.0
H407 H 1.00417 0.55182 0.67585 0.0
H408 H 0.94737 0.5547 0.72214 0.0
H409 H 0.97006 0.53151 0.72096 0.0
N410 N 0.99238 0.51149 0.69854 0.0
N411 N 0.03573 0.51224 0.69597 0.0
C412 C 0.23708 0.0682 0.48408 0.0
C413 C 0.25232 0.07034 0.47037 0.0
C414 C 0.23722 0.05465 0.49493 0.0
C415 C 0.25279 0.04305 0.49246 0.0
C416 C 0.26773 0.05861 0.4678 0.0
C417 C 0.26788 0.04509 0.47868 0.0
C418 C 0.25279 0.02838 0.50345 0.0
C419 C 0.26666 0.06776 0.54224 0.0
C420 C 0.25117 0.06956 0.55575 0.0
C421 C 0.26662 0.05435 0.5314 0.0
C422 C 0.25092 0.04254 0.53367 0.0
C423 C 0.2357 0.05758 0.55817 0.0
C424 C 0.23566 0.04418 0.54731 0.0
C425 C 0.25087 0.02813 0.52249 0.0
C426 C 0.26644 0.96012 0.54152 0.0
C427 C 0.25093 0.95785 0.55499 0.0
C428 C 0.26649 0.97377 0.53084 0.0
C429 C 0.25083 0.98532 0.53321 0.0
C430 C 0.23549 0.96956 0.55752 0.0
C431 C 0.23551 0.98317 0.54679 0.0
C432 C 0.25089 1.0 0.52226 0.0
C433 C 0.23806 0.96059 0.48296 0.0
C434 C 0.25346 0.95926 0.4693 0.0
C435 C 0.23785 0.97382 0.4941 0.0
C436 C 0.25325 0.98588 0.492 0.0
C437 C 0.26872 0.97141 0.46716 0.0
C438 C 0.26855 0.9846 0.47833 0.0
C439 C 0.2529 1.00026 0.50323 0.0
H440 H 0.22506 0.07702 0.48649 0.0
H441 H 0.225 0.05317 0.50512 0.0
H442 H 0.27945 0.05974 0.45717 0.0
H443 H 0.27985 0.0362 0.47634 0.0
H444 H 0.27874 0.07679 0.53995 0.0
H445 H 0.27895 0.05318 0.52131 0.0
H446 H 0.22377 0.05845 0.56864 0.0
H447 H 0.22359 0.03512 0.54949 0.0
H448 H 0.27881 0.95149 0.53947 0.0
H449 H 0.27894 0.97537 0.52088 0.0
H450 H 0.22321 0.96812 0.56766 0.0
H451 H 0.22339 0.99198 0.54899 0.0
H452 H 0.22585 0.95157 0.48475 0.0
H453 H 0.22544 0.97474 0.50415 0.0
H454 H 0.28094 0.97069 0.4569 0.0
H455 H 0.28049 0.99379 0.47635 0.0
N456 N 0.25387 0.01444 0.49463 0.0
N457 N 0.24984 0.01395 0.5311 0.0
C458 C 0.48301 0.78087 0.95207 0.0
C459 C 0.4666 0.76955 0.94974 0.0
C460 C 0.49605 0.78068 0.96755 0.0
C461 C 0.49311 0.76906 0.98094 0.0
C462 C 0.46358 0.75803 0.96326 0.0
C463 C 0.47662 0.75786 0.97874 0.0
C464 C 0.50635 0.769 0.99769 0.0
C465 C 0.55139 0.75896 0.95218 0.0
C466 C 0.568 0.77014 0.95002 0.0
C467 C 0.53864 0.759 0.96762 0.0
C468 C 0.54201 0.77034 0.98112 0.0
C469 C 0.57155 0.78131 0.96371 0.0
C470 C 0.55875 0.78135 0.97911 0.0
C471 C 0.52896 0.77035 0.99776 0.0
C472 C 0.55234 0.75993 0.0762 0.0
C473 C 0.56873 0.77132 0.07814 0.0
C474 C 0.5394 0.75963 0.06065 0.0
C475 C 0.54238 0.77085 0.04682 0.0
C476 C 0.57188 0.78236 0.06412 0.0
C477 C 0.55891 0.78208 0.04862 0.0
C478 C 0.52913 0.77055 0.03007 0.0
C479 C 0.48374 0.78068 0.0754 0.0
C480 C 0.46739 0.76931 0.07767 0.0
C481 C 0.49653 0.78066 0.05998 0.0
C482 C 0.49345 0.76916 0.04662 0.0
C483 C 0.46414 0.75797 0.06412 0.0
C484 C 0.47697 0.75795 0.04874 0.0
C485 C 0.50652 0.76914 0.02999 0.0
H486 H 0.48584 0.78986 0.94188 0.0
H487 H 0.50828 0.78972 0.96913 0.0
H488 H 0.45087 0.74931 0.96203 0.0
H489 H 0.47386 0.74892 0.989 0.0
H490 H 0.54813 0.75024 0.94189 0.0
H491 H 0.52626 0.75006 0.96906 0.0
H492 H 0.58444 0.78989 0.96266 0.0
H493 H 0.56189 0.79007 0.98945 0.0
H494 H 0.54939 0.7513 0.08675 0.0
H495 H 0.52718 0.75055 0.05939 0.0
H496 H 0.58461 0.7911 0.06499 0.0
H497 H 0.56174 0.7907 0.03802 0.0
H498 H 0.48674 0.78954 0.08558 0.0
H499 H 0.50872 0.78973 0.05844 0.0
H500 H 0.45144 0.74924 0.06525 0.0
H501 H 0.47406 0.74911 0.0385 0.0
N502 N 0.49607 0.76833 0.0138 0.0
N503 N 0.53941 0.77119 0.01396 0.0
C504 C 0.77954 0.06481 0.48594 0.0
C505 C 0.79527 0.06735 0.47271 0.0
C506 C 0.77987 0.0513 0.49683 0.0
C507 C 0.79611 0.04012 0.49489 0.0
C508 C 0.81138 0.05605 0.47069 0.0
C509 C 0.81172 0.04255 0.4816 0.0
C510 C 0.79622 0.02545 0.50585 0.0
C511 C 0.80657 0.06499 0.54541 0.0
C512 C 0.79001 0.06641 0.55805 0.0
C513 C 0.80775 0.05166 0.53448 0.0
C514 C 0.79235 0.03954 0.53593 0.0
C515 C 0.77477 0.05417 0.55957 0.0
C516 C 0.77602 0.04084 0.54871 0.0
C517 C 0.79358 0.02516 0.52481 0.0
C518 C 0.80924 0.95713 0.54408 0.0
C519 C 0.79349 0.9549 0.55737 0.0
C520 C 0.80952 0.97076 0.53337 0.0
C521 C 0.7939 0.98237 0.53557 0.0
C522 C 0.77807 0.96666 0.5597 0.0
C523 C 0.77835 0.98027 0.54897 0.0
C524 C 0.7942 0.99705 0.52461 0.0
C525 C 0.78093 0.95794 0.4853 0.0
C526 C 0.79663 0.95618 0.47196 0.0
C527 C 0.78098 0.97123 0.49633 0.0
C528 C 0.79689 0.98294 0.49443 0.0
C529 C 0.8124 0.96801 0.46997 0.0
C530 C 0.81244 0.98129 0.48102 0.0
C531 C 0.7967 0.99733 0.50563 0.0
H532 H 0.76697 0.07331 0.48794 0.0
H533 H 0.76726 0.0495 0.50661 0.0
H534 H 0.82353 0.0575 0.46044 0.0
H535 H 0.82421 0.03397 0.47966 0.0
H536 H 0.81853 0.07423 0.5439 0.0
H537 H 0.82081 0.05076 0.52502 0.0
H538 H 0.76204 0.05478 0.56939 0.0
H539 H 0.76412 0.03156 0.55022 0.0
H540 H 0.82129 0.94829 0.54187 0.0
H541 H 0.82207 0.97227 0.52348 0.0
H542 H 0.76596 0.96547 0.57002 0.0
H543 H 0.76632 0.98915 0.5511 0.0
H544 H 0.76863 0.94902 0.48727 0.0
H545 H 0.76844 0.97241 0.50623 0.0
H546 H 0.8245 0.96714 0.45964 0.0
H547 H 0.82467 0.99028 0.47913 0.0
N548 N 0.79778 0.01152 0.49704 0.0
N549 N 0.79259 0.01098 0.5334 0.0
C550 C 0.48326 0.26597 0.95091 0.0
C551 C 0.46645 0.25496 0.94876 0.0
C552 C 0.49608 0.26584 0.96653 0.0
C553 C 0.49262 0.25451 0.98016 0.0
C554 C 0.46282 0.24379 0.96254 0.0
C555 C 0.47573 0.24361 0.9781 0.0
C556 C 0.50563 0.25449 0.99706 0.0
C557 C 0.55163 0.24442 0.95221 0.0
C558 C 0.56768 0.25601 0.94992 0.0
C559 C 0.53874 0.24435 0.96757 0.0
C560 C 0.54152 0.25593 0.98088 0.0
C561 C 0.5706 0.26744 0.96341 0.0
C562 C 0.55774 0.26734 0.97877 0.0
C563 C 0.52825 0.25588 0.99739 0.0
C564 C 0.55028 0.24469 0.0759 0.0
C565 C 0.56688 0.25587 0.07816 0.0
C566 C 0.53753 0.24472 0.06024 0.0
C567 C 0.5409 0.25606 0.04661 0.0
C568 C 0.57035 0.2671 0.0644 0.0
C569 C 0.55756 0.26714 0.04876 0.0
C570 C 0.52796 0.25596 0.02969 0.0
C571 C 0.48148 0.26668 0.07403 0.0
C572 C 0.46566 0.25496 0.07664 0.0
C573 C 0.49452 0.26651 0.05877 0.0
C574 C 0.49211 0.25458 0.04585 0.0
C575 C 0.46326 0.24308 0.06359 0.0
C576 C 0.47624 0.24298 0.04829 0.0
C577 C 0.50536 0.25453 0.02935 0.0
H578 H 0.4862 0.27491 0.9407 0.0
H579 H 0.50847 0.27477 0.96804 0.0
H580 H 0.45011 0.23508 0.96124 0.0
H581 H 0.4726 0.23486 0.98849 0.0
H582 H 0.54892 0.23549 0.94205 0.0
H583 H 0.5267 0.23517 0.9691 0.0
H584 H 0.58306 0.27636 0.96222 0.0
H585 H 0.56037 0.27626 0.98897 0.0
H586 H 0.54707 0.23593 0.08625 0.0
H587 H 0.52522 0.23574 0.05871 0.0
H588 H 0.58322 0.2757 0.06554 0.0
H589 H 0.56068 0.27586 0.03833 0.0
H590 H 0.48351 0.27619 0.08359 0.0
H591 H 0.50628 0.27585 0.05694 0.0
H592 H 0.45148 0.23375 0.06524 0.0
H593 H 0.47402 0.23371 0.03844 0.0
N594 N 0.49513 0.25376 0.01306 0.0
N595 N 0.53848 0.25667 0.01368 0.0
H596 H 0.18414 0.3445 0.27299 0.0
H597 H 0.15961 0.36587 0.27969 0.0
H598 H 0.17096 0.35891 0.33677 0.0
H599 H 0.1961 0.3378 0.33017 0.0
H600 H 0.12203 0.36515 0.30037 0.0
H601 H 0.18319 0.40612 0.32937 0.0
H602 H 0.1903 0.38904 0.31645 0.0
H603 H 0.18208 0.38686 0.33955 0.0
C604 C 0.18163 0.34762 0.28698 0.0
C605 C 0.19226 0.33953 0.30104 0.0
C606 C 0.16747 0.35975 0.29078 0.0
C607 C 0.1637 0.36412 0.30871 0.0
C608 C 0.17393 0.3559 0.32282 0.0
H609 H 0.08671 0.44124 0.35019 0.0
H610 H 0.10866 0.41761 0.34787 0.0
C611 C 0.18811 0.34373 0.31903 0.0
C612 C 0.14898 0.37726 0.31248 0.0
H613 H 0.14726 0.4145 0.32947 0.0
C614 C 0.12752 0.37593 0.30678 0.0
C615 C 0.15618 0.39128 0.32092 0.0
C616 C 0.17922 0.39355 0.32682 0.0
C617 C 0.11306 0.38827 0.30919 0.0
C618 C 0.12038 0.40243 0.31722 0.0
C619 C 0.14171 0.40363 0.32331 0.0
C620 C 0.10643 0.41637 0.31871 0.0
C621 C 0.09005 0.38601 0.3032 0.0
C622 C 0.09803 0.42358 0.30308 0.0
C623 C 0.08543 0.43701 0.30436 0.0
C624 C 0.08107 0.44359 0.32131 0.0
C625 C 0.08952 0.43635 0.33696 0.0
C626 C 0.10217 0.42291 0.33565 0.0
H627 H 0.08563 0.37333 0.30232 0.0
H628 H 0.07891 0.39183 0.31261 0.0
H629 H 0.08783 0.39133 0.28957 0.0
H630 H 0.10145 0.41891 0.28984 0.0
H631 H 0.07902 0.4422 0.29206 0.0
H632 H 0.18594 0.68099 0.75116 0.0
H633 H 0.16109 0.65935 0.74448 0.0
H634 H 0.16773 0.66848 0.68738 0.0
H635 H 0.19325 0.68984 0.69392 0.0
H636 H 0.12208 0.65997 0.72589 0.0
H637 H 0.18019 0.62139 0.69152 0.0
H638 H 0.18854 0.63815 0.7048 0.0
H639 H 0.17808 0.64094 0.6823 0.0
C640 C 0.18235 0.67829 0.73716 0.0
C641 C 0.19177 0.68707 0.72307 0.0
C642 C 0.168 0.66599 0.73337 0.0
C643 C 0.1628 0.66215 0.71544 0.0
C644 C 0.17182 0.67105 0.70132 0.0
H645 H 0.07976 0.58702 0.67303 0.0
H646 H 0.10302 0.61031 0.67586 0.0
C647 C 0.18622 0.68337 0.70509 0.0
C648 C 0.14775 0.64891 0.71166 0.0
H649 H 0.14421 0.61252 0.69243 0.0
C650 C 0.1269 0.64961 0.71855 0.0
C651 C 0.15406 0.63543 0.70202 0.0
C652 C 0.17648 0.63379 0.69484 0.0
C653 C 0.1122 0.63716 0.71612 0.0
C654 C 0.11865 0.62355 0.70681 0.0
C655 C 0.13933 0.62298 0.69957 0.0
C656 C 0.10444 0.60953 0.70507 0.0
C657 C 0.08986 0.6387 0.72347 0.0
C658 C 0.09782 0.60126 0.72055 0.0
C659 C 0.08468 0.58791 0.719 0.0
C660 C 0.07794 0.58251 0.7019 0.0
C661 C 0.08479 0.59077 0.68639 0.0
C662 C 0.09798 0.60412 0.68797 0.0
H663 H 0.08568 0.65121 0.72576 0.0
H664 H 0.07779 0.63343 0.71411 0.0
H665 H 0.08886 0.63239 0.73662 0.0
H666 H 0.10304 0.60502 0.73386 0.0
H667 H 0.08012 0.58166 0.7312 0.0
H668 H 0.86924 0.70038 0.30078 0.0
H669 H 0.89345 0.67832 0.30637 0.0
H670 H 0.83913 0.64769 0.31602 0.0
H671 H 0.81485 0.66965 0.31041 0.0
H672 H 0.89892 0.65864 0.33642 0.0
H673 H 0.87131 0.62468 0.27659 0.0
H674 H 0.86473 0.6451 0.27972 0.0
H675 H 0.85018 0.62994 0.29161 0.0
C676 C 0.86246 0.68897 0.30425 0.0
C677 C 0.84011 0.68672 0.30498 0.0
C678 C 0.87631 0.67638 0.30738 0.0
C679 C 0.86807 0.6613 0.31126 0.0
C680 C 0.84581 0.65913 0.31259 0.0
H681 H 0.92389 0.5695 0.32998 0.0
H682 H 0.9002 0.5922 0.32762 0.0
C683 C 0.83196 0.67169 0.30939 0.0
C684 C 0.88275 0.64782 0.31378 0.0
H685 H 0.89492 0.61171 0.29696 0.0
C686 C 0.89812 0.6484 0.32776 0.0
C687 C 0.88169 0.63449 0.30243 0.0
C688 C 0.86624 0.63352 0.28663 0.0
C689 C 0.9122 0.63585 0.33092 0.0
C690 C 0.91103 0.6225 0.31963 0.0
C691 C 0.8957 0.62194 0.30564 0.0
C692 C 0.92564 0.60897 0.32197 0.0
C693 C 0.92791 0.63684 0.34652 0.0
C694 C 0.9478 0.61087 0.31952 0.0
C695 C 0.96139 0.59793 0.32092 0.0
C696 C 0.95307 0.58282 0.32475 0.0
C697 C 0.93086 0.581 0.32728 0.0
C698 C 0.91728 0.59394 0.32583 0.0
H699 H 0.92327 0.64592 0.35643 0.0
H700 H 0.92917 0.62532 0.35362 0.0
H701 H 0.94399 0.64004 0.34128 0.0
H702 H 0.95454 0.62233 0.31623 0.0
H703 H 0.97843 0.59975 0.31902 0.0
H704 H 0.84755 0.33046 0.67615 0.0
H705 H 0.86952 0.35447 0.67492 0.0
H706 H 0.87469 0.3543 0.73309 0.0
H707 H 0.85333 0.33002 0.73444 0.0
H708 H 0.86234 0.38391 0.69041 0.0
H709 H 0.93727 0.35734 0.71714 0.0
H710 H 0.91481 0.34562 0.70926 0.0
H711 H 0.91434 0.35437 0.7313 0.0
C712 C 0.85354 0.33543 0.68868 0.0
C713 C 0.84881 0.32824 0.70539 0.0
C714 C 0.86597 0.34921 0.68795 0.0
C715 C 0.87401 0.35602 0.70389 0.0
C716 C 0.86897 0.34907 0.72061 0.0
H717 H 0.95228 0.43814 0.72839 0.0
H718 H 0.92975 0.41441 0.72933 0.0
C719 C 0.85655 0.3353 0.72136 0.0
C720 C 0.88753 0.37046 0.70301 0.0
H721 H 0.93723 0.38511 0.71361 0.0
C722 C 0.87875 0.38417 0.69541 0.0
C723 C 0.90892 0.37075 0.70953 0.0
C724 C 0.91951 0.35621 0.71712 0.0
C725 C 0.89067 0.39827 0.69447 0.0
C726 C 0.91205 0.39856 0.70104 0.0
C727 C 0.92083 0.38485 0.70861 0.0
C728 C 0.92555 0.41302 0.70032 0.0
C729 C 0.88012 0.41281 0.68685 0.0
C730 C 0.93088 0.41999 0.68368 0.0
C731 C 0.94366 0.4336 0.6831 0.0
C732 C 0.95143 0.44047 0.69916 0.0
C733 C 0.94628 0.43331 0.71579 0.0
C734 C 0.93352 0.41969 0.71635 0.0
H735 H 0.86237 0.41165 0.68665 0.0
H736 H 0.88469 0.42338 0.69481 0.0
H737 H 0.88549 0.41472 0.67274 0.0
H738 H 0.92521 0.41486 0.67112 0.0
H739 H 0.9472 0.43887 0.67008 0.0
H740 H 0.2127 0.19107 0.37006 0.0
H741 H 0.21468 0.16753 0.38922 0.0
H742 H 0.28372 0.17007 0.38816 0.0
H743 H 0.2819 0.19389 0.36939 0.0
H744 H 0.23459 0.13853 0.38204 0.0
H745 H 0.27025 0.16762 0.44246 0.0
H746 H 0.25806 0.17855 0.42411 0.0
H747 H 0.28458 0.17083 0.42179 0.0
C748 C 0.22831 0.18673 0.37405 0.0
C749 C 0.24715 0.19444 0.36829 0.0
C750 C 0.22941 0.17321 0.3849 0.0
C751 C 0.24933 0.1672 0.39032 0.0
C752 C 0.26817 0.17468 0.38438 0.0
H753 H 0.28652 0.08783 0.45824 0.0
H754 H 0.2859 0.1109 0.43825 0.0
C755 C 0.2671 0.18819 0.37349 0.0
C756 C 0.25033 0.15298 0.40203 0.0
H757 H 0.26686 0.13986 0.44359 0.0
C758 C 0.24159 0.13881 0.39551 0.0
C759 C 0.25954 0.15339 0.41958 0.0
C760 C 0.26849 0.16843 0.42752 0.0
C761 C 0.24203 0.12496 0.40599 0.0
C762 C 0.25107 0.1254 0.42361 0.0
C763 C 0.25993 0.13956 0.43009 0.0
C764 C 0.25134 0.11133 0.4356 0.0
C765 C 0.23318 0.10993 0.39798 0.0
C766 C 0.23211 0.10403 0.44094 0.0
C767 C 0.23241 0.09078 0.45225 0.0
C768 C 0.25197 0.08461 0.45857 0.0
C769 C 0.2712 0.09211 0.4534 0.0
C770 C 0.27088 0.10536 0.44207 0.0
H771 H 0.23235 0.11057 0.38298 0.0
H772 H 0.24311 0.09968 0.40198 0.0
H773 H 0.21668 0.10786 0.40301 0.0
H774 H 0.21684 0.10863 0.4364 0.0
H775 H 0.21732 0.08524 0.45583 0.0
H776 H 0.34494 0.80086 0.81354 0.0
H777 H 0.36799 0.79862 0.84032 0.0
H778 H 0.37007 0.74829 0.8336 0.0
H779 H 0.34765 0.75046 0.80639 0.0
H780 H 0.36092 0.78201 0.8722 0.0
H781 H 0.43345 0.76036 0.83769 0.0
H782 H 0.41112 0.76884 0.82551 0.0
H783 H 0.40959 0.74886 0.8336 0.0
C784 C 0.35052 0.78932 0.81759 0.0
C785 C 0.34457 0.77585 0.8077 0.0
C786 C 0.36357 0.78806 0.83299 0.0
C787 C 0.37101 0.77332 0.8388 0.0
C788 C 0.36484 0.75981 0.82916 0.0
H789 H 0.45225 0.74463 0.92947 0.0
H790 H 0.42839 0.74528 0.90298 0.0
C791 C 0.35181 0.76106 0.81373 0.0
C792 C 0.38497 0.77214 0.8551 0.0
H793 H 0.43471 0.761 0.86969 0.0
C794 C 0.37707 0.77745 0.87166 0.0
C795 C 0.40602 0.76614 0.85435 0.0
C796 C 0.41568 0.76085 0.83682 0.0
C797 C 0.38958 0.77681 0.88752 0.0
C798 C 0.41068 0.77094 0.88674 0.0
C799 C 0.41852 0.76549 0.87023 0.0
C800 C 0.42501 0.77059 0.90285 0.0
C801 C 0.38 0.78221 0.90504 0.0
C802 C 0.43122 0.78463 0.91141 0.0
C803 C 0.44476 0.7843 0.92657 0.0
C804 C 0.45245 0.76991 0.93344 0.0
C805 C 0.44637 0.75588 0.92468 0.0
C806 C 0.43285 0.75623 0.90949 0.0
H807 H 0.36221 0.78242 0.90431 0.0
H808 H 0.38492 0.77444 0.91646 0.0
H809 H 0.38579 0.79432 0.90799 0.0
H810 H 0.42564 0.79586 0.90631 0.0
H811 H 0.44898 0.7953 0.93306 0.0
H812 H 0.82934 0.83419 0.37409 0.0
H813 H 0.82903 0.85764 0.39307 0.0
H814 H 0.7602 0.85953 0.38797 0.0
H815 H 0.76028 0.83579 0.36945 0.0
H816 H 0.81364 0.88777 0.38502 0.0
H817 H 0.77013 0.86075 0.44278 0.0
H818 H 0.78187 0.84918 0.42515 0.0
H819 H 0.75671 0.85882 0.42131 0.0
C820 C 0.8141 0.83948 0.37717 0.0
C821 C 0.79481 0.83302 0.37036 0.0
C822 C 0.81398 0.85295 0.38791 0.0
C823 C 0.79458 0.86018 0.39216 0.0
C824 C 0.77532 0.85397 0.38513 0.0
H825 H 0.76185 0.9417 0.4561 0.0
H826 H 0.76151 0.91866 0.43645 0.0
C827 C 0.77542 0.8405 0.37437 0.0
C828 C 0.79456 0.87432 0.4038 0.0
H829 H 0.77646 0.88827 0.44399 0.0
C830 C 0.80557 0.88789 0.39794 0.0
C831 C 0.784 0.87441 0.42064 0.0
C832 C 0.77266 0.85998 0.42797 0.0
C833 C 0.80605 0.90164 0.40836 0.0
C834 C 0.79554 0.90172 0.42522 0.0
C835 C 0.78447 0.88817 0.43105 0.0
C836 C 0.79591 0.91573 0.43707 0.0
C837 C 0.81745 0.91607 0.40107 0.0
C838 C 0.81535 0.92158 0.44414 0.0
C839 C 0.8156 0.93471 0.45544 0.0
C840 C 0.79638 0.94216 0.46001 0.0
C841 C 0.77692 0.93615 0.45303 0.0
C842 C 0.77669 0.92303 0.44172 0.0
H843 H 0.8198 0.91538 0.38623 0.0
H844 H 0.80839 0.9269 0.40407 0.0
H845 H 0.83348 0.9171 0.40761 0.0
H846 H 0.83032 0.9159 0.44106 0.0
H847 H 0.83082 0.93886 0.46083 0.0
H848 H 0.69985 0.23947 0.81694 0.0
H849 H 0.67375 0.23622 0.84123 0.0
H850 H 0.66087 0.28597 0.83921 0.0
H851 H 0.68628 0.28924 0.81455 0.0
H852 H 0.67462 0.24998 0.87489 0.0
H853 H 0.60085 0.26695 0.83758 0.0
H854 H 0.62548 0.2623 0.82628 0.0
H855 H 0.6219 0.28144 0.83599 0.0
C856 C 0.6912 0.24968 0.82145 0.0
C857 C 0.69515 0.26462 0.81376 0.0
C858 C 0.67639 0.24781 0.83541 0.0
C859 C 0.66513 0.26081 0.84186 0.0
C860 C 0.66904 0.27572 0.83422 0.0
H861 H 0.58047 0.28142 0.92964 0.0
H862 H 0.60405 0.28169 0.9034 0.0
C863 C 0.6838 0.2776 0.82027 0.0
C864 C 0.65002 0.25896 0.85711 0.0
H865 H 0.59845 0.26576 0.86977 0.0
C866 C 0.65791 0.25326 0.87373 0.0
C867 C 0.62822 0.26325 0.85557 0.0
C868 C 0.61853 0.26868 0.83785 0.0
C869 C 0.64476 0.25224 0.88901 0.0
C870 C 0.62309 0.25684 0.88754 0.0
C871 C 0.6151 0.2623 0.87086 0.0
C872 C 0.60859 0.25649 0.90329 0.0
C873 C 0.65433 0.24673 0.90674 0.0
C874 C 0.6031 0.24219 0.91177 0.0
C875 C 0.58969 0.242 0.92682 0.0
C876 C 0.58149 0.25612 0.93364 0.0
C877 C 0.58677 0.27038 0.92491 0.0
C878 C 0.60013 0.27055 0.90984 0.0
H879 H 0.67214 0.24691 0.90653 0.0
H880 H 0.6489 0.25419 0.91804 0.0
H881 H 0.64895 0.23446 0.90948 0.0
H882 H 0.60922 0.23119 0.90676 0.0
H883 H 0.58605 0.23083 0.93329 0.0
H884 H 0.25457 0.82009 0.6292 0.0
H885 H 0.25589 0.8441 0.61077 0.0
H886 H 0.24554 0.87201 0.65829 0.0
H887 H 0.2442 0.84805 0.67683 0.0
H888 H 0.22438 0.86636 0.60587 0.0
H889 H 0.29756 0.89366 0.6359 0.0
H890 H 0.29034 0.87328 0.63968 0.0
H891 H 0.27737 0.88854 0.65209 0.0
C892 C 0.25254 0.83134 0.63573 0.0
C893 C 0.24933 0.83216 0.6545 0.0
C894 C 0.25339 0.84505 0.62519 0.0
C895 C 0.25113 0.85986 0.63318 0.0
C896 C 0.24784 0.86074 0.6519 0.0
H897 H 0.24448 0.95552 0.59149 0.0
H898 H 0.24408 0.93165 0.61023 0.0
C899 C 0.24706 0.84703 0.66247 0.0
C900 C 0.2514 0.87432 0.62181 0.0
H901 H 0.27734 0.90953 0.61555 0.0
C902 C 0.23603 0.87577 0.60792 0.0
C903 C 0.26658 0.88659 0.62455 0.0
C904 C 0.28403 0.88543 0.63875 0.0
C905 C 0.23521 0.88925 0.59686 0.0
C906 C 0.25037 0.90151 0.5996 0.0
C907 C 0.26572 0.9001 0.6135 0.0
C908 C 0.25058 0.91591 0.58815 0.0
C909 C 0.21784 0.89041 0.58258 0.0
C910 C 0.2546 0.91497 0.56956 0.0
C911 C 0.25474 0.92857 0.5588 0.0
C912 C 0.25093 0.94339 0.56645 0.0
C913 C 0.24714 0.94428 0.58513 0.0
C914 C 0.24705 0.93067 0.59588 0.0
H915 H 0.20449 0.88195 0.58514 0.0
H916 H 0.21123 0.90249 0.58192 0.0
H917 H 0.2247 0.88769 0.5692 0.0
H918 H 0.2577 0.90372 0.56338 0.0
H919 H 0.25758 0.92746 0.54445 0.0
H920 H 0.6896 0.80246 0.21499 0.0
H921 H 0.66612 0.80032 0.18847 0.0
H922 H 0.66618 0.74973 0.19363 0.0
H923 H 0.68897 0.75176 0.22063 0.0
H924 H 0.67336 0.7855 0.15617 0.0
H925 H 0.60245 0.75912 0.19012 0.0
H926 H 0.6245 0.76792 0.20254 0.0
H927 H 0.62681 0.7484 0.19357 0.0
C928 C 0.68436 0.79087 0.21068 0.0
C929 C 0.69105 0.77729 0.22007 0.0
C930 C 0.67107 0.78967 0.19542 0.0
C931 C 0.66412 0.77489 0.18923 0.0
C932 C 0.67099 0.76128 0.19838 0.0
H933 H 0.58556 0.74624 0.09686 0.0
H934 H 0.60886 0.7469 0.12368 0.0
C935 C 0.68425 0.76246 0.21368 0.0
C936 C 0.65008 0.77377 0.17297 0.0
H937 H 0.60097 0.76084 0.15813 0.0
C938 C 0.65751 0.78015 0.1566 0.0
C939 C 0.62941 0.76674 0.17357 0.0
C940 C 0.62019 0.76027 0.19091 0.0
C941 C 0.64491 0.77959 0.14078 0.0
C942 C 0.62423 0.77266 0.14141 0.0
C943 C 0.61685 0.76614 0.15771 0.0
C944 C 0.60986 0.7723 0.12534 0.0
C945 C 0.65396 0.78624 0.12346 0.0
C946 C 0.60242 0.78636 0.11759 0.0
C947 C 0.58898 0.78604 0.10237 0.0
C948 C 0.58266 0.77162 0.0946 0.0
C949 C 0.58992 0.75754 0.10259 0.0
C950 C 0.60333 0.75788 0.11785 0.0
H951 H 0.67168 0.78755 0.12419 0.0
H952 H 0.64969 0.77861 0.1118 0.0
H953 H 0.64708 0.79805 0.12089 0.0
H954 H 0.60692 0.7976 0.1234 0.0
H955 H 0.58336 0.79709 0.0968 0.0
H956 H 0.76138 0.19441 0.64822 0.0
H957 H 0.76591 0.17344 0.62608 0.0
H958 H 0.79019 0.14282 0.6681 0.0
H959 H 0.7856 0.16368 0.69032 0.0
H960 H 0.80155 0.1569 0.61549 0.0
H961 H 0.7412 0.11687 0.64645 0.0
H962 H 0.74387 0.13731 0.65264 0.0
H963 H 0.76208 0.12297 0.66181 0.0
C964 C 0.76785 0.18325 0.65272 0.0
C965 C 0.77295 0.18065 0.67106 0.0
C966 C 0.77037 0.17127 0.64007 0.0
C967 C 0.77801 0.15648 0.6455 0.0
C968 C 0.78376 0.15401 0.66369 0.0
H969 H 0.82273 0.08141 0.57618 0.0
H970 H 0.8202 0.10379 0.59669 0.0
C971 C 0.78114 0.16594 0.67637 0.0
C972 C 0.77975 0.14359 0.63219 0.0
H973 H 0.76216 0.10629 0.62298 0.0
C974 C 0.79291 0.14584 0.61708 0.0
C975 C 0.76821 0.12926 0.63416 0.0
C976 C 0.75288 0.12647 0.64954 0.0
C977 C 0.7951 0.13405 0.60402 0.0
C978 C 0.7841 0.11953 0.60633 0.0
C979 C 0.77072 0.11737 0.62131 0.0
C980 C 0.78593 0.10643 0.59327 0.0
C981 C 0.80882 0.13736 0.58773 0.0
C982 C 0.76747 0.10032 0.58475 0.0
C983 C 0.76885 0.08748 0.57313 0.0
C984 C 0.78873 0.08047 0.56982 0.0
C985 C 0.80724 0.0867 0.57824 0.0
C986 C 0.80582 0.09951 0.58994 0.0
H987 H 0.81126 0.1502 0.58549 0.0
H988 H 0.8248 0.132 0.58988 0.0
H989 H 0.80153 0.1322 0.57533 0.0
H990 H 0.75195 0.10546 0.58715 0.0
H991 H 0.75434 0.08306 0.56671 0.0
H992 H 0.32133 0.23933 0.19845 0.0
H993 H 0.3449 0.24103 0.17217 0.0
H994 H 0.39202 0.26632 0.20394 0.0
H995 H 0.36863 0.26458 0.23033 0.0
H996 H 0.36407 0.27043 0.15599 0.0
H997 H 0.42362 0.22716 0.18175 0.0
H998 H 0.39659 0.22792 0.1902 0.0
H999 H 0.41599 0.24253 0.19692 0.0
C1000 C 0.33676 0.24519 0.19986 0.0
C1001 C 0.34318 0.25177 0.21648 0.0
C1002 C 0.35013 0.24622 0.18483 0.0
C1003 C 0.37024 0.25367 0.18621 0.0
C1004 C 0.37662 0.26041 0.20269 0.0
H1005 H 0.47659 0.26274 0.11152 0.0
H1006 H 0.45327 0.26343 0.13786 0.0
C1007 C 0.36319 0.2595 0.21769 0.0
C1008 C 0.38457 0.25433 0.17039 0.0
H1009 H 0.43122 0.23974 0.154 0.0
C1010 C 0.37876 0.26373 0.15551 0.0
C1011 C 0.40374 0.24564 0.16991 0.0
C1012 C 0.41041 0.23514 0.18547 0.0
C1013 C 0.39177 0.26479 0.14015 0.0
C1014 C 0.4108 0.25586 0.1395 0.0
C1015 C 0.41664 0.24655 0.15449 0.0
C1016 C 0.42474 0.25584 0.12335 0.0
C1017 C 0.38522 0.27572 0.12494 0.0
C1018 C 0.41653 0.2512 0.10645 0.0
C1019 C 0.42975 0.251 0.09131 0.0
C1020 C 0.45157 0.25523 0.09278 0.0
C1021 C 0.4598 0.25967 0.1098 0.0
C1022 C 0.44653 0.25996 0.12492 0.0
H1023 H 0.37432 0.28504 0.12972 0.0
H1024 H 0.39942 0.28143 0.11864 0.0
H1025 H 0.37653 0.26887 0.11442 0.0
H1026 H 0.3999 0.24762 0.10498 0.0
H1027 H 0.42278 0.24766 0.07842 0.0
H1028 H 0.81472 0.6659 0.7272 0.0
H1029 H 0.83962 0.64474 0.72044 0.0
H1030 H 0.88976 0.679 0.71076 0.0
H1031 H 0.86515 0.70023 0.71804 0.0
H1032 H 0.86329 0.63924 0.68882 0.0
H1033 H 0.91656 0.64918 0.74845 0.0
H1034 H 0.89024 0.65769 0.74652 0.0
H1035 H 0.9123 0.66613 0.73425 0.0
C1036 C 0.8311 0.66894 0.7238 0.0
C1037 C 0.83799 0.68476 0.72333 0.0
C1038 C 0.84525 0.65684 0.7198 0.0
C1039 C 0.8666 0.66029 0.71535 0.0
C1040 C 0.87344 0.67607 0.71445 0.0
H1041 H 0.97442 0.59784 0.69633 0.0
H1042 H 0.95143 0.62095 0.6984 0.0
C1043 C 0.85928 0.68819 0.71844 0.0
C1044 C 0.88167 0.64732 0.71179 0.0
H1045 H 0.92697 0.62963 0.72792 0.0
C1046 C 0.87724 0.63714 0.69734 0.0
C1047 C 0.89989 0.64465 0.7229 0.0
C1048 C 0.90502 0.65489 0.739 0.0
C1049 C 0.89056 0.62435 0.69368 0.0
C1050 C 0.90854 0.62151 0.705 0.0
C1051 C 0.91318 0.63185 0.71925 0.0
C1052 C 0.92226 0.60752 0.70278 0.0
C1053 C 0.88535 0.61406 0.67766 0.0
C1054 C 0.9135 0.59232 0.70464 0.0
C1055 C 0.92655 0.57912 0.70339 0.0
C1056 C 0.94868 0.58084 0.70037 0.0
C1057 C 0.9574 0.5961 0.69843 0.0
C1058 C 0.94432 0.60931 0.69971 0.0
H1059 H 0.87517 0.62029 0.66754 0.0
H1060 H 0.90017 0.61011 0.67094 0.0
H1061 H 0.87636 0.60347 0.68233 0.0
H1062 H 0.89659 0.59066 0.70735 0.0
H1063 H 0.91928 0.56754 0.70478 0.0
H1064 H 0.86737 0.32498 0.30283 0.0
H1065 H 0.89254 0.34671 0.3087 0.0
H1066 H 0.83957 0.37803 0.31657 0.0
H1067 H 0.81431 0.35632 0.31109 0.0
H1068 H 0.89493 0.37525 0.28864 0.0
H1069 H 0.87844 0.38604 0.36109 0.0
H1070 H 0.87065 0.36801 0.34989 0.0
H1071 H 0.85506 0.3855 0.34672 0.0
C1072 C 0.86108 0.33643 0.30611 0.0
C1073 C 0.83883 0.33892 0.30652 0.0
C1074 C 0.87548 0.34884 0.30936 0.0
C1075 C 0.86792 0.36392 0.31327 0.0
C1076 C 0.84575 0.36642 0.31386 0.0
H1077 H 0.92392 0.4564 0.32904 0.0
H1078 H 0.90044 0.43325 0.32648 0.0
C1079 C 0.83133 0.35404 0.31054 0.0
C1080 C 0.88319 0.37723 0.31577 0.0
H1081 H 0.89986 0.40518 0.3459 0.0
C1082 C 0.89616 0.38173 0.30119 0.0
C1083 C 0.88464 0.38569 0.33214 0.0
C1084 C 0.87161 0.38102 0.34843 0.0
C1085 C 0.91019 0.39472 0.30238 0.0
C1086 C 0.91161 0.40323 0.31874 0.0
C1087 C 0.89875 0.39864 0.33337 0.0
C1088 C 0.92606 0.4171 0.32082 0.0
C1089 C 0.92286 0.39951 0.28592 0.0
C1090 C 0.9483 0.41565 0.31881 0.0
C1091 C 0.96176 0.42886 0.32025 0.0
C1092 C 0.95324 0.44375 0.32393 0.0
C1093 C 0.931 0.44508 0.32635 0.0
C1094 C 0.91756 0.43188 0.32483 0.0
H1095 H 0.91588 0.39445 0.27334 0.0
H1096 H 0.92358 0.41252 0.28443 0.0
H1097 H 0.93949 0.39515 0.28739 0.0
H1098 H 0.95527 0.40428 0.31614 0.0
H1099 H 0.97885 0.42739 0.31862 0.0
H1100 H 0.16579 0.3254 0.72121 0.0
H1101 H 0.14053 0.34669 0.71494 0.0
H1102 H 0.19336 0.37917 0.70768 0.0
H1103 H 0.21871 0.35792 0.71355 0.0
H1104 H 0.13741 0.37485 0.73488 0.0
H1105 H 0.15533 0.38708 0.66275 0.0
H1106 H 0.16315 0.36908 0.67404 0.0
H1107 H 0.17845 0.38688 0.67742 0.0
C1108 C 0.17203 0.33702 0.71797 0.0
C1109 C 0.19427 0.33997 0.71786 0.0
C1110 C 0.15758 0.34917 0.71449 0.0
C1111 C 0.16508 0.36445 0.71064 0.0
C1112 C 0.18724 0.36741 0.71033 0.0
H1113 H 0.10918 0.45626 0.69482 0.0
H1114 H 0.13262 0.43342 0.69745 0.0
C1115 C 0.2017 0.35528 0.71388 0.0
C1116 C 0.14974 0.3775 0.70795 0.0
H1117 H 0.13364 0.40569 0.67774 0.0
C1118 C 0.13643 0.38152 0.72234 0.0
C1119 C 0.14861 0.38621 0.69161 0.0
C1120 C 0.162 0.38204 0.67549 0.0
C1121 C 0.12239 0.39429 0.72101 0.0
C1122 C 0.12131 0.40306 0.70469 0.0
C1123 C 0.1345 0.39895 0.69024 0.0
C1124 C 0.10689 0.41674 0.7025 0.0
C1125 C 0.10934 0.39857 0.7373 0.0
C1126 C 0.08461 0.41489 0.70412 0.0
C1127 C 0.07117 0.42791 0.70263 0.0
C1128 C 0.07975 0.44303 0.6993 0.0
C1129 C 0.10204 0.44477 0.69723 0.0
C1130 C 0.11547 0.43174 0.6988 0.0
H1131 H 0.11602 0.39337 0.74995 0.0
H1132 H 0.10859 0.41154 0.73888 0.0
H1133 H 0.09273 0.39399 0.73551 0.0
H1134 H 0.07759 0.40336 0.70655 0.0
H1135 H 0.05404 0.42614 0.70397 0.0
H1136 H 0.18577 0.6944 0.34873 0.0
H1137 H 0.16431 0.67014 0.34938 0.0
H1138 H 0.15835 0.67169 0.29127 0.0
H1139 H 0.17965 0.69602 0.29049 0.0
H1140 H 0.12226 0.66556 0.33661 0.0
H1141 H 0.17908 0.62677 0.30124 0.0
H1142 H 0.18705 0.64558 0.31048 0.0
H1143 H 0.17277 0.64463 0.28928 0.0
C1144 C 0.17983 0.68962 0.33608 0.0
C1145 C 0.18447 0.69715 0.31955 0.0
C1146 C 0.16766 0.67571 0.33648 0.0
C1147 C 0.15999 0.669 0.32036 0.0
C1148 C 0.16451 0.67648 0.30384 0.0
H1149 H 0.08019 0.58767 0.29481 0.0
H1150 H 0.10223 0.61166 0.29402 0.0
C1151 C 0.1767 0.69039 0.30343 0.0
C1152 C 0.14664 0.65445 0.32092 0.0
H1153 H 0.14432 0.6163 0.30672 0.0
C1154 C 0.12711 0.65476 0.33016 0.0
C1155 C 0.15301 0.64041 0.31244 0.0
C1156 C 0.1742 0.63921 0.30292 0.0
C1157 C 0.11358 0.64146 0.33089 0.0
C1158 C 0.11995 0.62741 0.32243 0.0
C1159 C 0.13947 0.6271 0.31318 0.0
C1160 C 0.10658 0.61288 0.32303 0.0
C1161 C 0.09236 0.64268 0.34037 0.0
C1162 C 0.10193 0.6055 0.33959 0.0
C1163 C 0.08941 0.59176 0.34008 0.0
C1164 C 0.08141 0.58506 0.324 0.0
C1165 C 0.08628 0.59242 0.30742 0.0
C1166 C 0.09879 0.60617 0.30695 0.0
H1167 H 0.08747 0.65513 0.34199 0.0
H1168 H 0.07953 0.63628 0.33284 0.0
H1169 H 0.09377 0.63732 0.35405 0.0
H1170 H 0.10819 0.61028 0.35213 0.0
H1171 H 0.08629 0.58623 0.35305 0.0
H1172 H 0.82592 0.83352 0.65922 0.0
H1173 H 0.82588 0.85733 0.64043 0.0
H1174 H 0.7568 0.8558 0.63808 0.0
H1175 H 0.75669 0.83195 0.65683 0.0
H1176 H 0.80944 0.86102 0.60566 0.0
H1177 H 0.76931 0.90113 0.65327 0.0
H1178 H 0.78028 0.88246 0.66032 0.0
H1179 H 0.75475 0.8832 0.64888 0.0
C1180 C 0.81071 0.83823 0.65468 0.0
C1181 C 0.7913 0.83084 0.65955 0.0
C1182 C 0.81072 0.85187 0.64401 0.0
C1183 C 0.79134 0.85846 0.63806 0.0
C1184 C 0.77193 0.85113 0.64286 0.0
H1185 H 0.75868 0.93746 0.56828 0.0
H1186 H 0.75835 0.91398 0.58765 0.0
C1187 C 0.7719 0.83749 0.65357 0.0
C1188 C 0.79153 0.87267 0.62629 0.0
H1189 H 0.77452 0.9107 0.62338 0.0
C1190 C 0.8019 0.87191 0.60956 0.0
C1191 C 0.78163 0.88685 0.6314 0.0
C1192 C 0.77102 0.88857 0.64951 0.0
C1193 C 0.80236 0.88487 0.59768 0.0
C1194 C 0.79246 0.89904 0.60279 0.0
C1195 C 0.78206 0.8998 0.6195 0.0
C1196 C 0.7928 0.91323 0.59102 0.0
C1197 C 0.81306 0.88319 0.5796 0.0
C1198 C 0.81227 0.92068 0.58667 0.0
C1199 C 0.81252 0.93415 0.57569 0.0
C1200 C 0.79327 0.94048 0.56891 0.0
C1201 C 0.77377 0.93301 0.57342 0.0
C1202 C 0.77355 0.91955 0.58441 0.0
H1203 H 0.81508 0.87064 0.57592 0.0
H1204 H 0.80367 0.88914 0.56876 0.0
H1205 H 0.8292 0.88879 0.58022 0.0
H1206 H 0.82728 0.91619 0.59195 0.0
H1207 H 0.82777 0.93976 0.57277 0.0
H1208 H 0.71104 0.26318 0.20531 0.0
H1209 H 0.688 0.26592 0.17853 0.0
H1210 H 0.63796 0.23957 0.20533 0.0
H1211 H 0.66058 0.23725 0.23237 0.0
H1212 H 0.67069 0.24246 0.15727 0.0
H1213 H 0.60626 0.27828 0.18684 0.0
H1214 H 0.63193 0.27563 0.19787 0.0
H1215 H 0.6116 0.26051 0.1993 0.0
C1216 C 0.69501 0.25819 0.20563 0.0
C1217 C 0.68764 0.25005 0.22103 0.0
C1218 C 0.68191 0.25967 0.19026 0.0
C1219 C 0.66116 0.25314 0.19002 0.0
C1220 C 0.65377 0.24497 0.20533 0.0
H1221 H 0.58309 0.2302 0.0961 0.0
H1222 H 0.60596 0.2299 0.12311 0.0
C1223 C 0.66683 0.24348 0.2207 0.0
C1224 C 0.64753 0.25436 0.17352 0.0
H1225 H 0.599 0.26716 0.1579 0.0
C1226 C 0.65506 0.24793 0.15737 0.0
C1227 C 0.62727 0.26169 0.17362 0.0
C1228 C 0.61884 0.26956 0.19029 0.0
C1229 C 0.64267 0.24832 0.14143 0.0
C1230 C 0.62203 0.25507 0.14172 0.0
C1231 C 0.61472 0.26183 0.15775 0.0
C1232 C 0.60781 0.25525 0.12552 0.0
C1233 C 0.65191 0.24168 0.12436 0.0
C1234 C 0.60069 0.26959 0.11822 0.0
C1235 C 0.58735 0.2698 0.10291 0.0
C1236 C 0.58076 0.25566 0.09465 0.0
C1237 C 0.58769 0.24131 0.10218 0.0
C1238 C 0.601 0.24111 0.1175 0.0
H1239 H 0.66968 0.24102 0.12514 0.0
H1240 H 0.64554 0.22957 0.12234 0.0
H1241 H 0.64738 0.2489 0.11237 0.0
H1242 H 0.6056 0.28063 0.1243 0.0
H1243 H 0.58205 0.28105 0.09765 0.0
H1244 H 0.28239 0.19277 0.65498 0.0
H1245 H 0.28357 0.16895 0.63658 0.0
H1246 H 0.21457 0.16847 0.63266 0.0
H1247 H 0.21321 0.19217 0.65113 0.0
H1248 H 0.26465 0.13905 0.64264 0.0
H1249 H 0.23333 0.16678 0.57968 0.0
H1250 H 0.24311 0.17815 0.59862 0.0
H1251 H 0.21672 0.16946 0.59908 0.0
C1252 C 0.26746 0.18753 0.65032 0.0
C1253 C 0.24771 0.19446 0.65442 0.0
C1254 C 0.26817 0.17397 0.63974 0.0
C1255 C 0.24918 0.16711 0.63299 0.0
C1256 C 0.22944 0.17378 0.63737 0.0
H1257 H 0.21665 0.08652 0.56681 0.0
H1258 H 0.2167 0.10981 0.58606 0.0
C1259 C 0.2287 0.18734 0.64792 0.0
C1260 C 0.24997 0.1529 0.62151 0.0
H1261 H 0.23644 0.13896 0.57969 0.0
C1262 C 0.25861 0.13903 0.62884 0.0
C1263 C 0.24206 0.15292 0.60352 0.0
C1264 C 0.23345 0.16765 0.59466 0.0
C1265 C 0.25908 0.12507 0.61879 0.0
C1266 C 0.25104 0.12508 0.60084 0.0
C1267 C 0.24253 0.13897 0.59348 0.0
C1268 C 0.25117 0.11078 0.58945 0.0
C1269 C 0.26768 0.11034 0.62763 0.0
C1270 C 0.27055 0.10369 0.58482 0.0
C1271 C 0.27057 0.09031 0.57391 0.0
C1272 C 0.2512 0.08382 0.56732 0.0
C1273 C 0.23182 0.09106 0.57187 0.0
C1274 C 0.23183 0.10443 0.58278 0.0
H1275 H 0.2681 0.11128 0.64261 0.0
H1276 H 0.25782 0.09989 0.62386 0.0
H1277 H 0.28429 0.10839 0.62299 0.0
H1278 H 0.28569 0.10856 0.58955 0.0
H1279 H 0.28577 0.08497 0.57079 0.0
H1280 H 0.36023 0.77505 0.22781 0.0
H1281 H 0.38558 0.77888 0.20306 0.0
H1282 H 0.34343 0.75284 0.1674 0.0
H1283 H 0.31771 0.74943 0.19182 0.0
H1284 H 0.40671 0.75635 0.1837 0.0
H1285 H 0.35604 0.79248 0.13798 0.0
H1286 H 0.34956 0.7891 0.16143 0.0
H1287 H 0.34325 0.77439 0.14478 0.0
C1288 C 0.35619 0.77035 0.21462 0.0
C1289 C 0.33689 0.76196 0.2118 0.0
C1290 C 0.37076 0.77247 0.20053 0.0
C1291 C 0.36626 0.76634 0.18332 0.0
C1292 C 0.34706 0.75793 0.18047 0.0
H1293 H 0.45287 0.74396 0.09732 0.0
H1294 H 0.42913 0.74401 0.12338 0.0
C1295 C 0.33249 0.75582 0.19452 0.0
C1296 C 0.38197 0.76818 0.1685 0.0
H1297 H 0.3874 0.78142 0.12507 0.0
C1298 C 0.40256 0.76195 0.17093 0.0
C1299 C 0.37665 0.77569 0.15194 0.0
C1300 C 0.35525 0.78344 0.1489 0.0
C1301 C 0.41773 0.76257 0.15704 0.0
C1302 C 0.41202 0.76936 0.14017 0.0
C1303 C 0.39168 0.77605 0.13794 0.0
C1304 C 0.42675 0.76938 0.12453 0.0
C1305 C 0.43978 0.75604 0.16062 0.0
C1306 C 0.43289 0.78361 0.11622 0.0
C1307 C 0.44623 0.78361 0.10113 0.0
C1308 C 0.4536 0.76937 0.09398 0.0
C1309 C 0.44737 0.75514 0.10236 0.0
C1310 C 0.43401 0.75515 0.11741 0.0
H1311 H 0.44359 0.75563 0.17532 0.0
H1312 H 0.44043 0.74383 0.15543 0.0
H1313 H 0.4523 0.76317 0.1537 0.0
H1314 H 0.42732 0.79472 0.12139 0.0
H1315 H 0.45043 0.79477 0.09486 0.0
H1316 H 0.7579 0.18838 0.37064 0.0
H1317 H 0.75826 0.16459 0.38953 0.0
H1318 H 0.82718 0.1675 0.39335 0.0
H1319 H 0.82702 0.19118 0.37437 0.0
H1320 H 0.77922 0.13561 0.38404 0.0
H1321 H 0.80842 0.16518 0.44643 0.0
H1322 H 0.79786 0.17594 0.42724 0.0
H1323 H 0.82478 0.16862 0.42694 0.0
C1324 C 0.77316 0.18389 0.37537 0.0
C1325 C 0.79243 0.19176 0.37109 0.0
C1326 C 0.77331 0.17034 0.38623 0.0
C1327 C 0.79271 0.16445 0.39309 0.0
C1328 C 0.812 0.17206 0.38854 0.0
H1329 H 0.82907 0.08584 0.4618 0.0
H1330 H 0.82812 0.10901 0.44196 0.0
C1331 C 0.81187 0.1856 0.3777 0.0
C1332 C 0.79282 0.15027 0.4049 0.0
H1333 H 0.80679 0.13728 0.44715 0.0
C1334 C 0.78514 0.13597 0.39787 0.0
C1335 C 0.80058 0.1508 0.42293 0.0
C1336 C 0.80821 0.16597 0.43143 0.0
C1337 C 0.78543 0.12207 0.40827 0.0
C1338 C 0.79325 0.12258 0.42629 0.0
C1339 C 0.80086 0.13691 0.43333 0.0
C1340 C 0.79371 0.10839 0.43808 0.0
C1341 C 0.77786 0.10689 0.39975 0.0
C1342 C 0.77464 0.10047 0.44265 0.0
C1343 C 0.77514 0.08717 0.45389 0.0
C1344 C 0.79472 0.08159 0.46089 0.0
C1345 C 0.81376 0.08968 0.45643 0.0
C1346 C 0.81324 0.10298 0.44519 0.0
H1347 H 0.7777 0.10769 0.38475 0.0
H1348 H 0.78821 0.09693 0.40396 0.0
H1349 H 0.76127 0.10423 0.4042 0.0
H1350 H 0.75935 0.10462 0.43759 0.0
H1351 H 0.7602 0.08116 0.45691 0.0
H1352 H 0.37634 0.25328 0.79128 0.0
H1353 H 0.39871 0.25445 0.81867 0.0
H1354 H 0.34199 0.25389 0.85149 0.0
H1355 H 0.3195 0.25246 0.8242 0.0
H1356 H 0.39788 0.27757 0.84755 0.0
H1357 H 0.37889 0.21673 0.87108 0.0
H1358 H 0.37404 0.22321 0.8481 0.0
H1359 H 0.35621 0.22886 0.86576 0.0
C1360 C 0.36863 0.25331 0.80433 0.0
C1361 C 0.34615 0.25269 0.80558 0.0
C1362 C 0.38142 0.25407 0.81994 0.0
C1363 C 0.37199 0.25406 0.83707 0.0
C1364 C 0.34957 0.25371 0.83838 0.0
H1365 H 0.42279 0.25181 0.94678 0.0
H1366 H 0.39998 0.25219 0.91968 0.0
C1367 C 0.33676 0.25304 0.82278 0.0
C1368 C 0.38563 0.25436 0.85358 0.0
H1369 H 0.39993 0.23257 0.89064 0.0
C1370 C 0.3984 0.26773 0.85697 0.0
C1371 C 0.38618 0.24152 0.86583 0.0
C1372 C 0.37325 0.22669 0.86252 0.0
C1373 C 0.41149 0.26871 0.8725 0.0
C1374 C 0.4122 0.2558 0.8847 0.0
C1375 C 0.39937 0.24245 0.88128 0.0
C1376 C 0.42614 0.25586 0.90108 0.0
C1377 C 0.42405 0.2837 0.87588 0.0
C1378 C 0.44846 0.25761 0.89962 0.0
C1379 C 0.46154 0.25741 0.91509 0.0
C1380 C 0.45257 0.25526 0.93231 0.0
C1381 C 0.43022 0.25334 0.9337 0.0
C1382 C 0.41715 0.25362 0.91824 0.0
H1383 H 0.41718 0.29382 0.86829 0.0
H1384 H 0.42447 0.2866 0.89049 0.0
H1385 H 0.44078 0.28216 0.87131 0.0
H1386 H 0.45582 0.25893 0.88649 0.0
H1387 H 0.47872 0.25866 0.91355 0.0
H1388 H 0.26034 0.82807 0.37992 0.0
H1389 H 0.25509 0.84885 0.40219 0.0
H1390 H 0.26328 0.88406 0.36048 0.0
H1391 H 0.26782 0.86342 0.33808 0.0
H1392 H 0.28358 0.87266 0.41188 0.0
H1393 H 0.20827 0.89789 0.3846 0.0
H1394 H 0.21801 0.87893 0.37777 0.0
H1395 H 0.229 0.89668 0.36804 0.0
C1396 C 0.26067 0.84023 0.37543 0.0
C1397 C 0.26446 0.84407 0.35719 0.0
C1398 C 0.2578 0.85208 0.3882 0.0
C1399 C 0.25848 0.86799 0.38295 0.0
C1400 C 0.26227 0.87186 0.36478 0.0
H1401 H 0.25938 0.95902 0.43272 0.0
H1402 H 0.26015 0.93624 0.41275 0.0
C1403 C 0.26514 0.86004 0.35202 0.0
C1404 C 0.25619 0.8806 0.39655 0.0
H1405 H 0.22738 0.91334 0.40642 0.0
C1406 C 0.27115 0.88146 0.41083 0.0
C1407 C 0.23994 0.89205 0.39514 0.0
C1408 C 0.22276 0.89129 0.38067 0.0
C1409 C 0.27079 0.8938 0.42335 0.0
C1410 C 0.25485 0.90545 0.42167 0.0
C1411 C 0.23963 0.90442 0.40762 0.0
C1412 C 0.25417 0.91914 0.43396 0.0
C1413 C 0.28791 0.89459 0.43788 0.0
C1414 C 0.25031 0.91709 0.4525 0.0
C1415 C 0.24996 0.9301 0.46399 0.0
C1416 C 0.25345 0.9454 0.45713 0.0
C1417 C 0.257 0.94739 0.43849 0.0
C1418 C 0.25729 0.9344 0.42703 0.0
H1419 H 0.30152 0.8867 0.435 0.0
H1420 H 0.29417 0.90681 0.43934 0.0
H1421 H 0.2809 0.89091 0.451 0.0
H1422 H 0.24754 0.90543 0.45807 0.0
H1423 H 0.24728 0.92816 0.47828 0.0
H1424 H 0.68633 0.74895 0.8091 0.0
H1425 H 0.66327 0.74729 0.83566 0.0
H1426 H 0.66414 0.79789 0.83963 0.0
H1427 H 0.68743 0.79969 0.81333 0.0
H1428 H 0.67116 0.75926 0.87133 0.0
H1429 H 0.59963 0.78615 0.83884 0.0
H1430 H 0.62167 0.77857 0.826 0.0
H1431 H 0.62396 0.79747 0.83663 0.0
C1432 C 0.68176 0.75973 0.8157 0.0
C1433 C 0.68863 0.77447 0.80898 0.0
C1434 C 0.66849 0.75875 0.83082 0.0
C1435 C 0.66173 0.77247 0.83941 0.0
C1436 C 0.6688 0.78717 0.83294 0.0
H1437 H 0.58293 0.79551 0.93065 0.0
H1438 H 0.60605 0.79545 0.90416 0.0
C1439 C 0.68209 0.78817 0.81787 0.0
C1440 C 0.64752 0.77147 0.85533 0.0
H1441 H 0.59843 0.78233 0.87062 0.0
C1442 C 0.6552 0.76419 0.87117 0.0
C1443 C 0.62673 0.77795 0.85505 0.0
C1444 C 0.61737 0.78536 0.83818 0.0
C1445 C 0.64284 0.76361 0.88695 0.0
C1446 C 0.62209 0.7702 0.88671 0.0
C1447 C 0.61435 0.77732 0.87079 0.0
C1448 C 0.60824 0.77008 0.90291 0.0
C1449 C 0.65236 0.75638 0.90386 0.0
C1450 C 0.60159 0.75583 0.9109 0.0
C1451 C 0.58853 0.75583 0.92615 0.0
C1452 C 0.58171 0.77009 0.93365 0.0
C1453 C 0.58817 0.78433 0.92543 0.0
C1454 C 0.60126 0.78432 0.91021 0.0
H1455 H 0.6701 0.75563 0.90312 0.0
H1456 H 0.64816 0.76327 0.91599 0.0
H1457 H 0.64587 0.74426 0.90559 0.0
H1458 H 0.60644 0.7447 0.90529 0.0
H1459 H 0.584 0.74465 0.9322 0.0
loop_
_geom_bond_atom_site_label_1
_geom_bond_atom_site_label_2
_geom_bond_distance
_geom_bond_site_symmetry_2
_ccdc_geom_bond_type
C0 C1 1.264 . S
C0 C5 1.479 . S
C0 C10 1.465 . S
C1 C0 1.264 . S
C1 C3 1.339 . S
C1 H28 0.931 . S
C2 C3 1.395 . S
C2 C4 1.320 . S
C3 C1 1.339 . S
C3 C2 1.395 . S
C3 H29 0.929 . S
C4 C2 1.320 . S
C4 C5 1.405 . S
C4 H30 0.930 . S
C5 C0 1.479 . S
C5 C4 1.405 . S
C5 H31 0.931 . S
U6 O7 2.454 . S
U6 O8 2.458 . S
U6 C9 2.984 . S
U6 C10 2.847 . S
U6 C23 2.882 . S
U6 O24 2.441 . S
U6 O25 2.420 . S
U6 O26 2.455 . S
U6 O27 2.449 . S
O7 U6 2.454 . S
O7 C9 1.353 . S
O8 U6 2.458 . S
O8 C9 1.286 . S
C9 U6 2.984 . S
C9 O7 1.353 . S
C9 O8 1.286 . S
C9 C11 1.363 . S
C10 C0 1.465 . S
C10 U6 2.847 . S
C10 O24 1.249 . S
C10 O25 1.202 . S
C11 C9 1.363 . S
C11 C13 1.408 . S
C11 C16 1.342 . S
C12 C13 1.310 . S
C12 C15 1.461 . S
C12 H32 0.932 . S
C13 C11 1.408 . S
C13 C12 1.310 . S
C13 H33 0.930 . S
C14 C15 1.474 . S
C14 C16 1.285 . S
C14 H34 0.929 . S
C15 C12 1.461 . S
C15 C14 1.474 . S
C16 C11 1.342 . S
C16 C14 1.285 . S
C16 H35 0.930 . S
C17 C20 1.424 . S
C17 C22 1.245 . S
C17 C23 1.428 . S
C18 C21 1.260 . S
C18 C22 1.477 . S
C18 H36 0.932 . S
C19 C20 1.384 . S
C19 C21 1.479 . S
C19 H37 0.929 . S
C20 C17 1.424 . S
C20 C19 1.384 . S
C20 H38 0.928 . S
C21 C18 1.260 . S
C21 C19 1.479 . S
C22 C17 1.245 . S
C22 C18 1.477 . S
C22 H39 0.932 . S
C23 U6 2.882 . S
C23 C17 1.428 . S
C23 O26 1.301 . S
C23 O27 1.282 . S
O24 U6 2.441 . S
O24 C10 1.249 . S
O25 U6 2.420 . S
O25 C10 1.202 . S
O26 U6 2.455 . S
O26 C23 1.301 . S
O27 U6 2.449 . S
O27 C23 1.282 . S
H28 C1 0.931 . S
H29 C3 0.929 . S
H30 C4 0.930 . S
H31 C5 0.931 . S
H32 C12 0.932 . S
H33 C13 0.930 . S
H34 C14 0.929 . S
H35 C16 0.930 . S
H36 C18 0.932 . S
H37 C19 0.929 . S
H38 C20 0.928 . S
H39 C22 0.932 . S
C40 C41 1.264 . S
C40 C45 1.479 . S
C40 C50 1.465 . S
C41 C40 1.264 . S
C41 C43 1.339 . S
C41 H68 0.931 . S
C42 C43 1.395 . S
C42 C44 1.320 . S
C43 C41 1.339 . S
C43 C42 1.395 . S
C43 H69 0.929 . S
C44 C42 1.320 . S
C44 C45 1.405 . S
C44 H70 0.930 . S
C45 C40 1.479 . S
C45 C44 1.405 . S
C45 H71 0.931 . S
U46 O47 2.454 . S
U46 O48 2.458 . S
U46 C49 2.984 . S
U46 C50 2.847 . S
U46 C63 2.882 . S
U46 O64 2.441 . S
U46 O65 2.420 . S
U46 O66 2.455 . S
U46 O67 2.449 . S
O47 U46 2.454 . S
O47 C49 1.353 . S
O48 U46 2.458 . S
O48 C49 1.286 . S
C49 U46 2.984 . S
C49 O47 1.353 . S
C49 O48 1.286 . S
C49 C51 1.363 . S
C50 C40 1.465 . S
C50 U46 2.847 . S
C50 O64 1.249 . S
C50 O65 1.202 . S
C51 C49 1.363 . S
C51 C53 1.408 . S
C51 C56 1.342 . S
C52 C53 1.310 . S
C52 C55 1.461 . S
C52 H72 0.932 . S
C53 C51 1.408 . S
C53 C52 1.310 . S
C53 H73 0.930 . S
C54 C55 1.474 . S
C54 C56 1.285 . S
C54 H74 0.929 . S
C55 C52 1.461 . S
C55 C54 1.474 . S
C56 C51 1.342 . S
C56 C54 1.285 . S
C56 H75 0.930 . S
C57 C60 1.424 . S
C57 C62 1.245 . S
C57 C63 1.428 . S
C58 C61 1.260 . S
C58 C62 1.477 . S
C58 H76 0.932 . S
C59 C60 1.384 . S
C59 C61 1.479 . S
C59 H77 0.929 . S
C60 C57 1.424 . S
C60 C59 1.384 . S
C60 H78 0.928 . S
C61 C58 1.260 . S
C61 C59 1.479 . S
C62 C57 1.245 . S
C62 C58 1.477 . S
C62 H79 0.932 . S
C63 U46 2.882 . S
C63 C57 1.428 . S
C63 O66 1.301 . S
C63 O67 1.282 . S
O64 U46 2.441 . S
O64 C50 1.249 . S
O65 U46 2.420 . S
O65 C50 1.202 . S
O66 U46 2.455 . S
O66 C63 1.301 . S
O67 U46 2.449 . S
O67 C63 1.282 . S
H68 C41 0.931 . S
H69 C43 0.929 . S
H70 C44 0.930 . S
H71 C45 0.931 . S
H72 C52 0.932 . S
H73 C53 0.930 . S
H74 C54 0.929 . S
H75 C56 0.930 . S
H76 C58 0.932 . S
H77 C59 0.929 . S
H78 C60 0.928 . S
H79 C62 0.932 . S
C80 C81 1.264 . S
C80 C85 1.479 . S
C80 C90 1.465 . S
C81 C80 1.264 . S
C81 C83 1.339 . S
C81 H108 0.931 . S
C82 C83 1.395 . S
C82 C84 1.320 . S
C83 C81 1.339 . S
C83 C82 1.395 . S
C83 H109 0.929 . S
C84 C82 1.320 . S
C84 C85 1.405 . S
C84 H110 0.930 . S
C85 C80 1.479 . S
C85 C84 1.405 . S
C85 H111 0.931 . S
U86 O87 2.454 . S
U86 O88 2.458 . S
U86 C89 2.984 . S
U86 C90 2.847 . S
U86 C103 2.882 . S
U86 O104 2.441 . S
U86 O105 2.420 . S
U86 O106 2.455 . S
U86 O107 2.449 . S
O87 U86 2.454 . S
O87 C89 1.353 . S
O88 U86 2.458 . S
O88 C89 1.286 . S
C89 U86 2.984 . S
C89 O87 1.353 . S
C89 O88 1.286 . S
C89 C91 1.363 . S
C90 C80 1.465 . S
C90 U86 2.847 . S
C90 O104 1.249 . S
C90 O105 1.202 . S
C91 C89 1.363 . S
C91 C93 1.408 . S
C91 C96 1.342 . S
C92 C93 1.310 . S
C92 C95 1.461 . S
C92 H112 0.932 . S
C93 C91 1.408 . S
C93 C92 1.310 . S
C93 H113 0.930 . S
C94 C95 1.474 . S
C94 C96 1.285 . S
C94 H114 0.929 . S
C95 C92 1.461 . S
C95 C94 1.474 . S
C96 C91 1.342 . S
C96 C94 1.285 . S
C96 H115 0.930 . S
C97 C100 1.424 . S
C97 C102 1.245 . S
C97 C103 1.428 . S
C98 C101 1.260 . S
C98 C102 1.477 . S
C98 H116 0.932 . S
C99 C100 1.384 . S
C99 C101 1.479 . S
C99 H117 0.929 . S
C100 C97 1.424 . S
C100 C99 1.384 . S
C100 H118 0.928 . S
C101 C98 1.260 . S
C101 C99 1.479 . S
C102 C97 1.245 . S
C102 C98 1.477 . S
C102 H119 0.932 . S
C103 U86 2.882 . S
C103 C97 1.428 . S
C103 O106 1.301 . S
C103 O107 1.282 . S
O104 U86 2.441 . S
O104 C90 1.249 . S
O105 U86 2.420 . S
O105 C90 1.202 . S
O106 U86 2.455 . S
O106 C103 1.301 . S
O107 U86 2.449 . S
O107 C103 1.282 . S
H108 C81 0.931 . S
H109 C83 0.929 . S
H110 C84 0.930 . S
H111 C85 0.931 . S
H112 C92 0.932 . S
H113 C93 0.930 . S
H114 C94 0.929 . S
H115 C96 0.930 . S
H116 C98 0.932 . S
H117 C99 0.929 . S
H118 C100 0.928 . S
H119 C102 0.932 . S
C120 C121 1.264 . S
C120 C125 1.479 . S
C120 C130 1.465 . S
C121 C120 1.264 . S
C121 C123 1.339 . S
C121 H148 0.931 . S
C122 C123 1.395 . S
C122 C124 1.320 . S
C123 C121 1.339 . S
C123 C122 1.395 . S
C123 H149 0.929 . S
C124 C122 1.320 . S
C124 C125 1.405 . S
C124 H150 0.930 . S
C125 C120 1.479 . S
C125 C124 1.405 . S
C125 H151 0.931 . S
U126 O127 2.454 . S
U126 O128 2.458 . S
U126 C129 2.984 . S
U126 C130 2.847 . S
U126 C143 2.882 . S
U126 O144 2.441 . S
U126 O145 2.420 . S
U126 O146 2.455 . S
U126 O147 2.449 . S
O127 U126 2.454 . S
O127 C129 1.353 . S
O128 U126 2.458 . S
O128 C129 1.286 . S
C129 U126 2.984 . S
C129 O127 1.353 . S
C129 O128 1.286 . S
C129 C131 1.363 . S
C130 C120 1.465 . S
C130 U126 2.847 . S
C130 O144 1.249 . S
C130 O145 1.202 . S
C131 C129 1.363 . S
C131 C133 1.408 . S
C131 C136 1.342 . S
C132 C133 1.310 . S
C132 C135 1.461 . S
C132 H152 0.932 . S
C133 C131 1.408 . S
C133 C132 1.310 . S
C133 H153 0.930 . S
C134 C135 1.474 . S
C134 C136 1.285 . S
C134 H154 0.929 . S
C135 C132 1.461 . S
C135 C134 1.474 . S
C136 C131 1.342 . S
C136 C134 1.285 . S
C136 H155 0.930 . S
C137 C140 1.424 . S
C137 C142 1.245 . S
C137 C143 1.428 . S
C138 C141 1.260 . S
C138 C142 1.477 . S
C138 H156 0.932 . S
C139 C140 1.384 . S
C139 C141 1.479 . S
C139 H157 0.929 . S
C140 C137 1.424 . S
C140 C139 1.384 . S
C140 H158 0.928 . S
C141 C138 1.260 . S
C141 C139 1.479 . S
C142 C137 1.245 . S
C142 C138 1.477 . S
C142 H159 0.932 . S
C143 U126 2.882 . S
C143 C137 1.428 . S
C143 O146 1.301 . S
C143 O147 1.282 . S
O144 U126 2.441 . S
O144 C130 1.249 . S
O145 U126 2.420 . S
O145 C130 1.202 . S
O146 U126 2.455 . S
O146 C143 1.301 . S
O147 U126 2.449 . S
O147 C143 1.282 . S
H148 C121 0.931 . S
H149 C123 0.929 . S
H150 C124 0.930 . S
H151 C125 0.931 . S
H152 C132 0.932 . S
H153 C133 0.930 . S
H154 C134 0.929 . S
H155 C136 0.930 . S
H156 C138 0.932 . S
H157 C139 0.929 . S
H158 C140 0.928 . S
H159 C142 0.932 . S
C160 C161 1.264 . S
C160 C165 1.479 . S
C160 C170 1.465 . S
C161 C160 1.264 . S
C161 C163 1.339 . S
C161 H188 0.931 . S
C162 C163 1.395 . S
C162 C164 1.320 . S
C163 C161 1.339 . S
C163 C162 1.395 . S
C163 H189 0.929 . S
C164 C162 1.320 . S
C164 C165 1.405 . S
C164 H190 0.930 . S
C165 C160 1.479 . S
C165 C164 1.405 . S
C165 H191 0.931 . S
U166 O167 2.454 . S
U166 O168 2.458 . S
U166 C169 2.984 . S
U166 C170 2.847 . S
U166 C183 2.882 . S
U166 O184 2.441 . S
U166 O185 2.420 . S
U166 O186 2.455 . S
U166 O187 2.449 . S
O167 U166 2.454 . S
O167 C169 1.353 . S
O168 U166 2.458 . S
O168 C169 1.286 . S
C169 U166 2.984 . S
C169 O167 1.353 . S
C169 O168 1.286 . S
C169 C171 1.363 . S
C170 C160 1.465 . S
C170 U166 2.847 . S
C170 O184 1.249 . S
C170 O185 1.202 . S
C171 C169 1.363 . S
C171 C173 1.408 . S
C171 C176 1.342 . S
C172 C173 1.310 . S
C172 C175 1.461 . S
C172 H192 0.932 . S
C173 C171 1.408 . S
C173 C172 1.310 . S
C173 H193 0.930 . S
C174 C175 1.474 . S
C174 C176 1.285 . S
C174 H194 0.929 . S
C175 C172 1.461 . S
C175 C174 1.474 . S
C176 C171 1.342 . S
C176 C174 1.285 . S
C176 H195 0.930 . S
C177 C180 1.424 . S
C177 C182 1.245 . S
C177 C183 1.428 . S
C178 C181 1.260 . S
C178 C182 1.477 . S
C178 H196 0.932 . S
C179 C180 1.384 . S
C179 C181 1.479 . S
C179 H197 0.929 . S
C180 C177 1.424 . S
C180 C179 1.384 . S
C180 H198 0.928 . S
C181 C178 1.260 . S
C181 C179 1.479 . S
C182 C177 1.245 . S
C182 C178 1.477 . S
C182 H199 0.932 . S
C183 U166 2.882 . S
C183 C177 1.428 . S
C183 O186 1.301 . S
C183 O187 1.282 . S
O184 U166 2.441 . S
O184 C170 1.249 . S
O185 U166 2.420 . S
O185 C170 1.202 . S
O186 U166 2.455 . S
O186 C183 1.301 . S
O187 U166 2.449 . S
O187 C183 1.282 . S
H188 C161 0.931 . S
H189 C163 0.929 . S
H190 C164 0.930 . S
H191 C165 0.931 . S
H192 C172 0.932 . S
H193 C173 0.930 . S
H194 C174 0.929 . S
H195 C176 0.930 . S
H196 C178 0.932 . S
H197 C179 0.929 . S
H198 C180 0.928 . S
H199 C182 0.932 . S
C200 C201 1.264 . S
C200 C205 1.479 . S
C200 C210 1.465 . S
C201 C200 1.264 . S
C201 C203 1.339 . S
C201 H228 0.931 . S
C202 C203 1.395 . S
C202 C204 1.320 . S
C203 C201 1.339 . S
C203 C202 1.395 . S
C203 H229 0.929 . S
C204 C202 1.320 . S
C204 C205 1.405 . S
C204 H230 0.930 . S
C205 C200 1.479 . S
C205 C204 1.405 . S
C205 H231 0.931 . S
U206 O207 2.454 . S
U206 O208 2.458 . S
U206 C209 2.984 . S
U206 C210 2.847 . S
U206 C223 2.882 . S
U206 O224 2.441 . S
U206 O225 2.420 . S
U206 O226 2.455 . S
U206 O227 2.449 . S
O207 U206 2.454 . S
O207 C209 1.353 . S
O208 U206 2.458 . S
O208 C209 1.286 . S
C209 U206 2.984 . S
C209 O207 1.353 . S
C209 O208 1.286 . S
C209 C211 1.363 . S
C210 C200 1.465 . S
C210 U206 2.847 . S
C210 O224 1.249 . S
C210 O225 1.202 . S
C211 C209 1.363 . S
C211 C213 1.408 . S
C211 C216 1.342 . S
C212 C213 1.310 . S
C212 C215 1.461 . S
C212 H232 0.932 . S
C213 C211 1.408 . S
C213 C212 1.310 . S
C213 H233 0.930 . S
C214 C215 1.474 . S
C214 C216 1.285 . S
C214 H234 0.929 . S
C215 C212 1.461 . S
C215 C214 1.474 . S
C216 C211 1.342 . S
C216 C214 1.285 . S
C216 H235 0.930 . S
C217 C220 1.424 . S
C217 C222 1.245 . S
C217 C223 1.428 . S
C218 C221 1.260 . S
C218 C222 1.477 . S
C218 H236 0.932 . S
C219 C220 1.384 . S
C219 C221 1.479 . S
C219 H237 0.929 . S
C220 C217 1.424 . S
C220 C219 1.384 . S
C220 H238 0.928 . S
C221 C218 1.260 . S
C221 C219 1.479 . S
C222 C217 1.245 . S
C222 C218 1.477 . S
C222 H239 0.932 . S
C223 U206 2.882 . S
C223 C217 1.428 . S
C223 O226 1.301 . S
C223 O227 1.282 . S
O224 U206 2.441 . S
O224 C210 1.249 . S
O225 U206 2.420 . S
O225 C210 1.202 . S
O226 U206 2.455 . S
O226 C223 1.301 . S
O227 U206 2.449 . S
O227 C223 1.282 . S
H228 C201 0.931 . S
H229 C203 0.929 . S
H230 C204 0.930 . S
H231 C205 0.931 . S
H232 C212 0.932 . S
H233 C213 0.930 . S
H234 C214 0.929 . S
H235 C216 0.930 . S
H236 C218 0.932 . S
H237 C219 0.929 . S
H238 C220 0.928 . S
H239 C222 0.932 . S
C240 C241 1.264 . S
C240 C245 1.479 . S
C240 C250 1.465 . S
C241 C240 1.264 . S
C241 C243 1.339 . S
C241 H268 0.931 . S
C242 C243 1.395 . S
C242 C244 1.320 . S
C243 C241 1.339 . S
C243 C242 1.395 . S
C243 H269 0.929 . S
C244 C242 1.320 . S
C244 C245 1.405 . S
C244 H270 0.930 . S
C245 C240 1.479 . S
C245 C244 1.405 . S
C245 H271 0.931 . S
U246 O247 2.454 . S
U246 O248 2.458 . S
U246 C249 2.984 . S
U246 C250 2.847 . S
U246 C263 2.882 . S
U246 O264 2.441 . S
U246 O265 2.420 . S
U246 O266 2.455 . S
U246 O267 2.449 . S
O247 U246 2.454 . S
O247 C249 1.353 . S
O248 U246 2.458 . S
O248 C249 1.286 . S
C249 U246 2.984 . S
C249 O247 1.353 . S
C249 O248 1.286 . S
C249 C251 1.363 . S
C250 C240 1.465 . S
C250 U246 2.847 . S
C250 O264 1.249 . S
C250 O265 1.202 . S
C251 C249 1.363 . S
C251 C253 1.408 . S
C251 C256 1.342 . S
C252 C253 1.310 . S
C252 C255 1.461 . S
C252 H272 0.932 . S
C253 C251 1.408 . S
C253 C252 1.310 . S
C253 H273 0.930 . S
C254 C255 1.474 . S
C254 C256 1.285 . S
C254 H274 0.929 . S
C255 C252 1.461 . S
C255 C254 1.474 . S
C256 C251 1.342 . S
C256 C254 1.285 . S
C256 H275 0.930 . S
C257 C260 1.424 . S
C257 C262 1.245 . S
C257 C263 1.428 . S
C258 C261 1.260 . S
C258 C262 1.477 . S
C258 H276 0.932 . S
C259 C260 1.384 . S
C259 C261 1.479 . S
C259 H277 0.929 . S
C260 C257 1.424 . S
C260 C259 1.384 . S
C260 H278 0.928 . S
C261 C258 1.260 . S
C261 C259 1.479 . S
C262 C257 1.245 . S
C262 C258 1.477 . S
C262 H279 0.932 . S
C263 U246 2.882 . S
C263 C257 1.428 . S
C263 O266 1.301 . S
C263 O267 1.282 . S
O264 U246 2.441 . S
O264 C250 1.249 . S
O265 U246 2.420 . S
O265 C250 1.202 . S
O266 U246 2.455 . S
O266 C263 1.301 . S
O267 U246 2.449 . S
O267 C263 1.282 . S
H268 C241 0.931 . S
H269 C243 0.929 . S
H270 C244 0.930 . S
H271 C245 0.931 . S
H272 C252 0.932 . S
H273 C253 0.930 . S
H274 C254 0.929 . S
H275 C256 0.930 . S
H276 C258 0.932 . S
H277 C259 0.929 . S
H278 C260 0.928 . S
H279 C262 0.932 . S
C280 C281 1.264 . S
C280 C285 1.479 . S
C280 C290 1.465 . S
C281 C280 1.264 . S
C281 C283 1.339 . S
C281 H308 0.931 . S
C282 C283 1.395 . S
C282 C284 1.320 . S
C283 C281 1.339 . S
C283 C282 1.395 . S
C283 H309 0.929 . S
C284 C282 1.320 . S
C284 C285 1.405 . S
C284 H310 0.930 . S
C285 C280 1.479 . S
C285 C284 1.405 . S
C285 H311 0.931 . S
U286 O287 2.454 . S
U286 O288 2.458 . S
U286 C289 2.984 . S
U286 C290 2.847 . S
U286 C303 2.882 . S
U286 O304 2.441 . S
U286 O305 2.420 . S
U286 O306 2.455 . S
U286 O307 2.449 . S
O287 U286 2.454 . S
O287 C289 1.353 . S
O288 U286 2.458 . S
O288 C289 1.286 . S
C289 U286 2.984 . S
C289 O287 1.353 . S
C289 O288 1.286 . S
C289 C291 1.363 . S
C290 C280 1.465 . S
C290 U286 2.847 . S
C290 O304 1.249 . S
C290 O305 1.202 . S
C291 C289 1.363 . S
C291 C293 1.408 . S
C291 C296 1.342 . S
C292 C293 1.310 . S
C292 C295 1.461 . S
C292 H312 0.932 . S
C293 C291 1.408 . S
C293 C292 1.310 . S
C293 H313 0.930 . S
C294 C295 1.474 . S
C294 C296 1.285 . S
C294 H314 0.929 . S
C295 C292 1.461 . S
C295 C294 1.474 . S
C296 C291 1.342 . S
C296 C294 1.285 . S
C296 H315 0.930 . S
C297 C300 1.424 . S
C297 C302 1.245 . S
C297 C303 1.428 . S
C298 C301 1.260 . S
C298 C302 1.477 . S
C298 H316 0.932 . S
C299 C300 1.384 . S
C299 C301 1.479 . S
C299 H317 0.929 . S
C300 C297 1.424 . S
C300 C299 1.384 . S
C300 H318 0.928 . S
C301 C298 1.260 . S
C301 C299 1.479 . S
C302 C297 1.245 . S
C302 C298 1.477 . S
C302 H319 0.932 . S
C303 U286 2.882 . S
C303 C297 1.428 . S
C303 O306 1.301 . S
C303 O307 1.282 . S
O304 U286 2.441 . S
O304 C290 1.249 . S
O305 U286 2.420 . S
O305 C290 1.202 . S
O306 U286 2.455 . S
O306 C303 1.301 . S
O307 U286 2.449 . S
O307 C303 1.282 . S
H308 C281 0.931 . S
H309 C283 0.929 . S
H310 C284 0.930 . S
H311 C285 0.931 . S
H312 C292 0.932 . S
H313 C293 0.930 . S
H314 C294 0.929 . S
H315 C296 0.930 . S
H316 C298 0.932 . S
H317 C299 0.929 . S
H318 C300 0.928 . S
H319 C302 0.932 . S
C320 C321 1.384 . S
C320 C322 1.384 . S
C320 H348 0.931 . S
C321 C320 1.384 . S
C321 C324 1.382 . S
C322 C320 1.384 . S
C322 C323 1.381 . S
C322 H349 0.930 . S
C323 C322 1.381 . S
C323 C325 1.381 . S
C323 C326 1.487 . S
C324 C321 1.382 . S
C324 C325 1.387 . S
C324 H350 0.930 . S
C325 C323 1.381 . S
C325 C324 1.387 . S
C325 H351 0.931 . S
C326 C323 1.487 . S
C326 C333 1.399 1_655 S
C326 N364 1.343 . S
C327 C328 1.384 . S
C327 C329 1.384 . S
C327 H352 0.931 . S
C328 C327 1.384 . S
C328 C331 1.382 . S
C329 C327 1.384 . S
C329 C330 1.381 . S
C329 H353 0.930 . S
C330 C329 1.381 . S
C330 C332 1.381 . S
C330 C333 1.487 . S
C331 C328 1.382 . S
C331 C332 1.387 . S
C331 H354 0.930 . S
C332 C330 1.381 . S
C332 C331 1.387 . S
C332 H355 0.931 . S
C333 C326 1.399 1_455 S
C333 C330 1.487 . S
C333 N365 1.343 . S
C334 C335 1.384 . S
C334 C336 1.384 . S
C334 H356 0.931 . S
C335 C334 1.384 . S
C335 C338 1.382 . S
C336 C334 1.384 . S
C336 C337 1.381 . S
C336 H357 0.930 . S
C337 C336 1.381 . S
C337 C339 1.381 . S
C337 C340 1.487 . S
C338 C335 1.382 . S
C338 C339 1.387 . S
C338 H358 0.930 . S
C339 C337 1.381 . S
C339 C338 1.387 . S
C339 H359 0.931 . S
C340 C337 1.487 . S
C340 C347 1.399 1_455 S
C340 N365 1.343 . S
C341 C342 1.384 . S
C341 C343 1.384 . S
C341 H360 0.931 . S
C342 C341 1.384 . S
C342 C345 1.382 . S
C343 C341 1.384 . S
C343 C344 1.381 . S
C343 H361 0.930 . S
C344 C343 1.381 . S
C344 C346 1.381 . S
C344 C347 1.487 . S
C345 C342 1.382 . S
C345 C346 1.387 . S
C345 H362 0.930 . S
C346 C344 1.381 . S
C346 C345 1.387 . S
C346 H363 0.931 . S
C347 C340 1.399 1_655 S
C347 C344 1.487 . S
C347 N364 1.343 . S
H348 C320 0.931 . S
H349 C322 0.930 . S
H350 C324 0.930 . S
H351 C325 0.931 . S
H352 C327 0.931 . S
H353 C329 0.930 . S
H354 C331 0.930 . S
H355 C332 0.931 . S
H356 C334 0.931 . S
H357 C336 0.930 . S
H358 C338 0.930 . S
H359 C339 0.931 . S
H360 C341 0.931 . S
H361 C343 0.930 . S
H362 C345 0.930 . S
H363 C346 0.931 . S
N364 C326 1.343 . S
N364 C347 1.343 . S
N365 C333 1.343 . S
N365 C340 1.343 . S
C366 C367 1.384 . S
C366 C368 1.384 . S
C366 H394 0.931 . S
C367 C366 1.384 . S
C367 C370 1.382 . S
C368 C366 1.384 . S
C368 C369 1.381 . S
C368 H395 0.930 . S
C369 C368 1.381 . S
C369 C371 1.381 . S
C369 C372 1.487 . S
C370 C367 1.382 . S
C370 C371 1.387 . S
C370 H396 0.930 . S
C371 C369 1.381 . S
C371 C370 1.387 . S
C371 H397 0.931 . S
C372 C369 1.487 . S
C372 C379 1.399 1_655 S
C372 N410 1.343 . S
C373 C374 1.384 . S
C373 C375 1.384 . S
C373 H398 0.931 . S
C374 C373 1.384 . S
C374 C377 1.382 . S
C375 C373 1.384 . S
C375 C376 1.381 . S
C375 H399 0.930 . S
C376 C375 1.381 . S
C376 C378 1.381 . S
C376 C379 1.487 . S
C377 C374 1.382 . S
C377 C378 1.387 . S
C377 H400 0.930 . S
C378 C376 1.381 . S
C378 C377 1.387 . S
C378 H401 0.931 . S
C379 C372 1.399 1_455 S
C379 C376 1.487 . S
C379 N411 1.343 . S
C380 C381 1.384 . S
C380 C382 1.384 . S
C380 H402 0.931 . S
C381 C380 1.384 . S
C381 C384 1.382 . S
C382 C380 1.384 . S
C382 C383 1.381 . S
C382 H403 0.930 . S
C383 C382 1.381 . S
C383 C385 1.381 . S
C383 C386 1.487 . S
C384 C381 1.382 . S
C384 C385 1.387 . S
C384 H404 0.930 . S
C385 C383 1.381 . S
C385 C384 1.387 . S
C385 H405 0.931 . S
C386 C383 1.487 . S
C386 C393 1.399 1_455 S
C386 N411 1.343 . S
C387 C388 1.384 . S
C387 C389 1.384 . S
C387 H406 0.931 . S
C388 C387 1.384 . S
C388 C391 1.382 . S
C389 C387 1.384 . S
C389 C390 1.381 . S
C389 H407 0.930 . S
C390 C389 1.381 . S
C390 C392 1.381 . S
C390 C393 1.487 . S
C391 C388 1.382 . S
C391 C392 1.387 . S
C391 H408 0.930 . S
C392 C390 1.381 . S
C392 C391 1.387 . S
C392 H409 0.931 . S
C393 C386 1.399 1_655 S
C393 C390 1.487 . S
C393 N410 1.343 . S
H394 C366 0.931 . S
H395 C368 0.930 . S
H396 C370 0.930 . S
H397 C371 0.931 . S
H398 C373 0.931 . S
H399 C375 0.930 . S
H400 C377 0.930 . S
H401 C378 0.931 . S
H402 C380 0.931 . S
H403 C382 0.930 . S
H404 C384 0.930 . S
H405 C385 0.931 . S
H406 C387 0.931 . S
H407 C389 0.930 . S
H408 C391 0.930 . S
H409 C392 0.931 . S
N410 C372 1.343 . S
N410 C393 1.343 . S
N411 C379 1.343 . S
N411 C386 1.343 . S
C412 C413 1.384 . S
C412 C414 1.384 . S
C412 H440 0.931 . S
C413 C412 1.384 . S
C413 C416 1.382 . S
C414 C412 1.384 . S
C414 C415 1.381 . S
C414 H441 0.930 . S
C415 C414 1.381 . S
C415 C417 1.381 . S
C415 C418 1.487 . S
C416 C413 1.382 . S
C416 C417 1.387 . S
C416 H442 0.930 . S
C417 C415 1.381 . S
C417 C416 1.387 . S
C417 H443 0.931 . S
C418 C415 1.487 . S
C418 C425 1.399 . S
C418 N456 1.343 . S
C419 C420 1.384 . S
C419 C421 1.384 . S
C419 H444 0.931 . S
C420 C419 1.384 . S
C420 C423 1.382 . S
C421 C419 1.384 . S
C421 C422 1.381 . S
C421 H445 0.930 . S
C422 C421 1.381 . S
C422 C424 1.381 . S
C422 C425 1.487 . S
C423 C420 1.382 . S
C423 C424 1.387 . S
C423 H446 0.930 . S
C424 C422 1.381 . S
C424 C423 1.387 . S
C424 H447 0.931 . S
C425 C418 1.399 . S
C425 C422 1.487 . S
C425 N457 1.343 . S
C426 C427 1.384 . S
C426 C428 1.384 . S
C426 H448 0.931 . S
C427 C426 1.384 . S
C427 C430 1.382 . S
C428 C426 1.384 . S
C428 C429 1.381 . S
C428 H449 0.930 . S
C429 C428 1.381 . S
C429 C431 1.381 . S
C429 C432 1.487 . S
C430 C427 1.382 . S
C430 C431 1.387 . S
C430 H450 0.930 . S
C431 C429 1.381 . S
C431 C430 1.387 . S
C431 H451 0.931 . S
C432 C429 1.487 . S
C432 C439 1.399 . S
C432 N457 1.343 1_565 S
C433 C434 1.384 . S
C433 C435 1.384 . S
C433 H452 0.931 . S
C434 C433 1.384 . S
C434 C437 1.382 . S
C435 C433 1.384 . S
C435 C436 1.381 . S
C435 H453 0.930 . S
C436 C435 1.381 . S
C436 C438 1.381 . S
C436 C439 1.487 . S
C437 C434 1.382 . S
C437 C438 1.387 . S
C437 H454 0.930 . S
C438 C436 1.381 . S
C438 C437 1.387 . S
C438 H455 0.931 . S
C439 C432 1.399 . S
C439 C436 1.487 . S
C439 N456 1.343 1_565 S
H440 C412 0.931 . S
H441 C414 0.930 . S
H442 C416 0.930 . S
H443 C417 0.931 . S
H444 C419 0.931 . S
H445 C421 0.930 . S
H446 C423 0.930 . S
H447 C424 0.931 . S
H448 C426 0.931 . S
H449 C428 0.930 . S
H450 C430 0.930 . S
H451 C431 0.931 . S
H452 C433 0.931 . S
H453 C435 0.930 . S
H454 C437 0.930 . S
H455 C438 0.931 . S
N456 C418 1.343 . S
N456 C439 1.343 1_545 S
N457 C425 1.343 . S
N457 C432 1.343 1_545 S
C458 C459 1.384 . S
C458 C460 1.384 . S
C458 H486 0.931 . S
C459 C458 1.384 . S
C459 C462 1.382 . S
C460 C458 1.384 . S
C460 C461 1.381 . S
C460 H487 0.930 . S
C461 C460 1.381 . S
C461 C463 1.381 . S
C461 C464 1.487 . S
C462 C459 1.382 . S
C462 C463 1.387 . S
C462 H488 0.930 . S
C463 C461 1.381 . S
C463 C462 1.387 . S
C463 H489 0.931 . S
C464 C461 1.487 . S
C464 C471 1.399 . S
C464 N502 1.343 1_556 S
C465 C466 1.384 . S
C465 C467 1.384 . S
C465 H490 0.931 . S
C466 C465 1.384 . S
C466 C469 1.382 . S
C467 C465 1.384 . S
C467 C468 1.381 . S
C467 H491 0.930 . S
C468 C467 1.381 . S
C468 C470 1.381 . S
C468 C471 1.487 . S
C469 C466 1.382 . S
C469 C470 1.387 . S
C469 H492 0.930 . S
C470 C468 1.381 . S
C470 C469 1.387 . S
C470 H493 0.931 . S
C471 C464 1.399 . S
C471 C468 1.487 . S
C471 N503 1.343 1_556 S
C472 C473 1.384 . S
C472 C474 1.384 . S
C472 H494 0.931 . S
C473 C472 1.384 . S
C473 C476 1.382 . S
C474 C472 1.384 . S
C474 C475 1.381 . S
C474 H495 0.930 . S
C475 C474 1.381 . S
C475 C477 1.381 . S
C475 C478 1.487 . S
C476 C473 1.382 . S
C476 C477 1.387 . S
C476 H496 0.930 . S
C477 C475 1.381 . S
C477 C476 1.387 . S
C477 H497 0.931 . S
C478 C475 1.487 . S
C478 C485 1.399 . S
C478 N503 1.343 . S
C479 C480 1.384 . S
C479 C481 1.384 . S
C479 H498 0.931 . S
C480 C479 1.384 . S
C480 C483 1.382 . S
C481 C479 1.384 . S
C481 C482 1.381 . S
C481 H499 0.930 . S
C482 C481 1.381 . S
C482 C484 1.381 . S
C482 C485 1.487 . S
C483 C480 1.382 . S
C483 C484 1.387 . S
C483 H500 0.930 . S
C484 C482 1.381 . S
C484 C483 1.387 . S
C484 H501 0.931 . S
C485 C478 1.399 . S
C485 C482 1.487 . S
C485 N502 1.343 . S
H486 C458 0.931 . S
H487 C460 0.930 . S
H488 C462 0.930 . S
H489 C463 0.931 . S
H490 C465 0.931 . S
H491 C467 0.930 . S
H492 C469 0.930 . S
H493 C470 0.931 . S
H494 C472 0.931 . S
H495 C474 0.930 . S
H496 C476 0.930 . S
H497 C477 0.931 . S
H498 C479 0.931 . S
H499 C481 0.930 . S
H500 C483 0.930 . S
H501 C484 0.931 . S
N502 C464 1.343 1_554 S
N502 C485 1.343 . S
N503 C471 1.343 1_554 S
N503 C478 1.343 . S
C504 C505 1.384 . S
C504 C506 1.384 . S
C504 H532 0.931 . S
C505 C504 1.384 . S
C505 C508 1.382 . S
C506 C504 1.384 . S
C506 C507 1.381 . S
C506 H533 0.930 . S
C507 C506 1.381 . S
C507 C509 1.381 . S
C507 C510 1.487 . S
C508 C505 1.382 . S
C508 C509 1.387 . S
C508 H534 0.930 . S
C509 C507 1.381 . S
C509 C508 1.387 . S
C509 H535 0.931 . S
C510 C507 1.487 . S
C510 C517 1.399 . S
C510 N548 1.394 . S
C511 C512 1.384 . S
C511 C513 1.384 . S
C511 H536 0.931 . S
C512 C511 1.384 . S
C512 C515 1.382 . S
C513 C511 1.384 . S
C513 C514 1.381 . S
C513 H537 0.930 . S
C514 C513 1.381 . S
C514 C516 1.381 . S
C514 C517 1.487 . S
C515 C512 1.382 . S
C515 C516 1.387 . S
C515 H538 0.930 . S
C516 C514 1.381 . S
C516 C515 1.387 . S
C516 H539 0.931 . S
C517 C510 1.399 . S
C517 C514 1.487 . S
C517 N549 1.374 . S
C518 C519 1.384 . S
C518 C520 1.384 . S
C518 H540 0.931 . S
C519 C518 1.384 . S
C519 C522 1.382 . S
C520 C518 1.384 . S
C520 C521 1.381 . S
C520 H541 0.930 . S
C521 C520 1.381 . S
C521 C523 1.381 . S
C521 C524 1.487 . S
C522 C519 1.382 . S
C522 C523 1.387 . S
C522 H542 0.930 . S
C523 C521 1.381 . S
C523 C522 1.387 . S
C523 H543 0.931 . S
C524 C521 1.487 . S
C524 C531 1.399 . S
C524 N549 1.312 1_565 S
C525 C526 1.384 . S
C525 C527 1.384 . S
C525 H544 0.931 . S
C526 C525 1.384 . S
C526 C529 1.382 . S
C527 C525 1.384 . S
C527 C528 1.381 . S
C527 H545 0.930 . S
C528 C527 1.381 . S
C528 C530 1.381 . S
C528 C531 1.487 . S
C529 C526 1.382 . S
C529 C530 1.387 . S
C529 H546 0.930 . S
C530 C528 1.381 . S
C530 C529 1.387 . S
C530 H547 0.931 . S
C531 C524 1.399 . S
C531 C528 1.487 . S
C531 N548 1.293 1_565 S
H532 C504 0.931 . S
H533 C506 0.930 . S
H534 C508 0.930 . S
H535 C509 0.931 . S
H536 C511 0.931 . S
H537 C513 0.930 . S
H538 C515 0.930 . S
H539 C516 0.931 . S
H540 C518 0.931 . S
H541 C520 0.930 . S
H542 C522 0.930 . S
H543 C523 0.931 . S
H544 C525 0.931 . S
H545 C527 0.930 . S
H546 C529 0.930 . S
H547 C530 0.931 . S
N548 C510 1.394 . S
N548 C531 1.293 1_545 S
N549 C517 1.374 . S
N549 C524 1.312 1_545 S
C550 C551 1.384 . S
C550 C552 1.384 . S
C550 H578 0.931 . S
C551 C550 1.384 . S
C551 C554 1.382 . S
C552 C550 1.384 . S
C552 C553 1.381 . S
C552 H579 0.930 . S
C553 C552 1.381 . S
C553 C555 1.381 . S
C553 C556 1.487 . S
C554 C551 1.382 . S
C554 C555 1.387 . S
C554 H580 0.930 . S
C555 C553 1.381 . S
C555 C554 1.387 . S
C555 H581 0.931 . S
C556 C553 1.487 . S
C556 C563 1.399 . S
C556 N594 1.343 1_556 S
C557 C558 1.384 . S
C557 C559 1.384 . S
C557 H582 0.931 . S
C558 C557 1.384 . S
C558 C561 1.382 . S
C559 C557 1.384 . S
C559 C560 1.381 . S
C559 H583 0.930 . S
C560 C559 1.381 . S
C560 C562 1.381 . S
C560 C563 1.487 . S
C561 C558 1.382 . S
C561 C562 1.387 . S
C561 H584 0.930 . S
C562 C560 1.381 . S
C562 C561 1.387 . S
C562 H585 0.931 . S
C563 C556 1.399 . S
C563 C560 1.487 . S
C563 N595 1.343 1_556 S
C564 C565 1.384 . S
C564 C566 1.384 . S
C564 H586 0.931 . S
C565 C564 1.384 . S
C565 C568 1.382 . S
C566 C564 1.384 . S
C566 C567 1.381 . S
C566 H587 0.930 . S
C567 C566 1.381 . S
C567 C569 1.381 . S
C567 C570 1.487 . S
C568 C565 1.382 . S
C568 C569 1.387 . S
C568 H588 0.930 . S
C569 C567 1.381 . S
C569 C568 1.387 . S
C569 H589 0.931 . S
C570 C567 1.487 . S
C570 C577 1.399 . S
C570 N595 1.343 . S
C571 C572 1.384 . S
C571 C573 1.384 . S
C571 H590 0.931 . S
C572 C571 1.384 . S
C572 C575 1.382 . S
C573 C571 1.384 . S
C573 C574 1.381 . S
C573 H591 0.930 . S
C574 C573 1.381 . S
C574 C576 1.381 . S
C574 C577 1.487 . S
C575 C572 1.382 . S
C575 C576 1.387 . S
C575 H592 0.930 . S
C576 C574 1.381 . S
C576 C575 1.387 . S
C576 H593 0.931 . S
C577 C570 1.399 . S
C577 C574 1.487 . S
C577 N594 1.343 . S
H578 C550 0.931 . S
H579 C552 0.930 . S
H580 C554 0.930 . S
H581 C555 0.931 . S
H582 C557 0.931 . S
H583 C559 0.930 . S
H584 C561 0.930 . S
H585 C562 0.931 . S
H586 C564 0.931 . S
H587 C566 0.930 . S
H588 C568 0.930 . S
H589 C569 0.931 . S
H590 C571 0.931 . S
H591 C573 0.930 . S
H592 C575 0.930 . S
H593 C576 0.931 . S
N594 C556 1.343 1_554 S
N594 C577 1.343 . S
N595 C563 1.343 1_554 S
N595 C570 1.343 . S
H596 C604 0.929 . S
H597 C606 0.930 . S
H598 C608 0.930 . S
H599 C611 0.929 . S
H600 C614 0.930 . S
H601 C616 0.960 . S
H602 C616 0.960 . S
H603 C616 0.960 . S
C604 H596 0.929 . S
C604 C605 1.377 . S
C604 C606 1.384 . S
C605 C604 1.377 . S
C605 C611 1.390 . S
C606 H597 0.930 . S
C606 C604 1.384 . S
C606 C607 1.372 . S
C607 C606 1.372 . S
C607 C608 1.400 . S
C607 C612 1.490 . S
C608 H598 0.930 . S
C608 C607 1.400 . S
C608 C611 1.386 . S
H609 C625 0.930 . S
H610 C626 0.931 . S
C611 H599 0.929 . S
C611 C605 1.390 . S
C611 C608 1.386 . S
C612 C607 1.490 . S
C612 C614 1.395 . S
C612 C615 1.403 . S
H613 C619 0.930 . S
C614 H600 0.930 . S
C614 C612 1.395 . S
C614 C617 1.403 . S
C615 C612 1.403 . S
C615 C616 1.524 . S
C615 C619 1.400 . S
C616 H601 0.960 . S
C616 H602 0.960 . S
C616 H603 0.960 . S
C616 C615 1.524 . S
C617 C614 1.403 . S
C617 C618 1.392 . S
C617 C621 1.495 . S
C618 C617 1.392 . S
C618 C619 1.385 . S
C618 C620 1.478 . S
C619 H613 0.930 . S
C619 C615 1.400 . S
C619 C618 1.385 . S
C620 C618 1.478 . S
C620 C622 1.381 . S
C620 C626 1.383 . S
C621 C617 1.495 . S
C621 H627 0.959 . S
C621 H628 0.961 . S
C621 H629 0.960 . S
C622 C620 1.381 . S
C622 C623 1.394 . S
C622 H630 0.930 . S
C623 C622 1.394 . S
C623 C624 1.383 . S
C623 H631 0.929 . S
C624 C623 1.383 . S
C624 C625 1.377 . S
C625 H609 0.930 . S
C625 C624 1.377 . S
C625 C626 1.379 . S
C626 H610 0.931 . S
C626 C620 1.383 . S
C626 C625 1.379 . S
H627 C621 0.959 . S
H628 C621 0.961 . S
H629 C621 0.960 . S
H630 C622 0.930 . S
H631 C623 0.929 . S
H632 C640 0.929 . S
H633 C642 0.930 . S
H634 C644 0.930 . S
H635 C647 0.929 . S
H636 C650 0.930 . S
H637 C652 0.960 . S
H638 C652 0.960 . S
H639 C652 0.960 . S
C640 H632 0.929 . S
C640 C641 1.377 . S
C640 C642 1.384 . S
C641 C640 1.377 . S
C641 C647 1.390 . S
C642 H633 0.930 . S
C642 C640 1.384 . S
C642 C643 1.372 . S
C643 C642 1.372 . S
C643 C644 1.400 . S
C643 C648 1.490 . S
C644 H634 0.930 . S
C644 C643 1.400 . S
C644 C647 1.386 . S
H645 C661 0.930 . S
H646 C662 0.931 . S
C647 H635 0.929 . S
C647 C641 1.390 . S
C647 C644 1.386 . S
C648 C643 1.490 . S
C648 C650 1.395 . S
C648 C651 1.403 . S
H649 C655 0.930 . S
C650 H636 0.930 . S
C650 C648 1.395 . S
C650 C653 1.403 . S
C651 C648 1.403 . S
C651 C652 1.524 . S
C651 C655 1.400 . S
C652 H637 0.960 . S
C652 H638 0.960 . S
C652 H639 0.960 . S
C652 C651 1.524 . S
C653 C650 1.403 . S
C653 C654 1.392 . S
C653 C657 1.495 . S
C654 C653 1.392 . S
C654 C655 1.385 . S
C654 C656 1.478 . S
C655 H649 0.930 . S
C655 C651 1.400 . S
C655 C654 1.385 . S
C656 C654 1.478 . S
C656 C658 1.381 . S
C656 C662 1.383 . S
C657 C653 1.495 . S
C657 H663 0.959 . S
C657 H664 0.961 . S
C657 H665 0.960 . S
C658 C656 1.381 . S
C658 C659 1.394 . S
C658 H666 0.930 . S
C659 C658 1.394 . S
C659 C660 1.383 . S
C659 H667 0.929 . S
C660 C659 1.383 . S
C660 C661 1.377 . S
C661 H645 0.930 . S
C661 C660 1.377 . S
C661 C662 1.379 . S
C662 H646 0.931 . S
C662 C656 1.383 . S
C662 C661 1.379 . S
H663 C657 0.959 . S
H664 C657 0.961 . S
H665 C657 0.960 . S
H666 C658 0.930 . S
H667 C659 0.929 . S
H668 C676 0.929 . S
H669 C678 0.930 . S
H670 C680 0.930 . S
H671 C683 0.929 . S
H672 C686 0.930 . S
H673 C688 0.960 . S
H674 C688 0.960 . S
H675 C688 0.960 . S
C676 H668 0.929 . S
C676 C677 1.377 . S
C676 C678 1.384 . S
C677 C676 1.377 . S
C677 C683 1.390 . S
C678 H669 0.930 . S
C678 C676 1.384 . S
C678 C679 1.372 . S
C679 C678 1.372 . S
C679 C680 1.400 . S
C679 C684 1.490 . S
C680 H670 0.930 . S
C680 C679 1.400 . S
C680 C683 1.386 . S
H681 C697 0.930 . S
H682 C698 0.931 . S
C683 H671 0.929 . S
C683 C677 1.390 . S
C683 C680 1.386 . S
C684 C679 1.490 . S
C684 C686 1.395 . S
C684 C687 1.403 . S
H685 C691 0.930 . S
C686 H672 0.930 . S
C686 C684 1.395 . S
C686 C689 1.403 . S
C687 C684 1.403 . S
C687 C688 1.524 . S
C687 C691 1.400 . S
C688 H673 0.960 . S
C688 H674 0.960 . S
C688 H675 0.960 . S
C688 C687 1.524 . S
C689 C686 1.403 . S
C689 C690 1.392 . S
C689 C693 1.495 . S
C690 C689 1.392 . S
C690 C691 1.385 . S
C690 C692 1.478 . S
C691 H685 0.930 . S
C691 C687 1.400 . S
C691 C690 1.385 . S
C692 C690 1.478 . S
C692 C694 1.381 . S
C692 C698 1.383 . S
C693 C689 1.495 . S
C693 H699 0.959 . S
C693 H700 0.961 . S
C693 H701 0.960 . S
C694 C692 1.381 . S
C694 C695 1.394 . S
C694 H702 0.930 . S
C695 C694 1.394 . S
C695 C696 1.383 . S
C695 H703 0.929 . S
C696 C695 1.383 . S
C696 C697 1.377 . S
C697 H681 0.930 . S
C697 C696 1.377 . S
C697 C698 1.379 . S
C698 H682 0.931 . S
C698 C692 1.383 . S
C698 C697 1.379 . S
H699 C693 0.959 . S
H700 C693 0.961 . S
H701 C693 0.960 . S
H702 C694 0.930 . S
H703 C695 0.929 . S
H704 C712 0.929 . S
H705 C714 0.930 . S
H706 C716 0.930 . S
H707 C719 0.929 . S
H708 C722 0.930 . S
H709 C724 0.960 . S
H710 C724 0.960 . S
H711 C724 0.960 . S
C712 H704 0.929 . S
C712 C713 1.377 . S
C712 C714 1.384 . S
C713 C712 1.377 . S
C713 C719 1.390 . S
C714 H705 0.930 . S
C714 C712 1.384 . S
C714 C715 1.372 . S
C715 C714 1.372 . S
C715 C716 1.400 . S
C715 C720 1.490 . S
C716 H706 0.930 . S
C716 C715 1.400 . S
C716 C719 1.386 . S
H717 C733 0.930 . S
H718 C734 0.931 . S
C719 H707 0.929 . S
C719 C713 1.390 . S
C719 C716 1.386 . S
C720 C715 1.490 . S
C720 C722 1.395 . S
C720 C723 1.403 . S
H721 C727 0.930 . S
C722 H708 0.930 . S
C722 C720 1.395 . S
C722 C725 1.403 . S
C723 C720 1.403 . S
C723 C724 1.524 . S
C723 C727 1.400 . S
C724 H709 0.960 . S
C724 H710 0.960 . S
C724 H711 0.960 . S
C724 C723 1.524 . S
C725 C722 1.403 . S
C725 C726 1.392 . S
C725 C729 1.495 . S
C726 C725 1.392 . S
C726 C727 1.385 . S
C726 C728 1.478 . S
C727 H721 0.930 . S
C727 C723 1.400 . S
C727 C726 1.385 . S
C728 C726 1.478 . S
C728 C730 1.381 . S
C728 C734 1.383 . S
C729 C725 1.495 . S
C729 H735 0.959 . S
C729 H736 0.961 . S
C729 H737 0.960 . S
C730 C728 1.381 . S
C730 C731 1.394 . S
C730 H738 0.930 . S
C731 C730 1.394 . S
C731 C732 1.383 . S
C731 H739 0.929 . S
C732 C731 1.383 . S
C732 C733 1.377 . S
C733 H717 0.930 . S
C733 C732 1.377 . S
C733 C734 1.379 . S
C734 H718 0.931 . S
C734 C728 1.383 . S
C734 C733 1.379 . S
H735 C729 0.959 . S
H736 C729 0.961 . S
H737 C729 0.960 . S
H738 C730 0.930 . S
H739 C731 0.929 . S
H740 C748 0.929 . S
H741 C750 0.930 . S
H742 C752 0.930 . S
H743 C755 0.929 . S
H744 C758 0.930 . S
H745 C760 0.960 . S
H746 C760 0.960 . S
H747 C760 0.960 . S
C748 H740 0.929 . S
C748 C749 1.377 . S
C748 C750 1.384 . S
C749 C748 1.377 . S
C749 C755 1.390 . S
C750 H741 0.930 . S
C750 C748 1.384 . S
C750 C751 1.372 . S
C751 C750 1.372 . S
C751 C752 1.400 . S
C751 C756 1.490 . S
C752 H742 0.930 . S
C752 C751 1.400 . S
C752 C755 1.386 . S
H753 C769 0.930 . S
H754 C770 0.931 . S
C755 H743 0.929 . S
C755 C749 1.390 . S
C755 C752 1.386 . S
C756 C751 1.490 . S
C756 C758 1.395 . S
C756 C759 1.403 . S
H757 C763 0.930 . S
C758 H744 0.930 . S
C758 C756 1.395 . S
C758 C761 1.403 . S
C759 C756 1.403 . S
C759 C760 1.524 . S
C759 C763 1.400 . S
C760 H745 0.960 . S
C760 H746 0.960 . S
C760 H747 0.960 . S
C760 C759 1.524 . S
C761 C758 1.403 . S
C761 C762 1.392 . S
C761 C765 1.495 . S
C762 C761 1.392 . S
C762 C763 1.385 . S
C762 C764 1.478 . S
C763 H757 0.930 . S
C763 C759 1.400 . S
C763 C762 1.385 . S
C764 C762 1.478 . S
C764 C766 1.381 . S
C764 C770 1.383 . S
C765 C761 1.495 . S
C765 H771 0.959 . S
C765 H772 0.961 . S
C765 H773 0.960 . S
C766 C764 1.381 . S
C766 C767 1.394 . S
C766 H774 0.930 . S
C767 C766 1.394 . S
C767 C768 1.383 . S
C767 H775 0.929 . S
C768 C767 1.383 . S
C768 C769 1.377 . S
C769 H753 0.930 . S
C769 C768 1.377 . S
C769 C770 1.379 . S
C770 H754 0.931 . S
C770 C764 1.383 . S
C770 C769 1.379 . S
H771 C765 0.959 . S
H772 C765 0.961 . S
H773 C765 0.960 . S
H774 C766 0.930 . S
H775 C767 0.929 . S
H776 C784 0.929 . S
H777 C786 0.930 . S
H778 C788 0.930 . S
H779 C791 0.929 . S
H780 C794 0.930 . S
H781 C796 0.960 . S
H782 C796 0.960 . S
H783 C796 0.960 . S
C784 H776 0.929 . S
C784 C785 1.377 . S
C784 C786 1.384 . S
C785 C784 1.377 . S
C785 C791 1.390 . S
C786 H777 0.930 . S
C786 C784 1.384 . S
C786 C787 1.372 . S
C787 C786 1.372 . S
C787 C788 1.400 . S
C787 C792 1.490 . S
C788 H778 0.930 . S
C788 C787 1.400 . S
C788 C791 1.386 . S
H789 C805 0.930 . S
H790 C806 0.931 . S
C791 H779 0.929 . S
C791 C785 1.390 . S
C791 C788 1.386 . S
C792 C787 1.490 . S
C792 C794 1.395 . S
C792 C795 1.403 . S
H793 C799 0.930 . S
C794 H780 0.930 . S
C794 C792 1.395 . S
C794 C797 1.403 . S
C795 C792 1.403 . S
C795 C796 1.524 . S
C795 C799 1.400 . S
C796 H781 0.960 . S
C796 H782 0.960 . S
C796 H783 0.960 . S
C796 C795 1.524 . S
C797 C794 1.403 . S
C797 C798 1.392 . S
C797 C801 1.495 . S
C798 C797 1.392 . S
C798 C799 1.385 . S
C798 C800 1.478 . S
C799 H793 0.930 . S
C799 C795 1.400 . S
C799 C798 1.385 . S
C800 C798 1.478 . S
C800 C802 1.381 . S
C800 C806 1.383 . S
C801 C797 1.495 . S
C801 H807 0.959 . S
C801 H808 0.961 . S
C801 H809 0.960 . S
C802 C800 1.381 . S
C802 C803 1.394 . S
C802 H810 0.930 . S
C803 C802 1.394 . S
C803 C804 1.383 . S
C803 H811 0.929 . S
C804 C803 1.383 . S
C804 C805 1.377 . S
C805 H789 0.930 . S
C805 C804 1.377 . S
C805 C806 1.379 . S
C806 H790 0.931 . S
C806 C800 1.383 . S
C806 C805 1.379 . S
H807 C801 0.959 . S
H808 C801 0.961 . S
H809 C801 0.960 . S
H810 C802 0.930 . S
H811 C803 0.929 . S
H812 C820 0.929 . S
H813 C822 0.930 . S
H814 C824 0.930 . S
H815 C827 0.929 . S
H816 C830 0.930 . S
H817 C832 0.960 . S
H818 C832 0.960 . S
H819 C832 0.960 . S
C820 H812 0.929 . S
C820 C821 1.377 . S
C820 C822 1.384 . S
C821 C820 1.377 . S
C821 C827 1.390 . S
C822 H813 0.930 . S
C822 C820 1.384 . S
C822 C823 1.372 . S
C823 C822 1.372 . S
C823 C824 1.400 . S
C823 C828 1.490 . S
C824 H814 0.930 . S
C824 C823 1.400 . S
C824 C827 1.386 . S
H825 C841 0.930 . S
H826 C842 0.931 . S
C827 H815 0.929 . S
C827 C821 1.390 . S
C827 C824 1.386 . S
C828 C823 1.490 . S
C828 C830 1.395 . S
C828 C831 1.403 . S
H829 C835 0.930 . S
C830 H816 0.930 . S
C830 C828 1.395 . S
C830 C833 1.403 . S
C831 C828 1.403 . S
C831 C832 1.524 . S
C831 C835 1.400 . S
C832 H817 0.960 . S
C832 H818 0.960 . S
C832 H819 0.960 . S
C832 C831 1.524 . S
C833 C830 1.403 . S
C833 C834 1.392 . S
C833 C837 1.495 . S
C834 C833 1.392 . S
C834 C835 1.385 . S
C834 C836 1.478 . S
C835 H829 0.930 . S
C835 C831 1.400 . S
C835 C834 1.385 . S
C836 C834 1.478 . S
C836 C838 1.381 . S
C836 C842 1.383 . S
C837 C833 1.495 . S
C837 H843 0.959 . S
C837 H844 0.961 . S
C837 H845 0.960 . S
C838 C836 1.381 . S
C838 C839 1.394 . S
C838 H846 0.930 . S
C839 C838 1.394 . S
C839 C840 1.383 . S
C839 H847 0.929 . S
C840 C839 1.383 . S
C840 C841 1.377 . S
C841 H825 0.930 . S
C841 C840 1.377 . S
C841 C842 1.379 . S
C842 H826 0.931 . S
C842 C836 1.383 . S
C842 C841 1.379 . S
H843 C837 0.959 . S
H844 C837 0.961 . S
H845 C837 0.960 . S
H846 C838 0.930 . S
H847 C839 0.929 . S
H848 C856 0.929 . S
H849 C858 0.930 . S
H850 C860 0.930 . S
H851 C863 0.929 . S
H852 C866 0.930 . S
H853 C868 0.960 . S
H854 C868 0.960 . S
H855 C868 0.960 . S
C856 H848 0.929 . S
C856 C857 1.377 . S
C856 C858 1.384 . S
C857 C856 1.377 . S
C857 C863 1.390 . S
C858 H849 0.930 . S
C858 C856 1.384 . S
C858 C859 1.372 . S
C859 C858 1.372 . S
C859 C860 1.400 . S
C859 C864 1.490 . S
C860 H850 0.930 . S
C860 C859 1.400 . S
C860 C863 1.386 . S
H861 C877 0.930 . S
H862 C878 0.931 . S
C863 H851 0.929 . S
C863 C857 1.390 . S
C863 C860 1.386 . S
C864 C859 1.490 . S
C864 C866 1.395 . S
C864 C867 1.403 . S
H865 C871 0.930 . S
C866 H852 0.930 . S
C866 C864 1.395 . S
C866 C869 1.403 . S
C867 C864 1.403 . S
C867 C868 1.524 . S
C867 C871 1.400 . S
C868 H853 0.960 . S
C868 H854 0.960 . S
C868 H855 0.960 . S
C868 C867 1.524 . S
C869 C866 1.403 . S
C869 C870 1.392 . S
C869 C873 1.495 . S
C870 C869 1.392 . S
C870 C871 1.385 . S
C870 C872 1.478 . S
C871 H865 0.930 . S
C871 C867 1.400 . S
C871 C870 1.385 . S
C872 C870 1.478 . S
C872 C874 1.381 . S
C872 C878 1.383 . S
C873 C869 1.495 . S
C873 H879 0.959 . S
C873 H880 0.961 . S
C873 H881 0.960 . S
C874 C872 1.381 . S
C874 C875 1.394 . S
C874 H882 0.930 . S
C875 C874 1.394 . S
C875 C876 1.383 . S
C875 H883 0.929 . S
C876 C875 1.383 . S
C876 C877 1.377 . S
C877 H861 0.930 . S
C877 C876 1.377 . S
C877 C878 1.379 . S
C878 H862 0.931 . S
C878 C872 1.383 . S
C878 C877 1.379 . S
H879 C873 0.959 . S
H880 C873 0.961 . S
H881 C873 0.960 . S
H882 C874 0.930 . S
H883 C875 0.929 . S
H884 C892 0.929 . S
H885 C894 0.930 . S
H886 C896 0.930 . S
H887 C899 0.929 . S
H888 C902 0.930 . S
H889 C904 0.960 . S
H890 C904 0.960 . S
H891 C904 0.960 . S
C892 H884 0.929 . S
C892 C893 1.377 . S
C892 C894 1.384 . S
C893 C892 1.377 . S
C893 C899 1.390 . S
C894 H885 0.930 . S
C894 C892 1.384 . S
C894 C895 1.372 . S
C895 C894 1.372 . S
C895 C896 1.400 . S
C895 C900 1.490 . S
C896 H886 0.930 . S
C896 C895 1.400 . S
C896 C899 1.386 . S
H897 C913 0.930 . S
H898 C914 0.931 . S
C899 H887 0.929 . S
C899 C893 1.390 . S
C899 C896 1.386 . S
C900 C895 1.490 . S
C900 C902 1.395 . S
C900 C903 1.403 . S
H901 C907 0.930 . S
C902 H888 0.930 . S
C902 C900 1.395 . S
C902 C905 1.403 . S
C903 C900 1.403 . S
C903 C904 1.524 . S
C903 C907 1.400 . S
C904 H889 0.960 . S
C904 H890 0.960 . S
C904 H891 0.960 . S
C904 C903 1.524 . S
C905 C902 1.403 . S
C905 C906 1.392 . S
C905 C909 1.495 . S
C906 C905 1.392 . S
C906 C907 1.385 . S
C906 C908 1.478 . S
C907 H901 0.930 . S
C907 C903 1.400 . S
C907 C906 1.385 . S
C908 C906 1.478 . S
C908 C910 1.381 . S
C908 C914 1.383 . S
C909 C905 1.495 . S
C909 H915 0.959 . S
C909 H916 0.961 . S
C909 H917 0.960 . S
C910 C908 1.381 . S
C910 C911 1.394 . S
C910 H918 0.930 . S
C911 C910 1.394 . S
C911 C912 1.383 . S
C911 H919 0.929 . S
C912 C911 1.383 . S
C912 C913 1.377 . S
C913 H897 0.930 . S
C913 C912 1.377 . S
C913 C914 1.379 . S
C914 H898 0.931 . S
C914 C908 1.383 . S
C914 C913 1.379 . S
H915 C909 0.959 . S
H916 C909 0.961 . S
H917 C909 0.960 . S
H918 C910 0.930 . S
H919 C911 0.929 . S
H920 C928 0.929 . S
H921 C930 0.930 . S
H922 C932 0.930 . S
H923 C935 0.929 . S
H924 C938 0.930 . S
H925 C940 0.960 . S
H926 C940 0.960 . S
H927 C940 0.960 . S
C928 H920 0.929 . S
C928 C929 1.377 . S
C928 C930 1.384 . S
C929 C928 1.377 . S
C929 C935 1.390 . S
C930 H921 0.930 . S
C930 C928 1.384 . S
C930 C931 1.372 . S
C931 C930 1.372 . S
C931 C932 1.400 . S
C931 C936 1.490 . S
C932 H922 0.930 . S
C932 C931 1.400 . S
C932 C935 1.386 . S
H933 C949 0.930 . S
H934 C950 0.931 . S
C935 H923 0.929 . S
C935 C929 1.390 . S
C935 C932 1.386 . S
C936 C931 1.490 . S
C936 C938 1.395 . S
C936 C939 1.403 . S
H937 C943 0.930 . S
C938 H924 0.930 . S
C938 C936 1.395 . S
C938 C941 1.403 . S
C939 C936 1.403 . S
C939 C940 1.524 . S
C939 C943 1.400 . S
C940 H925 0.960 . S
C940 H926 0.960 . S
C940 H927 0.960 . S
C940 C939 1.524 . S
C941 C938 1.403 . S
C941 C942 1.392 . S
C941 C945 1.495 . S
C942 C941 1.392 . S
C942 C943 1.385 . S
C942 C944 1.478 . S
C943 H937 0.930 . S
C943 C939 1.400 . S
C943 C942 1.385 . S
C944 C942 1.478 . S
C944 C946 1.381 . S
C944 C950 1.383 . S
C945 C941 1.495 . S
C945 H951 0.959 . S
C945 H952 0.961 . S
C945 H953 0.960 . S
C946 C944 1.381 . S
C946 C947 1.394 . S
C946 H954 0.930 . S
C947 C946 1.394 . S
C947 C948 1.383 . S
C947 H955 0.929 . S
C948 C947 1.383 . S
C948 C949 1.377 . S
C949 H933 0.930 . S
C949 C948 1.377 . S
C949 C950 1.379 . S
C950 H934 0.931 . S
C950 C944 1.383 . S
C950 C949 1.379 . S
H951 C945 0.959 . S
H952 C945 0.961 . S
H953 C945 0.960 . S
H954 C946 0.930 . S
H955 C947 0.929 . S
H956 C964 0.929 . S
H957 C966 0.930 . S
H958 C968 0.930 . S
H959 C971 0.929 . S
H960 C974 0.930 . S
H961 C976 0.960 . S
H962 C976 0.960 . S
H963 C976 0.960 . S
C964 H956 0.929 . S
C964 C965 1.377 . S
C964 C966 1.384 . S
C965 C964 1.377 . S
C965 C971 1.390 . S
C966 H957 0.930 . S
C966 C964 1.384 . S
C966 C967 1.372 . S
C967 C966 1.372 . S
C967 C968 1.400 . S
C967 C972 1.490 . S
C968 H958 0.930 . S
C968 C967 1.400 . S
C968 C971 1.386 . S
H969 C985 0.930 . S
H970 C986 0.931 . S
C971 H959 0.929 . S
C971 C965 1.390 . S
C971 C968 1.386 . S
C972 C967 1.490 . S
C972 C974 1.395 . S
C972 C975 1.403 . S
H973 C979 0.930 . S
C974 H960 0.930 . S
C974 C972 1.395 . S
C974 C977 1.403 . S
C975 C972 1.403 . S
C975 C976 1.524 . S
C975 C979 1.400 . S
C976 H961 0.960 . S
C976 H962 0.960 . S
C976 H963 0.960 . S
C976 C975 1.524 . S
C977 C974 1.403 . S
C977 C978 1.392 . S
C977 C981 1.495 . S
C978 C977 1.392 . S
C978 C979 1.385 . S
C978 C980 1.478 . S
C979 H973 0.930 . S
C979 C975 1.400 . S
C979 C978 1.385 . S
C980 C978 1.478 . S
C980 C982 1.381 . S
C980 C986 1.383 . S
C981 C977 1.495 . S
C981 H987 0.959 . S
C981 H988 0.961 . S
C981 H989 0.960 . S
C982 C980 1.381 . S
C982 C983 1.394 . S
C982 H990 0.930 . S
C983 C982 1.394 . S
C983 C984 1.383 . S
C983 H991 0.929 . S
C984 C983 1.383 . S
C984 C985 1.377 . S
C985 H969 0.930 . S
C985 C984 1.377 . S
C985 C986 1.379 . S
C986 H970 0.931 . S
C986 C980 1.383 . S
C986 C985 1.379 . S
H987 C981 0.959 . S
H988 C981 0.961 . S
H989 C981 0.960 . S
H990 C982 0.930 . S
H991 C983 0.929 . S
H992 C1000 0.929 . S
H993 C1002 0.930 . S
H994 C1004 0.930 . S
H995 C1007 0.929 . S
H996 C1010 0.930 . S
H997 C1012 0.960 . S
H998 C1012 0.960 . S
H999 C1012 0.960 . S
C1000 H992 0.929 . S
C1000 C1001 1.377 . S
C1000 C1002 1.384 . S
C1001 C1000 1.377 . S
C1001 C1007 1.390 . S
C1002 H993 0.930 . S
C1002 C1000 1.384 . S
C1002 C1003 1.372 . S
C1003 C1002 1.372 . S
C1003 C1004 1.400 . S
C1003 C1008 1.490 . S
C1004 H994 0.930 . S
C1004 C1003 1.400 . S
C1004 C1007 1.386 . S
H1005 C1021 0.930 . S
H1006 C1022 0.931 . S
C1007 H995 0.929 . S
C1007 C1001 1.390 . S
C1007 C1004 1.386 . S
C1008 C1003 1.490 . S
C1008 C1010 1.395 . S
C1008 C1011 1.403 . S
H1009 C1015 0.930 . S
C1010 H996 0.930 . S
C1010 C1008 1.395 . S
C1010 C1013 1.403 . S
C1011 C1008 1.403 . S
C1011 C1012 1.524 . S
C1011 C1015 1.400 . S
C1012 H997 0.960 . S
C1012 H998 0.960 . S
C1012 H999 0.960 . S
C1012 C1011 1.524 . S
C1013 C1010 1.403 . S
C1013 C1014 1.392 . S
C1013 C1017 1.495 . S
C1014 C1013 1.392 . S
C1014 C1015 1.385 . S
C1014 C1016 1.478 . S
C1015 H1009 0.930 . S
C1015 C1011 1.400 . S
C1015 C1014 1.385 . S
C1016 C1014 1.478 . S
C1016 C1018 1.381 . S
C1016 C1022 1.383 . S
C1017 C1013 1.495 . S
C1017 H1023 0.959 . S
C1017 H1024 0.961 . S
C1017 H1025 0.960 . S
C1018 C1016 1.381 . S
C1018 C1019 1.394 . S
C1018 H1026 0.930 . S
C1019 C1018 1.394 . S
C1019 C1020 1.383 . S
C1019 H1027 0.929 . S
C1020 C1019 1.383 . S
C1020 C1021 1.377 . S
C1021 H1005 0.930 . S
C1021 C1020 1.377 . S
C1021 C1022 1.379 . S
C1022 H1006 0.931 . S
C1022 C1016 1.383 . S
C1022 C1021 1.379 . S
H1023 C1017 0.959 . S
H1024 C1017 0.961 . S
H1025 C1017 0.960 . S
H1026 C1018 0.930 . S
H1027 C1019 0.929 . S
H1028 C1036 0.929 . S
H1029 C1038 0.930 . S
H1030 C1040 0.930 . S
H1031 C1043 0.929 . S
H1032 C1046 0.930 . S
H1033 C1048 0.960 . S
H1034 C1048 0.960 . S
H1035 C1048 0.960 . S
C1036 H1028 0.929 . S
C1036 C1037 1.377 . S
C1036 C1038 1.384 . S
C1037 C1036 1.377 . S
C1037 C1043 1.390 . S
C1038 H1029 0.930 . S
C1038 C1036 1.384 . S
C1038 C1039 1.372 . S
C1039 C1038 1.372 . S
C1039 C1040 1.400 . S
C1039 C1044 1.490 . S
C1040 H1030 0.930 . S
C1040 C1039 1.400 . S
C1040 C1043 1.386 . S
H1041 C1057 0.930 . S
H1042 C1058 0.931 . S
C1043 H1031 0.929 . S
C1043 C1037 1.390 . S
C1043 C1040 1.386 . S
C1044 C1039 1.490 . S
C1044 C1046 1.395 . S
C1044 C1047 1.403 . S
H1045 C1051 0.930 . S
C1046 H1032 0.930 . S
C1046 C1044 1.395 . S
C1046 C1049 1.403 . S
C1047 C1044 1.403 . S
C1047 C1048 1.524 . S
C1047 C1051 1.400 . S
C1048 H1033 0.960 . S
C1048 H1034 0.960 . S
C1048 H1035 0.960 . S
C1048 C1047 1.524 . S
C1049 C1046 1.403 . S
C1049 C1050 1.392 . S
C1049 C1053 1.495 . S
C1050 C1049 1.392 . S
C1050 C1051 1.385 . S
C1050 C1052 1.478 . S
C1051 H1045 0.930 . S
C1051 C1047 1.400 . S
C1051 C1050 1.385 . S
C1052 C1050 1.478 . S
C1052 C1054 1.381 . S
C1052 C1058 1.383 . S
C1053 C1049 1.495 . S
C1053 H1059 0.959 . S
C1053 H1060 0.961 . S
C1053 H1061 0.960 . S
C1054 C1052 1.381 . S
C1054 C1055 1.394 . S
C1054 H1062 0.930 . S
C1055 C1054 1.394 . S
C1055 C1056 1.383 . S
C1055 H1063 0.929 . S
C1056 C1055 1.383 . S
C1056 C1057 1.377 . S
C1057 H1041 0.930 . S
C1057 C1056 1.377 . S
C1057 C1058 1.379 . S
C1058 H1042 0.931 . S
C1058 C1052 1.383 . S
C1058 C1057 1.379 . S
H1059 C1053 0.959 . S
H1060 C1053 0.961 . S
H1061 C1053 0.960 . S
H1062 C1054 0.930 . S
H1063 C1055 0.929 . S
H1064 C1072 0.929 . S
H1065 C1074 0.930 . S
H1066 C1076 0.930 . S
H1067 C1079 0.929 . S
H1068 C1082 0.930 . S
H1069 C1084 0.960 . S
H1070 C1084 0.960 . S
H1071 C1084 0.960 . S
C1072 H1064 0.929 . S
C1072 C1073 1.377 . S
C1072 C1074 1.384 . S
C1073 C1072 1.377 . S
C1073 C1079 1.390 . S
C1074 H1065 0.930 . S
C1074 C1072 1.384 . S
C1074 C1075 1.372 . S
C1075 C1074 1.372 . S
C1075 C1076 1.400 . S
C1075 C1080 1.490 . S
C1076 H1066 0.930 . S
C1076 C1075 1.400 . S
C1076 C1079 1.386 . S
H1077 C1093 0.930 . S
H1078 C1094 0.931 . S
C1079 H1067 0.929 . S
C1079 C1073 1.390 . S
C1079 C1076 1.386 . S
C1080 C1075 1.490 . S
C1080 C1082 1.395 . S
C1080 C1083 1.403 . S
H1081 C1087 0.930 . S
C1082 H1068 0.930 . S
C1082 C1080 1.395 . S
C1082 C1085 1.403 . S
C1083 C1080 1.403 . S
C1083 C1084 1.524 . S
C1083 C1087 1.400 . S
C1084 H1069 0.960 . S
C1084 H1070 0.960 . S
C1084 H1071 0.960 . S
C1084 C1083 1.524 . S
C1085 C1082 1.403 . S
C1085 C1086 1.392 . S
C1085 C1089 1.495 . S
C1086 C1085 1.392 . S
C1086 C1087 1.385 . S
C1086 C1088 1.478 . S
C1087 H1081 0.930 . S
C1087 C1083 1.400 . S
C1087 C1086 1.385 . S
C1088 C1086 1.478 . S
C1088 C1090 1.381 . S
C1088 C1094 1.383 . S
C1089 C1085 1.495 . S
C1089 H1095 0.959 . S
C1089 H1096 0.961 . S
C1089 H1097 0.960 . S
C1090 C1088 1.381 . S
C1090 C1091 1.394 . S
C1090 H1098 0.930 . S
C1091 C1090 1.394 . S
C1091 C1092 1.383 . S
C1091 H1099 0.929 . S
C1092 C1091 1.383 . S
C1092 C1093 1.377 . S
C1093 H1077 0.930 . S
C1093 C1092 1.377 . S
C1093 C1094 1.379 . S
C1094 H1078 0.931 . S
C1094 C1088 1.383 . S
C1094 C1093 1.379 . S
H1095 C1089 0.959 . S
H1096 C1089 0.961 . S
H1097 C1089 0.960 . S
H1098 C1090 0.930 . S
H1099 C1091 0.929 . S
H1100 C1108 0.929 . S
H1101 C1110 0.930 . S
H1102 C1112 0.930 . S
H1103 C1115 0.929 . S
H1104 C1118 0.930 . S
H1105 C1120 0.960 . S
H1106 C1120 0.960 . S
H1107 C1120 0.960 . S
C1108 H1100 0.929 . S
C1108 C1109 1.377 . S
C1108 C1110 1.384 . S
C1109 C1108 1.377 . S
C1109 C1115 1.390 . S
C1110 H1101 0.930 . S
C1110 C1108 1.384 . S
C1110 C1111 1.372 . S
C1111 C1110 1.372 . S
C1111 C1112 1.400 . S
C1111 C1116 1.490 . S
C1112 H1102 0.930 . S
C1112 C1111 1.400 . S
C1112 C1115 1.386 . S
H1113 C1129 0.930 . S
H1114 C1130 0.931 . S
C1115 H1103 0.929 . S
C1115 C1109 1.390 . S
C1115 C1112 1.386 . S
C1116 C1111 1.490 . S
C1116 C1118 1.395 . S
C1116 C1119 1.403 . S
H1117 C1123 0.930 . S
C1118 H1104 0.930 . S
C1118 C1116 1.395 . S
C1118 C1121 1.403 . S
C1119 C1116 1.403 . S
C1119 C1120 1.524 . S
C1119 C1123 1.400 . S
C1120 H1105 0.960 . S
C1120 H1106 0.960 . S
C1120 H1107 0.960 . S
C1120 C1119 1.524 . S
C1121 C1118 1.403 . S
C1121 C1122 1.392 . S
C1121 C1125 1.495 . S
C1122 C1121 1.392 . S
C1122 C1123 1.385 . S
C1122 C1124 1.478 . S
C1123 H1117 0.930 . S
C1123 C1119 1.400 . S
C1123 C1122 1.385 . S
C1124 C1122 1.478 . S
C1124 C1126 1.381 . S
C1124 C1130 1.383 . S
C1125 C1121 1.495 . S
C1125 H1131 0.959 . S
C1125 H1132 0.961 . S
C1125 H1133 0.960 . S
C1126 C1124 1.381 . S
C1126 C1127 1.394 . S
C1126 H1134 0.930 . S
C1127 C1126 1.394 . S
C1127 C1128 1.383 . S
C1127 H1135 0.929 . S
C1128 C1127 1.383 . S
C1128 C1129 1.377 . S
C1129 H1113 0.930 . S
C1129 C1128 1.377 . S
C1129 C1130 1.379 . S
C1130 H1114 0.931 . S
C1130 C1124 1.383 . S
C1130 C1129 1.379 . S
H1131 C1125 0.959 . S
H1132 C1125 0.961 . S
H1133 C1125 0.960 . S
H1134 C1126 0.930 . S
H1135 C1127 0.929 . S
H1136 C1144 0.929 . S
H1137 C1146 0.930 . S
H1138 C1148 0.930 . S
H1139 C1151 0.929 . S
H1140 C1154 0.930 . S
H1141 C1156 0.960 . S
H1142 C1156 0.960 . S
H1143 C1156 0.960 . S
C1144 H1136 0.929 . S
C1144 C1145 1.377 . S
C1144 C1146 1.384 . S
C1145 C1144 1.377 . S
C1145 C1151 1.390 . S
C1146 H1137 0.930 . S
C1146 C1144 1.384 . S
C1146 C1147 1.372 . S
C1147 C1146 1.372 . S
C1147 C1148 1.400 . S
C1147 C1152 1.490 . S
C1148 H1138 0.930 . S
C1148 C1147 1.400 . S
C1148 C1151 1.386 . S
H1149 C1165 0.930 . S
H1150 C1166 0.931 . S
C1151 H1139 0.929 . S
C1151 C1145 1.390 . S
C1151 C1148 1.386 . S
C1152 C1147 1.490 . S
C1152 C1154 1.395 . S
C1152 C1155 1.403 . S
H1153 C1159 0.930 . S
C1154 H1140 0.930 . S
C1154 C1152 1.395 . S
C1154 C1157 1.403 . S
C1155 C1152 1.403 . S
C1155 C1156 1.524 . S
C1155 C1159 1.400 . S
C1156 H1141 0.960 . S
C1156 H1142 0.960 . S
C1156 H1143 0.960 . S
C1156 C1155 1.524 . S
C1157 C1154 1.403 . S
C1157 C1158 1.392 . S
C1157 C1161 1.495 . S
C1158 C1157 1.392 . S
C1158 C1159 1.385 . S
C1158 C1160 1.478 . S
C1159 H1153 0.930 . S
C1159 C1155 1.400 . S
C1159 C1158 1.385 . S
C1160 C1158 1.478 . S
C1160 C1162 1.381 . S
C1160 C1166 1.383 . S
C1161 C1157 1.495 . S
C1161 H1167 0.959 . S
C1161 H1168 0.961 . S
C1161 H1169 0.960 . S
C1162 C1160 1.381 . S
C1162 C1163 1.394 . S
C1162 H1170 0.930 . S
C1163 C1162 1.394 . S
C1163 C1164 1.383 . S
C1163 H1171 0.929 . S
C1164 C1163 1.383 . S
C1164 C1165 1.377 . S
C1165 H1149 0.930 . S
C1165 C1164 1.377 . S
C1165 C1166 1.379 . S
C1166 H1150 0.931 . S
C1166 C1160 1.383 . S
C1166 C1165 1.379 . S
H1167 C1161 0.959 . S
H1168 C1161 0.961 . S
H1169 C1161 0.960 . S
H1170 C1162 0.930 . S
H1171 C1163 0.929 . S
H1172 C1180 0.929 . S
H1173 C1182 0.930 . S
H1174 C1184 0.930 . S
H1175 C1187 0.929 . S
H1176 C1190 0.930 . S
H1177 C1192 0.960 . S
H1178 C1192 0.960 . S
H1179 C1192 0.960 . S
C1180 H1172 0.929 . S
C1180 C1181 1.377 . S
C1180 C1182 1.384 . S
C1181 C1180 1.377 . S
C1181 C1187 1.390 . S
C1182 H1173 0.930 . S
C1182 C1180 1.384 . S
C1182 C1183 1.372 . S
C1183 C1182 1.372 . S
C1183 C1184 1.400 . S
C1183 C1188 1.490 . S
C1184 H1174 0.930 . S
C1184 C1183 1.400 . S
C1184 C1187 1.386 . S
H1185 C1201 0.930 . S
H1186 C1202 0.931 . S
C1187 H1175 0.929 . S
C1187 C1181 1.390 . S
C1187 C1184 1.386 . S
C1188 C1183 1.490 . S
C1188 C1190 1.395 . S
C1188 C1191 1.403 . S
H1189 C1195 0.930 . S
C1190 H1176 0.930 . S
C1190 C1188 1.395 . S
C1190 C1193 1.403 . S
C1191 C1188 1.403 . S
C1191 C1192 1.524 . S
C1191 C1195 1.400 . S
C1192 H1177 0.960 . S
C1192 H1178 0.960 . S
C1192 H1179 0.960 . S
C1192 C1191 1.524 . S
C1193 C1190 1.403 . S
C1193 C1194 1.392 . S
C1193 C1197 1.495 . S
C1194 C1193 1.392 . S
C1194 C1195 1.385 . S
C1194 C1196 1.478 . S
C1195 H1189 0.930 . S
C1195 C1191 1.400 . S
C1195 C1194 1.385 . S
C1196 C1194 1.478 . S
C1196 C1198 1.381 . S
C1196 C1202 1.383 . S
C1197 C1193 1.495 . S
C1197 H1203 0.959 . S
C1197 H1204 0.961 . S
C1197 H1205 0.960 . S
C1198 C1196 1.381 . S
C1198 C1199 1.394 . S
C1198 H1206 0.930 . S
C1199 C1198 1.394 . S
C1199 C1200 1.383 . S
C1199 H1207 0.929 . S
C1200 C1199 1.383 . S
C1200 C1201 1.377 . S
C1201 H1185 0.930 . S
C1201 C1200 1.377 . S
C1201 C1202 1.379 . S
C1202 H1186 0.931 . S
C1202 C1196 1.383 . S
C1202 C1201 1.379 . S
H1203 C1197 0.959 . S
H1204 C1197 0.961 . S
H1205 C1197 0.960 . S
H1206 C1198 0.930 . S
H1207 C1199 0.929 . S
H1208 C1216 0.929 . S
H1209 C1218 0.930 . S
H1210 C1220 0.930 . S
H1211 C1223 0.929 . S
H1212 C1226 0.930 . S
H1213 C1228 0.960 . S
H1214 C1228 0.960 . S
H1215 C1228 0.960 . S
C1216 H1208 0.929 . S
C1216 C1217 1.377 . S
C1216 C1218 1.384 . S
C1217 C1216 1.377 . S
C1217 C1223 1.390 . S
C1218 H1209 0.930 . S
C1218 C1216 1.384 . S
C1218 C1219 1.372 . S
C1219 C1218 1.372 . S
C1219 C1220 1.400 . S
C1219 C1224 1.490 . S
C1220 H1210 0.930 . S
C1220 C1219 1.400 . S
C1220 C1223 1.386 . S
H1221 C1237 0.930 . S
H1222 C1238 0.931 . S
C1223 H1211 0.929 . S
C1223 C1217 1.390 . S
C1223 C1220 1.386 . S
C1224 C1219 1.490 . S
C1224 C1226 1.395 . S
C1224 C1227 1.403 . S
H1225 C1231 0.930 . S
C1226 H1212 0.930 . S
C1226 C1224 1.395 . S
C1226 C1229 1.403 . S
C1227 C1224 1.403 . S
C1227 C1228 1.524 . S
C1227 C1231 1.400 . S
C1228 H1213 0.960 . S
C1228 H1214 0.960 . S
C1228 H1215 0.960 . S
C1228 C1227 1.524 . S
C1229 C1226 1.403 . S
C1229 C1230 1.392 . S
C1229 C1233 1.495 . S
C1230 C1229 1.392 . S
C1230 C1231 1.385 . S
C1230 C1232 1.478 . S
C1231 H1225 0.930 . S
C1231 C1227 1.400 . S
C1231 C1230 1.385 . S
C1232 C1230 1.478 . S
C1232 C1234 1.381 . S
C1232 C1238 1.383 . S
C1233 C1229 1.495 . S
C1233 H1239 0.959 . S
C1233 H1240 0.961 . S
C1233 H1241 0.960 . S
C1234 C1232 1.381 . S
C1234 C1235 1.394 . S
C1234 H1242 0.930 . S
C1235 C1234 1.394 . S
C1235 C1236 1.383 . S
C1235 H1243 0.929 . S
C1236 C1235 1.383 . S
C1236 C1237 1.377 . S
C1237 H1221 0.930 . S
C1237 C1236 1.377 . S
C1237 C1238 1.379 . S
C1238 H1222 0.931 . S
C1238 C1232 1.383 . S
C1238 C1237 1.379 . S
H1239 C1233 0.959 . S
H1240 C1233 0.961 . S
H1241 C1233 0.960 . S
H1242 C1234 0.930 . S
H1243 C1235 0.929 . S
H1244 C1252 0.929 . S
H1245 C1254 0.930 . S
H1246 C1256 0.930 . S
H1247 C1259 0.929 . S
H1248 C1262 0.930 . S
H1249 C1264 0.960 . S
H1250 C1264 0.960 . S
H1251 C1264 0.960 . S
C1252 H1244 0.929 . S
C1252 C1253 1.377 . S
C1252 C1254 1.384 . S
C1253 C1252 1.377 . S
C1253 C1259 1.390 . S
C1254 H1245 0.930 . S
C1254 C1252 1.384 . S
C1254 C1255 1.372 . S
C1255 C1254 1.372 . S
C1255 C1256 1.400 . S
C1255 C1260 1.490 . S
C1256 H1246 0.930 . S
C1256 C1255 1.400 . S
C1256 C1259 1.386 . S
H1257 C1273 0.930 . S
H1258 C1274 0.931 . S
C1259 H1247 0.929 . S
C1259 C1253 1.390 . S
C1259 C1256 1.386 . S
C1260 C1255 1.490 . S
C1260 C1262 1.395 . S
C1260 C1263 1.403 . S
H1261 C1267 0.930 . S
C1262 H1248 0.930 . S
C1262 C1260 1.395 . S
C1262 C1265 1.403 . S
C1263 C1260 1.403 . S
C1263 C1264 1.524 . S
C1263 C1267 1.400 . S
C1264 H1249 0.960 . S
C1264 H1250 0.960 . S
C1264 H1251 0.960 . S
C1264 C1263 1.524 . S
C1265 C1262 1.403 . S
C1265 C1266 1.392 . S
C1265 C1269 1.495 . S
C1266 C1265 1.392 . S
C1266 C1267 1.385 . S
C1266 C1268 1.478 . S
C1267 H1261 0.930 . S
C1267 C1263 1.400 . S
C1267 C1266 1.385 . S
C1268 C1266 1.478 . S
C1268 C1270 1.381 . S
C1268 C1274 1.383 . S
C1269 C1265 1.495 . S
C1269 H1275 0.959 . S
C1269 H1276 0.961 . S
C1269 H1277 0.960 . S
C1270 C1268 1.381 . S
C1270 C1271 1.394 . S
C1270 H1278 0.930 . S
C1271 C1270 1.394 . S
C1271 C1272 1.383 . S
C1271 H1279 0.929 . S
C1272 C1271 1.383 . S
C1272 C1273 1.377 . S
C1273 H1257 0.930 . S
C1273 C1272 1.377 . S
C1273 C1274 1.379 . S
C1274 H1258 0.931 . S
C1274 C1268 1.383 . S
C1274 C1273 1.379 . S
H1275 C1269 0.959 . S
H1276 C1269 0.961 . S
H1277 C1269 0.960 . S
H1278 C1270 0.930 . S
H1279 C1271 0.929 . S
H1280 C1288 0.929 . S
H1281 C1290 0.930 . S
H1282 C1292 0.930 . S
H1283 C1295 0.929 . S
H1284 C1298 0.930 . S
H1285 C1300 0.960 . S
H1286 C1300 0.960 . S
H1287 C1300 0.960 . S
C1288 H1280 0.929 . S
C1288 C1289 1.377 . S
C1288 C1290 1.384 . S
C1289 C1288 1.377 . S
C1289 C1295 1.390 . S
C1290 H1281 0.930 . S
C1290 C1288 1.384 . S
C1290 C1291 1.372 . S
C1291 C1290 1.372 . S
C1291 C1292 1.400 . S
C1291 C1296 1.490 . S
C1292 H1282 0.930 . S
C1292 C1291 1.400 . S
C1292 C1295 1.386 . S
H1293 C1309 0.930 . S
H1294 C1310 0.931 . S
C1295 H1283 0.929 . S
C1295 C1289 1.390 . S
C1295 C1292 1.386 . S
C1296 C1291 1.490 . S
C1296 C1298 1.395 . S
C1296 C1299 1.403 . S
H1297 C1303 0.930 . S
C1298 H1284 0.930 . S
C1298 C1296 1.395 . S
C1298 C1301 1.403 . S
C1299 C1296 1.403 . S
C1299 C1300 1.524 . S
C1299 C1303 1.400 . S
C1300 H1285 0.960 . S
C1300 H1286 0.960 . S
C1300 H1287 0.960 . S
C1300 C1299 1.524 . S
C1301 C1298 1.403 . S
C1301 C1302 1.392 . S
C1301 C1305 1.495 . S
C1302 C1301 1.392 . S
C1302 C1303 1.385 . S
C1302 C1304 1.478 . S
C1303 H1297 0.930 . S
C1303 C1299 1.400 . S
C1303 C1302 1.385 . S
C1304 C1302 1.478 . S
C1304 C1306 1.381 . S
C1304 C1310 1.383 . S
C1305 C1301 1.495 . S
C1305 H1311 0.959 . S
C1305 H1312 0.961 . S
C1305 H1313 0.960 . S
C1306 C1304 1.381 . S
C1306 C1307 1.394 . S
C1306 H1314 0.930 . S
C1307 C1306 1.394 . S
C1307 C1308 1.383 . S
C1307 H1315 0.929 . S
C1308 C1307 1.383 . S
C1308 C1309 1.377 . S
C1309 H1293 0.930 . S
C1309 C1308 1.377 . S
C1309 C1310 1.379 . S
C1310 H1294 0.931 . S
C1310 C1304 1.383 . S
C1310 C1309 1.379 . S
H1311 C1305 0.959 . S
H1312 C1305 0.961 . S
H1313 C1305 0.960 . S
H1314 C1306 0.930 . S
H1315 C1307 0.929 . S
H1316 C1324 0.929 . S
H1317 C1326 0.930 . S
H1318 C1328 0.930 . S
H1319 C1331 0.929 . S
H1320 C1334 0.930 . S
H1321 C1336 0.960 . S
H1322 C1336 0.960 . S
H1323 C1336 0.960 . S
C1324 H1316 0.929 . S
C1324 C1325 1.377 . S
C1324 C1326 1.384 . S
C1325 C1324 1.377 . S
C1325 C1331 1.390 . S
C1326 H1317 0.930 . S
C1326 C1324 1.384 . S
C1326 C1327 1.372 . S
C1327 C1326 1.372 . S
C1327 C1328 1.400 . S
C1327 C1332 1.490 . S
C1328 H1318 0.930 . S
C1328 C1327 1.400 . S
C1328 C1331 1.386 . S
H1329 C1345 0.930 . S
H1330 C1346 0.931 . S
C1331 H1319 0.929 . S
C1331 C1325 1.390 . S
C1331 C1328 1.386 . S
C1332 C1327 1.490 . S
C1332 C1334 1.395 . S
C1332 C1335 1.403 . S
H1333 C1339 0.930 . S
C1334 H1320 0.930 . S
C1334 C1332 1.395 . S
C1334 C1337 1.403 . S
C1335 C1332 1.403 . S
C1335 C1336 1.524 . S
C1335 C1339 1.400 . S
C1336 H1321 0.960 . S
C1336 H1322 0.960 . S
C1336 H1323 0.960 . S
C1336 C1335 1.524 . S
C1337 C1334 1.403 . S
C1337 C1338 1.392 . S
C1337 C1341 1.495 . S
C1338 C1337 1.392 . S
C1338 C1339 1.385 . S
C1338 C1340 1.478 . S
C1339 H1333 0.930 . S
C1339 C1335 1.400 . S
C1339 C1338 1.385 . S
C1340 C1338 1.478 . S
C1340 C1342 1.381 . S
C1340 C1346 1.383 . S
C1341 C1337 1.495 . S
C1341 H1347 0.959 . S
C1341 H1348 0.961 . S
C1341 H1349 0.960 . S
C1342 C1340 1.381 . S
C1342 C1343 1.394 . S
C1342 H1350 0.930 . S
C1343 C1342 1.394 . S
C1343 C1344 1.383 . S
C1343 H1351 0.929 . S
C1344 C1343 1.383 . S
C1344 C1345 1.377 . S
C1345 H1329 0.930 . S
C1345 C1344 1.377 . S
C1345 C1346 1.379 . S
C1346 H1330 0.931 . S
C1346 C1340 1.383 . S
C1346 C1345 1.379 . S
H1347 C1341 0.959 . S
H1348 C1341 0.961 . S
H1349 C1341 0.960 . S
H1350 C1342 0.930 . S
H1351 C1343 0.929 . S
H1352 C1360 0.929 . S
H1353 C1362 0.930 . S
H1354 C1364 0.930 . S
H1355 C1367 0.929 . S
H1356 C1370 0.930 . S
H1357 C1372 0.960 . S
H1358 C1372 0.960 . S
H1359 C1372 0.960 . S
C1360 H1352 0.929 . S
C1360 C1361 1.377 . S
C1360 C1362 1.384 . S
C1361 C1360 1.377 . S
C1361 C1367 1.390 . S
C1362 H1353 0.930 . S
C1362 C1360 1.384 . S
C1362 C1363 1.372 . S
C1363 C1362 1.372 . S
C1363 C1364 1.400 . S
C1363 C1368 1.490 . S
C1364 H1354 0.930 . S
C1364 C1363 1.400 . S
C1364 C1367 1.386 . S
H1365 C1381 0.930 . S
H1366 C1382 0.931 . S
C1367 H1355 0.929 . S
C1367 C1361 1.390 . S
C1367 C1364 1.386 . S
C1368 C1363 1.490 . S
C1368 C1370 1.395 . S
C1368 C1371 1.403 . S
H1369 C1375 0.930 . S
C1370 H1356 0.930 . S
C1370 C1368 1.395 . S
C1370 C1373 1.403 . S
C1371 C1368 1.403 . S
C1371 C1372 1.524 . S
C1371 C1375 1.400 . S
C1372 H1357 0.960 . S
C1372 H1358 0.960 . S
C1372 H1359 0.960 . S
C1372 C1371 1.524 . S
C1373 C1370 1.403 . S
C1373 C1374 1.392 . S
C1373 C1377 1.495 . S
C1374 C1373 1.392 . S
C1374 C1375 1.385 . S
C1374 C1376 1.478 . S
C1375 H1369 0.930 . S
C1375 C1371 1.400 . S
C1375 C1374 1.385 . S
C1376 C1374 1.478 . S
C1376 C1378 1.381 . S
C1376 C1382 1.383 . S
C1377 C1373 1.495 . S
C1377 H1383 0.959 . S
C1377 H1384 0.961 . S
C1377 H1385 0.960 . S
C1378 C1376 1.381 . S
C1378 C1379 1.394 . S
C1378 H1386 0.930 . S
C1379 C1378 1.394 . S
C1379 C1380 1.383 . S
C1379 H1387 0.929 . S
C1380 C1379 1.383 . S
C1380 C1381 1.377 . S
C1381 H1365 0.930 . S
C1381 C1380 1.377 . S
C1381 C1382 1.379 . S
C1382 H1366 0.931 . S
C1382 C1376 1.383 . S
C1382 C1381 1.379 . S
H1383 C1377 0.959 . S
H1384 C1377 0.961 . S
H1385 C1377 0.960 . S
H1386 C1378 0.930 . S
H1387 C1379 0.929 . S
H1388 C1396 0.929 . S
H1389 C1398 0.930 . S
H1390 C1400 0.930 . S
H1391 C1403 0.929 . S
H1392 C1406 0.930 . S
H1393 C1408 0.960 . S
H1394 C1408 0.960 . S
H1395 C1408 0.960 . S
C1396 H1388 0.929 . S
C1396 C1397 1.377 . S
C1396 C1398 1.384 . S
C1397 C1396 1.377 . S
C1397 C1403 1.390 . S
C1398 H1389 0.930 . S
C1398 C1396 1.384 . S
C1398 C1399 1.372 . S
C1399 C1398 1.372 . S
C1399 C1400 1.400 . S
C1399 C1404 1.490 . S
C1400 H1390 0.930 . S
C1400 C1399 1.400 . S
C1400 C1403 1.386 . S
H1401 C1417 0.930 . S
H1402 C1418 0.931 . S
C1403 H1391 0.929 . S
C1403 C1397 1.390 . S
C1403 C1400 1.386 . S
C1404 C1399 1.490 . S
C1404 C1406 1.395 . S
C1404 C1407 1.403 . S
H1405 C1411 0.930 . S
C1406 H1392 0.930 . S
C1406 C1404 1.395 . S
C1406 C1409 1.403 . S
C1407 C1404 1.403 . S
C1407 C1408 1.524 . S
C1407 C1411 1.400 . S
C1408 H1393 0.960 . S
C1408 H1394 0.960 . S
C1408 H1395 0.960 . S
C1408 C1407 1.524 . S
C1409 C1406 1.403 . S
C1409 C1410 1.392 . S
C1409 C1413 1.495 . S
C1410 C1409 1.392 . S
C1410 C1411 1.385 . S
C1410 C1412 1.478 . S
C1411 H1405 0.930 . S
C1411 C1407 1.400 . S
C1411 C1410 1.385 . S
C1412 C1410 1.478 . S
C1412 C1414 1.381 . S
C1412 C1418 1.383 . S
C1413 C1409 1.495 . S
C1413 H1419 0.959 . S
C1413 H1420 0.961 . S
C1413 H1421 0.960 . S
C1414 C1412 1.381 . S
C1414 C1415 1.394 . S
C1414 H1422 0.930 . S
C1415 C1414 1.394 . S
C1415 C1416 1.383 . S
C1415 H1423 0.929 . S
C1416 C1415 1.383 . S
C1416 C1417 1.377 . S
C1417 H1401 0.930 . S
C1417 C1416 1.377 . S
C1417 C1418 1.379 . S
C1418 H1402 0.931 . S
C1418 C1412 1.383 . S
C1418 C1417 1.379 . S
H1419 C1413 0.959 . S
H1420 C1413 0.961 . S
H1421 C1413 0.960 . S
H1422 C1414 0.930 . S
H1423 C1415 0.929 . S
H1424 C1432 0.929 . S
H1425 C1434 0.930 . S
H1426 C1436 0.930 . S
H1427 C1439 0.929 . S
H1428 C1442 0.930 . S
H1429 C1444 0.960 . S
H1430 C1444 0.960 . S
H1431 C1444 0.960 . S
C1432 H1424 0.929 . S
C1432 C1433 1.377 . S
C1432 C1434 1.384 . S
C1433 C1432 1.377 . S
C1433 C1439 1.390 . S
C1434 H1425 0.930 . S
C1434 C1432 1.384 . S
C1434 C1435 1.372 . S
C1435 C1434 1.372 . S
C1435 C1436 1.400 . S
C1435 C1440 1.490 . S
C1436 H1426 0.930 . S
C1436 C1435 1.400 . S
C1436 C1439 1.386 . S
H1437 C1453 0.930 . S
H1438 C1454 0.931 . S
C1439 H1427 0.929 . S
C1439 C1433 1.390 . S
C1439 C1436 1.386 . S
C1440 C1435 1.490 . S
C1440 C1442 1.395 . S
C1440 C1443 1.403 . S
H1441 C1447 0.930 . S
C1442 H1428 0.930 . S
C1442 C1440 1.395 . S
C1442 C1445 1.403 . S
C1443 C1440 1.403 . S
C1443 C1444 1.524 . S
C1443 C1447 1.400 . S
C1444 H1429 0.960 . S
C1444 H1430 0.960 . S
C1444 H1431 0.960 . S
C1444 C1443 1.524 . S
C1445 C1442 1.403 . S
C1445 C1446 1.392 . S
C1445 C1449 1.495 . S
C1446 C1445 1.392 . S
C1446 C1447 1.385 . S
C1446 C1448 1.478 . S
C1447 H1441 0.930 . S
C1447 C1443 1.400 . S
C1447 C1446 1.385 . S
C1448 C1446 1.478 . S
C1448 C1450 1.381 . S
C1448 C1454 1.383 . S
C1449 C1445 1.495 . S
C1449 H1455 0.959 . S
C1449 H1456 0.961 . S
C1449 H1457 0.960 . S
C1450 C1448 1.381 . S
C1450 C1451 1.394 . S
C1450 H1458 0.930 . S
C1451 C1450 1.394 . S
C1451 C1452 1.383 . S
C1451 H1459 0.929 . S
C1452 C1451 1.383 . S
C1452 C1453 1.377 . S
C1453 H1437 0.930 . S
C1453 C1452 1.377 . S
C1453 C1454 1.379 . S
C1454 H1438 0.931 . S
C1454 C1448 1.383 . S
C1454 C1453 1.379 . S
H1455 C1449 0.959 . S
H1456 C1449 0.961 . S
H1457 C1449 0.960 . S
H1458 C1450 0.930 . S
H1459 C1451 0.929 . S
C624 C328 1.529 . S
C605 C15 1.548 . S
C660 C381 1.551 . S
C641 C55 1.563 . S
C696 C342 1.586 . S
C677 C101 1.568 . S
C732 C367 1.602 . S
C713 C141 1.600 . S
C768 C413 1.516 . S
C749 C2 1.496 . S
C804 C459 1.521 . S
C785 C61 1.504 . S
C821 C95 1.621 . S
C840 C526 1.624 . S
C876 C558 1.518 . S
C857 C135 1.520 . S
C912 C427 1.508 . S
C893 C42 1.493 . S
C929 C82 1.517 . S
C948 C473 1.543 . S
C984 C512 1.600 . S
C965 C122 1.615 . S
C1020 C572 1.531 . S
C1001 C21 1.511 . S
C1037 C162 1.596 . S
C1056 C388 1.600 . S
C1092 C321 1.574 . S
C1073 C221 1.577 . S
C1109 C255 1.562 . S
C1128 C374 1.550 . S
C1145 C282 1.530 . S
C1164 C335 1.534 . S
C1200 C519 1.609 . S
C1181 C181 1.630 . S
C1236 C565 1.534 . S
C1217 C202 1.529 . S
C1272 C420 1.517 . S
C1253 C242 1.509 . S
C1289 C301 1.512 . S
C1308 C480 1.519 . S
C1344 C505 1.621 . S
C1325 C215 1.624 . S
C1380 C551 1.519 . S
C1361 C261 1.522 . S
C1416 C434 1.501 . S
C1397 C295 1.517 . S
C1433 C175 1.526 . S
C1452 C466 1.525 . S
