# Generated by pormake.
# Topology zzz, (3,6)-cn, num edge types: 1
# Building blocks:
#     Node 0, Type 0, BuildingBlock: ESEHIV_clean_linker_0, # of connection points: 3
#     Node 1, Type 0, BuildingBlock: ESEHIV_clean_linker_0, # of connection points: 3
#     Node 2, Type 0, BuildingBlock: ESEHIV_clean_linker_0, # of connection points: 3
#     Node 3, Type 0, BuildingBlock: ESEHIV_clean_linker_0, # of connection points: 3
#     Node 4, Type 0, BuildingBlock: ESEHIV_clean_linker_0, # of connection points: 3
#     Node 5, Type 0, BuildingBlock: ESEHIV_clean_linker_0, # of connection points: 3
#     Node 6, Type 0, BuildingBlock: ESEHIV_clean_linker_0, # of connection points: 3
#     Node 7, Type 0, BuildingBlock: ESEHIV_clean_linker_0, # of connection points: 3
#     Node 8, Type 1, BuildingBlock: BETGAK_clean_sbu_0, # of connection points: 6
#     Node 9, Type 1, BuildingBlock: BETGAK_clean_sbu_0, # of connection points: 6
#     Node 10, Type 1, BuildingBlock: BETGAK_clean_sbu_0, # of connection points: 6
#     Node 11, Type 1, BuildingBlock: BETGAK_clean_sbu_0, # of connection points: 6
#     Edge 12, Type (0, 1), BuildingBlock: TEMPAE_clean_linker_10, # of connection points: 2
#     Edge 13, Type (0, 1), BuildingBlock: TEMPAE_clean_linker_10, # of connection points: 2
#     Edge 14, Type (0, 1), BuildingBlock: TEMPAE_clean_linker_10, # of connection points: 2
#     Edge 15, Type (0, 1), BuildingBlock: TEMPAE_clean_linker_10, # of connection points: 2
#     Edge 16, Type (0, 1), BuildingBlock: TEMPAE_clean_linker_10, # of connection points: 2
#     Edge 17, Type (0, 1), BuildingBlock: TEMPAE_clean_linker_10, # of connection points: 2
#     Edge 18, Type (0, 1), BuildingBlock: TEMPAE_clean_linker_10, # of connection points: 2
#     Edge 19, Type (0, 1), BuildingBlock: TEMPAE_clean_linker_10, # of connection points: 2
#     Edge 20, Type (0, 1), BuildingBlock: TEMPAE_clean_linker_10, # of connection points: 2
#     Edge 21, Type (0, 1), BuildingBlock: TEMPAE_clean_linker_10, # of connection points: 2
#     Edge 22, Type (0, 1), BuildingBlock: TEMPAE_clean_linker_10, # of connection points: 2
#     Edge 23, Type (0, 1), BuildingBlock: TEMPAE_clean_linker_10, # of connection points: 2
#     Edge 24, Type (0, 1), BuildingBlock: TEMPAE_clean_linker_10, # of connection points: 2
#     Edge 25, Type (0, 1), BuildingBlock: TEMPAE_clean_linker_10, # of connection points: 2
#     Edge 26, Type (0, 1), BuildingBlock: TEMPAE_clean_linker_10, # of connection points: 2
#     Edge 27, Type (0, 1), BuildingBlock: TEMPAE_clean_linker_10, # of connection points: 2
#     Edge 28, Type (0, 1), BuildingBlock: TEMPAE_clean_linker_10, # of connection points: 2
#     Edge 29, Type (0, 1), BuildingBlock: TEMPAE_clean_linker_10, # of connection points: 2
#     Edge 30, Type (0, 1), BuildingBlock: TEMPAE_clean_linker_10, # of connection points: 2
#     Edge 31, Type (0, 1), BuildingBlock: TEMPAE_clean_linker_10, # of connection points: 2
#     Edge 32, Type (0, 1), BuildingBlock: TEMPAE_clean_linker_10, # of connection points: 2
#     Edge 33, Type (0, 1), BuildingBlock: TEMPAE_clean_linker_10, # of connection points: 2
#     Edge 34, Type (0, 1), BuildingBlock: TEMPAE_clean_linker_10, # of connection points: 2
#     Edge 35, Type (0, 1), BuildingBlock: TEMPAE_clean_linker_10, # of connection points: 2
# Relax obj value: 0.511
# Max RMSD: 0.262
# Mean RMSD: 0.254
data_MOF--net-zzz--node1-BETGAK_clean_sbu_0--node2-ESEHIV_clean_linker_0--edge1-TEMPAE_clean_linker_10
_symmetry_space_group_name_H-M    P1
_symmetry_Int_Tables_number       1
_symmetry_cell_setting            triclinic
loop_
_symmetry_equiv_pos_as_xyz
'x, y, z'
_cell_length_a     46.324609
_cell_length_b     46.340276
_cell_length_c     14.530083
_cell_angle_alpha  89.641631
_cell_angle_beta   89.8905
_cell_angle_gamma 90.221437
loop_
_atom_site_label
_atom_site_type_symbol
_atom_site_fract_x
_atom_site_fract_y
_atom_site_fract_z
_atom_type_partial_charge
H0 H 0.78277 0.4391 0.35364 0.0
H1 H 0.70734 0.45213 0.19063 0.0
H2 H 0.73221 0.51623 0.3904 0.0
C3 C 0.76349 0.4516 0.33996 0.0
C4 C 0.75948 0.478 0.38529 0.0
C5 C 0.745 0.44236 0.27 0.0
C6 C 0.72117 0.45908 0.24659 0.0
C7 C 0.71603 0.48558 0.28968 0.0
C8 C 0.73552 0.49542 0.35868 0.0
H9 H 0.94508 0.78085 0.33498 0.0
H10 H 0.95013 0.70147 0.18674 0.0
H11 H 1.00985 0.71859 0.40767 0.0
C12 C 0.95403 0.75943 0.32735 0.0
C13 C 0.97708 0.75152 0.38457 0.0
C14 C 0.9455 0.74246 0.25245 0.0
C15 C 0.95709 0.71484 0.24369 0.0
C16 C 0.98035 0.70579 0.29819 0.0
C17 C 0.9911 0.72466 0.36773 0.0
H18 H 0.72898 0.05409 0.32263 0.0
H19 H 0.80412 0.04849 0.1529 0.0
H20 H 0.80037 1.00106 0.41021 0.0
C21 C 0.75051 0.04562 0.31175 0.0
C22 C 0.76258 0.02717 0.37802 0.0
C23 C 0.76517 0.05309 0.23089 0.0
C24 C 0.79296 0.04273 0.21617 0.0
C25 C 0.80614 0.02403 0.27976 0.0
C26 C 0.79061 0.01563 0.36084 0.0
H27 H 0.58329 0.72613 0.37069 0.0
H28 H 0.52391 0.7928 0.44858 0.0
H29 H 0.58082 0.80496 0.21579 0.0
C30 C 0.57556 0.74804 0.36266 0.0
C31 C 0.58426 0.76424 0.28556 0.0
C32 C 0.55382 0.75759 0.42227 0.0
C33 C 0.54152 0.78532 0.40597 0.0
C34 C 0.55245 0.80318 0.33337 0.0
C35 C 0.57399 0.79235 0.27523 0.0
H36 H 0.23957 0.57234 0.13741 0.0
H37 H 0.31729 0.56624 0.29464 0.0
H38 H 0.28884 0.49365 0.13296 0.0
C39 C 0.25887 0.56042 0.15557 0.0
C40 C 0.26176 0.53187 0.12536 0.0
C41 C 0.27831 0.57257 0.21799 0.0
C42 C 0.30277 0.55706 0.244 0.0
C43 C 0.30742 0.52889 0.21209 0.0
C44 C 0.28647 0.51594 0.15348 0.0
H45 H 0.96313 0.21715 0.18708 0.0
H46 H 0.96589 0.29372 0.34877 0.0
H47 H 1.01062 0.29134 0.08703 0.0
C48 C 0.97054 0.23922 0.19535 0.0
C49 C 0.98751 0.25198 0.12614 0.0
C50 C 0.96285 0.25404 0.27509 0.0
C51 C 0.97175 0.28253 0.28611 0.0
C52 C 0.98882 0.29659 0.21932 0.0
C53 C 0.99738 0.28095 0.13912 0.0
H54 H 0.29446 0.07325 0.17799 0.0
H55 H 0.21327 0.07097 0.31944 0.0
H56 H 0.22749 0.01607 0.08493 0.0
C57 C 0.27221 0.066 0.18185 0.0
C58 C 0.2629 0.04518 0.11887 0.0
C59 C 0.25511 0.07424 0.25688 0.0
C60 C 0.22658 0.06449 0.26164 0.0
C61 C 0.21616 0.0436 0.20053 0.0
C62 C 0.23474 0.03316 0.12991 0.0
H63 H 0.55478 0.29255 0.19314 0.0
H64 H 0.5054 0.21754 0.11444 0.0
H65 H 0.55701 0.21702 0.36283 0.0
C66 C 0.54795 0.27041 0.20533 0.0
C67 C 0.55764 0.25621 0.2843 0.0
C68 C 0.52948 0.25704 0.14237 0.0
C69 C 0.52001 0.22826 0.16132 0.0
C70 C 0.53057 0.21328 0.24072 0.0
C71 C 0.54944 0.22772 0.3008 0.0
La72 La 0.02941 1.00031 0.7919 0.0
La73 La 0.98644 1.01248 0.66299 0.0
C74 C 0.05819 0.97832 0.92103 0.0
C75 C 0.05324 0.95026 0.96652 0.0
C76 C 0.05699 0.92459 0.91686 0.0
C77 C 0.04212 0.89973 0.94314 0.0
C78 C 0.02354 0.90027 0.01908 0.0
C79 C 0.0229 0.92453 0.07603 0.0
C80 C 0.03793 0.94941 0.05023 0.0
C81 C 0.05199 0.01965 0.63429 0.0
C82 C 1.00555 0.94944 0.66742 0.0
C83 C 0.9527 0.03132 0.54126 0.0
C84 C 0.92911 0.05212 0.54683 0.0
C85 C 0.9186 0.06092 0.63287 0.0
C86 C 0.89975 0.08429 0.63894 0.0
C87 C 0.8916 0.09952 0.55911 0.0
C88 C 0.9002 0.08867 0.47259 0.0
C89 C 0.91884 0.06521 0.46669 0.0
C90 C 0.96415 0.99475 0.82515 0.0
C91 C 1.01 0.06459 0.78737 0.0
O92 O 0.06635 0.97769 0.8349 0.0
O93 O 0.03743 0.99687 0.93329 0.0
O94 O 0.06034 0.02688 0.71588 0.0
O95 O 0.03119 1.00198 0.64246 0.0
O96 O 0.01346 0.95651 0.75212 0.0
O97 O 0.99893 0.97044 0.6099 0.0
O98 O 0.9485 1.00728 0.58645 0.0
O99 O 0.9785 0.04195 0.5556 0.0
O100 O 0.95459 0.98818 0.74475 0.0
O101 O 0.98513 1.01166 0.81212 0.0
O102 O 0.9957 0.05703 0.71217 0.0
O103 O 0.0238 0.04486 0.83576 0.0
H104 H 0.06911 0.92432 0.85305 0.0
H105 H 0.04357 0.88069 0.90064 0.0
H106 H 1.00895 0.92502 0.13596 0.0
H107 H 0.03507 0.96881 0.0905 0.0
H108 H 0.9262 0.05073 0.6956 0.0
H109 H 0.8932 0.09162 0.70642 0.0
H110 H 0.8948 0.09976 0.40918 0.0
H111 H 0.92662 0.05849 0.3998 0.0
La112 La 0.52438 0.02945 0.85313 0.0
La113 La 0.51173 0.9866 0.72438 0.0
C114 C 0.54363 0.06287 0.97451 0.0
C115 C 0.5645 0.08656 0.96763 0.0
C116 C 0.57308 0.09715 0.881 0.0
C117 C 0.59636 0.11628 0.87349 0.0
C118 C 0.6117 0.12467 0.95245 0.0
C119 C 0.60106 0.11597 0.03962 0.0
C120 C 0.57772 0.09702 0.04696 0.0
C121 C 0.50676 0.05226 0.69251 0.0
C122 C 0.57609 1.00583 0.72674 0.0
C123 C 0.48934 0.95784 0.59651 0.0
C124 C 0.46163 0.96331 0.55011 0.0
C125 C 0.43555 0.95857 0.59757 0.0
C126 C 0.41075 0.97326 0.57103 0.0
C127 C 0.41175 0.99265 0.49688 0.0
C128 C 0.43656 0.99442 0.44192 0.0
C129 C 0.46139 0.9796 0.46803 0.0
C130 C 0.53042 0.96408 0.88276 0.0
C131 C 0.46107 1.0111 0.84732 0.0
O132 O 0.51946 0.06707 0.93077 0.0
O133 O 0.55408 0.03713 0.95944 0.0
O134 O 0.50047 0.06162 0.77331 0.0
O135 O 0.52335 0.03101 0.70382 0.0
O136 O 0.56877 0.02007 0.80217 0.0
O137 O 0.55621 0.99215 0.679 0.0
O138 O 0.48799 0.95014 0.68311 0.0
O139 O 0.50877 0.97792 0.58342 0.0
O140 O 0.53772 0.95555 0.8014 0.0
O141 O 0.51302 0.9849 0.87386 0.0
O142 O 0.46829 1.00335 0.7627 0.0
O143 O 0.48196 0.01712 0.90554 0.0
H144 H 0.56277 0.08944 0.81888 0.0
H145 H 0.60352 0.12289 0.80555 0.0
H146 H 0.61223 0.12159 0.10241 0.0
H147 H 0.57115 0.0892 0.11431 0.0
H148 H 0.43481 0.94566 0.65995 0.0
H149 H 0.39134 0.97091 0.61192 0.0
H150 H 0.43745 1.00901 0.38339 0.0
H151 H 0.4811 0.98322 0.42924 0.0
La152 La 0.4933 0.5118 0.82924 0.0
La153 La 0.5295 0.49485 0.68427 0.0
C154 C 0.47251 0.5245 0.98308 0.0
C155 C 0.47757 0.55202 0.03017 0.0
C156 C 0.47318 0.57799 0.98154 0.0
C157 C 0.48883 0.60254 1.00445 0.0
C158 C 0.50867 0.60154 0.07674 0.0
C159 C 0.51036 0.57692 0.13291 0.0
C160 C 0.49474 0.55219 0.10982 0.0
C161 C 0.46455 0.50951 0.67144 0.0
C162 C 0.51612 0.56116 0.70621 0.0
C163 C 0.56031 0.48651 0.54422 0.0
C164 C 0.58424 0.46641 0.52835 0.0
C165 C 0.60461 0.46057 0.59773 0.0
C166 C 0.62419 0.43793 0.58782 0.0
C167 C 0.62375 0.42087 0.50834 0.0
C168 C 0.60478 0.42834 0.43629 0.0
C169 C 0.58503 0.45068 0.44675 0.0
C170 C 0.55684 0.49806 0.84479 0.0
C171 C 0.50585 0.44421 0.80369 0.0
O172 O 0.45764 0.52575 0.90681 0.0
O173 O 0.4958 0.50902 0.97315 0.0
O174 O 0.46076 0.52826 0.73562 0.0
O175 O 0.48335 0.49139 0.69791 0.0
O176 O 0.51027 0.55465 0.79287 0.0
O177 O 0.51917 0.53992 0.64672 0.0
O178 O 0.56521 0.50688 0.60385 0.0
O179 O 0.53491 0.47459 0.55617 0.0
O180 O 0.55998 0.47787 0.78509 0.0
O181 O 0.5389 0.5161 0.81352 0.0
O182 O 0.51795 0.45056 0.72369 0.0
O183 O 0.49581 0.46498 0.85678 0.0
H184 H 0.46002 0.57871 0.92004 0.0
H185 H 0.48691 0.62174 0.96198 0.0
H186 H 0.52546 0.57608 0.18971 0.0
H187 H 0.49849 0.53242 0.14813 0.0
H188 H 0.60448 0.47247 0.66163 0.0
H189 H 0.63851 0.43273 0.64435 0.0
H190 H 0.60343 0.41545 0.37453 0.0
H191 H 0.56942 0.45475 0.39279 0.0
La192 La 1.00756 0.48405 0.80982 0.0
La193 La 0.01802 0.52694 0.67611 0.0
C194 C 0.99105 0.45291 0.94336 0.0
C195 C 0.96713 0.43332 0.96453 0.0
C196 C 0.94466 0.4291 0.90144 0.0
C197 C 0.92024 0.41323 0.92734 0.0
C198 C 0.9181 0.40156 0.0166 0.0
C199 C 0.94167 0.40399 0.07682 0.0
C200 C 0.96604 0.41983 0.05092 0.0
C201 C 0.02222 0.46109 0.64715 0.0
C202 C 0.95475 0.50477 0.68598 0.0
C203 C 0.03398 0.55842 0.54276 0.0
C204 C 0.05693 0.57914 0.5209 0.0
C205 C 0.05724 0.59238 0.43404 0.0
C206 C 0.08104 0.6088 0.40628 0.0
C207 C 0.10482 0.61216 0.46525 0.0
C208 C 0.10339 0.60079 0.55508 0.0
C209 C 0.07956 0.58427 0.58273 0.0
C210 C 1.00292 0.54923 0.83858 0.0
C211 C 0.07128 0.5051 0.79807 0.0
O212 O 1.00876 0.44431 0.87955 0.0
O213 O 0.9844 0.48015 0.93368 0.0
O214 O 0.03039 0.45215 0.72717 0.0
O215 O 1.00582 0.48244 0.66021 0.0
O216 O 0.96246 0.49425 0.7673 0.0
O217 O 0.97485 0.51473 0.62975 0.0
O218 O 0.01532 0.56638 0.60481 0.0
O219 O 0.0421 0.53163 0.5545 0.0
O220 O 0.99377 0.5578 0.75914 0.0
O221 O 0.02004 0.52845 0.8255 0.0
O222 O 0.06314 0.51849 0.72147 0.0
O223 O 0.05178 0.49286 0.8517 0.0
H224 H 0.94541 0.43921 0.83403 0.0
H225 H 0.9022 0.41199 0.88018 0.0
H226 H 0.94045 0.39515 0.14587 0.0
H227 H 0.98344 0.42265 0.0999 0.0
H228 H 0.03974 0.58882 0.38597 0.0
H229 H 0.08169 0.61733 0.33668 0.0
H230 H 0.12161 0.60275 0.60129 0.0
H231 H 0.07946 0.57431 0.65037 0.0
C232 C 0.16262 0.04881 0.21229 0.0
C233 C 0.18711 0.03138 0.22378 0.0
C234 C 0.13745 0.04446 0.26572 0.0
C235 C 0.13672 0.02238 0.33382 0.0
C236 C 0.16047 1.00317 0.33991 0.0
C237 C 0.1853 1.00791 0.28506 0.0
C238 C 0.11275 0.06534 0.25522 0.0
C239 C 0.16092 0.97927 0.41085 0.0
C240 C 0.09719 0.03843 0.55938 0.0
C241 C 0.072 0.02159 0.55319 0.0
C242 C 0.11798 0.03898 0.48845 0.0
C243 C 0.11371 0.02239 0.4078 0.0
C244 C 0.08792 1.00588 0.39981 0.0
C245 C 0.06744 1.00561 0.47252 0.0
C246 C 0.14491 0.05702 0.50084 0.0
C247 C 0.08221 0.98808 0.31517 0.0
H248 H 0.16407 0.06746 0.16704 0.0
H249 H 0.20436 0.99487 0.29652 0.0
H250 H 0.09173 0.05381 0.25767 0.0
H251 H 0.11311 0.08085 0.31309 0.0
H252 H 0.11419 0.07774 0.18967 0.0
H253 H 0.1785 0.96358 0.39761 0.0
H254 H 0.16427 0.9887 0.48006 0.0
H255 H 0.14 0.96756 0.41221 0.0
H256 H 0.10099 0.05093 0.62103 0.0
H257 H 0.04812 0.99248 0.46687 0.0
H258 H 0.14697 0.07287 0.44365 0.0
H259 H 0.16427 0.043 0.49875 0.0
H260 H 0.14492 0.06893 0.56696 0.0
H261 H 0.08394 1.00177 0.25247 0.0
H262 H 0.06052 0.97777 0.31673 0.0
H263 H 0.09875 0.97094 0.30932 0.0
C264 C 0.49495 0.17649 0.30181 0.0
C265 C 0.52259 0.18297 0.26761 0.0
C266 C 0.49 0.15176 0.3576 0.0
C267 C 0.51333 0.13329 0.38138 0.0
C268 C 0.54063 0.13844 0.33991 0.0
C269 C 0.54482 0.16297 0.28348 0.0
C270 C 0.46028 0.14676 0.3972 0.0
C271 C 0.56633 0.1198 0.36256 0.0
C272 C 0.51357 0.10178 0.62565 0.0
C273 C 0.5081 0.07233 0.61155 0.0
C274 C 0.51532 0.1215 0.55165 0.0
C275 C 0.51061 0.11197 0.46024 0.0
C276 C 0.50447 0.08224 0.44557 0.0
C277 C 0.5038 0.06271 0.52115 0.0
C278 C 0.52271 0.15262 0.57155 0.0
C279 C 0.49849 0.07109 0.35019 0.0
H280 H 0.47771 0.1919 0.29119 0.0
H281 H 0.56632 0.16792 0.2581 0.0
H282 H 0.45459 0.12348 0.39585 0.0
H283 H 0.45993 0.15373 0.4701 0.0
H284 H 0.44357 0.15909 0.35906 0.0
H285 H 0.58462 0.1237 0.31439 0.0
H286 H 0.57373 0.12465 0.43344 0.0
H287 H 0.56049 0.0966 0.36056 0.0
H288 H 0.51715 0.10942 0.69511 0.0
H289 H 0.49936 0.04003 0.50973 0.0
H290 H 0.50496 0.16685 0.54808 0.0
H291 H 0.54244 0.15906 0.53299 0.0
H292 H 0.52645 0.15649 0.64597 0.0
H293 H 0.48147 0.08425 0.31672 0.0
H294 H 0.49148 0.04813 0.35101 0.0
H295 H 0.51821 0.07306 0.30718 0.0
C296 C 0.36075 0.52278 0.22965 0.0
C297 C 0.33274 0.51342 0.25229 0.0
C298 C 0.38444 0.51709 0.28792 0.0
C299 C 0.38008 0.50208 0.37231 0.0
C300 C 0.35225 0.49048 0.39145 0.0
C301 C 0.32898 0.4963 0.33141 0.0
C302 C 0.41356 0.52966 0.26318 0.0
C303 C 0.34631 0.47437 0.48003 0.0
C304 C 0.4443 0.48348 0.53106 0.0
C305 C 0.44411 0.50687 0.59209 0.0
C306 C 0.42385 0.48151 0.45867 0.0
C307 C 0.40267 0.50338 0.44706 0.0
C308 C 0.40279 0.52711 0.50814 0.0
C309 C 0.42336 0.52855 0.57901 0.0
C310 C 0.42475 0.45598 0.39498 0.0
C311 C 0.38093 0.5511 0.49925 0.0
H312 H 0.36374 0.53656 0.16975 0.0
H313 H 0.30733 0.48962 0.35069 0.0
H314 H 0.41741 0.54937 0.30443 0.0
H315 H 0.43108 0.51419 0.27934 0.0
H316 H 0.41491 0.53564 0.18911 0.0
H317 H 0.32537 0.46262 0.47793 0.0
H318 H 0.36378 0.45873 0.49491 0.0
H319 H 0.3456 0.48993 0.53775 0.0
H320 H 0.46025 0.46665 0.54024 0.0
H321 H 0.42303 0.54685 0.6251 0.0
H322 H 0.42696 0.46349 0.32264 0.0
H323 H 0.40418 0.44372 0.39992 0.0
H324 H 0.44288 0.44118 0.41118 0.0
H325 H 0.38268 0.56138 0.43029 0.0
H326 H 0.38385 0.56803 0.55224 0.0
H327 H 0.35875 0.54217 0.50574 0.0
C328 C 0.97444 0.34663 0.26358 0.0
C329 C 0.99669 0.32739 0.24017 0.0
C330 C 0.97966 0.37137 0.31721 0.0
C331 C 1.00811 0.3779 0.34645 0.0
C332 C 0.03112 0.36044 0.31375 0.0
C333 C 0.02514 0.3352 0.26229 0.0
C334 C 0.95427 0.38893 0.34978 0.0
C335 C 0.06195 0.36727 0.33868 0.0
C336 C 0.01851 0.44983 0.47625 0.0
C337 C 0.01923 0.44047 0.56838 0.0
C338 C 0.0161 0.42986 0.40285 0.0
C339 C 1.01302 0.39983 0.42187 0.0
C340 C 0.01326 0.39053 0.51514 0.0
C341 C 0.01689 0.41073 0.58639 0.0
C342 C 0.01669 0.44108 0.3052 0.0
C343 C 1.00891 0.35912 0.54027 0.0
H344 H 0.95236 0.34079 0.24704 0.0
H345 H 0.0425 0.32051 0.24553 0.0
H346 H 0.95265 0.38761 0.42593 0.0
H347 H 0.95739 0.41194 0.33103 0.0
H348 H 0.93353 0.38138 0.31989 0.0
H349 H 0.07749 0.35543 0.29463 0.0
H350 H 0.06619 0.39079 0.33195 0.0
H351 H 0.06589 0.36107 0.41143 0.0
H352 H 0.02033 0.47272 0.4614 0.0
H353 H 0.0171 0.40318 0.65715 0.0
H354 H 0.99428 0.44321 0.27947 0.0
H355 H 0.02832 0.42606 0.25902 0.0
H356 H 0.02713 0.46267 0.30074 0.0
H357 H 0.98826 0.35117 0.51105 0.0
H358 H 1.00853 0.35547 0.6159 0.0
H359 H 0.02649 0.34595 0.51038 0.0
C360 C 0.85761 0.03499 0.24151 0.0
C361 C 0.83586 0.01409 0.25436 0.0
C362 C 0.88159 0.02999 0.18381 0.0
C363 C 0.88433 1.00321 0.13786 0.0
C364 C 0.86403 0.98097 0.15841 0.0
C365 C 0.83992 0.98675 0.21546 0.0
C366 C 0.90225 0.05458 0.16473 0.0
C367 C 0.86638 0.95176 0.11398 0.0
C368 C 0.91545 1.00475 0.89317 0.0
C369 C 0.94429 0.99655 0.90621 0.0
C370 C 0.89608 1.0071 0.9677 0.0
C371 C 0.90528 1.00022 0.05837 0.0
C372 C 0.93435 0.99138 0.07181 0.0
C373 C 0.95361 0.99014 0.99591 0.0
C374 C 0.86572 0.01738 0.94921 0.0
C375 C 0.94506 0.98303 0.16619 0.0
H376 H 0.85444 0.05633 0.26993 0.0
H377 H 0.82306 0.97063 0.22331 0.0
H378 H 0.92491 0.04697 0.16476 0.0
H379 H 0.89775 0.06369 0.09542 0.0
H380 H 0.90009 0.07212 0.21607 0.0
H381 H 0.85272 0.93538 0.14959 0.0
H382 H 0.85927 0.95331 0.04126 0.0
H383 H 0.8891 0.94425 0.114 0.0
H384 H 0.9081 1.00995 0.82426 0.0
H385 H 0.97582 0.98363 1.00645 0.0
H386 H 0.86111 0.03683 0.99086 0.0
H387 H 0.84996 1.00047 0.97 0.0
H388 H 0.86217 0.02276 0.87549 0.0
H389 H 0.94405 1.00188 0.2127 0.0
H390 H 0.96762 0.97498 0.16461 0.0
H391 H 0.93094 0.966 0.19621 0.0
C392 C 0.51727 0.83294 0.24382 0.0
C393 C 0.54045 0.83188 0.3058 0.0
C394 C 0.51282 0.85719 0.18605 0.0
C395 C 0.53208 0.8811 0.18963 0.0
C396 C 0.55392 0.88113 0.25801 0.0
C397 C 0.55793 0.85656 0.31455 0.0
C398 C 0.48912 0.85598 0.11515 0.0
C399 C 0.57489 0.90598 0.26582 0.0
C400 C 0.54866 0.91917 0.96049 0.0
C401 C 0.53202 0.94439 0.965 0.0
C402 C 0.54897 0.89882 0.03307 0.0
C403 C 0.53227 0.90355 0.11355 0.0
C404 C 0.51589 0.92935 0.11965 0.0
C405 C 0.51593 0.9494 0.04547 0.0
C406 C 0.56694 0.8719 0.02276 0.0
C407 C 0.49793 0.93553 0.2039 0.0
H408 H 0.50419 0.81372 0.23446 0.0
H409 H 0.57637 0.85568 0.36033 0.0
H410 H 0.47743 0.87681 0.11173 0.0
H411 H 0.49873 0.85213 0.04631 0.0
H412 H 0.47337 0.83842 0.13008 0.0
H413 H 0.58721 0.90514 0.33129 0.0
H414 H 0.59047 0.90521 0.20778 0.0
H415 H 0.56344 0.92692 0.26147 0.0
H416 H 0.56124 0.91503 0.89903 0.0
H417 H 0.50293 0.96874 0.04986 0.0
H418 H 0.55284 0.85251 0.02643 0.0
H419 H 0.58266 0.87027 0.08006 0.0
H420 H 0.579 0.87151 0.95661 0.0
H421 H 0.48087 0.91882 0.21165 0.0
H422 H 0.4875 0.95706 0.20034 0.0
H423 H 0.51155 0.93452 0.26655 0.0
C424 C 0.66308 0.49554 0.28292 0.0
C425 C 0.69111 0.50241 0.25293 0.0
C426 C 0.63879 0.50081 0.22667 0.0
C427 C 0.64254 0.51261 0.137 0.0
C428 C 0.67049 0.52225 0.11054 0.0
C429 C 0.69435 0.517 0.16854 0.0
C430 C 0.60966 0.49089 0.26072 0.0
C431 C 0.67578 0.53531 0.01664 0.0
C432 C 0.59727 0.48041 0.94333 0.0
C433 C 0.57725 0.50223 0.92336 0.0
C434 C 0.61804 0.48354 0.01306 0.0
C435 C 0.61921 0.50927 0.06527 0.0
C436 C 0.59856 0.53123 0.04723 0.0
C437 C 0.57782 0.52746 0.97653 0.0
C438 C 0.63898 0.45918 0.03033 0.0
C439 C 0.59843 0.55867 0.10242 0.0
H440 H 0.66033 0.48368 0.34697 0.0
H441 H 0.71596 0.52176 0.14377 0.0
H442 H 0.59159 0.50159 0.22421 0.0
H443 H 0.60771 0.46723 0.25075 0.0
H444 H 0.60755 0.49531 0.33542 0.0
H445 H 0.69713 0.54626 0.01242 0.0
H446 H 0.67517 0.518 0.9642 0.0
H447 H 0.65869 0.5511 0.99909 0.0
H448 H 0.5969 0.46071 0.90347 0.0
H449 H 0.56231 0.54436 0.96224 0.0
H450 H 0.6371 0.45163 0.10274 0.0
H451 H 0.66146 0.46691 0.01984 0.0
H452 H 0.63515 0.44051 0.98427 0.0
H453 H 0.59614 0.55346 0.17675 0.0
H454 H 0.58063 0.57335 0.08185 0.0
H455 H 0.61929 0.5702 0.09343 0.0
C456 C 0.01605 0.67913 0.20154 0.0
C457 C 0.99416 0.67815 0.26851 0.0
C458 C 0.02107 0.6556 0.14196 0.0
C459 C 1.0037 0.63032 0.14864 0.0
C460 C 0.98347 0.62825 0.22195 0.0
C461 C 0.97885 0.65213 0.28025 0.0
C462 C 0.04313 0.65898 0.06618 0.0
C463 C 0.96463 0.60186 0.23353 0.0
C464 C 0.98444 0.5928 0.92199 0.0
C465 C 1.00251 0.56852 0.92145 0.0
C466 C 0.9846 0.61265 0.99528 0.0
C467 C 1.00336 0.60848 0.07133 0.0
C468 C 0.02149 0.58377 0.07197 0.0
C469 C 0.02078 0.56409 0.99744 0.0
C470 C 0.96477 0.63841 0.99059 0.0
C471 C 0.04172 0.57818 0.15127 0.0
H472 H 0.02743 0.69932 0.18987 0.0
H473 H 0.96137 0.65135 0.32995 0.0
H474 H 0.05612 0.63904 0.05919 0.0
H475 H 0.03189 0.66267 0.99979 0.0
H476 H 0.05792 0.67747 0.07861 0.0
H477 H 0.9536 0.60143 0.30149 0.0
H478 H 0.94793 0.60171 0.17887 0.0
H479 H 0.97754 0.58189 0.22627 0.0
H480 H 0.9702 0.59652 0.86405 0.0
H481 H 0.0349 0.54549 0.99799 0.0
H482 H 0.97765 0.65864 0.99207 0.0
H483 H 0.95027 0.63855 0.05146 0.0
H484 H 0.95129 0.63852 0.92744 0.0
H485 H 0.05523 0.59753 0.16461 0.0
H486 H 0.05611 0.5595 0.13845 0.0
H487 H 0.02902 0.57379 0.21464 0.0
C488 C 0.92152 0.2517 0.38755 0.0
C489 C 0.94586 0.23897 0.34724 0.0
C490 C 0.90368 0.23583 0.44791 0.0
C491 C 0.91016 0.20651 0.4662 0.0
C492 C 0.93575 0.19424 0.42944 0.0
C493 C 0.95337 0.2108 0.37171 0.0
C494 C 0.87759 0.25043 0.48848 0.0
C495 C 0.94415 0.16316 0.44716 0.0
C496 C 0.89347 0.14861 0.62859 0.0
C497 C 0.88079 0.12968 0.56486 0.0
C498 C 0.8976 0.17776 0.60556 0.0
C499 C 0.88983 0.18723 0.51655 0.0
C500 C 0.87045 0.17035 0.4642 0.0
C501 C 0.86562 0.14157 0.49029 0.0
C502 C 0.91532 0.19653 0.66835 0.0
C503 C 0.85949 0.18067 0.37216 0.0
H504 H 0.9158 0.27368 0.36945 0.0
H505 H 0.97274 0.20132 0.34298 0.0
H506 H 0.86048 0.25189 0.43535 0.0
H507 H 0.86881 0.23878 0.54937 0.0
H508 H 0.88311 0.27285 0.50883 0.0
H509 H 0.96417 0.15698 0.41008 0.0
H510 H 0.94783 0.15956 0.52172 0.0
H511 H 0.92661 0.14848 0.42479 0.0
H512 H 0.90407 0.14029 0.68956 0.0
H513 H 0.85384 0.12745 0.44435 0.0
H514 H 0.91108 0.21977 0.65549 0.0
H515 H 0.9386 0.1924 0.65619 0.0
H516 H 0.91053 0.19136 0.74154 0.0
H517 H 0.85262 0.20352 0.37612 0.0
H518 H 0.84103 0.16738 0.34789 0.0
H519 H 0.87712 0.17927 0.32051 0.0
C520 C 0.2948 0.10155 0.33326 0.0
C521 C 0.27 0.08422 0.34141 0.0
C522 C 0.31914 0.09536 0.38696 0.0
C523 C 0.31782 0.07189 0.44942 0.0
C524 C 0.29065 0.0604 0.47501 0.0
C525 C 0.26664 0.06711 0.4209 0.0
C526 C 0.34736 0.11012 0.36471 0.0
C527 C 0.28795 0.03668 0.54616 0.0
C528 C 0.37241 0.01338 0.40264 0.0
C529 C 0.38832 0.01341 0.48379 0.0
C530 C 0.34972 0.0328 0.39028 0.0
C531 C 0.34351 0.05327 0.46021 0.0
C532 C 0.36058 0.05416 0.54069 0.0
C533 C 0.3826 0.03384 0.55209 0.0
C534 C 0.33227 0.03096 0.30261 0.0
C535 C 0.35558 0.07599 0.61566 0.0
H536 H 0.29691 0.11621 0.27515 0.0
H537 H 0.24702 0.05469 0.43132 0.0
H538 H 0.36142 0.11118 0.4264 0.0
H539 H 0.35887 0.09768 0.31097 0.0
H540 H 0.34374 0.1323 0.33777 0.0
H541 H 0.26523 0.03366 0.56902 0.0
H542 H 0.2956 0.01609 0.5162 0.0
H543 H 0.30146 0.04144 0.60706 0.0
H544 H 0.37737 0.99771 0.34981 0.0
H545 H 0.39558 0.03406 0.61415 0.0
H546 H 0.33849 1.01225 0.25957 0.0
H547 H 0.33557 0.05088 0.26119 0.0
H548 H 0.30892 0.02902 0.31859 0.0
H549 H 0.37618 0.0817 0.6502 0.0
H550 H 0.34113 0.06644 0.6687 0.0
H551 H 0.34545 0.09603 0.5891 0.0
C552 C 0.60297 0.26336 0.37589 0.0
C553 C 0.57525 0.27245 0.35082 0.0
C554 C 0.62157 0.28193 0.42418 0.0
C555 C 0.61213 0.31014 0.44577 0.0
C556 C 0.58313 0.3182 0.42726 0.0
C557 C 0.56509 0.2991 0.38082 0.0
C558 C 0.65156 0.27162 0.44689 0.0
C559 C 0.57149 0.34781 0.44981 0.0
C560 C 0.63269 0.37308 0.58153 0.0
C561 C 0.63754 0.39205 0.5072 0.0
C562 C 0.63059 0.34329 0.56647 0.0
C563 C 0.63253 0.33304 0.47536 0.0
C564 C 0.64454 0.35113 0.40625 0.0
C565 C 0.64718 0.38073 0.42343 0.0
C566 C 0.62086 0.32383 0.64411 0.0
C567 C 0.64921 0.34048 0.30955 0.0
H568 H 0.61064 0.24245 0.35357 0.0
H569 H 0.54333 0.30565 0.36304 0.0
H570 H 0.66501 0.2722 0.38362 0.0
H571 H 0.66216 0.28495 0.50036 0.0
H572 H 0.65082 0.24884 0.47105 0.0
H573 H 0.54843 0.35028 0.43051 0.0
H574 H 0.5734 0.352 0.52455 0.0
H575 H 0.58408 0.36459 0.41248 0.0
H576 H 0.62636 0.38146 0.64803 0.0
H577 H 0.65254 0.39533 0.36723 0.0
H578 H 0.62827 0.30135 0.6332 0.0
H579 H 0.59692 0.32367 0.64759 0.0
H580 H 0.62913 0.3317 0.71118 0.0
H581 H 0.66291 0.3556 0.26871 0.0
H582 H 0.62803 0.33834 0.27453 0.0
H583 H 0.65956 0.31896 0.31051 0.0
C584 C 0.26086 0.59098 0.36605 0.0
C585 C 0.26798 0.59692 0.27415 0.0
C586 C 0.2379 0.60535 0.40832 0.0
C587 C 0.2226 0.62651 0.35758 0.0
C588 C 0.23445 0.63719 0.27426 0.0
C589 C 0.25665 0.62163 0.23155 0.0
C590 C 0.22705 0.59435 0.50011 0.0
C591 C 0.22077 0.6621 0.22378 0.0
C592 C 0.14377 0.60674 0.35101 0.0
C593 C 0.13298 0.62144 0.42729 0.0
C594 C 0.17257 0.60974 0.32419 0.0
C595 C 0.19097 0.62879 0.37325 0.0
C596 C 0.1794 0.64587 0.4449 0.0
C597 C 0.15059 0.64148 0.47265 0.0
C598 C 0.18366 0.59044 0.24837 0.0
C599 C 0.19734 0.66781 0.49564 0.0
H600 H 0.27008 0.57223 0.39984 0.0
H601 H 0.26274 0.62677 0.16124 0.0
H602 H 0.2227 0.61265 0.54676 0.0
H603 H 0.2065 0.58236 0.49032 0.0
H604 H 0.24278 0.57971 0.53398 0.0
H605 H 0.23684 0.67344 0.17956 0.0
H606 H 0.20326 0.65398 0.17874 0.0
H607 H 0.21123 0.67769 0.27288 0.0
H608 H 0.13021 0.59104 0.31654 0.0
H609 H 0.14211 0.65309 0.53128 0.0
H610 H 0.201 0.57628 0.2753 0.0
H611 H 0.19284 0.60357 0.1914 0.0
H612 H 0.16644 0.57656 0.21913 0.0
H613 H 0.2181 0.67272 0.46061 0.0
H614 H 0.20181 0.65973 0.56624 0.0
H615 H 0.18499 0.68816 0.503 0.0
C616 C 0.94885 0.75509 0.0877 0.0
C617 C 0.93323 0.75734 0.1704 0.0
C618 C 0.95457 0.77981 0.03499 0.0
C619 C 0.94338 0.80647 0.06497 0.0
C620 C 0.92075 0.80665 0.13028 0.0
C621 C 0.9156 0.78161 0.18264 0.0
C622 C 0.97731 0.77828 0.96063 0.0
C623 C 0.906 0.83431 0.15658 0.0
C624 C 1.00291 0.86033 0.11196 0.0
C625 C 1.00239 0.87705 0.03217 0.0
C626 C 0.98322 0.83772 0.12414 0.0
C627 C 0.96202 0.83235 0.05537 0.0
C628 C 0.96074 0.85017 0.97617 0.0
C629 C 0.9812 0.87228 0.96523 0.0
C630 C 0.98564 0.8194 0.21022 0.0
C631 C 0.93759 0.84662 0.90409 0.0
H632 H 0.96123 0.73584 0.07338 0.0
H633 H 0.90177 0.78282 0.2428 0.0
H634 H 0.97244 0.79334 0.90321 0.0
H635 H 0.99852 0.78455 0.98998 0.0
H636 H 0.97921 0.75609 0.93277 0.0
H637 H 0.88427 0.82998 0.18612 0.0
H638 H 0.91908 0.84556 0.20943 0.0
H639 H 0.90391 0.84891 0.09608 0.0
H640 H 0.01918 0.86458 0.16378 0.0
H641 H 0.98053 0.88606 0.90462 0.0
H642 H 0.9875 0.79627 0.19209 0.0
H643 H 0.96601 0.82213 0.25298 0.0
H644 H 1.00464 0.82531 0.2528 0.0
H645 H 0.93106 0.82376 0.89525 0.0
H646 H 0.94469 0.85545 0.83644 0.0
H647 H 0.91819 0.85877 0.92603 0.0
C648 C 0.72184 0.06361 0.13761 0.0
C649 C 0.75027 0.07064 0.16029 0.0
C650 C 0.70554 0.08143 0.08047 0.0
C651 C 0.71828 0.10681 0.04258 0.0
C652 C 0.74778 0.11291 0.05949 0.0
C653 C 0.76344 0.09481 0.11916 0.0
C654 C 0.67425 0.07341 0.06442 0.0
C655 C 0.76282 0.13883 0.01802 0.0
C656 C 0.6607 0.12326 0.88102 0.0
C657 C 0.64181 0.13587 0.94508 0.0
C658 C 0.68984 0.11928 0.90333 0.0
C659 C 0.69936 0.12721 0.99188 0.0
C660 C 0.6826 0.14665 0.04399 0.0
C661 C 0.65378 0.15125 0.01876 0.0
C662 C 0.70847 0.10142 0.84071 0.0
C663 C 0.69301 0.15784 0.13529 0.0
H664 H 0.71201 0.04437 0.16707 0.0
H665 H 0.78563 0.10011 0.1359 0.0
H666 H 0.65999 0.09106 0.08783 0.0
H667 H 0.67034 0.06992 0.99006 0.0
H668 H 0.66778 0.0534 0.10173 0.0
H669 H 0.78521 0.13317 0.99761 0.0
H670 H 0.75137 0.14758 0.95701 0.0
H671 H 0.7644 0.15602 0.07062 0.0
H672 H 0.65231 0.11254 0.82063 0.0
H673 H 0.6397 0.16297 0.0649 0.0
H674 H 0.70408 0.07817 0.85364 0.0
H675 H 0.73176 0.10561 0.85293 0.0
H676 H 0.70337 0.1061 0.76749 0.0
H677 H 0.69113 0.14045 0.18791 0.0
H678 H 0.68006 0.17656 0.1586 0.0
H679 H 0.71602 0.16437 0.13079 0.0
C680 C 0.57914 0.74968 0.12366 0.0
C681 C 0.5956 0.74842 0.20471 0.0
C682 C 0.57371 0.72448 0.07397 0.0
C683 C 0.58575 0.6983 0.10582 0.0
C684 C 0.60872 0.69905 0.16955 0.0
C685 C 0.61364 0.72453 0.21873 0.0
C686 C 0.5506 0.72493 1.0009 0.0
C687 C 0.62419 0.67188 0.19775 0.0
C688 C 0.52867 0.64258 0.16395 0.0
C689 C 0.52957 0.62506 0.08669 0.0
C690 C 0.54724 0.66629 0.17108 0.0
C691 C 0.56781 0.67186 0.10011 0.0
C692 C 0.5694 0.65335 0.02325 0.0
C693 C 0.54998 0.6302 0.01716 0.0
C694 C 0.54427 0.68555 0.25415 0.0
C695 C 0.59162 0.65733 0.94808 0.0
H696 H 0.56618 0.76856 0.10872 0.0
H697 H 0.62781 0.72403 0.27804 0.0
H698 H 0.55577 0.70976 0.94456 0.0
H699 H 0.52974 0.71808 0.03199 0.0
H700 H 0.54783 0.74691 0.97126 0.0
H701 H 0.64592 0.67685 0.22582 0.0
H702 H 0.61154 0.66064 0.25226 0.0
H703 H 0.6264 0.65702 0.13852 0.0
H704 H 0.51283 0.63821 0.21737 0.0
H705 H 0.55073 0.61603 0.95804 0.0
H706 H 0.54251 0.70848 0.23285 0.0
H707 H 0.56363 0.68323 0.29823 0.0
H708 H 0.52497 0.68012 0.2964 0.0
H709 H 0.5991 0.67999 0.94103 0.0
H710 H 0.58302 0.65005 0.88072 0.0
H711 H 0.61066 0.6438 0.96462 0.0
C712 C 0.76556 0.39335 0.24537 0.0
C713 C 0.75519 0.41932 0.20834 0.0
C714 C 0.78742 0.37814 0.19991 0.0
C715 C 0.79967 0.39019 0.11912 0.0
C716 C 0.78517 0.4129 0.07293 0.0
C717 C 0.7627 0.42711 0.11817 0.0
C718 C 0.80054 0.3521 0.24591 0.0
C719 C 0.79674 0.42581 0.98454 0.0
C720 C 0.87896 0.40746 0.12978 0.0
C721 C 0.88953 0.39298 0.05275 0.0
C722 C 0.84999 0.40525 0.15519 0.0
C723 C 0.83118 0.38733 0.10353 0.0
C724 C 0.84233 0.37058 0.03054 0.0
C725 C 0.87145 0.37396 1.0049 0.0
C726 C 0.8393 0.42398 0.23316 0.0
C727 C 0.82361 0.34942 0.97906 0.0
H728 H 0.75908 0.38684 0.31421 0.0
H729 H 0.75424 0.44691 0.0887 0.0
H730 H 0.80929 0.33697 0.194 0.0
H731 H 0.81859 0.35904 0.29084 0.0
H732 H 0.78439 0.34063 0.28946 0.0
H733 H 0.78052 0.43977 0.95012 0.0
H734 H 0.81606 0.43917 0.99999 0.0
H735 H 0.80339 0.4087 0.93601 0.0
H736 H 0.89292 0.42233 0.16628 0.0
H737 H 0.8799 0.36242 0.9461 0.0
H738 H 0.82981 0.41035 0.28847 0.0
H739 H 0.82225 0.4388 0.20803 0.0
H740 H 0.85678 0.43723 0.26398 0.0
H741 H 0.82089 0.32968 0.02187 0.0
H742 H 0.83348 0.34311 0.91245 0.0
H743 H 0.80175 0.35818 0.96589 0.0
C744 C 0.02145 0.22347 0.0233 0.0
C745 C 0.99349 0.23321 0.0437 0.0
C746 C 0.02592 0.19861 0.96829 0.0
C747 C 1.00194 0.1824 0.93522 0.0
C748 C 0.97384 0.19347 0.95023 0.0
C749 C 0.97009 0.21882 1.00212 0.0
C750 C 0.05636 0.18871 0.95042 0.0
C751 C 0.94737 0.17706 0.91952 0.0
C752 C 1.00658 0.11903 0.76387 0.0
C753 C 1.00877 0.095 0.823 0.0
C754 C 1.00553 0.14758 0.79865 0.0
C755 C 1.00567 0.15242 0.89528 0.0
C756 C 1.00748 0.12809 0.95492 0.0
C757 C 1.00956 0.1 0.91828 0.0
C758 C 1.00469 0.1726 0.73181 0.0
C759 C 1.00635 0.13159 0.05813 0.0
H760 H 0.03973 0.23403 0.05533 0.0
H761 H 0.94836 0.22598 0.01756 0.0
H762 H 0.06142 0.17016 0.99613 0.0
H763 H 0.05875 0.18135 0.87825 0.0
H764 H 0.07235 0.20611 0.96364 0.0
H765 H 0.92744 0.1902 0.92508 0.0
H766 H 0.94966 0.16972 0.84744 0.0
H767 H 0.94472 0.15751 0.96333 0.0
H768 H 1.00618 0.11555 0.69019 0.0
H769 H 1.01092 0.08169 0.96489 0.0
H770 H 0.02495 0.1853 0.738 0.0
H771 H 0.98662 0.18731 0.74837 0.0
H772 H 1.00239 0.1654 0.6594 0.0
H773 H 0.02478 0.14499 0.0815 0.0
H774 H 1.00703 0.11057 0.09521 0.0
H775 H 0.98625 0.14298 0.07793 0.0
C776 C 0.2979 1.00777 0.05991 0.0
C777 C 0.28528 0.03515 0.05109 0.0
C778 C 0.32497 1.00153 0.01889 0.0
C779 C 0.34021 0.02328 0.96889 0.0
C780 C 0.32662 0.05035 0.95525 0.0
C781 C 0.2995 0.05583 0.99582 0.0
C782 C 0.33808 0.97216 0.03409 0.0
C783 C 0.34175 0.07453 0.9042 0.0
C784 C 0.42323 0.0225 0.96749 0.0
C785 C 0.42998 0.01339 0.87775 0.0
C786 C 0.39438 0.02543 0.99786 0.0
C787 C 0.37116 0.01886 0.9378 0.0
C788 C 0.37773 1.00948 0.84727 0.0
C789 C 0.40689 1.00688 0.81846 0.0
C790 C 0.38878 0.0359 0.09447 0.0
C791 C 0.35384 1.0021 0.78095 0.0
H792 H 0.28763 0.99186 0.10423 0.0
H793 H 0.2903 0.07725 0.9901 0.0
H794 H 0.3474 0.96386 0.96906 0.0
H795 H 0.35588 0.97385 0.08475 0.0
H796 H 0.32199 0.95634 0.06071 0.0
H797 H 0.32683 0.09246 0.88688 0.0
H798 H 0.35936 0.0832 0.94786 0.0
H799 H 0.35174 0.0666 0.83979 0.0
H800 H 0.44061 0.02765 0.01448 0.0
H801 H 0.4116 0.99982 0.74925 0.0
H802 H 0.37732 0.01891 0.13445 0.0
H803 H 0.37465 0.05518 0.09284 0.0
H804 H 0.40901 0.04151 0.13132 0.0
H805 H 0.34201 0.98278 0.80652 0.0
H806 H 0.36205 0.99763 0.71084 0.0
H807 H 0.33807 0.02 0.77639 0.0
C808 C 0.54374 0.28789 1.0079 0.0
C809 C 0.52138 0.2751 0.05999 0.0
C810 C 0.53938 0.31322 0.95547 0.0
C811 C 0.51162 0.32594 0.95162 0.0
C812 C 0.48826 0.3113 0.99563 0.0
C813 C 0.49345 0.28639 0.05041 0.0
C814 C 0.5652 0.32783 0.91161 0.0
C815 C 0.458 0.32301 0.98974 0.0
C816 C 0.50849 0.4086 0.93472 0.0
C817 C 0.50571 0.41373 0.83974 0.0
C818 C 0.51026 0.38036 0.97128 0.0
C819 C 0.50806 0.35612 0.91233 0.0
C820 C 0.50426 0.36114 0.81641 0.0
C821 C 0.50383 0.38977 0.78118 0.0
C822 C 0.51551 0.37655 0.0732 0.0
C823 C 0.50102 0.33638 0.75032 0.0
H824 H 0.56546 0.27956 0.01543 0.0
H825 H 0.47606 0.27707 0.09093 0.0
H826 H 0.56091 0.33265 0.83812 0.0
H827 H 0.56937 0.34871 0.94635 0.0
H828 H 0.585 0.31446 0.91626 0.0
H829 H 0.44169 0.30675 1.01195 0.0
H830 H 0.45602 0.34215 0.0347 0.0
H831 H 0.4531 0.33002 0.91827 0.0
H832 H 0.51037 0.42685 0.98069 0.0
H833 H 0.50165 0.39337 0.70774 0.0
H834 H 0.53563 0.36408 0.08443 0.0
H835 H 0.49756 0.36408 0.10492 0.0
H836 H 0.51749 0.39749 0.10948 0.0
H837 H 0.49049 0.34334 0.68527 0.0
H838 H 0.48817 0.31854 0.7814 0.0
H839 H 0.52264 0.32779 0.73283 0.0
C840 C 0.20881 0.52159 0.11494 0.0
C841 C 0.23637 0.51935 0.07486 0.0
C842 C 0.1834 0.51729 0.0637 0.0
C843 C 0.18518 0.50995 0.96931 0.0
C844 C 0.21296 0.50571 0.92972 0.0
C845 C 0.23821 0.51073 0.9826 0.0
C846 C 0.15463 0.52235 0.10983 0.0
C847 C 0.21605 0.49687 0.83052 0.0
C848 C 0.11357 0.48116 0.87443 0.0
C849 C 0.102 0.50547 0.82982 0.0
C850 C 0.14137 0.4817 0.9141 0.0
C851 C 0.15784 0.50757 0.91297 0.0
C852 C 0.14649 0.53204 0.86596 0.0
C853 C 0.119 0.53054 0.82369 0.0
C854 C 0.15264 0.45479 0.96051 0.0
C855 C 0.16268 0.56034 0.86465 0.0
H856 H 0.20712 0.52831 0.18609 0.0
H857 H 0.2593 0.50926 0.95054 0.0
H858 H 0.14483 0.54232 0.08133 0.0
H859 H 0.13947 0.50433 0.09603 0.0
H860 H 0.15671 0.52472 0.18555 0.0
H861 H 0.23858 0.49079 0.81328 0.0
H862 H 0.20156 0.47838 0.81537 0.0
H863 H 0.20954 0.51501 0.785 0.0
H864 H 0.10066 0.46164 0.87919 0.0
H865 H 0.11016 0.54951 0.79023 0.0
H866 H 0.15272 0.45779 0.03619 0.0
H867 H 0.17522 0.45063 0.93887 0.0
H868 H 0.13926 0.43552 0.94456 0.0
H869 H 0.16428 0.56878 0.93581 0.0
H870 H 0.15194 0.57682 0.82082 0.0
H871 H 0.185 0.55716 0.83908 0.0
C872 C 0.01355 0.78816 0.44349 0.0
C873 C 0.98673 0.77413 0.45256 0.0
C874 C 0.01903 0.81506 0.48676 0.0
C875 C 0.99705 0.8288 0.53902 0.0
C876 C 0.97065 0.81377 0.55284 0.0
C877 C 0.96598 0.78679 0.5105 0.0
C878 C 0.04793 0.82948 0.47268 0.0
C879 C 0.94648 0.82705 0.60782 0.0
C880 C 1.01117 0.89514 0.69379 0.0
C881 C 1.004 0.91841 0.63564 0.0
C882 C 1.00945 0.86607 0.66366 0.0
C883 C 1.0004 0.85971 0.57243 0.0
C884 C 0.99303 0.88315 0.51364 0.0
C885 C 0.99504 0.9119 0.5455 0.0
C886 C 0.01791 0.8423 0.72963 0.0
C887 C 0.98246 0.87788 0.41687 0.0
H888 H 0.0296 0.77908 0.39779 0.0
H889 H 0.94506 0.77641 0.51744 0.0
H890 H 0.04548 0.84825 0.42565 0.0
H891 H 0.05631 0.83768 0.53914 0.0
H892 H 0.06404 0.81455 0.44252 0.0
H893 H 0.92768 0.81227 0.61549 0.0
H894 H 0.95427 0.83297 0.67734 0.0
H895 H 0.93917 0.84718 0.5734 0.0
H896 H 0.0181 0.89961 0.76325 0.0
H897 H 0.98931 0.92939 0.49929 0.0
H898 H 0.04073 0.83637 0.71648 0.0
H899 H 1.00453 0.82264 0.7205 0.0
H900 H 0.01599 0.84928 0.80228 0.0
H901 H 0.99951 0.86704 0.37624 0.0
H902 H 0.97641 0.89817 0.38078 0.0
H903 H 0.9634 0.86328 0.41832 0.0
C904 C 0.73061 0.04439 0.50573 0.0
C905 C 0.74396 0.02101 0.46127 0.0
C906 C 0.70546 0.04082 0.55948 0.0
C907 C 0.6936 1.01288 0.57348 0.0
C908 C 0.70886 0.9888 0.53757 0.0
C909 C 0.73352 0.99314 0.48078 0.0
C910 C 0.69001 0.06742 0.59298 0.0
C911 C 0.69807 0.95848 0.55412 0.0
C912 C 0.63062 1.00821 0.7479 0.0
C913 C 0.60642 1.007 0.68984 0.0
C914 C 0.6591 1.00892 0.71166 0.0
C915 C 0.66366 1.00953 0.61479 0.0
C916 C 0.63915 1.00878 0.55629 0.0
C917 C 0.61112 1.00695 0.59427 0.0
C918 C 0.68435 1.00868 0.77707 0.0
C919 C 0.64242 1.01072 0.45299 0.0
H920 H 0.7384 0.06605 0.49127 0.0
H921 H 0.74334 0.97488 0.44672 0.0
H922 H 0.67048 0.07096 0.55029 0.0
H923 H 0.68272 0.06471 0.6652 0.0
H924 H 0.70382 0.08702 0.58824 0.0
H925 H 0.71499 0.94223 0.53915 0.0
H926 H 0.69077 0.95571 0.62646 0.0
H927 H 0.67931 0.95416 0.5089 0.0
H928 H 0.62733 1.00804 0.82177 0.0
H929 H 0.59266 1.00634 0.54858 0.0
H930 H 0.69833 0.02781 0.76507 0.0
H931 H 0.69775 0.98931 0.76418 0.0
H932 H 0.67738 1.00849 0.85028 0.0
H933 H 0.65444 0.03066 0.43402 0.0
H934 H 0.62127 1.01092 0.41704 0.0
H935 H 0.6551 0.99216 0.42753 0.0
C936 C 0.56366 0.72179 0.54869 0.0
C937 C 0.5433 0.73578 0.49226 0.0
C938 C 0.55772 0.69498 0.59159 0.0
C939 C 0.53039 0.6816 0.57993 0.0
C940 C 0.50891 0.69674 0.52927 0.0
C941 C 0.51566 0.72341 0.48547 0.0
C942 C 0.58168 0.67984 0.64271 0.0
C943 C 0.47924 0.68394 0.51638 0.0
C944 C 0.52786 0.59857 0.58393 0.0
C945 C 0.51914 0.5921 0.67454 0.0
C946 C 0.53137 0.62733 0.55269 0.0
C947 C 0.52555 0.65075 0.61252 0.0
C948 C 0.5164 0.64439 0.70392 0.0
C949 C 0.51353 0.61533 0.73383 0.0
C950 C 0.54142 0.63254 0.45505 0.0
C951 C 0.50968 0.66833 0.77046 0.0
H952 H 0.58523 0.73083 0.55333 0.0
H953 H 0.49992 0.73351 0.44068 0.0
H954 H 0.57406 0.67213 0.71093 0.0
H955 H 0.58855 0.66062 0.60319 0.0
H956 H 0.60078 0.69404 0.6529 0.0
H957 H 0.46358 0.70023 0.49092 0.0
H958 H 0.48036 0.66623 0.46554 0.0
H959 H 0.47106 0.67462 0.58203 0.0
H960 H 0.5323 0.58104 0.53703 0.0
H961 H 0.5068 0.61081 0.80386 0.0
H962 H 0.55951 0.64832 0.45329 0.0
H963 H 0.52344 0.64177 0.41432 0.0
H964 H 0.54858 0.61238 0.42107 0.0
H965 H 0.52961 0.6807 0.7859 0.0
H966 H 0.50059 0.66004 0.83634 0.0
H967 H 0.49408 0.6836 0.73912 0.0
C968 C 0.79622 0.51392 0.44843 0.0
C969 C 0.78259 0.4868 0.45303 0.0
C970 C 0.82251 0.51925 0.49559 0.0
C971 C 0.83602 0.49679 0.54683 0.0
C972 C 0.82137 0.47003 0.55612 0.0
C973 C 0.79477 0.46569 0.51131 0.0
C974 C 0.83657 0.54852 0.48654 0.0
C975 C 0.83484 0.44505 0.60741 0.0
C976 C 0.91879 0.49599 0.55987 0.0
C977 C 0.92423 0.50271 0.65239 0.0
C978 C 0.8904 0.49399 0.52523 0.0
C979 C 0.86649 0.50002 0.58317 0.0
C980 C 0.8719 0.50747 0.67639 0.0
C981 C 0.90058 0.50812 0.71029 0.0
C982 C 0.88603 0.48474 0.42672 0.0
C983 C 0.84739 0.51499 0.74025 0.0
H984 H 0.78729 0.53045 0.4039 0.0
H985 H 0.78431 0.44478 0.5171 0.0
H986 H 0.84473 0.55588 0.55426 0.0
H987 H 0.85532 0.54715 0.43924 0.0
H988 H 0.8214 0.56493 0.4589 0.0
H989 H 0.82003 0.4262 0.61301 0.0
H990 H 0.85471 0.43817 0.57097 0.0
H991 H 0.84127 0.45162 0.67767 0.0
H992 H 0.93687 0.49158 0.51465 0.0
H993 H 0.90455 0.5136 0.78158 0.0
H994 H 0.87471 0.50191 0.38766 0.0
H995 H 0.87221 0.46514 0.42468 0.0
H996 H 0.90674 0.47999 0.3913 0.0
H997 H 0.85519 0.52302 0.80769 0.0
H998 H 0.83363 0.49572 0.75262 0.0
H999 H 0.83355 0.53175 0.70812 0.0
loop_
_geom_bond_atom_site_label_1
_geom_bond_atom_site_label_2
_geom_bond_distance
_geom_bond_site_symmetry_2
_ccdc_geom_bond_type
H0 C3 0.931 . S
H1 C6 0.928 . S
H2 C8 0.930 . S
C3 H0 0.931 . S
C3 C4 1.413 . S
C3 C5 1.360 . S
C4 C3 1.413 . S
C4 C8 1.429 . S
C5 C3 1.360 . S
C5 C6 1.372 . S
C6 H1 0.928 . S
C6 C5 1.372 . S
C6 C7 1.404 . S
C7 C6 1.404 . S
C7 C8 1.391 . S
C8 H2 0.930 . S
C8 C4 1.429 . S
C8 C7 1.391 . S
H9 C12 0.931 . S
H10 C15 0.928 . S
H11 C17 0.930 . S
C12 H9 0.931 . S
C12 C13 1.413 . S
C12 C14 1.360 . S
C13 C12 1.413 . S
C13 C17 1.429 1_655 S
C14 C12 1.360 . S
C14 C15 1.372 . S
C15 H10 0.928 . S
C15 C14 1.372 . S
C15 C16 1.404 . S
C16 C15 1.404 . S
C16 C17 1.390 1_655 S
C17 H11 0.930 . S
C17 C13 1.429 1_455 S
C17 C16 1.390 1_455 S
H18 C21 0.931 . S
H19 C24 0.928 . S
H20 C26 0.930 . S
C21 H18 0.931 . S
C21 C22 1.413 . S
C21 C23 1.360 . S
C22 C21 1.413 . S
C22 C26 1.429 1_565 S
C23 C21 1.360 . S
C23 C24 1.372 . S
C24 H19 0.928 . S
C24 C23 1.372 . S
C24 C25 1.404 . S
C25 C24 1.404 . S
C25 C26 1.390 1_565 S
C26 H20 0.930 . S
C26 C22 1.429 1_545 S
C26 C25 1.390 1_545 S
H27 C30 0.931 . S
H28 C33 0.928 . S
H29 C35 0.930 . S
C30 H27 0.931 . S
C30 C31 1.413 . S
C30 C32 1.360 . S
C31 C30 1.413 . S
C31 C35 1.429 . S
C32 C30 1.360 . S
C32 C33 1.372 . S
C33 H28 0.928 . S
C33 C32 1.372 . S
C33 C34 1.404 . S
C34 C33 1.404 . S
C34 C35 1.391 . S
C35 H29 0.930 . S
C35 C31 1.429 . S
C35 C34 1.391 . S
H36 C39 0.931 . S
H37 C42 0.928 . S
H38 C44 0.930 . S
C39 H36 0.931 . S
C39 C40 1.413 1_554 S
C39 C41 1.360 . S
C40 C39 1.413 1_556 S
C40 C44 1.429 . S
C41 C39 1.360 . S
C41 C42 1.372 . S
C42 H37 0.928 . S
C42 C41 1.372 . S
C42 C43 1.404 . S
C43 C42 1.404 . S
C43 C44 1.391 1_554 S
C44 H38 0.930 . S
C44 C40 1.429 . S
C44 C43 1.391 1_556 S
H45 C48 0.931 . S
H46 C51 0.928 . S
H47 C53 0.930 . S
C48 H45 0.931 . S
C48 C49 1.413 1_554 S
C48 C50 1.360 . S
C49 C48 1.413 1_556 S
C49 C53 1.429 1_655 S
C50 C48 1.360 . S
C50 C51 1.372 . S
C51 H46 0.928 . S
C51 C50 1.372 . S
C51 C52 1.404 . S
C52 C51 1.404 . S
C52 C53 1.391 1_654 S
C53 H47 0.930 . S
C53 C49 1.429 1_455 S
C53 C52 1.391 1_456 S
H54 C57 0.931 . S
H55 C60 0.928 . S
H56 C62 0.930 . S
C57 H54 0.931 . S
C57 C58 1.413 1_554 S
C57 C59 1.360 . S
C58 C57 1.413 1_556 S
C58 C62 1.429 1_565 S
C59 C57 1.360 . S
C59 C60 1.372 . S
C60 H55 0.928 . S
C60 C59 1.372 . S
C60 C61 1.404 . S
C61 C60 1.404 . S
C61 C62 1.391 1_564 S
C62 H56 0.930 . S
C62 C58 1.429 1_545 S
C62 C61 1.391 1_546 S
H63 C66 0.931 . S
H64 C69 0.928 . S
H65 C71 0.930 . S
C66 H63 0.931 . S
C66 C67 1.413 . S
C66 C68 1.360 1_554 S
C67 C66 1.413 . S
C67 C71 1.429 . S
C68 C66 1.360 1_556 S
C68 C69 1.372 . S
C69 H64 0.928 . S
C69 C68 1.372 . S
C69 C70 1.404 1_556 S
C70 C69 1.404 1_554 S
C70 C71 1.391 . S
C71 H65 0.930 . S
C71 C67 1.429 . S
C71 C70 1.391 . S
La72 C74 2.928 . S
La72 O92 2.521 . S
La72 O93 2.628 . S
La72 O94 2.554 . S
La72 O95 2.757 1_565 S
La72 O96 2.470 . S
La72 O101 2.482 1_455 S
La72 O103 2.503 1_565 S
La73 C83 2.928 . S
La73 O95 2.482 1_655 S
La73 O97 2.503 1_545 S
La73 O98 2.521 . S
La73 O99 2.628 . S
La73 O100 2.554 . S
La73 O101 2.757 1_545 S
La73 O102 2.470 . S
C74 La72 2.928 . S
C74 C75 1.503 . S
C74 O92 1.261 . S
C74 O93 1.243 . S
C75 C74 1.503 . S
C75 C76 1.394 . S
C75 C80 1.373 1_556 S
C76 C75 1.394 . S
C76 C77 1.380 1_556 S
C76 H104 0.930 . S
C77 C76 1.380 1_554 S
C77 C78 1.376 . S
C77 H105 0.930 . S
C78 C77 1.376 . S
C78 C79 1.370 . S
C79 C78 1.370 . S
C79 C80 1.396 . S
C79 H106 0.929 . S
C80 C75 1.373 1_554 S
C80 C79 1.396 . S
C80 H107 0.929 1_455 S
C81 O94 1.240 . S
C81 O95 1.289 1_565 S
C82 O96 1.258 1_655 S
C82 O97 1.256 . S
C83 La73 2.928 . S
C83 C84 1.503 . S
C83 O98 1.261 . S
C83 O99 1.243 . S
C84 C83 1.503 . S
C84 C85 1.394 . S
C84 C89 1.373 . S
C85 C84 1.394 . S
C85 C86 1.380 . S
C85 H108 0.930 . S
C86 C85 1.380 . S
C86 C87 1.376 . S
C86 H109 0.930 . S
C87 C86 1.376 . S
C87 C88 1.370 . S
C88 C87 1.370 . S
C88 C89 1.396 . S
C88 H110 0.929 . S
C89 C84 1.373 . S
C89 C88 1.396 . S
C89 H111 0.929 1_655 S
C90 O100 1.240 . S
C90 O101 1.289 1_545 S
C91 O102 1.258 1_455 S
C91 O103 1.256 . S
O92 La72 2.521 . S
O92 C74 1.261 . S
O93 La72 2.628 . S
O93 C74 1.243 . S
O94 La72 2.554 . S
O94 C81 1.240 . S
O95 La72 2.757 1_545 S
O95 La73 2.482 1_455 S
O95 C81 1.289 1_545 S
O96 La72 2.470 . S
O96 C82 1.258 1_455 S
O97 La73 2.503 1_565 S
O97 C82 1.256 . S
O98 La73 2.521 . S
O98 C83 1.261 . S
O99 La73 2.628 . S
O99 C83 1.243 . S
O100 La73 2.554 . S
O100 C90 1.240 . S
O101 La72 2.482 1_655 S
O101 La73 2.757 1_565 S
O101 C90 1.289 1_565 S
O102 La73 2.470 . S
O102 C91 1.258 1_655 S
O103 La72 2.503 1_545 S
O103 C91 1.256 . S
H104 C76 0.930 . S
H105 C77 0.930 . S
H106 C79 0.929 . S
H107 C80 0.929 1_655 S
H108 C85 0.930 . S
H109 C86 0.930 . S
H110 C88 0.929 . S
H111 C89 0.929 1_455 S
La112 C114 2.928 . S
La112 O132 2.521 . S
La112 O133 2.628 . S
La112 O134 2.554 . S
La112 O135 2.757 . S
La112 O136 2.470 . S
La112 O141 2.482 1_545 S
La112 O143 2.503 . S
La113 C123 2.928 . S
La113 O135 2.482 1_565 S
La113 O137 2.503 . S
La113 O138 2.521 . S
La113 O139 2.628 . S
La113 O140 2.554 . S
La113 O141 2.757 . S
La113 O142 2.470 . S
C114 La112 2.928 . S
C114 C115 1.503 . S
C114 O132 1.261 . S
C114 O133 1.243 . S
C115 C114 1.503 . S
C115 C116 1.394 . S
C115 C120 1.373 1_556 S
C116 C115 1.394 . S
C116 C117 1.380 1_556 S
C116 H144 0.930 . S
C117 C116 1.380 1_554 S
C117 C118 1.376 . S
C117 H145 0.930 . S
C118 C117 1.376 . S
C118 C119 1.370 . S
C119 C118 1.370 . S
C119 C120 1.396 . S
C119 H146 0.929 . S
C120 C115 1.373 1_554 S
C120 C119 1.396 . S
C120 H147 0.929 1_545 S
C121 O134 1.240 . S
C121 O135 1.289 . S
C122 O136 1.258 1_565 S
C122 O137 1.256 . S
C123 La113 2.928 . S
C123 C124 1.503 . S
C123 O138 1.261 . S
C123 O139 1.243 . S
C124 C123 1.503 . S
C124 C125 1.394 . S
C124 C129 1.373 . S
C125 C124 1.394 . S
C125 C126 1.380 . S
C125 H148 0.930 . S
C126 C125 1.380 . S
C126 C127 1.376 . S
C126 H149 0.930 . S
C127 C126 1.376 . S
C127 C128 1.370 . S
C128 C127 1.370 . S
C128 C129 1.396 . S
C128 H150 0.929 . S
C129 C124 1.373 . S
C129 C128 1.396 . S
C129 H151 0.929 1_565 S
C130 O140 1.240 . S
C130 O141 1.289 . S
C131 O142 1.258 1_545 S
C131 O143 1.256 . S
O132 La112 2.521 . S
O132 C114 1.261 . S
O133 La112 2.628 . S
O133 C114 1.243 . S
O134 La112 2.554 . S
O134 C121 1.240 . S
O135 La112 2.757 . S
O135 La113 2.482 1_545 S
O135 C121 1.289 . S
O136 La112 2.470 . S
O136 C122 1.258 1_545 S
O137 La113 2.503 . S
O137 C122 1.256 . S
O138 La113 2.521 . S
O138 C123 1.261 . S
O139 La113 2.628 . S
O139 C123 1.243 . S
O140 La113 2.554 . S
O140 C130 1.240 . S
O141 La112 2.482 1_565 S
O141 La113 2.757 . S
O141 C130 1.289 . S
O142 La113 2.470 . S
O142 C131 1.258 1_565 S
O143 La112 2.503 . S
O143 C131 1.256 . S
H144 C116 0.930 . S
H145 C117 0.930 . S
H146 C119 0.929 . S
H147 C120 0.929 1_565 S
H148 C125 0.930 . S
H149 C126 0.930 . S
H150 C128 0.929 . S
H151 C129 0.929 1_545 S
La152 C154 2.928 . S
La152 O172 2.521 . S
La152 O173 2.628 . S
La152 O174 2.554 . S
La152 O175 2.757 . S
La152 O176 2.470 . S
La152 O181 2.482 . S
La152 O183 2.503 . S
La153 C163 2.928 . S
La153 O175 2.482 . S
La153 O177 2.503 . S
La153 O178 2.521 . S
La153 O179 2.628 . S
La153 O180 2.554 . S
La153 O181 2.757 . S
La153 O182 2.470 . S
C154 La152 2.928 . S
C154 C155 1.503 . S
C154 O172 1.261 . S
C154 O173 1.243 . S
C155 C154 1.503 . S
C155 C156 1.394 . S
C155 C160 1.373 1_556 S
C156 C155 1.394 . S
C156 C157 1.380 1_556 S
C156 H184 0.930 . S
C157 C156 1.380 1_554 S
C157 C158 1.376 . S
C157 H185 0.930 . S
C158 C157 1.376 . S
C158 C159 1.370 . S
C159 C158 1.370 . S
C159 C160 1.396 . S
C159 H186 0.929 . S
C160 C155 1.373 1_554 S
C160 C159 1.396 . S
C160 H187 0.929 . S
C161 O174 1.240 . S
C161 O175 1.289 . S
C162 O176 1.258 . S
C162 O177 1.256 . S
C163 La153 2.928 . S
C163 C164 1.503 . S
C163 O178 1.261 . S
C163 O179 1.243 . S
C164 C163 1.503 . S
C164 C165 1.394 . S
C164 C169 1.373 . S
C165 C164 1.394 . S
C165 C166 1.380 . S
C165 H188 0.930 . S
C166 C165 1.380 . S
C166 C167 1.376 . S
C166 H189 0.930 . S
C167 C166 1.376 . S
C167 C168 1.370 . S
C168 C167 1.370 . S
C168 C169 1.396 . S
C168 H190 0.929 . S
C169 C164 1.373 . S
C169 C168 1.396 . S
C169 H191 0.929 . S
C170 O180 1.240 . S
C170 O181 1.289 . S
C171 O182 1.258 . S
C171 O183 1.256 . S
O172 La152 2.521 . S
O172 C154 1.261 . S
O173 La152 2.628 . S
O173 C154 1.243 . S
O174 La152 2.554 . S
O174 C161 1.240 . S
O175 La152 2.757 . S
O175 La153 2.482 . S
O175 C161 1.289 . S
O176 La152 2.470 . S
O176 C162 1.258 . S
O177 La153 2.503 . S
O177 C162 1.256 . S
O178 La153 2.521 . S
O178 C163 1.261 . S
O179 La153 2.628 . S
O179 C163 1.243 . S
O180 La153 2.554 . S
O180 C170 1.240 . S
O181 La152 2.482 . S
O181 La153 2.757 . S
O181 C170 1.289 . S
O182 La153 2.470 . S
O182 C171 1.258 . S
O183 La152 2.503 . S
O183 C171 1.256 . S
H184 C156 0.930 . S
H185 C157 0.930 . S
H186 C159 0.929 . S
H187 C160 0.929 . S
H188 C165 0.930 . S
H189 C166 0.930 . S
H190 C168 0.929 . S
H191 C169 0.929 . S
La192 C194 2.928 . S
La192 O212 2.521 . S
La192 O213 2.628 . S
La192 O214 2.554 . S
La192 O215 2.757 1_655 S
La192 O216 2.470 . S
La192 O221 2.482 . S
La192 O223 2.503 1_655 S
La193 C203 2.928 . S
La193 O215 2.482 . S
La193 O217 2.503 1_455 S
La193 O218 2.521 . S
La193 O219 2.628 . S
La193 O220 2.554 . S
La193 O221 2.757 1_455 S
La193 O222 2.470 . S
C194 La192 2.928 . S
C194 C195 1.503 . S
C194 O212 1.261 . S
C194 O213 1.243 . S
C195 C194 1.503 . S
C195 C196 1.394 . S
C195 C200 1.373 1_556 S
C196 C195 1.394 . S
C196 C197 1.380 1_556 S
C196 H224 0.930 . S
C197 C196 1.380 1_554 S
C197 C198 1.376 . S
C197 H225 0.930 . S
C198 C197 1.376 . S
C198 C199 1.370 . S
C199 C198 1.370 . S
C199 C200 1.396 . S
C199 H226 0.929 . S
C200 C195 1.373 1_554 S
C200 C199 1.396 . S
C200 H227 0.929 . S
C201 O214 1.246 . S
C201 O215 1.286 1_655 S
C202 O216 1.258 . S
C202 O217 1.256 . S
C203 La193 2.928 . S
C203 C204 1.503 . S
C203 O218 1.261 . S
C203 O219 1.243 . S
C204 C203 1.503 . S
C204 C205 1.394 . S
C204 C209 1.373 . S
C205 C204 1.394 . S
C205 C206 1.380 . S
C205 H228 0.930 . S
C206 C205 1.380 . S
C206 C207 1.376 . S
C206 H229 0.930 . S
C207 C206 1.376 . S
C207 C208 1.370 . S
C208 C207 1.370 . S
C208 C209 1.396 . S
C208 H230 0.929 . S
C209 C204 1.373 . S
C209 C208 1.396 . S
C209 H231 0.929 . S
C210 O220 1.250 . S
C210 O221 1.283 1_455 S
C211 O222 1.258 . S
C211 O223 1.256 . S
O212 La192 2.521 . S
O212 C194 1.261 . S
O213 La192 2.628 . S
O213 C194 1.243 . S
O214 La192 2.554 . S
O214 C201 1.246 . S
O215 La192 2.757 1_455 S
O215 La193 2.482 . S
O215 C201 1.286 1_455 S
O216 La192 2.470 . S
O216 C202 1.258 . S
O217 La193 2.503 1_655 S
O217 C202 1.256 . S
O218 La193 2.521 . S
O218 C203 1.261 . S
O219 La193 2.628 . S
O219 C203 1.243 . S
O220 La193 2.554 . S
O220 C210 1.250 . S
O221 La192 2.482 . S
O221 La193 2.757 1_655 S
O221 C210 1.283 1_655 S
O222 La193 2.470 . S
O222 C211 1.258 . S
O223 La192 2.503 1_455 S
O223 C211 1.256 . S
H224 C196 0.930 . S
H225 C197 0.930 . S
H226 C199 0.929 . S
H227 C200 0.929 . S
H228 C205 0.930 . S
H229 C206 0.930 . S
H230 C208 0.929 . S
H231 C209 0.929 . S
C232 C233 1.391 . S
C232 C234 1.394 . S
C232 H248 0.931 . S
C233 C232 1.391 . S
C233 C237 1.376 1_545 S
C234 C232 1.394 . S
C234 C235 1.369 . S
C234 C238 1.531 . S
C235 C234 1.369 . S
C235 C236 1.410 1_545 S
C235 C243 1.503 . S
C236 C235 1.410 1_565 S
C236 C237 1.392 . S
C236 C239 1.511 . S
C237 C233 1.376 1_565 S
C237 C236 1.392 . S
C237 H249 0.929 . S
C238 C234 1.531 . S
C238 H250 0.960 . S
C238 H251 0.962 . S
C238 H252 0.960 . S
C239 C236 1.511 . S
C239 H253 0.961 . S
C239 H254 0.961 . S
C239 H255 0.961 . S
C240 C241 1.370 1_565 S
C240 C242 1.363 . S
C240 H256 0.931 . S
C241 C240 1.370 1_545 S
C241 C245 1.408 . S
C242 C240 1.363 . S
C242 C243 1.370 1_565 S
C242 C246 1.524 . S
C243 C235 1.503 . S
C243 C242 1.370 1_545 S
C243 C244 1.403 . S
C244 C243 1.403 . S
C244 C245 1.404 . S
C244 C247 1.539 . S
C245 C241 1.408 . S
C245 C244 1.404 . S
C245 H257 0.930 . S
C246 C242 1.524 . S
C246 H258 0.956 . S
C246 H259 0.961 . S
C246 H260 0.961 . S
C247 C244 1.539 . S
C247 H261 0.958 . S
C247 H262 0.961 . S
C247 H263 0.960 . S
H248 C232 0.931 . S
H249 C237 0.929 . S
H250 C238 0.960 . S
H251 C238 0.962 . S
H252 C238 0.960 . S
H253 C239 0.961 . S
H254 C239 0.961 . S
H255 C239 0.961 . S
H256 C240 0.931 . S
H257 C245 0.930 . S
H258 C246 0.956 . S
H259 C246 0.961 . S
H260 C246 0.961 . S
H261 C247 0.958 . S
H262 C247 0.961 . S
H263 C247 0.960 . S
C264 C265 1.391 . S
C264 C266 1.394 . S
C264 H280 0.931 . S
C265 C264 1.391 . S
C265 C269 1.376 . S
C266 C264 1.394 . S
C266 C267 1.369 . S
C266 C270 1.531 . S
C267 C266 1.369 . S
C267 C268 1.410 . S
C267 C275 1.503 . S
C268 C267 1.410 . S
C268 C269 1.392 . S
C268 C271 1.511 . S
C269 C265 1.376 . S
C269 C268 1.392 . S
C269 H281 0.929 . S
C270 C266 1.531 . S
C270 H282 0.960 . S
C270 H283 0.962 . S
C270 H284 0.960 . S
C271 C268 1.511 . S
C271 H285 0.961 . S
C271 H286 0.961 . S
C271 H287 0.961 . S
C272 C273 1.370 . S
C272 C274 1.363 . S
C272 H288 0.931 . S
C273 C272 1.370 . S
C273 C277 1.408 . S
C274 C272 1.363 . S
C274 C275 1.370 . S
C274 C278 1.524 . S
C275 C267 1.503 . S
C275 C274 1.370 . S
C275 C276 1.403 . S
C276 C275 1.403 . S
C276 C277 1.404 . S
C276 C279 1.539 . S
C277 C273 1.408 . S
C277 C276 1.404 . S
C277 H289 0.930 . S
C278 C274 1.524 . S
C278 H290 0.956 . S
C278 H291 0.961 . S
C278 H292 0.961 . S
C279 C276 1.539 . S
C279 H293 0.958 . S
C279 H294 0.961 . S
C279 H295 0.960 . S
H280 C264 0.931 . S
H281 C269 0.929 . S
H282 C270 0.960 . S
H283 C270 0.962 . S
H284 C270 0.960 . S
H285 C271 0.961 . S
H286 C271 0.961 . S
H287 C271 0.961 . S
H288 C272 0.931 . S
H289 C277 0.930 . S
H290 C278 0.956 . S
H291 C278 0.961 . S
H292 C278 0.961 . S
H293 C279 0.958 . S
H294 C279 0.961 . S
H295 C279 0.960 . S
C296 C297 1.391 . S
C296 C298 1.394 . S
C296 H312 0.931 . S
C297 C296 1.391 . S
C297 C301 1.376 . S
C298 C296 1.394 . S
C298 C299 1.369 . S
C298 C302 1.531 . S
C299 C298 1.369 . S
C299 C300 1.410 . S
C299 C307 1.503 . S
C300 C299 1.410 . S
C300 C301 1.392 . S
C300 C303 1.511 . S
C301 C297 1.376 . S
C301 C300 1.392 . S
C301 H313 0.929 . S
C302 C298 1.531 . S
C302 H314 0.960 . S
C302 H315 0.962 . S
C302 H316 0.960 . S
C303 C300 1.511 . S
C303 H317 0.961 . S
C303 H318 0.961 . S
C303 H319 0.961 . S
C304 C305 1.370 . S
C304 C306 1.363 . S
C304 H320 0.931 . S
C305 C304 1.370 . S
C305 C309 1.408 . S
C306 C304 1.363 . S
C306 C307 1.370 . S
C306 C310 1.524 . S
C307 C299 1.503 . S
C307 C306 1.370 . S
C307 C308 1.403 . S
C308 C307 1.403 . S
C308 C309 1.404 . S
C308 C311 1.539 . S
C309 C305 1.408 . S
C309 C308 1.404 . S
C309 H321 0.930 . S
C310 C306 1.524 . S
C310 H322 0.956 . S
C310 H323 0.961 . S
C310 H324 0.961 . S
C311 C308 1.539 . S
C311 H325 0.958 . S
C311 H326 0.961 . S
C311 H327 0.960 . S
H312 C296 0.931 . S
H313 C301 0.929 . S
H314 C302 0.960 . S
H315 C302 0.962 . S
H316 C302 0.960 . S
H317 C303 0.961 . S
H318 C303 0.961 . S
H319 C303 0.961 . S
H320 C304 0.931 . S
H321 C309 0.930 . S
H322 C310 0.956 . S
H323 C310 0.961 . S
H324 C310 0.961 . S
H325 C311 0.958 . S
H326 C311 0.961 . S
H327 C311 0.960 . S
C328 C329 1.391 1_655 S
C328 C330 1.394 . S
C328 H344 0.931 . S
C329 C328 1.391 1_455 S
C329 C333 1.376 . S
C330 C328 1.394 . S
C330 C331 1.369 1_655 S
C330 C334 1.531 . S
C331 C330 1.369 1_455 S
C331 C332 1.410 . S
C331 C339 1.503 . S
C332 C331 1.410 . S
C332 C333 1.392 . S
C332 C335 1.511 . S
C333 C329 1.376 . S
C333 C332 1.392 . S
C333 H345 0.929 . S
C334 C330 1.531 . S
C334 H346 0.960 . S
C334 H347 0.962 . S
C334 H348 0.960 . S
C335 C332 1.511 . S
C335 H349 0.961 . S
C335 H350 0.961 . S
C335 H351 0.961 . S
C336 C337 1.370 1_655 S
C336 C338 1.363 . S
C336 H352 0.931 . S
C337 C336 1.370 1_455 S
C337 C341 1.408 . S
C338 C336 1.363 . S
C338 C339 1.370 1_655 S
C338 C342 1.524 . S
C339 C331 1.503 . S
C339 C338 1.370 1_455 S
C339 C340 1.403 . S
C340 C339 1.403 . S
C340 C341 1.404 . S
C340 C343 1.539 . S
C341 C337 1.408 . S
C341 C340 1.404 . S
C341 H353 0.930 . S
C342 C338 1.524 . S
C342 H354 0.956 . S
C342 H355 0.961 . S
C342 H356 0.961 . S
C343 C340 1.539 . S
C343 H357 0.958 . S
C343 H358 0.961 . S
C343 H359 0.960 . S
H344 C328 0.931 . S
H345 C333 0.929 . S
H346 C334 0.960 . S
H347 C334 0.962 . S
H348 C334 0.960 . S
H349 C335 0.961 . S
H350 C335 0.961 . S
H351 C335 0.961 . S
H352 C336 0.931 . S
H353 C341 0.930 . S
H354 C342 0.956 . S
H355 C342 0.961 . S
H356 C342 0.961 . S
H357 C343 0.958 . S
H358 C343 0.961 . S
H359 C343 0.960 . S
C360 C361 1.391 . S
C360 C362 1.394 . S
C360 H376 0.931 . S
C361 C360 1.391 . S
C361 C365 1.376 1_545 S
C362 C360 1.394 . S
C362 C363 1.369 . S
C362 C366 1.531 . S
C363 C362 1.369 . S
C363 C364 1.410 1_545 S
C363 C371 1.503 . S
C364 C363 1.410 1_565 S
C364 C365 1.392 . S
C364 C367 1.511 . S
C365 C361 1.376 1_565 S
C365 C364 1.392 . S
C365 H377 0.929 . S
C366 C362 1.531 . S
C366 H378 0.960 . S
C366 H379 0.962 . S
C366 H380 0.960 . S
C367 C364 1.511 . S
C367 H381 0.961 . S
C367 H382 0.961 . S
C367 H383 0.961 . S
C368 C369 1.378 . S
C368 C370 1.363 1_556 S
C368 H384 0.931 . S
C369 C368 1.378 . S
C369 C373 1.399 1_566 S
C370 C368 1.363 1_554 S
C370 C371 1.370 1_565 S
C370 C374 1.524 . S
C371 C363 1.503 . S
C371 C370 1.370 1_545 S
C371 C372 1.403 . S
C372 C371 1.403 . S
C372 C373 1.404 . S
C372 C375 1.539 . S
C373 C369 1.399 1_544 S
C373 C372 1.404 . S
C373 H385 0.930 . S
C374 C370 1.524 . S
C374 H386 0.956 . S
C374 H387 0.961 . S
C374 H388 0.961 1_554 S
C375 C372 1.539 . S
C375 H389 0.958 . S
C375 H390 0.961 . S
C375 H391 0.960 . S
H376 C360 0.931 . S
H377 C365 0.929 . S
H378 C366 0.960 . S
H379 C366 0.962 . S
H380 C366 0.960 . S
H381 C367 0.961 . S
H382 C367 0.961 . S
H383 C367 0.961 . S
H384 C368 0.931 . S
H385 C373 0.930 . S
H386 C374 0.956 . S
H387 C374 0.961 . S
H388 C374 0.961 1_556 S
H389 C375 0.958 . S
H390 C375 0.961 . S
H391 C375 0.960 . S
C392 C393 1.391 . S
C392 C394 1.394 . S
C392 H408 0.931 . S
C393 C392 1.391 . S
C393 C397 1.376 . S
C394 C392 1.394 . S
C394 C395 1.369 . S
C394 C398 1.531 . S
C395 C394 1.369 . S
C395 C396 1.410 . S
C395 C403 1.503 . S
C396 C395 1.410 . S
C396 C397 1.392 . S
C396 C399 1.511 . S
C397 C393 1.376 . S
C397 C396 1.392 . S
C397 H409 0.929 . S
C398 C394 1.531 . S
C398 H410 0.960 . S
C398 H411 0.962 . S
C398 H412 0.960 . S
C399 C396 1.511 . S
C399 H413 0.961 . S
C399 H414 0.961 . S
C399 H415 0.961 . S
C400 C401 1.370 . S
C400 C402 1.363 1_556 S
C400 H416 0.931 . S
C401 C400 1.370 . S
C401 C405 1.408 1_556 S
C402 C400 1.363 1_554 S
C402 C403 1.370 . S
C402 C406 1.524 . S
C403 C395 1.503 . S
C403 C402 1.370 . S
C403 C404 1.403 . S
C404 C403 1.403 . S
C404 C405 1.404 . S
C404 C407 1.539 . S
C405 C401 1.408 1_554 S
C405 C404 1.404 . S
C405 H417 0.930 . S
C406 C402 1.524 . S
C406 H418 0.956 . S
C406 H419 0.961 . S
C406 H420 0.961 1_554 S
C407 C404 1.539 . S
C407 H421 0.958 . S
C407 H422 0.961 . S
C407 H423 0.960 . S
H408 C392 0.931 . S
H409 C397 0.929 . S
H410 C398 0.960 . S
H411 C398 0.962 . S
H412 C398 0.960 . S
H413 C399 0.961 . S
H414 C399 0.961 . S
H415 C399 0.961 . S
H416 C400 0.931 . S
H417 C405 0.930 . S
H418 C406 0.956 . S
H419 C406 0.961 . S
H420 C406 0.961 1_556 S
H421 C407 0.958 . S
H422 C407 0.961 . S
H423 C407 0.960 . S
C424 C425 1.391 . S
C424 C426 1.394 . S
C424 H440 0.931 . S
C425 C424 1.391 . S
C425 C429 1.376 . S
C426 C424 1.394 . S
C426 C427 1.369 . S
C426 C430 1.531 . S
C427 C426 1.369 . S
C427 C428 1.410 . S
C427 C435 1.503 . S
C428 C427 1.410 . S
C428 C429 1.392 . S
C428 C431 1.511 . S
C429 C425 1.376 . S
C429 C428 1.392 . S
C429 H441 0.929 . S
C430 C426 1.531 . S
C430 H442 0.960 . S
C430 H443 0.962 . S
C430 H444 0.960 . S
C431 C428 1.511 . S
C431 H445 0.961 . S
C431 H446 0.961 . S
C431 H447 0.961 . S
C432 C433 1.370 . S
C432 C434 1.363 1_556 S
C432 H448 0.931 . S
C433 C432 1.370 . S
C433 C437 1.406 1_556 S
C434 C432 1.363 1_554 S
C434 C435 1.370 . S
C434 C438 1.524 . S
C435 C427 1.503 . S
C435 C434 1.370 . S
C435 C436 1.403 . S
C436 C435 1.403 . S
C436 C437 1.407 . S
C436 C439 1.539 . S
C437 C433 1.406 1_554 S
C437 C436 1.407 . S
C437 H449 0.929 1_554 S
C438 C434 1.524 . S
C438 H450 0.956 . S
C438 H451 0.961 . S
C438 H452 0.961 . S
C439 C436 1.539 . S
C439 H453 0.958 . S
C439 H454 0.961 . S
C439 H455 0.960 . S
H440 C424 0.931 . S
H441 C429 0.929 . S
H442 C430 0.960 . S
H443 C430 0.962 . S
H444 C430 0.960 . S
H445 C431 0.961 . S
H446 C431 0.961 . S
H447 C431 0.961 . S
H448 C432 0.931 . S
H449 C437 0.929 1_556 S
H450 C438 0.956 . S
H451 C438 0.961 . S
H452 C438 0.961 . S
H453 C439 0.958 . S
H454 C439 0.961 . S
H455 C439 0.960 . S
C456 C457 1.391 1_455 S
C456 C458 1.394 . S
C456 H472 0.931 . S
C457 C456 1.391 1_655 S
C457 C461 1.376 . S
C458 C456 1.394 . S
C458 C459 1.369 1_455 S
C458 C462 1.531 . S
C459 C458 1.369 1_655 S
C459 C460 1.410 . S
C459 C467 1.503 . S
C460 C459 1.410 . S
C460 C461 1.392 . S
C460 C463 1.511 . S
C461 C457 1.376 . S
C461 C460 1.392 . S
C461 H473 0.929 . S
C462 C458 1.531 . S
C462 H474 0.960 . S
C462 H475 0.962 . S
C462 H476 0.960 . S
C463 C460 1.511 . S
C463 H477 0.961 . S
C463 H478 0.961 . S
C463 H479 0.961 . S
C464 C465 1.370 1_455 S
C464 C466 1.363 1_556 S
C464 H480 0.931 . S
C465 C464 1.370 1_655 S
C465 C469 1.408 1_556 S
C466 C464 1.363 1_554 S
C466 C467 1.370 1_455 S
C466 C470 1.524 . S
C467 C459 1.503 . S
C467 C466 1.370 1_655 S
C467 C468 1.403 . S
C468 C467 1.403 . S
C468 C469 1.404 . S
C468 C471 1.539 . S
C469 C465 1.408 1_554 S
C469 C468 1.404 . S
C469 H481 0.930 . S
C470 C466 1.524 . S
C470 H482 0.956 . S
C470 H483 0.961 . S
C470 H484 0.961 1_554 S
C471 C468 1.539 . S
C471 H485 0.958 . S
C471 H486 0.961 . S
C471 H487 0.960 . S
H472 C456 0.931 . S
H473 C461 0.929 . S
H474 C462 0.960 . S
H475 C462 0.962 . S
H476 C462 0.960 . S
H477 C463 0.961 . S
H478 C463 0.961 . S
H479 C463 0.961 . S
H480 C464 0.931 . S
H481 C469 0.930 . S
H482 C470 0.956 . S
H483 C470 0.961 . S
H484 C470 0.961 1_556 S
H485 C471 0.958 . S
H486 C471 0.961 . S
H487 C471 0.960 . S
C488 C489 1.391 1_655 S
C488 C490 1.394 . S
C488 H504 0.931 . S
C489 C488 1.391 1_455 S
C489 C493 1.376 . S
C490 C488 1.394 . S
C490 C491 1.369 . S
C490 C494 1.531 . S
C491 C490 1.369 . S
C491 C492 1.410 1_655 S
C491 C499 1.503 . S
C492 C491 1.410 1_455 S
C492 C493 1.392 . S
C492 C495 1.511 . S
C493 C489 1.376 . S
C493 C492 1.392 . S
C493 H505 0.929 . S
C494 C490 1.531 . S
C494 H506 0.960 . S
C494 H507 0.962 . S
C494 H508 0.960 . S
C495 C492 1.511 . S
C495 H509 0.961 . S
C495 H510 0.961 . S
C495 H511 0.961 . S
C496 C497 1.370 . S
C496 C498 1.363 . S
C496 H512 0.931 . S
C497 C496 1.370 . S
C497 C501 1.408 . S
C498 C496 1.363 . S
C498 C499 1.370 . S
C498 C502 1.524 . S
C499 C491 1.503 . S
C499 C498 1.370 . S
C499 C500 1.403 . S
C500 C499 1.403 . S
C500 C501 1.404 . S
C500 C503 1.539 . S
C501 C497 1.408 . S
C501 C500 1.404 . S
C501 H513 0.930 . S
C502 C498 1.524 . S
C502 H514 0.956 . S
C502 H515 0.961 . S
C502 H516 0.961 . S
C503 C500 1.539 . S
C503 H517 0.958 . S
C503 H518 0.961 . S
C503 H519 0.960 . S
H504 C488 0.931 . S
H505 C493 0.929 . S
H506 C494 0.960 . S
H507 C494 0.962 . S
H508 C494 0.960 . S
H509 C495 0.961 . S
H510 C495 0.961 . S
H511 C495 0.961 . S
H512 C496 0.931 . S
H513 C501 0.930 . S
H514 C502 0.956 . S
H515 C502 0.961 . S
H516 C502 0.961 . S
H517 C503 0.958 . S
H518 C503 0.961 . S
H519 C503 0.960 . S
C520 C521 1.391 . S
C520 C522 1.394 . S
C520 H536 0.931 . S
C521 C520 1.391 . S
C521 C525 1.376 1_545 S
C522 C520 1.394 . S
C522 C523 1.369 1_545 S
C522 C526 1.531 . S
C523 C522 1.369 1_565 S
C523 C524 1.410 . S
C523 C531 1.503 . S
C524 C523 1.410 . S
C524 C525 1.392 . S
C524 C527 1.511 . S
C525 C521 1.376 1_565 S
C525 C524 1.392 . S
C525 H537 0.929 . S
C526 C522 1.531 . S
C526 H538 0.960 . S
C526 H539 0.962 . S
C526 H540 0.960 . S
C527 C524 1.511 . S
C527 H541 0.961 . S
C527 H542 0.961 . S
C527 H543 0.961 . S
C528 C529 1.370 . S
C528 C530 1.363 . S
C528 H544 0.931 . S
C529 C528 1.370 . S
C529 C533 1.408 . S
C530 C528 1.363 . S
C530 C531 1.370 . S
C530 C534 1.524 . S
C531 C523 1.503 . S
C531 C530 1.370 . S
C531 C532 1.403 . S
C532 C531 1.403 . S
C532 C533 1.404 . S
C532 C535 1.539 . S
C533 C529 1.408 . S
C533 C532 1.404 . S
C533 H545 0.930 . S
C534 C530 1.524 . S
C534 H546 0.956 . S
C534 H547 0.961 . S
C534 H548 0.961 . S
C535 C532 1.539 . S
C535 H549 0.958 1_565 S
C535 H550 0.961 . S
C535 H551 0.960 . S
H536 C520 0.931 . S
H537 C525 0.929 . S
H538 C526 0.960 . S
H539 C526 0.962 . S
H540 C526 0.960 . S
H541 C527 0.961 . S
H542 C527 0.961 . S
H543 C527 0.961 . S
H544 C528 0.931 . S
H545 C533 0.930 . S
H546 C534 0.956 . S
H547 C534 0.961 . S
H548 C534 0.961 . S
H549 C535 0.958 1_545 S
H550 C535 0.961 . S
H551 C535 0.960 . S
C552 C553 1.391 . S
C552 C554 1.394 . S
C552 H568 0.931 . S
C553 C552 1.391 . S
C553 C557 1.376 . S
C554 C552 1.394 . S
C554 C555 1.369 . S
C554 C558 1.531 . S
C555 C554 1.369 . S
C555 C556 1.410 . S
C555 C563 1.503 . S
C556 C555 1.410 . S
C556 C557 1.392 . S
C556 C559 1.511 . S
C557 C553 1.376 . S
C557 C556 1.392 . S
C557 H569 0.929 . S
C558 C554 1.531 . S
C558 H570 0.960 . S
C558 H571 0.962 . S
C558 H572 0.960 . S
C559 C556 1.511 . S
C559 H573 0.961 . S
C559 H574 0.961 . S
C559 H575 0.961 . S
C560 C561 1.370 . S
C560 C562 1.363 . S
C560 H576 0.931 . S
C561 C560 1.370 . S
C561 C565 1.408 . S
C562 C560 1.363 . S
C562 C563 1.370 . S
C562 C566 1.524 . S
C563 C555 1.503 . S
C563 C562 1.370 . S
C563 C564 1.403 . S
C564 C563 1.403 . S
C564 C565 1.404 . S
C564 C567 1.539 . S
C565 C561 1.408 . S
C565 C564 1.404 . S
C565 H577 0.930 . S
C566 C562 1.524 . S
C566 H578 0.956 . S
C566 H579 0.961 . S
C566 H580 0.961 . S
C567 C564 1.539 . S
C567 H581 0.958 . S
C567 H582 0.961 . S
C567 H583 0.960 . S
H568 C552 0.931 . S
H569 C557 0.929 . S
H570 C558 0.960 . S
H571 C558 0.962 . S
H572 C558 0.960 . S
H573 C559 0.961 . S
H574 C559 0.961 . S
H575 C559 0.961 . S
H576 C560 0.931 . S
H577 C565 0.930 . S
H578 C566 0.956 . S
H579 C566 0.961 . S
H580 C566 0.961 . S
H581 C567 0.958 . S
H582 C567 0.961 . S
H583 C567 0.960 . S
C584 C585 1.391 . S
C584 C586 1.394 . S
C584 H600 0.931 . S
C585 C584 1.391 . S
C585 C589 1.376 . S
C586 C584 1.394 . S
C586 C587 1.369 . S
C586 C590 1.531 . S
C587 C586 1.369 . S
C587 C588 1.410 . S
C587 C595 1.503 . S
C588 C587 1.410 . S
C588 C589 1.392 . S
C588 C591 1.511 . S
C589 C585 1.376 . S
C589 C588 1.392 . S
C589 H601 0.929 . S
C590 C586 1.531 . S
C590 H602 0.960 . S
C590 H603 0.962 . S
C590 H604 0.960 . S
C591 C588 1.511 . S
C591 H605 0.961 . S
C591 H606 0.961 . S
C591 H607 0.961 . S
C592 C593 1.370 . S
C592 C594 1.363 . S
C592 H608 0.931 . S
C593 C592 1.370 . S
C593 C597 1.408 . S
C594 C592 1.363 . S
C594 C595 1.370 . S
C594 C598 1.524 . S
C595 C587 1.503 . S
C595 C594 1.370 . S
C595 C596 1.403 . S
C596 C595 1.403 . S
C596 C597 1.404 . S
C596 C599 1.539 . S
C597 C593 1.408 . S
C597 C596 1.404 . S
C597 H609 0.930 . S
C598 C594 1.524 . S
C598 H610 0.956 . S
C598 H611 0.961 . S
C598 H612 0.961 . S
C599 C596 1.539 . S
C599 H613 0.958 . S
C599 H614 0.961 . S
C599 H615 0.960 . S
H600 C584 0.931 . S
H601 C589 0.929 . S
H602 C590 0.960 . S
H603 C590 0.962 . S
H604 C590 0.960 . S
H605 C591 0.961 . S
H606 C591 0.961 . S
H607 C591 0.961 . S
H608 C592 0.931 . S
H609 C597 0.930 . S
H610 C598 0.956 . S
H611 C598 0.961 . S
H612 C598 0.961 . S
H613 C599 0.958 . S
H614 C599 0.961 . S
H615 C599 0.960 . S
C616 C617 1.391 1_455 S
C616 C618 1.394 . S
C616 H632 0.931 . S
C617 C616 1.391 1_655 S
C617 C621 1.376 . S
C618 C616 1.394 . S
C618 C619 1.369 . S
C618 C622 1.531 . S
C619 C618 1.369 . S
C619 C620 1.409 1_455 S
C619 C627 1.503 . S
C620 C619 1.409 1_655 S
C620 C621 1.393 . S
C620 C623 1.511 . S
C621 C617 1.376 . S
C621 C620 1.393 . S
C621 H633 0.929 . S
C622 C618 1.531 . S
C622 H634 0.960 . S
C622 H635 0.962 . S
C622 H636 0.960 . S
C623 C620 1.511 . S
C623 H637 0.961 . S
C623 H638 0.961 1_655 S
C623 H639 0.961 . S
C624 C625 1.370 . S
C624 C626 1.363 . S
C624 H640 0.931 . S
C625 C624 1.370 . S
C625 C629 1.408 . S
C626 C624 1.363 . S
C626 C627 1.370 . S
C626 C630 1.524 . S
C627 C619 1.503 . S
C627 C626 1.370 . S
C627 C628 1.403 . S
C628 C627 1.403 . S
C628 C629 1.404 . S
C628 C631 1.539 1_455 S
C629 C625 1.408 . S
C629 C628 1.404 . S
C629 H641 0.930 . S
C630 C626 1.524 . S
C630 H642 0.956 . S
C630 H643 0.961 . S
C630 H644 0.961 . S
C631 C628 1.539 1_655 S
C631 H645 0.958 . S
C631 H646 0.961 . S
C631 H647 0.960 . S
H632 C616 0.931 . S
H633 C621 0.929 . S
H634 C622 0.960 . S
H635 C622 0.962 . S
H636 C622 0.960 . S
H637 C623 0.961 . S
H638 C623 0.961 1_455 S
H639 C623 0.961 . S
H640 C624 0.931 . S
H641 C629 0.930 . S
H642 C630 0.956 . S
H643 C630 0.961 . S
H644 C630 0.961 . S
H645 C631 0.958 . S
H646 C631 0.961 . S
H647 C631 0.960 . S
C648 C649 1.410 . S
C648 C650 1.394 . S
C648 H664 0.931 . S
C649 C648 1.410 . S
C649 C653 1.341 1_565 S
C650 C648 1.394 . S
C650 C651 1.369 1_565 S
C650 C654 1.531 . S
C651 C650 1.369 1_545 S
C651 C652 1.410 . S
C651 C659 1.503 . S
C652 C651 1.410 . S
C652 C653 1.392 . S
C652 C655 1.511 . S
C653 C649 1.341 1_545 S
C653 C652 1.392 . S
C653 H665 0.929 . S
C654 C650 1.531 . S
C654 H666 0.960 . S
C654 H667 0.962 . S
C654 H668 0.960 . S
C655 C652 1.511 . S
C655 H669 0.961 . S
C655 H670 0.961 . S
C655 H671 0.961 . S
C656 C657 1.370 . S
C656 C658 1.363 . S
C656 H672 0.931 1_554 S
C657 C656 1.370 . S
C657 C661 1.408 . S
C658 C656 1.363 . S
C658 C659 1.370 . S
C658 C662 1.524 . S
C659 C651 1.503 . S
C659 C658 1.370 . S
C659 C660 1.403 . S
C660 C659 1.403 . S
C660 C661 1.404 . S
C660 C663 1.539 . S
C661 C657 1.408 . S
C661 C660 1.404 . S
C661 H673 0.930 . S
C662 C658 1.524 . S
C662 H674 0.956 1_545 S
C662 H675 0.961 . S
C662 H676 0.961 . S
C663 C660 1.539 . S
C663 H677 0.958 . S
C663 H678 0.961 . S
C663 H679 0.960 . S
H664 C648 0.931 . S
H665 C653 0.929 . S
H666 C654 0.960 . S
H667 C654 0.962 . S
H668 C654 0.960 . S
H669 C655 0.961 . S
H670 C655 0.961 . S
H671 C655 0.961 . S
H672 C656 0.931 1_556 S
H673 C661 0.930 . S
H674 C662 0.956 1_565 S
H675 C662 0.961 . S
H676 C662 0.961 . S
H677 C663 0.958 . S
H678 C663 0.961 . S
H679 C663 0.960 . S
C680 C681 1.391 . S
C680 C682 1.394 . S
C680 H696 0.931 . S
C681 C680 1.391 . S
C681 C685 1.376 . S
C682 C680 1.394 . S
C682 C683 1.369 . S
C682 C686 1.531 . S
C683 C682 1.369 . S
C683 C684 1.410 . S
C683 C691 1.503 . S
C684 C683 1.410 . S
C684 C685 1.392 . S
C684 C687 1.511 . S
C685 C681 1.376 . S
C685 C684 1.392 . S
C685 H697 0.929 . S
C686 C682 1.531 . S
C686 H698 0.960 . S
C686 H699 0.962 . S
C686 H700 0.960 . S
C687 C684 1.511 . S
C687 H701 0.961 . S
C687 H702 0.961 . S
C687 H703 0.961 . S
C688 C689 1.370 . S
C688 C690 1.363 . S
C688 H704 0.931 . S
C689 C688 1.370 . S
C689 C693 1.408 . S
C690 C688 1.363 . S
C690 C691 1.370 . S
C690 C694 1.524 . S
C691 C683 1.503 . S
C691 C690 1.370 . S
C691 C692 1.403 . S
C692 C691 1.403 . S
C692 C693 1.404 . S
C692 C695 1.539 . S
C693 C689 1.408 . S
C693 C692 1.404 . S
C693 H705 0.930 . S
C694 C690 1.524 . S
C694 H706 0.956 . S
C694 H707 0.961 . S
C694 H708 0.961 . S
C695 C692 1.539 . S
C695 H709 0.958 . S
C695 H710 0.961 . S
C695 H711 0.960 . S
H696 C680 0.931 . S
H697 C685 0.929 . S
H698 C686 0.960 . S
H699 C686 0.962 . S
H700 C686 0.960 . S
H701 C687 0.961 . S
H702 C687 0.961 . S
H703 C687 0.961 . S
H704 C688 0.931 . S
H705 C693 0.930 . S
H706 C694 0.956 . S
H707 C694 0.961 . S
H708 C694 0.961 . S
H709 C695 0.958 . S
H710 C695 0.961 . S
H711 C695 0.960 . S
C712 C713 1.391 . S
C712 C714 1.394 . S
C712 H728 0.931 . S
C713 C712 1.391 . S
C713 C717 1.376 . S
C714 C712 1.394 . S
C714 C715 1.369 . S
C714 C718 1.531 . S
C715 C714 1.369 . S
C715 C716 1.410 . S
C715 C723 1.503 . S
C716 C715 1.410 . S
C716 C717 1.392 . S
C716 C719 1.511 . S
C717 C713 1.376 . S
C717 C716 1.392 . S
C717 H729 0.929 . S
C718 C714 1.531 . S
C718 H730 0.960 . S
C718 H731 0.962 . S
C718 H732 0.960 . S
C719 C716 1.511 . S
C719 H733 0.961 . S
C719 H734 0.961 . S
C719 H735 0.961 . S
C720 C721 1.370 . S
C720 C722 1.363 . S
C720 H736 0.931 . S
C721 C720 1.370 . S
C721 C725 1.408 . S
C722 C720 1.363 . S
C722 C723 1.370 . S
C722 C726 1.524 . S
C723 C715 1.503 . S
C723 C722 1.370 . S
C723 C724 1.403 . S
C724 C723 1.403 . S
C724 C725 1.404 . S
C724 C727 1.539 . S
C725 C721 1.408 . S
C725 C724 1.404 . S
C725 H737 0.930 . S
C726 C722 1.524 . S
C726 H738 0.956 . S
C726 H739 0.961 . S
C726 H740 0.961 . S
C727 C724 1.539 . S
C727 H741 0.958 . S
C727 H742 0.961 . S
C727 H743 0.960 . S
H728 C712 0.931 . S
H729 C717 0.929 . S
H730 C718 0.960 . S
H731 C718 0.962 . S
H732 C718 0.960 . S
H733 C719 0.961 . S
H734 C719 0.961 . S
H735 C719 0.961 . S
H736 C720 0.931 . S
H737 C725 0.930 . S
H738 C726 0.956 . S
H739 C726 0.961 . S
H740 C726 0.961 . S
H741 C727 0.958 . S
H742 C727 0.961 . S
H743 C727 0.960 . S
C744 C745 1.391 . S
C744 C746 1.394 . S
C744 H760 0.931 . S
C745 C744 1.391 . S
C745 C749 1.376 1_455 S
C746 C744 1.394 . S
C746 C747 1.369 . S
C746 C750 1.531 . S
C747 C746 1.369 . S
C747 C748 1.410 1_455 S
C747 C755 1.503 . S
C748 C747 1.410 1_655 S
C748 C749 1.392 . S
C748 C751 1.511 . S
C749 C745 1.376 1_655 S
C749 C748 1.392 . S
C749 H761 0.929 . S
C750 C746 1.531 . S
C750 H762 0.960 . S
C750 H763 0.962 . S
C750 H764 0.960 . S
C751 C748 1.511 . S
C751 H765 0.961 . S
C751 H766 0.961 . S
C751 H767 0.961 . S
C752 C753 1.370 . S
C752 C754 1.363 . S
C752 H768 0.931 . S
C753 C752 1.370 . S
C753 C757 1.408 . S
C754 C752 1.363 . S
C754 C755 1.370 . S
C754 C758 1.524 . S
C755 C747 1.503 . S
C755 C754 1.370 . S
C755 C756 1.403 . S
C756 C755 1.403 . S
C756 C757 1.404 . S
C756 C759 1.539 1_456 S
C757 C753 1.408 . S
C757 C756 1.404 . S
C757 H769 0.934 . S
C758 C754 1.524 . S
C758 H770 0.956 . S
C758 H771 0.961 . S
C758 H772 0.961 . S
C759 C756 1.539 1_654 S
C759 H773 0.958 1_655 S
C759 H774 0.961 . S
C759 H775 0.960 . S
H760 C744 0.931 . S
H761 C749 0.929 . S
H762 C750 0.960 . S
H763 C750 0.962 . S
H764 C750 0.960 . S
H765 C751 0.961 . S
H766 C751 0.961 . S
H767 C751 0.961 . S
H768 C752 0.931 . S
H769 C757 0.934 . S
H770 C758 0.956 . S
H771 C758 0.961 . S
H772 C758 0.961 . S
H773 C759 0.958 1_455 S
H774 C759 0.961 . S
H775 C759 0.960 . S
C776 C777 1.390 1_565 S
C776 C778 1.394 . S
C776 H792 0.931 1_556 S
C777 C776 1.390 1_545 S
C777 C781 1.377 . S
C778 C776 1.394 . S
C778 C779 1.364 1_565 S
C778 C782 1.531 1_556 S
C779 C778 1.364 1_545 S
C779 C780 1.413 . S
C779 C787 1.509 . S
C780 C779 1.413 . S
C780 C781 1.392 . S
C780 C783 1.511 . S
C781 C777 1.377 . S
C781 C780 1.392 . S
C781 H793 0.929 . S
C782 C778 1.531 1_554 S
C782 H794 0.960 . S
C782 H795 0.962 1_565 S
C782 H796 0.960 . S
C783 C780 1.511 . S
C783 H797 0.961 . S
C783 H798 0.961 . S
C783 H799 0.961 1_545 S
C784 C785 1.370 . S
C784 C786 1.363 . S
C784 H800 0.931 . S
C785 C784 1.370 . S
C785 C789 1.408 1_545 S
C786 C784 1.363 . S
C786 C787 1.370 . S
C786 C790 1.524 . S
C787 C779 1.509 . S
C787 C786 1.370 . S
C787 C788 1.403 1_545 S
C788 C787 1.403 1_565 S
C788 C789 1.404 . S
C788 C791 1.539 . S
C789 C785 1.408 1_565 S
C789 C788 1.404 . S
C789 H801 0.930 . S
C790 C786 1.524 . S
C790 H802 0.956 . S
C790 H803 0.961 . S
C790 H804 0.961 . S
C791 C788 1.539 . S
C791 H805 0.958 . S
C791 H806 0.961 . S
C791 H807 0.960 . S
H792 C776 0.931 1_554 S
H793 C781 0.929 . S
H794 C782 0.960 . S
H795 C782 0.962 1_545 S
H796 C782 0.960 . S
H797 C783 0.961 . S
H798 C783 0.961 . S
H799 C783 0.961 1_565 S
H800 C784 0.931 . S
H801 C789 0.930 . S
H802 C790 0.956 . S
H803 C790 0.961 . S
H804 C790 0.961 . S
H805 C791 0.958 . S
H806 C791 0.961 . S
H807 C791 0.960 . S
C808 C809 1.391 . S
C808 C810 1.394 . S
C808 H824 0.931 . S
C809 C808 1.391 . S
C809 C813 1.376 . S
C810 C808 1.394 . S
C810 C811 1.369 . S
C810 C814 1.531 . S
C811 C810 1.369 . S
C811 C812 1.410 . S
C811 C819 1.503 . S
C812 C811 1.410 . S
C812 C813 1.392 . S
C812 C815 1.511 . S
C813 C809 1.376 . S
C813 C812 1.392 . S
C813 H825 0.929 . S
C814 C810 1.531 . S
C814 H826 0.960 . S
C814 H827 0.962 . S
C814 H828 0.960 . S
C815 C812 1.511 . S
C815 H829 0.961 . S
C815 H830 0.961 . S
C815 H831 0.961 . S
C816 C817 1.370 . S
C816 C818 1.363 . S
C816 H832 0.931 . S
C817 C816 1.370 . S
C817 C821 1.408 . S
C818 C816 1.363 . S
C818 C819 1.370 . S
C818 C822 1.524 . S
C819 C811 1.503 . S
C819 C818 1.370 . S
C819 C820 1.403 . S
C820 C819 1.403 . S
C820 C821 1.404 . S
C820 C823 1.539 . S
C821 C817 1.408 . S
C821 C820 1.404 . S
C821 H833 0.930 . S
C822 C818 1.524 . S
C822 H834 0.956 . S
C822 H835 0.961 1_556 S
C822 H836 0.961 1_556 S
C823 C820 1.539 . S
C823 H837 0.958 . S
C823 H838 0.961 . S
C823 H839 0.960 . S
H824 C808 0.931 . S
H825 C813 0.929 . S
H826 C814 0.960 . S
H827 C814 0.962 . S
H828 C814 0.960 . S
H829 C815 0.961 . S
H830 C815 0.961 . S
H831 C815 0.961 . S
H832 C816 0.931 . S
H833 C821 0.930 . S
H834 C822 0.956 . S
H835 C822 0.961 1_554 S
H836 C822 0.961 1_554 S
H837 C823 0.958 . S
H838 C823 0.961 . S
H839 C823 0.960 . S
C840 C841 1.391 . S
C840 C842 1.394 . S
C840 H856 0.931 1_556 S
C841 C840 1.391 . S
C841 C845 1.376 . S
C842 C840 1.394 . S
C842 C843 1.369 . S
C842 C846 1.531 1_556 S
C843 C842 1.369 . S
C843 C844 1.410 . S
C843 C851 1.503 . S
C844 C843 1.410 . S
C844 C845 1.392 . S
C844 C847 1.511 . S
C845 C841 1.376 . S
C845 C844 1.392 . S
C845 H857 0.929 . S
C846 C842 1.531 1_554 S
C846 H858 0.960 . S
C846 H859 0.962 . S
C846 H860 0.960 . S
C847 C844 1.511 . S
C847 H861 0.961 . S
C847 H862 0.961 . S
C847 H863 0.961 . S
C848 C849 1.370 . S
C848 C850 1.363 . S
C848 H864 0.931 . S
C849 C848 1.370 . S
C849 C853 1.408 . S
C850 C848 1.363 . S
C850 C851 1.370 . S
C850 C854 1.524 . S
C851 C843 1.503 . S
C851 C850 1.370 . S
C851 C852 1.403 . S
C852 C851 1.403 . S
C852 C853 1.404 . S
C852 C855 1.539 . S
C853 C849 1.408 . S
C853 C852 1.404 . S
C853 H865 0.930 . S
C854 C850 1.524 . S
C854 H866 0.956 . S
C854 H867 0.961 . S
C854 H868 0.961 . S
C855 C852 1.539 . S
C855 H869 0.958 . S
C855 H870 0.961 . S
C855 H871 0.960 . S
H856 C840 0.931 1_554 S
H857 C845 0.929 . S
H858 C846 0.960 . S
H859 C846 0.962 . S
H860 C846 0.960 . S
H861 C847 0.961 . S
H862 C847 0.961 . S
H863 C847 0.961 . S
H864 C848 0.931 . S
H865 C853 0.930 . S
H866 C854 0.956 . S
H867 C854 0.961 . S
H868 C854 0.961 . S
H869 C855 0.958 . S
H870 C855 0.961 . S
H871 C855 0.960 . S
C872 C873 1.391 1_455 S
C872 C874 1.394 . S
C872 H888 0.931 . S
C873 C872 1.391 1_655 S
C873 C877 1.376 . S
C874 C872 1.394 . S
C874 C875 1.369 1_455 S
C874 C878 1.531 . S
C875 C874 1.369 1_655 S
C875 C876 1.410 . S
C875 C883 1.503 . S
C876 C875 1.410 . S
C876 C877 1.392 . S
C876 C879 1.511 . S
C877 C873 1.376 . S
C877 C876 1.392 . S
C877 H889 0.929 . S
C878 C874 1.531 . S
C878 H890 0.960 . S
C878 H891 0.962 . S
C878 H892 0.960 . S
C879 C876 1.511 . S
C879 H893 0.961 . S
C879 H894 0.961 . S
C879 H895 0.961 . S
C880 C881 1.370 . S
C880 C882 1.363 . S
C880 H896 0.931 1_655 S
C881 C880 1.370 . S
C881 C885 1.408 . S
C882 C880 1.363 . S
C882 C883 1.370 . S
C882 C886 1.524 1_655 S
C883 C875 1.503 . S
C883 C882 1.370 . S
C883 C884 1.403 . S
C884 C883 1.403 . S
C884 C885 1.404 . S
C884 C887 1.539 . S
C885 C881 1.408 . S
C885 C884 1.404 . S
C885 H897 0.930 . S
C886 C882 1.524 1_455 S
C886 H898 0.956 . S
C886 H899 0.961 1_455 S
C886 H900 0.961 . S
C887 C884 1.539 . S
C887 H901 0.958 . S
C887 H902 0.961 . S
C887 H903 0.960 . S
H888 C872 0.931 . S
H889 C877 0.929 . S
H890 C878 0.960 . S
H891 C878 0.962 . S
H892 C878 0.960 . S
H893 C879 0.961 . S
H894 C879 0.961 . S
H895 C879 0.961 . S
H896 C880 0.931 1_455 S
H897 C885 0.930 . S
H898 C886 0.956 . S
H899 C886 0.961 1_655 S
H900 C886 0.961 . S
H901 C887 0.958 . S
H902 C887 0.961 . S
H903 C887 0.960 . S
C904 C905 1.391 1_545 S
C904 C906 1.394 . S
C904 H920 0.931 . S
C905 C904 1.391 1_565 S
C905 C909 1.376 . S
C906 C904 1.394 . S
C906 C907 1.369 1_545 S
C906 C910 1.531 . S
C907 C906 1.369 1_565 S
C907 C908 1.410 . S
C907 C915 1.503 . S
C908 C907 1.410 . S
C908 C909 1.392 . S
C908 C911 1.511 . S
C909 C905 1.376 . S
C909 C908 1.392 . S
C909 H921 0.929 . S
C910 C906 1.531 . S
C910 H922 0.960 . S
C910 H923 0.962 . S
C910 H924 0.960 . S
C911 C908 1.511 . S
C911 H925 0.961 . S
C911 H926 0.961 . S
C911 H927 0.961 . S
C912 C913 1.370 . S
C912 C914 1.363 . S
C912 H928 0.931 . S
C913 C912 1.370 . S
C913 C917 1.408 . S
C914 C912 1.363 . S
C914 C915 1.370 . S
C914 C918 1.524 . S
C915 C907 1.503 . S
C915 C914 1.370 . S
C915 C916 1.403 . S
C916 C915 1.403 . S
C916 C917 1.404 . S
C916 C919 1.539 . S
C917 C913 1.408 . S
C917 C916 1.404 . S
C917 H929 0.930 . S
C918 C914 1.524 . S
C918 H930 0.956 1_565 S
C918 H931 0.961 . S
C918 H932 0.961 . S
C919 C916 1.539 . S
C919 H933 0.958 1_565 S
C919 H934 0.961 . S
C919 H935 0.960 . S
H920 C904 0.931 . S
H921 C909 0.929 . S
H922 C910 0.960 . S
H923 C910 0.962 . S
H924 C910 0.960 . S
H925 C911 0.961 . S
H926 C911 0.961 . S
H927 C911 0.961 . S
H928 C912 0.931 . S
H929 C917 0.930 . S
H930 C918 0.956 1_545 S
H931 C918 0.961 . S
H932 C918 0.961 . S
H933 C919 0.958 1_545 S
H934 C919 0.961 . S
H935 C919 0.960 . S
C936 C937 1.391 . S
C936 C938 1.394 . S
C936 H952 0.931 . S
C937 C936 1.391 . S
C937 C941 1.376 . S
C938 C936 1.394 . S
C938 C939 1.369 . S
C938 C942 1.531 . S
C939 C938 1.369 . S
C939 C940 1.410 . S
C939 C947 1.503 . S
C940 C939 1.410 . S
C940 C941 1.392 . S
C940 C943 1.511 . S
C941 C937 1.376 . S
C941 C940 1.392 . S
C941 H953 0.929 . S
C942 C938 1.531 . S
C942 H954 0.960 . S
C942 H955 0.962 . S
C942 H956 0.960 . S
C943 C940 1.511 . S
C943 H957 0.961 . S
C943 H958 0.961 . S
C943 H959 0.961 . S
C944 C945 1.370 . S
C944 C946 1.363 . S
C944 H960 0.931 . S
C945 C944 1.370 . S
C945 C949 1.408 . S
C946 C944 1.363 . S
C946 C947 1.370 . S
C946 C950 1.524 . S
C947 C939 1.503 . S
C947 C946 1.370 . S
C947 C948 1.403 . S
C948 C947 1.403 . S
C948 C949 1.404 . S
C948 C951 1.539 . S
C949 C945 1.408 . S
C949 C948 1.404 . S
C949 H961 0.930 . S
C950 C946 1.524 . S
C950 H962 0.956 . S
C950 H963 0.961 . S
C950 H964 0.961 . S
C951 C948 1.539 . S
C951 H965 0.958 . S
C951 H966 0.961 . S
C951 H967 0.960 . S
H952 C936 0.931 . S
H953 C941 0.929 . S
H954 C942 0.960 . S
H955 C942 0.962 . S
H956 C942 0.960 . S
H957 C943 0.961 . S
H958 C943 0.961 . S
H959 C943 0.961 . S
H960 C944 0.931 . S
H961 C949 0.930 . S
H962 C950 0.956 . S
H963 C950 0.961 . S
H964 C950 0.961 . S
H965 C951 0.958 . S
H966 C951 0.961 . S
H967 C951 0.960 . S
C968 C969 1.391 . S
C968 C970 1.394 . S
C968 H984 0.931 . S
C969 C968 1.391 . S
C969 C973 1.376 . S
C970 C968 1.394 . S
C970 C971 1.369 . S
C970 C974 1.531 . S
C971 C970 1.369 . S
C971 C972 1.410 . S
C971 C979 1.503 . S
C972 C971 1.410 . S
C972 C973 1.392 . S
C972 C975 1.511 . S
C973 C969 1.376 . S
C973 C972 1.392 . S
C973 H985 0.929 . S
C974 C970 1.531 . S
C974 H986 0.960 . S
C974 H987 0.962 . S
C974 H988 0.960 . S
C975 C972 1.511 . S
C975 H989 0.961 . S
C975 H990 0.961 . S
C975 H991 0.961 . S
C976 C977 1.370 . S
C976 C978 1.363 . S
C976 H992 0.931 . S
C977 C976 1.370 . S
C977 C981 1.408 . S
C978 C976 1.363 . S
C978 C979 1.370 . S
C978 C982 1.524 . S
C979 C971 1.503 . S
C979 C978 1.370 . S
C979 C980 1.403 . S
C980 C979 1.403 . S
C980 C981 1.404 . S
C980 C983 1.539 . S
C981 C977 1.408 . S
C981 C980 1.404 . S
C981 H993 0.930 . S
C982 C978 1.524 . S
C982 H994 0.956 . S
C982 H995 0.961 . S
C982 H996 0.961 . S
C983 C980 1.539 . S
C983 H997 0.958 . S
C983 H998 0.961 . S
C983 H999 0.960 . S
H984 C968 0.931 . S
H985 C973 0.929 . S
H986 C974 0.960 . S
H987 C974 0.962 . S
H988 C974 0.960 . S
H989 C975 0.961 . S
H990 C975 0.961 . S
H991 C975 0.961 . S
H992 C976 0.931 . S
H993 C981 0.930 . S
H994 C982 0.956 . S
H995 C982 0.961 . S
H996 C982 0.961 . S
H997 C983 0.958 . S
H998 C983 0.961 . S
H999 C983 0.960 . S
C233 C61 1.821 1_545 S
C241 C81 1.941 1_545 S
C273 C121 1.953 . S
C265 C70 1.839 . S
C305 C161 1.962 . S
C297 C43 1.791 . S
C337 C201 1.954 1_455 S
C329 C52 1.788 1_455 S
C369 C90 1.939 1_565 S
C361 C25 1.831 1_545 S
C393 C34 1.855 . S
C401 C130 1.964 . S
C425 C7 1.837 . S
C433 C170 1.969 . S
C457 C16 1.839 . S
C465 C210 1.954 1_655 S
C497 C87 0.505 . S
C489 C50 0.456 1_455 S
C529 C127 0.515 . S
C521 C59 0.545 1_545 S
C561 C167 0.484 . S
C553 C67 0.493 . S
C585 C41 0.427 . S
C593 C207 0.554 . S
C617 C14 0.552 . S
C625 C78 0.482 . S
C657 C118 0.543 . S
C649 C23 0.418 . S
C689 C158 0.483 . S
C681 C31 0.547 . S
C713 C5 0.410 . S
C721 C198 0.560 . S
C745 C49 2.004 1_455 S
C753 C91 2.251 . S
C777 C58 2.003 1_545 S
C785 C131 2.208 . S
C817 C171 2.204 . S
C809 C68 2.011 . S
C849 C211 2.233 . S
C841 C40 2.014 . S
C873 C13 2.003 . S
C881 C82 2.269 . S
C913 C122 2.214 . S
C905 C22 1.956 . S
C945 C162 2.191 . S
C937 C32 2.000 . S
C969 C4 2.044 . S
C977 C202 2.239 . S
