# Generated by pormake.
# Topology zzz, (3,6)-cn, num edge types: 1
# Building blocks:
#     Node 0, Type 0, BuildingBlock: ESEHIV_clean_linker_0, # of connection points: 3
#     Node 1, Type 0, BuildingBlock: ESEHIV_clean_linker_0, # of connection points: 3
#     Node 2, Type 0, BuildingBlock: ESEHIV_clean_linker_0, # of connection points: 3
#     Node 3, Type 0, BuildingBlock: ESEHIV_clean_linker_0, # of connection points: 3
#     Node 4, Type 0, BuildingBlock: ESEHIV_clean_linker_0, # of connection points: 3
#     Node 5, Type 0, BuildingBlock: ESEHIV_clean_linker_0, # of connection points: 3
#     Node 6, Type 0, BuildingBlock: ESEHIV_clean_linker_0, # of connection points: 3
#     Node 7, Type 0, BuildingBlock: ESEHIV_clean_linker_0, # of connection points: 3
#     Node 8, Type 1, BuildingBlock: BETDEL_clean_sbu_0, # of connection points: 6
#     Node 9, Type 1, BuildingBlock: BETDEL_clean_sbu_0, # of connection points: 6
#     Node 10, Type 1, BuildingBlock: BETDEL_clean_sbu_0, # of connection points: 6
#     Node 11, Type 1, BuildingBlock: BETDEL_clean_sbu_0, # of connection points: 6
#     Edge 12, Type (0, 1), BuildingBlock: TEMPAE_clean_linker_10, # of connection points: 2
#     Edge 13, Type (0, 1), BuildingBlock: TEMPAE_clean_linker_10, # of connection points: 2
#     Edge 14, Type (0, 1), BuildingBlock: TEMPAE_clean_linker_10, # of connection points: 2
#     Edge 15, Type (0, 1), BuildingBlock: TEMPAE_clean_linker_10, # of connection points: 2
#     Edge 16, Type (0, 1), BuildingBlock: TEMPAE_clean_linker_10, # of connection points: 2
#     Edge 17, Type (0, 1), BuildingBlock: TEMPAE_clean_linker_10, # of connection points: 2
#     Edge 18, Type (0, 1), BuildingBlock: TEMPAE_clean_linker_10, # of connection points: 2
#     Edge 19, Type (0, 1), BuildingBlock: TEMPAE_clean_linker_10, # of connection points: 2
#     Edge 20, Type (0, 1), BuildingBlock: TEMPAE_clean_linker_10, # of connection points: 2
#     Edge 21, Type (0, 1), BuildingBlock: TEMPAE_clean_linker_10, # of connection points: 2
#     Edge 22, Type (0, 1), BuildingBlock: TEMPAE_clean_linker_10, # of connection points: 2
#     Edge 23, Type (0, 1), BuildingBlock: TEMPAE_clean_linker_10, # of connection points: 2
#     Edge 24, Type (0, 1), BuildingBlock: TEMPAE_clean_linker_10, # of connection points: 2
#     Edge 25, Type (0, 1), BuildingBlock: TEMPAE_clean_linker_10, # of connection points: 2
#     Edge 26, Type (0, 1), BuildingBlock: TEMPAE_clean_linker_10, # of connection points: 2
#     Edge 27, Type (0, 1), BuildingBlock: TEMPAE_clean_linker_10, # of connection points: 2
#     Edge 28, Type (0, 1), BuildingBlock: TEMPAE_clean_linker_10, # of connection points: 2
#     Edge 29, Type (0, 1), BuildingBlock: TEMPAE_clean_linker_10, # of connection points: 2
#     Edge 30, Type (0, 1), BuildingBlock: TEMPAE_clean_linker_10, # of connection points: 2
#     Edge 31, Type (0, 1), BuildingBlock: TEMPAE_clean_linker_10, # of connection points: 2
#     Edge 32, Type (0, 1), BuildingBlock: TEMPAE_clean_linker_10, # of connection points: 2
#     Edge 33, Type (0, 1), BuildingBlock: TEMPAE_clean_linker_10, # of connection points: 2
#     Edge 34, Type (0, 1), BuildingBlock: TEMPAE_clean_linker_10, # of connection points: 2
#     Edge 35, Type (0, 1), BuildingBlock: TEMPAE_clean_linker_10, # of connection points: 2
# Relax obj value: 0.350
# Max RMSD: 0.228
# Mean RMSD: 0.212
data_MOF--net-zzz--node1-BETDEL_clean_sbu_0--node2-ESEHIV_clean_linker_0--edge1-TEMPAE_clean_linker_10
_symmetry_space_group_name_H-M    P1
_symmetry_Int_Tables_number       1
_symmetry_cell_setting            triclinic
loop_
_symmetry_equiv_pos_as_xyz
'x, y, z'
_cell_length_a     43.889824
_cell_length_b     43.94633
_cell_length_c     15.461053
_cell_angle_alpha  91.159945
_cell_angle_beta   89.330906
_cell_angle_gamma 95.479438
loop_
_atom_site_label
_atom_site_type_symbol
_atom_site_fract_x
_atom_site_fract_y
_atom_site_fract_z
_atom_type_partial_charge
H0 H 0.80698 0.4534 0.10101 0.0
H1 H 0.74 0.44648 0.90208 0.0
H2 H 0.7299 0.50685 0.1232 0.0
C3 C 0.78508 0.45913 0.07732 0.0
C4 C 0.76951 0.48077 0.123 0.0
C5 C 0.7746 0.44686 0.9982 0.0
C6 C 0.74736 0.45551 0.96501 0.0
C7 C 0.73031 0.47653 0.00987 0.0
C8 C 0.74204 0.48996 0.08871 0.0
H9 H 0.01663 0.79394 0.15921 0.0
H10 H 0.02371 0.72594 0.9594 0.0
H11 H 0.97793 0.70164 0.20094 0.0
C12 C 0.01287 0.77027 0.13705 0.0
C13 C 0.99686 0.74883 0.19042 0.0
C14 C 0.02259 0.76236 0.05423 0.0
C15 C 0.01645 0.73218 0.02415 0.0
C16 C 1.00079 0.70997 0.07702 0.0
C17 C 0.99055 0.71839 0.16043 0.0
H18 H 0.71352 0.04462 0.09523 0.0
H19 H 0.79526 0.05051 0.94061 0.0
H20 H 0.78505 0.98752 0.15198 0.0
C21 C 0.73656 0.03823 0.08408 0.0
C22 C 0.74731 0.01524 0.13377 0.0
C23 C 0.75353 0.05065 0.01418 0.0
C24 C 0.78266 0.04161 0.99693 0.0
C25 C 0.79473 0.0195 0.04752 0.0
C26 C 0.77674 0.00581 0.11571 0.0
H27 H 0.56875 0.71462 0.20046 0.0
H28 H 0.53935 0.80454 0.22872 0.0
H29 H 0.58451 0.77724 0.99298 0.0
C30 C 0.56848 0.73753 0.17564 0.0
C31 C 0.57919 0.74368 0.09209 0.0
C32 C 0.55405 0.75893 0.22504 0.0
C33 C 0.55106 0.78807 0.19114 0.0
C34 C 0.56327 0.7955 0.10781 0.0
C35 C 0.57692 0.7728 0.05886 0.0
H36 H 0.22172 0.57079 0.99005 0.0
H37 H 0.28796 0.57933 0.19299 0.0
H38 H 0.28952 0.50681 1.00064 0.0
C39 C 0.24242 0.56398 0.01866 0.0
C40 C 0.25515 0.53848 0.98316 0.0
C41 C 0.25355 0.57859 0.09473 0.0
C42 C 0.27929 0.56836 0.13357 0.0
C43 C 0.29261 0.54264 0.10022 0.0
C44 C 0.28004 0.52716 0.02547 0.0
H45 H 0.98933 0.20534 0.91949 0.0
H46 H 0.97516 0.26898 0.12569 0.0
H47 H 0.03157 0.29721 0.90425 0.0
C48 C 0.99227 0.22847 0.94618 0.0
C49 C 0.01096 0.25052 0.90179 0.0
C50 C 0.97911 0.23484 0.02615 0.0
C51 C 0.98466 0.26431 0.06234 0.0
C52 C 1.00321 0.2874 0.01884 0.0
C53 C 0.01683 0.28014 0.93823 0.0
H54 H 0.31472 0.97219 0.99652 0.0
H55 H 0.23637 0.95707 0.16164 0.0
H56 H 0.23193 0.01196 0.93352 0.0
C57 C 0.29074 0.97496 0.00932 0.0
C58 C 0.27503 0.99295 0.95485 0.0
C59 C 0.27696 0.96238 0.08362 0.0
C60 C 0.24636 0.96611 0.10185 0.0
C61 C 0.22939 0.98354 0.04779 0.0
C62 C 0.24411 0.99749 0.97411 0.0
H63 H 0.43949 0.29343 0.96191 0.0
H64 H 0.47856 0.20869 0.91608 0.0
H65 H 0.43753 0.22854 0.16438 0.0
C66 C 0.443 0.2707 0.98364 0.0
C67 C 0.43713 0.26332 0.06989 0.0
C68 C 0.45738 0.25124 0.92719 0.0
C69 C 0.4657 0.22303 0.9577 0.0
C70 C 0.45843 0.21443 0.04419 0.0
C71 C 0.44306 0.23445 0.09793 0.0
Dy72 Dy 0.02647 0.98909 0.60879 0.0
C73 C 0.97544 0.04149 0.3095 0.0
C74 C 0.04737 0.95469 0.73588 0.0
Dy75 Dy 0.98989 0.01368 0.45692 0.0
O76 O 0.05813 0.95649 0.65756 0.0
O77 O 0.02562 0.97263 0.74594 0.0
O78 O 0.06959 0.00983 0.54648 0.0
O79 O 0.03304 0.9928 0.46766 0.0
C80 C 0.0598 0.00646 0.46745 0.0
C81 C 0.9542 0.00872 0.60159 0.0
O82 O 0.98542 0.96372 0.42189 0.0
O83 O 0.99939 0.94679 0.55629 0.0
O84 O 0.9566 0.02309 0.35383 0.0
O85 O 1.00239 0.04384 0.34441 0.0
O86 O 0.94505 0.01835 0.52839 0.0
O87 O 0.98139 1.00254 0.59084 0.0
O88 O 0.02589 0.0378 0.65307 0.0
O89 O 0.01415 0.05618 0.5182 0.0
C90 C 0.98814 0.94152 0.47754 0.0
C91 C 0.02308 0.06065 0.59968 0.0
Dy92 Dy 0.49451 0.97409 0.51225 0.0
C93 C 0.57407 0.06525 0.68479 0.0
C94 C 0.4473 0.93634 0.44572 0.0
Dy95 Dy 0.53007 0.02731 0.60334 0.0
O96 O 0.47347 0.94301 0.40696 0.0
O97 O 0.44721 0.95021 0.52048 0.0
O98 O 0.5379 0.95185 0.48412 0.0
O99 O 0.53891 0.99958 0.48921 0.0
C100 C 0.5553 0.97756 0.48203 0.0
C101 C 0.46914 0.02396 0.62923 0.0
O102 O 0.52302 0.05003 0.47833 0.0
O103 O 0.48409 0.01429 0.43109 0.0
O104 O 0.54869 0.05375 0.72007 0.0
O105 O 0.57516 0.05638 0.60439 0.0
O106 O 0.48633 0.04971 0.62445 0.0
O107 O 0.48568 1.00199 0.62607 0.0
O108 O 0.50451 0.94986 0.63189 0.0
O109 O 0.54154 0.98694 0.68222 0.0
C110 C 0.50084 0.04097 0.42364 0.0
C111 C 0.52629 0.95938 0.68717 0.0
Dy112 Dy 0.49639 0.51804 0.66668 0.0
C113 C 0.51007 0.45889 0.32919 0.0
C114 C 0.52393 0.552 0.79543 0.0
Dy115 Dy 0.51595 0.49286 0.47897 0.0
O116 O 0.49705 0.5364 0.80475 0.0
O117 O 0.53443 0.5491 0.71741 0.0
O118 O 0.44657 0.52402 0.63562 0.0
O119 O 0.47642 0.50765 0.54415 0.0
C120 C 0.44937 0.51448 0.55512 0.0
C121 C 0.56068 0.50403 0.59552 0.0
O122 O 0.51691 0.54284 0.44937 0.0
O123 O 0.50709 0.56069 0.5895 0.0
O124 O 0.52822 0.45433 0.39241 0.0
O125 O 0.49729 0.4838 0.34595 0.0
O126 O 0.56587 0.50561 0.51217 0.0
O127 O 0.53306 0.49449 0.60857 0.0
O128 O 0.49112 0.46781 0.69369 0.0
O129 O 0.49478 0.45094 0.5492 0.0
C130 C 0.51335 0.56539 0.50633 0.0
C131 C 0.48979 0.44559 0.63325 0.0
Dy132 Dy 1.00041 0.48164 0.59943 0.0
C133 C 0.06331 0.55289 0.33037 0.0
C134 C 0.96448 0.44839 0.71451 0.0
Dy135 Dy 0.03131 0.52685 0.46553 0.0
O136 O 0.96831 0.44093 0.63387 0.0
O137 O 0.98035 0.47421 0.73253 0.0
O138 O 0.02661 0.44543 0.53864 0.0
O139 O 0.01158 0.4792 0.46045 0.0
C140 C 0.0263 0.45584 0.46063 0.0
C141 C 0.01773 0.55804 0.61156 0.0
O142 O 0.98343 0.52078 0.41369 0.0
O143 O 0.95965 0.49995 0.53741 0.0
O144 O 0.04193 0.56524 0.37334 0.0
O145 O 0.06664 0.5259 0.35995 0.0
O146 O 0.03072 0.57081 0.54399 0.0
O147 O 0.0129 0.52988 0.59521 0.0
O148 O 0.04604 0.49246 0.66153 0.0
O149 O 0.0715 0.51101 0.5376 0.0
C150 C 0.95843 0.51195 0.4594 0.0
C151 C 0.07159 0.50138 0.61868 0.0
C152 C 0.1783 0.964 0.10875 0.0
C153 C 0.19757 0.98868 0.07659 0.0
C154 C 0.15241 0.96865 0.15988 0.0
C155 C 0.14497 0.9988 0.17812 0.0
C156 C 0.16228 0.02361 0.13756 0.0
C157 C 0.18856 0.01831 0.08787 0.0
C158 C 0.13478 0.94138 0.20094 0.0
C159 C 0.15435 0.05598 0.15175 0.0
C160 C 0.07017 0.00373 0.30637 0.0
C161 C 0.081 0.00765 0.39134 0.0
C162 C 0.09064 1.00261 0.23533 0.0
C163 C 0.12265 0.00433 0.24989 0.0
C164 C 0.13356 0.00893 0.33559 0.0
C165 C 0.11271 0.011 0.40466 0.0
C166 C 0.07783 0.99867 0.14526 0.0
C167 C 0.16733 0.01029 0.35513 0.0
H168 H 0.18481 0.94097 0.0991 0.0
H169 H 0.20317 0.03755 0.06324 0.0
H170 H 0.13889 0.94213 0.2717 0.0
H171 H 0.10986 0.94197 0.19142 0.0
H172 H 0.14162 0.91937 0.17411 0.0
H173 H 0.1658 0.07169 0.10336 0.0
H174 H 0.12923 0.05705 0.14835 0.0
H175 H 0.16178 0.06422 0.21717 0.0
H176 H 0.0457 1.00122 0.2954 0.0
H177 H 0.12135 0.01403 0.46997 0.0
H178 H 0.07687 0.97424 0.12511 0.0
H179 H 0.09256 0.01206 0.09799 0.0
H180 H 0.05426 0.00584 0.14238 0.0
H181 H 0.17632 0.98849 0.33437 0.0
H182 H 0.17213 0.01424 0.42506 0.0
H183 H 0.18012 0.02887 0.31836 0.0
C184 C 0.48008 0.18852 0.16926 0.0
C185 C 0.46892 0.18648 0.08422 0.0
C186 C 0.48533 0.16245 0.21541 0.0
C187 C 0.48088 0.13326 0.17468 0.0
C188 C 0.47189 0.13105 0.08659 0.0
C189 C 0.46565 0.15767 0.04261 0.0
C190 C 0.49456 0.16618 0.30923 0.0
C191 C 0.46806 0.10056 0.03951 0.0
C192 C 0.51957 0.07524 0.30345 0.0
C193 C 0.49501 0.06138 0.35177 0.0
C194 C 0.51489 0.09664 0.23958 0.0
C195 C 0.4851 0.1055 0.22643 0.0
C196 C 0.46006 0.09069 0.27318 0.0
C197 C 0.46527 0.06839 0.33417 0.0
C198 C 0.54207 0.11069 0.18879 0.0
C199 C 0.42805 0.09988 0.26323 0.0
H200 H 0.48385 0.21072 0.20123 0.0
H201 H 0.45728 0.15578 0.97686 0.0
H202 H 0.47779 0.1525 0.35058 0.0
H203 H 0.51719 0.15755 0.31856 0.0
H204 H 0.49592 0.19039 0.33219 0.0
H205 H 0.46627 0.10318 0.96847 0.0
H206 H 0.48759 0.0871 0.05277 0.0
H207 H 0.44694 0.08722 0.06279 0.0
H208 H 0.54257 0.06949 0.31615 0.0
H209 H 0.44628 0.0577 0.37164 0.0
H210 H 0.5483 0.13443 0.21249 0.0
H211 H 0.53637 0.11179 0.11924 0.0
H212 H 0.56236 0.09763 0.19517 0.0
H213 H 0.42712 0.12367 0.28797 0.0
H214 H 0.41079 0.08469 0.29907 0.0
H215 H 0.42169 0.09947 0.19401 0.0
C216 C 0.34592 0.55025 0.15649 0.0
C217 C 0.31815 0.53176 0.14994 0.0
C218 C 0.36778 0.54474 0.21878 0.0
C219 C 0.36151 0.52052 0.27753 0.0
C220 C 0.33405 0.50092 0.26853 0.0
C221 C 0.31272 0.50675 0.20472 0.0
C222 C 0.39703 0.56572 0.22419 0.0
C223 C 0.3264 0.47486 0.32946 0.0
C224 C 0.42808 0.49705 0.41053 0.0
C225 C 0.42563 0.51429 0.48698 0.0
C226 C 0.40736 0.49847 0.34217 0.0
C227 C 0.38285 0.5171 0.35128 0.0
C228 C 0.37947 0.53362 0.43018 0.0
C229 C 0.4009 0.53206 0.49688 0.0
C230 C 0.4119 0.48006 0.26029 0.0
C231 C 0.35355 0.55352 0.44344 0.0
H232 H 0.34993 0.56988 0.11508 0.0
H233 H 0.29098 0.49286 0.20108 0.0
H234 H 0.3974 0.57908 0.28591 0.0
H235 H 0.41709 0.55213 0.22387 0.0
H236 H 0.39957 0.58194 0.16981 0.0
H237 H 0.30527 0.46046 0.31041 0.0
H238 H 0.34559 0.46021 0.33162 0.0
H239 H 0.32313 0.48408 0.39592 0.0
H240 H 0.4462 0.4823 0.4045 0.0
H241 H 0.39865 0.5453 0.55614 0.0
H242 H 0.4091 0.49393 0.20223 0.0
H243 H 0.39438 0.46014 0.2575 0.0
H244 H 0.43487 0.47144 0.25717 0.0
H245 H 0.35583 0.57242 0.39659 0.0
H246 H 0.35307 0.56355 0.50993 0.0
H247 H 0.3313 0.54001 0.43107 0.0
C248 C 0.03843 0.33358 0.06571 0.0
C249 C 0.0089 0.31823 0.06158 0.0
C250 C 0.04454 0.35989 0.11888 0.0
C251 C 0.02069 0.37077 0.17009 0.0
C252 C 0.9905 0.35659 0.16133 0.0
C253 C 0.98497 0.33084 0.10661 0.0
C254 C 0.07684 0.37496 0.12389 0.0
C255 C 0.96428 0.36727 0.21436 0.0
C256 C 0.03614 0.40546 0.39409 0.0
C257 C 0.02997 0.43587 0.38328 0.0
C258 C 0.03465 0.38447 0.32424 0.0
C259 C 0.02748 0.39418 0.24066 0.0
C260 C 0.02349 0.42544 0.22808 0.0
C261 C 0.02444 0.44586 0.29977 0.0
C262 C 0.03878 0.35138 0.34125 0.0
C263 C 0.01674 0.43704 0.13984 0.0
H264 H 0.0571 0.32418 0.03106 0.0
H265 H 0.96191 0.31969 0.10197 0.0
H266 H 0.07696 0.40022 0.12357 0.0
H267 H 0.0873 0.36884 0.18536 0.0
H268 H 0.09132 0.36761 0.06938 0.0
H269 H 0.94188 0.35506 0.19597 0.0
H270 H 0.96815 0.36339 0.28393 0.0
H271 H 0.96303 0.39214 0.20662 0.0
H272 H 0.04062 0.39757 0.45828 0.0
H273 H 0.01989 0.46941 0.29082 0.0
H274 H 0.05618 0.34305 0.29636 0.0
H275 H 0.01691 0.33712 0.3294 0.0
H276 H 0.04595 0.34785 0.4087 0.0
H277 H 0.03118 0.42698 0.08946 0.0
H278 H 0.02062 0.46237 0.13736 0.0
H279 H 0.99248 0.43016 0.12367 0.0
C280 C 0.85093 0.02989 0.02281 0.0
C281 C 0.82457 0.00921 0.01866 0.0
C282 C 0.87647 0.02619 0.96902 0.0
C283 C 0.87536 1.00158 0.90801 0.0
C284 C 0.85007 0.97891 0.91035 0.0
C285 C 0.82494 0.98302 0.96559 0.0
C286 C 0.90298 0.05068 0.9712 0.0
C287 C 0.84797 0.95201 0.84783 0.0
C288 C 0.90743 0.02008 0.68341 0.0
C289 C 0.93525 0.00682 0.68205 0.0
C290 C 0.88819 0.01868 0.75663 0.0
C291 C 0.8966 0.00323 0.83102 0.0
C292 C 0.92479 0.9898 0.83043 0.0
C293 C 0.94389 0.99188 0.75597 0.0
C294 C 0.85871 0.03383 0.75409 0.0
C295 C 0.93466 0.97319 0.90818 0.0
H296 H 0.8506 0.05038 0.06301 0.0
H297 H 0.80444 0.96724 0.96119 0.0
H298 H 0.92487 0.04153 0.95261 0.0
H299 H 0.89868 0.06868 0.92474 0.0
H300 H 0.90546 0.06146 0.03668 0.0
H301 H 0.83041 0.93365 0.86862 0.0
H302 H 0.84163 0.95971 0.78309 0.0
H303 H 0.87036 0.9424 0.84106 0.0
H304 H 0.90063 0.0318 0.62674 0.0
H305 H 0.96529 0.9815 0.7552 0.0
H306 H 0.85831 0.05121 0.80707 0.0
H307 H 0.83888 0.01661 0.7643 0.0
H308 H 0.85568 0.0452 0.69167 0.0
H309 H 0.95709 0.96385 0.89754 0.0
H310 H 0.91721 0.95409 0.92387 0.0
H311 H 0.93639 0.98891 0.96534 0.0
C312 C 0.53245 0.83919 0.07064 0.0
C313 C 0.56012 0.82559 0.06661 0.0
C314 C 0.5277 0.86426 0.01846 0.0
C315 C 0.55097 0.87573 0.9599 0.0
C316 C 0.57962 0.86342 0.96006 0.0
C317 C 0.58393 0.83888 0.01398 0.0
C318 C 0.4971 0.87725 0.02227 0.0
C319 C 0.60507 0.87463 0.89866 0.0
C320 C 0.52603 0.90677 0.74633 0.0
C321 C 0.53336 0.93838 0.75706 0.0
C322 C 0.53163 0.88635 0.81179 0.0
C323 C 0.5443 0.89773 0.89131 0.0
C324 C 0.55154 0.92969 0.90306 0.0
C325 C 0.54631 0.94961 0.83543 0.0
C326 C 0.52426 0.85246 0.79527 0.0
C327 C 0.56451 0.94285 0.9873 0.0
H328 H 0.51387 0.82924 0.11088 0.0
H329 H 0.60568 0.82908 0.01191 0.0
H330 H 0.5002 0.90261 0.02337 0.0
H331 H 0.48386 0.86989 0.96357 0.0
H332 H 0.48344 0.86946 0.08002 0.0
H333 H 0.62684 0.86473 0.91233 0.0
H334 H 0.59828 0.86826 0.83128 0.0
H335 H 0.60924 0.89991 0.90231 0.0
H336 H 0.51618 0.89784 0.68592 0.0
H337 H 0.55175 0.97403 0.84464 0.0
H338 H 0.5073 0.84295 0.84374 0.0
H339 H 0.54521 0.84049 0.80234 0.0
H340 H 0.51487 0.84727 0.72962 0.0
H341 H 0.54868 0.93594 0.04143 0.0
H342 H 0.56829 0.96821 0.98698 0.0
H343 H 0.5866 0.93362 1.0005 0.0
C344 C 0.69414 0.51445 0.96034 0.0
C345 C 0.70117 0.48415 0.96929 0.0
C346 C 0.66984 0.52138 0.90695 0.0
C347 C 0.6528 0.49758 0.85974 0.0
C348 C 0.65881 0.46693 0.87255 0.0
C349 C 0.68227 0.46064 0.92838 0.0
C350 C 0.66303 0.5542 0.89889 0.0
C351 C 0.64153 0.44069 0.82373 0.0
C352 C 0.57595 0.50074 0.75071 0.0
C353 C 0.58449 0.50568 0.66389 0.0
C354 C 0.59791 0.50106 0.8163 0.0
C355 C 0.62944 0.50416 0.79425 0.0
C356 C 0.63826 0.5093 0.70668 0.0
C357 C 0.6157 0.51055 0.64289 0.0
C358 C 0.5872 0.4969 0.9088 0.0
C359 C 0.67153 0.51178 0.67949 0.0
H360 H 0.70841 0.53281 0.9918 0.0
H361 H 0.68687 0.43708 0.93675 0.0
H362 H 0.66996 0.5625 0.83365 0.0
H363 H 0.63807 0.55605 0.90615 0.0
H364 H 0.67534 0.5694 0.94796 0.0
H365 H 0.64945 0.41822 0.83968 0.0
H366 H 0.61672 0.43996 0.83872 0.0
H367 H 0.64442 0.44405 0.75303 0.0
H368 H 0.55195 0.49625 0.76764 0.0
H369 H 0.62253 0.5141 0.57598 0.0
H370 H 0.60163 0.51212 0.95328 0.0
H371 H 0.58913 0.47298 0.92792 0.0
H372 H 0.56296 0.50177 0.91751 0.0
H373 H 0.68486 0.52961 0.71891 0.0
H374 H 0.67477 0.51737 0.61004 0.0
H375 H 0.68114 0.48976 0.69104 0.0
C376 C 0.97064 0.67098 0.98601 0.0
C377 C 0.9954 0.67847 0.04122 0.0
C378 C 0.97036 0.64577 0.92838 0.0
C379 C 0.99568 0.62797 0.92528 0.0
C380 C 0.01917 0.63367 0.98739 0.0
C381 C 0.01883 0.65903 0.04431 0.0
C382 C 0.94467 0.64046 0.86423 0.0
C383 C 0.04649 0.61527 0.98734 0.0
C384 C 0.99649 0.56048 0.76418 0.0
C385 C 0.0116 0.57475 0.69324 0.0
C386 C 0.99103 0.57729 0.8408 0.0
C387 C 1.00108 0.60894 0.84622 0.0
C388 C 0.01647 0.6232 0.77454 0.0
C389 C 0.02142 0.60599 0.69934 0.0
C390 C 0.97444 0.56129 0.91553 0.0
C391 C 0.02776 0.65682 0.77692 0.0
H392 H 0.95273 0.68629 0.98289 0.0
H393 H 0.03818 0.6651 0.08631 0.0
H394 H 0.95245 0.65004 0.80098 0.0
H395 H 0.93805 0.61567 0.854 0.0
H396 H 0.92417 0.65168 0.88574 0.0
H397 H 0.05906 0.61804 0.04942 0.0
H398 H 0.03946 0.59063 0.97561 0.0
H399 H 0.06245 0.62311 0.93437 0.0
H400 H 0.98885 0.53633 0.75964 0.0
H401 H 0.03318 0.61717 0.64486 0.0
H402 H 0.95321 0.57219 0.93111 0.0
H403 H 0.98893 0.56363 0.97404 0.0
H404 H 0.96828 0.53659 0.9014 0.0
H405 H 0.00823 0.67074 0.78794 0.0
H406 H 0.03963 0.66428 0.71601 0.0
H407 H 0.04385 0.66181 0.83131 0.0
C408 C 0.94512 0.18599 0.02912 0.0
C409 C 0.96332 0.20895 0.07431 0.0
C410 C 0.93961 0.15654 0.0622 0.0
C411 C 0.9514 0.15043 0.14401 0.0
C412 C 0.96565 0.17472 0.1953 0.0
C413 C 0.9718 0.20373 0.15936 0.0
C414 C 0.92414 0.13136 0.00584 0.0
C415 C 0.97731 0.16936 0.28467 0.0
C416 C 0.93722 0.07504 0.25896 0.0
C417 C 0.96595 0.06391 0.2487 0.0
C418 C 0.93109 0.10247 0.2207 0.0
C419 C 0.95405 0.11844 0.1696 0.0
C420 C 0.98177 0.10531 0.15138 0.0
C421 C 0.9876 0.07841 0.19253 0.0
C422 C 0.90137 0.11562 0.2426 0.0
C423 C 0.00637 0.12095 0.09415 0.0
H424 H 0.93773 0.19028 0.96417 0.0
H425 H 0.98567 0.22137 0.19501 0.0
H426 H 0.94099 0.11518 0.98611 0.0
H427 H 0.90553 0.11833 0.04245 0.0
H428 H 0.91436 0.14028 0.94654 0.0
H429 H 0.98291 0.19115 0.32132 0.0
H430 H 0.96009 0.15471 0.32203 0.0
H431 H 0.99836 0.15729 0.2792 0.0
H432 H 0.92053 0.06387 0.30307 0.0
H433 H 0.00975 0.06962 0.18445 0.0
H434 H 0.8934 0.12903 0.18875 0.0
H435 H 0.90491 0.13123 0.29969 0.0
H436 H 0.88311 0.09735 0.25922 0.0
H437 H 0.99628 0.12941 0.03482 0.0
H438 H 0.02394 0.10545 0.07488 0.0
H439 H 0.01792 0.141 0.12937 0.0
C440 C 0.29437 0.91939 0.16868 0.0
C441 C 0.29659 0.95044 0.14876 0.0
C442 C 0.31584 0.90808 0.22357 0.0
C443 C 0.33975 0.9285 0.25831 0.0
C444 C 0.34101 0.96014 0.24092 0.0
C445 C 0.31942 0.97064 0.18626 0.0
C446 C 0.31366 0.8743 0.24105 0.0
C447 C 0.36584 0.9829 0.27738 0.0
C448 C 0.39118 0.92275 0.4465 0.0
C449 C 0.41935 0.92287 0.40282 0.0
C450 C 0.36372 0.92008 0.40049 0.0
C451 C 0.3648 0.91754 0.30918 0.0
C452 C 0.3928 0.91289 0.26667 0.0
C453 C 0.41994 0.91573 0.31428 0.0
C454 C 0.33426 0.92434 0.44854 0.0
C455 C 0.39478 0.90929 0.16956 0.0
H456 H 0.2766 0.9039 0.13905 0.0
H457 H 0.32077 0.99471 0.17076 0.0
H458 H 0.33036 0.86342 0.19905 0.0
H459 H 0.31935 0.87004 0.30921 0.0
H460 H 0.29045 0.86304 0.22703 0.0
H461 H 0.36278 0.00679 0.2596 0.0
H462 H 0.36608 0.98172 0.34896 0.0
H463 H 0.38856 0.97732 0.25291 0.0
H464 H 0.39067 0.92765 0.51551 0.0
H465 H 0.44173 0.91522 0.28074 0.0
H466 H 0.33572 0.91837 0.51777 0.0
H467 H 0.31467 0.91021 0.41885 0.0
H468 H 0.32955 0.94866 0.44549 0.0
H469 H 0.37507 0.89412 0.14459 0.0
H470 H 0.41634 0.89983 0.14868 0.0
H471 H 0.39413 0.93199 0.13977 0.0
C472 C 0.41687 0.31317 0.10865 0.0
C473 C 0.43313 0.28868 0.13255 0.0
C474 C 0.42384 0.34239 0.14525 0.0
C475 C 0.44669 0.34666 0.20918 0.0
C476 C 0.45936 0.32111 0.24337 0.0
C477 C 0.45254 0.29234 0.20425 0.0
C478 C 0.40932 0.36906 0.1087 0.0
C479 C 0.48279 0.32463 0.31453 0.0
C480 C 0.50275 0.41766 0.21616 0.0
C481 C 0.49223 0.43272 0.28916 0.0
C482 C 0.48693 0.39025 0.18633 0.0
C483 C 0.46051 0.37776 0.23201 0.0
C484 C 0.44937 0.39363 0.30412 0.0
C485 C 0.46558 0.42084 0.33219 0.0
C486 C 0.49927 0.37393 0.10851 0.0
C487 C 0.4216 0.38108 0.35523 0.0
H488 H 0.40112 0.31022 0.05494 0.0
H489 H 0.46509 0.27362 0.224 0.0
H490 H 0.40345 0.38525 0.16088 0.0
H491 H 0.42587 0.38166 0.06432 0.0
H492 H 0.3883 0.36145 0.07176 0.0
H493 H 0.48656 0.30232 0.34317 0.0
H494 H 0.50492 0.33491 0.28786 0.0
H495 H 0.47558 0.34015 0.3667 0.0
H496 H 0.52364 0.42684 0.18409 0.0
H497 H 0.45813 0.43214 0.39057 0.0
H498 H 0.48063 0.36722 0.06209 0.0
H499 H 0.50857 0.35267 0.12933 0.0
H500 H 0.51773 0.38827 0.07461 0.0
H501 H 0.4034 0.37045 0.31203 0.0
H502 H 0.41202 0.39915 0.3956 0.0
H503 H 0.42821 0.36313 0.39886 0.0
C504 C 0.22533 0.5924 0.2275 0.0
C505 C 0.2335 0.59897 0.14151 0.0
C506 C 0.19617 0.59748 0.2589 0.0
C507 C 0.17501 0.60879 0.2021 0.0
C508 C 0.18552 0.62158 0.12289 0.0
C509 C 0.21521 0.61714 0.09415 0.0
C510 C 0.18643 0.58564 0.34691 0.0
C511 C 0.16413 0.63523 0.0622 0.0
C512 C 0.10423 0.5542 0.21913 0.0
C513 C 0.08653 0.57002 0.27688 0.0
C514 C 0.13174 0.56817 0.18587 0.0
C515 C 0.14212 0.59832 0.21391 0.0
C516 C 0.12273 0.61541 0.26517 0.0
C517 C 0.09483 0.60104 0.29554 0.0
C518 C 0.151 0.54953 0.12743 0.0
C519 C 0.13246 0.64768 0.29549 0.0
H520 H 0.23964 0.57931 0.26617 0.0
H521 H 0.22217 0.62373 0.02911 0.0
H522 H 0.17093 0.60088 0.37948 0.0
H523 H 0.17381 0.56263 0.33935 0.0
H524 H 0.20645 0.58363 0.38904 0.0
H525 H 0.17689 0.65187 0.01864 0.0
H526 H 0.15241 0.6167 0.02139 0.0
H527 H 0.14634 0.64679 0.09814 0.0
H528 H 0.09747 0.5303 0.20412 0.0
H529 H 0.081 0.61332 0.3403 0.0
H530 H 0.17116 0.54327 0.16336 0.0
H531 H 0.15956 0.56301 0.07077 0.0
H532 H 0.138 0.52813 0.10354 0.0
H533 H 0.1433 0.64704 0.35983 0.0
H534 H 0.11233 0.66106 0.30292 0.0
H535 H 0.14921 0.6597 0.25059 0.0
C536 C 0.02257 0.79245 0.9197 0.0
C537 C 0.03629 0.78703 0.99842 0.0
C538 C 0.02953 0.82025 0.87753 0.0
C539 C 0.05078 0.84289 0.91518 0.0
C540 C 0.06659 0.83643 0.99077 0.0
C541 C 0.05913 0.8085 0.03156 0.0
C542 C 0.01239 0.82626 0.79641 0.0
C543 C 0.08965 0.85981 0.0322 0.0
C544 C 0.07446 0.90945 0.77005 0.0
C545 C 0.05298 0.9298 0.79404 0.0
C546 C 0.07528 0.88165 0.81235 0.0
C547 C 0.05407 0.87417 0.87987 0.0
C548 C 0.03394 0.89572 0.90872 0.0
C549 C 0.03368 0.92341 0.86534 0.0
C550 C 0.0974 0.85947 0.78086 0.0
C551 C 0.01123 0.88868 0.98142 0.0
H552 H 1.00473 0.77598 0.89455 0.0
H553 H 0.06983 0.80415 0.0924 0.0
H554 H 0.02854 0.83504 0.74499 0.0
H555 H 0.99876 0.80541 0.77131 0.0
H556 H 0.9966 0.84408 0.81029 0.0
H557 H 0.10334 0.84956 0.08206 0.0
H558 H 0.10546 0.87066 0.98283 0.0
H559 H 0.07752 0.87817 0.06366 0.0
H560 H 0.08951 0.91446 0.71502 0.0
H561 H 0.01708 0.93916 0.88392 0.0
H562 H 0.08467 0.84016 0.74535 0.0
H563 H 0.10881 0.84976 0.83619 0.0
H564 H 0.11521 0.87041 0.73684 0.0
H565 H 0.99909 0.90884 1.00087 0.0
H566 H 0.02293 0.88075 0.03882 0.0
H567 H 0.99397 0.86992 0.96071 0.0
C568 C 0.72417 0.09362 0.96998 0.0
C569 C 0.73722 0.06656 0.9487 0.0
C570 C 0.70071 0.10332 0.91928 0.0
C571 C 0.6892 0.08453 0.84932 0.0
C572 C 0.70444 0.05881 0.82307 0.0
C573 C 0.72869 0.05046 0.87251 0.0
C574 C 0.68656 0.13214 0.94522 0.0
C575 C 0.69287 0.03792 0.74927 0.0
C576 C 0.60415 0.06838 0.819 0.0
C577 C 0.60105 0.07768 0.73387 0.0
C578 C 0.63256 0.07236 0.85991 0.0
C579 C 0.65806 0.08737 0.81576 0.0
C580 C 0.65401 0.10012 0.7338 0.0
C581 C 0.62563 0.09435 0.69256 0.0
C582 C 0.63584 0.05771 0.94658 0.0
C583 C 0.67995 0.11799 0.6868 0.0
H584 H 0.73094 0.10608 0.02899 0.0
H585 H 0.73876 0.0294 0.8568 0.0
H586 H 0.67861 0.14373 0.88768 0.0
H587 H 0.66648 0.12638 0.98804 0.0
H588 H 0.70308 0.14827 0.98128 0.0
H589 H 0.70821 0.01972 0.73483 0.0
H590 H 0.66979 0.02685 0.76577 0.0
H591 H 0.69072 0.05117 0.68985 0.0
H592 H 0.58509 0.05543 0.85079 0.0
H593 H 0.62307 0.10183 0.62685 0.0
H594 H 0.6457 0.07485 0.99453 0.0
H595 H 0.65173 0.03957 0.94023 0.0
H596 H 0.61362 0.04728 0.97249 0.0
H597 H 0.69683 0.12959 0.73245 0.0
H598 H 0.67118 0.13542 0.64504 0.0
H599 H 0.69194 0.10227 0.64425 0.0
C600 C 0.60114 0.69361 0.07331 0.0
C601 C 0.58653 0.71734 0.03682 0.0
C602 C 0.59663 0.66374 0.03953 0.0
C603 C 0.5786 0.65806 0.96485 0.0
C604 C 0.56803 0.68276 0.92008 0.0
C605 C 0.57182 0.71218 0.95724 0.0
C606 C 0.60825 0.63799 0.08898 0.0
C607 C 0.55004 0.67772 0.83747 0.0
C608 C 0.57055 0.58387 0.83812 0.0
C609 C 0.54005 0.57337 0.85726 0.0
C610 C 0.58446 0.61048 0.87718 0.0
C611 C 0.56762 0.62637 0.9385 0.0
C612 C 0.53814 0.61376 0.96577 0.0
C613 C 0.52447 0.58732 0.92401 0.0
C614 C 0.61572 0.62317 0.84549 0.0
C615 C 0.51994 0.62965 0.03341 0.0
H616 H 0.61329 0.69777 0.13372 0.0
H617 H 0.56063 0.73034 0.92818 0.0
H618 H 0.58859 0.62415 0.11893 0.0
H619 H 0.61992 0.6225 0.04496 0.0
H620 H 0.62432 0.64651 0.14096 0.0
H621 H 0.54758 0.69952 0.80422 0.0
H622 H 0.56126 0.66221 0.79233 0.0
H623 H 0.52681 0.66673 0.85254 0.0
H624 H 0.58285 0.57263 0.78733 0.0
H625 H 0.50099 0.57904 0.93907 0.0
H626 H 0.63024 0.63252 0.89977 0.0
H627 H 0.6131 0.64223 0.80099 0.0
H628 H 0.62779 0.6056 0.80989 0.0
H629 H 0.53479 0.63843 0.08765 0.0
H630 H 0.50065 0.61418 0.05953 0.0
H631 H 0.51038 0.64951 0.00419 0.0
C632 C 0.80438 0.44082 0.86333 0.0
C633 C 0.79549 0.4297 0.94481 0.0
C634 C 0.83185 0.43353 0.82516 0.0
C635 C 0.85046 0.41449 0.8697 0.0
C636 C 0.8392 0.39949 0.94519 0.0
C637 C 0.81174 0.40746 0.98244 0.0
C638 C 0.84273 0.44955 0.74326 0.0
C639 C 0.85763 0.37781 0.99202 0.0
C640 C 0.92234 0.40762 0.73977 0.0
C641 C 0.9401 0.43386 0.76963 0.0
C642 C 0.89409 0.39841 0.77885 0.0
C643 C 0.88347 0.41632 0.84775 0.0
C644 C 0.90308 0.44058 0.88452 0.0
C645 C 0.93139 0.44896 0.84501 0.0
C646 C 0.87453 0.37147 0.74076 0.0
C647 C 0.89287 0.45992 0.95943 0.0
H648 H 0.79178 0.45792 0.83397 0.0
H649 H 0.80445 0.39838 0.04484 0.0
H650 H 0.85174 0.43317 0.69627 0.0
H651 H 0.82418 0.4607 0.71183 0.0
H652 H 0.86164 0.46737 0.75878 0.0
H653 H 0.84253 0.36135 0.03055 0.0
H654 H 0.87148 0.36491 0.94624 0.0
H655 H 0.87352 0.39103 0.03727 0.0
H656 H 0.92945 0.39552 0.6823 0.0
H657 H 0.94542 0.46896 0.8688 0.0
H658 H 0.85949 0.37957 0.69064 0.0
H659 H 0.85973 0.3596 0.79076 0.0
H660 H 0.88888 0.35481 0.70937 0.0
H661 H 0.87431 0.47345 0.93804 0.0
H662 H 0.91184 0.47601 0.98508 0.0
H663 H 0.88356 0.44525 0.01286 0.0
C664 C 0.05241 0.22627 0.82635 0.0
C665 C 0.02475 0.23958 0.82052 0.0
C666 C 0.0577 0.20025 0.77577 0.0
C667 C 0.03455 0.18716 0.71947 0.0
C668 C 0.00874 0.20331 0.70429 0.0
C669 C 1.0045 0.22974 0.75389 0.0
C670 C 0.08634 0.18474 0.7905 0.0
C671 C 0.98338 0.19041 0.64517 0.0
C672 C 0.04146 0.1158 0.57816 0.0
C673 C 0.0287 0.09261 0.63241 0.0
C674 C 0.04501 0.14656 0.60674 0.0
C675 C 0.03428 0.15447 0.69021 0.0
C676 C 0.02156 0.13099 0.74538 0.0
C677 C 0.01947 0.10034 0.71634 0.0
C678 C 0.05957 0.17054 0.54673 0.0
C679 C 0.00898 0.13828 0.83405 0.0
H680 H 0.06807 0.23365 0.87806 0.0
H681 H 0.98296 0.23984 0.74986 0.0
H682 H 0.08107 0.16542 0.83508 0.0
H683 H 0.09502 0.17529 0.72884 0.0
H684 H 0.10466 0.20073 0.81987 0.0
H685 H 0.96739 0.20769 0.63031 0.0
H686 H 0.99277 0.18175 0.58358 0.0
H687 H 0.97017 0.17085 0.67699 0.0
H688 H 0.04873 0.10987 0.51322 0.0
H689 H 0.00928 0.08251 0.75802 0.0
H690 H 0.07515 0.18762 0.58257 0.0
H691 H 0.04152 0.18288 0.5173 0.0
H692 H 0.0727 0.16026 0.49359 0.0
H693 H 0.02716 0.15057 0.87425 0.0
H694 H 0.99966 0.11744 0.86854 0.0
H695 H 0.99042 0.15357 0.8281 0.0
C696 C 0.29438 0.99471 0.80197 0.0
C697 C 0.29375 0.00835 0.88467 0.0
C698 C 0.32013 1.00023 0.74684 0.0
C699 C 0.34622 0.019 0.77646 0.0
C700 C 0.3445 0.0348 0.85696 0.0
C701 C 0.31815 0.02964 0.9092 0.0
C702 C 0.32036 0.98392 0.66006 0.0
C703 C 0.37175 0.05447 0.89273 0.0
C704 C 0.42561 0.99707 0.71228 0.0
C705 C 0.43679 0.0214 0.65996 0.0
C706 C 0.39603 0.99578 0.74907 0.0
C707 C 0.37655 0.01876 0.73046 0.0
C708 C 0.38719 0.04246 0.67355 0.0
C709 C 0.41739 0.04386 0.64048 0.0
C710 C 0.38616 0.97048 0.81096 0.0
C711 C 0.36688 0.06665 0.64882 0.0
H712 H 0.27591 0.97779 0.78326 0.0
H713 H 0.31804 0.03969 0.97387 0.0
H714 H 0.33167 0.99904 0.61017 0.0
H715 H 0.33349 0.96366 0.66453 0.0
H716 H 0.29683 0.97596 0.63857 0.0
H717 H 0.38991 0.0397 0.90932 0.0
H718 H 0.38148 0.07084 0.84381 0.0
H719 H 0.3658 0.06752 0.95184 0.0
H720 H 0.44053 0.97968 0.72765 0.0
H721 H 0.42585 0.06253 0.59921 0.0
H722 H 0.36503 0.95718 0.78746 0.0
H723 H 0.38078 0.98042 0.8753 0.0
H724 H 0.40405 0.95453 0.81914 0.0
H725 H 0.37684 0.08081 0.59489 0.0
H726 H 0.36344 0.08193 0.70533 0.0
H727 H 0.344 0.05592 0.62938 0.0
C728 C 0.49655 0.28091 0.83876 0.0
C729 C 0.46732 0.26502 0.84333 0.0
C730 C 0.50189 0.30761 0.78967 0.0
C731 C 0.47738 0.31873 0.74463 0.0
C732 C 0.44902 0.30048 0.73996 0.0
C733 C 0.44446 0.27367 0.78861 0.0
C734 C 0.53287 0.32565 0.79387 0.0
C735 C 0.42227 0.3111 0.6924 0.0
C736 C 0.47598 0.40555 0.74543 0.0
C737 C 0.48494 0.413 0.66043 0.0
C738 C 0.47314 0.37502 0.77286 0.0
C739 C 0.4799 0.35115 0.71448 0.0
C740 C 0.48892 0.35848 0.62856 0.0
C741 C 0.49093 0.38915 0.60235 0.0
C742 C 0.46301 0.3683 0.86483 0.0
C743 C 0.49659 0.33404 0.56407 0.0
H744 H 0.51419 0.27467 0.88175 0.0
H745 H 0.4217 0.26176 0.79294 0.0
H746 H 0.53991 0.33453 0.72924 0.0
H747 H 0.53163 0.34559 0.83855 0.0
H748 H 0.5507 0.31164 0.81765 0.0
H749 H 0.40352 0.29247 0.68377 0.0
H750 H 0.41312 0.33011 0.72974 0.0
H751 H 0.42952 0.31991 0.62795 0.0
H752 H 0.47123 0.42363 0.7909 0.0
H753 H 0.49793 0.39444 0.53646 0.0
H754 H 0.48091 0.35703 0.89869 0.0
H755 H 0.44191 0.35223 0.86494 0.0
H756 H 0.45842 0.38928 0.90211 0.0
H757 H 0.51069 0.31754 0.59419 0.0
H758 H 0.50912 0.3439 0.50676 0.0
H759 H 0.47514 0.32109 0.5414 0.0
C760 C 0.23355 0.54216 0.83645 0.0
C761 C 0.23901 0.52366 0.90663 0.0
C762 C 0.20833 0.53512 0.78204 0.0
C763 C 0.18861 0.50815 0.79556 0.0
C764 C 0.19633 0.48742 0.8593 0.0
C765 C 0.22119 0.49563 0.91504 0.0
C766 C 0.2009 0.5584 0.71689 0.0
C767 C 0.17687 0.45775 0.87358 0.0
C768 C 0.10393 0.51309 0.74946 0.0
C769 C 0.10124 0.50163 0.66435 0.0
C770 C 0.1321 0.51505 0.79285 0.0
C771 C 0.15809 0.50407 0.75158 0.0
C772 C 0.15511 0.49129 0.66674 0.0
C773 C 0.12693 0.49089 0.6234 0.0
C774 C 0.13425 0.52981 0.88198 0.0
C775 C 0.18171 0.47813 0.62166 0.0
H776 H 0.24707 0.564 0.83026 0.0
H777 H 0.22497 0.48138 0.96959 0.0
H778 H 0.1954 0.54733 0.65323 0.0
H779 H 0.18038 0.56937 0.73935 0.0
H780 H 0.22004 0.57654 0.708 0.0
H781 H 0.18937 0.44142 0.91014 0.0
H782 H 0.15607 0.46229 0.91124 0.0
H783 H 0.16936 0.4469 0.81097 0.0
H784 H 0.08416 0.52158 0.78112 0.0
H785 H 0.12484 0.48172 0.55789 0.0
H786 H 0.15195 0.54963 0.88204 0.0
H787 H 0.14134 0.51335 0.92944 0.0
H788 H 0.11218 0.53787 0.90423 0.0
H789 H 0.19982 0.49668 0.60675 0.0
H790 H 0.1748 0.46593 0.56031 0.0
H791 H 0.19191 0.462 0.6647 0.0
C792 C 0.00866 0.77349 0.33164 0.0
C793 C 0.98615 0.76099 0.2741 0.0
C794 C 1.00444 0.80005 0.38057 0.0
C795 C 0.9766 0.81365 0.37394 0.0
C796 C 0.95197 0.79789 0.32797 0.0
C797 C 0.95713 0.77181 0.27755 0.0
C798 C 0.03131 0.81574 0.42928 0.0
C799 C 0.9213 0.81056 0.32376 0.0
C800 C 0.97222 0.88655 0.50985 0.0
C801 C 0.9811 0.90918 0.44928 0.0
C802 C 0.9688 0.85538 0.48563 0.0
C803 C 0.97561 0.84654 0.39949 0.0
C804 C 0.9839 0.86943 0.33767 0.0
C805 C 0.98603 0.90044 0.36307 0.0
C806 C 0.95905 0.83209 0.55342 0.0
C807 C 0.99213 0.86117 0.24547 0.0
H808 H 0.03117 0.76522 0.32853 0.0
H809 H 0.93969 0.7623 0.23294 0.0
H810 H 0.04071 0.83626 0.39349 0.0
H811 H 0.02406 0.82355 0.49425 0.0
H812 H 0.04989 0.80054 0.43696 0.0
H813 H 0.90306 0.79279 0.30255 0.0
H814 H 0.91484 0.82005 0.38776 0.0
H815 H 0.92259 0.82941 0.2768 0.0
H816 H 0.96826 0.89319 0.57667 0.0
H817 H 0.99322 0.91779 0.31626 0.0
H818 H 0.94537 0.81186 0.52506 0.0
H819 H 0.94537 0.84216 0.6057 0.0
H820 H 0.97966 0.82418 0.58339 0.0
H821 H 0.01222 0.84761 0.24491 0.0
H822 H 0.99773 0.88166 0.20525 0.0
H823 H 0.97291 0.84679 0.21492 0.0
C824 C 0.69736 0.98564 0.16348 0.0
C825 C 0.72506 0.99972 0.19589 0.0
C826 C 0.67168 0.97926 0.21748 0.0
C827 C 0.67373 0.98667 0.30698 0.0
C828 C 0.70243 0.99851 0.34138 0.0
C829 C 0.72773 0.0052 0.28522 0.0
C830 C 0.64167 0.96702 0.17713 0.0
C831 C 0.7059 0.00604 0.43658 0.0
C832 C 0.59928 0.00831 0.41069 0.0
C833 C 0.58698 0.98054 0.4457 0.0
C834 C 0.62787 0.0108 0.36787 0.0
C835 C 0.64509 0.9851 0.36148 0.0
C836 C 0.63344 0.95743 0.40069 0.0
C837 C 0.60439 0.95537 0.44138 0.0
C838 C 0.63896 0.04063 0.32593 0.0
C839 C 0.65126 0.92972 0.39742 0.0
H840 H 0.69513 0.98174 0.09423 0.0
H841 H 0.74891 0.01652 0.31038 0.0
H842 H 0.63116 0.94705 0.21311 0.0
H843 H 0.62544 0.98489 0.18068 0.0
H844 H 0.64445 0.96006 0.10821 0.0
H845 H 0.73033 0.00999 0.45538 0.0
H846 H 0.69467 0.02705 0.45251 0.0
H847 H 0.69452 0.98733 0.476 0.0
H848 H 0.586 0.02788 0.41371 0.0
H849 H 0.59512 0.93391 0.46891 0.0
H850 H 0.64075 0.03708 0.25484 0.0
H851 H 0.66212 0.04886 0.34945 0.0
H852 H 0.62341 0.05874 0.33916 0.0
H853 H 0.65192 0.92057 0.33009 0.0
H854 H 0.64098 0.91128 0.43979 0.0
H855 H 0.67528 0.93606 0.41735 0.0
C856 C 0.55931 0.73813 0.36984 0.0
C857 C 0.53959 0.74689 0.30601 0.0
C858 C 0.55247 0.71086 0.41524 0.0
C859 C 0.52483 0.69245 0.39813 0.0
C860 C 0.50276 0.70387 0.34435 0.0
C861 C 0.51039 0.73108 0.29906 0.0
C862 C 0.57665 0.69992 0.47251 0.0
C863 C 0.4726 0.68556 0.32604 0.0
C864 C 0.52845 0.6059 0.39624 0.0
C865 C 0.51583 0.59774 0.47721 0.0
C866 C 0.53138 0.63658 0.36996 0.0
C867 C 0.52112 0.65976 0.42541 0.0
C868 C 0.50795 0.65161 0.5066 0.0
C869 C 0.50563 0.62086 0.53164 0.0
C870 C 0.54595 0.64425 0.28316 0.0
C871 C 0.49637 0.6754 0.56721 0.0
H872 H 0.58205 0.75005 0.3747 0.0
H873 H 0.49517 0.7375 0.24921 0.0
H874 H 0.56631 0.68953 0.53203 0.0
H875 H 0.58837 0.68206 0.43716 0.0
H876 H 0.59413 0.7188 0.49124 0.0
H877 H 0.45587 0.69987 0.29767 0.0
H878 H 0.4764 0.66674 0.27937 0.0
H879 H 0.46258 0.67509 0.3859 0.0
H880 H 0.53649 0.58837 0.35379 0.0
H881 H 0.4956 0.61496 0.59418 0.0
H882 H 0.56739 0.65946 0.29251 0.0
H883 H 0.53045 0.65682 0.24394 0.0
H884 H 0.55145 0.62353 0.2461 0.0
H885 H 0.51551 0.69245 0.58618 0.0
H886 H 0.48573 0.66523 0.62683 0.0
H887 H 0.47924 0.68791 0.53399 0.0
C888 C 0.79281 0.47359 0.26541 0.0
C889 C 0.78508 0.49399 0.20222 0.0
C890 C 0.81896 0.47999 0.31674 0.0
C891 C 0.83727 0.50811 0.30749 0.0
C892 C 0.82711 0.53048 0.2524 0.0
C893 C 0.80138 0.52299 0.19937 0.0
C894 C 0.8289 0.45506 0.37279 0.0
C895 C 0.84496 0.56134 0.24357 0.0
C896 C 0.9029 0.52178 0.46903 0.0
C897 C 0.92792 0.51345 0.41957 0.0
C898 C 0.87361 0.52189 0.43236 0.0
C899 C 0.86884 0.512 0.34525 0.0
C900 C 0.89417 0.50363 0.29512 0.0
C901 C 0.92342 0.50509 0.33235 0.0
C902 C 0.84773 0.53219 0.48728 0.0
C903 C 0.8902 0.49196 0.20292 0.0
H904 H 0.78053 0.45098 0.26701 0.0
H905 H 0.79586 0.53874 0.15009 0.0
H906 H 0.8493 0.44578 0.34295 0.0
H907 H 0.83557 0.46418 0.43788 0.0
H908 H 0.81064 0.43595 0.38032 0.0
H909 H 0.83092 0.57814 0.21448 0.0
H910 H 0.85331 0.57034 0.30748 0.0
H911 H 0.86523 0.55913 0.20121 0.0
H912 H 0.90631 0.52844 0.53639 0.0
H913 H 0.94262 0.49835 0.29409 0.0
H914 H 0.83455 0.54793 0.45071 0.0
H915 H 0.8561 0.54392 0.548 0.0
H916 H 0.83172 0.51214 0.5047 0.0
H917 H 0.8733 0.47149 0.20087 0.0
H918 H 0.91201 0.48575 0.17335 0.0
H919 H 0.88114 0.50959 0.16269 0.0
loop_
_geom_bond_atom_site_label_1
_geom_bond_atom_site_label_2
_geom_bond_distance
_geom_bond_site_symmetry_2
_ccdc_geom_bond_type
H0 C3 0.931 . S
H1 C6 0.928 . S
H2 C8 0.930 . S
C3 H0 0.931 . S
C3 C4 1.413 . S
C3 C5 1.360 1_554 S
C4 C3 1.413 . S
C4 C8 1.429 . S
C5 C3 1.360 1_556 S
C5 C6 1.372 . S
C6 H1 0.928 . S
C6 C5 1.372 . S
C6 C7 1.404 1_556 S
C7 C6 1.404 1_554 S
C7 C8 1.391 . S
C8 H2 0.930 . S
C8 C4 1.429 . S
C8 C7 1.391 . S
H9 C12 0.931 . S
H10 C15 0.928 . S
H11 C17 0.930 . S
C12 H9 0.931 . S
C12 C13 1.413 . S
C12 C14 1.360 1_554 S
C13 C12 1.413 . S
C13 C17 1.429 . S
C14 C12 1.360 1_556 S
C14 C15 1.372 . S
C15 H10 0.928 . S
C15 C14 1.372 . S
C15 C16 1.404 1_556 S
C16 C15 1.404 1_554 S
C16 C17 1.391 . S
C17 H11 0.930 . S
C17 C13 1.429 . S
C17 C16 1.391 . S
H18 C21 0.931 . S
H19 C24 0.928 . S
H20 C26 0.932 . S
C21 H18 0.931 . S
C21 C22 1.414 . S
C21 C23 1.360 1_554 S
C22 C21 1.414 . S
C22 C26 1.430 1_565 S
C23 C21 1.360 1_556 S
C23 C24 1.374 . S
C24 H19 0.928 . S
C24 C23 1.374 . S
C24 C25 1.403 1_556 S
C25 C24 1.403 1_554 S
C25 C26 1.390 1_565 S
C26 H20 0.932 . S
C26 C22 1.430 1_545 S
C26 C25 1.390 1_545 S
H27 C30 0.931 . S
H28 C33 0.928 . S
H29 C35 0.930 . S
C30 H27 0.931 . S
C30 C31 1.413 . S
C30 C32 1.360 . S
C31 C30 1.413 . S
C31 C35 1.429 1_554 S
C32 C30 1.360 . S
C32 C33 1.372 . S
C33 H28 0.928 . S
C33 C32 1.372 . S
C33 C34 1.404 . S
C34 C33 1.404 . S
C34 C35 1.391 1_554 S
C35 H29 0.930 . S
C35 C31 1.429 1_556 S
C35 C34 1.391 1_556 S
H36 C39 0.931 . S
H37 C42 0.928 . S
H38 C44 0.930 . S
C39 H36 0.931 . S
C39 C40 1.413 1_554 S
C39 C41 1.360 . S
C40 C39 1.413 1_556 S
C40 C44 1.429 . S
C41 C39 1.360 . S
C41 C42 1.372 . S
C42 H37 0.928 . S
C42 C41 1.372 . S
C42 C43 1.404 . S
C43 C42 1.404 . S
C43 C44 1.391 1_554 S
C44 H38 0.930 . S
C44 C40 1.429 . S
C44 C43 1.391 1_556 S
H45 C48 0.931 . S
H46 C51 0.928 . S
H47 C53 0.930 1_556 S
C48 H45 0.931 . S
C48 C49 1.413 1_554 S
C48 C50 1.360 . S
C49 C48 1.413 1_556 S
C49 C53 1.429 1_556 S
C50 C48 1.360 . S
C50 C51 1.372 . S
C51 H46 0.928 . S
C51 C50 1.372 . S
C51 C52 1.404 . S
C52 C51 1.404 . S
C52 C53 1.391 . S
C53 H47 0.930 1_554 S
C53 C49 1.429 1_554 S
C53 C52 1.391 . S
H54 C57 0.930 . S
H55 C60 0.928 . S
H56 C62 0.928 . S
C57 H54 0.930 . S
C57 C58 1.413 1_554 S
C57 C59 1.360 . S
C58 C57 1.413 1_556 S
C58 C62 1.428 1_565 S
C59 C57 1.360 . S
C59 C60 1.371 . S
C60 H55 0.928 . S
C60 C59 1.371 . S
C60 C61 1.404 . S
C61 C60 1.404 . S
C61 C62 1.391 1_564 S
C62 H56 0.928 . S
C62 C58 1.428 1_545 S
C62 C61 1.391 1_546 S
H63 C66 0.931 1_556 S
H64 C69 0.928 . S
H65 C71 0.930 . S
C66 H63 0.931 1_554 S
C66 C67 1.413 . S
C66 C68 1.360 1_554 S
C67 C66 1.413 . S
C67 C71 1.429 . S
C68 C66 1.360 1_556 S
C68 C69 1.372 . S
C69 H64 0.928 . S
C69 C68 1.372 . S
C69 C70 1.404 1_556 S
C70 C69 1.404 1_554 S
C70 C71 1.391 . S
C71 H65 0.930 . S
C71 C67 1.429 . S
C71 C70 1.391 . S
Dy72 O76 2.398 . S
Dy72 O77 2.491 1_455 S
Dy72 O78 2.403 . S
Dy72 O79 2.664 1_565 S
Dy72 O83 2.326 . S
Dy72 O87 2.310 1_455 S
Dy72 O88 2.351 1_565 S
C73 O84 1.185 1_455 S
C73 O85 1.355 . S
C74 O76 1.185 . S
C74 O77 1.355 1_455 S
Dy75 O79 2.310 1_655 S
Dy75 O82 2.351 1_545 S
Dy75 O84 2.398 . S
Dy75 O85 2.491 1_655 S
Dy75 O86 2.403 . S
Dy75 O87 2.664 1_545 S
Dy75 O89 2.326 1_655 S
O76 Dy72 2.398 . S
O76 C74 1.185 . S
O77 Dy72 2.491 1_655 S
O77 C74 1.355 1_655 S
O78 Dy72 2.403 . S
O78 C80 1.254 . S
O79 Dy72 2.664 1_545 S
O79 Dy75 2.310 1_455 S
O79 C80 1.268 1_545 S
C80 O78 1.254 . S
C80 O79 1.268 1_565 S
C81 O86 1.254 . S
C81 O87 1.268 1_545 S
O82 Dy75 2.351 1_565 S
O82 C90 1.249 . S
O83 Dy72 2.326 . S
O83 C90 1.267 1_455 S
O84 C73 1.185 1_655 S
O84 Dy75 2.398 . S
O85 C73 1.355 . S
O85 Dy75 2.491 1_455 S
O86 Dy75 2.403 . S
O86 C81 1.254 . S
O87 Dy72 2.310 1_655 S
O87 Dy75 2.664 1_565 S
O87 C81 1.268 1_565 S
O88 Dy72 2.351 1_545 S
O88 C91 1.249 . S
O89 Dy75 2.326 1_455 S
O89 C91 1.267 . S
C90 O82 1.249 . S
C90 O83 1.267 1_655 S
C91 O88 1.249 . S
C91 O89 1.267 . S
Dy92 O96 2.398 . S
Dy92 O97 2.491 . S
Dy92 O98 2.403 . S
Dy92 O99 2.664 . S
Dy92 O103 2.326 1_565 S
Dy92 O107 2.310 1_565 S
Dy92 O108 2.351 . S
C93 O104 1.185 . S
C93 O105 1.355 . S
C94 O96 1.185 . S
C94 O97 1.355 . S
Dy95 O99 2.310 1_545 S
Dy95 O102 2.351 . S
Dy95 O104 2.398 . S
Dy95 O105 2.491 . S
Dy95 O106 2.403 . S
Dy95 O107 2.664 . S
Dy95 O109 2.326 1_545 S
O96 Dy92 2.398 . S
O96 C94 1.185 . S
O97 Dy92 2.491 . S
O97 C94 1.355 . S
O98 Dy92 2.403 . S
O98 C100 1.254 . S
O99 Dy92 2.664 . S
O99 Dy95 2.310 1_565 S
O99 C100 1.268 . S
C100 O98 1.254 . S
C100 O99 1.268 . S
C101 O106 1.254 . S
C101 O107 1.268 . S
O102 Dy95 2.351 . S
O102 C110 1.249 . S
O103 Dy92 2.326 1_545 S
O103 C110 1.267 . S
O104 C93 1.185 . S
O104 Dy95 2.398 . S
O105 C93 1.355 . S
O105 Dy95 2.491 . S
O106 Dy95 2.403 . S
O106 C101 1.254 . S
O107 Dy92 2.310 1_545 S
O107 Dy95 2.664 . S
O107 C101 1.268 . S
O108 Dy92 2.351 . S
O108 C111 1.249 . S
O109 Dy95 2.326 1_565 S
O109 C111 1.267 . S
C110 O102 1.249 . S
C110 O103 1.267 . S
C111 O108 1.249 . S
C111 O109 1.267 . S
Dy112 O116 2.398 . S
Dy112 O117 2.491 . S
Dy112 O118 2.403 . S
Dy112 O119 2.664 . S
Dy112 O123 2.326 . S
Dy112 O127 2.310 . S
Dy112 O128 2.351 . S
C113 O124 1.185 . S
C113 O125 1.355 . S
C114 O116 1.185 . S
C114 O117 1.355 . S
Dy115 O119 2.310 . S
Dy115 O122 2.351 . S
Dy115 O124 2.398 . S
Dy115 O125 2.491 . S
Dy115 O126 2.403 . S
Dy115 O127 2.664 . S
Dy115 O129 2.326 . S
O116 Dy112 2.398 . S
O116 C114 1.185 . S
O117 Dy112 2.491 . S
O117 C114 1.355 . S
O118 Dy112 2.403 . S
O118 C120 1.254 . S
O119 Dy112 2.664 . S
O119 Dy115 2.310 . S
O119 C120 1.268 . S
C120 O118 1.254 . S
C120 O119 1.268 . S
C121 O126 1.254 . S
C121 O127 1.268 . S
O122 Dy115 2.351 . S
O122 C130 1.249 . S
O123 Dy112 2.326 . S
O123 C130 1.267 . S
O124 C113 1.185 . S
O124 Dy115 2.398 . S
O125 C113 1.355 . S
O125 Dy115 2.491 . S
O126 Dy115 2.403 . S
O126 C121 1.254 . S
O127 Dy112 2.310 . S
O127 Dy115 2.664 . S
O127 C121 1.268 . S
O128 Dy112 2.351 . S
O128 C131 1.249 . S
O129 Dy115 2.326 . S
O129 C131 1.267 . S
C130 O122 1.249 . S
C130 O123 1.267 . S
C131 O128 1.249 . S
C131 O129 1.267 . S
Dy132 O136 2.398 . S
Dy132 O137 2.491 . S
Dy132 O138 2.403 . S
Dy132 O139 2.664 1_655 S
Dy132 O143 2.326 . S
Dy132 O147 2.310 . S
Dy132 O148 2.351 1_655 S
C133 O144 1.185 . S
C133 O145 1.355 . S
C134 O136 1.185 . S
C134 O137 1.355 . S
Dy135 O139 2.310 . S
Dy135 O142 2.351 1_455 S
Dy135 O144 2.398 . S
Dy135 O145 2.491 . S
Dy135 O146 2.403 . S
Dy135 O147 2.664 1_455 S
Dy135 O149 2.326 . S
O136 Dy132 2.398 . S
O136 C134 1.185 . S
O137 Dy132 2.491 . S
O137 C134 1.355 . S
O138 Dy132 2.403 . S
O138 C140 1.254 1_655 S
O139 Dy132 2.664 1_455 S
O139 Dy135 2.310 . S
O139 C140 1.268 . S
C140 O138 1.254 1_455 S
C140 O139 1.268 . S
C141 O146 1.254 1_655 S
C141 O147 1.268 . S
O142 Dy135 2.351 1_655 S
O142 C150 1.249 . S
O143 Dy132 2.326 . S
O143 C150 1.267 . S
O144 C133 1.185 . S
O144 Dy135 2.398 . S
O145 C133 1.355 . S
O145 Dy135 2.491 . S
O146 Dy135 2.403 . S
O146 C141 1.254 1_455 S
O147 Dy132 2.310 . S
O147 Dy135 2.664 1_655 S
O147 C141 1.268 . S
O148 Dy132 2.351 1_455 S
O148 C151 1.249 . S
O149 Dy135 2.326 . S
O149 C151 1.267 . S
C150 O142 1.249 . S
C150 O143 1.267 . S
C151 O148 1.249 . S
C151 O149 1.267 . S
C152 C153 1.391 . S
C152 C154 1.394 . S
C152 H168 0.931 . S
C153 C152 1.391 . S
C153 C157 1.376 1_565 S
C154 C152 1.394 . S
C154 C155 1.369 . S
C154 C158 1.531 . S
C155 C154 1.369 . S
C155 C156 1.410 1_565 S
C155 C163 1.503 . S
C156 C155 1.410 1_545 S
C156 C157 1.392 . S
C156 C159 1.511 . S
C157 C153 1.376 1_545 S
C157 C156 1.392 . S
C157 H169 0.929 . S
C158 C154 1.531 . S
C158 H170 0.960 . S
C158 H171 0.962 . S
C158 H172 0.960 . S
C159 C156 1.511 . S
C159 H173 0.961 . S
C159 H174 0.961 . S
C159 H175 0.961 . S
C160 C161 1.370 1_545 S
C160 C162 1.363 . S
C160 H176 0.931 . S
C161 C160 1.370 1_565 S
C161 C165 1.408 . S
C162 C160 1.363 . S
C162 C163 1.370 1_545 S
C162 C166 1.524 . S
C163 C155 1.503 . S
C163 C162 1.370 1_565 S
C163 C164 1.403 . S
C164 C163 1.403 . S
C164 C165 1.404 . S
C164 C167 1.539 . S
C165 C161 1.408 . S
C165 C164 1.404 . S
C165 H177 0.930 . S
C166 C162 1.524 . S
C166 H178 0.956 . S
C166 H179 0.961 . S
C166 H180 0.961 . S
C167 C164 1.539 . S
C167 H181 0.958 . S
C167 H182 0.961 . S
C167 H183 0.960 . S
H168 C152 0.931 . S
H169 C157 0.929 . S
H170 C158 0.960 . S
H171 C158 0.962 . S
H172 C158 0.960 . S
H173 C159 0.961 . S
H174 C159 0.961 . S
H175 C159 0.961 . S
H176 C160 0.931 . S
H177 C165 0.930 . S
H178 C166 0.956 . S
H179 C166 0.961 . S
H180 C166 0.961 . S
H181 C167 0.958 . S
H182 C167 0.961 . S
H183 C167 0.960 . S
C184 C185 1.391 . S
C184 C186 1.394 . S
C184 H200 0.931 . S
C185 C184 1.391 . S
C185 C189 1.376 . S
C186 C184 1.394 . S
C186 C187 1.369 . S
C186 C190 1.531 . S
C187 C186 1.369 . S
C187 C188 1.410 . S
C187 C195 1.503 . S
C188 C187 1.410 . S
C188 C189 1.392 . S
C188 C191 1.511 . S
C189 C185 1.376 . S
C189 C188 1.392 . S
C189 H201 0.929 . S
C190 C186 1.531 . S
C190 H202 0.960 . S
C190 H203 0.962 . S
C190 H204 0.960 . S
C191 C188 1.511 . S
C191 H205 0.961 . S
C191 H206 0.961 . S
C191 H207 0.961 . S
C192 C193 1.370 . S
C192 C194 1.363 . S
C192 H208 0.931 . S
C193 C192 1.370 . S
C193 C197 1.408 . S
C194 C192 1.363 . S
C194 C195 1.370 . S
C194 C198 1.524 . S
C195 C187 1.503 . S
C195 C194 1.370 . S
C195 C196 1.403 . S
C196 C195 1.403 . S
C196 C197 1.404 . S
C196 C199 1.539 . S
C197 C193 1.408 . S
C197 C196 1.404 . S
C197 H209 0.930 . S
C198 C194 1.524 . S
C198 H210 0.956 . S
C198 H211 0.961 . S
C198 H212 0.961 . S
C199 C196 1.539 . S
C199 H213 0.958 . S
C199 H214 0.961 . S
C199 H215 0.960 . S
H200 C184 0.931 . S
H201 C189 0.929 . S
H202 C190 0.960 . S
H203 C190 0.962 . S
H204 C190 0.960 . S
H205 C191 0.961 . S
H206 C191 0.961 . S
H207 C191 0.961 . S
H208 C192 0.931 . S
H209 C197 0.930 . S
H210 C198 0.956 . S
H211 C198 0.961 . S
H212 C198 0.961 . S
H213 C199 0.958 . S
H214 C199 0.961 . S
H215 C199 0.960 . S
C216 C217 1.391 . S
C216 C218 1.394 . S
C216 H232 0.931 . S
C217 C216 1.391 . S
C217 C221 1.376 . S
C218 C216 1.394 . S
C218 C219 1.369 . S
C218 C222 1.531 . S
C219 C218 1.369 . S
C219 C220 1.410 . S
C219 C227 1.503 . S
C220 C219 1.410 . S
C220 C221 1.392 . S
C220 C223 1.511 . S
C221 C217 1.376 . S
C221 C220 1.392 . S
C221 H233 0.929 . S
C222 C218 1.531 . S
C222 H234 0.960 . S
C222 H235 0.962 . S
C222 H236 0.960 . S
C223 C220 1.511 . S
C223 H237 0.961 . S
C223 H238 0.961 . S
C223 H239 0.961 . S
C224 C225 1.370 . S
C224 C226 1.363 . S
C224 H240 0.931 . S
C225 C224 1.370 . S
C225 C229 1.408 . S
C226 C224 1.363 . S
C226 C227 1.370 . S
C226 C230 1.524 . S
C227 C219 1.503 . S
C227 C226 1.370 . S
C227 C228 1.403 . S
C228 C227 1.403 . S
C228 C229 1.404 . S
C228 C231 1.539 . S
C229 C225 1.408 . S
C229 C228 1.404 . S
C229 H241 0.930 . S
C230 C226 1.524 . S
C230 H242 0.956 . S
C230 H243 0.961 . S
C230 H244 0.961 . S
C231 C228 1.539 . S
C231 H245 0.958 . S
C231 H246 0.961 . S
C231 H247 0.960 . S
H232 C216 0.931 . S
H233 C221 0.929 . S
H234 C222 0.960 . S
H235 C222 0.962 . S
H236 C222 0.960 . S
H237 C223 0.961 . S
H238 C223 0.961 . S
H239 C223 0.961 . S
H240 C224 0.931 . S
H241 C229 0.930 . S
H242 C230 0.956 . S
H243 C230 0.961 . S
H244 C230 0.961 . S
H245 C231 0.958 . S
H246 C231 0.961 . S
H247 C231 0.960 . S
C248 C249 1.391 . S
C248 C250 1.394 . S
C248 H264 0.931 . S
C249 C248 1.391 . S
C249 C253 1.376 . S
C250 C248 1.394 . S
C250 C251 1.369 . S
C250 C254 1.531 . S
C251 C250 1.369 . S
C251 C252 1.410 . S
C251 C259 1.503 . S
C252 C251 1.410 . S
C252 C253 1.392 . S
C252 C255 1.511 . S
C253 C249 1.376 . S
C253 C252 1.392 . S
C253 H265 0.929 . S
C254 C250 1.531 . S
C254 H266 0.960 . S
C254 H267 0.962 . S
C254 H268 0.960 . S
C255 C252 1.511 . S
C255 H269 0.961 . S
C255 H270 0.961 . S
C255 H271 0.961 1_455 S
C256 C257 1.370 . S
C256 C258 1.363 . S
C256 H272 0.931 . S
C257 C256 1.370 . S
C257 C261 1.408 . S
C258 C256 1.363 . S
C258 C259 1.370 . S
C258 C262 1.524 . S
C259 C251 1.503 . S
C259 C258 1.370 . S
C259 C260 1.403 . S
C260 C259 1.403 . S
C260 C261 1.404 . S
C260 C263 1.553 . S
C261 C257 1.408 . S
C261 C260 1.404 . S
C261 H273 0.930 1_455 S
C262 C258 1.524 . S
C262 H274 0.956 . S
C262 H275 0.961 . S
C262 H276 0.961 . S
C263 C260 1.553 . S
C263 H277 0.968 . S
C263 H278 0.937 1_455 S
C263 H279 0.961 . S
H264 C248 0.931 . S
H265 C253 0.929 . S
H266 C254 0.960 . S
H267 C254 0.962 . S
H268 C254 0.960 . S
H269 C255 0.961 . S
H270 C255 0.961 . S
H271 C255 0.961 1_655 S
H272 C256 0.931 . S
H273 C261 0.930 1_655 S
H274 C262 0.956 . S
H275 C262 0.961 . S
H276 C262 0.961 . S
H277 C263 0.968 . S
H278 C263 0.937 1_655 S
H279 C263 0.961 . S
C280 C281 1.391 1_544 S
C280 C282 1.394 1_554 S
C280 H296 0.931 . S
C281 C280 1.391 1_566 S
C281 C285 1.376 . S
C282 C280 1.394 1_556 S
C282 C283 1.369 1_545 S
C282 C286 1.531 . S
C283 C282 1.369 1_565 S
C283 C284 1.410 . S
C283 C291 1.503 . S
C284 C283 1.410 . S
C284 C285 1.392 . S
C284 C287 1.511 . S
C285 C281 1.376 . S
C285 C284 1.392 . S
C285 H297 0.929 . S
C286 C282 1.531 . S
C286 H298 0.960 . S
C286 H299 0.962 . S
C286 H300 0.960 1_556 S
C287 C284 1.511 . S
C287 H301 0.961 . S
C287 H302 0.961 . S
C287 H303 0.961 . S
C288 C289 1.370 . S
C288 C290 1.363 . S
C288 H304 0.931 . S
C289 C288 1.370 . S
C289 C293 1.408 1_545 S
C290 C288 1.363 . S
C290 C291 1.370 1_545 S
C290 C294 1.524 . S
C291 C283 1.503 . S
C291 C290 1.370 1_565 S
C291 C292 1.403 . S
C292 C291 1.403 . S
C292 C293 1.404 . S
C292 C295 1.539 . S
C293 C289 1.408 1_565 S
C293 C292 1.404 . S
C293 H305 0.930 . S
C294 C290 1.524 . S
C294 H306 0.956 . S
C294 H307 0.961 . S
C294 H308 0.961 . S
C295 C292 1.539 . S
C295 H309 0.958 . S
C295 H310 0.961 . S
C295 H311 0.960 . S
H296 C280 0.931 . S
H297 C285 0.929 . S
H298 C286 0.960 . S
H299 C286 0.962 . S
H300 C286 0.960 1_554 S
H301 C287 0.961 . S
H302 C287 0.961 . S
H303 C287 0.961 . S
H304 C288 0.931 . S
H305 C293 0.930 . S
H306 C294 0.956 . S
H307 C294 0.961 . S
H308 C294 0.961 . S
H309 C295 0.958 . S
H310 C295 0.961 . S
H311 C295 0.960 . S
C312 C313 1.391 1_554 S
C312 C314 1.394 1_554 S
C312 H328 0.931 . S
C313 C312 1.391 1_556 S
C313 C317 1.376 . S
C314 C312 1.394 1_556 S
C314 C315 1.369 . S
C314 C318 1.531 . S
C315 C314 1.369 . S
C315 C316 1.410 . S
C315 C323 1.503 . S
C316 C315 1.410 . S
C316 C317 1.392 . S
C316 C319 1.511 . S
C317 C313 1.376 . S
C317 C316 1.392 . S
C317 H329 0.929 . S
C318 C314 1.531 . S
C318 H330 0.960 . S
C318 H331 0.962 . S
C318 H332 0.960 1_556 S
C319 C316 1.511 . S
C319 H333 0.961 . S
C319 H334 0.961 . S
C319 H335 0.961 . S
C320 C321 1.370 . S
C320 C322 1.363 . S
C320 H336 0.931 . S
C321 C320 1.370 . S
C321 C325 1.408 . S
C322 C320 1.363 . S
C322 C323 1.370 . S
C322 C326 1.524 . S
C323 C315 1.503 . S
C323 C322 1.370 . S
C323 C324 1.403 . S
C324 C323 1.403 . S
C324 C325 1.404 . S
C324 C327 1.539 . S
C325 C321 1.408 . S
C325 C324 1.404 . S
C325 H337 0.930 . S
C326 C322 1.524 . S
C326 H338 0.956 . S
C326 H339 0.961 . S
C326 H340 0.961 . S
C327 C324 1.539 . S
C327 H341 0.958 . S
C327 H342 0.961 . S
C327 H343 0.960 . S
H328 C312 0.931 . S
H329 C317 0.929 . S
H330 C318 0.960 . S
H331 C318 0.962 . S
H332 C318 0.960 1_554 S
H333 C319 0.961 . S
H334 C319 0.961 . S
H335 C319 0.961 . S
H336 C320 0.931 . S
H337 C325 0.930 . S
H338 C326 0.956 . S
H339 C326 0.961 . S
H340 C326 0.961 . S
H341 C327 0.958 . S
H342 C327 0.961 . S
H343 C327 0.960 . S
C344 C345 1.391 . S
C344 C346 1.394 . S
C344 H360 0.931 1_556 S
C345 C344 1.391 . S
C345 C349 1.376 . S
C346 C344 1.394 . S
C346 C347 1.369 . S
C346 C350 1.531 . S
C347 C346 1.369 . S
C347 C348 1.410 . S
C347 C355 1.503 . S
C348 C347 1.410 . S
C348 C349 1.392 . S
C348 C351 1.511 . S
C349 C345 1.376 . S
C349 C348 1.392 . S
C349 H361 0.929 . S
C350 C346 1.531 . S
C350 H362 0.960 . S
C350 H363 0.962 . S
C350 H364 0.960 . S
C351 C348 1.511 . S
C351 H365 0.961 . S
C351 H366 0.961 . S
C351 H367 0.961 . S
C352 C353 1.370 . S
C352 C354 1.363 . S
C352 H368 0.931 . S
C353 C352 1.370 . S
C353 C357 1.408 . S
C354 C352 1.363 . S
C354 C355 1.370 . S
C354 C358 1.524 . S
C355 C347 1.503 . S
C355 C354 1.370 . S
C355 C356 1.403 . S
C356 C355 1.403 . S
C356 C357 1.404 . S
C356 C359 1.539 . S
C357 C353 1.408 . S
C357 C356 1.404 . S
C357 H369 0.930 . S
C358 C354 1.524 . S
C358 H370 0.956 . S
C358 H371 0.961 . S
C358 H372 0.961 . S
C359 C356 1.539 . S
C359 H373 0.958 . S
C359 H374 0.961 . S
C359 H375 0.960 . S
H360 C344 0.931 1_554 S
H361 C349 0.929 . S
H362 C350 0.960 . S
H363 C350 0.962 . S
H364 C350 0.960 . S
H365 C351 0.961 . S
H366 C351 0.961 . S
H367 C351 0.961 . S
H368 C352 0.931 . S
H369 C357 0.930 . S
H370 C358 0.956 . S
H371 C358 0.961 . S
H372 C358 0.961 . S
H373 C359 0.958 . S
H374 C359 0.961 . S
H375 C359 0.960 . S
C376 C377 1.391 . S
C376 C378 1.394 . S
C376 H392 0.931 . S
C377 C376 1.391 . S
C377 C381 1.376 . S
C378 C376 1.394 . S
C378 C379 1.369 . S
C378 C382 1.531 . S
C379 C378 1.369 . S
C379 C380 1.410 . S
C379 C387 1.503 . S
C380 C379 1.410 . S
C380 C381 1.392 . S
C380 C383 1.511 . S
C381 C377 1.376 . S
C381 C380 1.392 . S
C381 H393 0.929 1_556 S
C382 C378 1.531 . S
C382 H394 0.960 . S
C382 H395 0.962 . S
C382 H396 0.960 . S
C383 C380 1.511 . S
C383 H397 0.961 1_556 S
C383 H398 0.961 . S
C383 H399 0.961 1_655 S
C384 C385 1.370 . S
C384 C386 1.363 . S
C384 H400 0.931 . S
C385 C384 1.370 . S
C385 C389 1.408 1_655 S
C386 C384 1.363 . S
C386 C387 1.370 . S
C386 C390 1.524 . S
C387 C379 1.503 . S
C387 C386 1.370 . S
C387 C388 1.403 . S
C388 C387 1.403 . S
C388 C389 1.404 1_655 S
C388 C391 1.539 1_655 S
C389 C385 1.408 1_455 S
C389 C388 1.404 1_455 S
C389 H401 0.930 . S
C390 C386 1.524 . S
C390 H402 0.956 . S
C390 H403 0.961 . S
C390 H404 0.961 . S
C391 C388 1.539 1_455 S
C391 H405 0.958 . S
C391 H406 0.961 . S
C391 H407 0.960 . S
H392 C376 0.931 . S
H393 C381 0.929 1_554 S
H394 C382 0.960 . S
H395 C382 0.962 . S
H396 C382 0.960 . S
H397 C383 0.961 1_554 S
H398 C383 0.961 . S
H399 C383 0.961 1_455 S
H400 C384 0.931 . S
H401 C389 0.930 . S
H402 C390 0.956 . S
H403 C390 0.961 . S
H404 C390 0.961 . S
H405 C391 0.958 . S
H406 C391 0.961 . S
H407 C391 0.960 . S
C408 C409 1.391 . S
C408 C410 1.394 . S
C408 H424 0.931 . S
C409 C408 1.391 . S
C409 C413 1.376 . S
C410 C408 1.394 . S
C410 C411 1.369 . S
C410 C414 1.531 . S
C411 C410 1.369 . S
C411 C412 1.410 . S
C411 C419 1.503 . S
C412 C411 1.410 . S
C412 C413 1.392 . S
C412 C415 1.511 . S
C413 C409 1.376 . S
C413 C412 1.392 . S
C413 H425 0.929 . S
C414 C410 1.531 . S
C414 H426 0.960 . S
C414 H427 0.962 . S
C414 H428 0.960 . S
C415 C412 1.511 . S
C415 H429 0.961 . S
C415 H430 0.961 . S
C415 H431 0.961 . S
C416 C417 1.370 1_655 S
C416 C418 1.363 1_655 S
C416 H432 0.931 . S
C417 C416 1.370 1_455 S
C417 C421 1.408 . S
C418 C416 1.363 1_455 S
C418 C419 1.370 . S
C418 C422 1.524 1_455 S
C419 C411 1.503 . S
C419 C418 1.370 . S
C419 C420 1.403 . S
C420 C419 1.403 . S
C420 C421 1.404 . S
C420 C423 1.539 . S
C421 C417 1.408 . S
C421 C420 1.404 . S
C421 H433 0.930 . S
C422 C418 1.524 1_655 S
C422 H434 0.956 . S
C422 H435 0.961 1_655 S
C422 H436 0.961 . S
C423 C420 1.539 . S
C423 H437 0.958 . S
C423 H438 0.961 . S
C423 H439 0.960 . S
H424 C408 0.931 . S
H425 C413 0.929 . S
H426 C414 0.960 . S
H427 C414 0.962 . S
H428 C414 0.960 . S
H429 C415 0.961 . S
H430 C415 0.961 . S
H431 C415 0.961 . S
H432 C416 0.931 . S
H433 C421 0.930 . S
H434 C422 0.956 . S
H435 C422 0.961 1_455 S
H436 C422 0.961 . S
H437 C423 0.958 . S
H438 C423 0.961 . S
H439 C423 0.960 . S
C440 C441 1.391 . S
C440 C442 1.394 . S
C440 H456 0.931 . S
C441 C440 1.391 . S
C441 C445 1.376 1_565 S
C442 C440 1.394 . S
C442 C443 1.369 . S
C442 C446 1.531 . S
C443 C442 1.369 . S
C443 C444 1.410 . S
C443 C451 1.503 . S
C444 C443 1.410 . S
C444 C445 1.392 1_565 S
C444 C447 1.511 1_565 S
C445 C441 1.376 1_545 S
C445 C444 1.392 1_545 S
C445 H457 0.929 . S
C446 C442 1.531 . S
C446 H458 0.960 . S
C446 H459 0.962 . S
C446 H460 0.960 . S
C447 C444 1.511 1_545 S
C447 H461 0.961 . S
C447 H462 0.961 . S
C447 H463 0.961 1_545 S
C448 C449 1.370 1_545 S
C448 C450 1.363 . S
C448 H464 0.931 . S
C449 C448 1.370 1_565 S
C449 C453 1.408 . S
C450 C448 1.363 . S
C450 C451 1.370 1_545 S
C450 C454 1.524 . S
C451 C443 1.503 . S
C451 C450 1.370 1_565 S
C451 C452 1.403 . S
C452 C451 1.403 . S
C452 C453 1.404 . S
C452 C455 1.539 . S
C453 C449 1.408 . S
C453 C452 1.404 . S
C453 H465 0.930 . S
C454 C450 1.524 . S
C454 H466 0.956 . S
C454 H467 0.961 . S
C454 H468 0.961 . S
C455 C452 1.539 . S
C455 H469 0.958 . S
C455 H470 0.961 . S
C455 H471 0.960 . S
H456 C440 0.931 . S
H457 C445 0.929 . S
H458 C446 0.960 . S
H459 C446 0.962 . S
H460 C446 0.960 . S
H461 C447 0.961 . S
H462 C447 0.961 . S
H463 C447 0.961 1_565 S
H464 C448 0.931 . S
H465 C453 0.930 . S
H466 C454 0.956 . S
H467 C454 0.961 . S
H468 C454 0.961 . S
H469 C455 0.958 . S
H470 C455 0.961 . S
H471 C455 0.960 . S
C472 C473 1.391 . S
C472 C474 1.394 . S
C472 H488 0.931 . S
C473 C472 1.391 . S
C473 C477 1.376 . S
C474 C472 1.394 . S
C474 C475 1.369 . S
C474 C478 1.531 . S
C475 C474 1.369 . S
C475 C476 1.410 . S
C475 C483 1.503 . S
C476 C475 1.410 . S
C476 C477 1.392 . S
C476 C479 1.511 . S
C477 C473 1.376 . S
C477 C476 1.392 . S
C477 H489 0.929 . S
C478 C474 1.531 . S
C478 H490 0.960 . S
C478 H491 0.962 . S
C478 H492 0.960 . S
C479 C476 1.511 . S
C479 H493 0.961 . S
C479 H494 0.961 . S
C479 H495 0.961 . S
C480 C481 1.370 . S
C480 C482 1.363 . S
C480 H496 0.931 . S
C481 C480 1.370 . S
C481 C485 1.408 . S
C482 C480 1.363 . S
C482 C483 1.370 . S
C482 C486 1.524 . S
C483 C475 1.503 . S
C483 C482 1.370 . S
C483 C484 1.403 . S
C484 C483 1.403 . S
C484 C485 1.404 . S
C484 C487 1.539 . S
C485 C481 1.408 . S
C485 C484 1.404 . S
C485 H497 0.930 . S
C486 C482 1.524 . S
C486 H498 0.956 . S
C486 H499 0.961 . S
C486 H500 0.961 . S
C487 C484 1.539 . S
C487 H501 0.958 . S
C487 H502 0.961 . S
C487 H503 0.960 . S
H488 C472 0.931 . S
H489 C477 0.929 . S
H490 C478 0.960 . S
H491 C478 0.962 . S
H492 C478 0.960 . S
H493 C479 0.961 . S
H494 C479 0.961 . S
H495 C479 0.961 . S
H496 C480 0.931 . S
H497 C485 0.930 . S
H498 C486 0.956 . S
H499 C486 0.961 . S
H500 C486 0.961 . S
H501 C487 0.958 . S
H502 C487 0.961 . S
H503 C487 0.960 . S
C504 C505 1.391 . S
C504 C506 1.394 . S
C504 H520 0.931 . S
C505 C504 1.391 . S
C505 C509 1.376 . S
C506 C504 1.394 . S
C506 C507 1.369 . S
C506 C510 1.531 . S
C507 C506 1.369 . S
C507 C508 1.410 . S
C507 C515 1.503 . S
C508 C507 1.410 . S
C508 C509 1.392 . S
C508 C511 1.511 . S
C509 C505 1.376 . S
C509 C508 1.392 . S
C509 H521 0.929 . S
C510 C506 1.531 . S
C510 H522 0.960 . S
C510 H523 0.962 . S
C510 H524 0.960 . S
C511 C508 1.511 . S
C511 H525 0.961 . S
C511 H526 0.961 . S
C511 H527 0.961 . S
C512 C513 1.370 . S
C512 C514 1.363 . S
C512 H528 0.931 . S
C513 C512 1.370 . S
C513 C517 1.408 . S
C514 C512 1.363 . S
C514 C515 1.370 . S
C514 C518 1.524 . S
C515 C507 1.503 . S
C515 C514 1.370 . S
C515 C516 1.403 . S
C516 C515 1.403 . S
C516 C517 1.404 . S
C516 C519 1.539 . S
C517 C513 1.408 . S
C517 C516 1.404 . S
C517 H529 0.930 . S
C518 C514 1.524 . S
C518 H530 0.956 . S
C518 H531 0.961 . S
C518 H532 0.961 . S
C519 C516 1.539 . S
C519 H533 0.958 . S
C519 H534 0.961 . S
C519 H535 0.960 . S
H520 C504 0.931 . S
H521 C509 0.929 . S
H522 C510 0.960 . S
H523 C510 0.962 . S
H524 C510 0.960 . S
H525 C511 0.961 . S
H526 C511 0.961 . S
H527 C511 0.961 . S
H528 C512 0.931 . S
H529 C517 0.930 . S
H530 C518 0.956 . S
H531 C518 0.961 . S
H532 C518 0.961 . S
H533 C519 0.958 . S
H534 C519 0.961 . S
H535 C519 0.960 . S
C536 C537 1.391 . S
C536 C538 1.394 . S
C536 H552 0.931 . S
C537 C536 1.391 . S
C537 C541 1.376 . S
C538 C536 1.394 . S
C538 C539 1.369 . S
C538 C542 1.531 . S
C539 C538 1.369 . S
C539 C540 1.410 . S
C539 C547 1.503 . S
C540 C539 1.410 . S
C540 C541 1.392 . S
C540 C543 1.511 . S
C541 C537 1.376 . S
C541 C540 1.392 . S
C541 H553 0.929 1_556 S
C542 C538 1.531 . S
C542 H554 0.960 . S
C542 H555 0.962 . S
C542 H556 0.960 . S
C543 C540 1.511 . S
C543 H557 0.961 1_556 S
C543 H558 0.961 . S
C543 H559 0.961 . S
C544 C545 1.375 . S
C544 C546 1.369 . S
C544 H560 0.931 . S
C545 C544 1.375 . S
C545 C549 1.400 1_455 S
C546 C544 1.369 . S
C546 C547 1.357 1_455 S
C546 C550 1.532 . S
C547 C539 1.503 . S
C547 C546 1.357 1_655 S
C547 C548 1.403 . S
C548 C547 1.403 . S
C548 C549 1.404 . S
C548 C551 1.539 . S
C549 C545 1.400 1_655 S
C549 C548 1.404 . S
C549 H561 0.930 . S
C550 C546 1.532 . S
C550 H562 0.956 . S
C550 H563 0.961 . S
C550 H564 0.961 . S
C551 C548 1.539 . S
C551 H565 0.958 . S
C551 H566 0.961 . S
C551 H567 0.960 . S
H552 C536 0.931 . S
H553 C541 0.929 1_554 S
H554 C542 0.960 . S
H555 C542 0.962 . S
H556 C542 0.960 . S
H557 C543 0.961 1_554 S
H558 C543 0.961 . S
H559 C543 0.961 . S
H560 C544 0.931 . S
H561 C549 0.930 . S
H562 C550 0.956 . S
H563 C550 0.961 . S
H564 C550 0.961 . S
H565 C551 0.958 . S
H566 C551 0.961 . S
H567 C551 0.960 . S
C568 C569 1.391 1_554 S
C568 C570 1.394 1_554 S
C568 H584 0.931 . S
C569 C568 1.391 1_556 S
C569 C573 1.376 . S
C570 C568 1.394 1_556 S
C570 C571 1.369 . S
C570 C574 1.531 1_556 S
C571 C570 1.369 . S
C571 C572 1.410 . S
C571 C579 1.503 . S
C572 C571 1.410 . S
C572 C573 1.392 . S
C572 C575 1.511 . S
C573 C569 1.376 . S
C573 C572 1.392 . S
C573 H585 0.929 . S
C574 C570 1.531 1_554 S
C574 H586 0.960 . S
C574 H587 0.962 1_545 S
C574 H588 0.960 . S
C575 C572 1.511 . S
C575 H589 0.961 . S
C575 H590 0.961 . S
C575 H591 0.961 . S
C576 C577 1.370 1_565 S
C576 C578 1.363 . S
C576 H592 0.931 . S
C577 C576 1.370 1_545 S
C577 C581 1.408 . S
C578 C576 1.363 . S
C578 C579 1.370 1_565 S
C578 C582 1.524 . S
C579 C571 1.503 . S
C579 C578 1.370 1_545 S
C579 C580 1.403 . S
C580 C579 1.403 . S
C580 C581 1.404 . S
C580 C583 1.539 . S
C581 C577 1.408 . S
C581 C580 1.404 . S
C581 H593 0.930 . S
C582 C578 1.524 . S
C582 H594 0.956 . S
C582 H595 0.961 . S
C582 H596 0.961 . S
C583 C580 1.539 . S
C583 H597 0.958 . S
C583 H598 0.961 . S
C583 H599 0.960 . S
H584 C568 0.931 . S
H585 C573 0.929 . S
H586 C574 0.960 . S
H587 C574 0.962 1_565 S
H588 C574 0.960 . S
H589 C575 0.961 . S
H590 C575 0.961 . S
H591 C575 0.961 . S
H592 C576 0.931 . S
H593 C581 0.930 . S
H594 C582 0.956 . S
H595 C582 0.961 . S
H596 C582 0.961 . S
H597 C583 0.958 . S
H598 C583 0.961 . S
H599 C583 0.960 . S
C600 C601 1.391 . S
C600 C602 1.394 . S
C600 H616 0.931 1_556 S
C601 C600 1.391 . S
C601 C605 1.376 . S
C602 C600 1.394 . S
C602 C603 1.369 . S
C602 C606 1.531 . S
C603 C602 1.369 . S
C603 C604 1.410 . S
C603 C611 1.503 . S
C604 C603 1.410 . S
C604 C605 1.392 . S
C604 C607 1.511 . S
C605 C601 1.376 . S
C605 C604 1.392 . S
C605 H617 0.929 . S
C606 C602 1.531 . S
C606 H618 0.960 . S
C606 H619 0.962 . S
C606 H620 0.960 1_556 S
C607 C604 1.511 . S
C607 H621 0.961 . S
C607 H622 0.961 . S
C607 H623 0.961 . S
C608 C609 1.370 . S
C608 C610 1.363 . S
C608 H624 0.931 . S
C609 C608 1.370 . S
C609 C613 1.408 . S
C610 C608 1.363 . S
C610 C611 1.370 . S
C610 C614 1.524 . S
C611 C603 1.503 . S
C611 C610 1.370 . S
C611 C612 1.403 . S
C612 C611 1.403 . S
C612 C613 1.404 . S
C612 C615 1.539 . S
C613 C609 1.408 . S
C613 C612 1.404 . S
C613 H625 0.930 . S
C614 C610 1.524 . S
C614 H626 0.956 . S
C614 H627 0.961 . S
C614 H628 0.961 . S
C615 C612 1.539 . S
C615 H629 0.958 . S
C615 H630 0.961 . S
C615 H631 0.960 . S
H616 C600 0.931 1_554 S
H617 C605 0.929 . S
H618 C606 0.960 . S
H619 C606 0.962 . S
H620 C606 0.960 1_554 S
H621 C607 0.961 . S
H622 C607 0.961 . S
H623 C607 0.961 . S
H624 C608 0.931 . S
H625 C613 0.930 . S
H626 C614 0.956 . S
H627 C614 0.961 . S
H628 C614 0.961 . S
H629 C615 0.958 . S
H630 C615 0.961 . S
H631 C615 0.960 . S
C632 C633 1.391 . S
C632 C634 1.394 . S
C632 H648 0.931 . S
C633 C632 1.391 . S
C633 C637 1.376 . S
C634 C632 1.394 . S
C634 C635 1.369 . S
C634 C638 1.531 . S
C635 C634 1.369 . S
C635 C636 1.410 . S
C635 C643 1.503 . S
C636 C635 1.410 . S
C636 C637 1.392 . S
C636 C639 1.511 . S
C637 C633 1.376 . S
C637 C636 1.392 . S
C637 H649 0.929 1_556 S
C638 C634 1.531 . S
C638 H650 0.960 . S
C638 H651 0.962 . S
C638 H652 0.960 . S
C639 C636 1.511 . S
C639 H653 0.961 1_556 S
C639 H654 0.961 . S
C639 H655 0.961 1_556 S
C640 C641 1.370 . S
C640 C642 1.363 . S
C640 H656 0.931 . S
C641 C640 1.370 . S
C641 C645 1.408 . S
C642 C640 1.363 . S
C642 C643 1.370 . S
C642 C646 1.524 . S
C643 C635 1.503 . S
C643 C642 1.370 . S
C643 C644 1.403 . S
C644 C643 1.403 . S
C644 C645 1.404 . S
C644 C647 1.539 . S
C645 C641 1.408 . S
C645 C644 1.404 . S
C645 H657 0.930 . S
C646 C642 1.524 . S
C646 H658 0.956 . S
C646 H659 0.961 . S
C646 H660 0.961 . S
C647 C644 1.539 . S
C647 H661 0.958 . S
C647 H662 0.961 . S
C647 H663 0.960 . S
H648 C632 0.931 . S
H649 C637 0.929 1_554 S
H650 C638 0.960 . S
H651 C638 0.962 . S
H652 C638 0.960 . S
H653 C639 0.961 1_554 S
H654 C639 0.961 . S
H655 C639 0.961 1_554 S
H656 C640 0.931 . S
H657 C645 0.930 . S
H658 C646 0.956 . S
H659 C646 0.961 . S
H660 C646 0.961 . S
H661 C647 0.958 . S
H662 C647 0.961 . S
H663 C647 0.960 . S
C664 C665 1.391 . S
C664 C666 1.394 . S
C664 H680 0.931 . S
C665 C664 1.391 . S
C665 C669 1.376 . S
C666 C664 1.394 . S
C666 C667 1.369 . S
C666 C670 1.531 . S
C667 C666 1.369 . S
C667 C668 1.410 . S
C667 C675 1.503 . S
C668 C667 1.410 . S
C668 C669 1.392 . S
C668 C671 1.511 . S
C669 C665 1.376 . S
C669 C668 1.392 . S
C669 H681 0.929 . S
C670 C666 1.531 . S
C670 H682 0.960 . S
C670 H683 0.962 . S
C670 H684 0.960 . S
C671 C668 1.511 . S
C671 H685 0.961 . S
C671 H686 0.961 . S
C671 H687 0.961 1_455 S
C672 C673 1.370 . S
C672 C674 1.363 . S
C672 H688 0.931 . S
C673 C672 1.370 . S
C673 C677 1.408 . S
C674 C672 1.363 . S
C674 C675 1.370 . S
C674 C678 1.524 . S
C675 C667 1.503 . S
C675 C674 1.370 . S
C675 C676 1.403 . S
C676 C675 1.403 . S
C676 C677 1.404 . S
C676 C679 1.539 . S
C677 C673 1.408 . S
C677 C676 1.404 . S
C677 H689 0.930 . S
C678 C674 1.524 . S
C678 H690 0.956 . S
C678 H691 0.961 . S
C678 H692 0.961 . S
C679 C676 1.539 . S
C679 H693 0.958 . S
C679 H694 0.961 1_455 S
C679 H695 0.960 . S
H680 C664 0.931 . S
H681 C669 0.929 . S
H682 C670 0.960 . S
H683 C670 0.962 . S
H684 C670 0.960 . S
H685 C671 0.961 . S
H686 C671 0.961 . S
H687 C671 0.961 1_655 S
H688 C672 0.931 . S
H689 C677 0.930 . S
H690 C678 0.956 . S
H691 C678 0.961 . S
H692 C678 0.961 . S
H693 C679 0.958 . S
H694 C679 0.961 1_655 S
H695 C679 0.960 . S
C696 C697 1.391 1_565 S
C696 C698 1.394 1_565 S
C696 H712 0.931 . S
C697 C696 1.391 1_545 S
C697 C701 1.376 . S
C698 C696 1.394 1_545 S
C698 C699 1.369 . S
C698 C702 1.531 1_545 S
C699 C698 1.369 . S
C699 C700 1.410 . S
C699 C707 1.503 . S
C700 C699 1.410 . S
C700 C701 1.392 . S
C700 C703 1.511 . S
C701 C697 1.376 . S
C701 C700 1.392 . S
C701 H713 0.929 1_556 S
C702 C698 1.531 1_565 S
C702 H714 0.960 1_565 S
C702 H715 0.962 . S
C702 H716 0.960 1_565 S
C703 C700 1.511 . S
C703 H717 0.961 1_556 S
C703 H718 0.961 . S
C703 H719 0.961 . S
C704 C705 1.370 1_565 S
C704 C706 1.363 . S
C704 H720 0.931 . S
C705 C704 1.370 1_545 S
C705 C709 1.408 . S
C706 C704 1.363 . S
C706 C707 1.370 1_565 S
C706 C710 1.524 . S
C707 C699 1.503 . S
C707 C706 1.370 1_545 S
C707 C708 1.403 . S
C708 C707 1.403 . S
C708 C709 1.404 . S
C708 C711 1.539 . S
C709 C705 1.408 . S
C709 C708 1.404 . S
C709 H721 0.930 . S
C710 C706 1.524 . S
C710 H722 0.956 . S
C710 H723 0.961 . S
C710 H724 0.961 . S
C711 C708 1.539 . S
C711 H725 0.958 . S
C711 H726 0.961 . S
C711 H727 0.960 . S
H712 C696 0.931 . S
H713 C701 0.929 1_554 S
H714 C702 0.960 1_545 S
H715 C702 0.962 . S
H716 C702 0.960 1_545 S
H717 C703 0.961 1_554 S
H718 C703 0.961 . S
H719 C703 0.961 . S
H720 C704 0.931 . S
H721 C709 0.930 . S
H722 C710 0.956 . S
H723 C710 0.961 . S
H724 C710 0.961 . S
H725 C711 0.958 . S
H726 C711 0.961 . S
H727 C711 0.960 . S
C728 C729 1.391 . S
C728 C730 1.394 . S
C728 H744 0.931 . S
C729 C728 1.391 . S
C729 C733 1.376 . S
C730 C728 1.394 . S
C730 C731 1.369 . S
C730 C734 1.531 . S
C731 C730 1.369 . S
C731 C732 1.410 . S
C731 C739 1.503 . S
C732 C731 1.410 . S
C732 C733 1.392 . S
C732 C735 1.511 . S
C733 C729 1.376 . S
C733 C732 1.392 . S
C733 H745 0.929 . S
C734 C730 1.531 . S
C734 H746 0.960 . S
C734 H747 0.962 . S
C734 H748 0.960 . S
C735 C732 1.511 . S
C735 H749 0.961 . S
C735 H750 0.961 . S
C735 H751 0.961 . S
C736 C737 1.370 . S
C736 C738 1.363 . S
C736 H752 0.931 . S
C737 C736 1.370 . S
C737 C741 1.408 . S
C738 C736 1.363 . S
C738 C739 1.370 . S
C738 C742 1.524 . S
C739 C731 1.503 . S
C739 C738 1.370 . S
C739 C740 1.403 . S
C740 C739 1.403 . S
C740 C741 1.404 . S
C740 C743 1.539 . S
C741 C737 1.408 . S
C741 C740 1.404 . S
C741 H753 0.930 . S
C742 C738 1.524 . S
C742 H754 0.956 . S
C742 H755 0.961 . S
C742 H756 0.961 . S
C743 C740 1.539 . S
C743 H757 0.958 . S
C743 H758 0.961 . S
C743 H759 0.960 . S
H744 C728 0.931 . S
H745 C733 0.929 . S
H746 C734 0.960 . S
H747 C734 0.962 . S
H748 C734 0.960 . S
H749 C735 0.961 . S
H750 C735 0.961 . S
H751 C735 0.961 . S
H752 C736 0.931 . S
H753 C741 0.930 . S
H754 C742 0.956 . S
H755 C742 0.961 . S
H756 C742 0.961 . S
H757 C743 0.958 . S
H758 C743 0.961 . S
H759 C743 0.960 . S
C760 C761 1.391 . S
C760 C762 1.394 . S
C760 H776 0.931 . S
C761 C760 1.391 . S
C761 C765 1.376 . S
C762 C760 1.394 . S
C762 C763 1.369 . S
C762 C766 1.531 . S
C763 C762 1.369 . S
C763 C764 1.410 . S
C763 C771 1.503 . S
C764 C763 1.410 . S
C764 C765 1.392 . S
C764 C767 1.511 . S
C765 C761 1.376 . S
C765 C764 1.392 . S
C765 H777 0.929 . S
C766 C762 1.531 . S
C766 H778 0.960 . S
C766 H779 0.962 . S
C766 H780 0.960 . S
C767 C764 1.511 . S
C767 H781 0.961 . S
C767 H782 0.961 . S
C767 H783 0.961 . S
C768 C769 1.370 . S
C768 C770 1.363 . S
C768 H784 0.931 . S
C769 C768 1.370 . S
C769 C773 1.408 . S
C770 C768 1.363 . S
C770 C771 1.370 . S
C770 C774 1.524 . S
C771 C763 1.503 . S
C771 C770 1.370 . S
C771 C772 1.403 . S
C772 C771 1.403 . S
C772 C773 1.404 . S
C772 C775 1.539 . S
C773 C769 1.408 . S
C773 C772 1.404 . S
C773 H785 0.930 . S
C774 C770 1.524 . S
C774 H786 0.956 . S
C774 H787 0.961 . S
C774 H788 0.961 . S
C775 C772 1.539 . S
C775 H789 0.958 . S
C775 H790 0.961 . S
C775 H791 0.960 . S
H776 C760 0.931 . S
H777 C765 0.929 . S
H778 C766 0.960 . S
H779 C766 0.962 . S
H780 C766 0.960 . S
H781 C767 0.961 . S
H782 C767 0.961 . S
H783 C767 0.961 . S
H784 C768 0.931 . S
H785 C773 0.930 . S
H786 C774 0.956 . S
H787 C774 0.961 . S
H788 C774 0.961 . S
H789 C775 0.958 . S
H790 C775 0.961 . S
H791 C775 0.960 . S
C792 C793 1.391 . S
C792 C794 1.394 . S
C792 H808 0.931 . S
C793 C792 1.391 . S
C793 C797 1.376 . S
C794 C792 1.394 . S
C794 C795 1.369 . S
C794 C798 1.531 . S
C795 C794 1.369 . S
C795 C796 1.410 . S
C795 C803 1.503 . S
C796 C795 1.410 . S
C796 C797 1.392 . S
C796 C799 1.511 . S
C797 C793 1.376 . S
C797 C796 1.392 . S
C797 H809 0.929 . S
C798 C794 1.531 . S
C798 H810 0.960 . S
C798 H811 0.994 . S
C798 H812 0.960 . S
C799 C796 1.511 . S
C799 H813 0.961 . S
C799 H814 0.961 . S
C799 H815 0.961 . S
C800 C801 1.370 . S
C800 C802 1.363 . S
C800 H816 0.931 1_655 S
C801 C800 1.370 . S
C801 C805 1.408 . S
C802 C800 1.363 . S
C802 C803 1.370 . S
C802 C806 1.524 . S
C803 C795 1.503 . S
C803 C802 1.370 . S
C803 C804 1.403 . S
C804 C803 1.403 . S
C804 C805 1.404 . S
C804 C807 1.539 . S
C805 C801 1.408 . S
C805 C804 1.404 . S
C805 H817 0.930 . S
C806 C802 1.524 . S
C806 H818 0.956 1_655 S
C806 H819 0.961 . S
C806 H820 0.961 1_655 S
C807 C804 1.539 . S
C807 H821 0.958 . S
C807 H822 0.961 . S
C807 H823 0.960 . S
H808 C792 0.931 . S
H809 C797 0.929 . S
H810 C798 0.960 . S
H811 C798 0.994 . S
H812 C798 0.960 . S
H813 C799 0.961 . S
H814 C799 0.961 . S
H815 C799 0.961 . S
H816 C800 0.931 1_455 S
H817 C805 0.930 . S
H818 C806 0.956 1_455 S
H819 C806 0.961 . S
H820 C806 0.961 1_455 S
H821 C807 0.958 . S
H822 C807 0.961 . S
H823 C807 0.960 . S
C824 C825 1.391 . S
C824 C826 1.394 . S
C824 H840 0.931 . S
C825 C824 1.391 . S
C825 C829 1.376 1_565 S
C826 C824 1.394 . S
C826 C827 1.369 . S
C826 C830 1.531 . S
C827 C826 1.369 . S
C827 C828 1.410 1_565 S
C827 C835 1.503 . S
C828 C827 1.410 1_545 S
C828 C829 1.392 . S
C828 C831 1.511 . S
C829 C825 1.376 1_545 S
C829 C828 1.392 . S
C829 H841 0.929 . S
C830 C826 1.531 . S
C830 H842 0.960 . S
C830 H843 0.962 . S
C830 H844 0.960 . S
C831 C828 1.511 . S
C831 H845 0.961 . S
C831 H846 0.961 . S
C831 H847 0.961 1_545 S
C832 C833 1.370 1_545 S
C832 C834 1.363 . S
C832 H848 0.931 . S
C833 C832 1.370 1_565 S
C833 C837 1.408 . S
C834 C832 1.363 . S
C834 C835 1.370 1_545 S
C834 C838 1.524 . S
C835 C827 1.503 . S
C835 C834 1.370 1_565 S
C835 C836 1.403 . S
C836 C835 1.403 . S
C836 C837 1.404 . S
C836 C839 1.539 . S
C837 C833 1.408 . S
C837 C836 1.404 . S
C837 H849 0.930 . S
C838 C834 1.524 . S
C838 H850 0.956 . S
C838 H851 0.961 . S
C838 H852 0.961 . S
C839 C836 1.539 . S
C839 H853 0.958 . S
C839 H854 0.961 . S
C839 H855 0.960 . S
H840 C824 0.931 . S
H841 C829 0.929 . S
H842 C830 0.960 . S
H843 C830 0.962 . S
H844 C830 0.960 . S
H845 C831 0.961 . S
H846 C831 0.961 . S
H847 C831 0.961 1_565 S
H848 C832 0.931 . S
H849 C837 0.930 . S
H850 C838 0.956 . S
H851 C838 0.961 . S
H852 C838 0.961 . S
H853 C839 0.958 . S
H854 C839 0.961 . S
H855 C839 0.960 . S
C856 C857 1.391 . S
C856 C858 1.394 . S
C856 H872 0.931 . S
C857 C856 1.391 . S
C857 C861 1.376 . S
C858 C856 1.394 . S
C858 C859 1.369 . S
C858 C862 1.531 . S
C859 C858 1.369 . S
C859 C860 1.410 . S
C859 C867 1.503 . S
C860 C859 1.410 . S
C860 C861 1.392 . S
C860 C863 1.511 . S
C861 C857 1.376 . S
C861 C860 1.392 . S
C861 H873 0.929 . S
C862 C858 1.531 . S
C862 H874 0.960 . S
C862 H875 0.962 . S
C862 H876 0.960 . S
C863 C860 1.511 . S
C863 H877 0.961 . S
C863 H878 0.961 . S
C863 H879 0.961 . S
C864 C865 1.370 . S
C864 C866 1.363 . S
C864 H880 0.931 . S
C865 C864 1.370 . S
C865 C869 1.408 . S
C866 C864 1.363 . S
C866 C867 1.370 . S
C866 C870 1.524 . S
C867 C859 1.503 . S
C867 C866 1.370 . S
C867 C868 1.403 . S
C868 C867 1.403 . S
C868 C869 1.404 . S
C868 C871 1.539 . S
C869 C865 1.408 . S
C869 C868 1.404 . S
C869 H881 0.930 . S
C870 C866 1.524 . S
C870 H882 0.956 . S
C870 H883 0.961 . S
C870 H884 0.961 . S
C871 C868 1.539 . S
C871 H885 0.958 . S
C871 H886 0.961 . S
C871 H887 0.960 . S
H872 C856 0.931 . S
H873 C861 0.929 . S
H874 C862 0.960 . S
H875 C862 0.962 . S
H876 C862 0.960 . S
H877 C863 0.961 . S
H878 C863 0.961 . S
H879 C863 0.961 . S
H880 C864 0.931 . S
H881 C869 0.930 . S
H882 C870 0.956 . S
H883 C870 0.961 . S
H884 C870 0.961 . S
H885 C871 0.958 . S
H886 C871 0.961 . S
H887 C871 0.960 . S
C888 C889 1.391 . S
C888 C890 1.394 . S
C888 H904 0.931 . S
C889 C888 1.391 . S
C889 C893 1.376 . S
C890 C888 1.394 . S
C890 C891 1.369 . S
C890 C894 1.531 . S
C891 C890 1.369 . S
C891 C892 1.410 . S
C891 C899 1.503 . S
C892 C891 1.410 . S
C892 C893 1.392 . S
C892 C895 1.511 . S
C893 C889 1.376 . S
C893 C892 1.392 . S
C893 H905 0.929 . S
C894 C890 1.531 . S
C894 H906 0.960 . S
C894 H907 0.962 . S
C894 H908 0.960 . S
C895 C892 1.511 . S
C895 H909 0.961 . S
C895 H910 0.961 . S
C895 H911 0.961 . S
C896 C897 1.370 . S
C896 C898 1.363 . S
C896 H912 0.931 . S
C897 C896 1.370 . S
C897 C901 1.408 . S
C898 C896 1.363 . S
C898 C899 1.370 . S
C898 C902 1.524 . S
C899 C891 1.503 . S
C899 C898 1.370 . S
C899 C900 1.403 . S
C900 C899 1.403 . S
C900 C901 1.404 . S
C900 C903 1.539 . S
C901 C897 1.408 . S
C901 C900 1.404 . S
C901 H913 0.930 . S
C902 C898 1.524 . S
C902 H914 0.956 . S
C902 H915 0.961 . S
C902 H916 0.961 . S
C903 C900 1.539 . S
C903 H917 0.958 . S
C903 H918 0.961 . S
C903 H919 0.960 . S
H904 C888 0.931 . S
H905 C893 0.929 . S
H906 C894 0.960 . S
H907 C894 0.962 . S
H908 C894 0.960 . S
H909 C895 0.961 . S
H910 C895 0.961 . S
H911 C895 0.961 . S
H912 C896 0.931 . S
H913 C901 0.930 . S
H914 C902 0.956 . S
H915 C902 0.961 . S
H916 C902 0.961 . S
H917 C903 0.958 . S
H918 C903 0.961 . S
H919 C903 0.960 . S
C153 C61 1.499 . S
C161 C80 1.575 . S
C193 C110 1.892 . S
C185 C70 1.818 . S
C225 C120 1.555 . S
C217 C43 1.498 . S
C257 C140 1.443 . S
C249 C52 1.386 . S
C289 C81 1.582 . S
C281 C25 1.534 1_556 S
C313 C34 1.846 1_556 S
C321 C111 1.886 . S
C345 C7 1.464 1_556 S
C353 C121 1.565 . S
C377 C16 1.349 1_556 S
C385 C141 1.440 . S
C417 C73 0.719 . S
C409 C50 0.766 . S
C449 C94 0.362 . S
C441 C59 0.347 . S
C481 C113 0.906 . S
C473 C67 0.942 . S
C505 C41 0.638 . S
C513 C133 0.636 . S
C537 C14 0.773 . S
C545 C74 0.723 . S
C577 C93 0.345 . S
C569 C23 0.370 1_545 S
C609 C114 0.909 . S
C601 C31 0.854 1_556 S
C633 C5 0.599 . S
C641 C134 0.617 . S
C665 C49 1.634 . S
C673 C91 1.755 . S
C697 C58 1.323 1_545 S
C705 C101 1.415 . S
C737 C131 1.863 . S
C729 C68 1.777 . S
C769 C151 1.842 . S
C761 C40 1.773 . S
C793 C13 1.653 . S
C801 C90 1.775 . S
C833 C100 1.417 . S
C825 C22 1.328 . S
C865 C130 1.852 . S
C857 C32 1.757 . S
C889 C4 1.699 . S
C897 C150 1.843 . S
