# Generated by pormake.
# Topology nom, (4,4)-cn, num edge types: 1
# Building blocks:
#     Node 0, Type 0, BuildingBlock: GIZVER_clean_linker_0, # of connection points: 4
#     Node 1, Type 0, BuildingBlock: GIZVER_clean_linker_0, # of connection points: 4
#     Node 2, Type 0, BuildingBlock: GIZVER_clean_linker_0, # of connection points: 4
#     Node 3, Type 0, BuildingBlock: GIZVER_clean_linker_0, # of connection points: 4
#     Node 4, Type 0, BuildingBlock: GIZVER_clean_linker_0, # of connection points: 4
#     Node 5, Type 0, BuildingBlock: GIZVER_clean_linker_0, # of connection points: 4
#     Node 6, Type 1, BuildingBlock: UXUYUI_clean_sbu_0, # of connection points: 4
#     Node 7, Type 1, BuildingBlock: UXUYUI_clean_sbu_0, # of connection points: 4
#     Node 8, Type 1, BuildingBlock: UXUYUI_clean_sbu_0, # of connection points: 4
#     Node 9, Type 1, BuildingBlock: UXUYUI_clean_sbu_0, # of connection points: 4
#     Node 10, Type 1, BuildingBlock: UXUYUI_clean_sbu_0, # of connection points: 4
#     Node 11, Type 1, BuildingBlock: UXUYUI_clean_sbu_0, # of connection points: 4
#     Edge 12, Type (0, 1), BuildingBlock: UVAHIK_clean_linker_0, # of connection points: 2
#     Edge 13, Type (0, 1), BuildingBlock: UVAHIK_clean_linker_0, # of connection points: 2
#     Edge 14, Type (0, 1), BuildingBlock: UVAHIK_clean_linker_0, # of connection points: 2
#     Edge 15, Type (0, 1), BuildingBlock: UVAHIK_clean_linker_0, # of connection points: 2
#     Edge 16, Type (0, 1), BuildingBlock: UVAHIK_clean_linker_0, # of connection points: 2
#     Edge 17, Type (0, 1), BuildingBlock: UVAHIK_clean_linker_0, # of connection points: 2
#     Edge 18, Type (0, 1), BuildingBlock: UVAHIK_clean_linker_0, # of connection points: 2
#     Edge 19, Type (0, 1), BuildingBlock: UVAHIK_clean_linker_0, # of connection points: 2
#     Edge 20, Type (0, 1), BuildingBlock: UVAHIK_clean_linker_0, # of connection points: 2
#     Edge 21, Type (0, 1), BuildingBlock: UVAHIK_clean_linker_0, # of connection points: 2
#     Edge 22, Type (0, 1), BuildingBlock: UVAHIK_clean_linker_0, # of connection points: 2
#     Edge 23, Type (0, 1), BuildingBlock: UVAHIK_clean_linker_0, # of connection points: 2
#     Edge 24, Type (0, 1), BuildingBlock: UVAHIK_clean_linker_0, # of connection points: 2
#     Edge 25, Type (0, 1), BuildingBlock: UVAHIK_clean_linker_0, # of connection points: 2
#     Edge 26, Type (0, 1), BuildingBlock: UVAHIK_clean_linker_0, # of connection points: 2
#     Edge 27, Type (0, 1), BuildingBlock: UVAHIK_clean_linker_0, # of connection points: 2
#     Edge 28, Type (0, 1), BuildingBlock: UVAHIK_clean_linker_0, # of connection points: 2
#     Edge 29, Type (0, 1), BuildingBlock: UVAHIK_clean_linker_0, # of connection points: 2
#     Edge 30, Type (0, 1), BuildingBlock: UVAHIK_clean_linker_0, # of connection points: 2
#     Edge 31, Type (0, 1), BuildingBlock: UVAHIK_clean_linker_0, # of connection points: 2
#     Edge 32, Type (0, 1), BuildingBlock: UVAHIK_clean_linker_0, # of connection points: 2
#     Edge 33, Type (0, 1), BuildingBlock: UVAHIK_clean_linker_0, # of connection points: 2
#     Edge 34, Type (0, 1), BuildingBlock: UVAHIK_clean_linker_0, # of connection points: 2
#     Edge 35, Type (0, 1), BuildingBlock: UVAHIK_clean_linker_0, # of connection points: 2
# Relax obj value: 0.036
# Max RMSD: 0.148
# Mean RMSD: 0.105
data_MOF--net-nom--node1-UXUYUI_clean_sbu_0--node2-GIZVER_clean_linker_0--edge1-UVAHIK_clean_linker_0
_symmetry_space_group_name_H-M    P1
_symmetry_Int_Tables_number       1
_symmetry_cell_setting            triclinic
loop_
_symmetry_equiv_pos_as_xyz
'x, y, z'
_cell_length_a     70.28818
_cell_length_b     70.297217
_cell_length_c     69.595398
_cell_angle_alpha  89.999444
_cell_angle_beta   90.015658
_cell_angle_gamma 120.01804
loop_
_atom_site_label
_atom_site_type_symbol
_atom_site_fract_x
_atom_site_fract_y
_atom_site_fract_z
_atom_type_partial_charge
H0 H 0.9835 0.5414 0.35461 0.0
H1 H 0.00361 0.53947 0.29652 0.0
H2 H 0.94023 0.48953 0.31672 0.0
H3 H 0.01511 0.57315 0.34139 0.0
H4 H 0.0202 0.5744 0.31613 0.0
H5 H 0.02389 0.54514 0.36062 0.0
H6 H 0.08873 0.55822 0.34634 0.0
H7 H 0.05476 0.57913 0.30812 0.0
C8 C 0.98044 0.53319 0.34083 0.0
C9 C 0.96036 0.51387 0.33757 0.0
C10 C 0.99627 0.54231 0.32614 0.0
C11 C 0.99173 0.53207 0.30802 0.0
C12 C 0.97156 0.51286 0.30453 0.0
C13 C 0.95625 0.50371 0.31953 0.0
C14 C 0.01704 0.56406 0.32916 0.0
C15 C 0.0365 0.56109 0.33323 0.0
C16 C 0.03744 0.5512 0.35054 0.0
C17 C 0.05619 0.54992 0.3552 0.0
C18 C 0.07401 0.55866 0.34247 0.0
C19 C 0.07395 0.56974 0.32573 0.0
C20 C 0.05486 0.57034 0.32087 0.0
H21 H 0.45343 0.98488 0.52177 0.0
H22 H 0.47289 0.00545 0.4633 0.0
H23 H 0.46442 0.94377 0.48307 0.0
H24 H 0.45133 0.01556 0.50939 0.0
H25 H 0.45265 0.01969 0.48401 0.0
H26 H 0.48807 0.03034 0.52783 0.0
H27 H 0.53727 0.09391 0.5073 0.0
H28 H 0.48311 0.05165 0.47096 0.0
C29 C 0.45865 0.98228 0.50785 0.0
C30 C 0.45903 0.96279 0.50433 0.0
C31 C 0.46406 0.99796 0.49319 0.0
C32 C 0.46966 0.99388 0.47486 0.0
C33 C 0.47008 0.97445 0.47119 0.0
C34 C 0.46526 0.95931 0.48612 0.0
C35 C 0.46153 0.0178 0.49645 0.0
C36 C 0.48353 0.03841 0.49892 0.0
C37 C 0.49489 0.04246 0.51644 0.0
C38 C 0.51446 0.06242 0.51958 0.0
C39 C 0.52283 0.07803 0.50473 0.0
C40 C 0.51166 0.07432 0.48721 0.0
C41 C 0.49204 0.05442 0.48433 0.0
H42 H 0.45119 0.48385 0.6295 0.0
H43 H 0.4736 0.48716 0.68768 0.0
H44 H 0.4601 0.53663 0.66634 0.0
H45 H 0.45162 0.45257 0.64323 0.0
H46 H 0.45545 0.45178 0.66856 0.0
H47 H 0.48778 0.47967 0.62352 0.0
H48 H 0.54147 0.47035 0.63961 0.0
H49 H 0.48622 0.44894 0.67754 0.0
C50 C 0.45636 0.49234 0.64316 0.0
C51 C 0.45564 0.51174 0.646 0.0
C52 C 0.46319 0.48359 0.65807 0.0
C53 C 0.46899 0.49425 0.676 0.0
C54 C 0.46809 0.51354 0.67907 0.0
C55 C 0.46182 0.52233 0.66386 0.0
C56 C 0.46254 0.46195 0.65542 0.0
C57 C 0.48516 0.46531 0.65158 0.0
C58 C 0.49572 0.47458 0.63404 0.0
C59 C 0.51613 0.47656 0.62977 0.0
C60 C 0.5259 0.4692 0.64314 0.0
C61 C 0.51504 0.45859 0.66013 0.0
C62 C 0.4949 0.45728 0.66456 0.0
H63 H 0.98839 0.45552 0.80201 0.0
H64 H 0.00794 0.47464 0.86073 0.0
H65 H 0.94677 0.46664 0.83996 0.0
H66 H 0.01832 0.4525 0.81517 0.0
H67 H 0.02229 0.45419 0.84058 0.0
H68 H 0.03463 0.48808 0.79571 0.0
H69 H 0.09702 0.53842 0.81737 0.0
H70 H 0.05324 0.48559 0.85423 0.0
C71 C 0.98551 0.46061 0.81589 0.0
C72 C 0.96609 0.46122 0.81904 0.0
C73 C 1.00083 0.46573 0.83083 0.0
C74 C 0.99653 0.47143 0.84903 0.0
C75 C 0.97715 0.47208 0.85236 0.0
C76 C 0.96229 0.46734 0.83719 0.0
C77 C 0.02056 0.46293 0.82795 0.0
C78 C 0.0413 0.4848 0.82543 0.0
C79 C 0.04616 0.49542 0.80748 0.0
C80 C 0.06619 0.51493 0.80449 0.0
C81 C 0.08107 0.524 0.81981 0.0
C82 C 0.0766 0.51353 0.83773 0.0
C83 C 0.0566 0.49398 0.84052 0.0
H84 H 0.5794 0.04816 0.01749 0.0
H85 H 0.56091 0.03055 0.95836 0.0
H86 H 0.56979 0.09155 0.98055 0.0
H87 H 0.58233 0.01847 0.00338 0.0
H88 H 0.57994 0.01463 0.97795 0.0
H89 H 0.54689 0.00345 0.0233 0.0
H90 H 0.49555 0.94108 0.00262 0.0
H91 H 0.5483 0.98352 0.96505 0.0
C92 C 0.57458 0.05156 0.00369 0.0
C93 C 0.57439 0.07126 0.00099 0.0
C94 C 0.5694 0.03664 0.98841 0.0
C95 C 0.56414 0.04165 0.97032 0.0
C96 C 0.56403 0.06138 0.96741 0.0
C97 C 0.56872 0.07579 0.98294 0.0
C98 C 0.57168 0.01655 0.99084 0.0
C99 C 0.54961 0.99615 0.99365 0.0
C100 C 0.53922 0.99179 0.01168 0.0
C101 C 0.51956 0.972 0.01498 0.0
C102 C 0.51008 0.95686 -0.0001 0.0
C103 C 0.52037 0.96079 0.98192 0.0
C104 C 0.54006 0.98058 0.9788 0.0
H105 H 0.57522 0.53949 0.13213 0.0
H106 H 0.54801 0.53469 0.18856 0.0
H107 H 0.56087 0.48444 0.16837 0.0
H108 H 0.57472 0.5707 0.14544 0.0
H109 H 0.57005 0.57105 0.17067 0.0
H110 H 0.53763 0.54341 0.12544 0.0
H111 H 0.4879 0.55985 0.13852 0.0
H112 H 0.54134 0.57789 0.17784 0.0
C113 C 0.56861 0.53046 0.14539 0.0
C114 C 0.56829 0.51053 0.14829 0.0
C115 C 0.56102 0.53911 0.15978 0.0
C116 C 0.5532 0.52771 0.17722 0.0
C117 C 0.55283 0.50778 0.1803 0.0
C118 C 0.56006 0.49921 0.16565 0.0
C119 C 0.56309 0.5614 0.15726 0.0
C120 C 0.5412 0.55956 0.15277 0.0
C121 C 0.5305 0.55005 0.13531 0.0
C122 C 0.51105 0.54982 0.13029 0.0
C123 C 0.50251 0.55935 0.14272 0.0
C124 C 0.51351 0.56993 0.15965 0.0
C125 C 0.53256 0.56946 0.16491 0.0
Li126 Li 0.63709 0.40273 0.42571 0.0
Li127 Li 0.63118 0.36888 0.41065 0.0
Li128 Li 0.66498 0.40406 0.40631 0.0
Li129 Li 0.63207 0.39913 0.39064 0.0
C130 C 0.65554 0.3896 0.4496 0.0
N131 N 0.65854 0.39595 0.48891 0.0
C132 C 0.64128 0.37269 0.46185 0.0
C133 C 0.67147 0.40966 0.45735 0.0
C134 C 0.64302 0.37624 0.48168 0.0
C135 C 0.67268 0.41257 0.47726 0.0
C136 C 0.59086 0.36658 0.40381 0.0
C137 C 0.56856 0.33952 0.3801 0.0
N138 N 0.5502 0.33769 0.38841 0.0
C139 C 0.5718 0.36445 0.41212 0.0
C140 C 0.58926 0.35403 0.38767 0.0
C141 C 0.55139 0.34975 0.40413 0.0
C142 C 0.63975 0.43614 0.45007 0.0
N143 N 0.62913 0.41408 0.44711 0.0
C144 C 0.60366 0.40836 0.47224 0.0
C145 C 0.6115 0.40014 0.45791 0.0
C146 C 0.61399 0.43116 0.47536 0.0
C147 C 0.63249 0.44507 0.46424 0.0
H148 H 0.65341 0.44687 0.44101 0.0
H149 H 0.60321 0.38267 0.45505 0.0
C150 C 0.62389 0.32636 0.40157 0.0
N151 N 0.61748 0.33772 0.41313 0.0
C152 C 0.61456 0.30366 0.40366 0.0
C153 C 0.59151 0.30458 0.42897 0.0
C154 C 0.60137 0.3273 0.42644 0.0
C155 C 0.59829 0.29249 0.41765 0.0
H156 H 0.63627 0.3349 0.39074 0.0
H157 H 0.59633 0.33669 0.43523 0.0
C158 C 0.67087 0.4442 0.39981 0.0
N159 N 0.70617 0.48357 0.38782 0.0
C160 C 0.67194 0.45131 0.38086 0.0
C161 C 0.68771 0.4572 0.41267 0.0
C162 C 0.68992 0.47125 0.37509 0.0
C163 C 0.70544 0.47702 0.40632 0.0
C164 C 0.66287 0.38351 0.37387 0.0
C165 C 0.6673 0.39518 0.35663 0.0
C166 C 0.67547 0.37399 0.37906 0.0
C167 C 0.68425 0.39708 0.34483 0.0
C168 C 0.69232 0.37632 0.3669 0.0
N169 N 0.69631 0.38771 0.35018 0.0
C170 C 0.70723 0.41167 0.4169 0.0
C171 C 0.7071 0.42939 0.38801 0.0
C172 C 0.72973 0.41939 0.41499 0.0
N173 N 0.69637 0.41673 0.4035 0.0
C174 C 0.72954 0.43747 0.38554 0.0
C175 C 0.74116 0.43234 0.39904 0.0
H176 H 0.69834 0.40122 0.42889 0.0
H177 H 0.69818 0.4329 0.37731 0.0
C178 C 0.61248 0.42099 0.37473 0.0
N179 N 0.61811 0.40561 0.37044 0.0
C180 C 0.60225 0.42731 0.36103 0.0
C181 C 0.60321 0.40133 0.33884 0.0
C182 C 0.61344 0.39549 0.35303 0.0
C183 C 0.59767 0.41761 0.34271 0.0
H184 H 0.6161 0.42846 0.38884 0.0
H185 H 0.61772 0.38297 0.35015 0.0
O186 O 0.65373 0.38666 0.43012 0.0
O187 O 0.61093 0.38092 0.41152 0.0
O188 O 0.65332 0.42477 0.40577 0.0
O189 O 0.6465 0.38169 0.38571 0.0
H190 H 0.62892 0.35704 0.45611 0.0
H191 H 0.68267 0.42288 0.44807 0.0
H192 H 0.63202 0.36333 0.49133 0.0
H193 H 0.68485 0.42806 0.48344 0.0
H194 H 0.56707 0.3297 0.36761 0.0
H195 H 0.57279 0.37407 0.42463 0.0
H196 H 0.60382 0.35543 0.38104 0.0
H197 H 0.53649 0.34793 0.41041 0.0
H198 H 0.5895 0.39701 0.48063 0.0
H199 H 0.64078 0.46274 0.46594 0.0
H200 H 0.61997 0.29494 0.39437 0.0
H201 H 0.57911 0.29667 0.43999 0.0
H202 H 0.65922 0.44145 0.37063 0.0
H203 H 0.68723 0.45198 0.42736 0.0
H204 H 0.69101 0.47689 0.36045 0.0
H205 H 0.71864 0.48716 0.4161 0.0
H206 H 0.658 0.40299 0.35253 0.0
H207 H 0.6726 0.36532 0.39255 0.0
H208 H 0.68791 0.40614 0.33149 0.0
H209 H 0.7023 0.36919 0.37081 0.0
H210 H 0.73793 0.41474 0.42559 0.0
H211 H 0.73768 0.44755 0.37311 0.0
H212 H 0.5979 0.4396 0.36478 0.0
H213 H 0.60007 0.39349 0.32489 0.0
Li214 Li 0.25583 0.63815 0.59199 0.0
Li215 Li 0.28254 0.63274 0.57406 0.0
Li216 Li 0.28091 0.66658 0.57202 0.0
Li217 Li 0.25173 0.63409 0.55685 0.0
C218 C 0.2892 0.65617 0.61405 0.0
N219 N 0.28894 0.65841 0.65367 0.0
C220 C 0.29229 0.64138 0.62516 0.0
C221 C 0.28619 0.67223 0.62307 0.0
C222 C 0.29206 0.64275 0.64518 0.0
C223 C 0.28606 0.67307 0.64312 0.0
C224 C 0.24372 0.59257 0.56799 0.0
C225 C 0.24671 0.57069 0.54277 0.0
N226 N 0.22992 0.55231 0.55082 0.0
C227 C 0.2265 0.5735 0.57601 0.0
C228 C 0.25393 0.5912 0.55123 0.0
C229 C 0.21976 0.55329 0.56712 0.0
C230 C 0.22781 0.64023 0.62021 0.0
N231 N 0.23841 0.62943 0.61465 0.0
C232 C 0.22065 0.60262 0.63932 0.0
C233 C 0.23528 0.61107 0.62391 0.0
C234 C 0.20903 0.61312 0.64515 0.0
C235 C 0.21305 0.63237 0.63555 0.0
H236 H 0.23038 0.6546 0.61243 0.0
H237 H 0.2437 0.60265 0.61895 0.0
C238 C 0.31784 0.62632 0.56275 0.0
N239 N 0.30012 0.61907 0.57452 0.0
C240 C 0.3313 0.61698 0.5637 0.0
C241 C 0.30755 0.59233 0.58836 0.0
C242 C 0.2946 0.6022 0.58697 0.0
C243 C 0.32636 0.59989 0.5768 0.0
H244 H 0.32162 0.63943 0.5527 0.0
H245 H 0.28028 0.59663 0.59603 0.0
C246 C 0.2461 0.6725 0.56924 0.0
N247 N 0.24092 0.70794 0.56021 0.0
C248 C 0.23856 0.67407 0.55104 0.0
C249 C 0.25088 0.6889 0.58287 0.0
C250 C 0.23606 0.69212 0.54675 0.0
C251 C 0.24821 0.70671 0.57801 0.0
C252 C 0.29592 0.66541 0.53759 0.0
C253 C 0.28627 0.67003 0.52207 0.0
C254 C 0.31859 0.67817 0.54056 0.0
C255 C 0.29948 0.68735 0.50972 0.0
C256 C 0.33122 0.69539 0.52792 0.0
N257 N 0.32149 0.69957 0.51289 0.0
C258 C 0.31692 0.70804 0.58206 0.0
C259 C 0.29622 0.70977 0.55597 0.0
C260 C 0.33148 0.73066 0.58091 0.0
N261 N 0.2996 0.69806 0.56977 0.0
C262 C 0.31022 0.73243 0.55442 0.0
C263 C 0.32816 0.74315 0.56698 0.0
H264 H 0.3196 0.69841 0.59267 0.0
H265 H 0.28285 0.70154 0.54592 0.0
C266 C 0.2091 0.61492 0.54318 0.0
N267 N 0.22976 0.62034 0.53769 0.0
C268 C 0.19155 0.6042 0.53045 0.0
C269 C 0.21677 0.60434 0.50675 0.0
C270 C 0.23389 0.61515 0.51996 0.0
C271 C 0.19525 0.59881 0.51192 0.0
H272 H 0.20631 0.61893 0.55752 0.0
H273 H 0.25044 0.61931 0.51611 0.0
O274 O 0.28875 0.65472 0.59443 0.0
O275 O 0.25039 0.61246 0.57651 0.0
O276 O 0.24851 0.65486 0.57375 0.0
O277 O 0.2832 0.64867 0.54995 0.0
H278 H 0.29468 0.62889 0.61842 0.0
H279 H 0.28383 0.68383 0.61467 0.0
H280 H 0.2943 0.63133 0.65397 0.0
H281 H 0.28362 0.68533 0.65029 0.0
H282 H 0.25445 0.56938 0.52979 0.0
H283 H 0.21842 0.57432 0.58897 0.0
H284 H 0.26726 0.60578 0.54478 0.0
H285 H 0.20645 0.53838 0.57317 0.0
H286 H 0.21786 0.58758 0.6461 0.0
H287 H 0.20467 0.64113 0.6397 0.0
H288 H 0.34543 0.62307 0.5543 0.0
H289 H 0.30321 0.57934 0.59876 0.0
H290 H 0.23495 0.66169 0.54022 0.0
H291 H 0.25681 0.68804 0.59699 0.0
H292 H 0.23035 0.6936 0.5327 0.0
H293 H 0.25198 0.71958 0.58839 0.0
H294 H 0.26872 0.66057 0.51972 0.0
H295 H 0.32627 0.67514 0.55273 0.0
H296 H 0.29222 0.69117 0.49769 0.0
H297 H 0.34875 0.7055 0.53014 0.0
H298 H 0.34512 0.7383 0.59087 0.0
H299 H 0.30734 0.74137 0.54321 0.0
H300 H 0.17521 0.59993 0.53517 0.0
H301 H 0.22037 0.60061 0.49258 0.0
Li302 Li 0.67217 0.28724 0.7445 0.0
Li303 Li 0.63902 0.25969 0.76093 0.0
Li304 Li 0.64154 0.25854 0.72526 0.0
Li305 Li 0.63596 0.2864 0.74165 0.0
C306 C 0.67431 0.24801 0.74055 0.0
N307 N 0.70338 0.23378 0.73113 0.0
C308 C 0.68128 0.23857 0.75455 0.0
C309 C 0.68183 0.24982 0.72168 0.0
C310 C 0.69607 0.2316 0.74953 0.0
C311 C 0.69659 0.24264 0.71722 0.0
C312 C 0.65491 0.29306 0.78428 0.0
C313 C 0.63608 0.28938 0.81421 0.0
N314 N 0.65456 0.2936 0.82397 0.0
C315 C 0.67376 0.29751 0.79459 0.0
C316 C 0.63596 0.28911 0.79414 0.0
C317 C 0.67324 0.29766 0.81465 0.0
C318 C 0.7125 0.32624 0.73829 0.0
N319 N 0.70325 0.30594 0.7464 0.0
C320 C 0.73824 0.31321 0.75812 0.0
C321 C 0.71558 0.29929 0.75627 0.0
C322 C 0.74832 0.33426 0.74981 0.0
C323 C 0.73511 0.34067 0.73972 0.0
H324 H 0.70226 0.33124 0.73074 0.0
H325 H 0.70777 0.28337 0.76311 0.0
C326 C 0.60684 0.22724 0.78526 0.0
N327 N 0.62876 0.24101 0.78283 0.0
C328 C 0.59921 0.2115 0.79986 0.0
C329 C 0.63687 0.22466 0.80933 0.0
C330 C 0.64374 0.24026 0.79467 0.0
C331 C 0.61436 0.20977 0.81184 0.0
H332 H 0.59529 0.22793 0.77545 0.0
H333 H 0.66107 0.25137 0.79236 0.0
C334 C 0.66633 0.2981 0.70325 0.0
N335 N 0.68383 0.31289 0.66708 0.0
C336 C 0.65594 0.30523 0.69036 0.0
C337 C 0.68585 0.29887 0.6978 0.0
C338 C 0.66497 0.31254 0.67212 0.0
C339 C 0.69438 0.30629 0.67945 0.0
C340 C 0.59601 0.25109 0.73764 0.0
C341 C 0.58651 0.24384 0.71952 0.0
C342 C 0.58465 0.25552 0.75179 0.0
C343 C 0.56587 0.24141 0.7158 0.0
C344 C 0.56406 0.25291 0.74749 0.0
N345 N 0.55518 0.24598 0.72973 0.0
C346 C 0.62505 0.21709 0.70973 0.0
C347 C 0.63351 0.244 0.68566 0.0
C348 C 0.61684 0.20041 0.69598 0.0
N349 N 0.63302 0.23834 0.70441 0.0
C350 C 0.62551 0.22784 0.6714 0.0
C351 C 0.61677 0.20565 0.67651 0.0
H352 H 0.62467 0.21307 0.72479 0.0
H353 H 0.63968 0.26092 0.68173 0.0
C354 C 0.62593 0.31955 0.75251 0.0
N355 N 0.62264 0.30422 0.73898 0.0
C356 C 0.61704 0.3333 0.75003 0.0
C357 C 0.60131 0.31498 0.71995 0.0
C358 C 0.61048 0.30165 0.723 0.0
C359 C 0.6048 0.3313 0.73341 0.0
H360 H 0.63582 0.3214 0.76503 0.0
H361 H 0.60809 0.28937 0.71245 0.0
O362 O 0.65977 0.25487 0.74526 0.0
O363 O 0.65497 0.29244 0.76465 0.0
O364 O 0.65773 0.29101 0.72122 0.0
O365 O 0.61629 0.25376 0.7415 0.0
H366 H 0.67545 0.23672 0.76917 0.0
H367 H 0.67617 0.25643 0.71053 0.0
H368 H 0.70171 0.22442 0.76027 0.0
H369 H 0.70256 0.24401 0.70267 0.0
H370 H 0.62149 0.28622 0.82202 0.0
H371 H 0.68858 0.30065 0.78719 0.0
H372 H 0.62127 0.28574 0.78637 0.0
H373 H 0.68767 0.30096 0.82283 0.0
H374 H 0.74764 0.30773 0.76641 0.0
H375 H 0.74215 0.35665 0.73297 0.0
H376 H 0.58173 0.20019 0.80122 0.0
H377 H 0.64905 0.22402 0.81842 0.0
H378 H 0.641 0.30505 0.69432 0.0
H379 H 0.69452 0.29403 0.70768 0.0
H380 H 0.65699 0.31795 0.66199 0.0
H381 H 0.70944 0.3069 0.67506 0.0
H382 H 0.59501 0.24029 0.7084 0.0
H383 H 0.59173 0.26108 0.76589 0.0
H384 H 0.55837 0.23592 0.70181 0.0
H385 H 0.55516 0.25643 0.75826 0.0
H386 H 0.60998 0.18353 0.70064 0.0
H387 H 0.62601 0.23268 0.65655 0.0
H388 H 0.62031 0.34581 0.76068 0.0
H389 H 0.59171 0.31262 0.70708 0.0
Li390 Li 0.40241 0.63356 0.92641 0.0
Li391 Li 0.40607 0.66614 0.91116 0.0
Li392 Li 0.37041 0.6325 0.90919 0.0
Li393 Li 0.40241 0.63754 0.89127 0.0
C394 C 0.39014 0.66521 0.9457 0.0
N395 N 0.39935 0.69943 0.97054 0.0
C396 C 0.4045 0.66964 0.96112 0.0
C397 C 0.38047 0.67821 0.94289 0.0
C398 C 0.40891 0.68698 0.97354 0.0
C399 C 0.38536 0.69545 0.9556 0.0
C400 C 0.44663 0.67172 0.91397 0.0
C401 C 0.47882 0.70586 0.90515 0.0
N402 N 0.48739 0.70704 0.92292 0.0
C403 C 0.4558 0.67326 0.93214 0.0
C404 C 0.45827 0.68811 0.90033 0.0
C405 C 0.47641 0.69124 0.93638 0.0
C406 C 0.42554 0.61412 0.94032 0.0
N407 N 0.41039 0.61971 0.94564 0.0
C408 C 0.40697 0.60368 0.97663 0.0
C409 C 0.40089 0.61457 0.96331 0.0
C410 C 0.42289 0.598 0.97163 0.0
C411 C 0.43214 0.6033 0.95316 0.0
H412 H 0.43248 0.61808 0.92601 0.0
H413 H 0.38856 0.61886 0.96702 0.0
C414 C 0.41171 0.70763 0.90111 0.0
N415 N 0.41906 0.69763 0.91337 0.0
C416 C 0.41973 0.73023 0.90235 0.0
C417 C 0.44278 0.73195 0.92881 0.0
C418 C 0.43418 0.70932 0.92717 0.0
C419 C 0.43551 0.74269 0.91632 0.0
H420 H 0.39937 0.69801 0.8905 0.0
H421 H 0.43931 0.70107 0.93719 0.0
C422 C 0.36864 0.59214 0.91537 0.0
N423 N 0.342 0.55201 0.93268 0.0
C424 C 0.36675 0.57299 0.90749 0.0
C425 C 0.35701 0.5909 0.93206 0.0
C426 C 0.35318 0.55285 0.91645 0.0
C427 C 0.34363 0.57046 0.94059 0.0
C428 C 0.38725 0.65566 0.86915 0.0
C429 C 0.36934 0.64077 0.85811 0.0
C430 C 0.40631 0.67166 0.86005 0.0
C431 C 0.37088 0.642 0.83809 0.0
C432 C 0.40721 0.67234 0.84 0.0
N433 N 0.38963 0.6576 0.82952 0.0
C434 C 0.32899 0.62677 0.9205 0.0
C435 C 0.32757 0.60219 0.8965 0.0
C436 C 0.30621 0.61773 0.91962 0.0
N437 N 0.33919 0.61916 0.9088 0.0
C438 C 0.30476 0.5926 0.89519 0.0
C439 C 0.29381 0.60056 0.90668 0.0
H440 H 0.33852 0.63995 0.93044 0.0
H441 H 0.3361 0.59632 0.88749 0.0
C442 C 0.43233 0.63951 0.86294 0.0
N443 N 0.41098 0.62866 0.86864 0.0
C444 C 0.43919 0.63157 0.84763 0.0
C445 C 0.40187 0.60162 0.84416 0.0
C446 C 0.39574 0.61017 0.85953 0.0
C447 C 0.42394 0.61217 0.83821 0.0
H448 H 0.44416 0.654 0.87059 0.0
H449 H 0.37893 0.60171 0.86459 0.0
O450 O 0.38581 0.64844 0.93326 0.0
O451 O 0.42652 0.65415 0.9095 0.0
O452 O 0.38197 0.61197 0.90679 0.0
O453 O 0.38632 0.65435 0.88877 0.0
H454 H 0.41242 0.66 0.96334 0.0
H455 H 0.36972 0.67536 0.93078 0.0
H456 H 0.42006 0.69064 0.9855 0.0
H457 H 0.37814 0.70574 0.95352 0.0
H458 H 0.48793 0.71872 0.89477 0.0
H459 H 0.44702 0.66088 0.94295 0.0
H460 H 0.45143 0.6873 0.88624 0.0
H461 H 0.48365 0.69268 0.95041 0.0
H462 H 0.39952 0.60002 0.99076 0.0
H463 H 0.44417 0.59891 0.94858 0.0
H464 H 0.4137 0.73787 0.89243 0.0
H465 H 0.45457 0.74086 0.94006 0.0
H466 H 0.37569 0.5737 0.89459 0.0
H467 H 0.35832 0.60555 0.93841 0.0
H468 H 0.35156 0.53788 0.91051 0.0
H469 H 0.33454 0.56926 0.95352 0.0
H470 H 0.35447 0.62832 0.86491 0.0
H471 H 0.4203 0.68331 0.86839 0.0
H472 H 0.35718 0.63051 0.82936 0.0
H473 H 0.4219 0.68455 0.83276 0.0
H474 H 0.29841 0.62412 0.92896 0.0
H475 H 0.29589 0.57952 0.88491 0.0
H476 H 0.4563 0.64039 0.84338 0.0
H477 H 0.38961 0.58648 0.83751 0.0
Li478 Li 0.75107 0.39831 0.07707 0.0
Li479 Li 0.77853 0.39332 0.09387 0.0
Li480 Li 0.78037 0.39654 0.05871 0.0
Li481 Li 0.75218 0.36374 0.07468 0.0
C482 C 0.78864 0.4381 0.06886 0.0
N483 N 0.79985 0.47697 0.05014 0.0
C484 C 0.80572 0.45797 0.07585 0.0
C485 C 0.77726 0.43798 0.05234 0.0
C486 C 0.81114 0.47746 0.06619 0.0
C487 C 0.78317 0.45781 0.04309 0.0
C488 C 0.74569 0.37654 0.11709 0.0
C489 C 0.74576 0.35982 0.14733 0.0
N490 N 0.74643 0.37709 0.15678 0.0
C491 C 0.74622 0.39403 0.12709 0.0
C492 C 0.74532 0.35921 0.12726 0.0
C493 C 0.74665 0.39404 0.14716 0.0
C494 C 0.71203 0.39942 0.07088 0.0
N495 N 0.7325 0.4108 0.07857 0.0
C496 C 0.72548 0.43892 0.08961 0.0
C497 C 0.73945 0.43024 0.08776 0.0
C498 C 0.70412 0.42748 0.08189 0.0
C499 C 0.69757 0.40755 0.07226 0.0
H500 H 0.70683 0.38386 0.06391 0.0
H501 H 0.75572 0.43882 0.09401 0.0
C502 C 0.80643 0.39077 0.12224 0.0
N503 N 0.79697 0.40242 0.11601 0.0
C504 C 0.82178 0.39882 0.13716 0.0
C505 C 0.81705 0.43053 0.13921 0.0
C506 C 0.80184 0.42188 0.12422 0.0
C507 C 0.8275 0.41911 0.14567 0.0
H508 H 0.80254 0.37551 0.11536 0.0
H509 H 0.79427 0.43095 0.11879 0.0
C510 C 0.74126 0.36818 0.0371 0.0
N511 N 0.72699 0.34233 0.00445 0.0
C512 C 0.75455 0.36115 0.02835 0.0
C513 C 0.7207 0.36208 0.02921 0.0
C514 C 0.74707 0.3481 0.01187 0.0
C515 C 0.71378 0.349 0.01271 0.0
C516 C 0.78795 0.35856 0.07379 0.0
C517 C 0.79883 0.35638 0.05786 0.0
C518 C 0.78052 0.34272 0.08832 0.0
C519 C 0.80186 0.33824 0.05663 0.0
C520 C 0.78386 0.3248 0.08656 0.0
N521 N 0.79436 0.32294 0.07088 0.0
C522 C 0.82204 0.4154 0.04297 0.0
C523 C 0.79536 0.41193 0.02023 0.0
C524 C 0.83852 0.42434 0.02907 0.0
N525 N 0.80094 0.40911 0.03828 0.0
C526 C 0.81132 0.42067 0.0058 0.0
C527 C 0.8332 0.42683 0.01014 0.0
H528 H 0.82598 0.41313 0.05751 0.0
H529 H 0.77853 0.40723 0.01699 0.0
C530 C 0.71502 0.32311 0.08384 0.0
N531 N 0.73335 0.33246 0.07267 0.0
C532 C 0.70024 0.30053 0.08284 0.0
C533 C 0.72344 0.29754 0.05885 0.0
C534 C 0.73768 0.32016 0.06024 0.0
C535 C 0.70437 0.28743 0.07021 0.0
H536 H 0.7118 0.33324 0.09347 0.0
H537 H 0.75216 0.32783 0.05131 0.0
O538 O 0.78326 0.41891 0.07817 0.0
O539 O 0.74586 0.37654 0.09745 0.0
O540 O 0.74823 0.38089 0.05333 0.0
O541 O 0.78477 0.3762 0.07518 0.0
H542 H 0.81471 0.45832 0.0886 0.0
H543 H 0.76399 0.42278 0.04669 0.0
H544 H 0.82433 0.49297 0.07144 0.0
H545 H 0.77451 0.45796 0.03029 0.0
H546 H 0.74556 0.34657 0.15539 0.0
H547 H 0.74659 0.4076 0.11944 0.0
H548 H 0.7447 0.34545 0.11975 0.0
H549 H 0.74723 0.40755 0.15509 0.0
H550 H 0.73116 0.45411 0.09746 0.0
H551 H 0.68139 0.39825 0.06589 0.0
H552 H 0.82924 0.38935 0.14184 0.0
H553 H 0.82115 0.44635 0.14519 0.0
H554 H 0.77042 0.36557 0.03429 0.0
H555 H 0.71016 0.36738 0.03572 0.0
H556 H 0.75721 0.34251 0.00501 0.0
H557 H 0.69789 0.34416 0.00647 0.0
H558 H 0.80483 0.36852 0.04652 0.0
H559 H 0.77198 0.34406 0.10069 0.0
H560 H 0.81017 0.33631 0.04435 0.0
H561 H 0.77804 0.31234 0.09763 0.0
H562 H 0.85512 0.42869 0.03299 0.0
H563 H 0.80661 0.42259 0.99143 0.0
H564 H 0.68579 0.29339 0.09192 0.0
H565 H 0.72709 0.28814 0.04868 0.0
Li566 Li 0.40089 0.78103 0.26155 0.0
Li567 Li 0.36741 0.75311 0.24535 0.0
Li568 Li 0.40318 0.75284 0.24192 0.0
Li569 Li 0.39723 0.78043 0.22577 0.0
C570 C 0.38536 0.74278 0.28411 0.0
N571 N 0.38548 0.73065 0.3219 0.0
C572 C 0.36827 0.73934 0.29649 0.0
C573 C 0.40226 0.73955 0.29089 0.0
C574 C 0.36869 0.73337 0.31556 0.0
C575 C 0.4021 0.73355 0.31005 0.0
C576 C 0.36275 0.78926 0.24614 0.0
C577 C 0.33006 0.78618 0.23182 0.0
N578 N 0.32722 0.79596 0.24756 0.0
C579 C 0.35962 0.79947 0.2621 0.0
C580 C 0.34795 0.78274 0.23081 0.0
C581 C 0.34153 0.80265 0.26257 0.0
C582 C 0.43199 0.81836 0.28253 0.0
N583 N 0.41157 0.80029 0.28323 0.0
C584 C 0.40419 0.81234 0.31299 0.0
C585 C 0.39773 0.79701 0.29812 0.0
C586 C 0.42515 0.83113 0.31258 0.0
C587 C 0.43929 0.8339 0.29728 0.0
H588 H 0.44238 0.8212 0.27019 0.0
H589 H 0.38128 0.78305 0.298 0.0
C590 C 0.32513 0.71698 0.23679 0.0
N591 N 0.33634 0.7349 0.24825 0.0
C592 C 0.30261 0.70281 0.23952 0.0
C593 C 0.3036 0.72592 0.26565 0.0
C594 C 0.32602 0.73962 0.2624 0.0
C595 C 0.29163 0.70705 0.25431 0.0
H596 H 0.33378 0.71342 0.22581 0.0
H597 H 0.33529 0.75382 0.27144 0.0
C598 C 0.44418 0.79083 0.24555 0.0
N599 N 0.48693 0.80167 0.25375 0.0
C600 C 0.46075 0.80172 0.23189 0.0
C601 C 0.44945 0.78576 0.26347 0.0
C602 C 0.48224 0.80697 0.23628 0.0
C603 C 0.47112 0.7913 0.26733 0.0
C604 C 0.37836 0.74568 0.20248 0.0
C605 C 0.39413 0.74409 0.19149 0.0
C606 C 0.36025 0.74492 0.1934 0.0
C607 C 0.39178 0.74223 0.17153 0.0
C608 C 0.35847 0.74303 0.17341 0.0
N609 N 0.37416 0.74176 0.16298 0.0
C610 C 0.40654 0.71458 0.24775 0.0
C611 C 0.43395 0.7416 0.22766 0.0
C612 C 0.41499 0.70053 0.24478 0.0
N613 N 0.41607 0.73466 0.23918 0.0
C614 C 0.44284 0.72808 0.22422 0.0
C615 C 0.43319 0.70713 0.23263 0.0
H616 H 0.39208 0.70929 0.25657 0.0
H617 H 0.44093 0.75737 0.22064 0.0
C618 C 0.39744 0.8128 0.201 0.0
N619 N 0.40555 0.79904 0.2038 0.0
C620 C 0.40557 0.82825 0.18617 0.0
C621 C 0.43017 0.81503 0.17732 0.0
C622 C 0.42142 0.79971 0.19219 0.0
C623 C 0.42246 0.82977 0.17436 0.0
H624 H 0.38525 0.81237 0.21068 0.0
H625 H 0.42777 0.78877 0.19487 0.0
O626 O 0.38507 0.74842 0.26531 0.0
O627 O 0.38019 0.78569 0.24556 0.0
O628 O 0.42297 0.78525 0.24139 0.0
O629 O 0.38052 0.74774 0.22204 0.0
H630 H 0.35488 0.74142 0.29149 0.0
H631 H 0.4153 0.74142 0.28145 0.0
H632 H 0.35566 0.73087 0.32531 0.0
H633 H 0.41515 0.7311 0.31547 0.0
H634 H 0.31843 0.78109 0.22008 0.0
H635 H 0.37102 0.80492 0.27399 0.0
H636 H 0.35028 0.77509 0.21827 0.0
H637 H 0.33887 0.81044 0.27487 0.0
H638 H 0.39279 0.80976 0.32453 0.0
H639 H 0.45542 0.84841 0.29631 0.0
H640 H 0.29406 0.6883 0.2306 0.0
H641 H 0.29576 0.72994 0.27709 0.0
H642 H 0.45709 0.80603 0.21802 0.0
H643 H 0.43701 0.778 0.27439 0.0
H644 H 0.49518 0.81528 0.22579 0.0
H645 H 0.47539 0.78744 0.28116 0.0
H646 H 0.40817 0.74452 0.19825 0.0
H647 H 0.34761 0.74562 0.20167 0.0
H648 H 0.40398 0.74117 0.16285 0.0
H649 H 0.34457 0.74249 0.1662 0.0
H650 H 0.40687 0.68439 0.25133 0.0
H651 H 0.45695 0.73386 0.21483 0.0
H652 H 0.39938 0.8395 0.18449 0.0
H653 H 0.44307 0.81557 0.16842 0.0
C654 C 0.09575 0.58295 0.29481 0.0
C655 C 0.09488 0.58284 0.31501 0.0
C656 C 0.11602 0.5947 0.28527 0.0
C657 C 0.17486 0.61596 0.29381 0.0
H658 H 0.1861 0.65819 0.25332 0.0
C659 C 0.26146 0.68574 0.27788 0.0
C660 C 0.26819 0.69131 0.25871 0.0
C661 C 0.23962 0.67077 0.28228 0.0
C662 C 0.18312 0.64618 0.26439 0.0
H663 H 0.11432 0.5963 0.3409 0.0
H664 H 0.14926 0.61624 0.32442 0.0
H665 H 0.14849 0.63482 0.26519 0.0
H666 H 0.25716 0.68561 0.22908 0.0
H667 H 0.21871 0.65923 0.23684 0.0
H668 H 0.20933 0.62747 0.29345 0.0
C669 C 0.13452 0.60687 0.31593 0.0
C670 C 0.16162 0.63283 0.27115 0.0
C671 C 0.11446 0.59537 0.32537 0.0
C672 C 0.25248 0.68154 0.24399 0.0
C673 C 0.23048 0.66659 0.24843 0.0
C674 C 0.19621 0.62919 0.28707 0.0
C675 C 0.13562 0.60639 0.29582 0.0
C676 C 0.15744 0.6181 0.28636 0.0
C677 C 0.22387 0.66093 0.26764 0.0
C678 C 0.20072 0.64494 0.27272 0.0
H679 H 0.08091 0.57355 0.28646 0.0
H680 H 0.11643 0.59419 0.26973 0.0
H681 H 0.17204 0.60441 0.30528 0.0
H682 H 0.27318 0.69274 0.28955 0.0
H683 H 0.23501 0.66701 0.29724 0.0
C684 C 0.50542 0.10031 0.46726 0.0
C685 C 0.51945 0.09262 0.47323 0.0
C686 C 0.51383 0.12035 0.45752 0.0
C687 C 0.56626 0.17261 0.45305 0.0
H688 H 0.5339 0.18705 0.41635 0.0
C689 C 0.6028 0.25941 0.42091 0.0
C690 C 0.58899 0.26853 0.42081 0.0
C691 C 0.59435 0.2371 0.42479 0.0
C692 C 0.54308 0.18325 0.42665 0.0
H693 H 0.55287 0.09883 0.47241 0.0
H694 H 0.56748 0.13338 0.45483 0.0
H695 H 0.51913 0.14892 0.42653 0.0
H696 H 0.5553 0.26117 0.42412 0.0
H697 H 0.54055 0.2222 0.43108 0.0
H698 H 0.59008 0.20687 0.45332 0.0
C699 C 0.55011 0.12439 0.45818 0.0
C700 C 0.53462 0.16141 0.43249 0.0
C701 C 0.54174 0.1045 0.46808 0.0
C702 C 0.56641 0.25469 0.42428 0.0
C703 C 0.55792 0.23233 0.42806 0.0
C704 C 0.57474 0.19434 0.44713 0.0
C705 C 0.53644 0.133 0.45344 0.0
C706 C 0.54602 0.15584 0.44591 0.0
C707 C 0.57185 0.22334 0.42859 0.0
C708 C 0.56317 0.19997 0.43401 0.0
H709 H 0.48821 0.09159 0.47125 0.0
H710 H 0.50281 0.12649 0.45425 0.0
H711 H 0.57528 0.16911 0.46374 0.0
H712 H 0.6203 0.26963 0.41846 0.0
H713 H 0.60547 0.23064 0.42493 0.0
C714 C 0.42455 0.50606 0.62472 0.0
C715 C 0.44599 0.51987 0.63149 0.0
C716 C 0.41348 0.51481 0.61458 0.0
C717 C 0.41418 0.56748 0.61049 0.0
H718 H 0.3684 0.53613 0.5727 0.0
C719 C 0.36412 0.60459 0.57922 0.0
C720 C 0.3412 0.59063 0.57897 0.0
C721 C 0.37809 0.59616 0.58259 0.0
C722 C 0.38111 0.54504 0.58329 0.0
H723 H 0.47336 0.55321 0.63165 0.0
H724 H 0.45444 0.56841 0.61332 0.0
H725 H 0.39147 0.52108 0.58303 0.0
H726 H 0.31505 0.55673 0.58127 0.0
H727 H 0.33947 0.54203 0.58736 0.0
H728 H 0.40371 0.59126 0.61095 0.0
C729 C 0.44582 0.55096 0.61636 0.0
C730 C 0.39432 0.53642 0.58922 0.0
C731 C 0.45676 0.54226 0.62668 0.0
C732 C 0.33262 0.56795 0.58159 0.0
C733 C 0.34661 0.55949 0.58486 0.0
C734 C 0.40111 0.57613 0.60448 0.0
C735 C 0.42373 0.53752 0.61087 0.0
C736 C 0.41088 0.54742 0.60308 0.0
C737 C 0.3695 0.57356 0.58571 0.0
C738 C 0.38425 0.5649 0.59098 0.0
H739 H 0.4158 0.48878 0.62844 0.0
H740 H 0.39646 0.50395 0.61073 0.0
H741 H 0.42637 0.5762 0.62151 0.0
H742 H 0.37127 0.62216 0.57741 0.0
H743 H 0.39566 0.6074 0.58297 0.0
C744 C 0.9406 0.43192 0.79625 0.0
C745 C 0.94817 0.4527 0.80457 0.0
C746 C 0.92075 0.42163 0.7861 0.0
C747 C 0.86837 0.42128 0.78554 0.0
H748 H 0.85436 0.38071 0.74307 0.0
C749 C 0.78032 0.37209 0.75585 0.0
C750 C 0.77231 0.34965 0.75227 0.0
C751 C 0.80268 0.38635 0.75925 0.0
C752 C 0.85801 0.39191 0.755 0.0
H753 H 0.94199 0.47982 0.80735 0.0
H754 H 0.90758 0.4621 0.78932 0.0
H755 H 0.89254 0.40333 0.75342 0.0
H756 H 0.78177 0.32484 0.74875 0.0
H757 H 0.82067 0.34959 0.75517 0.0
H758 H 0.83393 0.40957 0.78753 0.0
C759 C 0.91663 0.45347 0.79106 0.0
C760 C 0.87988 0.4049 0.7609 0.0
C761 C 0.9364 0.46369 0.80127 0.0
C762 C 0.78732 0.34196 0.75171 0.0
C763 C 0.80969 0.35622 0.75514 0.0
C764 C 0.84657 0.40834 0.77966 0.0
C765 C 0.90813 0.43196 0.78402 0.0
C766 C 0.88529 0.41957 0.77639 0.0
C767 C 0.8176 0.37853 0.75921 0.0
C768 C 0.84106 0.39331 0.76446 0.0
H769 H 0.9492 0.42296 0.79873 0.0
H770 H 0.91465 0.40502 0.78098 0.0
H771 H 0.87183 0.43203 0.79779 0.0
H772 H 0.76924 0.37858 0.75656 0.0
H773 H 0.80824 0.40349 0.7621 0.0
C774 C 0.52568 0.93509 0.96077 0.0
C775 C 0.51191 0.94267 0.9677 0.0
C776 C 0.51687 0.91513 0.95089 0.0
C777 C 0.46437 0.86273 0.94762 0.0
H778 H 0.49612 0.8483 0.91028 0.0
C779 C 0.42936 0.77489 0.9178 0.0
C780 C 0.44389 0.76663 0.91831 0.0
C781 C 0.43707 0.79726 0.92077 0.0
C782 C 0.48709 0.85211 0.92072 0.0
H783 H 0.47845 0.93635 0.96843 0.0
H784 H 0.46309 0.90191 0.95054 0.0
H785 H 0.51051 0.88655 0.91982 0.0
H786 H 0.478 0.77543 0.92162 0.0
H787 H 0.49147 0.8145 0.92685 0.0
H788 H 0.44109 0.82831 0.94864 0.0
C789 C 0.4806 0.91094 0.95325 0.0
C790 C 0.49533 0.87401 0.92622 0.0
C791 C 0.48939 0.93076 0.96334 0.0
C792 C 0.46638 0.7813 0.92132 0.0
C793 C 0.47413 0.80369 0.92412 0.0
C794 C 0.45606 0.84091 0.942 0.0
C795 C 0.49409 0.90242 0.94757 0.0
C796 C 0.48427 0.87957 0.94 0.0
C797 C 0.45951 0.81187 0.92413 0.0
C798 C 0.4675 0.83531 0.92873 0.0
H799 H 0.54306 0.94382 0.96415 0.0
H800 H 0.52778 0.90907 0.94693 0.0
H801 H 0.45559 0.86621 0.95856 0.0
H802 H 0.41191 0.76397 0.91565 0.0
H803 H 0.42544 0.8031 0.92058 0.0
C804 C 0.56895 0.47999 0.13031 0.0
C805 C 0.57886 0.50251 0.13452 0.0
C806 C 0.58069 0.47166 0.12075 0.0
C807 C 0.63156 0.48643 0.09324 0.0
H808 H 0.62741 0.43584 0.1195 0.0
C809 C 0.69589 0.45846 0.08404 0.0
C810 C 0.68852 0.43581 0.08457 0.0
C811 C 0.68139 0.46626 0.08761 0.0
C812 C 0.62853 0.44971 0.11173 0.0
H813 H 0.60836 0.53416 0.13091 0.0
H814 H 0.62889 0.51962 0.11417 0.0
H815 H 0.60361 0.44994 0.1291 0.0
H816 H 0.65988 0.40361 0.08903 0.0
H817 H 0.63458 0.4171 0.09458 0.0
H818 H 0.65677 0.4863 0.07602 0.0
C819 C 0.61199 0.5084 0.11816 0.0
C820 C 0.61484 0.45781 0.11725 0.0
C821 C 0.60021 0.51675 0.12772 0.0
C822 C 0.66616 0.42114 0.08828 0.0
C823 C 0.65166 0.42891 0.09174 0.0
C824 C 0.64524 0.47824 0.08764 0.0
C825 C 0.60263 0.48565 0.11521 0.0
C826 C 0.61626 0.47635 0.10818 0.0
C827 C 0.65914 0.45158 0.09174 0.0
C828 C 0.644 0.45986 0.09692 0.0
H829 H 0.5524 0.46867 0.13516 0.0
H830 H 0.57283 0.45411 0.11831 0.0
H831 H 0.63294 0.50065 0.08589 0.0
H832 H 0.71292 0.47024 0.08096 0.0
H833 H 0.68779 0.48383 0.08764 0.0
C834 C 0.46068 0.93269 0.52214 0.0
C835 C 0.44978 0.94443 0.51832 0.0
C836 C 0.44997 0.91265 0.53193 0.0
C837 C 0.39865 0.87467 0.55902 0.0
H838 H 0.40774 0.82988 0.53539 0.0
C839 C 0.33556 0.78169 0.56247 0.0
C840 C 0.34357 0.76715 0.5652 0.0
C841 C 0.35006 0.80417 0.55997 0.0
C842 C 0.40523 0.84223 0.54237 0.0
H843 H 0.41956 0.94501 0.52254 0.0
H844 H 0.40066 0.90992 0.53925 0.0
H845 H 0.43077 0.86805 0.52603 0.0
H846 H 0.37307 0.76478 0.56763 0.0
H847 H 0.39842 0.80408 0.56315 0.0
H848 H 0.37235 0.84844 0.57471 0.0
C849 C 0.41762 0.91626 0.5351 0.0
C850 C 0.41852 0.8642 0.53706 0.0
C851 C 0.42845 0.93644 0.52551 0.0
C852 C 0.36641 0.77561 0.56568 0.0
C853 C 0.38091 0.79806 0.56299 0.0
C854 C 0.3852 0.85262 0.56419 0.0
C855 C 0.42798 0.90374 0.53786 0.0
C856 C 0.41525 0.88072 0.54512 0.0
C857 C 0.37289 0.81256 0.55995 0.0
C858 C 0.38817 0.83614 0.55572 0.0
H859 H 0.47719 0.93858 0.51683 0.0
H860 H 0.45868 0.90377 0.53423 0.0
H861 H 0.39586 0.88694 0.56577 0.0
H862 H 0.31804 0.77567 0.5622 0.0
H863 H 0.34337 0.8149 0.55748 0.0
C864 C 0.53261 0.43533 0.66221 0.0
C865 C 0.52379 0.44684 0.67173 0.0
C866 C 0.54209 0.42524 0.67249 0.0
C867 C 0.54241 0.39904 0.71653 0.0
H868 H 0.60045 0.41283 0.69935 0.0
C869 C 0.58701 0.35306 0.74417 0.0
C870 C 0.59657 0.34674 0.72956 0.0
C871 C 0.57914 0.36745 0.74018 0.0
C872 C 0.58424 0.40875 0.70432 0.0
H873 H 0.51692 0.4556 0.69971 0.0
H874 H 0.53318 0.43713 0.7179 0.0
H875 H 0.58414 0.43388 0.68706 0.0
H876 H 0.60583 0.35103 0.69947 0.0
H877 H 0.59186 0.37561 0.69248 0.0
H878 H 0.54209 0.3731 0.73305 0.0
C879 C 0.53301 0.43651 0.70235 0.0
C880 C 0.57498 0.42089 0.69737 0.0
C881 C 0.5237 0.44699 0.69196 0.0
C882 C 0.5983 0.35531 0.711 0.0
C883 C 0.59055 0.36967 0.70706 0.0
C884 C 0.55166 0.38671 0.72343 0.0
C885 C 0.5427 0.42596 0.69261 0.0
C886 C 0.55372 0.41571 0.70291 0.0
C887 C 0.5809 0.37597 0.72157 0.0
C888 C 0.57238 0.39098 0.71685 0.0
H889 H 0.53224 0.4341 0.64669 0.0
H890 H 0.54895 0.41674 0.66466 0.0
H891 H 0.52595 0.3947 0.72094 0.0
H892 H 0.58534 0.34663 0.7586 0.0
H893 H 0.57184 0.37204 0.75168 0.0
C894 C 0.10606 0.54428 0.85689 0.0
C895 C 0.09432 0.52182 0.85233 0.0
C896 C 0.12567 0.55303 0.86727 0.0
C897 C 0.16233 0.53855 0.89496 0.0
H898 H 0.20815 0.59274 0.87257 0.0
C899 C 0.25535 0.56893 0.90224 0.0
C900 C 0.26975 0.5916 0.9046 0.0
C901 C 0.23292 0.56074 0.89907 0.0
C902 C 0.19552 0.57779 0.87922 0.0
H903 H 0.09319 0.49068 0.85592 0.0
H904 H 0.12761 0.50592 0.87373 0.0
H905 H 0.17042 0.5779 0.86208 0.0
H906 H 0.27177 0.6234 0.90577 0.0
H907 H 0.23265 0.60909 0.90038 0.0
H908 H 0.18786 0.53819 0.91158 0.0
C909 C 0.12157 0.51681 0.86964 0.0
C910 C 0.17379 0.56928 0.87326 0.0
C911 C 0.1018 0.50802 0.85943 0.0
C912 C 0.26111 0.60583 0.90417 0.0
C913 C 0.23873 0.59766 0.9009 0.0
C914 C 0.18416 0.54703 0.90085 0.0
C915 C 0.13416 0.53956 0.87308 0.0
C916 C 0.15691 0.54944 0.88089 0.0
C917 C 0.22442 0.57506 0.89806 0.0
C918 C 0.20102 0.56664 0.89289 0.0
H919 H 0.10054 0.55524 0.85167 0.0
H920 H 0.13461 0.57053 0.87009 0.0
H921 H 0.14975 0.52338 0.90133 0.0
H922 H 0.26145 0.55751 0.9027 0.0
H923 H 0.22236 0.54326 0.89679 0.0
C924 C 0.60406 0.09619 0.02366 0.0
C925 C 0.58309 0.08875 0.01581 0.0
C926 C 0.61451 0.11578 0.03416 0.0
C927 C 0.61411 0.16788 0.03727 0.0
H928 H 0.65791 0.18145 0.07684 0.0
C929 C 0.66591 0.2555 0.06759 0.0
C930 C 0.68865 0.26348 0.0684 0.0
C931 C 0.65121 0.23315 0.06455 0.0
C932 C 0.64573 0.17789 0.06578 0.0
H933 H 0.55584 0.09483 0.01414 0.0
H934 H 0.57372 0.12864 0.033 0.0
H935 H 0.63459 0.14341 0.06645 0.0
H936 H 0.71372 0.25413 0.06752 0.0
H937 H 0.6881 0.21516 0.06203 0.0
H938 H 0.62547 0.20233 0.03635 0.0
C939 C 0.58243 0.11978 0.03056 0.0
C940 C 0.63238 0.15611 0.05981 0.0
C941 C 0.57209 0.10033 0.01991 0.0
C942 C 0.69631 0.24852 0.06674 0.0
C943 C 0.68161 0.22616 0.06381 0.0
C944 C 0.62734 0.18958 0.04331 0.0
C945 C 0.60413 0.12823 0.03714 0.0
C946 C 0.61664 0.15087 0.04523 0.0
C947 C 0.65892 0.21827 0.06238 0.0
C948 C 0.64356 0.1949 0.05739 0.0
H949 H 0.61302 0.08773 0.02052 0.0
H950 H 0.63126 0.12181 0.03883 0.0
H951 H 0.60253 0.16464 0.02573 0.0
H952 H 0.65949 0.26661 0.06869 0.0
H953 H 0.63381 0.22755 0.06368 0.0
C954 C 0.50153 0.5978 0.15971 0.0
C955 C 0.50632 0.58361 0.17017 0.0
C956 C 0.4932 0.60967 0.16884 0.0
C957 C 0.48769 0.63182 0.21479 0.0
H958 H 0.44015 0.63329 0.18775 0.0
C959 C 0.44374 0.67893 0.24184 0.0
C960 C 0.44123 0.69181 0.22769 0.0
C961 C 0.45101 0.6643 0.23684 0.0
C962 C 0.45344 0.63309 0.19546 0.0
H963 H 0.50722 0.57164 0.19864 0.0
H964 H 0.49249 0.59269 0.21485 0.0
H965 H 0.45431 0.61029 0.17571 0.0
H966 H 0.44409 0.69922 0.19722 0.0
H967 H 0.45678 0.67391 0.18856 0.0
H968 H 0.4869 0.65502 0.2344 0.0
C969 C 0.49514 0.59438 0.19946 0.0
C970 C 0.46156 0.61993 0.18857 0.0
C971 C 0.50354 0.58237 0.19023 0.0
C972 C 0.44609 0.68974 0.2085 0.0
C973 C 0.45314 0.67505 0.2035 0.0
C974 C 0.47947 0.64503 0.22175 0.0
C975 C 0.48943 0.60778 0.18874 0.0
C976 C 0.4792 0.61962 0.19779 0.0
C977 C 0.45557 0.66208 0.21757 0.0
C978 C 0.46268 0.64625 0.21181 0.0
H979 H 0.5041 0.59961 0.14431 0.0
H980 H 0.4896 0.62034 0.16024 0.0
H981 H 0.50129 0.63192 0.22219 0.0
H982 H 0.44021 0.68028 0.25677 0.0
H983 H 0.45269 0.65447 0.24796 0.0
C984 C 0.93011 0.48305 0.356 0.0
C985 C 0.94223 0.50558 0.35175 0.0
C986 C 0.91007 0.47432 0.36569 0.0
C987 C 0.8618 0.45873 0.36916 0.0
H988 H 0.8459 0.48968 0.4061 0.0
C989 C 0.77281 0.43959 0.37765 0.0
C990 C 0.76486 0.43988 0.39611 0.0
C991 C 0.79501 0.44664 0.37473 0.0
C992 C 0.85009 0.48066 0.39596 0.0
H993 H 0.94363 0.53685 0.35527 0.0
H994 H 0.90847 0.52165 0.37187 0.0
H995 H 0.88457 0.50359 0.3985 0.0
H996 H 0.77413 0.4479 0.42601 0.0
H997 H 0.81295 0.45989 0.42095 0.0
H998 H 0.82744 0.43579 0.36663 0.0
C999 C 0.91452 0.51069 0.36807 0.0
C1000 C 0.87225 0.48876 0.39146 0.0
C1001 C 0.93471 0.51945 0.35855 0.0
C1002 C 0.77969 0.44731 0.41163 0.0
C1003 C 0.80197 0.45439 0.4087 0.0
C1004 C 0.83972 0.45062 0.3737 0.0
C1005 C 0.90154 0.48789 0.37108 0.0
C1006 C 0.87836 0.4781 0.37774 0.0
C1007 C 0.80988 0.4541 0.3902 0.0
C1008 C 0.83354 0.46173 0.38683 0.0
H1009 H 0.93566 0.47204 0.351 0.0
H1010 H 0.9008 0.45677 0.36821 0.0
H1011 H 0.86575 0.45019 0.35833 0.0
H1012 H 0.76182 0.43369 0.36541 0.0
H1013 H 0.80055 0.44649 0.36025 0.0
C1014 C 0.0684 0.52937 0.3764 0.0
C1015 C 0.05936 0.54314 0.37453 0.0
C1016 C 0.0779 0.5284 0.39374 0.0
C1017 C 0.088 0.54759 0.44476 0.0
H1018 H 0.1465 0.55772 0.43406 0.0
C1019 C 0.16086 0.5942 0.49661 0.0
C1020 C 0.17678 0.58774 0.49807 0.0
C1021 C 0.14373 0.5842 0.48333 0.0
C1022 C 0.13011 0.55449 0.43743 0.0
H1023 H 0.05133 0.56509 0.38971 0.0
H1024 H 0.06801 0.56356 0.41993 0.0
H1025 H 0.11983 0.54653 0.40826 0.0
H1026 H 0.18674 0.56517 0.48712 0.0
H1027 H 0.15683 0.54771 0.46387 0.0
H1028 H 0.09871 0.55639 0.47389 0.0
C1029 C 0.06765 0.55333 0.40814 0.0
C1030 C 0.11472 0.54799 0.4226 0.0
C1031 C 0.05801 0.55418 0.39082 0.0
C1032 C 0.17496 0.57078 0.48613 0.0
C1033 C 0.15779 0.56074 0.47285 0.0
C1034 C 0.10343 0.55411 0.45963 0.0
C1035 C 0.07871 0.54133 0.40948 0.0
C1036 C 0.09362 0.5449 0.42597 0.0
C1037 C 0.14207 0.56747 0.47117 0.0
C1038 C 0.12483 0.55811 0.45603 0.0
H1039 H 0.06951 0.52059 0.36405 0.0
H1040 H 0.0858 0.51856 0.39443 0.0
H1041 H 0.07182 0.54511 0.44789 0.0
H1042 H 0.16195 0.60742 0.50541 0.0
H1043 H 0.13219 0.5901 0.48217 0.0
C1044 C 0.54775 0.08118 0.54077 0.0
C1045 C 0.52477 0.06861 0.53892 0.0
C1046 C 0.55734 0.09143 0.55816 0.0
C1047 C 0.54293 0.11346 0.59994 0.0
H1048 H 0.60171 0.12961 0.61674 0.0
C1049 C 0.59372 0.18924 0.64703 0.0
C1050 C 0.60669 0.18798 0.66179 0.0
C1051 C 0.58345 0.1723 0.63363 0.0
C1052 C 0.58517 0.12505 0.6124 0.0
H1053 H 0.49397 0.05532 0.55444 0.0
H1054 H 0.51072 0.0725 0.58495 0.0
H1055 H 0.58387 0.10185 0.59172 0.0
H1056 H 0.61935 0.16801 0.67379 0.0
H1057 H 0.60104 0.1382 0.65056 0.0
H1058 H 0.54413 0.13654 0.62058 0.0
C1059 C 0.52132 0.07499 0.57278 0.0
C1060 C 0.57502 0.10927 0.59794 0.0
C1061 C 0.51172 0.06486 0.55534 0.0
C1062 C 0.60929 0.16941 0.66271 0.0
C1063 C 0.59897 0.15241 0.64929 0.0
C1064 C 0.55302 0.12913 0.6144 0.0
C1065 C 0.54416 0.0892 0.57416 0.0
C1066 C 0.55393 0.10361 0.59126 0.0
C1067 C 0.58578 0.15359 0.63468 0.0
C1068 C 0.57446 0.1355 0.6205 0.0
H1069 H 0.55829 0.08409 0.52846 0.0
H1070 H 0.57497 0.10225 0.55862 0.0
H1071 H 0.52682 0.10978 0.59504 0.0
H1072 H 0.59112 0.20315 0.64601 0.0
H1073 H 0.57373 0.17394 0.62237 0.0
C1074 C 0.45951 0.50957 0.71427 0.0
C1075 C 0.47071 0.52315 0.69856 0.0
C1076 C 0.45777 0.51871 0.73156 0.0
C1077 C 0.47793 0.57109 0.75858 0.0
H1078 H 0.41778 0.54296 0.77688 0.0
C1079 C 0.45102 0.60231 0.82463 0.0
C1080 C 0.43115 0.60246 0.82286 0.0
C1081 C 0.45739 0.59238 0.8106 0.0
C1082 C 0.43464 0.55105 0.77191 0.0
H1083 H 0.49053 0.55694 0.6892 0.0
H1084 H 0.48731 0.57288 0.71926 0.0
H1085 H 0.42754 0.52591 0.75123 0.0
H1086 H 0.40271 0.59278 0.80465 0.0
H1087 H 0.41381 0.57544 0.78019 0.0
H1088 H 0.48478 0.59665 0.77888 0.0
C1089 C 0.47987 0.5552 0.71829 0.0
C1090 C 0.44032 0.54111 0.7574 0.0
C1091 C 0.4816 0.54607 0.70101 0.0
C1092 C 0.41794 0.59266 0.80661 0.0
C1093 C 0.42429 0.5827 0.79261 0.0
C1094 C 0.47224 0.58102 0.77317 0.0
C1095 C 0.46721 0.54159 0.73351 0.0
C1096 C 0.46196 0.55113 0.75037 0.0
C1097 C 0.44401 0.5823 0.79451 0.0
C1098 C 0.45044 0.57128 0.77977 0.0
H1099 H 0.45085 0.49186 0.71281 0.0
H1100 H 0.44824 0.5078 0.74315 0.0
H1101 H 0.49477 0.57916 0.75356 0.0
H1102 H 0.46143 0.60939 0.83711 0.0
H1103 H 0.47256 0.59215 0.81258 0.0
C1104 C 0.97123 0.46152 0.88711 0.0
C1105 C 0.97049 0.47445 0.87205 0.0
C1106 C 0.9603 0.45967 0.90439 0.0
C1107 C 0.93132 0.48198 0.93315 0.0
H1108 H 0.89303 0.4208 0.94672 0.0
C1109 C 0.87147 0.45273 0.99842 0.0
C1110 C 0.85028 0.43494 0.99493 0.0
C1111 C 0.88792 0.45939 0.98448 0.0
C1112 C 0.9036 0.43796 0.94309 0.0
H1113 H 0.9595 0.49713 0.8639 0.0
H1114 H 0.94035 0.49386 0.89404 0.0
H1115 H 0.92042 0.43031 0.92159 0.0
H1116 H 0.82966 0.41034 0.97402 0.0
H1117 H 0.85832 0.42201 0.94966 0.0
H1118 H 0.91396 0.48947 0.95444 0.0
C1119 C 0.94932 0.48512 0.89252 0.0
C1120 C 0.9195 0.44345 0.92888 0.0
C1121 C 0.96017 0.48691 0.87522 0.0
C1122 C 0.84577 0.42421 0.97708 0.0
C1123 C 0.86224 0.43073 0.96322 0.0
C1124 C 0.91547 0.47648 0.94753 0.0
C1125 C 0.94851 0.47078 0.90698 0.0
C1126 C 0.93336 0.46548 0.92355 0.0
C1127 C 0.88356 0.44823 0.96685 0.0
C1128 C 0.90121 0.45437 0.9524 0.0
H1129 H 0.97892 0.45162 0.88507 0.0
H1130 H 0.96024 0.44875 0.9154 0.0
H1131 H 0.94181 0.4991 0.92939 0.0
H1132 H 0.87537 0.46143 0.01199 0.0
H1133 H 0.90421 0.47289 0.98768 0.0
C1134 C 0.52435 0.96699 0.04988 0.0
C1135 C 0.51047 0.96531 0.03465 0.0
C1136 C 0.51551 0.95625 0.06727 0.0
C1137 C 0.46464 0.92668 0.09626 0.0
H1138 H 0.48923 0.89012 0.11061 0.0
C1139 C 0.41995 0.85205 0.14729 0.0
C1140 C 0.43282 0.84736 0.15972 0.0
C1141 C 0.42989 0.86861 0.13345 0.0
C1142 C 0.48237 0.90047 0.1071 0.0
H1143 H 0.47657 0.95275 0.02623 0.0
H1144 H 0.4611 0.93397 0.05663 0.0
H1145 H 0.50613 0.91683 0.08497 0.0
H1146 H 0.46615 0.85688 0.16795 0.0
H1147 H 0.48351 0.88597 0.14414 0.0
H1148 H 0.44074 0.91015 0.11837 0.0
C1149 C 0.4788 0.94352 0.05513 0.0
C1150 C 0.4921 0.91582 0.09237 0.0
C1151 C 0.48764 0.95417 0.0377 0.0
C1152 C 0.45581 0.85983 0.1583 0.0
C1153 C 0.46574 0.8765 0.14463 0.0
C1154 C 0.45497 0.91141 0.11116 0.0
C1155 C 0.49263 0.94372 0.06981 0.0
C1156 C 0.48325 0.92897 0.08666 0.0
C1157 C 0.45293 0.88097 0.13188 0.0
C1158 C 0.46361 0.89795 0.11664 0.0
H1159 H 0.542 0.97531 0.04794 0.0
H1160 H 0.52657 0.95695 0.07845 0.0
H1161 H 0.45753 0.93667 0.09222 0.0
H1162 H 0.40218 0.84261 0.14803 0.0
H1163 H 0.41949 0.87135 0.12371 0.0
C1164 C 0.53518 0.47417 0.20103 0.0
C1165 C 0.54785 0.49714 0.19946 0.0
C1166 C 0.53461 0.46369 0.21825 0.0
C1167 C 0.55108 0.47302 0.26988 0.0
H1168 H 0.56272 0.42525 0.26134 0.0
C1169 C 0.59442 0.44729 0.32565 0.0
C1170 C 0.58766 0.42489 0.32768 0.0
C1171 C 0.58545 0.45434 0.31132 0.0
C1172 C 0.55908 0.43827 0.26406 0.0
H1173 H 0.56862 0.52725 0.21504 0.0
H1174 H 0.56776 0.50904 0.24506 0.0
H1175 H 0.55307 0.44066 0.23433 0.0
H1176 H 0.56575 0.39227 0.3165 0.0
H1177 H 0.55017 0.40462 0.29134 0.0
H1178 H 0.55787 0.47104 0.29959 0.0
C1179 C 0.55806 0.49905 0.23309 0.0
C1180 C 0.55348 0.4471 0.24855 0.0
C1181 C 0.55855 0.50953 0.21587 0.0
C1182 C 0.57154 0.40967 0.31514 0.0
C1183 C 0.56258 0.41674 0.30077 0.0
C1184 C 0.55672 0.46419 0.28541 0.0
C1185 C 0.54679 0.47597 0.23425 0.0
C1186 C 0.54983 0.46487 0.2512 0.0
C1187 C 0.56954 0.43918 0.29863 0.0
C1188 C 0.56122 0.44701 0.28261 0.0
H1189 H 0.52657 0.46424 0.18864 0.0
H1190 H 0.52536 0.44591 0.2188 0.0
H1191 H 0.54809 0.48649 0.27245 0.0
H1192 H 0.60707 0.45951 0.33484 0.0
H1193 H 0.59151 0.47178 0.30984 0.0
C1194 C 0.48492 0.95836 0.44744 0.0
C1195 C 0.47188 0.96788 0.45134 0.0
C1196 C 0.4827 0.9475 0.43003 0.0
C1197 C 0.43953 0.91461 0.39657 0.0
H1198 H 0.48537 0.91611 0.36454 0.0
C1199 C 0.41793 0.857 0.33155 0.0
C1200 C 0.43171 0.84845 0.32734 0.0
C1201 C 0.42418 0.87367 0.34516 0.0
C1202 C 0.47237 0.91527 0.37347 0.0
H1203 H 0.4473 0.97469 0.4397 0.0
H1204 H 0.44337 0.95563 0.40932 0.0
H1205 H 0.49507 0.94289 0.39048 0.0
H1206 H 0.46277 0.8505 0.33396 0.0
H1207 H 0.47334 0.87896 0.35844 0.0
H1208 H 0.41688 0.88647 0.38052 0.0
C1209 C 0.45529 0.9566 0.41972 0.0
C1210 C 0.47796 0.93074 0.38821 0.0
C1211 C 0.4577 0.96768 0.43701 0.0
C1212 C 0.45189 0.8569 0.33696 0.0
C1213 C 0.45799 0.87333 0.35085 0.0
C1214 C 0.43398 0.89897 0.3821 0.0
C1215 C 0.4672 0.94576 0.41636 0.0
C1216 C 0.46156 0.93053 0.39988 0.0
C1217 C 0.44419 0.88194 0.35517 0.0
C1218 C 0.45029 0.89903 0.37034 0.0
H1219 H 0.49596 0.95831 0.45827 0.0
H1220 H 0.49203 0.93923 0.42783 0.0
H1221 H 0.4266 0.91377 0.40563 0.0
H1222 H 0.40246 0.85103 0.32406 0.0
H1223 H 0.41333 0.88019 0.34768 0.0
C1224 C 0.51375 0.47022 0.59441 0.0
C1225 C 0.52591 0.4826 0.61033 0.0
C1226 C 0.52441 0.47063 0.57733 0.0
C1227 C 0.57809 0.47838 0.56367 0.0
H1228 H 0.55327 0.46598 0.51238 0.0
C1229 C 0.61917 0.45834 0.50121 0.0
C1230 C 0.60503 0.44047 0.48953 0.0
C1231 C 0.61069 0.46722 0.51435 0.0
C1232 C 0.56037 0.46937 0.52665 0.0
H1233 H 0.55826 0.50696 0.62027 0.0
H1234 H 0.57686 0.50824 0.59026 0.0
H1235 H 0.53635 0.4769 0.5375 0.0
H1236 H 0.57089 0.41829 0.4822 0.0
H1237 H 0.5561 0.43341 0.50544 0.0
H1238 H 0.60166 0.47024 0.55308 0.0
C1239 C 0.5592 0.4977 0.59111 0.0
C1240 C 0.55071 0.47568 0.54102 0.0
C1241 C 0.54855 0.49716 0.60821 0.0
C1242 C 0.58223 0.43183 0.49118 0.0
C1243 C 0.57376 0.44073 0.5043 0.0
C1244 C 0.58773 0.47211 0.54934 0.0
C1245 C 0.54742 0.48353 0.57585 0.0
C1246 C 0.55923 0.47988 0.5598 0.0
C1247 C 0.58787 0.45848 0.51609 0.0
C1248 C 0.57875 0.46711 0.53076 0.0
H1249 H 0.49631 0.45869 0.59574 0.0
H1250 H 0.51482 0.45945 0.56592 0.0
H1251 H 0.58485 0.48101 0.57805 0.0
H1252 H 0.63681 0.4653 0.50038 0.0
H1253 H 0.62202 0.48099 0.52313 0.0
C1254 C 0.07116 0.51079 0.76939 0.0
C1255 C 0.07329 0.52443 0.78497 0.0
C1256 C 0.08209 0.51987 0.7521 0.0
C1257 C 0.11396 0.57209 0.72481 0.0
H1258 H 0.14649 0.54434 0.70695 0.0
C1259 C 0.17204 0.60312 0.6587 0.0
C1260 C 0.19215 0.60348 0.66054 0.0
C1261 C 0.15578 0.59324 0.67278 0.0
C1262 C 0.13759 0.55234 0.7118 0.0
H1263 H 0.08688 0.55825 0.7941 0.0
H1264 H 0.10615 0.5741 0.76406 0.0
H1265 H 0.11972 0.52733 0.73263 0.0
H1266 H 0.21113 0.59423 0.67891 0.0
H1267 H 0.18278 0.57698 0.70344 0.0
H1268 H 0.1325 0.59753 0.70435 0.0
C1269 C 0.09605 0.55641 0.76512 0.0
C1270 C 0.12198 0.54241 0.72633 0.0
C1271 C 0.08513 0.54733 0.78239 0.0
C1272 C 0.19571 0.59394 0.6769 0.0
C1273 C 0.17944 0.58403 0.69094 0.0
C1274 C 0.12957 0.58202 0.7102 0.0
C1275 C 0.09535 0.54276 0.75004 0.0
C1276 C 0.11017 0.55229 0.73319 0.0
C1277 C 0.15923 0.58342 0.68898 0.0
C1278 C 0.1418 0.57241 0.70375 0.0
H1279 H 0.06226 0.49308 0.77093 0.0
H1280 H 0.08089 0.50892 0.74062 0.0
H1281 H 0.10504 0.58006 0.72969 0.0
H1282 H 0.16861 0.61 0.64614 0.0
H1283 H 0.1403 0.59283 0.67075 0.0
C1284 C 0.5755 0.06811 0.93291 0.0
C1285 C 0.56242 0.06885 0.94784 0.0
C1286 C 0.57807 0.07959 0.91583 0.0
C1287 C 0.55747 0.10994 0.887 0.0
H1288 H 0.61914 0.1476 0.87483 0.0
C1289 C 0.58881 0.18654 0.83817 0.0
C1290 C 0.60683 0.19179 0.82614 0.0
C1291 C 0.58184 0.16952 0.85159 0.0
C1292 C 0.60181 0.13697 0.87773 0.0
H1293 H 0.54026 0.08052 0.95593 0.0
H1294 H 0.54477 0.10061 0.92608 0.0
H1295 H 0.60851 0.11985 0.89965 0.0
H1296 H 0.63114 0.18284 0.81821 0.0
H1297 H 0.61883 0.15299 0.84132 0.0
H1298 H 0.55081 0.12725 0.86512 0.0
C1299 C 0.55307 0.09122 0.92759 0.0
C1300 C 0.59571 0.12101 0.89199 0.0
C1301 C 0.55058 0.07981 0.94471 0.0
C1302 C 0.61749 0.17946 0.82757 0.0
C1303 C 0.61041 0.16234 0.84083 0.0
C1304 C 0.56357 0.12584 0.87259 0.0
C1305 C 0.56754 0.09195 0.91329 0.0
C1306 C 0.57351 0.10744 0.89691 0.0
C1307 C 0.59263 0.15726 0.85314 0.0
C1308 C 0.58585 0.1397 0.8679 0.0
H1309 H 0.58496 0.05994 0.93492 0.0
H1310 H 0.58907 0.0796 0.90493 0.0
H1311 H 0.54022 0.09964 0.89043 0.0
H1312 H 0.58036 0.19585 0.83743 0.0
H1313 H 0.5683 0.16629 0.86102 0.0
C1314 C 0.4783 0.52959 0.10906 0.0
C1315 C 0.50115 0.54302 0.11096 0.0
C1316 C 0.468 0.52852 0.09161 0.0
C1317 C 0.47767 0.54681 0.04032 0.0
H1318 H 0.42962 0.55771 0.05005 0.0
C1319 C 0.45238 0.59318 0.98727 0.0
C1320 C 0.43005 0.58686 0.98563 0.0
C1321 C 0.45929 0.58321 0.00078 0.0
C1322 C 0.4427 0.55426 0.04696 0.0
H1323 H 0.53136 0.56431 0.0958 0.0
H1324 H 0.51346 0.56268 0.06536 0.0
H1325 H 0.44473 0.54678 0.07632 0.0
H1326 H 0.39736 0.56454 0.99644 0.0
H1327 H 0.40943 0.54715 0.02009 0.0
H1328 H 0.47605 0.55517 0.01099 0.0
C1329 C 0.50342 0.55274 0.0772 0.0
C1330 C 0.45136 0.54791 0.06206 0.0
C1331 C 0.51373 0.55367 0.09465 0.0
C1332 C 0.41473 0.57004 0.99757 0.0
C1333 C 0.42164 0.56004 0.01108 0.0
C1334 C 0.46898 0.5532 0.02518 0.0
C1335 C 0.48034 0.54106 0.07578 0.0
C1336 C 0.46925 0.54453 0.05904 0.0
C1337 C 0.44403 0.56666 0.01298 0.0
C1338 C 0.4517 0.55746 0.02842 0.0
H1339 H 0.46827 0.52114 0.12145 0.0
H1340 H 0.45024 0.51892 0.09085 0.0
H1341 H 0.49128 0.54411 0.03746 0.0
H1342 H 0.46465 0.60628 0.97847 0.0
H1343 H 0.4767 0.58901 0.00209 0.0
C1344 C 0.95242 0.48099 0.2819 0.0
C1345 C 0.9648 0.50382 0.28482 0.0
C1346 C 0.94161 0.47245 0.26448 0.0
C1347 C 0.91742 0.48857 0.22559 0.0
H1348 H 0.90377 0.43232 0.20395 0.0
C1349 C 0.84249 0.43958 0.17665 0.0
C1350 C 0.84486 0.42872 0.16067 0.0
C1351 C 0.85912 0.4492 0.19043 0.0
C1352 C 0.90759 0.44816 0.20967 0.0
H1353 H 0.97702 0.53556 0.27116 0.0
H1354 H 0.9587 0.52065 0.24054 0.0
H1355 H 0.93152 0.44881 0.22916 0.0
H1356 H 0.86669 0.41963 0.14658 0.0
H1357 H 0.89571 0.43641 0.17065 0.0
H1358 H 0.89357 0.48799 0.20616 0.0
C1359 C 0.95691 0.50935 0.25191 0.0
C1360 C 0.92337 0.45753 0.22423 0.0
C1361 C 0.96767 0.51789 0.26937 0.0
C1362 C 0.86419 0.42757 0.15888 0.0
C1363 C 0.88085 0.43722 0.17266 0.0
C1364 C 0.90169 0.47923 0.21106 0.0
C1365 C 0.94302 0.48657 0.24954 0.0
C1366 C 0.92824 0.4777 0.23256 0.0
C1367 C 0.87856 0.44826 0.18854 0.0
C1368 C 0.8963 0.45874 0.20315 0.0
H1369 H 0.95011 0.46973 0.29348 0.0
H1370 H 0.93104 0.45484 0.26321 0.0
H1371 H 0.9205 0.50397 0.23183 0.0
H1372 H 0.82767 0.44047 0.1786 0.0
H1373 H 0.85663 0.45719 0.20269 0.0
loop_
_geom_bond_atom_site_label_1
_geom_bond_atom_site_label_2
_geom_bond_distance
_geom_bond_site_symmetry_2
_ccdc_geom_bond_type
H0 C8 0.930 . S
H1 C11 0.930 1_455 S
H2 C13 0.930 . S
H3 C14 0.970 . S
H4 C14 0.970 . S
H5 C16 0.930 . S
H6 C18 0.930 . S
H7 C20 0.930 . S
C8 H0 0.930 . S
C8 C9 1.382 . S
C8 C10 1.426 . S
C9 C8 1.382 . S
C9 C13 1.389 . S
C10 C8 1.426 . S
C10 C11 1.375 . S
C10 C14 1.532 1_655 S
C11 H1 0.930 1_655 S
C11 C10 1.375 . S
C11 C12 1.416 . S
C12 C11 1.416 . S
C12 C13 1.371 . S
C13 H2 0.930 . S
C13 C9 1.389 . S
C13 C12 1.371 . S
C14 H3 0.970 . S
C14 H4 0.970 . S
C14 C10 1.532 1_455 S
C14 C15 1.499 . S
C15 C14 1.499 . S
C15 C16 1.370 . S
C15 C20 1.415 . S
C16 H5 0.930 . S
C16 C15 1.370 . S
C16 C17 1.407 . S
C17 C16 1.407 . S
C17 C18 1.365 . S
C18 H6 0.930 . S
C18 C17 1.365 . S
C18 C19 1.393 . S
C19 C18 1.393 . S
C19 C20 1.387 . S
C20 H7 0.930 . S
C20 C15 1.415 . S
C20 C19 1.387 . S
H21 C29 0.930 . S
H22 C32 0.930 1_545 S
H23 C34 0.930 . S
H24 C35 0.970 . S
H25 C35 0.970 . S
H26 C37 0.930 . S
H27 C39 0.930 . S
H28 C41 0.930 . S
C29 H21 0.930 . S
C29 C30 1.382 . S
C29 C31 1.426 . S
C30 C29 1.382 . S
C30 C34 1.389 . S
C31 C29 1.426 . S
C31 C32 1.375 . S
C31 C35 1.532 1_565 S
C32 H22 0.930 1_565 S
C32 C31 1.375 . S
C32 C33 1.416 . S
C33 C32 1.416 . S
C33 C34 1.371 . S
C34 H23 0.930 . S
C34 C30 1.389 . S
C34 C33 1.371 . S
C35 H24 0.970 . S
C35 H25 0.970 . S
C35 C31 1.532 1_545 S
C35 C36 1.499 . S
C36 C35 1.499 . S
C36 C37 1.370 . S
C36 C41 1.415 . S
C37 H26 0.930 . S
C37 C36 1.370 . S
C37 C38 1.407 . S
C38 C37 1.407 . S
C38 C39 1.365 . S
C39 H27 0.930 . S
C39 C38 1.365 . S
C39 C40 1.393 . S
C40 C39 1.393 . S
C40 C41 1.387 . S
C41 H28 0.930 . S
C41 C36 1.415 . S
C41 C40 1.387 . S
H42 C50 0.930 . S
H43 C53 0.930 . S
H44 C55 0.930 . S
H45 C56 0.970 . S
H46 C56 0.970 . S
H47 C58 0.930 . S
H48 C60 0.930 . S
H49 C62 0.930 . S
C50 H42 0.930 . S
C50 C51 1.382 . S
C50 C52 1.426 . S
C51 C50 1.382 . S
C51 C55 1.389 . S
C52 C50 1.426 . S
C52 C53 1.375 . S
C52 C56 1.532 . S
C53 H43 0.930 . S
C53 C52 1.375 . S
C53 C54 1.416 . S
C54 C53 1.416 . S
C54 C55 1.371 . S
C55 H44 0.930 . S
C55 C51 1.389 . S
C55 C54 1.371 . S
C56 H45 0.970 . S
C56 H46 0.970 . S
C56 C52 1.532 . S
C56 C57 1.499 . S
C57 C56 1.499 . S
C57 C58 1.370 . S
C57 C62 1.415 . S
C58 H47 0.930 . S
C58 C57 1.370 . S
C58 C59 1.407 . S
C59 C58 1.407 . S
C59 C60 1.365 . S
C60 H48 0.930 . S
C60 C59 1.365 . S
C60 C61 1.393 . S
C61 C60 1.393 . S
C61 C62 1.387 . S
C62 H49 0.930 . S
C62 C57 1.415 . S
C62 C61 1.387 . S
H63 C71 0.930 . S
H64 C74 0.930 1_455 S
H65 C76 0.930 . S
H66 C77 0.970 . S
H67 C77 0.970 . S
H68 C79 0.930 . S
H69 C81 0.930 . S
H70 C83 0.930 . S
C71 H63 0.930 . S
C71 C72 1.382 . S
C71 C73 1.426 . S
C72 C71 1.382 . S
C72 C76 1.389 . S
C73 C71 1.426 . S
C73 C74 1.375 . S
C73 C77 1.532 1_655 S
C74 H64 0.930 1_655 S
C74 C73 1.375 . S
C74 C75 1.416 . S
C75 C74 1.416 . S
C75 C76 1.371 . S
C76 H65 0.930 . S
C76 C72 1.389 . S
C76 C75 1.371 . S
C77 H66 0.970 . S
C77 H67 0.970 . S
C77 C73 1.532 1_455 S
C77 C78 1.499 . S
C78 C77 1.499 . S
C78 C79 1.370 . S
C78 C83 1.415 . S
C79 H68 0.930 . S
C79 C78 1.370 . S
C79 C80 1.407 . S
C80 C79 1.407 . S
C80 C81 1.365 . S
C81 H69 0.930 . S
C81 C80 1.365 . S
C81 C82 1.393 . S
C82 C81 1.393 . S
C82 C83 1.387 . S
C83 H70 0.930 . S
C83 C78 1.415 . S
C83 C82 1.387 . S
H84 C92 0.930 . S
H85 C95 0.930 . S
H86 C97 0.930 . S
H87 C98 0.970 1_554 S
H88 C98 0.970 . S
H89 C100 0.930 1_545 S
H90 C102 0.930 . S
H91 C104 0.930 . S
C92 H84 0.930 . S
C92 C93 1.382 1_554 S
C92 C94 1.426 1_554 S
C93 C92 1.382 1_556 S
C93 C97 1.389 . S
C94 C92 1.426 1_556 S
C94 C95 1.375 . S
C94 C98 1.532 . S
C95 H85 0.930 . S
C95 C94 1.375 . S
C95 C96 1.416 . S
C96 C95 1.416 . S
C96 C97 1.371 . S
C97 H86 0.930 . S
C97 C93 1.389 . S
C97 C96 1.371 . S
C98 H87 0.970 1_556 S
C98 H88 0.970 . S
C98 C94 1.532 . S
C98 C99 1.499 1_545 S
C99 C98 1.499 1_565 S
C99 C100 1.370 1_556 S
C99 C104 1.415 . S
C100 H89 0.930 1_565 S
C100 C99 1.370 1_554 S
C100 C101 1.407 . S
C101 C100 1.407 . S
C101 C102 1.365 . S
C102 H90 0.930 . S
C102 C101 1.365 . S
C102 C103 1.393 1_554 S
C103 C102 1.393 1_556 S
C103 C104 1.387 . S
C104 H91 0.930 . S
C104 C99 1.415 . S
C104 C103 1.387 . S
H105 C113 0.930 . S
H106 C116 0.930 . S
H107 C118 0.930 . S
H108 C119 0.970 . S
H109 C119 0.970 . S
H110 C121 0.930 . S
H111 C123 0.930 . S
H112 C125 0.930 . S
C113 H105 0.930 . S
C113 C114 1.382 . S
C113 C115 1.426 . S
C114 C113 1.382 . S
C114 C118 1.389 . S
C115 C113 1.426 . S
C115 C116 1.375 . S
C115 C119 1.532 . S
C116 H106 0.930 . S
C116 C115 1.375 . S
C116 C117 1.416 . S
C117 C116 1.416 . S
C117 C118 1.371 . S
C118 H107 0.930 . S
C118 C114 1.389 . S
C118 C117 1.371 . S
C119 H108 0.970 . S
C119 H109 0.970 . S
C119 C115 1.532 . S
C119 C120 1.499 . S
C120 C119 1.499 . S
C120 C121 1.370 . S
C120 C125 1.415 . S
C121 H110 0.930 . S
C121 C120 1.370 . S
C121 C122 1.407 . S
C122 C121 1.407 . S
C122 C123 1.365 . S
C123 H111 0.930 . S
C123 C122 1.365 . S
C123 C124 1.393 . S
C124 C123 1.393 . S
C124 C125 1.387 . S
C125 H112 0.930 . S
C125 C120 1.415 . S
C125 C124 1.387 . S
Li126 N143 1.990 . S
Li126 O186 1.956 . S
Li126 O187 1.970 . S
Li126 O188 1.961 . S
Li127 N151 1.990 . S
Li127 O186 1.970 . S
Li127 O187 1.956 . S
Li127 O189 1.961 . S
Li128 N173 1.990 . S
Li128 O186 1.961 . S
Li128 O188 1.956 . S
Li128 O189 1.970 . S
Li129 N179 1.990 . S
Li129 O187 1.961 . S
Li129 O188 1.970 . S
Li129 O189 1.956 . S
C130 C132 1.348 . S
C130 C133 1.356 . S
C130 O186 1.325 . S
N131 C134 1.314 . S
N131 C135 1.279 . S
C132 C130 1.348 . S
C132 C134 1.353 . S
C132 H190 0.929 . S
C133 C130 1.356 . S
C133 C135 1.358 . S
C133 H191 0.930 . S
C134 N131 1.314 . S
C134 C132 1.353 . S
C134 H192 0.930 . S
C135 N131 1.279 . S
C135 C133 1.358 . S
C135 H193 0.930 . S
C136 C139 1.348 . S
C136 C140 1.356 . S
C136 O187 1.325 . S
C137 N138 1.279 . S
C137 C140 1.358 . S
C137 H194 0.930 . S
N138 C137 1.279 . S
N138 C141 1.314 . S
C139 C136 1.348 . S
C139 C141 1.353 . S
C139 H195 0.929 . S
C140 C136 1.356 . S
C140 C137 1.358 . S
C140 H196 0.930 . S
C141 N138 1.314 . S
C141 C139 1.353 . S
C141 H197 0.930 . S
C142 N143 1.314 . S
C142 C147 1.353 . S
C142 H148 0.930 . S
N143 Li126 1.990 . S
N143 C142 1.314 . S
N143 C145 1.279 . S
C144 C145 1.358 . S
C144 C146 1.356 . S
C144 H198 0.930 . S
C145 N143 1.279 . S
C145 C144 1.358 . S
C145 H149 0.930 . S
C146 C144 1.356 . S
C146 C147 1.348 . S
C147 C142 1.353 . S
C147 C146 1.348 . S
C147 H199 0.929 . S
H148 C142 0.930 . S
H149 C145 0.930 . S
C150 N151 1.314 . S
C150 C152 1.353 . S
C150 H156 0.930 . S
N151 Li127 1.990 . S
N151 C150 1.314 . S
N151 C154 1.279 . S
C152 C150 1.353 . S
C152 C155 1.348 . S
C152 H200 0.929 . S
C153 C154 1.358 . S
C153 C155 1.356 . S
C153 H201 0.930 . S
C154 N151 1.279 . S
C154 C153 1.358 . S
C154 H157 0.930 . S
C155 C152 1.348 . S
C155 C153 1.356 . S
H156 C150 0.930 . S
H157 C154 0.930 . S
C158 C160 1.348 . S
C158 C161 1.356 . S
C158 O188 1.325 . S
N159 C162 1.314 . S
N159 C163 1.279 . S
C160 C158 1.348 . S
C160 C162 1.353 . S
C160 H202 0.929 . S
C161 C158 1.356 . S
C161 C163 1.358 . S
C161 H203 0.930 . S
C162 N159 1.314 . S
C162 C160 1.353 . S
C162 H204 0.930 . S
C163 N159 1.279 . S
C163 C161 1.358 . S
C163 H205 0.930 . S
C164 C165 1.348 . S
C164 C166 1.356 . S
C164 O189 1.325 . S
C165 C164 1.348 . S
C165 C167 1.353 . S
C165 H206 0.929 . S
C166 C164 1.356 . S
C166 C168 1.358 . S
C166 H207 0.930 . S
C167 C165 1.353 . S
C167 N169 1.314 . S
C167 H208 0.930 . S
C168 C166 1.358 . S
C168 N169 1.279 . S
C168 H209 0.930 . S
N169 C167 1.314 . S
N169 C168 1.279 . S
C170 C172 1.353 . S
C170 N173 1.314 . S
C170 H176 0.930 . S
C171 N173 1.279 . S
C171 C174 1.358 . S
C171 H177 0.930 . S
C172 C170 1.353 . S
C172 C175 1.348 . S
C172 H210 0.929 . S
N173 Li128 1.990 . S
N173 C170 1.314 . S
N173 C171 1.279 . S
C174 C171 1.358 . S
C174 C175 1.356 . S
C174 H211 0.930 . S
C175 C172 1.348 . S
C175 C174 1.356 . S
H176 C170 0.930 . S
H177 C171 0.930 . S
C178 N179 1.314 . S
C178 C180 1.353 . S
C178 H184 0.930 . S
N179 Li129 1.990 . S
N179 C178 1.314 . S
N179 C182 1.279 . S
C180 C178 1.353 . S
C180 C183 1.348 . S
C180 H212 0.929 . S
C181 C182 1.358 . S
C181 C183 1.356 . S
C181 H213 0.930 . S
C182 N179 1.279 . S
C182 C181 1.358 . S
C182 H185 0.930 . S
C183 C180 1.348 . S
C183 C181 1.356 . S
H184 C178 0.930 . S
H185 C182 0.930 . S
O186 Li126 1.956 . S
O186 Li127 1.970 . S
O186 Li128 1.961 . S
O186 C130 1.325 . S
O187 Li126 1.970 . S
O187 Li127 1.956 . S
O187 Li129 1.961 . S
O187 C136 1.325 . S
O188 Li126 1.961 . S
O188 Li128 1.956 . S
O188 Li129 1.970 . S
O188 C158 1.325 . S
O189 Li127 1.961 . S
O189 Li128 1.970 . S
O189 Li129 1.956 . S
O189 C164 1.325 . S
H190 C132 0.929 . S
H191 C133 0.930 . S
H192 C134 0.930 . S
H193 C135 0.930 . S
H194 C137 0.930 . S
H195 C139 0.929 . S
H196 C140 0.930 . S
H197 C141 0.930 . S
H198 C144 0.930 . S
H199 C147 0.929 . S
H200 C152 0.929 . S
H201 C153 0.930 . S
H202 C160 0.929 . S
H203 C161 0.930 . S
H204 C162 0.930 . S
H205 C163 0.930 . S
H206 C165 0.929 . S
H207 C166 0.930 . S
H208 C167 0.930 . S
H209 C168 0.930 . S
H210 C172 0.929 . S
H211 C174 0.930 . S
H212 C180 0.929 . S
H213 C181 0.930 . S
Li214 N231 1.990 . S
Li214 O274 1.956 . S
Li214 O275 1.970 . S
Li214 O276 1.961 . S
Li215 N239 1.990 . S
Li215 O274 1.970 . S
Li215 O275 1.956 . S
Li215 O277 1.961 . S
Li216 N261 1.990 . S
Li216 O274 1.961 . S
Li216 O276 1.956 . S
Li216 O277 1.970 . S
Li217 N267 1.990 . S
Li217 O275 1.961 . S
Li217 O276 1.970 . S
Li217 O277 1.956 . S
C218 C220 1.348 . S
C218 C221 1.356 . S
C218 O274 1.325 . S
N219 C222 1.314 . S
N219 C223 1.279 . S
C220 C218 1.348 . S
C220 C222 1.353 . S
C220 H278 0.929 . S
C221 C218 1.356 . S
C221 C223 1.358 . S
C221 H279 0.930 . S
C222 N219 1.314 . S
C222 C220 1.353 . S
C222 H280 0.930 . S
C223 N219 1.279 . S
C223 C221 1.358 . S
C223 H281 0.930 . S
C224 C227 1.348 . S
C224 C228 1.356 . S
C224 O275 1.325 . S
C225 N226 1.279 . S
C225 C228 1.358 . S
C225 H282 0.930 . S
N226 C225 1.279 . S
N226 C229 1.314 . S
C227 C224 1.348 . S
C227 C229 1.353 . S
C227 H283 0.929 . S
C228 C224 1.356 . S
C228 C225 1.358 . S
C228 H284 0.930 . S
C229 N226 1.314 . S
C229 C227 1.353 . S
C229 H285 0.930 . S
C230 N231 1.314 . S
C230 C235 1.353 . S
C230 H236 0.930 . S
N231 Li214 1.990 . S
N231 C230 1.314 . S
N231 C233 1.279 . S
C232 C233 1.358 . S
C232 C234 1.356 . S
C232 H286 0.930 . S
C233 N231 1.279 . S
C233 C232 1.358 . S
C233 H237 0.930 . S
C234 C232 1.356 . S
C234 C235 1.348 . S
C235 C230 1.353 . S
C235 C234 1.348 . S
C235 H287 0.929 . S
H236 C230 0.930 . S
H237 C233 0.930 . S
C238 N239 1.314 . S
C238 C240 1.353 . S
C238 H244 0.930 . S
N239 Li215 1.990 . S
N239 C238 1.314 . S
N239 C242 1.279 . S
C240 C238 1.353 . S
C240 C243 1.348 . S
C240 H288 0.929 . S
C241 C242 1.358 . S
C241 C243 1.356 . S
C241 H289 0.930 . S
C242 N239 1.279 . S
C242 C241 1.358 . S
C242 H245 0.930 . S
C243 C240 1.348 . S
C243 C241 1.356 . S
H244 C238 0.930 . S
H245 C242 0.930 . S
C246 C248 1.348 . S
C246 C249 1.356 . S
C246 O276 1.325 . S
N247 C250 1.314 . S
N247 C251 1.279 . S
C248 C246 1.348 . S
C248 C250 1.353 . S
C248 H290 0.929 . S
C249 C246 1.356 . S
C249 C251 1.358 . S
C249 H291 0.930 . S
C250 N247 1.314 . S
C250 C248 1.353 . S
C250 H292 0.930 . S
C251 N247 1.279 . S
C251 C249 1.358 . S
C251 H293 0.930 . S
C252 C253 1.348 . S
C252 C254 1.356 . S
C252 O277 1.325 . S
C253 C252 1.348 . S
C253 C255 1.353 . S
C253 H294 0.929 . S
C254 C252 1.356 . S
C254 C256 1.358 . S
C254 H295 0.930 . S
C255 C253 1.353 . S
C255 N257 1.314 . S
C255 H296 0.930 . S
C256 C254 1.358 . S
C256 N257 1.279 . S
C256 H297 0.930 . S
N257 C255 1.314 . S
N257 C256 1.279 . S
C258 C260 1.353 . S
C258 N261 1.314 . S
C258 H264 0.930 . S
C259 N261 1.279 . S
C259 C262 1.358 . S
C259 H265 0.930 . S
C260 C258 1.353 . S
C260 C263 1.348 . S
C260 H298 0.929 . S
N261 Li216 1.990 . S
N261 C258 1.314 . S
N261 C259 1.279 . S
C262 C259 1.358 . S
C262 C263 1.356 . S
C262 H299 0.930 . S
C263 C260 1.348 . S
C263 C262 1.356 . S
H264 C258 0.930 . S
H265 C259 0.930 . S
C266 N267 1.314 . S
C266 C268 1.353 . S
C266 H272 0.930 . S
N267 Li217 1.990 . S
N267 C266 1.314 . S
N267 C270 1.279 . S
C268 C266 1.353 . S
C268 C271 1.348 . S
C268 H300 0.929 . S
C269 C270 1.358 . S
C269 C271 1.356 . S
C269 H301 0.930 . S
C270 N267 1.279 . S
C270 C269 1.358 . S
C270 H273 0.930 . S
C271 C268 1.348 . S
C271 C269 1.356 . S
H272 C266 0.930 . S
H273 C270 0.930 . S
O274 Li214 1.956 . S
O274 Li215 1.970 . S
O274 Li216 1.961 . S
O274 C218 1.325 . S
O275 Li214 1.970 . S
O275 Li215 1.956 . S
O275 Li217 1.961 . S
O275 C224 1.325 . S
O276 Li214 1.961 . S
O276 Li216 1.956 . S
O276 Li217 1.970 . S
O276 C246 1.325 . S
O277 Li215 1.961 . S
O277 Li216 1.970 . S
O277 Li217 1.956 . S
O277 C252 1.325 . S
H278 C220 0.929 . S
H279 C221 0.930 . S
H280 C222 0.930 . S
H281 C223 0.930 . S
H282 C225 0.930 . S
H283 C227 0.929 . S
H284 C228 0.930 . S
H285 C229 0.930 . S
H286 C232 0.930 . S
H287 C235 0.929 . S
H288 C240 0.929 . S
H289 C241 0.930 . S
H290 C248 0.929 . S
H291 C249 0.930 . S
H292 C250 0.930 . S
H293 C251 0.930 . S
H294 C253 0.929 . S
H295 C254 0.930 . S
H296 C255 0.930 . S
H297 C256 0.930 . S
H298 C260 0.929 . S
H299 C262 0.930 . S
H300 C268 0.929 . S
H301 C269 0.930 . S
Li302 N319 1.990 . S
Li302 O362 1.956 . S
Li302 O363 1.970 . S
Li302 O364 1.961 . S
Li303 N327 1.990 . S
Li303 O362 1.970 . S
Li303 O363 1.956 . S
Li303 O365 1.961 . S
Li304 N349 1.990 . S
Li304 O362 1.961 . S
Li304 O364 1.956 . S
Li304 O365 1.970 . S
Li305 N355 1.990 . S
Li305 O363 1.961 . S
Li305 O364 1.970 . S
Li305 O365 1.956 . S
C306 C308 1.348 . S
C306 C309 1.356 . S
C306 O362 1.325 . S
N307 C310 1.314 . S
N307 C311 1.279 . S
C308 C306 1.348 . S
C308 C310 1.353 . S
C308 H366 0.929 . S
C309 C306 1.356 . S
C309 C311 1.358 . S
C309 H367 0.930 . S
C310 N307 1.314 . S
C310 C308 1.353 . S
C310 H368 0.930 . S
C311 N307 1.279 . S
C311 C309 1.358 . S
C311 H369 0.930 . S
C312 C315 1.348 . S
C312 C316 1.356 . S
C312 O363 1.325 . S
C313 N314 1.279 . S
C313 C316 1.358 . S
C313 H370 0.930 . S
N314 C313 1.279 . S
N314 C317 1.314 . S
C315 C312 1.348 . S
C315 C317 1.353 . S
C315 H371 0.929 . S
C316 C312 1.356 . S
C316 C313 1.358 . S
C316 H372 0.930 . S
C317 N314 1.314 . S
C317 C315 1.353 . S
C317 H373 0.930 . S
C318 N319 1.314 . S
C318 C323 1.353 . S
C318 H324 0.930 . S
N319 Li302 1.990 . S
N319 C318 1.314 . S
N319 C321 1.279 . S
C320 C321 1.358 . S
C320 C322 1.356 . S
C320 H374 0.930 . S
C321 N319 1.279 . S
C321 C320 1.358 . S
C321 H325 0.930 . S
C322 C320 1.356 . S
C322 C323 1.348 . S
C323 C318 1.353 . S
C323 C322 1.348 . S
C323 H375 0.929 . S
H324 C318 0.930 . S
H325 C321 0.930 . S
C326 N327 1.314 . S
C326 C328 1.353 . S
C326 H332 0.930 . S
N327 Li303 1.990 . S
N327 C326 1.314 . S
N327 C330 1.279 . S
C328 C326 1.353 . S
C328 C331 1.348 . S
C328 H376 0.929 . S
C329 C330 1.358 . S
C329 C331 1.356 . S
C329 H377 0.930 . S
C330 N327 1.279 . S
C330 C329 1.358 . S
C330 H333 0.930 . S
C331 C328 1.348 . S
C331 C329 1.356 . S
H332 C326 0.930 . S
H333 C330 0.930 . S
C334 C336 1.348 . S
C334 C337 1.356 . S
C334 O364 1.325 . S
N335 C338 1.314 . S
N335 C339 1.279 . S
C336 C334 1.348 . S
C336 C338 1.353 . S
C336 H378 0.929 . S
C337 C334 1.356 . S
C337 C339 1.358 . S
C337 H379 0.930 . S
C338 N335 1.314 . S
C338 C336 1.353 . S
C338 H380 0.930 . S
C339 N335 1.279 . S
C339 C337 1.358 . S
C339 H381 0.930 . S
C340 C341 1.348 . S
C340 C342 1.356 . S
C340 O365 1.325 . S
C341 C340 1.348 . S
C341 C343 1.353 . S
C341 H382 0.929 . S
C342 C340 1.356 . S
C342 C344 1.358 . S
C342 H383 0.930 . S
C343 C341 1.353 . S
C343 N345 1.314 . S
C343 H384 0.930 . S
C344 C342 1.358 . S
C344 N345 1.279 . S
C344 H385 0.930 . S
N345 C343 1.314 . S
N345 C344 1.279 . S
C346 C348 1.353 . S
C346 N349 1.314 . S
C346 H352 0.930 . S
C347 N349 1.279 . S
C347 C350 1.358 . S
C347 H353 0.930 . S
C348 C346 1.353 . S
C348 C351 1.348 . S
C348 H386 0.929 . S
N349 Li304 1.990 . S
N349 C346 1.314 . S
N349 C347 1.279 . S
C350 C347 1.358 . S
C350 C351 1.356 . S
C350 H387 0.930 . S
C351 C348 1.348 . S
C351 C350 1.356 . S
H352 C346 0.930 . S
H353 C347 0.930 . S
C354 N355 1.314 . S
C354 C356 1.353 . S
C354 H360 0.930 . S
N355 Li305 1.990 . S
N355 C354 1.314 . S
N355 C358 1.279 . S
C356 C354 1.353 . S
C356 C359 1.348 . S
C356 H388 0.929 . S
C357 C358 1.358 . S
C357 C359 1.356 . S
C357 H389 0.930 . S
C358 N355 1.279 . S
C358 C357 1.358 . S
C358 H361 0.930 . S
C359 C356 1.348 . S
C359 C357 1.356 . S
H360 C354 0.930 . S
H361 C358 0.930 . S
O362 Li302 1.956 . S
O362 Li303 1.970 . S
O362 Li304 1.961 . S
O362 C306 1.325 . S
O363 Li302 1.970 . S
O363 Li303 1.956 . S
O363 Li305 1.961 . S
O363 C312 1.325 . S
O364 Li302 1.961 . S
O364 Li304 1.956 . S
O364 Li305 1.970 . S
O364 C334 1.325 . S
O365 Li303 1.961 . S
O365 Li304 1.970 . S
O365 Li305 1.956 . S
O365 C340 1.325 . S
H366 C308 0.929 . S
H367 C309 0.930 . S
H368 C310 0.930 . S
H369 C311 0.930 . S
H370 C313 0.930 . S
H371 C315 0.929 . S
H372 C316 0.930 . S
H373 C317 0.930 . S
H374 C320 0.930 . S
H375 C323 0.929 . S
H376 C328 0.929 . S
H377 C329 0.930 . S
H378 C336 0.929 . S
H379 C337 0.930 . S
H380 C338 0.930 . S
H381 C339 0.930 . S
H382 C341 0.929 . S
H383 C342 0.930 . S
H384 C343 0.930 . S
H385 C344 0.930 . S
H386 C348 0.929 . S
H387 C350 0.930 . S
H388 C356 0.929 . S
H389 C357 0.930 . S
Li390 N407 1.990 . S
Li390 O450 1.956 . S
Li390 O451 1.970 . S
Li390 O452 1.961 . S
Li391 N415 1.990 . S
Li391 O450 1.970 . S
Li391 O451 1.956 . S
Li391 O453 1.961 . S
Li392 N437 1.990 . S
Li392 O450 1.961 . S
Li392 O452 1.956 . S
Li392 O453 1.970 . S
Li393 N443 1.990 . S
Li393 O451 1.961 . S
Li393 O452 1.970 . S
Li393 O453 1.956 . S
C394 C396 1.348 . S
C394 C397 1.356 . S
C394 O450 1.325 . S
N395 C398 1.314 . S
N395 C399 1.279 . S
C396 C394 1.348 . S
C396 C398 1.353 . S
C396 H454 0.929 . S
C397 C394 1.356 . S
C397 C399 1.358 . S
C397 H455 0.930 . S
C398 N395 1.314 . S
C398 C396 1.353 . S
C398 H456 0.930 . S
C399 N395 1.279 . S
C399 C397 1.358 . S
C399 H457 0.930 . S
C400 C403 1.348 . S
C400 C404 1.356 . S
C400 O451 1.325 . S
C401 N402 1.279 . S
C401 C404 1.358 . S
C401 H458 0.930 . S
N402 C401 1.279 . S
N402 C405 1.314 . S
C403 C400 1.348 . S
C403 C405 1.353 . S
C403 H459 0.929 . S
C404 C400 1.356 . S
C404 C401 1.358 . S
C404 H460 0.930 . S
C405 N402 1.314 . S
C405 C403 1.353 . S
C405 H461 0.930 . S
C406 N407 1.314 . S
C406 C411 1.353 . S
C406 H412 0.930 . S
N407 Li390 1.990 . S
N407 C406 1.314 . S
N407 C409 1.279 . S
C408 C409 1.358 . S
C408 C410 1.356 . S
C408 H462 0.930 . S
C409 N407 1.279 . S
C409 C408 1.358 . S
C409 H413 0.930 . S
C410 C408 1.356 . S
C410 C411 1.348 . S
C411 C406 1.353 . S
C411 C410 1.348 . S
C411 H463 0.929 . S
H412 C406 0.930 . S
H413 C409 0.930 . S
C414 N415 1.314 . S
C414 C416 1.353 . S
C414 H420 0.930 . S
N415 Li391 1.990 . S
N415 C414 1.314 . S
N415 C418 1.279 . S
C416 C414 1.353 . S
C416 C419 1.348 . S
C416 H464 0.929 . S
C417 C418 1.358 . S
C417 C419 1.356 . S
C417 H465 0.930 . S
C418 N415 1.279 . S
C418 C417 1.358 . S
C418 H421 0.930 . S
C419 C416 1.348 . S
C419 C417 1.356 . S
H420 C414 0.930 . S
H421 C418 0.930 . S
C422 C424 1.348 . S
C422 C425 1.356 . S
C422 O452 1.325 . S
N423 C426 1.314 . S
N423 C427 1.279 . S
C424 C422 1.348 . S
C424 C426 1.353 . S
C424 H466 0.929 . S
C425 C422 1.356 . S
C425 C427 1.358 . S
C425 H467 0.930 . S
C426 N423 1.314 . S
C426 C424 1.353 . S
C426 H468 0.930 . S
C427 N423 1.279 . S
C427 C425 1.358 . S
C427 H469 0.930 . S
C428 C429 1.348 . S
C428 C430 1.356 . S
C428 O453 1.325 . S
C429 C428 1.348 . S
C429 C431 1.353 . S
C429 H470 0.929 . S
C430 C428 1.356 . S
C430 C432 1.358 . S
C430 H471 0.930 . S
C431 C429 1.353 . S
C431 N433 1.314 . S
C431 H472 0.930 . S
C432 C430 1.358 . S
C432 N433 1.279 . S
C432 H473 0.930 . S
N433 C431 1.314 . S
N433 C432 1.279 . S
C434 C436 1.353 . S
C434 N437 1.314 . S
C434 H440 0.930 . S
C435 N437 1.279 . S
C435 C438 1.358 . S
C435 H441 0.930 . S
C436 C434 1.353 . S
C436 C439 1.348 . S
C436 H474 0.929 . S
N437 Li392 1.990 . S
N437 C434 1.314 . S
N437 C435 1.279 . S
C438 C435 1.358 . S
C438 C439 1.356 . S
C438 H475 0.930 . S
C439 C436 1.348 . S
C439 C438 1.356 . S
H440 C434 0.930 . S
H441 C435 0.930 . S
C442 N443 1.314 . S
C442 C444 1.353 . S
C442 H448 0.930 . S
N443 Li393 1.990 . S
N443 C442 1.314 . S
N443 C446 1.279 . S
C444 C442 1.353 . S
C444 C447 1.348 . S
C444 H476 0.929 . S
C445 C446 1.358 . S
C445 C447 1.356 . S
C445 H477 0.930 . S
C446 N443 1.279 . S
C446 C445 1.358 . S
C446 H449 0.930 . S
C447 C444 1.348 . S
C447 C445 1.356 . S
H448 C442 0.930 . S
H449 C446 0.930 . S
O450 Li390 1.956 . S
O450 Li391 1.970 . S
O450 Li392 1.961 . S
O450 C394 1.325 . S
O451 Li390 1.970 . S
O451 Li391 1.956 . S
O451 Li393 1.961 . S
O451 C400 1.325 . S
O452 Li390 1.961 . S
O452 Li392 1.956 . S
O452 Li393 1.970 . S
O452 C422 1.325 . S
O453 Li391 1.961 . S
O453 Li392 1.970 . S
O453 Li393 1.956 . S
O453 C428 1.325 . S
H454 C396 0.929 . S
H455 C397 0.930 . S
H456 C398 0.930 . S
H457 C399 0.930 . S
H458 C401 0.930 . S
H459 C403 0.929 . S
H460 C404 0.930 . S
H461 C405 0.930 . S
H462 C408 0.930 . S
H463 C411 0.929 . S
H464 C416 0.929 . S
H465 C417 0.930 . S
H466 C424 0.929 . S
H467 C425 0.930 . S
H468 C426 0.930 . S
H469 C427 0.930 . S
H470 C429 0.929 . S
H471 C430 0.930 . S
H472 C431 0.930 . S
H473 C432 0.930 . S
H474 C436 0.929 . S
H475 C438 0.930 . S
H476 C444 0.929 . S
H477 C445 0.930 . S
Li478 N495 1.990 . S
Li478 O538 1.956 . S
Li478 O539 1.970 . S
Li478 O540 1.961 . S
Li479 N503 1.990 . S
Li479 O538 1.970 . S
Li479 O539 1.956 . S
Li479 O541 1.961 . S
Li480 N525 1.990 . S
Li480 O538 1.961 . S
Li480 O540 1.956 . S
Li480 O541 1.970 . S
Li481 N531 1.990 . S
Li481 O539 1.961 . S
Li481 O540 1.970 . S
Li481 O541 1.956 . S
C482 C484 1.348 . S
C482 C485 1.356 . S
C482 O538 1.325 . S
N483 C486 1.314 . S
N483 C487 1.279 . S
C484 C482 1.348 . S
C484 C486 1.353 . S
C484 H542 0.929 . S
C485 C482 1.356 . S
C485 C487 1.358 . S
C485 H543 0.930 . S
C486 N483 1.314 . S
C486 C484 1.353 . S
C486 H544 0.930 . S
C487 N483 1.279 . S
C487 C485 1.358 . S
C487 H545 0.930 . S
C488 C491 1.348 . S
C488 C492 1.356 . S
C488 O539 1.325 . S
C489 N490 1.279 . S
C489 C492 1.358 . S
C489 H546 0.930 . S
N490 C489 1.279 . S
N490 C493 1.314 . S
C491 C488 1.348 . S
C491 C493 1.353 . S
C491 H547 0.929 . S
C492 C488 1.356 . S
C492 C489 1.358 . S
C492 H548 0.930 . S
C493 N490 1.314 . S
C493 C491 1.353 . S
C493 H549 0.930 . S
C494 N495 1.314 . S
C494 C499 1.353 . S
C494 H500 0.930 . S
N495 Li478 1.990 . S
N495 C494 1.314 . S
N495 C497 1.279 . S
C496 C497 1.358 . S
C496 C498 1.356 . S
C496 H550 0.930 . S
C497 N495 1.279 . S
C497 C496 1.358 . S
C497 H501 0.930 . S
C498 C496 1.356 . S
C498 C499 1.348 . S
C499 C494 1.353 . S
C499 C498 1.348 . S
C499 H551 0.929 . S
H500 C494 0.930 . S
H501 C497 0.930 . S
C502 N503 1.314 . S
C502 C504 1.353 . S
C502 H508 0.930 . S
N503 Li479 1.990 . S
N503 C502 1.314 . S
N503 C506 1.279 . S
C504 C502 1.353 . S
C504 C507 1.348 . S
C504 H552 0.929 . S
C505 C506 1.358 . S
C505 C507 1.356 . S
C505 H553 0.930 . S
C506 N503 1.279 . S
C506 C505 1.358 . S
C506 H509 0.930 . S
C507 C504 1.348 . S
C507 C505 1.356 . S
H508 C502 0.930 . S
H509 C506 0.930 . S
C510 C512 1.348 . S
C510 C513 1.356 . S
C510 O540 1.325 . S
N511 C514 1.314 . S
N511 C515 1.279 . S
C512 C510 1.348 . S
C512 C514 1.353 . S
C512 H554 0.929 . S
C513 C510 1.356 . S
C513 C515 1.358 . S
C513 H555 0.930 . S
C514 N511 1.314 . S
C514 C512 1.353 . S
C514 H556 0.930 . S
C515 N511 1.279 . S
C515 C513 1.358 . S
C515 H557 0.930 . S
C516 C517 1.348 . S
C516 C518 1.356 . S
C516 O541 1.325 . S
C517 C516 1.348 . S
C517 C519 1.353 . S
C517 H558 0.929 . S
C518 C516 1.356 . S
C518 C520 1.358 . S
C518 H559 0.930 . S
C519 C517 1.353 . S
C519 N521 1.314 . S
C519 H560 0.930 . S
C520 C518 1.358 . S
C520 N521 1.279 . S
C520 H561 0.930 . S
N521 C519 1.314 . S
N521 C520 1.279 . S
C522 C524 1.353 . S
C522 N525 1.314 . S
C522 H528 0.930 . S
C523 N525 1.279 . S
C523 C526 1.401 . S
C523 H529 0.930 . S
C524 C522 1.353 . S
C524 C527 1.348 . S
C524 H562 0.929 . S
N525 Li480 1.990 . S
N525 C522 1.314 . S
N525 C523 1.279 . S
C526 C523 1.401 . S
C526 C527 1.361 . S
C526 H563 0.882 1_554 S
C527 C524 1.348 . S
C527 C526 1.361 . S
H528 C522 0.930 . S
H529 C523 0.930 . S
C530 N531 1.314 . S
C530 C532 1.353 . S
C530 H536 0.930 . S
N531 Li481 1.990 . S
N531 C530 1.314 . S
N531 C534 1.279 . S
C532 C530 1.353 . S
C532 C535 1.348 . S
C532 H564 0.929 . S
C533 C534 1.358 . S
C533 C535 1.356 . S
C533 H565 0.930 . S
C534 N531 1.279 . S
C534 C533 1.358 . S
C534 H537 0.930 . S
C535 C532 1.348 . S
C535 C533 1.356 . S
H536 C530 0.930 . S
H537 C534 0.930 . S
O538 Li478 1.956 . S
O538 Li479 1.970 . S
O538 Li480 1.961 . S
O538 C482 1.325 . S
O539 Li478 1.970 . S
O539 Li479 1.956 . S
O539 Li481 1.961 . S
O539 C488 1.325 . S
O540 Li478 1.961 . S
O540 Li480 1.956 . S
O540 Li481 1.970 . S
O540 C510 1.325 . S
O541 Li479 1.961 . S
O541 Li480 1.970 . S
O541 Li481 1.956 . S
O541 C516 1.325 . S
H542 C484 0.929 . S
H543 C485 0.930 . S
H544 C486 0.930 . S
H545 C487 0.930 . S
H546 C489 0.930 . S
H547 C491 0.929 . S
H548 C492 0.930 . S
H549 C493 0.930 . S
H550 C496 0.930 . S
H551 C499 0.929 . S
H552 C504 0.929 . S
H553 C505 0.930 . S
H554 C512 0.929 . S
H555 C513 0.930 . S
H556 C514 0.930 . S
H557 C515 0.930 . S
H558 C517 0.929 . S
H559 C518 0.930 . S
H560 C519 0.930 . S
H561 C520 0.930 . S
H562 C524 0.929 . S
H563 C526 0.882 1_556 S
H564 C532 0.929 . S
H565 C533 0.930 . S
Li566 N583 1.990 . S
Li566 O626 1.956 . S
Li566 O627 1.970 . S
Li566 O628 1.961 . S
Li567 N591 1.990 . S
Li567 O626 1.970 . S
Li567 O627 1.956 . S
Li567 O629 1.961 . S
Li568 N613 1.990 . S
Li568 O626 1.961 . S
Li568 O628 1.956 . S
Li568 O629 1.970 . S
Li569 N619 1.990 . S
Li569 O627 1.961 . S
Li569 O628 1.970 . S
Li569 O629 1.956 . S
C570 C572 1.348 . S
C570 C573 1.356 . S
C570 O626 1.325 . S
N571 C574 1.314 . S
N571 C575 1.279 . S
C572 C570 1.348 . S
C572 C574 1.353 . S
C572 H630 0.929 . S
C573 C570 1.356 . S
C573 C575 1.358 . S
C573 H631 0.930 . S
C574 N571 1.314 . S
C574 C572 1.353 . S
C574 H632 0.930 . S
C575 N571 1.279 . S
C575 C573 1.358 . S
C575 H633 0.930 . S
C576 C579 1.348 . S
C576 C580 1.356 . S
C576 O627 1.325 . S
C577 N578 1.279 . S
C577 C580 1.358 . S
C577 H634 0.930 . S
N578 C577 1.279 . S
N578 C581 1.314 . S
C579 C576 1.348 . S
C579 C581 1.353 . S
C579 H635 0.929 . S
C580 C576 1.356 . S
C580 C577 1.358 . S
C580 H636 0.930 . S
C581 N578 1.314 . S
C581 C579 1.353 . S
C581 H637 0.930 . S
C582 N583 1.314 . S
C582 C587 1.353 . S
C582 H588 0.930 . S
N583 Li566 1.990 . S
N583 C582 1.314 . S
N583 C585 1.279 . S
C584 C585 1.358 . S
C584 C586 1.356 . S
C584 H638 0.930 . S
C585 N583 1.279 . S
C585 C584 1.358 . S
C585 H589 0.930 . S
C586 C584 1.356 . S
C586 C587 1.348 . S
C587 C582 1.353 . S
C587 C586 1.348 . S
C587 H639 0.929 . S
H588 C582 0.930 . S
H589 C585 0.930 . S
C590 N591 1.314 . S
C590 C592 1.353 . S
C590 H596 0.930 . S
N591 Li567 1.990 . S
N591 C590 1.314 . S
N591 C594 1.279 . S
C592 C590 1.353 . S
C592 C595 1.348 . S
C592 H640 0.929 . S
C593 C594 1.358 . S
C593 C595 1.356 . S
C593 H641 0.930 . S
C594 N591 1.279 . S
C594 C593 1.358 . S
C594 H597 0.930 . S
C595 C592 1.348 . S
C595 C593 1.356 . S
H596 C590 0.930 . S
H597 C594 0.930 . S
C598 C600 1.348 . S
C598 C601 1.356 . S
C598 O628 1.325 . S
N599 C602 1.314 . S
N599 C603 1.279 . S
C600 C598 1.348 . S
C600 C602 1.353 . S
C600 H642 0.929 . S
C601 C598 1.356 . S
C601 C603 1.358 . S
C601 H643 0.930 . S
C602 N599 1.314 . S
C602 C600 1.353 . S
C602 H644 0.930 . S
C603 N599 1.279 . S
C603 C601 1.358 . S
C603 H645 0.930 . S
C604 C605 1.348 . S
C604 C606 1.356 . S
C604 O629 1.325 . S
C605 C604 1.348 . S
C605 C607 1.353 . S
C605 H646 0.929 . S
C606 C604 1.356 . S
C606 C608 1.358 . S
C606 H647 0.930 . S
C607 C605 1.353 . S
C607 N609 1.314 . S
C607 H648 0.930 . S
C608 C606 1.358 . S
C608 N609 1.279 . S
C608 H649 0.930 . S
N609 C607 1.314 . S
N609 C608 1.279 . S
C610 C612 1.353 . S
C610 N613 1.314 . S
C610 H616 0.930 . S
C611 N613 1.279 . S
C611 C614 1.358 . S
C611 H617 0.930 . S
C612 C610 1.353 . S
C612 C615 1.348 . S
C612 H650 0.929 . S
N613 Li568 1.990 . S
N613 C610 1.314 . S
N613 C611 1.279 . S
C614 C611 1.358 . S
C614 C615 1.356 . S
C614 H651 0.930 . S
C615 C612 1.348 . S
C615 C614 1.356 . S
H616 C610 0.930 . S
H617 C611 0.930 . S
C618 N619 1.314 . S
C618 C620 1.353 . S
C618 H624 0.930 . S
N619 Li569 1.990 . S
N619 C618 1.314 . S
N619 C622 1.279 . S
C620 C618 1.353 . S
C620 C623 1.348 . S
C620 H652 0.929 . S
C621 C622 1.358 . S
C621 C623 1.356 . S
C621 H653 0.930 . S
C622 N619 1.279 . S
C622 C621 1.358 . S
C622 H625 0.930 . S
C623 C620 1.348 . S
C623 C621 1.356 . S
H624 C618 0.930 . S
H625 C622 0.930 . S
O626 Li566 1.956 . S
O626 Li567 1.970 . S
O626 Li568 1.961 . S
O626 C570 1.325 . S
O627 Li566 1.970 . S
O627 Li567 1.956 . S
O627 Li569 1.961 . S
O627 C576 1.325 . S
O628 Li566 1.961 . S
O628 Li568 1.956 . S
O628 Li569 1.970 . S
O628 C598 1.325 . S
O629 Li567 1.961 . S
O629 Li568 1.970 . S
O629 Li569 1.956 . S
O629 C604 1.325 . S
H630 C572 0.929 . S
H631 C573 0.930 . S
H632 C574 0.930 . S
H633 C575 0.930 . S
H634 C577 0.930 . S
H635 C579 0.929 . S
H636 C580 0.930 . S
H637 C581 0.930 . S
H638 C584 0.930 . S
H639 C587 0.929 . S
H640 C592 0.929 . S
H641 C593 0.930 . S
H642 C600 0.929 . S
H643 C601 0.930 . S
H644 C602 0.930 . S
H645 C603 0.930 . S
H646 C605 0.929 . S
H647 C606 0.930 . S
H648 C607 0.930 . S
H649 C608 0.930 . S
H650 C612 0.929 . S
H651 C614 0.930 . S
H652 C620 0.929 . S
H653 C621 0.930 . S
C654 C655 1.349 . S
C654 C656 1.327 . S
C654 H679 0.950 . S
C655 C654 1.349 . S
C655 C671 1.349 . S
C656 C654 1.327 . S
C656 C675 1.429 . S
C656 H680 0.950 . S
C657 C674 1.574 . S
C657 C676 1.368 . S
C657 H681 0.949 . S
H658 C662 0.949 . S
C659 C660 1.349 . S
C659 C661 1.327 . S
C659 H682 0.950 . S
C660 C659 1.349 . S
C660 C672 1.349 . S
C661 C659 1.327 . S
C661 C677 1.429 . S
C661 H683 0.950 . S
C662 H658 0.949 . S
C662 C670 1.574 . S
C662 C678 1.368 . S
H663 C671 0.950 . S
H664 C669 0.950 . S
H665 C670 0.949 . S
H666 C672 0.950 . S
H667 C673 0.950 . S
H668 C674 0.949 . S
C669 H664 0.950 . S
C669 C671 1.327 . S
C669 C675 1.429 . S
C670 C662 1.574 . S
C670 H665 0.949 . S
C670 C676 1.368 . S
C671 C655 1.349 . S
C671 H663 0.950 . S
C671 C669 1.327 . S
C672 C660 1.349 . S
C672 H666 0.950 . S
C672 C673 1.327 . S
C673 H667 0.950 . S
C673 C672 1.327 . S
C673 C677 1.429 . S
C674 C657 1.574 . S
C674 H668 0.949 . S
C674 C678 1.368 . S
C675 C656 1.429 . S
C675 C669 1.429 . S
C675 C676 1.523 . S
C676 C657 1.368 . S
C676 C670 1.368 . S
C676 C675 1.523 . S
C677 C661 1.429 . S
C677 C673 1.429 . S
C677 C678 1.523 . S
C678 C662 1.368 . S
C678 C674 1.368 . S
C678 C677 1.523 . S
H679 C654 0.950 . S
H680 C656 0.950 . S
H681 C657 0.949 . S
H682 C659 0.950 . S
H683 C661 0.950 . S
C684 C685 1.349 . S
C684 C686 1.327 . S
C684 H709 0.950 . S
C685 C684 1.349 . S
C685 C701 1.349 . S
C686 C684 1.327 . S
C686 C705 1.429 . S
C686 H710 0.950 . S
C687 C704 1.574 . S
C687 C706 1.368 . S
C687 H711 0.949 . S
H688 C692 0.949 . S
C689 C690 1.349 . S
C689 C691 1.327 . S
C689 H712 0.950 . S
C690 C689 1.349 . S
C690 C702 1.349 . S
C691 C689 1.327 . S
C691 C707 1.429 . S
C691 H713 0.950 . S
C692 H688 0.949 . S
C692 C700 1.574 . S
C692 C708 1.368 . S
H693 C701 0.950 . S
H694 C699 0.950 . S
H695 C700 0.949 . S
H696 C702 0.950 . S
H697 C703 0.950 . S
H698 C704 0.949 . S
C699 H694 0.950 . S
C699 C701 1.327 . S
C699 C705 1.429 . S
C700 C692 1.574 . S
C700 H695 0.949 . S
C700 C706 1.368 . S
C701 C685 1.349 . S
C701 H693 0.950 . S
C701 C699 1.327 . S
C702 C690 1.349 . S
C702 H696 0.950 . S
C702 C703 1.327 . S
C703 H697 0.950 . S
C703 C702 1.327 . S
C703 C707 1.429 . S
C704 C687 1.574 . S
C704 H698 0.949 . S
C704 C708 1.368 . S
C705 C686 1.429 . S
C705 C699 1.429 . S
C705 C706 1.523 . S
C706 C687 1.368 . S
C706 C700 1.368 . S
C706 C705 1.523 . S
C707 C691 1.429 . S
C707 C703 1.429 . S
C707 C708 1.523 . S
C708 C692 1.368 . S
C708 C704 1.368 . S
C708 C707 1.523 . S
H709 C684 0.950 . S
H710 C686 0.950 . S
H711 C687 0.949 . S
H712 C689 0.950 . S
H713 C691 0.950 . S
C714 C715 1.349 . S
C714 C716 1.327 . S
C714 H739 0.950 . S
C715 C714 1.349 . S
C715 C731 1.349 . S
C716 C714 1.327 . S
C716 C735 1.429 . S
C716 H740 0.950 . S
C717 C734 1.574 . S
C717 C736 1.368 . S
C717 H741 0.949 . S
H718 C722 0.949 . S
C719 C720 1.349 . S
C719 C721 1.327 . S
C719 H742 0.950 . S
C720 C719 1.349 . S
C720 C732 1.349 . S
C721 C719 1.327 . S
C721 C737 1.429 . S
C721 H743 0.950 . S
C722 H718 0.949 . S
C722 C730 1.574 . S
C722 C738 1.368 . S
H723 C731 0.950 . S
H724 C729 0.950 . S
H725 C730 0.949 . S
H726 C732 0.950 . S
H727 C733 0.950 . S
H728 C734 0.949 . S
C729 H724 0.950 . S
C729 C731 1.327 . S
C729 C735 1.429 . S
C730 C722 1.574 . S
C730 H725 0.949 . S
C730 C736 1.368 . S
C731 C715 1.349 . S
C731 H723 0.950 . S
C731 C729 1.327 . S
C732 C720 1.349 . S
C732 H726 0.950 . S
C732 C733 1.327 . S
C733 H727 0.950 . S
C733 C732 1.327 . S
C733 C737 1.429 . S
C734 C717 1.574 . S
C734 H728 0.949 . S
C734 C738 1.368 . S
C735 C716 1.429 . S
C735 C729 1.429 . S
C735 C736 1.523 . S
C736 C717 1.368 . S
C736 C730 1.368 . S
C736 C735 1.523 . S
C737 C721 1.429 . S
C737 C733 1.429 . S
C737 C738 1.523 . S
C738 C722 1.368 . S
C738 C734 1.368 . S
C738 C737 1.523 . S
H739 C714 0.950 . S
H740 C716 0.950 . S
H741 C717 0.949 . S
H742 C719 0.950 . S
H743 C721 0.950 . S
C744 C745 1.349 . S
C744 C746 1.327 . S
C744 H769 0.950 . S
C745 C744 1.349 . S
C745 C761 1.349 . S
C746 C744 1.327 . S
C746 C765 1.429 . S
C746 H770 0.950 . S
C747 C764 1.574 . S
C747 C766 1.368 . S
C747 H771 0.949 . S
H748 C752 0.949 . S
C749 C750 1.349 . S
C749 C751 1.327 . S
C749 H772 0.950 . S
C750 C749 1.349 . S
C750 C762 1.349 . S
C751 C749 1.327 . S
C751 C767 1.429 . S
C751 H773 0.950 . S
C752 H748 0.949 . S
C752 C760 1.574 . S
C752 C768 1.368 . S
H753 C761 0.950 . S
H754 C759 0.950 . S
H755 C760 0.949 . S
H756 C762 0.950 . S
H757 C763 0.950 . S
H758 C764 0.949 . S
C759 H754 0.950 . S
C759 C761 1.327 . S
C759 C765 1.429 . S
C760 C752 1.574 . S
C760 H755 0.949 . S
C760 C766 1.368 . S
C761 C745 1.349 . S
C761 H753 0.950 . S
C761 C759 1.327 . S
C762 C750 1.349 . S
C762 H756 0.950 . S
C762 C763 1.327 . S
C763 H757 0.950 . S
C763 C762 1.327 . S
C763 C767 1.429 . S
C764 C747 1.574 . S
C764 H758 0.949 . S
C764 C768 1.368 . S
C765 C746 1.429 . S
C765 C759 1.429 . S
C765 C766 1.523 . S
C766 C747 1.368 . S
C766 C760 1.368 . S
C766 C765 1.523 . S
C767 C751 1.429 . S
C767 C763 1.429 . S
C767 C768 1.523 . S
C768 C752 1.368 . S
C768 C764 1.368 . S
C768 C767 1.523 . S
H769 C744 0.950 . S
H770 C746 0.950 . S
H771 C747 0.949 . S
H772 C749 0.950 . S
H773 C751 0.950 . S
C774 C775 1.349 . S
C774 C776 1.327 . S
C774 H799 0.950 . S
C775 C774 1.349 . S
C775 C791 1.349 . S
C776 C774 1.327 . S
C776 C795 1.429 . S
C776 H800 0.950 . S
C777 C794 1.574 . S
C777 C796 1.368 . S
C777 H801 0.949 . S
H778 C782 0.949 . S
C779 C780 1.349 . S
C779 C781 1.327 . S
C779 H802 0.950 . S
C780 C779 1.349 . S
C780 C792 1.349 . S
C781 C779 1.327 . S
C781 C797 1.429 . S
C781 H803 0.950 . S
C782 H778 0.949 . S
C782 C790 1.574 . S
C782 C798 1.368 . S
H783 C791 0.953 1_554 S
H784 C789 0.950 . S
H785 C790 0.949 . S
H786 C792 0.950 . S
H787 C793 0.950 . S
H788 C794 0.949 . S
C789 H784 0.950 . S
C789 C791 1.327 . S
C789 C795 1.429 . S
C790 C782 1.574 . S
C790 H785 0.949 . S
C790 C796 1.368 . S
C791 C775 1.349 . S
C791 H783 0.953 1_556 S
C791 C789 1.327 . S
C792 C780 1.349 . S
C792 H786 0.950 . S
C792 C793 1.327 . S
C793 H787 0.950 . S
C793 C792 1.327 . S
C793 C797 1.429 . S
C794 C777 1.574 . S
C794 H788 0.949 . S
C794 C798 1.368 . S
C795 C776 1.429 . S
C795 C789 1.429 . S
C795 C796 1.523 . S
C796 C777 1.368 . S
C796 C790 1.368 . S
C796 C795 1.523 . S
C797 C781 1.429 . S
C797 C793 1.429 . S
C797 C798 1.523 . S
C798 C782 1.368 . S
C798 C794 1.368 . S
C798 C797 1.523 . S
H799 C774 0.950 . S
H800 C776 0.950 . S
H801 C777 0.949 . S
H802 C779 0.950 . S
H803 C781 0.950 . S
C804 C805 1.349 . S
C804 C806 1.327 . S
C804 H829 0.950 . S
C805 C804 1.349 . S
C805 C821 1.349 . S
C806 C804 1.327 . S
C806 C825 1.429 . S
C806 H830 0.950 . S
C807 C824 1.574 . S
C807 C826 1.368 . S
C807 H831 0.949 . S
H808 C812 0.949 . S
C809 C810 1.349 . S
C809 C811 1.327 . S
C809 H832 0.950 . S
C810 C809 1.349 . S
C810 C822 1.349 . S
C811 C809 1.327 . S
C811 C827 1.429 . S
C811 H833 0.950 . S
C812 H808 0.949 . S
C812 C820 1.574 . S
C812 C828 1.368 . S
H813 C821 0.950 . S
H814 C819 0.950 . S
H815 C820 0.949 . S
H816 C822 0.950 . S
H817 C823 0.950 . S
H818 C824 0.949 . S
C819 H814 0.950 . S
C819 C821 1.327 . S
C819 C825 1.429 . S
C820 C812 1.574 . S
C820 H815 0.949 . S
C820 C826 1.368 . S
C821 C805 1.349 . S
C821 H813 0.950 . S
C821 C819 1.327 . S
C822 C810 1.349 . S
C822 H816 0.950 . S
C822 C823 1.327 . S
C823 H817 0.950 . S
C823 C822 1.327 . S
C823 C827 1.429 . S
C824 C807 1.574 . S
C824 H818 0.949 . S
C824 C828 1.368 . S
C825 C806 1.429 . S
C825 C819 1.429 . S
C825 C826 1.523 . S
C826 C807 1.368 . S
C826 C820 1.368 . S
C826 C825 1.523 . S
C827 C811 1.429 . S
C827 C823 1.429 . S
C827 C828 1.523 . S
C828 C812 1.368 . S
C828 C824 1.368 . S
C828 C827 1.523 . S
H829 C804 0.950 . S
H830 C806 0.950 . S
H831 C807 0.949 . S
H832 C809 0.950 . S
H833 C811 0.950 . S
C834 C835 1.349 . S
C834 C836 1.327 . S
C834 H859 0.950 . S
C835 C834 1.349 . S
C835 C851 1.349 . S
C836 C834 1.327 . S
C836 C855 1.429 . S
C836 H860 0.950 . S
C837 C854 1.574 . S
C837 C856 1.368 . S
C837 H861 0.949 . S
H838 C842 0.949 . S
C839 C840 1.349 . S
C839 C841 1.327 . S
C839 H862 0.950 . S
C840 C839 1.349 . S
C840 C852 1.349 . S
C841 C839 1.327 . S
C841 C857 1.429 . S
C841 H863 0.950 . S
C842 H838 0.949 . S
C842 C850 1.574 . S
C842 C858 1.368 . S
H843 C851 0.950 . S
H844 C849 0.950 . S
H845 C850 0.949 . S
H846 C852 0.950 . S
H847 C853 0.950 . S
H848 C854 0.949 . S
C849 H844 0.950 . S
C849 C851 1.327 . S
C849 C855 1.429 . S
C850 C842 1.574 . S
C850 H845 0.949 . S
C850 C856 1.368 . S
C851 C835 1.349 . S
C851 H843 0.950 . S
C851 C849 1.327 . S
C852 C840 1.349 . S
C852 H846 0.950 . S
C852 C853 1.327 . S
C853 H847 0.950 . S
C853 C852 1.327 . S
C853 C857 1.429 . S
C854 C837 1.574 . S
C854 H848 0.949 . S
C854 C858 1.368 . S
C855 C836 1.429 . S
C855 C849 1.429 . S
C855 C856 1.523 . S
C856 C837 1.368 . S
C856 C850 1.368 . S
C856 C855 1.523 . S
C857 C841 1.429 . S
C857 C853 1.429 . S
C857 C858 1.523 . S
C858 C842 1.368 . S
C858 C854 1.368 . S
C858 C857 1.523 . S
H859 C834 0.950 . S
H860 C836 0.950 . S
H861 C837 0.949 . S
H862 C839 0.950 . S
H863 C841 0.950 . S
C864 C865 1.349 . S
C864 C866 1.327 . S
C864 H889 0.950 . S
C865 C864 1.349 . S
C865 C881 1.349 . S
C866 C864 1.327 . S
C866 C885 1.429 . S
C866 H890 0.950 . S
C867 C884 1.574 . S
C867 C886 1.368 . S
C867 H891 0.949 . S
H868 C872 0.949 . S
C869 C870 1.349 . S
C869 C871 1.327 . S
C869 H892 0.950 . S
C870 C869 1.349 . S
C870 C882 1.349 . S
C871 C869 1.327 . S
C871 C887 1.429 . S
C871 H893 0.950 . S
C872 H868 0.949 . S
C872 C880 1.574 . S
C872 C888 1.368 . S
H873 C881 0.950 . S
H874 C879 0.950 . S
H875 C880 0.949 . S
H876 C882 0.950 . S
H877 C883 0.950 . S
H878 C884 0.949 . S
C879 H874 0.950 . S
C879 C881 1.327 . S
C879 C885 1.429 . S
C880 C872 1.574 . S
C880 H875 0.949 . S
C880 C886 1.368 . S
C881 C865 1.349 . S
C881 H873 0.950 . S
C881 C879 1.327 . S
C882 C870 1.349 . S
C882 H876 0.950 . S
C882 C883 1.327 . S
C883 H877 0.950 . S
C883 C882 1.327 . S
C883 C887 1.429 . S
C884 C867 1.574 . S
C884 H878 0.949 . S
C884 C888 1.368 . S
C885 C866 1.429 . S
C885 C879 1.429 . S
C885 C886 1.523 . S
C886 C867 1.368 . S
C886 C880 1.368 . S
C886 C885 1.523 . S
C887 C871 1.429 . S
C887 C883 1.429 . S
C887 C888 1.523 . S
C888 C872 1.368 . S
C888 C884 1.368 . S
C888 C887 1.523 . S
H889 C864 0.950 . S
H890 C866 0.950 . S
H891 C867 0.949 . S
H892 C869 0.950 . S
H893 C871 0.950 . S
C894 C895 1.349 . S
C894 C896 1.327 . S
C894 H919 0.950 . S
C895 C894 1.349 . S
C895 C911 1.349 . S
C896 C894 1.327 . S
C896 C915 1.429 . S
C896 H920 0.950 . S
C897 C914 1.574 . S
C897 C916 1.368 . S
C897 H921 0.949 . S
H898 C902 0.949 . S
C899 C900 1.349 . S
C899 C901 1.327 . S
C899 H922 0.950 . S
C900 C899 1.349 . S
C900 C912 1.349 . S
C901 C899 1.327 . S
C901 C917 1.429 . S
C901 H923 0.950 . S
C902 H898 0.949 . S
C902 C910 1.574 . S
C902 C918 1.368 . S
H903 C911 0.950 . S
H904 C909 0.950 . S
H905 C910 0.949 . S
H906 C912 0.950 . S
H907 C913 0.950 . S
H908 C914 0.949 . S
C909 H904 0.950 . S
C909 C911 1.327 . S
C909 C915 1.429 . S
C910 C902 1.574 . S
C910 H905 0.949 . S
C910 C916 1.368 . S
C911 C895 1.349 . S
C911 H903 0.950 . S
C911 C909 1.327 . S
C912 C900 1.349 . S
C912 H906 0.950 . S
C912 C913 1.327 . S
C913 H907 0.950 . S
C913 C912 1.327 . S
C913 C917 1.429 . S
C914 C897 1.574 . S
C914 H908 0.949 . S
C914 C918 1.368 . S
C915 C896 1.429 . S
C915 C909 1.429 . S
C915 C916 1.523 . S
C916 C897 1.368 . S
C916 C910 1.368 . S
C916 C915 1.523 . S
C917 C901 1.429 . S
C917 C913 1.429 . S
C917 C918 1.523 . S
C918 C902 1.368 . S
C918 C914 1.368 . S
C918 C917 1.523 . S
H919 C894 0.950 . S
H920 C896 0.950 . S
H921 C897 0.949 . S
H922 C899 0.950 . S
H923 C901 0.950 . S
C924 C925 1.349 . S
C924 C926 1.327 . S
C924 H949 0.950 . S
C925 C924 1.349 . S
C925 C941 1.349 1_554 S
C926 C924 1.327 . S
C926 C945 1.429 . S
C926 H950 0.950 . S
C927 C944 1.574 . S
C927 C946 1.368 . S
C927 H951 0.949 . S
H928 C932 0.949 . S
C929 C930 1.349 . S
C929 C931 1.327 . S
C929 H952 0.950 . S
C930 C929 1.349 . S
C930 C942 1.349 . S
C931 C929 1.327 . S
C931 C947 1.429 . S
C931 H953 0.950 . S
C932 H928 0.949 . S
C932 C940 1.574 . S
C932 C948 1.368 . S
H933 C941 0.950 . S
H934 C939 0.950 1_556 S
H935 C940 0.949 . S
H936 C942 0.950 . S
H937 C943 0.950 . S
H938 C944 0.949 . S
C939 H934 0.950 1_554 S
C939 C941 1.327 1_554 S
C939 C945 1.429 . S
C940 C932 1.574 . S
C940 H935 0.949 . S
C940 C946 1.368 . S
C941 C925 1.349 1_556 S
C941 H933 0.950 . S
C941 C939 1.327 1_556 S
C942 C930 1.349 . S
C942 H936 0.950 . S
C942 C943 1.327 . S
C943 H937 0.950 . S
C943 C942 1.327 . S
C943 C947 1.429 . S
C944 C927 1.574 . S
C944 H938 0.949 . S
C944 C948 1.368 . S
C945 C926 1.429 . S
C945 C939 1.429 . S
C945 C946 1.523 . S
C946 C927 1.368 . S
C946 C940 1.368 . S
C946 C945 1.523 . S
C947 C931 1.429 . S
C947 C943 1.429 . S
C947 C948 1.523 . S
C948 C932 1.368 . S
C948 C944 1.368 . S
C948 C947 1.523 . S
H949 C924 0.950 . S
H950 C926 0.950 . S
H951 C927 0.949 . S
H952 C929 0.950 . S
H953 C931 0.950 . S
C954 C955 1.349 . S
C954 C956 1.327 . S
C954 H979 0.950 . S
C955 C954 1.349 . S
C955 C971 1.349 . S
C956 C954 1.327 . S
C956 C975 1.429 . S
C956 H980 0.950 . S
C957 C974 1.574 . S
C957 C976 1.368 . S
C957 H981 0.949 . S
H958 C962 0.949 . S
C959 C960 1.349 . S
C959 C961 1.327 . S
C959 H982 0.950 . S
C960 C959 1.349 . S
C960 C972 1.349 . S
C961 C959 1.327 . S
C961 C977 1.429 . S
C961 H983 0.950 . S
C962 H958 0.949 . S
C962 C970 1.574 . S
C962 C978 1.368 . S
H963 C971 0.950 . S
H964 C969 0.950 . S
H965 C970 0.949 . S
H966 C972 0.950 . S
H967 C973 0.950 . S
H968 C974 0.949 . S
C969 H964 0.950 . S
C969 C971 1.327 . S
C969 C975 1.429 . S
C970 C962 1.574 . S
C970 H965 0.949 . S
C970 C976 1.368 . S
C971 C955 1.349 . S
C971 H963 0.950 . S
C971 C969 1.327 . S
C972 C960 1.349 . S
C972 H966 0.950 . S
C972 C973 1.327 . S
C973 H967 0.950 . S
C973 C972 1.327 . S
C973 C977 1.429 . S
C974 C957 1.574 . S
C974 H968 0.949 . S
C974 C978 1.368 . S
C975 C956 1.429 . S
C975 C969 1.429 . S
C975 C976 1.523 . S
C976 C957 1.368 . S
C976 C970 1.368 . S
C976 C975 1.523 . S
C977 C961 1.429 . S
C977 C973 1.429 . S
C977 C978 1.523 . S
C978 C962 1.368 . S
C978 C974 1.368 . S
C978 C977 1.523 . S
H979 C954 0.950 . S
H980 C956 0.950 . S
H981 C957 0.949 . S
H982 C959 0.950 . S
H983 C961 0.950 . S
C984 C985 1.349 . S
C984 C986 1.327 . S
C984 H1009 0.950 . S
C985 C984 1.349 . S
C985 C1001 1.349 . S
C986 C984 1.327 . S
C986 C1005 1.429 . S
C986 H1010 0.950 . S
C987 C1004 1.574 . S
C987 C1006 1.368 . S
C987 H1011 0.949 . S
H988 C992 0.949 . S
C989 C990 1.349 . S
C989 C991 1.327 . S
C989 H1012 0.950 . S
C990 C989 1.349 . S
C990 C1002 1.349 . S
C991 C989 1.327 . S
C991 C1007 1.429 . S
C991 H1013 0.950 . S
C992 H988 0.949 . S
C992 C1000 1.574 . S
C992 C1008 1.368 . S
H993 C1001 0.950 . S
H994 C999 0.950 . S
H995 C1000 0.949 . S
H996 C1002 0.950 . S
H997 C1003 0.950 . S
H998 C1004 0.949 . S
C999 H994 0.950 . S
C999 C1001 1.327 . S
C999 C1005 1.429 . S
C1000 C992 1.574 . S
C1000 H995 0.949 . S
C1000 C1006 1.368 . S
C1001 C985 1.349 . S
C1001 H993 0.950 . S
C1001 C999 1.327 . S
C1002 C990 1.349 . S
C1002 H996 0.950 . S
C1002 C1003 1.327 . S
C1003 H997 0.950 . S
C1003 C1002 1.327 . S
C1003 C1007 1.429 . S
C1004 C987 1.574 . S
C1004 H998 0.949 . S
C1004 C1008 1.368 . S
C1005 C986 1.429 . S
C1005 C999 1.429 . S
C1005 C1006 1.523 . S
C1006 C987 1.368 . S
C1006 C1000 1.368 . S
C1006 C1005 1.523 . S
C1007 C991 1.429 . S
C1007 C1003 1.429 . S
C1007 C1008 1.523 . S
C1008 C992 1.368 . S
C1008 C1004 1.368 . S
C1008 C1007 1.523 . S
H1009 C984 0.950 . S
H1010 C986 0.950 . S
H1011 C987 0.949 . S
H1012 C989 0.950 . S
H1013 C991 0.950 . S
C1014 C1015 1.349 . S
C1014 C1016 1.327 . S
C1014 H1039 0.950 . S
C1015 C1014 1.349 . S
C1015 C1031 1.349 . S
C1016 C1014 1.327 . S
C1016 C1035 1.429 . S
C1016 H1040 0.950 . S
C1017 C1034 1.574 . S
C1017 C1036 1.368 . S
C1017 H1041 0.949 . S
H1018 C1022 0.949 . S
C1019 C1020 1.349 . S
C1019 C1021 1.327 . S
C1019 H1042 0.950 . S
C1020 C1019 1.349 . S
C1020 C1032 1.349 . S
C1021 C1019 1.327 . S
C1021 C1037 1.429 . S
C1021 H1043 0.950 . S
C1022 H1018 0.949 . S
C1022 C1030 1.574 . S
C1022 C1038 1.368 . S
H1023 C1031 0.950 . S
H1024 C1029 0.950 . S
H1025 C1030 0.949 . S
H1026 C1032 0.950 . S
H1027 C1033 0.950 . S
H1028 C1034 0.949 . S
C1029 H1024 0.950 . S
C1029 C1031 1.327 . S
C1029 C1035 1.429 . S
C1030 C1022 1.574 . S
C1030 H1025 0.949 . S
C1030 C1036 1.368 . S
C1031 C1015 1.349 . S
C1031 H1023 0.950 . S
C1031 C1029 1.327 . S
C1032 C1020 1.349 . S
C1032 H1026 0.950 . S
C1032 C1033 1.327 . S
C1033 H1027 0.950 . S
C1033 C1032 1.327 . S
C1033 C1037 1.429 . S
C1034 C1017 1.574 . S
C1034 H1028 0.949 . S
C1034 C1038 1.368 . S
C1035 C1016 1.429 . S
C1035 C1029 1.429 . S
C1035 C1036 1.523 . S
C1036 C1017 1.368 . S
C1036 C1030 1.368 . S
C1036 C1035 1.523 . S
C1037 C1021 1.429 . S
C1037 C1033 1.429 . S
C1037 C1038 1.523 . S
C1038 C1022 1.368 . S
C1038 C1034 1.368 . S
C1038 C1037 1.523 . S
H1039 C1014 0.950 . S
H1040 C1016 0.950 . S
H1041 C1017 0.949 . S
H1042 C1019 0.950 . S
H1043 C1021 0.950 . S
C1044 C1045 1.349 . S
C1044 C1046 1.327 . S
C1044 H1069 0.950 . S
C1045 C1044 1.349 . S
C1045 C1061 1.349 . S
C1046 C1044 1.327 . S
C1046 C1065 1.429 . S
C1046 H1070 0.950 . S
C1047 C1064 1.574 . S
C1047 C1066 1.368 . S
C1047 H1071 0.949 . S
H1048 C1052 0.949 . S
C1049 C1050 1.349 . S
C1049 C1051 1.327 . S
C1049 H1072 0.950 . S
C1050 C1049 1.349 . S
C1050 C1062 1.349 . S
C1051 C1049 1.327 . S
C1051 C1067 1.429 . S
C1051 H1073 0.950 . S
C1052 H1048 0.949 . S
C1052 C1060 1.574 . S
C1052 C1068 1.368 . S
H1053 C1061 0.950 . S
H1054 C1059 0.950 . S
H1055 C1060 0.949 . S
H1056 C1062 0.950 . S
H1057 C1063 0.950 . S
H1058 C1064 0.949 . S
C1059 H1054 0.950 . S
C1059 C1061 1.327 . S
C1059 C1065 1.429 . S
C1060 C1052 1.574 . S
C1060 H1055 0.949 . S
C1060 C1066 1.368 . S
C1061 C1045 1.349 . S
C1061 H1053 0.950 . S
C1061 C1059 1.327 . S
C1062 C1050 1.349 . S
C1062 H1056 0.950 . S
C1062 C1063 1.327 . S
C1063 H1057 0.950 . S
C1063 C1062 1.327 . S
C1063 C1067 1.429 . S
C1064 C1047 1.574 . S
C1064 H1058 0.949 . S
C1064 C1068 1.368 . S
C1065 C1046 1.429 . S
C1065 C1059 1.429 . S
C1065 C1066 1.523 . S
C1066 C1047 1.368 . S
C1066 C1060 1.368 . S
C1066 C1065 1.523 . S
C1067 C1051 1.429 . S
C1067 C1063 1.429 . S
C1067 C1068 1.523 . S
C1068 C1052 1.368 . S
C1068 C1064 1.368 . S
C1068 C1067 1.523 . S
H1069 C1044 0.950 . S
H1070 C1046 0.950 . S
H1071 C1047 0.949 . S
H1072 C1049 0.950 . S
H1073 C1051 0.950 . S
C1074 C1075 1.349 . S
C1074 C1076 1.327 . S
C1074 H1099 0.950 . S
C1075 C1074 1.349 . S
C1075 C1091 1.349 . S
C1076 C1074 1.327 . S
C1076 C1095 1.429 . S
C1076 H1100 0.950 . S
C1077 C1094 1.574 . S
C1077 C1096 1.368 . S
C1077 H1101 0.949 . S
H1078 C1082 0.949 . S
C1079 C1080 1.349 . S
C1079 C1081 1.327 . S
C1079 H1102 0.950 . S
C1080 C1079 1.349 . S
C1080 C1092 1.349 . S
C1081 C1079 1.327 . S
C1081 C1097 1.429 . S
C1081 H1103 0.950 . S
C1082 H1078 0.949 . S
C1082 C1090 1.574 . S
C1082 C1098 1.368 . S
H1083 C1091 0.950 . S
H1084 C1089 0.950 . S
H1085 C1090 0.949 . S
H1086 C1092 0.950 . S
H1087 C1093 0.950 . S
H1088 C1094 0.949 . S
C1089 H1084 0.950 . S
C1089 C1091 1.327 . S
C1089 C1095 1.429 . S
C1090 C1082 1.574 . S
C1090 H1085 0.949 . S
C1090 C1096 1.368 . S
C1091 C1075 1.349 . S
C1091 H1083 0.950 . S
C1091 C1089 1.327 . S
C1092 C1080 1.349 . S
C1092 H1086 0.950 . S
C1092 C1093 1.327 . S
C1093 H1087 0.950 . S
C1093 C1092 1.327 . S
C1093 C1097 1.429 . S
C1094 C1077 1.574 . S
C1094 H1088 0.949 . S
C1094 C1098 1.368 . S
C1095 C1076 1.429 . S
C1095 C1089 1.429 . S
C1095 C1096 1.523 . S
C1096 C1077 1.368 . S
C1096 C1090 1.368 . S
C1096 C1095 1.523 . S
C1097 C1081 1.429 . S
C1097 C1093 1.429 . S
C1097 C1098 1.523 . S
C1098 C1082 1.368 . S
C1098 C1094 1.368 . S
C1098 C1097 1.523 . S
H1099 C1074 0.950 . S
H1100 C1076 0.950 . S
H1101 C1077 0.949 . S
H1102 C1079 0.950 . S
H1103 C1081 0.950 . S
C1104 C1105 1.349 . S
C1104 C1106 1.327 . S
C1104 H1129 0.950 . S
C1105 C1104 1.349 . S
C1105 C1121 1.349 . S
C1106 C1104 1.327 . S
C1106 C1125 1.429 . S
C1106 H1130 0.950 . S
C1107 C1124 1.574 . S
C1107 C1126 1.368 . S
C1107 H1131 0.949 . S
H1108 C1112 0.949 . S
C1109 C1110 1.349 . S
C1109 C1111 1.327 . S
C1109 H1132 0.950 . S
C1110 C1109 1.349 . S
C1110 C1122 1.349 . S
C1111 C1109 1.327 . S
C1111 C1127 1.429 . S
C1111 H1133 0.950 . S
C1112 H1108 0.949 . S
C1112 C1120 1.574 . S
C1112 C1128 1.368 . S
H1113 C1121 0.950 . S
H1114 C1119 0.950 . S
H1115 C1120 0.949 . S
H1116 C1122 0.950 . S
H1117 C1123 0.950 . S
H1118 C1124 0.949 . S
C1119 H1114 0.950 . S
C1119 C1121 1.327 . S
C1119 C1125 1.429 . S
C1120 C1112 1.574 . S
C1120 H1115 0.949 . S
C1120 C1126 1.368 . S
C1121 C1105 1.349 . S
C1121 H1113 0.950 . S
C1121 C1119 1.327 . S
C1122 C1110 1.349 . S
C1122 H1116 0.950 . S
C1122 C1123 1.327 . S
C1123 H1117 0.950 . S
C1123 C1122 1.327 . S
C1123 C1127 1.429 . S
C1124 C1107 1.574 . S
C1124 H1118 0.949 . S
C1124 C1128 1.368 . S
C1125 C1106 1.429 . S
C1125 C1119 1.429 . S
C1125 C1126 1.523 . S
C1126 C1107 1.368 . S
C1126 C1120 1.368 . S
C1126 C1125 1.523 . S
C1127 C1111 1.429 . S
C1127 C1123 1.429 . S
C1127 C1128 1.523 . S
C1128 C1112 1.368 . S
C1128 C1124 1.368 . S
C1128 C1127 1.523 . S
H1129 C1104 0.950 . S
H1130 C1106 0.950 . S
H1131 C1107 0.949 . S
H1132 C1109 0.950 . S
H1133 C1111 0.950 . S
C1134 C1135 1.349 . S
C1134 C1136 1.327 . S
C1134 H1159 0.950 . S
C1135 C1134 1.349 . S
C1135 C1151 1.349 . S
C1136 C1134 1.327 . S
C1136 C1155 1.429 . S
C1136 H1160 0.950 . S
C1137 C1154 1.574 . S
C1137 C1156 1.368 . S
C1137 H1161 0.949 . S
H1138 C1142 0.949 . S
C1139 C1140 1.349 . S
C1139 C1141 1.327 . S
C1139 H1162 0.950 . S
C1140 C1139 1.349 . S
C1140 C1152 1.349 . S
C1141 C1139 1.327 . S
C1141 C1157 1.429 . S
C1141 H1163 0.950 . S
C1142 H1138 0.949 . S
C1142 C1150 1.574 . S
C1142 C1158 1.368 . S
H1143 C1151 0.950 . S
H1144 C1149 0.950 . S
H1145 C1150 0.949 . S
H1146 C1152 0.950 . S
H1147 C1153 0.950 . S
H1148 C1154 0.949 . S
C1149 H1144 0.950 . S
C1149 C1151 1.327 . S
C1149 C1155 1.429 . S
C1150 C1142 1.574 . S
C1150 H1145 0.949 . S
C1150 C1156 1.368 . S
C1151 C1135 1.349 . S
C1151 H1143 0.950 . S
C1151 C1149 1.327 . S
C1152 C1140 1.349 . S
C1152 H1146 0.950 . S
C1152 C1153 1.327 . S
C1153 H1147 0.950 . S
C1153 C1152 1.327 . S
C1153 C1157 1.429 . S
C1154 C1137 1.574 . S
C1154 H1148 0.949 . S
C1154 C1158 1.368 . S
C1155 C1136 1.429 . S
C1155 C1149 1.429 . S
C1155 C1156 1.523 . S
C1156 C1137 1.368 . S
C1156 C1150 1.368 . S
C1156 C1155 1.523 . S
C1157 C1141 1.429 . S
C1157 C1153 1.429 . S
C1157 C1158 1.523 . S
C1158 C1142 1.368 . S
C1158 C1154 1.368 . S
C1158 C1157 1.523 . S
H1159 C1134 0.950 . S
H1160 C1136 0.950 . S
H1161 C1137 0.949 . S
H1162 C1139 0.950 . S
H1163 C1141 0.950 . S
C1164 C1165 1.349 . S
C1164 C1166 1.327 . S
C1164 H1189 0.950 . S
C1165 C1164 1.349 . S
C1165 C1181 1.349 . S
C1166 C1164 1.327 . S
C1166 C1185 1.429 . S
C1166 H1190 0.950 . S
C1167 C1184 1.574 . S
C1167 C1186 1.368 . S
C1167 H1191 0.949 . S
H1168 C1172 0.949 . S
C1169 C1170 1.349 . S
C1169 C1171 1.327 . S
C1169 H1192 0.950 . S
C1170 C1169 1.349 . S
C1170 C1182 1.349 . S
C1171 C1169 1.327 . S
C1171 C1187 1.429 . S
C1171 H1193 0.950 . S
C1172 H1168 0.949 . S
C1172 C1180 1.574 . S
C1172 C1188 1.368 . S
H1173 C1181 0.950 . S
H1174 C1179 0.950 . S
H1175 C1180 0.949 . S
H1176 C1182 0.950 . S
H1177 C1183 0.950 . S
H1178 C1184 0.949 . S
C1179 H1174 0.950 . S
C1179 C1181 1.327 . S
C1179 C1185 1.429 . S
C1180 C1172 1.574 . S
C1180 H1175 0.949 . S
C1180 C1186 1.368 . S
C1181 C1165 1.349 . S
C1181 H1173 0.950 . S
C1181 C1179 1.327 . S
C1182 C1170 1.349 . S
C1182 H1176 0.950 . S
C1182 C1183 1.327 . S
C1183 H1177 0.950 . S
C1183 C1182 1.327 . S
C1183 C1187 1.429 . S
C1184 C1167 1.574 . S
C1184 H1178 0.949 . S
C1184 C1188 1.368 . S
C1185 C1166 1.429 . S
C1185 C1179 1.429 . S
C1185 C1186 1.523 . S
C1186 C1167 1.368 . S
C1186 C1180 1.368 . S
C1186 C1185 1.523 . S
C1187 C1171 1.429 . S
C1187 C1183 1.429 . S
C1187 C1188 1.523 . S
C1188 C1172 1.368 . S
C1188 C1184 1.368 . S
C1188 C1187 1.523 . S
H1189 C1164 0.950 . S
H1190 C1166 0.950 . S
H1191 C1167 0.949 . S
H1192 C1169 0.950 . S
H1193 C1171 0.950 . S
C1194 C1195 1.349 . S
C1194 C1196 1.327 . S
C1194 H1219 0.950 . S
C1195 C1194 1.349 . S
C1195 C1211 1.349 . S
C1196 C1194 1.327 . S
C1196 C1215 1.429 . S
C1196 H1220 0.950 . S
C1197 C1214 1.574 . S
C1197 C1216 1.368 . S
C1197 H1221 0.949 . S
H1198 C1202 0.949 . S
C1199 C1200 1.349 . S
C1199 C1201 1.327 . S
C1199 H1222 0.950 . S
C1200 C1199 1.349 . S
C1200 C1212 1.349 . S
C1201 C1199 1.327 . S
C1201 C1217 1.429 . S
C1201 H1223 0.950 . S
C1202 H1198 0.949 . S
C1202 C1210 1.574 . S
C1202 C1218 1.368 . S
H1203 C1211 0.950 . S
H1204 C1209 0.950 . S
H1205 C1210 0.949 . S
H1206 C1212 0.950 . S
H1207 C1213 0.950 . S
H1208 C1214 0.949 . S
C1209 H1204 0.950 . S
C1209 C1211 1.327 . S
C1209 C1215 1.429 . S
C1210 C1202 1.574 . S
C1210 H1205 0.949 . S
C1210 C1216 1.368 . S
C1211 C1195 1.349 . S
C1211 H1203 0.950 . S
C1211 C1209 1.327 . S
C1212 C1200 1.349 . S
C1212 H1206 0.950 . S
C1212 C1213 1.327 . S
C1213 H1207 0.950 . S
C1213 C1212 1.327 . S
C1213 C1217 1.429 . S
C1214 C1197 1.574 . S
C1214 H1208 0.949 . S
C1214 C1218 1.368 . S
C1215 C1196 1.429 . S
C1215 C1209 1.429 . S
C1215 C1216 1.523 . S
C1216 C1197 1.368 . S
C1216 C1210 1.368 . S
C1216 C1215 1.523 . S
C1217 C1201 1.429 . S
C1217 C1213 1.429 . S
C1217 C1218 1.523 . S
C1218 C1202 1.368 . S
C1218 C1214 1.368 . S
C1218 C1217 1.523 . S
H1219 C1194 0.950 . S
H1220 C1196 0.950 . S
H1221 C1197 0.949 . S
H1222 C1199 0.950 . S
H1223 C1201 0.950 . S
C1224 C1225 1.349 . S
C1224 C1226 1.327 . S
C1224 H1249 0.950 . S
C1225 C1224 1.349 . S
C1225 C1241 1.349 . S
C1226 C1224 1.327 . S
C1226 C1245 1.429 . S
C1226 H1250 0.950 . S
C1227 C1244 1.574 . S
C1227 C1246 1.368 . S
C1227 H1251 0.949 . S
H1228 C1232 0.949 . S
C1229 C1230 1.349 . S
C1229 C1231 1.327 . S
C1229 H1252 0.950 . S
C1230 C1229 1.349 . S
C1230 C1242 1.349 . S
C1231 C1229 1.327 . S
C1231 C1247 1.429 . S
C1231 H1253 0.950 . S
C1232 H1228 0.949 . S
C1232 C1240 1.574 . S
C1232 C1248 1.368 . S
H1233 C1241 0.950 . S
H1234 C1239 0.950 . S
H1235 C1240 0.949 . S
H1236 C1242 0.950 . S
H1237 C1243 0.950 . S
H1238 C1244 0.949 . S
C1239 H1234 0.950 . S
C1239 C1241 1.327 . S
C1239 C1245 1.429 . S
C1240 C1232 1.574 . S
C1240 H1235 0.949 . S
C1240 C1246 1.368 . S
C1241 C1225 1.349 . S
C1241 H1233 0.950 . S
C1241 C1239 1.327 . S
C1242 C1230 1.349 . S
C1242 H1236 0.950 . S
C1242 C1243 1.327 . S
C1243 H1237 0.950 . S
C1243 C1242 1.327 . S
C1243 C1247 1.429 . S
C1244 C1227 1.574 . S
C1244 H1238 0.949 . S
C1244 C1248 1.368 . S
C1245 C1226 1.429 . S
C1245 C1239 1.429 . S
C1245 C1246 1.523 . S
C1246 C1227 1.368 . S
C1246 C1240 1.368 . S
C1246 C1245 1.523 . S
C1247 C1231 1.429 . S
C1247 C1243 1.429 . S
C1247 C1248 1.523 . S
C1248 C1232 1.368 . S
C1248 C1244 1.368 . S
C1248 C1247 1.523 . S
H1249 C1224 0.950 . S
H1250 C1226 0.950 . S
H1251 C1227 0.949 . S
H1252 C1229 0.950 . S
H1253 C1231 0.950 . S
C1254 C1255 1.349 . S
C1254 C1256 1.327 . S
C1254 H1279 0.950 . S
C1255 C1254 1.349 . S
C1255 C1271 1.349 . S
C1256 C1254 1.327 . S
C1256 C1275 1.429 . S
C1256 H1280 0.950 . S
C1257 C1274 1.574 . S
C1257 C1276 1.368 . S
C1257 H1281 0.949 . S
H1258 C1262 0.949 . S
C1259 C1260 1.349 . S
C1259 C1261 1.327 . S
C1259 H1282 0.950 . S
C1260 C1259 1.349 . S
C1260 C1272 1.349 . S
C1261 C1259 1.327 . S
C1261 C1277 1.429 . S
C1261 H1283 0.950 . S
C1262 H1258 0.949 . S
C1262 C1270 1.574 . S
C1262 C1278 1.368 . S
H1263 C1271 0.950 . S
H1264 C1269 0.950 . S
H1265 C1270 0.949 . S
H1266 C1272 0.950 . S
H1267 C1273 0.950 . S
H1268 C1274 0.949 . S
C1269 H1264 0.950 . S
C1269 C1271 1.327 . S
C1269 C1275 1.429 . S
C1270 C1262 1.574 . S
C1270 H1265 0.949 . S
C1270 C1276 1.368 . S
C1271 C1255 1.349 . S
C1271 H1263 0.950 . S
C1271 C1269 1.327 . S
C1272 C1260 1.349 . S
C1272 H1266 0.950 . S
C1272 C1273 1.327 . S
C1273 H1267 0.950 . S
C1273 C1272 1.327 . S
C1273 C1277 1.429 . S
C1274 C1257 1.574 . S
C1274 H1268 0.949 . S
C1274 C1278 1.368 . S
C1275 C1256 1.429 . S
C1275 C1269 1.429 . S
C1275 C1276 1.523 . S
C1276 C1257 1.368 . S
C1276 C1270 1.368 . S
C1276 C1275 1.523 . S
C1277 C1261 1.429 . S
C1277 C1273 1.429 . S
C1277 C1278 1.523 . S
C1278 C1262 1.368 . S
C1278 C1274 1.368 . S
C1278 C1277 1.523 . S
H1279 C1254 0.950 . S
H1280 C1256 0.950 . S
H1281 C1257 0.949 . S
H1282 C1259 0.950 . S
H1283 C1261 0.950 . S
C1284 C1285 1.349 . S
C1284 C1286 1.327 . S
C1284 H1309 0.950 . S
C1285 C1284 1.349 . S
C1285 C1301 1.349 . S
C1286 C1284 1.327 . S
C1286 C1305 1.429 . S
C1286 H1310 0.950 . S
C1287 C1304 1.574 . S
C1287 C1306 1.368 . S
C1287 H1311 0.949 . S
H1288 C1292 0.949 . S
C1289 C1290 1.349 . S
C1289 C1291 1.327 . S
C1289 H1312 0.950 . S
C1290 C1289 1.349 . S
C1290 C1302 1.349 . S
C1291 C1289 1.327 . S
C1291 C1307 1.429 . S
C1291 H1313 0.950 . S
C1292 H1288 0.949 . S
C1292 C1300 1.574 . S
C1292 C1308 1.368 . S
H1293 C1301 0.950 . S
H1294 C1299 0.950 . S
H1295 C1300 0.949 . S
H1296 C1302 0.950 . S
H1297 C1303 0.950 . S
H1298 C1304 0.949 . S
C1299 H1294 0.950 . S
C1299 C1301 1.327 . S
C1299 C1305 1.429 . S
C1300 C1292 1.574 . S
C1300 H1295 0.949 . S
C1300 C1306 1.368 . S
C1301 C1285 1.349 . S
C1301 H1293 0.950 . S
C1301 C1299 1.327 . S
C1302 C1290 1.349 . S
C1302 H1296 0.950 . S
C1302 C1303 1.327 . S
C1303 H1297 0.950 . S
C1303 C1302 1.327 . S
C1303 C1307 1.429 . S
C1304 C1287 1.574 . S
C1304 H1298 0.949 . S
C1304 C1308 1.368 . S
C1305 C1286 1.429 . S
C1305 C1299 1.429 . S
C1305 C1306 1.523 . S
C1306 C1287 1.368 . S
C1306 C1300 1.368 . S
C1306 C1305 1.523 . S
C1307 C1291 1.429 . S
C1307 C1303 1.429 . S
C1307 C1308 1.523 . S
C1308 C1292 1.368 . S
C1308 C1304 1.368 . S
C1308 C1307 1.523 . S
H1309 C1284 0.950 . S
H1310 C1286 0.950 . S
H1311 C1287 0.949 . S
H1312 C1289 0.950 . S
H1313 C1291 0.950 . S
C1314 C1315 1.349 . S
C1314 C1316 1.327 . S
C1314 H1339 0.950 . S
C1315 C1314 1.349 . S
C1315 C1331 1.349 . S
C1316 C1314 1.327 . S
C1316 C1335 1.429 . S
C1316 H1340 0.950 . S
C1317 C1334 1.574 . S
C1317 C1336 1.368 . S
C1317 H1341 0.949 . S
H1318 C1322 0.949 . S
C1319 C1320 1.349 . S
C1319 C1321 1.327 . S
C1319 H1342 0.950 1_554 S
C1320 C1319 1.349 . S
C1320 C1332 1.349 . S
C1321 C1319 1.327 . S
C1321 C1337 1.429 . S
C1321 H1343 0.950 . S
C1322 H1318 0.949 . S
C1322 C1330 1.574 . S
C1322 C1338 1.368 . S
H1323 C1331 0.950 . S
H1324 C1329 0.950 . S
H1325 C1330 0.949 . S
H1326 C1332 0.950 . S
H1327 C1333 0.950 . S
H1328 C1334 0.949 . S
C1329 H1324 0.950 . S
C1329 C1331 1.327 . S
C1329 C1335 1.429 . S
C1330 C1322 1.574 . S
C1330 H1325 0.949 . S
C1330 C1336 1.368 . S
C1331 C1315 1.349 . S
C1331 H1323 0.950 . S
C1331 C1329 1.327 . S
C1332 C1320 1.349 . S
C1332 H1326 0.950 . S
C1332 C1333 1.327 . S
C1333 H1327 0.950 . S
C1333 C1332 1.327 . S
C1333 C1337 1.429 . S
C1334 C1317 1.574 . S
C1334 H1328 0.949 . S
C1334 C1338 1.368 . S
C1335 C1316 1.429 . S
C1335 C1329 1.429 . S
C1335 C1336 1.523 . S
C1336 C1317 1.368 . S
C1336 C1330 1.368 . S
C1336 C1335 1.523 . S
C1337 C1321 1.429 . S
C1337 C1333 1.429 . S
C1337 C1338 1.523 . S
C1338 C1322 1.368 . S
C1338 C1334 1.368 . S
C1338 C1337 1.523 . S
H1339 C1314 0.950 . S
H1340 C1316 0.950 . S
H1341 C1317 0.949 . S
H1342 C1319 0.950 1_556 S
H1343 C1321 0.950 . S
C1344 C1345 1.349 . S
C1344 C1346 1.327 . S
C1344 H1369 0.950 . S
C1345 C1344 1.349 . S
C1345 C1361 1.349 . S
C1346 C1344 1.327 . S
C1346 C1365 1.429 . S
C1346 H1370 0.950 . S
C1347 C1364 1.574 . S
C1347 C1366 1.368 . S
C1347 H1371 0.949 . S
H1348 C1352 0.949 . S
C1349 C1350 1.349 . S
C1349 C1351 1.327 . S
C1349 H1372 0.950 . S
C1350 C1349 1.349 . S
C1350 C1362 1.349 . S
C1351 C1349 1.327 . S
C1351 C1367 1.429 . S
C1351 H1373 0.950 . S
C1352 H1348 0.949 . S
C1352 C1360 1.574 . S
C1352 C1368 1.368 . S
H1353 C1361 0.950 . S
H1354 C1359 0.950 . S
H1355 C1360 0.949 . S
H1356 C1362 0.950 . S
H1357 C1363 0.950 . S
H1358 C1364 0.949 . S
C1359 H1354 0.950 . S
C1359 C1361 1.327 . S
C1359 C1365 1.429 . S
C1360 C1352 1.574 . S
C1360 H1355 0.949 . S
C1360 C1366 1.368 . S
C1361 C1345 1.349 . S
C1361 H1353 0.950 . S
C1361 C1359 1.327 . S
C1362 C1350 1.349 . S
C1362 H1356 0.950 . S
C1362 C1363 1.327 . S
C1363 H1357 0.950 . S
C1363 C1362 1.327 . S
C1363 C1367 1.429 . S
C1364 C1347 1.574 . S
C1364 H1358 0.949 . S
C1364 C1368 1.368 . S
C1365 C1346 1.429 . S
C1365 C1359 1.429 . S
C1365 C1366 1.523 . S
C1366 C1347 1.368 . S
C1366 C1360 1.368 . S
C1366 C1365 1.523 . S
C1367 C1351 1.429 . S
C1367 C1363 1.429 . S
C1367 C1368 1.523 . S
C1368 C1352 1.368 . S
C1368 C1364 1.368 . S
C1368 C1367 1.523 . S
H1369 C1344 0.950 . S
H1370 C1346 0.950 . S
H1371 C1347 0.949 . S
H1372 C1349 0.950 . S
H1373 C1351 0.950 . S
C660 C595 1.571 . S
C655 C19 1.481 . S
C685 C40 1.483 . S
C690 C155 1.573 . S
C715 C51 1.479 . S
C720 C243 1.588 . S
C745 C72 1.469 . S
C750 C322 1.577 . S
C780 C419 1.571 . S
C775 C103 1.481 . S
C805 C114 1.471 . S
C810 C498 1.578 . S
C835 C30 1.479 . S
C840 C263 1.588 . S
C865 C61 1.483 . S
C870 C359 1.574 . S
C895 C82 1.481 . S
C900 C439 1.571 . S
C930 C535 1.578 . S
C925 C93 1.471 1_554 S
C960 C615 1.571 . S
C955 C124 1.481 . S
C990 C175 1.577 . S
C985 C9 1.469 . S
C1015 C17 1.434 . S
C1020 C271 1.529 . S
C1045 C38 1.430 . S
C1050 C351 1.525 . S
C1080 C447 1.520 . S
C1075 C54 1.419 . S
C1105 C75 1.427 . S
C1110 C527 1.528 1_556 S
C1140 C623 1.523 . S
C1135 C101 1.429 . S
C1170 C183 1.522 . S
C1165 C117 1.421 . S
C1200 C586 1.520 . S
C1195 C33 1.419 . S
C1225 C59 1.430 . S
C1230 C146 1.525 . S
C1260 C234 1.529 . S
C1255 C80 1.434 . S
C1285 C96 1.420 . S
C1290 C331 1.522 . S
C1315 C122 1.429 . S
C1320 C410 1.523 1_554 S
C1345 C12 1.427 . S
C1350 C507 1.528 . S
