# Generated by pormake.
# Topology apo, (3,6)-cn, num edge types: 1
# Building blocks:
#     Node 0, Type 0, BuildingBlock: CUQRIR_clean_linker_1, # of connection points: 3
#     Node 1, Type 0, BuildingBlock: CUQRIR_clean_linker_1, # of connection points: 3
#     Node 2, Type 0, BuildingBlock: CUQRIR_clean_linker_1, # of connection points: 3
#     Node 3, Type 0, BuildingBlock: CUQRIR_clean_linker_1, # of connection points: 3
#     Node 4, Type 0, BuildingBlock: CUQRIR_clean_linker_1, # of connection points: 3
#     Node 5, Type 0, BuildingBlock: CUQRIR_clean_linker_1, # of connection points: 3
#     Node 6, Type 0, BuildingBlock: CUQRIR_clean_linker_1, # of connection points: 3
#     Node 7, Type 0, BuildingBlock: CUQRIR_clean_linker_1, # of connection points: 3
#     Node 8, Type 1, BuildingBlock: KUMBOL_clean_sbu_1, # of connection points: 6
#     Node 9, Type 1, BuildingBlock: KUMBOL_clean_sbu_1, # of connection points: 6
#     Node 10, Type 1, BuildingBlock: KUMBOL_clean_sbu_1, # of connection points: 6
#     Node 11, Type 1, BuildingBlock: KUMBOL_clean_sbu_1, # of connection points: 6
#     Edge 12, Type (0, 1), BuildingBlock: CIFDUS_clean_linker_0, # of connection points: 2
#     Edge 13, Type (0, 1), BuildingBlock: CIFDUS_clean_linker_0, # of connection points: 2
#     Edge 14, Type (0, 1), BuildingBlock: CIFDUS_clean_linker_0, # of connection points: 2
#     Edge 15, Type (0, 1), BuildingBlock: CIFDUS_clean_linker_0, # of connection points: 2
#     Edge 16, Type (0, 1), BuildingBlock: CIFDUS_clean_linker_0, # of connection points: 2
#     Edge 17, Type (0, 1), BuildingBlock: CIFDUS_clean_linker_0, # of connection points: 2
#     Edge 18, Type (0, 1), BuildingBlock: CIFDUS_clean_linker_0, # of connection points: 2
#     Edge 19, Type (0, 1), BuildingBlock: CIFDUS_clean_linker_0, # of connection points: 2
#     Edge 20, Type (0, 1), BuildingBlock: CIFDUS_clean_linker_0, # of connection points: 2
#     Edge 21, Type (0, 1), BuildingBlock: CIFDUS_clean_linker_0, # of connection points: 2
#     Edge 22, Type (0, 1), BuildingBlock: CIFDUS_clean_linker_0, # of connection points: 2
#     Edge 23, Type (0, 1), BuildingBlock: CIFDUS_clean_linker_0, # of connection points: 2
#     Edge 24, Type (0, 1), BuildingBlock: CIFDUS_clean_linker_0, # of connection points: 2
#     Edge 25, Type (0, 1), BuildingBlock: CIFDUS_clean_linker_0, # of connection points: 2
#     Edge 26, Type (0, 1), BuildingBlock: CIFDUS_clean_linker_0, # of connection points: 2
#     Edge 27, Type (0, 1), BuildingBlock: CIFDUS_clean_linker_0, # of connection points: 2
#     Edge 28, Type (0, 1), BuildingBlock: CIFDUS_clean_linker_0, # of connection points: 2
#     Edge 29, Type (0, 1), BuildingBlock: CIFDUS_clean_linker_0, # of connection points: 2
#     Edge 30, Type (0, 1), BuildingBlock: CIFDUS_clean_linker_0, # of connection points: 2
#     Edge 31, Type (0, 1), BuildingBlock: CIFDUS_clean_linker_0, # of connection points: 2
#     Edge 32, Type (0, 1), BuildingBlock: CIFDUS_clean_linker_0, # of connection points: 2
#     Edge 33, Type (0, 1), BuildingBlock: CIFDUS_clean_linker_0, # of connection points: 2
#     Edge 34, Type (0, 1), BuildingBlock: CIFDUS_clean_linker_0, # of connection points: 2
#     Edge 35, Type (0, 1), BuildingBlock: CIFDUS_clean_linker_0, # of connection points: 2
# Relax obj value: 0.044
# Max RMSD: 0.236
# Mean RMSD: 0.183
data_MOF--net-apo--node1-KUMBOL_clean_sbu_1--node2-CUQRIR_clean_linker_1--edge1-CIFDUS_clean_linker_0
_symmetry_space_group_name_H-M    P1
_symmetry_Int_Tables_number       1
_symmetry_cell_setting            triclinic
loop_
_symmetry_equiv_pos_as_xyz
'x, y, z'
_cell_length_a     22.688603
_cell_length_b     33.917971
_cell_length_c     42.04441
_cell_angle_alpha  89.954516
_cell_angle_beta   89.798901
_cell_angle_gamma 90.189701
loop_
_atom_site_label
_atom_site_type_symbol
_atom_site_fract_x
_atom_site_fract_y
_atom_site_fract_z
_atom_type_partial_charge
C0 C 0.27607 0.33514 0.41986 0.0
N1 N 0.30043 0.3717 0.42214 0.0
N2 N 0.25608 0.32854 0.39 0.0
C3 C 0.26723 0.30706 0.44718 0.0
C4 C 0.26842 0.36236 0.37425 0.0
N5 N 0.29482 0.38867 0.39376 0.0
C6 C 0.25711 0.36907 0.33941 0.0
H7 H 0.30753 0.28898 0.45001 0.0
H8 H 0.22957 0.28689 0.4427 0.0
H9 H 0.25926 0.32335 0.46965 0.0
H10 H 0.21557 0.38592 0.3368 0.0
H11 H 0.25261 0.34075 0.32644 0.0
H12 H 0.2932 0.38669 0.32851 0.0
C13 C 0.21884 0.18224 0.92416 0.0
N14 N 0.19168 0.14658 0.92694 0.0
N15 N 0.2314 0.19029 0.89329 0.0
C16 C 0.23397 0.20906 0.95145 0.0
C17 C 0.21184 0.1582 0.87738 0.0
N18 N 0.18839 0.13144 0.89778 0.0
C19 C 0.21523 0.15294 0.8418 0.0
H20 H 0.27182 0.22848 0.94557 0.0
H21 H 0.24457 0.19173 0.97307 0.0
H22 H 0.19554 0.22814 0.95672 0.0
H23 H 0.25117 0.132 0.8361 0.0
H24 H 0.22467 0.18086 0.82911 0.0
H25 H 0.17337 0.14025 0.83276 0.0
C26 C 0.70513 0.1629 0.62938 0.0
N27 N 0.74025 0.13106 0.62541 0.0
N28 N 0.70022 0.17248 0.66056 0.0
C29 C 0.6749 0.18431 0.60271 0.0
C30 C 0.734 0.1453 0.67552 0.0
N31 N 0.75867 0.12016 0.65416 0.0
C32 C 0.74553 0.14439 0.71087 0.0
H33 H 0.70564 0.20661 0.59266 0.0
H34 H 0.6347 0.19954 0.61133 0.0
H35 H 0.66282 0.16354 0.5834 0.0
H36 H 0.71026 0.15842 0.72494 0.0
H37 H 0.7869 0.16074 0.71583 0.0
H38 H 0.75068 0.11361 0.71933 0.0
C39 C 0.81936 0.3585 0.11609 0.0
N40 N 0.78795 0.39204 0.11218 0.0
N41 N 0.82806 0.35079 0.14735 0.0
C42 C 0.84195 0.33339 0.08925 0.0
C43 C 0.80101 0.38116 0.16239 0.0
N44 N 0.77596 0.40608 0.14104 0.0
C45 C 0.79553 0.3851 0.1981 0.0
H46 H 0.80614 0.31345 0.08118 0.0
H47 H 0.87998 0.31529 0.09695 0.0
H48 H 0.85532 0.3521 0.06877 0.0
H49 H 0.83668 0.3772 0.21039 0.0
H50 H 0.7604 0.36489 0.20676 0.0
H51 H 0.78488 0.41569 0.20529 0.0
C52 C 0.76204 0.665 0.63399 0.0
N53 N 0.7276 0.63246 0.63131 0.0
N54 N 0.77404 0.67268 0.6649 0.0
C55 C 0.77937 0.69122 0.60663 0.0
C56 C 0.74492 0.64406 0.681 0.0
N57 N 0.71629 0.61986 0.66063 0.0
C58 C 0.74207 0.64091 0.71663 0.0
H59 H 0.80815 0.71591 0.6143 0.0
H60 H 0.73905 0.70327 0.5954 0.0
H61 H 0.80291 0.67364 0.58837 0.0
H62 H 0.70104 0.65524 0.72513 0.0
H63 H 0.78026 0.65586 0.72785 0.0
H64 H 0.74072 0.60952 0.72411 0.0
C65 C 0.73626 0.85196 0.12137 0.0
N66 N 0.77636 0.88169 0.11932 0.0
N67 N 0.71995 0.84576 0.15204 0.0
C68 C 0.71743 0.82656 0.0939 0.0
C69 C 0.75176 0.87253 0.16858 0.0
N70 N 0.78602 0.89427 0.14884 0.0
C71 C 0.75143 0.87622 0.20423 0.0
H72 H 0.68414 0.84273 0.07974 0.0
H73 H 0.69767 0.79837 0.10211 0.0
H74 H 0.75558 0.82028 0.07813 0.0
H75 H 0.71037 0.86376 0.21461 0.0
H76 H 0.75596 0.90755 0.21145 0.0
H77 H 0.78963 0.85985 0.21393 0.0
C78 C 0.23866 0.82251 0.40563 0.0
N79 N 0.2028 0.85363 0.41173 0.0
N80 N 0.2623 0.82533 0.37603 0.0
C81 C 0.24589 0.78748 0.42723 0.0
C82 C 0.23974 0.85928 0.36446 0.0
N83 N 0.20274 0.87612 0.38579 0.0
C84 C 0.25726 0.87743 0.33307 0.0
H85 H 0.2846 0.79254 0.44277 0.0
H86 H 0.25358 0.76019 0.41332 0.0
H87 H 0.20645 0.78326 0.44255 0.0
H88 H 0.2263 0.86749 0.31434 0.0
H89 H 0.30243 0.86827 0.32615 0.0
H90 H 0.25554 0.91009 0.33436 0.0
C91 C 0.236 0.67791 0.92659 0.0
N92 N 0.26768 0.64425 0.92985 0.0
N93 N 0.22379 0.6848 0.8956 0.0
C94 C 0.21558 0.70352 0.9537 0.0
C95 C 0.24826 0.65399 0.88008 0.0
N96 N 0.27415 0.6289 0.9009 0.0
C97 C 0.24672 0.6485 0.84451 0.0
H98 H 0.20289 0.68514 0.97449 0.0
H99 H 0.17784 0.72231 0.9469 0.0
H100 H 0.25224 0.72323 0.96093 0.0
H101 H 0.28733 0.63372 0.83595 0.0
H102 H 0.24212 0.67691 0.83181 0.0
H103 H 0.2082 0.62986 0.83828 0.0
C104 C 0.80281 0.08993 0.2828 0.0
C105 C 0.79558 0.01857 0.28504 0.0
C106 C 0.82764 0.05366 0.29019 0.0
C107 C 0.73904 0.02041 0.27163 0.0
C108 C 0.74585 0.09194 0.26965 0.0
C109 C 0.71424 0.05698 0.26397 0.0
N110 N 0.83499 0.1232 0.28791 0.0
C111 C 0.81243 0.15946 0.28116 0.0
C112 C 0.72261 0.12903 0.26233 0.0
C113 C 0.75598 0.16293 0.26823 0.0
Gd114 Gd 0.06758 0.11386 0.24612 0.0
Gd115 Gd 0.93026 0.11428 0.30794 0.0
N116 N 0.88311 0.05278 0.30243 0.0
C117 C 0.82109 0.98271 0.29388 0.0
C118 C 0.90601 0.01828 0.31339 0.0
C119 C 0.87611 0.98266 0.30865 0.0
H120 H 0.94626 0.01812 0.32671 0.0
H121 H 0.89511 0.95526 0.31685 0.0
H122 H 0.06014 0.2109 0.23217 0.0
H123 H 0.83778 0.1858 0.28591 0.0
H124 H 0.12033 0.2705 0.24155 0.0
H125 H 0.79795 0.95508 0.29029 0.0
H126 H 0.71395 0.99372 0.26729 0.0
H127 H 0.15126 0.03625 0.26636 0.0
H128 H 0.67899 0.13183 0.25218 0.0
H129 H 0.73827 0.19174 0.26278 0.0
H130 H 0.30003 0.22023 0.28569 0.0
H131 H 0.67052 0.05792 0.25371 0.0
H132 H 0.317 0.08037 0.2995 0.0
H133 H 0.25001 0.02425 0.28875 0.0
N134 N 0.16133 0.0986 0.26575 0.0
C135 C 0.19803 0.12981 0.27065 0.0
C136 C 0.1796 0.06102 0.2716 0.0
C137 C 0.27354 0.08585 0.28989 0.0
C138 C 0.23578 0.05409 0.28394 0.0
C139 C 0.255 0.12428 0.28311 0.0
H140 H 0.33527 0.15349 0.29823 0.0
N141 N 0.12218 0.17204 0.25262 0.0
C142 C 0.1781 0.16757 0.26363 0.0
C143 C 0.19313 0.23807 0.26127 0.0
C144 C 0.21477 0.20058 0.26874 0.0
C145 C 0.10221 0.20812 0.24354 0.0
C146 C 0.13685 0.24178 0.24824 0.0
O147 O 0.91454 0.09553 0.25655 0.0
O148 O 0.00025 0.06522 0.24094 0.0
O149 O 0.06598 0.13306 0.19673 0.0
O150 O 0.12462 0.08624 0.21112 0.0
O151 O 0.01233 0.07832 0.31945 0.0
O152 O 0.04634 0.05684 0.27075 0.0
O153 O 0.08207 0.13785 0.29637 0.0
O154 O 0.99379 0.16485 0.31202 0.0
O155 O 0.93202 0.09819 0.35813 0.0
O156 O 0.87436 0.14455 0.34208 0.0
O157 O 0.98853 0.15204 0.23428 0.0
O158 O 0.94584 0.17183 0.28199 0.0
C159 C 0.94291 0.06969 0.23901 0.0
C160 C 0.04053 0.05254 0.30166 0.0
C161 C 0.08827 0.0844 0.15837 0.0
C162 C 0.0878 0.07993 0.10022 0.0
C163 C 0.0491 0.02604 0.13246 0.0
C164 C 0.06206 0.04693 0.16021 0.0
C165 C 0.06218 0.04224 0.10265 0.0
C166 C 0.10055 0.10091 0.12834 0.0
C167 C 0.10363 0.1065 0.18742 0.0
C168 C 0.27142 0.19518 0.28134 0.0
C169 C 0.29146 0.15716 0.28851 0.0
H170 H 0.21979 0.26421 0.26502 0.0
C171 C 0.0516 0.16445 0.31206 0.0
C172 C 0.95671 0.1766 0.2514 0.0
C173 C 0.8439 0.10826 0.3874 0.0
C174 C 0.80276 0.10138 0.44133 0.0
C175 C 0.74772 0.07843 0.39503 0.0
C176 C 0.79325 0.09047 0.37489 0.0
C177 C 0.752 0.08413 0.42783 0.0
C178 C 0.84889 0.11318 0.42059 0.0
C179 C 0.89087 0.12304 0.36607 0.0
H180 H 0.02888 0.99714 0.13407 0.0
H181 H 0.05197 0.03377 0.18307 0.0
H182 H 0.05143 0.02556 0.08148 0.0
H183 H 0.12088 0.12984 0.12689 0.0
H184 H 0.70839 0.0652 0.38512 0.0
H185 H 0.78846 0.08643 0.34955 0.0
H186 H 0.71461 0.07578 0.44241 0.0
H187 H 0.8887 0.12633 0.43004 0.0
C188 C 0.67117 0.43567 0.77414 0.0
C189 C 0.67489 0.50721 0.77708 0.0
C190 C 0.64616 0.47117 0.78379 0.0
C191 C 0.72896 0.50711 0.76074 0.0
C192 C 0.72597 0.43553 0.7582 0.0
C193 C 0.75446 0.47139 0.75138 0.0
N194 N 0.64198 0.40136 0.78036 0.0
C195 C 0.66743 0.36592 0.77364 0.0
C196 C 0.75074 0.39928 0.74971 0.0
C197 C 0.72165 0.36434 0.75781 0.0
Gd198 Gd 0.41957 0.39501 0.74029 0.0
Gd199 Gd 0.5508 0.40782 0.80633 0.0
N200 N 0.59283 0.47052 0.79872 0.0
C201 C 0.64793 0.54236 0.78655 0.0
C202 C 0.5668 0.50465 0.80838 0.0
C203 C 0.59379 0.54104 0.8024 0.0
H204 H 0.52496 0.50405 0.82033 0.0
H205 H 0.57259 0.56807 0.80981 0.0
H206 H 0.43227 0.29727 0.72902 0.0
H207 H 0.64675 0.33869 0.78089 0.0
H208 H 0.36905 0.23781 0.73366 0.0
H209 H 0.6684 0.57064 0.78163 0.0
H210 H 0.75136 0.53454 0.75516 0.0
H211 H 0.32872 0.47169 0.73379 0.0
H212 H 0.79278 0.39792 0.73746 0.0
H213 H 0.7412 0.33614 0.7521 0.0
H214 H 0.17656 0.28964 0.75609 0.0
H215 H 0.79634 0.47182 0.73892 0.0
H216 H 0.15255 0.42989 0.75028 0.0
H217 H 0.22164 0.4849 0.73914 0.0
N218 N 0.31946 0.41038 0.74275 0.0
C219 C 0.28217 0.37948 0.74727 0.0
C220 C 0.29852 0.44768 0.7387 0.0
C221 C 0.1993 0.42403 0.74807 0.0
C222 C 0.23814 0.45516 0.74168 0.0
C223 C 0.22099 0.3855 0.75036 0.0
H224 H 0.13631 0.35693 0.75731 0.0
N225 N 0.36363 0.33674 0.74163 0.0
C226 C 0.30485 0.34151 0.74649 0.0
C227 C 0.29083 0.27088 0.74517 0.0
C228 C 0.26692 0.30864 0.74885 0.0
C229 C 0.3863 0.30032 0.73517 0.0
C230 C 0.35058 0.26677 0.73766 0.0
O231 O 0.55065 0.43085 0.75532 0.0
O232 O 0.45939 0.45501 0.74475 0.0
O233 O 0.46839 0.3928 0.6957 0.0
O234 O 0.37368 0.39915 0.69509 0.0
O235 O 0.46879 0.4417 0.81915 0.0
O236 O 0.40046 0.44281 0.77715 0.0
O237 O 0.41771 0.3513 0.78064 0.0
O238 O 0.46682 0.37868 0.82393 0.0
O239 O 0.57131 0.43076 0.85322 0.0
O240 O 0.60408 0.37354 0.83919 0.0
O241 O 0.50842 0.36506 0.7372 0.0
O242 O 0.54057 0.3464 0.78643 0.0
C243 C 0.51663 0.45924 0.74468 0.0
C244 C 0.41884 0.45307 0.80601 0.0
C245 C 0.42608 0.42402 0.65079 0.0
C246 C 0.41746 0.43438 0.59332 0.0
C247 C 0.4433 0.48892 0.62838 0.0
C248 C 0.44031 0.46393 0.65479 0.0
C249 C 0.43179 0.47438 0.59786 0.0
C250 C 0.41485 0.40938 0.62011 0.0
C251 C 0.42159 0.3971 0.67816 0.0
C252 C 0.20631 0.31454 0.75377 0.0
C253 C 0.18339 0.35288 0.7545 0.0
H254 H 0.26319 0.24486 0.74693 0.0
C255 C 0.4272 0.35492 0.81132 0.0
C256 C 0.52975 0.33833 0.75646 0.0
C257 C 0.65745 0.40852 0.87879 0.0
C258 C 0.70925 0.41305 0.92978 0.0
C259 C 0.76054 0.42721 0.87993 0.0
C260 C 0.70919 0.41951 0.86279 0.0
C261 C 0.76079 0.4239 0.91309 0.0
C262 C 0.65752 0.40559 0.91218 0.0
C263 C 0.60259 0.40035 0.86138 0.0
H264 H 0.45448 0.51971 0.63156 0.0
H265 H 0.44882 0.47572 0.67826 0.0
H266 H 0.43476 0.49432 0.57779 0.0
H267 H 0.40306 0.37859 0.61721 0.0
H268 H 0.80052 0.43546 0.86744 0.0
H269 H 0.70996 0.42202 0.83715 0.0
H270 H 0.80177 0.42907 0.92554 0.0
H271 H 0.61701 0.3977 0.92439 0.0
C272 C 0.80867 0.88184 0.77552 0.0
C273 C 0.79606 0.81075 0.77956 0.0
C274 C 0.83069 0.84496 0.78387 0.0
C275 C 0.73908 0.81404 0.76697 0.0
C276 C 0.75107 0.88516 0.76325 0.0
C277 C 0.71667 0.8511 0.75884 0.0
N278 N 0.84323 0.91439 0.77955 0.0
C279 C 0.82075 0.95118 0.77452 0.0
C280 C 0.7294 0.92269 0.75606 0.0
C281 C 0.76414 0.95584 0.76209 0.0
Gd282 Gd 0.06423 0.91014 0.72974 0.0
Gd283 Gd 0.93745 0.9023 0.80047 0.0
N284 N 0.88673 0.84237 0.7951 0.0
C285 C 0.82019 0.7741 0.78746 0.0
C286 C 0.9102 0.80682 0.80315 0.0
C287 C 0.87748 0.77216 0.79934 0.0
H288 H 0.95442 0.80507 0.81197 0.0
H289 H 0.89661 0.74395 0.80539 0.0
H290 H 0.04663 1.0057 0.71262 0.0
H291 H 0.84563 0.97726 0.78055 0.0
H292 H 0.10599 0.06716 0.71336 0.0
H293 H 0.79515 0.74714 0.78424 0.0
H294 H 0.71205 0.78805 0.76329 0.0
H295 H 0.16009 0.83537 0.72818 0.0
H296 H 0.68543 0.92644 0.74657 0.0
H297 H 0.74705 0.98506 0.75757 0.0
H298 H 0.30142 0.02276 0.7381 0.0
H299 H 0.6725 0.85314 0.74927 0.0
H300 H 0.3335 0.88315 0.74129 0.0
H301 H 0.26767 0.82553 0.73408 0.0
N302 N 0.16548 0.89761 0.73317 0.0
C303 C 0.20104 0.92972 0.7355 0.0
C304 C 0.18871 0.86059 0.73151 0.0
C305 C 0.28645 0.88758 0.7389 0.0
C306 C 0.24946 0.85497 0.73474 0.0
C307 C 0.26254 0.92559 0.73873 0.0
H308 H 0.34552 0.95688 0.74343 0.0
N309 N 0.11723 0.96959 0.7278 0.0
C310 C 0.17624 0.96685 0.73252 0.0
C311 C 0.18608 0.03743 0.72668 0.0
C312 C 0.21221 1.00081 0.73263 0.0
C313 C 0.09248 1.0046 0.7191 0.0
C314 C 0.12614 0.03922 0.71924 0.0
O315 O 0.92993 0.87313 0.75164 0.0
O316 O 0.02161 0.85115 0.73683 0.0
O317 O 0.02086 0.91976 0.68449 0.0
O318 O 0.10788 0.8942 0.68529 0.0
O319 O 0.01792 0.86552 0.81103 0.0
O320 O 0.08406 0.86386 0.76761 0.0
O321 O 0.06805 0.95616 0.76844 0.0
O322 O 0.02614 0.92816 0.81376 0.0
O323 O 0.91357 0.87934 0.84714 0.0
O324 O 0.89592 0.94009 0.83584 0.0
O325 O 0.97244 0.93529 0.72767 0.0
O326 O 0.94764 0.96115 0.77577 0.0
C327 C 0.96455 0.84587 0.73943 0.0
C328 C 0.06667 0.85351 0.79668 0.0
C329 C 0.04774 0.87899 0.64099 0.0
C330 C 0.06363 0.85897 0.58565 0.0
C331 C 0.98444 0.82955 0.61706 0.0
C332 C 0.00032 0.8525 0.64327 0.0
C333 C 0.01562 0.83282 0.5884 0.0
C334 C 0.07939 0.88195 0.61225 0.0
C335 C 0.06378 0.90494 0.66772 0.0
C336 C 0.27313 0.99697 0.73756 0.0
C337 C 0.29824 0.95944 0.74059 0.0
H338 H 0.21218 0.06424 0.72657 0.0
C339 C 0.06265 0.95276 0.79947 0.0
C340 C 0.95414 0.96495 0.74487 0.0
C341 C 0.91881 0.92483 0.88938 0.0
C342 C 0.90775 0.93029 0.94735 0.0
C343 C 0.9982 0.95202 0.92117 0.0
C344 C 0.97587 0.94041 0.8918 0.0
C345 C 0.96448 0.94721 0.9487 0.0
C346 C 0.88486 0.91957 0.91726 0.0
C347 C 0.89551 0.91312 0.85795 0.0
H348 H 0.9478 0.80915 0.61895 0.0
H349 H 0.97534 0.84981 0.66515 0.0
H350 H 0.0028 0.81437 0.56856 0.0
H351 H 0.11572 0.9027 0.61046 0.0
H352 H 0.04202 0.96461 0.92262 0.0
H353 H 0.00331 0.94343 0.87099 0.0
H354 H 0.98298 0.95685 0.9711 0.0
H355 H 0.84143 0.90639 0.91552 0.0
C356 C 0.73399 0.60996 0.30194 0.0
C357 C 0.75998 0.67934 0.30527 0.0
C358 C 0.7172 0.64908 0.30548 0.0
C359 C 0.81968 0.66973 0.3011 0.0
C360 C 0.79393 0.60017 0.29811 0.0
C361 C 0.8366 0.63027 0.2975 0.0
N362 N 0.69186 0.58142 0.30282 0.0
C363 C 0.70652 0.54252 0.3009 0.0
C364 C 0.80925 0.56035 0.29527 0.0
C365 C 0.76536 0.53141 0.29682 0.0
Gd366 Gd 0.46721 0.60271 0.24062 0.0
Gd367 Gd 0.59482 0.60315 0.3087 0.0
N368 N 0.65899 0.65758 0.30883 0.0
C369 C 0.74145 0.71837 0.30921 0.0
C370 C 0.64076 0.6955 0.31351 0.0
C371 C 0.68162 0.72644 0.31351 0.0
H372 H 0.59458 0.70201 0.31662 0.0
H373 H 0.66693 0.7565 0.31675 0.0
H374 H 0.51798 0.5298 0.19348 0.0
H375 H 0.67283 0.52 0.30275 0.0
H376 H 0.49945 0.45909 0.18454 0.0
H377 H 0.77296 0.74245 0.30911 0.0
H378 H 0.85314 0.6926 0.30074 0.0
H379 H 0.34794 0.6379 0.27753 0.0
H380 H 0.85482 0.55164 0.29224 0.0
H381 H 0.77686 0.50054 0.29507 0.0
H382 H 0.32531 0.43215 0.24574 0.0
H383 H 0.88286 0.62333 0.29448 0.0
H384 H 0.22819 0.54216 0.29418 0.0
H385 H 0.25317 0.613 0.29888 0.0
N386 N 0.37629 0.58175 0.26147 0.0
C387 C 0.36269 0.54296 0.25775 0.0
C388 C 0.33736 0.607 0.27549 0.0
C389 C 0.2697 0.55297 0.28474 0.0
C390 C 0.28368 0.59297 0.28749 0.0
C391 C 0.30922 0.52743 0.2696 0.0
H392 H 0.25645 0.47451 0.27527 0.0
N393 N 0.45224 0.53538 0.22933 0.0
C394 C 0.40227 0.51899 0.24167 0.0
C395 C 0.42543 0.45679 0.21669 0.0
C396 C 0.38827 0.47899 0.23628 0.0
C397 C 0.48426 0.51514 0.20726 0.0
C398 C 0.47265 0.47529 0.20137 0.0
O399 O 0.61367 0.64169 0.26611 0.0
O400 O 0.52791 0.65584 0.2379 0.0
O401 O 0.46334 0.60152 0.18894 0.0
O402 O 0.39868 0.63456 0.21526 0.0
O403 O 0.52044 0.64691 0.31543 0.0
O404 O 0.45839 0.65616 0.27164 0.0
O405 O 0.45158 0.57852 0.29095 0.0
O406 O 0.53994 0.54993 0.29937 0.0
O407 O 0.54944 0.60371 0.35415 0.0
O408 O 0.64066 0.58571 0.352 0.0
O409 O 0.55994 0.58205 0.22777 0.0
O410 O 0.59006 0.5526 0.27401 0.0
C411 C 0.58397 0.66181 0.24471 0.0
C412 C 0.47685 0.66487 0.30053 0.0
C413 C 0.36923 0.60674 0.16592 0.0
C414 C 0.32946 0.60137 0.1119 0.0
C415 C 0.27858 0.57055 0.15671 0.0
C416 C 0.32169 0.58441 0.17751 0.0
C417 C 0.28208 0.57909 0.12424 0.0
C418 C 0.37329 0.61472 0.13314 0.0
C419 C 0.41518 0.62196 0.18744 0.0
C420 C 0.3363 0.46295 0.24926 0.0
C421 C 0.29689 0.48712 0.2659 0.0
H422 H 0.41615 0.42602 0.21185 0.0
C423 C 0.48343 0.55116 0.30474 0.0
C424 C 0.59312 0.55652 0.24295 0.0
C425 C 0.60959 0.62068 0.39763 0.0
C426 C 0.63434 0.63041 0.45359 0.0
C427 C 0.61414 0.68678 0.41972 0.0
C428 C 0.60534 0.66168 0.39395 0.0
C429 C 0.62812 0.67128 0.44943 0.0
C430 C 0.62522 0.60502 0.4275 0.0
C431 C 0.59645 0.59468 0.3704 0.0
H432 H 0.24177 0.55356 0.16586 0.0
H433 H 0.31755 0.57793 0.20258 0.0
H434 H 0.24674 0.56902 0.10901 0.0
H435 H 0.41075 0.6314 0.12433 0.0
H436 H 0.61026 0.71834 0.41662 0.0
H437 H 0.59476 0.67427 0.37115 0.0
H438 H 0.6354 0.69131 0.46911 0.0
H439 H 0.62963 0.57343 0.43051 0.0
H440 H 0.12881 0.8829 0.33736 0.0
H441 H 0.19382 0.9439 0.4197 0.0
H442 H 0.14375 1.00459 0.40242 0.0
H443 H 0.09046 0.0417 0.36016 0.0
H444 H 0.03717 0.98034 0.27508 0.0
H445 H 0.07459 0.91855 0.29653 0.0
C446 C 0.13156 0.90954 0.35153 0.0
C447 C 0.16525 0.9094 0.37942 0.0
C448 C 0.1057 0.94432 0.34052 0.0
C449 C 0.16788 0.94357 0.39814 0.0
C450 C 0.13986 0.97822 0.38804 0.0
C451 C 0.08679 0.01465 0.34657 0.0
C452 C 0.06163 0.01548 0.31602 0.0
C453 C 0.11012 0.97925 0.35872 0.0
C454 C 0.0572 0.98043 0.29845 0.0
C455 C 0.07823 0.94508 0.31075 0.0
H456 H 0.23198 0.56908 0.86616 0.0
H457 H 0.38524 0.60886 0.91697 0.0
H458 H 0.443 0.55436 0.89454 0.0
H459 H 0.4517 0.5001 0.85606 0.0
H460 H 0.30038 0.46543 0.80088 0.0
H461 H 0.23996 0.51351 0.82891 0.0
C462 C 0.27803 0.56561 0.87229 0.0
C463 C 0.30479 0.5931 0.8927 0.0
C464 C 0.31141 0.53579 0.85788 0.0
C465 C 0.3639 0.5879 0.90134 0.0
C466 C 0.39692 0.55709 0.88821 0.0
C467 C 0.40585 0.50338 0.84965 0.0
C468 C 0.38156 0.48055 0.82486 0.0
C469 C 0.3716 0.5317 0.8656 0.0
C470 C 0.32109 0.484 0.81842 0.0
C471 C 0.28626 0.51113 0.83485 0.0
H472 H 0.61083 0.62052 0.68919 0.0
H473 H 0.74541 0.54425 0.65219 0.0
H474 H 0.69431 0.48644 0.67447 0.0
H475 H 0.6145 0.45865 0.70754 0.0
H476 H 0.4775 0.53475 0.74301 0.0
H477 H 0.52559 0.59179 0.71809 0.0
C478 C 0.6279 0.59103 0.6856 0.0
C479 C 0.68126 0.58611 0.66914 0.0
C480 C 0.5981 0.55823 0.69836 0.0
C481 C 0.70391 0.54818 0.66456 0.0
C482 C 0.67495 0.51537 0.67744 0.0
C483 C 0.59506 0.48773 0.70957 0.0
C484 C 0.54309 0.49279 0.72737 0.0
C485 C 0.62256 0.52015 0.69487 0.0
C486 C 0.51762 0.53034 0.72944 0.0
C487 C 0.54518 0.5629 0.71531 0.0
H488 H 0.76112 0.97028 0.15777 0.0
H489 H 0.89858 0.88414 0.16604 0.0
H490 H 0.96225 0.93239 0.19258 0.0
H491 H 0.97476 0.9971 0.21788 0.0
H492 H 0.83387 0.08199 0.21363 0.0
H493 H 0.77491 0.03632 0.18183 0.0
C494 C 0.80574 0.96279 0.16461 0.0
C495 C 0.82652 0.92451 0.15879 0.0
C496 C 0.84064 0.99013 0.18133 0.0
C497 C 0.88313 0.91408 0.169 0.0
C498 C 0.91895 0.94143 0.18464 0.0
C499 C 0.93153 0.00586 0.20957 0.0
C500 C 0.90868 0.04287 0.2182 0.0
C501 C 0.8977 0.9793 0.19152 0.0
C502 C 0.85223 0.05351 0.20762 0.0
C503 C 0.8186 0.02748 0.18928 0.0
H504 H 0.85926 0.12419 0.68739 0.0
H505 H 0.7422 0.043 0.64063 0.0
H506 H 0.79766 0.98735 0.66158 0.0
H507 H 0.87251 0.96167 0.6985 0.0
H508 H 0.97334 0.0429 0.75539 0.0
H509 H 0.92966 0.09878 0.72688 0.0
C510 C 0.84625 0.09426 0.6817 0.0
C511 C 0.79747 0.08782 0.66174 0.0
C512 C 0.87442 0.06249 0.69668 0.0
C513 C 0.78108 0.04894 0.65449 0.0
C514 C 0.81192 0.01704 0.66727 0.0
C515 C 0.88493 0.99168 0.70446 0.0
C516 C 0.92626 0.99849 0.72866 0.0
C517 C 0.85757 0.02348 0.68909 0.0
C518 C 0.94138 0.03727 0.73683 0.0
C519 C 0.91676 0.06906 0.72041 0.0
H520 H 0.67966 0.40075 0.17709 0.0
H521 H 0.78629 0.48332 0.12458 0.0
H522 H 0.73326 0.53843 0.14894 0.0
H523 H 0.66532 0.56294 0.19119 0.0
H524 H 0.58162 0.47852 0.25353 0.0
H525 H 0.6189 0.42433 0.22112 0.0
C526 C 0.69068 0.4309 0.17079 0.0
C527 C 0.73646 0.43793 0.14892 0.0
C528 C 0.66557 0.46207 0.18786 0.0
C529 C 0.75031 0.477 0.14067 0.0
C530 C 0.72094 0.50854 0.15527 0.0
C531 C 0.65563 0.53261 0.19757 0.0
C532 C 0.6206 0.52455 0.22446 0.0
C533 C 0.68011 0.50141 0.17985 0.0
C534 C 0.60895 0.48527 0.23302 0.0
C535 C 0.62963 0.45434 0.21432 0.0
H536 H 0.40913 0.40107 0.38447 0.0
H537 H 0.23927 0.4559 0.37836 0.0
H538 H 0.28335 0.51388 0.35222 0.0
H539 H 0.37031 0.5466 0.32798 0.0
H540 H 0.53798 0.48691 0.32933 0.0
H541 H 0.49569 0.43394 0.36101 0.0
C542 C 0.38245 0.42629 0.37803 0.0
C543 C 0.32167 0.42504 0.38369 0.0
C544 C 0.40776 0.45841 0.36186 0.0
C545 C 0.28647 0.457 0.37457 0.0
C546 C 0.3116 0.48981 0.35944 0.0
C547 C 0.39725 0.52175 0.3348 0.0
C548 C 0.45681 0.52045 0.3255 0.0
C549 C 0.37211 0.49046 0.3523 0.0
C550 C 0.49179 0.48869 0.33576 0.0
C551 C 0.46768 0.45822 0.35392 0.0
H552 H 0.23676 0.07148 0.86593 0.0
H553 H 0.07502 0.11143 0.9084 0.0
H554 H 0.02108 0.05688 0.88318 0.0
H555 H 0.01876 1.00324 0.84337 0.0
H556 H 0.18066 0.96496 0.79963 0.0
H557 H 0.23584 0.01457 0.82961 0.0
C558 C 0.18982 0.06778 0.86982 0.0
C559 C 0.1595 0.09533 0.8886 0.0
C560 C 0.1592 0.03745 0.85426 0.0
C561 C 0.09896 0.09028 0.89409 0.0
C562 C 0.06821 0.05947 0.87938 0.0
C563 C 0.06631 1.00517 0.84113 0.0
C564 C 0.09586 0.98065 0.81942 0.0
C565 C 0.0976 0.03365 0.85861 0.0
C566 C 0.15712 0.98406 0.81585 0.0
C567 C 0.18864 0.01212 0.8332 0.0
H568 H 0.12517 0.17815 0.97355 0.0
H569 H 0.21511 0.07207 0.94562 0.0
H570 H 0.1881 0.0409 0.99626 0.0
H571 H 0.14365 0.04539 0.0499 0.0
H572 H 0.06075 0.15373 0.07921 0.0
H573 H 0.08188 0.18301 0.0272 0.0
C574 C 0.13932 0.14838 0.97875 0.0
C575 C 0.17248 0.12753 0.95601 0.0
C576 C 0.12553 0.1313 1.00837 0.0
C577 C 0.18913 0.08855 0.96264 0.0
C578 C 0.17415 0.0709 0.9917 0.0
C579 C 0.12994 0.07533 0.04479 0.0
C580 C 0.10075 0.09739 0.06843 0.0
C581 C 0.14303 0.09218 1.01494 0.0
C582 C 0.08379 0.13629 0.06157 0.0
C583 C 0.0956 0.15297 0.03178 0.0
H584 H 0.37887 0.3423 0.46381 0.0
H585 H 0.27034 0.4433 0.44456 0.0
H586 H 0.29985 0.47313 0.49511 0.0
H587 H 0.3509 0.46813 0.54663 0.0
H588 H 0.45572 0.36531 0.56698 0.0
H589 H 0.4321 0.33802 0.51477 0.0
C590 C 0.36176 0.3708 0.4708 0.0
C591 C 0.32239 0.39056 0.45058 0.0
C592 C 0.37757 0.38713 0.50035 0.0
C593 C 0.30127 0.42781 0.45956 0.0
C594 C 0.31767 0.44464 0.48861 0.0
C595 C 0.36916 0.43997 0.5395 0.0
C596 C 0.40482 0.41874 0.56086 0.0
C597 C 0.35505 0.42428 0.50945 0.0
C598 C 0.42748 0.38204 0.55128 0.0
C599 C 0.41426 0.3665 0.52132 0.0
H600 H 0.70587 0.36042 0.07459 0.0
H601 H 0.83206 0.45473 0.08106 0.0
H602 H 0.81391 0.47276 0.02553 0.0
H603 H 0.76949 0.45718 0.97374 0.0
H604 H 0.65161 0.35743 0.96591 0.0
H605 H 0.65841 0.34625 0.02303 0.0
C606 C 0.72779 0.38564 0.0639 0.0
C607 C 0.76829 0.40738 0.08209 0.0
C608 C 0.71936 0.39431 0.03149 0.0
C609 C 0.79849 0.439 0.06792 0.0
C610 C 0.78898 0.44869 0.03599 0.0
C611 C 0.74532 0.4329 0.98442 0.0
C612 C 0.71027 0.40814 0.96519 0.0
C613 C 0.75066 0.42588 1.0173 0.0
C614 C 0.67839 0.37738 0.97988 0.0
C615 C 0.68256 0.37072 1.01264 0.0
H616 H 0.8155 0.16345 0.58384 0.0
H617 H 0.69638 0.06613 0.59736 0.0
H618 H 0.71279 0.0446 0.54259 0.0
H619 H 0.75356 0.05718 0.48958 0.0
H620 H 0.85837 0.162 0.47339 0.0
H621 H 0.85626 0.17638 0.53009 0.0
C622 C 0.7948 0.13687 0.57484 0.0
C623 C 0.75773 0.11488 0.59511 0.0
C624 C 0.8012 0.12645 0.54257 0.0
C625 C 0.72837 0.08174 0.58294 0.0
C626 C 0.73666 0.07008 0.55134 0.0
C627 C 0.77562 0.08346 0.49815 0.0
C628 C 0.80573 0.10847 0.47661 0.0
C629 C 0.77192 0.09274 0.53073 0.0
C630 C 0.83545 0.14164 0.48896 0.0
C631 C 0.83381 0.15022 0.52155 0.0
H632 H 0.73208 0.91006 0.06466 0.0
H633 H 0.89334 0.8755 0.11016 0.0
H634 H 0.94847 0.88833 0.06121 0.0
H635 H 0.94997 0.90574 1.00472 0.0
H636 H 0.7887 0.93941 0.95798 0.0
H637 H 0.73404 0.92914 1.00759 0.0
C638 C 0.7794 0.90588 0.06375 0.0
C639 C 0.80904 0.893 0.09121 0.0
C640 C 0.81048 0.91226 0.03509 0.0
C641 C 0.87011 0.88698 0.0898 0.0
C642 C 0.9014 0.89366 0.06161 0.0
C643 C 0.90299 0.91145 1.00536 0.0
C644 C 0.87374 0.92353 0.97746 0.0
C645 C 0.87198 0.90595 0.03404 0.0
C646 C 0.81246 0.92968 0.97883 0.0
C647 C 0.78119 0.92413 1.00732 0.0
H648 H 0.77408 0.59941 0.57911 0.0
H649 H 0.61263 0.64214 0.61998 0.0
H650 H 0.56491 0.63985 0.56774 0.0
H651 H 0.5752 0.63619 0.50937 0.0
H652 H 0.73689 0.59357 0.46817 0.0
H653 H 0.7787 0.58465 0.52139 0.0
C654 C 0.72795 0.60693 0.57649 0.0
C655 C 0.69658 0.62097 0.60299 0.0
C656 C 0.70141 0.60606 0.5463 0.0
C657 C 0.63702 0.63095 0.59974 0.0
C658 C 0.61013 0.63002 0.56988 0.0
C659 C 0.61892 0.62384 0.51221 0.0
C660 C 0.65316 0.61563 0.48509 0.0
C661 C 0.64265 0.61916 0.54282 0.0
C662 C 0.70977 0.59979 0.48882 0.0
C663 C 0.73378 0.59504 0.51921 0.0
H664 H 0.33174 0.67942 0.97511 0.0
H665 H 0.24477 0.57062 0.95121 0.0
H666 H 0.26219 0.54547 1.00514 0.0
H667 H 0.29314 0.55755 0.06046 0.0
H668 H 0.36927 0.67039 0.08518 0.0
H669 H 0.36539 0.69075 0.0298 0.0
C670 C 0.31688 0.65017 0.98181 0.0
C671 C 0.28646 0.62701 0.95952 0.0
C672 C 0.32468 0.63683 1.01313 0.0
C673 C 0.26853 0.5888 0.96802 0.0
C674 C 0.27795 0.57468 0.99892 0.0
C675 C 0.30868 0.58669 0.05388 0.0
C676 C 0.33124 0.61232 0.07739 0.0
C677 C 0.30437 0.59895 0.02196 0.0
C678 C 0.35247 0.6496 0.0679 0.0
C679 C 0.3498 0.66153 0.03613 0.0
H680 H 0.24502 0.85982 0.47074 0.0
H681 H 0.08456 0.8604 0.41664 0.0
H682 H 0.02636 0.86367 0.46596 0.0
H683 H 0.02165 0.86252 0.52475 0.0
H684 H 0.18321 0.86101 0.57858 0.0
H685 H 0.24055 0.86203 0.52933 0.0
C686 C 0.1973 0.86104 0.46996 0.0
C687 C 0.16886 0.85992 0.44034 0.0
C688 C 0.16449 0.86244 0.49836 0.0
C689 C 0.10714 0.86164 0.43927 0.0
C690 C 0.07403 0.86318 0.46743 0.0
C691 C 0.06941 0.86239 0.52568 0.0
C692 C 0.09803 0.86151 0.5554 0.0
C693 C 0.10223 0.86293 0.49716 0.0
C694 C 0.15999 0.86199 0.55613 0.0
C695 C 0.19286 0.86238 0.52794 0.0
H696 H 0.146 0.32522 0.36833 0.0
H697 H 0.30076 0.2554 0.38433 0.0
H698 H 0.25161 0.19732 0.36126 0.0
H699 H 0.16377 0.16692 0.33614 0.0
H700 H 0.00806 0.23761 0.32245 0.0
H701 H 0.0578 0.29463 0.34507 0.0
C702 C 0.16852 0.29713 0.36677 0.0
C703 C 0.22651 0.29418 0.37781 0.0
C704 C 0.13976 0.26412 0.35391 0.0
C705 C 0.25583 0.25789 0.376 0.0
C706 C 0.2278 0.2249 0.36279 0.0
C707 C 0.1409 0.19484 0.33811 0.0
C708 C 0.08248 0.19804 0.32727 0.0
C709 C 0.16967 0.22767 0.3516 0.0
C710 C 0.05308 0.23427 0.33046 0.0
C711 C 0.0815 0.26701 0.34336 0.0
H712 H 0.34319 0.21493 0.89945 0.0
H713 H 0.17691 0.24341 0.85657 0.0
H714 H 0.22256 0.29867 0.82778 0.0
H715 H 0.31134 0.33643 0.81288 0.0
H716 H 0.47737 0.30965 0.85711 0.0
H717 H 0.43054 0.25683 0.88811 0.0
C718 C 0.31711 0.23387 0.88425 0.0
C719 C 0.2571 0.22541 0.87985 0.0
C720 C 0.34368 0.26566 0.86811 0.0
C721 C 0.22326 0.2497 0.86006 0.0
C722 C 0.24936 0.28106 0.84363 0.0
C723 C 0.33707 0.31892 0.82928 0.0
C724 C 0.39766 0.32632 0.83245 0.0
C725 C 0.30975 0.28888 0.84706 0.0
C726 C 0.43053 0.30437 0.85441 0.0
C727 C 0.40386 0.27409 0.87197 0.0
H728 H 0.61749 0.17309 0.70671 0.0
H729 H 0.71849 0.24818 0.6443 0.0
H730 H 0.67211 0.30663 0.66755 0.0
H731 H 0.60498 0.33628 0.70686 0.0
H732 H 0.51493 0.26203 0.77463 0.0
H733 H 0.55624 0.2031 0.74904 0.0
C734 C 0.63003 0.20234 0.69873 0.0
C735 C 0.67171 0.20652 0.67412 0.0
C736 C 0.60554 0.23575 0.71339 0.0
C737 C 0.68628 0.24442 0.66313 0.0
C738 C 0.66013 0.27773 0.67656 0.0
C739 C 0.59461 0.30711 0.71596 0.0
C740 C 0.55687 0.30311 0.74231 0.0
C741 C 0.62006 0.27375 0.70185 0.0
C742 C 0.54417 0.26548 0.75438 0.0
C743 C 0.56751 0.23195 0.73968 0.0
H744 H 0.91259 0.34384 0.19181 0.0
H745 H 0.79235 0.27677 0.13406 0.0
H746 H 0.82368 0.21578 0.16022 0.0
H747 H 0.88242 0.18208 0.2016 0.0
H748 H 0.98625 0.2516 0.26638 0.0
H749 H 0.9617 0.31165 0.23699 0.0
C750 C 0.89189 0.31606 0.18569 0.0
C751 C 0.84954 0.31485 0.16146 0.0
C752 C 0.90656 0.28177 0.20254 0.0
C753 C 0.82548 0.27831 0.15248 0.0
C754 C 0.84281 0.24358 0.16769 0.0
C755 C 0.89904 0.21054 0.20929 0.0
C756 C 0.93632 0.21276 0.23579 0.0
C757 C 0.88273 0.24503 0.19307 0.0
C758 C 0.95723 0.24953 0.24606 0.0
C759 C 0.94363 0.28371 0.22912 0.0
H760 H 0.88405 0.67948 0.68683 0.0
H761 H 0.72343 0.74335 0.67134 0.0
H762 H 0.76874 0.80373 0.69251 0.0
H763 H 0.85447 0.83796 0.71507 0.0
H764 H 0.01551 0.77397 0.73131 0.0
H765 H 0.97055 0.7141 0.70962 0.0
C766 C 0.85944 0.70677 0.68826 0.0
C767 C 0.80087 0.70752 0.67779 0.0
C768 C 0.88599 0.74115 0.7003 0.0
C769 C 0.76867 0.74264 0.67943 0.0
C770 C 0.79458 0.77694 0.69142 0.0
C771 C 0.87956 0.81083 0.71408 0.0
C772 C 0.93795 0.81022 0.72513 0.0
C773 C 0.85324 0.77653 0.70189 0.0
C774 C 0.97043 0.77513 0.72295 0.0
C775 C 0.94467 0.74087 0.71072 0.0
H776 H 0.7624 0.7855 0.1853 0.0
H777 H 0.60266 0.83424 0.14765 0.0
H778 H 0.54475 0.78104 0.17278 0.0
H779 H 0.54032 0.72156 0.20719 0.0
H780 H 0.70297 0.67192 0.24189 0.0
H781 H 0.75878 0.72449 0.21676 0.0
C782 C 0.71491 0.78412 0.18262 0.0
C783 C 0.68639 0.81341 0.16497 0.0
C784 C 0.68249 0.75354 0.19693 0.0
C785 C 0.62505 0.81169 0.16122 0.0
C786 C 0.59219 0.78143 0.17564 0.0
C787 C 0.58795 0.72215 0.20914 0.0
C788 C 0.61698 0.69322 0.22735 0.0
C789 C 0.62043 0.75228 0.19381 0.0
C790 C 0.67893 0.69436 0.22914 0.0
C791 C 0.71121 0.72429 0.21443 0.0
H792 H 0.36305 0.7902 0.39425 0.0
H793 H 0.23554 0.79509 0.31881 0.0
H794 H 0.2931 0.7482 0.28751 0.0
H795 H 0.37896 0.70542 0.28183 0.0
H796 H 0.5025 0.69573 0.35921 0.0
H797 H 0.44798 0.74492 0.38927 0.0
C798 C 0.34797 0.78066 0.37106 0.0
C799 C 0.2957 0.79635 0.3586 0.0
C800 C 0.38078 0.75301 0.35347 0.0
C801 C 0.27635 0.78395 0.32851 0.0
C802 C 0.30907 0.75703 0.31071 0.0
C803 C 0.39414 0.71387 0.30527 0.0
C804 C 0.44521 0.69661 0.31805 0.0
C805 C 0.36142 0.74139 0.32292 0.0
C806 C 0.46385 0.70845 0.3485 0.0
C807 C 0.43238 0.73656 0.36589 0.0
H808 H 0.26053 0.74343 0.85779 0.0
H809 H 0.10731 0.69395 0.90335 0.0
H810 H 0.04459 0.74388 0.87827 0.0
H811 H 0.0338 0.7999 0.842 0.0
H812 H 0.18633 0.84754 0.79417 0.0
H813 H 0.24937 0.80019 0.82132 0.0
C814 C 0.21339 0.74393 0.86212 0.0
C815 C 0.18809 0.71551 0.88226 0.0
C816 C 0.17777 0.77192 0.8469 0.0
C817 C 0.12721 0.71596 0.888 0.0
C818 C 0.09159 0.74429 0.87359 0.0
C819 C 0.08053 0.79959 0.837 0.0
C820 C 0.10477 0.82589 0.81457 0.0
C821 C 0.11633 0.77211 0.85268 0.0
C822 C 0.16607 0.82611 0.80975 0.0
C823 C 0.20228 0.79943 0.82572 0.0
loop_
_geom_bond_atom_site_label_1
_geom_bond_atom_site_label_2
_geom_bond_distance
_geom_bond_site_symmetry_2
_ccdc_geom_bond_type
C0 N1 1.317 . S
C0 N2 1.348 . S
C0 C3 1.485 . S
N1 C0 1.317 . S
N1 N5 1.370 . S
N2 C0 1.348 . S
N2 C4 1.346 . S
C3 C0 1.485 . S
C3 H7 0.960 . S
C3 H8 0.961 . S
C3 H9 0.960 . S
C4 N2 1.346 . S
C4 N5 1.307 . S
C4 C6 1.486 . S
N5 N1 1.370 . S
N5 C4 1.307 . S
C6 C4 1.486 . S
C6 H10 0.960 . S
C6 H11 0.960 . S
C6 H12 0.959 . S
H7 C3 0.960 . S
H8 C3 0.961 . S
H9 C3 0.960 . S
H10 C6 0.960 . S
H11 C6 0.960 . S
H12 C6 0.959 . S
C13 N14 1.317 . S
C13 N15 1.348 . S
C13 C16 1.485 . S
N14 C13 1.317 . S
N14 N18 1.370 . S
N15 C13 1.348 . S
N15 C17 1.346 . S
C16 C13 1.485 . S
C16 H20 0.960 . S
C16 H21 0.961 . S
C16 H22 0.960 . S
C17 N15 1.346 . S
C17 N18 1.307 . S
C17 C19 1.486 . S
N18 N14 1.370 . S
N18 C17 1.307 . S
C19 C17 1.486 . S
C19 H23 0.960 . S
C19 H24 0.960 . S
C19 H25 0.959 . S
H20 C16 0.960 . S
H21 C16 0.961 . S
H22 C16 0.960 . S
H23 C19 0.960 . S
H24 C19 0.960 . S
H25 C19 0.959 . S
C26 N27 1.317 . S
C26 N28 1.348 . S
C26 C29 1.485 . S
N27 C26 1.317 . S
N27 N31 1.370 . S
N28 C26 1.348 . S
N28 C30 1.346 . S
C29 C26 1.485 . S
C29 H33 0.960 . S
C29 H34 0.961 . S
C29 H35 0.960 . S
C30 N28 1.346 . S
C30 N31 1.307 . S
C30 C32 1.486 . S
N31 N27 1.370 . S
N31 C30 1.307 . S
C32 C30 1.486 . S
C32 H36 0.960 . S
C32 H37 0.960 . S
C32 H38 0.959 . S
H33 C29 0.960 . S
H34 C29 0.961 . S
H35 C29 0.960 . S
H36 C32 0.960 . S
H37 C32 0.960 . S
H38 C32 0.959 . S
C39 N40 1.317 . S
C39 N41 1.348 . S
C39 C42 1.485 . S
N40 C39 1.317 . S
N40 N44 1.370 . S
N41 C39 1.348 . S
N41 C43 1.346 . S
C42 C39 1.485 . S
C42 H46 0.960 . S
C42 H47 0.961 . S
C42 H48 0.960 . S
C43 N41 1.346 . S
C43 N44 1.307 . S
C43 C45 1.486 . S
N44 N40 1.370 . S
N44 C43 1.307 . S
C45 C43 1.486 . S
C45 H49 0.960 . S
C45 H50 0.960 . S
C45 H51 0.959 . S
H46 C42 0.960 . S
H47 C42 0.961 . S
H48 C42 0.960 . S
H49 C45 0.960 . S
H50 C45 0.960 . S
H51 C45 0.959 . S
C52 N53 1.317 . S
C52 N54 1.348 . S
C52 C55 1.485 . S
N53 C52 1.317 . S
N53 N57 1.370 . S
N54 C52 1.348 . S
N54 C56 1.346 . S
C55 C52 1.485 . S
C55 H59 0.960 . S
C55 H60 0.961 . S
C55 H61 0.960 . S
C56 N54 1.346 . S
C56 N57 1.307 . S
C56 C58 1.486 . S
N57 N53 1.370 . S
N57 C56 1.307 . S
C58 C56 1.486 . S
C58 H62 0.960 . S
C58 H63 0.960 . S
C58 H64 0.959 . S
H59 C55 0.960 . S
H60 C55 0.961 . S
H61 C55 0.960 . S
H62 C58 0.960 . S
H63 C58 0.960 . S
H64 C58 0.959 . S
C65 N66 1.317 . S
C65 N67 1.348 . S
C65 C68 1.485 . S
N66 C65 1.317 . S
N66 N70 1.370 . S
N67 C65 1.348 . S
N67 C69 1.346 . S
C68 C65 1.485 . S
C68 H72 0.960 . S
C68 H73 0.961 . S
C68 H74 0.960 . S
C69 N67 1.346 . S
C69 N70 1.307 . S
C69 C71 1.486 . S
N70 N66 1.370 . S
N70 C69 1.307 . S
C71 C69 1.486 . S
C71 H75 0.960 . S
C71 H76 0.960 . S
C71 H77 0.959 . S
H72 C68 0.960 . S
H73 C68 0.961 . S
H74 C68 0.960 . S
H75 C71 0.960 . S
H76 C71 0.960 . S
H77 C71 0.959 . S
C78 N79 1.317 . S
C78 N80 1.348 . S
C78 C81 1.485 . S
N79 C78 1.317 . S
N79 N83 1.370 . S
N80 C78 1.348 . S
N80 C82 1.346 . S
C81 C78 1.485 . S
C81 H85 0.960 . S
C81 H86 0.961 . S
C81 H87 0.960 . S
C82 N80 1.346 . S
C82 N83 1.307 . S
C82 C84 1.486 . S
N83 N79 1.370 . S
N83 C82 1.307 . S
C84 C82 1.486 . S
C84 H88 0.960 . S
C84 H89 0.960 . S
C84 H90 0.959 . S
H85 C81 0.960 . S
H86 C81 0.961 . S
H87 C81 0.960 . S
H88 C84 0.960 . S
H89 C84 0.960 . S
H90 C84 0.959 . S
C91 N92 1.317 . S
C91 N93 1.348 . S
C91 C94 1.485 . S
N92 C91 1.317 . S
N92 N96 1.370 . S
N93 C91 1.348 . S
N93 C95 1.346 . S
C94 C91 1.485 . S
C94 H98 0.960 . S
C94 H99 0.961 . S
C94 H100 0.960 . S
C95 N93 1.346 . S
C95 N96 1.307 . S
C95 C97 1.486 . S
N96 N92 1.370 . S
N96 C95 1.307 . S
C97 C95 1.486 . S
C97 H101 0.960 . S
C97 H102 0.960 . S
C97 H103 0.959 . S
H98 C94 0.960 . S
H99 C94 0.961 . S
H100 C94 0.960 . S
H101 C97 0.960 . S
H102 C97 0.960 . S
H103 C97 0.959 . S
C104 C106 1.422 . S
C104 C108 1.415 . S
C104 N110 1.369 . S
C105 C106 1.419 . S
C105 C107 1.417 . S
C105 C117 1.424 1_545 S
C106 C104 1.422 . S
C106 C105 1.419 . S
C106 N116 1.359 . S
C107 C105 1.417 . S
C107 C109 1.329 . S
C107 H126 0.929 1_545 S
C108 C104 1.415 . S
C108 C109 1.437 . S
C108 C112 1.413 . S
C109 C107 1.329 . S
C109 C108 1.437 . S
C109 H131 0.929 . S
N110 C104 1.369 . S
N110 C111 1.338 . S
N110 Gd115 2.622 . S
C111 N110 1.338 . S
C111 C113 1.378 . S
C111 H123 0.929 . S
C112 C108 1.413 . S
C112 C113 1.348 . S
C112 H128 0.931 . S
C113 C111 1.378 . S
C113 C112 1.348 . S
C113 H129 0.930 . S
Gd114 N134 2.622 . S
Gd114 N141 2.570 . S
Gd114 O148 2.353 1_455 S
Gd114 O149 2.468 . S
Gd114 O150 2.427 . S
Gd114 O152 2.388 . S
Gd114 O153 2.386 . S
Gd114 O157 2.307 1_455 S
Gd114 C167 2.805 . S
Gd115 N110 2.622 . S
Gd115 N116 2.570 . S
Gd115 O147 2.386 . S
Gd115 O151 2.307 1_655 S
Gd115 O154 2.353 1_655 S
Gd115 O155 2.468 . S
Gd115 O156 2.427 . S
Gd115 O158 2.388 . S
Gd115 C179 2.805 . S
N116 C106 1.359 . S
N116 Gd115 2.570 . S
N116 C118 1.343 . S
C117 C105 1.424 1_565 S
C117 C119 1.321 . S
C117 H125 0.931 . S
C118 N116 1.343 . S
C118 C119 1.390 1_545 S
C118 H120 0.931 . S
C119 C117 1.321 . S
C119 C118 1.390 1_565 S
C119 H121 0.930 . S
H120 C118 0.931 . S
H121 C119 0.930 . S
H122 C145 0.931 . S
H123 C111 0.929 . S
H124 C146 0.930 . S
H125 C117 0.931 . S
H126 C107 0.929 1_565 S
H127 C136 0.929 . S
H128 C112 0.931 . S
H129 C113 0.930 . S
H130 C168 0.930 . S
H131 C109 0.929 . S
H132 C137 0.931 . S
H133 C138 0.930 . S
N134 Gd114 2.622 . S
N134 C135 1.369 . S
N134 C136 1.338 . S
C135 N134 1.369 . S
C135 C139 1.415 . S
C135 C142 1.422 . S
C136 H127 0.929 . S
C136 N134 1.338 . S
C136 C138 1.378 . S
C137 H132 0.931 . S
C137 C138 1.348 . S
C137 C139 1.413 . S
C138 H133 0.930 . S
C138 C136 1.378 . S
C138 C137 1.348 . S
C139 C135 1.415 . S
C139 C137 1.413 . S
C139 C169 1.437 . S
H140 C169 0.929 . S
N141 Gd114 2.570 . S
N141 C142 1.359 . S
N141 C145 1.343 . S
C142 C135 1.422 . S
C142 N141 1.359 . S
C142 C144 1.421 . S
C143 C144 1.422 . S
C143 C146 1.321 . S
C143 H170 0.931 . S
C144 C142 1.421 . S
C144 C143 1.422 . S
C144 C168 1.417 . S
C145 H122 0.931 . S
C145 N141 1.343 . S
C145 C146 1.390 . S
C146 H124 0.930 . S
C146 C143 1.321 . S
C146 C145 1.390 . S
O147 Gd115 2.386 . S
O147 C159 1.265 . S
O148 Gd114 2.353 1_655 S
O148 C159 1.242 . S
O149 Gd114 2.468 . S
O149 C167 1.263 . S
O150 Gd114 2.427 . S
O150 C167 1.252 . S
O151 Gd115 2.307 1_455 S
O151 C160 1.261 . S
O152 Gd114 2.388 . S
O152 C160 1.252 . S
O153 Gd114 2.386 . S
O153 C171 1.265 . S
O154 Gd115 2.353 1_455 S
O154 C171 1.242 . S
O155 Gd115 2.468 . S
O155 C179 1.263 . S
O156 Gd115 2.427 . S
O156 C179 1.252 . S
O157 Gd114 2.307 1_655 S
O157 C172 1.261 . S
O158 Gd115 2.388 . S
O158 C172 1.252 . S
C159 O147 1.265 . S
C159 O148 1.242 . S
C160 O151 1.261 . S
C160 O152 1.252 . S
C161 C164 1.394 . S
C161 C166 1.370 . S
C161 C167 1.500 . S
C162 C165 1.383 . S
C162 C166 1.395 . S
C163 C164 1.396 . S
C163 C165 1.365 . S
C163 H180 0.929 . S
C164 C161 1.394 . S
C164 C163 1.396 . S
C164 H181 0.930 . S
C165 C162 1.383 . S
C165 C163 1.365 . S
C165 H182 0.931 . S
C166 C161 1.370 . S
C166 C162 1.395 . S
C166 H183 0.930 . S
C167 Gd114 2.805 . S
C167 O149 1.263 . S
C167 O150 1.252 . S
C167 C161 1.500 . S
C168 H130 0.930 . S
C168 C144 1.417 . S
C168 C169 1.329 . S
C169 C139 1.437 . S
C169 H140 0.929 . S
C169 C168 1.329 . S
H170 C143 0.931 . S
C171 O153 1.265 . S
C171 O154 1.242 . S
C172 O157 1.261 . S
C172 O158 1.252 . S
C173 C176 1.394 . S
C173 C178 1.370 . S
C173 C179 1.500 . S
C174 C177 1.383 . S
C174 C178 1.395 . S
C175 C176 1.396 . S
C175 C177 1.365 . S
C175 H184 0.929 . S
C176 C173 1.394 . S
C176 C175 1.396 . S
C176 H185 0.930 . S
C177 C174 1.383 . S
C177 C175 1.365 . S
C177 H186 0.931 . S
C178 C173 1.370 . S
C178 C174 1.395 . S
C178 H187 0.930 . S
C179 Gd115 2.805 . S
C179 O155 1.263 . S
C179 O156 1.252 . S
C179 C173 1.500 . S
H180 C163 0.929 . S
H181 C164 0.930 . S
H182 C165 0.931 . S
H183 C166 0.930 . S
H184 C175 0.929 . S
H185 C176 0.930 . S
H186 C177 0.931 . S
H187 C178 0.930 . S
C188 C190 1.422 . S
C188 C192 1.415 . S
C188 N194 1.369 . S
C189 C190 1.421 . S
C189 C191 1.417 . S
C189 C201 1.422 . S
C190 C188 1.422 . S
C190 C189 1.421 . S
C190 N200 1.359 . S
C191 C189 1.417 . S
C191 C193 1.329 . S
C191 H210 0.930 . S
C192 C188 1.415 . S
C192 C193 1.437 . S
C192 C196 1.413 . S
C193 C191 1.329 . S
C193 C192 1.437 . S
C193 H215 0.929 . S
N194 C188 1.369 . S
N194 C195 1.338 . S
N194 Gd199 2.622 . S
C195 N194 1.338 . S
C195 C197 1.378 . S
C195 H207 0.929 . S
C196 C192 1.413 . S
C196 C197 1.348 . S
C196 H212 0.931 . S
C197 C195 1.378 . S
C197 C196 1.348 . S
C197 H213 0.930 . S
Gd198 N218 2.622 . S
Gd198 N225 2.570 . S
Gd198 O232 2.353 . S
Gd198 O233 2.468 . S
Gd198 O234 2.427 . S
Gd198 O236 2.388 . S
Gd198 O237 2.386 . S
Gd198 O241 2.307 . S
Gd198 C251 2.805 . S
Gd199 N194 2.622 . S
Gd199 N200 2.570 . S
Gd199 O231 2.386 . S
Gd199 O235 2.307 . S
Gd199 O238 2.353 . S
Gd199 O239 2.468 . S
Gd199 O240 2.427 . S
Gd199 O242 2.388 . S
Gd199 C263 2.805 . S
N200 C190 1.359 . S
N200 Gd199 2.570 . S
N200 C202 1.343 . S
C201 C189 1.422 . S
C201 C203 1.321 . S
C201 H209 0.931 . S
C202 N200 1.343 . S
C202 C203 1.390 . S
C202 H204 0.931 . S
C203 C201 1.321 . S
C203 C202 1.390 . S
C203 H205 0.930 . S
H204 C202 0.931 . S
H205 C203 0.930 . S
H206 C229 0.931 . S
H207 C195 0.929 . S
H208 C230 0.930 . S
H209 C201 0.931 . S
H210 C191 0.930 . S
H211 C220 0.929 . S
H212 C196 0.931 . S
H213 C197 0.930 . S
H214 C252 0.930 . S
H215 C193 0.929 . S
H216 C221 0.931 . S
H217 C222 0.930 . S
N218 Gd198 2.622 . S
N218 C219 1.369 . S
N218 C220 1.338 . S
C219 N218 1.369 . S
C219 C223 1.415 . S
C219 C226 1.422 . S
C220 H211 0.929 . S
C220 N218 1.338 . S
C220 C222 1.378 . S
C221 H216 0.931 . S
C221 C222 1.348 . S
C221 C223 1.413 . S
C222 H217 0.930 . S
C222 C220 1.378 . S
C222 C221 1.348 . S
C223 C219 1.415 . S
C223 C221 1.413 . S
C223 C253 1.437 . S
H224 C253 0.929 . S
N225 Gd198 2.570 . S
N225 C226 1.359 . S
N225 C229 1.343 . S
C226 C219 1.422 . S
C226 N225 1.359 . S
C226 C228 1.421 . S
C227 C228 1.422 . S
C227 C230 1.321 . S
C227 H254 0.931 . S
C228 C226 1.421 . S
C228 C227 1.422 . S
C228 C252 1.417 . S
C229 H206 0.931 . S
C229 N225 1.343 . S
C229 C230 1.390 . S
C230 H208 0.930 . S
C230 C227 1.321 . S
C230 C229 1.390 . S
O231 Gd199 2.386 . S
O231 C243 1.265 . S
O232 Gd198 2.353 . S
O232 C243 1.242 . S
O233 Gd198 2.468 . S
O233 C251 1.263 . S
O234 Gd198 2.427 . S
O234 C251 1.252 . S
O235 Gd199 2.307 . S
O235 C244 1.261 . S
O236 Gd198 2.388 . S
O236 C244 1.252 . S
O237 Gd198 2.386 . S
O237 C255 1.265 . S
O238 Gd199 2.353 . S
O238 C255 1.242 . S
O239 Gd199 2.468 . S
O239 C263 1.263 . S
O240 Gd199 2.427 . S
O240 C263 1.252 . S
O241 Gd198 2.307 . S
O241 C256 1.261 . S
O242 Gd199 2.388 . S
O242 C256 1.252 . S
C243 O231 1.265 . S
C243 O232 1.242 . S
C244 O235 1.261 . S
C244 O236 1.252 . S
C245 C248 1.394 . S
C245 C250 1.370 . S
C245 C251 1.500 . S
C246 C249 1.383 . S
C246 C250 1.395 . S
C247 C248 1.396 . S
C247 C249 1.365 . S
C247 H264 0.929 . S
C248 C245 1.394 . S
C248 C247 1.396 . S
C248 H265 0.930 . S
C249 C246 1.383 . S
C249 C247 1.365 . S
C249 H266 0.931 . S
C250 C245 1.370 . S
C250 C246 1.395 . S
C250 H267 0.930 . S
C251 Gd198 2.805 . S
C251 O233 1.263 . S
C251 O234 1.252 . S
C251 C245 1.500 . S
C252 H214 0.930 . S
C252 C228 1.417 . S
C252 C253 1.329 . S
C253 C223 1.437 . S
C253 H224 0.929 . S
C253 C252 1.329 . S
H254 C227 0.931 . S
C255 O237 1.265 . S
C255 O238 1.242 . S
C256 O241 1.261 . S
C256 O242 1.252 . S
C257 C260 1.394 . S
C257 C262 1.370 . S
C257 C263 1.500 . S
C258 C261 1.383 . S
C258 C262 1.395 . S
C259 C260 1.396 . S
C259 C261 1.365 . S
C259 H268 0.929 . S
C260 C257 1.394 . S
C260 C259 1.396 . S
C260 H269 0.930 . S
C261 C258 1.383 . S
C261 C259 1.365 . S
C261 H270 0.931 . S
C262 C257 1.370 . S
C262 C258 1.395 . S
C262 H271 0.930 . S
C263 Gd199 2.805 . S
C263 O239 1.263 . S
C263 O240 1.252 . S
C263 C257 1.500 . S
H264 C247 0.929 . S
H265 C248 0.930 . S
H266 C249 0.931 . S
H267 C250 0.930 . S
H268 C259 0.929 . S
H269 C260 0.930 . S
H270 C261 0.931 . S
H271 C262 0.930 . S
C272 C274 1.422 . S
C272 C276 1.415 . S
C272 N278 1.369 . S
C273 C274 1.421 . S
C273 C275 1.417 . S
C273 C285 1.422 . S
C274 C272 1.422 . S
C274 C273 1.421 . S
C274 N284 1.359 . S
C275 C273 1.417 . S
C275 C277 1.329 . S
C275 H294 0.930 . S
C276 C272 1.415 . S
C276 C277 1.437 . S
C276 C280 1.413 . S
C277 C275 1.329 . S
C277 C276 1.437 . S
C277 H299 0.929 . S
N278 C272 1.369 . S
N278 C279 1.338 . S
N278 Gd283 2.622 . S
C279 N278 1.338 . S
C279 C281 1.378 . S
C279 H291 0.929 . S
C280 C276 1.413 . S
C280 C281 1.348 . S
C280 H296 0.931 . S
C281 C279 1.378 . S
C281 C280 1.348 . S
C281 H297 0.930 . S
Gd282 N302 2.622 . S
Gd282 N309 2.570 . S
Gd282 O316 2.353 . S
Gd282 O317 2.468 . S
Gd282 O318 2.427 . S
Gd282 O320 2.388 . S
Gd282 O321 2.386 . S
Gd282 O325 2.315 . S
Gd282 C335 2.805 . S
Gd283 N278 2.622 . S
Gd283 N284 2.570 . S
Gd283 O315 2.386 . S
Gd283 O319 2.307 1_655 S
Gd283 O322 2.353 1_655 S
Gd283 O323 2.468 . S
Gd283 O324 2.427 . S
Gd283 O326 2.388 . S
Gd283 C347 2.805 . S
N284 C274 1.359 . S
N284 Gd283 2.570 . S
N284 C286 1.343 . S
C285 C273 1.422 . S
C285 C287 1.321 . S
C285 H293 0.931 . S
C286 N284 1.343 . S
C286 C287 1.390 . S
C286 H288 0.931 . S
C287 C285 1.321 . S
C287 C286 1.390 . S
C287 H289 0.930 . S
H288 C286 0.931 . S
H289 C287 0.930 . S
H290 C313 0.931 . S
H291 C279 0.929 . S
H292 C314 0.930 . S
H293 C285 0.931 . S
H294 C275 0.930 . S
H295 C304 0.929 . S
H296 C280 0.931 . S
H297 C281 0.930 . S
H298 C336 0.929 1_545 S
H299 C277 0.929 . S
H300 C305 0.931 . S
H301 C306 0.930 . S
N302 Gd282 2.622 . S
N302 C303 1.369 . S
N302 C304 1.338 . S
C303 N302 1.369 . S
C303 C307 1.415 . S
C303 C310 1.422 . S
C304 H295 0.929 . S
C304 N302 1.338 . S
C304 C306 1.378 . S
C305 H300 0.931 . S
C305 C306 1.348 . S
C305 C307 1.413 . S
C306 H301 0.930 . S
C306 C304 1.378 . S
C306 C305 1.348 . S
C307 C303 1.415 . S
C307 C305 1.413 . S
C307 C337 1.437 . S
H308 C337 0.929 . S
N309 Gd282 2.570 . S
N309 C310 1.359 . S
N309 C313 1.343 . S
C310 C303 1.422 . S
C310 N309 1.359 . S
C310 C312 1.419 . S
C311 C312 1.424 1_545 S
C311 C314 1.321 . S
C311 H338 0.931 . S
C312 C310 1.419 . S
C312 C311 1.424 1_565 S
C312 C336 1.417 . S
C313 H290 0.931 . S
C313 N309 1.343 . S
C313 C314 1.390 1_565 S
C314 H292 0.930 . S
C314 C311 1.321 . S
C314 C313 1.390 1_545 S
O315 Gd283 2.386 . S
O315 C327 1.265 . S
O316 Gd282 2.353 . S
O316 C327 1.242 1_455 S
O317 Gd282 2.468 . S
O317 C335 1.263 . S
O318 Gd282 2.427 . S
O318 C335 1.252 . S
O319 Gd283 2.307 1_455 S
O319 C328 1.261 . S
O320 Gd282 2.388 . S
O320 C328 1.252 . S
O321 Gd282 2.386 . S
O321 C339 1.265 . S
O322 Gd283 2.353 1_455 S
O322 C339 1.242 . S
O323 Gd283 2.468 . S
O323 C347 1.263 . S
O324 Gd283 2.427 . S
O324 C347 1.252 . S
O325 Gd282 2.315 . S
O325 C340 1.252 1_455 S
O326 Gd283 2.388 . S
O326 C340 1.252 . S
C327 O315 1.265 . S
C327 O316 1.242 1_655 S
C328 O319 1.261 . S
C328 O320 1.252 . S
C329 C332 1.394 . S
C329 C334 1.370 . S
C329 C335 1.500 . S
C330 C333 1.383 . S
C330 C334 1.395 . S
C331 C332 1.396 . S
C331 C333 1.365 . S
C331 H348 0.929 . S
C332 C329 1.394 . S
C332 C331 1.396 . S
C332 H349 0.930 . S
C333 C330 1.383 . S
C333 C331 1.365 . S
C333 H350 0.931 . S
C334 C329 1.370 . S
C334 C330 1.395 . S
C334 H351 0.930 . S
C335 Gd282 2.805 . S
C335 O317 1.263 . S
C335 O318 1.252 . S
C335 C329 1.500 . S
C336 H298 0.929 1_565 S
C336 C312 1.417 . S
C336 C337 1.329 . S
C337 C307 1.437 . S
C337 H308 0.929 . S
C337 C336 1.329 . S
H338 C311 0.931 . S
C339 O321 1.265 . S
C339 O322 1.242 . S
C340 O325 1.252 1_655 S
C340 O326 1.252 . S
C341 C344 1.394 . S
C341 C346 1.370 . S
C341 C347 1.500 . S
C342 C345 1.383 . S
C342 C346 1.395 . S
C343 C344 1.396 . S
C343 C345 1.365 . S
C343 H352 0.929 . S
C344 C341 1.394 . S
C344 C343 1.396 . S
C344 H353 0.930 . S
C345 C342 1.383 . S
C345 C343 1.365 . S
C345 H354 0.931 . S
C346 C341 1.370 . S
C346 C342 1.395 . S
C346 H355 0.930 . S
C347 Gd283 2.805 . S
C347 O323 1.263 . S
C347 O324 1.252 . S
C347 C341 1.500 . S
H348 C331 0.929 . S
H349 C332 0.930 . S
H350 C333 0.931 . S
H351 C334 0.930 . S
H352 C343 0.929 . S
H353 C344 0.930 . S
H354 C345 0.931 . S
H355 C346 0.930 . S
C356 C358 1.422 . S
C356 C360 1.415 . S
C356 N362 1.369 . S
C357 C358 1.421 . S
C357 C359 1.417 . S
C357 C369 1.422 . S
C358 C356 1.422 . S
C358 C357 1.421 . S
C358 N368 1.359 . S
C359 C357 1.417 . S
C359 C361 1.329 . S
C359 H378 0.930 . S
C360 C356 1.415 . S
C360 C361 1.437 . S
C360 C364 1.413 . S
C361 C359 1.329 . S
C361 C360 1.437 . S
C361 H383 0.929 . S
N362 C356 1.369 . S
N362 C363 1.338 . S
N362 Gd367 2.622 . S
C363 N362 1.338 . S
C363 C365 1.378 . S
C363 H375 0.929 . S
C364 C360 1.413 . S
C364 C365 1.348 . S
C364 H380 0.931 . S
C365 C363 1.378 . S
C365 C364 1.348 . S
C365 H381 0.930 . S
Gd366 N386 2.622 . S
Gd366 N393 2.570 . S
Gd366 O400 2.353 . S
Gd366 O401 2.468 . S
Gd366 O402 2.427 . S
Gd366 O404 2.388 . S
Gd366 O405 2.386 . S
Gd366 O409 2.307 . S
Gd366 C419 2.805 . S
Gd367 N362 2.622 . S
Gd367 N368 2.570 . S
Gd367 O399 2.386 . S
Gd367 O403 2.307 . S
Gd367 O406 2.353 . S
Gd367 O407 2.468 . S
Gd367 O408 2.427 . S
Gd367 O410 2.388 . S
Gd367 C431 2.805 . S
N368 C358 1.359 . S
N368 Gd367 2.570 . S
N368 C370 1.343 . S
C369 C357 1.422 . S
C369 C371 1.321 . S
C369 H377 0.931 . S
C370 N368 1.343 . S
C370 C371 1.390 . S
C370 H372 0.931 . S
C371 C369 1.321 . S
C371 C370 1.390 . S
C371 H373 0.930 . S
H372 C370 0.931 . S
H373 C371 0.930 . S
H374 C397 0.931 . S
H375 C363 0.929 . S
H376 C398 0.930 . S
H377 C369 0.931 . S
H378 C359 0.930 . S
H379 C388 0.929 . S
H380 C364 0.931 . S
H381 C365 0.930 . S
H382 C420 0.930 . S
H383 C361 0.929 . S
H384 C389 0.931 . S
H385 C390 0.930 . S
N386 Gd366 2.622 . S
N386 C387 1.369 . S
N386 C388 1.338 . S
C387 N386 1.369 . S
C387 C391 1.415 . S
C387 C394 1.422 . S
C388 H379 0.929 . S
C388 N386 1.338 . S
C388 C390 1.378 . S
C389 H384 0.931 . S
C389 C390 1.348 . S
C389 C391 1.413 . S
C390 H385 0.930 . S
C390 C388 1.378 . S
C390 C389 1.348 . S
C391 C387 1.415 . S
C391 C389 1.413 . S
C391 C421 1.437 . S
H392 C421 0.929 . S
N393 Gd366 2.570 . S
N393 C394 1.359 . S
N393 C397 1.343 . S
C394 C387 1.422 . S
C394 N393 1.359 . S
C394 C396 1.421 . S
C395 C396 1.422 . S
C395 C398 1.321 . S
C395 H422 0.931 . S
C396 C394 1.421 . S
C396 C395 1.422 . S
C396 C420 1.417 . S
C397 H374 0.931 . S
C397 N393 1.343 . S
C397 C398 1.390 . S
C398 H376 0.930 . S
C398 C395 1.321 . S
C398 C397 1.390 . S
O399 Gd367 2.386 . S
O399 C411 1.265 . S
O400 Gd366 2.353 . S
O400 C411 1.242 . S
O401 Gd366 2.468 . S
O401 C419 1.263 . S
O402 Gd366 2.427 . S
O402 C419 1.252 . S
O403 Gd367 2.307 . S
O403 C412 1.261 . S
O404 Gd366 2.388 . S
O404 C412 1.252 . S
O405 Gd366 2.386 . S
O405 C423 1.265 . S
O406 Gd367 2.353 . S
O406 C423 1.242 . S
O407 Gd367 2.468 . S
O407 C431 1.263 . S
O408 Gd367 2.427 . S
O408 C431 1.252 . S
O409 Gd366 2.307 . S
O409 C424 1.261 . S
O410 Gd367 2.388 . S
O410 C424 1.252 . S
C411 O399 1.265 . S
C411 O400 1.242 . S
C412 O403 1.261 . S
C412 O404 1.252 . S
C413 C416 1.394 . S
C413 C418 1.370 . S
C413 C419 1.500 . S
C414 C417 1.383 . S
C414 C418 1.395 . S
C415 C416 1.396 . S
C415 C417 1.365 . S
C415 H432 0.929 . S
C416 C413 1.394 . S
C416 C415 1.396 . S
C416 H433 0.930 . S
C417 C414 1.383 . S
C417 C415 1.365 . S
C417 H434 0.931 . S
C418 C413 1.370 . S
C418 C414 1.395 . S
C418 H435 0.930 . S
C419 Gd366 2.805 . S
C419 O401 1.263 . S
C419 O402 1.252 . S
C419 C413 1.500 . S
C420 H382 0.930 . S
C420 C396 1.417 . S
C420 C421 1.329 . S
C421 C391 1.437 . S
C421 H392 0.929 . S
C421 C420 1.329 . S
H422 C395 0.931 . S
C423 O405 1.265 . S
C423 O406 1.242 . S
C424 O409 1.261 . S
C424 O410 1.252 . S
C425 C428 1.394 . S
C425 C430 1.370 . S
C425 C431 1.500 . S
C426 C429 1.383 . S
C426 C430 1.395 . S
C427 C428 1.396 . S
C427 C429 1.365 . S
C427 H436 0.929 . S
C428 C425 1.394 . S
C428 C427 1.396 . S
C428 H437 0.930 . S
C429 C426 1.383 . S
C429 C427 1.365 . S
C429 H438 0.931 . S
C430 C425 1.370 . S
C430 C426 1.395 . S
C430 H439 0.930 . S
C431 Gd367 2.805 . S
C431 O407 1.263 . S
C431 O408 1.252 . S
C431 C425 1.500 . S
H432 C415 0.929 . S
H433 C416 0.930 . S
H434 C417 0.931 . S
H435 C418 0.930 . S
H436 C427 0.929 . S
H437 C428 0.930 . S
H438 C429 0.931 . S
H439 C430 0.930 . S
H440 C446 0.930 . S
H441 C449 0.930 . S
H442 C450 0.930 1_545 S
H443 C451 0.930 . S
H444 C454 0.930 . S
H445 C455 0.930 . S
C446 H440 0.930 . S
C446 C447 1.355 . S
C446 C448 1.415 . S
C447 C446 1.355 . S
C447 C449 1.419 . S
C448 C446 1.415 . S
C448 C453 1.425 . S
C448 C455 1.409 . S
C449 H441 0.930 . S
C449 C447 1.419 . S
C449 C450 1.362 . S
C450 H442 0.930 1_565 S
C450 C449 1.362 . S
C450 C453 1.409 . S
C451 H443 0.930 . S
C451 C452 1.355 . S
C451 C453 1.415 1_545 S
C452 C451 1.355 . S
C452 C454 1.419 1_545 S
C453 C448 1.425 . S
C453 C450 1.409 . S
C453 C451 1.415 1_565 S
C454 H444 0.930 . S
C454 C452 1.419 1_565 S
C454 C455 1.362 . S
C455 H445 0.930 . S
C455 C448 1.409 . S
C455 C454 1.362 . S
H456 C462 0.930 . S
H457 C465 0.930 . S
H458 C466 0.930 . S
H459 C467 0.930 . S
H460 C470 0.930 . S
H461 C471 0.930 . S
C462 H456 0.930 . S
C462 C463 1.355 . S
C462 C464 1.415 . S
C463 C462 1.355 . S
C463 C465 1.419 . S
C464 C462 1.415 . S
C464 C469 1.425 . S
C464 C471 1.409 . S
C465 H457 0.930 . S
C465 C463 1.419 . S
C465 C466 1.362 . S
C466 H458 0.930 . S
C466 C465 1.362 . S
C466 C469 1.409 . S
C467 H459 0.930 . S
C467 C468 1.355 . S
C467 C469 1.415 . S
C468 C467 1.355 . S
C468 C470 1.419 . S
C469 C464 1.425 . S
C469 C466 1.409 . S
C469 C467 1.415 . S
C470 H460 0.930 . S
C470 C468 1.419 . S
C470 C471 1.362 . S
C471 H461 0.930 . S
C471 C464 1.409 . S
C471 C470 1.362 . S
H472 C478 0.930 . S
H473 C481 0.930 . S
H474 C482 0.930 . S
H475 C483 0.930 . S
H476 C486 0.930 . S
H477 C487 0.930 . S
C478 H472 0.930 . S
C478 C479 1.355 . S
C478 C480 1.415 . S
C479 C478 1.355 . S
C479 C481 1.419 . S
C480 C478 1.415 . S
C480 C485 1.425 . S
C480 C487 1.409 . S
C481 H473 0.930 . S
C481 C479 1.419 . S
C481 C482 1.362 . S
C482 H474 0.930 . S
C482 C481 1.362 . S
C482 C485 1.409 . S
C483 H475 0.930 . S
C483 C484 1.355 . S
C483 C485 1.415 . S
C484 C483 1.355 . S
C484 C486 1.419 . S
C485 C480 1.425 . S
C485 C482 1.409 . S
C485 C483 1.415 . S
C486 H476 0.930 . S
C486 C484 1.419 . S
C486 C487 1.362 . S
C487 H477 0.930 . S
C487 C480 1.409 . S
C487 C486 1.362 . S
H488 C494 0.930 . S
H489 C497 0.930 . S
H490 C498 0.930 . S
H491 C499 0.930 . S
H492 C502 0.930 . S
H493 C503 0.927 1_545 S
C494 H488 0.930 . S
C494 C495 1.355 . S
C494 C496 1.415 . S
C495 C494 1.355 . S
C495 C497 1.419 . S
C496 C494 1.415 . S
C496 C501 1.425 . S
C496 C503 1.421 . S
C497 H489 0.930 . S
C497 C495 1.419 . S
C497 C498 1.362 . S
C498 H490 0.930 . S
C498 C497 1.362 . S
C498 C501 1.409 . S
C499 H491 0.930 . S
C499 C500 1.355 1_565 S
C499 C501 1.415 . S
C500 C499 1.355 1_545 S
C500 C502 1.419 . S
C501 C496 1.425 . S
C501 C498 1.409 . S
C501 C499 1.415 . S
C502 H492 0.930 . S
C502 C500 1.419 . S
C502 C503 1.354 1_545 S
C503 H493 0.927 1_565 S
C503 C496 1.421 . S
C503 C502 1.354 1_565 S
H504 C510 0.930 . S
H505 C513 0.930 . S
H506 C514 0.930 . S
H507 C515 0.930 . S
H508 C518 0.930 . S
H509 C519 0.930 . S
C510 H504 0.930 . S
C510 C511 1.355 . S
C510 C512 1.415 . S
C511 C510 1.355 . S
C511 C513 1.419 . S
C512 C510 1.415 . S
C512 C517 1.425 . S
C512 C519 1.409 . S
C513 H505 0.930 . S
C513 C511 1.419 . S
C513 C514 1.362 . S
C514 H506 0.930 . S
C514 C513 1.362 . S
C514 C517 1.409 . S
C515 H507 0.930 . S
C515 C516 1.355 . S
C515 C517 1.415 1_565 S
C516 C515 1.355 . S
C516 C518 1.419 1_565 S
C517 C512 1.425 . S
C517 C514 1.409 . S
C517 C515 1.415 1_545 S
C518 H508 0.930 . S
C518 C516 1.419 1_545 S
C518 C519 1.362 . S
C519 H509 0.930 . S
C519 C512 1.409 . S
C519 C518 1.362 . S
H520 C526 0.930 . S
H521 C529 0.930 . S
H522 C530 0.930 . S
H523 C531 0.930 . S
H524 C534 0.930 . S
H525 C535 0.930 . S
C526 H520 0.930 . S
C526 C527 1.355 . S
C526 C528 1.415 . S
C527 C526 1.355 . S
C527 C529 1.419 . S
C528 C526 1.415 . S
C528 C533 1.425 . S
C528 C535 1.409 . S
C529 H521 0.930 . S
C529 C527 1.419 . S
C529 C530 1.362 . S
C530 H522 0.930 . S
C530 C529 1.362 . S
C530 C533 1.409 . S
C531 H523 0.930 . S
C531 C532 1.355 . S
C531 C533 1.415 . S
C532 C531 1.355 . S
C532 C534 1.419 . S
C533 C528 1.425 . S
C533 C530 1.409 . S
C533 C531 1.415 . S
C534 H524 0.930 . S
C534 C532 1.419 . S
C534 C535 1.362 . S
C535 H525 0.930 . S
C535 C528 1.409 . S
C535 C534 1.362 . S
H536 C542 0.930 . S
H537 C545 0.930 . S
H538 C546 0.930 . S
H539 C547 0.930 . S
H540 C550 0.930 . S
H541 C551 0.930 . S
C542 H536 0.930 . S
C542 C543 1.355 . S
C542 C544 1.415 . S
C543 C542 1.355 . S
C543 C545 1.419 . S
C544 C542 1.415 . S
C544 C549 1.425 . S
C544 C551 1.409 . S
C545 H537 0.930 . S
C545 C543 1.419 . S
C545 C546 1.362 . S
C546 H538 0.930 . S
C546 C545 1.362 . S
C546 C549 1.409 . S
C547 H539 0.930 . S
C547 C548 1.355 . S
C547 C549 1.415 . S
C548 C547 1.355 . S
C548 C550 1.419 . S
C549 C544 1.425 . S
C549 C546 1.409 . S
C549 C547 1.415 . S
C550 H540 0.930 . S
C550 C548 1.419 . S
C550 C551 1.362 . S
C551 H541 0.930 . S
C551 C544 1.409 . S
C551 C550 1.362 . S
H552 C558 0.930 . S
H553 C561 0.930 . S
H554 C562 0.930 . S
H555 C563 0.930 1_565 S
H556 C566 0.930 1_565 S
H557 C567 0.930 . S
C558 H552 0.930 . S
C558 C559 1.355 . S
C558 C560 1.415 . S
C559 C558 1.355 . S
C559 C561 1.419 . S
C560 C558 1.415 . S
C560 C565 1.425 . S
C560 C567 1.409 . S
C561 H553 0.930 . S
C561 C559 1.419 . S
C561 C562 1.362 . S
C562 H554 0.930 . S
C562 C561 1.362 . S
C562 C565 1.409 . S
C563 H555 0.930 1_545 S
C563 C564 1.355 1_545 S
C563 C565 1.415 . S
C564 C563 1.355 1_565 S
C564 C566 1.419 1_565 S
C565 C560 1.425 . S
C565 C562 1.409 . S
C565 C563 1.415 . S
C566 H556 0.930 1_545 S
C566 C564 1.419 1_545 S
C566 C567 1.362 . S
C567 H557 0.930 . S
C567 C560 1.409 . S
C567 C566 1.362 . S
H568 C574 0.930 . S
H569 C577 0.930 . S
H570 C578 0.930 1_554 S
H571 C579 0.930 . S
H572 C582 0.930 . S
H573 C583 0.930 . S
C574 H568 0.930 . S
C574 C575 1.355 . S
C574 C576 1.415 . S
C575 C574 1.355 . S
C575 C577 1.419 . S
C576 C574 1.415 . S
C576 C581 1.425 1_556 S
C576 C583 1.409 . S
C577 H569 0.930 . S
C577 C575 1.419 . S
C577 C578 1.362 . S
C578 H570 0.930 1_556 S
C578 C577 1.362 . S
C578 C581 1.409 1_556 S
C579 H571 0.930 . S
C579 C580 1.355 . S
C579 C581 1.415 . S
C580 C579 1.355 . S
C580 C582 1.419 . S
C581 C576 1.425 1_554 S
C581 C578 1.409 1_554 S
C581 C579 1.415 . S
C582 H572 0.930 . S
C582 C580 1.419 . S
C582 C583 1.362 1_554 S
C583 H573 0.930 . S
C583 C576 1.409 . S
C583 C582 1.362 1_556 S
H584 C590 0.930 . S
H585 C593 0.930 . S
H586 C594 0.930 . S
H587 C595 0.930 . S
H588 C598 0.930 . S
H589 C599 0.930 . S
C590 H584 0.930 . S
C590 C591 1.355 . S
C590 C592 1.415 . S
C591 C590 1.355 . S
C591 C593 1.419 . S
C592 C590 1.415 . S
C592 C597 1.425 . S
C592 C599 1.409 . S
C593 H585 0.930 . S
C593 C591 1.419 . S
C593 C594 1.362 . S
C594 H586 0.930 . S
C594 C593 1.362 . S
C594 C597 1.409 . S
C595 H587 0.930 . S
C595 C596 1.355 . S
C595 C597 1.415 . S
C596 C595 1.355 . S
C596 C598 1.419 . S
C597 C592 1.425 . S
C597 C594 1.409 . S
C597 C595 1.415 . S
C598 H588 0.930 . S
C598 C596 1.419 . S
C598 C599 1.362 . S
C599 H589 0.930 . S
C599 C592 1.409 . S
C599 C598 1.362 . S
H600 C606 0.930 . S
H601 C609 0.930 . S
H602 C610 0.930 . S
H603 C611 0.930 . S
H604 C614 0.930 . S
H605 C615 0.930 . S
C606 H600 0.930 . S
C606 C607 1.355 . S
C606 C608 1.415 . S
C607 C606 1.355 . S
C607 C609 1.419 . S
C608 C606 1.415 . S
C608 C613 1.425 . S
C608 C615 1.409 1_554 S
C609 H601 0.930 . S
C609 C607 1.419 . S
C609 C610 1.362 . S
C610 H602 0.930 . S
C610 C609 1.362 . S
C610 C613 1.409 . S
C611 H603 0.930 . S
C611 C612 1.355 . S
C611 C613 1.415 1_556 S
C612 C611 1.355 . S
C612 C614 1.419 . S
C613 C608 1.425 . S
C613 C610 1.409 . S
C613 C611 1.415 1_554 S
C614 H604 0.930 . S
C614 C612 1.419 . S
C614 C615 1.362 . S
C615 H605 0.930 . S
C615 C608 1.409 1_556 S
C615 C614 1.362 . S
H616 C622 0.930 . S
H617 C625 0.930 . S
H618 C626 0.930 . S
H619 C627 0.930 . S
H620 C630 0.930 . S
H621 C631 0.930 . S
C622 H616 0.930 . S
C622 C623 1.355 . S
C622 C624 1.415 . S
C623 C622 1.355 . S
C623 C625 1.419 . S
C624 C622 1.415 . S
C624 C629 1.425 . S
C624 C631 1.409 . S
C625 H617 0.930 . S
C625 C623 1.419 . S
C625 C626 1.362 . S
C626 H618 0.930 . S
C626 C625 1.362 . S
C626 C629 1.409 . S
C627 H619 0.930 . S
C627 C628 1.355 . S
C627 C629 1.415 . S
C628 C627 1.355 . S
C628 C630 1.419 . S
C629 C624 1.425 . S
C629 C626 1.409 . S
C629 C627 1.415 . S
C630 H620 0.930 . S
C630 C628 1.419 . S
C630 C631 1.362 . S
C631 H621 0.930 . S
C631 C624 1.409 . S
C631 C630 1.362 . S
H632 C638 0.930 . S
H633 C641 0.930 . S
H634 C642 0.930 . S
H635 C643 0.930 . S
H636 C646 0.930 . S
H637 C647 0.930 . S
C638 H632 0.930 . S
C638 C639 1.355 . S
C638 C640 1.415 . S
C639 C638 1.355 . S
C639 C641 1.419 . S
C640 C638 1.415 . S
C640 C645 1.425 . S
C640 C647 1.409 1_554 S
C641 H633 0.930 . S
C641 C639 1.419 . S
C641 C642 1.362 . S
C642 H634 0.930 . S
C642 C641 1.362 . S
C642 C645 1.409 . S
C643 H635 0.930 . S
C643 C644 1.355 . S
C643 C645 1.415 1_556 S
C644 C643 1.355 . S
C644 C646 1.419 . S
C645 C640 1.425 . S
C645 C642 1.409 . S
C645 C643 1.415 1_554 S
C646 H636 0.930 . S
C646 C644 1.419 . S
C646 C647 1.362 . S
C647 H637 0.930 . S
C647 C640 1.409 1_556 S
C647 C646 1.362 . S
H648 C654 0.930 . S
H649 C657 0.930 . S
H650 C658 0.930 . S
H651 C659 0.930 . S
H652 C662 0.930 . S
H653 C663 0.930 . S
C654 H648 0.930 . S
C654 C655 1.355 . S
C654 C656 1.415 . S
C655 C654 1.355 . S
C655 C657 1.419 . S
C656 C654 1.415 . S
C656 C661 1.425 . S
C656 C663 1.409 . S
C657 H649 0.930 . S
C657 C655 1.419 . S
C657 C658 1.362 . S
C658 H650 0.930 . S
C658 C657 1.362 . S
C658 C661 1.409 . S
C659 H651 0.930 . S
C659 C660 1.355 . S
C659 C661 1.415 . S
C660 C659 1.355 . S
C660 C662 1.419 . S
C661 C656 1.425 . S
C661 C658 1.409 . S
C661 C659 1.415 . S
C662 H652 0.930 . S
C662 C660 1.419 . S
C662 C663 1.362 . S
C663 H653 0.930 . S
C663 C656 1.409 . S
C663 C662 1.362 . S
H664 C670 0.930 . S
H665 C673 0.930 . S
H666 C674 0.930 . S
H667 C675 0.930 . S
H668 C678 0.930 . S
H669 C679 0.930 . S
C670 H664 0.930 . S
C670 C671 1.355 . S
C670 C672 1.415 . S
C671 C670 1.355 . S
C671 C673 1.419 . S
C672 C670 1.415 . S
C672 C677 1.425 . S
C672 C679 1.409 1_556 S
C673 H665 0.930 . S
C673 C671 1.419 . S
C673 C674 1.362 . S
C674 H666 0.930 . S
C674 C673 1.362 . S
C674 C677 1.409 . S
C675 H667 0.930 . S
C675 C676 1.355 . S
C675 C677 1.415 1_554 S
C676 C675 1.355 . S
C676 C678 1.419 . S
C677 C672 1.425 . S
C677 C674 1.409 . S
C677 C675 1.415 1_556 S
C678 H668 0.930 . S
C678 C676 1.419 . S
C678 C679 1.362 . S
C679 H669 0.930 . S
C679 C672 1.409 1_554 S
C679 C678 1.362 . S
H680 C686 0.930 . S
H681 C689 0.930 . S
H682 C690 0.930 . S
H683 C691 0.930 . S
H684 C694 0.930 . S
H685 C695 0.930 . S
C686 H680 0.930 . S
C686 C687 1.355 . S
C686 C688 1.415 . S
C687 C686 1.355 . S
C687 C689 1.419 . S
C688 C686 1.415 . S
C688 C693 1.425 . S
C688 C695 1.409 . S
C689 H681 0.930 . S
C689 C687 1.419 . S
C689 C690 1.362 . S
C690 H682 0.930 . S
C690 C689 1.362 . S
C690 C693 1.409 . S
C691 H683 0.930 . S
C691 C692 1.355 . S
C691 C693 1.415 . S
C692 C691 1.355 . S
C692 C694 1.419 . S
C693 C688 1.425 . S
C693 C690 1.409 . S
C693 C691 1.415 . S
C694 H684 0.930 . S
C694 C692 1.419 . S
C694 C695 1.362 . S
C695 H685 0.930 . S
C695 C688 1.409 . S
C695 C694 1.362 . S
H696 C702 0.930 . S
H697 C705 0.930 . S
H698 C706 0.930 . S
H699 C707 0.930 . S
H700 C710 0.930 . S
H701 C711 0.930 . S
C702 H696 0.930 . S
C702 C703 1.355 . S
C702 C704 1.415 . S
C703 C702 1.355 . S
C703 C705 1.419 . S
C704 C702 1.415 . S
C704 C709 1.425 . S
C704 C711 1.409 . S
C705 H697 0.930 . S
C705 C703 1.419 . S
C705 C706 1.362 . S
C706 H698 0.930 . S
C706 C705 1.362 . S
C706 C709 1.409 . S
C707 H699 0.930 . S
C707 C708 1.355 . S
C707 C709 1.415 . S
C708 C707 1.355 . S
C708 C710 1.419 . S
C709 C704 1.425 . S
C709 C706 1.409 . S
C709 C707 1.415 . S
C710 H700 0.930 . S
C710 C708 1.419 . S
C710 C711 1.362 . S
C711 H701 0.930 . S
C711 C704 1.409 . S
C711 C710 1.362 . S
H712 C718 0.930 . S
H713 C721 0.930 . S
H714 C722 0.930 . S
H715 C723 0.930 . S
H716 C726 0.930 . S
H717 C727 0.930 . S
C718 H712 0.930 . S
C718 C719 1.355 . S
C718 C720 1.415 . S
C719 C718 1.355 . S
C719 C721 1.419 . S
C720 C718 1.415 . S
C720 C725 1.425 . S
C720 C727 1.409 . S
C721 H713 0.930 . S
C721 C719 1.419 . S
C721 C722 1.362 . S
C722 H714 0.930 . S
C722 C721 1.362 . S
C722 C725 1.409 . S
C723 H715 0.930 . S
C723 C724 1.355 . S
C723 C725 1.415 . S
C724 C723 1.355 . S
C724 C726 1.419 . S
C725 C720 1.425 . S
C725 C722 1.409 . S
C725 C723 1.415 . S
C726 H716 0.930 . S
C726 C724 1.419 . S
C726 C727 1.362 . S
C727 H717 0.930 . S
C727 C720 1.409 . S
C727 C726 1.362 . S
H728 C734 0.930 . S
H729 C737 0.930 . S
H730 C738 0.930 . S
H731 C739 0.930 . S
H732 C742 0.930 . S
H733 C743 0.930 . S
C734 H728 0.930 . S
C734 C735 1.355 . S
C734 C736 1.415 . S
C735 C734 1.355 . S
C735 C737 1.419 . S
C736 C734 1.415 . S
C736 C741 1.425 . S
C736 C743 1.409 . S
C737 H729 0.930 . S
C737 C735 1.419 . S
C737 C738 1.362 . S
C738 H730 0.930 . S
C738 C737 1.362 . S
C738 C741 1.409 . S
C739 H731 0.930 . S
C739 C740 1.355 . S
C739 C741 1.415 . S
C740 C739 1.355 . S
C740 C742 1.419 . S
C741 C736 1.425 . S
C741 C738 1.409 . S
C741 C739 1.415 . S
C742 H732 0.930 . S
C742 C740 1.419 . S
C742 C743 1.362 . S
C743 H733 0.930 . S
C743 C736 1.409 . S
C743 C742 1.362 . S
H744 C750 0.930 . S
H745 C753 0.930 . S
H746 C754 0.930 . S
H747 C755 0.930 . S
H748 C758 0.930 1_455 S
H749 C759 0.930 . S
C750 H744 0.930 . S
C750 C751 1.355 . S
C750 C752 1.415 . S
C751 C750 1.355 . S
C751 C753 1.419 . S
C752 C750 1.415 . S
C752 C757 1.425 . S
C752 C759 1.409 . S
C753 H745 0.930 . S
C753 C751 1.419 . S
C753 C754 1.362 . S
C754 H746 0.930 . S
C754 C753 1.362 . S
C754 C757 1.409 . S
C755 H747 0.930 . S
C755 C756 1.355 . S
C755 C757 1.415 . S
C756 C755 1.355 . S
C756 C758 1.419 . S
C757 C752 1.425 . S
C757 C754 1.409 . S
C757 C755 1.415 . S
C758 H748 0.930 1_655 S
C758 C756 1.419 . S
C758 C759 1.362 . S
C759 H749 0.930 . S
C759 C752 1.409 . S
C759 C758 1.362 . S
H760 C766 0.930 . S
H761 C769 0.930 . S
H762 C770 0.930 . S
H763 C771 0.930 . S
H764 C774 0.930 1_455 S
H765 C775 0.930 . S
C766 H760 0.930 . S
C766 C767 1.355 . S
C766 C768 1.415 . S
C767 C766 1.355 . S
C767 C769 1.419 . S
C768 C766 1.415 . S
C768 C773 1.425 . S
C768 C775 1.409 . S
C769 H761 0.930 . S
C769 C767 1.419 . S
C769 C770 1.362 . S
C770 H762 0.930 . S
C770 C769 1.362 . S
C770 C773 1.409 . S
C771 H763 0.930 . S
C771 C772 1.355 . S
C771 C773 1.415 . S
C772 C771 1.355 . S
C772 C774 1.419 . S
C773 C768 1.425 . S
C773 C770 1.409 . S
C773 C771 1.415 . S
C774 H764 0.930 1_655 S
C774 C772 1.419 . S
C774 C775 1.362 . S
C775 H765 0.930 . S
C775 C768 1.409 . S
C775 C774 1.362 . S
H776 C782 0.930 . S
H777 C785 0.930 . S
H778 C786 0.930 . S
H779 C787 0.930 . S
H780 C790 0.930 . S
H781 C791 0.930 . S
C782 H776 0.930 . S
C782 C783 1.355 . S
C782 C784 1.415 . S
C783 C782 1.355 . S
C783 C785 1.419 . S
C784 C782 1.415 . S
C784 C789 1.425 . S
C784 C791 1.409 . S
C785 H777 0.930 . S
C785 C783 1.419 . S
C785 C786 1.362 . S
C786 H778 0.930 . S
C786 C785 1.362 . S
C786 C789 1.409 . S
C787 H779 0.930 . S
C787 C788 1.355 . S
C787 C789 1.415 . S
C788 C787 1.355 . S
C788 C790 1.419 . S
C789 C784 1.425 . S
C789 C786 1.409 . S
C789 C787 1.415 . S
C790 H780 0.930 . S
C790 C788 1.419 . S
C790 C791 1.362 . S
C791 H781 0.930 . S
C791 C784 1.409 . S
C791 C790 1.362 . S
H792 C798 0.930 . S
H793 C801 0.930 . S
H794 C802 0.930 . S
H795 C803 0.930 . S
H796 C806 0.930 . S
H797 C807 0.930 . S
C798 H792 0.930 . S
C798 C799 1.355 . S
C798 C800 1.415 . S
C799 C798 1.355 . S
C799 C801 1.419 . S
C800 C798 1.415 . S
C800 C805 1.425 . S
C800 C807 1.409 . S
C801 H793 0.930 . S
C801 C799 1.419 . S
C801 C802 1.362 . S
C802 H794 0.930 . S
C802 C801 1.362 . S
C802 C805 1.409 . S
C803 H795 0.930 . S
C803 C804 1.355 . S
C803 C805 1.415 . S
C804 C803 1.355 . S
C804 C806 1.419 . S
C805 C800 1.425 . S
C805 C802 1.409 . S
C805 C803 1.415 . S
C806 H796 0.930 . S
C806 C804 1.419 . S
C806 C807 1.362 . S
C807 H797 0.930 . S
C807 C800 1.409 . S
C807 C806 1.362 . S
H808 C814 0.930 . S
H809 C817 0.930 . S
H810 C818 0.930 . S
H811 C819 0.930 . S
H812 C822 0.930 . S
H813 C823 0.930 . S
C814 H808 0.930 . S
C814 C815 1.355 . S
C814 C816 1.415 . S
C815 C814 1.355 . S
C815 C817 1.419 . S
C816 C814 1.415 . S
C816 C821 1.425 . S
C816 C823 1.409 . S
C817 H809 0.930 . S
C817 C815 1.419 . S
C817 C818 1.362 . S
C818 H810 0.930 . S
C818 C817 1.362 . S
C818 C821 1.409 . S
C819 H811 0.930 . S
C819 C820 1.355 . S
C819 C821 1.415 . S
C820 C819 1.355 . S
C820 C822 1.419 . S
C821 C816 1.425 . S
C821 C818 1.409 . S
C821 C819 1.415 . S
C822 H812 0.930 . S
C822 C820 1.419 . S
C822 C823 1.362 . S
C823 H813 0.930 . S
C823 C816 1.409 . S
C823 C822 1.362 . S
C447 N83 1.630 . S
C452 C160 1.630 . S
C468 C244 1.621 . S
C463 N96 1.628 . S
C484 C243 1.651 . S
C479 N57 1.629 . S
C495 N70 1.625 . S
C500 C159 1.632 . S
C516 C340 1.605 . S
C511 N31 1.649 . S
C532 C424 1.609 . S
C527 N44 1.647 . S
C543 N5 1.626 . S
C548 C423 1.651 . S
C559 N18 1.632 . S
C564 C339 1.634 . S
C580 C162 1.474 . S
C575 N14 1.604 . S
C596 C246 1.497 . S
C591 N1 1.610 . S
C612 C258 1.308 . S
C607 N40 1.615 . S
C628 C174 1.308 . S
C623 N27 1.615 . S
C644 C342 1.399 . S
C639 N66 1.598 . S
C655 N53 1.589 . S
C660 C426 1.426 . S
C676 C414 1.303 . S
C671 N92 1.609 . S
C687 N79 1.586 . S
C692 C330 1.356 . S
C708 C171 1.531 . S
C703 N2 1.535 . S
C724 C255 1.534 . S
C719 N15 1.522 . S
C735 N28 1.526 . S
C740 C256 1.483 . S
C756 C172 1.497 . S
C751 N41 1.522 . S
C772 C327 1.533 . S
C767 N54 1.510 . S
C783 N67 1.532 . S
C788 C411 1.523 . S
C799 N80 1.509 . S
C804 C412 1.519 . S
C815 N93 1.531 . S
C820 C328 1.477 . S
