# Generated by pormake.
# Topology ptr, (4,4)-cn, num edge types: 1
# Building blocks:
#     Node 0, Type 0, BuildingBlock: TATPOV_clean_sbu_0, # of connection points: 4
#     Node 1, Type 0, BuildingBlock: TATPOV_clean_sbu_0, # of connection points: 4
#     Node 2, Type 0, BuildingBlock: TATPOV_clean_sbu_0, # of connection points: 4
#     Node 3, Type 0, BuildingBlock: TATPOV_clean_sbu_0, # of connection points: 4
#     Node 4, Type 0, BuildingBlock: TATPOV_clean_sbu_0, # of connection points: 4
#     Node 5, Type 0, BuildingBlock: TATPOV_clean_sbu_0, # of connection points: 4
#     Node 6, Type 0, BuildingBlock: TATPOV_clean_sbu_0, # of connection points: 4
#     Node 7, Type 0, BuildingBlock: TATPOV_clean_sbu_0, # of connection points: 4
#     Node 8, Type 0, BuildingBlock: TATPOV_clean_sbu_0, # of connection points: 4
#     Node 9, Type 0, BuildingBlock: TATPOV_clean_sbu_0, # of connection points: 4
#     Node 10, Type 0, BuildingBlock: TATPOV_clean_sbu_0, # of connection points: 4
#     Node 11, Type 0, BuildingBlock: TATPOV_clean_sbu_0, # of connection points: 4
#     Node 12, Type 0, BuildingBlock: TATPOV_clean_sbu_0, # of connection points: 4
#     Node 13, Type 0, BuildingBlock: TATPOV_clean_sbu_0, # of connection points: 4
#     Node 14, Type 0, BuildingBlock: TATPOV_clean_sbu_0, # of connection points: 4
#     Node 15, Type 0, BuildingBlock: TATPOV_clean_sbu_0, # of connection points: 4
#     Node 16, Type 0, BuildingBlock: TATPOV_clean_sbu_0, # of connection points: 4
#     Node 17, Type 0, BuildingBlock: TATPOV_clean_sbu_0, # of connection points: 4
#     Node 18, Type 1, BuildingBlock: MUDLON_clean_linker_0, # of connection points: 4
#     Node 19, Type 1, BuildingBlock: MUDLON_clean_linker_0, # of connection points: 4
#     Node 20, Type 1, BuildingBlock: MUDLON_clean_linker_0, # of connection points: 4
#     Node 21, Type 1, BuildingBlock: MUDLON_clean_linker_0, # of connection points: 4
#     Node 22, Type 1, BuildingBlock: MUDLON_clean_linker_0, # of connection points: 4
#     Node 23, Type 1, BuildingBlock: MUDLON_clean_linker_0, # of connection points: 4
#     Node 24, Type 1, BuildingBlock: MUDLON_clean_linker_0, # of connection points: 4
#     Node 25, Type 1, BuildingBlock: MUDLON_clean_linker_0, # of connection points: 4
#     Node 26, Type 1, BuildingBlock: MUDLON_clean_linker_0, # of connection points: 4
#     Node 27, Type 1, BuildingBlock: MUDLON_clean_linker_0, # of connection points: 4
#     Node 28, Type 1, BuildingBlock: MUDLON_clean_linker_0, # of connection points: 4
#     Node 29, Type 1, BuildingBlock: MUDLON_clean_linker_0, # of connection points: 4
#     Node 30, Type 1, BuildingBlock: MUDLON_clean_linker_0, # of connection points: 4
#     Node 31, Type 1, BuildingBlock: MUDLON_clean_linker_0, # of connection points: 4
#     Node 32, Type 1, BuildingBlock: MUDLON_clean_linker_0, # of connection points: 4
#     Node 33, Type 1, BuildingBlock: MUDLON_clean_linker_0, # of connection points: 4
#     Node 34, Type 1, BuildingBlock: MUDLON_clean_linker_0, # of connection points: 4
#     Node 35, Type 1, BuildingBlock: MUDLON_clean_linker_0, # of connection points: 4
#     Edge 36, Type (0, 1), BuildingBlock: ZUJKAS_clean_linker_0, # of connection points: 2
#     Edge 37, Type (0, 1), BuildingBlock: ZUJKAS_clean_linker_0, # of connection points: 2
#     Edge 38, Type (0, 1), BuildingBlock: ZUJKAS_clean_linker_0, # of connection points: 2
#     Edge 39, Type (0, 1), BuildingBlock: ZUJKAS_clean_linker_0, # of connection points: 2
#     Edge 40, Type (0, 1), BuildingBlock: ZUJKAS_clean_linker_0, # of connection points: 2
#     Edge 41, Type (0, 1), BuildingBlock: ZUJKAS_clean_linker_0, # of connection points: 2
#     Edge 42, Type (0, 1), BuildingBlock: ZUJKAS_clean_linker_0, # of connection points: 2
#     Edge 43, Type (0, 1), BuildingBlock: ZUJKAS_clean_linker_0, # of connection points: 2
#     Edge 44, Type (0, 1), BuildingBlock: ZUJKAS_clean_linker_0, # of connection points: 2
#     Edge 45, Type (0, 1), BuildingBlock: ZUJKAS_clean_linker_0, # of connection points: 2
#     Edge 46, Type (0, 1), BuildingBlock: ZUJKAS_clean_linker_0, # of connection points: 2
#     Edge 47, Type (0, 1), BuildingBlock: ZUJKAS_clean_linker_0, # of connection points: 2
#     Edge 48, Type (0, 1), BuildingBlock: ZUJKAS_clean_linker_0, # of connection points: 2
#     Edge 49, Type (0, 1), BuildingBlock: ZUJKAS_clean_linker_0, # of connection points: 2
#     Edge 50, Type (0, 1), BuildingBlock: ZUJKAS_clean_linker_0, # of connection points: 2
#     Edge 51, Type (0, 1), BuildingBlock: ZUJKAS_clean_linker_0, # of connection points: 2
#     Edge 52, Type (0, 1), BuildingBlock: ZUJKAS_clean_linker_0, # of connection points: 2
#     Edge 53, Type (0, 1), BuildingBlock: ZUJKAS_clean_linker_0, # of connection points: 2
#     Edge 54, Type (0, 1), BuildingBlock: ZUJKAS_clean_linker_0, # of connection points: 2
#     Edge 55, Type (0, 1), BuildingBlock: ZUJKAS_clean_linker_0, # of connection points: 2
#     Edge 56, Type (0, 1), BuildingBlock: ZUJKAS_clean_linker_0, # of connection points: 2
#     Edge 57, Type (0, 1), BuildingBlock: ZUJKAS_clean_linker_0, # of connection points: 2
#     Edge 58, Type (0, 1), BuildingBlock: ZUJKAS_clean_linker_0, # of connection points: 2
#     Edge 59, Type (0, 1), BuildingBlock: ZUJKAS_clean_linker_0, # of connection points: 2
#     Edge 60, Type (0, 1), BuildingBlock: ZUJKAS_clean_linker_0, # of connection points: 2
#     Edge 61, Type (0, 1), BuildingBlock: ZUJKAS_clean_linker_0, # of connection points: 2
#     Edge 62, Type (0, 1), BuildingBlock: ZUJKAS_clean_linker_0, # of connection points: 2
#     Edge 63, Type (0, 1), BuildingBlock: ZUJKAS_clean_linker_0, # of connection points: 2
#     Edge 64, Type (0, 1), BuildingBlock: ZUJKAS_clean_linker_0, # of connection points: 2
#     Edge 65, Type (0, 1), BuildingBlock: ZUJKAS_clean_linker_0, # of connection points: 2
#     Edge 66, Type (0, 1), BuildingBlock: ZUJKAS_clean_linker_0, # of connection points: 2
#     Edge 67, Type (0, 1), BuildingBlock: ZUJKAS_clean_linker_0, # of connection points: 2
#     Edge 68, Type (0, 1), BuildingBlock: ZUJKAS_clean_linker_0, # of connection points: 2
#     Edge 69, Type (0, 1), BuildingBlock: ZUJKAS_clean_linker_0, # of connection points: 2
#     Edge 70, Type (0, 1), BuildingBlock: ZUJKAS_clean_linker_0, # of connection points: 2
#     Edge 71, Type (0, 1), BuildingBlock: ZUJKAS_clean_linker_0, # of connection points: 2
#     Edge 72, Type (0, 1), BuildingBlock: ZUJKAS_clean_linker_0, # of connection points: 2
#     Edge 73, Type (0, 1), BuildingBlock: ZUJKAS_clean_linker_0, # of connection points: 2
#     Edge 74, Type (0, 1), BuildingBlock: ZUJKAS_clean_linker_0, # of connection points: 2
#     Edge 75, Type (0, 1), BuildingBlock: ZUJKAS_clean_linker_0, # of connection points: 2
#     Edge 76, Type (0, 1), BuildingBlock: ZUJKAS_clean_linker_0, # of connection points: 2
#     Edge 77, Type (0, 1), BuildingBlock: ZUJKAS_clean_linker_0, # of connection points: 2
#     Edge 78, Type (0, 1), BuildingBlock: ZUJKAS_clean_linker_0, # of connection points: 2
#     Edge 79, Type (0, 1), BuildingBlock: ZUJKAS_clean_linker_0, # of connection points: 2
#     Edge 80, Type (0, 1), BuildingBlock: ZUJKAS_clean_linker_0, # of connection points: 2
#     Edge 81, Type (0, 1), BuildingBlock: ZUJKAS_clean_linker_0, # of connection points: 2
#     Edge 82, Type (0, 1), BuildingBlock: ZUJKAS_clean_linker_0, # of connection points: 2
#     Edge 83, Type (0, 1), BuildingBlock: ZUJKAS_clean_linker_0, # of connection points: 2
#     Edge 84, Type (0, 1), BuildingBlock: ZUJKAS_clean_linker_0, # of connection points: 2
#     Edge 85, Type (0, 1), BuildingBlock: ZUJKAS_clean_linker_0, # of connection points: 2
#     Edge 86, Type (0, 1), BuildingBlock: ZUJKAS_clean_linker_0, # of connection points: 2
#     Edge 87, Type (0, 1), BuildingBlock: ZUJKAS_clean_linker_0, # of connection points: 2
#     Edge 88, Type (0, 1), BuildingBlock: ZUJKAS_clean_linker_0, # of connection points: 2
#     Edge 89, Type (0, 1), BuildingBlock: ZUJKAS_clean_linker_0, # of connection points: 2
#     Edge 90, Type (0, 1), BuildingBlock: ZUJKAS_clean_linker_0, # of connection points: 2
#     Edge 91, Type (0, 1), BuildingBlock: ZUJKAS_clean_linker_0, # of connection points: 2
#     Edge 92, Type (0, 1), BuildingBlock: ZUJKAS_clean_linker_0, # of connection points: 2
#     Edge 93, Type (0, 1), BuildingBlock: ZUJKAS_clean_linker_0, # of connection points: 2
#     Edge 94, Type (0, 1), BuildingBlock: ZUJKAS_clean_linker_0, # of connection points: 2
#     Edge 95, Type (0, 1), BuildingBlock: ZUJKAS_clean_linker_0, # of connection points: 2
#     Edge 96, Type (0, 1), BuildingBlock: ZUJKAS_clean_linker_0, # of connection points: 2
#     Edge 97, Type (0, 1), BuildingBlock: ZUJKAS_clean_linker_0, # of connection points: 2
#     Edge 98, Type (0, 1), BuildingBlock: ZUJKAS_clean_linker_0, # of connection points: 2
#     Edge 99, Type (0, 1), BuildingBlock: ZUJKAS_clean_linker_0, # of connection points: 2
#     Edge 100, Type (0, 1), BuildingBlock: ZUJKAS_clean_linker_0, # of connection points: 2
#     Edge 101, Type (0, 1), BuildingBlock: ZUJKAS_clean_linker_0, # of connection points: 2
#     Edge 102, Type (0, 1), BuildingBlock: ZUJKAS_clean_linker_0, # of connection points: 2
#     Edge 103, Type (0, 1), BuildingBlock: ZUJKAS_clean_linker_0, # of connection points: 2
#     Edge 104, Type (0, 1), BuildingBlock: ZUJKAS_clean_linker_0, # of connection points: 2
#     Edge 105, Type (0, 1), BuildingBlock: ZUJKAS_clean_linker_0, # of connection points: 2
#     Edge 106, Type (0, 1), BuildingBlock: ZUJKAS_clean_linker_0, # of connection points: 2
#     Edge 107, Type (0, 1), BuildingBlock: ZUJKAS_clean_linker_0, # of connection points: 2
# Relax obj value: 0.059
# Max RMSD: 0.182
# Mean RMSD: 0.098
data_MOF--net-ptr--node1-TATPOV_clean_sbu_0--node2-MUDLON_clean_linker_0--edge1-ZUJKAS_clean_linker_0
_symmetry_space_group_name_H-M    P1
_symmetry_Int_Tables_number       1
_symmetry_cell_setting            triclinic
loop_
_symmetry_equiv_pos_as_xyz
'x, y, z'
_cell_length_a     127.86128
_cell_length_b     129.60813
_cell_length_c     75.072462
_cell_angle_alpha  89.584681
_cell_angle_beta   90.815525
_cell_angle_gamma 121.30706
loop_
_atom_site_label
_atom_site_type_symbol
_atom_site_fract_x
_atom_site_fract_y
_atom_site_fract_z
_atom_type_partial_charge
Zn0 Zn 0.976 0.37062 0.01714 0.0
Zn1 Zn 0.99749 0.37167 0.01931 0.0
O2 O 0.98451 0.35346 0.01686 0.0
O3 O 0.96678 0.35243 0.01694 0.0
O4 O 0.0131 0.37152 0.02298 0.0
O5 O 0.97955 0.37974 0.04028 0.0
O6 O 0.99705 0.38035 0.04202 0.0
C7 C 0.97284 0.34722 0.01637 0.0
C8 C 0.99257 0.38374 0.988 0.0
O9 O 0.99993 0.38151 0.9964 0.0
O10 O 0.98193 0.37988 0.99394 0.0
C11 C 0.01721 0.36731 0.01162 0.0
O12 O 0.01141 0.36329 0.9963 0.0
C13 C 0.98953 0.38296 0.04843 0.0
Zn14 Zn 0.6449 0.61739 0.01081 0.0
Zn15 Zn 0.6439 0.63708 0.01822 0.0
O16 O 0.6623 0.64352 0.01423 0.0
O17 O 0.66319 0.62739 0.00841 0.0
O18 O 0.64406 0.65236 0.02409 0.0
O19 O 0.63739 0.61034 0.0346 0.0
O20 O 0.63627 0.62635 0.04045 0.0
C21 C 0.66852 0.63871 0.01052 0.0
C22 C 0.62984 0.62128 0.98593 0.0
O23 O 0.63285 0.63041 0.9958 0.0
O24 O 0.63392 0.61442 0.98943 0.0
C25 C 0.64918 0.66138 0.01363 0.0
O26 O 0.65396 0.66043 0.99881 0.0
C27 C 0.63435 0.616 0.04492 0.0
Zn28 Zn 0.36439 0.98145 0.0196 0.0
Zn29 Zn 0.3664 0.00285 0.01549 0.0
O30 O 0.34781 0.99077 0.01893 0.0
O31 O 0.34618 0.97313 0.02234 0.0
O32 O 0.36701 0.01855 0.01102 0.0
O33 O 0.37175 0.98294 0.99551 0.0
O34 O 0.37394 0.00086 0.99253 0.0
C35 C 0.34123 0.97941 0.02151 0.0
C36 C 0.38 0.99895 0.04623 0.0
O37 O 0.37733 0.0059 0.03784 0.0
O38 O 0.37552 0.98814 0.04111 0.0
C39 C 0.36203 0.02243 0.02139 0.0
O40 O 0.35676 0.01633 0.03593 0.0
C41 C 0.37537 0.99249 0.98653 0.0
Zn42 Zn 0.02657 0.63465 0.00903 0.0
Zn43 Zn 0.00531 0.63404 0.0112 0.0
O44 O 0.01869 0.65216 0.01303 0.0
O45 O 0.03616 0.65283 0.01056 0.0
O46 O 0.98974 0.63455 0.01074 0.0
O47 O 0.02174 0.62641 0.98519 0.0
O48 O 0.00394 0.62505 0.98774 0.0
C49 C 0.03035 0.65822 0.01253 0.0
C50 C 0.01173 0.62133 0.03966 0.0
O51 O 0.00436 0.62441 0.03366 0.0
O52 O 0.02159 0.6245 0.03154 0.0
C53 C 0.98785 0.63904 0.99684 0.0
O54 O 0.99589 0.64286 0.98397 0.0
C55 C 0.01111 0.62286 0.97913 0.0
Zn56 Zn 0.36028 0.38847 0.01848 0.0
Zn57 Zn 0.36023 0.368 0.01302 0.0
O58 O 0.342 0.36246 0.0166 0.0
O59 O 0.34194 0.37923 0.02049 0.0
O60 O 0.35917 0.35224 0.00752 0.0
O61 O 0.36843 0.39493 0.99477 0.0
O62 O 0.36849 0.37817 0.99062 0.0
C63 C 0.33617 0.36783 0.01933 0.0
C64 C 0.37454 0.38427 0.04467 0.0
O65 O 0.37134 0.37484 0.03541 0.0
O66 O 0.37081 0.3913 0.04036 0.0
C67 C 0.3591 0.34504 0.01918 0.0
O68 O 0.36013 0.34795 0.03612 0.0
C69 C 0.37116 0.38863 0.98533 0.0
Zn70 Zn 0.63402 0.01987 0.00599 0.0
Zn71 Zn 0.6323 0.99831 0.00985 0.0
O72 O 0.65082 0.01068 0.00676 0.0
O73 O 0.65238 0.02837 0.00468 0.0
O74 O 0.63186 0.98265 0.01403 0.0
O75 O 0.62586 0.01752 0.02982 0.0
O76 O 0.6246 1.0 0.03269 0.0
C77 C 0.65738 0.02213 0.00508 0.0
C78 C 0.61917 0.00236 0.97867 0.0
O79 O 0.62146 0.99533 0.98758 0.0
O80 O 0.6237 0.01324 0.98351 0.0
C81 C 0.63853 0.97991 0.00528 0.0
O82 O 0.64546 0.98719 0.99257 0.0
C83 C 0.62263 0.008 0.0387 0.0
Zn84 Zn 0.639 0.70221 0.34875 0.0
Zn85 Zn 0.66026 0.70273 0.35157 0.0
O86 O 0.64701 0.68465 0.34838 0.0
O87 O 0.62945 0.68401 0.34787 0.0
O88 O 0.67572 0.70225 0.35515 0.0
O89 O 0.64221 0.71065 0.3723 0.0
O90 O 0.65961 0.71108 0.37465 0.0
C91 C 0.63535 0.67863 0.34747 0.0
C92 C 0.65633 0.71591 0.32075 0.0
O93 O 0.6632 0.713 0.32904 0.0
O94 O 0.64564 0.71226 0.32632 0.0
C95 C 0.67826 0.69596 0.34519 0.0
O96 O 0.6709 0.69002 0.33177 0.0
C97 C 0.65196 0.7136 0.38089 0.0
Zn98 Zn 0.30876 0.94952 0.34839 0.0
Zn99 Zn 0.30815 0.96957 0.3533 0.0
O100 O 0.32649 0.97573 0.34905 0.0
O101 O 0.32695 0.95919 0.34498 0.0
O102 O 0.30836 0.98504 0.35808 0.0
O103 O 0.30198 0.94352 0.37268 0.0
O104 O 0.30077 0.95969 0.37649 0.0
C105 C 0.33248 0.97058 0.34595 0.0
C106 C 0.29351 0.95237 0.32257 0.0
O107 O 0.29702 0.96219 0.33098 0.0
O108 O 0.29721 0.94543 0.32749 0.0
C109 C 0.31464 0.99443 0.3486 0.0
O110 O 0.32072 0.99388 0.33504 0.0
C111 C 0.29905 0.94962 0.3822 0.0
Zn112 Zn 0.03256 0.31428 0.35526 0.0
Zn113 Zn 0.03467 0.33585 0.35107 0.0
O114 O 0.01613 0.32405 0.35508 0.0
O115 O 0.01449 0.30647 0.35959 0.0
O116 O 0.0357 0.35175 0.34652 0.0
O117 O 0.03905 0.31534 0.33052 0.0
O118 O 0.04159 0.33342 0.32789 0.0
C119 C 0.0096 0.31279 0.35853 0.0
C120 C 0.04893 0.3321 0.38102 0.0
O121 O 0.04592 0.33892 0.37303 0.0
O122 O 0.04448 0.3213 0.37588 0.0
C123 C 0.0313 0.35612 0.3571 0.0
O124 O 0.02619 0.35032 0.37191 0.0
C125 C 0.04265 0.3249 0.32158 0.0
Zn126 Zn 0.69432 0.96839 0.35419 0.0
Zn127 Zn 0.67386 0.96817 0.34636 0.0
O128 O 0.68703 0.9864 0.34883 0.0
O129 O 0.7041 0.98651 0.35367 0.0
O130 O 0.65859 0.96847 0.34008 0.0
O131 O 0.69227 0.95888 0.33199 0.0
O132 O 0.6759 0.95956 0.32472 0.0
C133 C 0.6986 0.99221 0.35142 0.0
C134 C 0.67584 0.95605 0.38058 0.0
O135 O 0.66944 0.95828 0.36982 0.0
O136 O 0.68691 0.95976 0.37716 0.0
C137 C 0.65444 0.97308 0.35066 0.0
O138 O 0.66009 0.97746 0.36598 0.0
C139 C 0.68356 0.95637 0.32121 0.0
Zn140 Zn 0.02787 0.72423 0.3536 0.0
Zn141 Zn 0.02781 0.7037 0.34832 0.0
O142 O 0.00958 0.69817 0.3521 0.0
O143 O 0.00955 0.71499 0.35569 0.0
O144 O 0.02714 0.688 0.34362 0.0
O145 O 0.03573 0.73042 0.32972 0.0
O146 O 0.03579 0.71365 0.32557 0.0
C147 C 0.00378 0.70358 0.35471 0.0
C148 C 0.04229 0.72027 0.3797 0.0
O149 O 0.03899 0.71078 0.37054 0.0
O150 O 0.03857 0.72731 0.37539 0.0
C151 C 0.02034 0.67853 0.35266 0.0
O152 O 0.01382 0.67905 0.36561 0.0
C153 C 0.03834 0.72406 0.32019 0.0
Zn154 Zn 0.30125 0.35614 0.34202 0.0
Zn155 Zn 0.3008 0.33525 0.34503 0.0
O156 O 0.31903 0.34817 0.34083 0.0
O157 O 0.31937 0.36522 0.33756 0.0
O158 O 0.30103 0.31984 0.34877 0.0
O159 O 0.29489 0.35434 0.36689 0.0
O160 O 0.2935 0.3367 0.36863 0.0
C161 C 0.32495 0.35951 0.33793 0.0
C162 C 0.28555 0.3382 0.31586 0.0
O163 O 0.2894 0.33185 0.32319 0.0
O164 O 0.28917 0.34872 0.32159 0.0
C165 C 0.30854 0.31783 0.34089 0.0
O166 O 0.31612 0.32574 0.32931 0.0
C167 C 0.29188 0.34476 0.37545 0.0
Zn168 Zn 0.30698 0.03597 0.67898 0.0
Zn169 Zn 0.32844 0.03686 0.68224 0.0
O170 O 0.31523 0.0187 0.6798 0.0
O171 O 0.29758 0.01779 0.6781 0.0
O172 O 0.34397 0.03648 0.68594 0.0
O173 O 0.31025 0.04471 0.70244 0.0
O174 O 0.32781 0.04545 0.70489 0.0
C175 C 0.30359 0.01251 0.67843 0.0
C176 C 0.32424 0.04952 0.65087 0.0
O177 O 0.33128 0.04696 0.65948 0.0
O178 O 0.31349 0.04569 0.65629 0.0
C179 C 0.34607 0.02957 0.67672 0.0
O180 O 0.33827 0.02303 0.66402 0.0
C181 C 0.32009 0.04793 0.71098 0.0
Zn182 Zn 0.97769 0.28357 0.68243 0.0
Zn183 Zn 0.97589 0.30308 0.68674 0.0
O184 O 0.99446 0.31005 0.68347 0.0
O185 O 0.99602 0.29399 0.68111 0.0
O186 O 0.97518 0.31804 0.69157 0.0
O187 O 0.96955 0.27682 0.70594 0.0
O188 O 0.968 0.29282 0.70931 0.0
C189 C 1.00102 0.30535 0.68161 0.0
C190 C 0.96289 0.28615 0.65519 0.0
O191 O 0.96534 0.29552 0.66406 0.0
O192 O 0.96723 0.27974 0.66016 0.0
C193 C 0.97753 0.32608 0.67987 0.0
O194 O 0.98024 0.32457 0.66365 0.0
C195 C 0.96609 0.28269 0.715 0.0
Zn196 Zn 0.70297 0.64921 0.68792 0.0
Zn197 Zn 0.7039 0.67019 0.68311 0.0
O198 O 0.68557 0.65752 0.68712 0.0
O199 O 0.68478 0.64035 0.69167 0.0
O200 O 0.70368 0.68551 0.67866 0.0
O201 O 0.70977 0.65064 0.6634 0.0
O202 O 0.7113 0.66825 0.65997 0.0
C203 C 0.67941 0.64623 0.69044 0.0
C204 C 0.71868 0.66757 0.71347 0.0
O205 O 0.71524 0.67394 0.70514 0.0
O206 O 0.7147 0.65679 0.70868 0.0
C207 C 0.69686 0.68796 0.68762 0.0
O208 O 0.69025 0.68063 0.70049 0.0
C209 C 0.71291 0.65998 0.6541 0.0
Zn210 Zn 0.36255 0.3023 0.68818 0.0
Zn211 Zn 0.34206 0.3025 0.68113 0.0
O212 O 0.35554 0.32054 0.68433 0.0
O213 O 0.3723 0.32036 0.69068 0.0
O214 O 0.32719 0.30369 0.67526 0.0
O215 O 0.36086 0.29435 0.66446 0.0
O216 O 0.34378 0.29411 0.65896 0.0
C217 C 0.36694 0.32616 0.68822 0.0
C218 C 0.34367 0.28887 0.71383 0.0
O219 O 0.33761 0.29214 0.70415 0.0
O220 O 0.35453 0.29208 0.70977 0.0
C221 C 0.31626 0.29603 0.67974 0.0
O222 O 0.31405 0.2864 0.6888 0.0
C223 C 0.35177 0.29159 0.65434 0.0
Zn224 Zn 0.69728 0.05994 0.67593 0.0
Zn225 Zn 0.69568 0.03849 0.67463 0.0
O226 O 0.67787 0.03397 0.67915 0.0
O227 O 0.67925 0.05157 0.68121 0.0
O228 O 0.69426 0.02234 0.67124 0.0
O229 O 0.70319 0.06383 0.65071 0.0
O230 O 0.70343 0.04698 0.65079 0.0
C231 C 0.67285 0.04015 0.6817 0.0
C232 C 0.71225 0.05695 0.70252 0.0
O233 O 0.70721 0.04625 0.69631 0.0
O234 O 0.70977 0.06445 0.69583 0.0
C235 C 0.6903 0.01398 0.68283 0.0
O236 O 0.68697 0.01572 0.69845 0.0
C237 C 0.70563 0.05669 0.64303 0.0
Zn238 Zn 0.96666 0.69011 0.67001 0.0
Zn239 Zn 0.96581 0.66951 0.67702 0.0
O240 O 0.9842 0.68183 0.67255 0.0
O241 O 0.98504 0.69916 0.66953 0.0
O242 O 0.96572 0.65424 0.68319 0.0
O243 O 0.9582 0.68886 0.69295 0.0
O244 O 0.95864 0.67253 0.69964 0.0
C245 C 0.9904 0.69325 0.67039 0.0
C246 C 0.95217 0.67143 0.64438 0.0
O247 O 0.95457 0.66505 0.6547 0.0
O248 O 0.95665 0.68254 0.64766 0.0
C249 C 0.96851 0.6488 0.67193 0.0
O250 O 0.97129 0.65307 0.65563 0.0
C251 C 0.95596 0.68042 0.70373 0.0
H252 H 0.21098 0.33118 0.12676 0.0
N253 N 0.18821 0.31269 0.11675 0.0
H254 H 0.22214 0.3323 0.15389 0.0
H255 H 0.17985 0.29767 0.14448 0.0
H256 H 0.19084 0.29891 0.17217 0.0
H257 H 0.1953 0.29764 0.10691 0.0
H258 H 0.21141 0.30155 0.08609 0.0
H259 H 0.19851 0.33139 0.09189 0.0
H260 H 0.21402 0.335 0.07062 0.0
H261 H 0.19568 0.3365 0.12209 0.0
H262 H 0.16422 0.30143 0.1105 0.0
H263 H 0.18295 0.3453 0.12122 0.0
H264 H 0.15109 0.30998 0.11088 0.0
H265 H 0.13548 0.36586 0.13998 0.0
H266 H 0.12341 0.36242 0.16679 0.0
H267 H 0.10904 0.32408 0.16252 0.0
H268 H 0.12102 0.32763 0.13556 0.0
H269 H 0.11333 0.33116 0.10717 0.0
H270 H 0.10014 0.33324 0.08565 0.0
H271 H 0.1291 0.36995 0.07507 0.0
H272 H 0.14208 0.36788 0.09733 0.0
H273 H 0.15618 0.35613 0.13723 0.0
H274 H 0.16879 0.34715 0.13681 0.0
H275 H 0.14474 0.32174 0.0967 0.0
N276 N 0.13564 0.34941 0.11932 0.0
H277 H 0.13171 0.33022 0.09825 0.0
C278 C 0.19454 0.31427 0.13355 0.0
C279 C 0.20644 0.32417 0.13667 0.0
C280 C 0.21282 0.32482 0.15229 0.0
C281 C 0.20743 0.31567 0.16526 0.0
C282 C 0.19536 0.30601 0.16236 0.0
C283 C 0.18902 0.30533 0.14665 0.0
C284 C 0.19571 0.31422 0.10146 0.0
C285 C 0.19919 0.30571 0.09877 0.0
C286 C 0.20841 0.30796 0.08678 0.0
C287 C 0.21425 0.31874 0.07687 0.0
C288 C 0.21003 0.32679 0.07844 0.0
C289 C 0.20098 0.32464 0.09067 0.0
C290 C 0.18092 0.31827 0.11612 0.0
C291 C 0.18599 0.33065 0.11946 0.0
C292 C 0.17861 0.33567 0.11914 0.0
C293 C 0.16588 0.3284 0.11608 0.0
C294 C 0.16084 0.31597 0.11292 0.0
C295 C 0.16831 0.31102 0.11283 0.0
C296 C 0.12917 0.34705 0.13585 0.0
C297 C 0.12982 0.35674 0.14499 0.0
C298 C 0.12295 0.35475 0.16031 0.0
C299 C 0.11525 0.34297 0.16678 0.0
C300 C 0.11476 0.33325 0.15775 0.0
C301 C 0.12166 0.33526 0.14242 0.0
C302 C 0.12871 0.34944 0.10399 0.0
C303 C 0.11694 0.33958 0.10001 0.0
C304 C 0.1094 0.34078 0.08756 0.0
C305 C 0.11347 0.35183 0.07875 0.0
C306 C 0.12556 0.36139 0.08187 0.0
C307 C 0.13306 0.3602 0.09441 0.0
C308 C 0.14305 0.34401 0.11774 0.0
C309 C 0.15365 0.34862 0.12834 0.0
C310 C 0.16092 0.3435 0.12794 0.0
C311 C 0.15794 0.33373 0.11656 0.0
C312 C 0.1473 0.32913 0.10583 0.0
C313 C 0.13985 0.3341 0.10655 0.0
H314 H 0.70439 0.8023 0.13054 0.0
N315 N 0.68794 0.80585 0.11431 0.0
H316 H 0.7025 0.79253 0.15936 0.0
H317 H 0.66951 0.79914 0.13809 0.0
H318 H 0.6675 0.78933 0.16694 0.0
H319 H 0.66402 0.7874 0.11085 0.0
H320 H 0.65649 0.76961 0.09205 0.0
H321 H 0.69993 0.8027 0.08838 0.0
H322 H 0.69253 0.78475 0.06971 0.0
H323 H 0.70457 0.82825 0.12334 0.0
H324 H 0.66803 0.80683 0.10154 0.0
H325 H 0.703 0.84616 0.12196 0.0
H326 H 0.66663 0.8248 0.09902 0.0
H327 H 0.70086 0.90167 0.124 0.0
H328 H 0.70079 0.91115 0.15211 0.0
H329 H 0.66582 0.87968 0.16486 0.0
H330 H 0.66599 0.87031 0.13689 0.0
H331 H 0.65919 0.87382 0.10795 0.0
H332 H 0.65099 0.88338 0.08886 0.0
H333 H 0.6862 0.90437 0.06364 0.0
H334 H 0.6944 0.89508 0.08336 0.0
H335 H 0.70236 0.87867 0.104 0.0
H336 H 0.70317 0.8603 0.10301 0.0
H337 H 0.66446 0.83916 0.11442 0.0
N338 N 0.68328 0.88071 0.11085 0.0
H339 H 0.66367 0.85759 0.11392 0.0
C340 C 0.68711 0.80139 0.13219 0.0
C341 C 0.69643 0.79966 0.1386 0.0
C342 C 0.69533 0.79411 0.15505 0.0
C343 C 0.68482 0.7901 0.16537 0.0
C344 C 0.67564 0.79219 0.15917 0.0
C345 C 0.67679 0.79783 0.14275 0.0
C346 C 0.6826 0.79645 0.10098 0.0
C347 C 0.67024 0.78708 0.10158 0.0
C348 C 0.66596 0.77682 0.09092 0.0
C349 C 0.67393 0.77567 0.07953 0.0
C350 C 0.6861 0.78537 0.0782 0.0
C351 C 0.69036 0.79564 0.08885 0.0
C352 C 0.68655 0.81618 0.11242 0.0
C353 C 0.69627 0.82746 0.11799 0.0
C354 C 0.69537 0.83772 0.11702 0.0
C355 C 0.68473 0.83705 0.11014 0.0
C356 C 0.67493 0.8257 0.10456 0.0
C357 C 0.67577 0.81536 0.10584 0.0
C358 C 0.68353 0.88528 0.12838 0.0
C359 C 0.6933 0.89677 0.13303 0.0
C360 C 0.69318 0.90219 0.14898 0.0
C361 C 0.68326 0.89618 0.16064 0.0
C362 C 0.67364 0.88449 0.15623 0.0
C363 C 0.67373 0.87911 0.1402 0.0
C364 C 0.67747 0.88387 0.09716 0.0
C365 C 0.66505 0.88027 0.09804 0.0
C366 C 0.66037 0.88574 0.08705 0.0
C367 C 0.668 0.89483 0.07492 0.0
C368 C 0.68014 0.89763 0.07312 0.0
C369 C 0.68482 0.89223 0.08419 0.0
C370 C 0.68306 0.86954 0.10938 0.0
C371 C 0.69405 0.87003 0.1061 0.0
C372 C 0.69449 0.8595 0.10575 0.0
C373 C 0.68393 0.84816 0.10904 0.0
C374 C 0.67279 0.84766 0.11178 0.0
C375 C 0.67233 0.85824 0.11176 0.0
H376 H 0.13539 0.7816 0.14338 0.0
N377 N 0.13625 0.79886 0.12308 0.0
H378 H 0.12297 0.77235 0.16985 0.0
H379 H 0.12228 0.80617 0.13962 0.0
H380 H 0.10992 0.79711 0.16626 0.0
H381 H 0.11563 0.79774 0.10967 0.0
H382 H 0.10145 0.78329 0.08776 0.0
H383 H 0.13983 0.78428 0.10295 0.0
H384 H 0.12542 0.76929 0.08173 0.0
H385 H 0.15645 0.81195 0.14234 0.0
H386 H 0.13456 0.81533 0.10107 0.0
H387 H 0.1704 0.83375 0.14219 0.0
H388 H 0.14877 0.83694 0.10016 0.0
H389 H 0.21658 0.89245 0.12987 0.0
H390 H 0.22878 0.9021 0.15663 0.0
H391 H 0.19923 0.90508 0.17776 0.0
H392 H 0.18703 0.89549 0.15068 0.0
H393 H 0.20169 0.91136 0.11158 0.0
H394 H 0.21753 0.92345 0.09001 0.0
H395 H 0.21825 0.89178 0.07444 0.0
H396 H 0.20305 0.87999 0.09652 0.0
H397 H 0.19978 0.87145 0.1271 0.0
H398 H 0.18577 0.84971 0.12624 0.0
H399 H 0.15565 0.85514 0.11535 0.0
N400 N 0.19396 0.88887 0.12174 0.0
H401 H 0.16998 0.87699 0.11527 0.0
C402 C 0.12976 0.79453 0.1396 0.0
C403 C 0.12996 0.7851 0.14849 0.0
C404 C 0.12289 0.77987 0.16361 0.0
C405 C 0.11543 0.78397 0.17015 0.0
C406 C 0.11544 0.79363 0.16142 0.0
C407 C 0.12255 0.79888 0.14627 0.0
C408 C 0.12892 0.79219 0.1078 0.0
C409 C 0.11803 0.79185 0.10318 0.0
C410 C 0.10982 0.78342 0.0908 0.0
C411 C 0.11215 0.77495 0.08308 0.0
C412 C 0.12333 0.77574 0.08712 0.0
C413 C 0.13162 0.7843 0.09929 0.0
C414 C 0.14438 0.81183 0.12185 0.0
C415 C 0.15471 0.81737 0.13312 0.0
C416 C 0.16275 0.82986 0.13289 0.0
C417 C 0.16081 0.8372 0.12109 0.0
C418 C 0.15049 0.83165 0.10965 0.0
C419 C 0.14232 0.81914 0.1101 0.0
C420 C 0.20088 0.89334 0.13819 0.0
C421 C 0.21265 0.89506 0.14028 0.0
C422 C 0.21965 0.90065 0.15554 0.0
C423 C 0.215 0.90446 0.16915 0.0
C424 C 0.20303 0.90223 0.16746 0.0
C425 C 0.19607 0.89677 0.15205 0.0
C426 C 0.20118 0.89478 0.10607 0.0
C427 C 0.2051 0.90698 0.10324 0.0
C428 C 0.21416 0.91388 0.09082 0.0
C429 C 0.21939 0.90867 0.08065 0.0
C430 C 0.21472 0.89621 0.08241 0.0
C431 C 0.20584 0.88936 0.09507 0.0
C432 C 0.18593 0.8759 0.12111 0.0
C433 C 0.19019 0.86799 0.12442 0.0
C434 C 0.18209 0.85549 0.12407 0.0
C435 C 0.16949 0.85056 0.12081 0.0
C436 C 0.16528 0.85853 0.11758 0.0
C437 C 0.17344 0.87104 0.11765 0.0
H438 H 0.33627 0.20931 0.88847 0.0
N439 N 0.31978 0.20071 0.91569 0.0
H440 H 0.33421 0.21768 0.86035 0.0
H441 H 0.3 0.20025 0.90317 0.0
H442 H 0.29769 0.20834 0.87477 0.0
H443 H 0.30863 0.20129 0.94499 0.0
H444 H 0.3148 0.21864 0.96469 0.0
H445 H 0.3414 0.22258 0.91446 0.0
H446 H 0.34762 0.23975 0.93402 0.0
H447 H 0.34356 0.20617 0.92154 0.0
H448 H 0.30657 0.17692 0.91156 0.0
H449 H 0.35057 0.19205 0.92221 0.0
H450 H 0.31367 0.16267 0.91133 0.0
H451 H 0.36673 0.14265 0.892 0.0
H452 H 0.36335 0.13121 0.86454 0.0
H453 H 0.32487 0.11917 0.86592 0.0
H454 H 0.32834 0.1305 0.8935 0.0
H455 H 0.32993 0.12143 0.92157 0.0
H456 H 0.32987 0.10686 0.94231 0.0
H457 H 0.36784 0.13219 0.95541 0.0
H458 H 0.36774 0.14686 0.9348 0.0
H459 H 0.36152 0.16597 0.90186 0.0
H460 H 0.35431 0.18007 0.9032 0.0
H461 H 0.32124 0.15263 0.92872 0.0
N462 N 0.35003 0.1431 0.91199 0.0
H463 H 0.32829 0.13849 0.92652 0.0
C464 C 0.31825 0.20415 0.89796 0.0
C465 C 0.32775 0.20889 0.88549 0.0
C466 C 0.32653 0.21364 0.86934 0.0
C467 C 0.3158 0.21375 0.86533 0.0
C468 C 0.30614 0.20856 0.87754 0.0
C469 C 0.30739 0.20384 0.89368 0.0
C470 C 0.32455 0.21051 0.92838 0.0
C471 C 0.31727 0.20959 0.94279 0.0
C472 C 0.32076 0.21952 0.95391 0.0
C473 C 0.3317 0.23055 0.95089 0.0
C474 C 0.33923 0.23133 0.93685 0.0
C475 C 0.33566 0.22147 0.92562 0.0
C476 C 0.3244 0.19262 0.91667 0.0
C477 C 0.33688 0.19672 0.91951 0.0
C478 C 0.34095 0.18858 0.91971 0.0
C479 C 0.33273 0.17616 0.91678 0.0
C480 C 0.32027 0.17211 0.91396 0.0
C481 C 0.31619 0.18025 0.91396 0.0
C482 C 0.34785 0.13746 0.89476 0.0
C483 C 0.35762 0.13769 0.88618 0.0
C484 C 0.35566 0.13117 0.87049 0.0
C485 C 0.34382 0.12423 0.86307 0.0
C486 C 0.33407 0.12429 0.87142 0.0
C487 C 0.33605 0.13084 0.88712 0.0
C488 C 0.34889 0.13532 0.92664 0.0
C489 C 0.33815 0.12403 0.92926 0.0
C490 C 0.33816 0.11563 0.94102 0.0
C491 C 0.3489 0.11829 0.95035 0.0
C492 C 0.35939 0.12986 0.94855 0.0
C493 C 0.35936 0.13827 0.93679 0.0
C494 C 0.34558 0.15122 0.91421 0.0
C495 C 0.35275 0.16305 0.90784 0.0
C496 C 0.34862 0.17112 0.90873 0.0
C497 C 0.33719 0.16756 0.91618 0.0
C498 C 0.33002 0.15568 0.9227 0.0
C499 C 0.33412 0.14757 0.92162 0.0
H500 H 0.79534 0.12679 0.88877 0.0
N501 N 0.80612 0.11717 0.90929 0.0
H502 H 0.7844 0.11869 0.86054 0.0
H503 H 0.80535 0.09974 0.88976 0.0
H504 H 0.79471 0.09183 0.86105 0.0
H505 H 0.8069 0.10295 0.93439 0.0
H506 H 0.79082 0.09019 0.95568 0.0
H507 H 0.78483 0.11703 0.915 0.0
H508 H 0.76896 0.10446 0.93587 0.0
H509 H 0.8025 0.1353 0.92082 0.0
H510 H 0.82986 0.12792 0.90286 0.0
H511 H 0.81784 0.15662 0.92301 0.0
H512 H 0.84531 0.14948 0.90441 0.0
H513 H 0.86843 0.22258 0.89081 0.0
H514 H 0.8804 0.23179 0.86394 0.0
H515 H 0.89409 0.20755 0.86707 0.0
H516 H 0.8822 0.19853 0.89403 0.0
H517 H 0.88918 0.20681 0.92379 0.0
H518 H 0.90346 0.22089 0.94589 0.0
H519 H 0.87966 0.23491 0.95353 0.0
H520 H 0.86508 0.22024 0.93212 0.0
H521 H 0.84481 0.19495 0.90326 0.0
H522 H 0.82956 0.17335 0.90384 0.0
H523 H 0.85713 0.1663 0.92385 0.0
N524 N 0.8684 0.20582 0.91126 0.0
H525 H 0.87233 0.18782 0.92261 0.0
C526 C 0.80107 0.11375 0.8915 0.0
C527 C 0.79532 0.11921 0.88284 0.0
C528 C 0.78906 0.11457 0.86671 0.0
C529 C 0.78866 0.1046 0.85876 0.0
C530 C 0.79492 0.09955 0.86692 0.0
C531 C 0.80099 0.10404 0.88325 0.0
C532 C 0.79722 0.11105 0.92315 0.0
C533 C 0.79873 0.10348 0.93495 0.0
C534 C 0.78951 0.09615 0.94699 0.0
C535 C 0.77862 0.09633 0.94749 0.0
C536 C 0.77731 0.10424 0.93607 0.0
C537 C 0.78646 0.11147 0.92401 0.0
C538 C 0.81502 0.12987 0.91177 0.0
C539 C 0.8118 0.13818 0.91741 0.0
C540 C 0.82062 0.15049 0.91852 0.0
C541 C 0.83284 0.15483 0.91383 0.0
C542 C 0.83605 0.14648 0.9084 0.0
C543 C 0.82723 0.13416 0.90741 0.0
C544 C 0.8744 0.20991 0.89438 0.0
C545 C 0.87387 0.21916 0.88548 0.0
C546 C 0.88069 0.22437 0.87014 0.0
C547 C 0.88824 0.22043 0.86341 0.0
C548 C 0.88849 0.21089 0.87207 0.0
C549 C 0.88163 0.20567 0.88742 0.0
C550 C 0.87591 0.21234 0.92645 0.0
C551 C 0.88676 0.21254 0.93072 0.0
C552 C 0.89507 0.22079 0.9432 0.0
C553 C 0.89284 0.22919 0.95141 0.0
C554 C 0.88167 0.22851 0.94775 0.0
C555 C 0.8733 0.22015 0.93546 0.0
C556 C 0.85967 0.19306 0.91298 0.0
C557 C 0.84751 0.18872 0.90789 0.0
C558 C 0.8388 0.17637 0.90834 0.0
C559 C 0.84208 0.16804 0.91397 0.0
C560 C 0.8543 0.17243 0.91926 0.0
C561 C 0.86302 0.18481 0.9187 0.0
H562 H 0.81619 0.71945 0.89488 0.0
N563 N 0.81902 0.70282 0.91128 0.0
H564 H 0.80539 0.71736 0.86669 0.0
H565 H 0.81079 0.68403 0.88782 0.0
H566 H 0.79996 0.68184 0.8596 0.0
H567 H 0.79942 0.67979 0.91519 0.0
H568 H 0.78193 0.67358 0.93431 0.0
H569 H 0.81701 0.71581 0.93678 0.0
H570 H 0.79926 0.70973 0.95574 0.0
H571 H 0.84165 0.71668 0.89972 0.0
H572 H 0.81839 0.68295 0.9268 0.0
H573 H 0.85858 0.71317 0.90173 0.0
H574 H 0.83539 0.67973 0.92977 0.0
H575 H 0.91214 0.70498 0.90529 0.0
H576 H 0.92056 0.70315 0.87718 0.0
H577 H 0.88567 0.67145 0.8639 0.0
H578 H 0.87735 0.6734 0.89184 0.0
H579 H 0.88126 0.66593 0.92012 0.0
H580 H 0.88954 0.65658 0.9394 0.0
H581 H 0.91179 0.69056 0.9669 0.0
H582 H 0.90385 0.69994 0.94688 0.0
H583 H 0.89017 0.7105 0.92191 0.0
H584 H 0.87273 0.71333 0.92157 0.0
H585 H 0.84826 0.67479 0.91498 0.0
N586 N 0.88997 0.69015 0.91807 0.0
H587 H 0.8658 0.67208 0.91663 0.0
C588 C 0.81425 0.70192 0.89345 0.0
C589 C 0.81288 0.71133 0.88702 0.0
C590 C 0.80672 0.71012 0.87093 0.0
C591 C 0.80174 0.6994 0.86099 0.0
C592 C 0.80356 0.69014 0.86709 0.0
C593 C 0.80979 0.6914 0.88316 0.0
C594 C 0.80961 0.69831 0.92462 0.0
C595 C 0.79964 0.68633 0.92429 0.0
C596 C 0.78955 0.68281 0.93513 0.0
C597 C 0.7891 0.6912 0.94637 0.0
C598 C 0.79934 0.70301 0.94734 0.0
C599 C 0.80949 0.70651 0.93654 0.0
C600 C 0.82871 0.70022 0.91312 0.0
C601 C 0.84022 0.70858 0.90626 0.0
C602 C 0.84994 0.70659 0.90759 0.0
C603 C 0.84847 0.69621 0.91613 0.0
C604 C 0.83688 0.68776 0.92294 0.0
C605 C 0.82708 0.68967 0.92134 0.0
C606 C 0.89413 0.68943 0.90064 0.0
C607 C 0.90629 0.69776 0.89616 0.0
C608 C 0.9111 0.69662 0.88021 0.0
C609 C 0.90379 0.68711 0.86838 0.0
C610 C 0.89149 0.67894 0.87267 0.0
C611 C 0.88671 0.68005 0.88868 0.0
C612 C 0.89211 0.68371 0.93193 0.0
C613 C 0.8877 0.67129 0.93055 0.0
C614 C 0.89243 0.66594 0.94168 0.0
C615 C 0.90156 0.67287 0.95449 0.0
C616 C 0.90503 0.68502 0.95688 0.0
C617 C 0.9004 0.69037 0.94562 0.0
C618 C 0.87931 0.69116 0.91903 0.0
C619 C 0.88101 0.70268 0.9206 0.0
C620 C 0.87101 0.70426 0.92018 0.0
C621 C 0.85902 0.69432 0.91787 0.0
C622 C 0.85732 0.68268 0.91684 0.0
C623 C 0.86736 0.6811 0.91758 0.0
H624 H 0.7581 0.63645 0.45898 0.0
N625 N 0.77914 0.6502 0.44252 0.0
H626 H 0.75178 0.64029 0.48759 0.0
H627 H 0.7934 0.66899 0.46499 0.0
H628 H 0.78716 0.67298 0.49366 0.0
H629 H 0.78952 0.67439 0.43591 0.0
H630 H 0.78102 0.6834 0.41635 0.0
H631 H 0.76194 0.63892 0.41771 0.0
H632 H 0.75311 0.64778 0.39844 0.0
H633 H 0.78026 0.63153 0.4542 0.0
H634 H 0.80217 0.66641 0.42954 0.0
H635 H 0.79791 0.62917 0.45557 0.0
H636 H 0.81971 0.66381 0.42967 0.0
H637 H 0.8545 0.62213 0.46308 0.0
H638 H 0.8651 0.62295 0.49091 0.0
H639 H 0.86818 0.65686 0.50387 0.0
H640 H 0.858 0.65615 0.47595 0.0
H641 H 0.87127 0.66208 0.4485 0.0
H642 H 0.88895 0.66908 0.42944 0.0
H643 H 0.87054 0.63482 0.40183 0.0
H644 H 0.85293 0.62777 0.42143 0.0
H645 H 0.82797 0.62247 0.44357 0.0
H646 H 0.81059 0.6252 0.43977 0.0
H647 H 0.83478 0.66371 0.4471 0.0
N648 N 0.8512 0.63917 0.44942 0.0
H649 H 0.85215 0.66089 0.44935 0.0
C650 C 0.77614 0.65241 0.45993 0.0
C651 C 0.7645 0.64437 0.46662 0.0
C652 C 0.76094 0.64657 0.48294 0.0
C653 C 0.76898 0.65695 0.49286 0.0
C654 C 0.78074 0.66498 0.48621 0.0
C655 C 0.78432 0.6627 0.4699 0.0
C656 C 0.77637 0.65592 0.42821 0.0
C657 C 0.78185 0.66854 0.42732 0.0
C658 C 0.77687 0.67368 0.41626 0.0
C659 C 0.76625 0.66632 0.406 0.0
C660 C 0.76135 0.65376 0.40599 0.0
C661 C 0.76638 0.64865 0.41699 0.0
C662 C 0.78976 0.64904 0.44168 0.0
C663 C 0.78885 0.63859 0.44876 0.0
C664 C 0.79898 0.63723 0.44938 0.0
C665 C 0.81033 0.64623 0.44257 0.0
C666 C 0.81121 0.65672 0.43527 0.0
C667 C 0.80108 0.65818 0.435 0.0
C668 C 0.85539 0.639 0.46732 0.0
C669 C 0.85723 0.62959 0.47215 0.0
C670 C 0.86328 0.63008 0.48808 0.0
C671 C 0.86761 0.64004 0.49958 0.0
C672 C 0.86517 0.64917 0.49517 0.0
C673 C 0.85919 0.6487 0.47919 0.0
C674 C 0.86076 0.64435 0.43638 0.0
C675 C 0.87089 0.65616 0.4381 0.0
C676 C 0.88103 0.66017 0.42712 0.0
C677 C 0.88123 0.65247 0.41419 0.0
C678 C 0.87078 0.6409 0.41186 0.0
C679 C 0.86066 0.6369 0.42289 0.0
C680 C 0.8413 0.64138 0.44714 0.0
C681 C 0.82948 0.63149 0.44427 0.0
C682 C 0.81954 0.63309 0.44226 0.0
C683 C 0.82114 0.64468 0.44344 0.0
C684 C 0.83311 0.65465 0.44597 0.0
C685 C 0.8431 0.65304 0.44757 0.0
H686 H 0.37138 0.13587 0.46086 0.0
N687 N 0.35548 0.14072 0.44586 0.0
H688 H 0.36973 0.12624 0.48965 0.0
H689 H 0.33817 0.13561 0.47108 0.0
H690 H 0.33666 0.12642 0.50018 0.0
H691 H 0.33207 0.12117 0.4445 0.0
H692 H 0.325 0.10317 0.42636 0.0
H693 H 0.36688 0.13849 0.41818 0.0
H694 H 0.35975 0.12062 0.39944 0.0
H695 H 0.37263 0.16367 0.45041 0.0
H696 H 0.33438 0.14059 0.43709 0.0
H697 H 0.37052 0.18129 0.44886 0.0
H698 H 0.33226 0.15821 0.43461 0.0
H699 H 0.36787 0.23072 0.4649 0.0
H700 H 0.36696 0.23912 0.49355 0.0
H701 H 0.32773 0.21468 0.494 0.0
H702 H 0.32873 0.20662 0.46529 0.0
H703 H 0.32557 0.20579 0.43432 0.0
H704 H 0.31856 0.21673 0.41585 0.0
H705 H 0.35622 0.24418 0.40554 0.0
H706 H 0.36303 0.2335 0.4249 0.0
H707 H 0.36701 0.21232 0.4318 0.0
H708 H 0.368 0.19406 0.4296 0.0
H709 H 0.33164 0.17322 0.4515 0.0
N710 N 0.34918 0.21447 0.44516 0.0
H711 H 0.33053 0.19145 0.45255 0.0
C712 C 0.35498 0.13651 0.46385 0.0
C713 C 0.36389 0.13398 0.46955 0.0
C714 C 0.36294 0.12852 0.48604 0.0
C715 C 0.35303 0.12549 0.49726 0.0
C716 C 0.3443 0.12843 0.49177 0.0
C717 C 0.34522 0.13382 0.47519 0.0
C718 C 0.35008 0.13119 0.43275 0.0
C719 C 0.33807 0.12126 0.43441 0.0
C720 C 0.33402 0.11094 0.42396 0.0
C721 C 0.34186 0.11035 0.41159 0.0
C722 C 0.35355 0.12065 0.40909 0.0
C723 C 0.3576 0.13094 0.41961 0.0
C724 C 0.35377 0.15083 0.44369 0.0
C725 C 0.36381 0.16245 0.44684 0.0
C726 C 0.36258 0.17253 0.4458 0.0
C727 C 0.35123 0.17126 0.44141 0.0
C728 C 0.34112 0.15957 0.43817 0.0
C729 C 0.34235 0.14944 0.43941 0.0
C730 C 0.34844 0.21802 0.463 0.0
C731 C 0.35913 0.22707 0.47139 0.0
C732 C 0.35857 0.23183 0.48775 0.0
C733 C 0.34725 0.22762 0.49605 0.0
C734 C 0.33657 0.21825 0.48786 0.0
C735 C 0.33715 0.21352 0.47148 0.0
C736 C 0.34483 0.219 0.4312 0.0
C737 C 0.33228 0.21409 0.4279 0.0
C738 C 0.3283 0.22033 0.41721 0.0
C739 C 0.33682 0.23151 0.40949 0.0
C740 C 0.34939 0.2358 0.41167 0.0
C741 C 0.35332 0.22964 0.42251 0.0
C742 C 0.34883 0.20331 0.44258 0.0
C743 C 0.35921 0.20376 0.43586 0.0
C744 C 0.35978 0.19331 0.43481 0.0
C745 C 0.35 0.18213 0.44073 0.0
C746 C 0.33935 0.18162 0.44676 0.0
C747 C 0.33873 0.1921 0.44755 0.0
H748 H 0.80348 0.11318 0.46533 0.0
N749 N 0.8052 0.13235 0.44936 0.0
H750 H 0.79106 0.10226 0.49119 0.0
H751 H 0.79237 0.13925 0.46991 0.0
H752 H 0.77989 0.12838 0.49572 0.0
H753 H 0.7826 0.12857 0.44052 0.0
H754 H 0.76865 0.11441 0.4182 0.0
H755 H 0.81108 0.12276 0.42303 0.0
H756 H 0.7974 0.10907 0.3998 0.0
H757 H 0.82635 0.1449 0.46664 0.0
H758 H 0.80151 0.14927 0.43251 0.0
H759 H 0.83987 0.16671 0.46828 0.0
H760 H 0.8154 0.17105 0.4329 0.0
H761 H 0.88345 0.22474 0.46469 0.0
H762 H 0.89487 0.23251 0.49256 0.0
H763 H 0.8656 0.23608 0.51351 0.0
H764 H 0.85422 0.22833 0.48534 0.0
H765 H 0.8685 0.24528 0.44973 0.0
H766 H 0.88458 0.25932 0.4295 0.0
H767 H 0.88759 0.23001 0.40891 0.0
H768 H 0.87186 0.21609 0.42913 0.0
H769 H 0.86778 0.20513 0.45635 0.0
H770 H 0.85406 0.18353 0.45325 0.0
H771 H 0.82325 0.18865 0.44931 0.0
N772 N 0.86145 0.22242 0.45608 0.0
H773 H 0.83733 0.2105 0.45107 0.0
C774 C 0.79891 0.12703 0.46579 0.0
C775 C 0.79849 0.11663 0.47211 0.0
C776 C 0.79132 0.11036 0.48675 0.0
C777 C 0.78445 0.11443 0.4954 0.0
C778 C 0.78518 0.12509 0.48941 0.0
C779 C 0.7923 0.13131 0.47467 0.0
C780 C 0.79785 0.12652 0.43367 0.0
C781 C 0.78597 0.12451 0.43152 0.0
C782 C 0.778 0.11644 0.41858 0.0
C783 C 0.78178 0.11035 0.40738 0.0
C784 C 0.79404 0.1133 0.40852 0.0
C785 C 0.80194 0.12124 0.42163 0.0
C786 C 0.81299 0.14536 0.44936 0.0
C787 C 0.82392 0.15059 0.45927 0.0
C788 C 0.83171 0.1631 0.46002 0.0
C789 C 0.8289 0.17078 0.45052 0.0
C790 C 0.81787 0.16551 0.44058 0.0
C791 C 0.80993 0.15295 0.44016 0.0
C792 C 0.8679 0.22589 0.47298 0.0
C793 C 0.87936 0.22696 0.47537 0.0
C794 C 0.88591 0.23142 0.49134 0.0
C795 C 0.88116 0.23495 0.50525 0.0
C796 C 0.86957 0.23359 0.50297 0.0
C797 C 0.86301 0.22908 0.48699 0.0
C798 C 0.86893 0.2296 0.44131 0.0
C799 C 0.87241 0.24181 0.44055 0.0
C800 C 0.88161 0.24983 0.42908 0.0
C801 C 0.88733 0.24573 0.41777 0.0
C802 C 0.88326 0.23337 0.41747 0.0
C803 C 0.87423 0.22538 0.42922 0.0
C804 C 0.85361 0.20952 0.45364 0.0
C805 C 0.85811 0.20167 0.45453 0.0
C806 C 0.85016 0.1892 0.45299 0.0
C807 C 0.83743 0.18418 0.45116 0.0
C808 C 0.83297 0.19209 0.45035 0.0
C809 C 0.84099 0.2046 0.45147 0.0
H810 H 0.01794 0.5609 0.23758 0.0
N811 N 0.99866 0.54016 0.2514 0.0
H812 H 0.01801 0.5705 0.20951 0.0
H813 H 0.98138 0.53135 0.22608 0.0
H814 H 0.98146 0.54092 0.19767 0.0
H815 H 0.982 0.54356 0.26621 0.0
H816 H 0.98559 0.55998 0.28611 0.0
H817 H 0.02038 0.55555 0.26911 0.0
H818 H 0.024 0.57183 0.28903 0.0
H819 H 0.02207 0.54535 0.24533 0.0
H820 H 0.98587 0.51693 0.25987 0.0
H821 H 0.0292 0.53127 0.24659 0.0
H822 H 0.99265 0.50244 0.25987 0.0
H823 H 0.04281 0.47913 0.2277 0.0
H824 H 0.03813 0.46705 0.20059 0.0
H825 H 1.00026 0.45703 0.20385 0.0
H826 H 0.00505 0.46904 0.23109 0.0
H827 H 0.00646 0.46081 0.25981 0.0
H828 H 0.00566 0.44585 0.28056 0.0
H829 H 0.04461 0.46856 0.29004 0.0
H830 H 0.04527 0.48358 0.26938 0.0
H831 H 0.03514 0.50126 0.22961 0.0
H832 H 0.02844 0.51569 0.23091 0.0
H833 H 0.00388 0.49511 0.2736 0.0
N834 N 0.02725 0.48115 0.24829 0.0
H835 H 0.01003 0.48036 0.27143 0.0
C836 C 0.99956 0.5454 0.23403 0.0
C837 C 0.00997 0.55638 0.22896 0.0
C838 C 0.00998 0.56191 0.21292 0.0
C839 C 0.99969 0.55652 0.20152 0.0
C840 C 0.98952 0.54527 0.2062 0.0
C841 C 0.98946 0.5398 0.22237 0.0
C842 C 1.00084 0.54825 0.26604 0.0
C843 C 0.99113 0.5495 0.27157 0.0
C844 C 0.99321 0.5589 0.28294 0.0
C845 C 0.00512 0.56731 0.289 0.0
C846 C 0.01475 0.56562 0.28436 0.0
C847 C 0.01264 0.55619 0.27302 0.0
C848 C 0.00343 0.53224 0.25285 0.0
C849 C 0.01565 0.53609 0.24897 0.0
C850 C 0.01967 0.52791 0.24939 0.0
C851 C 0.01152 0.5156 0.25322 0.0
C852 C 0.9993 0.51183 0.25719 0.0
C853 C 0.99536 0.52008 0.2571 0.0
C854 C 0.02432 0.47499 0.23137 0.0
C855 C 0.03355 0.47445 0.22238 0.0
C856 C 0.03085 0.46757 0.20689 0.0
C857 C 0.01881 0.46104 0.20009 0.0
C858 C 0.00959 0.46182 0.20889 0.0
C859 C 0.01232 0.46874 0.22438 0.0
C860 C 0.02597 0.47338 0.26305 0.0
C861 C 0.01478 0.46271 0.26665 0.0
C862 C 0.01435 0.45411 0.27843 0.0
C863 C 0.02509 0.45592 0.2868 0.0
C864 C 0.03614 0.4669 0.28396 0.0
C865 C 0.03655 0.47551 0.27217 0.0
C866 C 0.02315 0.48962 0.25024 0.0
C867 C 0.02828 0.49984 0.23921 0.0
C868 C 0.0245 0.50818 0.24013 0.0
C869 C 0.01562 0.50669 0.25245 0.0
C870 C 0.01058 0.49651 0.26372 0.0
C871 C 0.0142 0.48802 0.26255 0.0
H872 H 0.57045 0.52735 0.22761 0.0
N873 N 0.55438 0.52886 0.24778 0.0
H874 H 0.5797 0.53831 0.19995 0.0
H875 H 0.54819 0.54338 0.22936 0.0
H876 H 0.55754 0.55452 0.20229 0.0
H877 H 0.54133 0.53899 0.25882 0.0
H878 H 0.54902 0.55637 0.27881 0.0
H879 H 0.57385 0.53765 0.26913 0.0
H880 H 0.58135 0.55474 0.28974 0.0
H881 H 0.55075 0.50841 0.26158 0.0
H882 H 0.53195 0.52378 0.23481 0.0
H883 H 0.5319 0.48856 0.26111 0.0
H884 H 0.51325 0.50398 0.23364 0.0
H885 H 0.47186 0.42618 0.22455 0.0
H886 H 0.46116 0.41824 0.19614 0.0
H887 H 0.46354 0.45224 0.18561 0.0
H888 H 0.47378 0.45989 0.21432 0.0
H889 H 0.45958 0.45188 0.24094 0.0
H890 H 0.44161 0.44179 0.25965 0.0
H891 H 0.45583 0.42138 0.28477 0.0
H892 H 0.47417 0.43205 0.26647 0.0
H893 H 0.5012 0.45311 0.23731 0.0
H894 H 0.51959 0.47316 0.24008 0.0
H895 H 0.49703 0.48823 0.2505 0.0
N896 N 0.47806 0.44708 0.23964 0.0
H897 H 0.47878 0.46831 0.24708 0.0
C898 C 0.55865 0.53448 0.23062 0.0
C899 C 0.56748 0.53312 0.22194 0.0
C900 C 0.57282 0.53948 0.20625 0.0
C901 C 0.56943 0.54738 0.19896 0.0
C902 C 0.56028 0.54843 0.20739 0.0
C903 C 0.55493 0.54205 0.22302 0.0
C904 C 0.55715 0.53715 0.26227 0.0
C905 C 0.54998 0.54224 0.26567 0.0
C906 C 0.55436 0.55215 0.27711 0.0
C907 C 0.5658 0.55691 0.28567 0.0
C908 C 0.57248 0.5512 0.28336 0.0
C909 C 0.56821 0.54146 0.27164 0.0
C910 C 0.54285 0.51756 0.24814 0.0
C911 C 0.54254 0.50748 0.25563 0.0
C912 C 0.53178 0.49614 0.2552 0.0
C913 C 0.52106 0.4946 0.24714 0.0
C914 C 0.52129 0.50482 0.24008 0.0
C915 C 0.53206 0.51619 0.24063 0.0
C916 C 0.47367 0.4436 0.22158 0.0
C917 C 0.47027 0.43197 0.21591 0.0
C918 C 0.46418 0.42747 0.19964 0.0
C919 C 0.46139 0.43456 0.18859 0.0
C920 C 0.46533 0.44644 0.19392 0.0
C921 C 0.47134 0.4509 0.21028 0.0
C922 C 0.46835 0.44282 0.25245 0.0
C923 C 0.45908 0.44557 0.25088 0.0
C924 C 0.44867 0.43961 0.26142 0.0
C925 C 0.44715 0.43061 0.27355 0.0
C926 C 0.45671 0.42832 0.2757 0.0
C927 C 0.4672 0.43439 0.26526 0.0
C928 C 0.48859 0.45908 0.24211 0.0
C929 C 0.50025 0.46075 0.24027 0.0
C930 C 0.51075 0.47222 0.24197 0.0
C931 C 0.50983 0.48235 0.24564 0.0
C932 C 0.4981 0.48068 0.24751 0.0
C933 C 0.48759 0.46919 0.2457 0.0
H934 H 0.5323 0.96737 0.22376 0.0
N935 N 0.53132 0.9842 0.24239 0.0
H936 H 0.54396 0.97013 0.19666 0.0
H937 H 0.54448 0.00524 0.22365 0.0
H938 H 0.55619 0.0081 0.19661 0.0
H939 H 0.55263 0.00437 0.25341 0.0
H940 H 0.56764 0.00471 0.27425 0.0
H941 H 0.52798 0.96659 0.26431 0.0
H942 H 0.54303 0.96675 0.28497 0.0
H943 H 0.5123 0.97885 0.22137 0.0
H944 H 0.53296 0.00153 0.26598 0.0
H945 H 0.49953 0.98766 0.22105 0.0
H946 H 0.51978 0.0098 0.26641 0.0
H947 H 0.4565 0.00182 0.22772 0.0
H948 H 0.44659 0.00202 0.19997 0.0
H949 H 0.47693 0.03787 0.18867 0.0
H950 H 0.48687 0.03761 0.21677 0.0
H951 H 0.47485 0.03697 0.25625 0.0
H952 H 0.45857 0.03364 0.27655 0.0
H953 H 0.44696 0.99589 0.28004 0.0
H954 H 0.46293 0.99918 0.25965 0.0
H955 H 0.47127 0.9969 0.23345 0.0
H956 H 0.484 0.98817 0.2353 0.0
H957 H 0.51475 0.02271 0.25196 0.0
N958 N 0.47814 0.02034 0.24145 0.0
H959 H 0.50155 0.03119 0.25123 0.0
C960 C 0.53747 0.98603 0.22564 0.0
C961 C 0.5374 0.97624 0.21775 0.0
C962 C 0.54412 0.97786 0.20239 0.0
C963 C 0.55102 0.98934 0.19457 0.0
C964 C 0.55087 0.99913 0.20225 0.0
C965 C 0.54421 0.99751 0.21771 0.0
C966 C 0.53912 0.98541 0.25734 0.0
C967 C 0.55033 0.9962 0.2606 0.0
C968 C 0.55896 0.99635 0.27241 0.0
C969 C 0.55663 0.98572 0.28111 0.0
C970 C 0.54511 0.97514 0.27865 0.0
C971 C 0.53648 0.97501 0.26686 0.0
C972 C 0.52378 0.98953 0.24342 0.0
C973 C 0.51404 0.98567 0.23119 0.0
C974 C 0.50664 0.99065 0.23117 0.0
C975 C 0.50853 0.99947 0.24375 0.0
C976 C 0.51815 0.00321 0.25627 0.0
C977 C 0.52573 0.99837 0.25608 0.0
C978 C 0.47256 0.0197 0.2243 0.0
C979 C 0.46119 0.00964 0.21919 0.0
C980 C 0.4555 0.00977 0.20326 0.0
C981 C 0.46097 0.01996 0.1921 0.0
C982 C 0.47243 0.02993 0.19706 0.0
C983 C 0.47816 0.02976 0.21299 0.0
C984 C 0.47019 0.01841 0.25625 0.0
C985 C 0.46898 0.02805 0.26178 0.0
C986 C 0.45968 0.02612 0.27339 0.0
C987 C 0.45136 0.01446 0.27971 0.0
C988 C 0.45308 0.00495 0.27513 0.0
C989 C 0.46236 0.00687 0.2635 0.0
C990 C 0.48541 0.01476 0.24241 0.0
C991 C 0.48068 0.00261 0.23774 0.0
C992 C 0.48809 0.99763 0.23859 0.0
C993 C 0.50051 0.00471 0.24368 0.0
C994 C 0.50521 0.01688 0.24829 0.0
C995 C 0.49771 0.02179 0.24775 0.0
H996 H 0.42642 0.9705 0.79636 0.0
N997 N 0.44715 0.98495 0.77958 0.0
H998 H 0.41979 0.97407 0.82489 0.0
H999 H 0.46078 0.00415 0.80169 0.0
H1000 H 0.45423 0.00787 0.8303 0.0
H1001 H 0.45459 0.00862 0.77332 0.0
H1002 H 0.44444 0.01568 0.75334 0.0
H1003 H 0.43163 0.97242 0.75333 0.0
H1004 H 0.42178 0.97948 0.73254 0.0
H1005 H 0.44912 0.96646 0.78956 0.0
H1006 H 0.46995 0.00239 0.76793 0.0
H1007 H 0.4673 0.96494 0.7899 0.0
H1008 H 0.48813 1.00072 0.76701 0.0
H1009 H 0.52645 0.96043 0.7914 0.0
H1010 H 0.53642 0.95978 0.81919 0.0
H1011 H 0.53506 0.99019 0.8391 0.0
H1012 H 0.52546 0.99105 0.81129 0.0
H1013 H 0.54103 0.99965 0.78342 0.0
H1014 H 0.559 0.00783 0.76448 0.0
H1015 H 0.54071 0.97552 0.73219 0.0
H1016 H 0.52287 0.96732 0.75155 0.0
H1017 H 0.49798 0.95996 0.77475 0.0
H1018 H 0.48025 0.96224 0.77238 0.0
H1019 H 0.50353 1.0004 0.78369 0.0
N1020 N 0.52099 0.97681 0.78165 0.0
H1021 H 0.52129 0.99809 0.78462 0.0
C1022 C 0.44402 0.98703 0.79697 0.0
C1023 C 0.43256 0.9786 0.80384 0.0
C1024 C 0.42883 0.98065 0.82012 0.0
C1025 C 0.4365 0.99126 0.82983 0.0
C1026 C 0.44809 0.99968 0.82302 0.0
C1027 C 0.45185 0.99755 0.80675 0.0
C1028 C 0.44372 0.98991 0.76498 0.0
C1029 C 0.44762 0.00225 0.76422 0.0
C1030 C 0.44181 0.00629 0.75267 0.0
C1031 C 0.43208 0.99811 0.74154 0.0
C1032 C 0.429 0.98599 0.74125 0.0
C1033 C 0.43472 0.98194 0.75293 0.0
C1034 C 0.4581 0.98441 0.77852 0.0
C1035 C 0.45762 0.97394 0.78456 0.0
C1036 C 0.46804 0.97308 0.78458 0.0
C1037 C 0.47926 0.98263 0.77822 0.0
C1038 C 0.47973 0.9932 0.77215 0.0
C1039 C 0.46928 0.99413 0.77247 0.0
C1040 C 0.52506 0.97566 0.7992 0.0
C1041 C 0.52809 0.9668 0.8019 0.0
C1042 C 0.53384 0.96649 0.81769 0.0
C1043 C 0.53649 0.97493 0.83124 0.0
C1044 C 0.53299 0.9835 0.82891 0.0
C1045 C 0.52746 0.98397 0.81295 0.0
C1046 C 0.53062 0.98284 0.76887 0.0
C1047 C 0.54077 0.99447 0.77201 0.0
C1048 C 0.55105 0.99913 0.76114 0.0
C1049 C 0.55136 0.99226 0.74693 0.0
C1050 C 0.54086 0.98095 0.74321 0.0
C1051 C 0.53062 0.9763 0.7541 0.0
C1052 C 0.51088 0.97875 0.78022 0.0
C1053 C 0.49921 0.96881 0.77663 0.0
C1054 C 0.48907 0.97015 0.77545 0.0
C1055 C 0.49031 0.98148 0.77819 0.0
C1056 C 0.50214 0.99154 0.78139 0.0
C1057 C 0.51234 0.99021 0.78219 0.0
H1058 H 0.95947 0.51931 0.80641 0.0
N1059 N 0.97502 0.52507 0.77973 0.0
H1060 H 0.96238 0.53102 0.83347 0.0
H1061 H 0.99627 0.54547 0.79052 0.0
H1062 H 0.99944 0.55684 0.81763 0.0
H1063 H 0.99461 0.54105 0.75949 0.0
H1064 H 0.99478 0.55556 0.73828 0.0
H1065 H 0.95577 0.52496 0.76609 0.0
H1066 H 0.9558 0.53933 0.74477 0.0
H1067 H 0.96135 0.50165 0.77272 0.0
H1068 H 0.99875 0.53008 0.78203 0.0
H1069 H 0.96783 0.48692 0.77121 0.0
H1070 H 0.00523 0.5155 0.78133 0.0
H1071 H 0.98524 0.44804 0.80168 0.0
H1072 H 0.98729 0.44056 0.83052 0.0
H1073 H 0.02578 0.46787 0.83207 0.0
H1074 H 0.0236 0.4755 0.80306 0.0
H1075 H 0.01969 0.46344 0.76458 0.0
H1076 H 0.01548 0.44644 0.74551 0.0
H1077 H 0.97665 0.4315 0.75168 0.0
H1078 H 0.98098 0.44872 0.77029 0.0
H1079 H 0.98144 0.46271 0.79282 0.0
H1080 H 0.97472 0.47709 0.79054 0.0
H1081 H 0.00824 0.50221 0.76364 0.0
N1082 N 0.00369 0.46636 0.78238 0.0
H1083 H 0.01512 0.48783 0.76671 0.0
C1084 C 0.97762 0.53138 0.79648 0.0
C1085 C 0.96826 0.52741 0.80897 0.0
C1086 C 0.96996 0.53411 0.82442 0.0
C1087 C 0.98112 0.54494 0.82769 0.0
C1088 C 0.99064 0.54867 0.81541 0.0
C1089 C 0.9889 0.54203 0.79993 0.0
C1090 C 0.97514 0.53195 0.76448 0.0
C1091 C 0.98607 0.54045 0.75611 0.0
C1092 C 0.98616 0.54879 0.74403 0.0
C1093 C 0.97532 0.54867 0.73997 0.0
C1094 C 0.96429 0.53962 0.74747 0.0
C1095 C 0.96424 0.53139 0.75964 0.0
C1096 C 0.97947 0.51695 0.77761 0.0
C1097 C 0.97096 0.50471 0.77438 0.0
C1098 C 0.97469 0.49631 0.77369 0.0
C1099 C 0.98706 0.49996 0.77633 0.0
C1100 C 0.99565 0.51232 0.77905 0.0
C1101 C 0.99191 0.52073 0.7796 0.0
C1102 C 0.00427 0.46252 0.80027 0.0
C1103 C 0.99406 0.45268 0.80834 0.0
C1104 C 0.99525 0.44836 0.82487 0.0
C1105 C 0.0067 0.45363 0.83357 0.0
C1106 C 0.01686 0.46359 0.82563 0.0
C1107 C 0.01562 0.46801 0.80917 0.0
C1108 C 1.00071 0.45735 0.7689 0.0
C1109 C 0.01028 0.45663 0.76145 0.0
C1110 C 0.00784 0.44684 0.75073 0.0
C1111 C 0.99572 0.4375 0.7473 0.0
C1112 C 0.98609 0.43856 0.75399 0.0
C1113 C 0.98855 0.4484 0.76471 0.0
C1114 C 0.99892 0.47423 0.78011 0.0
C1115 C 0.98738 0.47126 0.78643 0.0
C1116 C 0.98347 0.47952 0.78495 0.0
C1117 C 0.99094 0.49089 0.77696 0.0
C1118 C 0.00232 0.49366 0.77017 0.0
C1119 C 0.00624 0.48542 0.77178 0.0
H1120 H 0.46741 0.44786 0.80645 0.0
N1121 N 0.46885 0.46661 0.78955 0.0
H1122 H 0.45562 0.43774 0.83311 0.0
H1123 H 0.45706 0.47453 0.81058 0.0
H1124 H 0.44543 0.46462 0.83737 0.0
H1125 H 0.44619 0.46341 0.78262 0.0
H1126 H 0.43138 0.44955 0.76061 0.0
H1127 H 0.4733 0.45633 0.76255 0.0
H1128 H 0.45853 0.44266 0.74008 0.0
H1129 H 0.49219 0.47827 0.79929 0.0
H1130 H 0.46412 0.48406 0.77826 0.0
H1131 H 0.50675 0.50002 0.79938 0.0
H1132 H 0.47871 0.50579 0.7775 0.0
H1133 H 0.53666 0.54666 0.8173 0.0
H1134 H 0.54664 0.55643 0.84532 0.0
H1135 H 0.53959 0.58504 0.83405 0.0
H1136 H 0.52991 0.57533 0.80568 0.0
H1137 H 0.52992 0.56922 0.76312 0.0
H1138 H 0.54781 0.58174 0.74449 0.0
H1139 H 0.56775 0.56811 0.77298 0.0
H1140 H 0.55022 0.55615 0.79179 0.0
H1141 H 0.53322 0.53803 0.78213 0.0
H1142 H 0.51843 0.51662 0.78053 0.0
H1143 H 0.48986 0.523 0.79617 0.0
N1144 N 0.52867 0.55604 0.79132 0.0
H1145 H 0.50477 0.54472 0.79697 0.0
C1146 C 0.46316 0.46193 0.80655 0.0
C1147 C 0.4628 0.45166 0.81335 0.0
C1148 C 0.45608 0.44592 0.82859 0.0
C1149 C 0.44953 0.45034 0.8373 0.0
C1150 C 0.45024 0.46089 0.83081 0.0
C1151 C 0.45698 0.46664 0.81558 0.0
C1152 C 0.46085 0.46075 0.77442 0.0
C1153 C 0.44908 0.45913 0.77322 0.0
C1154 C 0.4406 0.45121 0.76062 0.0
C1155 C 0.4438 0.44499 0.74878 0.0
C1156 C 0.45586 0.44741 0.749 0.0
C1157 C 0.46429 0.45518 0.7618 0.0
C1158 C 0.47714 0.4795 0.78862 0.0
C1159 C 0.48924 0.48426 0.79446 0.0
C1160 C 0.49755 0.4967 0.79438 0.0
C1161 C 0.49397 0.50472 0.78829 0.0
C1162 C 0.48179 0.49992 0.78243 0.0
C1163 C 0.47343 0.48744 0.78268 0.0
C1164 C 0.53257 0.56032 0.80932 0.0
C1165 C 0.53704 0.55491 0.82099 0.0
C1166 C 0.54272 0.5605 0.83709 0.0
C1167 C 0.54403 0.57159 0.84188 0.0
C1168 C 0.53893 0.57661 0.83063 0.0
C1169 C 0.53329 0.57103 0.81452 0.0
C1170 C 0.53861 0.56168 0.7788 0.0
C1171 C 0.5381 0.5688 0.76507 0.0
C1172 C 0.54832 0.57593 0.75445 0.0
C1173 C 0.55928 0.57606 0.75739 0.0
C1174 C 0.55957 0.56845 0.77059 0.0
C1175 C 0.54943 0.56145 0.78126 0.0
C1176 C 0.52015 0.54318 0.78958 0.0
C1177 C 0.52382 0.535 0.78506 0.0
C1178 C 0.51529 0.52261 0.7843 0.0
C1179 C 0.50291 0.518 0.7883 0.0
C1180 C 0.49925 0.52619 0.79273 0.0
C1181 C 0.50778 0.53861 0.7933 0.0
H1182 H 0.69087 0.89649 0.55362 0.0
N1183 N 0.67721 0.88069 0.57836 0.0
H1184 H 0.68395 0.90151 0.52613 0.0
H1185 H 0.65363 0.86936 0.5658 0.0
H1186 H 0.64654 0.87448 0.53838 0.0
H1187 H 0.65721 0.87922 0.59387 0.0
H1188 H 0.65756 0.89371 0.61483 0.0
H1189 H 0.6966 0.898 0.59571 0.0
H1190 H 0.69708 0.91265 0.61663 0.0
H1191 H 0.68896 0.87163 0.56232 0.0
H1192 H 0.66065 0.8627 0.60053 0.0
H1193 H 0.68575 0.85149 0.56523 0.0
H1194 H 0.65795 0.84279 0.60461 0.0
H1195 H 0.68375 0.80104 0.56972 0.0
H1196 H 0.68417 0.79167 0.54193 0.0
H1197 H 0.64487 0.77452 0.53698 0.0
H1198 H 0.64453 0.78376 0.56515 0.0
H1199 H 0.64847 0.7771 0.60455 0.0
H1200 H 0.65431 0.76567 0.62401 0.0
H1201 H 0.69216 0.7945 0.62098 0.0
H1202 H 0.68629 0.80572 0.60144 0.0
H1203 H 0.68526 0.81838 0.5821 0.0
H1204 H 0.68876 0.83862 0.58245 0.0
H1205 H 0.65025 0.8239 0.5921 0.0
N1206 N 0.66327 0.79719 0.58695 0.0
H1207 H 0.64711 0.80364 0.59328 0.0
C1208 C 0.67279 0.88266 0.56172 0.0
C1209 C 0.6812 0.89156 0.55021 0.0
C1210 C 0.67723 0.89437 0.53454 0.0
C1211 C 0.6647 0.88838 0.53012 0.0
C1212 C 0.65624 0.87929 0.54154 0.0
C1213 C 0.66026 0.87637 0.55717 0.0
C1214 C 0.67693 0.88755 0.5932 0.0
C1215 C 0.66594 0.88631 0.59906 0.0
C1216 C 0.66615 0.89467 0.61097 0.0
C1217 C 0.67735 0.90442 0.61727 0.0
C1218 C 0.68829 0.9052 0.61218 0.0
C1219 C 0.68805 0.89685 0.60024 0.0
C1220 C 0.67518 0.86877 0.58125 0.0
C1221 C 0.68218 0.86535 0.57158 0.0
C1222 C 0.6804 0.85382 0.57344 0.0
C1223 C 0.67167 0.84541 0.58536 0.0
C1224 C 0.66466 0.84889 0.59514 0.0
C1225 C 0.66628 0.8604 0.59296 0.0
C1226 C 0.66405 0.79307 0.56954 0.0
C1227 C 0.67524 0.79543 0.56257 0.0
C1228 C 0.67548 0.79006 0.5466 0.0
C1229 C 0.66454 0.78225 0.53729 0.0
C1230 C 0.65343 0.78031 0.54398 0.0
C1231 C 0.65322 0.78566 0.55995 0.0
C1232 C 0.66685 0.79226 0.60144 0.0
C1233 C 0.65797 0.7811 0.60854 0.0
C1234 C 0.66134 0.77458 0.61966 0.0
C1235 C 0.67373 0.7791 0.62389 0.0
C1236 C 0.68256 0.79066 0.61773 0.0
C1237 C 0.67917 0.79717 0.6066 0.0
C1238 C 0.66592 0.80943 0.58812 0.0
C1239 C 0.67763 0.81946 0.5849 0.0
C1240 C 0.67956 0.83112 0.58472 0.0
C1241 C 0.66978 0.83304 0.58714 0.0
C1242 C 0.65809 0.82293 0.5905 0.0
C1243 C 0.65624 0.8113 0.59108 0.0
H1244 H 0.24282 0.86735 0.5705 0.0
N1245 N 0.22132 0.86125 0.58406 0.0
H1246 H 0.25228 0.87939 0.54377 0.0
H1247 H 0.21008 0.86812 0.55928 0.0
H1248 H 0.21933 0.87993 0.53249 0.0
H1249 H 0.21363 0.8772 0.58851 0.0
H1250 H 0.2228 0.89435 0.60877 0.0
H1251 H 0.23582 0.8644 0.61174 0.0
H1252 H 0.24471 0.88129 0.63278 0.0
H1253 H 0.21931 0.83998 0.5874 0.0
H1254 H 0.1978 0.85668 0.58233 0.0
H1255 H 0.20068 0.82006 0.58704 0.0
H1256 H 0.17915 0.83685 0.58047 0.0
H1257 H 0.13741 0.75789 0.56137 0.0
H1258 H 0.12684 0.75046 0.53274 0.0
H1259 H 0.13207 0.78563 0.52171 0.0
H1260 H 0.14219 0.79279 0.55066 0.0
H1261 H 0.12692 0.78463 0.57607 0.0
H1262 H 0.10822 0.77457 0.59347 0.0
H1263 H 0.12156 0.75448 0.62177 0.0
H1264 H 0.14033 0.76454 0.60405 0.0
H1265 H 0.16742 0.78633 0.5658 0.0
H1266 H 0.18573 0.80635 0.56791 0.0
H1267 H 0.16501 0.81923 0.59491 0.0
N1268 N 0.14496 0.7792 0.57631 0.0
H1269 H 0.14665 0.79949 0.59166 0.0
C1270 C 0.22576 0.86676 0.56691 0.0
C1271 C 0.23758 0.86988 0.56204 0.0
C1272 C 0.24295 0.87675 0.54677 0.0
C1273 C 0.23658 0.88068 0.53604 0.0
C1274 C 0.22455 0.87719 0.54061 0.0
C1275 C 0.21918 0.87031 0.55589 0.0
C1276 C 0.22417 0.86959 0.5985 0.0
C1277 C 0.22018 0.87785 0.59838 0.0
C1278 C 0.22544 0.88767 0.61009 0.0
C1279 C 0.23469 0.88935 0.62224 0.0
C1280 C 0.23785 0.88046 0.62331 0.0
C1281 C 0.23267 0.87072 0.61147 0.0
C1282 C 0.21 0.84978 0.58458 0.0
C1283 C 0.21053 0.8393 0.58605 0.0
C1284 C 0.19985 0.82792 0.58563 0.0
C1285 C 0.18831 0.82673 0.58337 0.0
C1286 C 0.1878 0.83733 0.58233 0.0
C1287 C 0.19852 0.84874 0.58312 0.0
C1288 C 0.14062 0.77585 0.55816 0.0
C1289 C 0.13647 0.76403 0.55258 0.0
C1290 C 0.13046 0.75982 0.53618 0.0
C1291 C 0.12851 0.76741 0.52493 0.0
C1292 C 0.13321 0.77947 0.53017 0.0
C1293 C 0.13914 0.78363 0.54665 0.0
C1294 C 0.13503 0.77526 0.58868 0.0
C1295 C 0.12595 0.77822 0.58619 0.0
C1296 C 0.11524 0.77243 0.5961 0.0
C1297 C 0.11339 0.76363 0.60878 0.0
C1298 C 0.12278 0.76125 0.6121 0.0
C1299 C 0.13348 0.76699 0.60205 0.0
C1300 C 0.15559 0.79122 0.57856 0.0
C1301 C 0.16684 0.7935 0.57215 0.0
C1302 C 0.17735 0.80497 0.57354 0.0
C1303 C 0.17698 0.8145 0.58177 0.0
C1304 C 0.16569 0.81222 0.58827 0.0
C1305 C 0.1551 0.80077 0.58655 0.0
H1306 H 0.19769 0.30087 0.55598 0.0
N1307 N 0.19779 0.31722 0.5772 0.0
H1308 H 0.20995 0.30446 0.52934 0.0
H1309 H 0.21293 0.33915 0.56176 0.0
H1310 H 0.22513 0.34287 0.53498 0.0
H1311 H 0.21984 0.33524 0.59048 0.0
H1312 H 0.23316 0.33242 0.61083 0.0
H1313 H 0.19126 0.29812 0.59781 0.0
H1314 H 0.20437 0.29529 0.61884 0.0
H1315 H 0.17787 0.31135 0.55825 0.0
H1316 H 0.2013 0.33577 0.59948 0.0
H1317 H 0.16553 0.3206 0.55854 0.0
H1318 H 0.18846 0.34449 0.60087 0.0
H1319 H 0.12436 0.33659 0.56501 0.0
H1320 H 0.11444 0.33661 0.53718 0.0
H1321 H 0.1451 0.3721 0.52498 0.0
H1322 H 0.15506 0.37202 0.55317 0.0
H1323 H 0.14337 0.37212 0.5925 0.0
H1324 H 0.12715 0.36933 0.61255 0.0
H1325 H 0.11488 0.33148 0.61721 0.0
H1326 H 0.1308 0.33422 0.59719 0.0
H1327 H 0.13867 0.33127 0.5716 0.0
H1328 H 0.15103 0.32218 0.57336 0.0
H1329 H 0.18272 0.35689 0.5871 0.0
N1330 N 0.14621 0.35504 0.5783 0.0
H1331 H 0.16984 0.36572 0.58677 0.0
C1332 C 0.20438 0.31969 0.56077 0.0
C1333 C 0.20357 0.31003 0.5513 0.0
C1334 C 0.21055 0.31212 0.53609 0.0
C1335 C 0.21853 0.32396 0.53006 0.0
C1336 C 0.21919 0.33365 0.53942 0.0
C1337 C 0.21217 0.33155 0.55464 0.0
C1338 C 0.20454 0.31682 0.59249 0.0
C1339 C 0.21628 0.32658 0.59693 0.0
C1340 C 0.2239 0.32495 0.60867 0.0
C1341 C 0.21993 0.31355 0.61627 0.0
C1342 C 0.20782 0.30411 0.61293 0.0
C1343 C 0.20025 0.30574 0.60111 0.0
C1344 C 0.19048 0.32272 0.57883 0.0
C1345 C 0.18022 0.31858 0.5676 0.0
C1346 C 0.17309 0.32385 0.56794 0.0
C1347 C 0.17582 0.33327 0.57989 0.0
C1348 C 0.1861 0.33738 0.5913 0.0
C1349 C 0.19343 0.33227 0.59065 0.0
C1350 C 0.14058 0.35431 0.56115 0.0
C1351 C 0.12912 0.34429 0.55627 0.0
C1352 C 0.12342 0.34432 0.54029 0.0
C1353 C 0.12898 0.35436 0.52884 0.0
C1354 C 0.14053 0.36428 0.53359 0.0
C1355 C 0.14627 0.36421 0.54957 0.0
C1356 C 0.13839 0.35346 0.59312 0.0
C1357 C 0.13738 0.36329 0.59826 0.0
C1358 C 0.12811 0.36168 0.60971 0.0
C1359 C 0.11961 0.35014 0.61623 0.0
C1360 C 0.12114 0.34045 0.61211 0.0
C1361 C 0.13039 0.34206 0.60067 0.0
C1362 C 0.15326 0.34923 0.57937 0.0
C1363 C 0.14819 0.33693 0.57535 0.0
C1364 C 0.15541 0.33174 0.57608 0.0
C1365 C 0.16801 0.33875 0.58023 0.0
C1366 C 0.17306 0.35108 0.58417 0.0
C1367 C 0.16573 0.3562 0.58386 0.0
H1368 H 0.97557 0.39017 0.06525 0.0
H1369 H 0.98111 0.40334 0.09116 0.0
H1370 H 0.01598 0.40573 0.09486 0.0
H1371 H 0.0105 0.39243 0.0689 0.0
H1372 H 0.00385 0.40196 0.12809 0.0
H1373 H 0.0064 0.43999 0.08981 0.0
H1374 H 0.99228 0.42584 0.08685 0.0
H1375 H 0.00633 0.42749 0.07924 0.0
C1376 C 0.98441 0.39343 0.07157 0.0
C1377 C 0.99263 0.3903 0.06489 0.0
C1378 C 0.98758 0.40102 0.08634 0.0
C1379 C 0.99904 0.40568 0.0947 0.0
C1380 C 0.00712 0.40229 0.08848 0.0
H1381 H 0.03194 0.46581 0.16943 0.0
H1382 H 0.02755 0.45228 0.14412 0.0
C1383 C 0.00397 0.39469 0.07366 0.0
C1384 C 0.00256 0.41416 0.10986 0.0
H1385 H 0.00713 0.44166 0.12137 0.0
C1386 C 0.00463 0.41067 0.12664 0.0
C1387 C 0.00372 0.42557 0.10784 0.0
C1388 C 0.00218 0.43003 0.08994 0.0
C1389 C 0.00753 0.41818 0.14158 0.0
C1390 C 0.00822 0.42939 0.13969 0.0
C1391 C 0.00646 0.43301 0.12281 0.0
C1392 C 0.01081 0.43754 0.15505 0.0
C1393 C 0.00996 0.41412 0.15923 0.0
C1394 C 0.00274 0.43381 0.16942 0.0
C1395 C 0.00524 0.4415 0.18392 0.0
C1396 C 0.01584 0.4531 0.18428 0.0
C1397 C 0.02379 0.45688 0.16968 0.0
C1398 C 0.02127 0.44919 0.15518 0.0
H1399 H 0.01217 0.40695 0.15752 0.0
H1400 H 0.01763 0.42181 0.16654 0.0
H1401 H 0.00165 0.41038 0.16754 0.0
H1402 H 0.9945 0.42494 0.16943 0.0
H1403 H 0.99899 0.43826 0.195 0.0
H1404 H 0.63116 0.59527 0.05959 0.0
H1405 H 0.61962 0.58478 0.08606 0.0
H1406 H 0.61155 0.61276 0.09488 0.0
H1407 H 0.62329 0.6235 0.06837 0.0
H1408 H 0.6182 0.60537 0.12603 0.0
H1409 H 0.58225 0.56603 0.0882 0.0
H1410 H 0.5974 0.56931 0.08345 0.0
H1411 H 0.59308 0.58009 0.07761 0.0
C1412 C 0.62697 0.59925 0.06714 0.0
C1413 C 0.62806 0.61018 0.06175 0.0
C1414 C 0.62032 0.59319 0.08223 0.0
C1415 C 0.6145 0.59785 0.09218 0.0
C1416 C 0.61589 0.60896 0.08726 0.0
H1417 H 0.55937 0.55297 0.17076 0.0
H1418 H 0.57001 0.56609 0.14542 0.0
C1419 C 0.62261 0.61509 0.07213 0.0
C1420 C 0.60697 0.591 0.10766 0.0
H1421 H 0.58295 0.56341 0.11965 0.0
C1422 C 0.61042 0.59624 0.12465 0.0
C1423 C 0.59668 0.57917 0.10578 0.0
C1424 C 0.59204 0.57336 0.08775 0.0
C1425 C 0.60415 0.58976 0.13992 0.0
C1426 C 0.59434 0.57766 0.13812 0.0
C1427 C 0.59058 0.57262 0.12105 0.0
C1428 C 0.58797 0.56998 0.15375 0.0
C1429 C 0.60808 0.59595 0.1578 0.0
C1430 C 0.59451 0.56765 0.1667 0.0
C1431 C 0.58848 0.56024 0.18126 0.0
C1432 C 0.57575 0.55489 0.18309 0.0
C1433 C 0.5692 0.55708 0.16991 0.0
C1434 C 0.57525 0.56453 0.15537 0.0
H1435 H 0.61295 0.60593 0.1564 0.0
H1436 H 0.6001 0.59297 0.16662 0.0
H1437 H 0.61446 0.59367 0.16435 0.0
H1438 H 0.60428 0.57152 0.16549 0.0
H1439 H 0.59384 0.55886 0.19124 0.0
H1440 H 0.38688 0.986 0.06667 0.0
H1441 H 0.40216 0.99323 0.09048 0.0
H1442 H 0.40851 0.02914 0.08441 0.0
H1443 H 0.39307 0.02196 0.06031 0.0
H1444 H 0.42777 0.01294 0.08623 0.0
H1445 H 0.4028 0.02096 0.13943 0.0
H1446 H 0.39484 0.011 0.12086 0.0
H1447 H 0.40347 0.02703 0.11751 0.0
C1448 C 0.39142 0.99544 0.0704 0.0
C1449 C 0.38874 0.00341 0.06151 0.0
C1450 C 0.40018 0.99955 0.08402 0.0
C1451 C 0.40644 0.01169 0.0892 0.0
C1452 C 0.40369 0.0197 0.08066 0.0
H1453 H 0.45853 0.03855 0.17966 0.0
H1454 H 0.44675 0.03849 0.15354 0.0
C1455 C 0.39489 0.01558 0.0669 0.0
C1456 C 0.41607 0.01581 0.10317 0.0
H1457 H 0.42161 0.02293 0.14735 0.0
C1458 C 0.42653 0.0153 0.09954 0.0
C1459 C 0.41444 0.01896 0.12045 0.0
C1460 C 0.40328 0.0195 0.12497 0.0
C1461 C 0.43518 0.01741 0.11292 0.0
C1462 C 0.4332 0.01985 0.13046 0.0
C1463 C 0.42307 0.02099 0.1339 0.0
C1464 C 0.44093 0.02024 0.14566 0.0
C1465 C 0.44629 0.01681 0.1082 0.0
C1466 C 0.44154 0.01 0.14989 0.0
C1467 C 0.44827 0.01001 0.16471 0.0
C1468 C 0.45449 0.02026 0.17569 0.0
C1469 C 0.45398 0.03057 0.17132 0.0
C1470 C 0.44719 0.03053 0.15649 0.0
H1471 H 0.44847 0.01871 0.09383 0.0
H1472 H 0.45442 0.02332 0.11621 0.0
H1473 H 0.44441 0.00757 0.11095 0.0
H1474 H 0.43659 0.00187 0.14191 0.0
H1475 H 0.44854 0.00196 0.16763 0.0
H1476 H 0.38698 0.01268 0.96527 0.0
H1477 H 0.399 0.01542 0.93854 0.0
H1478 H 0.39043 0.97864 0.94291 0.0
H1479 H 0.37858 0.97585 0.96954 0.0
H1480 H 0.41568 0.99597 0.93905 0.0
H1481 H 0.38692 0.00144 0.8879 0.0
H1482 H 0.39139 0.01103 0.90721 0.0
H1483 H 0.38116 0.99505 0.90959 0.0
C1484 C 0.38755 0.00514 0.96041 0.0
C1485 C 0.38183 0.99405 0.96957 0.0
C1486 C 0.39439 0.00672 0.94512 0.0
C1487 C 0.39554 0.9972 0.93872 0.0
C1488 C 0.38966 0.98609 0.94765 0.0
H1489 H 0.42497 0.97542 0.85704 0.0
H1490 H 0.41645 0.97863 0.8839 0.0
C1491 C 0.38287 0.98452 0.96288 0.0
C1492 C 0.40321 0.99878 0.92314 0.0
H1493 H 0.40452 0.00191 0.87789 0.0
C1494 C 0.41331 0.99738 0.92569 0.0
C1495 C 0.40016 1.00073 0.90578 0.0
C1496 C 0.38928 0.00208 0.90231 0.0
C1497 C 0.42021 0.9975 0.91126 0.0
C1498 C 0.41681 0.99888 0.89381 0.0
C1499 C 0.40707 0.00083 0.89131 0.0
C1500 C 0.42258 0.99729 0.87794 0.0
C1501 C 0.43099 0.99599 0.91477 0.0
C1502 C 0.42875 0.00669 0.86562 0.0
C1503 C 0.43361 0.00486 0.8502 0.0
C1504 C 0.43221 0.99355 0.84677 0.0
C1505 C 0.42612 0.98421 0.85926 0.0
C1506 C 0.42135 0.98606 0.87468 0.0
H1507 H 0.43454 0.9986 0.92863 0.0
H1508 H 0.42806 0.98636 0.91294 0.0
H1509 H 0.43853 0.00149 0.90538 0.0
H1510 H 0.4297 0.01539 0.86786 0.0
H1511 H 0.43813 0.01217 0.84071 0.0
H1512 H 0.97788 0.38622 0.96397 0.0
H1513 H 0.98395 0.39919 0.93773 0.0
H1514 H 0.02179 0.41114 0.94833 0.0
H1515 H 0.0158 0.39801 0.97475 0.0
H1516 H 0.01046 0.42941 0.94222 0.0
H1517 H 0.00362 0.39589 0.8903 0.0
H1518 H 0.99292 0.39094 0.90838 0.0
H1519 H 0.00847 0.3952 0.9128 0.0
C1520 C 0.9875 0.39153 0.96073 0.0
C1521 C 0.99636 0.3911 0.97151 0.0
C1522 C 0.99094 0.39892 0.94571 0.0
C1523 C 0.00329 0.40608 0.94117 0.0
C1524 C 0.0122 0.40562 0.95167 0.0
H1525 H 0.02432 0.44845 0.84222 0.0
H1526 H 0.02554 0.43814 0.86901 0.0
C1527 C 0.00876 0.39811 0.9667 0.0
C1528 C 0.0067 0.41431 0.92575 0.0
H1529 H 0.00603 0.41438 0.8803 0.0
C1530 C 0.00971 0.42623 0.92867 0.0
C1531 C 0.0057 0.41008 0.90817 0.0
C1532 C 0.00256 0.39734 0.90456 0.0
C1533 C 0.01127 0.43391 0.91434 0.0
C1534 C 0.00965 0.42948 0.89673 0.0
C1535 C 0.00723 0.41774 0.89383 0.0
C1536 C 0.00954 0.43655 0.88121 0.0
C1537 C 0.01437 0.44661 0.91812 0.0
C1538 C 1.00016 0.43906 0.87926 0.0
C1539 C 0.9994 0.44488 0.86398 0.0
C1540 C 0.00806 0.44833 0.8504 0.0
C1541 C 0.01761 0.44603 0.85257 0.0
C1542 C 0.01829 0.4401 0.86779 0.0
H1543 H 0.01837 0.4496 0.93169 0.0
H1544 H 0.02093 0.45304 0.9082 0.0
H1545 H 0.0059 0.44697 0.91722 0.0
H1546 H 0.99322 0.43623 0.88936 0.0
H1547 H 0.99197 0.44657 0.86271 0.0
H1548 H 0.62357 0.60388 0.96081 0.0
H1549 H 0.60881 0.59815 0.93644 0.0
H1550 H 0.60176 0.62595 0.9518 0.0
H1551 H 0.61659 0.63178 0.9765 0.0
H1552 H 0.58029 0.60263 0.94571 0.0
H1553 H 0.61276 0.61676 0.8898 0.0
H1554 H 0.61464 0.60751 0.9059 0.0
H1555 H 0.61761 0.62216 0.9123 0.0
C1556 C 0.61898 0.60887 0.959 0.0
C1557 C 0.62129 0.61832 0.97062 0.0
C1558 C 0.61057 0.6056 0.94498 0.0
C1559 C 0.60432 0.61172 0.94219 0.0
C1560 C 0.60657 0.62117 0.95369 0.0
H1561 H 0.56049 0.59585 0.84473 0.0
H1562 H 0.57416 0.60674 0.86976 0.0
C1563 C 0.61506 0.6245 0.96775 0.0
C1564 C 0.59513 0.60782 0.92758 0.0
H1565 H 0.59166 0.6028 0.88275 0.0
C1566 C 0.58276 0.60282 0.9319 0.0
C1567 C 0.5984 0.60822 0.90957 0.0
C1568 C 0.61159 0.61406 0.90405 0.0
C1569 C 0.57352 0.59766 0.91874 0.0
C1570 C 0.57675 0.59737 0.90088 0.0
C1571 C 0.58917 0.60291 0.89648 0.0
C1572 C 0.56746 0.59098 0.8866 0.0
C1573 C 0.5604 0.5925 0.9241 0.0
C1574 C 0.55906 0.5785 0.8878 0.0
C1575 C 0.55114 0.57225 0.87355 0.0
C1576 C 0.55153 0.57834 0.85775 0.0
C1577 C 0.55978 0.5909 0.85678 0.0
C1578 C 0.56767 0.59713 0.87104 0.0
H1579 H 0.55978 0.59665 0.93663 0.0
H1580 H 0.5551 0.59386 0.91349 0.0
H1581 H 0.55608 0.58265 0.92643 0.0
H1582 H 0.5589 0.57352 0.89953 0.0
H1583 H 0.54485 0.56261 0.87479 0.0
H1584 H 0.02511 0.61994 0.95506 0.0
H1585 H 0.01824 0.60661 0.92924 0.0
H1586 H 0.98079 0.59551 0.94017 0.0
H1587 H 0.98764 0.60912 0.96592 0.0
H1588 H 0.00346 0.5823 0.92984 0.0
H1589 H 0.98282 0.6024 0.88706 0.0
H1590 H 0.99255 0.61023 0.906 0.0
H1591 H 0.97682 0.59861 0.90919 0.0
C1592 C 0.01541 0.61479 0.95188 0.0
C1593 C 0.00692 0.61559 0.96257 0.0
C1594 C 0.0115 0.60715 0.93711 0.0
C1595 C 0.99901 0.6001 0.9327 0.0
C1596 C 0.99049 0.60103 0.94312 0.0
H1597 H 0.9728 0.5376 0.86176 0.0
H1598 H 0.97579 0.55032 0.88756 0.0
C1599 C 0.99442 0.60878 0.95787 0.0
C1600 C 0.99502 0.59135 0.91778 0.0
H1601 H 0.98057 0.58403 0.87718 0.0
C1602 C 0.99842 0.58265 0.91834 0.0
C1603 C 0.98851 0.59189 0.90275 0.0
C1604 C 0.98504 0.60134 0.90106 0.0
C1605 C 0.99571 0.57461 0.90418 0.0
C1606 C 0.9891 0.57505 0.88921 0.0
C1607 C 0.98554 0.58364 0.88874 0.0
C1608 C 0.98651 0.56722 0.87343 0.0
C1609 C 1.00035 0.56602 0.90512 0.0
C1610 C 0.99116 0.57247 0.85679 0.0
C1611 C 0.9893 0.56523 0.84197 0.0
C1612 C 0.98277 0.55256 0.84347 0.0
C1613 C 0.97786 0.54731 0.8601 0.0
C1614 C 0.97966 0.55458 0.87491 0.0
H1615 H 0.00774 0.56886 0.9153 0.0
H1616 H 0.99271 0.5569 0.90879 0.0
H1617 H 0.00391 0.56536 0.89204 0.0
H1618 H 0.9964 0.5822 0.85531 0.0
H1619 H 0.99295 0.5696 0.8293 0.0
H1620 H 0.37999 0.37849 0.96257 0.0
H1621 H 0.3933 0.3881 0.93692 0.0
H1622 H 0.39167 0.42012 0.94511 0.0
H1623 H 0.37847 0.4107 0.97072 0.0
H1624 H 0.38969 0.39848 0.90503 0.0
H1625 H 0.42874 0.4322 0.94653 0.0
H1626 H 0.41588 0.41874 0.95576 0.0
H1627 H 0.41459 0.43157 0.95037 0.0
C1628 C 0.38238 0.38755 0.95884 0.0
C1629 C 0.37824 0.39386 0.96881 0.0
C1630 C 0.38999 0.39301 0.94419 0.0
C1631 C 0.39363 0.40489 0.93936 0.0
C1632 C 0.38915 0.41103 0.94885 0.0
H1633 H 0.42647 0.44567 0.84375 0.0
H1634 H 0.41308 0.43417 0.86841 0.0
C1635 C 0.38155 0.40559 0.96344 0.0
C1636 C 0.40227 0.411 0.92459 0.0
H1637 H 0.43041 0.4354 0.9152 0.0
C1638 C 0.39862 0.40651 0.90723 0.0
C1639 C 0.41399 0.42136 0.92758 0.0
C1640 C 0.41862 0.42622 0.94608 0.0
C1641 C 0.40625 0.41236 0.89265 0.0
C1642 C 0.41774 0.42303 0.89556 0.0
C1643 C 0.42154 0.42729 0.913 0.0
C1644 C 0.42589 0.43004 0.88068 0.0
C1645 C 0.40198 0.40703 0.87429 0.0
C1646 C 0.43768 0.43182 0.8797 0.0
C1647 C 0.44541 0.43851 0.86573 0.0
C1648 C 0.44154 0.44362 0.85257 0.0
C1649 C 0.42979 0.44196 0.85377 0.0
C1650 C 0.42206 0.43526 0.86771 0.0
H1651 H 0.39467 0.39734 0.87488 0.0
H1652 H 0.39819 0.41195 0.86719 0.0
H1653 H 0.40969 0.40794 0.86639 0.0
H1654 H 0.44085 0.42797 0.88969 0.0
H1655 H 0.45446 0.43974 0.8653 0.0
H1656 H 0.61871 0.01542 0.95051 0.0
H1657 H 0.60368 0.0086 0.92625 0.0
H1658 H 0.58509 0.97248 0.94782 0.0
H1659 H 0.60053 0.97919 0.97178 0.0
H1660 H 0.58513 0.97161 0.91275 0.0
H1661 H 0.57017 0.00301 0.93159 0.0
H1662 H 0.58622 0.01111 0.92701 0.0
H1663 H 0.5804 1.00067 0.94543 0.0
C1664 C 0.61147 0.006 0.95002 0.0
C1665 C 0.61072 0.99786 0.96314 0.0
C1666 C 0.60281 0.00213 0.93623 0.0
C1667 C 0.59299 0.99012 0.93554 0.0
C1668 C 0.5925 0.98183 0.94819 0.0
H1669 H 0.53095 0.97511 0.86622 0.0
H1670 H 0.54345 0.97689 0.89245 0.0
C1671 C 0.60133 0.98566 0.96185 0.0
C1672 C 0.58325 0.98632 0.92166 0.0
H1673 H 0.56426 0.99443 0.90231 0.0
C1674 C 0.58046 0.97651 0.91058 0.0
C1675 C 0.57687 0.99247 0.91912 0.0
C1676 C 0.57847 0.0023 0.93157 0.0
C1677 C 0.57186 0.97303 0.89657 0.0
C1678 C 0.56624 0.97982 0.89313 0.0
C1679 C 0.56867 0.98931 0.90469 0.0
C1680 C 0.55813 0.97759 0.87736 0.0
C1681 C 0.56884 0.96201 0.88578 0.0
C1682 C 0.56216 0.97736 0.86013 0.0
C1683 C 0.55492 0.9761 0.84522 0.0
C1684 C 0.54365 0.97537 0.8472 0.0
C1685 C 0.53961 0.97565 0.86438 0.0
C1686 C 0.54675 0.97666 0.87933 0.0
H1687 H 0.57015 0.95553 0.89383 0.0
H1688 H 0.55926 0.95729 0.88068 0.0
H1689 H 0.5751 0.9648 0.87429 0.0
H1690 H 0.57107 0.97851 0.85813 0.0
H1691 H 0.55833 0.97613 0.83209 0.0
H1692 H 0.61087 0.98725 0.05855 0.0
H1693 H 0.59903 0.98378 0.08567 0.0
H1694 H 0.60777 0.02069 0.08442 0.0
H1695 H 0.61957 0.02426 0.05733 0.0
H1696 H 0.61055 0.01094 0.11943 0.0
H1697 H 0.56532 0.98301 0.08541 0.0
H1698 H 0.57675 0.97916 0.08144 0.0
H1699 H 0.57907 0.99327 0.07344 0.0
C1700 C 0.61035 0.99465 0.0641 0.0
C1701 C 0.61612 0.00602 0.05571 0.0
C1702 C 0.60354 0.99264 0.07954 0.0
C1703 C 0.60246 0.00195 0.08688 0.0
C1704 C 0.60848 0.01338 0.07888 0.0
H1705 H 0.5531 0.00215 0.16433 0.0
H1706 H 0.56584 0.00523 0.13835 0.0
C1707 C 0.6152 0.01539 0.06338 0.0
C1708 C 0.59486 0.99977 0.10273 0.0
H1709 H 0.56521 0.98558 0.11649 0.0
C1710 C 0.60065 0.00536 0.11885 0.0
C1711 C 0.58194 0.9926 0.10178 0.0
C1712 C 0.57533 0.9867 0.0846 0.0
C1713 C 0.59382 0.00387 0.13416 0.0
C1714 C 0.58091 0.99661 0.13325 0.0
C1715 C 0.57512 0.9911 0.1171 0.0
C1716 C 0.57325 0.99474 0.14892 0.0
C1717 C 0.6004 0.0102 0.15115 0.0
C1718 C 0.57317 0.98774 0.16331 0.0
C1719 C 0.56589 0.98594 0.17809 0.0
C1720 C 0.5586 0.99114 0.17874 0.0
C1721 C 0.5587 0.99813 0.16426 0.0
C1722 C 0.56592 0.99985 0.14941 0.0
H1723 H 0.61019 0.01707 0.14888 0.0
H1724 H 0.59592 0.01468 0.15729 0.0
H1725 H 0.59993 0.00345 0.1608 0.0
H1726 H 0.57871 0.98366 0.16308 0.0
H1727 H 0.56609 0.98061 0.18912 0.0
H1728 H 0.99423 0.61649 0.06466 0.0
H1729 H 0.99084 0.60551 0.09284 0.0
H1730 H 0.01942 0.59863 0.07986 0.0
H1731 H 0.02306 0.60976 0.05209 0.0
H1732 H 0.98452 0.58218 0.10063 0.0
H1733 H 0.03054 0.61446 0.12826 0.0
H1734 H 0.02445 0.61775 0.10866 0.0
H1735 H 0.03127 0.60864 0.10703 0.0
C1736 C 0.99978 0.61262 0.06783 0.0
C1737 C 0.00903 0.61414 0.05624 0.0
C1738 C 0.99782 0.60635 0.08391 0.0
C1739 C 0.00507 0.6015 0.08862 0.0
C1740 C 0.01396 0.6026 0.07674 0.0
H1741 H 0.99284 0.54739 0.16775 0.0
H1742 H 0.99323 0.55827 0.14068 0.0
C1743 C 0.01599 0.60893 0.06081 0.0
C1744 C 0.00349 0.59533 0.10598 0.0
H1745 H 0.01932 0.59541 0.143 0.0
C1746 C 0.99208 0.58512 0.11 0.0
C1747 C 0.01331 0.59931 0.11834 0.0
C1748 C 0.02554 0.61071 0.11546 0.0
C1749 C 0.99034 0.57855 0.12579 0.0
C1750 C 1.00037 0.58213 0.13764 0.0
C1751 C 0.01167 0.59256 0.13383 0.0
C1752 C 0.99947 0.57528 0.15409 0.0
C1753 C 0.97775 0.56794 0.12969 0.0
C1754 C 0.00312 0.58127 0.17057 0.0
C1755 C 0.00314 0.57514 0.18593 0.0
C1756 C 0.99944 0.56287 0.18516 0.0
C1757 C 0.99562 0.55682 0.16873 0.0
C1758 C 0.99576 0.563 0.15329 0.0
H1759 H 0.97052 0.56875 0.12258 0.0
H1760 H 0.97713 0.55953 0.12505 0.0
H1761 H 0.97586 0.56709 0.14419 0.0
H1762 H 0.00605 0.59073 0.17152 0.0
H1763 H 0.00599 0.57999 0.19846 0.0
H1764 H 0.38895 0.37497 0.05376 0.0
H1765 H 0.40476 0.38226 0.07726 0.0
H1766 H 0.39539 0.4083 0.09345 0.0
H1767 H 0.37985 0.40128 0.06998 0.0
H1768 H 0.4201 0.41841 0.08798 0.0
H1769 H 0.40197 0.37781 0.13136 0.0
H1770 H 0.40363 0.37552 0.10824 0.0
H1771 H 0.39265 0.37943 0.11463 0.0
C1772 C 0.39015 0.38213 0.0625 0.0
C1773 C 0.38318 0.38757 0.05994 0.0
C1774 C 0.39916 0.38626 0.07595 0.0
C1775 C 0.40121 0.39579 0.08716 0.0
C1776 C 0.39399 0.40096 0.08492 0.0
H1777 H 0.44325 0.43801 0.17594 0.0
H1778 H 0.42988 0.42863 0.15009 0.0
C1779 C 0.38509 0.39691 0.07149 0.0
C1780 C 0.41125 0.40095 0.10063 0.0
H1781 H 0.4209 0.39489 0.13985 0.0
C1782 C 0.42031 0.41324 0.09926 0.0
C1783 C 0.41156 0.39417 0.11527 0.0
C1784 C 0.4019 0.38102 0.11763 0.0
C1785 C 0.42946 0.41902 0.11236 0.0
C1786 C 0.42952 0.41235 0.12729 0.0
C1787 C 0.42079 0.39996 0.12836 0.0
C1788 C 0.43804 0.41831 0.1425 0.0
C1789 C 0.43894 0.43225 0.11027 0.0
C1790 C 0.44703 0.41557 0.14683 0.0
C1791 C 0.45484 0.42106 0.16151 0.0
C1792 C 0.45368 0.42928 0.17225 0.0
C1793 C 0.44463 0.43197 0.16778 0.0
C1794 C 0.43691 0.42655 0.15306 0.0
H1795 H 0.4395 0.43529 0.09625 0.0
H1796 H 0.43642 0.43763 0.11867 0.0
H1797 H 0.44811 0.43419 0.11469 0.0
H1798 H 0.44802 0.40922 0.13882 0.0
H1799 H 0.46177 0.41886 0.16444 0.0
H1800 H 0.6729 0.72378 0.40168 0.0
H1801 H 0.67724 0.73611 0.42857 0.0
H1802 H 0.64121 0.73114 0.42502 0.0
H1803 H 0.63684 0.71901 0.39825 0.0
H1804 H 0.66007 0.75527 0.42942 0.0
H1805 H 0.66338 0.72501 0.47916 0.0
H1806 H 0.67286 0.72876 0.45984 0.0
H1807 H 0.65651 0.71979 0.45737 0.0
C1808 C 0.66587 0.72523 0.40674 0.0
C1809 C 0.65453 0.72041 0.39779 0.0
C1810 C 0.66836 0.73224 0.42212 0.0
C1811 C 0.65951 0.73447 0.42883 0.0
C1812 C 0.64816 0.72954 0.42005 0.0
H1813 H 0.64845 0.7587 0.52829 0.0
H1814 H 0.64848 0.74792 0.50177 0.0
C1815 C 0.64568 0.72258 0.40474 0.0
C1816 C 0.66205 0.74223 0.44465 0.0
H1817 H 0.66647 0.74348 0.48973 0.0
C1818 C 0.66158 0.75276 0.4426 0.0
C1819 C 0.66392 0.73887 0.46181 0.0
C1820 C 0.66412 0.72745 0.46482 0.0
C1821 C 0.66266 0.75989 0.4573 0.0
C1822 C 0.66445 0.75649 0.47449 0.0
C1823 C 0.66516 0.74609 0.47651 0.0
C1824 C 0.66475 0.76314 0.49066 0.0
C1825 C 0.66138 0.77072 0.4544 0.0
C1826 C 0.67395 0.77528 0.49326 0.0
C1827 C 0.67389 0.78153 0.50835 0.0
C1828 C 0.66465 0.77573 0.52113 0.0
C1829 C 0.65556 0.76352 0.51855 0.0
C1830 C 0.65563 0.7573 0.50349 0.0
H1831 H 0.65747 0.77061 0.44103 0.0
H1832 H 0.65544 0.77113 0.46468 0.0
H1833 H 0.67054 0.77908 0.45546 0.0
H1834 H 0.68118 0.77991 0.48363 0.0
H1835 H 0.681 0.79093 0.50989 0.0
H1836 H 0.29699 0.93011 0.39937 0.0
H1837 H 0.28654 0.92102 0.42712 0.0
H1838 H 0.27761 0.94865 0.43266 0.0
H1839 H 0.28807 0.95788 0.40459 0.0
H1840 H 0.29102 0.93173 0.46194 0.0
H1841 H 0.24411 0.91602 0.43553 0.0
H1842 H 0.25693 0.92052 0.42103 0.0
H1843 H 0.25559 0.93174 0.43287 0.0
C1844 C 0.29285 0.93432 0.40645 0.0
C1845 C 0.29331 0.9447 0.39967 0.0
C1846 C 0.2869 0.92911 0.42235 0.0
C1847 C 0.2812 0.93408 0.43181 0.0
C1848 C 0.28183 0.94459 0.42539 0.0
H1849 H 0.23562 0.90054 0.52592 0.0
H1850 H 0.2465 0.9145 0.50143 0.0
C1851 C 0.28786 0.94989 0.40943 0.0
C1852 C 0.2745 0.92799 0.44824 0.0
H1853 H 0.2457 0.91009 0.46461 0.0
C1854 C 0.28112 0.92711 0.46263 0.0
C1855 C 0.2616 0.92201 0.44908 0.0
C1856 C 0.25407 0.92251 0.43381 0.0
C1857 C 0.27515 0.92014 0.47767 0.0
C1858 C 0.26221 0.91369 0.47815 0.0
C1859 C 0.25561 0.91499 0.46412 0.0
C1860 C 0.25538 0.9051 0.49269 0.0
C1861 C 0.28275 0.91967 0.49285 0.0
C1862 C 0.25655 0.89503 0.49559 0.0
C1863 C 0.2503 0.887 0.50947 0.0
C1864 C 0.24269 0.88884 0.52066 0.0
C1865 C 0.2413 0.89878 0.51743 0.0
C1866 C 0.24757 0.90682 0.50353 0.0
H1867 H 0.29222 0.92765 0.49281 0.0
H1868 H 0.27855 0.91923 0.5059 0.0
H1869 H 0.28334 0.91147 0.49146 0.0
H1870 H 0.2623 0.89338 0.48709 0.0
H1871 H 0.25139 0.87932 0.51139 0.0
H1872 H 0.06089 0.35476 0.39637 0.0
H1873 H 0.07643 0.36212 0.42037 0.0
H1874 H 0.07279 0.32717 0.4233 0.0
H1875 H 0.05744 0.31978 0.39959 0.0
H1876 H 0.07427 0.35212 0.45614 0.0
H1877 H 0.10997 0.35118 0.41652 0.0
H1878 H 0.09708 0.35121 0.40641 0.0
H1879 H 0.09532 0.33743 0.41506 0.0
C1880 C 0.0634 0.34865 0.40215 0.0
C1881 C 0.05796 0.3367 0.39596 0.0
C1882 C 0.07227 0.35288 0.41583 0.0
C1883 C 0.0759 0.34524 0.42334 0.0
C1884 C 0.0703 0.33328 0.41742 0.0
H1885 H 0.11634 0.33609 0.50484 0.0
H1886 H 0.10442 0.33584 0.47892 0.0
C1887 C 0.06146 0.32905 0.4039 0.0
C1888 C 0.08535 0.34949 0.43762 0.0
H1889 H 0.11227 0.35123 0.44832 0.0
C1890 C 0.08271 0.35219 0.45441 0.0
C1891 C 0.09635 0.34958 0.43524 0.0
C1892 C 0.09993 0.34731 0.41728 0.0
C1893 C 0.09043 0.35423 0.46919 0.0
C1894 C 0.10111 0.35368 0.46698 0.0
C1895 C 0.10404 0.35158 0.44999 0.0
C1896 C 0.10879 0.35423 0.48235 0.0
C1897 C 0.08675 0.35626 0.48723 0.0
C1898 C 0.11538 0.36474 0.49267 0.0
C1899 C 0.12219 0.3649 0.50755 0.0
C1900 C 0.12251 0.35454 0.51234 0.0
C1901 C 0.11614 0.34415 0.50166 0.0
C1902 C 0.10938 0.34402 0.48679 0.0
H1903 H 0.07724 0.35442 0.48717 0.0
H1904 H 0.08751 0.3504 0.4974 0.0
H1905 H 0.09302 0.36579 0.49129 0.0
H1906 H 0.11518 0.37277 0.4893 0.0
H1907 H 0.12693 0.37301 0.51557 0.0
H1908 H 0.04611 0.30843 0.3043 0.0
H1909 H 0.05788 0.31151 0.27738 0.0
H1910 H 0.06515 0.34784 0.27296 0.0
H1911 H 0.05327 0.34484 0.29987 0.0
H1912 H 0.0588 0.3349 0.24012 0.0
H1913 H 0.09558 0.33273 0.27697 0.0
H1914 H 0.08045 0.31998 0.28044 0.0
H1915 H 0.08428 0.33468 0.28801 0.0
C1916 C 0.05013 0.31707 0.29757 0.0
C1917 C 0.04883 0.32643 0.30436 0.0
C1918 C 0.0569 0.31882 0.28222 0.0
C1919 C 0.06256 0.32997 0.2734 0.0
C1920 C 0.0609 0.33919 0.27968 0.0
H1921 H 0.1217 0.35604 0.19772 0.0
H1922 H 0.1087 0.35309 0.2232 0.0
C1923 C 0.05411 0.33745 0.29505 0.0
C1924 C 0.07046 0.33209 0.25788 0.0
H1925 H 0.09655 0.33308 0.24543 0.0
C1926 C 0.06707 0.33454 0.24125 0.0
C1927 C 0.08132 0.33176 0.25949 0.0
C1928 C 0.08572 0.32976 0.27721 0.0
C1929 C 0.07416 0.33645 0.22608 0.0
C1930 C 0.08481 0.33573 0.22759 0.0
C1931 C 0.08831 0.3335 0.24429 0.0
C1932 C 0.09259 0.33747 0.21206 0.0
C1933 C 0.0703 0.3394 0.20863 0.0
C1934 C 0.08789 0.32955 0.19749 0.0
C1935 C 0.09528 0.33124 0.18288 0.0
C1936 C 0.10753 0.34086 0.18261 0.0
C1937 C 0.11226 0.34865 0.1974 0.0
C1938 C 0.10486 0.34694 0.212 0.0
H1939 H 0.06383 0.34257 0.21062 0.0
H1940 H 0.07837 0.34645 0.20127 0.0
H1941 H 0.06563 0.33116 0.20022 0.0
H1942 H 0.07851 0.32204 0.19742 0.0
H1943 H 0.09133 0.32514 0.17165 0.0
H1944 H 0.67768 0.72382 0.30242 0.0
H1945 H 0.68497 0.73738 0.27651 0.0
H1946 H 0.65248 0.73956 0.2775 0.0
H1947 H 0.6451 0.72608 0.30315 0.0
H1948 H 0.67158 0.73377 0.24211 0.0
H1949 H 0.68219 0.77547 0.27809 0.0
H1950 H 0.68103 0.76251 0.28924 0.0
H1951 H 0.66742 0.76245 0.28274 0.0
C1952 C 0.6721 0.7272 0.29712 0.0
C1953 C 0.66082 0.72388 0.30489 0.0
C1954 C 0.67628 0.73493 0.28234 0.0
C1955 C 0.66932 0.73957 0.2753 0.0
C1956 C 0.65805 0.7362 0.28292 0.0
H1957 H 0.66428 0.76945 0.17625 0.0
H1958 H 0.66176 0.75753 0.20301 0.0
C1959 C 0.65383 0.72843 0.29754 0.0
C1960 C 0.67358 0.74774 0.25971 0.0
H1961 H 0.681 0.77597 0.24638 0.0
C1962 C 0.6738 0.74304 0.24304 0.0
C1963 C 0.67656 0.75985 0.26103 0.0
C1964 C 0.67691 0.76544 0.27875 0.0
C1965 C 0.67639 0.75002 0.2275 0.0
C1966 C 0.67873 0.76192 0.22872 0.0
C1967 C 0.67908 0.7668 0.24549 0.0
C1968 C 0.68031 0.76926 0.21265 0.0
C1969 C 0.67647 0.74456 0.20986 0.0
C1970 C 0.69148 0.77997 0.20948 0.0
C1971 C 0.69293 0.78684 0.19423 0.0
C1972 C 0.68318 0.78318 0.18202 0.0
C1973 C 0.67192 0.77257 0.18548 0.0
C1974 C 0.67051 0.76568 0.20064 0.0
H1975 H 0.67755 0.73664 0.21163 0.0
H1976 H 0.66766 0.74149 0.20276 0.0
H1977 H 0.68398 0.75132 0.20135 0.0
H1978 H 0.69911 0.78293 0.21871 0.0
H1979 H 0.70168 0.79502 0.192 0.0
H1980 H 0.28115 0.93042 0.3064 0.0
H1981 H 0.26798 0.92453 0.28008 0.0
H1982 H 0.2736 0.96029 0.27666 0.0
H1983 H 0.28672 0.96627 0.3035 0.0
H1984 H 0.24938 0.9422 0.2704 0.0
H1985 H 0.28048 0.93454 0.22977 0.0
H1986 H 0.27655 0.92613 0.25018 0.0
H1987 H 0.28515 0.94239 0.25083 0.0
C1988 C 0.27963 0.93708 0.3001 0.0
C1989 C 0.28512 0.94887 0.30694 0.0
C1990 C 0.27212 0.9337 0.28498 0.0
C1991 C 0.27005 0.94205 0.27616 0.0
C1992 C 0.27519 0.95374 0.2832 0.0
H1993 H 0.23846 0.92355 0.16899 0.0
H1994 H 0.25168 0.93416 0.19462 0.0
C1995 C 0.28267 0.95714 0.2985 0.0
C1996 C 0.26255 0.93843 0.25956 0.0
H1997 H 0.25986 0.92562 0.21892 0.0
C1998 C 0.25173 0.93871 0.25903 0.0
C1999 C 0.26574 0.9341 0.2446 0.0
C2000 C 0.27768 0.93439 0.24377 0.0
C2001 C 0.24373 0.93427 0.24422 0.0
C2002 C 0.24652 0.92916 0.22978 0.0
C2003 C 0.25761 0.92937 0.23005 0.0
C2004 C 0.23807 0.92337 0.21433 0.0
C2005 C 0.23244 0.93518 0.24418 0.0
C2006 C 0.22599 0.91377 0.21684 0.0
C2007 C 0.21838 0.90777 0.20217 0.0
C2008 C 0.2228 0.91109 0.18476 0.0
C2009 C 0.23486 0.92072 0.18228 0.0
C2010 C 0.2424 0.92682 0.19691 0.0
H2011 H 0.23371 0.94267 0.25287 0.0
H2012 H 0.23002 0.93665 0.23053 0.0
H2013 H 0.22464 0.92666 0.24946 0.0
H2014 H 0.22254 0.91069 0.23012 0.0
H2015 H 0.20916 0.9003 0.20445 0.0
H2016 H 0.66835 0.95207 0.29231 0.0
H2017 H 0.66736 0.9417 0.26456 0.0
H2018 H 0.69512 0.9352 0.28502 0.0
H2019 H 0.69638 0.94571 0.31245 0.0
H2020 H 0.70004 0.94416 0.25163 0.0
H2021 H 0.65199 0.90578 0.25526 0.0
H2022 H 0.6537 0.9204 0.25659 0.0
H2023 H 0.6599 0.9155 0.27404 0.0
C2024 C 0.67418 0.94836 0.29092 0.0
C2025 C 0.68245 0.94974 0.3046 0.0
C2026 C 0.67355 0.94237 0.2751 0.0
C2027 C 0.68106 0.93754 0.2728 0.0
C2028 C 0.68923 0.93884 0.2865 0.0
H2029 H 0.67658 0.88669 0.19419 0.0
H2030 H 0.67589 0.89691 0.2211 0.0
C2031 C 0.68993 0.94487 0.30219 0.0
C2032 C 0.68087 0.93154 0.25594 0.0
H2033 H 0.66266 0.90761 0.22871 0.0
C2034 C 0.69186 0.93617 0.24661 0.0
C2035 C 0.67023 0.92103 0.24953 0.0
C2036 C 0.6583 0.91529 0.25943 0.0
C2037 C 0.69253 0.9306 0.23108 0.0
C2038 C 0.68183 0.92025 0.22443 0.0
C2039 C 0.67083 0.9156 0.23376 0.0
C2040 C 0.68195 0.91402 0.20802 0.0
C2041 C 0.70478 0.93565 0.22224 0.0
C2042 C 0.68542 0.92019 0.1917 0.0
C2043 C 0.68589 0.9144 0.17637 0.0
C2044 C 0.68276 0.90228 0.177 0.0
C2045 C 0.67902 0.89602 0.19328 0.0
C2046 C 0.67863 0.90185 0.20865 0.0
H2047 H 0.71249 0.94138 0.23152 0.0
H2048 H 0.70599 0.92831 0.2172 0.0
H2049 H 0.70532 0.94135 0.21077 0.0
H2050 H 0.68773 0.92948 0.19081 0.0
H2051 H 0.68855 0.91938 0.16396 0.0
H2052 H 0.04357 0.74513 0.30411 0.0
H2053 H 0.05592 0.75446 0.27776 0.0
H2054 H 0.06087 0.72419 0.27184 0.0
H2055 H 0.04833 0.71466 0.2982 0.0
H2056 H 0.08016 0.7612 0.27419 0.0
H2057 H 0.05107 0.72867 0.22136 0.0
H2058 H 0.04529 0.72886 0.24309 0.0
H2059 H 0.05434 0.72209 0.24014 0.0
C2060 C 0.04715 0.74036 0.29713 0.0
C2061 C 0.04497 0.72914 0.3033 0.0
C2062 C 0.05422 0.74573 0.28206 0.0
C2063 C 0.05924 0.73999 0.27278 0.0
C2064 C 0.05691 0.72868 0.27864 0.0
H2065 H 0.12091 0.77609 0.20084 0.0
H2066 H 0.10732 0.76527 0.22567 0.0
C2067 C 0.04978 0.72327 0.29375 0.0
C2068 C 0.06749 0.74626 0.25763 0.0
H2069 H 0.07094 0.74429 0.21299 0.0
C2070 C 0.07815 0.75751 0.2608 0.0
C2071 C 0.06477 0.74147 0.24016 0.0
C2072 C 0.0532 0.72966 0.23587 0.0
C2073 C 0.08621 0.76409 0.24699 0.0
C2074 C 0.08362 0.75919 0.2296 0.0
C2075 C 0.07292 0.74798 0.22638 0.0
C2076 C 0.09184 0.76567 0.21452 0.0
C2077 C 0.09728 0.77634 0.25108 0.0
C2078 C 0.08756 0.76929 0.19988 0.0
C2079 C 0.09527 0.77538 0.1856 0.0
C2080 C 0.10739 0.77791 0.18565 0.0
C2081 C 0.11162 0.77423 0.20034 0.0
C2082 C 0.1039 0.76814 0.21461 0.0
H2083 H 0.09632 0.78004 0.26384 0.0
H2084 H 0.10548 0.77552 0.25223 0.0
H2085 H 0.09888 0.78286 0.24025 0.0
H2086 H 0.07826 0.76741 0.19953 0.0
H2087 H 0.09167 0.77791 0.17437 0.0
H2088 H 0.27175 0.34707 0.30314 0.0
H2089 H 0.2574 0.33975 0.27804 0.0
H2090 H 0.26479 0.31135 0.26901 0.0
H2091 H 0.27921 0.31856 0.29448 0.0
H2092 H 0.26655 0.32798 0.23773 0.0
H2093 H 0.22293 0.30621 0.27509 0.0
H2094 H 0.23482 0.32072 0.28323 0.0
H2095 H 0.23696 0.3081 0.28433 0.0
C2096 C 0.27033 0.33923 0.29591 0.0
C2097 C 0.27666 0.33341 0.3008 0.0
C2098 C 0.26207 0.33504 0.28162 0.0
C2099 C 0.25999 0.32498 0.27182 0.0
C2100 C 0.26625 0.31909 0.27655 0.0
H2101 H 0.20745 0.29675 0.18202 0.0
H2102 H 0.21983 0.2976 0.20782 0.0
C2103 C 0.27445 0.32321 0.29107 0.0
C2104 C 0.25165 0.32112 0.25617 0.0
H2105 H 0.22186 0.31056 0.2444 0.0
C2106 C 0.25675 0.32396 0.23912 0.0
C2107 C 0.23889 0.31589 0.2581 0.0
C2108 C 0.23301 0.31245 0.27615 0.0
C2109 C 0.24945 0.32225 0.22397 0.0
C2110 C 0.2368 0.3176 0.22601 0.0
C2111 C 0.2316 0.31419 0.24295 0.0
C2112 C 0.22901 0.31697 0.21081 0.0
C2113 C 0.25533 0.32574 0.20592 0.0
C2114 C 0.22995 0.32757 0.20425 0.0
C2115 C 0.22277 0.32712 0.18973 0.0
C2116 C 0.21456 0.31605 0.18139 0.0
C2117 C 0.21354 0.30541 0.18823 0.0
C2118 C 0.22066 0.30587 0.20287 0.0
H2119 H 0.26472 0.32725 0.20617 0.0
H2120 H 0.24968 0.31863 0.19596 0.0
H2121 H 0.25591 0.33421 0.20148 0.0
H2122 H 0.23626 0.3362 0.21038 0.0
H2123 H 0.22365 0.33546 0.18507 0.0
H2124 H 0.28863 0.36074 0.39436 0.0
H2125 H 0.27705 0.35701 0.42162 0.0
H2126 H 0.26948 0.32048 0.42318 0.0
H2127 H 0.28122 0.32417 0.39589 0.0
H2128 H 0.25238 0.33977 0.42511 0.0
H2129 H 0.2807 0.33248 0.47451 0.0
H2130 H 0.28647 0.33949 0.45313 0.0
H2131 H 0.27663 0.32338 0.45473 0.0
C2132 C 0.28464 0.35194 0.40058 0.0
C2133 C 0.28583 0.34274 0.3929 0.0
C2134 C 0.27802 0.34983 0.41617 0.0
C2135 C 0.27247 0.3385 0.42447 0.0
C2136 C 0.27386 0.32936 0.41713 0.0
H2137 H 0.21213 0.31139 0.49864 0.0
H2138 H 0.2252 0.31468 0.47314 0.0
C2139 C 0.28053 0.33147 0.4015 0.0
C2140 C 0.2646 0.33613 0.44012 0.0
H2141 H 0.26141 0.32862 0.48423 0.0
C2142 C 0.25435 0.33733 0.43804 0.0
C2143 C 0.26727 0.33307 0.45698 0.0
C2144 C 0.27842 0.33212 0.4601 0.0
C2145 C 0.24666 0.33551 0.45237 0.0
C2146 C 0.24917 0.3322 0.46916 0.0
C2147 C 0.25946 0.33108 0.47129 0.0
C2148 C 0.24131 0.33006 0.48472 0.0
C2149 C 0.23603 0.33736 0.44952 0.0
C2150 C 0.24611 0.33749 0.4998 0.0
C2151 C 0.23869 0.33559 0.51445 0.0
C2152 C 0.22635 0.32616 0.51432 0.0
C2153 C 0.22161 0.31868 0.49921 0.0
C2154 C 0.22903 0.3206 0.48457 0.0
H2155 H 0.2371 0.34265 0.43725 0.0
H2156 H 0.22746 0.32843 0.44813 0.0
H2157 H 0.23504 0.34209 0.46105 0.0
H2158 H 0.25559 0.3448 0.50019 0.0
H2159 H 0.24267 0.34138 0.52599 0.0
H2160 H 0.65159 0.93981 0.38773 0.0
H2161 H 0.6434 0.92642 0.41383 0.0
H2162 H 0.67987 0.94264 0.43606 0.0
H2163 H 0.68807 0.95584 0.41025 0.0
H2164 H 0.65133 0.9098 0.42463 0.0
H2165 H 0.65877 0.94222 0.47801 0.0
H2166 H 0.65773 0.94524 0.4547 0.0
H2167 H 0.67184 0.94753 0.46395 0.0
C2168 C 0.6578 0.94063 0.39835 0.0
C2169 C 0.67047 0.94884 0.39693 0.0
C2170 C 0.65312 0.93298 0.4132 0.0
C2171 C 0.66103 0.93365 0.42694 0.0
C2172 C 0.6736 0.9421 0.42574 0.0
H2173 H 0.67411 0.89218 0.49672 0.0
H2174 H 0.66949 0.90109 0.47133 0.0
C2175 C 0.67827 0.94959 0.41091 0.0
C2176 C 0.65659 0.92496 0.44193 0.0
H2177 H 0.65855 0.92418 0.48721 0.0
C2178 C 0.65258 0.91284 0.43835 0.0
C2179 C 0.65806 0.9289 0.45979 0.0
C2180 C 0.66172 0.94167 0.46438 0.0
C2181 C 0.65103 0.90481 0.45217 0.0
C2182 C 0.6537 0.9091 0.46992 0.0
C2183 C 0.65664 0.92093 0.47358 0.0
C2184 C 0.65509 0.9021 0.48449 0.0
C2185 C 0.64703 0.89196 0.44757 0.0
C2186 C 0.64852 0.89968 0.50036 0.0
C2187 C 0.65119 0.89461 0.51496 0.0
C2188 C 0.66061 0.89207 0.51399 0.0
C2189 C 0.66685 0.89411 0.49788 0.0
C2190 C 0.66413 0.89908 0.48329 0.0
H2191 H 0.64142 0.88902 0.43513 0.0
H2192 H 0.65525 0.89134 0.44536 0.0
H2193 H 0.64166 0.88567 0.4585 0.0
H2194 H 0.6416 0.90207 0.50162 0.0
H2195 H 0.64632 0.89324 0.52727 0.0
H2196 H 0.05597 0.71027 0.38934 0.0
H2197 H 0.0716 0.71717 0.41301 0.0
H2198 H 0.06381 0.74453 0.42803 0.0
H2199 H 0.04843 0.7379 0.40436 0.0
H2200 H 0.0884 0.75355 0.42348 0.0
H2201 H 0.06794 0.71288 0.46697 0.0
H2202 H 0.06973 0.71033 0.44402 0.0
H2203 H 0.05923 0.71502 0.44976 0.0
C2204 C 0.05749 0.71766 0.39784 0.0
C2205 C 0.05096 0.72355 0.39492 0.0
C2206 C 0.0664 0.72156 0.41139 0.0
C2207 C 0.06881 0.73131 0.42236 0.0
C2208 C 0.06211 0.737 0.4197 0.0
H2209 H 0.11158 0.77242 0.51168 0.0
H2210 H 0.09828 0.76369 0.48559 0.0
C2211 C 0.0533 0.73317 0.40616 0.0
C2212 C 0.07868 0.73609 0.4361 0.0
H2213 H 0.0873 0.72928 0.47562 0.0
C2214 C 0.08819 0.74822 0.43483 0.0
C2215 C 0.07842 0.7291 0.45084 0.0
C2216 C 0.06825 0.71613 0.45314 0.0
C2217 C 0.0973 0.75362 0.44808 0.0
C2218 C 0.09683 0.74675 0.46306 0.0
C2219 C 0.0876 0.73451 0.46407 0.0
C2220 C 0.10535 0.75235 0.47838 0.0
C2221 C 0.1073 0.76668 0.44604 0.0
C2222 C 0.1137 0.74881 0.48301 0.0
C2223 C 0.12146 0.75391 0.49784 0.0
C2224 C 0.1209 0.76253 0.50843 0.0
C2225 C 0.1125 0.76604 0.50365 0.0
C2226 C 0.10482 0.761 0.48878 0.0
H2227 H 0.10817 0.76975 0.43199 0.0
H2228 H 0.10513 0.77239 0.45427 0.0
H2229 H 0.11626 0.76813 0.4507 0.0
H2230 H 0.11421 0.74212 0.47513 0.0
H2231 H 0.12788 0.75107 0.50102 0.0
H2232 H 0.3055 0.0545 0.72738 0.0
H2233 H 0.31043 0.06751 0.75334 0.0
H2234 H 0.34572 0.07087 0.75801 0.0
H2235 H 0.34085 0.05773 0.732 0.0
H2236 H 0.33315 0.06672 0.79091 0.0
H2237 H 0.33496 0.10431 0.75239 0.0
H2238 H 0.32109 0.08999 0.74909 0.0
H2239 H 0.33541 0.09205 0.74193 0.0
C2240 C 0.31431 0.05794 0.73393 0.0
C2241 C 0.32282 0.05513 0.7275 0.0
C2242 C 0.31712 0.06544 0.74872 0.0
C2243 C 0.32851 0.07033 0.75736 0.0
C2244 C 0.3369 0.06725 0.75141 0.0
H2245 H 0.35779 0.12995 0.8331 0.0
H2246 H 0.35468 0.11686 0.80771 0.0
C2247 C 0.3341 0.05974 0.73656 0.0
C2248 C 0.33163 0.07872 0.77253 0.0
H2249 H 0.33493 0.10571 0.78398 0.0
C2250 C 0.33362 0.07528 0.78941 0.0
C2251 C 0.3324 0.08995 0.77046 0.0
C2252 C 0.33097 0.09438 0.75247 0.0
C2253 C 0.33599 0.08264 0.8044 0.0
C2254 C 0.33623 0.09363 0.80245 0.0
C2255 C 0.33461 0.09722 0.78547 0.0
C2256 C 0.33808 0.10151 0.81786 0.0
C2257 C 0.33832 0.07863 0.82217 0.0
C2258 C 0.32965 0.09728 0.83181 0.0
C2259 C 0.33142 0.10471 0.84636 0.0
C2260 C 0.34163 0.11655 0.84718 0.0
C2261 C 0.34993 0.12083 0.83299 0.0
C2262 C 0.34814 0.11339 0.81844 0.0
H2263 H 0.34105 0.07184 0.82059 0.0
H2264 H 0.3456 0.08643 0.82982 0.0
H2265 H 0.3298 0.07444 0.83006 0.0
H2266 H 0.3217 0.08822 0.83146 0.0
H2267 H 0.32492 0.1011 0.85712 0.0
H2268 H 0.955 0.29129 0.73633 0.0
H2269 H 0.94215 0.28131 0.76225 0.0
H2270 H 0.94867 0.25201 0.75704 0.0
H2271 H 0.96137 0.26179 0.73113 0.0
H2272 H 0.92397 0.24447 0.75971 0.0
H2273 H 0.95185 0.27713 0.81317 0.0
H2274 H 0.94859 0.28353 0.79412 0.0
H2275 H 0.95803 0.27714 0.79169 0.0
C2276 C 0.95383 0.2828 0.74084 0.0
C2277 C 0.95921 0.27734 0.73162 0.0
C2278 C 0.94652 0.27713 0.75569 0.0
C2279 C 0.94454 0.26596 0.76163 0.0
C2280 C 0.95009 0.26063 0.75267 0.0
H2281 H 0.91213 0.22698 0.85914 0.0
H2282 H 0.92549 0.23784 0.8341 0.0
C2283 C 0.95737 0.26626 0.73786 0.0
C2284 C 0.93618 0.25945 0.77656 0.0
H2285 H 0.93217 0.26099 0.82112 0.0
C2286 C 0.92575 0.24808 0.77315 0.0
C2287 C 0.9386 0.26415 0.79407 0.0
C2288 C 0.94992 0.27611 0.7986 0.0
C2289 C 0.91763 0.24126 0.78678 0.0
C2290 C 0.91993 0.24604 0.80423 0.0
C2291 C 0.9304 0.2574 0.80768 0.0
C2292 C 0.91171 0.23928 0.81917 0.0
C2293 C 0.9068 0.2289 0.78246 0.0
C2294 C 0.89954 0.23652 0.81905 0.0
C2295 C 0.89185 0.23023 0.83327 0.0
C2296 C 0.89621 0.22663 0.8479 0.0
C2297 C 0.90842 0.22943 0.84795 0.0
C2298 C 0.9161 0.23573 0.83374 0.0
H2299 H 0.90795 0.22542 0.76962 0.0
H2300 H 0.90539 0.22235 0.79316 0.0
H2301 H 0.89843 0.22943 0.78139 0.0
H2302 H 0.89602 0.23932 0.80803 0.0
H2303 H 0.88249 0.22816 0.83278 0.0
H2304 H 0.7279 0.68953 0.73024 0.0
H2305 H 0.74314 0.69781 0.75461 0.0
H2306 H 0.745 0.66555 0.75458 0.0
H2307 H 0.72988 0.65721 0.73053 0.0
H2308 H 0.74142 0.68607 0.78975 0.0
H2309 H 0.78132 0.69454 0.74978 0.0
H2310 H 0.76765 0.69309 0.73989 0.0
H2311 H 0.76785 0.67987 0.74661 0.0
C2312 C 0.73156 0.68422 0.73543 0.0
C2313 C 0.72767 0.67272 0.7284 0.0
C2314 C 0.74025 0.68896 0.74932 0.0
C2315 C 0.74529 0.68234 0.75617 0.0
C2316 C 0.74135 0.67086 0.74928 0.0
H2317 H 0.77986 0.67937 0.85199 0.0
H2318 H 0.7666 0.67667 0.82643 0.0
C2319 C 0.73264 0.66609 0.73558 0.0
C2320 C 0.75445 0.68713 0.77085 0.0
H2321 H 0.7835 0.6942 0.78142 0.0
C2322 C 0.75068 0.68804 0.78792 0.0
C2323 C 0.76654 0.68978 0.76835 0.0
C2324 C 0.77116 0.68939 0.75014 0.0
C2325 C 0.75854 0.69093 0.80275 0.0
C2326 C 0.77039 0.69286 0.8004 0.0
C2327 C 0.77436 0.69259 0.7832 0.0
C2328 C 0.77854 0.69456 0.81574 0.0
C2329 C 0.75404 0.6917 0.82087 0.0
C2330 C 0.78981 0.7054 0.81791 0.0
C2331 C 0.79745 0.70694 0.83247 0.0
C2332 C 0.79402 0.69761 0.84497 0.0
C2333 C 0.78283 0.68668 0.84251 0.0
C2334 C 0.77518 0.68518 0.82803 0.0
H2335 H 0.7462 0.69314 0.81984 0.0
H2336 H 0.75092 0.68311 0.82814 0.0
H2337 H 0.76148 0.69916 0.82884 0.0
H2338 H 0.79262 0.7127 0.80844 0.0
H2339 H 0.80606 0.71543 0.83393 0.0
H2340 H 0.71635 0.6434 0.63738 0.0
H2341 H 0.72753 0.64593 0.61014 0.0
H2342 H 0.73468 0.68215 0.60434 0.0
H2343 H 0.72332 0.67968 0.63174 0.0
H2344 H 0.72718 0.6683 0.57232 0.0
H2345 H 0.76497 0.66657 0.60623 0.0
H2346 H 0.75016 0.65407 0.61195 0.0
H2347 H 0.75434 0.66915 0.61808 0.0
C2348 C 0.72025 0.65192 0.63036 0.0
C2349 C 0.71902 0.66138 0.63685 0.0
C2350 C 0.72672 0.65336 0.61482 0.0
C2351 C 0.73217 0.66432 0.60547 0.0
C2352 C 0.73064 0.67367 0.61151 0.0
H2353 H 0.77192 0.67831 0.50441 0.0
H2354 H 0.7641 0.68188 0.53192 0.0
C2355 C 0.72413 0.67223 0.62713 0.0
C2356 C 0.73936 0.66579 0.58935 0.0
H2357 H 0.76292 0.66299 0.57468 0.0
C2358 C 0.73513 0.66737 0.57281 0.0
C2359 C 0.74978 0.66464 0.5901 0.0
C2360 C 0.75517 0.66364 0.60757 0.0
C2361 C 0.74063 0.66711 0.55688 0.0
C2362 C 0.75063 0.66532 0.55762 0.0
C2363 C 0.75519 0.66429 0.57419 0.0
C2364 C 0.75584 0.66349 0.54133 0.0
C2365 C 0.73534 0.66812 0.53932 0.0
C2366 C 0.75402 0.65205 0.53781 0.0
C2367 C 0.75848 0.65 0.52222 0.0
C2368 C 0.76494 0.65938 0.50991 0.0
C2369 C 0.76704 0.67093 0.51371 0.0
C2370 C 0.7625 0.67296 0.5293 0.0
H2371 H 0.7266 0.66791 0.54099 0.0
H2372 H 0.74198 0.67676 0.53279 0.0
H2373 H 0.73369 0.66066 0.53029 0.0
H2374 H 0.74897 0.64465 0.54701 0.0
H2375 H 0.75686 0.64105 0.51976 0.0
H2376 H 0.34775 0.06303 0.6383 0.0
H2377 H 0.35485 0.07728 0.61322 0.0
H2378 H 0.31771 0.06784 0.60226 0.0
H2379 H 0.31059 0.05385 0.62727 0.0
H2380 H 0.34876 0.07408 0.57699 0.0
H2381 H 0.33551 0.10438 0.60733 0.0
H2382 H 0.33632 0.09289 0.61994 0.0
H2383 H 0.32302 0.08901 0.60643 0.0
C2384 C 0.3411 0.06397 0.63049 0.0
C2385 C 0.32862 0.05741 0.63493 0.0
C2386 C 0.34517 0.07212 0.6162 0.0
C2387 C 0.33684 0.07384 0.60618 0.0
C2388 C 0.32434 0.06692 0.61014 0.0
H2389 H 0.33171 0.10725 0.51146 0.0
H2390 H 0.32917 0.09568 0.53857 0.0
C2391 C 0.32029 0.05886 0.6244 0.0
C2392 C 0.34103 0.08278 0.59148 0.0
H2393 H 0.33918 0.10661 0.57586 0.0
C2394 C 0.34685 0.08132 0.57684 0.0
C2395 C 0.33862 0.09228 0.59139 0.0
C2396 C 0.33314 0.09483 0.6072 0.0
C2397 C 0.34974 0.08873 0.56171 0.0
C2398 C 0.34675 0.0978 0.56132 0.0
C2399 C 0.34136 0.09956 0.57619 0.0
C2400 C 0.34848 0.1051 0.54518 0.0
C2401 C 0.35551 0.08654 0.54594 0.0
C2402 C 0.36018 0.11435 0.54013 0.0
C2403 C 0.36167 0.12114 0.52476 0.0
C2404 C 0.35147 0.11875 0.51414 0.0
C2405 C 0.33975 0.10951 0.51943 0.0
C2406 C 0.33828 0.10281 0.53484 0.0
H2407 H 0.35628 0.07844 0.54775 0.0
H2408 H 0.35005 0.08538 0.53367 0.0
H2409 H 0.36482 0.09452 0.54393 0.0
H2410 H 0.36814 0.11633 0.5481 0.0
H2411 H 0.3708 0.12828 0.52125 0.0
H2412 H 0.95684 0.26725 0.63301 0.0
H2413 H 0.94226 0.25993 0.60822 0.0
H2414 H 0.93517 0.28859 0.61689 0.0
H2415 H 0.94993 0.29612 0.64181 0.0
H2416 H 0.91717 0.25216 0.61049 0.0
H2417 H 0.94172 0.29024 0.56279 0.0
H2418 H 0.94933 0.2881 0.58163 0.0
H2419 H 0.93962 0.2941 0.58487 0.0
C2420 C 0.95228 0.2721 0.62962 0.0
C2421 C 0.95456 0.28229 0.63944 0.0
C2422 C 0.94393 0.26787 0.61543 0.0
C2423 C 0.93769 0.27375 0.61066 0.0
C2424 C 0.94003 0.28402 0.62022 0.0
H2425 H 0.88431 0.25459 0.52355 0.0
H2426 H 0.89707 0.26405 0.55009 0.0
C2427 C 0.94843 0.28829 0.63448 0.0
C2428 C 0.92843 0.2687 0.59609 0.0
H2429 H 0.92249 0.27397 0.55359 0.0
C2430 C 0.91829 0.25695 0.59808 0.0
C2431 C 0.92988 0.275 0.57998 0.0
C2432 C 0.94075 0.28753 0.57703 0.0
C2433 C 0.90967 0.25125 0.58427 0.0
C2434 C 0.91135 0.25739 0.56794 0.0
C2435 C 0.92126 0.26928 0.56613 0.0
C2436 C 0.90325 0.2514 0.55229 0.0
C2437 C 0.89884 0.2387 0.5873 0.0
C2438 C 0.90254 0.24119 0.54471 0.0
C2439 C 0.89522 0.23573 0.52963 0.0
C2440 C 0.88851 0.24042 0.52177 0.0
C2441 C 0.88921 0.25064 0.52944 0.0
C2442 C 0.89657 0.25612 0.54452 0.0
H2443 H 0.89698 0.23672 0.60172 0.0
H2444 H 0.89048 0.23749 0.5806 0.0
H2445 H 0.90082 0.23201 0.58169 0.0
H2446 H 0.90779 0.23752 0.55033 0.0
H2447 H 0.89482 0.22783 0.52412 0.0
H2448 H 0.36722 0.285 0.64112 0.0
H2449 H 0.3648 0.27374 0.61397 0.0
H2450 H 0.33082 0.27197 0.6021 0.0
H2451 H 0.33318 0.28338 0.62934 0.0
H2452 H 0.34493 0.25028 0.60535 0.0
H2453 H 0.35051 0.2847 0.55543 0.0
H2454 H 0.35521 0.28847 0.57844 0.0
H2455 H 0.33929 0.28103 0.57237 0.0
C2456 C 0.35924 0.28231 0.63273 0.0
C2457 C 0.35039 0.28513 0.63743 0.0
C2458 C 0.35788 0.27584 0.61721 0.0
C2459 C 0.34769 0.27211 0.60597 0.0
C2460 C 0.33884 0.27493 0.61049 0.0
H2461 H 0.33017 0.23338 0.50475 0.0
H2462 H 0.3293 0.24331 0.53179 0.0
C2463 C 0.34019 0.28141 0.62608 0.0
C2464 C 0.34629 0.26496 0.58983 0.0
H2465 H 0.34651 0.26599 0.54438 0.0
C2466 C 0.34523 0.25369 0.59201 0.0
C2467 C 0.34662 0.26941 0.57248 0.0
C2468 C 0.34806 0.2816 0.56942 0.0
C2469 C 0.34458 0.24677 0.57727 0.0
C2470 C 0.34526 0.25137 0.55991 0.0
C2471 C 0.34603 0.26251 0.55772 0.0
C2472 C 0.34555 0.24492 0.54385 0.0
C2473 C 0.34308 0.23456 0.58045 0.0
C2474 C 0.35501 0.24257 0.54162 0.0
C2475 C 0.35547 0.2368 0.52626 0.0
C2476 C 0.34652 0.23333 0.51274 0.0
C2477 C 0.33707 0.23572 0.51503 0.0
C2478 C 0.33662 0.24149 0.5304 0.0
H2479 H 0.33915 0.2309 0.59375 0.0
H2480 H 0.33709 0.22797 0.5701 0.0
H2481 H 0.35219 0.23545 0.57994 0.0
H2482 H 0.36213 0.24535 0.55167 0.0
H2483 H 0.36283 0.23504 0.52498 0.0
H2484 H 0.70839 0.07465 0.62077 0.0
H2485 H 0.72076 0.08204 0.59397 0.0
H2486 H 0.72978 0.0544 0.59928 0.0
H2487 H 0.71735 0.04687 0.62621 0.0
H2488 H 0.75032 0.07885 0.59601 0.0
H2489 H 0.71508 0.06725 0.54321 0.0
H2490 H 0.71356 0.07458 0.56237 0.0
H2491 H 0.71155 0.05984 0.56466 0.0
C2492 C 0.71284 0.07 0.61611 0.0
C2493 C 0.7119 0.06018 0.62565 0.0
C2494 C 0.71986 0.07421 0.60074 0.0
C2495 C 0.72609 0.0687 0.59459 0.0
C2496 C 0.72496 0.05871 0.60379 0.0
H2497 H 0.7687 0.09002 0.49684 0.0
H2498 H 0.75479 0.07824 0.52095 0.0
C2499 C 0.71784 0.05441 0.61912 0.0
C2500 C 0.73455 0.07405 0.57943 0.0
H2501 H 0.73577 0.0816 0.53553 0.0
C2502 C 0.74714 0.07934 0.58273 0.0
C2503 C 0.73035 0.07461 0.56214 0.0
C2504 C 0.71689 0.06868 0.55777 0.0
C2505 C 0.75571 0.08556 0.56929 0.0
C2506 C 0.75154 0.08657 0.5522 0.0
C2507 C 0.73892 0.0809 0.54872 0.0
C2508 C 0.76016 0.09369 0.53786 0.0
C2509 C 0.76915 0.09109 0.57347 0.0
C2510 C 0.7677 0.10628 0.53938 0.0
C2511 C 0.77563 0.11304 0.52564 0.0
C2512 C 0.77619 0.1073 0.51017 0.0
C2513 C 0.76861 0.09467 0.50871 0.0
C2514 C 0.76061 0.08794 0.5224 0.0
H2515 H 0.77069 0.08723 0.58579 0.0
H2516 H 0.77387 0.0897 0.56227 0.0
H2517 H 0.77341 0.10096 0.57545 0.0
H2518 H 0.76735 0.11088 0.55114 0.0
H2519 H 0.78139 0.12273 0.52716 0.0
H2520 H 0.93614 0.64737 0.63705 0.0
H2521 H 0.92134 0.63885 0.61215 0.0
H2522 H 0.93452 0.67472 0.59194 0.0
H2523 H 0.94918 0.68327 0.61657 0.0
H2524 H 0.90273 0.64524 0.60385 0.0
H2525 H 0.93469 0.65508 0.54828 0.0
H2526 H 0.93866 0.65427 0.57124 0.0
H2527 H 0.93929 0.66764 0.563 0.0
C2528 C 0.93597 0.65342 0.62717 0.0
C2529 C 0.94383 0.666 0.6288 0.0
C2530 C 0.9275 0.64854 0.61301 0.0
C2531 C 0.92694 0.65616 0.60015 0.0
C2532 C 0.93492 0.66867 0.6016 0.0
H2533 H 0.88811 0.66058 0.51142 0.0
H2534 H 0.90156 0.66279 0.53632 0.0
C2535 C 0.94326 0.67354 0.61575 0.0
C2536 C 0.91764 0.6513 0.58562 0.0
H2537 H 0.91483 0.65138 0.54037 0.0
C2538 C 0.90529 0.64634 0.58995 0.0
C2539 C 0.92106 0.65278 0.56754 0.0
C2540 C 0.93414 0.65763 0.56218 0.0
C2541 C 0.89635 0.6435 0.57663 0.0
C2542 C 0.89988 0.64551 0.55855 0.0
C2543 C 0.91215 0.64992 0.55424 0.0
C2544 C 0.89124 0.64396 0.54394 0.0
C2545 C 0.88336 0.63902 0.58204 0.0
C2546 C 0.8809 0.63263 0.53998 0.0
C2547 C 0.87306 0.63135 0.52582 0.0
C2548 C 0.87545 0.64138 0.51532 0.0
C2549 C 0.88581 0.65271 0.51942 0.0
C2550 C 0.8936 0.65397 0.53355 0.0
H2551 H 0.88267 0.64026 0.59652 0.0
H2552 H 0.8796 0.6438 0.57449 0.0
H2553 H 0.87756 0.62925 0.57898 0.0
H2554 H 0.879 0.62474 0.54765 0.0
H2555 H 0.86514 0.6225 0.52307 0.0
H2556 H 0.95174 0.66519 0.73208 0.0
H2557 H 0.94286 0.66511 0.76089 0.0
H2558 H 0.93837 0.69431 0.74312 0.0
H2559 H 0.94736 0.69462 0.71462 0.0
H2560 H 0.94913 0.69837 0.77615 0.0
H2561 H 0.90705 0.65276 0.77249 0.0
H2562 H 0.92116 0.65314 0.76945 0.0
H2563 H 0.91636 0.66018 0.75328 0.0
C2564 C 0.9488 0.67154 0.73429 0.0
C2565 C 0.95028 0.67992 0.72104 0.0
C2566 C 0.94367 0.67144 0.75072 0.0
C2567 C 0.93984 0.67962 0.75406 0.0
C2568 C 0.94125 0.68791 0.74082 0.0
H2569 H 0.89359 0.68161 0.83488 0.0
H2570 H 0.90257 0.67937 0.80766 0.0
C2571 C 0.9464 0.68806 0.7245 0.0
C2572 C 0.93473 0.67996 0.77151 0.0
H2573 H 0.91058 0.6637 0.79924 0.0
C2574 C 0.94073 0.69078 0.78124 0.0
C2575 C 0.9237 0.67008 0.778 0.0
C2576 C 0.9166 0.6584 0.76773 0.0
C2577 C 0.93595 0.69204 0.79722 0.0
C2578 C 0.925 0.68212 0.80384 0.0
C2579 C 0.91902 0.67126 0.79417 0.0
C2580 C 0.91941 0.68299 0.82049 0.0
C2581 C 0.94247 0.70412 0.80655 0.0
C2582 C 0.92582 0.68558 0.83676 0.0
C2583 C 0.92074 0.68691 0.85229 0.0
C2584 C 0.90909 0.68556 0.85187 0.0
C2585 C 0.90256 0.68266 0.83563 0.0
C2586 C 0.90768 0.68139 0.82008 0.0
H2587 H 0.94884 0.71151 0.79753 0.0
H2588 H 0.93582 0.70638 0.81183 0.0
H2589 H 0.94791 0.70377 0.81792 0.0
H2590 H 0.93477 0.68658 0.83745 0.0
H2591 H 0.92589 0.68889 0.86467 0.0
H2592 H 0.31952 0.27643 0.72414 0.0
H2593 H 0.31085 0.26317 0.75026 0.0
H2594 H 0.34682 0.27074 0.7654 0.0
H2595 H 0.35551 0.28386 0.73965 0.0
H2596 H 0.31293 0.24215 0.75892 0.0
H2597 H 0.33329 0.27753 0.81104 0.0
H2598 H 0.33163 0.28077 0.78808 0.0
H2599 H 0.34414 0.27896 0.7948 0.0
C2600 C 0.32558 0.27533 0.73314 0.0
C2601 C 0.33821 0.28122 0.72981 0.0
C2602 C 0.32061 0.26774 0.74799 0.0
C2603 C 0.32823 0.26611 0.75984 0.0
C2604 C 0.34081 0.27203 0.75657 0.0
H2605 H 0.32386 0.21347 0.83174 0.0
H2606 H 0.32451 0.22539 0.80595 0.0
C2607 C 0.34575 0.27949 0.74176 0.0
C2608 C 0.32323 0.25793 0.77537 0.0
H2609 H 0.32702 0.25739 0.82036 0.0
C2610 C 0.3158 0.24546 0.77241 0.0
C2611 C 0.32685 0.26229 0.79295 0.0
C2612 C 0.33432 0.27563 0.79698 0.0
C2613 C 0.31252 0.23718 0.78652 0.0
C2614 C 0.31695 0.24153 0.80392 0.0
C2615 C 0.32373 0.25404 0.80699 0.0
C2616 C 0.31538 0.23337 0.81897 0.0
C2617 C 0.30452 0.22387 0.78259 0.0
C2618 C 0.31017 0.23398 0.83494 0.0
C2619 C 0.30995 0.22731 0.8498 0.0
C2620 C 0.31502 0.21994 0.84902 0.0
C2621 C 0.31997 0.21912 0.83285 0.0
C2622 C 0.32019 0.22581 0.818 0.0
H2623 H 0.29876 0.22224 0.77049 0.0
H2624 H 0.31041 0.22009 0.78012 0.0
H2625 H 0.29846 0.21894 0.79397 0.0
H2626 H 0.30652 0.23985 0.83605 0.0
H2627 H 0.30624 0.22831 0.8621 0.0
H2628 H 0.73166 0.07944 0.70852 0.0
H2629 H 0.74562 0.08657 0.7341 0.0
H2630 H 0.72627 0.05072 0.75664 0.0
H2631 H 0.71267 0.04338 0.7304 0.0
H2632 H 0.74063 0.08801 0.76634 0.0
H2633 H 0.76036 0.0588 0.76566 0.0
H2634 H 0.75146 0.05936 0.74724 0.0
H2635 H 0.74397 0.05017 0.76646 0.0
C2636 C 0.7305 0.07303 0.71881 0.0
C2637 C 0.72109 0.06086 0.71751 0.0
C2638 C 0.73848 0.07712 0.73344 0.0
C2639 C 0.73711 0.06919 0.7473 0.0
C2640 C 0.72777 0.05696 0.74594 0.0
H2641 H 0.76462 0.09683 0.85375 0.0
H2642 H 0.75208 0.08773 0.82698 0.0
C2643 C 0.71993 0.05279 0.73102 0.0
C2644 C 0.7449 0.07405 0.76363 0.0
H2645 H 0.76364 0.07021 0.79223 0.0
C2646 C 0.74573 0.08415 0.77189 0.0
C2647 C 0.75169 0.06914 0.77082 0.0
C2648 C 0.75194 0.05885 0.76198 0.0
C2649 C 0.75309 0.08946 0.78705 0.0
C2650 C 0.7594 0.08419 0.79477 0.0
C2651 C 0.75868 0.07416 0.78647 0.0
C2652 C 0.76685 0.08905 0.81136 0.0
C2653 C 0.75426 0.10086 0.79429 0.0
C2654 C 0.77918 0.09227 0.81184 0.0
C2655 C 0.78628 0.0972 0.82731 0.0
C2656 C 0.78119 0.09912 0.84246 0.0
C2657 C 0.7688 0.09567 0.8421 0.0
C2658 C 0.76166 0.09052 0.82678 0.0
H2659 H 0.75233 0.10577 0.78381 0.0
H2660 H 0.7475 0.09848 0.80501 0.0
H2661 H 0.76357 0.10706 0.79986 0.0
H2662 H 0.78337 0.09115 0.80016 0.0
H2663 H 0.7958 0.09975 0.82734 0.0
H2664 H 0.02916 0.35984 0.99005 0.0
H2665 H 0.04609 0.35693 0.99827 0.0
H2666 H 0.04629 0.36917 0.05157 0.0
H2667 H 0.02945 0.37216 0.04353 0.0
H2668 H 0.07044 0.37472 0.0142 0.0
H2669 H 0.0418 0.33465 0.05668 0.0
H2670 H 0.03534 0.3399 0.03994 0.0
H2671 H 0.04051 0.34758 0.06094 0.0
C2672 C 0.03284 0.36197 0.0035 0.0
C2673 C 0.0279 0.36618 0.01616 0.0
C2674 C 0.04252 0.36031 0.00815 0.0
C2675 C 0.04732 0.3627 0.02557 0.0
C2676 C 0.0426 0.36714 0.03811 0.0
H2677 H 0.11167 0.37197 0.07711 0.0
H2678 H 0.09619 0.37438 0.06162 0.0
C2679 C 0.033 0.36888 0.03346 0.0
C2680 C 0.05715 0.36042 0.03082 0.0
H2681 H 0.06331 0.34318 0.05852 0.0
C2682 C 0.06889 0.36777 0.02377 0.0
C2683 C 0.05503 0.35124 0.04312 0.0
C2684 C 0.04247 0.3428 0.05054 0.0
C2685 C 0.0787 0.36646 0.02927 0.0
C2686 C 0.07669 0.35763 0.04217 0.0
C2687 C 0.06484 0.34999 0.04868 0.0
C2688 C 0.08683 0.35655 0.04986 0.0
C2689 C 0.09114 0.37457 0.02129 0.0
C2690 C 0.08673 0.34571 0.04839 0.0
C2691 C 0.09567 0.34432 0.05714 0.0
C2692 C 0.10479 0.35369 0.06771 0.0
C2693 C 0.10498 0.36463 0.0688 0.0
C2694 C 0.0961 0.36603 0.05998 0.0
H2695 H 0.09049 0.37848 0.0084 0.0
H2696 H 0.0968 0.38214 0.0306 0.0
H2697 H 0.09591 0.36958 0.01913 0.0
H2698 H 0.07962 0.33826 0.04069 0.0
H2699 H 0.0953 0.33582 0.05583 0.0
H2700 H 0.64087 0.66667 0.04361 0.0
H2701 H 0.64388 0.6862 0.05227 0.0
H2702 H 0.66315 0.70197 0.00345 0.0
H2703 H 0.66031 0.68251 0.99475 0.0
H2704 H 0.67552 0.71528 0.03353 0.0
H2705 H 0.62732 0.70396 0.03344 0.0
H2706 H 0.62991 0.69382 0.04649 0.0
H2707 H 0.63198 0.69457 0.02277 0.0
C2708 C 0.64565 0.67426 0.03462 0.0
C2709 C 0.65034 0.67301 0.01847 0.0
C2710 C 0.64729 0.6854 0.03954 0.0
C2711 C 0.65359 0.6955 0.02838 0.0
C2712 C 0.6582 0.69427 0.0122 0.0
H2713 H 0.67915 0.77205 0.04554 0.0
H2714 H 0.67394 0.75285 0.03173 0.0
C2715 C 0.65655 0.68313 0.00726 0.0
C2716 C 0.656 0.7075 0.03409 0.0
H2717 H 0.64204 0.72255 0.04729 0.0
C2718 C 0.66821 0.71692 0.03635 0.0
C2719 C 0.64645 0.7096 0.03778 0.0
C2720 C 0.63318 0.69999 0.03485 0.0
C2721 C 0.67112 0.72827 0.0428 0.0
C2722 C 0.66156 0.73032 0.04677 0.0
C2723 C 0.64935 0.72096 0.04422 0.0
C2724 C 0.66405 0.74191 0.05445 0.0
C2725 C 0.6844 0.73782 0.04595 0.0
C2726 C 0.65986 0.74209 0.07154 0.0
C2727 C 0.66278 0.75302 0.07943 0.0
C2728 C 0.66993 0.76402 0.07036 0.0
C2729 C 0.67378 0.76377 0.05298 0.0
C2730 C 0.67083 0.75281 0.04508 0.0
H2731 H 0.69038 0.73395 0.04606 0.0
H2732 H 0.6875 0.74462 0.03511 0.0
H2733 H 0.68563 0.74254 0.05879 0.0
H2734 H 0.65461 0.73379 0.07901 0.0
H2735 H 0.65981 0.75286 0.09292 0.0
H2736 H 0.32676 0.98935 0.01877 0.0
H2737 H 0.30461 0.97916 0.02359 0.0
H2738 H 0.30342 0.9459 0.03492 0.0
H2739 H 0.32529 0.95582 0.02975 0.0
H2740 H 0.28459 0.94242 0.01295 0.0
H2741 H 0.28836 0.96998 0.07202 0.0
H2742 H 0.29504 0.97817 0.05182 0.0
H2743 H 0.30148 0.97033 0.06278 0.0
C2744 C 0.32175 0.97986 0.02224 0.0
C2745 C 0.32782 0.97343 0.02396 0.0
C2746 C 0.30911 0.97407 0.02508 0.0
C2747 C 0.30239 0.9618 0.02984 0.0
C2748 C 0.30841 0.95536 0.03125 0.0
H2749 H 0.23913 0.90614 0.07585 0.0
H2750 H 0.25795 0.91956 0.06013 0.0
C2751 C 0.32095 0.96108 0.02833 0.0
C2752 C 0.28912 0.95551 0.03376 0.0
H2753 H 0.2688 0.95379 0.06446 0.0
C2754 C 0.28111 0.94502 0.02405 0.0
C2755 C 0.28456 0.95893 0.04821 0.0
C2756 C 0.29278 0.96991 0.05943 0.0
C2757 C 0.26883 0.93756 0.02893 0.0
C2758 C 0.26446 0.94065 0.0439 0.0
C2759 C 0.27222 0.95149 0.05296 0.0
C2760 C 0.25244 0.93204 0.05172 0.0
C2761 C 0.2607 0.92619 0.01844 0.0
C2762 C 0.24305 0.9346 0.05212 0.0
C2763 C 0.23209 0.92678 0.06087 0.0
C2764 C 0.23042 0.91638 0.06963 0.0
C2765 C 0.23987 0.91384 0.06892 0.0
C2766 C 0.25071 0.92156 0.06002 0.0
H2767 H 0.26436 0.92662 0.00494 0.0
H2768 H 0.26012 0.91838 0.02559 0.0
H2769 H 0.25129 0.92454 0.0171 0.0
H2770 H 0.24426 0.94269 0.04583 0.0
H2771 H 0.22499 0.92898 0.06094 0.0
H2772 H 0.35236 0.03335 0.04061 0.0
H2773 H 0.35032 0.05041 0.03158 0.0
H2774 H 0.36795 0.05279 0.98189 0.0
H2775 H 0.37025 0.03591 0.99092 0.0
H2776 H 0.3763 0.07509 0.99703 0.0
H2777 H 0.32545 0.04818 0.99484 0.0
H2778 H 0.33216 0.04789 0.01587 0.0
H2779 H 0.33458 0.04129 0.99659 0.0
C2780 C 0.35586 0.03754 0.02779 0.0
C2781 C 0.3614 0.0332 0.01644 0.0
C2782 C 0.35462 0.04724 0.02261 0.0
C2783 C 0.35878 0.05273 0.00592 0.0
C2784 C 0.36462 0.04865 0.9948 0.0
H2785 H 0.33931 0.09477 0.94063 0.0
H2786 H 0.34163 0.07935 0.95579 0.0
C2787 C 0.36591 0.03898 -2e-05 0.0
C2788 C 0.35695 0.06262 -0.00015 0.0
H2789 H 0.3349 0.06906 0.98902 0.0
C2790 C 0.36725 0.0738 0.99536 0.0
C2791 C 0.34512 0.06087 0.99751 0.0
C2792 C 0.33368 0.04889 0.00129 0.0
C2793 C 0.36606 0.08325 0.98842 0.0
C2794 C 0.35425 0.08153 0.98622 0.0
C2795 C 0.34395 0.07039 0.99089 0.0
C2796 C 0.35232 0.09084 0.97784 0.0
C2797 C 0.37745 0.0948 0.98287 0.0
C2798 C 0.35732 0.10237 0.9854 0.0
C2799 C 0.35599 0.11124 0.97675 0.0
C2800 C 0.34951 0.10869 0.96047 0.0
C2801 C 0.34419 0.097 0.95327 0.0
C2802 C 0.34557 0.08818 0.96187 0.0
H2803 H 0.38544 0.09366 0.98166 0.0
H2804 H 0.37596 0.09807 0.96991 0.0
H2805 H 0.37974 0.10187 0.99303 0.0
H2806 H 0.36234 0.10454 0.99791 0.0
H2807 H 0.36007 0.1201 0.98275 0.0
H2808 H 0.98226 0.33335 0.00646 0.0
H2809 H 0.97075 0.31177 0.99896 0.0
H2810 H 0.93711 0.30958 0.01317 0.0
H2811 H 0.94845 0.33106 0.02058 0.0
H2812 H 0.94168 0.289 0.02515 0.0
H2813 H 0.94654 0.30094 0.95298 0.0
H2814 H 0.95993 0.30823 0.9672 0.0
H2815 H 0.948 0.31144 0.96993 0.0
C2816 C 0.97244 0.32823 0.00826 0.0
C2817 C 0.96625 0.33395 0.01395 0.0
C2818 C 0.96589 0.31592 0.00397 0.0
C2819 C 0.95311 0.30915 0.00546 0.0
C2820 C 0.94699 0.31468 0.01197 0.0
H2821 H 0.89018 0.24004 0.98099 0.0
H2822 H 0.90578 0.25868 0.99535 0.0
C2823 C 0.95349 0.32697 0.01612 0.0
C2824 C 0.9459 0.29661 0.99879 0.0
H2825 H 0.93423 0.28051 0.96039 0.0
C2826 C 0.94014 0.28707 0.011 0.0
C2827 C 0.94397 0.29418 0.98034 0.0
C2828 C 0.94986 0.30419 0.96675 0.0
C2829 C 0.93232 0.27512 0.00519 0.0
C2830 C 0.92996 0.27275 0.98672 0.0
C2831 C 0.93603 0.28229 0.97454 0.0
C2832 C 0.92076 0.26063 0.97958 0.0
C2833 C 0.92674 0.26518 0.01891 0.0
C2834 C 0.9239 0.25552 0.9658 0.0
C2835 C 0.91492 0.24503 0.95719 0.0
C2836 C 0.90257 0.23936 0.96222 0.0
C2837 C 0.89955 0.24422 0.97659 0.0
C2838 C 0.90852 0.2548 0.98504 0.0
H2839 H 0.93258 0.26766 0.03109 0.0
H2840 H 0.91773 0.2637 0.02287 0.0
H2841 H 0.92534 0.25657 0.01359 0.0
H2842 H 0.93326 0.25989 0.96125 0.0
H2843 H 0.91763 0.24175 0.94601 0.0
H2844 H 0.68421 0.631 0.00336 0.0
H2845 H 0.70601 0.64319 0.99748 0.0
H2846 H 0.70531 0.67567 0.00629 0.0
H2847 H 0.68325 0.66346 0.01195 0.0
H2848 H 0.71679 0.67668 0.97571 0.0
H2849 H 0.73534 0.66175 0.03012 0.0
H2850 H 0.72333 0.64903 0.0183 0.0
H2851 H 0.71993 0.65892 0.03029 0.0
C2852 C 0.68867 0.64073 0.00427 0.0
C2853 C 0.68195 0.64625 0.00813 0.0
C2854 C 0.70119 0.6477 0.00106 0.0
C2855 C 0.70736 0.66034 0.00181 0.0
C2856 C 0.70075 0.66591 0.00584 0.0
H2857 H 0.78654 0.69723 0.98045 0.0
H2858 H 0.76745 0.69196 0.99546 0.0
C2859 C 0.68815 0.65893 0.00906 0.0
C2860 C 0.72044 0.66757 0.9968 0.0
H2861 H 0.74786 0.66952 0.00367 0.0
C2862 C 0.72365 0.67532 0.98206 0.0
C2863 C 0.72948 0.666 0.00528 0.0
C2864 C 0.72687 0.65857 0.022 0.0
C2865 C 0.7354 0.68081 0.97477 0.0
C2866 C 0.74406 0.67828 0.98222 0.0
C2867 C 0.74115 0.67128 0.99776 0.0
C2868 C 0.75571 0.68188 0.97317 0.0
C2869 C 0.73832 0.68904 0.95891 0.0
C2870 C 0.75542 0.6778 0.95581 0.0
C2871 C 0.76624 0.68081 0.94723 0.0
C2872 C 0.77764 0.68787 0.95589 0.0
C2873 C 0.77792 0.69187 0.97337 0.0
C2874 C 0.76703 0.68884 0.98197 0.0
H2875 H 0.73268 0.69328 0.95877 0.0
H2876 H 0.74815 0.69628 0.95884 0.0
H2877 H 0.73621 0.68367 0.9465 0.0
H2878 H 0.74677 0.67219 0.9489 0.0
H2879 H 0.76567 0.67772 0.93369 0.0
H2880 H 0.97023 0.63394 0.02177 0.0
H2881 H 0.95266 0.63666 0.01873 0.0
H2882 H 0.96349 0.64979 0.96517 0.0
H2883 H 0.9809 0.64704 0.96799 0.0
H2884 H 0.95311 0.65809 0.0117 0.0
H2885 H 0.92714 0.62438 0.95898 0.0
H2886 H 0.93918 0.62441 0.97192 0.0
H2887 H 0.94286 0.63439 0.95315 0.0
C2888 C 0.96879 0.6373 0.00929 0.0
C2889 C 0.97696 0.64024 0.99511 0.0
C2890 C 0.95876 0.63885 0.00759 0.0
C2891 C 0.95665 0.64323 0.99162 0.0
C2892 C 0.96477 0.64613 0.97747 0.0
H2893 H 0.9261 0.68452 0.96158 0.0
H2894 H 0.93781 0.67616 0.97392 0.0
C2895 C 0.97479 0.64464 0.97917 0.0
C2896 C 0.94642 0.64547 0.98986 0.0
H2897 H 0.92266 0.64018 0.96231 0.0
C2898 C 0.9463 0.65401 0.00112 0.0
C2899 C 0.9374 0.63999 0.97627 0.0
C2900 C 0.93655 0.63019 0.96451 0.0
C2901 C 0.93792 0.65781 0.99835 0.0
C2902 C 0.92958 0.65307 0.98382 0.0
C2903 C 0.92915 0.64392 0.97333 0.0
C2904 C 0.9221 0.65827 0.97815 0.0
C2905 C 0.93827 0.66707 0.0108 0.0
C2906 C 0.90933 0.65097 0.97625 0.0
C2907 C 0.90252 0.65576 0.9692 0.0
C2908 C 0.9084 0.66793 0.96379 0.0
C2909 C 0.92119 0.67522 0.96602 0.0
C2910 C 0.92794 0.67044 0.97308 0.0
H2911 H 0.94195 0.66669 0.02413 0.0
H2912 H 0.9444 0.67623 0.00527 0.0
H2913 H 0.92903 0.66573 0.01242 0.0
H2914 H 0.90465 0.64152 0.97995 0.0
H2915 H 0.8927 0.6499 0.96778 0.0
H2916 H 0.3606 0.32838 0.04004 0.0
H2917 H 0.35736 0.30882 0.03088 0.0
H2918 H 0.34998 0.31533 0.97705 0.0
H2919 H 0.35351 0.33497 0.98594 0.0
H2920 H 0.3373 0.28933 0.01731 0.0
H2921 H 0.37478 0.3057 0.96875 0.0
H2922 H 0.37365 0.31567 0.98419 0.0
H2923 H 0.36481 0.31125 0.96378 0.0
C2924 C 0.35839 0.32569 0.02621 0.0
C2925 C 0.3574 0.33329 0.0137 0.0
C2926 C 0.35652 0.3145 0.02101 0.0
C2927 C 0.35364 0.31069 0.0032 0.0
C2928 C 0.35253 0.3182 0.99075 0.0
H2929 H 0.31672 0.23885 0.95963 0.0
H2930 H 0.32239 0.25788 0.97422 0.0
C2931 C 0.35448 0.32941 0.9959 0.0
C2932 C 0.35134 0.29868 0.99772 0.0
H2933 H 0.35918 0.28473 0.96686 0.0
C2934 C 0.34218 0.28832 0.00641 0.0
C2935 C 0.35785 0.29735 0.98372 0.0
C2936 C 0.36841 0.3081 0.97471 0.0
C2937 C 0.33904 0.27668 0.00103 0.0
C2938 C 0.34501 0.27535 0.98626 0.0
C2939 C 0.35449 0.28572 0.97804 0.0
C2940 C 0.34136 0.26334 0.9787 0.0
C2941 C 0.32941 0.26596 0.01131 0.0
C2942 C 0.35015 0.26012 0.97607 0.0
C2943 C 0.34696 0.2493 0.96751 0.0
C2944 C 0.33489 0.24147 0.96145 0.0
C2945 C 0.32604 0.24458 0.96445 0.0
C2946 C 0.32927 0.25545 0.97285 0.0
H2947 H 0.32885 0.26847 0.02523 0.0
H2948 H 0.32034 0.26259 0.00485 0.0
H2949 H 0.33129 0.25851 0.01162 0.0
H2950 H 0.35955 0.26607 0.98041 0.0
H2951 H 0.35396 0.24712 0.96544 0.0
H2952 H 0.67391 0.04635 0.00406 0.0
H2953 H 0.69584 0.05655 0.99878 0.0
H2954 H 0.69346 0.02216 0.99637 0.0
H2955 H 0.67135 0.01177 0.00154 0.0
H2956 H 0.71498 0.05549 0.01788 0.0
H2957 H 0.70853 0.0387 0.94806 0.0
H2958 H 0.6962 0.03795 0.96055 0.0
H2959 H 0.70122 0.0276 0.96534 0.0
C2960 C 0.67802 0.04091 0.0025 0.0
C2961 C 0.67083 0.02822 0.00306 0.0
C2962 C 0.69058 0.04678 -0.00045 0.0
C2963 C 0.69624 0.04011 0.99701 0.0
C2964 C 0.68922 0.02746 0.99809 0.0
H2965 H 0.76985 0.07228 0.95288 0.0
H2966 H 0.75099 0.05762 0.96798 0.0
C2967 C 0.6766 0.02155 0.0011 0.0
C2968 C 0.70939 0.04655 0.99243 0.0
H2969 H 0.72853 0.05271 0.95746 0.0
C2970 C 0.718 0.05477 0.00476 0.0
C2971 C 0.71328 0.04555 0.97533 0.0
C2972 C 0.70436 0.03704 0.96145 0.0
C2973 C 0.73036 0.0623 0.00026 0.0
C2974 C 0.73413 0.06176 0.98284 0.0
C2975 C 0.72563 0.05312 0.97081 0.0
C2976 C 0.74646 0.07079 0.97616 0.0
C2977 C 0.73921 0.07087 0.01412 0.0
C2978 C 0.75028 0.08309 0.97599 0.0
C2979 C 0.76107 0.09148 0.96748 0.0
C2980 C 0.76822 0.08774 0.95881 0.0
C2981 C 0.76463 0.07548 0.95961 0.0
C2982 C 0.75382 0.06708 0.96814 0.0
H2983 H 0.73613 0.06735 0.02779 0.0
H2984 H 0.74854 0.07247 0.01228 0.0
H2985 H 0.7397 0.07965 0.013 0.0
H2986 H 0.74463 0.08615 0.98173 0.0
H2987 H 0.76362 0.10087 0.96722 0.0
H2988 H 0.65367 0.97293 0.99176 0.0
H2989 H 0.65623 0.95645 0.00205 0.0
H2990 H 0.62774 0.94621 0.04054 0.0
H2991 H 0.62527 0.96284 0.03056 0.0
H2992 H 0.64808 0.94844 0.0555 0.0
H2993 H 0.63598 0.92024 0.99486 0.0
H2994 H 0.64746 0.93574 0.99083 0.0
H2995 H 0.63235 0.93189 0.99727 0.0
C2996 C 0.64781 0.96708 0.00225 0.0
C2997 C 0.63927 0.96923 0.01035 0.0
C2998 C 0.64924 0.95759 0.00803 0.0
C2999 C 0.64206 0.94997 0.02189 0.0
C3000 C 0.63333 0.95193 0.02975 0.0
H3001 H 0.6454 0.88731 0.05965 0.0
H3002 H 0.63819 0.90002 0.04678 0.0
C3003 C 0.63193 0.96145 0.02402 0.0
C3004 C 0.6444 0.94066 0.02921 0.0
H3005 H 0.64709 0.91667 0.01772 0.0
C3006 C 0.64772 0.94141 0.04727 0.0
C3007 C 0.64379 0.93139 0.01855 0.0
C3008 C 0.63958 0.92967 0.99935 0.0
C3009 C 0.6509 0.93345 0.05478 0.0
C3010 C 0.65097 0.92463 0.04388 0.0
C3011 C 0.64718 0.92355 0.026 0.0
C3012 C 0.65541 0.9168 0.05074 0.0
C3013 C 0.65419 0.93459 0.07435 0.0
C3014 C 0.66754 0.922 0.05681 0.0
C3015 C 0.67165 0.91481 0.06423 0.0
C3016 C 0.66375 0.90222 0.0656 0.0
C3017 C 0.65168 0.89698 0.05898 0.0
C3018 C 0.64757 0.90421 0.05154 0.0
H3019 H 0.65038 0.93927 0.08174 0.0
H3020 H 0.65079 0.92558 0.08048 0.0
H3021 H 0.6643 0.93996 0.07594 0.0
H3022 H 0.67379 0.93167 0.05607 0.0
H3023 H 0.68093 0.91921 0.06941 0.0
H3024 H 0.02202 0.67207 0.02657 0.0
H3025 H 0.03428 0.69342 0.03514 0.0
H3026 H 0.06654 0.69552 0.01412 0.0
H3027 H 0.05444 0.67424 0.00567 0.0
H3028 H 0.05572 0.70174 0.05935 0.0
H3029 H 0.06733 0.72664 0.99512 0.0
H3030 H 0.05406 0.71165 0.9977 0.0
H3031 H 0.06901 0.71369 0.99595 0.0
C3032 C 0.03167 0.67714 0.02345 0.0
C3033 C 0.03727 0.67144 0.01553 0.0
C3034 C 0.03865 0.68932 0.02836 0.0
C3035 C 0.05127 0.69604 0.02511 0.0
C3036 C 0.05677 0.69053 0.01651 0.0
H3037 H 0.11512 0.76375 0.05417 0.0
H3038 H 0.09958 0.74504 0.03975 0.0
C3039 C 0.04985 0.67834 0.0118 0.0
C3040 C 0.059 0.70838 0.03244 0.0
H3041 H 0.07863 0.73776 0.02074 0.0
C3042 C 0.06061 0.70966 0.05097 0.0
C3043 C 0.06546 0.71862 0.0214 0.0
C3044 C 0.06386 0.71767 0.00142 0.0
C3045 C 0.06886 0.72087 0.05877 0.0
C3046 C 0.0754 0.73116 0.04774 0.0
C3047 C 0.07359 0.7299 0.02919 0.0
C3048 C 0.08454 0.74316 0.05524 0.0
C3049 C 0.07092 0.72141 0.07869 0.0
C3050 C 0.0812 0.74857 0.0683 0.0
C3051 C 0.0901 0.75911 0.07688 0.0
C3052 C 0.10253 0.76464 0.07232 0.0
C3053 C 0.10571 0.75962 0.05836 0.0
C3054 C 0.09681 0.74897 0.04996 0.0
H3055 H 0.06782 0.71235 0.0844 0.0
H3056 H 0.08074 0.72751 0.08219 0.0
H3057 H 0.0656 0.7249 0.08509 0.0
H3058 H 0.07175 0.74442 0.07228 0.0
H3059 H 0.08724 0.76259 0.08762 0.0
H3060 H 0.3216 0.37659 0.02797 0.0
H3061 H 0.29966 0.3653 0.03314 0.0
H3062 H 0.29805 0.33205 0.02083 0.0
H3063 H 0.32022 0.34331 0.01599 0.0
H3064 H 0.28032 0.35073 0.01108 0.0
H3065 H 0.28196 0.32475 0.06935 0.0
H3066 H 0.29557 0.33748 0.06023 0.0
H3067 H 0.28826 0.32315 0.04904 0.0
C3068 C 0.31663 0.36688 0.02633 0.0
C3069 C 0.32271 0.36085 0.02168 0.0
C3070 C 0.30405 0.36043 0.02926 0.0
C3071 C 0.29723 0.34782 0.0276 0.0
C3072 C 0.30318 0.34176 0.02253 0.0
H3073 H 0.2193 0.30392 0.05724 0.0
H3074 H 0.23858 0.30946 0.04267 0.0
C3075 C 0.31583 0.34822 0.01968 0.0
C3076 C 0.28395 0.34121 0.03153 0.0
H3077 H 0.26285 0.32208 0.06165 0.0
C3078 C 0.27646 0.34434 0.02199 0.0
C3079 C 0.27891 0.33284 0.04573 0.0
C3080 C 0.28657 0.32938 0.05681 0.0
C3081 C 0.26424 0.33973 0.02674 0.0
C3082 C 0.2594 0.33182 0.04142 0.0
C3083 C 0.26663 0.32814 0.05036 0.0
C3084 C 0.24742 0.32844 0.04903 0.0
C3085 C 0.25668 0.34362 0.01636 0.0
C3086 C 0.24606 0.33729 0.05744 0.0
C3087 C 0.2352 0.33416 0.06602 0.0
C3088 C 0.22537 0.32209 0.0663 0.0
C3089 C 0.22669 0.31327 0.05748 0.0
C3090 C 0.23766 0.31641 0.04904 0.0
H3091 H 0.26054 0.34712 0.00297 0.0
H3092 H 0.24709 0.336 0.01477 0.0
H3093 H 0.25654 0.35094 0.02374 0.0
H3094 H 0.25358 0.34659 0.05785 0.0
H3095 H 0.23472 0.34117 0.07301 0.0
H3096 H 0.68528 0.68196 0.32811 0.0
H3097 H 0.70169 0.67844 0.33681 0.0
H3098 H 0.71166 0.70335 0.38054 0.0
H3099 H 0.69519 0.70683 0.37212 0.0
H3100 H 0.72734 0.69426 0.34132 0.0
H3101 H 0.70484 0.67196 0.40474 0.0
H3102 H 0.69695 0.67482 0.38708 0.0
H3103 H 0.70727 0.68681 0.40181 0.0
C3104 C 0.691 0.68676 0.33952 0.0
C3105 C 0.68883 0.69459 0.34953 0.0
C3106 C 0.70039 0.68474 0.34445 0.0
C3107 C 0.70775 0.69047 0.35949 0.0
C3108 C 0.70593 0.69865 0.36909 0.0
H3109 H 0.7626 0.68395 0.41851 0.0
H3110 H 0.74955 0.69075 0.40581 0.0
C3111 C 0.69654 0.70066 0.3642 0.0
C3112 C 0.71706 0.68759 0.36551 0.0
H3113 H 0.72475 0.6756 0.40029 0.0
C3114 C 0.72678 0.69016 0.3542 0.0
C3115 C 0.71627 0.68219 0.38227 0.0
C3116 C 0.70572 0.67866 0.39464 0.0
C3117 C 0.73589 0.68771 0.35939 0.0
C3118 C 0.73513 0.68238 0.37621 0.0
C3119 C 0.72537 0.67976 0.38745 0.0
C3120 C 0.74424 0.6793 0.38252 0.0
C3121 C 0.74638 0.69105 0.347 0.0
C3122 C 0.74576 0.67073 0.3735 0.0
C3123 C 0.75335 0.66688 0.38066 0.0
C3124 C 0.7595 0.67149 0.39704 0.0
C3125 C 0.75822 0.68036 0.40573 0.0
C3126 C 0.75066 0.68419 0.39856 0.0
H3127 H 0.74735 0.69781 0.33692 0.0
H3128 H 0.75514 0.69475 0.35454 0.0
H3129 H 0.74466 0.68285 0.33982 0.0
H3130 H 0.74074 0.66667 0.36126 0.0
H3131 H 0.75418 0.6601 0.37356 0.0
H3132 H 0.30305 0.99869 0.37544 0.0
H3133 H 0.30587 0.0181 0.38445 0.0
H3134 H 0.3318 0.03587 0.34224 0.0
H3135 H 0.32888 0.01651 0.33294 0.0
H3136 H 0.32684 0.03768 0.39631 0.0
H3137 H 0.31023 0.05006 0.33611 0.0
H3138 H 0.30724 0.03499 0.33984 0.0
H3139 H 0.32177 0.04658 0.3313 0.0
C3140 C 0.30924 0.0067 0.36792 0.0
C3141 C 0.31573 0.00603 0.35345 0.0
C3142 C 0.31084 0.01779 0.3731 0.0
C3143 C 0.31892 0.02843 0.36387 0.0
C3144 C 0.3253 0.02776 0.3493 0.0
H3145 H 0.35634 0.10096 0.40551 0.0
H3146 H 0.35031 0.08123 0.39329 0.0
C3147 C 0.32368 0.01668 0.34408 0.0
C3148 C 0.32131 0.0403 0.37027 0.0
H3149 H 0.32182 0.06589 0.35723 0.0
C3150 C 0.32564 0.0438 0.3878 0.0
C3151 C 0.31962 0.04824 0.35924 0.0
C3152 C 0.31434 0.04475 0.34064 0.0
C3153 C 0.32864 0.05512 0.39444 0.0
C3154 C 0.32752 0.06329 0.38314 0.0
C3155 C 0.32283 0.05968 0.36579 0.0
C3156 C 0.33131 0.07566 0.38914 0.0
C3157 C 0.33293 0.0582 0.41356 0.0
C3158 C 0.32274 0.07931 0.39014 0.0
C3159 C 0.3262 0.09071 0.39691 0.0
C3160 C 0.33833 0.09871 0.40269 0.0
C3161 C 0.34696 0.09514 0.40102 0.0
C3162 C 0.3435 0.08377 0.39424 0.0
H3163 H 0.33007 0.04996 0.42165 0.0
H3164 H 0.34308 0.06378 0.41398 0.0
H3165 H 0.3293 0.06344 0.41977 0.0
H3166 H 0.3133 0.07322 0.38612 0.0
H3167 H 0.31936 0.09321 0.39779 0.0
H3168 H 0.99499 0.29195 0.37645 0.0
H3169 H 0.97312 0.28212 0.38169 0.0
H3170 H 0.972 0.31032 0.35244 0.0
H3171 H 0.99419 0.32059 0.34786 0.0
H3172 H 0.9586 0.30504 0.38056 0.0
H3173 H 0.94569 0.2619 0.34854 0.0
H3174 H 0.95699 0.26513 0.36547 0.0
H3175 H 0.96083 0.27506 0.34652 0.0
C3176 C 0.9901 0.29605 0.37103 0.0
C3177 C 0.99629 0.30699 0.36159 0.0
C3178 C 0.97755 0.29035 0.3739 0.0
C3179 C 0.97079 0.29524 0.36696 0.0
C3180 C 0.97698 0.30628 0.35774 0.0
H3181 H 0.89194 0.24575 0.38225 0.0
H3182 H 0.91121 0.25921 0.3669 0.0
C3183 C 0.98965 0.31214 0.35514 0.0
C3184 C 0.9574 0.289 0.37014 0.0
H3185 H 0.93162 0.26095 0.37085 0.0
C3186 C 0.95264 0.29544 0.37812 0.0
C3187 C 0.94945 0.27655 0.36644 0.0
C3188 C 0.9535 0.26933 0.35607 0.0
C3189 C 0.94041 0.28961 0.38364 0.0
C3190 C 0.93287 0.27691 0.38179 0.0
C3191 C 0.9374 0.27064 0.37267 0.0
C3192 C 0.92069 0.26979 0.39036 0.0
C3193 C 0.93577 0.29717 0.39141 0.0
C3194 C 0.91949 0.27128 0.4086 0.0
C3195 C 0.90844 0.2638 0.41721 0.0
C3196 C 0.89843 0.25445 0.40791 0.0
C3197 C 0.89953 0.25295 0.38967 0.0
C3198 C 0.91054 0.26062 0.38093 0.0
H3199 H 0.9404 0.3063 0.38527 0.0
H3200 H 0.92574 0.29291 0.38945 0.0
H3201 H 0.93792 0.2984 0.4059 0.0
H3202 H 0.92726 0.2779 0.41641 0.0
H3203 H 0.9079 0.26497 0.43138 0.0
H3204 H 0.03967 0.36937 0.32646 0.0
H3205 H 0.03889 0.38718 0.31795 0.0
H3206 H 0.02241 0.38606 0.36821 0.0
H3207 H 0.02295 0.36807 0.37673 0.0
H3208 H 0.01035 0.38892 0.34029 0.0
H3209 H 0.06006 0.4218 0.33473 0.0
H3210 H 0.05516 0.4085 0.32161 0.0
H3211 H 0.05405 0.40733 0.34551 0.0
C3212 C 0.03597 0.37296 0.3358 0.0
C3213 C 0.0314 0.3673 0.35231 0.0
C3214 C 0.03561 0.3832 0.33095 0.0
C3215 C 0.03078 0.38809 0.34256 0.0
C3216 C 0.02625 0.38249 0.35908 0.0
H3217 H 0.0373 0.45755 0.31812 0.0
H3218 H 0.03821 0.44131 0.33363 0.0
C3219 C 0.02657 0.37221 0.36394 0.0
C3220 C 0.02992 0.39865 0.33703 0.0
H3221 H 0.04671 0.42742 0.32092 0.0
C3222 C 0.01832 0.39738 0.33625 0.0
C3223 C 0.04033 0.40978 0.33204 0.0
C3224 C 0.05311 0.412 0.33368 0.0
C3225 C 0.0168 0.40675 0.3299 0.0
C3226 C 0.02712 0.4176 0.32386 0.0
C3227 C 0.03878 0.41906 0.32536 0.0
C3228 C 0.02598 0.42731 0.31517 0.0
C3229 C 0.00414 0.40492 0.32972 0.0
C3230 C 0.01884 0.42486 0.29963 0.0
C3231 C 0.0183 0.43409 0.29077 0.0
C3232 C 0.02499 0.44603 0.29716 0.0
C3233 C 0.03208 0.44846 0.31281 0.0
C3234 C 0.03259 0.4392 0.32171 0.0
H3235 H 0.99819 0.39811 0.33976 0.0
H3236 H 0.00448 0.4135 0.33242 0.0
H3237 H 0.99985 0.40157 0.31641 0.0
H3238 H 0.01394 0.41584 0.29404 0.0
H3239 H 0.01298 0.43192 0.27853 0.0
H3240 H 0.613 0.66233 0.36061 0.0
H3241 H 0.60095 0.6406 0.35502 0.0
H3242 H 0.6299 0.6436 0.32224 0.0
H3243 H 0.64229 0.66519 0.32891 0.0
H3244 H 0.59136 0.62965 0.32664 0.0
H3245 H 0.62236 0.61413 0.34796 0.0
H3246 H 0.62558 0.62909 0.35298 0.0
H3247 H 0.62977 0.6259 0.33178 0.0
C3248 C 0.61687 0.65827 0.35252 0.0
C3249 C 0.62858 0.6654 0.34525 0.0
C3250 C 0.60998 0.64586 0.34929 0.0
C3251 C 0.61452 0.64033 0.33837 0.0
C3252 C 0.6263 0.64748 0.3312 0.0
H3253 H 0.56942 0.57812 0.27305 0.0
H3254 H 0.58063 0.5979 0.28734 0.0
C3255 C 0.63335 0.65986 0.33488 0.0
C3256 C 0.60653 0.62739 0.33328 0.0
H3257 H 0.60625 0.60116 0.32721 0.0
C3258 C 0.59459 0.6234 0.32707 0.0
C3259 C 0.61053 0.61905 0.33412 0.0
C3260 C 0.62271 0.62225 0.34228 0.0
C3261 C 0.58676 0.61151 0.32113 0.0
C3262 C 0.59115 0.6035 0.3205 0.0
C3263 C 0.6029 0.60732 0.32735 0.0
C3264 C 0.58394 0.59134 0.31214 0.0
C3265 C 0.57381 0.6077 0.31581 0.0
C3266 C 0.5824 0.58105 0.321 0.0
C3267 C 0.57627 0.56975 0.3126 0.0
C3268 C 0.57142 0.56854 0.29532 0.0
C3269 C 0.57282 0.57878 0.28656 0.0
C3270 C 0.57918 0.59009 0.29477 0.0
H3271 H 0.57059 0.61288 0.32332 0.0
H3272 H 0.57351 0.60963 0.30145 0.0
H3273 H 0.56736 0.59793 0.3182 0.0
H3274 H 0.58606 0.58177 0.33434 0.0
H3275 H 0.57538 0.56198 0.31954 0.0
H3276 H 0.34725 0.99517 0.34154 0.0
H3277 H 0.36908 0.00649 0.33405 0.0
H3278 H 0.36961 0.97351 0.33576 0.0
H3279 H 0.34801 0.9622 0.34332 0.0
H3280 H 0.39038 0.99384 0.35247 0.0
H3281 H 0.38056 0.00349 0.28378 0.0
H3282 H 0.37488 0.00798 0.30211 0.0
H3283 H 0.3687 0.99224 0.29779 0.0
C3284 C 0.35206 0.99036 0.3405 0.0
C3285 C 0.34585 0.97776 0.34285 0.0
C3286 C 0.36451 0.99684 0.33617 0.0
C3287 C 0.3709 0.9908 0.33419 0.0
C3288 C 0.36484 0.97833 0.33722 0.0
H3289 H 0.42803 0.99564 0.27469 0.0
H3290 H 0.40951 0.99182 0.28954 0.0
C3291 C 0.35245 0.97187 0.34146 0.0
C3292 C 0.3837 0.99714 0.32791 0.0
H3293 H 0.40065 0.00854 0.29027 0.0
C3294 C 0.39273 0.9973 0.33899 0.0
C3295 C 0.38665 0.00152 0.31027 0.0
C3296 C 0.37722 0.00128 0.29768 0.0
C3297 C 0.40451 0.00126 0.33263 0.0
C3298 C 0.4073 0.00519 0.31479 0.0
C3299 C 0.39845 0.00554 0.30397 0.0
C3300 C 0.41878 0.00761 0.30645 0.0
C3301 C 0.41368 1.00058 0.34466 0.0
C3302 C 0.43014 0.01775 0.31112 0.0
C3303 C 0.44082 0.01993 0.3027 0.0
C3304 C 0.44027 0.01197 0.28953 0.0
C3305 C 0.42883 0.00181 0.28502 0.0
C3306 C 0.41822 0.99967 0.29337 0.0
H3307 H 0.40964 0.99611 0.35756 0.0
H3308 H 0.41738 0.99554 0.33799 0.0
H3309 H 0.42147 0.00984 0.34745 0.0
H3310 H 0.43073 0.02403 0.3211 0.0
H3311 H 0.44949 0.02783 0.30647 0.0
H3312 H 0.64316 0.98217 0.37031 0.0
H3313 H 0.62567 0.98396 0.36153 0.0
H3314 H 0.62395 0.96792 0.31063 0.0
H3315 H 0.6413 0.96591 0.31937 0.0
H3316 H 0.62385 0.99674 0.33371 0.0
H3317 H 0.58858 0.94821 0.3267 0.0
H3318 H 0.60307 0.95341 0.33788 0.0
H3319 H 0.60202 0.95256 0.31395 0.0
C3320 C 0.63901 0.97893 0.3573 0.0
C3321 C 0.64362 0.97386 0.34557 0.0
C3322 C 0.62901 0.97997 0.3523 0.0
C3323 C 0.62338 0.97591 0.33553 0.0
C3324 C 0.62796 0.97086 0.32379 0.0
H3325 H 0.58075 0.99643 0.27242 0.0
H3326 H 0.59667 0.99454 0.28755 0.0
C3327 C 0.63794 0.96979 0.32878 0.0
C3328 C 0.61308 0.97746 0.32998 0.0
H3329 H 0.58373 0.96218 0.31379 0.0
C3330 C 0.61503 0.98917 0.32952 0.0
C3331 C 0.60152 0.96757 0.32479 0.0
C3332 C 0.5986 0.95472 0.32601 0.0
C3333 C 0.6059 0.9913 0.32337 0.0
C3334 C 0.59458 0.98148 0.31723 0.0
C3335 C 0.59245 0.96972 0.31834 0.0
C3336 C 0.58503 0.98325 0.30884 0.0
C3337 C 0.60846 0.00405 0.32351 0.0
C3338 C 0.57312 0.97741 0.31564 0.0
C3339 C 0.56395 0.97848 0.307 0.0
C3340 C 0.56651 0.98536 0.29132 0.0
C3341 C 0.5785 0.9913 0.28469 0.0
C3342 C 0.58764 0.99022 0.29332 0.0
H3343 H 0.6157 0.00974 0.33343 0.0
H3344 H 0.61171 0.00815 0.31018 0.0
H3345 H 0.60008 0.00423 0.32656 0.0
H3346 H 0.5709 0.97194 0.32757 0.0
H3347 H 0.55484 0.97384 0.31251 0.0
H3348 H 0.03325 0.67443 0.32777 0.0
H3349 H 0.03093 0.65508 0.31961 0.0
H3350 H 0.00294 0.63702 0.35912 0.0
H3351 H 0.00515 0.6563 0.36737 0.0
H3352 H 0.03298 0.63773 0.34225 0.0
H3353 H 0.98674 0.61902 0.31152 0.0
H3354 H 0.99687 0.63495 0.31573 0.0
H3355 H 0.98868 0.62488 0.33374 0.0
C3356 C 0.02662 0.66636 0.33477 0.0
C3357 C 0.01934 0.66692 0.34816 0.0
C3358 C 0.02532 0.65531 0.3301 0.0
C3359 C 0.01666 0.64462 0.33862 0.0
C3360 C 0.00955 0.64516 0.35222 0.0
H3361 H 0.99178 0.5692 0.31579 0.0
H3362 H 0.99498 0.58773 0.32957 0.0
C3363 C 0.01088 0.6562 0.35695 0.0
C3364 C 0.01497 0.63288 0.33308 0.0
H3365 H 0.99466 0.60618 0.31283 0.0
C3366 C 0.02461 0.63081 0.33584 0.0
C3367 C 0.004 0.62386 0.32482 0.0
C3368 C 0.99349 0.62575 0.32112 0.0
C3369 C 0.02356 0.61991 0.3306 0.0
C3370 C 0.01268 0.61098 0.32199 0.0
C3371 C 0.00298 0.61301 0.31947 0.0
C3372 C 0.01132 0.5997 0.31474 0.0
C3373 C 0.03405 0.61803 0.33456 0.0
C3374 C 0.01944 0.60025 0.30185 0.0
C3375 C 0.01765 0.5897 0.294 0.0
C3376 C 0.00762 0.57835 0.29872 0.0
C3377 C 0.99957 0.5778 0.3118 0.0
C3378 C 0.0014 0.58837 0.31971 0.0
H3379 H 0.03978 0.62373 0.34589 0.0
H3380 H 0.03071 0.60843 0.33774 0.0
H3381 H 0.03998 0.62061 0.3227 0.0
H3382 H 0.02695 0.60888 0.2974 0.0
H3383 H 0.02387 0.59048 0.28369 0.0
H3384 H 0.33963 0.38323 0.32899 0.0
H3385 H 0.36124 0.39394 0.32147 0.0
H3386 H 0.36231 0.36171 0.33169 0.0
H3387 H 0.34047 0.35075 0.33887 0.0
H3388 H 0.38167 0.39869 0.3405 0.0
H3389 H 0.37518 0.37036 0.2812 0.0
H3390 H 0.3625 0.36968 0.29256 0.0
H3391 H 0.36998 0.36233 0.3019 0.0
C3392 C 0.34442 0.37838 0.3297 0.0
C3393 C 0.33827 0.36608 0.33438 0.0
C3394 C 0.35681 0.38455 0.32544 0.0
C3395 C 0.36335 0.37859 0.32578 0.0
C3396 C 0.35737 0.36642 0.331 0.0
H3397 H 0.44315 0.42175 0.30786 0.0
H3398 H 0.42341 0.40842 0.32204 0.0
C3399 C 0.34491 0.36019 0.33518 0.0
C3400 C 0.37632 0.38519 0.32013 0.0
H3401 H 0.39517 0.38633 0.28742 0.0
C3402 C 0.38468 0.39594 0.329 0.0
C3403 C 0.38017 0.38162 0.30502 0.0
C3404 C 0.37149 0.37043 0.29449 0.0
C3405 C 0.39668 0.40342 0.32286 0.0
C3406 C 0.40047 0.39992 0.30763 0.0
C3407 C 0.39224 0.38897 0.29912 0.0
C3408 C 0.41254 0.40793 0.29933 0.0
C3409 C 0.40497 0.41528 0.33219 0.0
C3410 C 0.41299 0.41187 0.28176 0.0
C3411 C 0.42421 0.41931 0.27356 0.0
C3412 C 0.43528 0.42303 0.28275 0.0
C3413 C 0.43481 0.41904 0.30038 0.0
C3414 C 0.42354 0.41152 0.30857 0.0
H3415 H 0.39983 0.41778 0.34122 0.0
H3416 H 0.41187 0.41454 0.34031 0.0
H3417 H 0.40992 0.42267 0.32238 0.0
H3418 H 0.40462 0.40917 0.27435 0.0
H3419 H 0.42417 0.42194 0.25984 0.0
H3420 H 0.32591 0.31286 0.33071 0.0
H3421 H 0.32833 0.29623 0.34061 0.0
H3422 H 0.29556 0.28195 0.37178 0.0
H3423 H 0.29326 0.29878 0.3623 0.0
H3424 H 0.31362 0.28308 0.391 0.0
H3425 H 0.31123 0.26126 0.32685 0.0
H3426 H 0.32264 0.27705 0.32657 0.0
H3427 H 0.30676 0.2723 0.32894 0.0
C3428 C 0.31911 0.3061 0.33948 0.0
C3429 C 0.30939 0.30716 0.34571 0.0
C3430 C 0.32046 0.29652 0.34503 0.0
C3431 C 0.31201 0.28769 0.3567 0.0
C3432 C 0.30216 0.28861 0.36268 0.0
H3433 H 0.3167 0.22447 0.38756 0.0
H3434 H 0.30955 0.23727 0.37488 0.0
C3435 C 0.30086 0.29824 0.35725 0.0
C3436 C 0.31404 0.27811 0.36381 0.0
H3437 H 0.32029 0.25653 0.35154 0.0
C3438 C 0.31491 0.27718 0.38235 0.0
C3439 C 0.31555 0.27025 0.35258 0.0
C3440 C 0.31386 0.27017 0.33265 0.0
C3441 C 0.31775 0.26898 0.38993 0.0
C3442 C 0.32009 0.26171 0.37866 0.0
C3443 C 0.31868 0.26224 0.36016 0.0
C3444 C 0.32449 0.25391 0.38587 0.0
C3445 C 0.31822 0.26821 0.40997 0.0
C3446 C 0.33539 0.25904 0.39591 0.0
C3447 C 0.33941 0.25178 0.40331 0.0
C3448 C 0.33274 0.23919 0.40061 0.0
C3449 C 0.32198 0.2341 0.3901 0.0
C3450 C 0.31792 0.2414 0.38275 0.0
H3451 H 0.31252 0.27128 0.4164 0.0
H3452 H 0.31502 0.25885 0.41441 0.0
H3453 H 0.3278 0.27418 0.41469 0.0
H3454 H 0.34075 0.26869 0.39819 0.0
H3455 H 0.34762 0.25604 0.41153 0.0
H3456 H 0.69013 0.0079 0.35075 0.0
H3457 H 0.70232 0.02999 0.3539 0.0
H3458 H 0.73528 0.02864 0.35767 0.0
H3459 H 0.72334 0.00683 0.35432 0.0
H3460 H 0.71693 0.04275 0.38244 0.0
H3461 H 0.74518 0.05565 0.32213 0.0
H3462 H 0.73142 0.04102 0.32457 0.0
H3463 H 0.74574 0.04389 0.33396 0.0
C3464 C 0.69999 0.01235 0.35199 0.0
C3465 C 0.70575 0.00559 0.35226 0.0
C3466 C 0.70694 0.02496 0.35378 0.0
C3467 C 0.71974 0.03099 0.35564 0.0
C3468 C 0.72546 0.02424 0.35574 0.0
H3469 H 0.7808 0.08911 0.40102 0.0
H3470 H 0.76486 0.07135 0.38544 0.0
C3471 C 0.71858 0.01172 0.35399 0.0
C3472 C 0.72719 0.04417 0.3591 0.0
H3473 H 0.75413 0.0694 0.3474 0.0
C3474 C 0.72487 0.0487 0.3745 0.0
C3475 C 0.73751 0.05194 0.34867 0.0
C3476 C 0.74003 0.04789 0.33131 0.0
C3477 C 0.73314 0.06048 0.38054 0.0
C3478 C 0.74395 0.06787 0.37087 0.0
C3479 C 0.74586 0.06366 0.35483 0.0
C3480 C 0.75407 0.07926 0.37849 0.0
C3481 C 0.73074 0.06468 0.39786 0.0
C3482 C 0.7534 0.08971 0.37934 0.0
C3483 C 0.76266 0.10004 0.38804 0.0
C3484 C 0.77268 0.10004 0.39613 0.0
C3485 C 0.77341 0.08961 0.39468 0.0
C3486 C 0.76424 0.07937 0.38589 0.0
H3487 H 0.72212 0.05764 0.40415 0.0
H3488 H 0.73847 0.06726 0.40734 0.0
H3489 H 0.73014 0.07281 0.39543 0.0
H3490 H 0.74563 0.08978 0.37357 0.0
H3491 H 0.76185 0.10794 0.38867 0.0
H3492 H 0.98849 0.67907 0.35881 0.0
H3493 H 0.96647 0.66808 0.36494 0.0
H3494 H 0.96681 0.70151 0.36271 0.0
H3495 H 0.98864 0.7125 0.35652 0.0
H3496 H 0.9558 0.67228 0.39448 0.0
H3497 H 0.93716 0.67895 0.33131 0.0
H3498 H 0.95227 0.68109 0.33308 0.0
H3499 H 0.94963 0.69273 0.34038 0.0
C3500 C 0.98383 0.68405 0.35938 0.0
C3501 C 0.99033 0.69666 0.35719 0.0
C3502 C 0.97126 0.67776 0.36289 0.0
C3503 C 0.96498 0.68396 0.36401 0.0
C3504 C 0.97142 0.69651 0.36152 0.0
H3505 H 0.89753 0.67471 0.40009 0.0
H3506 H 0.91739 0.68117 0.38683 0.0
C3507 C 0.98394 0.70279 0.35812 0.0
C3508 C 0.95194 0.6776 0.36919 0.0
H3509 H 0.92408 0.67311 0.3567 0.0
C3510 C 0.9488 0.67226 0.38612 0.0
C3511 C 0.94287 0.67767 0.35828 0.0
C3512 C 0.94561 0.68281 0.33968 0.0
C3513 C 0.93696 0.66749 0.39278 0.0
C3514 C 0.92796 0.66786 0.38206 0.0
C3515 C 0.93101 0.67287 0.36491 0.0
C3516 C 0.91552 0.66362 0.38879 0.0
C3517 C 0.93434 0.66262 0.41156 0.0
C3518 C 0.90775 0.65154 0.39383 0.0
C3519 C 0.89645 0.64785 0.40157 0.0
C3520 C 0.89265 0.65615 0.40427 0.0
C3521 C 0.90025 0.66813 0.39846 0.0
C3522 C 0.91156 0.67182 0.39077 0.0
H3523 H 0.94288 0.66549 0.41934 0.0
H3524 H 0.92886 0.66565 0.4187 0.0
H3525 H 0.92899 0.6526 0.41111 0.0
H3526 H 0.91054 0.64503 0.39213 0.0
H3527 H 0.89091 0.63858 0.40601 0.0
H3528 H 0.35147 0.01358 0.66233 0.0
H3529 H 0.36755 0.00978 0.67176 0.0
H3530 H 0.38058 0.03841 0.71049 0.0
H3531 H 0.36436 0.04212 0.70141 0.0
H3532 H 0.39292 0.02392 0.67325 0.0
H3533 H 0.37348 0.00935 0.74087 0.0
H3534 H 0.36527 0.01147 0.72291 0.0
H3535 H 0.37713 0.02429 0.73489 0.0
C3536 C 0.3578 0.01913 0.67278 0.0
C3537 C 0.35653 0.02806 0.68126 0.0
C3538 C 0.36701 0.01696 0.67812 0.0
C3539 C 0.37513 0.02366 0.69204 0.0
C3540 C 0.37425 0.03295 0.69998 0.0
H3541 H 0.43926 0.01972 0.72453 0.0
H3542 H 0.42604 0.02643 0.71176 0.0
C3543 C 0.365 0.0351 0.69471 0.0
C3544 C 0.38415 0.02054 0.69869 0.0
H3545 H 0.39212 0.01036 0.73544 0.0
C3546 C 0.39279 0.02098 0.68686 0.0
C3547 C 0.38384 0.01656 0.71638 0.0
C3548 C 0.37437 0.01526 0.72948 0.0
C3549 C 0.40113 0.01754 0.69226 0.0
C3550 C 0.40092 0.01373 0.71003 0.0
C3551 C 0.39232 0.01335 0.72185 0.0
C3552 C 0.40913 0.00956 0.71658 0.0
C3553 C 0.40983 0.01767 0.67877 0.0
C3554 C 0.40404 0.9979 0.72366 0.0
C3555 C 0.41153 0.9941 0.7312 0.0
C3556 C 0.42434 0.00189 0.73184 0.0
C3557 C 0.42945 0.0135 0.72437 0.0
C3558 C 0.42191 0.01732 0.71687 0.0
H3559 H 0.40684 0.01796 0.66489 0.0
H3560 H 0.41903 0.02582 0.68091 0.0
H3561 H 0.41066 0.0096 0.68026 0.0
H3562 H 0.39421 0.99177 0.72367 0.0
H3563 H 0.4072 0.9852 0.73714 0.0
H3564 H 0.9741 0.33275 0.71275 0.0
H3565 H 0.97571 0.35169 0.72111 0.0
H3566 H 0.98313 0.36379 0.66657 0.0
H3567 H 0.98176 0.34491 0.65811 0.0
H3568 H 0.99925 0.38084 0.68939 0.0
H3569 H 0.95223 0.36342 0.71327 0.0
H3570 H 0.95932 0.35615 0.72402 0.0
H3571 H 0.95629 0.35432 0.7004 0.0
C3572 C 0.97595 0.33937 0.70247 0.0
C3573 C 0.97779 0.33729 0.68474 0.0
C3574 C 0.97678 0.35018 0.70726 0.0
C3575 C 0.97933 0.35909 0.69442 0.0
C3576 C 0.98107 0.35701 0.67668 0.0
H3577 H 0.97786 0.42422 0.72214 0.0
H3578 H 0.97366 0.40554 0.70748 0.0
C3579 C 0.98028 0.34621 0.67187 0.0
C3580 C 0.98097 0.37087 0.69977 0.0
H3581 H 0.96743 0.38357 0.72239 0.0
C3582 C 0.99223 0.38145 0.69641 0.0
C3583 C 0.97175 0.37171 0.70868 0.0
C3584 C 0.95918 0.3608 0.71164 0.0
C3585 C 0.99473 0.39275 0.7024 0.0
C3586 C 0.9858 0.39348 0.71233 0.0
C3587 C 0.97433 0.38299 0.71498 0.0
C3588 C 0.98843 0.40491 0.72083 0.0
C3589 C 0.00693 0.40381 0.69808 0.0
C3590 C 0.99799 0.41064 0.73337 0.0
C3591 C 1.0004 0.42125 0.74174 0.0
C3592 C 0.99323 0.42635 0.73787 0.0
C3593 C 0.98354 0.42052 0.72544 0.0
C3594 C 0.98115 0.40988 0.71702 0.0
H3595 H 0.01097 0.40238 0.68604 0.0
H3596 H 0.00606 0.41182 0.69587 0.0
H3597 H 0.01338 0.40579 0.7094 0.0
H3598 H 0.00351 0.4068 0.73691 0.0
H3599 H 0.00772 0.42531 0.75158 0.0
H3600 H 0.66421 0.62281 0.70045 0.0
H3601 H 0.64247 0.6126 0.70679 0.0
H3602 H 0.64232 0.64493 0.69331 0.0
H3603 H 0.66432 0.65541 0.68734 0.0
H3604 H 0.63089 0.63567 0.72385 0.0
H3605 H 0.61298 0.59882 0.67459 0.0
H3606 H 0.625 0.59915 0.68762 0.0
H3607 H 0.62833 0.6118 0.67352 0.0
C3608 C 0.65957 0.62776 0.69863 0.0
C3609 C 0.66603 0.63994 0.69334 0.0
C3610 C 0.64707 0.62185 0.7021 0.0
C3611 C 0.64067 0.62789 0.70012 0.0
C3612 C 0.64705 0.64005 0.69474 0.0
H3613 H 0.5617 0.5824 0.72192 0.0
H3614 H 0.5806 0.59643 0.7062 0.0
C3615 C 0.65962 0.64602 0.69135 0.0
C3616 C 0.62758 0.62172 0.70514 0.0
H3617 H 0.60049 0.5949 0.70083 0.0
C3618 C 0.62418 0.62686 0.71855 0.0
C3619 C 0.6187 0.61035 0.69797 0.0
C3620 C 0.62142 0.60479 0.68248 0.0
C3621 C 0.61243 0.62056 0.72586 0.0
C3622 C 0.60396 0.60868 0.71994 0.0
C3623 C 0.60705 0.60391 0.70563 0.0
C3624 C 0.59236 0.60071 0.72944 0.0
C3625 C 0.60929 0.62664 0.74011 0.0
C3626 C 0.59271 0.59836 0.74763 0.0
C3627 C 0.58197 0.59048 0.75663 0.0
C3628 C 0.57062 0.58456 0.74759 0.0
C3629 C 0.57027 0.58689 0.72931 0.0
C3630 C 0.58106 0.59486 0.7203 0.0
H3631 H 0.61457 0.63661 0.73843 0.0
H3632 H 0.59937 0.62344 0.73993 0.0
H3633 H 0.61175 0.6246 0.75336 0.0
H3634 H 0.60134 0.60251 0.75488 0.0
H3635 H 0.58259 0.58906 0.77075 0.0
H3636 H 0.68122 0.69418 0.70153 0.0
H3637 H 0.67829 0.71061 0.69208 0.0
H3638 H 0.70701 0.72204 0.65364 0.0
H3639 H 0.70985 0.70548 0.66274 0.0
H3640 H 0.6939 0.73543 0.69141 0.0
H3641 H 0.67841 0.71745 0.62302 0.0
H3642 H 0.67978 0.70867 0.64063 0.0
H3643 H 0.69315 0.71982 0.62895 0.0
C3644 C 0.68696 0.70021 0.6911 0.0
C3645 C 0.6957 0.69844 0.68277 0.0
C3646 C 0.68527 0.70961 0.68573 0.0
C3647 C 0.69227 0.71741 0.67193 0.0
C3648 C 0.70131 0.71595 0.66403 0.0
H3649 H 0.69294 0.77637 0.61592 0.0
H3650 H 0.69799 0.76216 0.62896 0.0
C3651 C 0.70296 0.70651 0.66933 0.0
C3652 C 0.68997 0.72695 0.66561 0.0
H3653 H 0.68175 0.7369 0.62883 0.0
C3654 C 0.69121 0.73574 0.67774 0.0
C3655 C 0.68639 0.7273 0.6478 0.0
C3656 C 0.68423 0.71775 0.63437 0.0
C3657 C 0.68921 0.74501 0.67243 0.0
C3658 C 0.68575 0.74541 0.65458 0.0
C3659 C 0.68447 0.73661 0.64248 0.0
C3660 C 0.68334 0.75482 0.64806 0.0
C3661 C 0.69102 0.75443 0.68584 0.0
C3662 C 0.67347 0.75549 0.65459 0.0
C3663 C 0.67058 0.76367 0.64721 0.0
C3664 C 0.67749 0.77131 0.63314 0.0
C3665 C 0.68755 0.77079 0.62695 0.0
C3666 C 0.6904 0.7626 0.63429 0.0
H3667 H 0.69638 0.7545 0.69767 0.0
H3668 H 0.69578 0.76357 0.67975 0.0
H3669 H 0.68195 0.75244 0.69045 0.0
H3670 H 0.66778 0.74943 0.66503 0.0
H3671 H 0.66281 0.76387 0.65233 0.0
H3672 H 0.27888 0.99662 0.67846 0.0
H3673 H 0.26794 0.97494 0.67277 0.0
H3674 H 0.30228 0.97647 0.66796 0.0
H3675 H 0.31338 0.99827 0.67358 0.0
H3676 H 0.28569 0.96517 0.63914 0.0
H3677 H 0.26307 0.94649 0.70384 0.0
H3678 H 0.26097 0.95823 0.6951 0.0
H3679 H 0.27604 0.96167 0.70153 0.0
C3680 C 0.28414 0.99235 0.67641 0.0
C3681 C 0.29702 0.9992 0.67644 0.0
C3682 C 0.27785 0.97993 0.67329 0.0
C3683 C 0.2843 0.97407 0.67018 0.0
C3684 C 0.29715 0.98082 0.67048 0.0
H3685 H 0.25936 0.90208 0.62913 0.0
H3686 H 0.27158 0.92204 0.6425 0.0
C3687 C 0.30347 0.99327 0.6737 0.0
C3688 C 0.27757 0.96114 0.6651 0.0
H3689 H 0.25568 0.93297 0.67905 0.0
C3690 C 0.27924 0.9581 0.64793 0.0
C3691 C 0.26909 0.95198 0.67656 0.0
C3692 C 0.26723 0.9547 0.69535 0.0
C3693 C 0.27237 0.94618 0.64167 0.0
C3694 C 0.26381 0.937 0.65307 0.0
C3695 C 0.26226 0.94001 0.67035 0.0
C3696 C 0.25621 0.92428 0.64705 0.0
C3697 C 0.27404 0.94361 0.62266 0.0
C3698 C 0.24342 0.91863 0.64604 0.0
C3699 C 0.23632 0.90706 0.6387 0.0
C3700 C 0.2419 0.90092 0.63225 0.0
C3701 C 0.25469 0.90642 0.63411 0.0
C3702 C 0.26174 0.91794 0.64153 0.0
H3703 H 0.27852 0.95196 0.61446 0.0
H3704 H 0.27993 0.93966 0.62254 0.0
H3705 H 0.26511 0.93705 0.61634 0.0
H3706 H 0.23895 0.92333 0.65039 0.0
H3707 H 0.22649 0.90303 0.63776 0.0
H3708 H 0.01767 0.29826 0.68284 0.0
H3709 H 0.03937 0.31018 0.676 0.0
H3710 H 0.03665 0.34169 0.66791 0.0
H3711 H 0.01473 0.32972 0.67469 0.0
H3712 H 0.04735 0.33695 0.63977 0.0
H3713 H 0.06937 0.33607 0.70315 0.0
H3714 H 0.05727 0.32125 0.69673 0.0
H3715 H 0.05377 0.33267 0.70189 0.0
C3716 C 0.02168 0.30777 0.67986 0.0
C3717 C 0.01444 0.31303 0.67925 0.0
C3718 C 0.03414 0.31461 0.67612 0.0
C3719 C 0.03968 0.32687 0.67172 0.0
C3720 C 0.03257 0.33226 0.67146 0.0
H3721 H 0.11793 0.36375 0.64277 0.0
H3722 H 0.0992 0.36035 0.6571 0.0
C3723 C 0.02006 0.32542 0.67534 0.0
C3724 C 0.05253 0.33353 0.66557 0.0
H3725 H 0.081 0.33895 0.67634 0.0
C3726 C 0.05478 0.33765 0.6479 0.0
C3727 C 0.06226 0.33459 0.67623 0.0
C3728 C 0.06058 0.33102 0.69562 0.0
C3729 C 0.06626 0.34194 0.64022 0.0
C3730 C 0.07567 0.34199 0.65042 0.0
C3731 C 0.07371 0.33875 0.66847 0.0
C3732 C 0.08707 0.34418 0.64208 0.0
C3733 C 0.06811 0.346 0.62104 0.0
C3734 C 0.08642 0.33608 0.6292 0.0
C3735 C 0.09702 0.33795 0.62111 0.0
C3736 C 0.10853 0.34796 0.62576 0.0
C3737 C 0.10919 0.356 0.63885 0.0
C3738 C 0.09853 0.35407 0.64706 0.0
H3739 H 0.06156 0.34877 0.61679 0.0
H3740 H 0.07759 0.35367 0.61889 0.0
H3741 H 0.06656 0.33841 0.6124 0.0
H3742 H 0.07768 0.3283 0.62536 0.0
H3743 H 0.09616 0.33168 0.6109 0.0
H3744 H 0.29189 0.28163 0.68736 0.0
H3745 H 0.27517 0.28461 0.67824 0.0
H3746 H 0.30094 0.31773 0.65181 0.0
H3747 H 0.31769 0.3148 0.66069 0.0
H3748 H 0.27163 0.3042 0.68487 0.0
H3749 H 0.2755 0.29793 0.61267 0.0
H3750 H 0.28267 0.29365 0.62963 0.0
H3751 H 0.2895 0.30921 0.62322 0.0
C3752 C 0.29401 0.28955 0.6796 0.0
C3753 C 0.30613 0.29793 0.67463 0.0
C3754 C 0.28444 0.29125 0.67445 0.0
C3755 C 0.2868 0.30131 0.66416 0.0
C3756 C 0.2989 0.3098 0.6595 0.0
H3757 H 0.23834 0.32836 0.63987 0.0
H3758 H 0.25425 0.32526 0.6526 0.0
C3759 C 0.30847 0.30813 0.66464 0.0
C3760 C 0.27658 0.30283 0.65808 0.0
H3761 H 0.26203 0.30448 0.62068 0.0
C3762 C 0.2695 0.30424 0.67084 0.0
C3763 C 0.27374 0.30274 0.63979 0.0
C3764 C 0.28066 0.30069 0.6255 0.0
C3765 C 0.25973 0.30574 0.66576 0.0
C3766 C 0.25709 0.30595 0.64744 0.0
C3767 C 0.26411 0.3044 0.63472 0.0
C3768 C 0.24696 0.30752 0.64103 0.0
C3769 C 0.25219 0.30687 0.68003 0.0
C3770 C 0.23762 0.29863 0.63024 0.0
C3771 C 0.22862 0.30043 0.62279 0.0
C3772 C 0.22876 0.3112 0.62592 0.0
C3773 C 0.23798 0.31999 0.63711 0.0
C3774 C 0.24702 0.31818 0.64455 0.0
H3775 H 0.25339 0.30353 0.69311 0.0
H3776 H 0.25513 0.31652 0.68159 0.0
H3777 H 0.24232 0.30178 0.67633 0.0
H3778 H 0.23745 0.29038 0.62726 0.0
H3779 H 0.22185 0.29356 0.61397 0.0
H3780 H 0.68287 0.99432 0.70459 0.0
H3781 H 0.68097 0.97503 0.69711 0.0
H3782 H 0.69302 0.98782 0.64375 0.0
H3783 H 0.69517 0.00713 0.65116 0.0
H3784 H 0.66654 0.95833 0.67192 0.0
H3785 H 0.71531 0.97555 0.6582 0.0
H3786 H 0.7103 0.98451 0.66935 0.0
H3787 H 0.70949 0.98328 0.64543 0.0
C3788 C 0.6852 0.99306 0.6913 0.0
C3789 C 0.68925 0.00231 0.67851 0.0
C3790 C 0.6841 0.98202 0.68705 0.0
C3791 C 0.68706 0.98005 0.66997 0.0
C3792 C 0.69098 0.98923 0.65715 0.0
H3793 H 0.66394 0.91505 0.61153 0.0
H3794 H 0.66587 0.93257 0.62664 0.0
C3795 C 0.69213 1.00026 0.66139 0.0
C3796 C 0.68566 0.96828 0.66525 0.0
H3797 H 0.70087 0.95574 0.64716 0.0
C3798 C 0.67408 0.95773 0.6667 0.0
C3799 C 0.69554 0.96745 0.65875 0.0
C3800 C 0.70838 0.97829 0.65801 0.0
C3801 C 0.67199 0.94649 0.66109 0.0
C3802 C 0.68168 0.94581 0.65349 0.0
C3803 C 0.69339 0.95626 0.65279 0.0
C3804 C 0.67981 0.93452 0.6454 0.0
C3805 C 0.6594 0.93545 0.66336 0.0
C3806 C 0.68711 0.92984 0.65071 0.0
C3807 C 0.68607 0.91983 0.64199 0.0
C3808 C 0.67772 0.91431 0.62775 0.0
C3809 C 0.67027 0.9189 0.62269 0.0
C3810 C 0.67136 0.92893 0.63135 0.0
H3811 H 0.65443 0.93667 0.67437 0.0
H3812 H 0.65399 0.9339 0.65092 0.0
H3813 H 0.6599 0.92728 0.66612 0.0
H3814 H 0.69374 0.93404 0.66146 0.0
H3815 H 0.6919 0.91648 0.64627 0.0
H3816 H 0.00421 0.68483 0.65631 0.0
H3817 H 0.02605 0.69667 0.64932 0.0
H3818 H 0.02868 0.7281 0.67336 0.0
H3819 H 0.0068 0.71648 0.67947 0.0
H3820 H 0.03826 0.73373 0.64253 0.0
H3821 H 0.05714 0.70889 0.67669 0.0
H3822 H 0.04478 0.69924 0.66189 0.0
H3823 H 0.04191 0.7058 0.68087 0.0
C3824 C 0.00952 0.69421 0.66035 0.0
C3825 C 0.00382 0.69977 0.66832 0.0
C3826 C 0.02203 0.70096 0.65648 0.0
C3827 C 0.0291 0.71328 0.66099 0.0
C3828 C 0.02345 0.71864 0.66971 0.0
H3829 H 0.10849 0.75802 0.64421 0.0
H3830 H 0.08827 0.74609 0.65801 0.0
C3831 C 0.01095 0.71199 0.6732 0.0
C3832 C 0.04198 0.72092 0.65505 0.0
H3833 H 0.06969 0.72292 0.65396 0.0
C3834 C 0.04515 0.73141 0.64525 0.0
C3835 C 0.05107 0.71805 0.65875 0.0
C3836 C 0.04859 0.70745 0.67029 0.0
C3837 C 0.05698 0.73891 0.63871 0.0
C3838 C 0.06585 0.73561 0.64141 0.0
C3839 C 0.06284 0.72534 0.65166 0.0
C3840 C 0.07812 0.74255 0.6332 0.0
C3841 C 0.05987 0.75036 0.62912 0.0
C3842 C 0.07912 0.74429 0.61469 0.0
C3843 C 0.09058 0.7512 0.60689 0.0
C3844 C 0.10131 0.75633 0.61738 0.0
C3845 C 0.10035 0.75422 0.63585 0.0
C3846 C 0.08883 0.74741 0.64371 0.0
H3847 H 0.05373 0.75355 0.63336 0.0
H3848 H 0.0695 0.75771 0.63154 0.0
H3849 H 0.05846 0.74857 0.61458 0.0
H3850 H 0.07102 0.7403 0.60624 0.0
H3851 H 0.09106 0.75242 0.59256 0.0
H3852 H 0.97273 0.63424 0.65075 0.0
H3853 H 0.97361 0.61651 0.65966 0.0
H3854 H 0.96659 0.62136 0.71404 0.0
H3855 H 0.96542 0.63891 0.70521 0.0
H3856 H 0.98897 0.61453 0.68287 0.0
H3857 H 0.94122 0.58612 0.70582 0.0
H3858 H 0.94635 0.59972 0.69299 0.0
H3859 H 0.94923 0.60056 0.71664 0.0
C3860 C 0.97128 0.63149 0.66459 0.0
C3861 C 0.96892 0.63796 0.67724 0.0
C3862 C 0.97182 0.62136 0.66967 0.0
C3863 C 0.96996 0.61747 0.68747 0.0
C3864 C 0.96774 0.62399 0.70015 0.0
H3865 H 0.99167 0.5729 0.74279 0.0
H3866 H 0.9907 0.58927 0.72817 0.0
C3867 C 0.96715 0.63408 0.69508 0.0
C3868 C 0.97069 0.6068 0.69289 0.0
H3869 H 0.95502 0.5797 0.7144 0.0
C3870 C 0.98151 0.60686 0.68962 0.0
C3871 C 0.96088 0.59669 0.70142 0.0
C3872 C 0.94872 0.59568 0.70427 0.0
C3873 C 0.98293 0.59727 0.69518 0.0
C3874 C 0.97337 0.58747 0.70459 0.0
C3875 C 0.96241 0.58725 0.70734 0.0
C3876 C 0.97461 0.57753 0.71221 0.0
C3877 C 0.99463 0.5977 0.69076 0.0
C3878 C 0.96584 0.56543 0.70827 0.0
C3879 C 0.96631 0.55603 0.71674 0.0
C3880 C 0.97559 0.55854 0.72934 0.0
C3881 C 0.98456 0.57065 0.7329 0.0
C3882 C 0.98402 0.58004 0.72452 0.0
H3883 H 0.99908 0.60346 0.67892 0.0
H3884 H 1.00113 0.60167 0.70218 0.0
H3885 H 0.99294 0.58853 0.68817 0.0
H3886 H 0.95847 0.56326 0.69886 0.0
H3887 H 0.95931 0.54679 0.71366 0.0
H3888 H 0.36125 0.34268 0.67568 0.0
H3889 H 0.37338 0.36472 0.67934 0.0
H3890 H 0.40017 0.36141 0.71036 0.0
H3891 H 0.38849 0.33966 0.70609 0.0
H3892 H 0.37966 0.37865 0.70705 0.0
H3893 H 0.4224 0.38713 0.6771 0.0
H3894 H 0.4083 0.37275 0.67495 0.0
H3895 H 0.41814 0.37602 0.69423 0.0
C3896 C 0.36979 0.3467 0.68312 0.0
C3897 C 0.37399 0.33945 0.6904 0.0
C3898 C 0.37672 0.35928 0.68519 0.0
C3899 C 0.3879 0.36479 0.69469 0.0
C3900 C 0.39187 0.35748 0.70235 0.0
H3901 H 0.42253 0.42598 0.76051 0.0
H3902 H 0.40813 0.40777 0.74419 0.0
C3903 C 0.3851 0.34499 0.70004 0.0
C3904 C 0.39519 0.37807 0.69758 0.0
H3905 H 0.42469 0.40174 0.69948 0.0
C3906 C 0.38948 0.38377 0.70504 0.0
C3907 C 0.40794 0.38496 0.6944 0.0
C3908 C 0.41449 0.3799 0.68452 0.0
C3909 C 0.3963 0.39586 0.71071 0.0
C3910 C 0.40924 0.40225 0.70958 0.0
C3911 C 0.41481 0.39684 0.70079 0.0
C3912 C 0.41725 0.41398 0.71881 0.0
C3913 C 0.38953 0.40154 0.718 0.0
C3914 C 0.42743 0.42354 0.71022 0.0
C3915 C 0.43592 0.43385 0.71975 0.0
C3916 C 0.43426 0.43488 0.73796 0.0
C3917 C 0.42388 0.42553 0.74638 0.0
C3918 C 0.41557 0.41514 0.73699 0.0
H3919 H 0.38052 0.39788 0.71116 0.0
H3920 H 0.38772 0.3993 0.73235 0.0
H3921 H 0.39482 0.41151 0.71645 0.0
H3922 H 0.42901 0.42286 0.69626 0.0
H3923 H 0.44389 0.44093 0.713 0.0
H3924 H 0.65957 0.05083 0.68733 0.0
H3925 H 0.63817 0.04121 0.69585 0.0
H3926 H 0.63462 0.00628 0.69378 0.0
H3927 H 0.65618 0.01587 0.68547 0.0
H3928 H 0.6167 0.02364 0.67861 0.0
H3929 H 0.62332 0.00747 0.74421 0.0
H3930 H 0.63599 0.01846 0.73104 0.0
H3931 H 0.62817 0.00273 0.72522 0.0
C3932 C 0.65427 0.04109 0.68863 0.0
C3933 C 0.65964 0.03413 0.68585 0.0
C3934 C 0.64201 0.03561 0.69347 0.0
C3935 C 0.63486 0.02306 0.69569 0.0
C3936 C 0.64005 0.01601 0.69245 0.0
H3937 H 0.56098 0.97874 0.73667 0.0
H3938 H 0.58059 0.98565 0.7224 0.0
C3939 C 0.65236 0.0215 0.68761 0.0
C3940 C 0.62205 0.0175 0.70177 0.0
H3941 H 0.60327 0.00243 0.73661 0.0
C3942 C 0.61374 0.01896 0.69126 0.0
C3943 C 0.61823 0.01141 0.71829 0.0
C3944 C 0.62689 0.00998 0.73046 0.0
C3945 C 0.60169 0.0145 0.69684 0.0
C3946 C 0.59794 0.00861 0.71349 0.0
C3947 C 0.60618 0.00695 0.72384 0.0
C3948 C 0.58561 0.00434 0.72072 0.0
C3949 C 0.59305 0.01606 0.68481 0.0
C3950 C 0.58189 0.01256 0.72445 0.0
C3951 C 0.57063 0.00862 0.73251 0.0
C3952 C 0.56289 0.99639 0.73706 0.0
C3953 C 0.56659 0.98818 0.73305 0.0
C3954 C 0.57785 0.99212 0.72502 0.0
H3955 H 0.59617 0.01767 0.67077 0.0
H3956 H 0.58365 0.008 0.68528 0.0
H3957 H 0.59267 0.02399 0.68932 0.0
H3958 H 0.58784 0.02207 0.72155 0.0
H3959 H 0.56803 0.01517 0.73535 0.0
loop_
_geom_bond_atom_site_label_1
_geom_bond_atom_site_label_2
_geom_bond_distance
_geom_bond_site_symmetry_2
_ccdc_geom_bond_type
Zn0 O3 2.066 . S
Zn0 O5 2.049 . S
Zn0 O10 2.049 1_554 S
Zn1 O2 1.962 1_455 S
Zn1 O4 1.986 . S
Zn1 O6 1.996 1_455 S
Zn1 O9 1.943 . S
O2 Zn1 1.962 1_655 S
O2 C7 1.254 . S
O3 Zn0 2.066 . S
O3 C7 1.291 . S
O4 Zn1 1.986 . S
O4 C11 1.262 . S
O5 Zn0 2.049 . S
O5 C13 1.260 . S
O6 Zn1 1.996 1_655 S
O6 C13 1.257 . S
C7 O2 1.254 . S
C7 O3 1.291 . S
C8 O9 1.249 1_556 S
C8 O10 1.282 1_455 S
O9 Zn1 1.943 . S
O9 C8 1.249 1_554 S
O10 Zn0 2.049 1_556 S
O10 C8 1.282 1_655 S
C11 O4 1.262 . S
C11 O12 1.232 . S
O12 C11 1.232 . S
C13 O5 1.260 . S
C13 O6 1.257 . S
Zn14 O17 2.031 . S
Zn14 O19 2.049 . S
Zn14 O24 2.063 1_554 S
Zn15 O16 1.962 . S
Zn15 O18 1.986 . S
Zn15 O20 1.996 . S
Zn15 O23 1.943 . S
O16 Zn15 1.962 . S
O16 C21 1.254 . S
O17 Zn14 2.031 . S
O17 C21 1.269 . S
O18 Zn15 1.986 . S
O18 C25 1.262 . S
O19 Zn14 2.049 . S
O19 C27 1.260 . S
O20 Zn15 1.996 . S
O20 C27 1.257 . S
C21 O16 1.254 . S
C21 O17 1.269 . S
C22 O23 1.249 1_556 S
C22 O24 1.273 . S
O23 Zn15 1.943 . S
O23 C22 1.249 1_554 S
O24 Zn14 2.063 1_556 S
O24 C22 1.273 . S
C25 O18 1.262 . S
C25 O26 1.232 . S
O26 C25 1.232 . S
C27 O19 1.260 . S
C27 O20 1.257 . S
Zn28 O31 2.031 . S
Zn28 O33 2.049 1_554 S
Zn28 O38 2.067 . S
Zn29 O30 1.962 1_545 S
Zn29 O32 1.986 1_554 S
Zn29 O34 1.996 1_544 S
Zn29 O37 1.943 . S
O30 Zn29 1.962 1_565 S
O30 C35 1.254 . S
O31 Zn28 2.031 . S
O31 C35 1.269 . S
O32 Zn29 1.986 1_556 S
O32 C39 1.262 1_556 S
O33 Zn28 2.049 1_556 S
O33 C41 1.260 . S
O34 Zn29 1.996 1_566 S
O34 C41 1.257 . S
C35 O30 1.254 . S
C35 O31 1.269 . S
C36 O37 1.249 . S
C36 O38 1.270 1_545 S
O37 Zn29 1.943 . S
O37 C36 1.249 . S
O38 Zn28 2.067 . S
O38 C36 1.270 1_565 S
C39 O32 1.262 1_554 S
C39 O40 1.232 . S
O40 C39 1.232 . S
C41 O33 1.260 . S
C41 O34 1.257 . S
Zn42 O45 2.031 . S
Zn42 O47 2.049 1_554 S
Zn42 O52 2.067 . S
Zn43 O44 1.962 1_655 S
Zn43 O46 1.986 1_554 S
Zn43 O48 1.996 1_654 S
Zn43 O51 1.943 . S
O44 Zn43 1.962 1_455 S
O44 C49 1.254 . S
O45 Zn42 2.031 . S
O45 C49 1.269 . S
O46 Zn43 1.986 1_556 S
O46 C53 1.262 1_556 S
O47 Zn42 2.049 1_556 S
O47 C55 1.260 . S
O48 Zn43 1.996 1_456 S
O48 C55 1.257 . S
C49 O44 1.254 . S
C49 O45 1.269 . S
C50 O51 1.331 . S
C50 O52 1.175 1_655 S
O51 Zn43 1.943 . S
O51 C50 1.331 . S
O52 Zn42 2.067 . S
O52 C50 1.175 1_455 S
C53 O46 1.262 1_554 S
C53 O54 1.232 . S
O54 C53 1.232 . S
C55 O47 1.260 . S
C55 O48 1.257 . S
Zn56 O59 2.031 . S
Zn56 O61 2.049 1_554 S
Zn56 O66 2.067 . S
Zn57 O58 1.962 . S
Zn57 O60 1.986 1_554 S
Zn57 O62 1.996 1_554 S
Zn57 O65 1.943 . S
O58 Zn57 1.962 . S
O58 C63 1.254 . S
O59 Zn56 2.031 . S
O59 C63 1.269 . S
O60 Zn57 1.986 1_556 S
O60 C67 1.262 1_556 S
O61 Zn56 2.049 1_556 S
O61 C69 1.260 . S
O62 Zn57 1.996 1_556 S
O62 C69 1.257 . S
C63 O58 1.254 . S
C63 O59 1.269 . S
C64 O65 1.249 . S
C64 O66 1.270 . S
O65 Zn57 1.943 . S
O65 C64 1.249 . S
O66 Zn56 2.067 . S
O66 C64 1.270 . S
C67 O60 1.262 1_554 S
C67 O68 1.232 . S
O68 C67 1.232 . S
C69 O61 1.260 . S
C69 O62 1.257 . S
Zn70 O73 2.031 . S
Zn70 O75 2.049 . S
Zn70 O80 2.067 . S
Zn71 O72 1.962 1_565 S
Zn71 O74 1.986 . S
Zn71 O76 1.996 1_565 S
Zn71 O79 1.943 . S
O72 Zn71 1.962 1_545 S
O72 C77 1.254 . S
O73 Zn70 2.031 . S
O73 C77 1.269 . S
O74 Zn71 1.986 . S
O74 C81 1.262 . S
O75 Zn70 2.049 . S
O75 C83 1.260 . S
O76 Zn71 1.996 1_545 S
O76 C83 1.257 . S
C77 O72 1.254 . S
C77 O73 1.269 . S
C78 O79 1.249 1_556 S
C78 O80 1.270 1_566 S
O79 Zn71 1.943 . S
O79 C78 1.249 1_554 S
O80 Zn70 2.067 . S
O80 C78 1.270 1_544 S
C81 O74 1.262 . S
C81 O82 1.232 . S
O82 C81 1.232 . S
C83 O75 1.260 . S
C83 O76 1.257 . S
Zn84 O87 2.031 . S
Zn84 O89 2.049 . S
Zn84 O94 2.067 . S
Zn85 O86 1.962 . S
Zn85 O88 1.986 . S
Zn85 O90 1.996 . S
Zn85 O93 1.943 . S
O86 Zn85 1.962 . S
O86 C91 1.254 . S
O87 Zn84 2.031 . S
O87 C91 1.269 . S
O88 Zn85 1.986 . S
O88 C95 1.262 . S
O89 Zn84 2.049 . S
O89 C97 1.260 . S
O90 Zn85 1.996 . S
O90 C97 1.257 . S
C91 O86 1.254 . S
C91 O87 1.269 . S
C92 O93 1.249 . S
C92 O94 1.270 . S
O93 Zn85 1.943 . S
O93 C92 1.249 . S
O94 Zn84 2.067 . S
O94 C92 1.270 . S
C95 O88 1.262 . S
C95 O96 1.232 . S
O96 C95 1.232 . S
C97 O89 1.260 . S
C97 O90 1.257 . S
Zn98 O101 2.031 . S
Zn98 O103 2.049 . S
Zn98 O108 2.067 . S
Zn99 O100 1.962 . S
Zn99 O102 1.986 . S
Zn99 O104 1.996 . S
Zn99 O107 1.943 . S
O100 Zn99 1.962 . S
O100 C105 1.254 . S
O101 Zn98 2.031 . S
O101 C105 1.269 . S
O102 Zn99 1.986 . S
O102 C109 1.262 1_565 S
O103 Zn98 2.049 . S
O103 C111 1.260 . S
O104 Zn99 1.996 . S
O104 C111 1.257 . S
C105 O100 1.254 . S
C105 O101 1.269 . S
C106 O107 1.249 . S
C106 O108 1.270 . S
O107 Zn99 1.943 . S
O107 C106 1.249 . S
O108 Zn98 2.067 . S
O108 C106 1.270 . S
C109 O102 1.262 1_545 S
C109 O110 1.232 . S
O110 C109 1.232 . S
C111 O103 1.260 . S
C111 O104 1.257 . S
Zn112 O115 2.031 . S
Zn112 O117 2.049 . S
Zn112 O122 2.067 . S
Zn113 O114 1.962 . S
Zn113 O116 1.986 . S
Zn113 O118 1.996 . S
Zn113 O121 1.943 . S
O114 Zn113 1.962 . S
O114 C119 1.254 . S
O115 Zn112 2.031 . S
O115 C119 1.269 . S
O116 Zn113 1.986 . S
O116 C123 1.262 . S
O117 Zn112 2.049 . S
O117 C125 1.260 . S
O118 Zn113 1.996 . S
O118 C125 1.257 . S
C119 O114 1.254 . S
C119 O115 1.269 . S
C120 O121 1.249 . S
C120 O122 1.270 . S
O121 Zn113 1.943 . S
O121 C120 1.249 . S
O122 Zn112 2.067 . S
O122 C120 1.270 . S
C123 O116 1.262 . S
C123 O124 1.232 . S
O124 C123 1.232 . S
C125 O117 1.260 . S
C125 O118 1.257 . S
Zn126 O129 2.031 . S
Zn126 O131 2.049 . S
Zn126 O136 2.067 . S
Zn127 O128 1.962 . S
Zn127 O130 1.986 . S
Zn127 O132 1.996 . S
Zn127 O135 1.943 . S
O128 Zn127 1.962 . S
O128 C133 1.254 . S
O129 Zn126 2.031 . S
O129 C133 1.269 . S
O130 Zn127 1.986 . S
O130 C137 1.262 . S
O131 Zn126 2.049 . S
O131 C139 1.260 . S
O132 Zn127 1.996 . S
O132 C139 1.257 . S
C133 O128 1.254 . S
C133 O129 1.269 . S
C134 O135 1.249 . S
C134 O136 1.270 . S
O135 Zn127 1.943 . S
O135 C134 1.249 . S
O136 Zn126 2.067 . S
O136 C134 1.270 . S
C137 O130 1.262 . S
C137 O138 1.232 . S
O138 C137 1.232 . S
C139 O131 1.260 . S
C139 O132 1.257 . S
Zn140 O143 2.031 . S
Zn140 O145 2.049 . S
Zn140 O150 2.067 . S
Zn141 O142 1.962 . S
Zn141 O144 1.986 . S
Zn141 O146 1.996 . S
Zn141 O149 1.943 . S
O142 Zn141 1.962 . S
O142 C147 1.254 . S
O143 Zn140 2.031 . S
O143 C147 1.269 . S
O144 Zn141 1.986 . S
O144 C151 1.262 . S
O145 Zn140 2.049 . S
O145 C153 1.260 . S
O146 Zn141 1.996 . S
O146 C153 1.257 . S
C147 O142 1.254 . S
C147 O143 1.269 . S
C148 O149 1.249 . S
C148 O150 1.270 . S
O149 Zn141 1.943 . S
O149 C148 1.249 . S
O150 Zn140 2.067 . S
O150 C148 1.270 . S
C151 O144 1.262 . S
C151 O152 1.232 . S
O152 C151 1.232 . S
C153 O145 1.260 . S
C153 O146 1.257 . S
Zn154 O157 2.031 . S
Zn154 O159 2.049 . S
Zn154 O164 2.067 . S
Zn155 O156 1.962 . S
Zn155 O158 1.986 . S
Zn155 O160 1.996 . S
Zn155 O163 1.943 . S
O156 Zn155 1.962 . S
O156 C161 1.254 . S
O157 Zn154 2.031 . S
O157 C161 1.269 . S
O158 Zn155 1.986 . S
O158 C165 1.262 . S
O159 Zn154 2.049 . S
O159 C167 1.260 . S
O160 Zn155 1.996 . S
O160 C167 1.257 . S
C161 O156 1.254 . S
C161 O157 1.269 . S
C162 O163 1.249 . S
C162 O164 1.270 . S
O163 Zn155 1.943 . S
O163 C162 1.249 . S
O164 Zn154 2.067 . S
O164 C162 1.270 . S
C165 O158 1.262 . S
C165 O166 1.232 . S
O166 C165 1.232 . S
C167 O159 1.260 . S
C167 O160 1.257 . S
Zn168 O171 2.031 . S
Zn168 O173 2.049 . S
Zn168 O178 2.067 . S
Zn169 O170 1.962 . S
Zn169 O172 1.986 . S
Zn169 O174 1.996 . S
Zn169 O177 1.943 . S
O170 Zn169 1.962 . S
O170 C175 1.254 . S
O171 Zn168 2.031 . S
O171 C175 1.269 . S
O172 Zn169 1.986 . S
O172 C179 1.262 . S
O173 Zn168 2.049 . S
O173 C181 1.260 . S
O174 Zn169 1.996 . S
O174 C181 1.257 . S
C175 O170 1.254 . S
C175 O171 1.269 . S
C176 O177 1.249 . S
C176 O178 1.270 . S
O177 Zn169 1.943 . S
O177 C176 1.249 . S
O178 Zn168 2.067 . S
O178 C176 1.270 . S
C179 O172 1.262 . S
C179 O180 1.232 . S
O180 C179 1.232 . S
C181 O173 1.260 . S
C181 O174 1.257 . S
Zn182 O185 2.031 . S
Zn182 O187 2.049 . S
Zn182 O192 2.067 . S
Zn183 O184 1.962 . S
Zn183 O186 1.986 . S
Zn183 O188 1.996 . S
Zn183 O191 1.943 . S
O184 Zn183 1.962 . S
O184 C189 1.254 . S
O185 Zn182 2.031 . S
O185 C189 1.269 . S
O186 Zn183 1.986 . S
O186 C193 1.262 . S
O187 Zn182 2.049 . S
O187 C195 1.260 . S
O188 Zn183 1.996 . S
O188 C195 1.257 . S
C189 O184 1.254 . S
C189 O185 1.269 . S
C190 O191 1.249 . S
C190 O192 1.270 . S
O191 Zn183 1.943 . S
O191 C190 1.249 . S
O192 Zn182 2.067 . S
O192 C190 1.270 . S
C193 O186 1.262 . S
C193 O194 1.232 . S
O194 C193 1.232 . S
C195 O187 1.260 . S
C195 O188 1.257 . S
Zn196 O199 2.031 . S
Zn196 O201 2.049 . S
Zn196 O206 2.067 . S
Zn197 O198 1.962 . S
Zn197 O200 1.986 . S
Zn197 O202 1.996 . S
Zn197 O205 1.943 . S
O198 Zn197 1.962 . S
O198 C203 1.254 . S
O199 Zn196 2.031 . S
O199 C203 1.269 . S
O200 Zn197 1.986 . S
O200 C207 1.262 . S
O201 Zn196 2.049 . S
O201 C209 1.260 . S
O202 Zn197 1.996 . S
O202 C209 1.257 . S
C203 O198 1.254 . S
C203 O199 1.269 . S
C204 O205 1.249 . S
C204 O206 1.270 . S
O205 Zn197 1.943 . S
O205 C204 1.249 . S
O206 Zn196 2.067 . S
O206 C204 1.270 . S
C207 O200 1.262 . S
C207 O208 1.232 . S
O208 C207 1.232 . S
C209 O201 1.260 . S
C209 O202 1.257 . S
Zn210 O213 2.031 . S
Zn210 O215 2.049 . S
Zn210 O220 2.067 . S
Zn211 O212 1.962 . S
Zn211 O214 1.986 . S
Zn211 O216 1.996 . S
Zn211 O219 1.943 . S
O212 Zn211 1.962 . S
O212 C217 1.254 . S
O213 Zn210 2.031 . S
O213 C217 1.269 . S
O214 Zn211 1.986 . S
O214 C221 1.262 . S
O215 Zn210 2.049 . S
O215 C223 1.260 . S
O216 Zn211 1.996 . S
O216 C223 1.257 . S
C217 O212 1.254 . S
C217 O213 1.269 . S
C218 O219 1.249 . S
C218 O220 1.270 . S
O219 Zn211 1.943 . S
O219 C218 1.249 . S
O220 Zn210 2.067 . S
O220 C218 1.270 . S
C221 O214 1.262 . S
C221 O222 1.232 . S
O222 C221 1.232 . S
C223 O215 1.260 . S
C223 O216 1.257 . S
Zn224 O227 2.031 . S
Zn224 O229 2.049 . S
Zn224 O234 2.067 . S
Zn225 O226 1.962 . S
Zn225 O228 1.986 . S
Zn225 O230 1.996 . S
Zn225 O233 1.943 . S
O226 Zn225 1.962 . S
O226 C231 1.254 . S
O227 Zn224 2.031 . S
O227 C231 1.269 . S
O228 Zn225 1.986 . S
O228 C235 1.321 . S
O229 Zn224 2.049 . S
O229 C237 1.260 . S
O230 Zn225 1.996 . S
O230 C237 1.257 . S
C231 O226 1.254 . S
C231 O227 1.269 . S
C232 O233 1.249 . S
C232 O234 1.270 . S
O233 Zn225 1.943 . S
O233 C232 1.249 . S
O234 Zn224 2.067 . S
O234 C232 1.270 . S
C235 O228 1.321 . S
C235 O236 1.235 . S
O236 C235 1.235 . S
C237 O229 1.260 . S
C237 O230 1.257 . S
Zn238 O241 2.031 . S
Zn238 O243 2.049 . S
Zn238 O248 2.067 . S
Zn239 O240 1.962 . S
Zn239 O242 1.986 . S
Zn239 O244 1.996 . S
Zn239 O247 1.943 . S
O240 Zn239 1.962 . S
O240 C245 1.254 . S
O241 Zn238 2.031 . S
O241 C245 1.269 . S
O242 Zn239 1.986 . S
O242 C249 1.262 . S
O243 Zn238 2.049 . S
O243 C251 1.260 . S
O244 Zn239 1.996 . S
O244 C251 1.257 . S
C245 O240 1.254 . S
C245 O241 1.269 . S
C246 O247 1.249 . S
C246 O248 1.270 . S
O247 Zn239 1.943 . S
O247 C246 1.249 . S
O248 Zn238 2.067 . S
O248 C246 1.270 . S
C249 O242 1.262 . S
C249 O250 1.232 . S
O250 C249 1.232 . S
C251 O243 1.260 . S
C251 O244 1.257 . S
H252 C279 0.929 . S
N253 C278 1.433 . S
N253 C284 1.435 . S
N253 C290 1.423 . S
H254 C280 0.930 . S
H255 C283 0.931 . S
H256 C282 0.929 . S
H257 C285 0.930 . S
H258 C286 0.932 . S
H259 C289 0.929 . S
H260 C288 0.931 . S
H261 C291 0.929 . S
H262 C295 0.932 . S
H263 C292 0.931 . S
H264 C294 0.929 . S
H265 C297 0.929 . S
H266 C298 0.930 . S
H267 C300 0.929 . S
H268 C301 0.931 . S
H269 C303 0.930 . S
H270 C304 0.932 . S
H271 C306 0.931 . S
H272 C307 0.929 . S
H273 C309 0.929 . S
H274 C310 0.931 . S
H275 C312 0.929 . S
N276 C296 1.433 . S
N276 C302 1.435 . S
N276 C308 1.423 . S
H277 C313 0.932 . S
C278 N253 1.433 . S
C278 C279 1.363 . S
C278 C283 1.370 . S
C279 H252 0.929 . S
C279 C278 1.363 . S
C279 C280 1.385 . S
C280 H254 0.930 . S
C280 C279 1.385 . S
C280 C281 1.357 . S
C281 C280 1.357 . S
C281 C282 1.406 . S
C282 H256 0.929 . S
C282 C281 1.406 . S
C282 C283 1.391 . S
C283 H255 0.931 . S
C283 C278 1.370 . S
C283 C282 1.391 . S
C284 N253 1.435 . S
C284 C285 1.358 . S
C284 C289 1.371 . S
C285 H257 0.930 . S
C285 C284 1.358 . S
C285 C286 1.405 . S
C286 H258 0.932 . S
C286 C285 1.405 . S
C286 C287 1.383 . S
C287 C286 1.383 . S
C287 C288 1.393 . S
C288 H260 0.931 . S
C288 C287 1.393 . S
C288 C289 1.382 . S
C289 H259 0.929 . S
C289 C284 1.371 . S
C289 C288 1.382 . S
C290 N253 1.423 . S
C290 C291 1.362 . S
C290 C295 1.388 . S
C291 H261 0.929 . S
C291 C290 1.362 . S
C291 C292 1.376 . S
C292 H263 0.931 . S
C292 C291 1.376 . S
C292 C293 1.396 . S
C293 C292 1.396 . S
C293 C294 1.348 . S
C293 C311 1.472 . S
C294 H264 0.929 . S
C294 C293 1.348 . S
C294 C295 1.443 . S
C295 H262 0.932 . S
C295 C290 1.388 . S
C295 C294 1.443 . S
C296 N276 1.433 . S
C296 C297 1.363 . S
C296 C301 1.370 . S
C297 H265 0.929 . S
C297 C296 1.363 . S
C297 C298 1.385 . S
C298 H266 0.930 . S
C298 C297 1.385 . S
C298 C299 1.357 . S
C299 C298 1.357 . S
C299 C300 1.406 . S
C300 H267 0.929 . S
C300 C299 1.406 . S
C300 C301 1.391 . S
C301 H268 0.931 . S
C301 C296 1.370 . S
C301 C300 1.391 . S
C302 N276 1.435 . S
C302 C303 1.358 . S
C302 C307 1.371 . S
C303 H269 0.930 . S
C303 C302 1.358 . S
C303 C304 1.405 . S
C304 H270 0.932 . S
C304 C303 1.405 . S
C304 C305 1.383 . S
C305 C304 1.383 . S
C305 C306 1.393 . S
C306 H271 0.931 . S
C306 C305 1.393 . S
C306 C307 1.382 . S
C307 H272 0.929 . S
C307 C302 1.371 . S
C307 C306 1.382 . S
C308 N276 1.423 . S
C308 C309 1.362 . S
C308 C313 1.388 . S
C309 H273 0.929 . S
C309 C308 1.362 . S
C309 C310 1.376 . S
C310 H274 0.931 . S
C310 C309 1.376 . S
C310 C311 1.396 . S
C311 C293 1.472 . S
C311 C310 1.396 . S
C311 C312 1.348 . S
C312 H275 0.929 . S
C312 C311 1.348 . S
C312 C313 1.443 . S
C313 H277 0.932 . S
C313 C308 1.388 . S
C313 C312 1.443 . S
H314 C341 0.929 . S
N315 C340 1.433 . S
N315 C346 1.435 . S
N315 C352 1.423 . S
H316 C342 0.930 . S
H317 C345 0.931 . S
H318 C344 0.929 . S
H319 C347 0.930 . S
H320 C348 0.932 . S
H321 C351 0.929 . S
H322 C350 0.931 . S
H323 C353 0.929 . S
H324 C357 0.932 . S
H325 C354 0.931 . S
H326 C356 0.929 . S
H327 C359 0.929 . S
H328 C360 0.930 . S
H329 C362 0.929 . S
H330 C363 0.931 . S
H331 C365 0.930 . S
H332 C366 0.932 . S
H333 C368 0.931 . S
H334 C369 0.929 . S
H335 C371 0.929 . S
H336 C372 0.931 . S
H337 C374 0.929 . S
N338 C358 1.433 . S
N338 C364 1.435 . S
N338 C370 1.423 . S
H339 C375 0.932 . S
C340 N315 1.433 . S
C340 C341 1.363 . S
C340 C345 1.370 . S
C341 H314 0.929 . S
C341 C340 1.363 . S
C341 C342 1.385 . S
C342 H316 0.930 . S
C342 C341 1.385 . S
C342 C343 1.357 . S
C343 C342 1.357 . S
C343 C344 1.406 . S
C344 H318 0.929 . S
C344 C343 1.406 . S
C344 C345 1.391 . S
C345 H317 0.931 . S
C345 C340 1.370 . S
C345 C344 1.391 . S
C346 N315 1.435 . S
C346 C347 1.358 . S
C346 C351 1.371 . S
C347 H319 0.930 . S
C347 C346 1.358 . S
C347 C348 1.405 . S
C348 H320 0.932 . S
C348 C347 1.405 . S
C348 C349 1.383 . S
C349 C348 1.383 . S
C349 C350 1.393 . S
C350 H322 0.931 . S
C350 C349 1.393 . S
C350 C351 1.382 . S
C351 H321 0.929 . S
C351 C346 1.371 . S
C351 C350 1.382 . S
C352 N315 1.423 . S
C352 C353 1.362 . S
C352 C357 1.388 . S
C353 H323 0.929 . S
C353 C352 1.362 . S
C353 C354 1.376 . S
C354 H325 0.931 . S
C354 C353 1.376 . S
C354 C355 1.396 . S
C355 C354 1.396 . S
C355 C356 1.348 . S
C355 C373 1.472 . S
C356 H326 0.929 . S
C356 C355 1.348 . S
C356 C357 1.443 . S
C357 H324 0.932 . S
C357 C352 1.388 . S
C357 C356 1.443 . S
C358 N338 1.433 . S
C358 C359 1.363 . S
C358 C363 1.370 . S
C359 H327 0.929 . S
C359 C358 1.363 . S
C359 C360 1.385 . S
C360 H328 0.930 . S
C360 C359 1.385 . S
C360 C361 1.357 . S
C361 C360 1.357 . S
C361 C362 1.406 . S
C362 H329 0.929 . S
C362 C361 1.406 . S
C362 C363 1.391 . S
C363 H330 0.931 . S
C363 C358 1.370 . S
C363 C362 1.391 . S
C364 N338 1.435 . S
C364 C365 1.358 . S
C364 C369 1.371 . S
C365 H331 0.930 . S
C365 C364 1.358 . S
C365 C366 1.405 . S
C366 H332 0.932 . S
C366 C365 1.405 . S
C366 C367 1.383 . S
C367 C366 1.383 . S
C367 C368 1.393 . S
C368 H333 0.931 . S
C368 C367 1.393 . S
C368 C369 1.382 . S
C369 H334 0.929 . S
C369 C364 1.371 . S
C369 C368 1.382 . S
C370 N338 1.423 . S
C370 C371 1.362 . S
C370 C375 1.388 . S
C371 H335 0.929 . S
C371 C370 1.362 . S
C371 C372 1.376 . S
C372 H336 0.931 . S
C372 C371 1.376 . S
C372 C373 1.396 . S
C373 C355 1.472 . S
C373 C372 1.396 . S
C373 C374 1.348 . S
C374 H337 0.929 . S
C374 C373 1.348 . S
C374 C375 1.443 . S
C375 H339 0.932 . S
C375 C370 1.388 . S
C375 C374 1.443 . S
H376 C403 0.929 . S
N377 C402 1.433 . S
N377 C408 1.435 . S
N377 C414 1.423 . S
H378 C404 0.930 . S
H379 C407 0.931 . S
H380 C406 0.929 . S
H381 C409 0.930 . S
H382 C410 0.932 . S
H383 C413 0.929 . S
H384 C412 0.931 . S
H385 C415 0.929 . S
H386 C419 0.932 . S
H387 C416 0.931 . S
H388 C418 0.929 . S
H389 C421 0.929 . S
H390 C422 0.930 . S
H391 C424 0.929 . S
H392 C425 0.931 . S
H393 C427 0.930 . S
H394 C428 0.932 . S
H395 C430 0.931 . S
H396 C431 0.929 . S
H397 C433 0.929 . S
H398 C434 0.931 . S
H399 C436 0.929 . S
N400 C420 1.433 . S
N400 C426 1.435 . S
N400 C432 1.423 . S
H401 C437 0.932 . S
C402 N377 1.433 . S
C402 C403 1.363 . S
C402 C407 1.370 . S
C403 H376 0.929 . S
C403 C402 1.363 . S
C403 C404 1.385 . S
C404 H378 0.930 . S
C404 C403 1.385 . S
C404 C405 1.357 . S
C405 C404 1.357 . S
C405 C406 1.406 . S
C406 H380 0.929 . S
C406 C405 1.406 . S
C406 C407 1.391 . S
C407 H379 0.931 . S
C407 C402 1.370 . S
C407 C406 1.391 . S
C408 N377 1.435 . S
C408 C409 1.358 . S
C408 C413 1.371 . S
C409 H381 0.930 . S
C409 C408 1.358 . S
C409 C410 1.405 . S
C410 H382 0.932 . S
C410 C409 1.405 . S
C410 C411 1.383 . S
C411 C410 1.383 . S
C411 C412 1.393 . S
C412 H384 0.931 . S
C412 C411 1.393 . S
C412 C413 1.382 . S
C413 H383 0.929 . S
C413 C408 1.371 . S
C413 C412 1.382 . S
C414 N377 1.423 . S
C414 C415 1.362 . S
C414 C419 1.388 . S
C415 H385 0.929 . S
C415 C414 1.362 . S
C415 C416 1.376 . S
C416 H387 0.931 . S
C416 C415 1.376 . S
C416 C417 1.396 . S
C417 C416 1.396 . S
C417 C418 1.348 . S
C417 C435 1.472 . S
C418 H388 0.929 . S
C418 C417 1.348 . S
C418 C419 1.443 . S
C419 H386 0.932 . S
C419 C414 1.388 . S
C419 C418 1.443 . S
C420 N400 1.433 . S
C420 C421 1.363 . S
C420 C425 1.370 . S
C421 H389 0.929 . S
C421 C420 1.363 . S
C421 C422 1.385 . S
C422 H390 0.930 . S
C422 C421 1.385 . S
C422 C423 1.357 . S
C423 C422 1.357 . S
C423 C424 1.406 . S
C424 H391 0.929 . S
C424 C423 1.406 . S
C424 C425 1.391 . S
C425 H392 0.931 . S
C425 C420 1.370 . S
C425 C424 1.391 . S
C426 N400 1.435 . S
C426 C427 1.358 . S
C426 C431 1.371 . S
C427 H393 0.930 . S
C427 C426 1.358 . S
C427 C428 1.405 . S
C428 H394 0.932 . S
C428 C427 1.405 . S
C428 C429 1.383 . S
C429 C428 1.383 . S
C429 C430 1.393 . S
C430 H395 0.931 . S
C430 C429 1.393 . S
C430 C431 1.382 . S
C431 H396 0.929 . S
C431 C426 1.371 . S
C431 C430 1.382 . S
C432 N400 1.423 . S
C432 C433 1.362 . S
C432 C437 1.388 . S
C433 H397 0.929 . S
C433 C432 1.362 . S
C433 C434 1.376 . S
C434 H398 0.931 . S
C434 C433 1.376 . S
C434 C435 1.396 . S
C435 C417 1.472 . S
C435 C434 1.396 . S
C435 C436 1.348 . S
C436 H399 0.929 . S
C436 C435 1.348 . S
C436 C437 1.443 . S
C437 H401 0.932 . S
C437 C432 1.388 . S
C437 C436 1.443 . S
H438 C465 0.929 . S
N439 C464 1.433 . S
N439 C470 1.435 . S
N439 C476 1.423 . S
H440 C466 0.930 . S
H441 C469 0.931 . S
H442 C468 0.929 . S
H443 C471 0.930 . S
H444 C472 0.932 . S
H445 C475 0.929 . S
H446 C474 0.931 . S
H447 C477 0.929 . S
H448 C481 0.932 . S
H449 C478 0.931 . S
H450 C480 0.929 . S
H451 C483 0.929 . S
H452 C484 0.930 . S
H453 C486 0.929 . S
H454 C487 0.931 . S
H455 C489 0.930 . S
H456 C490 0.932 . S
H457 C492 0.931 . S
H458 C493 0.929 . S
H459 C495 0.929 . S
H460 C496 0.931 . S
H461 C498 0.929 . S
N462 C482 1.433 . S
N462 C488 1.435 . S
N462 C494 1.423 . S
H463 C499 0.932 . S
C464 N439 1.433 . S
C464 C465 1.363 . S
C464 C469 1.370 . S
C465 H438 0.929 . S
C465 C464 1.363 . S
C465 C466 1.385 . S
C466 H440 0.930 . S
C466 C465 1.385 . S
C466 C467 1.357 . S
C467 C466 1.357 . S
C467 C468 1.406 . S
C468 H442 0.929 . S
C468 C467 1.406 . S
C468 C469 1.391 . S
C469 H441 0.931 . S
C469 C464 1.370 . S
C469 C468 1.391 . S
C470 N439 1.435 . S
C470 C471 1.358 . S
C470 C475 1.371 . S
C471 H443 0.930 . S
C471 C470 1.358 . S
C471 C472 1.405 . S
C472 H444 0.932 . S
C472 C471 1.405 . S
C472 C473 1.383 . S
C473 C472 1.383 . S
C473 C474 1.393 . S
C474 H446 0.931 . S
C474 C473 1.393 . S
C474 C475 1.382 . S
C475 H445 0.929 . S
C475 C470 1.371 . S
C475 C474 1.382 . S
C476 N439 1.423 . S
C476 C477 1.362 . S
C476 C481 1.388 . S
C477 H447 0.929 . S
C477 C476 1.362 . S
C477 C478 1.376 . S
C478 H449 0.931 . S
C478 C477 1.376 . S
C478 C479 1.396 . S
C479 C478 1.396 . S
C479 C480 1.348 . S
C479 C497 1.472 . S
C480 H450 0.929 . S
C480 C479 1.348 . S
C480 C481 1.443 . S
C481 H448 0.932 . S
C481 C476 1.388 . S
C481 C480 1.443 . S
C482 N462 1.433 . S
C482 C483 1.363 . S
C482 C487 1.370 . S
C483 H451 0.929 . S
C483 C482 1.363 . S
C483 C484 1.385 . S
C484 H452 0.930 . S
C484 C483 1.385 . S
C484 C485 1.357 . S
C485 C484 1.357 . S
C485 C486 1.406 . S
C486 H453 0.929 . S
C486 C485 1.406 . S
C486 C487 1.391 . S
C487 H454 0.931 . S
C487 C482 1.370 . S
C487 C486 1.391 . S
C488 N462 1.435 . S
C488 C489 1.358 . S
C488 C493 1.371 . S
C489 H455 0.930 . S
C489 C488 1.358 . S
C489 C490 1.405 . S
C490 H456 0.932 . S
C490 C489 1.405 . S
C490 C491 1.383 . S
C491 C490 1.383 . S
C491 C492 1.393 . S
C492 H457 0.931 . S
C492 C491 1.393 . S
C492 C493 1.382 . S
C493 H458 0.929 . S
C493 C488 1.371 . S
C493 C492 1.382 . S
C494 N462 1.423 . S
C494 C495 1.362 . S
C494 C499 1.388 . S
C495 H459 0.929 . S
C495 C494 1.362 . S
C495 C496 1.376 . S
C496 H460 0.931 . S
C496 C495 1.376 . S
C496 C497 1.396 . S
C497 C479 1.472 . S
C497 C496 1.396 . S
C497 C498 1.348 . S
C498 H461 0.929 . S
C498 C497 1.348 . S
C498 C499 1.443 . S
C499 H463 0.932 . S
C499 C494 1.388 . S
C499 C498 1.443 . S
H500 C527 0.929 . S
N501 C526 1.433 . S
N501 C532 1.435 . S
N501 C538 1.423 . S
H502 C528 0.930 . S
H503 C531 0.931 . S
H504 C530 0.929 . S
H505 C533 0.930 . S
H506 C534 0.932 . S
H507 C537 0.929 . S
H508 C536 0.931 . S
H509 C539 0.929 . S
H510 C543 0.932 . S
H511 C540 0.931 . S
H512 C542 0.929 . S
H513 C545 0.929 . S
H514 C546 0.930 . S
H515 C548 0.929 . S
H516 C549 0.931 . S
H517 C551 0.930 . S
H518 C552 0.932 . S
H519 C554 0.931 . S
H520 C555 0.929 . S
H521 C557 0.929 . S
H522 C558 0.931 . S
H523 C560 0.929 . S
N524 C544 1.433 . S
N524 C550 1.435 . S
N524 C556 1.423 . S
H525 C561 0.932 . S
C526 N501 1.433 . S
C526 C527 1.363 . S
C526 C531 1.370 . S
C527 H500 0.929 . S
C527 C526 1.363 . S
C527 C528 1.385 . S
C528 H502 0.930 . S
C528 C527 1.385 . S
C528 C529 1.357 . S
C529 C528 1.357 . S
C529 C530 1.406 . S
C530 H504 0.929 . S
C530 C529 1.406 . S
C530 C531 1.391 . S
C531 H503 0.931 . S
C531 C526 1.370 . S
C531 C530 1.391 . S
C532 N501 1.435 . S
C532 C533 1.358 . S
C532 C537 1.371 . S
C533 H505 0.930 . S
C533 C532 1.358 . S
C533 C534 1.405 . S
C534 H506 0.932 . S
C534 C533 1.405 . S
C534 C535 1.383 . S
C535 C534 1.383 . S
C535 C536 1.393 . S
C536 H508 0.931 . S
C536 C535 1.393 . S
C536 C537 1.382 . S
C537 H507 0.929 . S
C537 C532 1.371 . S
C537 C536 1.382 . S
C538 N501 1.423 . S
C538 C539 1.362 . S
C538 C543 1.388 . S
C539 H509 0.929 . S
C539 C538 1.362 . S
C539 C540 1.376 . S
C540 H511 0.931 . S
C540 C539 1.376 . S
C540 C541 1.396 . S
C541 C540 1.396 . S
C541 C542 1.348 . S
C541 C559 1.472 . S
C542 H512 0.929 . S
C542 C541 1.348 . S
C542 C543 1.443 . S
C543 H510 0.932 . S
C543 C538 1.388 . S
C543 C542 1.443 . S
C544 N524 1.433 . S
C544 C545 1.363 . S
C544 C549 1.370 . S
C545 H513 0.929 . S
C545 C544 1.363 . S
C545 C546 1.385 . S
C546 H514 0.930 . S
C546 C545 1.385 . S
C546 C547 1.357 . S
C547 C546 1.357 . S
C547 C548 1.406 . S
C548 H515 0.929 . S
C548 C547 1.406 . S
C548 C549 1.391 . S
C549 H516 0.931 . S
C549 C544 1.370 . S
C549 C548 1.391 . S
C550 N524 1.435 . S
C550 C551 1.358 . S
C550 C555 1.371 . S
C551 H517 0.930 . S
C551 C550 1.358 . S
C551 C552 1.405 . S
C552 H518 0.932 . S
C552 C551 1.405 . S
C552 C553 1.383 . S
C553 C552 1.383 . S
C553 C554 1.393 . S
C554 H519 0.931 . S
C554 C553 1.393 . S
C554 C555 1.382 . S
C555 H520 0.929 . S
C555 C550 1.371 . S
C555 C554 1.382 . S
C556 N524 1.423 . S
C556 C557 1.362 . S
C556 C561 1.388 . S
C557 H521 0.929 . S
C557 C556 1.362 . S
C557 C558 1.376 . S
C558 H522 0.931 . S
C558 C557 1.376 . S
C558 C559 1.396 . S
C559 C541 1.472 . S
C559 C558 1.396 . S
C559 C560 1.348 . S
C560 H523 0.929 . S
C560 C559 1.348 . S
C560 C561 1.443 . S
C561 H525 0.932 . S
C561 C556 1.388 . S
C561 C560 1.443 . S
H562 C589 0.929 . S
N563 C588 1.433 . S
N563 C594 1.435 . S
N563 C600 1.423 . S
H564 C590 0.930 . S
H565 C593 0.931 . S
H566 C592 0.929 . S
H567 C595 0.930 . S
H568 C596 0.932 . S
H569 C599 0.929 . S
H570 C598 0.931 . S
H571 C601 0.929 . S
H572 C605 0.932 . S
H573 C602 0.931 . S
H574 C604 0.929 . S
H575 C607 0.929 . S
H576 C608 0.930 . S
H577 C610 0.929 . S
H578 C611 0.931 . S
H579 C613 0.930 . S
H580 C614 0.932 . S
H581 C616 0.931 . S
H582 C617 0.929 . S
H583 C619 0.929 . S
H584 C620 0.931 . S
H585 C622 0.929 . S
N586 C606 1.433 . S
N586 C612 1.435 . S
N586 C618 1.423 . S
H587 C623 0.932 . S
C588 N563 1.433 . S
C588 C589 1.363 . S
C588 C593 1.370 . S
C589 H562 0.929 . S
C589 C588 1.363 . S
C589 C590 1.385 . S
C590 H564 0.930 . S
C590 C589 1.385 . S
C590 C591 1.357 . S
C591 C590 1.357 . S
C591 C592 1.406 . S
C592 H566 0.929 . S
C592 C591 1.406 . S
C592 C593 1.391 . S
C593 H565 0.931 . S
C593 C588 1.370 . S
C593 C592 1.391 . S
C594 N563 1.435 . S
C594 C595 1.358 . S
C594 C599 1.371 . S
C595 H567 0.930 . S
C595 C594 1.358 . S
C595 C596 1.405 . S
C596 H568 0.932 . S
C596 C595 1.405 . S
C596 C597 1.383 . S
C597 C596 1.383 . S
C597 C598 1.393 . S
C598 H570 0.931 . S
C598 C597 1.393 . S
C598 C599 1.382 . S
C599 H569 0.929 . S
C599 C594 1.371 . S
C599 C598 1.382 . S
C600 N563 1.423 . S
C600 C601 1.362 . S
C600 C605 1.388 . S
C601 H571 0.929 . S
C601 C600 1.362 . S
C601 C602 1.376 . S
C602 H573 0.931 . S
C602 C601 1.376 . S
C602 C603 1.396 . S
C603 C602 1.396 . S
C603 C604 1.348 . S
C603 C621 1.472 . S
C604 H574 0.929 . S
C604 C603 1.348 . S
C604 C605 1.443 . S
C605 H572 0.932 . S
C605 C600 1.388 . S
C605 C604 1.443 . S
C606 N586 1.433 . S
C606 C607 1.363 . S
C606 C611 1.370 . S
C607 H575 0.929 . S
C607 C606 1.363 . S
C607 C608 1.385 . S
C608 H576 0.930 . S
C608 C607 1.385 . S
C608 C609 1.357 . S
C609 C608 1.357 . S
C609 C610 1.406 . S
C610 H577 0.929 . S
C610 C609 1.406 . S
C610 C611 1.391 . S
C611 H578 0.931 . S
C611 C606 1.370 . S
C611 C610 1.391 . S
C612 N586 1.435 . S
C612 C613 1.358 . S
C612 C617 1.371 . S
C613 H579 0.930 . S
C613 C612 1.358 . S
C613 C614 1.405 . S
C614 H580 0.932 . S
C614 C613 1.405 . S
C614 C615 1.383 . S
C615 C614 1.383 . S
C615 C616 1.393 . S
C616 H581 0.931 . S
C616 C615 1.393 . S
C616 C617 1.382 . S
C617 H582 0.929 . S
C617 C612 1.371 . S
C617 C616 1.382 . S
C618 N586 1.423 . S
C618 C619 1.362 . S
C618 C623 1.388 . S
C619 H583 0.929 . S
C619 C618 1.362 . S
C619 C620 1.376 . S
C620 H584 0.931 . S
C620 C619 1.376 . S
C620 C621 1.396 . S
C621 C603 1.472 . S
C621 C620 1.396 . S
C621 C622 1.348 . S
C622 H585 0.929 . S
C622 C621 1.348 . S
C622 C623 1.443 . S
C623 H587 0.932 . S
C623 C618 1.388 . S
C623 C622 1.443 . S
H624 C651 0.929 . S
N625 C650 1.433 . S
N625 C656 1.435 . S
N625 C662 1.423 . S
H626 C652 0.930 . S
H627 C655 0.931 . S
H628 C654 0.929 . S
H629 C657 0.930 . S
H630 C658 0.932 . S
H631 C661 0.929 . S
H632 C660 0.931 . S
H633 C663 0.929 . S
H634 C667 0.932 . S
H635 C664 0.931 . S
H636 C666 0.929 . S
H637 C669 0.929 . S
H638 C670 0.930 . S
H639 C672 0.929 . S
H640 C673 0.931 . S
H641 C675 0.930 . S
H642 C676 0.932 . S
H643 C678 0.931 . S
H644 C679 0.929 . S
H645 C681 0.929 . S
H646 C682 0.931 . S
H647 C684 0.929 . S
N648 C668 1.433 . S
N648 C674 1.435 . S
N648 C680 1.423 . S
H649 C685 0.932 . S
C650 N625 1.433 . S
C650 C651 1.363 . S
C650 C655 1.370 . S
C651 H624 0.929 . S
C651 C650 1.363 . S
C651 C652 1.385 . S
C652 H626 0.930 . S
C652 C651 1.385 . S
C652 C653 1.357 . S
C653 C652 1.357 . S
C653 C654 1.406 . S
C654 H628 0.929 . S
C654 C653 1.406 . S
C654 C655 1.391 . S
C655 H627 0.931 . S
C655 C650 1.370 . S
C655 C654 1.391 . S
C656 N625 1.435 . S
C656 C657 1.358 . S
C656 C661 1.371 . S
C657 H629 0.930 . S
C657 C656 1.358 . S
C657 C658 1.405 . S
C658 H630 0.932 . S
C658 C657 1.405 . S
C658 C659 1.383 . S
C659 C658 1.383 . S
C659 C660 1.393 . S
C660 H632 0.931 . S
C660 C659 1.393 . S
C660 C661 1.382 . S
C661 H631 0.929 . S
C661 C656 1.371 . S
C661 C660 1.382 . S
C662 N625 1.423 . S
C662 C663 1.362 . S
C662 C667 1.388 . S
C663 H633 0.929 . S
C663 C662 1.362 . S
C663 C664 1.376 . S
C664 H635 0.931 . S
C664 C663 1.376 . S
C664 C665 1.396 . S
C665 C664 1.396 . S
C665 C666 1.348 . S
C665 C683 1.472 . S
C666 H636 0.929 . S
C666 C665 1.348 . S
C666 C667 1.443 . S
C667 H634 0.932 . S
C667 C662 1.388 . S
C667 C666 1.443 . S
C668 N648 1.433 . S
C668 C669 1.363 . S
C668 C673 1.370 . S
C669 H637 0.929 . S
C669 C668 1.363 . S
C669 C670 1.385 . S
C670 H638 0.930 . S
C670 C669 1.385 . S
C670 C671 1.357 . S
C671 C670 1.357 . S
C671 C672 1.406 . S
C672 H639 0.929 . S
C672 C671 1.406 . S
C672 C673 1.391 . S
C673 H640 0.931 . S
C673 C668 1.370 . S
C673 C672 1.391 . S
C674 N648 1.435 . S
C674 C675 1.358 . S
C674 C679 1.371 . S
C675 H641 0.930 . S
C675 C674 1.358 . S
C675 C676 1.405 . S
C676 H642 0.932 . S
C676 C675 1.405 . S
C676 C677 1.383 . S
C677 C676 1.383 . S
C677 C678 1.393 . S
C678 H643 0.931 . S
C678 C677 1.393 . S
C678 C679 1.382 . S
C679 H644 0.929 . S
C679 C674 1.371 . S
C679 C678 1.382 . S
C680 N648 1.423 . S
C680 C681 1.362 . S
C680 C685 1.388 . S
C681 H645 0.929 . S
C681 C680 1.362 . S
C681 C682 1.376 . S
C682 H646 0.931 . S
C682 C681 1.376 . S
C682 C683 1.396 . S
C683 C665 1.472 . S
C683 C682 1.396 . S
C683 C684 1.348 . S
C684 H647 0.929 . S
C684 C683 1.348 . S
C684 C685 1.443 . S
C685 H649 0.932 . S
C685 C680 1.388 . S
C685 C684 1.443 . S
H686 C713 0.929 . S
N687 C712 1.433 . S
N687 C718 1.435 . S
N687 C724 1.423 . S
H688 C714 0.930 . S
H689 C717 0.931 . S
H690 C716 0.929 . S
H691 C719 0.930 . S
H692 C720 0.932 . S
H693 C723 0.929 . S
H694 C722 0.931 . S
H695 C725 0.929 . S
H696 C729 0.932 . S
H697 C726 0.931 . S
H698 C728 0.929 . S
H699 C731 0.929 . S
H700 C732 0.930 . S
H701 C734 0.929 . S
H702 C735 0.931 . S
H703 C737 0.930 . S
H704 C738 0.932 . S
H705 C740 0.931 . S
H706 C741 0.929 . S
H707 C743 0.929 . S
H708 C744 0.931 . S
H709 C746 0.929 . S
N710 C730 1.433 . S
N710 C736 1.435 . S
N710 C742 1.423 . S
H711 C747 0.932 . S
C712 N687 1.433 . S
C712 C713 1.363 . S
C712 C717 1.370 . S
C713 H686 0.929 . S
C713 C712 1.363 . S
C713 C714 1.385 . S
C714 H688 0.930 . S
C714 C713 1.385 . S
C714 C715 1.357 . S
C715 C714 1.357 . S
C715 C716 1.406 . S
C716 H690 0.929 . S
C716 C715 1.406 . S
C716 C717 1.391 . S
C717 H689 0.931 . S
C717 C712 1.370 . S
C717 C716 1.391 . S
C718 N687 1.435 . S
C718 C719 1.358 . S
C718 C723 1.371 . S
C719 H691 0.930 . S
C719 C718 1.358 . S
C719 C720 1.405 . S
C720 H692 0.932 . S
C720 C719 1.405 . S
C720 C721 1.383 . S
C721 C720 1.383 . S
C721 C722 1.393 . S
C722 H694 0.931 . S
C722 C721 1.393 . S
C722 C723 1.382 . S
C723 H693 0.929 . S
C723 C718 1.371 . S
C723 C722 1.382 . S
C724 N687 1.423 . S
C724 C725 1.362 . S
C724 C729 1.388 . S
C725 H695 0.929 . S
C725 C724 1.362 . S
C725 C726 1.376 . S
C726 H697 0.931 . S
C726 C725 1.376 . S
C726 C727 1.396 . S
C727 C726 1.396 . S
C727 C728 1.348 . S
C727 C745 1.472 . S
C728 H698 0.929 . S
C728 C727 1.348 . S
C728 C729 1.443 . S
C729 H696 0.932 . S
C729 C724 1.388 . S
C729 C728 1.443 . S
C730 N710 1.433 . S
C730 C731 1.363 . S
C730 C735 1.370 . S
C731 H699 0.929 . S
C731 C730 1.363 . S
C731 C732 1.385 . S
C732 H700 0.930 . S
C732 C731 1.385 . S
C732 C733 1.357 . S
C733 C732 1.357 . S
C733 C734 1.406 . S
C734 H701 0.929 . S
C734 C733 1.406 . S
C734 C735 1.391 . S
C735 H702 0.931 . S
C735 C730 1.370 . S
C735 C734 1.391 . S
C736 N710 1.435 . S
C736 C737 1.358 . S
C736 C741 1.371 . S
C737 H703 0.930 . S
C737 C736 1.358 . S
C737 C738 1.405 . S
C738 H704 0.932 . S
C738 C737 1.405 . S
C738 C739 1.383 . S
C739 C738 1.383 . S
C739 C740 1.393 . S
C740 H705 0.931 . S
C740 C739 1.393 . S
C740 C741 1.382 . S
C741 H706 0.929 . S
C741 C736 1.371 . S
C741 C740 1.382 . S
C742 N710 1.423 . S
C742 C743 1.362 . S
C742 C747 1.388 . S
C743 H707 0.929 . S
C743 C742 1.362 . S
C743 C744 1.376 . S
C744 H708 0.931 . S
C744 C743 1.376 . S
C744 C745 1.396 . S
C745 C727 1.472 . S
C745 C744 1.396 . S
C745 C746 1.348 . S
C746 H709 0.929 . S
C746 C745 1.348 . S
C746 C747 1.443 . S
C747 H711 0.932 . S
C747 C742 1.388 . S
C747 C746 1.443 . S
H748 C775 0.929 . S
N749 C774 1.433 . S
N749 C780 1.435 . S
N749 C786 1.423 . S
H750 C776 0.930 . S
H751 C779 0.931 . S
H752 C778 0.929 . S
H753 C781 0.930 . S
H754 C782 0.932 . S
H755 C785 0.929 . S
H756 C784 0.931 . S
H757 C787 0.929 . S
H758 C791 0.932 . S
H759 C788 0.931 . S
H760 C790 0.929 . S
H761 C793 0.929 . S
H762 C794 0.930 . S
H763 C796 0.929 . S
H764 C797 0.931 . S
H765 C799 0.930 . S
H766 C800 0.932 . S
H767 C802 0.931 . S
H768 C803 0.929 . S
H769 C805 0.929 . S
H770 C806 0.931 . S
H771 C808 0.929 . S
N772 C792 1.433 . S
N772 C798 1.435 . S
N772 C804 1.423 . S
H773 C809 0.932 . S
C774 N749 1.433 . S
C774 C775 1.363 . S
C774 C779 1.370 . S
C775 H748 0.929 . S
C775 C774 1.363 . S
C775 C776 1.385 . S
C776 H750 0.930 . S
C776 C775 1.385 . S
C776 C777 1.357 . S
C777 C776 1.357 . S
C777 C778 1.406 . S
C778 H752 0.929 . S
C778 C777 1.406 . S
C778 C779 1.391 . S
C779 H751 0.931 . S
C779 C774 1.370 . S
C779 C778 1.391 . S
C780 N749 1.435 . S
C780 C781 1.358 . S
C780 C785 1.371 . S
C781 H753 0.930 . S
C781 C780 1.358 . S
C781 C782 1.405 . S
C782 H754 0.932 . S
C782 C781 1.405 . S
C782 C783 1.383 . S
C783 C782 1.383 . S
C783 C784 1.393 . S
C784 H756 0.931 . S
C784 C783 1.393 . S
C784 C785 1.382 . S
C785 H755 0.929 . S
C785 C780 1.371 . S
C785 C784 1.382 . S
C786 N749 1.423 . S
C786 C787 1.362 . S
C786 C791 1.388 . S
C787 H757 0.929 . S
C787 C786 1.362 . S
C787 C788 1.376 . S
C788 H759 0.931 . S
C788 C787 1.376 . S
C788 C789 1.396 . S
C789 C788 1.396 . S
C789 C790 1.348 . S
C789 C807 1.472 . S
C790 H760 0.929 . S
C790 C789 1.348 . S
C790 C791 1.443 . S
C791 H758 0.932 . S
C791 C786 1.388 . S
C791 C790 1.443 . S
C792 N772 1.433 . S
C792 C793 1.363 . S
C792 C797 1.370 . S
C793 H761 0.929 . S
C793 C792 1.363 . S
C793 C794 1.385 . S
C794 H762 0.930 . S
C794 C793 1.385 . S
C794 C795 1.357 . S
C795 C794 1.357 . S
C795 C796 1.406 . S
C796 H763 0.929 . S
C796 C795 1.406 . S
C796 C797 1.391 . S
C797 H764 0.931 . S
C797 C792 1.370 . S
C797 C796 1.391 . S
C798 N772 1.435 . S
C798 C799 1.358 . S
C798 C803 1.371 . S
C799 H765 0.930 . S
C799 C798 1.358 . S
C799 C800 1.405 . S
C800 H766 0.932 . S
C800 C799 1.405 . S
C800 C801 1.383 . S
C801 C800 1.383 . S
C801 C802 1.393 . S
C802 H767 0.931 . S
C802 C801 1.393 . S
C802 C803 1.382 . S
C803 H768 0.929 . S
C803 C798 1.371 . S
C803 C802 1.382 . S
C804 N772 1.423 . S
C804 C805 1.362 . S
C804 C809 1.388 . S
C805 H769 0.929 . S
C805 C804 1.362 . S
C805 C806 1.376 . S
C806 H770 0.931 . S
C806 C805 1.376 . S
C806 C807 1.396 . S
C807 C789 1.472 . S
C807 C806 1.396 . S
C807 C808 1.348 . S
C808 H771 0.929 . S
C808 C807 1.348 . S
C808 C809 1.443 . S
C809 H773 0.932 . S
C809 C804 1.388 . S
C809 C808 1.443 . S
H810 C837 0.929 . S
N811 C836 1.433 . S
N811 C842 1.435 . S
N811 C848 1.423 . S
H812 C838 0.930 . S
H813 C841 0.931 . S
H814 C840 0.929 . S
H815 C843 0.930 . S
H816 C844 0.932 . S
H817 C847 0.929 . S
H818 C846 0.931 . S
H819 C849 0.929 . S
H820 C853 0.932 1_655 S
H821 C850 0.931 . S
H822 C852 0.939 . S
H823 C855 0.929 . S
H824 C856 0.930 . S
H825 C858 0.929 . S
H826 C859 0.931 . S
H827 C861 0.930 . S
H828 C862 0.932 . S
H829 C864 0.931 . S
H830 C865 0.929 . S
H831 C867 0.929 . S
H832 C868 0.931 . S
H833 C870 0.990 . S
N834 C854 1.433 . S
N834 C860 1.435 . S
N834 C866 1.423 . S
H835 C871 0.932 1_655 S
C836 N811 1.433 . S
C836 C837 1.363 . S
C836 C841 1.370 1_455 S
C837 H810 0.929 . S
C837 C836 1.363 . S
C837 C838 1.385 . S
C838 H812 0.930 . S
C838 C837 1.385 . S
C838 C839 1.357 1_455 S
C839 C838 1.357 1_655 S
C839 C840 1.406 . S
C840 H814 0.929 . S
C840 C839 1.406 . S
C840 C841 1.391 . S
C841 H813 0.931 . S
C841 C836 1.370 1_655 S
C841 C840 1.391 . S
C842 N811 1.435 . S
C842 C843 1.358 1_455 S
C842 C847 1.371 . S
C843 H815 0.930 . S
C843 C842 1.358 1_655 S
C843 C844 1.405 . S
C844 H816 0.932 . S
C844 C843 1.405 . S
C844 C845 1.383 1_655 S
C845 C844 1.383 1_455 S
C845 C846 1.393 . S
C846 H818 0.931 . S
C846 C845 1.393 . S
C846 C847 1.382 . S
C847 H817 0.929 . S
C847 C842 1.371 . S
C847 C846 1.382 . S
C848 N811 1.423 . S
C848 C849 1.362 . S
C848 C853 1.388 . S
C849 H819 0.929 . S
C849 C848 1.362 . S
C849 C850 1.376 . S
C850 H821 0.931 . S
C850 C849 1.376 . S
C850 C851 1.396 . S
C851 C850 1.396 . S
C851 C852 1.348 . S
C851 C869 1.472 . S
C852 H822 0.939 . S
C852 C851 1.348 . S
C852 C853 1.443 . S
C853 H820 0.932 1_455 S
C853 C848 1.388 . S
C853 C852 1.443 . S
C854 N834 1.433 . S
C854 C855 1.363 . S
C854 C859 1.370 1_455 S
C855 H823 0.929 . S
C855 C854 1.363 . S
C855 C856 1.385 . S
C856 H824 0.930 . S
C856 C855 1.385 . S
C856 C857 1.357 1_455 S
C857 C856 1.357 1_655 S
C857 C858 1.406 . S
C858 H825 0.929 . S
C858 C857 1.406 . S
C858 C859 1.391 . S
C859 H826 0.931 . S
C859 C854 1.370 1_655 S
C859 C858 1.391 . S
C860 N834 1.435 . S
C860 C861 1.358 1_455 S
C860 C865 1.371 . S
C861 H827 0.930 . S
C861 C860 1.358 1_655 S
C861 C862 1.405 . S
C862 H828 0.932 . S
C862 C861 1.405 . S
C862 C863 1.383 1_655 S
C863 C862 1.383 1_455 S
C863 C864 1.393 . S
C864 H829 0.931 . S
C864 C863 1.393 . S
C864 C865 1.382 . S
C865 H830 0.929 . S
C865 C860 1.371 . S
C865 C864 1.382 . S
C866 N834 1.423 . S
C866 C867 1.362 . S
C866 C871 1.388 . S
C867 H831 0.929 . S
C867 C866 1.362 . S
C867 C868 1.376 . S
C868 H832 0.931 . S
C868 C867 1.376 . S
C868 C869 1.396 . S
C869 C851 1.472 . S
C869 C868 1.396 . S
C869 C870 1.348 . S
C870 H833 0.990 . S
C870 C869 1.348 . S
C870 C871 1.443 . S
C871 H835 0.932 1_455 S
C871 C866 1.388 . S
C871 C870 1.443 . S
H872 C899 0.929 . S
N873 C898 1.433 . S
N873 C904 1.435 . S
N873 C910 1.423 . S
H874 C900 0.930 . S
H875 C903 0.931 . S
H876 C902 0.929 . S
H877 C905 0.930 . S
H878 C906 0.932 . S
H879 C909 0.929 . S
H880 C908 0.931 . S
H881 C911 0.929 . S
H882 C915 0.932 . S
H883 C912 0.931 . S
H884 C914 0.929 . S
H885 C917 0.929 . S
H886 C918 0.930 . S
H887 C920 0.929 . S
H888 C921 0.931 . S
H889 C923 0.930 . S
H890 C924 0.932 . S
H891 C926 0.931 . S
H892 C927 0.929 . S
H893 C929 0.929 . S
H894 C930 0.931 . S
H895 C932 0.929 . S
N896 C916 1.433 . S
N896 C922 1.435 . S
N896 C928 1.423 . S
H897 C933 0.932 . S
C898 N873 1.433 . S
C898 C899 1.363 . S
C898 C903 1.370 . S
C899 H872 0.929 . S
C899 C898 1.363 . S
C899 C900 1.385 . S
C900 H874 0.930 . S
C900 C899 1.385 . S
C900 C901 1.357 . S
C901 C900 1.357 . S
C901 C902 1.406 . S
C902 H876 0.929 . S
C902 C901 1.406 . S
C902 C903 1.391 . S
C903 H875 0.931 . S
C903 C898 1.370 . S
C903 C902 1.391 . S
C904 N873 1.435 . S
C904 C905 1.358 . S
C904 C909 1.371 . S
C905 H877 0.930 . S
C905 C904 1.358 . S
C905 C906 1.405 . S
C906 H878 0.932 . S
C906 C905 1.405 . S
C906 C907 1.383 . S
C907 C906 1.383 . S
C907 C908 1.393 . S
C908 H880 0.931 . S
C908 C907 1.393 . S
C908 C909 1.382 . S
C909 H879 0.929 . S
C909 C904 1.371 . S
C909 C908 1.382 . S
C910 N873 1.423 . S
C910 C911 1.362 . S
C910 C915 1.388 . S
C911 H881 0.929 . S
C911 C910 1.362 . S
C911 C912 1.376 . S
C912 H883 0.931 . S
C912 C911 1.376 . S
C912 C913 1.396 . S
C913 C912 1.396 . S
C913 C914 1.348 . S
C913 C931 1.472 . S
C914 H884 0.929 . S
C914 C913 1.348 . S
C914 C915 1.443 . S
C915 H882 0.932 . S
C915 C910 1.388 . S
C915 C914 1.443 . S
C916 N896 1.433 . S
C916 C917 1.363 . S
C916 C921 1.370 . S
C917 H885 0.929 . S
C917 C916 1.363 . S
C917 C918 1.385 . S
C918 H886 0.930 . S
C918 C917 1.385 . S
C918 C919 1.357 . S
C919 C918 1.357 . S
C919 C920 1.406 . S
C920 H887 0.929 . S
C920 C919 1.406 . S
C920 C921 1.391 . S
C921 H888 0.931 . S
C921 C916 1.370 . S
C921 C920 1.391 . S
C922 N896 1.435 . S
C922 C923 1.358 . S
C922 C927 1.371 . S
C923 H889 0.930 . S
C923 C922 1.358 . S
C923 C924 1.405 . S
C924 H890 0.932 . S
C924 C923 1.405 . S
C924 C925 1.383 . S
C925 C924 1.383 . S
C925 C926 1.393 . S
C926 H891 0.931 . S
C926 C925 1.393 . S
C926 C927 1.382 . S
C927 H892 0.929 . S
C927 C922 1.371 . S
C927 C926 1.382 . S
C928 N896 1.423 . S
C928 C929 1.362 . S
C928 C933 1.388 . S
C929 H893 0.929 . S
C929 C928 1.362 . S
C929 C930 1.376 . S
C930 H894 0.931 . S
C930 C929 1.376 . S
C930 C931 1.396 . S
C931 C913 1.472 . S
C931 C930 1.396 . S
C931 C932 1.348 . S
C932 H895 0.929 . S
C932 C931 1.348 . S
C932 C933 1.443 . S
C933 H897 0.932 . S
C933 C928 1.388 . S
C933 C932 1.443 . S
H934 C961 0.929 . S
N935 C960 1.433 . S
N935 C966 1.435 . S
N935 C972 1.423 . S
H936 C962 0.930 . S
H937 C965 0.931 . S
H938 C964 0.929 . S
H939 C967 0.930 . S
H940 C968 0.932 . S
H941 C971 0.929 . S
H942 C970 0.931 . S
H943 C973 0.929 . S
H944 C977 0.932 1_545 S
H945 C974 0.931 . S
H946 C976 0.999 . S
H947 C979 0.929 . S
H948 C980 0.930 . S
H949 C982 0.929 . S
H950 C983 0.931 . S
H951 C985 0.930 . S
H952 C986 0.932 . S
H953 C988 0.931 . S
H954 C989 0.929 . S
H955 C991 0.929 . S
H956 C992 0.931 . S
H957 C994 0.938 . S
N958 C978 1.433 . S
N958 C984 1.435 . S
N958 C990 1.423 . S
H959 C995 0.932 1_545 S
C960 N935 1.433 . S
C960 C961 1.363 . S
C960 C965 1.370 1_565 S
C961 H934 0.929 . S
C961 C960 1.363 . S
C961 C962 1.385 . S
C962 H936 0.930 . S
C962 C961 1.385 . S
C962 C963 1.357 1_565 S
C963 C962 1.357 1_545 S
C963 C964 1.406 . S
C964 H938 0.929 . S
C964 C963 1.406 . S
C964 C965 1.391 . S
C965 H937 0.931 . S
C965 C960 1.370 1_545 S
C965 C964 1.391 . S
C966 N935 1.435 . S
C966 C967 1.358 1_565 S
C966 C971 1.371 . S
C967 H939 0.930 . S
C967 C966 1.358 1_545 S
C967 C968 1.405 . S
C968 H940 0.932 . S
C968 C967 1.405 . S
C968 C969 1.383 1_545 S
C969 C968 1.383 1_565 S
C969 C970 1.393 . S
C970 H942 0.931 . S
C970 C969 1.393 . S
C970 C971 1.382 . S
C971 H941 0.929 . S
C971 C966 1.371 . S
C971 C970 1.382 . S
C972 N935 1.423 . S
C972 C973 1.362 . S
C972 C977 1.388 . S
C973 H943 0.929 . S
C973 C972 1.362 . S
C973 C974 1.376 . S
C974 H945 0.931 . S
C974 C973 1.376 . S
C974 C975 1.396 . S
C975 C974 1.396 . S
C975 C976 1.348 . S
C975 C993 1.472 . S
C976 H946 0.999 . S
C976 C975 1.348 . S
C976 C977 1.443 . S
C977 H944 0.932 1_565 S
C977 C972 1.388 . S
C977 C976 1.443 . S
C978 N958 1.433 . S
C978 C979 1.363 . S
C978 C983 1.370 1_565 S
C979 H947 0.929 . S
C979 C978 1.363 . S
C979 C980 1.385 . S
C980 H948 0.930 . S
C980 C979 1.385 . S
C980 C981 1.357 1_565 S
C981 C980 1.357 1_545 S
C981 C982 1.406 . S
C982 H949 0.929 . S
C982 C981 1.406 . S
C982 C983 1.391 . S
C983 H950 0.931 . S
C983 C978 1.370 1_545 S
C983 C982 1.391 . S
C984 N958 1.435 . S
C984 C985 1.358 1_565 S
C984 C989 1.371 . S
C985 H951 0.930 . S
C985 C984 1.358 1_545 S
C985 C986 1.405 . S
C986 H952 0.932 . S
C986 C985 1.405 . S
C986 C987 1.383 1_545 S
C987 C986 1.383 1_565 S
C987 C988 1.393 . S
C988 H953 0.931 . S
C988 C987 1.393 . S
C988 C989 1.382 . S
C989 H954 0.929 . S
C989 C984 1.371 . S
C989 C988 1.382 . S
C990 N958 1.423 . S
C990 C991 1.362 . S
C990 C995 1.388 . S
C991 H955 0.929 . S
C991 C990 1.362 . S
C991 C992 1.376 . S
C992 H956 0.931 . S
C992 C991 1.376 . S
C992 C993 1.396 . S
C993 C975 1.472 . S
C993 C992 1.396 . S
C993 C994 1.348 . S
C994 H957 0.938 . S
C994 C993 1.348 . S
C994 C995 1.443 . S
C995 H959 0.932 1_565 S
C995 C990 1.388 . S
C995 C994 1.443 . S
H996 C1023 0.929 . S
N997 C1022 1.433 . S
N997 C1028 1.435 . S
N997 C1034 1.423 . S
H998 C1024 0.930 . S
H999 C1027 0.931 . S
H1000 C1026 0.929 . S
H1001 C1029 0.930 . S
H1002 C1030 0.932 . S
H1003 C1033 0.929 . S
H1004 C1032 0.931 . S
H1005 C1035 0.929 . S
H1006 C1039 0.932 . S
H1007 C1036 0.931 . S
H1008 C1038 0.922 1_545 S
H1009 C1041 0.929 . S
H1010 C1042 0.930 . S
H1011 C1044 0.970 . S
H1012 C1045 0.950 . S
H1013 C1047 0.930 . S
H1014 C1048 0.932 . S
H1015 C1050 0.931 . S
H1016 C1051 0.929 . S
H1017 C1053 0.929 . S
H1018 C1054 0.931 . S
H1019 C1056 0.873 1_545 S
N1020 C1040 1.433 . S
N1020 C1046 1.435 . S
N1020 C1052 1.423 . S
H1021 C1057 0.947 . S
C1022 N997 1.433 . S
C1022 C1023 1.363 . S
C1022 C1027 1.370 1_565 S
C1023 H996 0.929 . S
C1023 C1022 1.363 . S
C1023 C1024 1.385 . S
C1024 H998 0.930 . S
C1024 C1023 1.385 . S
C1024 C1025 1.357 . S
C1025 C1024 1.357 . S
C1025 C1026 1.406 1_565 S
C1026 H1000 0.929 . S
C1026 C1025 1.406 1_545 S
C1026 C1027 1.391 . S
C1027 H999 0.931 . S
C1027 C1022 1.370 1_545 S
C1027 C1026 1.391 . S
C1028 N997 1.435 . S
C1028 C1029 1.358 1_565 S
C1028 C1033 1.371 . S
C1029 H1001 0.930 . S
C1029 C1028 1.358 1_545 S
C1029 C1030 1.405 . S
C1030 H1002 0.932 . S
C1030 C1029 1.405 . S
C1030 C1031 1.383 . S
C1031 C1030 1.383 . S
C1031 C1032 1.393 1_545 S
C1032 H1004 0.931 . S
C1032 C1031 1.393 1_565 S
C1032 C1033 1.382 . S
C1033 H1003 0.929 . S
C1033 C1028 1.371 . S
C1033 C1032 1.382 . S
C1034 N997 1.423 . S
C1034 C1035 1.362 . S
C1034 C1039 1.388 1_565 S
C1035 H1005 0.929 . S
C1035 C1034 1.362 . S
C1035 C1036 1.376 . S
C1036 H1007 0.931 . S
C1036 C1035 1.376 . S
C1036 C1037 1.396 . S
C1037 C1036 1.396 . S
C1037 C1038 1.380 . S
C1037 C1055 1.472 . S
C1038 H1008 0.922 1_565 S
C1038 C1037 1.380 . S
C1038 C1039 1.419 1_565 S
C1039 H1006 0.932 . S
C1039 C1034 1.388 1_545 S
C1039 C1038 1.419 1_545 S
C1040 N1020 1.433 . S
C1040 C1041 1.363 . S
C1040 C1045 1.355 1_565 S
C1041 H1009 0.929 . S
C1041 C1040 1.363 . S
C1041 C1042 1.385 . S
C1042 H1010 0.930 . S
C1042 C1041 1.385 . S
C1042 C1043 1.357 . S
C1043 C1042 1.357 . S
C1043 C1044 1.358 1_565 S
C1044 H1011 0.970 . S
C1044 C1043 1.358 1_545 S
C1044 C1045 1.398 . S
C1045 H1012 0.950 . S
C1045 C1040 1.355 1_545 S
C1045 C1044 1.398 . S
C1046 N1020 1.435 . S
C1046 C1047 1.358 1_565 S
C1046 C1051 1.371 . S
C1047 H1013 0.930 . S
C1047 C1046 1.358 1_545 S
C1047 C1048 1.405 . S
C1048 H1014 0.932 . S
C1048 C1047 1.405 . S
C1048 C1049 1.383 . S
C1049 C1048 1.383 . S
C1049 C1050 1.393 1_545 S
C1050 H1015 0.931 . S
C1050 C1049 1.393 1_565 S
C1050 C1051 1.382 . S
C1051 H1016 0.929 . S
C1051 C1046 1.371 . S
C1051 C1050 1.382 . S
C1052 N1020 1.423 . S
C1052 C1053 1.362 . S
C1052 C1057 1.354 1_565 S
C1053 H1017 0.929 . S
C1053 C1052 1.362 . S
C1053 C1054 1.376 . S
C1054 H1018 0.931 . S
C1054 C1053 1.376 . S
C1054 C1055 1.396 . S
C1055 C1037 1.472 . S
C1055 C1054 1.396 . S
C1055 C1056 1.370 . S
C1056 H1019 0.873 1_565 S
C1056 C1055 1.370 . S
C1056 C1057 1.503 1_565 S
C1057 H1021 0.947 . S
C1057 C1052 1.354 1_545 S
C1057 C1056 1.503 1_545 S
H1058 C1085 0.929 . S
N1059 C1084 1.433 . S
N1059 C1090 1.435 . S
N1059 C1096 1.423 . S
H1060 C1086 0.930 . S
H1061 C1089 0.931 . S
H1062 C1088 0.929 . S
H1063 C1091 0.930 . S
H1064 C1092 0.932 . S
H1065 C1095 0.929 . S
H1066 C1094 0.931 . S
H1067 C1097 0.929 . S
H1068 C1101 0.932 1_455 S
H1069 C1098 0.931 . S
H1070 C1100 1.000 . S
H1071 C1103 0.929 . S
H1072 C1104 0.930 . S
H1073 C1106 0.929 . S
H1074 C1107 0.931 . S
H1075 C1109 0.930 . S
H1076 C1110 0.932 . S
H1077 C1112 0.931 . S
H1078 C1113 0.929 . S
H1079 C1115 0.929 . S
H1080 C1116 0.931 . S
H1081 C1118 0.941 . S
N1082 C1102 1.433 . S
N1082 C1108 1.435 . S
N1082 C1114 1.423 . S
H1083 C1119 0.932 1_455 S
C1084 N1059 1.433 . S
C1084 C1085 1.363 . S
C1084 C1089 1.370 1_655 S
C1085 H1058 0.929 . S
C1085 C1084 1.363 . S
C1085 C1086 1.385 . S
C1086 H1060 0.930 . S
C1086 C1085 1.385 . S
C1086 C1087 1.357 1_655 S
C1087 C1086 1.357 1_455 S
C1087 C1088 1.406 . S
C1088 H1062 0.929 . S
C1088 C1087 1.406 . S
C1088 C1089 1.391 . S
C1089 H1061 0.931 . S
C1089 C1084 1.370 1_455 S
C1089 C1088 1.391 . S
C1090 N1059 1.435 . S
C1090 C1091 1.358 1_655 S
C1090 C1095 1.371 . S
C1091 H1063 0.930 . S
C1091 C1090 1.358 1_455 S
C1091 C1092 1.405 . S
C1092 H1064 0.932 . S
C1092 C1091 1.405 . S
C1092 C1093 1.383 1_455 S
C1093 C1092 1.383 1_655 S
C1093 C1094 1.393 . S
C1094 H1066 0.931 . S
C1094 C1093 1.393 . S
C1094 C1095 1.382 . S
C1095 H1065 0.929 . S
C1095 C1090 1.371 . S
C1095 C1094 1.382 . S
C1096 N1059 1.423 . S
C1096 C1097 1.362 . S
C1096 C1101 1.388 . S
C1097 H1067 0.929 . S
C1097 C1096 1.362 . S
C1097 C1098 1.376 . S
C1098 H1069 0.931 . S
C1098 C1097 1.376 . S
C1098 C1099 1.396 . S
C1099 C1098 1.396 . S
C1099 C1100 1.348 . S
C1099 C1117 1.472 . S
C1100 H1070 1.000 . S
C1100 C1099 1.348 . S
C1100 C1101 1.443 . S
C1101 H1068 0.932 1_655 S
C1101 C1096 1.388 . S
C1101 C1100 1.443 . S
C1102 N1082 1.433 . S
C1102 C1103 1.363 . S
C1102 C1107 1.370 1_655 S
C1103 H1071 0.929 . S
C1103 C1102 1.363 . S
C1103 C1104 1.385 . S
C1104 H1072 0.930 . S
C1104 C1103 1.385 . S
C1104 C1105 1.357 1_655 S
C1105 C1104 1.357 1_455 S
C1105 C1106 1.406 . S
C1106 H1073 0.929 . S
C1106 C1105 1.406 . S
C1106 C1107 1.391 . S
C1107 H1074 0.931 . S
C1107 C1102 1.370 1_455 S
C1107 C1106 1.391 . S
C1108 N1082 1.435 . S
C1108 C1109 1.358 1_655 S
C1108 C1113 1.371 . S
C1109 H1075 0.930 . S
C1109 C1108 1.358 1_455 S
C1109 C1110 1.405 . S
C1110 H1076 0.932 . S
C1110 C1109 1.405 . S
C1110 C1111 1.383 1_455 S
C1111 C1110 1.383 1_655 S
C1111 C1112 1.393 . S
C1112 H1077 0.931 . S
C1112 C1111 1.393 . S
C1112 C1113 1.382 . S
C1113 H1078 0.929 . S
C1113 C1108 1.371 . S
C1113 C1112 1.382 . S
C1114 N1082 1.423 . S
C1114 C1115 1.362 . S
C1114 C1119 1.388 . S
C1115 H1079 0.929 . S
C1115 C1114 1.362 . S
C1115 C1116 1.376 . S
C1116 H1080 0.931 . S
C1116 C1115 1.376 . S
C1116 C1117 1.396 . S
C1117 C1099 1.472 . S
C1117 C1116 1.396 . S
C1117 C1118 1.348 . S
C1118 H1081 0.941 . S
C1118 C1117 1.348 . S
C1118 C1119 1.443 . S
C1119 H1083 0.932 1_655 S
C1119 C1114 1.388 . S
C1119 C1118 1.443 . S
H1120 C1147 0.929 . S
N1121 C1146 1.433 . S
N1121 C1152 1.435 . S
N1121 C1158 1.423 . S
H1122 C1148 0.930 . S
H1123 C1151 0.931 . S
H1124 C1150 0.929 . S
H1125 C1153 0.930 . S
H1126 C1154 0.932 . S
H1127 C1157 0.929 . S
H1128 C1156 0.931 . S
H1129 C1159 0.929 . S
H1130 C1163 0.932 . S
H1131 C1160 0.931 . S
H1132 C1162 0.929 . S
H1133 C1165 0.929 . S
H1134 C1166 0.930 . S
H1135 C1168 0.929 . S
H1136 C1169 0.931 . S
H1137 C1171 0.930 . S
H1138 C1172 0.932 . S
H1139 C1174 0.931 . S
H1140 C1175 0.929 . S
H1141 C1177 0.929 . S
H1142 C1178 0.931 . S
H1143 C1180 0.929 . S
N1144 C1164 1.433 . S
N1144 C1170 1.435 . S
N1144 C1176 1.423 . S
H1145 C1181 0.932 . S
C1146 N1121 1.433 . S
C1146 C1147 1.363 . S
C1146 C1151 1.370 . S
C1147 H1120 0.929 . S
C1147 C1146 1.363 . S
C1147 C1148 1.385 . S
C1148 H1122 0.930 . S
C1148 C1147 1.385 . S
C1148 C1149 1.357 . S
C1149 C1148 1.357 . S
C1149 C1150 1.406 . S
C1150 H1124 0.929 . S
C1150 C1149 1.406 . S
C1150 C1151 1.391 . S
C1151 H1123 0.931 . S
C1151 C1146 1.370 . S
C1151 C1150 1.391 . S
C1152 N1121 1.435 . S
C1152 C1153 1.358 . S
C1152 C1157 1.371 . S
C1153 H1125 0.930 . S
C1153 C1152 1.358 . S
C1153 C1154 1.405 . S
C1154 H1126 0.932 . S
C1154 C1153 1.405 . S
C1154 C1155 1.383 . S
C1155 C1154 1.383 . S
C1155 C1156 1.393 . S
C1156 H1128 0.931 . S
C1156 C1155 1.393 . S
C1156 C1157 1.382 . S
C1157 H1127 0.929 . S
C1157 C1152 1.371 . S
C1157 C1156 1.382 . S
C1158 N1121 1.423 . S
C1158 C1159 1.362 . S
C1158 C1163 1.388 . S
C1159 H1129 0.929 . S
C1159 C1158 1.362 . S
C1159 C1160 1.376 . S
C1160 H1131 0.931 . S
C1160 C1159 1.376 . S
C1160 C1161 1.396 . S
C1161 C1160 1.396 . S
C1161 C1162 1.348 . S
C1161 C1179 1.472 . S
C1162 H1132 0.929 . S
C1162 C1161 1.348 . S
C1162 C1163 1.443 . S
C1163 H1130 0.932 . S
C1163 C1158 1.388 . S
C1163 C1162 1.443 . S
C1164 N1144 1.433 . S
C1164 C1165 1.363 . S
C1164 C1169 1.370 . S
C1165 H1133 0.929 . S
C1165 C1164 1.363 . S
C1165 C1166 1.385 . S
C1166 H1134 0.930 . S
C1166 C1165 1.385 . S
C1166 C1167 1.357 . S
C1167 C1166 1.357 . S
C1167 C1168 1.406 . S
C1168 H1135 0.929 . S
C1168 C1167 1.406 . S
C1168 C1169 1.391 . S
C1169 H1136 0.931 . S
C1169 C1164 1.370 . S
C1169 C1168 1.391 . S
C1170 N1144 1.435 . S
C1170 C1171 1.358 . S
C1170 C1175 1.371 . S
C1171 H1137 0.930 . S
C1171 C1170 1.358 . S
C1171 C1172 1.405 . S
C1172 H1138 0.932 . S
C1172 C1171 1.405 . S
C1172 C1173 1.383 . S
C1173 C1172 1.383 . S
C1173 C1174 1.393 . S
C1174 H1139 0.931 . S
C1174 C1173 1.393 . S
C1174 C1175 1.382 . S
C1175 H1140 0.929 . S
C1175 C1170 1.371 . S
C1175 C1174 1.382 . S
C1176 N1144 1.423 . S
C1176 C1177 1.362 . S
C1176 C1181 1.388 . S
C1177 H1141 0.929 . S
C1177 C1176 1.362 . S
C1177 C1178 1.376 . S
C1178 H1142 0.931 . S
C1178 C1177 1.376 . S
C1178 C1179 1.396 . S
C1179 C1161 1.472 . S
C1179 C1178 1.396 . S
C1179 C1180 1.348 . S
C1180 H1143 0.929 . S
C1180 C1179 1.348 . S
C1180 C1181 1.443 . S
C1181 H1145 0.932 . S
C1181 C1176 1.388 . S
C1181 C1180 1.443 . S
H1182 C1209 0.929 . S
N1183 C1208 1.433 . S
N1183 C1214 1.435 . S
N1183 C1220 1.423 . S
H1184 C1210 0.930 . S
H1185 C1213 0.931 . S
H1186 C1212 0.929 . S
H1187 C1215 0.930 . S
H1188 C1216 0.932 . S
H1189 C1219 0.929 . S
H1190 C1218 0.931 . S
H1191 C1221 0.929 . S
H1192 C1225 0.932 . S
H1193 C1222 0.931 . S
H1194 C1224 0.929 . S
H1195 C1227 0.929 . S
H1196 C1228 0.930 . S
H1197 C1230 0.929 . S
H1198 C1231 0.931 . S
H1199 C1233 0.930 . S
H1200 C1234 0.932 . S
H1201 C1236 0.931 . S
H1202 C1237 0.929 . S
H1203 C1239 0.929 . S
H1204 C1240 0.931 . S
H1205 C1242 0.929 . S
N1206 C1226 1.433 . S
N1206 C1232 1.435 . S
N1206 C1238 1.423 . S
H1207 C1243 0.932 . S
C1208 N1183 1.433 . S
C1208 C1209 1.363 . S
C1208 C1213 1.370 . S
C1209 H1182 0.929 . S
C1209 C1208 1.363 . S
C1209 C1210 1.385 . S
C1210 H1184 0.930 . S
C1210 C1209 1.385 . S
C1210 C1211 1.357 . S
C1211 C1210 1.357 . S
C1211 C1212 1.406 . S
C1212 H1186 0.929 . S
C1212 C1211 1.406 . S
C1212 C1213 1.391 . S
C1213 H1185 0.931 . S
C1213 C1208 1.370 . S
C1213 C1212 1.391 . S
C1214 N1183 1.435 . S
C1214 C1215 1.358 . S
C1214 C1219 1.371 . S
C1215 H1187 0.930 . S
C1215 C1214 1.358 . S
C1215 C1216 1.405 . S
C1216 H1188 0.932 . S
C1216 C1215 1.405 . S
C1216 C1217 1.383 . S
C1217 C1216 1.383 . S
C1217 C1218 1.393 . S
C1218 H1190 0.931 . S
C1218 C1217 1.393 . S
C1218 C1219 1.382 . S
C1219 H1189 0.929 . S
C1219 C1214 1.371 . S
C1219 C1218 1.382 . S
C1220 N1183 1.423 . S
C1220 C1221 1.362 . S
C1220 C1225 1.388 . S
C1221 H1191 0.929 . S
C1221 C1220 1.362 . S
C1221 C1222 1.376 . S
C1222 H1193 0.931 . S
C1222 C1221 1.376 . S
C1222 C1223 1.396 . S
C1223 C1222 1.396 . S
C1223 C1224 1.348 . S
C1223 C1241 1.472 . S
C1224 H1194 0.929 . S
C1224 C1223 1.348 . S
C1224 C1225 1.443 . S
C1225 H1192 0.932 . S
C1225 C1220 1.388 . S
C1225 C1224 1.443 . S
C1226 N1206 1.433 . S
C1226 C1227 1.363 . S
C1226 C1231 1.370 . S
C1227 H1195 0.929 . S
C1227 C1226 1.363 . S
C1227 C1228 1.385 . S
C1228 H1196 0.930 . S
C1228 C1227 1.385 . S
C1228 C1229 1.357 . S
C1229 C1228 1.357 . S
C1229 C1230 1.406 . S
C1230 H1197 0.929 . S
C1230 C1229 1.406 . S
C1230 C1231 1.391 . S
C1231 H1198 0.931 . S
C1231 C1226 1.370 . S
C1231 C1230 1.391 . S
C1232 N1206 1.435 . S
C1232 C1233 1.358 . S
C1232 C1237 1.371 . S
C1233 H1199 0.930 . S
C1233 C1232 1.358 . S
C1233 C1234 1.405 . S
C1234 H1200 0.932 . S
C1234 C1233 1.405 . S
C1234 C1235 1.383 . S
C1235 C1234 1.383 . S
C1235 C1236 1.393 . S
C1236 H1201 0.931 . S
C1236 C1235 1.393 . S
C1236 C1237 1.382 . S
C1237 H1202 0.929 . S
C1237 C1232 1.371 . S
C1237 C1236 1.382 . S
C1238 N1206 1.423 . S
C1238 C1239 1.362 . S
C1238 C1243 1.388 . S
C1239 H1203 0.929 . S
C1239 C1238 1.362 . S
C1239 C1240 1.376 . S
C1240 H1204 0.931 . S
C1240 C1239 1.376 . S
C1240 C1241 1.396 . S
C1241 C1223 1.472 . S
C1241 C1240 1.396 . S
C1241 C1242 1.348 . S
C1242 H1205 0.929 . S
C1242 C1241 1.348 . S
C1242 C1243 1.443 . S
C1243 H1207 0.932 . S
C1243 C1238 1.388 . S
C1243 C1242 1.443 . S
H1244 C1271 0.929 . S
N1245 C1270 1.433 . S
N1245 C1276 1.435 . S
N1245 C1282 1.423 . S
H1246 C1272 0.930 . S
H1247 C1275 0.931 . S
H1248 C1274 0.929 . S
H1249 C1277 0.930 . S
H1250 C1278 0.932 . S
H1251 C1281 0.929 . S
H1252 C1280 0.931 . S
H1253 C1283 0.929 . S
H1254 C1287 0.932 . S
H1255 C1284 0.931 . S
H1256 C1286 0.929 . S
H1257 C1289 0.929 . S
H1258 C1290 0.930 . S
H1259 C1292 0.929 . S
H1260 C1293 0.931 . S
H1261 C1295 0.930 . S
H1262 C1296 0.932 . S
H1263 C1298 0.931 . S
H1264 C1299 0.929 . S
H1265 C1301 0.929 . S
H1266 C1302 0.931 . S
H1267 C1304 0.929 . S
N1268 C1288 1.433 . S
N1268 C1294 1.435 . S
N1268 C1300 1.423 . S
H1269 C1305 0.932 . S
C1270 N1245 1.433 . S
C1270 C1271 1.363 . S
C1270 C1275 1.370 . S
C1271 H1244 0.929 . S
C1271 C1270 1.363 . S
C1271 C1272 1.385 . S
C1272 H1246 0.930 . S
C1272 C1271 1.385 . S
C1272 C1273 1.357 . S
C1273 C1272 1.357 . S
C1273 C1274 1.406 . S
C1274 H1248 0.929 . S
C1274 C1273 1.406 . S
C1274 C1275 1.391 . S
C1275 H1247 0.931 . S
C1275 C1270 1.370 . S
C1275 C1274 1.391 . S
C1276 N1245 1.435 . S
C1276 C1277 1.358 . S
C1276 C1281 1.371 . S
C1277 H1249 0.930 . S
C1277 C1276 1.358 . S
C1277 C1278 1.405 . S
C1278 H1250 0.932 . S
C1278 C1277 1.405 . S
C1278 C1279 1.383 . S
C1279 C1278 1.383 . S
C1279 C1280 1.393 . S
C1280 H1252 0.931 . S
C1280 C1279 1.393 . S
C1280 C1281 1.382 . S
C1281 H1251 0.929 . S
C1281 C1276 1.371 . S
C1281 C1280 1.382 . S
C1282 N1245 1.423 . S
C1282 C1283 1.362 . S
C1282 C1287 1.388 . S
C1283 H1253 0.929 . S
C1283 C1282 1.362 . S
C1283 C1284 1.376 . S
C1284 H1255 0.931 . S
C1284 C1283 1.376 . S
C1284 C1285 1.396 . S
C1285 C1284 1.396 . S
C1285 C1286 1.348 . S
C1285 C1303 1.472 . S
C1286 H1256 0.929 . S
C1286 C1285 1.348 . S
C1286 C1287 1.443 . S
C1287 H1254 0.932 . S
C1287 C1282 1.388 . S
C1287 C1286 1.443 . S
C1288 N1268 1.433 . S
C1288 C1289 1.363 . S
C1288 C1293 1.370 . S
C1289 H1257 0.929 . S
C1289 C1288 1.363 . S
C1289 C1290 1.385 . S
C1290 H1258 0.930 . S
C1290 C1289 1.385 . S
C1290 C1291 1.357 . S
C1291 C1290 1.357 . S
C1291 C1292 1.406 . S
C1292 H1259 0.929 . S
C1292 C1291 1.406 . S
C1292 C1293 1.391 . S
C1293 H1260 0.931 . S
C1293 C1288 1.370 . S
C1293 C1292 1.391 . S
C1294 N1268 1.435 . S
C1294 C1295 1.358 . S
C1294 C1299 1.371 . S
C1295 H1261 0.930 . S
C1295 C1294 1.358 . S
C1295 C1296 1.405 . S
C1296 H1262 0.932 . S
C1296 C1295 1.405 . S
C1296 C1297 1.383 . S
C1297 C1296 1.383 . S
C1297 C1298 1.393 . S
C1298 H1263 0.931 . S
C1298 C1297 1.393 . S
C1298 C1299 1.382 . S
C1299 H1264 0.929 . S
C1299 C1294 1.371 . S
C1299 C1298 1.382 . S
C1300 N1268 1.423 . S
C1300 C1301 1.362 . S
C1300 C1305 1.388 . S
C1301 H1265 0.929 . S
C1301 C1300 1.362 . S
C1301 C1302 1.376 . S
C1302 H1266 0.931 . S
C1302 C1301 1.376 . S
C1302 C1303 1.396 . S
C1303 C1285 1.472 . S
C1303 C1302 1.396 . S
C1303 C1304 1.348 . S
C1304 H1267 0.929 . S
C1304 C1303 1.348 . S
C1304 C1305 1.443 . S
C1305 H1269 0.932 . S
C1305 C1300 1.388 . S
C1305 C1304 1.443 . S
H1306 C1333 0.929 . S
N1307 C1332 1.433 . S
N1307 C1338 1.435 . S
N1307 C1344 1.423 . S
H1308 C1334 0.930 . S
H1309 C1337 0.931 . S
H1310 C1336 0.929 . S
H1311 C1339 0.930 . S
H1312 C1340 0.932 . S
H1313 C1343 0.929 . S
H1314 C1342 0.931 . S
H1315 C1345 0.929 . S
H1316 C1349 0.932 . S
H1317 C1346 0.931 . S
H1318 C1348 0.929 . S
H1319 C1351 0.929 . S
H1320 C1352 0.930 . S
H1321 C1354 0.929 . S
H1322 C1355 0.931 . S
H1323 C1357 0.930 . S
H1324 C1358 0.932 . S
H1325 C1360 0.931 . S
H1326 C1361 0.929 . S
H1327 C1363 0.929 . S
H1328 C1364 0.931 . S
H1329 C1366 0.929 . S
N1330 C1350 1.433 . S
N1330 C1356 1.435 . S
N1330 C1362 1.423 . S
H1331 C1367 0.932 . S
C1332 N1307 1.433 . S
C1332 C1333 1.363 . S
C1332 C1337 1.370 . S
C1333 H1306 0.929 . S
C1333 C1332 1.363 . S
C1333 C1334 1.385 . S
C1334 H1308 0.930 . S
C1334 C1333 1.385 . S
C1334 C1335 1.357 . S
C1335 C1334 1.357 . S
C1335 C1336 1.406 . S
C1336 H1310 0.929 . S
C1336 C1335 1.406 . S
C1336 C1337 1.391 . S
C1337 H1309 0.931 . S
C1337 C1332 1.370 . S
C1337 C1336 1.391 . S
C1338 N1307 1.435 . S
C1338 C1339 1.358 . S
C1338 C1343 1.371 . S
C1339 H1311 0.930 . S
C1339 C1338 1.358 . S
C1339 C1340 1.405 . S
C1340 H1312 0.932 . S
C1340 C1339 1.405 . S
C1340 C1341 1.383 . S
C1341 C1340 1.383 . S
C1341 C1342 1.393 . S
C1342 H1314 0.931 . S
C1342 C1341 1.393 . S
C1342 C1343 1.382 . S
C1343 H1313 0.929 . S
C1343 C1338 1.371 . S
C1343 C1342 1.382 . S
C1344 N1307 1.423 . S
C1344 C1345 1.362 . S
C1344 C1349 1.388 . S
C1345 H1315 0.929 . S
C1345 C1344 1.362 . S
C1345 C1346 1.376 . S
C1346 H1317 0.931 . S
C1346 C1345 1.376 . S
C1346 C1347 1.396 . S
C1347 C1346 1.396 . S
C1347 C1348 1.348 . S
C1347 C1365 1.472 . S
C1348 H1318 0.929 . S
C1348 C1347 1.348 . S
C1348 C1349 1.443 . S
C1349 H1316 0.932 . S
C1349 C1344 1.388 . S
C1349 C1348 1.443 . S
C1350 N1330 1.433 . S
C1350 C1351 1.363 . S
C1350 C1355 1.370 . S
C1351 H1319 0.929 . S
C1351 C1350 1.363 . S
C1351 C1352 1.385 . S
C1352 H1320 0.930 . S
C1352 C1351 1.385 . S
C1352 C1353 1.357 . S
C1353 C1352 1.357 . S
C1353 C1354 1.406 . S
C1354 H1321 0.929 . S
C1354 C1353 1.406 . S
C1354 C1355 1.391 . S
C1355 H1322 0.931 . S
C1355 C1350 1.370 . S
C1355 C1354 1.391 . S
C1356 N1330 1.435 . S
C1356 C1357 1.358 . S
C1356 C1361 1.371 . S
C1357 H1323 0.930 . S
C1357 C1356 1.358 . S
C1357 C1358 1.405 . S
C1358 H1324 0.932 . S
C1358 C1357 1.405 . S
C1358 C1359 1.383 . S
C1359 C1358 1.383 . S
C1359 C1360 1.393 . S
C1360 H1325 0.931 . S
C1360 C1359 1.393 . S
C1360 C1361 1.382 . S
C1361 H1326 0.929 . S
C1361 C1356 1.371 . S
C1361 C1360 1.382 . S
C1362 N1330 1.423 . S
C1362 C1363 1.362 . S
C1362 C1367 1.388 . S
C1363 H1327 0.929 . S
C1363 C1362 1.362 . S
C1363 C1364 1.376 . S
C1364 H1328 0.931 . S
C1364 C1363 1.376 . S
C1364 C1365 1.396 . S
C1365 C1347 1.472 . S
C1365 C1364 1.396 . S
C1365 C1366 1.348 . S
C1366 H1329 0.929 . S
C1366 C1365 1.348 . S
C1366 C1367 1.443 . S
C1367 H1331 0.932 . S
C1367 C1362 1.388 . S
C1367 C1366 1.443 . S
H1368 C1376 0.929 . S
H1369 C1378 0.930 . S
H1370 C1380 0.930 . S
H1371 C1383 0.929 . S
H1372 C1386 0.930 . S
H1373 C1388 0.960 . S
H1374 C1388 0.960 . S
H1375 C1388 0.960 1_455 S
C1376 H1368 0.929 . S
C1376 C1377 1.377 . S
C1376 C1378 1.384 . S
C1377 C1376 1.377 . S
C1377 C1383 1.390 1_655 S
C1378 H1369 0.930 . S
C1378 C1376 1.384 . S
C1378 C1379 1.372 . S
C1379 C1378 1.372 . S
C1379 C1380 1.400 1_655 S
C1379 C1384 1.490 . S
C1380 H1370 0.930 . S
C1380 C1379 1.400 1_455 S
C1380 C1383 1.386 . S
H1381 C1397 0.930 . S
H1382 C1398 0.931 . S
C1383 H1371 0.929 . S
C1383 C1377 1.390 1_455 S
C1383 C1380 1.386 . S
C1384 C1379 1.490 . S
C1384 C1386 1.395 . S
C1384 C1387 1.403 . S
H1385 C1391 0.930 . S
C1386 H1372 0.930 . S
C1386 C1384 1.395 . S
C1386 C1389 1.403 . S
C1387 C1384 1.403 . S
C1387 C1388 1.524 . S
C1387 C1391 1.400 . S
C1388 H1373 0.960 . S
C1388 H1374 0.960 . S
C1388 H1375 0.960 1_655 S
C1388 C1387 1.524 . S
C1389 C1386 1.403 . S
C1389 C1390 1.392 . S
C1389 C1393 1.495 . S
C1390 C1389 1.392 . S
C1390 C1391 1.385 . S
C1390 C1392 1.478 . S
C1391 H1385 0.930 . S
C1391 C1387 1.400 . S
C1391 C1390 1.385 . S
C1392 C1390 1.478 . S
C1392 C1394 1.381 . S
C1392 C1398 1.383 1_655 S
C1393 C1389 1.495 . S
C1393 H1399 0.959 . S
C1393 H1400 0.961 1_655 S
C1393 H1401 0.960 . S
C1394 C1392 1.381 . S
C1394 C1395 1.394 . S
C1394 H1402 0.930 . S
C1395 C1394 1.394 . S
C1395 C1396 1.383 . S
C1395 H1403 0.929 . S
C1396 C1395 1.383 . S
C1396 C1397 1.377 1_655 S
C1397 H1381 0.930 . S
C1397 C1396 1.377 1_455 S
C1397 C1398 1.379 . S
C1398 H1382 0.931 . S
C1398 C1392 1.383 1_455 S
C1398 C1397 1.379 . S
H1399 C1393 0.959 . S
H1400 C1393 0.961 1_455 S
H1401 C1393 0.960 . S
H1402 C1394 0.930 . S
H1403 C1395 0.929 . S
H1404 C1412 0.929 . S
H1405 C1414 0.930 . S
H1406 C1416 0.930 . S
H1407 C1419 0.929 . S
H1408 C1422 0.930 . S
H1409 C1424 0.960 . S
H1410 C1424 0.960 . S
H1411 C1424 0.960 . S
C1412 H1404 0.929 . S
C1412 C1413 1.377 . S
C1412 C1414 1.384 . S
C1413 C1412 1.377 . S
C1413 C1419 1.390 . S
C1414 H1405 0.930 . S
C1414 C1412 1.384 . S
C1414 C1415 1.372 . S
C1415 C1414 1.372 . S
C1415 C1416 1.400 . S
C1415 C1420 1.490 . S
C1416 H1406 0.930 . S
C1416 C1415 1.400 . S
C1416 C1419 1.386 . S
H1417 C1433 0.930 . S
H1418 C1434 0.931 . S
C1419 H1407 0.929 . S
C1419 C1413 1.390 . S
C1419 C1416 1.386 . S
C1420 C1415 1.490 . S
C1420 C1422 1.395 . S
C1420 C1423 1.403 . S
H1421 C1427 0.930 . S
C1422 H1408 0.930 . S
C1422 C1420 1.395 . S
C1422 C1425 1.403 . S
C1423 C1420 1.403 . S
C1423 C1424 1.524 . S
C1423 C1427 1.400 . S
C1424 H1409 0.960 . S
C1424 H1410 0.960 . S
C1424 H1411 0.960 . S
C1424 C1423 1.524 . S
C1425 C1422 1.403 . S
C1425 C1426 1.392 . S
C1425 C1429 1.495 . S
C1426 C1425 1.392 . S
C1426 C1427 1.385 . S
C1426 C1428 1.478 . S
C1427 H1421 0.930 . S
C1427 C1423 1.400 . S
C1427 C1426 1.385 . S
C1428 C1426 1.478 . S
C1428 C1430 1.381 . S
C1428 C1434 1.383 . S
C1429 C1425 1.495 . S
C1429 H1435 0.959 . S
C1429 H1436 0.961 . S
C1429 H1437 0.960 . S
C1430 C1428 1.381 . S
C1430 C1431 1.394 . S
C1430 H1438 0.930 . S
C1431 C1430 1.394 . S
C1431 C1432 1.383 . S
C1431 H1439 0.929 . S
C1432 C1431 1.383 . S
C1432 C1433 1.377 . S
C1433 H1417 0.930 . S
C1433 C1432 1.377 . S
C1433 C1434 1.379 . S
C1434 H1418 0.931 . S
C1434 C1428 1.383 . S
C1434 C1433 1.379 . S
H1435 C1429 0.959 . S
H1436 C1429 0.961 . S
H1437 C1429 0.960 . S
H1438 C1430 0.930 . S
H1439 C1431 0.929 . S
H1440 C1448 0.983 . S
H1441 C1450 0.930 . S
H1442 C1452 0.930 . S
H1443 C1455 0.929 . S
H1444 C1458 0.930 . S
H1445 C1460 0.971 . S
H1446 C1460 0.960 1_565 S
H1447 C1460 0.960 . S
C1448 H1440 0.983 . S
C1448 C1449 1.292 1_565 S
C1448 C1450 1.422 . S
C1449 C1448 1.292 1_545 S
C1449 C1455 1.390 . S
C1450 H1441 0.930 . S
C1450 C1448 1.422 . S
C1450 C1451 1.372 1_565 S
C1451 C1450 1.372 1_545 S
C1451 C1452 1.400 . S
C1451 C1456 1.490 . S
C1452 H1442 0.930 . S
C1452 C1451 1.400 . S
C1452 C1455 1.386 . S
H1453 C1469 0.930 . S
H1454 C1470 0.931 . S
C1455 H1443 0.929 . S
C1455 C1449 1.390 . S
C1455 C1452 1.386 . S
C1456 C1451 1.490 . S
C1456 C1458 1.395 . S
C1456 C1459 1.403 . S
H1457 C1463 0.930 . S
C1458 H1444 0.930 . S
C1458 C1456 1.395 . S
C1458 C1461 1.403 . S
C1459 C1456 1.403 . S
C1459 C1460 1.524 . S
C1459 C1463 1.400 . S
C1460 H1445 0.971 . S
C1460 H1446 0.960 1_545 S
C1460 H1447 0.960 . S
C1460 C1459 1.524 . S
C1461 C1458 1.403 . S
C1461 C1462 1.392 . S
C1461 C1465 1.495 . S
C1462 C1461 1.392 . S
C1462 C1463 1.385 . S
C1462 C1464 1.478 . S
C1463 H1457 0.930 . S
C1463 C1459 1.400 . S
C1463 C1462 1.385 . S
C1464 C1462 1.478 . S
C1464 C1466 1.381 1_545 S
C1464 C1470 1.383 . S
C1465 C1461 1.495 . S
C1465 H1471 0.959 . S
C1465 H1472 0.961 . S
C1465 H1473 0.960 . S
C1466 C1464 1.381 1_565 S
C1466 C1467 1.394 . S
C1466 H1474 0.930 . S
C1467 C1466 1.394 . S
C1467 C1468 1.383 1_565 S
C1467 H1475 0.929 . S
C1468 C1467 1.383 1_545 S
C1468 C1469 1.377 . S
C1469 H1453 0.930 . S
C1469 C1468 1.377 . S
C1469 C1470 1.379 . S
C1470 H1454 0.931 . S
C1470 C1464 1.383 . S
C1470 C1469 1.379 . S
H1471 C1465 0.959 . S
H1472 C1465 0.961 . S
H1473 C1465 0.960 . S
H1474 C1466 0.930 . S
H1475 C1467 0.929 . S
H1476 C1484 0.929 . S
H1477 C1486 0.930 . S
H1478 C1488 0.930 . S
H1479 C1491 0.929 . S
H1480 C1494 0.930 . S
H1481 C1496 0.960 . S
H1482 C1496 0.960 . S
H1483 C1496 0.960 . S
C1484 H1476 0.929 . S
C1484 C1485 1.374 . S
C1484 C1486 1.384 . S
C1485 C1484 1.374 . S
C1485 C1491 1.381 1_545 S
C1486 H1477 0.930 . S
C1486 C1484 1.384 . S
C1486 C1487 1.366 1_545 S
C1487 C1486 1.366 1_565 S
C1487 C1488 1.397 . S
C1487 C1492 1.453 . S
C1488 H1478 0.930 . S
C1488 C1487 1.397 . S
C1488 C1491 1.386 . S
H1489 C1505 0.930 . S
H1490 C1506 0.931 . S
C1491 H1479 0.929 . S
C1491 C1485 1.381 1_565 S
C1491 C1488 1.386 . S
C1492 C1487 1.453 . S
C1492 C1494 1.487 . S
C1492 C1495 1.364 1_565 S
H1493 C1499 0.930 . S
C1494 H1480 0.930 . S
C1494 C1492 1.487 . S
C1494 C1497 1.403 . S
C1495 C1492 1.364 1_545 S
C1495 C1496 1.524 . S
C1495 C1499 1.400 . S
C1496 H1481 0.960 . S
C1496 H1482 0.960 . S
C1496 H1483 0.960 . S
C1496 C1495 1.524 . S
C1497 C1494 1.403 . S
C1497 C1498 1.392 . S
C1497 C1501 1.495 . S
C1498 C1497 1.392 . S
C1498 C1499 1.385 1_565 S
C1498 C1500 1.478 . S
C1499 H1493 0.930 . S
C1499 C1495 1.400 . S
C1499 C1498 1.385 1_545 S
C1500 C1498 1.478 . S
C1500 C1502 1.381 1_565 S
C1500 C1506 1.383 . S
C1501 C1497 1.495 . S
C1501 H1507 0.959 . S
C1501 H1508 0.961 . S
C1501 H1509 0.960 . S
C1502 C1500 1.381 1_545 S
C1502 C1503 1.394 . S
C1502 H1510 0.930 . S
C1503 C1502 1.394 . S
C1503 C1504 1.383 1_545 S
C1503 H1511 0.929 . S
C1504 C1503 1.383 1_565 S
C1504 C1505 1.377 . S
C1505 H1489 0.930 . S
C1505 C1504 1.377 . S
C1505 C1506 1.379 . S
C1506 H1490 0.931 . S
C1506 C1500 1.383 . S
C1506 C1505 1.379 . S
H1507 C1501 0.959 . S
H1508 C1501 0.961 . S
H1509 C1501 0.960 . S
H1510 C1502 0.930 . S
H1511 C1503 0.929 . S
H1512 C1520 0.929 . S
H1513 C1522 0.930 . S
H1514 C1524 0.930 . S
H1515 C1527 0.929 . S
H1516 C1530 0.930 . S
H1517 C1532 0.955 1_655 S
H1518 C1532 0.966 1_655 S
H1519 C1532 0.949 . S
C1520 H1512 0.929 . S
C1520 C1521 1.377 1_655 S
C1520 C1522 1.384 . S
C1521 C1520 1.377 1_455 S
C1521 C1527 1.390 . S
C1522 H1513 0.930 . S
C1522 C1520 1.384 . S
C1522 C1523 1.372 1_655 S
C1523 C1522 1.372 1_455 S
C1523 C1524 1.400 . S
C1523 C1528 1.490 . S
C1524 H1514 0.930 . S
C1524 C1523 1.400 . S
C1524 C1527 1.386 . S
H1525 C1541 0.930 . S
H1526 C1542 0.931 . S
C1527 H1515 0.929 . S
C1527 C1521 1.390 . S
C1527 C1524 1.386 . S
C1528 C1523 1.490 . S
C1528 C1530 1.395 . S
C1528 C1531 1.403 . S
H1529 C1535 0.930 . S
C1530 H1516 0.930 . S
C1530 C1528 1.395 . S
C1530 C1533 1.403 . S
C1531 C1528 1.403 . S
C1531 C1532 1.527 . S
C1531 C1535 1.400 . S
C1532 H1517 0.955 1_455 S
C1532 H1518 0.966 1_455 S
C1532 H1519 0.949 . S
C1532 C1531 1.527 . S
C1533 C1530 1.403 . S
C1533 C1534 1.392 . S
C1533 C1537 1.495 . S
C1534 C1533 1.392 . S
C1534 C1535 1.385 . S
C1534 C1536 1.478 . S
C1535 H1529 0.930 . S
C1535 C1531 1.400 . S
C1535 C1534 1.385 . S
C1536 C1534 1.478 . S
C1536 C1538 1.381 1_455 S
C1536 C1542 1.383 . S
C1537 C1533 1.495 . S
C1537 H1543 0.959 . S
C1537 H1544 0.961 . S
C1537 H1545 0.960 . S
C1538 C1536 1.381 1_655 S
C1538 C1539 1.394 . S
C1538 H1546 0.930 . S
C1539 C1538 1.394 . S
C1539 C1540 1.383 1_655 S
C1539 H1547 0.929 . S
C1540 C1539 1.383 1_455 S
C1540 C1541 1.377 . S
C1541 H1525 0.930 . S
C1541 C1540 1.377 . S
C1541 C1542 1.379 . S
C1542 H1526 0.931 . S
C1542 C1536 1.383 . S
C1542 C1541 1.379 . S
H1543 C1537 0.959 . S
H1544 C1537 0.961 . S
H1545 C1537 0.960 . S
H1546 C1538 0.930 . S
H1547 C1539 0.929 . S
H1548 C1556 0.929 . S
H1549 C1558 0.930 . S
H1550 C1560 0.930 . S
H1551 C1563 0.929 . S
H1552 C1566 0.930 . S
H1553 C1568 0.960 . S
H1554 C1568 0.960 . S
H1555 C1568 0.960 . S
C1556 H1548 0.929 . S
C1556 C1557 1.377 . S
C1556 C1558 1.384 . S
C1557 C1556 1.377 . S
C1557 C1563 1.390 . S
C1558 H1549 0.930 . S
C1558 C1556 1.384 . S
C1558 C1559 1.372 . S
C1559 C1558 1.372 . S
C1559 C1560 1.400 . S
C1559 C1564 1.490 . S
C1560 H1550 0.930 . S
C1560 C1559 1.400 . S
C1560 C1563 1.386 . S
H1561 C1577 0.930 . S
H1562 C1578 0.931 . S
C1563 H1551 0.929 . S
C1563 C1557 1.390 . S
C1563 C1560 1.386 . S
C1564 C1559 1.490 . S
C1564 C1566 1.395 . S
C1564 C1567 1.403 . S
H1565 C1571 0.930 . S
C1566 H1552 0.930 . S
C1566 C1564 1.395 . S
C1566 C1569 1.403 . S
C1567 C1564 1.403 . S
C1567 C1568 1.524 . S
C1567 C1571 1.400 . S
C1568 H1553 0.960 . S
C1568 H1554 0.960 . S
C1568 H1555 0.960 . S
C1568 C1567 1.524 . S
C1569 C1566 1.403 . S
C1569 C1570 1.392 . S
C1569 C1573 1.495 . S
C1570 C1569 1.392 . S
C1570 C1571 1.385 . S
C1570 C1572 1.478 . S
C1571 H1565 0.930 . S
C1571 C1567 1.400 . S
C1571 C1570 1.385 . S
C1572 C1570 1.478 . S
C1572 C1574 1.381 . S
C1572 C1578 1.383 . S
C1573 C1569 1.495 . S
C1573 H1579 0.959 . S
C1573 H1580 0.961 . S
C1573 H1581 0.960 . S
C1574 C1572 1.381 . S
C1574 C1575 1.394 . S
C1574 H1582 0.930 . S
C1575 C1574 1.394 . S
C1575 C1576 1.383 . S
C1575 H1583 0.929 . S
C1576 C1575 1.383 . S
C1576 C1577 1.377 . S
C1577 H1561 0.930 . S
C1577 C1576 1.377 . S
C1577 C1578 1.379 . S
C1578 H1562 0.931 . S
C1578 C1572 1.383 . S
C1578 C1577 1.379 . S
H1579 C1573 0.959 . S
H1580 C1573 0.961 . S
H1581 C1573 0.960 . S
H1582 C1574 0.930 . S
H1583 C1575 0.929 . S
H1584 C1592 0.929 . S
H1585 C1594 0.930 . S
H1586 C1596 0.928 . S
H1587 C1599 0.936 . S
H1588 C1602 0.930 . S
H1589 C1604 0.960 . S
H1590 C1604 0.960 . S
H1591 C1604 0.960 . S
C1592 H1584 0.929 . S
C1592 C1593 1.377 . S
C1592 C1594 1.384 . S
C1593 C1592 1.377 . S
C1593 C1599 1.393 1_455 S
C1594 H1585 0.930 . S
C1594 C1592 1.384 . S
C1594 C1595 1.372 . S
C1595 C1594 1.372 . S
C1595 C1596 1.393 1_455 S
C1595 C1600 1.490 . S
C1596 H1586 0.928 . S
C1596 C1595 1.393 1_655 S
C1596 C1599 1.385 . S
H1597 C1613 0.954 1_655 S
H1598 C1614 0.942 . S
C1599 H1587 0.936 . S
C1599 C1593 1.393 1_655 S
C1599 C1596 1.385 . S
C1600 C1595 1.490 . S
C1600 C1602 1.395 . S
C1600 C1603 1.403 1_455 S
H1601 C1607 0.930 . S
C1602 H1588 0.930 . S
C1602 C1600 1.395 . S
C1602 C1605 1.403 . S
C1603 C1600 1.403 1_655 S
C1603 C1604 1.524 . S
C1603 C1607 1.400 . S
C1604 H1589 0.960 . S
C1604 H1590 0.960 . S
C1604 H1591 0.960 . S
C1604 C1603 1.524 . S
C1605 C1602 1.403 . S
C1605 C1606 1.392 . S
C1605 C1609 1.495 . S
C1606 C1605 1.392 . S
C1606 C1607 1.385 1_455 S
C1606 C1608 1.478 . S
C1607 H1601 0.930 . S
C1607 C1603 1.400 . S
C1607 C1606 1.385 1_655 S
C1608 C1606 1.478 . S
C1608 C1610 1.381 . S
C1608 C1614 1.383 . S
C1609 C1605 1.495 . S
C1609 H1615 0.959 . S
C1609 H1616 0.961 . S
C1609 H1617 0.960 . S
C1610 C1608 1.381 . S
C1610 C1611 1.394 . S
C1610 H1618 0.930 . S
C1611 C1610 1.394 . S
C1611 C1612 1.383 . S
C1611 H1619 0.929 . S
C1612 C1611 1.383 . S
C1612 C1613 1.377 . S
C1613 H1597 0.954 1_455 S
C1613 C1612 1.377 . S
C1613 C1614 1.379 . S
C1614 H1598 0.942 . S
C1614 C1608 1.383 . S
C1614 C1613 1.379 . S
H1615 C1609 0.959 . S
H1616 C1609 0.961 . S
H1617 C1609 0.960 . S
H1618 C1610 0.930 . S
H1619 C1611 0.929 . S
H1620 C1628 0.929 . S
H1621 C1630 0.930 . S
H1622 C1632 0.930 . S
H1623 C1635 0.929 . S
H1624 C1638 0.930 . S
H1625 C1640 0.960 . S
H1626 C1640 0.960 . S
H1627 C1640 0.960 . S
C1628 H1620 0.929 . S
C1628 C1629 1.377 . S
C1628 C1630 1.384 . S
C1629 C1628 1.377 . S
C1629 C1635 1.390 . S
C1630 H1621 0.930 . S
C1630 C1628 1.384 . S
C1630 C1631 1.372 . S
C1631 C1630 1.372 . S
C1631 C1632 1.400 . S
C1631 C1636 1.490 . S
C1632 H1622 0.930 . S
C1632 C1631 1.400 . S
C1632 C1635 1.386 . S
H1633 C1649 0.930 . S
H1634 C1650 0.931 . S
C1635 H1623 0.929 . S
C1635 C1629 1.390 . S
C1635 C1632 1.386 . S
C1636 C1631 1.490 . S
C1636 C1638 1.395 . S
C1636 C1639 1.403 . S
H1637 C1643 0.930 . S
C1638 H1624 0.930 . S
C1638 C1636 1.395 . S
C1638 C1641 1.403 . S
C1639 C1636 1.403 . S
C1639 C1640 1.524 . S
C1639 C1643 1.400 . S
C1640 H1625 0.960 . S
C1640 H1626 0.960 . S
C1640 H1627 0.960 . S
C1640 C1639 1.524 . S
C1641 C1638 1.403 . S
C1641 C1642 1.392 . S
C1641 C1645 1.495 . S
C1642 C1641 1.392 . S
C1642 C1643 1.385 . S
C1642 C1644 1.478 . S
C1643 H1637 0.930 . S
C1643 C1639 1.400 . S
C1643 C1642 1.385 . S
C1644 C1642 1.478 . S
C1644 C1646 1.381 . S
C1644 C1650 1.383 . S
C1645 C1641 1.495 . S
C1645 H1651 0.959 . S
C1645 H1652 0.961 . S
C1645 H1653 0.960 . S
C1646 C1644 1.381 . S
C1646 C1647 1.394 . S
C1646 H1654 0.930 . S
C1647 C1646 1.394 . S
C1647 C1648 1.383 . S
C1647 H1655 0.929 . S
C1648 C1647 1.383 . S
C1648 C1649 1.377 . S
C1649 H1633 0.930 . S
C1649 C1648 1.377 . S
C1649 C1650 1.379 . S
C1650 H1634 0.931 . S
C1650 C1644 1.383 . S
C1650 C1649 1.379 . S
H1651 C1645 0.959 . S
H1652 C1645 0.961 . S
H1653 C1645 0.960 . S
H1654 C1646 0.930 . S
H1655 C1647 0.929 . S
H1656 C1664 0.946 1_545 S
H1657 C1666 0.930 . S
H1658 C1668 0.930 . S
H1659 C1671 0.929 . S
H1660 C1674 0.930 . S
H1661 C1676 0.960 . S
H1662 C1676 0.960 . S
H1663 C1676 0.960 . S
C1664 H1656 0.946 1_565 S
C1664 C1665 1.377 . S
C1664 C1666 1.384 . S
C1665 C1664 1.377 . S
C1665 C1671 1.390 . S
C1666 H1657 0.930 . S
C1666 C1664 1.384 . S
C1666 C1667 1.372 . S
C1667 C1666 1.372 . S
C1667 C1668 1.400 . S
C1667 C1672 1.490 . S
C1668 H1658 0.930 . S
C1668 C1667 1.400 . S
C1668 C1671 1.386 . S
H1669 C1685 0.930 . S
H1670 C1686 0.931 . S
C1671 H1659 0.929 . S
C1671 C1665 1.390 . S
C1671 C1668 1.386 . S
C1672 C1667 1.490 . S
C1672 C1674 1.395 . S
C1672 C1675 1.403 1_565 S
H1673 C1679 0.930 . S
C1674 H1660 0.930 . S
C1674 C1672 1.395 . S
C1674 C1677 1.403 . S
C1675 C1672 1.403 1_545 S
C1675 C1676 1.524 . S
C1675 C1679 1.400 . S
C1676 H1661 0.960 . S
C1676 H1662 0.960 . S
C1676 H1663 0.960 . S
C1676 C1675 1.524 . S
C1677 C1674 1.403 . S
C1677 C1678 1.392 . S
C1677 C1681 1.495 . S
C1678 C1677 1.392 . S
C1678 C1679 1.385 1_565 S
C1678 C1680 1.478 . S
C1679 H1673 0.930 . S
C1679 C1675 1.400 . S
C1679 C1678 1.385 1_545 S
C1680 C1678 1.478 . S
C1680 C1682 1.381 . S
C1680 C1686 1.383 . S
C1681 C1677 1.495 . S
C1681 H1687 0.959 . S
C1681 H1688 0.961 . S
C1681 H1689 0.960 . S
C1682 C1680 1.381 . S
C1682 C1683 1.394 . S
C1682 H1690 0.906 . S
C1683 C1682 1.394 . S
C1683 C1684 1.383 . S
C1683 H1691 0.930 1_565 S
C1684 C1683 1.383 . S
C1684 C1685 1.377 . S
C1685 H1669 0.930 . S
C1685 C1684 1.377 . S
C1685 C1686 1.379 . S
C1686 H1670 0.931 . S
C1686 C1680 1.383 . S
C1686 C1685 1.379 . S
H1687 C1681 0.959 . S
H1688 C1681 0.961 . S
H1689 C1681 0.960 . S
H1690 C1682 0.906 . S
H1691 C1683 0.930 1_545 S
H1692 C1700 0.929 . S
H1693 C1702 0.930 . S
H1694 C1704 0.920 . S
H1695 C1707 0.935 . S
H1696 C1710 0.930 . S
H1697 C1712 0.960 . S
H1698 C1712 0.960 . S
H1699 C1712 0.960 . S
C1700 H1692 0.929 . S
C1700 C1701 1.377 . S
C1700 C1702 1.384 . S
C1701 C1700 1.377 . S
C1701 C1707 1.390 . S
C1702 H1693 0.930 . S
C1702 C1700 1.384 . S
C1702 C1703 1.372 . S
C1703 C1702 1.372 . S
C1703 C1704 1.400 . S
C1703 C1708 1.490 . S
C1704 H1694 0.920 . S
C1704 C1703 1.400 . S
C1704 C1707 1.386 . S
H1705 C1721 0.930 . S
H1706 C1722 0.931 . S
C1707 H1695 0.935 . S
C1707 C1701 1.390 . S
C1707 C1704 1.386 . S
C1708 C1703 1.490 . S
C1708 C1710 1.395 . S
C1708 C1711 1.403 1_545 S
H1709 C1715 0.930 . S
C1710 H1696 0.930 . S
C1710 C1708 1.395 . S
C1710 C1713 1.403 . S
C1711 C1708 1.403 1_565 S
C1711 C1712 1.524 . S
C1711 C1715 1.400 . S
C1712 H1697 0.960 . S
C1712 H1698 0.960 . S
C1712 H1699 0.960 . S
C1712 C1711 1.524 . S
C1713 C1710 1.403 . S
C1713 C1714 1.392 . S
C1713 C1717 1.495 . S
C1714 C1713 1.392 . S
C1714 C1715 1.385 1_545 S
C1714 C1716 1.478 . S
C1715 H1709 0.930 . S
C1715 C1711 1.400 . S
C1715 C1714 1.385 1_565 S
C1716 C1714 1.478 . S
C1716 C1718 1.381 . S
C1716 C1722 1.383 . S
C1717 C1713 1.495 . S
C1717 H1723 0.959 . S
C1717 H1724 0.961 . S
C1717 H1725 0.960 . S
C1718 C1716 1.381 . S
C1718 C1719 1.394 . S
C1718 H1726 0.930 . S
C1719 C1718 1.394 . S
C1719 C1720 1.383 . S
C1719 H1727 0.929 . S
C1720 C1719 1.383 . S
C1720 C1721 1.377 . S
C1721 H1705 0.930 . S
C1721 C1720 1.377 . S
C1721 C1722 1.379 . S
C1722 H1706 0.931 . S
C1722 C1716 1.383 . S
C1722 C1721 1.379 . S
H1723 C1717 0.959 . S
H1724 C1717 0.961 . S
H1725 C1717 0.960 . S
H1726 C1718 0.930 . S
H1727 C1719 0.929 . S
H1728 C1736 0.929 . S
H1729 C1738 0.930 . S
H1730 C1740 0.927 1_455 S
H1731 C1743 0.925 1_455 S
H1732 C1746 0.930 . S
H1733 C1748 0.960 . S
H1734 C1748 0.960 . S
H1735 C1748 0.960 . S
C1736 H1728 0.929 . S
C1736 C1737 1.377 . S
C1736 C1738 1.384 . S
C1737 C1736 1.377 . S
C1737 C1743 1.390 . S
C1738 H1729 0.930 . S
C1738 C1736 1.384 . S
C1738 C1739 1.372 . S
C1739 C1738 1.372 . S
C1739 C1740 1.400 . S
C1739 C1744 1.490 . S
C1740 H1730 0.927 1_655 S
C1740 C1739 1.400 . S
C1740 C1743 1.386 . S
H1741 C1757 0.930 . S
H1742 C1758 0.931 . S
C1743 H1731 0.925 1_655 S
C1743 C1737 1.390 . S
C1743 C1740 1.386 . S
C1744 C1739 1.490 . S
C1744 C1746 1.395 . S
C1744 C1747 1.403 1_655 S
H1745 C1751 0.930 . S
C1746 H1732 0.930 . S
C1746 C1744 1.395 . S
C1746 C1749 1.403 . S
C1747 C1744 1.403 1_455 S
C1747 C1748 1.524 . S
C1747 C1751 1.400 . S
C1748 H1733 0.960 . S
C1748 H1734 0.960 . S
C1748 H1735 0.960 . S
C1748 C1747 1.524 . S
C1749 C1746 1.403 . S
C1749 C1750 1.392 . S
C1749 C1753 1.495 . S
C1750 C1749 1.392 . S
C1750 C1751 1.385 1_655 S
C1750 C1752 1.478 . S
C1751 H1745 0.930 . S
C1751 C1747 1.400 . S
C1751 C1750 1.385 1_455 S
C1752 C1750 1.478 . S
C1752 C1754 1.381 . S
C1752 C1758 1.383 . S
C1753 C1749 1.495 . S
C1753 H1759 0.959 . S
C1753 H1760 0.961 . S
C1753 H1761 0.960 . S
C1754 C1752 1.381 . S
C1754 C1755 1.394 . S
C1754 H1762 0.930 . S
C1755 C1754 1.394 . S
C1755 C1756 1.383 . S
C1755 H1763 0.929 . S
C1756 C1755 1.383 . S
C1756 C1757 1.377 . S
C1757 H1741 0.930 . S
C1757 C1756 1.377 . S
C1757 C1758 1.379 . S
C1758 H1742 0.931 . S
C1758 C1752 1.383 . S
C1758 C1757 1.379 . S
H1759 C1753 0.959 . S
H1760 C1753 0.961 . S
H1761 C1753 0.960 . S
H1762 C1754 0.930 . S
H1763 C1755 0.929 . S
H1764 C1772 0.929 . S
H1765 C1774 0.930 . S
H1766 C1776 0.930 . S
H1767 C1779 0.929 . S
H1768 C1782 0.930 . S
H1769 C1784 0.960 . S
H1770 C1784 0.960 . S
H1771 C1784 0.960 . S
C1772 H1764 0.929 . S
C1772 C1773 1.377 . S
C1772 C1774 1.384 . S
C1773 C1772 1.377 . S
C1773 C1779 1.390 . S
C1774 H1765 0.930 . S
C1774 C1772 1.384 . S
C1774 C1775 1.372 . S
C1775 C1774 1.372 . S
C1775 C1776 1.400 . S
C1775 C1780 1.490 . S
C1776 H1766 0.930 . S
C1776 C1775 1.400 . S
C1776 C1779 1.386 . S
H1777 C1793 0.930 . S
H1778 C1794 0.931 . S
C1779 H1767 0.929 . S
C1779 C1773 1.390 . S
C1779 C1776 1.386 . S
C1780 C1775 1.490 . S
C1780 C1782 1.395 . S
C1780 C1783 1.403 . S
H1781 C1787 0.930 . S
C1782 H1768 0.930 . S
C1782 C1780 1.395 . S
C1782 C1785 1.403 . S
C1783 C1780 1.403 . S
C1783 C1784 1.524 . S
C1783 C1787 1.400 . S
C1784 H1769 0.960 . S
C1784 H1770 0.960 . S
C1784 H1771 0.960 . S
C1784 C1783 1.524 . S
C1785 C1782 1.403 . S
C1785 C1786 1.392 . S
C1785 C1789 1.495 . S
C1786 C1785 1.392 . S
C1786 C1787 1.385 . S
C1786 C1788 1.478 . S
C1787 H1781 0.930 . S
C1787 C1783 1.400 . S
C1787 C1786 1.385 . S
C1788 C1786 1.478 . S
C1788 C1790 1.381 . S
C1788 C1794 1.383 . S
C1789 C1785 1.495 . S
C1789 H1795 0.959 . S
C1789 H1796 0.961 . S
C1789 H1797 0.960 . S
C1790 C1788 1.381 . S
C1790 C1791 1.394 . S
C1790 H1798 0.930 . S
C1791 C1790 1.394 . S
C1791 C1792 1.383 . S
C1791 H1799 0.929 . S
C1792 C1791 1.383 . S
C1792 C1793 1.377 . S
C1793 H1777 0.930 . S
C1793 C1792 1.377 . S
C1793 C1794 1.379 . S
C1794 H1778 0.931 . S
C1794 C1788 1.383 . S
C1794 C1793 1.379 . S
H1795 C1789 0.959 . S
H1796 C1789 0.961 . S
H1797 C1789 0.960 . S
H1798 C1790 0.930 . S
H1799 C1791 0.929 . S
H1800 C1808 0.929 . S
H1801 C1810 0.930 . S
H1802 C1812 0.930 . S
H1803 C1815 0.929 . S
H1804 C1818 0.930 . S
H1805 C1820 0.960 . S
H1806 C1820 0.960 . S
H1807 C1820 0.960 . S
C1808 H1800 0.929 . S
C1808 C1809 1.377 . S
C1808 C1810 1.384 . S
C1809 C1808 1.377 . S
C1809 C1815 1.390 . S
C1810 H1801 0.930 . S
C1810 C1808 1.384 . S
C1810 C1811 1.372 . S
C1811 C1810 1.372 . S
C1811 C1812 1.400 . S
C1811 C1816 1.490 . S
C1812 H1802 0.930 . S
C1812 C1811 1.400 . S
C1812 C1815 1.386 . S
H1813 C1829 0.930 . S
H1814 C1830 0.931 . S
C1815 H1803 0.929 . S
C1815 C1809 1.390 . S
C1815 C1812 1.386 . S
C1816 C1811 1.490 . S
C1816 C1818 1.395 . S
C1816 C1819 1.403 . S
H1817 C1823 0.930 . S
C1818 H1804 0.930 . S
C1818 C1816 1.395 . S
C1818 C1821 1.403 . S
C1819 C1816 1.403 . S
C1819 C1820 1.524 . S
C1819 C1823 1.400 . S
C1820 H1805 0.960 . S
C1820 H1806 0.960 . S
C1820 H1807 0.960 . S
C1820 C1819 1.524 . S
C1821 C1818 1.403 . S
C1821 C1822 1.392 . S
C1821 C1825 1.495 . S
C1822 C1821 1.392 . S
C1822 C1823 1.385 . S
C1822 C1824 1.478 . S
C1823 H1817 0.930 . S
C1823 C1819 1.400 . S
C1823 C1822 1.385 . S
C1824 C1822 1.478 . S
C1824 C1826 1.381 . S
C1824 C1830 1.383 . S
C1825 C1821 1.495 . S
C1825 H1831 0.959 . S
C1825 H1832 0.961 . S
C1825 H1833 0.960 . S
C1826 C1824 1.381 . S
C1826 C1827 1.394 . S
C1826 H1834 0.930 . S
C1827 C1826 1.394 . S
C1827 C1828 1.383 . S
C1827 H1835 0.929 . S
C1828 C1827 1.383 . S
C1828 C1829 1.377 . S
C1829 H1813 0.930 . S
C1829 C1828 1.377 . S
C1829 C1830 1.379 . S
C1830 H1814 0.931 . S
C1830 C1824 1.383 . S
C1830 C1829 1.379 . S
H1831 C1825 0.959 . S
H1832 C1825 0.961 . S
H1833 C1825 0.960 . S
H1834 C1826 0.930 . S
H1835 C1827 0.929 . S
H1836 C1844 0.929 . S
H1837 C1846 0.930 . S
H1838 C1848 0.930 . S
H1839 C1851 0.929 . S
H1840 C1854 0.930 . S
H1841 C1856 0.960 . S
H1842 C1856 0.960 . S
H1843 C1856 0.960 . S
C1844 H1836 0.929 . S
C1844 C1845 1.377 . S
C1844 C1846 1.384 . S
C1845 C1844 1.377 . S
C1845 C1851 1.390 . S
C1846 H1837 0.930 . S
C1846 C1844 1.384 . S
C1846 C1847 1.372 . S
C1847 C1846 1.372 . S
C1847 C1848 1.400 . S
C1847 C1852 1.490 . S
C1848 H1838 0.930 . S
C1848 C1847 1.400 . S
C1848 C1851 1.386 . S
H1849 C1865 0.930 . S
H1850 C1866 0.931 . S
C1851 H1839 0.929 . S
C1851 C1845 1.390 . S
C1851 C1848 1.386 . S
C1852 C1847 1.490 . S
C1852 C1854 1.395 . S
C1852 C1855 1.403 . S
H1853 C1859 0.930 . S
C1854 H1840 0.930 . S
C1854 C1852 1.395 . S
C1854 C1857 1.403 . S
C1855 C1852 1.403 . S
C1855 C1856 1.524 . S
C1855 C1859 1.400 . S
C1856 H1841 0.960 . S
C1856 H1842 0.960 . S
C1856 H1843 0.960 . S
C1856 C1855 1.524 . S
C1857 C1854 1.403 . S
C1857 C1858 1.392 . S
C1857 C1861 1.495 . S
C1858 C1857 1.392 . S
C1858 C1859 1.385 . S
C1858 C1860 1.478 . S
C1859 H1853 0.930 . S
C1859 C1855 1.400 . S
C1859 C1858 1.385 . S
C1860 C1858 1.478 . S
C1860 C1862 1.381 . S
C1860 C1866 1.383 . S
C1861 C1857 1.495 . S
C1861 H1867 0.959 . S
C1861 H1868 0.961 . S
C1861 H1869 0.960 . S
C1862 C1860 1.381 . S
C1862 C1863 1.394 . S
C1862 H1870 0.930 . S
C1863 C1862 1.394 . S
C1863 C1864 1.383 . S
C1863 H1871 0.929 . S
C1864 C1863 1.383 . S
C1864 C1865 1.377 . S
C1865 H1849 0.930 . S
C1865 C1864 1.377 . S
C1865 C1866 1.379 . S
C1866 H1850 0.931 . S
C1866 C1860 1.383 . S
C1866 C1865 1.379 . S
H1867 C1861 0.959 . S
H1868 C1861 0.961 . S
H1869 C1861 0.960 . S
H1870 C1862 0.930 . S
H1871 C1863 0.929 . S
H1872 C1880 0.929 . S
H1873 C1882 0.930 . S
H1874 C1884 0.930 . S
H1875 C1887 0.929 . S
H1876 C1890 0.930 . S
H1877 C1892 0.960 . S
H1878 C1892 0.960 . S
H1879 C1892 0.960 . S
C1880 H1872 0.929 . S
C1880 C1881 1.377 . S
C1880 C1882 1.384 . S
C1881 C1880 1.377 . S
C1881 C1887 1.390 . S
C1882 H1873 0.930 . S
C1882 C1880 1.384 . S
C1882 C1883 1.372 . S
C1883 C1882 1.372 . S
C1883 C1884 1.400 . S
C1883 C1888 1.490 . S
C1884 H1874 0.930 . S
C1884 C1883 1.400 . S
C1884 C1887 1.386 . S
H1885 C1901 0.930 . S
H1886 C1902 0.931 . S
C1887 H1875 0.929 . S
C1887 C1881 1.390 . S
C1887 C1884 1.386 . S
C1888 C1883 1.490 . S
C1888 C1890 1.395 . S
C1888 C1891 1.403 . S
H1889 C1895 0.930 . S
C1890 H1876 0.930 . S
C1890 C1888 1.395 . S
C1890 C1893 1.403 . S
C1891 C1888 1.403 . S
C1891 C1892 1.524 . S
C1891 C1895 1.400 . S
C1892 H1877 0.960 . S
C1892 H1878 0.960 . S
C1892 H1879 0.960 . S
C1892 C1891 1.524 . S
C1893 C1890 1.403 . S
C1893 C1894 1.392 . S
C1893 C1897 1.495 . S
C1894 C1893 1.392 . S
C1894 C1895 1.385 . S
C1894 C1896 1.478 . S
C1895 H1889 0.930 . S
C1895 C1891 1.400 . S
C1895 C1894 1.385 . S
C1896 C1894 1.478 . S
C1896 C1898 1.381 . S
C1896 C1902 1.383 . S
C1897 C1893 1.495 . S
C1897 H1903 0.959 . S
C1897 H1904 0.961 . S
C1897 H1905 0.960 . S
C1898 C1896 1.381 . S
C1898 C1899 1.394 . S
C1898 H1906 0.930 . S
C1899 C1898 1.394 . S
C1899 C1900 1.383 . S
C1899 H1907 0.929 . S
C1900 C1899 1.383 . S
C1900 C1901 1.377 . S
C1901 H1885 0.930 . S
C1901 C1900 1.377 . S
C1901 C1902 1.379 . S
C1902 H1886 0.931 . S
C1902 C1896 1.383 . S
C1902 C1901 1.379 . S
H1903 C1897 0.959 . S
H1904 C1897 0.961 . S
H1905 C1897 0.960 . S
H1906 C1898 0.930 . S
H1907 C1899 0.929 . S
H1908 C1916 0.929 . S
H1909 C1918 0.930 . S
H1910 C1920 0.930 . S
H1911 C1923 0.929 . S
H1912 C1926 0.930 . S
H1913 C1928 0.960 . S
H1914 C1928 0.960 . S
H1915 C1928 0.960 . S
C1916 H1908 0.929 . S
C1916 C1917 1.377 . S
C1916 C1918 1.384 . S
C1917 C1916 1.377 . S
C1917 C1923 1.390 . S
C1918 H1909 0.930 . S
C1918 C1916 1.384 . S
C1918 C1919 1.372 . S
C1919 C1918 1.372 . S
C1919 C1920 1.400 . S
C1919 C1924 1.490 . S
C1920 H1910 0.930 . S
C1920 C1919 1.400 . S
C1920 C1923 1.386 . S
H1921 C1937 0.930 . S
H1922 C1938 0.931 . S
C1923 H1911 0.929 . S
C1923 C1917 1.390 . S
C1923 C1920 1.386 . S
C1924 C1919 1.490 . S
C1924 C1926 1.395 . S
C1924 C1927 1.403 . S
H1925 C1931 0.930 . S
C1926 H1912 0.930 . S
C1926 C1924 1.395 . S
C1926 C1929 1.403 . S
C1927 C1924 1.403 . S
C1927 C1928 1.524 . S
C1927 C1931 1.400 . S
C1928 H1913 0.960 . S
C1928 H1914 0.960 . S
C1928 H1915 0.960 . S
C1928 C1927 1.524 . S
C1929 C1926 1.403 . S
C1929 C1930 1.392 . S
C1929 C1933 1.495 . S
C1930 C1929 1.392 . S
C1930 C1931 1.385 . S
C1930 C1932 1.478 . S
C1931 H1925 0.930 . S
C1931 C1927 1.400 . S
C1931 C1930 1.385 . S
C1932 C1930 1.478 . S
C1932 C1934 1.381 . S
C1932 C1938 1.383 . S
C1933 C1929 1.495 . S
C1933 H1939 0.959 . S
C1933 H1940 0.961 . S
C1933 H1941 0.960 . S
C1934 C1932 1.381 . S
C1934 C1935 1.394 . S
C1934 H1942 0.930 . S
C1935 C1934 1.394 . S
C1935 C1936 1.383 . S
C1935 H1943 0.929 . S
C1936 C1935 1.383 . S
C1936 C1937 1.377 . S
C1937 H1921 0.930 . S
C1937 C1936 1.377 . S
C1937 C1938 1.379 . S
C1938 H1922 0.931 . S
C1938 C1932 1.383 . S
C1938 C1937 1.379 . S
H1939 C1933 0.959 . S
H1940 C1933 0.961 . S
H1941 C1933 0.960 . S
H1942 C1934 0.930 . S
H1943 C1935 0.929 . S
H1944 C1952 0.929 . S
H1945 C1954 0.930 . S
H1946 C1956 0.930 . S
H1947 C1959 0.929 . S
H1948 C1962 0.930 . S
H1949 C1964 0.960 . S
H1950 C1964 0.960 . S
H1951 C1964 0.960 . S
C1952 H1944 0.929 . S
C1952 C1953 1.377 . S
C1952 C1954 1.384 . S
C1953 C1952 1.377 . S
C1953 C1959 1.390 . S
C1954 H1945 0.930 . S
C1954 C1952 1.384 . S
C1954 C1955 1.372 . S
C1955 C1954 1.372 . S
C1955 C1956 1.400 . S
C1955 C1960 1.490 . S
C1956 H1946 0.930 . S
C1956 C1955 1.400 . S
C1956 C1959 1.386 . S
H1957 C1973 0.930 . S
H1958 C1974 0.931 . S
C1959 H1947 0.929 . S
C1959 C1953 1.390 . S
C1959 C1956 1.386 . S
C1960 C1955 1.490 . S
C1960 C1962 1.395 . S
C1960 C1963 1.403 . S
H1961 C1967 0.930 . S
C1962 H1948 0.930 . S
C1962 C1960 1.395 . S
C1962 C1965 1.403 . S
C1963 C1960 1.403 . S
C1963 C1964 1.524 . S
C1963 C1967 1.400 . S
C1964 H1949 0.960 . S
C1964 H1950 0.960 . S
C1964 H1951 0.960 . S
C1964 C1963 1.524 . S
C1965 C1962 1.403 . S
C1965 C1966 1.392 . S
C1965 C1969 1.495 . S
C1966 C1965 1.392 . S
C1966 C1967 1.385 . S
C1966 C1968 1.478 . S
C1967 H1961 0.930 . S
C1967 C1963 1.400 . S
C1967 C1966 1.385 . S
C1968 C1966 1.478 . S
C1968 C1970 1.381 . S
C1968 C1974 1.383 . S
C1969 C1965 1.495 . S
C1969 H1975 0.959 . S
C1969 H1976 0.961 . S
C1969 H1977 0.960 . S
C1970 C1968 1.381 . S
C1970 C1971 1.394 . S
C1970 H1978 0.930 . S
C1971 C1970 1.394 . S
C1971 C1972 1.383 . S
C1971 H1979 0.929 . S
C1972 C1971 1.383 . S
C1972 C1973 1.377 . S
C1973 H1957 0.930 . S
C1973 C1972 1.377 . S
C1973 C1974 1.379 . S
C1974 H1958 0.931 . S
C1974 C1968 1.383 . S
C1974 C1973 1.379 . S
H1975 C1969 0.959 . S
H1976 C1969 0.961 . S
H1977 C1969 0.960 . S
H1978 C1970 0.930 . S
H1979 C1971 0.929 . S
H1980 C1988 0.929 . S
H1981 C1990 0.930 . S
H1982 C1992 0.930 . S
H1983 C1995 0.929 . S
H1984 C1998 0.930 . S
H1985 C2000 0.960 . S
H1986 C2000 0.960 . S
H1987 C2000 0.960 . S
C1988 H1980 0.929 . S
C1988 C1989 1.377 . S
C1988 C1990 1.384 . S
C1989 C1988 1.377 . S
C1989 C1995 1.390 . S
C1990 H1981 0.930 . S
C1990 C1988 1.384 . S
C1990 C1991 1.372 . S
C1991 C1990 1.372 . S
C1991 C1992 1.400 . S
C1991 C1996 1.490 . S
C1992 H1982 0.930 . S
C1992 C1991 1.400 . S
C1992 C1995 1.386 . S
H1993 C2009 0.930 . S
H1994 C2010 0.931 . S
C1995 H1983 0.929 . S
C1995 C1989 1.390 . S
C1995 C1992 1.386 . S
C1996 C1991 1.490 . S
C1996 C1998 1.395 . S
C1996 C1999 1.403 . S
H1997 C2003 0.930 . S
C1998 H1984 0.930 . S
C1998 C1996 1.395 . S
C1998 C2001 1.403 . S
C1999 C1996 1.403 . S
C1999 C2000 1.524 . S
C1999 C2003 1.400 . S
C2000 H1985 0.960 . S
C2000 H1986 0.960 . S
C2000 H1987 0.960 . S
C2000 C1999 1.524 . S
C2001 C1998 1.403 . S
C2001 C2002 1.392 . S
C2001 C2005 1.495 . S
C2002 C2001 1.392 . S
C2002 C2003 1.385 . S
C2002 C2004 1.478 . S
C2003 H1997 0.930 . S
C2003 C1999 1.400 . S
C2003 C2002 1.385 . S
C2004 C2002 1.478 . S
C2004 C2006 1.381 . S
C2004 C2010 1.383 . S
C2005 C2001 1.495 . S
C2005 H2011 0.959 . S
C2005 H2012 0.961 . S
C2005 H2013 0.960 . S
C2006 C2004 1.381 . S
C2006 C2007 1.394 . S
C2006 H2014 0.930 . S
C2007 C2006 1.394 . S
C2007 C2008 1.383 . S
C2007 H2015 0.929 . S
C2008 C2007 1.383 . S
C2008 C2009 1.377 . S
C2009 H1993 0.930 . S
C2009 C2008 1.377 . S
C2009 C2010 1.379 . S
C2010 H1994 0.931 . S
C2010 C2004 1.383 . S
C2010 C2009 1.379 . S
H2011 C2005 0.959 . S
H2012 C2005 0.961 . S
H2013 C2005 0.960 . S
H2014 C2006 0.930 . S
H2015 C2007 0.929 . S
H2016 C2024 0.929 . S
H2017 C2026 0.930 . S
H2018 C2028 0.930 . S
H2019 C2031 0.929 . S
H2020 C2034 0.930 . S
H2021 C2036 0.960 . S
H2022 C2036 0.960 . S
H2023 C2036 0.960 . S
C2024 H2016 0.929 . S
C2024 C2025 1.377 . S
C2024 C2026 1.384 . S
C2025 C2024 1.377 . S
C2025 C2031 1.390 . S
C2026 H2017 0.930 . S
C2026 C2024 1.384 . S
C2026 C2027 1.372 . S
C2027 C2026 1.372 . S
C2027 C2028 1.400 . S
C2027 C2032 1.490 . S
C2028 H2018 0.930 . S
C2028 C2027 1.400 . S
C2028 C2031 1.386 . S
H2029 C2045 0.930 . S
H2030 C2046 0.931 . S
C2031 H2019 0.929 . S
C2031 C2025 1.390 . S
C2031 C2028 1.386 . S
C2032 C2027 1.490 . S
C2032 C2034 1.395 . S
C2032 C2035 1.403 . S
H2033 C2039 0.930 . S
C2034 H2020 0.930 . S
C2034 C2032 1.395 . S
C2034 C2037 1.403 . S
C2035 C2032 1.403 . S
C2035 C2036 1.524 . S
C2035 C2039 1.400 . S
C2036 H2021 0.960 . S
C2036 H2022 0.960 . S
C2036 H2023 0.960 . S
C2036 C2035 1.524 . S
C2037 C2034 1.403 . S
C2037 C2038 1.392 . S
C2037 C2041 1.495 . S
C2038 C2037 1.392 . S
C2038 C2039 1.385 . S
C2038 C2040 1.478 . S
C2039 H2033 0.930 . S
C2039 C2035 1.400 . S
C2039 C2038 1.385 . S
C2040 C2038 1.478 . S
C2040 C2042 1.381 . S
C2040 C2046 1.383 . S
C2041 C2037 1.495 . S
C2041 H2047 0.959 . S
C2041 H2048 0.961 . S
C2041 H2049 0.960 . S
C2042 C2040 1.381 . S
C2042 C2043 1.394 . S
C2042 H2050 0.930 . S
C2043 C2042 1.394 . S
C2043 C2044 1.383 . S
C2043 H2051 0.929 . S
C2044 C2043 1.383 . S
C2044 C2045 1.377 . S
C2045 H2029 0.930 . S
C2045 C2044 1.377 . S
C2045 C2046 1.379 . S
C2046 H2030 0.931 . S
C2046 C2040 1.383 . S
C2046 C2045 1.379 . S
H2047 C2041 0.959 . S
H2048 C2041 0.961 . S
H2049 C2041 0.960 . S
H2050 C2042 0.930 . S
H2051 C2043 0.929 . S
H2052 C2060 0.929 . S
H2053 C2062 0.930 . S
H2054 C2064 0.930 . S
H2055 C2067 0.929 . S
H2056 C2070 0.930 . S
H2057 C2072 0.960 . S
H2058 C2072 0.960 . S
H2059 C2072 0.960 . S
C2060 H2052 0.929 . S
C2060 C2061 1.377 . S
C2060 C2062 1.384 . S
C2061 C2060 1.377 . S
C2061 C2067 1.390 . S
C2062 H2053 0.930 . S
C2062 C2060 1.384 . S
C2062 C2063 1.372 . S
C2063 C2062 1.372 . S
C2063 C2064 1.400 . S
C2063 C2068 1.490 . S
C2064 H2054 0.930 . S
C2064 C2063 1.400 . S
C2064 C2067 1.386 . S
H2065 C2081 0.930 . S
H2066 C2082 0.931 . S
C2067 H2055 0.929 . S
C2067 C2061 1.390 . S
C2067 C2064 1.386 . S
C2068 C2063 1.490 . S
C2068 C2070 1.395 . S
C2068 C2071 1.403 . S
H2069 C2075 0.930 . S
C2070 H2056 0.930 . S
C2070 C2068 1.395 . S
C2070 C2073 1.403 . S
C2071 C2068 1.403 . S
C2071 C2072 1.524 . S
C2071 C2075 1.400 . S
C2072 H2057 0.960 . S
C2072 H2058 0.960 . S
C2072 H2059 0.960 . S
C2072 C2071 1.524 . S
C2073 C2070 1.403 . S
C2073 C2074 1.392 . S
C2073 C2077 1.495 . S
C2074 C2073 1.392 . S
C2074 C2075 1.385 . S
C2074 C2076 1.478 . S
C2075 H2069 0.930 . S
C2075 C2071 1.400 . S
C2075 C2074 1.385 . S
C2076 C2074 1.478 . S
C2076 C2078 1.381 . S
C2076 C2082 1.383 . S
C2077 C2073 1.495 . S
C2077 H2083 0.959 . S
C2077 H2084 0.961 . S
C2077 H2085 0.960 . S
C2078 C2076 1.381 . S
C2078 C2079 1.394 . S
C2078 H2086 0.930 . S
C2079 C2078 1.394 . S
C2079 C2080 1.383 . S
C2079 H2087 0.929 . S
C2080 C2079 1.383 . S
C2080 C2081 1.377 . S
C2081 H2065 0.930 . S
C2081 C2080 1.377 . S
C2081 C2082 1.379 . S
C2082 H2066 0.931 . S
C2082 C2076 1.383 . S
C2082 C2081 1.379 . S
H2083 C2077 0.959 . S
H2084 C2077 0.961 . S
H2085 C2077 0.960 . S
H2086 C2078 0.930 . S
H2087 C2079 0.929 . S
H2088 C2096 0.929 . S
H2089 C2098 0.930 . S
H2090 C2100 0.930 . S
H2091 C2103 0.929 . S
H2092 C2106 0.930 . S
H2093 C2108 0.960 . S
H2094 C2108 0.960 . S
H2095 C2108 0.960 . S
C2096 H2088 0.929 . S
C2096 C2097 1.377 . S
C2096 C2098 1.384 . S
C2097 C2096 1.377 . S
C2097 C2103 1.390 . S
C2098 H2089 0.930 . S
C2098 C2096 1.384 . S
C2098 C2099 1.372 . S
C2099 C2098 1.372 . S
C2099 C2100 1.400 . S
C2099 C2104 1.490 . S
C2100 H2090 0.930 . S
C2100 C2099 1.400 . S
C2100 C2103 1.386 . S
H2101 C2117 0.930 . S
H2102 C2118 0.931 . S
C2103 H2091 0.929 . S
C2103 C2097 1.390 . S
C2103 C2100 1.386 . S
C2104 C2099 1.490 . S
C2104 C2106 1.395 . S
C2104 C2107 1.403 . S
H2105 C2111 0.930 . S
C2106 H2092 0.930 . S
C2106 C2104 1.395 . S
C2106 C2109 1.403 . S
C2107 C2104 1.403 . S
C2107 C2108 1.524 . S
C2107 C2111 1.400 . S
C2108 H2093 0.960 . S
C2108 H2094 0.960 . S
C2108 H2095 0.960 . S
C2108 C2107 1.524 . S
C2109 C2106 1.403 . S
C2109 C2110 1.392 . S
C2109 C2113 1.495 . S
C2110 C2109 1.392 . S
C2110 C2111 1.385 . S
C2110 C2112 1.478 . S
C2111 H2105 0.930 . S
C2111 C2107 1.400 . S
C2111 C2110 1.385 . S
C2112 C2110 1.478 . S
C2112 C2114 1.381 . S
C2112 C2118 1.383 . S
C2113 C2109 1.495 . S
C2113 H2119 0.959 . S
C2113 H2120 0.961 . S
C2113 H2121 0.960 . S
C2114 C2112 1.381 . S
C2114 C2115 1.394 . S
C2114 H2122 0.930 . S
C2115 C2114 1.394 . S
C2115 C2116 1.383 . S
C2115 H2123 0.929 . S
C2116 C2115 1.383 . S
C2116 C2117 1.377 . S
C2117 H2101 0.930 . S
C2117 C2116 1.377 . S
C2117 C2118 1.379 . S
C2118 H2102 0.931 . S
C2118 C2112 1.383 . S
C2118 C2117 1.379 . S
H2119 C2113 0.959 . S
H2120 C2113 0.961 . S
H2121 C2113 0.960 . S
H2122 C2114 0.930 . S
H2123 C2115 0.929 . S
H2124 C2132 0.929 . S
H2125 C2134 0.930 . S
H2126 C2136 0.930 . S
H2127 C2139 0.929 . S
H2128 C2142 0.930 . S
H2129 C2144 0.960 . S
H2130 C2144 0.960 . S
H2131 C2144 0.960 . S
C2132 H2124 0.929 . S
C2132 C2133 1.377 . S
C2132 C2134 1.384 . S
C2133 C2132 1.377 . S
C2133 C2139 1.390 . S
C2134 H2125 0.930 . S
C2134 C2132 1.384 . S
C2134 C2135 1.372 . S
C2135 C2134 1.372 . S
C2135 C2136 1.400 . S
C2135 C2140 1.490 . S
C2136 H2126 0.930 . S
C2136 C2135 1.400 . S
C2136 C2139 1.386 . S
H2137 C2153 0.930 . S
H2138 C2154 0.931 . S
C2139 H2127 0.929 . S
C2139 C2133 1.390 . S
C2139 C2136 1.386 . S
C2140 C2135 1.490 . S
C2140 C2142 1.395 . S
C2140 C2143 1.403 . S
H2141 C2147 0.930 . S
C2142 H2128 0.930 . S
C2142 C2140 1.395 . S
C2142 C2145 1.403 . S
C2143 C2140 1.403 . S
C2143 C2144 1.524 . S
C2143 C2147 1.400 . S
C2144 H2129 0.960 . S
C2144 H2130 0.960 . S
C2144 H2131 0.960 . S
C2144 C2143 1.524 . S
C2145 C2142 1.403 . S
C2145 C2146 1.392 . S
C2145 C2149 1.495 . S
C2146 C2145 1.392 . S
C2146 C2147 1.385 . S
C2146 C2148 1.478 . S
C2147 H2141 0.930 . S
C2147 C2143 1.400 . S
C2147 C2146 1.385 . S
C2148 C2146 1.478 . S
C2148 C2150 1.381 . S
C2148 C2154 1.383 . S
C2149 C2145 1.495 . S
C2149 H2155 0.959 . S
C2149 H2156 0.961 . S
C2149 H2157 0.960 . S
C2150 C2148 1.381 . S
C2150 C2151 1.394 . S
C2150 H2158 0.930 . S
C2151 C2150 1.394 . S
C2151 C2152 1.383 . S
C2151 H2159 0.929 . S
C2152 C2151 1.383 . S
C2152 C2153 1.377 . S
C2153 H2137 0.930 . S
C2153 C2152 1.377 . S
C2153 C2154 1.379 . S
C2154 H2138 0.931 . S
C2154 C2148 1.383 . S
C2154 C2153 1.379 . S
H2155 C2149 0.959 . S
H2156 C2149 0.961 . S
H2157 C2149 0.960 . S
H2158 C2150 0.930 . S
H2159 C2151 0.929 . S
H2160 C2168 0.929 . S
H2161 C2170 0.930 . S
H2162 C2172 0.930 . S
H2163 C2175 0.929 . S
H2164 C2178 0.930 . S
H2165 C2180 0.960 . S
H2166 C2180 0.960 . S
H2167 C2180 0.960 . S
C2168 H2160 0.929 . S
C2168 C2169 1.377 . S
C2168 C2170 1.384 . S
C2169 C2168 1.377 . S
C2169 C2175 1.390 . S
C2170 H2161 0.930 . S
C2170 C2168 1.384 . S
C2170 C2171 1.372 . S
C2171 C2170 1.372 . S
C2171 C2172 1.400 . S
C2171 C2176 1.490 . S
C2172 H2162 0.930 . S
C2172 C2171 1.400 . S
C2172 C2175 1.386 . S
H2173 C2189 0.930 . S
H2174 C2190 0.931 . S
C2175 H2163 0.929 . S
C2175 C2169 1.390 . S
C2175 C2172 1.386 . S
C2176 C2171 1.490 . S
C2176 C2178 1.395 . S
C2176 C2179 1.403 . S
H2177 C2183 0.930 . S
C2178 H2164 0.930 . S
C2178 C2176 1.395 . S
C2178 C2181 1.403 . S
C2179 C2176 1.403 . S
C2179 C2180 1.524 . S
C2179 C2183 1.400 . S
C2180 H2165 0.960 . S
C2180 H2166 0.960 . S
C2180 H2167 0.960 . S
C2180 C2179 1.524 . S
C2181 C2178 1.403 . S
C2181 C2182 1.392 . S
C2181 C2185 1.495 . S
C2182 C2181 1.392 . S
C2182 C2183 1.385 . S
C2182 C2184 1.478 . S
C2183 H2177 0.930 . S
C2183 C2179 1.400 . S
C2183 C2182 1.385 . S
C2184 C2182 1.478 . S
C2184 C2186 1.381 . S
C2184 C2190 1.383 . S
C2185 C2181 1.495 . S
C2185 H2191 0.959 . S
C2185 H2192 0.961 . S
C2185 H2193 0.960 . S
C2186 C2184 1.381 . S
C2186 C2187 1.394 . S
C2186 H2194 0.930 . S
C2187 C2186 1.394 . S
C2187 C2188 1.383 . S
C2187 H2195 0.929 . S
C2188 C2187 1.383 . S
C2188 C2189 1.377 . S
C2189 H2173 0.930 . S
C2189 C2188 1.377 . S
C2189 C2190 1.379 . S
C2190 H2174 0.931 . S
C2190 C2184 1.383 . S
C2190 C2189 1.379 . S
H2191 C2185 0.959 . S
H2192 C2185 0.961 . S
H2193 C2185 0.960 . S
H2194 C2186 0.930 . S
H2195 C2187 0.929 . S
H2196 C2204 0.929 . S
H2197 C2206 0.930 . S
H2198 C2208 0.930 . S
H2199 C2211 0.929 . S
H2200 C2214 0.930 . S
H2201 C2216 0.960 . S
H2202 C2216 0.960 . S
H2203 C2216 0.960 . S
C2204 H2196 0.929 . S
C2204 C2205 1.377 . S
C2204 C2206 1.384 . S
C2205 C2204 1.377 . S
C2205 C2211 1.390 . S
C2206 H2197 0.930 . S
C2206 C2204 1.384 . S
C2206 C2207 1.372 . S
C2207 C2206 1.372 . S
C2207 C2208 1.400 . S
C2207 C2212 1.490 . S
C2208 H2198 0.930 . S
C2208 C2207 1.400 . S
C2208 C2211 1.386 . S
H2209 C2225 0.930 . S
H2210 C2226 0.931 . S
C2211 H2199 0.929 . S
C2211 C2205 1.390 . S
C2211 C2208 1.386 . S
C2212 C2207 1.490 . S
C2212 C2214 1.395 . S
C2212 C2215 1.403 . S
H2213 C2219 0.930 . S
C2214 H2200 0.930 . S
C2214 C2212 1.395 . S
C2214 C2217 1.403 . S
C2215 C2212 1.403 . S
C2215 C2216 1.524 . S
C2215 C2219 1.400 . S
C2216 H2201 0.960 . S
C2216 H2202 0.960 . S
C2216 H2203 0.960 . S
C2216 C2215 1.524 . S
C2217 C2214 1.403 . S
C2217 C2218 1.392 . S
C2217 C2221 1.495 . S
C2218 C2217 1.392 . S
C2218 C2219 1.385 . S
C2218 C2220 1.478 . S
C2219 H2213 0.930 . S
C2219 C2215 1.400 . S
C2219 C2218 1.385 . S
C2220 C2218 1.478 . S
C2220 C2222 1.381 . S
C2220 C2226 1.383 . S
C2221 C2217 1.495 . S
C2221 H2227 0.959 . S
C2221 H2228 0.961 . S
C2221 H2229 0.960 . S
C2222 C2220 1.381 . S
C2222 C2223 1.394 . S
C2222 H2230 0.930 . S
C2223 C2222 1.394 . S
C2223 C2224 1.383 . S
C2223 H2231 0.929 . S
C2224 C2223 1.383 . S
C2224 C2225 1.377 . S
C2225 H2209 0.930 . S
C2225 C2224 1.377 . S
C2225 C2226 1.379 . S
C2226 H2210 0.931 . S
C2226 C2220 1.383 . S
C2226 C2225 1.379 . S
H2227 C2221 0.959 . S
H2228 C2221 0.961 . S
H2229 C2221 0.960 . S
H2230 C2222 0.930 . S
H2231 C2223 0.929 . S
H2232 C2240 0.929 . S
H2233 C2242 0.930 . S
H2234 C2244 0.930 . S
H2235 C2247 0.929 . S
H2236 C2250 0.930 . S
H2237 C2252 0.960 . S
H2238 C2252 0.960 . S
H2239 C2252 0.960 . S
C2240 H2232 0.929 . S
C2240 C2241 1.377 . S
C2240 C2242 1.384 . S
C2241 C2240 1.377 . S
C2241 C2247 1.390 . S
C2242 H2233 0.930 . S
C2242 C2240 1.384 . S
C2242 C2243 1.372 . S
C2243 C2242 1.372 . S
C2243 C2244 1.400 . S
C2243 C2248 1.490 . S
C2244 H2234 0.930 . S
C2244 C2243 1.400 . S
C2244 C2247 1.386 . S
H2245 C2261 0.930 . S
H2246 C2262 0.931 . S
C2247 H2235 0.929 . S
C2247 C2241 1.390 . S
C2247 C2244 1.386 . S
C2248 C2243 1.490 . S
C2248 C2250 1.395 . S
C2248 C2251 1.403 . S
H2249 C2255 0.930 . S
C2250 H2236 0.930 . S
C2250 C2248 1.395 . S
C2250 C2253 1.403 . S
C2251 C2248 1.403 . S
C2251 C2252 1.524 . S
C2251 C2255 1.400 . S
C2252 H2237 0.960 . S
C2252 H2238 0.960 . S
C2252 H2239 0.960 . S
C2252 C2251 1.524 . S
C2253 C2250 1.403 . S
C2253 C2254 1.392 . S
C2253 C2257 1.495 . S
C2254 C2253 1.392 . S
C2254 C2255 1.385 . S
C2254 C2256 1.478 . S
C2255 H2249 0.930 . S
C2255 C2251 1.400 . S
C2255 C2254 1.385 . S
C2256 C2254 1.478 . S
C2256 C2258 1.381 . S
C2256 C2262 1.383 . S
C2257 C2253 1.495 . S
C2257 H2263 0.959 . S
C2257 H2264 0.961 . S
C2257 H2265 0.960 . S
C2258 C2256 1.381 . S
C2258 C2259 1.394 . S
C2258 H2266 0.930 . S
C2259 C2258 1.394 . S
C2259 C2260 1.383 . S
C2259 H2267 0.929 . S
C2260 C2259 1.383 . S
C2260 C2261 1.377 . S
C2261 H2245 0.930 . S
C2261 C2260 1.377 . S
C2261 C2262 1.379 . S
C2262 H2246 0.931 . S
C2262 C2256 1.383 . S
C2262 C2261 1.379 . S
H2263 C2257 0.959 . S
H2264 C2257 0.961 . S
H2265 C2257 0.960 . S
H2266 C2258 0.930 . S
H2267 C2259 0.929 . S
H2268 C2276 0.929 . S
H2269 C2278 0.930 . S
H2270 C2280 0.930 . S
H2271 C2283 0.929 . S
H2272 C2286 0.930 . S
H2273 C2288 0.960 . S
H2274 C2288 0.960 . S
H2275 C2288 0.960 . S
C2276 H2268 0.929 . S
C2276 C2277 1.377 . S
C2276 C2278 1.384 . S
C2277 C2276 1.377 . S
C2277 C2283 1.390 . S
C2278 H2269 0.930 . S
C2278 C2276 1.384 . S
C2278 C2279 1.372 . S
C2279 C2278 1.372 . S
C2279 C2280 1.400 . S
C2279 C2284 1.490 . S
C2280 H2270 0.930 . S
C2280 C2279 1.400 . S
C2280 C2283 1.386 . S
H2281 C2297 0.930 . S
H2282 C2298 0.931 . S
C2283 H2271 0.929 . S
C2283 C2277 1.390 . S
C2283 C2280 1.386 . S
C2284 C2279 1.490 . S
C2284 C2286 1.395 . S
C2284 C2287 1.403 . S
H2285 C2291 0.930 . S
C2286 H2272 0.930 . S
C2286 C2284 1.395 . S
C2286 C2289 1.403 . S
C2287 C2284 1.403 . S
C2287 C2288 1.524 . S
C2287 C2291 1.400 . S
C2288 H2273 0.960 . S
C2288 H2274 0.960 . S
C2288 H2275 0.960 . S
C2288 C2287 1.524 . S
C2289 C2286 1.403 . S
C2289 C2290 1.392 . S
C2289 C2293 1.495 . S
C2290 C2289 1.392 . S
C2290 C2291 1.385 . S
C2290 C2292 1.478 . S
C2291 H2285 0.930 . S
C2291 C2287 1.400 . S
C2291 C2290 1.385 . S
C2292 C2290 1.478 . S
C2292 C2294 1.381 . S
C2292 C2298 1.383 . S
C2293 C2289 1.495 . S
C2293 H2299 0.959 . S
C2293 H2300 0.961 . S
C2293 H2301 0.960 . S
C2294 C2292 1.381 . S
C2294 C2295 1.394 . S
C2294 H2302 0.930 . S
C2295 C2294 1.394 . S
C2295 C2296 1.383 . S
C2295 H2303 0.929 . S
C2296 C2295 1.383 . S
C2296 C2297 1.377 . S
C2297 H2281 0.930 . S
C2297 C2296 1.377 . S
C2297 C2298 1.379 . S
C2298 H2282 0.931 . S
C2298 C2292 1.383 . S
C2298 C2297 1.379 . S
H2299 C2293 0.959 . S
H2300 C2293 0.961 . S
H2301 C2293 0.960 . S
H2302 C2294 0.930 . S
H2303 C2295 0.929 . S
H2304 C2312 0.929 . S
H2305 C2314 0.930 . S
H2306 C2316 0.930 . S
H2307 C2319 0.929 . S
H2308 C2322 0.930 . S
H2309 C2324 0.960 . S
H2310 C2324 0.960 . S
H2311 C2324 0.960 . S
C2312 H2304 0.929 . S
C2312 C2313 1.377 . S
C2312 C2314 1.384 . S
C2313 C2312 1.377 . S
C2313 C2319 1.390 . S
C2314 H2305 0.930 . S
C2314 C2312 1.384 . S
C2314 C2315 1.372 . S
C2315 C2314 1.372 . S
C2315 C2316 1.400 . S
C2315 C2320 1.490 . S
C2316 H2306 0.930 . S
C2316 C2315 1.400 . S
C2316 C2319 1.386 . S
H2317 C2333 0.930 . S
H2318 C2334 0.931 . S
C2319 H2307 0.929 . S
C2319 C2313 1.390 . S
C2319 C2316 1.386 . S
C2320 C2315 1.490 . S
C2320 C2322 1.395 . S
C2320 C2323 1.403 . S
H2321 C2327 0.930 . S
C2322 H2308 0.930 . S
C2322 C2320 1.395 . S
C2322 C2325 1.403 . S
C2323 C2320 1.403 . S
C2323 C2324 1.524 . S
C2323 C2327 1.400 . S
C2324 H2309 0.960 . S
C2324 H2310 0.960 . S
C2324 H2311 0.960 . S
C2324 C2323 1.524 . S
C2325 C2322 1.403 . S
C2325 C2326 1.392 . S
C2325 C2329 1.495 . S
C2326 C2325 1.392 . S
C2326 C2327 1.385 . S
C2326 C2328 1.478 . S
C2327 H2321 0.930 . S
C2327 C2323 1.400 . S
C2327 C2326 1.385 . S
C2328 C2326 1.478 . S
C2328 C2330 1.381 . S
C2328 C2334 1.383 . S
C2329 C2325 1.495 . S
C2329 H2335 0.959 . S
C2329 H2336 0.961 . S
C2329 H2337 0.960 . S
C2330 C2328 1.381 . S
C2330 C2331 1.394 . S
C2330 H2338 0.930 . S
C2331 C2330 1.394 . S
C2331 C2332 1.383 . S
C2331 H2339 0.929 . S
C2332 C2331 1.383 . S
C2332 C2333 1.377 . S
C2333 H2317 0.930 . S
C2333 C2332 1.377 . S
C2333 C2334 1.379 . S
C2334 H2318 0.931 . S
C2334 C2328 1.383 . S
C2334 C2333 1.379 . S
H2335 C2329 0.959 . S
H2336 C2329 0.961 . S
H2337 C2329 0.960 . S
H2338 C2330 0.930 . S
H2339 C2331 0.929 . S
H2340 C2348 0.929 . S
H2341 C2350 0.930 . S
H2342 C2352 0.930 . S
H2343 C2355 0.929 . S
H2344 C2358 0.930 . S
H2345 C2360 0.960 . S
H2346 C2360 0.960 . S
H2347 C2360 0.960 . S
C2348 H2340 0.929 . S
C2348 C2349 1.377 . S
C2348 C2350 1.384 . S
C2349 C2348 1.377 . S
C2349 C2355 1.390 . S
C2350 H2341 0.930 . S
C2350 C2348 1.384 . S
C2350 C2351 1.372 . S
C2351 C2350 1.372 . S
C2351 C2352 1.400 . S
C2351 C2356 1.490 . S
C2352 H2342 0.930 . S
C2352 C2351 1.400 . S
C2352 C2355 1.386 . S
H2353 C2369 0.930 . S
H2354 C2370 0.931 . S
C2355 H2343 0.929 . S
C2355 C2349 1.390 . S
C2355 C2352 1.386 . S
C2356 C2351 1.490 . S
C2356 C2358 1.395 . S
C2356 C2359 1.403 . S
H2357 C2363 0.930 . S
C2358 H2344 0.930 . S
C2358 C2356 1.395 . S
C2358 C2361 1.403 . S
C2359 C2356 1.403 . S
C2359 C2360 1.524 . S
C2359 C2363 1.400 . S
C2360 H2345 0.960 . S
C2360 H2346 0.960 . S
C2360 H2347 0.960 . S
C2360 C2359 1.524 . S
C2361 C2358 1.403 . S
C2361 C2362 1.392 . S
C2361 C2365 1.495 . S
C2362 C2361 1.392 . S
C2362 C2363 1.385 . S
C2362 C2364 1.478 . S
C2363 H2357 0.930 . S
C2363 C2359 1.400 . S
C2363 C2362 1.385 . S
C2364 C2362 1.478 . S
C2364 C2366 1.381 . S
C2364 C2370 1.383 . S
C2365 C2361 1.495 . S
C2365 H2371 0.959 . S
C2365 H2372 0.961 . S
C2365 H2373 0.960 . S
C2366 C2364 1.381 . S
C2366 C2367 1.394 . S
C2366 H2374 0.930 . S
C2367 C2366 1.394 . S
C2367 C2368 1.383 . S
C2367 H2375 0.929 . S
C2368 C2367 1.383 . S
C2368 C2369 1.377 . S
C2369 H2353 0.930 . S
C2369 C2368 1.377 . S
C2369 C2370 1.379 . S
C2370 H2354 0.931 . S
C2370 C2364 1.383 . S
C2370 C2369 1.379 . S
H2371 C2365 0.959 . S
H2372 C2365 0.961 . S
H2373 C2365 0.960 . S
H2374 C2366 0.930 . S
H2375 C2367 0.929 . S
H2376 C2384 0.929 . S
H2377 C2386 0.930 . S
H2378 C2388 0.930 . S
H2379 C2391 0.929 . S
H2380 C2394 0.930 . S
H2381 C2396 0.960 . S
H2382 C2396 0.960 . S
H2383 C2396 0.960 . S
C2384 H2376 0.929 . S
C2384 C2385 1.377 . S
C2384 C2386 1.384 . S
C2385 C2384 1.377 . S
C2385 C2391 1.390 . S
C2386 H2377 0.930 . S
C2386 C2384 1.384 . S
C2386 C2387 1.372 . S
C2387 C2386 1.372 . S
C2387 C2388 1.400 . S
C2387 C2392 1.490 . S
C2388 H2378 0.930 . S
C2388 C2387 1.400 . S
C2388 C2391 1.386 . S
H2389 C2405 0.930 . S
H2390 C2406 0.931 . S
C2391 H2379 0.929 . S
C2391 C2385 1.390 . S
C2391 C2388 1.386 . S
C2392 C2387 1.490 . S
C2392 C2394 1.395 . S
C2392 C2395 1.403 . S
H2393 C2399 0.930 . S
C2394 H2380 0.930 . S
C2394 C2392 1.395 . S
C2394 C2397 1.403 . S
C2395 C2392 1.403 . S
C2395 C2396 1.524 . S
C2395 C2399 1.400 . S
C2396 H2381 0.960 . S
C2396 H2382 0.960 . S
C2396 H2383 0.960 . S
C2396 C2395 1.524 . S
C2397 C2394 1.403 . S
C2397 C2398 1.392 . S
C2397 C2401 1.495 . S
C2398 C2397 1.392 . S
C2398 C2399 1.385 . S
C2398 C2400 1.478 . S
C2399 H2393 0.930 . S
C2399 C2395 1.400 . S
C2399 C2398 1.385 . S
C2400 C2398 1.478 . S
C2400 C2402 1.381 . S
C2400 C2406 1.383 . S
C2401 C2397 1.495 . S
C2401 H2407 0.959 . S
C2401 H2408 0.961 . S
C2401 H2409 0.960 . S
C2402 C2400 1.381 . S
C2402 C2403 1.394 . S
C2402 H2410 0.930 . S
C2403 C2402 1.394 . S
C2403 C2404 1.383 . S
C2403 H2411 0.929 . S
C2404 C2403 1.383 . S
C2404 C2405 1.377 . S
C2405 H2389 0.930 . S
C2405 C2404 1.377 . S
C2405 C2406 1.379 . S
C2406 H2390 0.931 . S
C2406 C2400 1.383 . S
C2406 C2405 1.379 . S
H2407 C2401 0.959 . S
H2408 C2401 0.961 . S
H2409 C2401 0.960 . S
H2410 C2402 0.930 . S
H2411 C2403 0.929 . S
H2412 C2420 0.929 . S
H2413 C2422 0.930 . S
H2414 C2424 0.930 . S
H2415 C2427 0.929 . S
H2416 C2430 0.930 . S
H2417 C2432 0.960 . S
H2418 C2432 0.960 . S
H2419 C2432 0.960 . S
C2420 H2412 0.929 . S
C2420 C2421 1.377 . S
C2420 C2422 1.384 . S
C2421 C2420 1.377 . S
C2421 C2427 1.390 . S
C2422 H2413 0.930 . S
C2422 C2420 1.384 . S
C2422 C2423 1.372 . S
C2423 C2422 1.372 . S
C2423 C2424 1.400 . S
C2423 C2428 1.490 . S
C2424 H2414 0.930 . S
C2424 C2423 1.400 . S
C2424 C2427 1.386 . S
H2425 C2441 0.930 . S
H2426 C2442 0.931 . S
C2427 H2415 0.929 . S
C2427 C2421 1.390 . S
C2427 C2424 1.386 . S
C2428 C2423 1.490 . S
C2428 C2430 1.395 . S
C2428 C2431 1.403 . S
H2429 C2435 0.930 . S
C2430 H2416 0.930 . S
C2430 C2428 1.395 . S
C2430 C2433 1.403 . S
C2431 C2428 1.403 . S
C2431 C2432 1.524 . S
C2431 C2435 1.400 . S
C2432 H2417 0.960 . S
C2432 H2418 0.960 . S
C2432 H2419 0.960 . S
C2432 C2431 1.524 . S
C2433 C2430 1.403 . S
C2433 C2434 1.392 . S
C2433 C2437 1.495 . S
C2434 C2433 1.392 . S
C2434 C2435 1.385 . S
C2434 C2436 1.478 . S
C2435 H2429 0.930 . S
C2435 C2431 1.400 . S
C2435 C2434 1.385 . S
C2436 C2434 1.478 . S
C2436 C2438 1.381 . S
C2436 C2442 1.383 . S
C2437 C2433 1.495 . S
C2437 H2443 0.959 . S
C2437 H2444 0.961 . S
C2437 H2445 0.960 . S
C2438 C2436 1.381 . S
C2438 C2439 1.394 . S
C2438 H2446 0.930 . S
C2439 C2438 1.394 . S
C2439 C2440 1.383 . S
C2439 H2447 0.929 . S
C2440 C2439 1.383 . S
C2440 C2441 1.377 . S
C2441 H2425 0.930 . S
C2441 C2440 1.377 . S
C2441 C2442 1.379 . S
C2442 H2426 0.931 . S
C2442 C2436 1.383 . S
C2442 C2441 1.379 . S
H2443 C2437 0.959 . S
H2444 C2437 0.961 . S
H2445 C2437 0.960 . S
H2446 C2438 0.930 . S
H2447 C2439 0.929 . S
H2448 C2456 0.929 . S
H2449 C2458 0.930 . S
H2450 C2460 0.930 . S
H2451 C2463 0.929 . S
H2452 C2466 0.930 . S
H2453 C2468 0.960 . S
H2454 C2468 0.960 . S
H2455 C2468 0.960 . S
C2456 H2448 0.929 . S
C2456 C2457 1.377 . S
C2456 C2458 1.384 . S
C2457 C2456 1.377 . S
C2457 C2463 1.390 . S
C2458 H2449 0.930 . S
C2458 C2456 1.384 . S
C2458 C2459 1.372 . S
C2459 C2458 1.372 . S
C2459 C2460 1.400 . S
C2459 C2464 1.490 . S
C2460 H2450 0.930 . S
C2460 C2459 1.400 . S
C2460 C2463 1.386 . S
H2461 C2477 0.930 . S
H2462 C2478 0.931 . S
C2463 H2451 0.929 . S
C2463 C2457 1.390 . S
C2463 C2460 1.386 . S
C2464 C2459 1.490 . S
C2464 C2466 1.395 . S
C2464 C2467 1.403 . S
H2465 C2471 0.930 . S
C2466 H2452 0.930 . S
C2466 C2464 1.395 . S
C2466 C2469 1.403 . S
C2467 C2464 1.403 . S
C2467 C2468 1.524 . S
C2467 C2471 1.400 . S
C2468 H2453 0.960 . S
C2468 H2454 0.960 . S
C2468 H2455 0.960 . S
C2468 C2467 1.524 . S
C2469 C2466 1.403 . S
C2469 C2470 1.392 . S
C2469 C2473 1.495 . S
C2470 C2469 1.392 . S
C2470 C2471 1.385 . S
C2470 C2472 1.478 . S
C2471 H2465 0.930 . S
C2471 C2467 1.400 . S
C2471 C2470 1.385 . S
C2472 C2470 1.478 . S
C2472 C2474 1.381 . S
C2472 C2478 1.383 . S
C2473 C2469 1.495 . S
C2473 H2479 0.959 . S
C2473 H2480 0.961 . S
C2473 H2481 0.960 . S
C2474 C2472 1.381 . S
C2474 C2475 1.394 . S
C2474 H2482 0.930 . S
C2475 C2474 1.394 . S
C2475 C2476 1.383 . S
C2475 H2483 0.929 . S
C2476 C2475 1.383 . S
C2476 C2477 1.377 . S
C2477 H2461 0.930 . S
C2477 C2476 1.377 . S
C2477 C2478 1.379 . S
C2478 H2462 0.931 . S
C2478 C2472 1.383 . S
C2478 C2477 1.379 . S
H2479 C2473 0.959 . S
H2480 C2473 0.961 . S
H2481 C2473 0.960 . S
H2482 C2474 0.930 . S
H2483 C2475 0.929 . S
H2484 C2492 0.929 . S
H2485 C2494 0.930 . S
H2486 C2496 0.930 . S
H2487 C2499 0.929 . S
H2488 C2502 0.930 . S
H2489 C2504 0.960 . S
H2490 C2504 0.960 . S
H2491 C2504 0.960 . S
C2492 H2484 0.929 . S
C2492 C2493 1.377 . S
C2492 C2494 1.384 . S
C2493 C2492 1.377 . S
C2493 C2499 1.390 . S
C2494 H2485 0.930 . S
C2494 C2492 1.384 . S
C2494 C2495 1.372 . S
C2495 C2494 1.372 . S
C2495 C2496 1.400 . S
C2495 C2500 1.490 . S
C2496 H2486 0.930 . S
C2496 C2495 1.400 . S
C2496 C2499 1.386 . S
H2497 C2513 0.930 . S
H2498 C2514 0.931 . S
C2499 H2487 0.929 . S
C2499 C2493 1.390 . S
C2499 C2496 1.386 . S
C2500 C2495 1.490 . S
C2500 C2502 1.395 . S
C2500 C2503 1.403 . S
H2501 C2507 0.930 . S
C2502 H2488 0.930 . S
C2502 C2500 1.395 . S
C2502 C2505 1.403 . S
C2503 C2500 1.403 . S
C2503 C2504 1.524 . S
C2503 C2507 1.400 . S
C2504 H2489 0.960 . S
C2504 H2490 0.960 . S
C2504 H2491 0.960 . S
C2504 C2503 1.524 . S
C2505 C2502 1.403 . S
C2505 C2506 1.392 . S
C2505 C2509 1.495 . S
C2506 C2505 1.392 . S
C2506 C2507 1.385 . S
C2506 C2508 1.478 . S
C2507 H2501 0.930 . S
C2507 C2503 1.400 . S
C2507 C2506 1.385 . S
C2508 C2506 1.478 . S
C2508 C2510 1.381 . S
C2508 C2514 1.383 . S
C2509 C2505 1.495 . S
C2509 H2515 0.959 . S
C2509 H2516 0.961 . S
C2509 H2517 0.960 . S
C2510 C2508 1.381 . S
C2510 C2511 1.394 . S
C2510 H2518 0.930 . S
C2511 C2510 1.394 . S
C2511 C2512 1.383 . S
C2511 H2519 0.929 . S
C2512 C2511 1.383 . S
C2512 C2513 1.377 . S
C2513 H2497 0.930 . S
C2513 C2512 1.377 . S
C2513 C2514 1.379 . S
C2514 H2498 0.931 . S
C2514 C2508 1.383 . S
C2514 C2513 1.379 . S
H2515 C2509 0.959 . S
H2516 C2509 0.961 . S
H2517 C2509 0.960 . S
H2518 C2510 0.930 . S
H2519 C2511 0.929 . S
H2520 C2528 0.929 . S
H2521 C2530 0.930 . S
H2522 C2532 0.930 . S
H2523 C2535 0.929 . S
H2524 C2538 0.930 . S
H2525 C2540 0.960 . S
H2526 C2540 0.960 . S
H2527 C2540 0.960 . S
C2528 H2520 0.929 . S
C2528 C2529 1.377 . S
C2528 C2530 1.384 . S
C2529 C2528 1.377 . S
C2529 C2535 1.390 . S
C2530 H2521 0.930 . S
C2530 C2528 1.384 . S
C2530 C2531 1.372 . S
C2531 C2530 1.372 . S
C2531 C2532 1.400 . S
C2531 C2536 1.490 . S
C2532 H2522 0.930 . S
C2532 C2531 1.400 . S
C2532 C2535 1.386 . S
H2533 C2549 0.930 . S
H2534 C2550 0.931 . S
C2535 H2523 0.929 . S
C2535 C2529 1.390 . S
C2535 C2532 1.386 . S
C2536 C2531 1.490 . S
C2536 C2538 1.395 . S
C2536 C2539 1.403 . S
H2537 C2543 0.930 . S
C2538 H2524 0.930 . S
C2538 C2536 1.395 . S
C2538 C2541 1.403 . S
C2539 C2536 1.403 . S
C2539 C2540 1.524 . S
C2539 C2543 1.400 . S
C2540 H2525 0.960 . S
C2540 H2526 0.960 . S
C2540 H2527 0.960 . S
C2540 C2539 1.524 . S
C2541 C2538 1.403 . S
C2541 C2542 1.392 . S
C2541 C2545 1.495 . S
C2542 C2541 1.392 . S
C2542 C2543 1.385 . S
C2542 C2544 1.478 . S
C2543 H2537 0.930 . S
C2543 C2539 1.400 . S
C2543 C2542 1.385 . S
C2544 C2542 1.478 . S
C2544 C2546 1.381 . S
C2544 C2550 1.383 . S
C2545 C2541 1.495 . S
C2545 H2551 0.959 . S
C2545 H2552 0.961 . S
C2545 H2553 0.960 . S
C2546 C2544 1.381 . S
C2546 C2547 1.394 . S
C2546 H2554 0.930 . S
C2547 C2546 1.394 . S
C2547 C2548 1.383 . S
C2547 H2555 0.929 . S
C2548 C2547 1.383 . S
C2548 C2549 1.377 . S
C2549 H2533 0.930 . S
C2549 C2548 1.377 . S
C2549 C2550 1.379 . S
C2550 H2534 0.931 . S
C2550 C2544 1.383 . S
C2550 C2549 1.379 . S
H2551 C2545 0.959 . S
H2552 C2545 0.961 . S
H2553 C2545 0.960 . S
H2554 C2546 0.930 . S
H2555 C2547 0.929 . S
H2556 C2564 0.929 . S
H2557 C2566 0.930 . S
H2558 C2568 0.930 . S
H2559 C2571 0.929 . S
H2560 C2574 0.930 . S
H2561 C2576 0.960 . S
H2562 C2576 0.960 . S
H2563 C2576 0.960 . S
C2564 H2556 0.929 . S
C2564 C2565 1.377 . S
C2564 C2566 1.384 . S
C2565 C2564 1.377 . S
C2565 C2571 1.390 . S
C2566 H2557 0.930 . S
C2566 C2564 1.384 . S
C2566 C2567 1.372 . S
C2567 C2566 1.372 . S
C2567 C2568 1.400 . S
C2567 C2572 1.490 . S
C2568 H2558 0.930 . S
C2568 C2567 1.400 . S
C2568 C2571 1.386 . S
H2569 C2585 0.930 . S
H2570 C2586 0.931 . S
C2571 H2559 0.929 . S
C2571 C2565 1.390 . S
C2571 C2568 1.386 . S
C2572 C2567 1.490 . S
C2572 C2574 1.395 . S
C2572 C2575 1.403 . S
H2573 C2579 0.930 . S
C2574 H2560 0.930 . S
C2574 C2572 1.395 . S
C2574 C2577 1.403 . S
C2575 C2572 1.403 . S
C2575 C2576 1.524 . S
C2575 C2579 1.400 . S
C2576 H2561 0.960 . S
C2576 H2562 0.960 . S
C2576 H2563 0.960 . S
C2576 C2575 1.524 . S
C2577 C2574 1.403 . S
C2577 C2578 1.392 . S
C2577 C2581 1.495 . S
C2578 C2577 1.392 . S
C2578 C2579 1.385 . S
C2578 C2580 1.478 . S
C2579 H2573 0.930 . S
C2579 C2575 1.400 . S
C2579 C2578 1.385 . S
C2580 C2578 1.478 . S
C2580 C2582 1.381 . S
C2580 C2586 1.383 . S
C2581 C2577 1.495 . S
C2581 H2587 0.959 . S
C2581 H2588 0.961 . S
C2581 H2589 0.960 . S
C2582 C2580 1.381 . S
C2582 C2583 1.394 . S
C2582 H2590 0.930 . S
C2583 C2582 1.394 . S
C2583 C2584 1.383 . S
C2583 H2591 0.929 . S
C2584 C2583 1.383 . S
C2584 C2585 1.377 . S
C2585 H2569 0.930 . S
C2585 C2584 1.377 . S
C2585 C2586 1.379 . S
C2586 H2570 0.931 . S
C2586 C2580 1.383 . S
C2586 C2585 1.379 . S
H2587 C2581 0.959 . S
H2588 C2581 0.961 . S
H2589 C2581 0.960 . S
H2590 C2582 0.930 . S
H2591 C2583 0.929 . S
H2592 C2600 0.929 . S
H2593 C2602 0.930 . S
H2594 C2604 0.930 . S
H2595 C2607 0.929 . S
H2596 C2610 0.930 . S
H2597 C2612 0.960 . S
H2598 C2612 0.960 . S
H2599 C2612 0.960 . S
C2600 H2592 0.929 . S
C2600 C2601 1.377 . S
C2600 C2602 1.384 . S
C2601 C2600 1.377 . S
C2601 C2607 1.390 . S
C2602 H2593 0.930 . S
C2602 C2600 1.384 . S
C2602 C2603 1.372 . S
C2603 C2602 1.372 . S
C2603 C2604 1.400 . S
C2603 C2608 1.490 . S
C2604 H2594 0.930 . S
C2604 C2603 1.400 . S
C2604 C2607 1.386 . S
H2605 C2621 0.930 . S
H2606 C2622 0.931 . S
C2607 H2595 0.929 . S
C2607 C2601 1.390 . S
C2607 C2604 1.386 . S
C2608 C2603 1.490 . S
C2608 C2610 1.395 . S
C2608 C2611 1.403 . S
H2609 C2615 0.930 . S
C2610 H2596 0.930 . S
C2610 C2608 1.395 . S
C2610 C2613 1.403 . S
C2611 C2608 1.403 . S
C2611 C2612 1.524 . S
C2611 C2615 1.400 . S
C2612 H2597 0.960 . S
C2612 H2598 0.960 . S
C2612 H2599 0.960 . S
C2612 C2611 1.524 . S
C2613 C2610 1.403 . S
C2613 C2614 1.392 . S
C2613 C2617 1.495 . S
C2614 C2613 1.392 . S
C2614 C2615 1.385 . S
C2614 C2616 1.478 . S
C2615 H2609 0.930 . S
C2615 C2611 1.400 . S
C2615 C2614 1.385 . S
C2616 C2614 1.478 . S
C2616 C2618 1.381 . S
C2616 C2622 1.383 . S
C2617 C2613 1.495 . S
C2617 H2623 0.959 . S
C2617 H2624 0.961 . S
C2617 H2625 0.960 . S
C2618 C2616 1.381 . S
C2618 C2619 1.394 . S
C2618 H2626 0.930 . S
C2619 C2618 1.394 . S
C2619 C2620 1.383 . S
C2619 H2627 0.929 . S
C2620 C2619 1.383 . S
C2620 C2621 1.377 . S
C2621 H2605 0.930 . S
C2621 C2620 1.377 . S
C2621 C2622 1.379 . S
C2622 H2606 0.931 . S
C2622 C2616 1.383 . S
C2622 C2621 1.379 . S
H2623 C2617 0.959 . S
H2624 C2617 0.961 . S
H2625 C2617 0.960 . S
H2626 C2618 0.930 . S
H2627 C2619 0.929 . S
H2628 C2636 0.929 . S
H2629 C2638 0.930 . S
H2630 C2640 0.930 . S
H2631 C2643 0.929 . S
H2632 C2646 0.930 . S
H2633 C2648 0.960 . S
H2634 C2648 0.960 . S
H2635 C2648 0.960 . S
C2636 H2628 0.929 . S
C2636 C2637 1.377 . S
C2636 C2638 1.384 . S
C2637 C2636 1.377 . S
C2637 C2643 1.390 . S
C2638 H2629 0.930 . S
C2638 C2636 1.384 . S
C2638 C2639 1.372 . S
C2639 C2638 1.372 . S
C2639 C2640 1.400 . S
C2639 C2644 1.490 . S
C2640 H2630 0.930 . S
C2640 C2639 1.400 . S
C2640 C2643 1.386 . S
H2641 C2657 0.930 . S
H2642 C2658 0.931 . S
C2643 H2631 0.929 . S
C2643 C2637 1.390 . S
C2643 C2640 1.386 . S
C2644 C2639 1.490 . S
C2644 C2646 1.395 . S
C2644 C2647 1.403 . S
H2645 C2651 0.930 . S
C2646 H2632 0.930 . S
C2646 C2644 1.395 . S
C2646 C2649 1.403 . S
C2647 C2644 1.403 . S
C2647 C2648 1.524 . S
C2647 C2651 1.400 . S
C2648 H2633 0.960 . S
C2648 H2634 0.960 . S
C2648 H2635 0.960 . S
C2648 C2647 1.524 . S
C2649 C2646 1.403 . S
C2649 C2650 1.392 . S
C2649 C2653 1.495 . S
C2650 C2649 1.392 . S
C2650 C2651 1.385 . S
C2650 C2652 1.478 . S
C2651 H2645 0.930 . S
C2651 C2647 1.400 . S
C2651 C2650 1.385 . S
C2652 C2650 1.478 . S
C2652 C2654 1.381 . S
C2652 C2658 1.383 . S
C2653 C2649 1.495 . S
C2653 H2659 0.959 . S
C2653 H2660 0.961 . S
C2653 H2661 0.960 . S
C2654 C2652 1.381 . S
C2654 C2655 1.394 . S
C2654 H2662 0.930 . S
C2655 C2654 1.394 . S
C2655 C2656 1.383 . S
C2655 H2663 0.929 . S
C2656 C2655 1.383 . S
C2656 C2657 1.377 . S
C2657 H2641 0.930 . S
C2657 C2656 1.377 . S
C2657 C2658 1.379 . S
C2658 H2642 0.931 . S
C2658 C2652 1.383 . S
C2658 C2657 1.379 . S
H2659 C2653 0.959 . S
H2660 C2653 0.961 . S
H2661 C2653 0.960 . S
H2662 C2654 0.930 . S
H2663 C2655 0.929 . S
H2664 C2672 0.929 . S
H2665 C2674 0.930 . S
H2666 C2676 0.930 . S
H2667 C2679 0.929 . S
H2668 C2682 0.930 . S
H2669 C2684 0.960 . S
H2670 C2684 0.960 . S
H2671 C2684 0.960 . S
C2672 H2664 0.929 . S
C2672 C2673 1.377 . S
C2672 C2674 1.384 . S
C2673 C2672 1.377 . S
C2673 C2679 1.390 . S
C2674 H2665 0.930 . S
C2674 C2672 1.384 . S
C2674 C2675 1.372 . S
C2675 C2674 1.372 . S
C2675 C2676 1.400 . S
C2675 C2680 1.490 . S
C2676 H2666 0.930 . S
C2676 C2675 1.400 . S
C2676 C2679 1.386 . S
H2677 C2693 0.930 . S
H2678 C2694 0.931 . S
C2679 H2667 0.929 . S
C2679 C2673 1.390 . S
C2679 C2676 1.386 . S
C2680 C2675 1.490 . S
C2680 C2682 1.395 . S
C2680 C2683 1.403 . S
H2681 C2687 0.930 . S
C2682 H2668 0.930 . S
C2682 C2680 1.395 . S
C2682 C2685 1.403 . S
C2683 C2680 1.403 . S
C2683 C2684 1.524 . S
C2683 C2687 1.400 . S
C2684 H2669 0.960 . S
C2684 H2670 0.960 . S
C2684 H2671 0.960 . S
C2684 C2683 1.524 . S
C2685 C2682 1.403 . S
C2685 C2686 1.392 . S
C2685 C2689 1.495 . S
C2686 C2685 1.392 . S
C2686 C2687 1.385 . S
C2686 C2688 1.478 . S
C2687 H2681 0.930 . S
C2687 C2683 1.400 . S
C2687 C2686 1.385 . S
C2688 C2686 1.478 . S
C2688 C2690 1.381 . S
C2688 C2694 1.383 . S
C2689 C2685 1.495 . S
C2689 H2695 0.959 . S
C2689 H2696 0.961 . S
C2689 H2697 0.960 . S
C2690 C2688 1.381 . S
C2690 C2691 1.394 . S
C2690 H2698 0.930 . S
C2691 C2690 1.394 . S
C2691 C2692 1.383 . S
C2691 H2699 0.929 . S
C2692 C2691 1.383 . S
C2692 C2693 1.377 . S
C2693 H2677 0.930 . S
C2693 C2692 1.377 . S
C2693 C2694 1.379 . S
C2694 H2678 0.931 . S
C2694 C2688 1.383 . S
C2694 C2693 1.379 . S
H2695 C2689 0.959 . S
H2696 C2689 0.961 . S
H2697 C2689 0.960 . S
H2698 C2690 0.930 . S
H2699 C2691 0.929 . S
H2700 C2708 0.929 . S
H2701 C2710 0.930 . S
H2702 C2712 0.930 . S
H2703 C2715 0.929 . S
H2704 C2718 0.930 . S
H2705 C2720 0.960 . S
H2706 C2720 0.960 . S
H2707 C2720 0.960 . S
C2708 H2700 0.929 . S
C2708 C2709 1.377 . S
C2708 C2710 1.384 . S
C2709 C2708 1.377 . S
C2709 C2715 1.390 . S
C2710 H2701 0.930 . S
C2710 C2708 1.384 . S
C2710 C2711 1.372 . S
C2711 C2710 1.372 . S
C2711 C2712 1.400 . S
C2711 C2716 1.490 . S
C2712 H2702 0.930 . S
C2712 C2711 1.400 . S
C2712 C2715 1.386 . S
H2713 C2729 0.930 . S
H2714 C2730 0.931 . S
C2715 H2703 0.929 . S
C2715 C2709 1.390 . S
C2715 C2712 1.386 . S
C2716 C2711 1.490 . S
C2716 C2718 1.395 . S
C2716 C2719 1.403 . S
H2717 C2723 0.930 . S
C2718 H2704 0.930 . S
C2718 C2716 1.395 . S
C2718 C2721 1.403 . S
C2719 C2716 1.403 . S
C2719 C2720 1.524 . S
C2719 C2723 1.400 . S
C2720 H2705 0.960 . S
C2720 H2706 0.960 . S
C2720 H2707 0.960 . S
C2720 C2719 1.524 . S
C2721 C2718 1.403 . S
C2721 C2722 1.392 . S
C2721 C2725 1.495 . S
C2722 C2721 1.392 . S
C2722 C2723 1.385 . S
C2722 C2724 1.478 . S
C2723 H2717 0.930 . S
C2723 C2719 1.400 . S
C2723 C2722 1.385 . S
C2724 C2722 1.478 . S
C2724 C2726 1.381 . S
C2724 C2730 1.383 . S
C2725 C2721 1.495 . S
C2725 H2731 0.959 . S
C2725 H2732 0.961 . S
C2725 H2733 0.960 . S
C2726 C2724 1.381 . S
C2726 C2727 1.394 . S
C2726 H2734 0.930 . S
C2727 C2726 1.394 . S
C2727 C2728 1.383 . S
C2727 H2735 0.929 . S
C2728 C2727 1.383 . S
C2728 C2729 1.377 . S
C2729 H2713 0.930 . S
C2729 C2728 1.377 . S
C2729 C2730 1.379 . S
C2730 H2714 0.931 . S
C2730 C2724 1.383 . S
C2730 C2729 1.379 . S
H2731 C2725 0.959 . S
H2732 C2725 0.961 . S
H2733 C2725 0.960 . S
H2734 C2726 0.930 . S
H2735 C2727 0.929 . S
H2736 C2744 0.929 . S
H2737 C2746 0.930 . S
H2738 C2748 0.930 . S
H2739 C2751 0.929 . S
H2740 C2754 0.930 . S
H2741 C2756 0.960 . S
H2742 C2756 0.960 . S
H2743 C2756 0.960 . S
C2744 H2736 0.929 . S
C2744 C2745 1.377 . S
C2744 C2746 1.384 . S
C2745 C2744 1.377 . S
C2745 C2751 1.390 . S
C2746 H2737 0.930 . S
C2746 C2744 1.384 . S
C2746 C2747 1.372 . S
C2747 C2746 1.372 . S
C2747 C2748 1.400 . S
C2747 C2752 1.490 . S
C2748 H2738 0.930 . S
C2748 C2747 1.400 . S
C2748 C2751 1.386 . S
H2749 C2765 0.930 . S
H2750 C2766 0.931 . S
C2751 H2739 0.929 . S
C2751 C2745 1.390 . S
C2751 C2748 1.386 . S
C2752 C2747 1.490 . S
C2752 C2754 1.395 . S
C2752 C2755 1.403 . S
H2753 C2759 0.930 . S
C2754 H2740 0.930 . S
C2754 C2752 1.395 . S
C2754 C2757 1.403 . S
C2755 C2752 1.403 . S
C2755 C2756 1.524 . S
C2755 C2759 1.400 . S
C2756 H2741 0.960 . S
C2756 H2742 0.960 . S
C2756 H2743 0.960 . S
C2756 C2755 1.524 . S
C2757 C2754 1.403 . S
C2757 C2758 1.392 . S
C2757 C2761 1.495 . S
C2758 C2757 1.392 . S
C2758 C2759 1.385 . S
C2758 C2760 1.478 . S
C2759 H2753 0.930 . S
C2759 C2755 1.400 . S
C2759 C2758 1.385 . S
C2760 C2758 1.478 . S
C2760 C2762 1.381 . S
C2760 C2766 1.383 . S
C2761 C2757 1.495 . S
C2761 H2767 0.959 . S
C2761 H2768 0.961 . S
C2761 H2769 0.960 . S
C2762 C2760 1.381 . S
C2762 C2763 1.394 . S
C2762 H2770 0.930 . S
C2763 C2762 1.394 . S
C2763 C2764 1.383 . S
C2763 H2771 0.929 . S
C2764 C2763 1.383 . S
C2764 C2765 1.377 . S
C2765 H2749 0.930 . S
C2765 C2764 1.377 . S
C2765 C2766 1.379 . S
C2766 H2750 0.931 . S
C2766 C2760 1.383 . S
C2766 C2765 1.379 . S
H2767 C2761 0.959 . S
H2768 C2761 0.961 . S
H2769 C2761 0.960 . S
H2770 C2762 0.930 . S
H2771 C2763 0.929 . S
H2772 C2780 0.929 . S
H2773 C2782 0.930 . S
H2774 C2784 0.930 . S
H2775 C2787 0.929 . S
H2776 C2790 0.930 . S
H2777 C2792 0.960 . S
H2778 C2792 0.960 1_554 S
H2779 C2792 0.960 . S
C2780 H2772 0.929 . S
C2780 C2781 1.377 1_554 S
C2780 C2782 1.384 . S
C2781 C2780 1.377 1_556 S
C2781 C2787 1.390 . S
C2782 H2773 0.930 . S
C2782 C2780 1.384 . S
C2782 C2783 1.372 1_554 S
C2783 C2782 1.372 1_556 S
C2783 C2784 1.400 . S
C2783 C2788 1.490 . S
C2784 H2774 0.930 . S
C2784 C2783 1.400 . S
C2784 C2787 1.386 . S
H2785 C2801 0.930 . S
H2786 C2802 0.931 . S
C2787 H2775 0.929 . S
C2787 C2781 1.390 . S
C2787 C2784 1.386 . S
C2788 C2783 1.490 . S
C2788 C2790 1.395 . S
C2788 C2791 1.403 . S
H2789 C2795 0.930 . S
C2790 H2776 0.930 . S
C2790 C2788 1.395 . S
C2790 C2793 1.403 . S
C2791 C2788 1.403 . S
C2791 C2792 1.524 . S
C2791 C2795 1.400 . S
C2792 H2777 0.960 . S
C2792 H2778 0.960 1_556 S
C2792 H2779 0.960 . S
C2792 C2791 1.524 . S
C2793 C2790 1.403 . S
C2793 C2794 1.392 . S
C2793 C2797 1.495 . S
C2794 C2793 1.392 . S
C2794 C2795 1.385 . S
C2794 C2796 1.478 . S
C2795 H2789 0.930 . S
C2795 C2791 1.400 . S
C2795 C2794 1.385 . S
C2796 C2794 1.478 . S
C2796 C2798 1.381 . S
C2796 C2802 1.383 . S
C2797 C2793 1.495 . S
C2797 H2803 0.959 . S
C2797 H2804 0.961 . S
C2797 H2805 0.960 . S
C2798 C2796 1.381 . S
C2798 C2799 1.394 . S
C2798 H2806 0.930 . S
C2799 C2798 1.394 . S
C2799 C2800 1.383 . S
C2799 H2807 0.929 . S
C2800 C2799 1.383 . S
C2800 C2801 1.377 . S
C2801 H2785 0.930 . S
C2801 C2800 1.377 . S
C2801 C2802 1.379 . S
C2802 H2786 0.931 . S
C2802 C2796 1.383 . S
C2802 C2801 1.379 . S
H2803 C2797 0.959 . S
H2804 C2797 0.961 . S
H2805 C2797 0.960 . S
H2806 C2798 0.930 . S
H2807 C2799 0.929 . S
H2808 C2816 0.929 . S
H2809 C2818 0.930 . S
H2810 C2820 0.930 . S
H2811 C2823 0.929 . S
H2812 C2826 0.930 . S
H2813 C2828 0.960 . S
H2814 C2828 0.960 . S
H2815 C2828 0.960 . S
C2816 H2808 0.929 . S
C2816 C2817 1.384 . S
C2816 C2818 1.384 . S
C2817 C2816 1.384 . S
C2817 C2823 1.386 1_556 S
C2818 H2809 0.930 . S
C2818 C2816 1.384 . S
C2818 C2819 1.372 . S
C2819 C2818 1.372 . S
C2819 C2820 1.400 1_556 S
C2819 C2824 1.490 . S
C2820 H2810 0.930 . S
C2820 C2819 1.400 1_554 S
C2820 C2823 1.386 . S
H2821 C2837 0.930 . S
H2822 C2838 0.931 . S
C2823 H2811 0.929 . S
C2823 C2817 1.386 1_554 S
C2823 C2820 1.386 . S
C2824 C2819 1.490 . S
C2824 C2826 1.395 . S
C2824 C2827 1.403 . S
H2825 C2831 0.930 . S
C2826 H2812 0.930 . S
C2826 C2824 1.395 . S
C2826 C2829 1.403 . S
C2827 C2824 1.403 . S
C2827 C2828 1.524 . S
C2827 C2831 1.400 . S
C2828 H2813 0.960 . S
C2828 H2814 0.960 . S
C2828 H2815 0.960 . S
C2828 C2827 1.524 . S
C2829 C2826 1.403 . S
C2829 C2830 1.392 . S
C2829 C2833 1.495 . S
C2830 C2829 1.392 . S
C2830 C2831 1.385 . S
C2830 C2832 1.478 . S
C2831 H2825 0.930 . S
C2831 C2827 1.400 . S
C2831 C2830 1.385 . S
C2832 C2830 1.478 . S
C2832 C2834 1.381 . S
C2832 C2838 1.383 . S
C2833 C2829 1.495 . S
C2833 H2839 0.959 . S
C2833 H2840 0.961 . S
C2833 H2841 0.960 . S
C2834 C2832 1.381 . S
C2834 C2835 1.394 . S
C2834 H2842 0.930 . S
C2835 C2834 1.394 . S
C2835 C2836 1.383 . S
C2835 H2843 0.929 . S
C2836 C2835 1.383 . S
C2836 C2837 1.377 . S
C2837 H2821 0.930 . S
C2837 C2836 1.377 . S
C2837 C2838 1.379 . S
C2838 H2822 0.931 . S
C2838 C2832 1.383 . S
C2838 C2837 1.379 . S
H2839 C2833 0.959 . S
H2840 C2833 0.961 . S
H2841 C2833 0.960 . S
H2842 C2834 0.930 . S
H2843 C2835 0.929 . S
H2844 C2852 0.929 . S
H2845 C2854 0.930 . S
H2846 C2856 0.930 . S
H2847 C2859 0.929 . S
H2848 C2862 0.930 . S
H2849 C2864 0.960 . S
H2850 C2864 0.960 1_556 S
H2851 C2864 0.960 . S
C2852 H2844 0.929 . S
C2852 C2853 1.377 1_556 S
C2852 C2854 1.384 . S
C2853 C2852 1.377 1_554 S
C2853 C2859 1.390 . S
C2854 H2845 0.930 . S
C2854 C2852 1.384 . S
C2854 C2855 1.372 . S
C2855 C2854 1.372 . S
C2855 C2856 1.400 1_556 S
C2855 C2860 1.490 . S
C2856 H2846 0.930 . S
C2856 C2855 1.400 1_554 S
C2856 C2859 1.386 . S
H2857 C2873 0.930 . S
H2858 C2874 0.931 . S
C2859 H2847 0.929 . S
C2859 C2853 1.390 . S
C2859 C2856 1.386 . S
C2860 C2855 1.490 . S
C2860 C2862 1.395 . S
C2860 C2863 1.403 . S
H2861 C2867 0.930 . S
C2862 H2848 0.930 . S
C2862 C2860 1.395 . S
C2862 C2865 1.403 . S
C2863 C2860 1.403 . S
C2863 C2864 1.524 1_556 S
C2863 C2867 1.400 . S
C2864 H2849 0.960 . S
C2864 H2850 0.960 1_554 S
C2864 H2851 0.960 . S
C2864 C2863 1.524 1_554 S
C2865 C2862 1.403 . S
C2865 C2866 1.392 . S
C2865 C2869 1.495 . S
C2866 C2865 1.392 . S
C2866 C2867 1.385 . S
C2866 C2868 1.478 . S
C2867 H2861 0.930 . S
C2867 C2863 1.400 . S
C2867 C2866 1.385 . S
C2868 C2866 1.478 . S
C2868 C2870 1.381 . S
C2868 C2874 1.383 . S
C2869 C2865 1.495 . S
C2869 H2875 0.959 . S
C2869 H2876 0.961 . S
C2869 H2877 0.960 . S
C2870 C2868 1.381 . S
C2870 C2871 1.394 . S
C2870 H2878 0.930 . S
C2871 C2870 1.394 . S
C2871 C2872 1.383 . S
C2871 H2879 0.929 . S
C2872 C2871 1.383 . S
C2872 C2873 1.377 . S
C2873 H2857 0.930 . S
C2873 C2872 1.377 . S
C2873 C2874 1.379 . S
C2874 H2858 0.931 . S
C2874 C2868 1.383 . S
C2874 C2873 1.379 . S
H2875 C2869 0.959 . S
H2876 C2869 0.961 . S
H2877 C2869 0.960 . S
H2878 C2870 0.930 . S
H2879 C2871 0.929 . S
H2880 C2888 0.929 1_554 S
H2881 C2890 0.930 . S
H2882 C2892 0.930 . S
H2883 C2895 0.929 . S
H2884 C2898 0.930 1_554 S
H2885 C2900 0.960 . S
H2886 C2900 0.960 . S
H2887 C2900 0.960 . S
C2888 H2880 0.929 1_556 S
C2888 C2889 1.377 . S
C2888 C2890 1.384 . S
C2889 C2888 1.377 . S
C2889 C2895 1.390 . S
C2890 H2881 0.930 . S
C2890 C2888 1.384 . S
C2890 C2891 1.372 . S
C2891 C2890 1.372 . S
C2891 C2892 1.400 . S
C2891 C2896 1.490 . S
C2892 H2882 0.930 . S
C2892 C2891 1.400 . S
C2892 C2895 1.386 . S
H2893 C2909 0.930 . S
H2894 C2910 0.931 . S
C2895 H2883 0.929 . S
C2895 C2889 1.390 . S
C2895 C2892 1.386 . S
C2896 C2891 1.490 . S
C2896 C2898 1.395 . S
C2896 C2899 1.403 . S
H2897 C2903 0.930 . S
C2898 H2884 0.930 1_556 S
C2898 C2896 1.395 . S
C2898 C2901 1.403 . S
C2899 C2896 1.403 . S
C2899 C2900 1.524 . S
C2899 C2903 1.400 . S
C2900 H2885 0.960 . S
C2900 H2886 0.960 . S
C2900 H2887 0.960 . S
C2900 C2899 1.524 . S
C2901 C2898 1.403 . S
C2901 C2902 1.392 . S
C2901 C2905 1.495 1_556 S
C2902 C2901 1.392 . S
C2902 C2903 1.385 . S
C2902 C2904 1.478 . S
C2903 H2897 0.930 . S
C2903 C2899 1.400 . S
C2903 C2902 1.385 . S
C2904 C2902 1.478 . S
C2904 C2906 1.381 . S
C2904 C2910 1.383 . S
C2905 C2901 1.495 1_554 S
C2905 H2911 0.959 . S
C2905 H2912 0.961 . S
C2905 H2913 0.960 . S
C2906 C2904 1.381 . S
C2906 C2907 1.394 . S
C2906 H2914 0.930 . S
C2907 C2906 1.394 . S
C2907 C2908 1.383 . S
C2907 H2915 0.929 . S
C2908 C2907 1.383 . S
C2908 C2909 1.377 . S
C2909 H2893 0.930 . S
C2909 C2908 1.377 . S
C2909 C2910 1.379 . S
C2910 H2894 0.931 . S
C2910 C2904 1.383 . S
C2910 C2909 1.379 . S
H2911 C2905 0.959 . S
H2912 C2905 0.961 . S
H2913 C2905 0.960 . S
H2914 C2906 0.930 . S
H2915 C2907 0.929 . S
H2916 C2924 0.929 . S
H2917 C2926 0.930 . S
H2918 C2928 0.930 . S
H2919 C2931 0.929 . S
H2920 C2934 0.918 1_554 S
H2921 C2936 0.960 . S
H2922 C2936 0.960 . S
H2923 C2936 0.960 . S
C2924 H2916 0.929 . S
C2924 C2925 1.373 1_554 S
C2924 C2926 1.384 . S
C2925 C2924 1.373 1_556 S
C2925 C2931 1.397 . S
C2926 H2917 0.930 . S
C2926 C2924 1.384 . S
C2926 C2927 1.372 1_554 S
C2927 C2926 1.372 1_556 S
C2927 C2928 1.400 . S
C2927 C2932 1.490 . S
C2928 H2918 0.930 . S
C2928 C2927 1.400 . S
C2928 C2931 1.386 . S
H2929 C2945 0.930 . S
H2930 C2946 0.931 . S
C2931 H2919 0.929 . S
C2931 C2925 1.397 . S
C2931 C2928 1.386 . S
C2932 C2927 1.490 . S
C2932 C2934 1.395 . S
C2932 C2935 1.403 . S
H2933 C2939 0.930 . S
C2934 H2920 0.918 1_556 S
C2934 C2932 1.395 . S
C2934 C2937 1.403 . S
C2935 C2932 1.403 . S
C2935 C2936 1.524 . S
C2935 C2939 1.400 . S
C2936 H2921 0.960 . S
C2936 H2922 0.960 . S
C2936 H2923 0.960 . S
C2936 C2935 1.524 . S
C2937 C2934 1.403 . S
C2937 C2938 1.392 . S
C2937 C2941 1.495 . S
C2938 C2937 1.392 . S
C2938 C2939 1.385 . S
C2938 C2940 1.478 . S
C2939 H2933 0.930 . S
C2939 C2935 1.400 . S
C2939 C2938 1.385 . S
C2940 C2938 1.478 . S
C2940 C2942 1.381 . S
C2940 C2946 1.383 . S
C2941 C2937 1.495 . S
C2941 H2947 0.959 1_556 S
C2941 H2948 0.961 . S
C2941 H2949 0.960 1_556 S
C2942 C2940 1.381 . S
C2942 C2943 1.394 . S
C2942 H2950 0.930 . S
C2943 C2942 1.394 . S
C2943 C2944 1.383 . S
C2943 H2951 0.929 . S
C2944 C2943 1.383 . S
C2944 C2945 1.377 . S
C2945 H2929 0.930 . S
C2945 C2944 1.377 . S
C2945 C2946 1.379 . S
C2946 H2930 0.931 . S
C2946 C2940 1.383 . S
C2946 C2945 1.379 . S
H2947 C2941 0.959 1_554 S
H2948 C2941 0.961 . S
H2949 C2941 0.960 1_554 S
H2950 C2942 0.930 . S
H2951 C2943 0.929 . S
H2952 C2960 0.929 . S
H2953 C2962 0.930 . S
H2954 C2964 0.930 . S
H2955 C2967 0.929 . S
H2956 C2970 0.930 . S
H2957 C2972 0.960 . S
H2958 C2972 0.960 . S
H2959 C2972 0.960 . S
C2960 H2952 0.929 . S
C2960 C2961 1.377 . S
C2960 C2962 1.384 . S
C2961 C2960 1.377 . S
C2961 C2967 1.390 1_554 S
C2962 H2953 0.930 . S
C2962 C2960 1.384 . S
C2962 C2963 1.372 1_554 S
C2963 C2962 1.372 1_556 S
C2963 C2964 1.400 . S
C2963 C2968 1.490 . S
C2964 H2954 0.930 . S
C2964 C2963 1.400 . S
C2964 C2967 1.386 . S
H2965 C2981 0.930 . S
H2966 C2982 0.931 . S
C2967 H2955 0.929 . S
C2967 C2961 1.390 1_556 S
C2967 C2964 1.386 . S
C2968 C2963 1.490 . S
C2968 C2970 1.395 . S
C2968 C2971 1.403 . S
H2969 C2975 0.930 . S
C2970 H2956 0.930 . S
C2970 C2968 1.395 . S
C2970 C2973 1.403 . S
C2971 C2968 1.403 . S
C2971 C2972 1.524 . S
C2971 C2975 1.400 . S
C2972 H2957 0.960 . S
C2972 H2958 0.960 . S
C2972 H2959 0.960 . S
C2972 C2971 1.524 . S
C2973 C2970 1.403 . S
C2973 C2974 1.392 . S
C2973 C2977 1.495 . S
C2974 C2973 1.392 . S
C2974 C2975 1.385 . S
C2974 C2976 1.478 . S
C2975 H2969 0.930 . S
C2975 C2971 1.400 . S
C2975 C2974 1.385 . S
C2976 C2974 1.478 . S
C2976 C2978 1.381 . S
C2976 C2982 1.383 . S
C2977 C2973 1.495 . S
C2977 H2983 0.959 . S
C2977 H2984 0.961 . S
C2977 H2985 0.960 . S
C2978 C2976 1.381 . S
C2978 C2979 1.394 . S
C2978 H2986 0.930 . S
C2979 C2978 1.394 . S
C2979 C2980 1.383 . S
C2979 H2987 0.929 . S
C2980 C2979 1.383 . S
C2980 C2981 1.377 . S
C2981 H2965 0.930 . S
C2981 C2980 1.377 . S
C2981 C2982 1.379 . S
C2982 H2966 0.931 . S
C2982 C2976 1.383 . S
C2982 C2981 1.379 . S
H2983 C2977 0.959 . S
H2984 C2977 0.961 . S
H2985 C2977 0.960 . S
H2986 C2978 0.930 . S
H2987 C2979 0.929 . S
H2988 C2996 0.929 . S
H2989 C2998 0.930 . S
H2990 C3000 0.930 . S
H2991 C3003 0.929 . S
H2992 C3006 0.930 . S
H2993 C3008 0.960 . S
H2994 C3008 0.960 . S
H2995 C3008 0.960 . S
C2996 H2988 0.929 . S
C2996 C2997 1.377 . S
C2996 C2998 1.384 . S
C2997 C2996 1.377 . S
C2997 C3003 1.390 . S
C2998 H2989 0.930 . S
C2998 C2996 1.384 . S
C2998 C2999 1.372 . S
C2999 C2998 1.372 . S
C2999 C3000 1.400 . S
C2999 C3004 1.490 . S
C3000 H2990 0.930 . S
C3000 C2999 1.400 . S
C3000 C3003 1.386 . S
H3001 C3017 0.930 . S
H3002 C3018 0.931 . S
C3003 H2991 0.929 . S
C3003 C2997 1.390 . S
C3003 C3000 1.386 . S
C3004 C2999 1.490 . S
C3004 C3006 1.395 . S
C3004 C3007 1.403 . S
H3005 C3011 0.930 . S
C3006 H2992 0.930 . S
C3006 C3004 1.395 . S
C3006 C3009 1.403 . S
C3007 C3004 1.403 . S
C3007 C3008 1.524 . S
C3007 C3011 1.400 . S
C3008 H2993 0.960 . S
C3008 H2994 0.960 . S
C3008 H2995 0.960 . S
C3008 C3007 1.524 . S
C3009 C3006 1.403 . S
C3009 C3010 1.392 . S
C3009 C3013 1.495 . S
C3010 C3009 1.392 . S
C3010 C3011 1.385 . S
C3010 C3012 1.478 . S
C3011 H3005 0.930 . S
C3011 C3007 1.400 . S
C3011 C3010 1.385 . S
C3012 C3010 1.478 . S
C3012 C3014 1.381 . S
C3012 C3018 1.383 . S
C3013 C3009 1.495 . S
C3013 H3019 0.959 . S
C3013 H3020 0.961 . S
C3013 H3021 0.960 . S
C3014 C3012 1.381 . S
C3014 C3015 1.394 . S
C3014 H3022 0.930 . S
C3015 C3014 1.394 . S
C3015 C3016 1.383 . S
C3015 H3023 0.929 . S
C3016 C3015 1.383 . S
C3016 C3017 1.377 . S
C3017 H3001 0.930 . S
C3017 C3016 1.377 . S
C3017 C3018 1.379 . S
C3018 H3002 0.931 . S
C3018 C3012 1.383 . S
C3018 C3017 1.379 . S
H3019 C3013 0.959 . S
H3020 C3013 0.961 . S
H3021 C3013 0.960 . S
H3022 C3014 0.930 . S
H3023 C3015 0.929 . S
H3024 C3032 0.929 . S
H3025 C3034 0.930 . S
H3026 C3036 0.930 . S
H3027 C3039 0.929 . S
H3028 C3042 0.930 . S
H3029 C3044 0.960 . S
H3030 C3044 0.960 . S
H3031 C3044 0.960 . S
C3032 H3024 0.929 . S
C3032 C3033 1.377 . S
C3032 C3034 1.384 . S
C3033 C3032 1.377 . S
C3033 C3039 1.390 . S
C3034 H3025 0.930 . S
C3034 C3032 1.384 . S
C3034 C3035 1.372 . S
C3035 C3034 1.372 . S
C3035 C3036 1.400 . S
C3035 C3040 1.490 . S
C3036 H3026 0.930 . S
C3036 C3035 1.400 . S
C3036 C3039 1.386 . S
H3037 C3053 0.930 . S
H3038 C3054 0.931 . S
C3039 H3027 0.929 . S
C3039 C3033 1.390 . S
C3039 C3036 1.386 . S
C3040 C3035 1.490 . S
C3040 C3042 1.395 . S
C3040 C3043 1.403 . S
H3041 C3047 0.930 . S
C3042 H3028 0.930 . S
C3042 C3040 1.395 . S
C3042 C3045 1.403 . S
C3043 C3040 1.403 . S
C3043 C3044 1.524 . S
C3043 C3047 1.400 . S
C3044 H3029 0.960 . S
C3044 H3030 0.960 . S
C3044 H3031 0.960 . S
C3044 C3043 1.524 . S
C3045 C3042 1.403 . S
C3045 C3046 1.392 . S
C3045 C3049 1.495 . S
C3046 C3045 1.392 . S
C3046 C3047 1.385 . S
C3046 C3048 1.478 . S
C3047 H3041 0.930 . S
C3047 C3043 1.400 . S
C3047 C3046 1.385 . S
C3048 C3046 1.478 . S
C3048 C3050 1.381 . S
C3048 C3054 1.383 . S
C3049 C3045 1.495 . S
C3049 H3055 0.959 . S
C3049 H3056 0.961 . S
C3049 H3057 0.960 . S
C3050 C3048 1.381 . S
C3050 C3051 1.394 . S
C3050 H3058 0.930 . S
C3051 C3050 1.394 . S
C3051 C3052 1.383 . S
C3051 H3059 0.929 . S
C3052 C3051 1.383 . S
C3052 C3053 1.377 . S
C3053 H3037 0.930 . S
C3053 C3052 1.377 . S
C3053 C3054 1.379 . S
C3054 H3038 0.931 . S
C3054 C3048 1.383 . S
C3054 C3053 1.379 . S
H3055 C3049 0.959 . S
H3056 C3049 0.961 . S
H3057 C3049 0.960 . S
H3058 C3050 0.930 . S
H3059 C3051 0.929 . S
H3060 C3068 0.929 . S
H3061 C3070 0.930 . S
H3062 C3072 0.930 . S
H3063 C3075 0.929 . S
H3064 C3078 0.930 . S
H3065 C3080 0.960 . S
H3066 C3080 0.960 . S
H3067 C3080 0.960 . S
C3068 H3060 0.929 . S
C3068 C3069 1.377 . S
C3068 C3070 1.384 . S
C3069 C3068 1.377 . S
C3069 C3075 1.390 . S
C3070 H3061 0.930 . S
C3070 C3068 1.384 . S
C3070 C3071 1.372 . S
C3071 C3070 1.372 . S
C3071 C3072 1.400 . S
C3071 C3076 1.490 . S
C3072 H3062 0.930 . S
C3072 C3071 1.400 . S
C3072 C3075 1.386 . S
H3073 C3089 0.930 . S
H3074 C3090 0.931 . S
C3075 H3063 0.929 . S
C3075 C3069 1.390 . S
C3075 C3072 1.386 . S
C3076 C3071 1.490 . S
C3076 C3078 1.395 . S
C3076 C3079 1.403 . S
H3077 C3083 0.930 . S
C3078 H3064 0.930 . S
C3078 C3076 1.395 . S
C3078 C3081 1.403 . S
C3079 C3076 1.403 . S
C3079 C3080 1.524 . S
C3079 C3083 1.400 . S
C3080 H3065 0.960 . S
C3080 H3066 0.960 . S
C3080 H3067 0.960 . S
C3080 C3079 1.524 . S
C3081 C3078 1.403 . S
C3081 C3082 1.392 . S
C3081 C3085 1.495 . S
C3082 C3081 1.392 . S
C3082 C3083 1.385 . S
C3082 C3084 1.478 . S
C3083 H3077 0.930 . S
C3083 C3079 1.400 . S
C3083 C3082 1.385 . S
C3084 C3082 1.478 . S
C3084 C3086 1.381 . S
C3084 C3090 1.383 . S
C3085 C3081 1.495 . S
C3085 H3091 0.959 . S
C3085 H3092 0.961 . S
C3085 H3093 0.960 . S
C3086 C3084 1.381 . S
C3086 C3087 1.394 . S
C3086 H3094 0.930 . S
C3087 C3086 1.394 . S
C3087 C3088 1.383 . S
C3087 H3095 0.929 . S
C3088 C3087 1.383 . S
C3088 C3089 1.377 . S
C3089 H3073 0.930 . S
C3089 C3088 1.377 . S
C3089 C3090 1.379 . S
C3090 H3074 0.931 . S
C3090 C3084 1.383 . S
C3090 C3089 1.379 . S
H3091 C3085 0.959 . S
H3092 C3085 0.961 . S
H3093 C3085 0.960 . S
H3094 C3086 0.930 . S
H3095 C3087 0.929 . S
H3096 C3104 0.929 . S
H3097 C3106 0.930 . S
H3098 C3108 0.930 . S
H3099 C3111 0.929 . S
H3100 C3114 0.930 . S
H3101 C3116 0.960 . S
H3102 C3116 0.960 . S
H3103 C3116 0.960 . S
C3104 H3096 0.929 . S
C3104 C3105 1.377 . S
C3104 C3106 1.384 . S
C3105 C3104 1.377 . S
C3105 C3111 1.390 . S
C3106 H3097 0.930 . S
C3106 C3104 1.384 . S
C3106 C3107 1.372 . S
C3107 C3106 1.372 . S
C3107 C3108 1.400 . S
C3107 C3112 1.490 . S
C3108 H3098 0.930 . S
C3108 C3107 1.400 . S
C3108 C3111 1.386 . S
H3109 C3125 0.930 . S
H3110 C3126 0.931 . S
C3111 H3099 0.929 . S
C3111 C3105 1.390 . S
C3111 C3108 1.386 . S
C3112 C3107 1.490 . S
C3112 C3114 1.395 . S
C3112 C3115 1.403 . S
H3113 C3119 0.930 . S
C3114 H3100 0.930 . S
C3114 C3112 1.395 . S
C3114 C3117 1.403 . S
C3115 C3112 1.403 . S
C3115 C3116 1.524 . S
C3115 C3119 1.400 . S
C3116 H3101 0.960 . S
C3116 H3102 0.960 . S
C3116 H3103 0.960 . S
C3116 C3115 1.524 . S
C3117 C3114 1.403 . S
C3117 C3118 1.392 . S
C3117 C3121 1.495 . S
C3118 C3117 1.392 . S
C3118 C3119 1.385 . S
C3118 C3120 1.478 . S
C3119 H3113 0.930 . S
C3119 C3115 1.400 . S
C3119 C3118 1.385 . S
C3120 C3118 1.478 . S
C3120 C3122 1.381 . S
C3120 C3126 1.383 . S
C3121 C3117 1.495 . S
C3121 H3127 0.959 . S
C3121 H3128 0.961 . S
C3121 H3129 0.960 . S
C3122 C3120 1.381 . S
C3122 C3123 1.394 . S
C3122 H3130 0.930 . S
C3123 C3122 1.394 . S
C3123 C3124 1.383 . S
C3123 H3131 0.929 . S
C3124 C3123 1.383 . S
C3124 C3125 1.377 . S
C3125 H3109 0.930 . S
C3125 C3124 1.377 . S
C3125 C3126 1.379 . S
C3126 H3110 0.931 . S
C3126 C3120 1.383 . S
C3126 C3125 1.379 . S
H3127 C3121 0.959 . S
H3128 C3121 0.961 . S
H3129 C3121 0.960 . S
H3130 C3122 0.930 . S
H3131 C3123 0.929 . S
H3132 C3140 0.929 . S
H3133 C3142 0.930 . S
H3134 C3144 0.930 . S
H3135 C3147 0.929 . S
H3136 C3150 0.930 . S
H3137 C3152 0.960 . S
H3138 C3152 0.960 . S
H3139 C3152 0.960 . S
C3140 H3132 0.929 . S
C3140 C3141 1.377 . S
C3140 C3142 1.384 . S
C3141 C3140 1.377 . S
C3141 C3147 1.390 . S
C3142 H3133 0.930 . S
C3142 C3140 1.384 . S
C3142 C3143 1.372 . S
C3143 C3142 1.372 . S
C3143 C3144 1.400 . S
C3143 C3148 1.490 . S
C3144 H3134 0.930 . S
C3144 C3143 1.400 . S
C3144 C3147 1.386 . S
H3145 C3161 0.930 . S
H3146 C3162 0.931 . S
C3147 H3135 0.929 . S
C3147 C3141 1.390 . S
C3147 C3144 1.386 . S
C3148 C3143 1.490 . S
C3148 C3150 1.395 . S
C3148 C3151 1.403 . S
H3149 C3155 0.930 . S
C3150 H3136 0.930 . S
C3150 C3148 1.395 . S
C3150 C3153 1.403 . S
C3151 C3148 1.403 . S
C3151 C3152 1.524 . S
C3151 C3155 1.400 . S
C3152 H3137 0.960 . S
C3152 H3138 0.960 . S
C3152 H3139 0.960 . S
C3152 C3151 1.524 . S
C3153 C3150 1.403 . S
C3153 C3154 1.392 . S
C3153 C3157 1.495 . S
C3154 C3153 1.392 . S
C3154 C3155 1.385 . S
C3154 C3156 1.478 . S
C3155 H3149 0.930 . S
C3155 C3151 1.400 . S
C3155 C3154 1.385 . S
C3156 C3154 1.478 . S
C3156 C3158 1.381 . S
C3156 C3162 1.383 . S
C3157 C3153 1.495 . S
C3157 H3163 0.959 . S
C3157 H3164 0.961 . S
C3157 H3165 0.960 . S
C3158 C3156 1.381 . S
C3158 C3159 1.394 . S
C3158 H3166 0.930 . S
C3159 C3158 1.394 . S
C3159 C3160 1.383 . S
C3159 H3167 0.929 . S
C3160 C3159 1.383 . S
C3160 C3161 1.377 . S
C3161 H3145 0.930 . S
C3161 C3160 1.377 . S
C3161 C3162 1.379 . S
C3162 H3146 0.931 . S
C3162 C3156 1.383 . S
C3162 C3161 1.379 . S
H3163 C3157 0.959 . S
H3164 C3157 0.961 . S
H3165 C3157 0.960 . S
H3166 C3158 0.930 . S
H3167 C3159 0.929 . S
H3168 C3176 0.929 1_455 S
H3169 C3178 0.930 . S
H3170 C3180 0.930 . S
H3171 C3183 0.929 . S
H3172 C3186 0.930 . S
H3173 C3188 0.960 . S
H3174 C3188 0.960 . S
H3175 C3188 0.960 . S
C3176 H3168 0.929 1_655 S
C3176 C3177 1.377 . S
C3176 C3178 1.384 . S
C3177 C3176 1.377 . S
C3177 C3183 1.390 . S
C3178 H3169 0.930 . S
C3178 C3176 1.384 . S
C3178 C3179 1.372 . S
C3179 C3178 1.372 . S
C3179 C3180 1.400 . S
C3179 C3184 1.490 . S
C3180 H3170 0.930 . S
C3180 C3179 1.400 . S
C3180 C3183 1.386 . S
H3181 C3197 0.930 . S
H3182 C3198 0.931 . S
C3183 H3171 0.929 . S
C3183 C3177 1.390 . S
C3183 C3180 1.386 . S
C3184 C3179 1.490 . S
C3184 C3186 1.395 . S
C3184 C3187 1.403 . S
H3185 C3191 0.930 . S
C3186 H3172 0.930 . S
C3186 C3184 1.395 . S
C3186 C3189 1.403 . S
C3187 C3184 1.403 . S
C3187 C3188 1.524 . S
C3187 C3191 1.400 . S
C3188 H3173 0.960 . S
C3188 H3174 0.960 . S
C3188 H3175 0.960 . S
C3188 C3187 1.524 . S
C3189 C3186 1.403 . S
C3189 C3190 1.392 . S
C3189 C3193 1.495 . S
C3190 C3189 1.392 . S
C3190 C3191 1.385 . S
C3190 C3192 1.478 . S
C3191 H3185 0.930 . S
C3191 C3187 1.400 . S
C3191 C3190 1.385 . S
C3192 C3190 1.478 . S
C3192 C3194 1.381 . S
C3192 C3198 1.383 . S
C3193 C3189 1.495 . S
C3193 H3199 0.959 . S
C3193 H3200 0.961 . S
C3193 H3201 0.960 . S
C3194 C3192 1.381 . S
C3194 C3195 1.394 . S
C3194 H3202 0.930 . S
C3195 C3194 1.394 . S
C3195 C3196 1.383 . S
C3195 H3203 0.929 . S
C3196 C3195 1.383 . S
C3196 C3197 1.377 . S
C3197 H3181 0.930 . S
C3197 C3196 1.377 . S
C3197 C3198 1.379 . S
C3198 H3182 0.931 . S
C3198 C3192 1.383 . S
C3198 C3197 1.379 . S
H3199 C3193 0.959 . S
H3200 C3193 0.961 . S
H3201 C3193 0.960 . S
H3202 C3194 0.930 . S
H3203 C3195 0.929 . S
H3204 C3212 0.929 . S
H3205 C3214 0.930 . S
H3206 C3216 0.930 . S
H3207 C3219 0.929 . S
H3208 C3222 0.930 1_655 S
H3209 C3224 0.960 . S
H3210 C3224 0.960 . S
H3211 C3224 0.960 . S
C3212 H3204 0.929 . S
C3212 C3213 1.377 . S
C3212 C3214 1.384 . S
C3213 C3212 1.377 . S
C3213 C3219 1.390 . S
C3214 H3205 0.930 . S
C3214 C3212 1.384 . S
C3214 C3215 1.372 . S
C3215 C3214 1.372 . S
C3215 C3216 1.400 . S
C3215 C3220 1.490 . S
C3216 H3206 0.930 . S
C3216 C3215 1.400 . S
C3216 C3219 1.386 . S
H3217 C3233 0.930 . S
H3218 C3234 0.931 . S
C3219 H3207 0.929 . S
C3219 C3213 1.390 . S
C3219 C3216 1.386 . S
C3220 C3215 1.490 . S
C3220 C3222 1.395 . S
C3220 C3223 1.403 . S
H3221 C3227 0.930 . S
C3222 H3208 0.930 1_455 S
C3222 C3220 1.395 . S
C3222 C3225 1.403 . S
C3223 C3220 1.403 . S
C3223 C3224 1.524 . S
C3223 C3227 1.400 . S
C3224 H3209 0.960 . S
C3224 H3210 0.960 . S
C3224 H3211 0.960 . S
C3224 C3223 1.524 . S
C3225 C3222 1.403 . S
C3225 C3226 1.392 . S
C3225 C3229 1.495 1_455 S
C3226 C3225 1.392 . S
C3226 C3227 1.385 . S
C3226 C3228 1.478 . S
C3227 H3221 0.930 . S
C3227 C3223 1.400 . S
C3227 C3226 1.385 . S
C3228 C3226 1.478 . S
C3228 C3230 1.391 . S
C3228 C3234 1.383 . S
C3229 C3225 1.495 1_655 S
C3229 H3235 0.959 . S
C3229 H3236 0.961 . S
C3229 H3237 0.960 . S
C3230 C3228 1.391 . S
C3230 C3231 1.385 1_455 S
C3230 H3238 0.930 1_455 S
C3231 C3230 1.385 1_655 S
C3231 C3232 1.383 1_655 S
C3231 H3239 0.929 . S
C3232 C3231 1.383 1_455 S
C3232 C3233 1.377 . S
C3233 H3217 0.930 . S
C3233 C3232 1.377 . S
C3233 C3234 1.379 . S
C3234 H3218 0.931 . S
C3234 C3228 1.383 . S
C3234 C3233 1.379 . S
H3235 C3229 0.959 . S
H3236 C3229 0.961 . S
H3237 C3229 0.960 . S
H3238 C3230 0.930 1_655 S
H3239 C3231 0.929 . S
H3240 C3248 0.929 . S
H3241 C3250 0.930 . S
H3242 C3252 0.930 . S
H3243 C3255 0.929 . S
H3244 C3258 0.930 . S
H3245 C3260 0.960 . S
H3246 C3260 0.960 . S
H3247 C3260 0.960 . S
C3248 H3240 0.929 . S
C3248 C3249 1.377 . S
C3248 C3250 1.384 . S
C3249 C3248 1.377 . S
C3249 C3255 1.390 . S
C3250 H3241 0.930 . S
C3250 C3248 1.384 . S
C3250 C3251 1.372 . S
C3251 C3250 1.372 . S
C3251 C3252 1.400 . S
C3251 C3256 1.490 . S
C3252 H3242 0.930 . S
C3252 C3251 1.400 . S
C3252 C3255 1.386 . S
H3253 C3269 0.930 . S
H3254 C3270 0.931 . S
C3255 H3243 0.929 . S
C3255 C3249 1.390 . S
C3255 C3252 1.386 . S
C3256 C3251 1.490 . S
C3256 C3258 1.395 . S
C3256 C3259 1.403 . S
H3257 C3263 0.930 . S
C3258 H3244 0.930 . S
C3258 C3256 1.395 . S
C3258 C3261 1.403 . S
C3259 C3256 1.403 . S
C3259 C3260 1.524 . S
C3259 C3263 1.400 . S
C3260 H3245 0.960 . S
C3260 H3246 0.960 . S
C3260 H3247 0.960 . S
C3260 C3259 1.524 . S
C3261 C3258 1.403 . S
C3261 C3262 1.392 . S
C3261 C3265 1.495 . S
C3262 C3261 1.392 . S
C3262 C3263 1.385 . S
C3262 C3264 1.478 . S
C3263 H3257 0.930 . S
C3263 C3259 1.400 . S
C3263 C3262 1.385 . S
C3264 C3262 1.478 . S
C3264 C3266 1.381 . S
C3264 C3270 1.383 . S
C3265 C3261 1.495 . S
C3265 H3271 0.959 . S
C3265 H3272 0.961 . S
C3265 H3273 0.960 . S
C3266 C3264 1.381 . S
C3266 C3267 1.394 . S
C3266 H3274 0.930 . S
C3267 C3266 1.394 . S
C3267 C3268 1.383 . S
C3267 H3275 0.929 . S
C3268 C3267 1.383 . S
C3268 C3269 1.377 . S
C3269 H3253 0.930 . S
C3269 C3268 1.377 . S
C3269 C3270 1.379 . S
C3270 H3254 0.931 . S
C3270 C3264 1.383 . S
C3270 C3269 1.379 . S
H3271 C3265 0.959 . S
H3272 C3265 0.961 . S
H3273 C3265 0.960 . S
H3274 C3266 0.930 . S
H3275 C3267 0.929 . S
H3276 C3284 0.929 . S
H3277 C3286 0.930 . S
H3278 C3288 0.930 . S
H3279 C3291 0.929 . S
H3280 C3294 0.930 . S
H3281 C3296 0.960 . S
H3282 C3296 0.960 . S
H3283 C3296 0.960 1_565 S
C3284 H3276 0.929 . S
C3284 C3285 1.377 . S
C3284 C3286 1.384 . S
C3285 C3284 1.377 . S
C3285 C3291 1.390 . S
C3286 H3277 0.930 . S
C3286 C3284 1.384 . S
C3286 C3287 1.372 . S
C3287 C3286 1.372 . S
C3287 C3288 1.400 . S
C3287 C3292 1.490 . S
C3288 H3278 0.930 . S
C3288 C3287 1.400 . S
C3288 C3291 1.386 . S
H3289 C3305 0.930 . S
H3290 C3306 0.931 . S
C3291 H3279 0.929 . S
C3291 C3285 1.390 . S
C3291 C3288 1.386 . S
C3292 C3287 1.490 . S
C3292 C3294 1.395 . S
C3292 C3295 1.403 . S
H3293 C3299 0.952 . S
C3294 H3280 0.930 . S
C3294 C3292 1.395 . S
C3294 C3297 1.403 . S
C3295 C3292 1.403 . S
C3295 C3296 1.524 1_565 S
C3295 C3299 1.400 . S
C3296 H3281 0.960 . S
C3296 H3282 0.960 . S
C3296 H3283 0.960 1_545 S
C3296 C3295 1.524 1_545 S
C3297 C3294 1.403 . S
C3297 C3298 1.392 . S
C3297 C3301 1.495 . S
C3298 C3297 1.392 . S
C3298 C3299 1.385 . S
C3298 C3300 1.478 . S
C3299 H3293 0.952 . S
C3299 C3295 1.400 . S
C3299 C3298 1.385 . S
C3300 C3298 1.478 . S
C3300 C3302 1.381 . S
C3300 C3306 1.383 . S
C3301 C3297 1.495 . S
C3301 H3307 0.959 . S
C3301 H3308 0.961 . S
C3301 H3309 0.960 . S
C3302 C3300 1.381 . S
C3302 C3303 1.374 . S
C3302 H3310 0.939 . S
C3303 C3302 1.374 . S
C3303 C3304 1.414 . S
C3303 H3311 0.925 1_565 S
C3304 C3303 1.414 . S
C3304 C3305 1.377 . S
C3305 H3289 0.930 . S
C3305 C3304 1.377 . S
C3305 C3306 1.379 . S
C3306 H3290 0.931 . S
C3306 C3300 1.383 . S
C3306 C3305 1.379 . S
H3307 C3301 0.959 . S
H3308 C3301 0.961 . S
H3309 C3301 0.960 . S
H3310 C3302 0.939 . S
H3311 C3303 0.925 1_545 S
H3312 C3320 0.929 . S
H3313 C3322 0.930 . S
H3314 C3324 0.930 . S
H3315 C3327 0.929 . S
H3316 C3330 0.930 . S
H3317 C3332 0.960 . S
H3318 C3332 0.960 . S
H3319 C3332 0.960 . S
C3320 H3312 0.929 . S
C3320 C3321 1.377 . S
C3320 C3322 1.384 . S
C3321 C3320 1.377 . S
C3321 C3327 1.390 . S
C3322 H3313 0.930 . S
C3322 C3320 1.384 . S
C3322 C3323 1.372 . S
C3323 C3322 1.372 . S
C3323 C3324 1.400 . S
C3323 C3328 1.490 . S
C3324 H3314 0.930 . S
C3324 C3323 1.400 . S
C3324 C3327 1.386 . S
H3325 C3341 0.898 1_545 S
H3326 C3342 0.931 1_545 S
C3327 H3315 0.929 . S
C3327 C3321 1.390 . S
C3327 C3324 1.386 . S
C3328 C3323 1.490 . S
C3328 C3330 1.395 . S
C3328 C3331 1.403 . S
H3329 C3335 0.930 . S
C3330 H3316 0.930 . S
C3330 C3328 1.395 . S
C3330 C3333 1.403 . S
C3331 C3328 1.403 . S
C3331 C3332 1.524 . S
C3331 C3335 1.400 . S
C3332 H3317 0.960 . S
C3332 H3318 0.960 . S
C3332 H3319 0.960 . S
C3332 C3331 1.524 . S
C3333 C3330 1.403 . S
C3333 C3334 1.392 . S
C3333 C3337 1.495 1_565 S
C3334 C3333 1.392 . S
C3334 C3335 1.385 . S
C3334 C3336 1.478 . S
C3335 H3329 0.930 . S
C3335 C3331 1.400 . S
C3335 C3334 1.385 . S
C3336 C3334 1.478 . S
C3336 C3338 1.381 . S
C3336 C3342 1.383 . S
C3337 C3333 1.495 1_545 S
C3337 H3343 0.959 . S
C3337 H3344 0.961 . S
C3337 H3345 0.960 1_545 S
C3338 C3336 1.381 . S
C3338 C3339 1.394 . S
C3338 H3346 0.930 . S
C3339 C3338 1.394 . S
C3339 C3340 1.383 . S
C3339 H3347 0.929 . S
C3340 C3339 1.383 . S
C3340 C3341 1.374 . S
C3341 H3325 0.898 1_565 S
C3341 C3340 1.374 . S
C3341 C3342 1.417 . S
C3342 H3326 0.931 1_565 S
C3342 C3336 1.383 . S
C3342 C3341 1.417 . S
H3343 C3337 0.959 . S
H3344 C3337 0.961 . S
H3345 C3337 0.960 1_565 S
H3346 C3338 0.930 . S
H3347 C3339 0.929 . S
H3348 C3356 0.929 . S
H3349 C3358 0.930 . S
H3350 C3360 0.930 . S
H3351 C3363 0.929 . S
H3352 C3366 0.930 . S
H3353 C3368 0.960 . S
H3354 C3368 0.960 1_455 S
H3355 C3368 0.960 . S
C3356 H3348 0.929 . S
C3356 C3357 1.377 . S
C3356 C3358 1.384 . S
C3357 C3356 1.377 . S
C3357 C3363 1.390 . S
C3358 H3349 0.930 . S
C3358 C3356 1.384 . S
C3358 C3359 1.372 . S
C3359 C3358 1.372 . S
C3359 C3360 1.400 . S
C3359 C3364 1.490 . S
C3360 H3350 0.930 . S
C3360 C3359 1.400 . S
C3360 C3363 1.386 . S
H3361 C3377 0.930 . S
H3362 C3378 0.933 . S
C3363 H3351 0.929 . S
C3363 C3357 1.390 . S
C3363 C3360 1.386 . S
C3364 C3359 1.490 . S
C3364 C3366 1.395 . S
C3364 C3367 1.403 . S
H3365 C3371 0.894 1_655 S
C3366 H3352 0.930 . S
C3366 C3364 1.395 . S
C3366 C3369 1.403 . S
C3367 C3364 1.403 . S
C3367 C3368 1.524 1_455 S
C3367 C3371 1.400 . S
C3368 H3353 0.960 . S
C3368 H3354 0.960 1_655 S
C3368 H3355 0.960 . S
C3368 C3367 1.524 1_655 S
C3369 C3366 1.403 . S
C3369 C3370 1.392 . S
C3369 C3373 1.495 . S
C3370 C3369 1.392 . S
C3370 C3371 1.385 . S
C3370 C3372 1.478 . S
C3371 H3365 0.894 1_455 S
C3371 C3367 1.400 . S
C3371 C3370 1.385 . S
C3372 C3370 1.478 . S
C3372 C3374 1.381 . S
C3372 C3378 1.381 1_455 S
C3373 C3369 1.495 . S
C3373 H3379 0.959 . S
C3373 H3380 0.961 . S
C3373 H3381 0.960 . S
C3374 C3372 1.381 . S
C3374 C3375 1.394 . S
C3374 H3382 0.930 . S
C3375 C3374 1.394 . S
C3375 C3376 1.383 . S
C3375 H3383 0.929 . S
C3376 C3375 1.383 . S
C3376 C3377 1.377 1_455 S
C3377 H3361 0.930 . S
C3377 C3376 1.377 1_655 S
C3377 C3378 1.379 . S
C3378 H3362 0.933 . S
C3378 C3372 1.381 1_655 S
C3378 C3377 1.379 . S
H3379 C3373 0.959 . S
H3380 C3373 0.961 . S
H3381 C3373 0.960 . S
H3382 C3374 0.930 . S
H3383 C3375 0.929 . S
H3384 C3392 0.929 . S
H3385 C3394 0.930 . S
H3386 C3396 0.930 . S
H3387 C3399 0.929 . S
H3388 C3402 0.930 . S
H3389 C3404 0.960 . S
H3390 C3404 0.960 . S
H3391 C3404 0.960 . S
C3392 H3384 0.929 . S
C3392 C3393 1.377 . S
C3392 C3394 1.384 . S
C3393 C3392 1.377 . S
C3393 C3399 1.390 . S
C3394 H3385 0.930 . S
C3394 C3392 1.384 . S
C3394 C3395 1.372 . S
C3395 C3394 1.372 . S
C3395 C3396 1.400 . S
C3395 C3400 1.490 . S
C3396 H3386 0.930 . S
C3396 C3395 1.400 . S
C3396 C3399 1.386 . S
H3397 C3413 0.930 . S
H3398 C3414 0.931 . S
C3399 H3387 0.929 . S
C3399 C3393 1.390 . S
C3399 C3396 1.386 . S
C3400 C3395 1.490 . S
C3400 C3402 1.395 . S
C3400 C3403 1.403 . S
H3401 C3407 0.930 . S
C3402 H3388 0.930 . S
C3402 C3400 1.395 . S
C3402 C3405 1.403 . S
C3403 C3400 1.403 . S
C3403 C3404 1.524 . S
C3403 C3407 1.400 . S
C3404 H3389 0.960 . S
C3404 H3390 0.960 . S
C3404 H3391 0.960 . S
C3404 C3403 1.524 . S
C3405 C3402 1.403 . S
C3405 C3406 1.392 . S
C3405 C3409 1.495 . S
C3406 C3405 1.392 . S
C3406 C3407 1.385 . S
C3406 C3408 1.478 . S
C3407 H3401 0.930 . S
C3407 C3403 1.400 . S
C3407 C3406 1.385 . S
C3408 C3406 1.478 . S
C3408 C3410 1.381 . S
C3408 C3414 1.383 . S
C3409 C3405 1.495 . S
C3409 H3415 0.959 . S
C3409 H3416 0.961 . S
C3409 H3417 0.960 . S
C3410 C3408 1.381 . S
C3410 C3411 1.394 . S
C3410 H3418 0.930 . S
C3411 C3410 1.394 . S
C3411 C3412 1.383 . S
C3411 H3419 0.929 . S
C3412 C3411 1.383 . S
C3412 C3413 1.377 . S
C3413 H3397 0.930 . S
C3413 C3412 1.377 . S
C3413 C3414 1.379 . S
C3414 H3398 0.931 . S
C3414 C3408 1.383 . S
C3414 C3413 1.379 . S
H3415 C3409 0.959 . S
H3416 C3409 0.961 . S
H3417 C3409 0.960 . S
H3418 C3410 0.930 . S
H3419 C3411 0.929 . S
H3420 C3428 0.929 . S
H3421 C3430 0.930 . S
H3422 C3432 0.930 . S
H3423 C3435 0.929 . S
H3424 C3438 0.930 . S
H3425 C3440 0.960 . S
H3426 C3440 0.960 . S
H3427 C3440 0.960 . S
C3428 H3420 0.929 . S
C3428 C3429 1.377 . S
C3428 C3430 1.384 . S
C3429 C3428 1.377 . S
C3429 C3435 1.390 . S
C3430 H3421 0.930 . S
C3430 C3428 1.384 . S
C3430 C3431 1.372 . S
C3431 C3430 1.372 . S
C3431 C3432 1.400 . S
C3431 C3436 1.490 . S
C3432 H3422 0.930 . S
C3432 C3431 1.400 . S
C3432 C3435 1.386 . S
H3433 C3449 0.930 . S
H3434 C3450 0.931 . S
C3435 H3423 0.929 . S
C3435 C3429 1.390 . S
C3435 C3432 1.386 . S
C3436 C3431 1.490 . S
C3436 C3438 1.395 . S
C3436 C3439 1.403 . S
H3437 C3443 0.930 . S
C3438 H3424 0.930 . S
C3438 C3436 1.395 . S
C3438 C3441 1.403 . S
C3439 C3436 1.403 . S
C3439 C3440 1.524 . S
C3439 C3443 1.400 . S
C3440 H3425 0.960 . S
C3440 H3426 0.960 . S
C3440 H3427 0.960 . S
C3440 C3439 1.524 . S
C3441 C3438 1.403 . S
C3441 C3442 1.392 . S
C3441 C3445 1.495 . S
C3442 C3441 1.392 . S
C3442 C3443 1.385 . S
C3442 C3444 1.478 . S
C3443 H3437 0.930 . S
C3443 C3439 1.400 . S
C3443 C3442 1.385 . S
C3444 C3442 1.478 . S
C3444 C3446 1.381 . S
C3444 C3450 1.383 . S
C3445 C3441 1.495 . S
C3445 H3451 0.959 . S
C3445 H3452 0.961 . S
C3445 H3453 0.960 . S
C3446 C3444 1.381 . S
C3446 C3447 1.394 . S
C3446 H3454 0.930 . S
C3447 C3446 1.394 . S
C3447 C3448 1.383 . S
C3447 H3455 0.929 . S
C3448 C3447 1.383 . S
C3448 C3449 1.377 . S
C3449 H3433 0.930 . S
C3449 C3448 1.377 . S
C3449 C3450 1.379 . S
C3450 H3434 0.931 . S
C3450 C3444 1.383 . S
C3450 C3449 1.379 . S
H3451 C3445 0.959 . S
H3452 C3445 0.961 . S
H3453 C3445 0.960 . S
H3454 C3446 0.930 . S
H3455 C3447 0.929 . S
H3456 C3464 0.929 . S
H3457 C3466 0.930 . S
H3458 C3468 0.930 . S
H3459 C3471 0.929 . S
H3460 C3474 0.930 . S
H3461 C3476 0.960 . S
H3462 C3476 0.960 . S
H3463 C3476 0.960 . S
C3464 H3456 0.929 . S
C3464 C3465 1.377 . S
C3464 C3466 1.384 . S
C3465 C3464 1.377 . S
C3465 C3471 1.390 . S
C3466 H3457 0.930 . S
C3466 C3464 1.384 . S
C3466 C3467 1.372 . S
C3467 C3466 1.372 . S
C3467 C3468 1.400 . S
C3467 C3472 1.490 . S
C3468 H3458 0.930 . S
C3468 C3467 1.400 . S
C3468 C3471 1.386 . S
H3469 C3485 0.930 . S
H3470 C3486 0.931 . S
C3471 H3459 0.929 . S
C3471 C3465 1.390 . S
C3471 C3468 1.386 . S
C3472 C3467 1.490 . S
C3472 C3474 1.395 . S
C3472 C3475 1.403 . S
H3473 C3479 0.930 . S
C3474 H3460 0.930 . S
C3474 C3472 1.395 . S
C3474 C3477 1.403 . S
C3475 C3472 1.403 . S
C3475 C3476 1.524 . S
C3475 C3479 1.400 . S
C3476 H3461 0.960 . S
C3476 H3462 0.960 . S
C3476 H3463 0.960 . S
C3476 C3475 1.524 . S
C3477 C3474 1.403 . S
C3477 C3478 1.392 . S
C3477 C3481 1.495 . S
C3478 C3477 1.392 . S
C3478 C3479 1.385 . S
C3478 C3480 1.478 . S
C3479 H3473 0.930 . S
C3479 C3475 1.400 . S
C3479 C3478 1.385 . S
C3480 C3478 1.478 . S
C3480 C3482 1.381 . S
C3480 C3486 1.383 . S
C3481 C3477 1.495 . S
C3481 H3487 0.959 . S
C3481 H3488 0.961 . S
C3481 H3489 0.960 . S
C3482 C3480 1.381 . S
C3482 C3483 1.394 . S
C3482 H3490 0.930 . S
C3483 C3482 1.394 . S
C3483 C3484 1.383 . S
C3483 H3491 0.929 . S
C3484 C3483 1.383 . S
C3484 C3485 1.377 . S
C3485 H3469 0.930 . S
C3485 C3484 1.377 . S
C3485 C3486 1.379 . S
C3486 H3470 0.931 . S
C3486 C3480 1.383 . S
C3486 C3485 1.379 . S
H3487 C3481 0.959 . S
H3488 C3481 0.961 . S
H3489 C3481 0.960 . S
H3490 C3482 0.930 . S
H3491 C3483 0.929 . S
H3492 C3500 0.929 . S
H3493 C3502 0.930 . S
H3494 C3504 0.930 . S
H3495 C3507 0.974 . S
H3496 C3510 0.930 . S
H3497 C3512 0.960 . S
H3498 C3512 0.960 . S
H3499 C3512 0.960 . S
C3500 H3492 0.929 . S
C3500 C3501 1.377 . S
C3500 C3502 1.384 . S
C3501 C3500 1.377 . S
C3501 C3507 1.390 . S
C3502 H3493 0.930 . S
C3502 C3500 1.384 . S
C3502 C3503 1.372 . S
C3503 C3502 1.372 . S
C3503 C3504 1.400 . S
C3503 C3508 1.490 . S
C3504 H3494 0.930 . S
C3504 C3503 1.400 . S
C3504 C3507 1.386 . S
H3505 C3521 0.930 . S
H3506 C3522 0.931 . S
C3507 H3495 0.974 . S
C3507 C3501 1.390 . S
C3507 C3504 1.386 . S
C3508 C3503 1.490 . S
C3508 C3510 1.395 . S
C3508 C3511 1.403 . S
H3509 C3515 0.930 . S
C3510 H3496 0.930 . S
C3510 C3508 1.395 . S
C3510 C3513 1.403 . S
C3511 C3508 1.403 . S
C3511 C3512 1.524 . S
C3511 C3515 1.400 . S
C3512 H3497 0.960 . S
C3512 H3498 0.960 . S
C3512 H3499 0.960 . S
C3512 C3511 1.524 . S
C3513 C3510 1.403 . S
C3513 C3514 1.392 . S
C3513 C3517 1.495 . S
C3514 C3513 1.392 . S
C3514 C3515 1.385 . S
C3514 C3516 1.478 . S
C3515 H3509 0.930 . S
C3515 C3511 1.400 . S
C3515 C3514 1.385 . S
C3516 C3514 1.478 . S
C3516 C3518 1.381 . S
C3516 C3522 1.383 . S
C3517 C3513 1.495 . S
C3517 H3523 0.959 . S
C3517 H3524 0.961 . S
C3517 H3525 0.960 . S
C3518 C3516 1.381 . S
C3518 C3519 1.394 . S
C3518 H3526 0.930 . S
C3519 C3518 1.394 . S
C3519 C3520 1.383 . S
C3519 H3527 0.929 . S
C3520 C3519 1.383 . S
C3520 C3521 1.377 . S
C3521 H3505 0.930 . S
C3521 C3520 1.377 . S
C3521 C3522 1.379 . S
C3522 H3506 0.931 . S
C3522 C3516 1.383 . S
C3522 C3521 1.379 . S
H3523 C3517 0.959 . S
H3524 C3517 0.961 . S
H3525 C3517 0.960 . S
H3526 C3518 0.930 . S
H3527 C3519 0.929 . S
H3528 C3536 0.929 . S
H3529 C3538 0.930 . S
H3530 C3540 0.930 . S
H3531 C3543 0.929 . S
H3532 C3546 0.930 . S
H3533 C3548 0.960 . S
H3534 C3548 0.960 . S
H3535 C3548 0.960 . S
C3536 H3528 0.929 . S
C3536 C3537 1.377 . S
C3536 C3538 1.384 . S
C3537 C3536 1.377 . S
C3537 C3543 1.390 . S
C3538 H3529 0.930 . S
C3538 C3536 1.384 . S
C3538 C3539 1.372 . S
C3539 C3538 1.372 . S
C3539 C3540 1.400 . S
C3539 C3544 1.490 . S
C3540 H3530 0.930 . S
C3540 C3539 1.400 . S
C3540 C3543 1.386 . S
H3541 C3557 0.930 . S
H3542 C3558 0.931 . S
C3543 H3531 0.929 . S
C3543 C3537 1.390 . S
C3543 C3540 1.386 . S
C3544 C3539 1.490 . S
C3544 C3546 1.395 . S
C3544 C3547 1.403 . S
H3545 C3551 0.930 . S
C3546 H3532 0.930 . S
C3546 C3544 1.395 . S
C3546 C3549 1.403 . S
C3547 C3544 1.403 . S
C3547 C3548 1.524 . S
C3547 C3551 1.400 . S
C3548 H3533 0.960 . S
C3548 H3534 0.960 . S
C3548 H3535 0.960 . S
C3548 C3547 1.524 . S
C3549 C3546 1.403 . S
C3549 C3550 1.392 . S
C3549 C3553 1.495 . S
C3550 C3549 1.392 . S
C3550 C3551 1.385 . S
C3550 C3552 1.478 . S
C3551 H3545 0.930 . S
C3551 C3547 1.400 . S
C3551 C3550 1.385 . S
C3552 C3550 1.478 . S
C3552 C3554 1.381 1_545 S
C3552 C3558 1.383 . S
C3553 C3549 1.495 . S
C3553 H3559 0.959 . S
C3553 H3560 0.961 . S
C3553 H3561 0.960 1_545 S
C3554 C3552 1.381 1_565 S
C3554 C3555 1.394 . S
C3554 H3562 0.930 . S
C3555 C3554 1.394 . S
C3555 C3556 1.383 1_565 S
C3555 H3563 0.929 . S
C3556 C3555 1.383 1_545 S
C3556 C3557 1.377 . S
C3557 H3541 0.930 . S
C3557 C3556 1.377 . S
C3557 C3558 1.379 . S
C3558 H3542 0.931 . S
C3558 C3552 1.383 . S
C3558 C3557 1.379 . S
H3559 C3553 0.959 . S
H3560 C3553 0.961 . S
H3561 C3553 0.960 1_565 S
H3562 C3554 0.930 . S
H3563 C3555 0.929 . S
H3564 C3572 0.929 . S
H3565 C3574 0.930 . S
H3566 C3576 0.930 . S
H3567 C3579 0.929 . S
H3568 C3582 0.930 1_455 S
H3569 C3584 0.960 . S
H3570 C3584 0.960 . S
H3571 C3584 0.960 . S
C3572 H3564 0.929 . S
C3572 C3573 1.377 . S
C3572 C3574 1.384 . S
C3573 C3572 1.377 . S
C3573 C3579 1.390 . S
C3574 H3565 0.930 . S
C3574 C3572 1.384 . S
C3574 C3575 1.372 . S
C3575 C3574 1.372 . S
C3575 C3576 1.400 . S
C3575 C3580 1.490 . S
C3576 H3566 0.930 . S
C3576 C3575 1.400 . S
C3576 C3579 1.386 . S
H3577 C3593 0.930 . S
H3578 C3594 0.931 . S
C3579 H3567 0.929 . S
C3579 C3573 1.390 . S
C3579 C3576 1.386 . S
C3580 C3575 1.490 . S
C3580 C3582 1.395 . S
C3580 C3583 1.403 . S
H3581 C3587 0.930 . S
C3582 H3568 0.930 1_655 S
C3582 C3580 1.395 . S
C3582 C3585 1.439 1_655 S
C3583 C3580 1.403 . S
C3583 C3584 1.524 . S
C3583 C3587 1.400 . S
C3584 H3569 0.960 . S
C3584 H3570 0.960 . S
C3584 H3571 0.960 . S
C3584 C3583 1.524 . S
C3585 C3582 1.439 1_455 S
C3585 C3586 1.283 1_455 S
C3585 C3589 1.576 . S
C3586 C3585 1.283 1_655 S
C3586 C3587 1.385 . S
C3586 C3588 1.478 . S
C3587 H3581 0.930 . S
C3587 C3583 1.400 . S
C3587 C3586 1.385 . S
C3588 C3586 1.478 . S
C3588 C3590 1.381 . S
C3588 C3594 1.383 . S
C3589 C3585 1.576 . S
C3589 H3595 0.959 . S
C3589 H3596 0.961 . S
C3589 H3597 0.960 . S
C3590 C3588 1.381 . S
C3590 C3591 1.394 . S
C3590 H3598 0.930 . S
C3591 C3590 1.394 . S
C3591 C3592 1.383 . S
C3591 H3599 0.923 1_655 S
C3592 C3591 1.383 . S
C3592 C3593 1.377 . S
C3593 H3577 0.930 . S
C3593 C3592 1.377 . S
C3593 C3594 1.379 . S
C3594 H3578 0.931 . S
C3594 C3588 1.383 . S
C3594 C3593 1.379 . S
H3595 C3589 0.959 . S
H3596 C3589 0.961 . S
H3597 C3589 0.960 . S
H3598 C3590 0.930 . S
H3599 C3591 0.923 1_455 S
H3600 C3608 0.929 . S
H3601 C3610 0.930 . S
H3602 C3612 0.930 . S
H3603 C3615 0.929 . S
H3604 C3618 0.930 . S
H3605 C3620 0.960 . S
H3606 C3620 0.960 . S
H3607 C3620 0.960 . S
C3608 H3600 0.929 . S
C3608 C3609 1.377 . S
C3608 C3610 1.384 . S
C3609 C3608 1.377 . S
C3609 C3615 1.390 . S
C3610 H3601 0.930 . S
C3610 C3608 1.384 . S
C3610 C3611 1.372 . S
C3611 C3610 1.372 . S
C3611 C3612 1.400 . S
C3611 C3616 1.490 . S
C3612 H3602 0.930 . S
C3612 C3611 1.400 . S
C3612 C3615 1.386 . S
H3613 C3629 0.930 . S
H3614 C3630 0.931 . S
C3615 H3603 0.929 . S
C3615 C3609 1.390 . S
C3615 C3612 1.386 . S
C3616 C3611 1.490 . S
C3616 C3618 1.395 . S
C3616 C3619 1.403 . S
H3617 C3623 0.930 . S
C3618 H3604 0.930 . S
C3618 C3616 1.395 . S
C3618 C3621 1.403 . S
C3619 C3616 1.403 . S
C3619 C3620 1.524 . S
C3619 C3623 1.400 . S
C3620 H3605 0.960 . S
C3620 H3606 0.960 . S
C3620 H3607 0.960 . S
C3620 C3619 1.524 . S
C3621 C3618 1.403 . S
C3621 C3622 1.392 . S
C3621 C3625 1.495 . S
C3622 C3621 1.392 . S
C3622 C3623 1.385 . S
C3622 C3624 1.478 . S
C3623 H3617 0.930 . S
C3623 C3619 1.400 . S
C3623 C3622 1.385 . S
C3624 C3622 1.478 . S
C3624 C3626 1.381 . S
C3624 C3630 1.383 . S
C3625 C3621 1.495 . S
C3625 H3631 0.959 . S
C3625 H3632 0.961 . S
C3625 H3633 0.960 . S
C3626 C3624 1.381 . S
C3626 C3627 1.394 . S
C3626 H3634 0.930 . S
C3627 C3626 1.394 . S
C3627 C3628 1.383 . S
C3627 H3635 0.929 . S
C3628 C3627 1.383 . S
C3628 C3629 1.377 . S
C3629 H3613 0.930 . S
C3629 C3628 1.377 . S
C3629 C3630 1.379 . S
C3630 H3614 0.931 . S
C3630 C3624 1.383 . S
C3630 C3629 1.379 . S
H3631 C3625 0.959 . S
H3632 C3625 0.961 . S
H3633 C3625 0.960 . S
H3634 C3626 0.930 . S
H3635 C3627 0.929 . S
H3636 C3644 0.929 . S
H3637 C3646 0.930 . S
H3638 C3648 0.930 . S
H3639 C3651 0.929 . S
H3640 C3654 0.930 . S
H3641 C3656 0.960 . S
H3642 C3656 0.960 . S
H3643 C3656 0.960 . S
C3644 H3636 0.929 . S
C3644 C3645 1.377 . S
C3644 C3646 1.384 . S
C3645 C3644 1.377 . S
C3645 C3651 1.390 . S
C3646 H3637 0.930 . S
C3646 C3644 1.384 . S
C3646 C3647 1.372 . S
C3647 C3646 1.372 . S
C3647 C3648 1.400 . S
C3647 C3652 1.490 . S
C3648 H3638 0.930 . S
C3648 C3647 1.400 . S
C3648 C3651 1.386 . S
H3649 C3665 0.930 . S
H3650 C3666 0.931 . S
C3651 H3639 0.929 . S
C3651 C3645 1.390 . S
C3651 C3648 1.386 . S
C3652 C3647 1.490 . S
C3652 C3654 1.395 . S
C3652 C3655 1.403 . S
H3653 C3659 0.930 . S
C3654 H3640 0.930 . S
C3654 C3652 1.395 . S
C3654 C3657 1.403 . S
C3655 C3652 1.403 . S
C3655 C3656 1.524 . S
C3655 C3659 1.400 . S
C3656 H3641 0.960 . S
C3656 H3642 0.960 . S
C3656 H3643 0.960 . S
C3656 C3655 1.524 . S
C3657 C3654 1.403 . S
C3657 C3658 1.392 . S
C3657 C3661 1.495 . S
C3658 C3657 1.392 . S
C3658 C3659 1.385 . S
C3658 C3660 1.478 . S
C3659 H3653 0.930 . S
C3659 C3655 1.400 . S
C3659 C3658 1.385 . S
C3660 C3658 1.478 . S
C3660 C3662 1.381 . S
C3660 C3666 1.383 . S
C3661 C3657 1.495 . S
C3661 H3667 0.959 . S
C3661 H3668 0.961 . S
C3661 H3669 0.960 . S
C3662 C3660 1.381 . S
C3662 C3663 1.394 . S
C3662 H3670 0.930 . S
C3663 C3662 1.394 . S
C3663 C3664 1.383 . S
C3663 H3671 0.929 . S
C3664 C3663 1.383 . S
C3664 C3665 1.377 . S
C3665 H3649 0.930 . S
C3665 C3664 1.377 . S
C3665 C3666 1.379 . S
C3666 H3650 0.931 . S
C3666 C3660 1.383 . S
C3666 C3665 1.379 . S
H3667 C3661 0.959 . S
H3668 C3661 0.961 . S
H3669 C3661 0.960 . S
H3670 C3662 0.930 . S
H3671 C3663 0.929 . S
H3672 C3680 0.929 1_545 S
H3673 C3682 0.930 . S
H3674 C3684 0.930 . S
H3675 C3687 0.929 . S
H3676 C3690 0.930 . S
H3677 C3692 0.960 . S
H3678 C3692 0.960 . S
H3679 C3692 0.960 . S
C3680 H3672 0.929 1_565 S
C3680 C3681 1.377 . S
C3680 C3682 1.384 . S
C3681 C3680 1.377 . S
C3681 C3687 1.390 . S
C3682 H3673 0.930 . S
C3682 C3680 1.384 . S
C3682 C3683 1.372 . S
C3683 C3682 1.372 . S
C3683 C3684 1.400 . S
C3683 C3688 1.490 . S
C3684 H3674 0.930 . S
C3684 C3683 1.400 . S
C3684 C3687 1.386 . S
H3685 C3701 0.930 . S
H3686 C3702 0.931 . S
C3687 H3675 0.929 . S
C3687 C3681 1.390 . S
C3687 C3684 1.386 . S
C3688 C3683 1.490 . S
C3688 C3690 1.395 . S
C3688 C3691 1.403 . S
H3689 C3695 0.930 . S
C3690 H3676 0.930 . S
C3690 C3688 1.395 . S
C3690 C3693 1.403 . S
C3691 C3688 1.403 . S
C3691 C3692 1.524 . S
C3691 C3695 1.400 . S
C3692 H3677 0.960 . S
C3692 H3678 0.960 . S
C3692 H3679 0.960 . S
C3692 C3691 1.524 . S
C3693 C3690 1.403 . S
C3693 C3694 1.392 . S
C3693 C3697 1.495 . S
C3694 C3693 1.392 . S
C3694 C3695 1.385 . S
C3694 C3696 1.478 . S
C3695 H3689 0.930 . S
C3695 C3691 1.400 . S
C3695 C3694 1.385 . S
C3696 C3694 1.478 . S
C3696 C3698 1.381 . S
C3696 C3702 1.383 . S
C3697 C3693 1.495 . S
C3697 H3703 0.959 . S
C3697 H3704 0.961 . S
C3697 H3705 0.960 . S
C3698 C3696 1.381 . S
C3698 C3699 1.394 . S
C3698 H3706 0.930 . S
C3699 C3698 1.394 . S
C3699 C3700 1.383 . S
C3699 H3707 0.929 . S
C3700 C3699 1.383 . S
C3700 C3701 1.377 . S
C3701 H3685 0.930 . S
C3701 C3700 1.377 . S
C3701 C3702 1.379 . S
C3702 H3686 0.931 . S
C3702 C3696 1.383 . S
C3702 C3701 1.379 . S
H3703 C3697 0.959 . S
H3704 C3697 0.961 . S
H3705 C3697 0.960 . S
H3706 C3698 0.930 . S
H3707 C3699 0.929 . S
H3708 C3716 0.929 . S
H3709 C3718 0.930 . S
H3710 C3720 0.930 . S
H3711 C3723 0.929 . S
H3712 C3726 0.930 . S
H3713 C3728 0.960 . S
H3714 C3728 0.960 . S
H3715 C3728 0.960 . S
C3716 H3708 0.929 . S
C3716 C3717 1.377 . S
C3716 C3718 1.384 . S
C3717 C3716 1.377 . S
C3717 C3723 1.390 . S
C3718 H3709 0.930 . S
C3718 C3716 1.384 . S
C3718 C3719 1.372 . S
C3719 C3718 1.372 . S
C3719 C3720 1.400 . S
C3719 C3724 1.490 . S
C3720 H3710 0.930 . S
C3720 C3719 1.400 . S
C3720 C3723 1.386 . S
H3721 C3737 0.930 . S
H3722 C3738 0.931 . S
C3723 H3711 0.929 . S
C3723 C3717 1.390 . S
C3723 C3720 1.386 . S
C3724 C3719 1.490 . S
C3724 C3726 1.395 . S
C3724 C3727 1.403 . S
H3725 C3731 0.930 . S
C3726 H3712 0.930 . S
C3726 C3724 1.395 . S
C3726 C3729 1.403 . S
C3727 C3724 1.403 . S
C3727 C3728 1.524 . S
C3727 C3731 1.400 . S
C3728 H3713 0.960 . S
C3728 H3714 0.960 . S
C3728 H3715 0.960 . S
C3728 C3727 1.524 . S
C3729 C3726 1.403 . S
C3729 C3730 1.392 . S
C3729 C3733 1.495 . S
C3730 C3729 1.392 . S
C3730 C3731 1.385 . S
C3730 C3732 1.478 . S
C3731 H3725 0.930 . S
C3731 C3727 1.400 . S
C3731 C3730 1.385 . S
C3732 C3730 1.478 . S
C3732 C3734 1.381 . S
C3732 C3738 1.383 . S
C3733 C3729 1.495 . S
C3733 H3739 0.959 . S
C3733 H3740 0.961 . S
C3733 H3741 0.960 . S
C3734 C3732 1.381 . S
C3734 C3735 1.394 . S
C3734 H3742 0.930 . S
C3735 C3734 1.394 . S
C3735 C3736 1.383 . S
C3735 H3743 0.929 . S
C3736 C3735 1.383 . S
C3736 C3737 1.377 . S
C3737 H3721 0.930 . S
C3737 C3736 1.377 . S
C3737 C3738 1.379 . S
C3738 H3722 0.931 . S
C3738 C3732 1.383 . S
C3738 C3737 1.379 . S
H3739 C3733 0.959 . S
H3740 C3733 0.961 . S
H3741 C3733 0.960 . S
H3742 C3734 0.930 . S
H3743 C3735 0.929 . S
H3744 C3752 0.929 . S
H3745 C3754 0.930 . S
H3746 C3756 0.930 . S
H3747 C3759 0.929 . S
H3748 C3762 0.930 . S
H3749 C3764 0.960 . S
H3750 C3764 0.960 . S
H3751 C3764 0.960 . S
C3752 H3744 0.929 . S
C3752 C3753 1.377 . S
C3752 C3754 1.384 . S
C3753 C3752 1.377 . S
C3753 C3759 1.390 . S
C3754 H3745 0.930 . S
C3754 C3752 1.384 . S
C3754 C3755 1.372 . S
C3755 C3754 1.372 . S
C3755 C3756 1.400 . S
C3755 C3760 1.490 . S
C3756 H3746 0.930 . S
C3756 C3755 1.400 . S
C3756 C3759 1.386 . S
H3757 C3773 0.930 . S
H3758 C3774 0.931 . S
C3759 H3747 0.929 . S
C3759 C3753 1.390 . S
C3759 C3756 1.386 . S
C3760 C3755 1.490 . S
C3760 C3762 1.395 . S
C3760 C3763 1.403 . S
H3761 C3767 0.930 . S
C3762 H3748 0.930 . S
C3762 C3760 1.395 . S
C3762 C3765 1.403 . S
C3763 C3760 1.403 . S
C3763 C3764 1.524 . S
C3763 C3767 1.400 . S
C3764 H3749 0.960 . S
C3764 H3750 0.960 . S
C3764 H3751 0.960 . S
C3764 C3763 1.524 . S
C3765 C3762 1.403 . S
C3765 C3766 1.392 . S
C3765 C3769 1.495 . S
C3766 C3765 1.392 . S
C3766 C3767 1.385 . S
C3766 C3768 1.478 . S
C3767 H3761 0.930 . S
C3767 C3763 1.400 . S
C3767 C3766 1.385 . S
C3768 C3766 1.478 . S
C3768 C3770 1.381 . S
C3768 C3774 1.383 . S
C3769 C3765 1.495 . S
C3769 H3775 0.959 . S
C3769 H3776 0.961 . S
C3769 H3777 0.960 . S
C3770 C3768 1.381 . S
C3770 C3771 1.394 . S
C3770 H3778 0.930 . S
C3771 C3770 1.394 . S
C3771 C3772 1.383 . S
C3771 H3779 0.929 . S
C3772 C3771 1.383 . S
C3772 C3773 1.377 . S
C3773 H3757 0.930 . S
C3773 C3772 1.377 . S
C3773 C3774 1.379 . S
C3774 H3758 0.931 . S
C3774 C3768 1.383 . S
C3774 C3773 1.379 . S
H3775 C3769 0.959 . S
H3776 C3769 0.961 . S
H3777 C3769 0.960 . S
H3778 C3770 0.930 . S
H3779 C3771 0.929 . S
H3780 C3788 0.929 . S
H3781 C3790 0.930 . S
H3782 C3792 0.930 . S
H3783 C3795 0.929 . S
H3784 C3798 0.930 . S
H3785 C3800 0.960 . S
H3786 C3800 0.960 . S
H3787 C3800 0.960 . S
C3788 H3780 0.929 . S
C3788 C3789 1.377 . S
C3788 C3790 1.384 . S
C3789 C3788 1.377 . S
C3789 C3795 1.390 . S
C3790 H3781 0.930 . S
C3790 C3788 1.384 . S
C3790 C3791 1.372 . S
C3791 C3790 1.372 . S
C3791 C3792 1.400 . S
C3791 C3796 1.490 . S
C3792 H3782 0.930 . S
C3792 C3791 1.400 . S
C3792 C3795 1.386 . S
H3793 C3809 0.930 . S
H3794 C3810 0.931 . S
C3795 H3783 0.929 . S
C3795 C3789 1.390 . S
C3795 C3792 1.386 . S
C3796 C3791 1.490 . S
C3796 C3798 1.395 . S
C3796 C3799 1.403 . S
H3797 C3803 0.930 . S
C3798 H3784 0.930 . S
C3798 C3796 1.395 . S
C3798 C3801 1.403 . S
C3799 C3796 1.403 . S
C3799 C3800 1.524 . S
C3799 C3803 1.400 . S
C3800 H3785 0.960 . S
C3800 H3786 0.960 . S
C3800 H3787 0.960 . S
C3800 C3799 1.524 . S
C3801 C3798 1.403 . S
C3801 C3802 1.392 . S
C3801 C3805 1.495 . S
C3802 C3801 1.392 . S
C3802 C3803 1.385 . S
C3802 C3804 1.478 . S
C3803 H3797 0.930 . S
C3803 C3799 1.400 . S
C3803 C3802 1.385 . S
C3804 C3802 1.478 . S
C3804 C3806 1.381 . S
C3804 C3810 1.383 . S
C3805 C3801 1.495 . S
C3805 H3811 0.959 . S
C3805 H3812 0.961 . S
C3805 H3813 0.960 . S
C3806 C3804 1.381 . S
C3806 C3807 1.394 . S
C3806 H3814 0.930 . S
C3807 C3806 1.394 . S
C3807 C3808 1.383 . S
C3807 H3815 0.929 . S
C3808 C3807 1.383 . S
C3808 C3809 1.377 . S
C3809 H3793 0.930 . S
C3809 C3808 1.377 . S
C3809 C3810 1.379 . S
C3810 H3794 0.931 . S
C3810 C3804 1.383 . S
C3810 C3809 1.379 . S
H3811 C3805 0.959 . S
H3812 C3805 0.961 . S
H3813 C3805 0.960 . S
H3814 C3806 0.930 . S
H3815 C3807 0.929 . S
H3816 C3824 0.929 1_655 S
H3817 C3826 0.930 . S
H3818 C3828 0.930 . S
H3819 C3831 0.929 . S
H3820 C3834 0.930 . S
H3821 C3836 0.960 . S
H3822 C3836 0.960 . S
H3823 C3836 0.960 . S
C3824 H3816 0.929 1_455 S
C3824 C3825 1.377 . S
C3824 C3826 1.384 . S
C3825 C3824 1.377 . S
C3825 C3831 1.390 . S
C3826 H3817 0.930 . S
C3826 C3824 1.384 . S
C3826 C3827 1.372 . S
C3827 C3826 1.372 . S
C3827 C3828 1.400 . S
C3827 C3832 1.490 . S
C3828 H3818 0.930 . S
C3828 C3827 1.400 . S
C3828 C3831 1.386 . S
H3829 C3845 0.930 . S
H3830 C3846 0.931 . S
C3831 H3819 0.929 . S
C3831 C3825 1.390 . S
C3831 C3828 1.386 . S
C3832 C3827 1.490 . S
C3832 C3834 1.395 . S
C3832 C3835 1.403 . S
H3833 C3839 0.930 . S
C3834 H3820 0.930 . S
C3834 C3832 1.395 . S
C3834 C3837 1.403 . S
C3835 C3832 1.403 . S
C3835 C3836 1.524 . S
C3835 C3839 1.400 . S
C3836 H3821 0.960 . S
C3836 H3822 0.960 . S
C3836 H3823 0.960 . S
C3836 C3835 1.524 . S
C3837 C3834 1.403 . S
C3837 C3838 1.392 . S
C3837 C3841 1.495 . S
C3838 C3837 1.392 . S
C3838 C3839 1.385 . S
C3838 C3840 1.478 . S
C3839 H3833 0.930 . S
C3839 C3835 1.400 . S
C3839 C3838 1.385 . S
C3840 C3838 1.478 . S
C3840 C3842 1.381 . S
C3840 C3846 1.383 . S
C3841 C3837 1.495 . S
C3841 H3847 0.959 . S
C3841 H3848 0.961 . S
C3841 H3849 0.960 . S
C3842 C3840 1.381 . S
C3842 C3843 1.394 . S
C3842 H3850 0.930 . S
C3843 C3842 1.394 . S
C3843 C3844 1.383 . S
C3843 H3851 0.929 . S
C3844 C3843 1.383 . S
C3844 C3845 1.377 . S
C3845 H3829 0.930 . S
C3845 C3844 1.377 . S
C3845 C3846 1.379 . S
C3846 H3830 0.931 . S
C3846 C3840 1.383 . S
C3846 C3845 1.379 . S
H3847 C3841 0.959 . S
H3848 C3841 0.961 . S
H3849 C3841 0.960 . S
H3850 C3842 0.930 . S
H3851 C3843 0.929 . S
H3852 C3860 0.929 . S
H3853 C3862 0.930 . S
H3854 C3864 0.930 . S
H3855 C3867 0.929 . S
H3856 C3870 0.934 . S
H3857 C3872 0.960 . S
H3858 C3872 0.960 . S
H3859 C3872 0.960 . S
C3860 H3852 0.929 . S
C3860 C3861 1.377 . S
C3860 C3862 1.384 . S
C3861 C3860 1.377 . S
C3861 C3867 1.390 . S
C3862 H3853 0.930 . S
C3862 C3860 1.384 . S
C3862 C3863 1.372 . S
C3863 C3862 1.372 . S
C3863 C3864 1.400 . S
C3863 C3868 1.490 . S
C3864 H3854 0.930 . S
C3864 C3863 1.400 . S
C3864 C3867 1.386 . S
H3865 C3881 0.930 . S
H3866 C3882 0.931 . S
C3867 H3855 0.929 . S
C3867 C3861 1.390 . S
C3867 C3864 1.386 . S
C3868 C3863 1.490 . S
C3868 C3870 1.395 . S
C3868 C3871 1.403 . S
H3869 C3875 0.930 . S
C3870 H3856 0.934 . S
C3870 C3868 1.395 . S
C3870 C3873 1.403 . S
C3871 C3868 1.403 . S
C3871 C3872 1.524 . S
C3871 C3875 1.400 . S
C3872 H3857 0.960 . S
C3872 H3858 0.960 . S
C3872 H3859 0.960 . S
C3872 C3871 1.524 . S
C3873 C3870 1.403 . S
C3873 C3874 1.392 . S
C3873 C3877 1.495 1_655 S
C3874 C3873 1.392 . S
C3874 C3875 1.385 . S
C3874 C3876 1.478 . S
C3875 H3869 0.930 . S
C3875 C3871 1.400 . S
C3875 C3874 1.385 . S
C3876 C3874 1.478 . S
C3876 C3878 1.381 . S
C3876 C3882 1.383 . S
C3877 C3873 1.495 1_455 S
C3877 H3883 0.959 . S
C3877 H3884 0.961 . S
C3877 H3885 0.960 . S
C3878 C3876 1.381 . S
C3878 C3879 1.394 . S
C3878 H3886 0.930 . S
C3879 C3878 1.394 . S
C3879 C3880 1.383 . S
C3879 H3887 0.929 . S
C3880 C3879 1.383 . S
C3880 C3881 1.377 . S
C3881 H3865 0.930 . S
C3881 C3880 1.377 . S
C3881 C3882 1.379 . S
C3882 H3866 0.931 . S
C3882 C3876 1.383 . S
C3882 C3881 1.379 . S
H3883 C3877 0.959 . S
H3884 C3877 0.961 . S
H3885 C3877 0.960 . S
H3886 C3878 0.930 . S
H3887 C3879 0.929 . S
H3888 C3896 0.929 . S
H3889 C3898 0.930 . S
H3890 C3900 0.930 . S
H3891 C3903 0.929 . S
H3892 C3906 0.930 . S
H3893 C3908 0.960 . S
H3894 C3908 0.960 . S
H3895 C3908 0.960 . S
C3896 H3888 0.929 . S
C3896 C3897 1.377 . S
C3896 C3898 1.384 . S
C3897 C3896 1.377 . S
C3897 C3903 1.390 . S
C3898 H3889 0.930 . S
C3898 C3896 1.384 . S
C3898 C3899 1.372 . S
C3899 C3898 1.372 . S
C3899 C3900 1.400 . S
C3899 C3904 1.490 . S
C3900 H3890 0.930 . S
C3900 C3899 1.400 . S
C3900 C3903 1.386 . S
H3901 C3917 0.930 . S
H3902 C3918 0.931 . S
C3903 H3891 0.929 . S
C3903 C3897 1.390 . S
C3903 C3900 1.386 . S
C3904 C3899 1.490 . S
C3904 C3906 1.395 . S
C3904 C3907 1.403 . S
H3905 C3911 0.930 . S
C3906 H3892 0.930 . S
C3906 C3904 1.395 . S
C3906 C3909 1.403 . S
C3907 C3904 1.403 . S
C3907 C3908 1.524 . S
C3907 C3911 1.400 . S
C3908 H3893 0.960 . S
C3908 H3894 0.960 . S
C3908 H3895 0.960 . S
C3908 C3907 1.524 . S
C3909 C3906 1.403 . S
C3909 C3910 1.392 . S
C3909 C3913 1.495 . S
C3910 C3909 1.392 . S
C3910 C3911 1.385 . S
C3910 C3912 1.478 . S
C3911 H3905 0.930 . S
C3911 C3907 1.400 . S
C3911 C3910 1.385 . S
C3912 C3910 1.478 . S
C3912 C3914 1.381 . S
C3912 C3918 1.383 . S
C3913 C3909 1.495 . S
C3913 H3919 0.959 . S
C3913 H3920 0.961 . S
C3913 H3921 0.960 . S
C3914 C3912 1.381 . S
C3914 C3915 1.394 . S
C3914 H3922 0.930 . S
C3915 C3914 1.394 . S
C3915 C3916 1.383 . S
C3915 H3923 0.929 . S
C3916 C3915 1.383 . S
C3916 C3917 1.377 . S
C3917 H3901 0.930 . S
C3917 C3916 1.377 . S
C3917 C3918 1.379 . S
C3918 H3902 0.931 . S
C3918 C3912 1.383 . S
C3918 C3917 1.379 . S
H3919 C3913 0.959 . S
H3920 C3913 0.961 . S
H3921 C3913 0.960 . S
H3922 C3914 0.930 . S
H3923 C3915 0.929 . S
H3924 C3932 0.929 . S
H3925 C3934 0.930 . S
H3926 C3936 0.930 . S
H3927 C3939 0.929 . S
H3928 C3942 0.930 . S
H3929 C3944 0.960 . S
H3930 C3944 0.960 . S
H3931 C3944 0.960 . S
C3932 H3924 0.929 . S
C3932 C3933 1.377 . S
C3932 C3934 1.384 . S
C3933 C3932 1.377 . S
C3933 C3939 1.390 . S
C3934 H3925 0.930 . S
C3934 C3932 1.384 . S
C3934 C3935 1.372 . S
C3935 C3934 1.372 . S
C3935 C3936 1.400 . S
C3935 C3940 1.490 . S
C3936 H3926 0.930 . S
C3936 C3935 1.400 . S
C3936 C3939 1.386 . S
H3937 C3953 0.930 . S
H3938 C3954 0.931 . S
C3939 H3927 0.929 . S
C3939 C3933 1.390 . S
C3939 C3936 1.386 . S
C3940 C3935 1.490 . S
C3940 C3942 1.395 . S
C3940 C3943 1.403 . S
H3941 C3947 0.930 . S
C3942 H3928 0.930 . S
C3942 C3940 1.395 . S
C3942 C3945 1.403 . S
C3943 C3940 1.403 . S
C3943 C3944 1.524 . S
C3943 C3947 1.400 . S
C3944 H3929 0.960 . S
C3944 H3930 0.960 . S
C3944 H3931 0.960 . S
C3944 C3943 1.524 . S
C3945 C3942 1.403 . S
C3945 C3946 1.392 . S
C3945 C3949 1.495 . S
C3946 C3945 1.392 . S
C3946 C3947 1.385 . S
C3946 C3948 1.478 . S
C3947 H3941 0.930 . S
C3947 C3943 1.400 . S
C3947 C3946 1.385 . S
C3948 C3946 1.478 . S
C3948 C3950 1.381 . S
C3948 C3954 1.383 1_545 S
C3949 C3945 1.495 . S
C3949 H3955 0.959 . S
C3949 H3956 0.961 . S
C3949 H3957 0.960 . S
C3950 C3948 1.381 . S
C3950 C3951 1.394 . S
C3950 H3958 0.930 . S
C3951 C3950 1.394 . S
C3951 C3952 1.383 . S
C3951 H3959 0.929 . S
C3952 C3951 1.383 . S
C3952 C3953 1.377 1_545 S
C3953 H3937 0.930 . S
C3953 C3952 1.377 1_565 S
C3953 C3954 1.379 . S
C3954 H3938 0.931 . S
C3954 C3948 1.383 1_565 S
C3954 C3953 1.379 . S
H3955 C3949 0.959 . S
H3956 C3949 0.961 . S
H3957 C3949 0.960 . S
H3958 C3950 0.930 . S
H3959 C3951 0.929 . S
C1377 C13 1.517 . S
C1396 C857 1.520 . S
C1413 C27 1.371 . S
C1432 C901 1.389 . S
C1468 C981 1.559 . S
C1449 C36 1.510 . S
C1485 C41 1.495 1_545 S
C1504 C1025 1.542 . S
C1521 C8 1.638 . S
C1540 C1105 1.687 . S
C1557 C22 1.485 . S
C1576 C1167 1.536 . S
C1593 C55 1.523 . S
C1612 C1087 1.551 . S
C1648 C1149 1.362 . S
C1629 C69 1.371 . S
C1684 C1043 1.558 . S
C1665 C78 1.541 . S
C1701 C83 1.479 . S
C1720 C963 1.501 . S
C1756 C839 1.682 . S
C1737 C50 1.648 . S
C1773 C64 1.488 . S
C1792 C919 1.537 . S
C1809 C97 1.579 . S
C1828 C1229 1.613 . S
C1845 C111 1.390 . S
C1864 C1273 1.412 . S
C1900 C1353 1.557 . S
C1881 C120 1.563 . S
C1917 C125 1.508 . S
C1936 C299 1.517 . S
C1953 C92 1.724 . S
C1972 C343 1.727 . S
C1989 C106 1.509 . S
C2008 C423 1.552 . S
C2025 C139 1.557 . S
C2044 C361 1.597 . S
C2061 C153 1.387 . S
C2080 C405 1.428 . S
C2116 C281 1.559 . S
C2097 C162 1.567 . S
C2152 C1335 1.588 . S
C2133 C167 1.533 . S
C2188 C1211 1.733 . S
C2169 C134 1.720 . S
C2224 C1291 1.566 . S
C2205 C148 1.520 . S
C2241 C181 1.551 . S
C2260 C485 1.557 . S
C2277 C195 1.389 . S
C2296 C547 1.408 . S
C2313 C204 1.570 . S
C2332 C591 1.577 . S
C2349 C209 1.523 . S
C2368 C653 1.555 . S
C2404 C715 1.738 . S
C2385 C176 1.727 . S
C2440 C795 1.534 . S
C2421 C190 1.523 . S
C2476 C733 1.647 . S
C2457 C223 1.584 . S
C2512 C777 1.425 . S
C2493 C237 1.398 . S
C2529 C246 1.561 . S
C2548 C671 1.606 . S
C2584 C609 1.543 . S
C2565 C251 1.513 . S
C2601 C218 1.724 . S
C2620 C467 1.737 . S
C2656 C529 1.526 . S
C2637 C232 1.521 . S
C2692 C305 1.323 . S
C2673 C11 1.363 . S
C2709 C25 1.239 . S
C2728 C349 1.196 . S
C2764 C429 1.300 . S
C2745 C35 1.332 . S
C2800 C491 1.278 . S
C2781 C39 1.363 1_556 S
C2836 C553 1.406 . S
C2817 C7 1.462 1_556 S
C2872 C597 1.259 . S
C2853 C21 1.337 . S
C2889 C53 1.385 1_556 S
C2908 C615 1.371 . S
C2925 C67 1.232 1_556 S
C2944 C473 1.210 . S
C2961 C77 1.297 . S
C2980 C535 1.257 . S
C2997 C81 1.395 . S
C3016 C367 1.329 . S
C3052 C411 1.353 . S
C3033 C49 1.450 . S
C3069 C63 1.337 . S
C3088 C287 1.288 . S
C3124 C659 1.325 . S
C3105 C95 1.353 . S
C3141 C109 1.276 . S
C3160 C721 1.195 . S
C3177 C119 1.399 1_655 S
C3196 C801 1.323 . S
C3232 C863 1.241 . S
C3213 C123 1.274 . S
C3249 C91 1.455 . S
C3268 C907 1.401 . S
C3285 C105 1.270 . S
C3304 C987 1.237 . S
C3321 C137 1.306 . S
C3340 C969 1.270 . S
C3357 C151 1.146 . S
C3376 C845 1.124 . S
C3412 C925 1.290 . S
C3393 C161 1.340 . S
C3429 C165 1.380 . S
C3448 C739 1.303 . S
C3465 C133 1.488 1_545 S
C3484 C783 1.408 . S
C3520 C677 1.308 . S
C3501 C147 1.389 1_655 S
C3556 C1031 1.308 . S
C3537 C179 1.321 . S
C3573 C193 1.135 . S
C3592 C1111 1.102 . S
C3609 C203 1.330 . S
C3628 C1173 1.238 . S
C3664 C1235 1.328 . S
C3645 C207 1.359 . S
C3700 C1279 1.398 . S
C3681 C175 1.494 1_565 S
C3717 C189 1.394 1_455 S
C3736 C1359 1.292 . S
C3753 C221 1.373 . S
C3772 C1341 1.340 . S
C3789 C235 1.190 1_565 S
C3808 C1217 1.240 . S
C3844 C1297 1.335 . S
C3825 C245 1.386 1_455 S
C3880 C1093 1.222 . S
C3861 C249 1.256 . S
C3916 C1155 1.389 . S
C3897 C217 1.459 . S
C3933 C231 1.295 . S
C3952 C1049 1.279 . S
