# Generated by pormake.
# Topology eea, (3,6)-cn, num edge types: 1
# Building blocks:
#     Node 0, Type 0, BuildingBlock: MIDCAF_clean_linker_0, # of connection points: 3
#     Node 1, Type 0, BuildingBlock: MIDCAF_clean_linker_0, # of connection points: 3
#     Node 2, Type 0, BuildingBlock: MIDCAF_clean_linker_0, # of connection points: 3
#     Node 3, Type 0, BuildingBlock: MIDCAF_clean_linker_0, # of connection points: 3
#     Node 4, Type 0, BuildingBlock: MIDCAF_clean_linker_0, # of connection points: 3
#     Node 5, Type 0, BuildingBlock: MIDCAF_clean_linker_0, # of connection points: 3
#     Node 6, Type 0, BuildingBlock: MIDCAF_clean_linker_0, # of connection points: 3
#     Node 7, Type 0, BuildingBlock: MIDCAF_clean_linker_0, # of connection points: 3
#     Node 8, Type 0, BuildingBlock: MIDCAF_clean_linker_0, # of connection points: 3
#     Node 9, Type 0, BuildingBlock: MIDCAF_clean_linker_0, # of connection points: 3
#     Node 10, Type 0, BuildingBlock: MIDCAF_clean_linker_0, # of connection points: 3
#     Node 11, Type 0, BuildingBlock: MIDCAF_clean_linker_0, # of connection points: 3
#     Node 12, Type 0, BuildingBlock: MIDCAF_clean_linker_0, # of connection points: 3
#     Node 13, Type 0, BuildingBlock: MIDCAF_clean_linker_0, # of connection points: 3
#     Node 14, Type 0, BuildingBlock: MIDCAF_clean_linker_0, # of connection points: 3
#     Node 15, Type 0, BuildingBlock: MIDCAF_clean_linker_0, # of connection points: 3
#     Node 16, Type 0, BuildingBlock: MIDCAF_clean_linker_0, # of connection points: 3
#     Node 17, Type 0, BuildingBlock: MIDCAF_clean_linker_0, # of connection points: 3
#     Node 18, Type 1, BuildingBlock: CUWYAW_clean_sbu_0, # of connection points: 6
#     Node 19, Type 1, BuildingBlock: CUWYAW_clean_sbu_0, # of connection points: 6
#     Node 20, Type 1, BuildingBlock: CUWYAW_clean_sbu_0, # of connection points: 6
#     Node 21, Type 1, BuildingBlock: CUWYAW_clean_sbu_0, # of connection points: 6
#     Node 22, Type 1, BuildingBlock: CUWYAW_clean_sbu_0, # of connection points: 6
#     Node 23, Type 1, BuildingBlock: CUWYAW_clean_sbu_0, # of connection points: 6
#     Node 24, Type 1, BuildingBlock: CUWYAW_clean_sbu_0, # of connection points: 6
#     Node 25, Type 1, BuildingBlock: CUWYAW_clean_sbu_0, # of connection points: 6
#     Node 26, Type 1, BuildingBlock: CUWYAW_clean_sbu_0, # of connection points: 6
#     Edge 27, Type (0, 1), BuildingBlock: AJUNOK_clean_linker_0, # of connection points: 2
#     Edge 28, Type (0, 1), BuildingBlock: AJUNOK_clean_linker_0, # of connection points: 2
#     Edge 29, Type (0, 1), BuildingBlock: AJUNOK_clean_linker_0, # of connection points: 2
#     Edge 30, Type (0, 1), BuildingBlock: AJUNOK_clean_linker_0, # of connection points: 2
#     Edge 31, Type (0, 1), BuildingBlock: AJUNOK_clean_linker_0, # of connection points: 2
#     Edge 32, Type (0, 1), BuildingBlock: AJUNOK_clean_linker_0, # of connection points: 2
#     Edge 33, Type (0, 1), BuildingBlock: AJUNOK_clean_linker_0, # of connection points: 2
#     Edge 34, Type (0, 1), BuildingBlock: AJUNOK_clean_linker_0, # of connection points: 2
#     Edge 35, Type (0, 1), BuildingBlock: AJUNOK_clean_linker_0, # of connection points: 2
#     Edge 36, Type (0, 1), BuildingBlock: AJUNOK_clean_linker_0, # of connection points: 2
#     Edge 37, Type (0, 1), BuildingBlock: AJUNOK_clean_linker_0, # of connection points: 2
#     Edge 38, Type (0, 1), BuildingBlock: AJUNOK_clean_linker_0, # of connection points: 2
#     Edge 39, Type (0, 1), BuildingBlock: AJUNOK_clean_linker_0, # of connection points: 2
#     Edge 40, Type (0, 1), BuildingBlock: AJUNOK_clean_linker_0, # of connection points: 2
#     Edge 41, Type (0, 1), BuildingBlock: AJUNOK_clean_linker_0, # of connection points: 2
#     Edge 42, Type (0, 1), BuildingBlock: AJUNOK_clean_linker_0, # of connection points: 2
#     Edge 43, Type (0, 1), BuildingBlock: AJUNOK_clean_linker_0, # of connection points: 2
#     Edge 44, Type (0, 1), BuildingBlock: AJUNOK_clean_linker_0, # of connection points: 2
#     Edge 45, Type (0, 1), BuildingBlock: AJUNOK_clean_linker_0, # of connection points: 2
#     Edge 46, Type (0, 1), BuildingBlock: AJUNOK_clean_linker_0, # of connection points: 2
#     Edge 47, Type (0, 1), BuildingBlock: AJUNOK_clean_linker_0, # of connection points: 2
#     Edge 48, Type (0, 1), BuildingBlock: AJUNOK_clean_linker_0, # of connection points: 2
#     Edge 49, Type (0, 1), BuildingBlock: AJUNOK_clean_linker_0, # of connection points: 2
#     Edge 50, Type (0, 1), BuildingBlock: AJUNOK_clean_linker_0, # of connection points: 2
#     Edge 51, Type (0, 1), BuildingBlock: AJUNOK_clean_linker_0, # of connection points: 2
#     Edge 52, Type (0, 1), BuildingBlock: AJUNOK_clean_linker_0, # of connection points: 2
#     Edge 53, Type (0, 1), BuildingBlock: AJUNOK_clean_linker_0, # of connection points: 2
#     Edge 54, Type (0, 1), BuildingBlock: AJUNOK_clean_linker_0, # of connection points: 2
#     Edge 55, Type (0, 1), BuildingBlock: AJUNOK_clean_linker_0, # of connection points: 2
#     Edge 56, Type (0, 1), BuildingBlock: AJUNOK_clean_linker_0, # of connection points: 2
#     Edge 57, Type (0, 1), BuildingBlock: AJUNOK_clean_linker_0, # of connection points: 2
#     Edge 58, Type (0, 1), BuildingBlock: AJUNOK_clean_linker_0, # of connection points: 2
#     Edge 59, Type (0, 1), BuildingBlock: AJUNOK_clean_linker_0, # of connection points: 2
#     Edge 60, Type (0, 1), BuildingBlock: AJUNOK_clean_linker_0, # of connection points: 2
#     Edge 61, Type (0, 1), BuildingBlock: AJUNOK_clean_linker_0, # of connection points: 2
#     Edge 62, Type (0, 1), BuildingBlock: AJUNOK_clean_linker_0, # of connection points: 2
#     Edge 63, Type (0, 1), BuildingBlock: AJUNOK_clean_linker_0, # of connection points: 2
#     Edge 64, Type (0, 1), BuildingBlock: AJUNOK_clean_linker_0, # of connection points: 2
#     Edge 65, Type (0, 1), BuildingBlock: AJUNOK_clean_linker_0, # of connection points: 2
#     Edge 66, Type (0, 1), BuildingBlock: AJUNOK_clean_linker_0, # of connection points: 2
#     Edge 67, Type (0, 1), BuildingBlock: AJUNOK_clean_linker_0, # of connection points: 2
#     Edge 68, Type (0, 1), BuildingBlock: AJUNOK_clean_linker_0, # of connection points: 2
#     Edge 69, Type (0, 1), BuildingBlock: AJUNOK_clean_linker_0, # of connection points: 2
#     Edge 70, Type (0, 1), BuildingBlock: AJUNOK_clean_linker_0, # of connection points: 2
#     Edge 71, Type (0, 1), BuildingBlock: AJUNOK_clean_linker_0, # of connection points: 2
#     Edge 72, Type (0, 1), BuildingBlock: AJUNOK_clean_linker_0, # of connection points: 2
#     Edge 73, Type (0, 1), BuildingBlock: AJUNOK_clean_linker_0, # of connection points: 2
#     Edge 74, Type (0, 1), BuildingBlock: AJUNOK_clean_linker_0, # of connection points: 2
#     Edge 75, Type (0, 1), BuildingBlock: AJUNOK_clean_linker_0, # of connection points: 2
#     Edge 76, Type (0, 1), BuildingBlock: AJUNOK_clean_linker_0, # of connection points: 2
#     Edge 77, Type (0, 1), BuildingBlock: AJUNOK_clean_linker_0, # of connection points: 2
#     Edge 78, Type (0, 1), BuildingBlock: AJUNOK_clean_linker_0, # of connection points: 2
#     Edge 79, Type (0, 1), BuildingBlock: AJUNOK_clean_linker_0, # of connection points: 2
#     Edge 80, Type (0, 1), BuildingBlock: AJUNOK_clean_linker_0, # of connection points: 2
# Relax obj value: 0.035
# Max RMSD: 0.132
# Mean RMSD: 0.088
data_MOF--net-eea--node1-CUWYAW_clean_sbu_0--node2-MIDCAF_clean_linker_0--edge1-AJUNOK_clean_linker_0
_symmetry_space_group_name_H-M    P1
_symmetry_Int_Tables_number       1
_symmetry_cell_setting            triclinic
loop_
_symmetry_equiv_pos_as_xyz
'x, y, z'
_cell_length_a     48.485
_cell_length_b     48.208643
_cell_length_c     74.345858
_cell_angle_alpha  93.383767
_cell_angle_beta   93.125758
_cell_angle_gamma 119.88813
loop_
_atom_site_label
_atom_site_type_symbol
_atom_site_fract_x
_atom_site_fract_y
_atom_site_fract_z
_atom_type_partial_charge
C0 C 0.22652 0.02315 0.39584 0.0
C1 C 0.21096 0.01498 0.37826 0.0
C2 C 0.20366 0.03656 0.37036 0.0
C3 C 0.21127 0.0656 0.37998 0.0
H4 H 0.19449 0.13866 0.37802 0.0
H5 H 0.17914 0.17326 0.36337 0.0
H6 H 0.22784 0.24681 0.40808 0.0
H7 H 0.24349 0.21198 0.42308 0.0
H8 H 0.25869 0.18583 0.46117 0.0
H9 H 0.27334 0.19139 0.49381 0.0
H10 H 0.27355 0.10192 0.48821 0.0
H11 H 0.25892 0.09602 0.45593 0.0
H12 H 0.24553 0.05751 0.41918 0.0
H13 H 0.23206 0.00669 0.40227 0.0
H14 H 0.19179 0.03081 0.35677 0.0
H15 H 0.20487 0.08146 0.37354 0.0
N16 N 0.2252 0.12422 0.40071 0.0
N17 N 0.24019 0.15653 0.42835 0.0
N18 N 0.24297 0.10922 0.42617 0.0
C19 C 0.22922 0.15088 0.4105 0.0
C20 C 0.24711 0.13567 0.43626 0.0
C21 C 0.23212 0.10334 0.40839 0.0
C22 C 0.22023 0.17249 0.40178 0.0
C23 C 0.20204 0.16215 0.38485 0.0
C24 C 0.19298 0.18184 0.37647 0.0
C25 C 0.20198 0.21242 0.38474 0.0
C26 C 0.22052 0.22318 0.40153 0.0
C27 C 0.22936 0.20324 0.41008 0.0
C28 C 0.25737 0.14037 0.45589 0.0
C29 C 0.26186 0.16735 0.4669 0.0
C30 C 0.27023 0.17057 0.48555 0.0
C31 C 0.27389 0.14674 0.49348 0.0
C32 C 0.27007 0.12022 0.48246 0.0
C33 C 0.26192 0.11704 0.46391 0.0
C34 C 0.22614 0.07357 0.39777 0.0
C35 C 0.23404 0.05217 0.40552 0.0
C36 C 0.99492 0.22495 0.40711 0.0
C37 C 0.997 0.22009 0.3885 0.0
C38 C 0.97101 0.19408 0.37805 0.0
C39 C 0.94393 0.17275 0.3861 0.0
H40 H 0.86792 0.08221 0.37597 0.0
H41 H 0.83025 0.03091 0.35882 0.0
H42 H 0.77426 0.00164 0.40445 0.0
H43 H 0.81153 0.05297 0.42164 0.0
H44 H 0.84313 0.08998 0.45908 0.0
H45 H 0.83312 0.09686 0.49014 0.0
H46 H 0.90481 0.19751 0.49375 0.0
H47 H 0.91556 0.1906 0.46245 0.0
H48 H 0.96712 0.20781 0.42959 0.0
H49 H 0.01443 0.24515 0.41544 0.0
H50 H 0.97197 0.18972 0.3637 0.0
H51 H 0.92463 0.15266 0.3776 0.0
N52 N 0.89188 0.12521 0.40347 0.0
N53 N 0.86307 0.10768 0.42863 0.0
N54 N 0.91019 0.15794 0.43111 0.0
C55 C 0.86638 0.10244 0.41098 0.0
C56 C 0.8847 0.13524 0.43882 0.0
C57 C 0.91389 0.15302 0.41336 0.0
C58 C 0.84287 0.07181 0.40024 0.0
C59 C 0.84748 0.06502 0.38235 0.0
C60 C 0.82598 0.03561 0.37252 0.0
C61 C 0.79928 0.01245 0.38029 0.0
C62 C 0.79436 0.0193 0.39804 0.0
C63 C 0.8159 0.04866 0.40791 0.0
C64 C 0.88006 0.13981 0.45814 0.0
C65 C 0.85697 0.11366 0.4664 0.0
C66 C 0.85113 0.11756 0.48425 0.0
C67 C 0.86809 0.14771 0.49439 0.0
C68 C 0.89165 0.17387 0.48635 0.0
C69 C 0.89767 0.16993 0.46839 0.0
C70 C 0.94206 0.17699 0.40481 0.0
C71 C 0.96773 0.20365 0.41519 0.0
C72 C 0.80742 0.79165 0.40993 0.0
C73 C 0.8002 0.78469 0.39105 0.0
C74 C 0.81458 0.76998 0.3815 0.0
C75 C 0.83673 0.76378 0.39046 0.0
H76 H 0.91448 0.74565 0.38282 0.0
H77 H 0.9594 0.7548 0.36586 0.0
H78 H 0.02369 0.79957 0.41467 0.0
H79 H 0.97827 0.78835 0.43185 0.0
H80 H 0.92782 0.74114 0.46697 0.0
H81 H 0.92007 0.72501 0.49772 0.0
H82 H 0.83681 0.73569 0.49729 0.0
H83 H 0.84468 0.75238 0.46692 0.0
H84 H 0.83445 0.79085 0.43346 0.0
H85 H 0.79686 0.80304 0.4177 0.0
H86 H 0.80869 0.76315 0.36707 0.0
H87 H 0.84774 0.75287 0.38268 0.0
N88 N 0.89273 0.76689 0.40975 0.0
N89 N 0.91443 0.75771 0.43624 0.0
N90 N 0.86728 0.76018 0.43635 0.0
C91 C 0.91589 0.76322 0.41846 0.0
C92 C 0.88987 0.7558 0.44523 0.0
C93 C 0.86853 0.7657 0.41865 0.0
C94 C 0.94292 0.76649 0.40863 0.0
C95 C 0.93821 0.7572 0.38994 0.0
C96 C 0.96404 0.76282 0.38018 0.0
C97 C 0.99538 0.77884 0.38875 0.0
C98 C 0.99992 0.78719 0.4076 0.0
C99 C 0.97392 0.78082 0.41746 0.0
C100 C 0.88677 0.74788 0.46432 0.0
C101 C 0.90798 0.74028 0.47346 0.0
C102 C 0.90344 0.7308 0.49103 0.0
C103 C 0.87759 0.7287 0.49982 0.0
C104 C 0.85699 0.73718 0.4909 0.0
C105 C 0.86149 0.74661 0.4734 0.0
C106 C 0.84428 0.77124 0.40927 0.0
C107 C 0.82902 0.78475 0.41896 0.0
C108 C 0.00338 0.20814 0.59591 0.0
C109 C 0.00692 0.21792 0.61455 0.0
C110 C 0.03797 0.23576 0.62346 0.0
C111 C 0.06453 0.2416 0.61439 0.0
H112 H 0.13723 0.21831 0.62415 0.0
H113 H 0.1758 0.20837 0.6407 0.0
H114 H 0.22984 0.22695 0.59422 0.0
H115 H 0.19122 0.23645 0.57748 0.0
H116 H 0.16901 0.25286 0.5432 0.0
H117 H 0.18191 0.2727 0.5138 0.0
H118 H 0.09713 0.28061 0.50868 0.0
H119 H 0.08371 0.26045 0.53839 0.0
H120 H 0.02673 0.20617 0.57249 0.0
H121 H 0.97985 0.19448 0.58858 0.0
H122 H 0.04183 0.245 0.63755 0.0
H123 H 0.08802 0.25451 0.62182 0.0
N124 N 0.11118 0.23045 0.59674 0.0
N125 N 0.14101 0.241 0.5718 0.0
N126 N 0.09296 0.24188 0.56973 0.0
C127 C 0.13718 0.23341 0.58911 0.0
C128 C 0.11926 0.24542 0.562 0.0
C129 C 0.08896 0.2345 0.58717 0.0
C130 C 0.16103 0.22821 0.59944 0.0
C131 C 0.15738 0.22043 0.61744 0.0
C132 C 0.17958 0.21494 0.62699 0.0
C133 C 0.20595 0.21717 0.61879 0.0
C134 C 0.20967 0.22499 0.60085 0.0
C135 C 0.18754 0.23052 0.5913 0.0
C136 C 0.12541 0.25534 0.54338 0.0
C137 C 0.15288 0.25867 0.53592 0.0
C138 C 0.16045 0.27019 0.51906 0.0
C139 C 0.14085 0.27874 0.50915 0.0
C140 C 0.11272 0.27432 0.51614 0.0
C141 C 0.10511 0.26283 0.53314 0.0
C142 C 0.06088 0.23081 0.596 0.0
C143 C 0.03017 0.21479 0.58668 0.0
C144 C 0.78269 0.78059 0.60999 0.0
C145 C 0.79971 0.79111 0.62723 0.0
C146 C 0.80568 0.82034 0.63604 0.0
C147 C 0.7955 0.83918 0.62767 0.0
H148 H 0.79699 0.92189 0.63698 0.0
H149 H 0.81166 0.97349 0.65309 0.0
H150 H 0.77113 0.99679 0.60733 0.0
H151 H 0.75601 0.94496 0.59108 0.0
H152 H 0.73787 0.9022 0.55487 0.0
H153 H 0.71862 0.89231 0.52305 0.0
H154 H 0.7113 0.79915 0.52057 0.0
H155 H 0.73146 0.80922 0.55255 0.0
H156 H 0.75991 0.79117 0.58808 0.0
H157 H 0.77769 0.75796 0.60302 0.0
H158 H 0.81819 0.82861 0.64951 0.0
H159 H 0.80085 0.86172 0.6349 0.0
N160 N 0.77514 0.87803 0.61051 0.0
N161 N 0.75503 0.89105 0.58512 0.0
N162 N 0.75668 0.84312 0.58377 0.0
C163 C 0.76788 0.89849 0.60259 0.0
C164 C 0.74929 0.86345 0.57561 0.0
C165 C 0.76962 0.85033 0.60129 0.0
C166 C 0.77535 0.92922 0.61268 0.0
C167 C 0.79093 0.9378 0.63032 0.0
C168 C 0.79946 0.96739 0.63957 0.0
C169 C 0.79244 0.98896 0.63144 0.0
C170 C 0.77643 0.98033 0.61396 0.0
C171 C 0.76796 0.95073 0.60465 0.0
C172 C 0.73637 0.85655 0.55633 0.0
C173 C 0.73218 0.87952 0.54766 0.0
C174 C 0.72103 0.87386 0.52939 0.0
C175 C 0.71366 0.84507 0.51932 0.0
C176 C 0.71736 0.82181 0.52795 0.0
C177 C 0.72871 0.82753 0.54629 0.0
C178 C 0.77909 0.82925 0.61021 0.0
C179 C 0.7726 0.79961 0.60149 0.0
C180 C 0.20096 0.99253 0.60754 0.0
C181 C 0.20547 0.99481 0.62646 0.0
C182 C 0.18892 0.96714 0.63546 0.0
C183 C 0.16755 0.9376 0.62566 0.0
H184 H 0.09262 0.83717 0.6289 0.0
H185 H 0.04664 0.79901 0.6436 0.0
H186 H 0.98594 0.77823 0.59402 0.0
H187 H 0.03237 0.81445 0.57907 0.0
H188 H 0.09483 0.81464 0.54618 0.0
H189 H 0.10635 0.80707 0.5152 0.0
H190 H 0.16919 0.90957 0.51602 0.0
H191 H 0.15854 0.91711 0.54692 0.0
H192 H 0.17694 0.96195 0.5831 0.0
H193 H 0.21358 0.01367 0.60039 0.0
H194 H 0.19209 0.96854 0.65009 0.0
H195 H 0.15479 0.91667 0.63295 0.0
N196 N 0.11549 0.88073 0.60409 0.0
N197 N 0.09664 0.8482 0.57634 0.0
N198 N 0.14259 0.89928 0.57839 0.0
C199 C 0.09364 0.85282 0.59422 0.0
C200 C 0.12135 0.87135 0.56838 0.0
C201 C 0.13992 0.90417 0.5962 0.0
C202 C 0.06609 0.82849 0.6028 0.0
C203 C 0.06948 0.82397 0.62111 0.0
C204 C 0.04308 0.80225 0.62954 0.0
C205 C 0.01249 0.7851 0.61999 0.0
C206 C 0.00919 0.78995 0.60167 0.0
C207 C 0.03577 0.81097 0.5931 0.0
C208 C 0.12588 0.86645 0.5491 0.0
C209 C 0.11086 0.83556 0.53967 0.0
C210 C 0.11735 0.83123 0.5219 0.0
C211 C 0.13869 0.85775 0.51316 0.0
C212 C 0.15298 0.88862 0.52245 0.0
C213 C 0.14674 0.89292 0.54018 0.0
C214 C 0.16289 0.9352 0.60667 0.0
C215 C 0.18008 0.96293 0.59771 0.0
C216 C 0.8961 0.34925 0.72835 0.0
C217 C 0.88069 0.3409 0.71072 0.0
C218 C 0.87348 0.36238 0.70263 0.0
C219 C 0.88125 0.39162 0.71204 0.0
H220 H 0.87269 0.46897 0.70721 0.0
H221 H 0.85888 0.50428 0.69206 0.0
H222 H 0.89898 0.57379 0.73909 0.0
H223 H 0.91321 0.53847 0.75449 0.0
H224 H 0.93444 0.51703 0.79097 0.0
H225 H 0.95078 0.52526 0.82347 0.0
H226 H 0.94499 0.43282 0.82068 0.0
H227 H 0.92854 0.42425 0.78844 0.0
H228 H 0.91526 0.38405 0.75151 0.0
H229 H 0.90153 0.33285 0.73493 0.0
H230 H 0.86171 0.35647 0.689 0.0
H231 H 0.87506 0.40746 0.70541 0.0
N232 N 0.89685 0.45134 0.73195 0.0
N233 N 0.91305 0.48502 0.7591 0.0
N234 N 0.91399 0.43674 0.75785 0.0
C235 C 0.90189 0.47878 0.74129 0.0
C236 C 0.91916 0.46404 0.76747 0.0
C237 C 0.90291 0.43025 0.74008 0.0
C238 C 0.89412 0.50084 0.73211 0.0
C239 C 0.87877 0.49178 0.71441 0.0
C240 C 0.87067 0.51191 0.70571 0.0
C241 C 0.87791 0.54167 0.71442 0.0
C242 C 0.89344 0.55103 0.73205 0.0
C243 C 0.90142 0.53074 0.74086 0.0
C244 C 0.93013 0.46996 0.78704 0.0
C245 C 0.93675 0.49849 0.79725 0.0
C246 C 0.94622 0.50331 0.81583 0.0
C247 C 0.94912 0.47966 0.82449 0.0
C248 C 0.94268 0.45131 0.81431 0.0
C249 C 0.9334 0.44653 0.7958 0.0
C250 C 0.89619 0.3999 0.72983 0.0
C251 C 0.90376 0.37848 0.73784 0.0
C252 C 0.67053 0.54788 0.74068 0.0
C253 C 0.66764 0.5518 0.72217 0.0
C254 C 0.63694 0.53636 0.71278 0.0
C255 C 0.61014 0.51591 0.7213 0.0
H256 H 0.53885 0.41684 0.71012 0.0
H257 H 0.50101 0.3655 0.69298 0.0
H258 H 0.44314 0.33805 0.7379 0.0
H259 H 0.48048 0.38932 0.75502 0.0
H260 H 0.50422 0.42891 0.79059 0.0
H261 H 0.49329 0.43593 0.82137 0.0
H262 H 0.58074 0.5276 0.83007 0.0
H263 H 0.59227 0.52062 0.79892 0.0
H264 H 0.64651 0.52471 0.76348 0.0
H265 H 0.69379 0.55946 0.74835 0.0
H266 H 0.63355 0.53988 0.69876 0.0
H267 H 0.58695 0.50371 0.71353 0.0
N268 N 0.56257 0.46022 0.73766 0.0
N269 N 0.53291 0.4427 0.7625 0.0
N270 N 0.5811 0.49201 0.76568 0.0
C271 C 0.53655 0.43764 0.7449 0.0
C272 C 0.55481 0.46968 0.77301 0.0
C273 C 0.58492 0.48739 0.74792 0.0
C274 C 0.51283 0.4073 0.73399 0.0
C275 C 0.51793 0.40005 0.71631 0.0
C276 C 0.49634 0.37062 0.7065 0.0
C277 C 0.4691 0.34795 0.71409 0.0
C278 C 0.46367 0.35533 0.73161 0.0
C279 C 0.48526 0.38467 0.74145 0.0
C280 C 0.54919 0.47426 0.79214 0.0
C281 C 0.52138 0.45063 0.79893 0.0
C282 C 0.51494 0.45464 0.81662 0.0
C283 C 0.53609 0.4823 0.82809 0.0
C284 C 0.56416 0.50589 0.82153 0.0
C285 C 0.57066 0.50192 0.80368 0.0
C286 C 0.61317 0.5112 0.7396 0.0
C287 C 0.6435 0.52798 0.74936 0.0
C288 C 0.47596 0.12573 0.74361 0.0
C289 C 0.46929 0.12015 0.72467 0.0
C290 C 0.48431 0.1066 0.71471 0.0
C291 C 0.50634 0.09994 0.72339 0.0
H292 H 0.60171 0.12105 0.71962 0.0
H293 H 0.64865 0.1306 0.70481 0.0
H294 H 0.67426 0.08658 0.74651 0.0
H295 H 0.62763 0.07787 0.76183 0.0
H296 H 0.59098 0.06822 0.79967 0.0
H297 H 0.58159 0.05149 0.83028 0.0
H298 H 0.49617 0.05853 0.82748 0.0
H299 H 0.50559 0.07572 0.79734 0.0
H300 H 0.50219 0.12306 0.76693 0.0
H301 H 0.46495 0.13626 0.75169 0.0
H302 H 0.47886 0.10084 0.7002 0.0
H303 H 0.51768 0.08972 0.71534 0.0
N304 N 0.56121 0.10079 0.74298 0.0
N305 N 0.57911 0.08576 0.76863 0.0
N306 N 0.53289 0.08994 0.76859 0.0
C307 C 0.58291 0.09467 0.75144 0.0
C308 C 0.55398 0.08327 0.77727 0.0
C309 C 0.53623 0.09853 0.75148 0.0
C310 C 0.61089 0.09888 0.74207 0.0
C311 C 0.61721 0.11328 0.72571 0.0
C312 C 0.64412 0.11868 0.71711 0.0
C313 C 0.66542 0.10972 0.72456 0.0
C314 C 0.65873 0.0945 0.74065 0.0
C315 C 0.63187 0.08932 0.74937 0.0
C316 C 0.54906 0.07331 0.79593 0.0
C317 C 0.57023 0.06624 0.80559 0.0
C318 C 0.56477 0.05647 0.82308 0.0
C319 C 0.53802 0.05351 0.83123 0.0
C320 C 0.51711 0.06081 0.82163 0.0
C321 C 0.52252 0.07056 0.80425 0.0
C322 C 0.51305 0.10569 0.74228 0.0
C323 C 0.49739 0.11829 0.75233 0.0
C324 C 0.67334 0.55704 0.93046 0.0
C325 C 0.67273 0.55344 0.94909 0.0
C326 C 0.69983 0.55641 0.95885 0.0
C327 C 0.72652 0.56159 0.95004 0.0
H328 H 0.82335 0.57744 0.95752 0.0
H329 H 0.86372 0.56846 0.97278 0.0
H330 H 0.86909 0.52154 0.9228 0.0
H331 H 0.83061 0.53273 0.90736 0.0
H332 H 0.82183 0.57003 0.87293 0.0
H333 H 0.83285 0.58835 0.84304 0.0
H334 H 0.76306 0.61886 0.84496 0.0
H335 H 0.75143 0.6 0.875 0.0
H336 H 0.69955 0.56443 0.90721 0.0
H337 H 0.65291 0.55532 0.92266 0.0
H338 H 0.69999 0.55371 0.97321 0.0
H339 H 0.74669 0.56304 0.95797 0.0
N340 N 0.77628 0.56165 0.93053 0.0
N341 N 0.80283 0.56889 0.90432 0.0
N342 N 0.7571 0.57392 0.90422 0.0
C343 C 0.80048 0.56237 0.92183 0.0
C344 C 0.7815 0.575 0.89542 0.0
C345 C 0.75428 0.56708 0.9218 0.0
C346 C 0.82409 0.55601 0.93125 0.0
C347 C 0.83339 0.56541 0.94982 0.0
C348 C 0.85645 0.56016 0.95855 0.0
C349 C 0.87018 0.54475 0.94898 0.0
C350 C 0.8601 0.5346 0.93047 0.0
C351 C 0.83773 0.54066 0.92165 0.0
C352 C 0.78587 0.58374 0.87652 0.0
C353 C 0.80853 0.58038 0.86702 0.0
C354 C 0.81494 0.59092 0.84985 0.0
C355 C 0.79891 0.60511 0.84167 0.0
C356 C 0.77551 0.60763 0.85084 0.0
C357 C 0.76897 0.59696 0.86808 0.0
C358 C 0.72686 0.5642 0.93128 0.0
C359 C 0.70015 0.56245 0.92165 0.0
C360 C 0.45301 0.11706 0.9453 0.0
C361 C 0.46916 0.12684 0.96279 0.0
C362 C 0.47753 0.15721 0.97111 0.0
C363 C 0.46986 0.17746 0.96221 0.0
H364 H 0.47461 0.26256 0.97075 0.0
H365 H 0.48688 0.31323 0.98719 0.0
H366 H 0.4444 0.33486 0.9416 0.0
H367 H 0.43176 0.28404 0.92503 0.0
H368 H 0.42046 0.24464 0.88792 0.0
H369 H 0.40208 0.23517 0.85592 0.0
H370 H 0.39113 0.14054 0.85386 0.0
H371 H 0.40947 0.14972 0.88616 0.0
H372 H 0.43311 0.12936 0.92279 0.0
H373 H 0.44661 0.09383 0.93854 0.0
H374 H 0.48984 0.16521 0.98463 0.0
H375 H 0.47676 0.20072 0.96913 0.0
N376 N 0.45161 0.21772 0.94455 0.0
N377 N 0.43385 0.23183 0.91868 0.0
N378 N 0.43442 0.18335 0.91761 0.0
C379 C 0.44546 0.23872 0.93637 0.0
C380 C 0.42825 0.20427 0.90918 0.0
C381 C 0.44615 0.19 0.93535 0.0
C382 C 0.45217 0.26915 0.94653 0.0
C383 C 0.46767 0.27794 0.9642 0.0
C384 C 0.47482 0.30699 0.97363 0.0
C385 C 0.46643 0.32776 0.96567 0.0
C386 C 0.45072 0.319 0.94811 0.0
C387 C 0.44368 0.28999 0.93861 0.0
C388 C 0.41646 0.19792 0.8897 0.0
C389 C 0.41409 0.2217 0.88078 0.0
C390 C 0.40369 0.2164 0.86239 0.0
C391 C 0.39519 0.18716 0.85248 0.0
C392 C 0.39729 0.1632 0.86129 0.0
C393 C 0.40791 0.16855 0.87974 0.0
C394 C 0.45378 0.16793 0.94467 0.0
C395 C 0.44546 0.13748 0.93628 0.0
C396 C 0.87827 0.31473 0.94385 0.0
C397 C 0.87165 0.32193 0.9611 0.0
C398 C 0.8438 0.29923 0.96816 0.0
C399 C 0.82285 0.26988 0.95815 0.0
H400 H 0.74103 0.18877 0.96071 0.0
H401 H 0.69455 0.15111 0.97475 0.0
H402 H 0.66234 0.08452 0.92656 0.0
H403 H 0.70906 0.12265 0.9121 0.0
H404 H 0.74735 0.15916 0.87385 0.0
H405 H 0.7586 0.1547 0.84241 0.0
H406 H 0.85923 0.21907 0.85804 0.0
H407 H 0.84801 0.22441 0.88908 0.0
H408 H 0.86296 0.28072 0.92047 0.0
H409 H 0.89935 0.33206 0.93799 0.0
H410 H 0.83824 0.30419 0.98147 0.0
H411 H 0.80152 0.25303 0.96401 0.0
N412 N 0.77952 0.21009 0.93685 0.0
N413 N 0.76328 0.17619 0.90972 0.0
N414 N 0.81156 0.2256 0.91287 0.0
C415 C 0.75789 0.18216 0.92696 0.0
C416 C 0.79027 0.19791 0.90266 0.0
C417 C 0.80634 0.23194 0.92995 0.0
C418 C 0.72904 0.15878 0.93523 0.0
C419 C 0.72426 0.16613 0.95299 0.0
C420 C 0.69768 0.14441 0.96117 0.0
C421 C 0.67518 0.11465 0.95189 0.0
C422 C 0.67948 0.10729 0.93404 0.0
C423 C 0.70624 0.12911 0.9258 0.0
C424 C 0.79674 0.19231 0.88394 0.0
C425 C 0.77188 0.17205 0.87056 0.0
C426 C 0.77834 0.1694 0.85258 0.0
C427 C 0.80984 0.18656 0.84773 0.0
C428 C 0.83468 0.20592 0.86127 0.0
C429 C 0.82822 0.20888 0.8791 0.0
C430 C 0.82921 0.26266 0.94079 0.0
C431 C 0.85728 0.28538 0.9338 0.0
C432 C 0.55456 0.68036 0.05971 0.0
C433 C 0.53935 0.67289 0.04208 0.0
C434 C 0.53334 0.69531 0.0342 0.0
C435 C 0.54153 0.7244 0.04398 0.0
H436 H 0.56935 0.82377 0.03975 0.0
H437 H 0.55635 0.85963 0.02417 0.0
H438 H 0.52847 0.88537 0.07369 0.0
H439 H 0.54213 0.84992 0.08957 0.0
H440 H 0.59087 0.84418 0.12534 0.0
H441 H 0.60604 0.85028 0.15789 0.0
H442 H 0.5937 0.75502 0.15388 0.0
H443 H 0.57832 0.74855 0.12158 0.0
H444 H 0.57363 0.71416 0.08332 0.0
H445 H 0.55946 0.66336 0.06601 0.0
H446 H 0.52203 0.69018 0.02049 0.0
H447 H 0.53603 0.74091 0.03758 0.0
N448 N 0.55815 0.78389 0.06481 0.0
N449 N 0.5702 0.81424 0.09293 0.0
N450 N 0.57028 0.76551 0.09083 0.0
C451 C 0.56219 0.81038 0.07478 0.0
C452 C 0.57449 0.79191 0.10103 0.0
C453 C 0.56207 0.76129 0.07273 0.0
C454 C 0.55664 0.83398 0.06586 0.0
C455 C 0.56074 0.83727 0.04738 0.0
C456 C 0.55344 0.85782 0.03848 0.0
C457 C 0.54137 0.87495 0.04779 0.0
C458 C 0.53772 0.87222 0.06631 0.0
C459 C 0.54565 0.8521 0.07535 0.0
C460 C 0.58329 0.79584 0.1208 0.0
C461 C 0.59117 0.82443 0.1314 0.0
C462 C 0.59991 0.82801 0.15001 0.0
C463 C 0.60058 0.80295 0.15836 0.0
C464 C 0.5927 0.77444 0.14782 0.0
C465 C 0.58415 0.7709 0.12926 0.0
C466 C 0.55574 0.73155 0.06191 0.0
C467 C 0.56254 0.70937 0.06959 0.0
C468 C 0.32699 0.88988 0.07217 0.0
C469 C 0.33008 0.88367 0.0539 0.0
C470 C 0.3049 0.85664 0.04363 0.0
C471 C 0.27766 0.83555 0.05161 0.0
H472 H 0.20209 0.74544 0.04202 0.0
H473 H 0.16447 0.69405 0.02498 0.0
H474 H 0.10756 0.6657 0.07026 0.0
H475 H 0.14493 0.71709 0.08744 0.0
H476 H 0.1882 0.75316 0.12699 0.0
H477 H 0.17834 0.76027 0.15827 0.0
H478 H 0.22922 0.86317 0.15681 0.0
H479 H 0.23968 0.85627 0.12538 0.0
H480 H 0.29832 0.87393 0.09438 0.0
H481 H 0.34584 0.91093 0.0803 0.0
H482 H 0.30668 0.85126 0.02953 0.0
H483 H 0.25905 0.81459 0.04331 0.0
N484 N 0.22506 0.78908 0.06902 0.0
N485 N 0.19705 0.77148 0.09446 0.0
N486 N 0.2435 0.82225 0.09646 0.0
C487 C 0.20001 0.76619 0.07676 0.0
C488 C 0.21857 0.79937 0.1044 0.0
C489 C 0.24692 0.81715 0.07871 0.0
C490 C 0.17663 0.73545 0.06614 0.0
C491 C 0.1815 0.72843 0.04836 0.0
C492 C 0.16004 0.699 0.03859 0.0
C493 C 0.13314 0.67613 0.04631 0.0
C494 C 0.12793 0.68318 0.06394 0.0
C495 C 0.14948 0.71254 0.07379 0.0
C496 C 0.21463 0.80419 0.1237 0.0
C497 C 0.19756 0.77736 0.13334 0.0
C498 C 0.19207 0.78136 0.15127 0.0
C499 C 0.20318 0.81223 0.15986 0.0
C500 C 0.22055 0.83915 0.15039 0.0
C501 C 0.22657 0.83518 0.13249 0.0
C502 C 0.27489 0.84105 0.07006 0.0
C503 C 0.29968 0.86878 0.08018 0.0
C504 C 0.1389 0.45479 0.07734 0.0
C505 C 0.13123 0.44805 0.05849 0.0
C506 C 0.14707 0.43556 0.04843 0.0
C507 C 0.16995 0.42992 0.05701 0.0
H508 H 0.2541 0.42802 0.04872 0.0
H509 H 0.30127 0.4395 0.03328 0.0
H510 H 0.35282 0.44781 0.08434 0.0
H511 H 0.30562 0.43628 0.09995 0.0
H512 H 0.25762 0.40214 0.13349 0.0
H513 H 0.24893 0.38602 0.16426 0.0
H514 H 0.16507 0.39578 0.16245 0.0
H515 H 0.17383 0.41239 0.13217 0.0
H516 H 0.16653 0.4539 0.10051 0.0
H517 H 0.12811 0.46551 0.08546 0.0
H518 H 0.14164 0.42994 0.0339 0.0
H519 H 0.18171 0.42027 0.04891 0.0
N520 N 0.2257 0.43194 0.07644 0.0
N521 N 0.24552 0.41991 0.1026 0.0
N522 N 0.19858 0.42271 0.10249 0.0
C523 C 0.24824 0.42722 0.0851 0.0
C524 C 0.2205 0.41738 0.11134 0.0
C525 C 0.20093 0.4299 0.0851 0.0
C526 C 0.2761 0.43147 0.07563 0.0
C527 C 0.27538 0.43209 0.0567 0.0
C528 C 0.30232 0.43851 0.04781 0.0
C529 C 0.3307 0.44485 0.05765 0.0
C530 C 0.33128 0.44338 0.07648 0.0
C531 C 0.3042 0.43659 0.08539 0.0
C532 C 0.21641 0.40849 0.13023 0.0
C533 C 0.23741 0.40098 0.13968 0.0
C534 C 0.23234 0.39153 0.15725 0.0
C535 C 0.20616 0.3894 0.1657 0.0
C536 C 0.18555 0.39738 0.15636 0.0
C537 C 0.19057 0.40678 0.1389 0.0
C538 C 0.17704 0.43609 0.07588 0.0
C539 C 0.16119 0.44844 0.08596 0.0
C540 C 0.33982 0.89272 0.26422 0.0
C541 C 0.33875 0.88842 0.28277 0.0
C542 C 0.3656 0.89092 0.29256 0.0
C543 C 0.39247 0.89638 0.28387 0.0
H544 H 0.48806 0.91216 0.29238 0.0
H545 H 0.527 0.90206 0.30829 0.0
H546 H 0.53756 0.85959 0.25818 0.0
H547 H 0.5003 0.87185 0.2421 0.0
H548 H 0.49513 0.91427 0.20908 0.0
H549 H 0.5048 0.93048 0.17874 0.0
H550 H 0.42318 0.944 0.17643 0.0
H551 H 0.41361 0.92829 0.20722 0.0
H552 H 0.36658 0.90093 0.24114 0.0
H553 H 0.31963 0.89146 0.2564 0.0
H554 H 0.36546 0.8877 0.30686 0.0
H555 H 0.41244 0.89749 0.29184 0.0
N556 N 0.44307 0.89789 0.26477 0.0
N557 N 0.47048 0.90583 0.23888 0.0
N558 N 0.4242 0.90996 0.23829 0.0
C559 C 0.46772 0.8991 0.25635 0.0
C560 C 0.44909 0.9116 0.22974 0.0
C561 C 0.42103 0.90302 0.25585 0.0
C562 C 0.49108 0.89268 0.26603 0.0
C563 C 0.49872 0.90065 0.2848 0.0
C564 C 0.52081 0.89453 0.29394 0.0
C565 C 0.53495 0.87932 0.28461 0.0
C566 C 0.52729 0.87148 0.26579 0.0
C567 C 0.50585 0.87838 0.25658 0.0
C568 C 0.45363 0.9201 0.21077 0.0
C569 C 0.47907 0.92062 0.20222 0.0
C570 C 0.4846 0.92977 0.18472 0.0
C571 C 0.46492 0.93873 0.17521 0.0
C572 C 0.4391 0.93773 0.18353 0.0
C573 C 0.4335 0.92852 0.20114 0.0
C574 C 0.39329 0.89971 0.26517 0.0
C575 C 0.36681 0.89836 0.25551 0.0
C576 C 0.11295 0.45323 0.27741 0.0
C577 C 0.12992 0.46336 0.29467 0.0
C578 C 0.13776 0.49346 0.30317 0.0
C579 C 0.12855 0.51301 0.2947 0.0
H580 H 0.13493 0.60012 0.3023 0.0
H581 H 0.14704 0.65105 0.31828 0.0
H582 H 0.08341 0.65921 0.27878 0.0
H583 H 0.07212 0.60879 0.26235 0.0
H584 H 0.06076 0.57134 0.22387 0.0
H585 H 0.04444 0.56385 0.19168 0.0
H586 H 0.05807 0.48203 0.18558 0.0
H587 H 0.07426 0.48914 0.21805 0.0
H588 H 0.09076 0.46449 0.25553 0.0
H589 H 0.10694 0.43022 0.27051 0.0
H590 H 0.15071 0.50174 0.31652 0.0
H591 H 0.13497 0.53604 0.30175 0.0
N592 N 0.10568 0.5509 0.27825 0.0
N593 N 0.08489 0.56363 0.25299 0.0
N594 N 0.08937 0.5173 0.25102 0.0
C595 C 0.09722 0.57072 0.27055 0.0
C596 C 0.08092 0.53707 0.24309 0.0
C597 C 0.10171 0.52407 0.26866 0.0
C598 C 0.1028 0.60052 0.28093 0.0
C599 C 0.12339 0.61266 0.29703 0.0
C600 C 0.13027 0.64181 0.30624 0.0
C601 C 0.11654 0.65936 0.29964 0.0
C602 C 0.09504 0.64666 0.28392 0.0
C603 C 0.08843 0.61768 0.27458 0.0
C604 C 0.06902 0.53093 0.22363 0.0
C605 C 0.06017 0.55157 0.2158 0.0
C606 C 0.05089 0.5474 0.19731 0.0
C607 C 0.05009 0.52245 0.18616 0.0
C608 C 0.05819 0.50128 0.19393 0.0
C609 C 0.06757 0.50547 0.21251 0.0
C610 C 0.11145 0.50302 0.27743 0.0
C611 C 0.10386 0.47294 0.26883 0.0
C612 C 0.54615 0.64688 0.27918 0.0
C613 C 0.54015 0.65324 0.29675 0.0
C614 C 0.51282 0.62986 0.30396 0.0
C615 C 0.4916 0.60082 0.29368 0.0
H616 H 0.42148 0.49603 0.29383 0.0
H617 H 0.37413 0.45874 0.30773 0.0
H618 H 0.31537 0.44569 0.25854 0.0
H619 H 0.36323 0.48133 0.24428 0.0
H620 H 0.41494 0.49079 0.20746 0.0
H621 H 0.4252 0.48873 0.17555 0.0
H622 H 0.51879 0.57256 0.18813 0.0
H623 H 0.50879 0.57512 0.21952 0.0
H624 H 0.53009 0.61414 0.25526 0.0
H625 H 0.56675 0.6647 0.27318 0.0
H626 H 0.50773 0.6342 0.31751 0.0
H627 H 0.47051 0.58353 0.29955 0.0
N628 N 0.44721 0.542 0.2711 0.0
N629 N 0.42864 0.51288 0.24228 0.0
N630 N 0.47733 0.56168 0.24663 0.0
C631 C 0.42471 0.51585 0.26019 0.0
C632 C 0.45529 0.53576 0.23547 0.0
C633 C 0.47353 0.56514 0.26437 0.0
C634 C 0.39602 0.49145 0.26796 0.0
C635 C 0.39846 0.48476 0.28591 0.0
C636 C 0.37127 0.46353 0.29391 0.0
C637 C 0.34079 0.44898 0.2843 0.0
C638 C 0.33843 0.45559 0.26623 0.0
C639 C 0.36583 0.47623 0.25806 0.0
C640 C 0.46085 0.53329 0.21611 0.0
C641 C 0.43765 0.50882 0.20339 0.0
C642 C 0.44349 0.5076 0.18514 0.0
C643 C 0.47252 0.53092 0.17932 0.0
C644 C 0.49583 0.55485 0.1921 0.0
C645 C 0.49007 0.55611 0.21019 0.0
C646 C 0.49718 0.5947 0.2759 0.0
C647 C 0.52494 0.61793 0.26888 0.0
C648 C 0.54543 0.02165 0.0558 0.0
Eu649 Eu 0.52308 0.01302 0.02205 0.0
C650 C 0.5316 0.00933 0.0728 0.0
C651 C 0.50296 0.00756 0.07725 0.0
C652 C 0.49021 0.99559 0.09338 0.0
C653 C 0.50568 0.98493 0.10529 0.0
C654 C 0.53404 0.98629 0.10066 0.0
C655 C 0.54691 0.99846 0.08461 0.0
C656 C 0.50453 0.04911 0.00431 0.0
C657 C 0.44558 0.96172 0.01912 0.0
C658 C 0.46154 0.97103 0.95116 0.0
Eu659 Eu 0.48465 0.98215 0.98494 0.0
C660 C 0.47432 0.98385 0.93411 0.0
C661 C 0.46286 0.96346 0.91794 0.0
C662 C 0.4753 0.97502 0.9017 0.0
C663 C 0.49965 0.00716 0.90137 0.0
C664 C 0.51099 0.02758 0.91761 0.0
C665 C 0.49846 0.01603 0.93384 0.0
C666 C 0.50285 0.94636 0.00321 0.0
C667 C 0.5622 0.03337 0.98792 0.0
O668 O 0.5457 0.00067 0.0439 0.0
O669 O 0.53754 0.04101 0.04838 0.0
O670 O 0.53169 0.06114 0.01417 0.0
O671 O 0.48796 0.01922 0.00511 0.0
O672 O 0.47373 0.97568 0.02876 0.0
O673 O 0.44282 0.96419 1.00158 0.0
O674 O 0.45899 0.99064 0.96301 0.0
O675 O 0.47287 0.95438 0.9586 0.0
O676 O 0.47542 0.93421 0.99367 0.0
O677 O 0.51959 0.976 1.00188 0.0
O678 O 0.53401 0.02037 0.97832 0.0
O679 O 0.56469 0.03033 0.00539 0.0
H680 H 0.49032 0.01523 0.06823 0.0
H681 H 0.46799 0.99422 0.09642 0.0
H682 H 0.54651 0.97831 0.1096 0.0
H683 H 0.56887 0.99939 0.0814 0.0
H684 H 0.44421 0.93858 0.91787 0.0
H685 H 0.46549 0.95892 0.88934 0.0
H686 H 0.52969 0.05246 0.91777 0.0
H687 H 0.50764 0.03222 0.94618 0.0
C688 C 0.98405 0.5207 0.05496 0.0
Eu689 Eu 0.98963 0.50301 0.02221 0.0
C690 C 0.99392 0.51909 0.0737 0.0
C691 C 1.00036 0.49493 0.0783 0.0
C692 C 0.01004 0.49411 0.09625 0.0
C693 C 0.01332 0.51745 0.10981 0.0
C694 C 0.00693 0.54163 0.10506 0.0
C695 C 0.99732 0.54243 0.08715 0.0
C696 C 0.95284 0.44529 0.00301 0.0
C697 C 0.04228 0.47889 0.02176 0.0
C698 C 0.02055 0.47873 0.95361 0.0
Eu699 Eu 0.0142 0.49407 0.98662 0.0
C700 C 0.00962 0.48152 0.93536 0.0
C701 C 0.02996 0.48801 0.92157 0.0
C702 C 0.02011 0.49082 0.90412 0.0
C703 C 0.98976 0.48723 0.90021 0.0
C704 C 0.96949 0.48098 0.91409 0.0
C705 C 0.97941 0.47831 0.93157 0.0
C706 C 0.05094 0.55164 0.00596 0.0
C707 C 0.96082 0.517 0.98683 0.0
O708 O 0.00695 0.53924 0.04539 0.0
O709 O 0.96284 0.49351 0.04583 0.0
O710 O 0.94134 0.46022 0.01226 0.0
O711 O 0.98293 0.46052 0.0051 0.0
O712 O 0.02825 0.49157 0.03132 0.0
O713 O 0.03782 0.47396 0.00394 0.0
O714 O 0.99866 0.45867 0.96323 0.0
O715 O 0.04119 0.50581 0.96301 0.0
O716 O 0.06241 0.53647 0.99693 0.0
O717 O 0.02084 0.53656 0.00368 0.0
O718 O 0.97458 0.50386 0.97747 0.0
O719 O 0.96582 0.52277 0.00462 0.0
H720 H 0.99794 0.47679 0.06802 0.0
H721 H 0.01531 0.47553 0.09948 0.0
H722 H 0.00912 0.55981 0.11525 0.0
H723 H 0.9925 0.56128 0.08381 0.0
H724 H 0.05337 0.49064 0.92428 0.0
H725 H 0.03592 0.495 0.89356 0.0
H726 H 0.94597 0.4781 0.91137 0.0
H727 H 0.96341 0.47355 0.94207 0.0
C728 C 0.45699 0.47064 0.95186 0.0
Eu729 Eu 0.48143 0.49151 0.98526 0.0
C730 C 0.46999 0.4742 0.93403 0.0
C731 C 0.46682 0.49446 0.92228 0.0
C732 C 0.47953 0.49857 0.90556 0.0
C733 C 0.49566 0.48248 0.90023 0.0
C734 C 0.49844 0.46185 0.91183 0.0
C735 C 0.4858 0.45777 0.92856 0.0
C736 C 0.50007 0.5505 1.00144 0.0
C737 C 0.55924 0.5204 0.98664 0.0
C738 C 0.54695 0.53014 0.05492 0.0
Eu739 Eu 0.52203 0.50946 0.02156 0.0
C740 C 0.53475 0.53077 0.07263 0.0
C741 C 0.54286 0.51775 0.087 0.0
C742 C 0.53094 0.51728 0.10376 0.0
C743 C 0.5108 0.53 0.10651 0.0
C744 C 0.5026 0.54294 0.09209 0.0
C745 C 0.51447 0.54336 0.07531 0.0
C746 C 0.50284 0.45026 0.00531 0.0
C747 C 0.44442 0.48078 0.02003 0.0
O748 O 0.46306 0.4537 0.96288 0.0
O749 O 0.45944 0.49653 0.96023 0.0
O750 O 0.47245 0.53231 0.99232 0.0
O751 O 0.51717 0.53765 1.00072 0.0
O752 O 0.53064 0.50331 0.97753 0.0
O753 O 0.56276 0.53007 0.00405 0.0
O754 O 0.54512 0.5486 0.04324 0.0
O755 O 0.53936 0.50173 0.0474 0.0
O756 O 0.53084 0.46854 0.01405 0.0
O757 O 0.48607 0.46342 0.00623 0.0
O758 O 0.47301 0.49932 0.02896 0.0
O759 O 0.44107 0.46973 0.00288 0.0
H760 H 0.45453 0.50721 0.92604 0.0
H761 H 0.47683 0.5144 0.8968 0.0
H762 H 0.5099 0.4484 0.90781 0.0
H763 H 0.48838 0.44168 0.93717 0.0
H764 H 0.5584 0.50786 0.08524 0.0
H765 H 0.53784 0.50736 0.11466 0.0
H766 H 0.48681 0.55253 0.09375 0.0
H767 H 0.50767 0.55342 0.06445 0.0
C768 C 0.21126 0.36808 0.38947 0.0
Eu769 Eu 0.18812 0.35436 0.35566 0.0
C770 C 0.20048 0.35472 0.40679 0.0
C771 C 0.203 0.37537 0.42169 0.0
C772 C 0.19272 0.3634 0.43821 0.0
C773 C 0.17993 0.33053 0.44019 0.0
C774 C 0.17714 0.30978 0.42522 0.0
C775 C 0.18728 0.32173 0.40864 0.0
C776 C 0.16928 0.38819 0.33582 0.0
C777 C 0.1113 0.30085 0.35325 0.0
C778 C 0.12727 0.30667 0.28506 0.0
Eu779 Eu 0.15 0.31986 0.31895 0.0
C780 C 0.1407 0.31935 0.26811 0.0
C781 C 0.12894 0.29926 0.25184 0.0
C782 C 0.14196 0.31081 0.23572 0.0
C783 C 0.16717 0.34262 0.23563 0.0
C784 C 0.17889 0.3627 0.25198 0.0
C785 C 0.16582 0.35116 0.26809 0.0
C786 C 0.16746 0.28557 0.33917 0.0
C787 C 0.22735 0.37198 0.32135 0.0
O788 O 0.21746 0.35105 0.37772 0.0
O789 O 0.19605 0.38112 0.38193 0.0
O790 O 0.19636 0.4012 0.3458 0.0
O791 O 0.15289 0.35862 0.33756 0.0
O792 O 0.1396 0.31556 0.3628 0.0
O793 O 0.10824 0.30269 0.33564 0.0
O794 O 0.12373 0.32623 0.29642 0.0
O795 O 0.13901 0.29086 0.2931 0.0
O796 O 0.14076 0.27283 0.32882 0.0
O797 O 0.1845 0.31504 0.33728 0.0
O798 O 0.19929 0.3564 0.3116 0.0
O799 O 0.23011 0.37248 0.33916 0.0
H800 H 0.21286 0.40082 0.42053 0.0
H801 H 0.19467 0.37985 0.44944 0.0
H802 H 0.16754 0.28438 0.42644 0.0
H803 H 0.18481 0.30517 0.39732 0.0
H804 H 0.10958 0.27466 0.2516 0.0
H805 H 0.1319 0.29501 0.22326 0.0
H806 H 0.1983 0.38729 0.25232 0.0
H807 H 0.17536 0.3671 0.28052 0.0
C808 C 0.65031 0.85077 0.38913 0.0
Eu809 Eu 0.65654 0.8368 0.35582 0.0
C810 C 0.65926 0.84596 0.40746 0.0
C811 C 0.63519 0.82902 0.41872 0.0
C812 C 0.64303 0.82508 0.43636 0.0
C813 C 0.67515 0.83819 0.44312 0.0
C814 C 0.69926 0.85486 0.43176 0.0
C815 C 0.6914 0.85857 0.41405 0.0
C816 C 0.62042 0.7793 0.3362 0.0
C817 C 0.71135 0.81585 0.35429 0.0
C818 C 0.6873 0.81654 0.28666 0.0
Eu819 Eu 0.68071 0.83047 0.31995 0.0
C820 C 0.67352 0.8159 0.26848 0.0
C821 C 0.6912 0.81896 0.2537 0.0
C822 C 0.67849 0.81827 0.23626 0.0
C823 C 0.64783 0.81436 0.23337 0.0
C824 C 0.63032 0.81179 0.24826 0.0
C825 C 0.6431 0.81257 0.26571 0.0
C826 C 0.71715 0.88755 0.33992 0.0
C827 C 0.62576 0.85092 0.32157 0.0
O828 O 0.67337 0.8706 0.38003 0.0
O829 O 0.62867 0.82499 0.37908 0.0
O830 O 0.60867 0.79363 0.34572 0.0
O831 O 0.65054 0.79513 0.33808 0.0
O832 O 0.69636 0.8268 0.36429 0.0
O833 O 0.70662 0.81164 0.33647 0.0
O834 O 0.66821 0.79512 0.29685 0.0
O835 O 0.70504 0.84498 0.29549 0.0
O836 O 0.72874 0.87298 0.33045 0.0
O837 O 0.68702 0.87215 0.33779 0.0
O838 O 0.63926 0.83811 0.3117 0.0
O839 O 0.63221 0.85718 0.33928 0.0
H840 H 0.61025 0.81911 0.41392 0.0
H841 H 0.62397 0.81211 0.44481 0.0
H842 H 0.72425 0.86593 0.43673 0.0
H843 H 0.71052 0.87177 0.40568 0.0
H844 H 0.71479 0.82171 0.25564 0.0
H845 H 0.69239 0.82019 0.22499 0.0
H846 H 0.60684 0.80926 0.24639 0.0
H847 H 0.62919 0.81044 0.277 0.0
C848 C 0.12725 0.82792 0.2815 0.0
Eu849 Eu 0.14846 0.83767 0.31547 0.0
C850 C 0.13894 0.8242 0.26421 0.0
C851 C 0.11735 0.80887 0.24874 0.0
C852 C 0.12852 0.80691 0.23203 0.0
C853 C 0.1614 0.81997 0.23065 0.0
C854 C 0.18295 0.835 0.2462 0.0
C855 C 0.17181 0.8372 0.26284 0.0
C856 C 0.16821 0.89234 0.33703 0.0
C857 C 0.22458 0.85688 0.31934 0.0
C858 C 0.21032 0.86876 0.38751 0.0
Eu859 Eu 0.18618 0.84572 0.3544 0.0
C860 C 0.19768 0.86236 0.4054 0.0
C861 C 0.21374 0.85593 0.41934 0.0
C862 C 0.20264 0.85123 0.43653 0.0
C863 C 0.17531 0.85301 0.44012 0.0
C864 C 0.15908 0.85906 0.42605 0.0
C865 C 0.16994 0.8634 0.40886 0.0
C866 C 0.15914 0.78462 0.33788 0.0
C867 C 0.10826 0.81669 0.34989 0.0
O868 O 0.1189 0.80452 0.29193 0.0
O869 O 0.14375 0.85648 0.29046 0.0
O870 O 0.14151 0.87804 0.32666 0.0
O871 O 0.1836 0.87782 0.33507 0.0
O872 O 0.19697 0.84496 0.30916 0.0
O873 O 0.22743 0.86288 0.33719 0.0
O874 O 0.19867 0.88192 0.37684 0.0
O875 O 0.21376 0.84626 0.37888 0.0
O876 O 0.17544 0.79345 0.35369 0.0
O877 O 0.15821 0.80832 0.3326 0.0
O878 O 0.13555 0.83078 0.36048 0.0
O879 O 0.10663 0.81312 0.33197 0.0
H880 H 0.09193 0.79886 0.24954 0.0
H881 H 0.11151 0.79521 0.22017 0.0
H882 H 0.20844 0.8457 0.24538 0.0
H883 H 0.18893 0.84963 0.27455 0.0
H884 H 0.2351 0.85494 0.417 0.0
H885 H 0.21564 0.84654 0.44709 0.0
H886 H 0.13852 0.86151 0.42843 0.0
H887 H 0.15689 0.86822 0.3984 0.0
C888 C 0.87917 0.69731 0.72407 0.0
Eu889 Eu 0.85818 0.68488 0.68991 0.0
C890 C 0.86588 0.68366 0.74086 0.0
C891 C 0.87643 0.70352 0.7572 0.0
C892 C 0.86395 0.69103 0.77326 0.0
C893 C 0.84061 0.65841 0.77326 0.0
C894 C 0.82991 0.63858 0.7568 0.0
C895 C 0.84236 0.65112 0.74072 0.0
C896 C 0.84044 0.71888 0.66969 0.0
C897 C 0.78128 0.63067 0.68586 0.0
C898 C 0.80125 0.63939 0.61832 0.0
Eu899 Eu 0.82247 0.65124 0.65244 0.0
C900 C 0.81453 0.65314 0.60155 0.0
C901 C 0.802 0.63413 0.58495 0.0
C902 C 0.81458 0.64668 0.56892 0.0
C903 C 0.84009 0.67843 0.56923 0.0
C904 C 0.8526 0.69745 0.58592 0.0
C905 C 0.83997 0.68489 0.60196 0.0
C906 C 0.84079 0.61739 0.67247 0.0
C907 C 0.89955 0.70475 0.65647 0.0
O908 O 0.88446 0.67911 0.71266 0.0
O909 O 0.86622 0.71209 0.71606 0.0
O910 O 0.86668 0.7319 0.68046 0.0
O911 O 0.8239 0.68916 0.67107 0.0
O912 O 0.8087 0.64674 0.69622 0.0
O913 O 0.7795 0.63131 0.6681 0.0
O914 O 0.79638 0.65774 0.62987 0.0
O915 O 0.81396 0.62426 0.62616 0.0
O916 O 0.81439 0.60421 0.66181 0.0
O917 O 0.85695 0.64714 0.67114 0.0
O918 O 0.87201 0.68899 0.64621 0.0
O919 O 0.90138 0.70463 0.67427 0.0
H920 H 0.89439 0.72872 0.75755 0.0
H921 H 0.87257 0.7069 0.78572 0.0
H922 H 0.81245 0.61324 0.7564 0.0
H923 H 0.83381 0.63535 0.72822 0.0
H924 H 0.78236 0.60961 0.58438 0.0
H925 H 0.80395 0.6317 0.55623 0.0
H926 H 0.87224 0.72198 0.58656 0.0
H927 H 0.85004 0.69999 0.61465 0.0
C928 C 0.31751 0.18464 0.72391 0.0
Eu929 Eu 0.32463 0.17179 0.69054 0.0
C930 C 0.32886 0.18184 0.74207 0.0
C931 C 0.30961 0.1771 0.75627 0.0
C932 C 0.32013 0.17487 0.77371 0.0
C933 C 0.35008 0.1773 0.77719 0.0
C934 C 0.36921 0.18173 0.76288 0.0
C935 C 0.35861 0.18382 0.74541 0.0
C936 C 0.28705 0.11578 0.66995 0.0
C937 C 0.37864 0.14979 0.6889 0.0
C938 C 0.35571 0.1521 0.62149 0.0
Eu939 Eu 0.34885 0.1652 0.65483 0.0
C940 C 0.34193 0.15197 0.60341 0.0
C941 C 0.36101 0.15933 0.58897 0.0
C942 C 0.34863 0.15995 0.5717 0.0
C943 C 0.31693 0.15316 0.56862 0.0
C944 C 0.29794 0.14619 0.58318 0.0
C945 C 0.31035 0.14557 0.60047 0.0
C946 C 0.38622 0.22187 0.67516 0.0
C947 C 0.29565 0.18797 0.65639 0.0
O948 O 0.33896 0.20578 0.71452 0.0
O949 O 0.29782 0.15758 0.71419 0.0
O950 O 0.276 0.13114 0.67917 0.0
O951 O 0.3171 0.12985 0.67242 0.0
O952 O 0.36453 0.16178 0.69888 0.0
O953 O 0.37334 0.1449 0.67113 0.0
O954 O 0.3368 0.13027 0.63156 0.0
O955 O 0.3733 0.18039 0.6305 0.0
O956 O 0.39736 0.20679 0.66575 0.0
O957 O 0.35614 0.20713 0.67285 0.0
O958 O 0.30761 0.17327 0.6467 0.0
O959 O 0.30268 0.1946 0.67408 0.0
H960 H 0.28659 0.1755 0.75392 0.0
H961 H 0.3052 0.17209 0.78457 0.0
H962 H 0.3924 0.1837 0.76524 0.0
H963 H 0.37377 0.1873 0.7346 0.0
H964 H 0.38549 0.16453 0.59105 0.0
H965 H 0.36368 0.16522 0.56068 0.0
H966 H 0.27357 0.14132 0.58121 0.0
H967 H 0.29534 0.14008 0.61151 0.0
C968 C 0.79359 0.14184 0.61922 0.0
Eu969 Eu 0.81805 0.15925 0.65276 0.0
C970 C 0.80662 0.14539 0.60147 0.0
C971 C 0.79438 0.15568 0.58749 0.0
C972 C 0.80631 0.15914 0.57056 0.0
C973 C 0.83069 0.15227 0.56725 0.0
C974 C 0.84312 0.14222 0.58135 0.0
C975 C 0.83136 0.13902 0.59833 0.0
C976 C 0.83904 0.21724 0.67095 0.0
C977 C 0.89532 0.18518 0.65391 0.0
C978 C 0.88262 0.18952 0.72234 0.0
Eu979 Eu 0.85768 0.17171 0.68885 0.0
C980 C 0.87066 0.18891 0.74031 0.0
C981 C 0.87044 0.16726 0.75223 0.0
C982 C 0.85887 0.16602 0.76915 0.0
C983 C 0.84731 0.18646 0.77455 0.0
C984 C 0.84811 0.20857 0.76278 0.0
C985 C 0.85954 0.20972 0.74581 0.0
C986 C 0.83647 0.11366 0.67057 0.0
C987 C 0.78035 0.14479 0.68776 0.0
O988 O 0.79767 0.12293 0.62963 0.0
O989 O 0.79836 0.16828 0.62816 0.0
O990 O 0.81121 0.20074 0.66176 0.0
O991 O 0.85497 0.20322 0.66943 0.0
O992 O 0.86702 0.17115 0.6444 0.0
O993 O 0.89872 0.19162 0.67168 0.0
O994 O 0.88095 0.20908 0.71141 0.0
O995 O 0.87494 0.16165 0.71393 0.0
O996 O 0.8643 0.12998 0.67978 0.0
O997 O 0.82076 0.12787 0.67222 0.0
O998 O 0.80893 0.16092 0.69697 0.0
O999 O 0.77707 0.13731 0.67006 0.0
H1000 H 0.77547 0.16095 0.58966 0.0
H1001 H 0.79634 0.16706 0.56001 0.0
H1002 H 0.86136 0.136 0.57914 0.0
H1003 H 0.84141 0.13122 0.60891 0.0
H1004 H 0.8793 0.15128 0.74847 0.0
H1005 H 0.85949 0.14942 0.77814 0.0
H1006 H 0.83945 0.22469 0.76661 0.0
H1007 H 0.85948 0.22682 0.73701 0.0
C1008 C 0.35844 0.91581 0.02874 0.0
C1009 C 0.35989 0.90454 0.0456 0.0
C1010 C 0.38623 0.93436 0.02029 0.0
C1011 C 0.41652 0.94233 0.02838 0.0
H1012 H 0.33562 0.91028 0.02204 0.0
H1013 H 0.3839 0.94258 0.00734 0.0
S1014 S 0.4329 0.91665 0.07196 0.0
N1015 N 0.39379 0.90131 0.0697 0.0
N1016 N 0.44603 0.93627 0.054 0.0
C1017 C 0.41824 0.93101 0.04523 0.0
C1018 C 0.38994 0.91212 0.0538 0.0
C1019 C 0.11402 0.46939 0.03288 0.0
C1020 C 0.10759 0.45495 0.04923 0.0
C1021 C 0.09251 0.47664 0.02398 0.0
C1022 C 0.06403 0.47027 0.03126 0.0
H1023 H 0.13611 0.47563 0.027 0.0
H1024 H 0.09857 0.48796 0.01151 0.0
S1025 S 0.03431 0.4303 0.07275 0.0
N1026 N 0.06919 0.43237 0.07155 0.0
N1027 N 0.02949 0.44727 0.05511 0.0
C1028 C 0.05703 0.45561 0.04744 0.0
C1029 C 0.07863 0.44766 0.05636 0.0
C1030 C 0.55094 0.63107 0.02918 0.0
C1031 C 0.52887 0.64133 0.03204 0.0
C1032 C 0.54144 0.60157 0.01923 0.0
C1033 C 0.50954 0.58133 0.01197 0.0
H1034 H 0.57578 0.64619 0.03441 0.0
H1035 H 0.55927 0.59474 0.0171 0.0
S1036 S 0.44209 0.59604 0.01725 0.0
N1037 N 0.47353 0.6283 0.02786 0.0
N1038 N 0.45555 0.5728 0.00927 0.0
C1039 C 0.48713 0.59103 0.01514 0.0
C1040 C 0.49683 0.62107 0.02516 0.0
C1041 C 0.88033 0.37173 0.9788 0.0
C1042 C 0.89314 0.35345 0.97157 0.0
C1043 C 0.89993 0.40146 0.9889 0.0
C1044 C 0.93304 0.41396 0.99219 0.0
H1045 H 0.85496 0.36309 0.9765 0.0
H1046 H 0.88902 0.41477 0.99412 0.0
S1047 S 0.97813 0.37475 0.97697 0.0
N1048 N 0.94078 0.34945 0.9688 0.0
N1049 N 0.9777 0.40534 0.9879 0.0
C1050 C 0.94617 0.39586 0.98513 0.0
C1051 C 0.9262 0.36561 0.97477 0.0
C1052 C 0.64529 0.5628 0.97453 0.0
C1053 C 0.64347 0.54521 0.95827 0.0
C1054 C 0.61802 0.55467 0.98365 0.0
C1055 C 0.58789 0.5286 0.97686 0.0
H1056 H 0.66797 0.58313 0.9802 0.0
H1057 H 0.62056 0.56909 0.99604 0.0
S1058 S 0.57118 0.47286 0.93575 0.0
N1059 N 0.60966 0.49933 0.93641 0.0
N1060 N 0.55847 0.48396 0.95341 0.0
C1061 C 0.58593 0.51052 0.96073 0.0
C1062 C 0.61367 0.51884 0.95148 0.0
C1063 C 0.50927 0.11802 0.98009 0.0
C1064 C 0.47768 0.10579 0.97251 0.0
C1065 C 0.51771 0.09939 0.99028 0.0
C1066 C 0.49484 0.06791 0.99332 0.0
H1067 H 0.52761 0.14224 0.97816 0.0
H1068 H 0.54235 0.10979 0.99584 0.0
S1069 S 0.40856 0.02521 0.97705 0.0
N1070 N 0.42331 0.06056 0.96899 0.0
N1071 N 0.43904 0.02558 0.98836 0.0
C1072 C 0.46314 0.05535 0.98581 0.0
C1073 C 0.4546 0.07428 0.97533 0.0
C1074 C 0.616 0.07915 0.95207 0.0
C1075 C 0.6469 0.09193 0.9608 0.0
C1076 C 0.58888 0.0599 0.96086 0.0
C1077 C 0.59154 0.05258 0.97874 0.0
H1078 H 0.6127 0.08485 0.93852 0.0
H1079 H 0.56566 0.05125 0.95362 0.0
S1080 S 0.66751 0.07759 0.00679 0.0
N1081 N 0.67888 0.09405 0.98773 0.0
N1082 N 0.62806 0.05806 0.00434 0.0
C1083 C 0.62246 0.06439 0.98738 0.0
C1084 C 0.65005 0.08399 0.9784 0.0
C1085 C 0.89001 0.52833 0.97597 0.0
C1086 C 0.89426 0.53858 0.95845 0.0
C1087 C 0.91197 0.52198 0.98515 0.0
C1088 C 0.93875 0.52504 0.97707 0.0
H1089 H 0.86924 0.52465 0.98258 0.0
H1090 H 0.90749 0.51385 0.99852 0.0
S1091 S 0.96254 0.55334 0.93212 0.0
N1092 N 0.92893 0.5537 0.93397 0.0
N1093 N 0.9693 0.54027 0.95096 0.0
C1094 C 0.94356 0.53546 0.95967 0.0
C1095 C 0.92155 0.54256 0.95043 0.0
C1096 C 0.50659 0.37979 0.98302 0.0
C1097 C 0.47493 0.35891 0.9756 0.0
C1098 C 0.51532 0.40931 0.99261 0.0
C1099 C 0.49268 0.41891 0.99521 0.0
H1100 H 0.52482 0.37338 0.98125 0.0
H1101 H 0.54006 0.42475 0.99796 0.0
S1102 S 0.40627 0.37207 0.97927 0.0
N1103 N 0.42067 0.34931 0.97189 0.0
N1104 N 0.43698 0.40469 0.99013 0.0
C1105 C 0.46086 0.39811 0.988 0.0
C1106 C 0.45201 0.36814 0.97812 0.0
C1107 C 0.12399 0.62601 0.02894 0.0
C1108 C 0.11139 0.64444 0.03618 0.0
C1109 C 0.10409 0.59593 0.01928 0.0
C1110 C 0.0709 0.58329 0.01641 0.0
H1111 H 0.14942 0.63479 0.03091 0.0
H1112 H 0.11487 0.5825 0.01404 0.0
S1113 S 0.02631 0.62288 0.03189 0.0
N1114 N 0.06389 0.64845 0.03953 0.0
N1115 N 0.02639 0.59198 0.02109 0.0
C1116 C 0.05798 0.60158 0.02346 0.0
C1117 C 0.07826 0.63215 0.03344 0.0
C1118 C 0.35929 0.43483 0.03317 0.0
C1119 C 0.35995 0.45419 0.0483 0.0
C1120 C 0.38663 0.44365 0.02401 0.0
C1121 C 0.4156 0.47219 0.02963 0.0
H1122 H 0.33753 0.41256 0.02849 0.0
H1123 H 0.38514 0.42779 0.01257 0.0
S1124 S 0.4285 0.53311 0.06709 0.0
N1125 N 0.39109 0.50428 0.06761 0.0
N1126 N 0.44237 0.52102 0.05042 0.0
C1127 C 0.41628 0.49211 0.04449 0.0
C1128 C 0.38849 0.48307 0.05381 0.0
C1129 C 0.55403 0.92103 0.02965 0.0
C1130 C 0.53136 0.89448 0.03778 0.0
C1131 C 0.54462 0.93821 0.01878 0.0
C1132 C 0.51218 0.92874 0.0153 0.0
H1133 H 0.57914 0.92833 0.0316 0.0
H1134 H 0.56275 0.95849 0.01267 0.0
S1135 S 0.44382 0.8617 0.03407 0.0
N1136 N 0.47542 0.86037 0.04236 0.0
N1137 N 0.45754 0.89206 0.02143 0.0
C1138 C 0.48935 0.90254 0.02357 0.0
C1139 C 0.49902 0.88554 0.03497 0.0
C1140 C 0.02461 0.25447 0.36385 0.0
C1141 C 0.0265 0.24139 0.38 0.0
C1142 C 0.0521 0.27371 0.35528 0.0
C1143 C 0.08253 0.28064 0.36256 0.0
H1144 H 1.00169 0.24989 0.35782 0.0
H1145 H 0.04948 0.28338 0.34293 0.0
S1146 S 0.09988 0.24958 0.40367 0.0
N1147 N 0.06089 0.23499 0.40229 0.0
N1148 N 0.11254 0.27125 0.38639 0.0
C1149 C 0.08464 0.26736 0.37861 0.0
C1150 C 0.05666 0.24774 0.38728 0.0
C1151 C 0.74954 0.78717 0.38884 0.0
C1152 C 0.77783 0.79289 0.3814 0.0
C1153 C 0.72824 0.7949 0.38008 0.0
C1154 C 0.73413 0.80807 0.36339 0.0
H1155 H 0.7436 0.77635 0.40146 0.0
H1156 H 0.70674 0.79003 0.38627 0.0
S1157 S 0.80589 0.83061 0.33894 0.0
N1158 N 0.81165 0.81512 0.35701 0.0
N1159 N 0.7709 0.82823 0.34022 0.0
C1160 C 0.76235 0.8142 0.35586 0.0
C1161 C 0.78434 0.80694 0.36493 0.0
C1162 C 0.16883 0.96386 0.3611 0.0
C1163 C 0.20079 0.98335 0.36837 0.0
C1164 C 0.15852 0.9342 0.35125 0.0
C1165 C 0.17981 0.92299 0.34826 0.0
H1166 H 0.15161 0.9716 0.36306 0.0
H1167 H 0.13366 0.92004 0.34585 0.0
S1168 S 0.26626 0.96541 0.36404 0.0
N1169 N 0.25381 0.98967 0.37183 0.0
N1170 N 0.23452 0.93392 0.35306 0.0
C1171 C 0.21186 0.94217 0.35551 0.0
C1172 C 0.22232 0.97235 0.36566 0.0
C1173 C 0.54803 0.70255 0.31465 0.0
C1174 C 0.56133 0.68496 0.30713 0.0
C1175 C 0.56744 0.73307 0.32398 0.0
C1176 C 0.60087 0.74711 0.32619 0.0
H1177 H 0.52241 0.69287 0.31305 0.0
H1178 H 0.55611 0.74583 0.3294 0.0
S1179 S 0.6474 0.71014 0.30998 0.0
N1180 N 0.60986 0.68319 0.30306 0.0
N1181 N 0.64642 0.74057 0.32071 0.0
C1182 C 0.6145 0.72963 0.31894 0.0
C1183 C 0.59471 0.69856 0.30937 0.0
C1184 C 0.31123 0.89718 0.3084 0.0
C1185 C 0.30938 0.88022 0.29186 0.0
C1186 C 0.28381 0.88928 0.31734 0.0
C1187 C 0.2535 0.86412 0.31008 0.0
H1188 H 0.33402 0.91693 0.31438 0.0
H1189 H 0.28632 0.90332 0.32989 0.0
S1190 S 0.23649 0.80982 0.26829 0.0
N1191 N 0.27523 0.83555 0.26936 0.0
N1192 N 0.22386 0.82068 0.28608 0.0
C1193 C 0.25152 0.84652 0.29377 0.0
C1194 C 0.27938 0.85458 0.28469 0.0
C1195 C 0.17147 0.45574 0.31129 0.0
C1196 C 0.13958 0.44281 0.30406 0.0
C1197 C 0.18087 0.43768 0.32135 0.0
C1198 C 0.15869 0.40608 0.32462 0.0
H1199 H 0.18928 0.48012 0.30923 0.0
H1200 H 0.20568 0.44866 0.3267 0.0
S1201 S 0.07206 0.3615 0.30912 0.0
N1202 N 0.08572 0.3967 0.30099 0.0
N1203 N 0.10327 0.36278 0.32011 0.0
C1204 C 0.12675 0.39276 0.31737 0.0
C1205 C 0.11722 0.41112 0.30702 0.0
C1206 C 0.30959 0.43729 0.31154 0.0
C1207 C 0.31171 0.42826 0.2935 0.0
C1208 C 0.28259 0.41861 0.32058 0.0
C1209 C 0.25632 0.39037 0.31186 0.0
H1210 H 0.32875 0.45935 0.31872 0.0
H1211 H 0.28199 0.42683 0.33435 0.0
S1212 S 0.25026 0.35462 0.26516 0.0
N1213 N 0.28562 0.38775 0.26768 0.0
N1214 N 0.23447 0.35338 0.28443 0.0
C1215 C 0.25808 0.38081 0.2939 0.0
C1216 C 0.2858 0.39956 0.28477 0.0
C1217 C 0.58563 0.87685 0.28658 0.0
C1218 C 0.55781 0.87184 0.29436 0.0
C1219 C 0.6074 0.86979 0.29539 0.0
C1220 C 0.60256 0.85814 0.31249 0.0
H1221 H 0.59084 0.88659 0.27363 0.0
H1222 H 0.62844 0.874 0.28889 0.0
S1223 S 0.53252 0.83801 0.33811 0.0
N1224 N 0.52559 0.85185 0.31964 0.0
N1225 N 0.56737 0.84021 0.33652 0.0
C1226 C 0.5749 0.8528 0.32041 0.0
C1227 C 0.55235 0.85928 0.31129 0.0
C1228 C 0.12698 0.6954 0.32797 0.0
C1229 C 0.12549 0.69124 0.30897 0.0
C1230 C 0.13743 0.7257 0.33715 0.0
C1231 C 0.1464 0.75284 0.32768 0.0
H1232 H 0.12022 0.67511 0.33582 0.0
H1233 H 0.13858 0.7279 0.3518 0.0
S1234 S 0.14874 0.75537 0.27802 0.0
N1235 N 0.13519 0.71724 0.28108 0.0
N1236 N 0.15445 0.77402 0.2984 0.0
C1237 C 0.14488 0.74908 0.30872 0.0
C1238 C 0.13448 0.71829 0.29935 0.0
C1239 C 0.7903 0.96298 0.36207 0.0
C1240 C 0.77751 0.98066 0.37012 0.0
C1241 C 0.77046 0.93282 0.35245 0.0
C1242 C 0.73707 0.91924 0.35043 0.0
H1243 H 0.81588 0.9724 0.36337 0.0
H1244 H 0.78145 0.92006 0.34657 0.0
S1245 S 0.69172 0.95637 0.36831 0.0
N1246 N 0.72946 0.98282 0.37513 0.0
N1247 N 0.69207 0.92611 0.3569 0.0
C1248 C 0.72391 0.93669 0.35833 0.0
C1249 C 0.74416 0.9674 0.36823 0.0
C1250 C 0.04893 0.7839 0.38507 0.0
C1251 C 0.02332 0.78736 0.3781 0.0
C1252 C 0.07605 0.79299 0.37571 0.0
C1253 C 0.07845 0.80535 0.35883 0.0
H1254 H 0.0481 0.77413 0.39792 0.0
H1255 H 0.09532 0.79027 0.38175 0.0
S1256 S 0.01929 0.82116 0.335 0.0
N1257 N 0.00319 0.80589 0.35359 0.0
N1258 N 0.05357 0.82155 0.33571 0.0
C1259 C 0.05304 0.80869 0.35157 0.0
C1260 C 0.02565 0.80004 0.36125 0.0
C1261 C 0.21575 0.26311 0.37069 0.0
C1262 C 0.19241 0.23294 0.37534 0.0
C1263 C 0.20741 0.28057 0.35934 0.0
C1264 C 0.17553 0.2683 0.35227 0.0
H1265 H 0.24072 0.27258 0.3752 0.0
H1266 H 0.22618 0.30322 0.35556 0.0
S1267 S 0.10505 0.19294 0.3629 0.0
N1268 N 0.13586 0.1934 0.37385 0.0
N1269 N 0.12015 0.22601 0.35245 0.0
C1270 C 0.15182 0.23907 0.3577 0.0
C1271 C 0.16028 0.22143 0.36928 0.0
C1272 C 0.72144 0.60122 0.72102 0.0
C1273 C 0.69649 0.57159 0.71261 0.0
C1274 C 0.74873 0.6202 0.71226 0.0
C1275 C 0.75191 0.61058 0.69462 0.0
H1276 H 0.71979 0.61001 0.73444 0.0
H1277 H 0.76733 0.64277 0.71929 0.0
S1278 S 0.6953 0.5338 0.6673 0.0
N1279 N 0.67832 0.53238 0.68614 0.0
N1280 N 0.72892 0.56875 0.66947 0.0
C1281 C 0.72743 0.58096 0.6861 0.0
C1282 C 0.69992 0.56132 0.69513 0.0
C1283 C 0.41793 0.12133 0.72284 0.0
C1284 C 0.44659 0.12829 0.7154 0.0
C1285 C 0.39615 0.12867 0.71432 0.0
C1286 C 0.4019 0.14259 0.69787 0.0
H1287 H 0.41207 0.10977 0.73524 0.0
H1288 H 0.37438 0.12286 0.72047 0.0
S1289 S 0.47447 0.16878 0.67368 0.0
N1290 N 0.48063 0.15279 0.6914 0.0
N1291 N 0.43892 0.16504 0.67501 0.0
C1292 C 0.4305 0.15009 0.69039 0.0
C1293 C 0.453 0.14329 0.69923 0.0
C1294 C 0.83901 0.28953 0.69353 0.0
C1295 C 0.87087 0.30931 0.70092 0.0
C1296 C 0.82901 0.25972 0.68393 0.0
C1297 C 0.85054 0.24868 0.6813 0.0
H1298 H 0.82161 0.29709 0.69529 0.0
H1299 H 0.80417 0.24523 0.67856 0.0
S1300 S 0.93696 0.29215 0.69724 0.0
N1301 N 0.92412 0.31627 0.70467 0.0
N1302 N 0.90544 0.2603 0.68636 0.0
C1303 C 0.88254 0.2683 0.68853 0.0
C1304 C 0.89267 0.2986 0.69843 0.0
C1305 C 0.25504 0.03205 0.64667 0.0
C1306 C 0.22674 0.02626 0.63688 0.0
C1307 C 0.27512 0.0616 0.65696 0.0
C1308 C 0.26693 0.08577 0.65815 0.0
H1309 H 0.26165 0.01363 0.64634 0.0
H1310 H 0.29668 0.06522 0.66441 0.0
S1311 S 0.19618 0.08283 0.63439 0.0
N1312 N 0.19232 0.04745 0.6283 0.0
N1313 N 0.22945 0.10257 0.64814 0.0
C1314 C 0.2389 0.08036 0.64827 0.0
C1315 C 0.21892 0.05065 0.63748 0.0
C1316 C 0.95222 0.21098 0.6171 0.0
C1317 C 0.97844 0.20914 0.62476 0.0
C1318 C 0.92538 0.20309 0.62658 0.0
C1319 C 0.92393 0.1936 0.64421 0.0
H1320 H 0.95255 0.21892 0.60375 0.0
H1321 H 0.90581 0.20489 0.62015 0.0
S1322 S 0.98424 0.18131 0.66967 0.0
N1323 N 0.99955 0.19397 0.65048 0.0
N1324 N 0.94984 0.18069 0.6685 0.0
C1325 C 0.94963 0.19119 0.65195 0.0
C1326 C 0.97666 0.19858 0.64219 0.0
C1327 C 0.78947 0.73989 0.63941 0.0
C1328 C 0.81114 0.77177 0.63635 0.0
C1329 C 0.79928 0.72258 0.64993 0.0
C1330 C 0.83105 0.73662 0.65768 0.0
H1331 H 0.76457 0.72872 0.63421 0.0
H1332 H 0.78167 0.69841 0.65244 0.0
S1333 S 0.89778 0.81787 0.65155 0.0
N1334 N 0.86623 0.81558 0.64035 0.0
N1335 N 0.88471 0.78312 0.66013 0.0
C1336 C 0.85321 0.76793 0.65398 0.0
C1337 C 0.84324 0.78549 0.64329 0.0
C1338 C 0.9809 0.77245 0.64716 0.0
C1339 C 0.98406 0.76328 0.62935 0.0
C1340 C 0.95398 0.75297 0.65608 0.0
C1341 C 0.9289 0.7238 0.64745 0.0
H1342 H 0.99902 0.79527 0.65417 0.0
H1343 H 0.95236 0.76134 0.66961 0.0
S1344 S 0.9262 0.68715 0.60158 0.0
N1345 N 0.96053 0.72143 0.60406 0.0
N1346 N 0.90946 0.68569 0.62051 0.0
C1347 C 0.93186 0.71399 0.62981 0.0
C1348 C 0.9595 0.7335 0.62084 0.0
C1349 C 0.23744 0.189 0.6205 0.0
C1350 C 0.22912 0.21051 0.62868 0.0
C1351 C 0.25905 0.18205 0.62954 0.0
C1352 C 0.27328 0.19636 0.64713 0.0
H1353 H 0.2268 0.17707 0.60707 0.0
H1354 H 0.26425 0.16495 0.62271 0.0
S1355 S 0.26097 0.25605 0.67404 0.0
N1356 N 0.23776 0.24721 0.65502 0.0
N1357 N 0.27831 0.23412 0.67211 0.0
C1358 C 0.26541 0.21822 0.6554 0.0
C1359 C 0.24336 0.22529 0.64616 0.0
C1360 C 0.83493 0.0403 0.64833 0.0
C1361 C 0.80293 0.02086 0.64108 0.0
C1362 C 0.84552 0.07037 0.65777 0.0
C1363 C 0.82446 0.08201 0.66036 0.0
H1364 H 0.85197 0.03227 0.64658 0.0
H1365 H 0.87042 0.0846 0.66305 0.0
S1366 S 0.73794 0.03969 0.6447 0.0
N1367 N 0.75007 0.01488 0.63743 0.0
N1368 N 0.76988 0.0714 0.65535 0.0
C1369 C 0.79234 0.06276 0.65324 0.0
C1370 C 0.7816 0.03218 0.64353 0.0
C1371 C 0.4598 0.29765 0.69664 0.0
C1372 C 0.44724 0.31603 0.70407 0.0
C1373 C 0.43976 0.26714 0.68743 0.0
C1374 C 0.40642 0.25391 0.68523 0.0
H1375 H 0.48532 0.30676 0.69817 0.0
H1376 H 0.45053 0.25381 0.68203 0.0
S1377 S 0.36171 0.29296 0.70139 0.0
N1378 N 0.3995 0.31929 0.70818 0.0
N1379 N 0.36176 0.26192 0.69078 0.0
C1380 C 0.39353 0.27211 0.69247 0.0
C1381 C 0.41395 0.30317 0.70192 0.0
C1382 C 0.6932 0.11095 0.69679 0.0
C1383 C 0.69487 0.11719 0.71567 0.0
C1384 C 0.72081 0.11955 0.68795 0.0
C1385 C 0.75135 0.13491 0.69761 0.0
H1386 H 0.67031 0.09937 0.68872 0.0
H1387 H 0.71811 0.11437 0.67338 0.0
S1388 S 0.76861 0.1563 0.74746 0.0
N1389 N 0.72947 0.1396 0.74379 0.0
N1390 N 0.7813 0.15531 0.72741 0.0
C1391 C 0.75327 0.14084 0.7166 0.0
C1392 C 0.7251 0.13206 0.72556 0.0
C1393 C 0.83723 0.54954 0.69714 0.0
C1394 C 0.86878 0.56245 0.70495 0.0
C1395 C 0.82838 0.56775 0.68687 0.0
C1396 C 0.85079 0.59947 0.68398 0.0
H1397 H 0.81929 0.52505 0.69887 0.0
H1398 H 0.80382 0.55677 0.68104 0.0
S1399 S 0.93666 0.64415 0.70118 0.0
N1400 N 0.92254 0.60872 0.70908 0.0
N1401 N 0.90602 0.64297 0.68955 0.0
C1402 C 0.88237 0.61283 0.69186 0.0
C1403 C 0.89134 0.59431 0.70243 0.0
C1404 C 0.47919 0.93189 0.14397 0.0
C1405 C 0.47214 0.94956 0.15681 0.0
C1406 C 0.48923 0.94311 0.1272 0.0
C1407 C 0.49256 0.97242 0.12256 0.0
H1408 H 0.47735 0.90936 0.14701 0.0
H1409 H 0.49475 0.92886 0.11785 0.0
S1410 S 0.47745 0.02805 0.15135 0.0
N1411 N 0.46929 0.99795 0.16368 0.0
N1412 N 0.48797 0.01892 0.13212 0.0
C1413 C 0.48488 0.98999 0.13506 0.0
C1414 C 0.47471 0.9786 0.15218 0.0
C1415 C 0.05698 0.54691 0.1569 0.0
C1416 C 0.04174 0.51956 0.16639 0.0
C1417 C 0.04814 0.54572 0.13851 0.0
C1418 C 0.02371 0.51715 0.1289 0.0
H1419 H 0.07574 0.56953 0.16379 0.0
H1420 H 0.06038 0.56746 0.1318 0.0
S1421 S 0.97615 0.43891 0.14753 0.0
N1422 N 1.00112 0.46305 0.16486 0.0
N1423 N 0.98437 0.46081 0.13021 0.0
C1424 C 0.00869 0.48942 0.13812 0.0
C1425 C 0.01775 0.49063 0.15688 0.0
C1426 C 0.47586 0.50209 0.15104 0.0
C1427 C 0.47926 0.53024 0.16009 0.0
C1428 C 0.48561 0.50206 0.1336 0.0
C1429 C 0.49885 0.5301 0.12451 0.0
H1430 H 0.46662 0.48024 0.15772 0.0
H1431 H 0.48305 0.48 0.12724 0.0
S1432 S 0.5111 0.60955 0.14196 0.0
N1433 N 0.49513 0.58637 0.15831 0.0
N1434 N 0.51402 0.5865 0.12575 0.0
C1435 C 0.50145 0.55812 0.13322 0.0
C1436 C 0.49155 0.55814 0.15094 0.0
C1437 C 0.93987 0.45956 0.85499 0.0
C1438 C 0.95853 0.48394 0.84417 0.0
C1439 C 0.94959 0.46148 0.87331 0.0
C1440 C 0.97847 0.48769 0.8814 0.0
H1441 H 0.91784 0.43857 0.84915 0.0
H1442 H 0.93496 0.44173 0.88102 0.0
S1443 S 0.03502 0.55866 0.85924 0.0
N1444 N 0.0065 0.53571 0.84301 0.0
N1445 N 0.02475 0.53939 0.87757 0.0
C1446 C 0.99686 0.51272 0.8709 0.0
C1447 C 0.98685 0.51087 0.85225 0.0
C1448 C 0.49724 0.48086 0.84926 0.0
C1449 C 0.52796 0.48607 0.8467 0.0
C1450 C 0.48741 0.48077 0.86663 0.0
C1451 C 0.50785 0.48567 0.88213 0.0
H1452 H 0.4804 0.4762 0.83769 0.0
H1453 H 0.46323 0.47574 0.8679 0.0
S1454 S 0.59146 0.50267 0.88293 0.0
N1455 N 0.57931 0.49778 0.86117 0.0
N1456 N 0.56093 0.498 0.8939 0.0
C1457 C 0.53903 0.49205 0.87982 0.0
C1458 C 0.5491 0.49227 0.86209 0.0
C1459 C 0.52323 0.05956 0.86239 0.0
C1460 C 0.5313 0.04267 0.84963 0.0
C1461 C 0.51391 0.04837 0.87925 0.0
C1462 C 0.51209 0.01973 0.88399 0.0
H1463 H 0.52368 0.08141 0.8592 0.0
H1464 H 0.50713 0.06177 0.88841 0.0
S1465 S 0.53246 0.96747 0.85589 0.0
N1466 N 0.5379 0.9964 0.84316 0.0
N1467 N 0.52096 0.97569 0.87501 0.0
C1468 C 0.52104 0.00311 0.8716 0.0
C1469 C 0.53059 0.01454 0.85442 0.0
C1470 C 0.12972 0.27924 0.47579 0.0
C1471 C 0.15048 0.29299 0.49179 0.0
C1472 C 0.1394 0.29141 0.45912 0.0
C1473 C 0.16998 0.31803 0.45793 0.0
H1474 H 0.10612 0.25855 0.47612 0.0
H1475 H 0.12279 0.28002 0.44708 0.0
S1476 S 0.23287 0.36312 0.496 0.0
N1477 N 0.20263 0.33505 0.50549 0.0
N1478 N 0.22082 0.35774 0.47423 0.0
C1479 C 0.19072 0.33222 0.47389 0.0
C1480 C 0.18098 0.31973 0.49079 0.0
C1481 C 0.67822 0.84666 0.49427 0.0
C1482 C 0.70226 0.83991 0.49984 0.0
C1483 C 0.66901 0.84508 0.47591 0.0
C1484 C 0.68348 0.83669 0.46239 0.0
H1485 H 0.6668 0.8538 0.5042 0.0
H1486 H 0.65113 0.85153 0.4723 0.0
S1487 S 0.7462 0.81475 0.46982 0.0
N1488 N 0.73962 0.8234 0.4904 0.0
N1489 N 0.72163 0.81956 0.45581 0.0
C1490 C 0.70677 0.82877 0.46776 0.0
C1491 C 0.71624 0.83046 0.4865 0.0
C1492 C 0.17945 0.87005 0.49103 0.0
C1493 C 0.14717 0.85372 0.49461 0.0
C1494 C 0.1883 0.8688 0.47351 0.0
C1495 C 0.16524 0.85111 0.4588 0.0
H1496 H 0.1981 0.88433 0.50185 0.0
H1497 H 0.21338 0.88269 0.47141 0.0
S1498 S 0.07757 0.80231 0.46106 0.0
N1499 N 0.09208 0.8184 0.48206 0.0
N1500 N 0.10877 0.81515 0.44919 0.0
C1501 C 0.13292 0.83371 0.46228 0.0
C1502 C 0.12389 0.83513 0.48015 0.0
C1503 C 0.64023 0.83328 0.18516 0.0
C1504 C 0.61076 0.80685 0.17792 0.0
C1505 C 0.6518 0.83587 0.20324 0.0
C1506 C 0.6341 0.81231 0.21472 0.0
H1507 H 0.65493 0.85154 0.17664 0.0
H1508 H 0.67492 0.85626 0.20821 0.0
S1509 S 0.55476 0.73932 0.20253 0.0
N1510 N 0.56346 0.75744 0.18377 0.0
N1511 N 0.5853 0.76218 0.21773 0.0
C1512 C 0.60416 0.78627 0.20779 0.0
C1513 C 0.59249 0.78354 0.18938 0.0
C1514 C 0.17636 0.83053 0.18133 0.0
C1515 C 0.1948 0.81592 0.17832 0.0
C1516 C 0.16556 0.83166 0.19832 0.0
C1517 C 0.17329 0.81868 0.2129 0.0
H1518 H 0.16953 0.84036 0.17034 0.0
H1519 H 0.1511 0.8428 0.20008 0.0
S1520 S 0.22183 0.77885 0.21214 0.0
N1521 N 0.22088 0.78882 0.19132 0.0
N1522 N 0.2009 0.79133 0.22336 0.0
C1523 C 0.19228 0.80464 0.21016 0.0
C1524 C 0.20292 0.80313 0.19282 0.0
C1525 C 0.19232 0.39583 0.19705 0.0
C1526 C 0.19959 0.37853 0.1841 0.0
C1527 C 0.18283 0.38452 0.21386 0.0
C1528 C 0.18003 0.35535 0.21836 0.0
H1529 H 0.19346 0.41807 0.19404 0.0
H1530 H 0.17661 0.39823 0.22317 0.0
S1531 S 0.19825 0.30192 0.18974 0.0
N1532 N 0.20453 0.33134 0.17722 0.0
N1533 N 0.18727 0.3104 0.20899 0.0
C1534 C 0.18828 0.33835 0.2058 0.0
C1535 C 0.198 0.3499 0.18867 0.0
C1536 C 0.84093 0.63896 0.82199 0.0
C1537 C 0.80834 0.61887 0.82413 0.0
C1538 C 0.85097 0.65178 0.80559 0.0
C1539 C 0.82885 0.64497 0.79058 0.0
H1540 H 0.85892 0.64491 0.83314 0.0
H1541 H 0.87636 0.66677 0.80458 0.0
S1542 S 0.74065 0.59415 0.78913 0.0
N1543 N 0.75386 0.59288 0.80985 0.0
N1544 N 0.77271 0.61742 0.77902 0.0
C1545 C 0.79612 0.62514 0.79254 0.0
C1546 C 0.78587 0.61211 0.80932 0.0
C1547 C 0.40293 0.20548 0.82149 0.0
C1548 C 0.38439 0.18224 0.83293 0.0
C1549 C 0.39211 0.20302 0.8033 0.0
C1550 C 0.3622 0.17742 0.79594 0.0
H1551 H 0.4258 0.226 0.82674 0.0
H1552 H 0.4068 0.2219 0.7951 0.0
S1553 S 0.30524 0.10948 0.81995 0.0
N1554 N 0.33525 0.13221 0.83548 0.0
N1555 N 0.3149 0.12751 0.80119 0.0
C1556 C 0.3438 0.15354 0.80709 0.0
C1557 C 0.35494 0.15593 0.8256 0.0
C1558 C 0.83792 0.21449 0.82143 0.0
C1559 C 0.81721 0.18561 0.8286 0.0
C1560 C 0.84696 0.21453 0.80385 0.0
C1561 C 0.83569 0.18568 0.79271 0.0
H1562 H 0.84744 0.23734 0.82952 0.0
H1563 H 0.86354 0.23732 0.79912 0.0
S1564 S 0.77948 0.10364 0.80453 0.0
N1565 N 0.78494 0.12739 0.82294 0.0
N1566 N 0.80124 0.12755 0.78967 0.0
C1567 C 0.81425 0.15667 0.79948 0.0
C1568 C 0.8051 0.15661 0.81744 0.0
C1569 C 0.31005 0.17689 0.52155 0.0
C1570 C 0.28241 0.14952 0.51317 0.0
C1571 C 0.32063 0.17827 0.53968 0.0
C1572 C 0.30371 0.15248 0.55007 0.0
H1573 H 0.32423 0.19682 0.51385 0.0
H1574 H 0.3425 0.19943 0.54554 0.0
S1575 S 0.22871 0.07634 0.53469 0.0
N1576 N 0.23733 0.09688 0.51681 0.0
N1577 N 0.25735 0.09934 0.55085 0.0
C1578 C 0.27537 0.12551 0.54203 0.0
C1579 C 0.26471 0.12406 0.52357 0.0
C1580 C 0.82756 0.13836 0.51619 0.0
C1581 C 0.85987 0.15146 0.51303 0.0
C1582 C 0.81855 0.13936 0.53368 0.0
C1583 C 0.84146 0.15352 0.54878 0.0
H1584 H 0.80895 0.12691 0.50504 0.0
H1585 H 0.79329 0.12817 0.5354 0.0
S1586 S 0.92942 0.19268 0.5478 0.0
N1587 N 0.915 0.17976 0.52643 0.0
N1588 N 0.8981 0.1824 0.55933 0.0
C1589 C 0.87396 0.16747 0.5458 0.0
C1590 C 0.88316 0.16639 0.52792 0.0
C1591 C 0.86435 0.73368 0.53156 0.0
C1592 C 0.87118 0.7169 0.51803 0.0
C1593 C 0.85533 0.72159 0.54828 0.0
C1594 C 0.85253 0.69209 0.55208 0.0
H1595 H 0.86553 0.75616 0.52909 0.0
H1596 H 0.8495 0.73493 0.55809 0.0
S1597 S 0.8694 0.6396 0.5217 0.0
N1598 N 0.87552 0.66974 0.50983 0.0
N1599 N 0.8591 0.6473 0.54138 0.0
C1600 C 0.86024 0.67555 0.53891 0.0
C1601 C 0.8695 0.68791 0.52189 0.0
loop_
_geom_bond_atom_site_label_1
_geom_bond_atom_site_label_2
_geom_bond_distance
_geom_bond_site_symmetry_2
_ccdc_geom_bond_type
C0 C1 1.384 . S
C0 H13 0.947 . S
C0 C35 1.382 . S
C1 C0 1.384 . S
C1 C2 1.378 . S
C2 C1 1.378 . S
C2 C3 1.378 . S
C2 H14 0.952 . S
C3 C2 1.378 . S
C3 H15 0.950 . S
C3 C34 1.383 . S
H4 C23 0.947 . S
H5 C24 0.946 . S
H6 C26 0.953 . S
H7 C27 0.945 . S
H8 C29 0.952 . S
H9 C30 0.949 . S
H10 C32 0.950 . S
H11 C33 0.948 . S
H12 C35 0.951 . S
H13 C0 0.947 . S
H14 C2 0.952 . S
H15 C3 0.950 . S
N16 C19 1.382 . S
N16 C21 1.363 . S
N17 C19 1.371 . S
N17 C20 1.372 . S
N18 C20 1.361 . S
N18 C21 1.377 . S
C19 N16 1.382 . S
C19 N17 1.371 . S
C19 C22 1.480 . S
C20 N17 1.372 . S
C20 N18 1.361 . S
C20 C28 1.457 . S
C21 N16 1.363 . S
C21 N18 1.377 . S
C21 C34 1.479 . S
C22 C19 1.480 . S
C22 C23 1.383 . S
C22 C27 1.385 . S
C23 H4 0.947 . S
C23 C22 1.383 . S
C23 C24 1.388 . S
C24 H5 0.946 . S
C24 C23 1.388 . S
C24 C25 1.384 . S
C25 C24 1.384 . S
C25 C26 1.377 . S
C26 H6 0.953 . S
C26 C25 1.377 . S
C26 C27 1.369 . S
C27 H7 0.945 . S
C27 C22 1.385 . S
C27 C26 1.369 . S
C28 C20 1.457 . S
C28 C29 1.372 . S
C28 C33 1.364 . S
C29 H8 0.952 . S
C29 C28 1.372 . S
C29 C30 1.389 . S
C30 H9 0.949 . S
C30 C29 1.389 . S
C30 C31 1.387 . S
C31 C30 1.387 . S
C31 C32 1.372 . S
C32 H10 0.950 . S
C32 C31 1.372 . S
C32 C33 1.379 . S
C33 H11 0.948 . S
C33 C28 1.364 . S
C33 C32 1.379 . S
C34 C3 1.383 . S
C34 C21 1.479 . S
C34 C35 1.398 . S
C35 C0 1.382 . S
C35 H12 0.951 . S
C35 C34 1.398 . S
C36 C37 1.384 . S
C36 H49 0.947 . S
C36 C71 1.382 . S
C37 C36 1.384 . S
C37 C38 1.378 . S
C38 C37 1.378 . S
C38 C39 1.378 . S
C38 H50 0.952 . S
C39 C38 1.378 . S
C39 H51 0.950 . S
C39 C70 1.383 . S
H40 C59 0.947 . S
H41 C60 0.946 . S
H42 C62 0.953 . S
H43 C63 0.945 . S
H44 C65 0.952 . S
H45 C66 0.949 . S
H46 C68 0.950 . S
H47 C69 0.948 . S
H48 C71 0.951 . S
H49 C36 0.947 . S
H50 C38 0.952 . S
H51 C39 0.950 . S
N52 C55 1.382 . S
N52 C57 1.363 . S
N53 C55 1.371 . S
N53 C56 1.372 . S
N54 C56 1.361 . S
N54 C57 1.377 . S
C55 N52 1.382 . S
C55 N53 1.371 . S
C55 C58 1.480 . S
C56 N53 1.372 . S
C56 N54 1.361 . S
C56 C64 1.457 . S
C57 N52 1.363 . S
C57 N54 1.377 . S
C57 C70 1.479 . S
C58 C55 1.480 . S
C58 C59 1.383 . S
C58 C63 1.385 . S
C59 H40 0.947 . S
C59 C58 1.383 . S
C59 C60 1.388 . S
C60 H41 0.946 . S
C60 C59 1.388 . S
C60 C61 1.384 . S
C61 C60 1.384 . S
C61 C62 1.377 . S
C62 H42 0.953 . S
C62 C61 1.377 . S
C62 C63 1.369 . S
C63 H43 0.945 . S
C63 C58 1.385 . S
C63 C62 1.369 . S
C64 C56 1.457 . S
C64 C65 1.372 . S
C64 C69 1.364 . S
C65 H44 0.952 . S
C65 C64 1.372 . S
C65 C66 1.389 . S
C66 H45 0.949 . S
C66 C65 1.389 . S
C66 C67 1.387 . S
C67 C66 1.387 . S
C67 C68 1.372 . S
C68 H46 0.950 . S
C68 C67 1.372 . S
C68 C69 1.379 . S
C69 H47 0.948 . S
C69 C64 1.364 . S
C69 C68 1.379 . S
C70 C39 1.383 . S
C70 C57 1.479 . S
C70 C71 1.398 . S
C71 C36 1.382 . S
C71 H48 0.951 . S
C71 C70 1.398 . S
C72 C73 1.384 . S
C72 H85 0.947 . S
C72 C107 1.382 . S
C73 C72 1.384 . S
C73 C74 1.378 . S
C74 C73 1.378 . S
C74 C75 1.378 . S
C74 H86 0.952 . S
C75 C74 1.378 . S
C75 H87 0.950 . S
C75 C106 1.383 . S
H76 C95 0.947 . S
H77 C96 0.946 . S
H78 C98 0.953 . S
H79 C99 0.945 . S
H80 C101 0.952 . S
H81 C102 0.949 . S
H82 C104 0.950 . S
H83 C105 0.948 . S
H84 C107 0.951 . S
H85 C72 0.947 . S
H86 C74 0.952 . S
H87 C75 0.950 . S
N88 C91 1.382 . S
N88 C93 1.363 . S
N89 C91 1.371 . S
N89 C92 1.372 . S
N90 C92 1.361 . S
N90 C93 1.377 . S
C91 N88 1.382 . S
C91 N89 1.371 . S
C91 C94 1.480 . S
C92 N89 1.372 . S
C92 N90 1.361 . S
C92 C100 1.457 . S
C93 N88 1.363 . S
C93 N90 1.377 . S
C93 C106 1.479 . S
C94 C91 1.480 . S
C94 C95 1.383 . S
C94 C99 1.385 . S
C95 H76 0.947 . S
C95 C94 1.383 . S
C95 C96 1.388 . S
C96 H77 0.946 . S
C96 C95 1.388 . S
C96 C97 1.384 . S
C97 C96 1.384 . S
C97 C98 1.377 . S
C98 H78 0.953 . S
C98 C97 1.377 . S
C98 C99 1.369 . S
C99 H79 0.945 . S
C99 C94 1.385 . S
C99 C98 1.369 . S
C100 C92 1.457 . S
C100 C101 1.372 . S
C100 C105 1.364 . S
C101 H80 0.952 . S
C101 C100 1.372 . S
C101 C102 1.389 . S
C102 H81 0.949 . S
C102 C101 1.389 . S
C102 C103 1.387 . S
C103 C102 1.387 . S
C103 C104 1.372 . S
C104 H82 0.950 . S
C104 C103 1.372 . S
C104 C105 1.379 . S
C105 H83 0.948 . S
C105 C100 1.364 . S
C105 C104 1.379 . S
C106 C75 1.383 . S
C106 C93 1.479 . S
C106 C107 1.398 . S
C107 C72 1.382 . S
C107 H84 0.951 . S
C107 C106 1.398 . S
C108 C109 1.384 . S
C108 H121 0.948 . S
C108 C143 1.382 . S
C109 C108 1.384 . S
C109 C110 1.378 . S
C110 C109 1.378 . S
C110 C111 1.378 . S
C110 H122 0.952 . S
C111 C110 1.378 . S
C111 H123 0.950 . S
C111 C142 1.383 . S
H112 C131 0.947 . S
H113 C132 0.946 . S
H114 C134 0.953 . S
H115 C135 0.945 . S
H116 C137 0.952 . S
H117 C138 0.949 . S
H118 C140 0.950 . S
H119 C141 0.948 . S
H120 C143 0.951 . S
H121 C108 0.948 . S
H122 C110 0.952 . S
H123 C111 0.950 . S
N124 C127 1.382 . S
N124 C129 1.363 . S
N125 C127 1.371 . S
N125 C128 1.372 . S
N126 C128 1.361 . S
N126 C129 1.377 . S
C127 N124 1.382 . S
C127 N125 1.371 . S
C127 C130 1.480 . S
C128 N125 1.372 . S
C128 N126 1.361 . S
C128 C136 1.457 . S
C129 N124 1.363 . S
C129 N126 1.377 . S
C129 C142 1.479 . S
C130 C127 1.480 . S
C130 C131 1.383 . S
C130 C135 1.385 . S
C131 H112 0.947 . S
C131 C130 1.383 . S
C131 C132 1.388 . S
C132 H113 0.946 . S
C132 C131 1.388 . S
C132 C133 1.384 . S
C133 C132 1.384 . S
C133 C134 1.377 . S
C134 H114 0.953 . S
C134 C133 1.377 . S
C134 C135 1.369 . S
C135 H115 0.945 . S
C135 C130 1.385 . S
C135 C134 1.369 . S
C136 C128 1.457 . S
C136 C137 1.372 . S
C136 C141 1.364 . S
C137 H116 0.952 . S
C137 C136 1.372 . S
C137 C138 1.389 . S
C138 H117 0.949 . S
C138 C137 1.389 . S
C138 C139 1.387 . S
C139 C138 1.387 . S
C139 C140 1.372 . S
C140 H118 0.950 . S
C140 C139 1.372 . S
C140 C141 1.379 . S
C141 H119 0.948 . S
C141 C136 1.364 . S
C141 C140 1.379 . S
C142 C111 1.383 . S
C142 C129 1.479 . S
C142 C143 1.398 . S
C143 C108 1.382 . S
C143 H120 0.951 . S
C143 C142 1.398 . S
C144 C145 1.384 . S
C144 H157 0.947 . S
C144 C179 1.382 . S
C145 C144 1.384 . S
C145 C146 1.378 . S
C146 C145 1.378 . S
C146 C147 1.378 . S
C146 H158 0.952 . S
C147 C146 1.378 . S
C147 H159 0.950 . S
C147 C178 1.383 . S
H148 C167 0.947 . S
H149 C168 0.946 . S
H150 C170 0.953 . S
H151 C171 0.945 . S
H152 C173 0.952 . S
H153 C174 0.949 . S
H154 C176 0.950 . S
H155 C177 0.948 . S
H156 C179 0.951 . S
H157 C144 0.947 . S
H158 C146 0.952 . S
H159 C147 0.950 . S
N160 C163 1.382 . S
N160 C165 1.363 . S
N161 C163 1.371 . S
N161 C164 1.372 . S
N162 C164 1.361 . S
N162 C165 1.377 . S
C163 N160 1.382 . S
C163 N161 1.371 . S
C163 C166 1.480 . S
C164 N161 1.372 . S
C164 N162 1.361 . S
C164 C172 1.457 . S
C165 N160 1.363 . S
C165 N162 1.377 . S
C165 C178 1.479 . S
C166 C163 1.480 . S
C166 C167 1.383 . S
C166 C171 1.385 . S
C167 H148 0.947 . S
C167 C166 1.383 . S
C167 C168 1.388 . S
C168 H149 0.946 . S
C168 C167 1.388 . S
C168 C169 1.384 . S
C169 C168 1.384 . S
C169 C170 1.377 . S
C170 H150 0.953 . S
C170 C169 1.377 . S
C170 C171 1.369 . S
C171 H151 0.945 . S
C171 C166 1.385 . S
C171 C170 1.369 . S
C172 C164 1.457 . S
C172 C173 1.372 . S
C172 C177 1.364 . S
C173 H152 0.952 . S
C173 C172 1.372 . S
C173 C174 1.389 . S
C174 H153 0.949 . S
C174 C173 1.389 . S
C174 C175 1.387 . S
C175 C174 1.387 . S
C175 C176 1.372 . S
C176 H154 0.950 . S
C176 C175 1.372 . S
C176 C177 1.379 . S
C177 H155 0.948 . S
C177 C172 1.364 . S
C177 C176 1.379 . S
C178 C147 1.383 . S
C178 C165 1.479 . S
C178 C179 1.398 . S
C179 C144 1.382 . S
C179 H156 0.951 . S
C179 C178 1.398 . S
C180 C181 1.384 . S
C180 H193 0.947 . S
C180 C215 1.382 . S
C181 C180 1.384 . S
C181 C182 1.378 . S
C182 C181 1.378 . S
C182 C183 1.378 . S
C182 H194 0.952 . S
C183 C182 1.378 . S
C183 H195 0.950 . S
C183 C214 1.383 . S
H184 C203 0.947 . S
H185 C204 0.946 . S
H186 C206 0.953 . S
H187 C207 0.945 . S
H188 C209 0.952 . S
H189 C210 0.949 . S
H190 C212 0.950 . S
H191 C213 0.948 . S
H192 C215 0.951 . S
H193 C180 0.947 . S
H194 C182 0.952 . S
H195 C183 0.950 . S
N196 C199 1.382 . S
N196 C201 1.363 . S
N197 C199 1.371 . S
N197 C200 1.372 . S
N198 C200 1.361 . S
N198 C201 1.377 . S
C199 N196 1.382 . S
C199 N197 1.371 . S
C199 C202 1.480 . S
C200 N197 1.372 . S
C200 N198 1.361 . S
C200 C208 1.457 . S
C201 N196 1.363 . S
C201 N198 1.377 . S
C201 C214 1.479 . S
C202 C199 1.480 . S
C202 C203 1.383 . S
C202 C207 1.385 . S
C203 H184 0.947 . S
C203 C202 1.383 . S
C203 C204 1.388 . S
C204 H185 0.946 . S
C204 C203 1.388 . S
C204 C205 1.384 . S
C205 C204 1.384 . S
C205 C206 1.377 . S
C206 H186 0.953 . S
C206 C205 1.377 . S
C206 C207 1.369 . S
C207 H187 0.945 . S
C207 C202 1.385 . S
C207 C206 1.369 . S
C208 C200 1.457 . S
C208 C209 1.372 . S
C208 C213 1.364 . S
C209 H188 0.952 . S
C209 C208 1.372 . S
C209 C210 1.389 . S
C210 H189 0.949 . S
C210 C209 1.389 . S
C210 C211 1.387 . S
C211 C210 1.387 . S
C211 C212 1.372 . S
C212 H190 0.950 . S
C212 C211 1.372 . S
C212 C213 1.379 . S
C213 H191 0.948 . S
C213 C208 1.364 . S
C213 C212 1.379 . S
C214 C183 1.383 . S
C214 C201 1.479 . S
C214 C215 1.398 . S
C215 C180 1.382 . S
C215 H192 0.951 . S
C215 C214 1.398 . S
C216 C217 1.384 . S
C216 H229 0.947 . S
C216 C251 1.382 . S
C217 C216 1.384 . S
C217 C218 1.378 . S
C218 C217 1.378 . S
C218 C219 1.378 . S
C218 H230 0.952 . S
C219 C218 1.378 . S
C219 H231 0.950 . S
C219 C250 1.383 . S
H220 C239 0.947 . S
H221 C240 0.946 . S
H222 C242 0.953 . S
H223 C243 0.945 . S
H224 C245 0.952 . S
H225 C246 0.949 . S
H226 C248 0.934 1_455 S
H227 C249 0.948 . S
H228 C251 0.951 . S
H229 C216 0.947 . S
H230 C218 0.952 . S
H231 C219 0.950 . S
N232 C235 1.382 . S
N232 C237 1.363 . S
N233 C235 1.371 . S
N233 C236 1.372 . S
N234 C236 1.361 . S
N234 C237 1.377 . S
C235 N232 1.382 . S
C235 N233 1.371 . S
C235 C238 1.480 . S
C236 N233 1.372 . S
C236 N234 1.361 . S
C236 C244 1.457 . S
C237 N232 1.363 . S
C237 N234 1.377 . S
C237 C250 1.479 . S
C238 C235 1.480 . S
C238 C239 1.383 . S
C238 C243 1.385 . S
C239 H220 0.947 . S
C239 C238 1.383 . S
C239 C240 1.388 . S
C240 H221 0.946 . S
C240 C239 1.388 . S
C240 C241 1.384 . S
C241 C240 1.384 . S
C241 C242 1.377 . S
C242 H222 0.953 . S
C242 C241 1.377 . S
C242 C243 1.369 . S
C243 H223 0.945 . S
C243 C238 1.385 . S
C243 C242 1.369 . S
C244 C236 1.457 . S
C244 C245 1.372 . S
C244 C249 1.364 . S
C245 H224 0.952 . S
C245 C244 1.372 . S
C245 C246 1.389 . S
C246 H225 0.949 . S
C246 C245 1.389 . S
C246 C247 1.387 . S
C247 C246 1.387 . S
C247 C248 1.385 . S
C248 H226 0.934 1_655 S
C248 C247 1.385 . S
C248 C249 1.382 . S
C249 H227 0.948 . S
C249 C244 1.364 . S
C249 C248 1.382 . S
C250 C219 1.383 . S
C250 C237 1.479 . S
C250 C251 1.398 . S
C251 C216 1.382 . S
C251 H228 0.951 . S
C251 C250 1.398 . S
C252 C253 1.384 . S
C252 H265 0.947 . S
C252 C287 1.382 . S
C253 C252 1.384 . S
C253 C254 1.378 . S
C254 C253 1.378 . S
C254 C255 1.378 . S
C254 H266 0.952 . S
C255 C254 1.378 . S
C255 H267 0.950 . S
C255 C286 1.383 . S
H256 C275 0.947 . S
H257 C276 0.946 . S
H258 C278 0.953 . S
H259 C279 0.945 . S
H260 C281 0.952 . S
H261 C282 0.949 . S
H262 C284 0.950 . S
H263 C285 0.948 . S
H264 C287 0.951 . S
H265 C252 0.947 . S
H266 C254 0.952 . S
H267 C255 0.950 . S
N268 C271 1.382 . S
N268 C273 1.363 . S
N269 C271 1.371 . S
N269 C272 1.372 . S
N270 C272 1.361 . S
N270 C273 1.377 . S
C271 N268 1.382 . S
C271 N269 1.371 . S
C271 C274 1.480 . S
C272 N269 1.372 . S
C272 N270 1.361 . S
C272 C280 1.457 . S
C273 N268 1.363 . S
C273 N270 1.377 . S
C273 C286 1.479 . S
C274 C271 1.480 . S
C274 C275 1.383 . S
C274 C279 1.385 . S
C275 H256 0.947 . S
C275 C274 1.383 . S
C275 C276 1.388 . S
C276 H257 0.946 . S
C276 C275 1.388 . S
C276 C277 1.384 . S
C277 C276 1.384 . S
C277 C278 1.377 . S
C278 H258 0.953 . S
C278 C277 1.377 . S
C278 C279 1.369 . S
C279 H259 0.945 . S
C279 C274 1.385 . S
C279 C278 1.369 . S
C280 C272 1.457 . S
C280 C281 1.372 . S
C280 C285 1.364 . S
C281 H260 0.952 . S
C281 C280 1.372 . S
C281 C282 1.389 . S
C282 H261 0.949 . S
C282 C281 1.389 . S
C282 C283 1.387 . S
C283 C282 1.387 . S
C283 C284 1.372 . S
C284 H262 0.950 . S
C284 C283 1.372 . S
C284 C285 1.379 . S
C285 H263 0.948 . S
C285 C280 1.364 . S
C285 C284 1.379 . S
C286 C255 1.383 . S
C286 C273 1.479 . S
C286 C287 1.398 . S
C287 C252 1.382 . S
C287 H264 0.951 . S
C287 C286 1.398 . S
C288 C289 1.384 . S
C288 H301 0.947 . S
C288 C323 1.382 . S
C289 C288 1.384 . S
C289 C290 1.378 . S
C290 C289 1.378 . S
C290 C291 1.378 . S
C290 H302 0.952 . S
C291 C290 1.378 . S
C291 H303 0.950 . S
C291 C322 1.383 . S
H292 C311 0.947 . S
H293 C312 0.946 . S
H294 C314 0.953 . S
H295 C315 0.945 . S
H296 C317 0.952 . S
H297 C318 0.949 . S
H298 C320 0.950 . S
H299 C321 0.948 . S
H300 C323 0.951 . S
H301 C288 0.947 . S
H302 C290 0.952 . S
H303 C291 0.950 . S
N304 C307 1.382 . S
N304 C309 1.363 . S
N305 C307 1.371 . S
N305 C308 1.372 . S
N306 C308 1.361 . S
N306 C309 1.377 . S
C307 N304 1.382 . S
C307 N305 1.371 . S
C307 C310 1.480 . S
C308 N305 1.372 . S
C308 N306 1.361 . S
C308 C316 1.457 . S
C309 N304 1.363 . S
C309 N306 1.377 . S
C309 C322 1.479 . S
C310 C307 1.480 . S
C310 C311 1.383 . S
C310 C315 1.385 . S
C311 H292 0.947 . S
C311 C310 1.383 . S
C311 C312 1.388 . S
C312 H293 0.946 . S
C312 C311 1.388 . S
C312 C313 1.384 . S
C313 C312 1.384 . S
C313 C314 1.377 . S
C314 H294 0.953 . S
C314 C313 1.377 . S
C314 C315 1.369 . S
C315 H295 0.945 . S
C315 C310 1.385 . S
C315 C314 1.369 . S
C316 C308 1.457 . S
C316 C317 1.372 . S
C316 C321 1.364 . S
C317 H296 0.952 . S
C317 C316 1.372 . S
C317 C318 1.389 . S
C318 H297 0.949 . S
C318 C317 1.389 . S
C318 C319 1.387 . S
C319 C318 1.387 . S
C319 C320 1.372 . S
C320 H298 0.950 . S
C320 C319 1.372 . S
C320 C321 1.379 . S
C321 H299 0.948 . S
C321 C316 1.364 . S
C321 C320 1.379 . S
C322 C291 1.383 . S
C322 C309 1.479 . S
C322 C323 1.398 . S
C323 C288 1.382 . S
C323 H300 0.951 . S
C323 C322 1.398 . S
C324 C325 1.384 . S
C324 H337 0.947 . S
C324 C359 1.382 . S
C325 C324 1.384 . S
C325 C326 1.378 . S
C326 C325 1.378 . S
C326 C327 1.378 . S
C326 H338 0.952 . S
C327 C326 1.378 . S
C327 H339 0.950 . S
C327 C358 1.383 . S
H328 C347 0.947 . S
H329 C348 0.946 . S
H330 C350 0.953 . S
H331 C351 0.945 . S
H332 C353 0.952 . S
H333 C354 0.949 . S
H334 C356 0.950 . S
H335 C357 0.948 . S
H336 C359 0.951 . S
H337 C324 0.947 . S
H338 C326 0.952 . S
H339 C327 0.950 . S
N340 C343 1.382 . S
N340 C345 1.363 . S
N341 C343 1.371 . S
N341 C344 1.372 . S
N342 C344 1.361 . S
N342 C345 1.377 . S
C343 N340 1.382 . S
C343 N341 1.371 . S
C343 C346 1.480 . S
C344 N341 1.372 . S
C344 N342 1.361 . S
C344 C352 1.457 . S
C345 N340 1.363 . S
C345 N342 1.377 . S
C345 C358 1.479 . S
C346 C343 1.480 . S
C346 C347 1.383 . S
C346 C351 1.385 . S
C347 H328 0.947 . S
C347 C346 1.383 . S
C347 C348 1.388 . S
C348 H329 0.946 . S
C348 C347 1.388 . S
C348 C349 1.384 . S
C349 C348 1.384 . S
C349 C350 1.377 . S
C350 H330 0.953 . S
C350 C349 1.377 . S
C350 C351 1.369 . S
C351 H331 0.945 . S
C351 C346 1.385 . S
C351 C350 1.369 . S
C352 C344 1.457 . S
C352 C353 1.372 . S
C352 C357 1.364 . S
C353 H332 0.952 . S
C353 C352 1.372 . S
C353 C354 1.389 . S
C354 H333 0.949 . S
C354 C353 1.389 . S
C354 C355 1.387 . S
C355 C354 1.387 . S
C355 C356 1.372 . S
C356 H334 0.950 . S
C356 C355 1.372 . S
C356 C357 1.379 . S
C357 H335 0.948 . S
C357 C352 1.364 . S
C357 C356 1.379 . S
C358 C327 1.383 . S
C358 C345 1.479 . S
C358 C359 1.398 . S
C359 C324 1.382 . S
C359 H336 0.951 . S
C359 C358 1.398 . S
C360 C361 1.384 . S
C360 H373 0.947 . S
C360 C395 1.382 . S
C361 C360 1.384 . S
C361 C362 1.378 . S
C362 C361 1.378 . S
C362 C363 1.378 . S
C362 H374 0.916 1_556 S
C363 C362 1.378 . S
C363 H375 0.950 . S
C363 C394 1.383 . S
H364 C383 0.947 . S
H365 C384 0.946 1_554 S
H366 C386 0.953 . S
H367 C387 0.945 . S
H368 C389 0.952 . S
H369 C390 0.949 . S
H370 C392 0.950 . S
H371 C393 0.948 . S
H372 C395 0.951 . S
H373 C360 0.947 . S
H374 C362 0.916 1_554 S
H375 C363 0.950 . S
N376 C379 1.382 . S
N376 C381 1.363 . S
N377 C379 1.371 . S
N377 C380 1.372 . S
N378 C380 1.361 . S
N378 C381 1.377 . S
C379 N376 1.382 . S
C379 N377 1.371 . S
C379 C382 1.480 . S
C380 N377 1.372 . S
C380 N378 1.361 . S
C380 C388 1.457 . S
C381 N376 1.363 . S
C381 N378 1.377 . S
C381 C394 1.479 . S
C382 C379 1.480 . S
C382 C383 1.383 . S
C382 C387 1.385 . S
C383 H364 0.947 . S
C383 C382 1.383 . S
C383 C384 1.388 . S
C384 H365 0.946 1_556 S
C384 C383 1.388 . S
C384 C385 1.384 . S
C385 C384 1.384 . S
C385 C386 1.377 . S
C386 H366 0.953 . S
C386 C385 1.377 . S
C386 C387 1.369 . S
C387 H367 0.945 . S
C387 C382 1.385 . S
C387 C386 1.369 . S
C388 C380 1.457 . S
C388 C389 1.372 . S
C388 C393 1.364 . S
C389 H368 0.952 . S
C389 C388 1.372 . S
C389 C390 1.389 . S
C390 H369 0.949 . S
C390 C389 1.389 . S
C390 C391 1.387 . S
C391 C390 1.387 . S
C391 C392 1.372 . S
C392 H370 0.950 . S
C392 C391 1.372 . S
C392 C393 1.379 . S
C393 H371 0.948 . S
C393 C388 1.364 . S
C393 C392 1.379 . S
C394 C363 1.383 . S
C394 C381 1.479 . S
C394 C395 1.398 . S
C395 C360 1.382 . S
C395 H372 0.951 . S
C395 C394 1.398 . S
C396 C397 1.384 . S
C396 H409 0.947 . S
C396 C431 1.382 . S
C397 C396 1.384 . S
C397 C398 1.378 . S
C398 C397 1.378 . S
C398 C399 1.378 . S
C398 H410 0.952 . S
C399 C398 1.378 . S
C399 H411 0.950 . S
C399 C430 1.383 . S
H400 C419 0.947 . S
H401 C420 0.946 . S
H402 C422 0.953 . S
H403 C423 0.945 . S
H404 C425 0.952 . S
H405 C426 0.949 . S
H406 C428 0.950 . S
H407 C429 0.948 . S
H408 C431 0.951 . S
H409 C396 0.947 . S
H410 C398 0.952 . S
H411 C399 0.950 . S
N412 C415 1.382 . S
N412 C417 1.363 . S
N413 C415 1.371 . S
N413 C416 1.372 . S
N414 C416 1.361 . S
N414 C417 1.377 . S
C415 N412 1.382 . S
C415 N413 1.371 . S
C415 C418 1.480 . S
C416 N413 1.372 . S
C416 N414 1.361 . S
C416 C424 1.457 . S
C417 N412 1.363 . S
C417 N414 1.377 . S
C417 C430 1.479 . S
C418 C415 1.480 . S
C418 C419 1.383 . S
C418 C423 1.385 . S
C419 H400 0.947 . S
C419 C418 1.383 . S
C419 C420 1.388 . S
C420 H401 0.946 . S
C420 C419 1.388 . S
C420 C421 1.384 . S
C421 C420 1.384 . S
C421 C422 1.377 . S
C422 H402 0.953 . S
C422 C421 1.377 . S
C422 C423 1.369 . S
C423 H403 0.945 . S
C423 C418 1.385 . S
C423 C422 1.369 . S
C424 C416 1.457 . S
C424 C425 1.372 . S
C424 C429 1.364 . S
C425 H404 0.952 . S
C425 C424 1.372 . S
C425 C426 1.389 . S
C426 H405 0.949 . S
C426 C425 1.389 . S
C426 C427 1.387 . S
C427 C426 1.387 . S
C427 C428 1.372 . S
C428 H406 0.950 . S
C428 C427 1.372 . S
C428 C429 1.379 . S
C429 H407 0.948 . S
C429 C424 1.364 . S
C429 C428 1.379 . S
C430 C399 1.383 . S
C430 C417 1.479 . S
C430 C431 1.398 . S
C431 C396 1.382 . S
C431 H408 0.951 . S
C431 C430 1.398 . S
C432 C433 1.384 . S
C432 H445 0.947 . S
C432 C467 1.382 . S
C433 C432 1.384 . S
C433 C434 1.378 . S
C434 C433 1.378 . S
C434 C435 1.378 . S
C434 H446 0.945 . S
C435 C434 1.378 . S
C435 H447 0.950 . S
C435 C466 1.383 . S
H436 C455 0.947 . S
H437 C456 0.946 . S
H438 C458 0.953 . S
H439 C459 0.945 . S
H440 C461 0.952 . S
H441 C462 0.949 . S
H442 C464 0.950 . S
H443 C465 0.948 . S
H444 C467 0.951 . S
H445 C432 0.947 . S
H446 C434 0.945 . S
H447 C435 0.950 . S
N448 C451 1.382 . S
N448 C453 1.363 . S
N449 C451 1.371 . S
N449 C452 1.372 . S
N450 C452 1.361 . S
N450 C453 1.377 . S
C451 N448 1.382 . S
C451 N449 1.371 . S
C451 C454 1.480 . S
C452 N449 1.372 . S
C452 N450 1.361 . S
C452 C460 1.457 . S
C453 N448 1.363 . S
C453 N450 1.377 . S
C453 C466 1.479 . S
C454 C451 1.480 . S
C454 C455 1.383 . S
C454 C459 1.385 . S
C455 H436 0.947 . S
C455 C454 1.383 . S
C455 C456 1.388 . S
C456 H437 0.946 . S
C456 C455 1.388 . S
C456 C457 1.384 . S
C457 C456 1.384 . S
C457 C458 1.377 . S
C458 H438 0.953 . S
C458 C457 1.377 . S
C458 C459 1.369 . S
C459 H439 0.945 . S
C459 C454 1.385 . S
C459 C458 1.369 . S
C460 C452 1.457 . S
C460 C461 1.372 . S
C460 C465 1.364 . S
C461 H440 0.952 . S
C461 C460 1.372 . S
C461 C462 1.389 . S
C462 H441 0.949 . S
C462 C461 1.389 . S
C462 C463 1.387 . S
C463 C462 1.387 . S
C463 C464 1.372 . S
C464 H442 0.950 . S
C464 C463 1.372 . S
C464 C465 1.379 . S
C465 H443 0.948 . S
C465 C460 1.364 . S
C465 C464 1.379 . S
C466 C435 1.383 . S
C466 C453 1.479 . S
C466 C467 1.398 . S
C467 C432 1.382 . S
C467 H444 0.951 . S
C467 C466 1.398 . S
C468 C469 1.384 . S
C468 H481 0.947 . S
C468 C503 1.382 . S
C469 C468 1.384 . S
C469 C470 1.378 . S
C470 C469 1.378 . S
C470 C471 1.378 . S
C470 H482 0.952 . S
C471 C470 1.378 . S
C471 H483 0.950 . S
C471 C502 1.383 . S
H472 C491 0.947 . S
H473 C492 0.946 . S
H474 C494 0.953 . S
H475 C495 0.945 . S
H476 C497 0.952 . S
H477 C498 0.949 . S
H478 C500 0.950 . S
H479 C501 0.948 . S
H480 C503 0.951 . S
H481 C468 0.947 . S
H482 C470 0.952 . S
H483 C471 0.950 . S
N484 C487 1.382 . S
N484 C489 1.363 . S
N485 C487 1.371 . S
N485 C488 1.372 . S
N486 C488 1.361 . S
N486 C489 1.377 . S
C487 N484 1.382 . S
C487 N485 1.371 . S
C487 C490 1.480 . S
C488 N485 1.372 . S
C488 N486 1.361 . S
C488 C496 1.457 . S
C489 N484 1.363 . S
C489 N486 1.377 . S
C489 C502 1.479 . S
C490 C487 1.480 . S
C490 C491 1.383 . S
C490 C495 1.385 . S
C491 H472 0.947 . S
C491 C490 1.383 . S
C491 C492 1.388 . S
C492 H473 0.946 . S
C492 C491 1.388 . S
C492 C493 1.384 . S
C493 C492 1.384 . S
C493 C494 1.377 . S
C494 H474 0.953 . S
C494 C493 1.377 . S
C494 C495 1.369 . S
C495 H475 0.945 . S
C495 C490 1.385 . S
C495 C494 1.369 . S
C496 C488 1.457 . S
C496 C497 1.372 . S
C496 C501 1.364 . S
C497 H476 0.952 . S
C497 C496 1.372 . S
C497 C498 1.389 . S
C498 H477 0.949 . S
C498 C497 1.389 . S
C498 C499 1.387 . S
C499 C498 1.387 . S
C499 C500 1.372 . S
C500 H478 0.950 . S
C500 C499 1.372 . S
C500 C501 1.379 . S
C501 H479 0.948 . S
C501 C496 1.364 . S
C501 C500 1.379 . S
C502 C471 1.383 . S
C502 C489 1.479 . S
C502 C503 1.398 . S
C503 C468 1.382 . S
C503 H480 0.951 . S
C503 C502 1.398 . S
C504 C505 1.384 . S
C504 H517 0.947 . S
C504 C539 1.382 . S
C505 C504 1.384 . S
C505 C506 1.378 . S
C506 C505 1.378 . S
C506 C507 1.378 . S
C506 H518 0.952 . S
C507 C506 1.378 . S
C507 H519 0.950 . S
C507 C538 1.383 . S
H508 C527 0.947 . S
H509 C528 0.946 . S
H510 C530 0.953 . S
H511 C531 0.945 . S
H512 C533 0.952 . S
H513 C534 0.949 . S
H514 C536 0.950 . S
H515 C537 0.948 . S
H516 C539 0.951 . S
H517 C504 0.947 . S
H518 C506 0.952 . S
H519 C507 0.950 . S
N520 C523 1.382 . S
N520 C525 1.363 . S
N521 C523 1.371 . S
N521 C524 1.372 . S
N522 C524 1.361 . S
N522 C525 1.377 . S
C523 N520 1.382 . S
C523 N521 1.371 . S
C523 C526 1.480 . S
C524 N521 1.372 . S
C524 N522 1.361 . S
C524 C532 1.457 . S
C525 N520 1.363 . S
C525 N522 1.377 . S
C525 C538 1.479 . S
C526 C523 1.480 . S
C526 C527 1.383 . S
C526 C531 1.385 . S
C527 H508 0.947 . S
C527 C526 1.383 . S
C527 C528 1.388 . S
C528 H509 0.946 . S
C528 C527 1.388 . S
C528 C529 1.384 . S
C529 C528 1.384 . S
C529 C530 1.377 . S
C530 H510 0.953 . S
C530 C529 1.377 . S
C530 C531 1.369 . S
C531 H511 0.945 . S
C531 C526 1.385 . S
C531 C530 1.369 . S
C532 C524 1.457 . S
C532 C533 1.372 . S
C532 C537 1.364 . S
C533 H512 0.952 . S
C533 C532 1.372 . S
C533 C534 1.389 . S
C534 H513 0.949 . S
C534 C533 1.389 . S
C534 C535 1.387 . S
C535 C534 1.387 . S
C535 C536 1.372 . S
C536 H514 0.950 . S
C536 C535 1.372 . S
C536 C537 1.379 . S
C537 H515 0.948 . S
C537 C532 1.364 . S
C537 C536 1.379 . S
C538 C507 1.383 . S
C538 C525 1.479 . S
C538 C539 1.398 . S
C539 C504 1.382 . S
C539 H516 0.951 . S
C539 C538 1.398 . S
C540 C541 1.384 . S
C540 H553 0.947 . S
C540 C575 1.382 . S
C541 C540 1.384 . S
C541 C542 1.378 . S
C542 C541 1.378 . S
C542 C543 1.378 . S
C542 H554 0.952 . S
C543 C542 1.378 . S
C543 H555 0.950 . S
C543 C574 1.383 . S
H544 C563 0.947 . S
H545 C564 0.946 . S
H546 C566 0.953 . S
H547 C567 0.945 . S
H548 C569 0.952 . S
H549 C570 0.949 . S
H550 C572 0.950 . S
H551 C573 0.948 . S
H552 C575 0.951 . S
H553 C540 0.947 . S
H554 C542 0.952 . S
H555 C543 0.950 . S
N556 C559 1.382 . S
N556 C561 1.363 . S
N557 C559 1.371 . S
N557 C560 1.372 . S
N558 C560 1.361 . S
N558 C561 1.377 . S
C559 N556 1.382 . S
C559 N557 1.371 . S
C559 C562 1.480 . S
C560 N557 1.372 . S
C560 N558 1.361 . S
C560 C568 1.457 . S
C561 N556 1.363 . S
C561 N558 1.377 . S
C561 C574 1.479 . S
C562 C559 1.480 . S
C562 C563 1.383 . S
C562 C567 1.385 . S
C563 H544 0.947 . S
C563 C562 1.383 . S
C563 C564 1.388 . S
C564 H545 0.946 . S
C564 C563 1.388 . S
C564 C565 1.384 . S
C565 C564 1.384 . S
C565 C566 1.377 . S
C566 H546 0.953 . S
C566 C565 1.377 . S
C566 C567 1.369 . S
C567 H547 0.945 . S
C567 C562 1.385 . S
C567 C566 1.369 . S
C568 C560 1.457 . S
C568 C569 1.372 . S
C568 C573 1.364 . S
C569 H548 0.952 . S
C569 C568 1.372 . S
C569 C570 1.389 . S
C570 H549 0.949 . S
C570 C569 1.389 . S
C570 C571 1.387 . S
C571 C570 1.387 . S
C571 C572 1.372 . S
C572 H550 0.950 . S
C572 C571 1.372 . S
C572 C573 1.379 . S
C573 H551 0.948 . S
C573 C568 1.364 . S
C573 C572 1.379 . S
C574 C543 1.383 . S
C574 C561 1.479 . S
C574 C575 1.398 . S
C575 C540 1.382 . S
C575 H552 0.951 . S
C575 C574 1.398 . S
C576 C577 1.384 . S
C576 H589 0.947 . S
C576 C611 1.382 . S
C577 C576 1.384 . S
C577 C578 1.378 . S
C578 C577 1.378 . S
C578 C579 1.378 . S
C578 H590 0.952 . S
C579 C578 1.378 . S
C579 H591 0.950 . S
C579 C610 1.383 . S
H580 C599 0.947 . S
H581 C600 0.946 . S
H582 C602 0.953 . S
H583 C603 0.945 . S
H584 C605 0.952 . S
H585 C606 0.949 . S
H586 C608 0.952 1_655 S
H587 C609 0.948 . S
H588 C611 0.951 . S
H589 C576 0.947 . S
H590 C578 0.952 . S
H591 C579 0.950 . S
N592 C595 1.382 . S
N592 C597 1.363 . S
N593 C595 1.371 . S
N593 C596 1.372 . S
N594 C596 1.361 . S
N594 C597 1.377 . S
C595 N592 1.382 . S
C595 N593 1.371 . S
C595 C598 1.480 . S
C596 N593 1.372 . S
C596 N594 1.361 . S
C596 C604 1.457 . S
C597 N592 1.363 . S
C597 N594 1.377 . S
C597 C610 1.479 . S
C598 C595 1.480 . S
C598 C599 1.383 . S
C598 C603 1.385 . S
C599 H580 0.947 . S
C599 C598 1.383 . S
C599 C600 1.388 . S
C600 H581 0.946 . S
C600 C599 1.388 . S
C600 C601 1.384 . S
C601 C600 1.384 . S
C601 C602 1.377 . S
C602 H582 0.953 . S
C602 C601 1.377 . S
C602 C603 1.369 . S
C603 H583 0.945 . S
C603 C598 1.385 . S
C603 C602 1.369 . S
C604 C596 1.457 . S
C604 C605 1.372 . S
C604 C609 1.364 . S
C605 H584 0.952 . S
C605 C604 1.372 . S
C605 C606 1.389 . S
C606 H585 0.949 . S
C606 C605 1.389 . S
C606 C607 1.387 . S
C607 C606 1.387 . S
C607 C608 1.368 . S
C608 H586 0.952 1_455 S
C608 C607 1.368 . S
C608 C609 1.380 . S
C609 H587 0.948 . S
C609 C604 1.364 . S
C609 C608 1.380 . S
C610 C579 1.383 . S
C610 C597 1.479 . S
C610 C611 1.398 . S
C611 C576 1.382 . S
C611 H588 0.951 . S
C611 C610 1.398 . S
C612 C613 1.384 . S
C612 H625 0.947 . S
C612 C647 1.382 . S
C613 C612 1.384 . S
C613 C614 1.378 . S
C614 C613 1.378 . S
C614 C615 1.378 . S
C614 H626 0.952 . S
C615 C614 1.378 . S
C615 H627 0.950 . S
C615 C646 1.383 . S
H616 C635 0.947 . S
H617 C636 0.946 . S
H618 C638 0.953 . S
H619 C639 0.945 . S
H620 C641 0.952 . S
H621 C642 0.949 . S
H622 C644 0.950 . S
H623 C645 0.948 . S
H624 C647 0.951 . S
H625 C612 0.947 . S
H626 C614 0.952 . S
H627 C615 0.950 . S
N628 C631 1.382 . S
N628 C633 1.363 . S
N629 C631 1.371 . S
N629 C632 1.372 . S
N630 C632 1.361 . S
N630 C633 1.377 . S
C631 N628 1.382 . S
C631 N629 1.371 . S
C631 C634 1.480 . S
C632 N629 1.372 . S
C632 N630 1.361 . S
C632 C640 1.457 . S
C633 N628 1.363 . S
C633 N630 1.377 . S
C633 C646 1.479 . S
C634 C631 1.480 . S
C634 C635 1.383 . S
C634 C639 1.385 . S
C635 H616 0.947 . S
C635 C634 1.383 . S
C635 C636 1.388 . S
C636 H617 0.946 . S
C636 C635 1.388 . S
C636 C637 1.384 . S
C637 C636 1.384 . S
C637 C638 1.377 . S
C638 H618 0.953 . S
C638 C637 1.377 . S
C638 C639 1.369 . S
C639 H619 0.945 . S
C639 C634 1.385 . S
C639 C638 1.369 . S
C640 C632 1.457 . S
C640 C641 1.372 . S
C640 C645 1.364 . S
C641 H620 0.952 . S
C641 C640 1.372 . S
C641 C642 1.389 . S
C642 H621 0.949 . S
C642 C641 1.389 . S
C642 C643 1.387 . S
C643 C642 1.387 . S
C643 C644 1.372 . S
C644 H622 0.950 . S
C644 C643 1.372 . S
C644 C645 1.379 . S
C645 H623 0.948 . S
C645 C640 1.364 . S
C645 C644 1.379 . S
C646 C615 1.383 . S
C646 C633 1.479 . S
C646 C647 1.398 . S
C647 C612 1.382 . S
C647 H624 0.951 . S
C647 C646 1.398 . S
C648 Eu649 2.835 . S
C648 C650 1.500 . S
C648 O668 1.257 1_545 S
C648 O669 1.260 . S
Eu649 C648 2.835 . S
Eu649 O668 2.473 1_545 S
Eu649 O669 2.480 . S
Eu649 O670 2.430 . S
Eu649 O671 2.670 1_554 S
Eu649 O672 2.394 1_545 S
Eu649 O677 2.355 1_545 S
Eu649 O679 2.374 . S
C650 C648 1.500 . S
C650 C651 1.377 . S
C650 C655 1.377 1_545 S
C651 C650 1.377 . S
C651 C652 1.395 . S
C651 H680 0.931 . S
C652 C651 1.395 . S
C652 C653 1.383 1_545 S
C652 H681 0.931 . S
C653 C652 1.383 1_565 S
C653 C654 1.394 . S
C654 C653 1.394 . S
C654 C655 1.378 . S
C654 H682 0.931 . S
C655 C650 1.377 1_565 S
C655 C654 1.378 . S
C655 H683 0.931 . S
C656 O670 1.259 1_556 S
C656 O671 1.270 . S
C657 O672 1.251 . S
C657 O673 1.251 1_554 S
C658 Eu659 2.835 . S
C658 C660 1.500 . S
C658 O674 1.257 1_565 S
C658 O675 1.260 . S
Eu659 C658 2.835 . S
Eu659 O671 2.355 1_565 S
Eu659 O673 2.374 . S
Eu659 O674 2.473 1_565 S
Eu659 O675 2.480 . S
Eu659 O676 2.430 . S
Eu659 O677 2.670 1_556 S
Eu659 O678 2.394 1_565 S
C660 C658 1.500 . S
C660 C661 1.377 . S
C660 C665 1.377 1_565 S
C661 C660 1.377 . S
C661 C662 1.395 . S
C661 H684 0.931 . S
C662 C661 1.395 . S
C662 C663 1.383 1_565 S
C662 H685 0.931 . S
C663 C662 1.383 1_545 S
C663 C664 1.394 . S
C664 C663 1.394 . S
C664 C665 1.378 . S
C664 H686 0.931 . S
C665 C660 1.377 1_545 S
C665 C664 1.378 . S
C665 H687 0.931 . S
C666 O676 1.259 1_554 S
C666 O677 1.270 . S
C667 O678 1.251 . S
C667 O679 1.251 1_556 S
O668 C648 1.257 1_565 S
O668 Eu649 2.473 1_565 S
O669 C648 1.260 . S
O669 Eu649 2.480 . S
O670 Eu649 2.430 . S
O670 C656 1.259 1_554 S
O671 Eu649 2.670 1_556 S
O671 C656 1.270 . S
O671 Eu659 2.355 1_545 S
O672 Eu649 2.394 1_565 S
O672 C657 1.251 . S
O673 C657 1.251 1_556 S
O673 Eu659 2.374 . S
O674 C658 1.257 1_545 S
O674 Eu659 2.473 1_545 S
O675 C658 1.260 . S
O675 Eu659 2.480 . S
O676 Eu659 2.430 . S
O676 C666 1.259 1_556 S
O677 Eu649 2.355 1_565 S
O677 Eu659 2.670 1_554 S
O677 C666 1.270 . S
O678 Eu659 2.394 1_545 S
O678 C667 1.251 . S
O679 Eu649 2.374 . S
O679 C667 1.251 1_554 S
H680 C651 0.931 . S
H681 C652 0.931 . S
H682 C654 0.931 . S
H683 C655 0.931 . S
H684 C661 0.931 . S
H685 C662 0.931 . S
H686 C664 0.931 . S
H687 C665 0.931 . S
C688 Eu689 2.835 . S
C688 C690 1.500 1_655 S
C688 O708 1.257 1_655 S
C688 O709 1.260 . S
Eu689 C688 2.835 . S
Eu689 O708 2.473 1_655 S
Eu689 O709 2.480 . S
Eu689 O710 2.430 . S
Eu689 O711 2.670 1_554 S
Eu689 O712 2.394 1_655 S
Eu689 O717 2.355 1_655 S
Eu689 O719 2.374 . S
C690 C688 1.500 1_455 S
C690 C691 1.377 1_455 S
C690 C695 1.377 . S
C691 C690 1.377 1_655 S
C691 C692 1.395 . S
C691 H720 0.931 . S
C692 C691 1.395 . S
C692 C693 1.383 1_655 S
C692 H721 0.931 . S
C693 C692 1.383 1_455 S
C693 C694 1.394 . S
C694 C693 1.394 . S
C694 C695 1.378 . S
C694 H722 0.931 . S
C695 C690 1.377 . S
C695 C694 1.378 . S
C695 H723 0.931 . S
C696 O710 1.259 1_556 S
C696 O711 1.270 . S
C697 O712 1.251 . S
C697 O713 1.251 . S
C698 Eu699 2.835 . S
C698 C700 1.500 1_455 S
C698 O714 1.257 1_455 S
C698 O715 1.260 . S
Eu699 C698 2.835 . S
Eu699 O711 2.355 1_455 S
Eu699 O713 2.374 1_556 S
Eu699 O714 2.473 1_455 S
Eu699 O715 2.480 . S
Eu699 O716 2.430 . S
Eu699 O717 2.670 1_556 S
Eu699 O718 2.394 1_455 S
C700 C698 1.500 1_655 S
C700 C701 1.377 1_655 S
C700 C705 1.377 . S
C701 C700 1.377 1_455 S
C701 C702 1.395 . S
C701 H724 0.931 . S
C702 C701 1.395 . S
C702 C703 1.383 1_455 S
C702 H725 0.931 . S
C703 C702 1.383 1_655 S
C703 C704 1.394 . S
C704 C703 1.394 . S
C704 C705 1.378 . S
C704 H726 0.931 . S
C705 C700 1.377 . S
C705 C704 1.378 . S
C705 H727 0.931 . S
C706 O716 1.259 1_554 S
C706 O717 1.270 . S
C707 O718 1.251 . S
C707 O719 1.251 1_556 S
O708 C688 1.257 1_455 S
O708 Eu689 2.473 1_455 S
O709 C688 1.260 . S
O709 Eu689 2.480 . S
O710 Eu689 2.430 . S
O710 C696 1.259 1_554 S
O711 Eu689 2.670 1_556 S
O711 C696 1.270 . S
O711 Eu699 2.355 1_655 S
O712 Eu689 2.394 1_455 S
O712 C697 1.251 . S
O713 C697 1.251 . S
O713 Eu699 2.374 1_554 S
O714 C698 1.257 1_655 S
O714 Eu699 2.473 1_655 S
O715 C698 1.260 . S
O715 Eu699 2.480 . S
O716 Eu699 2.430 . S
O716 C706 1.259 1_556 S
O717 Eu689 2.355 1_455 S
O717 Eu699 2.670 1_554 S
O717 C706 1.270 . S
O718 Eu699 2.394 1_655 S
O718 C707 1.251 . S
O719 Eu689 2.374 . S
O719 C707 1.251 1_554 S
H720 C691 0.931 . S
H721 C692 0.931 . S
H722 C694 0.931 . S
H723 C695 0.931 . S
H724 C701 0.931 . S
H725 C702 0.931 . S
H726 C704 0.931 . S
H727 C705 0.931 . S
C728 Eu729 2.835 . S
C728 C730 1.500 . S
C728 O748 1.257 . S
C728 O749 1.260 . S
Eu729 C728 2.835 . S
Eu729 O748 2.473 . S
Eu729 O749 2.480 . S
Eu729 O750 2.430 . S
Eu729 O751 2.670 1_556 S
Eu729 O752 2.394 . S
Eu729 O757 2.355 . S
Eu729 O759 2.377 1_556 S
C730 C728 1.500 . S
C730 C731 1.377 . S
C730 C735 1.377 . S
C731 C730 1.377 . S
C731 C732 1.395 . S
C731 H760 0.931 . S
C732 C731 1.395 . S
C732 C733 1.383 . S
C732 H761 0.931 . S
C733 C732 1.383 . S
C733 C734 1.394 . S
C734 C733 1.394 . S
C734 C735 1.378 . S
C734 H762 0.931 . S
C735 C730 1.377 . S
C735 C734 1.378 . S
C735 H763 0.931 . S
C736 O750 1.259 1_554 S
C736 O751 1.270 . S
C737 O752 1.251 . S
C737 O753 1.251 1_556 S
C738 Eu739 2.835 . S
C738 C740 1.500 . S
C738 O754 1.257 . S
C738 O755 1.260 . S
Eu739 C738 2.835 . S
Eu739 O751 2.355 . S
Eu739 O753 2.374 . S
Eu739 O754 2.473 . S
Eu739 O755 2.480 . S
Eu739 O756 2.430 . S
Eu739 O757 2.670 1_554 S
Eu739 O758 2.394 . S
C740 C738 1.500 . S
C740 C741 1.377 . S
C740 C745 1.377 . S
C741 C740 1.377 . S
C741 C742 1.395 . S
C741 H764 0.931 . S
C742 C741 1.395 . S
C742 C743 1.383 . S
C742 H765 0.931 . S
C743 C742 1.383 . S
C743 C744 1.394 . S
C744 C743 1.394 . S
C744 C745 1.378 . S
C744 H766 0.931 . S
C745 C740 1.377 . S
C745 C744 1.378 . S
C745 H767 0.931 . S
C746 O756 1.259 1_556 S
C746 O757 1.270 . S
C747 O758 1.251 . S
C747 O759 1.247 . S
O748 C728 1.257 . S
O748 Eu729 2.473 . S
O749 C728 1.260 . S
O749 Eu729 2.480 . S
O750 Eu729 2.430 . S
O750 C736 1.259 1_556 S
O751 Eu729 2.670 1_554 S
O751 C736 1.270 . S
O751 Eu739 2.355 . S
O752 Eu729 2.394 . S
O752 C737 1.251 . S
O753 C737 1.251 1_554 S
O753 Eu739 2.374 . S
O754 C738 1.257 . S
O754 Eu739 2.473 . S
O755 C738 1.260 . S
O755 Eu739 2.480 . S
O756 Eu739 2.430 . S
O756 C746 1.259 1_554 S
O757 Eu729 2.355 . S
O757 Eu739 2.670 1_556 S
O757 C746 1.270 . S
O758 Eu739 2.394 . S
O758 C747 1.251 . S
O759 Eu729 2.377 1_554 S
O759 C747 1.247 . S
H760 C731 0.931 . S
H761 C732 0.931 . S
H762 C734 0.931 . S
H763 C735 0.931 . S
H764 C741 0.931 . S
H765 C742 0.931 . S
H766 C744 0.931 . S
H767 C745 0.931 . S
C768 Eu769 2.835 . S
C768 C770 1.500 . S
C768 O788 1.257 . S
C768 O789 1.260 . S
Eu769 C768 2.835 . S
Eu769 O788 2.473 . S
Eu769 O789 2.480 . S
Eu769 O790 2.430 . S
Eu769 O791 2.670 . S
Eu769 O792 2.394 . S
Eu769 O797 2.355 . S
Eu769 O799 2.374 . S
C770 C768 1.500 . S
C770 C771 1.377 . S
C770 C775 1.377 . S
C771 C770 1.377 . S
C771 C772 1.395 . S
C771 H800 0.931 . S
C772 C771 1.395 . S
C772 C773 1.383 . S
C772 H801 0.931 . S
C773 C772 1.383 . S
C773 C774 1.394 . S
C774 C773 1.394 . S
C774 C775 1.378 . S
C774 H802 0.931 . S
C775 C770 1.377 . S
C775 C774 1.378 . S
C775 H803 0.931 . S
C776 O790 1.259 . S
C776 O791 1.270 . S
C777 O792 1.251 . S
C777 O793 1.251 . S
C778 Eu779 2.835 . S
C778 C780 1.500 . S
C778 O794 1.257 . S
C778 O795 1.260 . S
Eu779 C778 2.835 . S
Eu779 O791 2.355 . S
Eu779 O793 2.374 . S
Eu779 O794 2.473 . S
Eu779 O795 2.480 . S
Eu779 O796 2.430 . S
Eu779 O797 2.670 . S
Eu779 O798 2.394 . S
C780 C778 1.500 . S
C780 C781 1.377 . S
C780 C785 1.377 . S
C781 C780 1.377 . S
C781 C782 1.395 . S
C781 H804 0.931 . S
C782 C781 1.395 . S
C782 C783 1.383 . S
C782 H805 0.931 . S
C783 C782 1.383 . S
C783 C784 1.394 . S
C784 C783 1.394 . S
C784 C785 1.378 . S
C784 H806 0.931 . S
C785 C780 1.377 . S
C785 C784 1.378 . S
C785 H807 0.931 . S
C786 O796 1.259 . S
C786 O797 1.270 . S
C787 O798 1.251 . S
C787 O799 1.251 . S
O788 C768 1.257 . S
O788 Eu769 2.473 . S
O789 C768 1.260 . S
O789 Eu769 2.480 . S
O790 Eu769 2.430 . S
O790 C776 1.259 . S
O791 Eu769 2.670 . S
O791 C776 1.270 . S
O791 Eu779 2.355 . S
O792 Eu769 2.394 . S
O792 C777 1.251 . S
O793 C777 1.251 . S
O793 Eu779 2.374 . S
O794 C778 1.257 . S
O794 Eu779 2.473 . S
O795 C778 1.260 . S
O795 Eu779 2.480 . S
O796 Eu779 2.430 . S
O796 C786 1.259 . S
O797 Eu769 2.355 . S
O797 Eu779 2.670 . S
O797 C786 1.270 . S
O798 Eu779 2.394 . S
O798 C787 1.251 . S
O799 Eu769 2.374 . S
O799 C787 1.251 . S
H800 C771 0.931 . S
H801 C772 0.931 . S
H802 C774 0.931 . S
H803 C775 0.931 . S
H804 C781 0.931 . S
H805 C782 0.931 . S
H806 C784 0.931 . S
H807 C785 0.931 . S
C808 Eu809 2.835 . S
C808 C810 1.500 . S
C808 O828 1.257 . S
C808 O829 1.260 . S
Eu809 C808 2.835 . S
Eu809 O828 2.473 . S
Eu809 O829 2.480 . S
Eu809 O830 2.430 . S
Eu809 O831 2.670 . S
Eu809 O832 2.394 . S
Eu809 O837 2.355 . S
Eu809 O839 2.374 . S
C810 C808 1.500 . S
C810 C811 1.377 . S
C810 C815 1.377 . S
C811 C810 1.377 . S
C811 C812 1.395 . S
C811 H840 0.931 . S
C812 C811 1.395 . S
C812 C813 1.383 . S
C812 H841 0.931 . S
C813 C812 1.383 . S
C813 C814 1.394 . S
C814 C813 1.394 . S
C814 C815 1.378 . S
C814 H842 0.931 . S
C815 C810 1.377 . S
C815 C814 1.378 . S
C815 H843 0.931 . S
C816 O830 1.259 . S
C816 O831 1.270 . S
C817 O832 1.251 . S
C817 O833 1.251 . S
C818 Eu819 2.835 . S
C818 C820 1.500 . S
C818 O834 1.257 . S
C818 O835 1.260 . S
Eu819 C818 2.835 . S
Eu819 O831 2.355 . S
Eu819 O833 2.374 . S
Eu819 O834 2.473 . S
Eu819 O835 2.480 . S
Eu819 O836 2.430 . S
Eu819 O837 2.670 . S
Eu819 O838 2.394 . S
C820 C818 1.500 . S
C820 C821 1.377 . S
C820 C825 1.377 . S
C821 C820 1.377 . S
C821 C822 1.395 . S
C821 H844 0.931 . S
C822 C821 1.395 . S
C822 C823 1.383 . S
C822 H845 0.931 . S
C823 C822 1.383 . S
C823 C824 1.394 . S
C824 C823 1.394 . S
C824 C825 1.378 . S
C824 H846 0.931 . S
C825 C820 1.377 . S
C825 C824 1.378 . S
C825 H847 0.931 . S
C826 O836 1.259 . S
C826 O837 1.270 . S
C827 O838 1.251 . S
C827 O839 1.251 . S
O828 C808 1.257 . S
O828 Eu809 2.473 . S
O829 C808 1.260 . S
O829 Eu809 2.480 . S
O830 Eu809 2.430 . S
O830 C816 1.259 . S
O831 Eu809 2.670 . S
O831 C816 1.270 . S
O831 Eu819 2.355 . S
O832 Eu809 2.394 . S
O832 C817 1.251 . S
O833 C817 1.251 . S
O833 Eu819 2.374 . S
O834 C818 1.257 . S
O834 Eu819 2.473 . S
O835 C818 1.260 . S
O835 Eu819 2.480 . S
O836 Eu819 2.430 . S
O836 C826 1.259 . S
O837 Eu809 2.355 . S
O837 Eu819 2.670 . S
O837 C826 1.270 . S
O838 Eu819 2.394 . S
O838 C827 1.251 . S
O839 Eu809 2.374 . S
O839 C827 1.251 . S
H840 C811 0.931 . S
H841 C812 0.931 . S
H842 C814 0.931 . S
H843 C815 0.931 . S
H844 C821 0.931 . S
H845 C822 0.931 . S
H846 C824 0.931 . S
H847 C825 0.931 . S
C848 Eu849 2.835 . S
C848 C850 1.500 . S
C848 O868 1.257 . S
C848 O869 1.260 . S
Eu849 C848 2.835 . S
Eu849 O868 2.473 . S
Eu849 O869 2.480 . S
Eu849 O870 2.430 . S
Eu849 O871 2.670 . S
Eu849 O872 2.394 . S
Eu849 O877 2.355 . S
Eu849 O879 2.374 . S
C850 C848 1.500 . S
C850 C851 1.377 . S
C850 C855 1.377 . S
C851 C850 1.377 . S
C851 C852 1.395 . S
C851 H880 0.931 . S
C852 C851 1.395 . S
C852 C853 1.383 . S
C852 H881 0.931 . S
C853 C852 1.383 . S
C853 C854 1.394 . S
C854 C853 1.394 . S
C854 C855 1.378 . S
C854 H882 0.931 . S
C855 C850 1.377 . S
C855 C854 1.378 . S
C855 H883 0.931 . S
C856 O870 1.259 . S
C856 O871 1.270 . S
C857 O872 1.251 . S
C857 O873 1.251 . S
C858 Eu859 2.835 . S
C858 C860 1.500 . S
C858 O874 1.257 . S
C858 O875 1.260 . S
Eu859 C858 2.835 . S
Eu859 O871 2.355 . S
Eu859 O873 2.374 . S
Eu859 O874 2.473 . S
Eu859 O875 2.480 . S
Eu859 O876 2.430 . S
Eu859 O877 2.670 . S
Eu859 O878 2.394 . S
C860 C858 1.500 . S
C860 C861 1.377 . S
C860 C865 1.377 . S
C861 C860 1.377 . S
C861 C862 1.395 . S
C861 H884 0.931 . S
C862 C861 1.395 . S
C862 C863 1.383 . S
C862 H885 0.931 . S
C863 C862 1.383 . S
C863 C864 1.394 . S
C864 C863 1.394 . S
C864 C865 1.378 . S
C864 H886 0.931 . S
C865 C860 1.377 . S
C865 C864 1.378 . S
C865 H887 0.931 . S
C866 O876 1.259 . S
C866 O877 1.270 . S
C867 O878 1.251 . S
C867 O879 1.251 . S
O868 C848 1.257 . S
O868 Eu849 2.473 . S
O869 C848 1.260 . S
O869 Eu849 2.480 . S
O870 Eu849 2.430 . S
O870 C856 1.259 . S
O871 Eu849 2.670 . S
O871 C856 1.270 . S
O871 Eu859 2.355 . S
O872 Eu849 2.394 . S
O872 C857 1.251 . S
O873 C857 1.251 . S
O873 Eu859 2.374 . S
O874 C858 1.257 . S
O874 Eu859 2.473 . S
O875 C858 1.260 . S
O875 Eu859 2.480 . S
O876 Eu859 2.430 . S
O876 C866 1.259 . S
O877 Eu849 2.355 . S
O877 Eu859 2.670 . S
O877 C866 1.270 . S
O878 Eu859 2.394 . S
O878 C867 1.251 . S
O879 Eu849 2.374 . S
O879 C867 1.251 . S
H880 C851 0.931 . S
H881 C852 0.931 . S
H882 C854 0.931 . S
H883 C855 0.931 . S
H884 C861 0.931 . S
H885 C862 0.931 . S
H886 C864 0.931 . S
H887 C865 0.931 . S
C888 Eu889 2.835 . S
C888 C890 1.500 . S
C888 O908 1.257 . S
C888 O909 1.260 . S
Eu889 C888 2.835 . S
Eu889 O908 2.473 . S
Eu889 O909 2.480 . S
Eu889 O910 2.430 . S
Eu889 O911 2.670 . S
Eu889 O912 2.394 . S
Eu889 O917 2.355 . S
Eu889 O919 2.374 . S
C890 C888 1.500 . S
C890 C891 1.377 . S
C890 C895 1.377 . S
C891 C890 1.377 . S
C891 C892 1.395 . S
C891 H920 0.931 . S
C892 C891 1.395 . S
C892 C893 1.383 . S
C892 H921 0.931 . S
C893 C892 1.383 . S
C893 C894 1.394 . S
C894 C893 1.394 . S
C894 C895 1.378 . S
C894 H922 0.931 . S
C895 C890 1.377 . S
C895 C894 1.378 . S
C895 H923 0.931 . S
C896 O910 1.259 . S
C896 O911 1.270 . S
C897 O912 1.251 . S
C897 O913 1.251 . S
C898 Eu899 2.835 . S
C898 C900 1.500 . S
C898 O914 1.257 . S
C898 O915 1.260 . S
Eu899 C898 2.835 . S
Eu899 O911 2.355 . S
Eu899 O913 2.374 . S
Eu899 O914 2.473 . S
Eu899 O915 2.480 . S
Eu899 O916 2.430 . S
Eu899 O917 2.670 . S
Eu899 O918 2.394 . S
C900 C898 1.500 . S
C900 C901 1.377 . S
C900 C905 1.377 . S
C901 C900 1.377 . S
C901 C902 1.395 . S
C901 H924 0.931 . S
C902 C901 1.395 . S
C902 C903 1.383 . S
C902 H925 0.931 . S
C903 C902 1.383 . S
C903 C904 1.394 . S
C904 C903 1.394 . S
C904 C905 1.378 . S
C904 H926 0.931 . S
C905 C900 1.377 . S
C905 C904 1.378 . S
C905 H927 0.931 . S
C906 O916 1.259 . S
C906 O917 1.270 . S
C907 O918 1.251 . S
C907 O919 1.251 . S
O908 C888 1.257 . S
O908 Eu889 2.473 . S
O909 C888 1.260 . S
O909 Eu889 2.480 . S
O910 Eu889 2.430 . S
O910 C896 1.259 . S
O911 Eu889 2.670 . S
O911 C896 1.270 . S
O911 Eu899 2.355 . S
O912 Eu889 2.394 . S
O912 C897 1.251 . S
O913 C897 1.251 . S
O913 Eu899 2.374 . S
O914 C898 1.257 . S
O914 Eu899 2.473 . S
O915 C898 1.260 . S
O915 Eu899 2.480 . S
O916 Eu899 2.430 . S
O916 C906 1.259 . S
O917 Eu889 2.355 . S
O917 Eu899 2.670 . S
O917 C906 1.270 . S
O918 Eu899 2.394 . S
O918 C907 1.251 . S
O919 Eu889 2.374 . S
O919 C907 1.251 . S
H920 C891 0.931 . S
H921 C892 0.931 . S
H922 C894 0.931 . S
H923 C895 0.931 . S
H924 C901 0.931 . S
H925 C902 0.931 . S
H926 C904 0.931 . S
H927 C905 0.931 . S
C928 Eu929 2.835 . S
C928 C930 1.500 . S
C928 O948 1.257 . S
C928 O949 1.260 . S
Eu929 C928 2.835 . S
Eu929 O948 2.473 . S
Eu929 O949 2.480 . S
Eu929 O950 2.430 . S
Eu929 O951 2.670 . S
Eu929 O952 2.394 . S
Eu929 O957 2.355 . S
Eu929 O959 2.374 . S
C930 C928 1.500 . S
C930 C931 1.377 . S
C930 C935 1.377 . S
C931 C930 1.377 . S
C931 C932 1.395 . S
C931 H960 0.931 . S
C932 C931 1.395 . S
C932 C933 1.383 . S
C932 H961 0.931 . S
C933 C932 1.383 . S
C933 C934 1.394 . S
C934 C933 1.394 . S
C934 C935 1.378 . S
C934 H962 0.931 . S
C935 C930 1.377 . S
C935 C934 1.378 . S
C935 H963 0.931 . S
C936 O950 1.259 . S
C936 O951 1.270 . S
C937 O952 1.251 . S
C937 O953 1.251 . S
C938 Eu939 2.835 . S
C938 C940 1.500 . S
C938 O954 1.257 . S
C938 O955 1.260 . S
Eu939 C938 2.835 . S
Eu939 O951 2.355 . S
Eu939 O953 2.374 . S
Eu939 O954 2.473 . S
Eu939 O955 2.480 . S
Eu939 O956 2.430 . S
Eu939 O957 2.670 . S
Eu939 O958 2.394 . S
C940 C938 1.500 . S
C940 C941 1.377 . S
C940 C945 1.377 . S
C941 C940 1.377 . S
C941 C942 1.395 . S
C941 H964 0.931 . S
C942 C941 1.395 . S
C942 C943 1.383 . S
C942 H965 0.931 . S
C943 C942 1.383 . S
C943 C944 1.394 . S
C944 C943 1.394 . S
C944 C945 1.378 . S
C944 H966 0.931 . S
C945 C940 1.377 . S
C945 C944 1.378 . S
C945 H967 0.931 . S
C946 O956 1.259 . S
C946 O957 1.270 . S
C947 O958 1.251 . S
C947 O959 1.251 . S
O948 C928 1.257 . S
O948 Eu929 2.473 . S
O949 C928 1.260 . S
O949 Eu929 2.480 . S
O950 Eu929 2.430 . S
O950 C936 1.259 . S
O951 Eu929 2.670 . S
O951 C936 1.270 . S
O951 Eu939 2.355 . S
O952 Eu929 2.394 . S
O952 C937 1.251 . S
O953 C937 1.251 . S
O953 Eu939 2.374 . S
O954 C938 1.257 . S
O954 Eu939 2.473 . S
O955 C938 1.260 . S
O955 Eu939 2.480 . S
O956 Eu939 2.430 . S
O956 C946 1.259 . S
O957 Eu929 2.355 . S
O957 Eu939 2.670 . S
O957 C946 1.270 . S
O958 Eu939 2.394 . S
O958 C947 1.251 . S
O959 Eu929 2.374 . S
O959 C947 1.251 . S
H960 C931 0.931 . S
H961 C932 0.931 . S
H962 C934 0.931 . S
H963 C935 0.931 . S
H964 C941 0.931 . S
H965 C942 0.931 . S
H966 C944 0.931 . S
H967 C945 0.931 . S
C968 Eu969 2.835 . S
C968 C970 1.500 . S
C968 O988 1.257 . S
C968 O989 1.260 . S
Eu969 C968 2.835 . S
Eu969 O988 2.473 . S
Eu969 O989 2.480 . S
Eu969 O990 2.430 . S
Eu969 O991 2.670 . S
Eu969 O992 2.394 . S
Eu969 O997 2.355 . S
Eu969 O999 2.374 . S
C970 C968 1.500 . S
C970 C971 1.377 . S
C970 C975 1.377 . S
C971 C970 1.377 . S
C971 C972 1.395 . S
C971 H1000 0.931 . S
C972 C971 1.395 . S
C972 C973 1.383 . S
C972 H1001 0.931 . S
C973 C972 1.383 . S
C973 C974 1.394 . S
C974 C973 1.394 . S
C974 C975 1.378 . S
C974 H1002 0.931 . S
C975 C970 1.377 . S
C975 C974 1.378 . S
C975 H1003 0.931 . S
C976 O990 1.259 . S
C976 O991 1.270 . S
C977 O992 1.251 . S
C977 O993 1.251 . S
C978 Eu979 2.835 . S
C978 C980 1.500 . S
C978 O994 1.257 . S
C978 O995 1.260 . S
Eu979 C978 2.835 . S
Eu979 O991 2.355 . S
Eu979 O993 2.374 . S
Eu979 O994 2.473 . S
Eu979 O995 2.480 . S
Eu979 O996 2.430 . S
Eu979 O997 2.670 . S
Eu979 O998 2.394 . S
C980 C978 1.500 . S
C980 C981 1.377 . S
C980 C985 1.377 . S
C981 C980 1.377 . S
C981 C982 1.395 . S
C981 H1004 0.931 . S
C982 C981 1.395 . S
C982 C983 1.383 . S
C982 H1005 0.931 . S
C983 C982 1.383 . S
C983 C984 1.394 . S
C984 C983 1.394 . S
C984 C985 1.378 . S
C984 H1006 0.931 . S
C985 C980 1.377 . S
C985 C984 1.378 . S
C985 H1007 0.931 . S
C986 O996 1.259 . S
C986 O997 1.270 . S
C987 O998 1.251 . S
C987 O999 1.251 . S
O988 C968 1.257 . S
O988 Eu969 2.473 . S
O989 C968 1.260 . S
O989 Eu969 2.480 . S
O990 Eu969 2.430 . S
O990 C976 1.259 . S
O991 Eu969 2.670 . S
O991 C976 1.270 . S
O991 Eu979 2.355 . S
O992 Eu969 2.394 . S
O992 C977 1.251 . S
O993 C977 1.251 . S
O993 Eu979 2.374 . S
O994 C978 1.257 . S
O994 Eu979 2.473 . S
O995 C978 1.260 . S
O995 Eu979 2.480 . S
O996 Eu979 2.430 . S
O996 C986 1.259 . S
O997 Eu969 2.355 . S
O997 Eu979 2.670 . S
O997 C986 1.270 . S
O998 Eu979 2.394 . S
O998 C987 1.251 . S
O999 Eu969 2.374 . S
O999 C987 1.251 . S
H1000 C971 0.931 . S
H1001 C972 0.931 . S
H1002 C974 0.931 . S
H1003 C975 0.931 . S
H1004 C981 0.931 . S
H1005 C982 0.931 . S
H1006 C984 0.931 . S
H1007 C985 0.931 . S
C1008 C1009 1.369 . S
C1008 C1010 1.419 . S
C1008 H1012 0.930 . S
C1009 C1008 1.369 . S
C1009 C1018 1.429 . S
C1010 C1008 1.419 . S
C1010 C1011 1.363 . S
C1010 H1013 0.929 1_554 S
C1011 C1010 1.363 . S
C1011 C1017 1.428 . S
H1012 C1008 0.930 . S
H1013 C1010 0.929 1_556 S
S1014 N1015 1.613 . S
S1014 N1016 1.610 . S
N1015 S1014 1.613 . S
N1015 C1018 1.350 . S
N1016 S1014 1.610 . S
N1016 C1017 1.351 . S
C1017 C1011 1.428 . S
C1017 N1016 1.351 . S
C1017 C1018 1.434 . S
C1018 C1009 1.429 . S
C1018 N1015 1.350 . S
C1018 C1017 1.434 . S
C1019 C1020 1.369 . S
C1019 C1021 1.419 . S
C1019 H1023 0.930 . S
C1020 C1019 1.369 . S
C1020 C1029 1.429 . S
C1021 C1019 1.419 . S
C1021 C1022 1.363 . S
C1021 H1024 0.929 . S
C1022 C1021 1.363 . S
C1022 C1028 1.428 . S
H1023 C1019 0.930 . S
H1024 C1021 0.929 . S
S1025 N1026 1.613 . S
S1025 N1027 1.610 . S
N1026 S1025 1.613 . S
N1026 C1029 1.350 . S
N1027 S1025 1.610 . S
N1027 C1028 1.351 . S
C1028 C1022 1.428 . S
C1028 N1027 1.351 . S
C1028 C1029 1.434 . S
C1029 C1020 1.429 . S
C1029 N1026 1.350 . S
C1029 C1028 1.434 . S
C1030 C1031 1.369 . S
C1030 C1032 1.419 . S
C1030 H1034 0.930 . S
C1031 C1030 1.369 . S
C1031 C1040 1.429 . S
C1032 C1030 1.419 . S
C1032 C1033 1.363 . S
C1032 H1035 0.929 . S
C1033 C1032 1.363 . S
C1033 C1039 1.428 . S
H1034 C1030 0.930 . S
H1035 C1032 0.929 . S
S1036 N1037 1.613 . S
S1036 N1038 1.610 . S
N1037 S1036 1.613 . S
N1037 C1040 1.350 . S
N1038 S1036 1.610 . S
N1038 C1039 1.351 . S
C1039 C1033 1.428 . S
C1039 N1038 1.351 . S
C1039 C1040 1.434 . S
C1040 C1031 1.429 . S
C1040 N1037 1.350 . S
C1040 C1039 1.434 . S
C1041 C1042 1.369 . S
C1041 C1043 1.419 . S
C1041 H1045 0.930 . S
C1042 C1041 1.369 . S
C1042 C1051 1.429 . S
C1043 C1041 1.419 . S
C1043 C1044 1.363 . S
C1043 H1046 0.929 . S
C1044 C1043 1.363 . S
C1044 C1050 1.428 . S
H1045 C1041 0.930 . S
H1046 C1043 0.929 . S
S1047 N1048 1.613 1_455 S
S1047 N1049 1.610 1_455 S
N1048 S1047 1.613 1_655 S
N1048 C1051 1.350 . S
N1049 S1047 1.610 1_655 S
N1049 C1050 1.351 . S
C1050 C1044 1.428 . S
C1050 N1049 1.351 . S
C1050 C1051 1.434 . S
C1051 C1042 1.429 . S
C1051 N1048 1.350 . S
C1051 C1050 1.434 . S
C1052 C1053 1.369 . S
C1052 C1054 1.419 . S
C1052 H1056 0.930 . S
C1053 C1052 1.369 . S
C1053 C1062 1.429 . S
C1054 C1052 1.419 . S
C1054 C1055 1.363 . S
C1054 H1057 0.893 1_556 S
C1055 C1054 1.363 . S
C1055 C1061 1.428 . S
H1056 C1052 0.930 . S
H1057 C1054 0.893 1_554 S
S1058 N1059 1.613 . S
S1058 N1060 1.610 . S
N1059 S1058 1.613 . S
N1059 C1062 1.350 . S
N1060 S1058 1.610 . S
N1060 C1061 1.351 . S
C1061 C1055 1.428 . S
C1061 N1060 1.351 . S
C1061 C1062 1.434 . S
C1062 C1053 1.429 . S
C1062 N1059 1.350 . S
C1062 C1061 1.434 . S
C1063 C1064 1.369 . S
C1063 C1065 1.419 . S
C1063 H1067 0.930 . S
C1064 C1063 1.369 . S
C1064 C1073 1.429 1_556 S
C1065 C1063 1.419 . S
C1065 C1066 1.363 . S
C1065 H1068 0.929 . S
C1066 C1065 1.363 . S
C1066 C1072 1.428 1_556 S
H1067 C1063 0.930 . S
H1068 C1065 0.929 . S
S1069 N1070 1.613 . S
S1069 N1071 1.610 . S
N1070 S1069 1.613 . S
N1070 C1073 1.350 . S
N1071 S1069 1.610 . S
N1071 C1072 1.351 . S
C1072 C1066 1.428 1_554 S
C1072 N1071 1.351 . S
C1072 C1073 1.434 . S
C1073 C1064 1.429 1_554 S
C1073 N1070 1.350 . S
C1073 C1072 1.434 . S
C1074 C1075 1.369 . S
C1074 C1076 1.419 . S
C1074 H1078 0.930 . S
C1075 C1074 1.369 . S
C1075 C1084 1.429 . S
C1076 C1074 1.419 . S
C1076 C1077 1.363 . S
C1076 H1079 0.929 . S
C1077 C1076 1.363 . S
C1077 C1083 1.428 . S
H1078 C1074 0.930 . S
H1079 C1076 0.929 . S
S1080 N1081 1.613 . S
S1080 N1082 1.610 . S
N1081 S1080 1.613 . S
N1081 C1084 1.350 1_554 S
N1082 S1080 1.610 . S
N1082 C1083 1.351 1_554 S
C1083 C1077 1.428 . S
C1083 N1082 1.351 1_556 S
C1083 C1084 1.434 . S
C1084 C1075 1.429 . S
C1084 N1081 1.350 1_556 S
C1084 C1083 1.434 . S
C1085 C1086 1.369 . S
C1085 C1087 1.419 . S
C1085 H1089 0.930 . S
C1086 C1085 1.369 . S
C1086 C1095 1.429 . S
C1087 C1085 1.419 . S
C1087 C1088 1.363 . S
C1087 H1090 0.929 . S
C1088 C1087 1.363 . S
C1088 C1094 1.428 . S
H1089 C1085 0.930 . S
H1090 C1087 0.929 . S
S1091 N1092 1.613 . S
S1091 N1093 1.610 . S
N1092 S1091 1.613 . S
N1092 C1095 1.350 . S
N1093 S1091 1.610 . S
N1093 C1094 1.351 . S
C1094 C1088 1.428 . S
C1094 N1093 1.351 . S
C1094 C1095 1.434 . S
C1095 C1086 1.429 . S
C1095 N1092 1.350 . S
C1095 C1094 1.434 . S
C1096 C1097 1.369 . S
C1096 C1098 1.419 . S
C1096 H1100 0.930 . S
C1097 C1096 1.369 . S
C1097 C1106 1.429 . S
C1098 C1096 1.419 . S
C1098 C1099 1.363 . S
C1098 H1101 0.929 . S
C1099 C1098 1.363 . S
C1099 C1105 1.428 . S
H1100 C1096 0.930 . S
H1101 C1098 0.929 . S
S1102 N1103 1.613 . S
S1102 N1104 1.610 . S
N1103 S1102 1.613 . S
N1103 C1106 1.350 1_554 S
N1104 S1102 1.610 . S
N1104 C1105 1.351 1_554 S
C1105 C1099 1.428 . S
C1105 N1104 1.351 1_556 S
C1105 C1106 1.434 . S
C1106 C1097 1.429 . S
C1106 N1103 1.350 1_556 S
C1106 C1105 1.434 . S
C1107 C1108 1.369 . S
C1107 C1109 1.419 . S
C1107 H1111 0.930 . S
C1108 C1107 1.369 . S
C1108 C1117 1.429 . S
C1109 C1107 1.419 . S
C1109 C1110 1.363 . S
C1109 H1112 0.929 . S
C1110 C1109 1.363 . S
C1110 C1116 1.428 . S
H1111 C1107 0.930 . S
H1112 C1109 0.929 . S
S1113 N1114 1.613 . S
S1113 N1115 1.610 . S
N1114 S1113 1.613 . S
N1114 C1117 1.350 1_556 S
N1115 S1113 1.610 . S
N1115 C1116 1.351 1_556 S
C1116 C1110 1.428 . S
C1116 N1115 1.351 1_554 S
C1116 C1117 1.434 . S
C1117 C1108 1.429 . S
C1117 N1114 1.350 1_554 S
C1117 C1116 1.434 . S
C1118 C1119 1.369 . S
C1118 C1120 1.419 . S
C1118 H1122 0.930 . S
C1119 C1118 1.369 . S
C1119 C1128 1.429 . S
C1120 C1118 1.419 . S
C1120 C1121 1.363 . S
C1120 H1123 0.929 . S
C1121 C1120 1.363 . S
C1121 C1127 1.428 . S
H1122 C1118 0.930 . S
H1123 C1120 0.929 . S
S1124 N1125 1.613 . S
S1124 N1126 1.610 . S
N1125 S1124 1.613 . S
N1125 C1128 1.350 . S
N1126 S1124 1.610 . S
N1126 C1127 1.351 . S
C1127 C1121 1.428 . S
C1127 N1126 1.351 . S
C1127 C1128 1.434 . S
C1128 C1119 1.429 . S
C1128 N1125 1.350 . S
C1128 C1127 1.434 . S
C1129 C1130 1.369 . S
C1129 C1131 1.419 1_554 S
C1129 H1133 0.930 1_554 S
C1130 C1129 1.369 . S
C1130 C1139 1.429 . S
C1131 C1129 1.419 1_556 S
C1131 C1132 1.365 1_556 S
C1131 H1134 0.927 . S
C1132 C1131 1.365 1_554 S
C1132 C1138 1.428 . S
H1133 C1129 0.930 1_556 S
H1134 C1131 0.927 . S
S1135 N1136 1.613 . S
S1135 N1137 1.610 . S
N1136 S1135 1.613 . S
N1136 C1139 1.350 . S
N1137 S1135 1.610 . S
N1137 C1138 1.351 . S
C1138 C1132 1.428 . S
C1138 N1137 1.351 . S
C1138 C1139 1.434 . S
C1139 C1130 1.429 . S
C1139 N1136 1.350 . S
C1139 C1138 1.434 . S
C1140 C1141 1.369 . S
C1140 C1142 1.419 . S
C1140 H1144 0.930 . S
C1141 C1140 1.369 . S
C1141 C1150 1.429 . S
C1142 C1140 1.419 . S
C1142 C1143 1.363 . S
C1142 H1145 0.929 . S
C1143 C1142 1.363 . S
C1143 C1149 1.428 . S
H1144 C1140 0.930 . S
H1145 C1142 0.929 . S
S1146 N1147 1.613 . S
S1146 N1148 1.610 . S
N1147 S1146 1.613 . S
N1147 C1150 1.350 . S
N1148 S1146 1.610 . S
N1148 C1149 1.351 . S
C1149 C1143 1.428 . S
C1149 N1148 1.351 . S
C1149 C1150 1.434 . S
C1150 C1141 1.429 . S
C1150 N1147 1.350 . S
C1150 C1149 1.434 . S
C1151 C1152 1.369 . S
C1151 C1153 1.419 . S
C1151 H1155 0.930 . S
C1152 C1151 1.369 . S
C1152 C1161 1.429 . S
C1153 C1151 1.419 . S
C1153 C1154 1.363 . S
C1153 H1156 0.929 . S
C1154 C1153 1.363 . S
C1154 C1160 1.428 . S
H1155 C1151 0.930 . S
H1156 C1153 0.929 . S
S1157 N1158 1.613 . S
S1157 N1159 1.610 . S
N1158 S1157 1.613 . S
N1158 C1161 1.350 . S
N1159 S1157 1.610 . S
N1159 C1160 1.351 . S
C1160 C1154 1.428 . S
C1160 N1159 1.351 . S
C1160 C1161 1.434 . S
C1161 C1152 1.429 . S
C1161 N1158 1.350 . S
C1161 C1160 1.434 . S
C1162 C1163 1.369 1_565 S
C1162 C1164 1.419 . S
C1162 H1166 0.930 1_565 S
C1163 C1162 1.369 1_545 S
C1163 C1172 1.429 1_545 S
C1164 C1162 1.419 . S
C1164 C1165 1.363 . S
C1164 H1167 0.929 . S
C1165 C1164 1.363 . S
C1165 C1171 1.428 . S
H1166 C1162 0.930 1_545 S
H1167 C1164 0.929 . S
S1168 N1169 1.613 . S
S1168 N1170 1.610 . S
N1169 S1168 1.613 . S
N1169 C1172 1.350 . S
N1170 S1168 1.610 . S
N1170 C1171 1.351 . S
C1171 C1165 1.428 . S
C1171 N1170 1.351 . S
C1171 C1172 1.434 . S
C1172 C1163 1.429 1_565 S
C1172 N1169 1.350 . S
C1172 C1171 1.434 . S
C1173 C1174 1.369 . S
C1173 C1175 1.419 . S
C1173 H1177 0.930 . S
C1174 C1173 1.369 . S
C1174 C1183 1.429 . S
C1175 C1173 1.419 . S
C1175 C1176 1.363 . S
C1175 H1178 0.929 . S
C1176 C1175 1.363 . S
C1176 C1182 1.428 . S
H1177 C1173 0.930 . S
H1178 C1175 0.929 . S
S1179 N1180 1.613 . S
S1179 N1181 1.610 . S
N1180 S1179 1.613 . S
N1180 C1183 1.350 . S
N1181 S1179 1.610 . S
N1181 C1182 1.351 . S
C1182 C1176 1.428 . S
C1182 N1181 1.351 . S
C1182 C1183 1.434 . S
C1183 C1174 1.429 . S
C1183 N1180 1.350 . S
C1183 C1182 1.434 . S
C1184 C1185 1.369 . S
C1184 C1186 1.419 . S
C1184 H1188 0.930 . S
C1185 C1184 1.369 . S
C1185 C1194 1.429 . S
C1186 C1184 1.419 . S
C1186 C1187 1.363 . S
C1186 H1189 0.929 . S
C1187 C1186 1.363 . S
C1187 C1193 1.428 . S
H1188 C1184 0.930 . S
H1189 C1186 0.929 . S
S1190 N1191 1.613 . S
S1190 N1192 1.610 . S
N1191 S1190 1.613 . S
N1191 C1194 1.350 . S
N1192 S1190 1.610 . S
N1192 C1193 1.351 . S
C1193 C1187 1.428 . S
C1193 N1192 1.351 . S
C1193 C1194 1.434 . S
C1194 C1185 1.429 . S
C1194 N1191 1.350 . S
C1194 C1193 1.434 . S
C1195 C1196 1.369 . S
C1195 C1197 1.419 . S
C1195 H1199 0.930 . S
C1196 C1195 1.369 . S
C1196 C1205 1.429 . S
C1197 C1195 1.419 . S
C1197 C1198 1.363 . S
C1197 H1200 0.929 . S
C1198 C1197 1.363 . S
C1198 C1204 1.428 . S
H1199 C1195 0.930 . S
H1200 C1197 0.929 . S
S1201 N1202 1.613 . S
S1201 N1203 1.610 . S
N1202 S1201 1.613 . S
N1202 C1205 1.350 . S
N1203 S1201 1.610 . S
N1203 C1204 1.351 . S
C1204 C1198 1.428 . S
C1204 N1203 1.351 . S
C1204 C1205 1.434 . S
C1205 C1196 1.429 . S
C1205 N1202 1.350 . S
C1205 C1204 1.434 . S
C1206 C1207 1.369 . S
C1206 C1208 1.419 . S
C1206 H1210 0.930 . S
C1207 C1206 1.369 . S
C1207 C1216 1.429 . S
C1208 C1206 1.419 . S
C1208 C1209 1.363 . S
C1208 H1211 0.929 . S
C1209 C1208 1.363 . S
C1209 C1215 1.428 . S
H1210 C1206 0.930 . S
H1211 C1208 0.929 . S
S1212 N1213 1.613 . S
S1212 N1214 1.610 . S
N1213 S1212 1.613 . S
N1213 C1216 1.350 . S
N1214 S1212 1.610 . S
N1214 C1215 1.351 . S
C1215 C1209 1.428 . S
C1215 N1214 1.351 . S
C1215 C1216 1.434 . S
C1216 C1207 1.429 . S
C1216 N1213 1.350 . S
C1216 C1215 1.434 . S
C1217 C1218 1.369 . S
C1217 C1219 1.419 . S
C1217 H1221 0.930 . S
C1218 C1217 1.369 . S
C1218 C1227 1.429 . S
C1219 C1217 1.419 . S
C1219 C1220 1.363 . S
C1219 H1222 0.929 . S
C1220 C1219 1.363 . S
C1220 C1226 1.428 . S
H1221 C1217 0.930 . S
H1222 C1219 0.929 . S
S1223 N1224 1.613 . S
S1223 N1225 1.610 . S
N1224 S1223 1.613 . S
N1224 C1227 1.350 . S
N1225 S1223 1.610 . S
N1225 C1226 1.351 . S
C1226 C1220 1.428 . S
C1226 N1225 1.351 . S
C1226 C1227 1.434 . S
C1227 C1218 1.429 . S
C1227 N1224 1.350 . S
C1227 C1226 1.434 . S
C1228 C1229 1.369 . S
C1228 C1230 1.419 . S
C1228 H1232 0.930 . S
C1229 C1228 1.369 . S
C1229 C1238 1.429 . S
C1230 C1228 1.419 . S
C1230 C1231 1.363 . S
C1230 H1233 0.929 . S
C1231 C1230 1.363 . S
C1231 C1237 1.428 . S
H1232 C1228 0.930 . S
H1233 C1230 0.929 . S
S1234 N1235 1.613 . S
S1234 N1236 1.610 . S
N1235 S1234 1.613 . S
N1235 C1238 1.350 . S
N1236 S1234 1.610 . S
N1236 C1237 1.351 . S
C1237 C1231 1.428 . S
C1237 N1236 1.351 . S
C1237 C1238 1.434 . S
C1238 C1229 1.429 . S
C1238 N1235 1.350 . S
C1238 C1237 1.434 . S
C1239 C1240 1.368 . S
C1239 C1241 1.419 . S
C1239 H1243 0.930 . S
C1240 C1239 1.368 . S
C1240 C1249 1.428 . S
C1241 C1239 1.419 . S
C1241 C1242 1.363 . S
C1241 H1244 0.929 . S
C1242 C1241 1.363 . S
C1242 C1248 1.428 . S
H1243 C1239 0.930 . S
H1244 C1241 0.929 . S
S1245 N1246 1.613 . S
S1245 N1247 1.610 . S
N1246 S1245 1.613 . S
N1246 C1249 1.350 . S
N1247 S1245 1.610 . S
N1247 C1248 1.351 . S
C1248 C1242 1.428 . S
C1248 N1247 1.351 . S
C1248 C1249 1.434 . S
C1249 C1240 1.428 . S
C1249 N1246 1.350 . S
C1249 C1248 1.434 . S
C1250 C1251 1.369 . S
C1250 C1252 1.419 . S
C1250 H1254 0.930 . S
C1251 C1250 1.369 . S
C1251 C1260 1.429 . S
C1252 C1250 1.419 . S
C1252 C1253 1.363 . S
C1252 H1255 0.929 . S
C1253 C1252 1.363 . S
C1253 C1259 1.428 . S
H1254 C1250 0.930 . S
H1255 C1252 0.929 . S
S1256 N1257 1.613 . S
S1256 N1258 1.610 . S
N1257 S1256 1.613 . S
N1257 C1260 1.350 . S
N1258 S1256 1.610 . S
N1258 C1259 1.351 . S
C1259 C1253 1.428 . S
C1259 N1258 1.351 . S
C1259 C1260 1.434 . S
C1260 C1251 1.429 . S
C1260 N1257 1.350 . S
C1260 C1259 1.434 . S
C1261 C1262 1.369 . S
C1261 C1263 1.419 . S
C1261 H1265 0.930 . S
C1262 C1261 1.369 . S
C1262 C1271 1.429 . S
C1263 C1261 1.419 . S
C1263 C1264 1.363 . S
C1263 H1266 0.929 . S
C1264 C1263 1.363 . S
C1264 C1270 1.428 . S
H1265 C1261 0.930 . S
H1266 C1263 0.929 . S
S1267 N1268 1.613 . S
S1267 N1269 1.610 . S
N1268 S1267 1.613 . S
N1268 C1271 1.350 . S
N1269 S1267 1.610 . S
N1269 C1270 1.351 . S
C1270 C1264 1.428 . S
C1270 N1269 1.351 . S
C1270 C1271 1.434 . S
C1271 C1262 1.429 . S
C1271 N1268 1.350 . S
C1271 C1270 1.434 . S
C1272 C1273 1.369 . S
C1272 C1274 1.419 . S
C1272 H1276 0.930 . S
C1273 C1272 1.369 . S
C1273 C1282 1.429 . S
C1274 C1272 1.419 . S
C1274 C1275 1.363 . S
C1274 H1277 0.929 . S
C1275 C1274 1.363 . S
C1275 C1281 1.428 . S
H1276 C1272 0.930 . S
H1277 C1274 0.929 . S
S1278 N1279 1.613 . S
S1278 N1280 1.610 . S
N1279 S1278 1.613 . S
N1279 C1282 1.350 . S
N1280 S1278 1.610 . S
N1280 C1281 1.351 . S
C1281 C1275 1.428 . S
C1281 N1280 1.351 . S
C1281 C1282 1.434 . S
C1282 C1273 1.429 . S
C1282 N1279 1.350 . S
C1282 C1281 1.434 . S
C1283 C1284 1.369 . S
C1283 C1285 1.419 . S
C1283 H1287 0.930 . S
C1284 C1283 1.369 . S
C1284 C1293 1.429 . S
C1285 C1283 1.419 . S
C1285 C1286 1.363 . S
C1285 H1288 0.929 . S
C1286 C1285 1.363 . S
C1286 C1292 1.428 . S
H1287 C1283 0.930 . S
H1288 C1285 0.929 . S
S1289 N1290 1.613 . S
S1289 N1291 1.610 . S
N1290 S1289 1.613 . S
N1290 C1293 1.350 . S
N1291 S1289 1.610 . S
N1291 C1292 1.351 . S
C1292 C1286 1.428 . S
C1292 N1291 1.351 . S
C1292 C1293 1.434 . S
C1293 C1284 1.429 . S
C1293 N1290 1.350 . S
C1293 C1292 1.434 . S
C1294 C1295 1.369 . S
C1294 C1296 1.419 . S
C1294 H1298 0.930 . S
C1295 C1294 1.369 . S
C1295 C1304 1.429 . S
C1296 C1294 1.419 . S
C1296 C1297 1.363 . S
C1296 H1299 0.929 . S
C1297 C1296 1.363 . S
C1297 C1303 1.428 . S
H1298 C1294 0.930 . S
H1299 C1296 0.929 . S
S1300 N1301 1.613 . S
S1300 N1302 1.610 . S
N1301 S1300 1.613 . S
N1301 C1304 1.350 . S
N1302 S1300 1.610 . S
N1302 C1303 1.351 . S
C1303 C1297 1.428 . S
C1303 N1302 1.351 . S
C1303 C1304 1.434 . S
C1304 C1295 1.429 . S
C1304 N1301 1.350 . S
C1304 C1303 1.434 . S
C1305 C1306 1.365 1_545 S
C1305 C1307 1.419 . S
C1305 H1309 0.930 . S
C1306 C1305 1.365 1_565 S
C1306 C1315 1.422 1_565 S
C1307 C1305 1.419 . S
C1307 C1308 1.363 . S
C1307 H1310 0.929 . S
C1308 C1307 1.363 . S
C1308 C1314 1.428 . S
H1309 C1305 0.930 . S
H1310 C1307 0.929 . S
S1311 N1312 1.613 . S
S1311 N1313 1.610 . S
N1312 S1311 1.613 . S
N1312 C1315 1.350 . S
N1313 S1311 1.610 . S
N1313 C1314 1.351 . S
C1314 C1308 1.428 . S
C1314 N1313 1.351 . S
C1314 C1315 1.434 . S
C1315 C1306 1.422 1_545 S
C1315 N1312 1.350 . S
C1315 C1314 1.434 . S
C1316 C1317 1.369 . S
C1316 C1318 1.419 . S
C1316 H1320 0.930 . S
C1317 C1316 1.369 . S
C1317 C1326 1.429 . S
C1318 C1316 1.419 . S
C1318 C1319 1.363 . S
C1318 H1321 0.929 . S
C1319 C1318 1.363 . S
C1319 C1325 1.428 . S
H1320 C1316 0.930 . S
H1321 C1318 0.929 . S
S1322 N1323 1.613 . S
S1322 N1324 1.610 . S
N1323 S1322 1.613 . S
N1323 C1326 1.350 . S
N1324 S1322 1.610 . S
N1324 C1325 1.351 . S
C1325 C1319 1.428 . S
C1325 N1324 1.351 . S
C1325 C1326 1.434 . S
C1326 C1317 1.429 . S
C1326 N1323 1.350 . S
C1326 C1325 1.434 . S
C1327 C1328 1.369 . S
C1327 C1329 1.419 . S
C1327 H1331 0.930 . S
C1328 C1327 1.369 . S
C1328 C1337 1.429 . S
C1329 C1327 1.419 . S
C1329 C1330 1.363 . S
C1329 H1332 0.929 . S
C1330 C1329 1.363 . S
C1330 C1336 1.428 . S
H1331 C1327 0.930 . S
H1332 C1329 0.929 . S
S1333 N1334 1.613 . S
S1333 N1335 1.610 . S
N1334 S1333 1.613 . S
N1334 C1337 1.350 . S
N1335 S1333 1.610 . S
N1335 C1336 1.351 . S
C1336 C1330 1.428 . S
C1336 N1335 1.351 . S
C1336 C1337 1.434 . S
C1337 C1328 1.429 . S
C1337 N1334 1.350 . S
C1337 C1336 1.434 . S
C1338 C1339 1.369 . S
C1338 C1340 1.419 . S
C1338 H1342 0.930 1_655 S
C1339 C1338 1.369 . S
C1339 C1348 1.429 . S
C1340 C1338 1.419 . S
C1340 C1341 1.363 . S
C1340 H1343 0.929 . S
C1341 C1340 1.363 . S
C1341 C1347 1.428 . S
H1342 C1338 0.930 1_455 S
H1343 C1340 0.929 . S
S1344 N1345 1.613 . S
S1344 N1346 1.610 . S
N1345 S1344 1.613 . S
N1345 C1348 1.350 . S
N1346 S1344 1.610 . S
N1346 C1347 1.351 . S
C1347 C1341 1.428 . S
C1347 N1346 1.351 . S
C1347 C1348 1.434 . S
C1348 C1339 1.429 . S
C1348 N1345 1.350 . S
C1348 C1347 1.434 . S
C1349 C1350 1.369 . S
C1349 C1351 1.419 . S
C1349 H1353 0.930 . S
C1350 C1349 1.369 . S
C1350 C1359 1.429 . S
C1351 C1349 1.419 . S
C1351 C1352 1.363 . S
C1351 H1354 0.929 . S
C1352 C1351 1.363 . S
C1352 C1358 1.428 . S
H1353 C1349 0.930 . S
H1354 C1351 0.929 . S
S1355 N1356 1.613 . S
S1355 N1357 1.610 . S
N1356 S1355 1.613 . S
N1356 C1359 1.350 . S
N1357 S1355 1.610 . S
N1357 C1358 1.351 . S
C1358 C1352 1.428 . S
C1358 N1357 1.351 . S
C1358 C1359 1.434 . S
C1359 C1350 1.429 . S
C1359 N1356 1.350 . S
C1359 C1358 1.434 . S
C1360 C1361 1.369 1_545 S
C1360 C1362 1.419 . S
C1360 H1364 0.930 1_545 S
C1361 C1360 1.369 1_565 S
C1361 C1370 1.429 1_565 S
C1362 C1360 1.419 . S
C1362 C1363 1.363 . S
C1362 H1365 0.929 . S
C1363 C1362 1.363 . S
C1363 C1369 1.428 . S
H1364 C1360 0.930 1_565 S
H1365 C1362 0.929 . S
S1366 N1367 1.613 . S
S1366 N1368 1.610 . S
N1367 S1366 1.613 . S
N1367 C1370 1.350 . S
N1368 S1366 1.610 . S
N1368 C1369 1.351 . S
C1369 C1363 1.428 . S
C1369 N1368 1.351 . S
C1369 C1370 1.434 . S
C1370 C1361 1.429 1_545 S
C1370 N1367 1.350 . S
C1370 C1369 1.434 . S
C1371 C1372 1.369 . S
C1371 C1373 1.419 . S
C1371 H1375 0.930 . S
C1372 C1371 1.369 . S
C1372 C1381 1.429 . S
C1373 C1371 1.419 . S
C1373 C1374 1.363 . S
C1373 H1376 0.929 . S
C1374 C1373 1.363 . S
C1374 C1380 1.428 . S
H1375 C1371 0.930 . S
H1376 C1373 0.929 . S
S1377 N1378 1.613 . S
S1377 N1379 1.610 . S
N1378 S1377 1.613 . S
N1378 C1381 1.350 . S
N1379 S1377 1.610 . S
N1379 C1380 1.351 . S
C1380 C1374 1.428 . S
C1380 N1379 1.351 . S
C1380 C1381 1.434 . S
C1381 C1372 1.429 . S
C1381 N1378 1.350 . S
C1381 C1380 1.434 . S
C1382 C1383 1.369 . S
C1382 C1384 1.419 . S
C1382 H1386 0.930 . S
C1383 C1382 1.369 . S
C1383 C1392 1.429 . S
C1384 C1382 1.419 . S
C1384 C1385 1.363 . S
C1384 H1387 0.929 . S
C1385 C1384 1.363 . S
C1385 C1391 1.428 . S
H1386 C1382 0.930 . S
H1387 C1384 0.929 . S
S1388 N1389 1.613 . S
S1388 N1390 1.610 . S
N1389 S1388 1.613 . S
N1389 C1392 1.350 . S
N1390 S1388 1.610 . S
N1390 C1391 1.351 . S
C1391 C1385 1.428 . S
C1391 N1390 1.351 . S
C1391 C1392 1.434 . S
C1392 C1383 1.429 . S
C1392 N1389 1.350 . S
C1392 C1391 1.434 . S
C1393 C1394 1.369 . S
C1393 C1395 1.419 . S
C1393 H1397 0.930 . S
C1394 C1393 1.369 . S
C1394 C1403 1.429 . S
C1395 C1393 1.419 . S
C1395 C1396 1.363 . S
C1395 H1398 0.929 . S
C1396 C1395 1.363 . S
C1396 C1402 1.428 . S
H1397 C1393 0.930 . S
H1398 C1395 0.929 . S
S1399 N1400 1.613 . S
S1399 N1401 1.610 . S
N1400 S1399 1.613 . S
N1400 C1403 1.350 . S
N1401 S1399 1.610 . S
N1401 C1402 1.351 . S
C1402 C1396 1.428 . S
C1402 N1401 1.351 . S
C1402 C1403 1.434 . S
C1403 C1394 1.429 . S
C1403 N1400 1.350 . S
C1403 C1402 1.434 . S
C1404 C1405 1.369 . S
C1404 C1406 1.419 . S
C1404 H1408 0.930 . S
C1405 C1404 1.369 . S
C1405 C1414 1.429 1_565 S
C1406 C1404 1.419 . S
C1406 C1407 1.363 . S
C1406 H1409 0.929 . S
C1407 C1406 1.363 . S
C1407 C1413 1.428 1_565 S
H1408 C1404 0.930 . S
H1409 C1406 0.929 . S
S1410 N1411 1.613 . S
S1410 N1412 1.610 . S
N1411 S1410 1.613 . S
N1411 C1414 1.350 . S
N1412 S1410 1.610 . S
N1412 C1413 1.351 . S
C1413 C1407 1.428 1_545 S
C1413 N1412 1.351 . S
C1413 C1414 1.434 . S
C1414 C1405 1.429 1_545 S
C1414 N1411 1.350 . S
C1414 C1413 1.434 . S
C1415 C1416 1.369 . S
C1415 C1417 1.419 . S
C1415 H1419 0.930 . S
C1416 C1415 1.369 . S
C1416 C1425 1.429 1_455 S
C1417 C1415 1.419 . S
C1417 C1418 1.363 . S
C1417 H1420 0.929 . S
C1418 C1417 1.363 . S
C1418 C1424 1.428 1_455 S
H1419 C1415 0.930 . S
H1420 C1417 0.929 . S
S1421 N1422 1.613 . S
S1421 N1423 1.610 . S
N1422 S1421 1.613 . S
N1422 C1425 1.350 . S
N1423 S1421 1.610 . S
N1423 C1424 1.351 . S
C1424 C1418 1.428 1_655 S
C1424 N1423 1.351 . S
C1424 C1425 1.434 . S
C1425 C1416 1.429 1_655 S
C1425 N1422 1.350 . S
C1425 C1424 1.434 . S
C1426 C1427 1.369 . S
C1426 C1428 1.419 . S
C1426 H1430 0.930 . S
C1427 C1426 1.369 . S
C1427 C1436 1.429 . S
C1428 C1426 1.419 . S
C1428 C1429 1.363 . S
C1428 H1431 0.929 . S
C1429 C1428 1.363 . S
C1429 C1435 1.428 . S
H1430 C1426 0.930 . S
H1431 C1428 0.929 . S
S1432 N1433 1.613 . S
S1432 N1434 1.610 . S
N1433 S1432 1.613 . S
N1433 C1436 1.350 . S
N1434 S1432 1.610 . S
N1434 C1435 1.351 . S
C1435 C1429 1.428 . S
C1435 N1434 1.351 . S
C1435 C1436 1.434 . S
C1436 C1427 1.429 . S
C1436 N1433 1.350 . S
C1436 C1435 1.434 . S
C1437 C1438 1.369 . S
C1437 C1439 1.419 . S
C1437 H1441 0.930 . S
C1438 C1437 1.369 . S
C1438 C1447 1.429 . S
C1439 C1437 1.419 . S
C1439 C1440 1.363 . S
C1439 H1442 0.929 . S
C1440 C1439 1.363 . S
C1440 C1446 1.428 . S
H1441 C1437 0.930 . S
H1442 C1439 0.929 . S
S1443 N1444 1.613 . S
S1443 N1445 1.610 1_455 S
N1444 S1443 1.613 . S
N1444 C1447 1.350 1_455 S
N1445 S1443 1.610 1_655 S
N1445 C1446 1.351 . S
C1446 C1440 1.428 . S
C1446 N1445 1.351 . S
C1446 C1447 1.434 . S
C1447 C1438 1.429 . S
C1447 N1444 1.350 1_655 S
C1447 C1446 1.434 . S
C1448 C1449 1.369 . S
C1448 C1450 1.419 . S
C1448 H1452 0.930 . S
C1449 C1448 1.369 . S
C1449 C1458 1.429 . S
C1450 C1448 1.419 . S
C1450 C1451 1.363 . S
C1450 H1453 0.929 . S
C1451 C1450 1.363 . S
C1451 C1457 1.428 . S
H1452 C1448 0.930 . S
H1453 C1450 0.929 . S
S1454 N1455 1.613 . S
S1454 N1456 1.610 . S
N1455 S1454 1.613 . S
N1455 C1458 1.350 . S
N1456 S1454 1.610 . S
N1456 C1457 1.351 . S
C1457 C1451 1.428 . S
C1457 N1456 1.351 . S
C1457 C1458 1.434 . S
C1458 C1449 1.429 . S
C1458 N1455 1.350 . S
C1458 C1457 1.434 . S
C1459 C1460 1.369 . S
C1459 C1461 1.419 . S
C1459 H1463 0.930 . S
C1460 C1459 1.369 . S
C1460 C1469 1.429 . S
C1461 C1459 1.419 . S
C1461 C1462 1.363 . S
C1461 H1464 0.929 . S
C1462 C1461 1.363 . S
C1462 C1468 1.428 . S
H1463 C1459 0.930 . S
H1464 C1461 0.929 . S
S1465 N1466 1.613 1_565 S
S1465 N1467 1.610 . S
N1466 S1465 1.613 1_545 S
N1466 C1469 1.350 . S
N1467 S1465 1.610 . S
N1467 C1468 1.351 1_565 S
C1468 C1462 1.428 . S
C1468 N1467 1.351 1_545 S
C1468 C1469 1.434 . S
C1469 C1460 1.429 . S
C1469 N1466 1.350 . S
C1469 C1468 1.434 . S
C1470 C1471 1.369 . S
C1470 C1472 1.419 . S
C1470 H1474 0.930 . S
C1471 C1470 1.369 . S
C1471 C1480 1.429 . S
C1472 C1470 1.419 . S
C1472 C1473 1.363 . S
C1472 H1475 0.929 . S
C1473 C1472 1.363 . S
C1473 C1479 1.428 . S
H1474 C1470 0.930 . S
H1475 C1472 0.929 . S
S1476 N1477 1.613 . S
S1476 N1478 1.610 . S
N1477 S1476 1.613 . S
N1477 C1480 1.350 . S
N1478 S1476 1.610 . S
N1478 C1479 1.351 . S
C1479 C1473 1.428 . S
C1479 N1478 1.351 . S
C1479 C1480 1.434 . S
C1480 C1471 1.429 . S
C1480 N1477 1.350 . S
C1480 C1479 1.434 . S
C1481 C1482 1.369 . S
C1481 C1483 1.419 . S
C1481 H1485 0.930 . S
C1482 C1481 1.369 . S
C1482 C1491 1.429 . S
C1483 C1481 1.419 . S
C1483 C1484 1.363 . S
C1483 H1486 0.929 . S
C1484 C1483 1.363 . S
C1484 C1490 1.428 . S
H1485 C1481 0.930 . S
H1486 C1483 0.929 . S
S1487 N1488 1.613 . S
S1487 N1489 1.610 . S
N1488 S1487 1.613 . S
N1488 C1491 1.350 . S
N1489 S1487 1.610 . S
N1489 C1490 1.351 . S
C1490 C1484 1.428 . S
C1490 N1489 1.351 . S
C1490 C1491 1.434 . S
C1491 C1482 1.429 . S
C1491 N1488 1.350 . S
C1491 C1490 1.434 . S
C1492 C1493 1.369 . S
C1492 C1494 1.419 . S
C1492 H1496 0.930 . S
C1493 C1492 1.369 . S
C1493 C1502 1.429 . S
C1494 C1492 1.419 . S
C1494 C1495 1.363 . S
C1494 H1497 0.929 . S
C1495 C1494 1.363 . S
C1495 C1501 1.428 . S
H1496 C1492 0.930 . S
H1497 C1494 0.929 . S
S1498 N1499 1.613 . S
S1498 N1500 1.610 . S
N1499 S1498 1.613 . S
N1499 C1502 1.350 . S
N1500 S1498 1.610 . S
N1500 C1501 1.351 . S
C1501 C1495 1.428 . S
C1501 N1500 1.351 . S
C1501 C1502 1.434 . S
C1502 C1493 1.429 . S
C1502 N1499 1.350 . S
C1502 C1501 1.434 . S
C1503 C1504 1.369 . S
C1503 C1505 1.419 . S
C1503 H1507 0.930 . S
C1504 C1503 1.369 . S
C1504 C1513 1.429 . S
C1505 C1503 1.419 . S
C1505 C1506 1.363 . S
C1505 H1508 0.929 . S
C1506 C1505 1.363 . S
C1506 C1512 1.428 . S
H1507 C1503 0.930 . S
H1508 C1505 0.929 . S
S1509 N1510 1.613 . S
S1509 N1511 1.610 . S
N1510 S1509 1.613 . S
N1510 C1513 1.350 . S
N1511 S1509 1.610 . S
N1511 C1512 1.351 . S
C1512 C1506 1.428 . S
C1512 N1511 1.351 . S
C1512 C1513 1.434 . S
C1513 C1504 1.429 . S
C1513 N1510 1.350 . S
C1513 C1512 1.434 . S
C1514 C1515 1.369 . S
C1514 C1516 1.419 . S
C1514 H1518 0.930 . S
C1515 C1514 1.369 . S
C1515 C1524 1.429 . S
C1516 C1514 1.419 . S
C1516 C1517 1.363 . S
C1516 H1519 0.929 . S
C1517 C1516 1.363 . S
C1517 C1523 1.428 . S
H1518 C1514 0.930 . S
H1519 C1516 0.929 . S
S1520 N1521 1.613 . S
S1520 N1522 1.610 . S
N1521 S1520 1.613 . S
N1521 C1524 1.350 . S
N1522 S1520 1.610 . S
N1522 C1523 1.351 . S
C1523 C1517 1.428 . S
C1523 N1522 1.351 . S
C1523 C1524 1.434 . S
C1524 C1515 1.429 . S
C1524 N1521 1.350 . S
C1524 C1523 1.434 . S
C1525 C1526 1.369 . S
C1525 C1527 1.419 . S
C1525 H1529 0.930 . S
C1526 C1525 1.369 . S
C1526 C1535 1.429 . S
C1527 C1525 1.419 . S
C1527 C1528 1.363 . S
C1527 H1530 0.929 . S
C1528 C1527 1.363 . S
C1528 C1534 1.428 . S
H1529 C1525 0.930 . S
H1530 C1527 0.929 . S
S1531 N1532 1.613 . S
S1531 N1533 1.610 . S
N1532 S1531 1.613 . S
N1532 C1535 1.350 . S
N1533 S1531 1.610 . S
N1533 C1534 1.351 . S
C1534 C1528 1.428 . S
C1534 N1533 1.351 . S
C1534 C1535 1.434 . S
C1535 C1526 1.429 . S
C1535 N1532 1.350 . S
C1535 C1534 1.434 . S
C1536 C1537 1.369 . S
C1536 C1538 1.419 . S
C1536 H1540 0.930 . S
C1537 C1536 1.369 . S
C1537 C1546 1.429 . S
C1538 C1536 1.419 . S
C1538 C1539 1.363 . S
C1538 H1541 0.929 . S
C1539 C1538 1.363 . S
C1539 C1545 1.428 . S
H1540 C1536 0.930 . S
H1541 C1538 0.929 . S
S1542 N1543 1.613 . S
S1542 N1544 1.610 . S
N1543 S1542 1.613 . S
N1543 C1546 1.350 . S
N1544 S1542 1.610 . S
N1544 C1545 1.351 . S
C1545 C1539 1.428 . S
C1545 N1544 1.351 . S
C1545 C1546 1.434 . S
C1546 C1537 1.429 . S
C1546 N1543 1.350 . S
C1546 C1545 1.434 . S
C1547 C1548 1.369 . S
C1547 C1549 1.419 . S
C1547 H1551 0.930 . S
C1548 C1547 1.369 . S
C1548 C1557 1.429 . S
C1549 C1547 1.419 . S
C1549 C1550 1.363 . S
C1549 H1552 0.929 . S
C1550 C1549 1.363 . S
C1550 C1556 1.428 . S
H1551 C1547 0.930 . S
H1552 C1549 0.929 . S
S1553 N1554 1.613 . S
S1553 N1555 1.610 . S
N1554 S1553 1.613 . S
N1554 C1557 1.350 . S
N1555 S1553 1.610 . S
N1555 C1556 1.351 . S
C1556 C1550 1.428 . S
C1556 N1555 1.351 . S
C1556 C1557 1.434 . S
C1557 C1548 1.429 . S
C1557 N1554 1.350 . S
C1557 C1556 1.434 . S
C1558 C1559 1.369 . S
C1558 C1560 1.419 . S
C1558 H1562 0.930 . S
C1559 C1558 1.369 . S
C1559 C1568 1.429 . S
C1560 C1558 1.419 . S
C1560 C1561 1.363 . S
C1560 H1563 0.929 . S
C1561 C1560 1.363 . S
C1561 C1567 1.428 . S
H1562 C1558 0.930 . S
H1563 C1560 0.929 . S
S1564 N1565 1.613 . S
S1564 N1566 1.610 . S
N1565 S1564 1.613 . S
N1565 C1568 1.350 . S
N1566 S1564 1.610 . S
N1566 C1567 1.351 . S
C1567 C1561 1.428 . S
C1567 N1566 1.351 . S
C1567 C1568 1.434 . S
C1568 C1559 1.429 . S
C1568 N1565 1.350 . S
C1568 C1567 1.434 . S
C1569 C1570 1.369 . S
C1569 C1571 1.419 . S
C1569 H1573 0.930 . S
C1570 C1569 1.369 . S
C1570 C1579 1.429 . S
C1571 C1569 1.419 . S
C1571 C1572 1.363 . S
C1571 H1574 0.929 . S
C1572 C1571 1.363 . S
C1572 C1578 1.428 . S
H1573 C1569 0.930 . S
H1574 C1571 0.929 . S
S1575 N1576 1.613 . S
S1575 N1577 1.610 . S
N1576 S1575 1.613 . S
N1576 C1579 1.350 . S
N1577 S1575 1.610 . S
N1577 C1578 1.351 . S
C1578 C1572 1.428 . S
C1578 N1577 1.351 . S
C1578 C1579 1.434 . S
C1579 C1570 1.429 . S
C1579 N1576 1.350 . S
C1579 C1578 1.434 . S
C1580 C1581 1.369 . S
C1580 C1582 1.419 . S
C1580 H1584 0.930 . S
C1581 C1580 1.369 . S
C1581 C1590 1.429 . S
C1582 C1580 1.419 . S
C1582 C1583 1.363 . S
C1582 H1585 0.929 . S
C1583 C1582 1.363 . S
C1583 C1589 1.428 . S
H1584 C1580 0.930 . S
H1585 C1582 0.929 . S
S1586 N1587 1.613 . S
S1586 N1588 1.610 . S
N1587 S1586 1.613 . S
N1587 C1590 1.350 . S
N1588 S1586 1.610 . S
N1588 C1589 1.351 . S
C1589 C1583 1.428 . S
C1589 N1588 1.351 . S
C1589 C1590 1.434 . S
C1590 C1581 1.429 . S
C1590 N1587 1.350 . S
C1590 C1589 1.434 . S
C1591 C1592 1.369 . S
C1591 C1593 1.419 . S
C1591 H1595 0.930 . S
C1592 C1591 1.369 . S
C1592 C1601 1.429 . S
C1593 C1591 1.419 . S
C1593 C1594 1.363 . S
C1593 H1596 0.929 . S
C1594 C1593 1.363 . S
C1594 C1600 1.428 . S
H1595 C1591 0.930 . S
H1596 C1593 0.929 . S
S1597 N1598 1.613 . S
S1597 N1599 1.610 . S
N1598 S1597 1.613 . S
N1598 C1601 1.350 . S
N1599 S1597 1.610 . S
N1599 C1600 1.351 . S
C1600 C1594 1.428 . S
C1600 N1599 1.351 . S
C1600 C1601 1.434 . S
C1601 C1592 1.429 . S
C1601 N1598 1.350 . S
C1601 C1600 1.434 . S
C1009 C469 1.737 . S
C1011 C657 1.689 . S
C1020 C505 1.784 . S
C1022 C697 1.732 . S
C1031 C433 1.809 . S
C1033 C736 1.816 . S
C1042 C397 1.654 . S
C1044 C696 1.638 . S
C1055 C737 1.496 . S
C1053 C325 1.530 . S
C1064 C361 1.558 . S
C1066 C656 1.590 . S
C1077 C667 1.686 . S
C1075 C421 1.751 . S
C1088 C707 1.735 . S
C1086 C349 1.778 . S
C1097 C385 1.809 . S
C1099 C746 1.815 . S
C1108 C493 1.651 . S
C1110 C706 1.636 . S
C1119 C529 1.538 . S
C1121 C747 1.500 . S
C1132 C666 1.598 . S
C1130 C457 1.563 . S
C1143 C777 1.692 . S
C1141 C37 1.733 1_455 S
C1152 C73 1.780 . S
C1154 C817 1.737 . S
C1163 C1 1.818 . S
C1165 C856 1.813 . S
C1174 C613 1.654 . S
C1176 C816 1.635 . S
C1185 C541 1.527 . S
C1187 C857 1.498 . S
C1196 C577 1.564 . S
C1198 C776 1.590 . S
C1207 C637 1.750 . S
C1209 C787 1.687 . S
C1218 C565 1.779 . S
C1220 C827 1.734 . S
C1231 C866 1.820 . S
C1229 C601 1.803 . S
C1240 C61 1.652 1_565 S
C1242 C826 1.638 . S
C1253 C867 1.498 . S
C1251 C97 1.539 1_455 S
C1262 C25 1.563 . S
C1264 C786 1.596 . S
C1275 C897 1.690 . S
C1273 C253 1.734 . S
C1284 C289 1.780 . S
C1286 C937 1.736 . S
C1297 C976 1.814 . S
C1295 C217 1.817 . S
C1308 C936 1.641 . S
C1306 C181 1.659 . S
C1319 C977 1.500 . S
C1317 C109 1.524 1_655 S
C1328 C145 1.555 . S
C1330 C896 1.593 . S
C1339 C205 1.748 1_655 S
C1341 C907 1.689 . S
C1350 C133 1.781 . S
C1352 C947 1.731 . S
C1363 C986 1.815 . S
C1361 C169 1.809 . S
C1372 C277 1.649 . S
C1374 C946 1.640 . S
C1383 C313 1.540 . S
C1385 C987 1.497 . S
C1394 C241 1.565 . S
C1396 C906 1.597 . S
C1405 C571 1.403 . S
C1407 C653 1.398 . S
C1418 C693 1.830 . S
C1416 C607 1.832 . S
C1427 C643 1.576 . S
C1429 C743 1.584 . S
C1438 C247 1.833 . S
C1440 C703 1.829 . S
C1449 C283 1.581 . S
C1451 C733 1.586 . S
C1462 C663 1.396 . S
C1460 C319 1.404 . S
C1471 C139 1.403 . S
C1473 C773 1.397 . S
C1482 C175 1.829 . S
C1484 C813 1.831 . S
C1493 C211 1.579 . S
C1495 C863 1.584 . S
C1504 C463 1.831 . S
C1506 C823 1.829 . S
C1517 C853 1.585 . S
C1515 C499 1.581 . S
C1526 C535 1.404 . S
C1528 C783 1.397 . S
C1537 C355 1.404 . S
C1539 C893 1.396 . S
C1548 C391 1.831 . S
C1550 C933 1.830 . S
C1561 C983 1.584 . S
C1559 C427 1.580 . S
C1570 C31 1.831 . S
C1572 C943 1.829 . S
C1581 C67 1.581 . S
C1583 C973 1.585 . S
C1592 C103 1.405 . S
C1594 C903 1.396 . S
