# Generated by pormake.
# Topology zzz, (3,6)-cn, num edge types: 1
# Building blocks:
#     Node 0, Type 0, BuildingBlock: PAMTOO_clean_linker_0, # of connection points: 3
#     Node 1, Type 0, BuildingBlock: PAMTOO_clean_linker_0, # of connection points: 3
#     Node 2, Type 0, BuildingBlock: PAMTOO_clean_linker_0, # of connection points: 3
#     Node 3, Type 0, BuildingBlock: PAMTOO_clean_linker_0, # of connection points: 3
#     Node 4, Type 0, BuildingBlock: PAMTOO_clean_linker_0, # of connection points: 3
#     Node 5, Type 0, BuildingBlock: PAMTOO_clean_linker_0, # of connection points: 3
#     Node 6, Type 0, BuildingBlock: PAMTOO_clean_linker_0, # of connection points: 3
#     Node 7, Type 0, BuildingBlock: PAMTOO_clean_linker_0, # of connection points: 3
#     Node 8, Type 1, BuildingBlock: NUHQIS_clean_sbu_0, # of connection points: 6
#     Node 9, Type 1, BuildingBlock: NUHQIS_clean_sbu_0, # of connection points: 6
#     Node 10, Type 1, BuildingBlock: NUHQIS_clean_sbu_0, # of connection points: 6
#     Node 11, Type 1, BuildingBlock: NUHQIS_clean_sbu_0, # of connection points: 6
#     Edge 12, Type (0, 1), BuildingBlock: CIFDUS_clean_linker_0, # of connection points: 2
#     Edge 13, Type (0, 1), BuildingBlock: CIFDUS_clean_linker_0, # of connection points: 2
#     Edge 14, Type (0, 1), BuildingBlock: CIFDUS_clean_linker_0, # of connection points: 2
#     Edge 15, Type (0, 1), BuildingBlock: CIFDUS_clean_linker_0, # of connection points: 2
#     Edge 16, Type (0, 1), BuildingBlock: CIFDUS_clean_linker_0, # of connection points: 2
#     Edge 17, Type (0, 1), BuildingBlock: CIFDUS_clean_linker_0, # of connection points: 2
#     Edge 18, Type (0, 1), BuildingBlock: CIFDUS_clean_linker_0, # of connection points: 2
#     Edge 19, Type (0, 1), BuildingBlock: CIFDUS_clean_linker_0, # of connection points: 2
#     Edge 20, Type (0, 1), BuildingBlock: CIFDUS_clean_linker_0, # of connection points: 2
#     Edge 21, Type (0, 1), BuildingBlock: CIFDUS_clean_linker_0, # of connection points: 2
#     Edge 22, Type (0, 1), BuildingBlock: CIFDUS_clean_linker_0, # of connection points: 2
#     Edge 23, Type (0, 1), BuildingBlock: CIFDUS_clean_linker_0, # of connection points: 2
#     Edge 24, Type (0, 1), BuildingBlock: CIFDUS_clean_linker_0, # of connection points: 2
#     Edge 25, Type (0, 1), BuildingBlock: CIFDUS_clean_linker_0, # of connection points: 2
#     Edge 26, Type (0, 1), BuildingBlock: CIFDUS_clean_linker_0, # of connection points: 2
#     Edge 27, Type (0, 1), BuildingBlock: CIFDUS_clean_linker_0, # of connection points: 2
#     Edge 28, Type (0, 1), BuildingBlock: CIFDUS_clean_linker_0, # of connection points: 2
#     Edge 29, Type (0, 1), BuildingBlock: CIFDUS_clean_linker_0, # of connection points: 2
#     Edge 30, Type (0, 1), BuildingBlock: CIFDUS_clean_linker_0, # of connection points: 2
#     Edge 31, Type (0, 1), BuildingBlock: CIFDUS_clean_linker_0, # of connection points: 2
#     Edge 32, Type (0, 1), BuildingBlock: CIFDUS_clean_linker_0, # of connection points: 2
#     Edge 33, Type (0, 1), BuildingBlock: CIFDUS_clean_linker_0, # of connection points: 2
#     Edge 34, Type (0, 1), BuildingBlock: CIFDUS_clean_linker_0, # of connection points: 2
#     Edge 35, Type (0, 1), BuildingBlock: CIFDUS_clean_linker_0, # of connection points: 2
# Relax obj value: 0.283
# Max RMSD: 0.166
# Mean RMSD: 0.137
data_MOF--net-zzz--node1-NUHQIS_clean_sbu_0--node2-PAMTOO_clean_linker_0--edge1-CIFDUS_clean_linker_0
_symmetry_space_group_name_H-M    P1
_symmetry_Int_Tables_number       1
_symmetry_cell_setting            triclinic
loop_
_symmetry_equiv_pos_as_xyz
'x, y, z'
_cell_length_a     44.985207
_cell_length_b     45.003624
_cell_length_c     12.255735
_cell_angle_alpha  90.41007
_cell_angle_beta   90.171955
_cell_angle_gamma 89.44704
loop_
_atom_site_label
_atom_site_type_symbol
_atom_site_fract_x
_atom_site_fract_y
_atom_site_fract_z
_atom_type_partial_charge
H0 H 0.83008 0.47417 0.39709 0.0
H1 H 0.74694 0.48896 0.23145 0.0
H2 H 0.77027 0.54272 0.51082 0.0
H3 H 0.69621 0.53247 0.47198 0.0
C4 C 0.70131 0.52213 0.39147 0.0
O5 O 0.72883 0.53216 0.35709 0.0
H6 H 0.70188 0.49764 0.40425 0.0
C7 C 0.80871 0.4855 0.3923 0.0
C8 C 0.80274 0.50884 0.46516 0.0
C9 C 0.78879 0.47808 0.30825 0.0
C10 C 0.76201 0.49393 0.29813 0.0
C11 C 0.7547 0.51669 0.37232 0.0
C12 C 0.77527 0.52439 0.45598 0.0
H13 H 0.96799 0.82595 0.33567 0.0
H14 H 0.98092 0.7338 0.25866 0.0
H15 H 1.02 0.77029 0.55018 0.0
H16 H 0.05053 0.69974 0.44653 0.0
C17 C 0.03512 0.70796 0.38228 0.0
O18 O 1.01038 0.72064 0.43288 0.0
H19 H 0.04761 0.72507 0.3363 0.0
C20 C 0.97701 0.80448 0.35813 0.0
C21 C 0.99489 0.80209 0.45216 0.0
C22 C 0.97327 0.78054 0.28511 0.0
C23 C 0.98346 0.75235 0.31476 0.0
C24 C 0.99987 0.74841 0.4105 0.0
C25 C 1.00609 0.77333 0.47885 0.0
H26 H 0.71279 0.0824 0.40433 0.0
H27 H 0.79234 0.07714 0.21044 0.0
H28 H 0.76418 1.00175 0.39572 0.0
H29 H 0.83734 1.00297 0.34347 0.0
C30 C 0.83342 1.02262 0.29077 0.0
O31 O 0.80418 1.02204 0.25461 0.0
H32 H 0.83753 0.04278 0.34167 0.0
C33 C 0.73292 0.07082 0.37962 0.0
C34 C 0.73684 0.04143 0.41412 0.0
C35 C 0.75236 0.08403 0.3047 0.0
C36 C 0.77715 0.06758 0.26839 0.0
C37 C 0.78176 0.03812 0.30137 0.0
C38 C 0.76136 1.02486 0.37366 0.0
H39 H 0.47382 0.72506 0.43419 0.0
H40 H 0.48295 0.80778 0.26475 0.0
H41 H 0.55129 0.77829 0.48658 0.0
H42 H 0.54519 0.85582 0.44286 0.0
C43 C 0.52866 0.84961 0.37933 0.0
O44 O 0.53459 0.82055 0.34609 0.0
H45 H 0.50617 0.85151 0.41661 0.0
C46 C 0.48541 0.74578 0.42218 0.0
C47 C 0.513 0.74945 0.47366 0.0
C48 C 0.47429 0.76638 0.34617 0.0
C49 C 0.49079 0.79195 0.32476 0.0
C50 C 0.51818 0.79676 0.37657 0.0
C51 C 0.52952 0.77529 0.45044 0.0
H52 H 0.22298 0.58281 0.1383 0.0
H53 H 0.31018 0.57589 0.28044 0.0
H54 H 0.27851 0.50705 0.06384 0.0
H55 H 0.331 0.48375 0.24269 0.0
C56 C 0.33031 0.50703 0.27338 0.0
O57 O 0.32442 0.52575 0.18605 0.0
H58 H 0.31197 0.5084 0.33424 0.0
C59 C 0.24421 0.57126 0.14475 0.0
C60 C 0.24785 0.54389 0.09147 0.0
C61 C 0.2664 0.58296 0.21274 0.0
C62 C 0.29326 0.56741 0.22564 0.0
C63 C 0.29798 0.54022 0.17146 0.0
C64 C 0.27519 0.52835 0.10387 0.0
H65 H 0.08542 0.2231 0.16535 0.0
H66 H 0.07615 0.31165 0.29682 0.0
H67 H 1.01532 0.27999 0.05062 0.0
H68 H 1.0073 0.31655 0.31146 0.0
C69 C 1.01052 0.33493 0.25227 0.0
O70 O 0.03163 0.32685 0.17445 0.0
H71 H 0.98883 0.33827 0.21039 0.0
C72 C 0.07456 0.24466 0.16646 0.0
C73 C 0.04941 0.24827 0.10032 0.0
C74 C 0.08378 0.26661 0.24152 0.0
C75 C 0.06954 0.29444 0.23966 0.0
C76 C 0.0452 0.29964 0.17044 0.0
C77 C 0.03482 0.27639 0.10096 0.0
H78 H 0.33445 0.97464 0.19691 0.0
H79 H 0.24923 0.98799 0.3485 0.0
H80 H 0.27339 0.03975 0.06815 0.0
H81 H 0.2206 0.07195 0.23594 0.0
C82 C 0.22289 0.05108 0.28317 0.0
O83 O 0.23043 0.02811 0.21195 0.0
H84 H 0.24091 0.05465 0.34437 0.0
C85 C 0.31281 0.98552 0.19841 0.0
C86 C 0.30649 1.0076 0.12178 0.0
C87 C 0.29251 0.97848 0.28071 0.0
C88 C 0.26497 0.99318 0.28476 0.0
C89 C 0.25781 1.01511 0.20814 0.0
C90 C 0.27878 1.02267 0.12696 0.0
H91 H 0.58434 0.3334 0.10956 0.0
H92 H 0.58564 0.25472 0.30679 0.0
H93 H 0.50445 0.28372 0.15229 0.0
H94 H 0.54752 0.20937 0.18344 0.0
C95 C 0.52843 0.21388 0.23879 0.0
O96 O 0.52952 0.2427 0.27957 0.0
H97 H 0.50771 0.21157 0.18994 0.0
C98 C 0.57358 0.31351 0.13859 0.0
C99 C 0.54314 0.31043 0.11823 0.0
C100 C 0.58918 0.29413 0.20814 0.0
C101 C 0.57422 0.26959 0.25122 0.0
C102 C 0.5439 0.26521 0.22899 0.0
C103 C 0.52818 0.28605 0.16413 0.0
Tb104 Tb 0.04462 1.01133 0.86937 0.0
Eu105 Eu 1.00772 0.04028 0.67351 0.0
C106 C 0.07852 0.0351 0.669 0.0
C107 C 0.03219 0.08074 0.87184 0.0
C108 C 0.06901 0.94975 0.02305 0.0
C109 C 0.06711 0.90108 0.93483 0.0
C110 C 0.07889 0.92961 0.94181 0.0
C111 C 0.04943 0.9397 0.10337 0.0
C112 C 0.03756 0.91129 0.09595 0.0
C113 C 0.04531 0.89228 1.00882 0.0
C114 C 0.07286 0.98203 1.00831 0.0
O115 O 0.99857 0.99968 0.9035 0.0
O116 O 0.97345 0.03553 0.8075 0.0
O117 O 0.99744 0.99137 0.65765 0.0
O118 O 0.03841 0.97472 0.75105 0.0
C119 C 0.97436 1.01557 0.88542 0.0
O120 O 0.98101 0.07656 0.60572 0.0
O121 O 0.99606 0.04083 0.50014 0.0
O122 O 0.05428 0.03027 0.61271 0.0
O123 O 0.07716 0.0361 0.77571 0.0
O124 O 0.03464 0.05631 0.9302 0.0
O125 O 0.0285 0.07901 0.76555 0.0
C126 C 1.0158 0.96974 0.68508 0.0
O127 O 0.08429 0.98985 0.91533 0.0
O128 O 0.04973 0.99848 0.03305 0.0
C129 C 1.00729 0.08996 0.4499 0.0
C130 C 0.05188 0.13292 0.42362 0.0
C131 C 1.02191 0.14154 0.43814 0.0
C132 C 0.99987 0.12026 0.45186 0.0
C133 C 0.03663 0.08139 0.42346 0.0
C134 C 0.05874 0.10261 0.41149 0.0
C135 C 0.98795 0.06871 0.50618 0.0
H136 H 0.0738 0.88656 0.86824 0.0
H137 H 0.09413 0.9365 0.8788 0.0
H138 H 0.04158 0.95454 0.16734 0.0
H139 H 1.02157 0.90448 0.15661 0.0
H140 H 1.01557 0.16479 0.44264 0.0
H141 H 0.97751 0.12749 0.47223 0.0
H142 H 0.04315 0.0582 0.42054 0.0
H143 H 0.08142 0.09513 0.39867 0.0
Tb144 Tb 0.53309 0.05604 0.88803 0.0
Eu145 Eu 0.51727 1.00397 0.70982 0.0
C146 C 0.52181 0.07294 0.64397 0.0
C147 C 0.46649 0.03308 0.86212 0.0
C148 C 0.56937 0.11915 0.02698 0.0
C149 C 0.59359 0.15952 0.12351 0.0
C150 C 0.56799 0.14317 0.09992 0.0
C151 C 0.59563 0.11344 0.9698 0.0
C152 C 0.6213 0.12913 0.99479 0.0
C153 C 0.62118 0.15142 0.07676 0.0
C154 C 0.5447 0.09821 0.01824 0.0
O155 O 0.52516 1.01673 0.98838 0.0
O156 O 0.53182 0.97958 0.86147 0.0
O157 O 0.56478 1.0162 0.67303 0.0
O158 O 0.5769 0.03954 0.83461 0.0
C159 C 0.52934 0.98848 0.96328 0.0
O160 O 0.52274 0.9586 0.64778 0.0
O161 O 0.49477 0.98985 0.56098 0.0
O162 O 0.50638 0.04846 0.63225 0.0
O163 O 0.53922 0.07656 0.72894 0.0
O164 O 0.48446 0.05565 0.87823 0.0
O165 O 0.4756 1.00878 0.81175 0.0
C166 C 0.58463 0.02754 0.73998 0.0
O167 O 0.52767 0.10101 0.93279 0.0
O168 O 0.55188 0.07048 0.03547 0.0
C169 C 0.47917 0.94064 0.56389 0.0
C170 C 0.42427 0.91199 0.54 0.0
C171 C 0.43461 0.92022 0.6443 0.0
C172 C 0.46185 0.93463 0.65609 0.0
C173 C 0.4704 0.92983 0.4618 0.0
C174 C 0.44332 0.91539 0.4499 0.0
C175 C 0.50328 0.96223 0.57 0.0
H176 H 0.59201 0.17716 0.18361 0.0
H177 H 0.54755 0.14829 0.14259 0.0
H178 H 0.5968 0.09535 0.91131 0.0
H179 H 0.64156 0.12159 0.95586 0.0
H180 H 0.42061 0.91772 0.71534 0.0
H181 H 0.46831 0.94297 0.73578 0.0
H182 H 0.48323 0.93474 0.38971 0.0
H183 H 0.43608 0.9098 0.368 0.0
Tb184 Tb 0.50271 0.53482 0.89579 0.0
Eu185 Eu 0.54524 0.52245 0.68533 0.0
C186 C 0.4749 0.52313 0.66371 0.0
C187 C 0.52223 0.46872 0.84301 0.0
C188 C 0.45108 0.57767 0.06451 0.0
C189 C 0.40759 0.60623 0.12157 0.0
C190 C 0.42173 0.57881 0.10278 0.0
C191 C 0.46563 0.60416 0.04014 0.0
C192 C 0.45162 0.6314 0.05825 0.0
C193 C 0.42256 0.6329 0.10072 0.0
C194 C 0.46597 0.54904 0.04309 0.0
O195 O 0.54802 0.54227 0.95864 0.0
O196 O 0.57279 0.51302 0.83547 0.0
O197 O 0.54615 0.57253 0.70589 0.0
O198 O 0.50351 0.57691 0.80685 0.0
C199 C 0.57188 0.52697 0.92977 0.0
O200 O 0.58971 0.52259 0.61309 0.0
O201 O 0.55233 0.50658 0.51891 0.0
O202 O 0.49929 0.53215 0.61625 0.0
O203 O 0.47563 0.51504 0.76646 0.0
O204 O 0.51449 0.4881 0.91906 0.0
O205 O 0.53 0.47721 0.74422 0.0
C206 C 0.52446 0.58886 0.74687 0.0
O207 O 0.45857 0.5364 0.95165 0.0
O208 O 0.49466 0.54829 0.05777 0.0
C209 C 0.5966 0.47835 0.51327 0.0
C210 C 0.62586 0.42265 0.50171 0.0
C211 C 0.6406 0.44861 0.46939 0.0
C212 C 0.62611 0.47639 0.47642 0.0
C213 C 0.58203 0.45241 0.54437 0.0
C214 C 0.5964 0.42504 0.53893 0.0
C215 C 0.58127 0.50718 0.5282 0.0
H216 H 0.38523 0.60658 0.15407 0.0
H217 H 0.40987 0.55854 0.11856 0.0
H218 H 0.4881 0.60387 1.00855 0.0
H219 H 0.46429 0.65131 0.04358 0.0
H220 H 0.66314 0.4474 0.43877 0.0
H221 H 0.63785 0.49624 0.45345 0.0
H222 H 0.55927 0.4532 0.57261 0.0
H223 H 0.58389 0.40551 0.56069 0.0
Tb224 Tb 1.01185 0.5079 0.89449 0.0
Eu225 Eu 0.0361 0.54637 0.68953 0.0
C226 C 1.02451 0.47631 0.66274 0.0
C227 C 0.08101 0.52232 0.87515 0.0
C228 C 0.9733 0.4506 0.05271 0.0
C229 C 0.93351 0.42271 0.96729 0.0
C230 C 0.95877 0.44038 0.95833 0.0
C231 C 0.96432 0.44062 0.15493 0.0
C232 C 0.93931 0.42282 0.164 0.0
C233 C 0.92247 0.41528 0.07078 0.0
C234 C 0.99452 0.47496 0.04683 0.0
O235 O 1.00792 0.5539 0.95556 0.0
O236 O 0.03997 0.57629 0.83765 0.0
O237 O 0.98597 0.55008 0.68029 0.0
O238 O 0.97218 0.51142 0.78967 0.0
C239 C 1.02411 0.57684 0.92748 0.0
O240 O 0.03527 0.58879 0.60464 0.0
O241 O 0.06284 0.55261 0.54363 0.0
O242 O 1.02468 0.50197 0.61226 0.0
O243 O 1.02493 0.47502 0.77013 0.0
O244 O 0.05763 0.51909 0.93825 0.0
O245 O 0.07785 0.52779 0.77043 0.0
C246 C 0.96565 0.5318 0.71645 0.0
O247 O 1.01851 0.46985 0.99034 0.0
O248 O 0.98273 0.50077 0.02445 0.0
C249 C 0.08245 0.60041 0.53667 0.0
C250 C 0.13924 0.62593 0.53104 0.0
C251 C 0.12559 0.61998 0.6315 0.0
C252 C 0.09748 0.60711 0.63424 0.0
C253 C 0.09456 0.60898 0.43706 0.0
C254 C 0.12274 0.62167 0.43411 0.0
C255 C 0.05655 0.58095 0.53807 0.0
H256 H 0.92118 0.41709 0.89406 0.0
H257 H 0.9656 0.4479 0.87849 0.0
H258 H 0.97514 0.44856 0.22848 0.0
H259 H 0.93142 0.41788 0.24522 0.0
H260 H 0.13749 0.62328 0.70753 0.0
H261 H 0.08833 0.60065 0.71215 0.0
H262 H 0.08319 0.60398 0.36113 0.0
H263 H 0.13253 0.62555 0.35495 0.0
H264 H 0.21057 0.05413 0.50238 0.0
H265 H 0.16913 0.03616 0.19185 0.0
H266 H 0.12101 0.02986 0.28214 0.0
H267 H 0.0906 0.02985 0.44994 0.0
H268 H 0.13235 0.04863 0.76009 0.0
H269 H 0.18023 0.05415 0.66972 0.0
C270 C 0.19105 0.04853 0.45461 0.0
C271 C 0.19358 0.0451 0.34051 0.0
C272 C 0.16341 0.04524 0.50715 0.0
C273 C 0.16791 0.03841 0.27978 0.0
C274 C 0.14036 0.03497 0.33144 0.0
C275 C 0.11011 0.03528 0.49791 0.0
C276 C 0.10761 0.03889 0.61217 0.0
C277 C 0.13779 0.03842 0.44516 0.0
C278 C 0.13338 0.04572 0.67238 0.0
C279 C 0.16088 0.04887 0.62064 0.0
H280 H 0.49609 0.16284 0.25604 0.0
H281 H 0.56446 0.21235 0.42129 0.0
H282 H 0.56845 0.17362 0.56033 0.0
H283 H 0.55283 0.12521 0.63421 0.0
H284 H 0.4856 0.07498 0.4639 0.0
H285 H 0.481 0.11421 0.32816 0.0
C286 C 0.51156 0.16535 0.32345 0.0
C287 C 0.52934 0.19097 0.3298 0.0
C288 C 0.51412 0.14265 0.40198 0.0
C289 C 0.54997 0.19332 0.41578 0.0
C290 C 0.55239 0.17103 0.49496 0.0
C291 C 0.53712 0.12278 0.56755 0.0
C292 C 0.51953 0.09697 0.56021 0.0
C293 C 0.53461 0.14553 0.48891 0.0
C294 C 0.49945 0.09441 0.4724 0.0
C295 C 0.49674 0.11694 0.39449 0.0
H296 H 0.34209 0.51291 0.49177 0.0
H297 H 0.38547 0.51378 0.17947 0.0
H298 H 0.4339 0.52021 0.2698 0.0
H299 H 0.4643 0.52361 0.44028 0.0
H300 H 0.41971 0.51934 0.7512 0.0
H301 H 0.37185 0.51618 0.65945 0.0
C302 C 0.36208 0.51496 0.4433 0.0
C303 C 0.35998 0.51381 0.32856 0.0
C304 C 0.38987 0.51774 0.49612 0.0
C305 C 0.38633 0.51557 0.26757 0.0
C306 C 0.41406 0.51895 0.31945 0.0
C307 C 0.44411 0.52209 0.48787 0.0
C308 C 0.44592 0.5216 0.60312 0.0
C309 C 0.41621 0.51983 0.43405 0.0
C310 C 0.41933 0.5195 0.66283 0.0
C311 C 0.39175 0.51779 0.61031 0.0
H312 H 1.01226 0.34499 0.47325 0.0
H313 H 1.02447 0.38987 0.1678 0.0
H314 H 0.03086 0.43726 0.26549 0.0
H315 H 0.02981 0.4667 0.43901 0.0
H316 H 1.01696 0.42052 0.74278 0.0
H317 H 1.01368 0.3735 0.64495 0.0
C318 C 1.01674 0.36506 0.42797 0.0
C319 C 1.01835 0.36365 0.31305 0.0
C320 C 1.01977 0.39233 0.48472 0.0
C321 C 1.02366 0.39011 0.25612 0.0
C322 C 0.02705 0.41731 0.31216 0.0
C323 C 1.02643 0.44636 0.48395 0.0
C324 C 1.02361 0.44758 0.59904 0.0
C325 C 1.02462 0.41886 0.42662 0.0
C326 C 1.0193 0.42069 0.65485 0.0
C327 C 1.01737 0.39357 0.59874 0.0
H328 H 0.88077 0.98505 0.25323 0.0
H329 H 0.83602 0.06148 0.11833 0.0
H330 H 0.87425 0.06523 0.97741 0.0
H331 H 0.92239 0.04851 0.89877 0.0
H332 H 0.96721 0.97238 0.03822 0.0
H333 H 0.92718 0.9668 0.16935 0.0
C334 C 0.87913 1.00225 0.19194 0.0
C335 C 0.85524 1.02274 0.19585 0.0
C336 C 0.90147 1.00448 0.11186 0.0
C337 C 0.85383 0.04518 0.11664 0.0
C338 C 0.87585 0.04742 0.03622 0.0
C339 C 0.92326 0.03048 0.95692 0.0
C340 C 0.94808 1.011 0.95797 0.0
C341 C 0.90006 0.02744 0.03377 0.0
C342 C 0.94865 0.98786 0.03487 0.0
C343 C 0.92568 0.98461 0.11046 0.0
H344 H 0.53678 0.90941 0.39125 0.0
H345 H 0.52174 0.83948 0.15593 0.0
H346 H 0.52141 0.87581 1.00851 0.0
H347 H 0.52456 0.92781 0.9457 0.0
H348 H 0.53678 0.99805 0.18277 0.0
H349 H 0.5389 0.96148 0.32909 0.0
C350 C 0.53376 0.90211 0.30744 0.0
C351 C 0.53009 0.87156 0.28505 0.0
C352 C 0.53292 0.92331 0.22295 0.0
C353 C 0.52533 0.86263 0.17609 0.0
C354 C 0.52497 0.8835 0.09147 0.0
C355 C 0.52785 0.93517 0.02926 0.0
C356 C 0.53068 0.96585 0.05239 0.0
C357 C 0.52868 0.91394 0.11381 0.0
C358 C 0.53453 0.97476 0.16182 0.0
C359 C 0.53582 0.95379 0.24585 0.0
H360 H 0.68998 0.49517 0.19417 0.0
H361 H 0.65673 0.56441 0.40641 0.0
H362 H 0.6139 0.57213 0.28548 0.0
H363 H 0.58466 0.558 0.12064 0.0
H364 H 0.61911 0.48901 0.90809 0.0
H365 H 0.6621 0.48255 0.02658 0.0
C366 C 0.67356 0.51223 0.21294 0.0
C367 C 0.6767 0.52922 0.30924 0.0
C368 C 0.64883 0.51648 0.14295 0.0
C369 C 0.65503 0.55111 0.3327 0.0
C370 C 0.63038 0.55542 0.26371 0.0
C371 C 0.60157 0.54159 0.10009 0.0
C372 C 0.59827 0.52405 1.00472 0.0
C373 C 0.6268 0.53802 0.16889 0.0
C374 C 0.62074 0.50299 0.98011 0.0
C375 C 0.64552 0.49919 0.04816 0.0
H376 H 0.04603 0.70112 0.16311 0.0
H377 H 1.00748 0.65558 0.43518 0.0
H378 H 0.99952 0.61141 0.32008 0.0
H379 H 1.0056 0.58479 0.14199 0.0
H380 H 0.04616 0.63095 0.87388 0.0
H381 H 0.0511 0.67533 0.98651 0.0
C382 C 0.0355 0.68168 0.1969 0.0
C383 C 0.02701 0.68188 0.30759 0.0
C384 C 0.03151 0.65619 0.13056 0.0
C385 C 1.01381 0.65623 0.35004 0.0
C386 C 1.00944 0.63088 0.28421 0.0
C387 C 1.01531 0.60461 0.10793 0.0
C388 C 1.02549 0.60416 0.9987 0.0
C389 C 1.01848 0.63042 0.17428 0.0
C390 C 0.03819 0.63024 0.95713 0.0
C391 C 0.04103 0.65584 0.0217 0.0
H392 H 0.1336 0.23017 0.25096 0.0
H393 H 0.07551 0.28048 0.4601 0.0
H394 H 0.06594 0.23661 0.56816 0.0
H395 H 0.056 0.18327 0.54639 0.0
H396 H 0.10168 0.13348 0.2941 0.0
H397 H 0.13295 0.17602 0.25711 0.0
C398 C 0.11992 0.23163 0.32365 0.0
C399 C 0.1017 0.25696 0.33803 0.0
C400 C 0.11043 0.2052 0.37205 0.0
C401 C 0.08739 0.26017 0.43951 0.0
C402 C 0.08112 0.23475 0.49986 0.0
C403 C 0.07307 0.18159 0.48426 0.0
C404 C 0.07553 0.1557 0.41974 0.0
C405 C 0.08931 0.20684 0.45721 0.0
C406 C 0.09882 0.15331 0.34366 0.0
C407 C 0.11677 0.17772 0.32227 0.0
H408 H 0.31319 0.92201 0.2626 0.0
H409 H 0.29594 0.992 0.49612 0.0
H410 H 0.33198 0.97009 0.62207 0.0
H411 H 0.37811 0.9414 0.63504 0.0
H412 H 0.39778 0.87318 0.39597 0.0
H413 H 0.35057 0.88338 0.30434 0.0
C414 C 0.3164 0.93155 0.3433 0.0
C415 C 0.3027 0.95886 0.36951 0.0
C416 C 0.33811 0.91957 0.4129 0.0
C417 C 0.3065 0.97106 0.47425 0.0
C418 C 0.3274 0.95873 0.54564 0.0
C419 C 0.37153 0.92762 0.56629 0.0
C420 C 0.39205 0.90747 0.51935 0.0
C421 C 0.34494 0.93443 0.51173 0.0
C422 C 0.38279 0.88958 0.43127 0.0
C423 C 0.35587 0.89553 0.37844 0.0
H424 H 0.60619 0.29424 0.4215 0.0
H425 H 0.63681 0.31894 0.10232 0.0
H426 H 0.66104 0.36253 0.17949 0.0
H427 H 0.65494 0.40117 0.32247 0.0
H428 H 0.625 0.37573 0.64197 0.0
H429 H 0.62001 0.32443 0.58065 0.0
C430 C 0.61967 0.30803 0.36936 0.0
C431 C 0.61775 0.30481 0.25534 0.0
C432 C 0.63281 0.33354 0.4141 0.0
C433 C 0.63664 0.322 0.19009 0.0
C434 C 0.6502 0.34721 0.23402 0.0
C435 C 0.64899 0.38415 0.38043 0.0
C436 C 0.63857 0.39241 0.48446 0.0
C437 C 0.64561 0.35469 0.34392 0.0
C438 C 0.63185 0.36998 0.55972 0.0
C439 C 0.62882 0.34063 0.52456 0.0
H440 H 0.26345 0.58195 0.43096 0.0
H441 H 0.24838 0.63876 0.15492 0.0
H442 H 0.20985 0.66599 0.25503 0.0
H443 H 0.17048 0.66107 0.39178 0.0
H444 H 0.18208 0.59843 0.65398 0.0
H445 H 0.23213 0.58726 0.59279 0.0
C446 C 0.25292 0.60142 0.3954 0.0
C447 C 0.25794 0.60792 0.28526 0.0
C448 C 0.22932 0.61541 0.45054 0.0
C449 C 0.24444 0.63324 0.23953 0.0
C450 C 0.22207 0.64846 0.29621 0.0
C451 C 0.18436 0.64572 0.43751 0.0
C452 C 0.172 0.62969 0.52416 0.0
C453 C 0.21255 0.63782 0.39743 0.0
C454 C 0.19064 0.61081 0.58567 0.0
C455 C 0.21932 0.60405 0.54982 0.0
H456 H 1.00995 0.76622 0.12031 0.0
H457 H 0.92786 0.81259 0.18697 0.0
H458 H 0.94269 0.85295 0.06769 0.0
H459 H 0.98633 0.88187 1.01345 0.0
H460 H 0.07132 0.83793 0.97654 0.0
H461 H 0.04858 0.79007 0.0147 0.0
C462 C 0.99453 0.78434 0.10364 0.0
C463 C 0.96898 0.78783 0.16851 0.0
C464 C 1.00476 0.80876 0.04506 0.0
C465 C 0.94834 0.81024 0.14131 0.0
C466 C 0.95723 0.83373 0.07542 0.0
C467 C 0.99961 0.86161 1.01096 0.0
C468 C 0.03056 0.8633 0.99758 0.0
C469 C 0.98666 0.83453 0.03802 0.0
C470 C 0.04754 0.83708 0.98961 0.0
C471 C 0.03453 0.80975 1.01157 0.0
H472 H 0.72264 0.13188 0.39283 0.0
H473 H 0.76038 0.10002 0.08975 0.0
H474 H 0.72686 0.13199 0.98817 0.0
H475 H 0.67708 0.154 0.98414 0.0
H476 H 0.63162 0.17082 0.28918 0.0
H477 H 0.6772 0.16193 0.38809 0.0
C478 C 0.72387 0.13225 0.30447 0.0
C479 C 0.74281 0.11207 0.24953 0.0
C480 C 0.70213 0.14793 0.24568 0.0
C481 C 0.74559 0.11452 0.13542 0.0
C482 C 0.72598 0.1326 0.07654 0.0
C483 C 0.67697 0.15578 0.07235 0.0
C484 C 0.64998 0.16063 0.12834 0.0
C485 C 0.70239 0.14693 0.13056 0.0
C486 C 0.65134 0.16591 0.24196 0.0
C487 C 0.67758 0.16039 0.29979 0.0
H488 H 0.42324 0.73845 0.40459 0.0
H489 H 0.46884 0.77319 0.12466 0.0
H490 H 0.4442 0.73739 1.00711 0.0
H491 H 0.42635 0.68627 0.99846 0.0
H492 H 0.3922 0.64552 0.28925 0.0
H493 H 0.39446 0.69287 0.38548 0.0
C494 C 0.42697 0.73877 0.31717 0.0
C495 C 0.44914 0.75724 0.27462 0.0
C496 C 0.41528 0.716 0.2519 0.0
C497 C 0.45257 0.75868 0.1607 0.0
C498 C 0.43879 0.73778 0.09326 0.0
C499 C 0.41857 0.68803 0.082 0.0
C500 C 0.41067 0.66213 0.13828 0.0
C501 C 0.42271 0.7146 0.14001 0.0
C502 C 0.39912 0.6649 0.24442 0.0
C503 C 0.4008 0.692 0.30024 0.0
H504 H 0.81045 0.42216 0.33417 0.0
H505 H 0.7914 0.48822 0.09036 0.0
H506 H 0.82799 0.46549 0.96857 0.0
H507 H 0.87538 0.43888 0.96284 0.0
H508 H 0.89774 0.37594 0.21462 0.0
H509 H 0.84945 0.38454 0.30007 0.0
C510 C 0.81342 0.43064 0.25228 0.0
C511 C 0.79913 0.45727 0.22222 0.0
C512 C 0.83565 0.41841 0.18531 0.0
C513 C 0.80249 0.46791 0.11561 0.0
C514 C 0.82371 0.45512 0.04647 0.0
C515 C 0.8692 0.42578 0.03301 0.0
C516 C 0.89064 0.40785 0.08546 0.0
C517 C 0.8421 0.43205 0.08467 0.0
C518 C 0.88193 0.39065 0.175 0.0
C519 C 0.85442 0.39579 0.22447 0.0
H520 H 0.04001 0.1936 0.18488 0.0
H521 H 0.03642 0.24064 0.88015 0.0
H522 H 0.03013 0.19318 0.78163 0.0
H523 H 0.0298 0.13741 0.78191 0.0
H524 H 0.03645 0.09191 0.0905 0.0
H525 H 0.03806 0.13936 0.18624 0.0
C526 C 0.03743 0.19362 0.09679 0.0
C527 C 0.03871 0.22093 0.04031 0.0
C528 C 0.03504 0.16624 0.04084 0.0
C529 C 0.03518 0.22025 0.92624 0.0
C530 C 0.032 0.19296 0.86979 0.0
C531 C 0.03156 0.13784 0.87014 0.0
C532 C 0.0332 0.11063 0.92813 0.0
C533 C 0.03263 0.16565 0.926 0.0
C534 C 0.03535 0.11205 0.04272 0.0
C535 C 0.03615 0.13934 0.09811 0.0
H536 H 0.34701 0.05205 0.12963 0.0
H537 H 0.32087 0.97574 0.94028 0.0
H538 H 0.36762 0.97732 0.83832 0.0
H539 H 0.4185 0.99716 0.81722 0.0
H540 H 0.44446 0.07354 1.00881 0.0
H541 H 0.39571 0.07514 0.09481 0.0
C542 C 0.35114 0.0365 0.06325 0.0
C543 C 0.33016 1.01424 0.04078 0.0
C544 C 0.37853 0.0371 1.00692 0.0
C545 C 0.33631 0.99353 0.95717 0.0
C546 C 0.36327 0.99419 0.89995 0.0
C547 C 0.41342 1.01435 0.87696 0.0
C548 C 0.4355 0.03504 0.90661 0.0
C549 C 0.385 1.01532 0.92636 0.0
C550 C 0.42818 0.05724 0.98389 0.0
C551 C 0.40017 0.0582 0.03355 0.0
H552 H 0.55507 0.3333 0.91888 0.0
H553 H 0.49903 0.34642 0.19953 0.0
H554 H 0.48616 0.39661 0.13705 0.0
H555 H 0.49612 0.43913 1.01399 0.0
H556 H 0.55287 0.4251 0.73488 0.0
H557 H 0.5602 0.37337 0.78507 0.0
C558 C 0.53922 0.34679 0.96433 0.0
C559 C 0.52782 0.33594 0.06332 0.0
C560 C 0.53262 0.37591 0.92936 0.0
C561 C 0.50767 0.35391 0.12213 0.0
C562 C 0.50072 0.38286 0.08723 0.0
C563 C 0.50983 0.42468 0.9635 0.0
C564 C 0.52406 0.43636 0.87063 0.0
C565 C 0.51392 0.39452 0.99295 0.0
C566 C 0.54152 0.41702 0.80613 0.0
C567 C 0.54582 0.38728 0.83509 0.0
H568 H 0.19564 0.527 0.17788 0.0
H569 H 0.23982 0.53737 0.8699 0.0
H570 H 0.19225 0.53082 0.77333 0.0
H571 H 0.13681 0.52659 0.77859 0.0
H572 H 0.09399 0.51687 0.09132 0.0
H573 H 0.14187 0.51879 0.18268 0.0
C574 C 0.19499 0.52689 0.08936 0.0
C575 C 0.2214 0.53209 0.03119 0.0
C576 C 0.16749 0.52381 0.03498 0.0
C577 C 0.22003 0.53266 0.9166 0.0
C578 C 0.19268 0.52934 0.86152 0.0
C579 C 0.13795 0.52461 0.8666 0.0
C580 C 0.11136 0.52174 0.92724 0.0
C581 C 0.16604 0.52562 0.92 0.0
C582 C 0.11367 0.51917 0.04151 0.0
C583 C 0.14122 0.52023 0.09446 0.0
H584 H 1.00282 0.85849 0.37105 0.0
H585 H 1.00564 0.81047 0.67479 0.0
H586 H 1.01416 0.85732 0.77304 0.0
H587 H 1.01777 0.91316 0.77417 0.0
H588 H 1.00755 0.95969 0.46976 0.0
H589 H 1.00365 0.91246 0.37184 0.0
C590 C 1.00437 0.85789 0.45923 0.0
C591 C 1.00261 0.83036 0.51458 0.0
C592 C 1.00769 0.88507 0.51589 0.0
C593 C 1.00674 0.83085 0.62867 0.0
C594 C 1.01137 0.85786 0.68542 0.0
C595 C 1.01473 0.91286 0.68642 0.0
C596 C 1.013 0.94013 0.62938 0.0
C597 C 1.01143 0.88527 0.63023 0.0
C598 C 1.00874 0.93924 0.51583 0.0
C599 C 1.00663 0.91216 0.45963 0.0
H600 H 0.71685 0.05986 0.61284 0.0
H601 H 0.70032 0.99553 0.3587 0.0
H602 H 0.65198 0.9842 0.4399 0.0
H603 H 0.61189 0.9971 0.57126 0.0
H604 H 0.62962 0.06061 0.82825 0.0
H605 H 0.67967 0.06768 0.75832 0.0
C606 C 0.70305 0.04265 0.57736 0.0
C607 C 0.71236 0.02836 0.48025 0.0
C608 C 0.67509 0.0366 0.62378 0.0
C609 C 0.69402 1.00644 0.43436 0.0
C610 C 0.66614 1.0003 0.48004 0.0
C611 C 0.62678 1.01225 0.61284 0.0
C612 C 0.61647 0.02873 0.7042 0.0
C613 C 0.656 1.01595 0.5728 0.0
C614 C 0.63648 0.04788 0.75737 0.0
C615 C 0.66529 0.05194 0.71734 0.0
H616 H 0.48549 0.72133 0.64038 0.0
H617 H 0.5655 0.7184 0.44858 0.0
H618 H 0.57739 0.66883 0.52015 0.0
H619 H 0.56174 0.62369 0.6216 0.0
H620 H 0.48065 0.62766 0.80937 0.0
H621 H 0.47262 0.6789 0.7551 0.0
C622 C 0.50597 0.71017 0.61644 0.0
C623 C 0.52463 0.72377 0.53938 0.0
C624 C 0.51217 0.68136 0.65561 0.0
C625 C 0.55096 0.70882 0.50888 0.0
C626 C 0.55751 0.6802 0.54869 0.0
C627 C 0.54247 0.63583 0.65158 0.0
C628 C 0.52173 0.62128 0.71908 0.0
C629 C 0.53777 0.66578 0.6195 0.0
C630 C 0.49701 0.63777 0.75715 0.0
C631 C 0.49232 0.6673 0.72606 0.0
H632 H 0.84832 0.54655 0.42955 0.0
H633 H 0.81383 0.48635 0.6678 0.0
H634 H 0.86083 0.48845 0.76994 0.0
H635 H 0.91388 0.50381 0.7815 0.0
H636 H 0.94771 0.5639 0.53943 0.0
H637 H 0.8994 0.56535 0.44994 0.0
C638 C 0.85074 0.5348 0.50609 0.0
C639 C 0.82717 0.51704 0.54267 0.0
C640 C 0.8782 0.53553 0.56272 0.0
C641 C 0.83118 0.50094 0.63966 0.0
C642 C 0.8583 0.50179 0.69717 0.0
C643 C 0.91065 0.51744 0.70976 0.0
C644 C 0.93489 0.53358 0.66767 0.0
C645 C 0.88234 0.5184 0.65798 0.0
C646 C 0.92986 0.55116 0.57453 0.0
C647 C 0.90205 0.55205 0.52279 0.0
loop_
_geom_bond_atom_site_label_1
_geom_bond_atom_site_label_2
_geom_bond_distance
_geom_bond_site_symmetry_2
_ccdc_geom_bond_type
H0 C7 0.929 . S
H1 C10 0.930 . S
H2 C12 0.929 . S
H3 C4 0.969 . S
C4 H3 0.969 . S
C4 O5 1.550 . S
C4 H6 0.973 . S
O5 C4 1.550 . S
O5 C11 1.412 . S
H6 C4 0.973 . S
C7 H0 0.929 . S
C7 C8 1.400 . S
C7 C9 1.364 . S
C8 C7 1.400 . S
C8 C12 1.377 . S
C9 C7 1.364 . S
C9 C10 1.374 . S
C10 H1 0.930 . S
C10 C9 1.374 . S
C10 C11 1.383 . S
C11 O5 1.412 . S
C11 C10 1.383 . S
C11 C12 1.394 . S
C12 H2 0.929 . S
C12 C8 1.377 . S
C12 C11 1.394 . S
H13 C20 0.928 1_655 S
H14 C23 0.931 . S
H15 C25 0.928 1_655 S
H16 C17 0.969 . S
C17 H16 0.969 . S
C17 O18 1.550 1_455 S
C17 H19 0.973 1_455 S
O18 C17 1.550 1_655 S
O18 C24 1.404 1_655 S
H19 C17 0.973 1_655 S
C20 H13 0.928 1_455 S
C20 C21 1.399 . S
C20 C22 1.364 . S
C21 C20 1.399 . S
C21 C25 1.377 . S
C22 C20 1.364 . S
C22 C23 1.374 1_455 S
C23 H14 0.931 . S
C23 C22 1.374 1_655 S
C23 C24 1.382 1_655 S
C24 O18 1.404 1_455 S
C24 C23 1.382 1_455 S
C24 C25 1.394 . S
C25 H15 0.928 1_455 S
C25 C21 1.377 . S
C25 C24 1.394 . S
H26 C33 0.928 1_565 S
H27 C36 0.931 . S
H28 C38 0.928 1_565 S
H29 C30 0.969 . S
C30 H29 0.969 . S
C30 O31 1.550 1_545 S
C30 H32 0.973 1_545 S
O31 C30 1.550 1_565 S
O31 C37 1.404 1_565 S
H32 C30 0.973 1_565 S
C33 H26 0.928 1_545 S
C33 C34 1.399 . S
C33 C35 1.364 . S
C34 C33 1.399 . S
C34 C38 1.377 . S
C35 C33 1.364 . S
C35 C36 1.374 1_545 S
C36 H27 0.931 . S
C36 C35 1.374 1_565 S
C36 C37 1.382 1_565 S
C37 O31 1.404 1_545 S
C37 C36 1.382 1_545 S
C37 C38 1.394 . S
C38 H28 0.928 1_545 S
C38 C34 1.377 . S
C38 C37 1.394 . S
H39 C46 0.929 . S
H40 C49 0.930 . S
H41 C51 0.929 . S
H42 C43 0.969 . S
C43 H42 0.969 . S
C43 O44 1.550 . S
C43 H45 0.973 . S
O44 C43 1.550 . S
O44 C50 1.412 . S
H45 C43 0.973 . S
C46 H39 0.929 . S
C46 C47 1.400 . S
C46 C48 1.364 . S
C47 C46 1.400 . S
C47 C51 1.377 . S
C48 C46 1.364 . S
C48 C49 1.374 . S
C49 H40 0.930 . S
C49 C48 1.374 . S
C49 C50 1.383 . S
C50 O44 1.412 . S
C50 C49 1.383 . S
C50 C51 1.394 . S
C51 H41 0.929 . S
C51 C47 1.377 . S
C51 C50 1.394 . S
H52 C59 0.929 . S
H53 C62 0.930 . S
H54 C64 0.929 . S
H55 C56 0.969 . S
C56 H55 0.969 . S
C56 O57 1.550 . S
C56 H58 0.973 . S
O57 C56 1.550 . S
O57 C63 1.412 . S
H58 C56 0.973 . S
C59 H52 0.929 . S
C59 C60 1.400 1_554 S
C59 C61 1.364 . S
C60 C59 1.400 1_556 S
C60 C64 1.377 . S
C61 C59 1.364 . S
C61 C62 1.374 . S
C62 H53 0.930 . S
C62 C61 1.374 . S
C62 C63 1.383 . S
C63 O57 1.412 . S
C63 C62 1.383 . S
C63 C64 1.394 1_554 S
C64 H54 0.929 . S
C64 C60 1.377 . S
C64 C63 1.394 1_556 S
H65 C72 0.928 1_655 S
H66 C75 0.930 . S
H67 C77 0.928 1_655 S
H68 C69 0.969 . S
C69 H68 0.969 . S
C69 O70 1.550 1_455 S
C69 H71 0.973 1_455 S
O70 C69 1.550 1_655 S
O70 C76 1.402 1_655 S
H71 C69 0.973 1_655 S
C72 H65 0.928 1_455 S
C72 C73 1.400 1_554 S
C72 C74 1.364 . S
C73 C72 1.400 1_556 S
C73 C77 1.377 . S
C74 C72 1.364 . S
C74 C75 1.374 1_455 S
C75 H66 0.930 . S
C75 C74 1.374 1_655 S
C75 C76 1.382 1_655 S
C76 O70 1.402 1_455 S
C76 C75 1.382 1_455 S
C76 C77 1.394 1_554 S
C77 H67 0.928 1_455 S
C77 C73 1.377 . S
C77 C76 1.394 1_556 S
H78 C85 0.928 1_565 S
H79 C88 0.930 . S
H80 C90 0.928 1_565 S
H81 C82 0.969 . S
C82 H81 0.969 . S
C82 O83 1.550 1_545 S
C82 H84 0.973 1_545 S
O83 C82 1.550 1_565 S
O83 C89 1.402 1_565 S
H84 C82 0.973 1_565 S
C85 H78 0.928 1_545 S
C85 C86 1.400 1_554 S
C85 C87 1.364 . S
C86 C85 1.400 1_556 S
C86 C90 1.377 . S
C87 C85 1.364 . S
C87 C88 1.374 1_545 S
C88 H79 0.930 . S
C88 C87 1.374 1_565 S
C88 C89 1.382 1_565 S
C89 O83 1.402 1_545 S
C89 C88 1.382 1_545 S
C89 C90 1.394 1_554 S
C90 H80 0.928 1_545 S
C90 C86 1.377 . S
C90 C89 1.394 1_556 S
H91 C98 0.929 . S
H92 C101 0.930 . S
H93 C103 0.929 . S
H94 C95 0.969 . S
C95 H94 0.969 . S
C95 O96 1.550 . S
C95 H97 0.973 . S
O96 C95 1.550 . S
O96 C102 1.412 . S
H97 C95 0.973 . S
C98 H91 0.929 . S
C98 C99 1.400 1_554 S
C98 C100 1.364 . S
C99 C98 1.400 1_556 S
C99 C103 1.377 . S
C100 C98 1.364 . S
C100 C101 1.374 . S
C101 H92 0.930 . S
C101 C100 1.374 . S
C101 C102 1.383 . S
C102 O96 1.412 . S
C102 C101 1.383 . S
C102 C103 1.394 1_554 S
C103 H93 0.929 . S
C103 C99 1.377 . S
C103 C102 1.394 1_556 S
Tb104 C114 2.825 1_556 S
Tb104 O115 2.347 1_455 S
Tb104 O118 2.366 . S
Tb104 O123 2.418 . S
Tb104 O124 2.384 1_565 S
Tb104 O127 2.479 . S
Tb104 O128 2.471 1_556 S
Eu105 O116 2.418 . S
Eu105 O117 2.384 1_545 S
Eu105 O120 2.479 . S
Eu105 O121 2.471 . S
Eu105 O122 2.347 1_655 S
Eu105 O125 2.366 . S
Eu105 C135 2.825 . S
C106 O122 1.259 1_565 S
C106 O123 1.265 . S
C107 O124 1.255 . S
C107 O125 1.265 1_455 S
C108 C110 1.380 . S
C108 C111 1.374 . S
C108 C114 1.507 . S
C109 C110 1.384 . S
C109 C113 1.387 . S
C109 H136 0.930 . S
C110 C108 1.380 . S
C110 C109 1.384 . S
C110 H137 0.931 . S
C111 C108 1.374 . S
C111 C112 1.390 . S
C111 H138 0.930 1_455 S
C112 C111 1.390 . S
C112 C113 1.391 . S
C112 H139 0.930 1_455 S
C113 C109 1.387 . S
C113 C112 1.391 . S
C114 Tb104 2.825 1_554 S
C114 C108 1.507 . S
C114 O127 1.238 1_554 S
C114 O128 1.247 . S
O115 Tb104 2.347 1_655 S
O115 C119 1.259 1_565 S
O116 Eu105 2.418 . S
O116 C119 1.265 . S
O117 Eu105 2.384 1_565 S
O117 C126 1.255 . S
O118 Tb104 2.366 . S
O118 C126 1.265 1_455 S
C119 O115 1.259 1_545 S
C119 O116 1.265 . S
O120 Eu105 2.479 . S
O120 C135 1.238 . S
O121 Eu105 2.471 . S
O121 C135 1.247 . S
O122 Eu105 2.347 1_455 S
O122 C106 1.259 1_545 S
O123 Tb104 2.418 . S
O123 C106 1.265 . S
O124 Tb104 2.384 1_545 S
O124 C107 1.255 . S
O125 Eu105 2.366 . S
O125 C107 1.265 1_655 S
C126 O117 1.255 . S
C126 O118 1.265 1_655 S
O127 Tb104 2.479 . S
O127 C114 1.238 1_556 S
O128 Tb104 2.471 1_554 S
O128 C114 1.247 . S
C129 C132 1.380 . S
C129 C133 1.374 . S
C129 C135 1.507 . S
C130 C131 1.387 . S
C130 C134 1.391 . S
C131 C130 1.387 . S
C131 C132 1.384 . S
C131 H140 0.930 . S
C132 C129 1.380 . S
C132 C131 1.384 . S
C132 H141 0.931 . S
C133 C129 1.374 . S
C133 C134 1.390 . S
C133 H142 0.930 1_655 S
C134 C130 1.391 . S
C134 C133 1.390 . S
C134 H143 0.930 1_655 S
C135 Eu105 2.825 . S
C135 O120 1.238 . S
C135 O121 1.247 . S
C135 C129 1.507 . S
H136 C109 0.930 . S
H137 C110 0.931 . S
H138 C111 0.930 1_655 S
H139 C112 0.930 1_655 S
H140 C131 0.930 . S
H141 C132 0.931 . S
H142 C133 0.930 1_455 S
H143 C134 0.930 1_455 S
Tb144 C154 2.825 1_556 S
Tb144 O155 2.347 1_545 S
Tb144 O158 2.366 . S
Tb144 O163 2.418 . S
Tb144 O164 2.384 . S
Tb144 O167 2.479 . S
Tb144 O168 2.471 1_556 S
Eu145 O156 2.418 . S
Eu145 O157 2.384 . S
Eu145 O160 2.479 . S
Eu145 O161 2.471 . S
Eu145 O162 2.347 1_565 S
Eu145 O165 2.366 . S
Eu145 C175 2.825 . S
C146 O162 1.259 . S
C146 O163 1.265 . S
C147 O164 1.255 . S
C147 O165 1.265 1_545 S
C148 C150 1.380 . S
C148 C151 1.374 . S
C148 C154 1.507 . S
C149 C150 1.384 . S
C149 C153 1.387 . S
C149 H176 0.930 . S
C150 C148 1.380 . S
C150 C149 1.384 . S
C150 H177 0.931 . S
C151 C148 1.374 . S
C151 C152 1.390 . S
C151 H178 0.930 1_545 S
C152 C151 1.390 . S
C152 C153 1.391 . S
C152 H179 0.930 1_545 S
C153 C149 1.387 . S
C153 C152 1.391 . S
C154 Tb144 2.825 1_554 S
C154 C148 1.507 . S
C154 O167 1.238 1_554 S
C154 O168 1.247 . S
O155 Tb144 2.347 1_565 S
O155 C159 1.259 . S
O156 Eu145 2.418 . S
O156 C159 1.265 . S
O157 Eu145 2.384 . S
O157 C166 1.255 . S
O158 Tb144 2.366 . S
O158 C166 1.265 1_545 S
C159 O155 1.259 . S
C159 O156 1.265 . S
O160 Eu145 2.479 . S
O160 C175 1.238 . S
O161 Eu145 2.471 . S
O161 C175 1.247 . S
O162 Eu145 2.347 1_545 S
O162 C146 1.259 . S
O163 Tb144 2.418 . S
O163 C146 1.265 . S
O164 Tb144 2.384 . S
O164 C147 1.255 . S
O165 Eu145 2.366 . S
O165 C147 1.265 1_565 S
C166 O157 1.255 . S
C166 O158 1.265 1_565 S
O167 Tb144 2.479 . S
O167 C154 1.238 1_556 S
O168 Tb144 2.471 1_554 S
O168 C154 1.247 . S
C169 C172 1.380 . S
C169 C173 1.374 . S
C169 C175 1.507 . S
C170 C171 1.387 . S
C170 C174 1.391 . S
C171 C170 1.387 . S
C171 C172 1.384 . S
C171 H180 0.930 . S
C172 C169 1.380 . S
C172 C171 1.384 . S
C172 H181 0.931 . S
C173 C169 1.374 . S
C173 C174 1.390 . S
C173 H182 0.930 1_565 S
C174 C170 1.391 . S
C174 C173 1.390 . S
C174 H183 0.930 1_565 S
C175 Eu145 2.825 . S
C175 O160 1.238 . S
C175 O161 1.247 . S
C175 C169 1.507 . S
H176 C149 0.930 . S
H177 C150 0.931 . S
H178 C151 0.930 1_565 S
H179 C152 0.930 1_565 S
H180 C171 0.930 . S
H181 C172 0.931 . S
H182 C173 0.930 1_545 S
H183 C174 0.930 1_545 S
Tb184 C194 2.825 1_556 S
Tb184 O195 2.347 . S
Tb184 O198 2.366 . S
Tb184 O203 2.418 . S
Tb184 O204 2.384 . S
Tb184 O207 2.479 . S
Tb184 O208 2.471 1_556 S
Eu185 O196 2.418 . S
Eu185 O197 2.384 . S
Eu185 O200 2.479 . S
Eu185 O201 2.471 . S
Eu185 O202 2.347 . S
Eu185 O205 2.366 . S
Eu185 C215 2.825 . S
C186 O202 1.259 . S
C186 O203 1.265 . S
C187 O204 1.255 . S
C187 O205 1.265 . S
C188 C190 1.380 . S
C188 C191 1.374 . S
C188 C194 1.507 . S
C189 C190 1.384 . S
C189 C193 1.387 . S
C189 H216 0.930 . S
C190 C188 1.380 . S
C190 C189 1.384 . S
C190 H217 0.931 . S
C191 C188 1.374 . S
C191 C192 1.390 . S
C191 H218 0.930 . S
C192 C191 1.390 . S
C192 C193 1.391 . S
C192 H219 0.930 . S
C193 C189 1.387 . S
C193 C192 1.391 . S
C194 Tb184 2.825 1_554 S
C194 C188 1.507 . S
C194 O207 1.238 1_554 S
C194 O208 1.247 . S
O195 Tb184 2.347 . S
O195 C199 1.259 . S
O196 Eu185 2.418 . S
O196 C199 1.265 . S
O197 Eu185 2.384 . S
O197 C206 1.255 . S
O198 Tb184 2.366 . S
O198 C206 1.265 . S
C199 O195 1.259 . S
C199 O196 1.265 . S
O200 Eu185 2.479 . S
O200 C215 1.238 . S
O201 Eu185 2.471 . S
O201 C215 1.247 . S
O202 Eu185 2.347 . S
O202 C186 1.259 . S
O203 Tb184 2.418 . S
O203 C186 1.265 . S
O204 Tb184 2.384 . S
O204 C187 1.255 . S
O205 Eu185 2.366 . S
O205 C187 1.265 . S
C206 O197 1.255 . S
C206 O198 1.265 . S
O207 Tb184 2.479 . S
O207 C194 1.238 1_556 S
O208 Tb184 2.471 1_554 S
O208 C194 1.247 . S
C209 C212 1.380 . S
C209 C213 1.374 . S
C209 C215 1.507 . S
C210 C211 1.387 . S
C210 C214 1.391 . S
C211 C210 1.387 . S
C211 C212 1.384 . S
C211 H220 0.930 . S
C212 C209 1.380 . S
C212 C211 1.384 . S
C212 H221 0.931 . S
C213 C209 1.374 . S
C213 C214 1.390 . S
C213 H222 0.930 . S
C214 C210 1.391 . S
C214 C213 1.390 . S
C214 H223 0.930 . S
C215 Eu185 2.825 . S
C215 O200 1.238 . S
C215 O201 1.247 . S
C215 C209 1.507 . S
H216 C189 0.930 . S
H217 C190 0.931 . S
H218 C191 0.930 . S
H219 C192 0.930 . S
H220 C211 0.930 . S
H221 C212 0.931 . S
H222 C213 0.930 . S
H223 C214 0.930 . S
Tb224 C234 2.825 1_556 S
Tb224 O235 2.347 . S
Tb224 O238 2.366 . S
Tb224 O243 2.418 . S
Tb224 O244 2.384 1_655 S
Tb224 O247 2.479 . S
Tb224 O248 2.471 1_556 S
Eu225 O236 2.418 . S
Eu225 O237 2.384 1_455 S
Eu225 O240 2.479 . S
Eu225 O241 2.471 . S
Eu225 O242 2.347 . S
Eu225 O245 2.366 . S
Eu225 C255 2.825 . S
C226 O242 1.259 1_655 S
C226 O243 1.265 . S
C227 O244 1.255 . S
C227 O245 1.265 . S
C228 C230 1.380 . S
C228 C231 1.374 . S
C228 C234 1.507 . S
C229 C230 1.384 . S
C229 C233 1.387 . S
C229 H256 0.930 . S
C230 C228 1.380 . S
C230 C229 1.384 . S
C230 H257 0.931 . S
C231 C228 1.374 . S
C231 C232 1.390 . S
C231 H258 0.930 . S
C232 C231 1.390 . S
C232 C233 1.391 . S
C232 H259 0.930 . S
C233 C229 1.387 . S
C233 C232 1.391 . S
C234 Tb224 2.825 1_554 S
C234 C228 1.507 . S
C234 O247 1.238 1_554 S
C234 O248 1.247 . S
O235 Tb224 2.347 . S
O235 C239 1.259 1_655 S
O236 Eu225 2.418 . S
O236 C239 1.265 . S
O237 Eu225 2.384 1_655 S
O237 C246 1.255 . S
O238 Tb224 2.366 . S
O238 C246 1.265 . S
C239 O235 1.259 1_455 S
C239 O236 1.265 . S
O240 Eu225 2.479 . S
O240 C255 1.238 . S
O241 Eu225 2.471 . S
O241 C255 1.247 . S
O242 Eu225 2.347 . S
O242 C226 1.259 1_455 S
O243 Tb224 2.418 . S
O243 C226 1.265 . S
O244 Tb224 2.384 1_455 S
O244 C227 1.255 . S
O245 Eu225 2.366 . S
O245 C227 1.265 . S
C246 O237 1.255 . S
C246 O238 1.265 . S
O247 Tb224 2.479 . S
O247 C234 1.238 1_556 S
O248 Tb224 2.471 1_554 S
O248 C234 1.247 . S
C249 C252 1.380 . S
C249 C253 1.374 . S
C249 C255 1.507 . S
C250 C251 1.387 . S
C250 C254 1.391 . S
C251 C250 1.387 . S
C251 C252 1.384 . S
C251 H260 0.930 . S
C252 C249 1.380 . S
C252 C251 1.384 . S
C252 H261 0.931 . S
C253 C249 1.374 . S
C253 C254 1.390 . S
C253 H262 0.930 . S
C254 C250 1.391 . S
C254 C253 1.390 . S
C254 H263 0.930 . S
C255 Eu225 2.825 . S
C255 O240 1.238 . S
C255 O241 1.247 . S
C255 C249 1.507 . S
H256 C229 0.930 . S
H257 C230 0.931 . S
H258 C231 0.930 . S
H259 C232 0.930 . S
H260 C251 0.930 . S
H261 C252 0.931 . S
H262 C253 0.930 . S
H263 C254 0.930 . S
H264 C270 0.930 . S
H265 C273 0.930 . S
H266 C274 0.930 . S
H267 C275 0.930 . S
H268 C278 0.930 . S
H269 C279 0.930 . S
C270 H264 0.930 . S
C270 C271 1.355 1_545 S
C270 C272 1.415 . S
C271 C270 1.355 1_565 S
C271 C273 1.419 . S
C272 C270 1.415 . S
C272 C277 1.425 1_545 S
C272 C279 1.409 . S
C273 H265 0.930 . S
C273 C271 1.419 . S
C273 C274 1.362 . S
C274 H266 0.930 . S
C274 C273 1.362 . S
C274 C277 1.409 . S
C275 H267 0.930 . S
C275 C276 1.355 1_565 S
C275 C277 1.415 . S
C276 C275 1.355 1_545 S
C276 C278 1.419 . S
C277 C272 1.425 1_565 S
C277 C274 1.409 . S
C277 C275 1.415 . S
C278 H268 0.930 . S
C278 C276 1.419 . S
C278 C279 1.362 . S
C279 H269 0.930 . S
C279 C272 1.409 . S
C279 C278 1.362 . S
H280 C286 0.930 . S
H281 C289 0.930 . S
H282 C290 0.930 . S
H283 C291 0.930 . S
H284 C294 0.930 . S
H285 C295 0.930 . S
C286 H280 0.930 . S
C286 C287 1.355 . S
C286 C288 1.415 . S
C287 C286 1.355 . S
C287 C289 1.419 . S
C288 C286 1.415 . S
C288 C293 1.425 . S
C288 C295 1.409 . S
C289 H281 0.930 . S
C289 C287 1.419 . S
C289 C290 1.362 . S
C290 H282 0.930 . S
C290 C289 1.362 . S
C290 C293 1.409 . S
C291 H283 0.930 . S
C291 C292 1.355 . S
C291 C293 1.415 . S
C292 C291 1.355 . S
C292 C294 1.419 . S
C293 C288 1.425 . S
C293 C290 1.409 . S
C293 C291 1.415 . S
C294 H284 0.930 . S
C294 C292 1.419 . S
C294 C295 1.362 . S
C295 H285 0.930 . S
C295 C288 1.409 . S
C295 C294 1.362 . S
H296 C302 0.930 . S
H297 C305 0.930 . S
H298 C306 0.930 . S
H299 C307 0.930 . S
H300 C310 0.930 . S
H301 C311 0.930 . S
C302 H296 0.930 . S
C302 C303 1.355 . S
C302 C304 1.415 . S
C303 C302 1.355 . S
C303 C305 1.419 . S
C304 C302 1.415 . S
C304 C309 1.425 . S
C304 C311 1.409 . S
C305 H297 0.930 . S
C305 C303 1.419 . S
C305 C306 1.362 . S
C306 H298 0.930 . S
C306 C305 1.362 . S
C306 C309 1.409 . S
C307 H299 0.930 . S
C307 C308 1.355 . S
C307 C309 1.415 . S
C308 C307 1.355 . S
C308 C310 1.419 . S
C309 C304 1.425 . S
C309 C306 1.409 . S
C309 C307 1.415 . S
C310 H300 0.930 . S
C310 C308 1.419 . S
C310 C311 1.362 . S
C311 H301 0.930 . S
C311 C304 1.409 . S
C311 C310 1.362 . S
H312 C318 0.930 . S
H313 C321 0.930 . S
H314 C322 0.930 . S
H315 C323 0.930 . S
H316 C326 0.930 . S
H317 C327 0.930 . S
C318 H312 0.930 . S
C318 C319 1.355 1_655 S
C318 C320 1.415 . S
C319 C318 1.355 1_455 S
C319 C321 1.419 . S
C320 C318 1.415 . S
C320 C325 1.425 1_655 S
C320 C327 1.409 . S
C321 H313 0.930 . S
C321 C319 1.419 . S
C321 C322 1.362 . S
C322 H314 0.930 . S
C322 C321 1.362 . S
C322 C325 1.409 . S
C323 H315 0.930 . S
C323 C324 1.355 . S
C323 C325 1.415 . S
C324 C323 1.355 . S
C324 C326 1.419 1_455 S
C325 C320 1.425 1_455 S
C325 C322 1.409 . S
C325 C323 1.415 . S
C326 H316 0.930 . S
C326 C324 1.419 1_655 S
C326 C327 1.362 . S
C327 H317 0.930 . S
C327 C320 1.409 . S
C327 C326 1.362 . S
H328 C334 0.930 . S
H329 C337 0.930 . S
H330 C338 0.930 . S
H331 C339 0.930 1_556 S
H332 C342 0.930 . S
H333 C343 0.930 . S
C334 H328 0.930 . S
C334 C335 1.356 . S
C334 C336 1.416 . S
C335 C334 1.356 . S
C335 C337 1.418 1_545 S
C336 C334 1.416 . S
C336 C341 1.424 1_545 S
C336 C343 1.409 . S
C337 H329 0.930 . S
C337 C335 1.418 1_565 S
C337 C338 1.362 . S
C338 H330 0.930 . S
C338 C337 1.362 . S
C338 C341 1.409 . S
C339 H331 0.930 1_554 S
C339 C340 1.356 . S
C339 C341 1.415 . S
C340 C339 1.356 . S
C340 C342 1.418 1_565 S
C341 C336 1.424 1_565 S
C341 C338 1.409 . S
C341 C339 1.415 . S
C342 H332 0.930 . S
C342 C340 1.418 1_545 S
C342 C343 1.362 . S
C343 H333 0.930 . S
C343 C336 1.409 . S
C343 C342 1.362 . S
H344 C350 0.930 . S
H345 C353 0.930 . S
H346 C354 0.930 . S
H347 C355 0.930 . S
H348 C358 0.930 . S
H349 C359 0.930 . S
C350 H344 0.930 . S
C350 C351 1.355 . S
C350 C352 1.415 . S
C351 C350 1.355 . S
C351 C353 1.419 . S
C352 C350 1.415 . S
C352 C357 1.425 . S
C352 C359 1.409 . S
C353 H345 0.930 . S
C353 C351 1.419 . S
C353 C354 1.362 . S
C354 H346 0.930 . S
C354 C353 1.362 . S
C354 C357 1.409 . S
C355 H347 0.930 . S
C355 C356 1.355 1_554 S
C355 C357 1.415 . S
C356 C355 1.355 1_556 S
C356 C358 1.419 . S
C357 C352 1.425 . S
C357 C354 1.409 . S
C357 C355 1.415 . S
C358 H348 0.930 . S
C358 C356 1.419 . S
C358 C359 1.362 1_556 S
C359 H349 0.930 . S
C359 C352 1.409 . S
C359 C358 1.362 1_554 S
H360 C366 0.930 . S
H361 C369 0.930 . S
H362 C370 0.930 . S
H363 C371 0.930 . S
H364 C374 0.930 . S
H365 C375 0.930 . S
C366 H360 0.930 . S
C366 C367 1.355 . S
C366 C368 1.415 . S
C367 C366 1.355 . S
C367 C369 1.419 . S
C368 C366 1.415 . S
C368 C373 1.425 . S
C368 C375 1.409 . S
C369 H361 0.930 . S
C369 C367 1.419 . S
C369 C370 1.362 . S
C370 H362 0.930 . S
C370 C369 1.362 . S
C370 C373 1.409 . S
C371 H363 0.930 . S
C371 C372 1.355 1_554 S
C371 C373 1.415 . S
C372 C371 1.355 1_556 S
C372 C374 1.419 . S
C373 C368 1.425 . S
C373 C370 1.409 . S
C373 C371 1.415 . S
C374 H364 0.930 . S
C374 C372 1.419 . S
C374 C375 1.362 1_556 S
C375 H365 0.930 . S
C375 C368 1.409 . S
C375 C374 1.362 1_554 S
H376 C382 0.930 . S
H377 C385 0.930 . S
H378 C386 0.930 . S
H379 C387 0.930 . S
H380 C390 0.930 . S
H381 C391 0.930 . S
C382 H376 0.930 . S
C382 C383 1.355 1_455 S
C382 C384 1.415 . S
C383 C382 1.355 1_655 S
C383 C385 1.419 . S
C384 C382 1.415 . S
C384 C389 1.425 1_455 S
C384 C391 1.409 . S
C385 H377 0.930 . S
C385 C383 1.419 . S
C385 C386 1.362 . S
C386 H378 0.930 . S
C386 C385 1.362 . S
C386 C389 1.409 . S
C387 H379 0.930 . S
C387 C388 1.351 1_654 S
C387 C389 1.415 . S
C388 C387 1.351 1_456 S
C388 C390 1.425 . S
C389 C384 1.425 1_655 S
C389 C386 1.409 . S
C389 C387 1.415 . S
C390 H380 0.930 . S
C390 C388 1.425 . S
C390 C391 1.362 1_556 S
C391 H381 0.930 . S
C391 C384 1.409 . S
C391 C390 1.362 1_554 S
H392 C398 0.930 . S
H393 C401 0.930 . S
H394 C402 0.930 . S
H395 C403 0.930 . S
H396 C406 0.930 . S
H397 C407 0.930 1_455 S
C398 H392 0.930 . S
C398 C399 1.354 1_455 S
C398 C400 1.415 1_455 S
C399 C398 1.354 1_655 S
C399 C401 1.425 . S
C400 C398 1.415 1_655 S
C400 C405 1.425 . S
C400 C407 1.409 . S
C401 H393 0.930 . S
C401 C399 1.425 . S
C401 C402 1.362 . S
C402 H394 0.930 . S
C402 C401 1.362 . S
C402 C405 1.409 . S
C403 H395 0.930 . S
C403 C404 1.355 . S
C403 C405 1.415 . S
C404 C403 1.355 . S
C404 C406 1.419 . S
C405 C400 1.425 . S
C405 C402 1.409 . S
C405 C403 1.415 . S
C406 H396 0.930 . S
C406 C404 1.419 . S
C406 C407 1.362 . S
C407 H397 0.930 1_655 S
C407 C400 1.409 . S
C407 C406 1.362 . S
H408 C414 0.930 . S
H409 C417 0.930 . S
H410 C418 0.930 . S
H411 C419 0.930 . S
H412 C422 0.930 . S
H413 C423 0.930 . S
C414 H408 0.930 . S
C414 C415 1.355 1_565 S
C414 C416 1.415 . S
C415 C414 1.355 1_545 S
C415 C417 1.419 . S
C416 C414 1.415 . S
C416 C421 1.425 . S
C416 C423 1.409 . S
C417 H409 0.930 . S
C417 C415 1.419 . S
C417 C418 1.362 . S
C418 H410 0.930 . S
C418 C417 1.362 . S
C418 C421 1.409 1_545 S
C419 H411 0.930 . S
C419 C420 1.355 . S
C419 C421 1.415 . S
C420 C419 1.355 . S
C420 C422 1.419 . S
C421 C416 1.425 . S
C421 C418 1.409 1_565 S
C421 C419 1.415 . S
C422 H412 0.930 . S
C422 C420 1.419 . S
C422 C423 1.362 . S
C423 H413 0.930 . S
C423 C416 1.409 . S
C423 C422 1.362 . S
H424 C430 0.930 . S
H425 C433 0.930 . S
H426 C434 0.930 . S
H427 C435 0.930 . S
H428 C438 0.930 . S
H429 C439 0.930 . S
C430 H424 0.930 . S
C430 C431 1.355 . S
C430 C432 1.415 . S
C431 C430 1.355 . S
C431 C433 1.419 . S
C432 C430 1.415 . S
C432 C437 1.425 . S
C432 C439 1.409 . S
C433 H425 0.930 . S
C433 C431 1.419 . S
C433 C434 1.362 . S
C434 H426 0.930 . S
C434 C433 1.362 . S
C434 C437 1.409 . S
C435 H427 0.930 . S
C435 C436 1.355 . S
C435 C437 1.415 . S
C436 C435 1.355 . S
C436 C438 1.419 . S
C437 C432 1.425 . S
C437 C434 1.409 . S
C437 C435 1.415 . S
C438 H428 0.930 . S
C438 C436 1.419 . S
C438 C439 1.362 . S
C439 H429 0.930 . S
C439 C432 1.409 . S
C439 C438 1.362 . S
H440 C446 0.930 . S
H441 C449 0.930 . S
H442 C450 0.930 . S
H443 C451 0.930 . S
H444 C454 0.930 . S
H445 C455 0.930 . S
C446 H440 0.930 . S
C446 C447 1.355 . S
C446 C448 1.415 . S
C447 C446 1.355 . S
C447 C449 1.419 . S
C448 C446 1.415 . S
C448 C453 1.425 . S
C448 C455 1.409 . S
C449 H441 0.930 . S
C449 C447 1.419 . S
C449 C450 1.362 . S
C450 H442 0.930 . S
C450 C449 1.362 . S
C450 C453 1.409 . S
C451 H443 0.930 . S
C451 C452 1.355 . S
C451 C453 1.415 . S
C452 C451 1.355 . S
C452 C454 1.419 . S
C453 C448 1.425 . S
C453 C450 1.409 . S
C453 C451 1.415 . S
C454 H444 0.930 . S
C454 C452 1.419 . S
C454 C455 1.362 . S
C455 H445 0.930 . S
C455 C448 1.409 . S
C455 C454 1.362 . S
H456 C462 0.930 . S
H457 C465 0.930 . S
H458 C466 0.930 . S
H459 C467 0.909 1_655 S
H460 C470 0.930 . S
H461 C471 0.930 . S
C462 H456 0.930 . S
C462 C463 1.355 1_455 S
C462 C464 1.415 . S
C463 C462 1.355 1_655 S
C463 C465 1.419 . S
C464 C462 1.415 . S
C464 C469 1.425 . S
C464 C471 1.409 . S
C465 H457 0.930 . S
C465 C463 1.419 . S
C465 C466 1.362 . S
C466 H458 0.930 . S
C466 C465 1.362 . S
C466 C469 1.409 1_655 S
C467 H459 0.909 1_455 S
C467 C468 1.355 . S
C467 C469 1.415 . S
C468 C467 1.355 . S
C468 C470 1.419 . S
C469 C464 1.425 . S
C469 C466 1.409 1_455 S
C469 C467 1.415 . S
C470 H460 0.930 . S
C470 C468 1.419 . S
C470 C471 1.362 . S
C471 H461 0.930 . S
C471 C464 1.409 . S
C471 C470 1.362 . S
H472 C478 0.930 . S
H473 C481 0.930 . S
H474 C482 0.930 . S
H475 C483 0.930 . S
H476 C486 0.930 . S
H477 C487 0.930 . S
C478 H472 0.930 . S
C478 C479 1.355 1_545 S
C478 C480 1.415 . S
C479 C478 1.355 1_565 S
C479 C481 1.419 . S
C480 C478 1.415 . S
C480 C485 1.425 . S
C480 C487 1.409 . S
C481 H473 0.930 . S
C481 C479 1.419 . S
C481 C482 1.362 . S
C482 H474 0.930 . S
C482 C481 1.362 . S
C482 C485 1.409 1_565 S
C483 H475 0.930 . S
C483 C484 1.355 . S
C483 C485 1.415 . S
C484 C483 1.355 . S
C484 C486 1.419 . S
C485 C480 1.425 . S
C485 C482 1.409 1_545 S
C485 C483 1.415 . S
C486 H476 0.930 . S
C486 C484 1.419 . S
C486 C487 1.362 . S
C487 H477 0.930 . S
C487 C480 1.409 . S
C487 C486 1.362 . S
H488 C494 0.930 . S
H489 C497 0.930 . S
H490 C498 0.930 . S
H491 C499 0.930 . S
H492 C502 0.930 . S
H493 C503 0.930 . S
C494 H488 0.930 . S
C494 C495 1.355 . S
C494 C496 1.415 . S
C495 C494 1.355 . S
C495 C497 1.419 . S
C496 C494 1.415 . S
C496 C501 1.425 . S
C496 C503 1.409 . S
C497 H489 0.930 . S
C497 C495 1.419 . S
C497 C498 1.362 . S
C498 H490 0.930 . S
C498 C497 1.362 . S
C498 C501 1.409 . S
C499 H491 0.930 . S
C499 C500 1.355 . S
C499 C501 1.415 . S
C500 C499 1.355 . S
C500 C502 1.419 . S
C501 C496 1.425 . S
C501 C498 1.409 . S
C501 C499 1.415 . S
C502 H492 0.930 . S
C502 C500 1.419 . S
C502 C503 1.362 . S
C503 H493 0.930 . S
C503 C496 1.409 . S
C503 C502 1.362 . S
H504 C510 0.930 . S
H505 C513 0.930 . S
H506 C514 0.930 . S
H507 C515 0.930 . S
H508 C518 0.930 . S
H509 C519 0.930 . S
C510 H504 0.930 . S
C510 C511 1.355 . S
C510 C512 1.415 . S
C511 C510 1.355 . S
C511 C513 1.419 . S
C512 C510 1.415 . S
C512 C517 1.425 . S
C512 C519 1.409 . S
C513 H505 0.930 . S
C513 C511 1.419 . S
C513 C514 1.362 . S
C514 H506 0.930 . S
C514 C513 1.362 . S
C514 C517 1.409 . S
C515 H507 0.930 . S
C515 C516 1.355 . S
C515 C517 1.415 . S
C516 C515 1.355 . S
C516 C518 1.419 . S
C517 C512 1.425 . S
C517 C514 1.409 . S
C517 C515 1.415 . S
C518 H508 0.930 . S
C518 C516 1.419 . S
C518 C519 1.362 . S
C519 H509 0.930 . S
C519 C512 1.409 . S
C519 C518 1.362 . S
H520 C526 0.930 . S
H521 C529 0.930 . S
H522 C530 0.930 . S
H523 C531 0.930 . S
H524 C534 0.930 . S
H525 C535 0.930 . S
C526 H520 0.930 . S
C526 C527 1.355 1_655 S
C526 C528 1.415 . S
C527 C526 1.355 1_455 S
C527 C529 1.419 . S
C528 C526 1.415 . S
C528 C533 1.425 1_655 S
C528 C535 1.409 . S
C529 H521 0.930 . S
C529 C527 1.419 . S
C529 C530 1.362 . S
C530 H522 0.930 . S
C530 C529 1.362 . S
C530 C533 1.409 . S
C531 H523 0.930 . S
C531 C532 1.355 . S
C531 C533 1.415 . S
C532 C531 1.355 . S
C532 C534 1.419 1_455 S
C533 C528 1.425 1_455 S
C533 C530 1.409 . S
C533 C531 1.415 . S
C534 H524 0.930 . S
C534 C532 1.419 1_655 S
C534 C535 1.362 . S
C535 H525 0.930 . S
C535 C528 1.409 . S
C535 C534 1.362 . S
H536 C542 0.930 . S
H537 C545 0.930 1_554 S
H538 C546 0.930 1_554 S
H539 C547 0.930 . S
H540 C550 0.930 . S
H541 C551 0.930 . S
C542 H536 0.930 . S
C542 C543 1.357 . S
C542 C544 1.415 . S
C543 C542 1.357 . S
C543 C545 1.417 1_545 S
C544 C542 1.415 . S
C544 C549 1.425 1_545 S
C544 C551 1.409 . S
C545 H537 0.930 1_556 S
C545 C543 1.417 1_565 S
C545 C546 1.362 . S
C546 H538 0.930 1_556 S
C546 C545 1.362 . S
C546 C549 1.409 . S
C547 H539 0.930 . S
C547 C548 1.355 1_565 S
C547 C549 1.415 . S
C548 C547 1.355 1_545 S
C548 C550 1.419 . S
C549 C544 1.425 1_565 S
C549 C546 1.409 . S
C549 C547 1.415 . S
C550 H540 0.930 . S
C550 C548 1.419 . S
C550 C551 1.362 . S
C551 H541 0.930 . S
C551 C544 1.409 . S
C551 C550 1.362 . S
H552 C558 0.930 . S
H553 C561 0.930 . S
H554 C562 0.930 . S
H555 C563 0.930 . S
H556 C566 0.930 . S
H557 C567 0.930 . S
C558 H552 0.930 . S
C558 C559 1.355 . S
C558 C560 1.415 . S
C559 C558 1.355 . S
C559 C561 1.419 . S
C560 C558 1.415 . S
C560 C565 1.425 . S
C560 C567 1.409 . S
C561 H553 0.930 . S
C561 C559 1.419 . S
C561 C562 1.362 . S
C562 H554 0.930 . S
C562 C561 1.362 . S
C562 C565 1.409 . S
C563 H555 0.930 . S
C563 C564 1.355 . S
C563 C565 1.415 . S
C564 C563 1.355 . S
C564 C566 1.419 . S
C565 C560 1.425 . S
C565 C562 1.409 . S
C565 C563 1.415 . S
C566 H556 0.930 . S
C566 C564 1.419 . S
C566 C567 1.362 . S
C567 H557 0.930 . S
C567 C560 1.409 . S
C567 C566 1.362 . S
H568 C574 0.930 . S
H569 C577 0.927 1_554 S
H570 C578 0.930 1_554 S
H571 C579 0.930 . S
H572 C582 0.930 . S
H573 C583 0.930 . S
C574 H568 0.930 . S
C574 C575 1.355 . S
C574 C576 1.415 . S
C575 C574 1.355 . S
C575 C577 1.419 . S
C576 C574 1.415 . S
C576 C581 1.425 . S
C576 C583 1.409 . S
C577 H569 0.927 1_556 S
C577 C575 1.419 . S
C577 C578 1.362 . S
C578 H570 0.930 1_556 S
C578 C577 1.362 . S
C578 C581 1.409 . S
C579 H571 0.930 . S
C579 C580 1.355 . S
C579 C581 1.415 . S
C580 C579 1.355 . S
C580 C582 1.419 . S
C581 C576 1.425 . S
C581 C578 1.409 . S
C581 C579 1.415 . S
C582 H572 0.930 . S
C582 C580 1.419 . S
C582 C583 1.362 . S
C583 H573 0.930 . S
C583 C576 1.409 . S
C583 C582 1.362 . S
H584 C590 0.930 . S
H585 C593 0.930 . S
H586 C594 0.930 . S
H587 C595 0.930 . S
H588 C598 0.930 . S
H589 C599 0.930 . S
C590 H584 0.930 . S
C590 C591 1.355 1_455 S
C590 C592 1.415 . S
C591 C590 1.355 1_655 S
C591 C593 1.419 . S
C592 C590 1.415 . S
C592 C597 1.425 1_455 S
C592 C599 1.409 . S
C593 H585 0.930 . S
C593 C591 1.419 . S
C593 C594 1.362 . S
C594 H586 0.930 . S
C594 C593 1.362 . S
C594 C597 1.409 . S
C595 H587 0.930 . S
C595 C596 1.355 . S
C595 C597 1.415 . S
C596 C595 1.355 . S
C596 C598 1.419 1_655 S
C597 C592 1.425 1_655 S
C597 C594 1.409 . S
C597 C595 1.415 . S
C598 H588 0.930 . S
C598 C596 1.419 1_455 S
C598 C599 1.362 . S
C599 H589 0.930 . S
C599 C592 1.409 . S
C599 C598 1.362 . S
H600 C606 0.936 . S
H601 C609 0.930 . S
H602 C610 0.930 . S
H603 C611 0.930 . S
H604 C614 0.931 . S
H605 C615 0.930 . S
C606 H600 0.936 . S
C606 C607 1.351 1_545 S
C606 C608 1.413 1_545 S
C607 C606 1.351 1_565 S
C607 C609 1.419 . S
C608 C606 1.413 1_565 S
C608 C613 1.425 . S
C608 C615 1.409 1_565 S
C609 H601 0.930 . S
C609 C607 1.419 . S
C609 C610 1.362 . S
C610 H602 0.930 . S
C610 C609 1.362 . S
C610 C613 1.409 . S
C611 H603 0.930 . S
C611 C612 1.355 . S
C611 C613 1.415 . S
C612 C611 1.355 . S
C612 C614 1.417 1_565 S
C613 C608 1.425 . S
C613 C610 1.409 . S
C613 C611 1.415 . S
C614 H604 0.931 . S
C614 C612 1.417 1_545 S
C614 C615 1.363 . S
C615 H605 0.930 . S
C615 C608 1.409 1_545 S
C615 C614 1.363 . S
H616 C622 0.930 . S
H617 C625 0.930 . S
H618 C626 0.930 . S
H619 C627 0.930 . S
H620 C630 0.930 . S
H621 C631 0.930 . S
C622 H616 0.930 . S
C622 C623 1.355 . S
C622 C624 1.415 . S
C623 C622 1.355 . S
C623 C625 1.419 . S
C624 C622 1.415 . S
C624 C629 1.425 . S
C624 C631 1.409 . S
C625 H617 0.930 . S
C625 C623 1.419 . S
C625 C626 1.362 . S
C626 H618 0.930 . S
C626 C625 1.362 . S
C626 C629 1.409 . S
C627 H619 0.930 . S
C627 C628 1.355 . S
C627 C629 1.415 . S
C628 C627 1.355 . S
C628 C630 1.419 . S
C629 C624 1.425 . S
C629 C626 1.409 . S
C629 C627 1.415 . S
C630 H620 0.930 . S
C630 C628 1.419 . S
C630 C631 1.362 . S
C631 H621 0.930 . S
C631 C624 1.409 . S
C631 C630 1.362 . S
H632 C638 0.930 . S
H633 C641 0.930 . S
H634 C642 0.930 . S
H635 C643 0.930 . S
H636 C646 0.930 . S
H637 C647 0.930 . S
C638 H632 0.930 . S
C638 C639 1.355 . S
C638 C640 1.415 . S
C639 C638 1.355 . S
C639 C641 1.419 . S
C640 C638 1.415 . S
C640 C645 1.425 . S
C640 C647 1.409 . S
C641 H633 0.930 . S
C641 C639 1.419 . S
C641 C642 1.362 . S
C642 H634 0.930 . S
C642 C641 1.362 . S
C642 C645 1.409 . S
C643 H635 0.930 . S
C643 C644 1.355 . S
C643 C645 1.415 . S
C644 C643 1.355 . S
C644 C646 1.419 . S
C645 C640 1.425 . S
C645 C642 1.409 . S
C645 C643 1.415 . S
C646 H636 0.930 . S
C646 C644 1.419 . S
C646 C647 1.362 . S
C647 H637 0.930 . S
C647 C640 1.409 . S
C647 C646 1.362 . S
C271 C82 1.752 1_565 S
C276 C106 2.050 1_545 S
C292 C146 2.054 . S
C287 C95 1.656 . S
C308 C186 2.068 . S
C303 C56 1.777 . S
C324 C226 2.052 1_455 S
C319 C69 1.764 . S
C340 C119 2.044 1_564 S
C335 C30 1.661 . S
C351 C43 1.756 . S
C356 C159 2.051 . S
C367 C4 1.792 . S
C372 C199 2.068 . S
C383 C17 1.774 1_655 S
C388 C239 2.051 . S
C404 C130 0.515 . S
C399 C74 0.592 1_655 S
C420 C170 0.620 . S
C415 C87 0.685 . S
C436 C210 0.546 . S
C431 C100 0.630 . S
C447 C61 0.528 . S
C452 C250 0.595 . S
C463 C22 0.607 1_655 S
C468 C113 0.646 . S
C484 C153 0.639 . S
C479 C35 0.587 1_565 S
C500 C193 0.625 . S
C495 C48 0.686 . S
C511 C9 0.663 . S
C516 C233 0.647 . S
C527 C73 2.115 . S
C532 C107 2.387 . S
C543 C86 2.066 . S
C548 C147 2.369 . S
C564 C187 2.339 . S
C559 C99 2.036 . S
C580 C227 2.392 . S
C575 C60 2.086 . S
C591 C21 2.163 1_655 S
C596 C126 2.410 . S
C612 C166 2.355 . S
C607 C34 2.054 1_565 S
C628 C206 2.338 . S
C623 C47 2.051 . S
C639 C8 2.069 . S
C644 C246 2.385 . S
