# Generated by pormake.
# Topology nom, (4,4)-cn, num edge types: 1
# Building blocks:
#     Node 0, Type 0, BuildingBlock: MUDLON_clean_linker_0, # of connection points: 4
#     Node 1, Type 0, BuildingBlock: MUDLON_clean_linker_0, # of connection points: 4
#     Node 2, Type 0, BuildingBlock: MUDLON_clean_linker_0, # of connection points: 4
#     Node 3, Type 0, BuildingBlock: MUDLON_clean_linker_0, # of connection points: 4
#     Node 4, Type 0, BuildingBlock: MUDLON_clean_linker_0, # of connection points: 4
#     Node 5, Type 0, BuildingBlock: MUDLON_clean_linker_0, # of connection points: 4
#     Node 6, Type 1, BuildingBlock: QUQFOY_clean_sbu_3, # of connection points: 4
#     Node 7, Type 1, BuildingBlock: QUQFOY_clean_sbu_3, # of connection points: 4
#     Node 8, Type 1, BuildingBlock: QUQFOY_clean_sbu_3, # of connection points: 4
#     Node 9, Type 1, BuildingBlock: QUQFOY_clean_sbu_3, # of connection points: 4
#     Node 10, Type 1, BuildingBlock: QUQFOY_clean_sbu_3, # of connection points: 4
#     Node 11, Type 1, BuildingBlock: QUQFOY_clean_sbu_3, # of connection points: 4
#     Edge 12, Type (0, 1), BuildingBlock: ZUJKAS_clean_linker_0, # of connection points: 2
#     Edge 13, Type (0, 1), BuildingBlock: ZUJKAS_clean_linker_0, # of connection points: 2
#     Edge 14, Type (0, 1), BuildingBlock: ZUJKAS_clean_linker_0, # of connection points: 2
#     Edge 15, Type (0, 1), BuildingBlock: ZUJKAS_clean_linker_0, # of connection points: 2
#     Edge 16, Type (0, 1), BuildingBlock: ZUJKAS_clean_linker_0, # of connection points: 2
#     Edge 17, Type (0, 1), BuildingBlock: ZUJKAS_clean_linker_0, # of connection points: 2
#     Edge 18, Type (0, 1), BuildingBlock: ZUJKAS_clean_linker_0, # of connection points: 2
#     Edge 19, Type (0, 1), BuildingBlock: ZUJKAS_clean_linker_0, # of connection points: 2
#     Edge 20, Type (0, 1), BuildingBlock: ZUJKAS_clean_linker_0, # of connection points: 2
#     Edge 21, Type (0, 1), BuildingBlock: ZUJKAS_clean_linker_0, # of connection points: 2
#     Edge 22, Type (0, 1), BuildingBlock: ZUJKAS_clean_linker_0, # of connection points: 2
#     Edge 23, Type (0, 1), BuildingBlock: ZUJKAS_clean_linker_0, # of connection points: 2
#     Edge 24, Type (0, 1), BuildingBlock: ZUJKAS_clean_linker_0, # of connection points: 2
#     Edge 25, Type (0, 1), BuildingBlock: ZUJKAS_clean_linker_0, # of connection points: 2
#     Edge 26, Type (0, 1), BuildingBlock: ZUJKAS_clean_linker_0, # of connection points: 2
#     Edge 27, Type (0, 1), BuildingBlock: ZUJKAS_clean_linker_0, # of connection points: 2
#     Edge 28, Type (0, 1), BuildingBlock: ZUJKAS_clean_linker_0, # of connection points: 2
#     Edge 29, Type (0, 1), BuildingBlock: ZUJKAS_clean_linker_0, # of connection points: 2
#     Edge 30, Type (0, 1), BuildingBlock: ZUJKAS_clean_linker_0, # of connection points: 2
#     Edge 31, Type (0, 1), BuildingBlock: ZUJKAS_clean_linker_0, # of connection points: 2
#     Edge 32, Type (0, 1), BuildingBlock: ZUJKAS_clean_linker_0, # of connection points: 2
#     Edge 33, Type (0, 1), BuildingBlock: ZUJKAS_clean_linker_0, # of connection points: 2
#     Edge 34, Type (0, 1), BuildingBlock: ZUJKAS_clean_linker_0, # of connection points: 2
#     Edge 35, Type (0, 1), BuildingBlock: ZUJKAS_clean_linker_0, # of connection points: 2
# Relax obj value: 0.006
# Max RMSD: 0.103
# Mean RMSD: 0.061
data_MOF--net-nom--node1-QUQFOY_clean_sbu_3--node2-MUDLON_clean_linker_0--edge1-ZUJKAS_clean_linker_0
_symmetry_space_group_name_H-M    P1
_symmetry_Int_Tables_number       1
_symmetry_cell_setting            triclinic
loop_
_symmetry_equiv_pos_as_xyz
'x, y, z'
_cell_length_a     73.744339
_cell_length_b     76.331749
_cell_length_c     74.274191
_cell_angle_alpha  90.317048
_cell_angle_beta   89.848227
_cell_angle_gamma 120.51505
loop_
_atom_site_label
_atom_site_type_symbol
_atom_site_fract_x
_atom_site_fract_y
_atom_site_fract_z
_atom_type_partial_charge
H0 H 0.09697 0.55489 0.31272 0.0
N1 N 0.08137 0.5766 0.32859 0.0
H2 H 0.12573 0.56787 0.29057 0.0
H3 H 0.0991 0.61228 0.31223 0.0
H4 H 0.1276 0.62541 0.29016 0.0
H5 H 0.09193 0.60658 0.35209 0.0
H6 H 0.10993 0.6115 0.3809 0.0
H7 H 0.08896 0.54918 0.34487 0.0
H8 H 0.10622 0.55347 0.37393 0.0
H9 H 0.05728 0.5353 0.32854 0.0
H10 H 0.05625 0.59044 0.31957 0.0
H11 H 0.01943 0.51517 0.3226 0.0
H12 H 0.01886 0.57067 0.31237 0.0
H13 H 0.91795 0.46095 0.28753 0.0
H14 H 0.90441 0.44456 0.25832 0.0
H15 H 0.91233 0.5009 0.2377 0.0
H16 H 0.92625 0.51716 0.26688 0.0
H17 H 0.90356 0.51403 0.30409 0.0
H18 H 0.8737 0.49997 0.32484 0.0
H19 H 0.88691 0.45297 0.33993 0.0
H20 H 0.91712 0.46748 0.31915 0.0
H21 H 0.95632 0.48584 0.29204 0.0
H22 H 0.99346 0.50396 0.30021 0.0
H23 H 0.98597 0.55123 0.32523 0.0
N24 N 0.92871 0.49968 0.29679 0.0
H25 H 0.94929 0.53374 0.31575 0.0
C26 C 0.09615 0.58278 0.31407 0.0
C27 C 0.10347 0.57018 0.30762 0.0
C28 C 0.11987 0.57762 0.29503 0.0
C29 C 0.12891 0.59765 0.28861 0.0
C30 C 0.12079 0.60982 0.2946 0.0
C31 C 0.1046 0.60243 0.30724 0.0
C32 C 0.08907 0.57755 0.34648 0.0
C33 C 0.0947 0.59481 0.35702 0.0
C34 C 0.1049 0.59752 0.37349 0.0
C35 C 0.10961 0.5829 0.37972 0.0
C36 C 0.1031 0.56515 0.36941 0.0
C37 C 0.09301 0.56255 0.35288 0.0
C38 C 0.05934 0.56434 0.32478 0.0
C39 C 0.04885 0.54304 0.32528 0.0
C40 C 0.02724 0.53156 0.32167 0.0
C41 C 0.0159 0.54123 0.31717 0.0
C42 C 0.02679 0.56262 0.3163 0.0
C43 C 0.04821 0.574 0.32022 0.0
C44 C 0.92308 0.49029 0.27928 0.0
C45 C 0.91707 0.46981 0.27663 0.0
C46 C 0.90923 0.46045 0.25995 0.0
C47 C 0.90719 0.47139 0.24568 0.0
C48 C 0.91396 0.49209 0.24828 0.0
C49 C 0.92183 0.50141 0.26493 0.0
C50 C 0.91231 0.49171 0.31007 0.0
C51 C 0.90012 0.50086 0.31207 0.0
C52 C 0.88319 0.49286 0.32397 0.0
C53 C 0.87803 0.4754 0.33404 0.0
C54 C 0.8905 0.46637 0.33225 0.0
C55 C 0.90767 0.47459 0.32042 0.0
C56 C 0.95009 0.50869 0.30299 0.0
C57 C 0.96265 0.50012 0.29922 0.0
C58 C 0.98394 0.51045 0.30408 0.0
C59 C 0.99293 0.5293 0.31315 0.0
C60 C 0.97989 0.53714 0.31776 0.0
C61 C 0.95882 0.52705 0.31255 0.0
H62 H 0.50463 0.92174 0.48858 0.0
N63 N 0.49358 0.93751 0.46195 0.0
H64 H 0.48126 0.89529 0.50976 0.0
H65 H 0.45142 0.92326 0.46655 0.0
H66 H 0.42817 0.89733 0.48778 0.0
H67 H 0.46686 0.94187 0.43934 0.0
H68 H 0.45357 0.92458 0.41045 0.0
H69 H 0.506 0.91525 0.44419 0.0
H70 H 0.49356 0.89857 0.41494 0.0
H71 H 0.5335 0.96542 0.45677 0.0
H72 H 0.47366 0.95843 0.47171 0.0
H73 H 0.55019 0.00222 0.46043 0.0
H74 H 0.49029 0.99497 0.47635 0.0
H75 H 0.59431 0.11107 0.50494 0.0
H76 H 0.59222 0.12318 0.535 0.0
H77 H 0.5243 0.08802 0.53224 0.0
H78 H 0.5266 0.07607 0.50211 0.0
H79 H 0.53258 0.09749 0.47612 0.0
H80 H 0.5366 0.12487 0.45676 0.0
H81 H 0.59792 0.1363 0.44032 0.0
H82 H 0.59388 0.10895 0.46012 0.0
H83 H 0.5779 0.06327 0.48882 0.0
H84 H 0.56062 0.0267 0.48348 0.0
H85 H 0.50632 0.02716 0.46219 0.0
N86 N 0.56279 0.08758 0.48308 0.0
H87 H 0.52337 0.06351 0.46844 0.0
C88 C 0.47987 0.92443 0.47594 0.0
C89 C 0.48801 0.91673 0.48863 0.0
C90 C 0.47465 0.9017 0.50074 0.0
C91 C 0.45283 0.89409 0.50031 0.0
C92 C 0.44487 0.90266 0.48825 0.0
C93 C 0.45822 0.91764 0.47615 0.0
C94 C 0.48731 0.92965 0.44395 0.0
C95 C 0.47282 0.93252 0.43405 0.0
C96 C 0.46533 0.92271 0.41746 0.0
C97 C 0.47231 0.90998 0.41043 0.0
C98 C 0.48747 0.90788 0.4201 0.0
C99 C 0.49478 0.91754 0.43671 0.0
C100 C 0.50249 0.9591 0.46422 0.0
C101 C 0.52403 0.97185 0.461 0.0
C102 C 0.53352 0.99286 0.46322 0.0
C103 C 0.52166 0.00162 0.46892 0.0
C104 C 0.49991 0.98882 0.47181 0.0
C105 C 0.49037 0.96778 0.46935 0.0
C106 C 0.56072 0.09278 0.50132 0.0
C107 C 0.57901 0.1058 0.51097 0.0
C108 C 0.57775 0.1126 0.52814 0.0
C109 C 0.55807 0.10653 0.53599 0.0
C110 C 0.53967 0.09308 0.52646 0.0
C111 C 0.54097 0.08619 0.50928 0.0
C112 C 0.56305 0.10123 0.46962 0.0
C113 C 0.54671 0.10555 0.4681 0.0
C114 C 0.549 0.12121 0.45693 0.0
C115 C 0.56766 0.13288 0.4471 0.0
C116 C 0.58347 0.12777 0.44791 0.0
C117 C 0.58115 0.11209 0.45908 0.0
C118 C 0.55214 0.06619 0.47887 0.0
C119 C 0.5623 0.05543 0.48293 0.0
C120 C 0.55242 0.03455 0.47975 0.0
C121 C 0.5321 0.02393 0.47223 0.0
C122 C 0.52188 0.03478 0.46815 0.0
C123 C 0.53173 0.05569 0.47155 0.0
H124 H 0.49743 0.60198 0.66117 0.0
N125 N 0.49135 0.56635 0.6719 0.0
H126 H 0.47557 0.60821 0.64049 0.0
H127 H 0.45985 0.53767 0.65024 0.0
H128 H 0.43836 0.54376 0.62937 0.0
H129 H 0.45123 0.53883 0.68284 0.0
H130 H 0.4352 0.53935 0.7115 0.0
H131 H 0.51044 0.58973 0.70027 0.0
H132 H 0.49449 0.59038 0.72904 0.0
H133 H 0.53138 0.57984 0.66459 0.0
H134 H 0.47189 0.52466 0.6721 0.0
H135 H 0.54832 0.55999 0.65895 0.0
H136 H 0.48812 0.50456 0.66498 0.0
H137 H 0.59129 0.4915 0.62218 0.0
H138 H 0.58787 0.47692 0.59214 0.0
H139 H 0.52012 0.44702 0.59638 0.0
H140 H 0.5238 0.46165 0.62659 0.0
H141 H 0.53048 0.44592 0.65236 0.0
H142 H 0.53508 0.42223 0.67094 0.0
H143 H 0.59743 0.47052 0.68557 0.0
H144 H 0.59284 0.49405 0.66646 0.0
H145 H 0.56982 0.521 0.63182 0.0
H146 H 0.55222 0.54008 0.63784 0.0
H147 H 0.51008 0.4932 0.6747 0.0
N148 N 0.56072 0.48521 0.64474 0.0
H149 H 0.52669 0.47357 0.6675 0.0
C150 C 0.48039 0.56946 0.65735 0.0
C151 C 0.48484 0.58929 0.65393 0.0
C152 C 0.47236 0.59279 0.64208 0.0
C153 C 0.4551 0.57644 0.63339 0.0
C154 C 0.45135 0.55665 0.63607 0.0
C155 C 0.46381 0.55316 0.64796 0.0
C156 C 0.48209 0.5644 0.6894 0.0
C157 C 0.46089 0.54992 0.69292 0.0
C158 C 0.45169 0.5503 0.70928 0.0
C159 C 0.46355 0.56499 0.72246 0.0
C160 C 0.48499 0.57877 0.71922 0.0
C161 C 0.49412 0.57847 0.70282 0.0
C162 C 0.5004 0.55383 0.6684 0.0
C163 C 0.52194 0.5634 0.6647 0.0
C164 C 0.53151 0.55196 0.66132 0.0
C165 C 0.5196 0.53054 0.66121 0.0
C166 C 0.49792 0.52097 0.66509 0.0
C167 C 0.48848 0.53248 0.66889 0.0
C168 C 0.55789 0.47763 0.62655 0.0
C169 C 0.57575 0.48201 0.61649 0.0
C170 C 0.57373 0.47375 0.59932 0.0
C171 C 0.55371 0.46085 0.59186 0.0
C172 C 0.53574 0.45678 0.60183 0.0
C173 C 0.53781 0.46515 0.61904 0.0
C174 C 0.56146 0.47178 0.65794 0.0
C175 C 0.54502 0.4515 0.65976 0.0
C176 C 0.54763 0.43797 0.67051 0.0
C177 C 0.56671 0.44443 0.67962 0.0
C178 C 0.58267 0.46499 0.67851 0.0
C179 C 0.58003 0.47849 0.66775 0.0
C180 C 0.54985 0.49594 0.64921 0.0
C181 C 0.55671 0.51483 0.64114 0.0
C182 C 0.54672 0.52582 0.64478 0.0
C183 C 0.52979 0.51839 0.65697 0.0
C184 C 0.52285 0.49936 0.66506 0.0
C185 C 0.53258 0.48813 0.66107 0.0
H186 H 0.10392 0.56231 0.80466 0.0
N187 N 0.08202 0.52344 0.79122 0.0
H188 H 0.13072 0.5747 0.8281 0.0
H189 H 0.09289 0.50161 0.81128 0.0
H190 H 0.12033 0.51398 0.83435 0.0
H191 H 0.09967 0.51065 0.76756 0.0
H192 H 0.11757 0.52715 0.73955 0.0
H193 H 0.08477 0.55768 0.77696 0.0
H194 H 0.10268 0.57439 0.74889 0.0
H195 H 0.06708 0.54439 0.8106 0.0
H196 H 0.04839 0.49072 0.77839 0.0
H197 H 0.0304 0.53323 0.81656 0.0
H198 H 0.01145 0.48 0.78325 0.0
H199 H 0.91118 0.49123 0.83933 0.0
H200 H 0.89811 0.48195 0.87012 0.0
H201 H 0.93019 0.44799 0.87474 0.0
H202 H 0.94269 0.45687 0.84401 0.0
H203 H 0.91523 0.43625 0.82087 0.0
H204 H 0.88463 0.41088 0.80451 0.0
H205 H 0.87793 0.45853 0.77995 0.0
H206 H 0.90966 0.48404 0.79566 0.0
H207 H 0.96188 0.51565 0.81389 0.0
H208 H -0.00157 0.52805 0.80515 0.0
H209 H 0.98608 0.46626 0.80573 0.0
N210 N 0.93183 0.47761 0.82012 0.0
H211 H 0.94975 0.45412 0.81327 0.0
C212 C 0.09635 0.53093 0.80625 0.0
C213 C 0.10708 0.55157 0.8113 0.0
C214 C 0.12256 0.55869 0.82463 0.0
C215 C 0.12782 0.54539 0.83304 0.0
C216 C 0.11652 0.52462 0.82837 0.0
C217 C 0.10092 0.51751 0.81513 0.0
C218 C 0.091 0.53294 0.77427 0.0
C219 C 0.1001 0.52444 0.76341 0.0
C220 C 0.11021 0.53384 0.74743 0.0
C221 C 0.11149 0.55206 0.74202 0.0
C222 C 0.10208 0.56046 0.75281 0.0
C223 C 0.09181 0.55092 0.76879 0.0
C224 C 0.06052 0.51807 0.79435 0.0
C225 C 0.05513 0.53024 0.8047 0.0
C226 C 0.034 0.52393 0.80792 0.0
C227 C 0.01783 0.50557 0.80055 0.0
C228 C 0.02339 0.49393 0.78958 0.0
C229 C 0.04448 0.50007 0.78665 0.0
C230 C 0.92786 0.47482 0.83923 0.0
C231 C 0.91577 0.48219 0.84716 0.0
C232 C 0.90839 0.47691 0.86478 0.0
C233 C 0.91299 0.46408 0.87483 0.0
C234 C 0.92611 0.45764 0.86724 0.0
C235 C 0.93344 0.46289 0.84961 0.0
C236 C 0.91502 0.46221 0.80928 0.0
C237 C 0.90769 0.44137 0.81156 0.0
C238 C 0.88984 0.42678 0.80239 0.0
C239 C 0.87858 0.43258 0.79104 0.0
C240 C 0.8863 0.45345 0.78839 0.0
C241 C 0.90438 0.46807 0.79739 0.0
C242 C 0.953 0.48404 0.81435 0.0
C243 C 0.96712 0.50484 0.81192 0.0
C244 C 0.98803 0.51188 0.80709 0.0
C245 C 0.99534 0.49819 0.80479 0.0
C246 C 0.98104 0.47728 0.80704 0.0
C247 C 0.96009 0.47027 0.81158 0.0
H248 H 0.51992 0.11624 0.97993 0.0
N249 N 0.52379 0.08561 0.96795 0.0
H250 H 0.54374 0.14384 -8e-05 0.0
H251 H 0.55631 0.08704 0.98743 0.0
H252 H 0.57969 0.11406 0.00793 0.0
H253 H 0.56285 0.09796 0.95398 0.0
H254 H 0.57545 0.11238 0.92409 0.0
H255 H 0.5016 0.08889 0.94153 0.0
H256 H 0.51407 0.1033 0.91154 0.0
H257 H 0.4844 0.06007 0.97738 0.0
H258 H 0.54272 0.06272 0.96457 0.0
H259 H 0.46722 0.02334 0.98111 0.0
H260 H 0.52626 0.02626 0.96961 0.0
H261 H 0.42016 0.90867 0.00539 0.0
H262 H 0.4211 0.89506 0.03487 0.0
H263 H 0.48895 0.9327 0.0354 0.0
H264 H 0.48778 0.94607 0.00576 0.0
H265 H 0.48478 0.92769 0.97806 0.0
H266 H 0.48239 0.90032 0.95914 0.0
H267 H 0.41937 0.88418 0.94349 0.0
H268 H 0.42195 0.91168 0.96248 0.0
H269 H 0.44559 0.96115 0.00281 0.0
H270 H 0.46397 0.9979 -0.00028 0.0
H271 H 0.50281 0.99429 0.95781 0.0
N272 N 0.45255 0.93466 0.98547 0.0
H273 H 0.48544 0.95782 0.96186 0.0
C274 C 0.53619 0.09954 0.98212 0.0
C275 C 0.5327 0.1155 0.98632 0.0
C276 C 0.54631 0.13122 -0.00217 0.0
C277 C 0.56376 0.13126 0.00552 0.0
C278 C 0.56662 0.11468 0.00203 0.0
C279 C 0.55306 0.09903 0.99038 0.0
C280 C 0.53126 0.09248 0.94998 0.0
C281 C 0.55205 0.09889 0.94476 0.0
C282 C 0.55926 0.10721 0.9277 0.0
C283 C 0.54577 0.10906 0.91552 0.0
C284 C 0.52478 0.10192 0.92057 0.0
C285 C 0.51765 0.09376 0.93766 0.0
C286 C 0.51483 0.06418 0.97106 0.0
C287 C 0.49358 0.05271 0.97577 0.0
C288 C 0.48386 0.03171 0.97801 0.0
C289 C 0.49534 0.02168 0.97587 0.0
C290 C 0.51679 0.03331 0.97119 0.0
C291 C 0.52638 0.0543 0.96859 0.0
C292 C 0.4538 0.92828 0.00343 0.0
C293 C 0.43517 0.91411 0.012 0.0
C294 C 0.43578 0.90647 0.02886 0.0
C295 C 0.45512 0.91285 0.03749 0.0
C296 C 0.47383 0.92736 0.02901 0.0
C297 C 0.47319 0.93505 0.01213 0.0
C298 C 0.4534 0.92163 0.97176 0.0
C299 C 0.47061 0.91854 0.9703 0.0
C300 C 0.4692 0.90284 0.95951 0.0
C301 C 0.4506 0.88994 0.94998 0.0
C302 C 0.43398 0.89394 0.95054 0.0
C303 C 0.43539 0.90961 0.96138 0.0
C304 C 0.46401 0.95647 0.98278 0.0
C305 C 0.45822 0.96832 0.99306 0.0
C306 C 0.46864 0.98938 0.99112 0.0
C307 C 0.48487 -0.00077 0.9784 0.0
C308 C 0.49067 0.98737 0.96798 0.0
C309 C 0.4805 0.96627 0.97022 0.0
H310 H 0.51818 0.42013 0.14412 0.0
N311 N 0.5261 0.45382 0.16118 0.0
H312 H 0.54184 0.41525 0.12436 0.0
H313 H 0.5639 0.48406 0.14817 0.0
H314 H 0.58816 0.47925 0.12926 0.0
H315 H 0.56276 0.47831 0.17959 0.0
H316 H 0.57158 0.47236 0.20959 0.0
H317 H 0.50111 0.42488 0.18399 0.0
H318 H 0.50981 0.41886 0.21433 0.0
H319 H 0.49062 0.44436 0.1446 0.0
H320 H 0.545 0.49452 0.16964 0.0
H321 H 0.47612 0.46631 0.13883 0.0
H322 H 0.5303 0.5164 0.16462 0.0
H323 H 0.44073 0.52131 0.10638 0.0
H324 H 0.44383 0.5357 0.07633 0.0
H325 H 0.49807 0.59184 0.09405 0.0
H326 H 0.49504 0.57731 0.12388 0.0
H327 H 0.49223 0.57245 0.15551 0.0
H328 H 0.48495 0.59492 0.17383 0.0
H329 H 0.41829 0.55523 0.16434 0.0
H330 H 0.42596 0.53364 0.14523 0.0
H331 H 0.44457 0.50262 0.14785 0.0
H332 H 0.46062 0.48232 0.15509 0.0
H333 H 0.52184 0.53339 0.14176 0.0
N334 N 0.46336 0.54015 0.13537 0.0
H335 H 0.50562 0.55378 0.13533 0.0
C336 C 0.53935 0.45231 0.14776 0.0
C337 C 0.53329 0.43313 0.14058 0.0
C338 C 0.54692 0.43037 0.12946 0.0
C339 C 0.56709 0.44678 0.12547 0.0
C340 C 0.57273 0.46628 0.13196 0.0
C341 C 0.55893 0.46904 0.14293 0.0
C342 C 0.53115 0.45199 0.17953 0.0
C343 C 0.55094 0.46549 0.1871 0.0
C344 C 0.55598 0.4621 0.20434 0.0
C345 C 0.54142 0.4451 0.2143 0.0
C346 C 0.52144 0.43195 0.20689 0.0
C347 C 0.51639 0.43543 0.18967 0.0
C348 C 0.51868 0.46764 0.15767 0.0
C349 C 0.49935 0.4601 0.14891 0.0
C350 C 0.49105 0.47265 0.14579 0.0
C351 C 0.50189 0.49308 0.15151 0.0
C352 C 0.52157 0.50078 0.15997 0.0
C353 C 0.52995 0.4882 0.16297 0.0
C354 C 0.46738 0.54826 0.11741 0.0
C355 C 0.45351 0.53656 0.10362 0.0
C356 C 0.45538 0.54477 0.0865 0.0
C357 C 0.47113 0.56493 0.08293 0.0
C358 C 0.48568 0.57632 0.09651 0.0
C359 C 0.48392 0.56802 0.11359 0.0
C360 C 0.45957 0.55161 0.14876 0.0
C361 C 0.47608 0.56858 0.15749 0.0
C362 C 0.47185 0.58132 0.16809 0.0
C363 C 0.45104 0.57713 0.1703 0.0
C364 C 0.43454 0.55928 0.16253 0.0
C365 C 0.43882 0.54678 0.15178 0.0
C366 C 0.47381 0.52952 0.1409 0.0
C367 C 0.46147 0.50944 0.14673 0.0
C368 C 0.47067 0.49784 0.15066 0.0
C369 C 0.4925 0.50609 0.14868 0.0
C370 C 0.50501 0.52657 0.14348 0.0
C371 C 0.49575 0.53824 0.1397 0.0
C372 C 0.67419 0.40961 0.40605 0.0
O373 O 0.67154 0.42343 0.41289 0.0
Cd374 Cd 0.63787 0.41884 0.4205 0.0
O375 O 0.6585 0.39182 0.40331 0.0
Cd376 Cd 0.61969 0.37258 0.40831 0.0
C377 C 0.61303 0.40318 0.37948 0.0
O378 O 0.62033 0.38792 0.43718 0.0
O379 O 0.58953 0.36932 0.42557 0.0
O380 O 0.62422 0.34437 0.41698 0.0
C381 C 0.60059 0.38002 0.43873 0.0
O382 O 0.62075 0.41674 0.39177 0.0
C383 C 0.60968 0.3312 0.407 0.0
O384 O 0.61181 0.38607 0.3816 0.0
O385 O 0.59971 0.33728 0.39742 0.0
C386 C 0.2997 0.61667 0.56176 0.0
O387 O 0.28296 0.60206 0.55507 0.0
Cd388 Cd 0.25302 0.60462 0.54659 0.0
O389 O 0.30164 0.63412 0.56392 0.0
Cd390 Cd 0.28147 0.65147 0.55808 0.0
C391 C 0.24227 0.62077 0.58651 0.0
O392 O 0.2661 0.63502 0.52939 0.0
O393 O 0.25365 0.65264 0.54116 0.0
O394 O 0.31357 0.68095 0.5474 0.0
C395 C 0.25385 0.64205 0.52804 0.0
O396 O 0.23677 0.60701 0.57449 0.0
C397 C 0.31299 0.69361 0.55819 0.0
O398 O 0.25881 0.63812 0.58455 0.0
O399 O 0.29776 0.68664 0.56926 0.0
C400 C 0.67713 0.27615 0.72489 0.0
O401 O 0.67537 0.25981 0.7187 0.0
Cd402 Cd 0.64239 0.23094 0.7098 0.0
O403 O 0.66098 0.27799 0.72662 0.0
Cd404 Cd 0.62242 0.25809 0.72121 0.0
C405 C 0.61612 0.2211 0.75011 0.0
O406 O 0.62441 0.2438 0.69243 0.0
O407 O 0.59324 0.23137 0.70355 0.0
O408 O 0.62631 0.29036 0.71213 0.0
C409 C 0.60475 0.232 0.69057 0.0
O410 O 0.6241 0.21536 0.73785 0.0
C411 C 0.6113 0.28894 0.72163 0.0
O412 O 0.61487 0.23703 0.74812 0.0
O413 O 0.60133 0.27306 0.73119 0.0
C414 C 0.32656 0.6075 0.91235 0.0
O415 O 0.32971 0.59436 0.91984 0.0
Cd416 Cd 0.36394 0.59897 0.92455 0.0
O417 O 0.34203 0.62473 0.90775 0.0
Cd418 Cd 0.38111 0.64405 0.90978 0.0
C419 C 0.38372 0.61073 0.8813 0.0
O420 O 0.38461 0.63142 0.93864 0.0
O421 O 0.41309 0.6468 0.92298 0.0
O422 O 0.3799 0.67354 0.92049 0.0
C423 C 0.40423 0.63825 0.93763 0.0
O424 O 0.37756 0.59849 0.89456 0.0
C425 C 0.39211 0.68578 0.90864 0.0
O426 O 0.38524 0.62807 0.88272 0.0
O427 O 0.39916 0.67857 0.8969 0.0
C428 C 0.72952 0.41265 0.05968 0.0
O429 O 0.74657 0.42696 0.0532 0.0
Cd430 Cd 0.77589 0.42338 0.04484 0.0
O431 O 0.72693 0.39494 0.0617 0.0
Cd432 Cd 0.74632 0.37662 0.05566 0.0
C433 C 0.78533 0.40658 0.08471 0.0
O434 O 0.7615 0.39308 0.02717 0.0
O435 O 0.7738 0.3751 0.03801 0.0
O436 O 0.71289 0.34778 0.04596 0.0
C437 C 0.77351 0.38587 0.02521 0.0
O438 O 0.7915 0.4204 0.0728 0.0
C439 C 0.71424 0.33462 0.05533 0.0
O440 O 0.76848 0.38952 0.08248 0.0
O441 O 0.73044 0.34105 0.06522 0.0
C442 C 0.3316 0.73749 0.21958 0.0
O443 O 0.33363 0.75368 0.21292 0.0
Cd444 Cd 0.36683 0.78328 0.20638 0.0
O445 O 0.34773 0.73594 0.22267 0.0
Cd446 Cd 0.38663 0.75634 0.21845 0.0
C447 C 0.39093 0.79243 0.24782 0.0
O448 O 0.38602 0.77115 0.1898 0.0
O449 O 0.4166 0.78405 0.20216 0.0
O450 O 0.38442 0.72508 0.20817 0.0
C451 C 0.40566 0.78341 0.18876 0.0
O452 O 0.38319 0.79813 0.23542 0.0
C453 C 0.39857 0.72608 0.21854 0.0
O454 O 0.3928 0.77685 0.24567 0.0
O455 O 0.40723 0.74122 0.22922 0.0
H456 H 0.13709 0.62191 0.25918 0.0
H457 H 0.1709 0.64197 0.24386 0.0
H458 H 0.19764 0.61436 0.27672 0.0
H459 H 0.16393 0.59435 0.29221 0.0
H460 H 0.20655 0.66935 0.26447 0.0
H461 H 0.22128 0.61526 0.22578 0.0
H462 H 0.19523 0.60916 0.2328 0.0
H463 H 0.21307 0.60839 0.24875 0.0
C464 C 0.15006 0.61983 0.26291 0.0
C465 C 0.14791 0.60668 0.277 0.0
C466 C 0.16932 0.63122 0.25409 0.0
C467 C 0.18671 0.62956 0.2591 0.0
C468 C 0.1843 0.61558 0.27243 0.0
H469 H 0.32111 0.70336 0.23931 0.0
H470 H 0.28579 0.67652 0.24818 0.0
C471 C 0.16502 0.60416 0.28127 0.0
C472 C 0.20787 0.64441 0.25221 0.0
H473 H 0.24993 0.64919 0.2286 0.0
C474 C 0.21598 0.66498 0.2565 0.0
C475 C 0.2202 0.63855 0.24209 0.0
C476 C 0.21201 0.61666 0.23693 0.0
C477 C 0.2362 0.67991 0.25108 0.0
C478 C 0.24847 0.67416 0.24069 0.0
C479 C 0.24043 0.65354 0.23648 0.0
C480 C 0.26968 0.68946 0.23416 0.0
C481 C 0.24444 0.70163 0.25697 0.0
C482 C 0.27225 0.70532 0.22298 0.0
C483 C 0.29235 0.72076 0.21808 0.0
C484 C 0.3103 0.72049 0.22403 0.0
C485 C 0.30763 0.70408 0.23458 0.0
C486 C 0.28747 0.68871 0.23961 0.0
H487 H 0.23569 0.70253 0.26881 0.0
H488 H 0.26141 0.70929 0.26045 0.0
H489 H 0.24248 0.71013 0.2458 0.0
H490 H 0.25869 0.70593 0.21829 0.0
H491 H 0.29382 0.733 0.20973 0.0
H492 H 0.54006 0.13795 0.42609 0.0
H493 H 0.54545 0.16976 0.41318 0.0
H494 H 0.60874 0.20158 0.43421 0.0
H495 H 0.60352 0.17006 0.44703 0.0
H496 H 0.55372 0.20343 0.43205 0.0
H497 H 0.61836 0.22358 0.38367 0.0
H498 H 0.60307 0.19842 0.3931 0.0
H499 H 0.62474 0.21839 0.40552 0.0
C500 C 0.5552 0.1517 0.42774 0.0
C501 C 0.5714 0.15145 0.4375 0.0
C502 C 0.55828 0.16982 0.42031 0.0
C503 C 0.57762 0.18798 0.42245 0.0
C504 C 0.59391 0.18767 0.4319 0.0
H505 H 0.63083 0.31526 0.42378 0.0
H506 H 0.62144 0.27964 0.42489 0.0
C507 C 0.59088 0.1696 0.43926 0.0
C508 C 0.58028 0.20764 0.41643 0.0
H509 H 0.61414 0.25136 0.39425 0.0
C510 C 0.56665 0.21375 0.42346 0.0
C511 C 0.59714 0.22107 0.40519 0.0
C512 C 0.61151 0.21494 0.39629 0.0
C513 C 0.57018 0.23338 0.42044 0.0
C514 C 0.5877 0.24714 0.41002 0.0
C515 C 0.60079 0.24076 0.40232 0.0
C516 C 0.59368 0.2687 0.40828 0.0
C517 C 0.55584 0.23966 0.42917 0.0
C518 C 0.58129 0.27432 0.39834 0.0
C519 C 0.58665 0.29472 0.39763 0.0
C520 C 0.60443 0.30975 0.40691 0.0
C521 C 0.61699 0.30405 0.41655 0.0
C522 C 0.6117 0.28372 0.41716 0.0
H523 H 0.54455 0.22801 0.43868 0.0
H524 H 0.56523 0.25425 0.43657 0.0
H525 H 0.54671 0.24206 0.41861 0.0
H526 H 0.56741 0.26291 0.39129 0.0
H527 H 0.5767 0.29866 0.39006 0.0
H528 H 0.41224 0.55373 0.63413 0.0
H529 H 0.38718 0.56082 0.61932 0.0
H530 H 0.43843 0.61445 0.59517 0.0
H531 H 0.46373 0.60716 0.6096 0.0
H532 H 0.38618 0.59695 0.62519 0.0
H533 H 0.39698 0.58535 0.55284 0.0
H534 H 0.4054 0.57521 0.57078 0.0
H535 H 0.42063 0.60171 0.56525 0.0
C536 C 0.41822 0.56675 0.6253 0.0
C537 C 0.44 0.57984 0.62298 0.0
C538 C 0.40386 0.57086 0.61697 0.0
C539 C 0.41096 0.58806 0.60607 0.0
C540 C 0.43264 0.60094 0.60335 0.0
H541 H 0.33679 0.64365 0.57832 0.0
H542 H 0.36465 0.63754 0.58841 0.0
C543 C 0.44706 0.59685 0.61172 0.0
C544 C 0.39562 0.59318 0.59868 0.0
H545 H 0.37458 0.59834 0.55957 0.0
C546 C 0.38365 0.59729 0.61085 0.0
C547 C 0.39233 0.59348 0.57997 0.0
C548 C 0.40436 0.58856 0.56639 0.0
C549 C 0.36842 0.6017 0.60481 0.0
C550 C 0.36528 0.60223 0.58611 0.0
C551 C 0.3772 0.59807 0.57391 0.0
C552 C 0.3491 0.60636 0.57905 0.0
C553 C 0.35548 0.60532 0.61848 0.0
C554 C 0.3314 0.59097 0.57009 0.0
C555 C 0.31544 0.59437 0.56432 0.0
C556 C 0.31697 0.6133 0.56731 0.0
C557 C 0.33504 0.62886 0.57588 0.0
C558 C 0.35096 0.62541 0.5817 0.0
H559 H 0.35687 0.60033 0.63217 0.0
H560 H 0.36101 0.62181 0.61911 0.0
H561 H 0.33861 0.59715 0.61456 0.0
H562 H 0.32974 0.57617 0.56791 0.0
H563 H 0.30182 0.58209 0.55768 0.0
H564 H 0.84811 0.39716 0.80624 0.0
H565 H 0.81478 0.37151 0.79318 0.0
H566 H 0.82854 0.40743 0.74503 0.0
H567 H 0.86267 0.43267 0.75755 0.0
H568 H 0.78202 0.37469 0.78343 0.0
H569 H 0.81168 0.35255 0.72395 0.0
H570 H 0.82871 0.368 0.742 0.0
H571 H 0.82057 0.37921 0.72494 0.0
C572 C 0.84437 0.39944 0.79269 0.0
C573 C 0.85829 0.41692 0.78287 0.0
C574 C 0.82514 0.38483 0.78532 0.0
C575 C 0.81927 0.38738 0.76803 0.0
C576 C 0.83294 0.4049 0.75824 0.0
H577 H 0.68847 0.31563 0.73195 0.0
H578 H 0.72294 0.34339 0.7415 0.0
C579 C 0.85234 0.41947 0.76553 0.0
C580 C 0.79851 0.3719 0.76064 0.0
H581 H 0.77477 0.33878 0.72568 0.0
C582 C 0.78043 0.36683 0.7708 0.0
C583 C 0.7965 0.3615 0.74426 0.0
C584 C 0.8154 0.36542 0.73323 0.0
C585 C 0.7604 0.35155 0.76513 0.0
C586 C 0.75831 0.3415 0.74854 0.0
C587 C 0.77638 0.34664 0.73832 0.0
C588 C 0.73764 0.32501 0.74191 0.0
C589 C 0.74181 0.3459 0.77731 0.0
C590 C 0.73466 0.30566 0.73827 0.0
C591 C 0.71509 0.28985 0.73251 0.0
C592 C 0.69806 0.29308 0.73037 0.0
C593 C 0.70119 0.31258 0.7337 0.0
C594 C 0.72086 0.32844 0.73925 0.0
H595 H 0.74682 0.35086 0.79143 0.0
H596 H 0.73332 0.35353 0.77254 0.0
H597 H 0.73068 0.32923 0.7772 0.0
H598 H 0.74742 0.30268 0.74016 0.0
H599 H 0.71321 0.27502 0.73004 0.0
H600 H 0.43288 0.87396 0.91702 0.0
H601 H 0.42461 0.84093 0.90441 0.0
H602 H 0.45266 0.83024 0.95082 0.0
H603 H 0.46117 0.86316 0.96331 0.0
H604 H 0.46251 0.81776 0.91977 0.0
H605 H 0.37639 0.78807 0.92363 0.0
H606 H 0.39096 0.8103 0.90998 0.0
H607 H 0.39547 0.81186 0.93386 0.0
C608 C 0.43741 0.8646 0.92443 0.0
C609 C 0.44762 0.87114 0.94118 0.0
C610 C 0.43263 0.84573 0.91725 0.0
C611 C 0.43768 0.83296 0.92684 0.0
C612 C 0.44861 0.83983 0.94318 0.0
H613 H 0.38202 0.70523 0.93406 0.0
H614 H 0.39347 0.74128 0.93579 0.0
C615 C 0.45355 0.85871 0.95028 0.0
C616 C 0.43077 0.81201 0.92051 0.0
H617 H 0.38698 0.76551 0.91331 0.0
C618 C 0.44601 0.80635 0.91816 0.0
C619 C 0.40921 0.79714 0.91861 0.0
C620 C 0.39201 0.80202 0.92178 0.0
C621 C 0.44027 0.7861 0.91453 0.0
C622 C 0.4187 0.7712 0.9128 0.0
C623 C 0.40351 0.777 0.91454 0.0
C624 C 0.4114 0.74922 0.91102 0.0
C625 C 0.45729 0.78068 0.91352 0.0
C626 C 0.41743 0.7416 0.89636 0.0
C627 C 0.41102 0.72092 0.89541 0.0
C628 C 0.39829 0.70751 0.909 0.0
C629 C 0.39184 0.71513 0.92337 0.0
C630 C 0.39835 0.73575 0.92437 0.0
H631 H 0.47252 0.793 0.91897 0.0
H632 H 0.45266 0.76651 0.9211 0.0
H633 H 0.45979 0.77808 0.89925 0.0
H634 H 0.42713 0.75165 0.88571 0.0
H635 H 0.41612 0.71546 0.88411 0.0
H636 H 0.59665 0.47128 0.10042 0.0
H637 H 0.62379 0.46624 0.08636 0.0
H638 H 0.59989 0.40944 0.11446 0.0
H639 H 0.57323 0.41454 0.12894 0.0
H640 H 0.65443 0.46054 0.10642 0.0
H641 H 0.60483 0.39566 0.06087 0.0
H642 H 0.59625 0.41233 0.06982 0.0
H643 H 0.59548 0.39273 0.08366 0.0
C644 C 0.59715 0.45771 0.1036 0.0
C645 C 0.58265 0.44327 0.11576 0.0
C646 C 0.61258 0.45481 0.09548 0.0
C647 C 0.6136 0.43734 0.0992 0.0
C648 C 0.59905 0.42281 0.11112 0.0
H649 H 0.69293 0.38742 0.07763 0.0
H650 H 0.66523 0.3944 0.08646 0.0
C651 C 0.58376 0.42574 0.11933 0.0
C652 C 0.63067 0.43476 0.09165 0.0
H653 H 0.63992 0.40306 0.06575 0.0
C654 C 0.65136 0.44814 0.09734 0.0
C655 C 0.62649 0.41848 0.07995 0.0
C656 C 0.60459 0.40404 0.07306 0.0
C657 C 0.66796 0.44523 0.09216 0.0
C658 C 0.66375 0.42876 0.08061 0.0
C659 C 0.64309 0.41563 0.07463 0.0
C660 C 0.68048 0.42458 0.07497 0.0
C661 C 0.68966 0.45931 0.09967 0.0
C662 C 0.69809 0.43912 0.06537 0.0
C663 C 0.71403 0.43526 0.06044 0.0
C664 C 0.71252 0.41664 0.06481 0.0
C665 C 0.69462 0.40193 0.07409 0.0
C666 C 0.67876 0.40587 0.07913 0.0
H667 H 0.6891 0.46758 0.11183 0.0
H668 H 0.69767 0.45081 0.10325 0.0
H669 H 0.69929 0.47079 0.08936 0.0
H670 H 0.69949 0.45345 0.06164 0.0
H671 H 0.72748 0.44684 0.05313 0.0
H672 H 0.45665 0.88579 0.53564 0.0
H673 H 0.43366 0.85432 0.55214 0.0
H674 H 0.39361 0.82997 0.50546 0.0
H675 H 0.41625 0.86116 0.48905 0.0
H676 H 0.37111 0.82219 0.53695 0.0
H677 H 0.43311 0.80137 0.54265 0.0
H678 H 0.43926 0.82543 0.55224 0.0
H679 H 0.43607 0.82165 0.52831 0.0
C680 C 0.44288 0.87373 0.52897 0.0
C681 C 0.43826 0.87596 0.51105 0.0
C682 C 0.4298 0.85578 0.53838 0.0
C683 C 0.41209 0.83972 0.52994 0.0
C684 C 0.40716 0.84219 0.51226 0.0
H685 H 0.3446 0.71251 0.53373 0.0
H686 H 0.36912 0.74887 0.53052 0.0
C687 C 0.42009 0.86008 0.50291 0.0
C688 C 0.39893 0.8199 0.53895 0.0
H689 H 0.39929 0.77749 0.55274 0.0
C690 C 0.37727 0.81248 0.54068 0.0
C691 C 0.40707 0.80729 0.54368 0.0
C692 C 0.43011 0.81419 0.54154 0.0
C693 C 0.36334 0.79244 0.54615 0.0
C694 C 0.37141 0.77964 0.5504 0.0
C695 C 0.3932 0.78739 0.54954 0.0
C696 C 0.35737 0.75757 0.55356 0.0
C697 C 0.34002 0.7848 0.54622 0.0
C698 C 0.34287 0.75033 0.56782 0.0
C699 C 0.32862 0.72946 0.5696 0.0
C700 C 0.32885 0.71553 0.55725 0.0
C701 C 0.34396 0.72282 0.54344 0.0
C702 C 0.35804 0.74362 0.54161 0.0
H703 H 0.33621 0.79538 0.53925 0.0
H704 H 0.33115 0.76965 0.53962 0.0
H705 H 0.33446 0.78321 0.56034 0.0
H706 H 0.34237 0.76081 0.57742 0.0
H707 H 0.31727 0.72428 0.58047 0.0
H708 H 0.53964 0.4124 0.70102 0.0
H709 H 0.54536 0.38599 0.71371 0.0
H710 H 0.60795 0.41583 0.69126 0.0
H711 H 0.60239 0.44209 0.67856 0.0
H712 H 0.5535 0.36002 0.69466 0.0
H713 H 0.61882 0.40475 0.74215 0.0
H714 H 0.60297 0.41435 0.73284 0.0
H715 H 0.62448 0.41574 0.72011 0.0
C716 C 0.55469 0.41342 0.69895 0.0
C717 C 0.57061 0.42943 0.68888 0.0
C718 C 0.55795 0.39838 0.70626 0.0
C719 C 0.57721 0.39914 0.70371 0.0
C720 C 0.59319 0.41524 0.69387 0.0
H721 H 0.6322 0.32549 0.70462 0.0
H722 H 0.62222 0.35143 0.70274 0.0
C723 C 0.58997 0.43027 0.6866 0.0
C724 C 0.58015 0.38232 0.70991 0.0
H725 H 0.61449 0.37264 0.7323 0.0
C726 C 0.56657 0.36266 0.7032 0.0
C727 C 0.59719 0.3858 0.72109 0.0
C728 C 0.61156 0.40627 0.72961 0.0
C729 C 0.57031 0.34667 0.70648 0.0
C730 C 0.58797 0.35044 0.71688 0.0
C731 C 0.60102 0.36986 0.72425 0.0
C732 C 0.59416 0.33491 0.71895 0.0
C733 C 0.55602 0.32612 0.69804 0.0
C734 C 0.5818 0.31716 0.72892 0.0
C735 C 0.58749 0.30227 0.73007 0.0
C736 C 0.6056 0.30493 0.72122 0.0
C737 C 0.61811 0.32293 0.71153 0.0
C738 C 0.61248 0.3378 0.71047 0.0
H739 H 0.54479 0.32649 0.68832 0.0
H740 H 0.56543 0.32056 0.69096 0.0
H741 H 0.54682 0.31502 0.70875 0.0
H742 H 0.56771 0.31478 0.73571 0.0
H743 H 0.57757 0.28859 0.73768 0.0
H744 H 0.13153 0.52782 0.86396 0.0
H745 H 0.16319 0.53918 0.88226 0.0
H746 H 0.19694 0.59209 0.84873 0.0
H747 H 0.16571 0.58071 0.83014 0.0
H748 H 0.20158 0.54525 0.86719 0.0
H749 H 0.21261 0.61521 0.90057 0.0
H750 H 0.18764 0.59594 0.89136 0.0
H751 H 0.2079 0.61404 0.87676 0.0
C752 C 0.14565 0.54195 0.86055 0.0
C753 C 0.14606 0.55333 0.84554 0.0
C754 C 0.16365 0.54848 0.8711 0.0
C755 C 0.18228 0.56659 0.86697 0.0
C756 C 0.18257 0.57831 0.85239 0.0
H757 H 0.31389 0.62827 0.8908 0.0
H758 H 0.27792 0.6179 0.8818 0.0
C759 C 0.16465 0.57176 0.84178 0.0
C760 C 0.20205 0.5722 0.87656 0.0
H761 H 0.24223 0.61041 0.90053 0.0
C762 C 0.21035 0.55934 0.87473 0.0
C763 C 0.21346 0.59067 0.88622 0.0
C764 C 0.2049 0.60471 0.88901 0.0
C765 C 0.23022 0.56484 0.88166 0.0
C766 C 0.24184 0.58349 0.89108 0.0
C767 C 0.23328 0.59613 0.89331 0.0
C768 C 0.26334 0.59055 0.89789 0.0
C769 C 0.23898 0.55106 0.87805 0.0
C770 C 0.267 0.57891 0.91031 0.0
C771 C 0.28753 0.58466 0.91533 0.0
C772 C 0.30477 0.60234 0.90821 0.0
C773 C 0.30097 0.61452 0.89648 0.0
C774 C 0.28043 0.60865 0.89134 0.0
H775 H 0.23047 0.54011 0.86695 0.0
H776 H 0.25594 0.56001 0.87453 0.0
H777 H 0.2373 0.54217 0.89035 0.0
H778 H 0.25399 0.56515 0.91587 0.0
H779 H 0.2899 0.57508 0.92459 0.0
H780 H 0.60659 0.14861 0.00428 0.0
H781 H 0.63309 0.18081 0.01754 0.0
H782 H 0.58416 0.18827 0.04167 0.0
H783 H 0.55752 0.15549 0.02925 0.0
H784 H 0.63683 0.21612 0.00856 0.0
H785 H 0.62616 0.20683 0.08237 0.0
H786 H 0.61498 0.18546 0.067 0.0
H787 H 0.60205 0.19979 0.07083 0.0
C788 C 0.60142 0.15668 0.01293 0.0
C789 C 0.57985 0.14942 0.01563 0.0
C790 C 0.61663 0.17521 0.02039 0.0
C791 C 0.61065 0.18692 0.03071 0.0
C792 C 0.5892 0.17936 0.03406 0.0
H793 H 0.67726 0.31735 0.03674 0.0
H794 H 0.65228 0.28116 0.03215 0.0
C795 C 0.57395 0.16073 0.02671 0.0
C796 C 0.62663 0.20799 0.03602 0.0
H797 H 0.64558 0.24121 0.07152 0.0
C798 C 0.63888 0.22151 0.02237 0.0
C799 C 0.62944 0.21501 0.05405 0.0
C800 C 0.61761 0.20095 0.06943 0.0
C801 C 0.65342 0.24196 0.02613 0.0
C802 C 0.65545 0.24923 0.04399 0.0
C803 C 0.64374 0.23563 0.05779 0.0
C804 C 0.66949 0.27103 0.04838 0.0
C805 C 0.66654 0.25559 0.01093 0.0
C806 C 0.68698 0.27728 0.05966 0.0
C807 C 0.70126 0.29801 0.06242 0.0
C808 C 0.69821 0.31276 0.05395 0.0
C809 C 0.68017 0.30638 0.04331 0.0
C810 C 0.66591 0.28571 0.04062 0.0
H811 H 0.66729 0.24669 -0.00064 0.0
H812 H 0.65936 0.26444 0.0061 0.0
H813 H 0.68283 0.26648 0.01547 0.0
H814 H 0.68994 0.26615 0.06584 0.0
H815 H 0.71497 0.30245 0.07075 0.0
H816 H 0.47006 0.60066 0.20045 0.0
H817 H 0.46302 0.62588 0.21438 0.0
H818 H 0.41496 0.61222 0.17476 0.0
H819 H 0.42219 0.58765 0.1605 0.0
H820 H 0.46455 0.66075 0.19606 0.0
H821 H 0.3859 0.60722 0.22435 0.0
H822 H 0.40471 0.5996 0.21844 0.0
H823 H 0.38902 0.60209 0.20127 0.0
C824 C 0.45802 0.60306 0.19469 0.0
C825 C 0.44653 0.59191 0.17946 0.0
C826 C 0.45396 0.61738 0.20273 0.0
C827 C 0.43822 0.6206 0.19577 0.0
C828 C 0.42683 0.60959 0.18058 0.0
H829 H 0.3826 0.69278 0.1967 0.0
H830 H 0.39377 0.66779 0.19424 0.0
C831 C 0.43095 0.59546 0.17249 0.0
C832 C 0.43406 0.63606 0.20365 0.0
H833 H 0.39423 0.64169 0.22049 0.0
C834 C 0.44936 0.65667 0.20178 0.0
C835 C 0.41424 0.63059 0.2111 0.0
C836 C 0.39757 0.60866 0.21409 0.0
C837 C 0.44483 0.67201 0.20603 0.0
C838 C 0.42458 0.66648 0.21259 0.0
C839 C 0.40971 0.64588 0.21539 0.0
C840 C 0.41774 0.68157 0.21485 0.0
C841 C 0.46125 0.69389 0.20242 0.0
C842 C 0.42736 0.69751 0.22743 0.0
C843 C 0.42102 0.71193 0.22885 0.0
C844 C 0.40491 0.71055 0.21774 0.0
C845 C 0.39508 0.69432 0.20543 0.0
C846 C 0.40142 0.67999 0.20402 0.0
H847 H 0.47468 0.69526 0.19446 0.0
H848 H 0.45424 0.70165 0.19504 0.0
H849 H 0.46746 0.70197 0.21541 0.0
H850 H 0.43976 0.6988 0.23612 0.0
H851 H 0.42882 0.72421 0.23852 0.0
H852 H 0.86586 0.49491 0.35768 0.0
H853 H 0.83181 0.48097 0.37276 0.0
H854 H 0.81286 0.42156 0.3511 0.0
H855 H 0.84698 0.43544 0.33597 0.0
H856 H 0.79459 0.46341 0.35262 0.0
H857 H 0.79242 0.40947 0.40378 0.0
H858 H 0.8167 0.42921 0.39404 0.0
H859 H 0.79995 0.40648 0.38144 0.0
C860 C 0.85456 0.47881 0.35639 0.0
C861 C 0.85899 0.46628 0.34556 0.0
C862 C 0.83517 0.47086 0.36505 0.0
C863 C 0.81987 0.45023 0.3631 0.0
C864 C 0.82459 0.43744 0.35303 0.0
H865 H 0.68596 0.38469 0.38945 0.0
H866 H 0.72131 0.39367 0.37936 0.0
C867 C 0.84408 0.44539 0.34439 0.0
C868 C 0.79828 0.44283 0.36984 0.0
H869 H 0.76073 0.40971 0.39899 0.0
C870 C 0.78722 0.45172 0.36281 0.0
C871 C 0.78865 0.42739 0.38294 0.0
C872 C 0.80004 0.41764 0.39113 0.0
C873 C 0.76678 0.44568 0.36857 0.0
C874 C 0.75729 0.43057 0.38196 0.0
C875 C 0.76814 0.42136 0.38878 0.0
C876 C 0.73625 0.42462 0.38924 0.0
C877 C 0.75542 0.45537 0.36013 0.0
C878 C 0.73313 0.43894 0.39847 0.0
C879 C 0.71303 0.43394 0.40418 0.0
C880 C 0.69565 0.41444 0.40085 0.0
C881 C 0.69898 0.39988 0.39214 0.0
C882 C 0.71915 0.40494 0.38641 0.0
H883 H 0.76257 0.46265 0.34706 0.0
H884 H 0.73854 0.44397 0.35789 0.0
H885 H 0.75634 0.46732 0.36931 0.0
H886 H 0.74623 0.45412 0.40103 0.0
H887 H 0.7111 0.44547 0.41099 0.0
H888 H 0.10779 0.60059 0.41145 0.0
H889 H 0.1319 0.61047 0.43708 0.0
H890 H 0.16447 0.58368 0.41111 0.0
H891 H 0.14116 0.57459 0.38514 0.0
H892 H 0.1414 0.5879 0.46038 0.0
H893 H 0.21164 0.64173 0.42081 0.0
H894 H 0.18517 0.63114 0.41236 0.0
H895 H 0.19799 0.61643 0.41165 0.0
C896 C 0.12015 0.59689 0.41116 0.0
C897 C 0.12264 0.58696 0.39615 0.0
C898 C 0.13381 0.60242 0.42585 0.0
C899 C 0.15021 0.59817 0.4258 0.0
C900 C 0.15218 0.58749 0.41123 0.0
H901 H 0.25063 0.61926 0.49846 0.0
H902 H 0.22495 0.60862 0.47399 0.0
C903 C 0.13862 0.58204 0.3965 0.0
C904 C 0.1655 0.60519 0.44083 0.0
H905 H 0.21786 0.63457 0.4505 0.0
C906 C 0.1581 0.59819 0.45827 0.0
C907 C 0.18726 0.6187 0.43799 0.0
C908 C 0.196 0.62761 0.41973 0.0
C909 C 0.17199 0.60395 0.47292 0.0
C910 C 0.19376 0.61721 0.47001 0.0
C911 C 0.20114 0.62433 0.45262 0.0
C912 C 0.20922 0.62377 0.48483 0.0
C913 C 0.16338 0.59549 0.49132 0.0
C914 C 0.20903 0.63608 0.49883 0.0
C915 C 0.22372 0.64226 0.51279 0.0
C916 C 0.23884 0.63622 0.51294 0.0
C917 C 0.23915 0.62412 0.49874 0.0
C918 C 0.22451 0.61802 0.48477 0.0
H919 H 0.14707 0.58228 0.4906 0.0
H920 H 0.17352 0.59073 0.4982 0.0
H921 H 0.16315 0.60748 0.49967 0.0
H922 H 0.19756 0.64095 0.49892 0.0
H923 H 0.22312 0.65163 0.52351 0.0
H924 H 0.58163 0.11199 0.56612 0.0
H925 H 0.58303 0.13038 0.5936 0.0
H926 H 0.53349 0.13914 0.57324 0.0
H927 H 0.53238 0.12119 0.54546 0.0
H928 H 0.56844 0.17471 0.58423 0.0
H929 H 0.54432 0.11624 0.63716 0.0
H930 H 0.56466 0.11758 0.62289 0.0
H931 H 0.53919 0.10988 0.61354 0.0
C932 C 0.57088 0.11764 0.56757 0.0
C933 C 0.55696 0.11522 0.5536 0.0
C934 C 0.57152 0.12794 0.58337 0.0
C935 C 0.55818 0.1359 0.58555 0.0
C936 C 0.54379 0.13295 0.57187 0.0
H937 H 0.56396 0.20169 0.68496 0.0
H938 H 0.55003 0.17819 0.65926 0.0
C939 C 0.5431 0.1226 0.55606 0.0
C940 C 0.5609 0.14909 0.60121 0.0
H941 H 0.56379 0.15116 0.6471 0.0
C942 C 0.56708 0.16948 0.59799 0.0
C943 C 0.5589 0.1422 0.61914 0.0
C944 C 0.55119 0.12022 0.62342 0.0
C945 C 0.5724 0.18341 0.6122 0.0
C946 C 0.57176 0.17681 0.63005 0.0
C947 C 0.56449 0.15621 0.63336 0.0
C948 C 0.57987 0.19132 0.64531 0.0
C949 C 0.57901 0.20517 0.60798 0.0
C950 C 0.60125 0.20633 0.64598 0.0
C951 C 0.60925 0.21969 0.6606 0.0
C952 C 0.596 0.21824 0.67486 0.0
C953 C 0.57454 0.20322 0.67414 0.0
C954 C 0.56656 0.18978 0.65951 0.0
H955 H 0.57306 0.20647 0.59462 0.0
H956 H 0.57324 0.21165 0.61841 0.0
H957 H 0.59646 0.21444 0.60769 0.0
H958 H 0.61183 0.20753 0.63528 0.0
H959 H 0.62586 0.23104 0.66078 0.0
H960 H 0.42605 0.56387 0.72496 0.0
H961 H 0.41079 0.57043 0.75161 0.0
H962 H 0.46263 0.57724 0.78377 0.0
H963 H 0.4781 0.57088 0.75711 0.0
H964 H 0.39785 0.55164 0.78436 0.0
H965 H 0.46434 0.63067 0.79271 0.0
H966 H 0.46095 0.61576 0.77273 0.0
H967 H 0.47235 0.61205 0.79269 0.0
C968 C 0.43404 0.56648 0.73776 0.0
C969 C 0.45334 0.56699 0.73894 0.0
C970 C 0.42536 0.57032 0.75295 0.0
C971 C 0.4358 0.57473 0.76957 0.0
C972 C 0.4546 0.57439 0.77096 0.0
H973 H 0.38657 0.57692 0.87475 0.0
H974 H 0.39792 0.56792 0.84711 0.0
C975 C 0.46337 0.57069 0.75576 0.0
C976 C 0.42722 0.5801 0.78535 0.0
H977 H 0.43929 0.61753 0.81645 0.0
C978 C 0.40686 0.56607 0.79135 0.0
C979 C 0.43885 0.59911 0.7942 0.0
C980 C 0.46024 0.61536 0.78767 0.0
C981 C 0.39799 0.57034 0.80627 0.0
C982 C 0.41001 0.58897 0.81563 0.0
C983 C 0.43018 0.60318 0.80936 0.0
C984 C 0.40217 0.59398 0.83212 0.0
C985 C 0.37574 0.55499 0.8117 0.0
C986 C 0.40122 0.61188 0.83303 0.0
C987 C 0.39498 0.61723 0.84892 0.0
C988 C 0.38962 0.60479 0.86422 0.0
C989 C 0.39044 0.58679 0.8632 0.0
C990 C 0.39679 0.58153 0.84735 0.0
H991 H 0.36672 0.54483 0.80028 0.0
H992 H 0.37613 0.54535 0.82264 0.0
H993 H 0.36724 0.56259 0.81671 0.0
H994 H 0.40543 0.62177 0.82145 0.0
H995 H 0.39452 0.63119 0.84923 0.0
H996 H 0.89562 0.42513 0.88703 0.0
H997 H 0.87448 0.41059 0.91412 0.0
H998 H 0.88427 0.46946 0.92899 0.0
H999 H 0.90604 0.48434 0.90214 0.0
H1000 H 0.88632 0.4457 0.95845 0.0
H1001 H 0.81469 0.40318 0.91595 0.0
H1002 H 0.8361 0.39917 0.9106 0.0
H1003 H 0.83911 0.4238 0.90732 0.0
C1004 C 0.89376 0.43513 0.89627 0.0
C1005 C 0.90242 0.4559 0.89237 0.0
C1006 C 0.88149 0.42673 0.91165 0.0
C1007 C 0.87757 0.43891 0.92334 0.0
C1008 C 0.88705 0.45982 0.92003 0.0
H1009 H 0.77659 0.40952 0.99672 0.0
H1010 H 0.8025 0.42152 0.97244 0.0
C1011 C 0.89935 0.46825 0.90464 0.0
C1012 C 0.86248 0.42964 0.93833 0.0
H1013 H 0.81031 0.39794 0.94727 0.0
C1014 C 0.86971 0.43517 0.95607 0.0
C1015 C 0.84082 0.41609 0.93507 0.0
C1016 C 0.83209 0.41028 0.91622 0.0
C1017 C 0.85577 0.42749 0.97071 0.0
C1018 C 0.83414 0.41387 0.96742 0.0
C1019 C 0.82695 0.40828 0.94969 0.0
C1020 C 0.81844 0.40619 0.98211 0.0
C1021 C 0.86413 0.43447 0.9895 0.0
C1022 C 0.81866 0.39331 0.9954 0.0
C1023 C 0.80382 0.38637 0.0093 0.0
C1024 C 0.78854 0.39219 0.01008 0.0
C1025 C 0.78818 0.40479 0.99652 0.0
C1026 C 0.80297 0.41167 0.98265 0.0
H1027 H 0.88035 0.44786 0.98944 0.0
H1028 H 0.85375 0.43845 0.99716 0.0
H1029 H 0.86444 0.42194 0.99671 0.0
H1030 H 0.83029 0.38866 0.99501 0.0
H1031 H 0.80445 0.37663 0.01952 0.0
H1032 H 0.48212 0.9 0.04768 0.0
H1033 H 0.48022 0.88115 0.07489 0.0
H1034 H 0.42693 0.88514 0.09331 0.0
H1035 H 0.42912 0.90452 0.06648 0.0
H1036 H 0.45602 0.8908 0.12089 0.0
H1037 H 0.43255 0.82143 0.07953 0.0
H1038 H 0.45709 0.84365 0.07363 0.0
H1039 H 0.43287 0.84352 0.07061 0.0
C1040 C 0.47029 0.89725 0.05772 0.0
C1041 C 0.4556 0.90354 0.05484 0.0
C1042 C 0.46912 0.88633 0.07316 0.0
C1043 C 0.45321 0.88147 0.08592 0.0
C1044 C 0.43925 0.88865 0.08355 0.0
H1045 H 0.38533 0.78528 0.15898 0.0
H1046 H 0.39975 0.80991 0.13456 0.0
C1047 C 0.44041 0.89957 0.06816 0.0
C1048 C 0.45002 0.86775 0.10112 0.0
H1049 H 0.43351 0.81822 0.11087 0.0
C1050 C 0.45136 0.87498 0.11876 0.0
C1051 C 0.44374 0.8471 0.0982 0.0
C1052 C 0.44129 0.83833 0.07949 0.0
C1053 C 0.44606 0.86195 0.1336 0.0
C1054 C 0.43947 0.84124 0.13064 0.0
C1055 C 0.43871 0.83416 0.11304 0.0
C1056 C 0.43133 0.82624 0.14541 0.0
C1057 C 0.44658 0.87017 0.15223 0.0
C1058 C 0.44443 0.82713 0.15949 0.0
C1059 C 0.43622 0.81302 0.17352 0.0
C1060 C 0.4148 0.79782 0.17363 0.0
C1061 C 0.40188 0.79681 0.15932 0.0
C1062 C 0.41008 0.81086 0.14534 0.0
H1063 H 0.4487 0.88565 0.1519 0.0
H1064 H 0.43182 0.85992 0.1596 0.0
H1065 H 0.45987 0.87096 0.15991 0.0
H1066 H 0.46095 0.83872 0.15963 0.0
H1067 H 0.44657 0.81413 0.18434 0.0
H1068 H 0.56288 0.47165 0.24181 0.0
H1069 H 0.57471 0.4643 0.2701 0.0
H1070 H 0.54538 0.40107 0.25495 0.0
H1071 H 0.53385 0.40832 0.22653 0.0
H1072 H 0.54939 0.43511 0.29777 0.0
H1073 H 0.60776 0.41887 0.26615 0.0
H1074 H 0.59708 0.4324 0.25461 0.0
H1075 H 0.58168 0.40524 0.2568 0.0
C1076 C 0.55902 0.4562 0.24449 0.0
C1077 C 0.54749 0.44057 0.23193 0.0
C1078 C 0.56569 0.45202 0.26066 0.0
C1079 C 0.56113 0.43221 0.26444 0.0
C1080 C 0.54927 0.41651 0.25213 0.0
H1081 H 0.59274 0.37709 0.35137 0.0
H1082 H 0.57965 0.38415 0.32374 0.0
C1083 C 0.54252 0.42064 0.23601 0.0
C1084 C 0.56881 0.42795 0.28127 0.0
H1085 H 0.60175 0.41255 0.29738 0.0
C1086 C 0.56089 0.43024 0.29774 0.0
C1087 C 0.58375 0.42156 0.28109 0.0
C1088 C 0.59324 0.4195 0.26375 0.0
C1089 C 0.56727 0.42596 0.3141 0.0
C1090 C 0.5823 0.41964 0.31394 0.0
C1091 C 0.59021 0.41737 0.29744 0.0
C1092 C 0.59013 0.41543 0.33075 0.0
C1093 C 0.5575 0.42778 0.33137 0.0
C1094 C 0.60062 0.43077 0.3437 0.0
C1095 C 0.60804 0.42678 0.35952 0.0
C1096 C 0.6053 0.40741 0.36261 0.0
C1097 C 0.59508 0.39216 0.34945 0.0
C1098 C 0.58759 0.39616 0.33365 0.0
H1099 H 0.54236 0.42722 0.32886 0.0
H1100 H 0.55462 0.41546 0.34088 0.0
H1101 H 0.56839 0.44258 0.3379 0.0
H1102 H 0.6032 0.44588 0.34152 0.0
H1103 H 0.616 0.43893 0.36929 0.0
H1104 H 0.46202 0.87086 0.40297 0.0
H1105 H 0.44781 0.85179 0.37506 0.0
H1106 H 0.44655 0.90286 0.35192 0.0
H1107 H 0.46181 0.92249 0.37954 0.0
H1108 H 0.41071 0.84032 0.35828 0.0
H1109 H 0.47753 0.89037 0.31357 0.0
H1110 H 0.47932 0.89253 0.33778 0.0
H1111 H 0.46638 0.90325 0.32538 0.0
C1112 C 0.45912 0.87822 0.39185 0.0
C1113 C 0.46334 0.89834 0.39344 0.0
C1114 C 0.45078 0.8672 0.37595 0.0
C1115 C 0.44644 0.876 0.3613 0.0
C1116 C 0.45022 0.89592 0.36292 0.0
H1117 H 0.39334 0.82864 0.25555 0.0
H1118 H 0.40585 0.8486 0.28332 0.0
C1119 C 0.4587 0.90703 0.37881 0.0
C1120 C 0.43768 0.86411 0.34449 0.0
H1121 H 0.44721 0.86358 0.29952 0.0
C1122 C 0.41871 0.84539 0.34544 0.0
C1123 C 0.44816 0.87075 0.32775 0.0
C1124 C 0.46907 0.89023 0.32602 0.0
C1125 C 0.40989 0.83318 0.33008 0.0
C1126 C 0.42041 0.83982 0.3134 0.0
C1127 C 0.43922 0.8586 0.31237 0.0
C1128 C 0.41229 0.82734 0.29686 0.0
C1129 C 0.3893 0.81338 0.33173 0.0
C1130 C 0.41192 0.80884 0.29529 0.0
C1131 C 0.40487 0.79741 0.27941 0.0
C1132 C 0.39806 0.80429 0.26482 0.0
C1133 C 0.3984 0.82283 0.26652 0.0
C1134 C 0.40556 0.8343 0.28236 0.0
H1135 H 0.38105 0.81253 0.34452 0.0
H1136 H 0.37875 0.81132 0.32027 0.0
H1137 H 0.39239 0.80058 0.33144 0.0
H1138 H 0.41733 0.80339 0.30628 0.0
H1139 H 0.40486 0.78323 0.27855 0.0
H1140 H 0.52646 0.42117 0.58245 0.0
H1141 H 0.52698 0.40371 0.55487 0.0
H1142 H 0.57776 0.46015 0.53421 0.0
H1143 H 0.57688 0.47783 0.56143 0.0
H1144 H 0.54778 0.43553 0.50781 0.0
H1145 H 0.57588 0.39283 0.54843 0.0
H1146 H 0.55117 0.39017 0.55513 0.0
H1147 H 0.57495 0.41439 0.55734 0.0
C1148 C 0.53737 0.42996 0.57184 0.0
C1149 C 0.55184 0.45084 0.57422 0.0
C1150 C 0.53777 0.41992 0.55617 0.0
C1151 C 0.55269 0.43058 0.54269 0.0
C1152 C 0.56622 0.45163 0.54452 0.0
H1153 H 0.62115 0.40319 0.468 0.0
H1154 H 0.60643 0.41324 0.49272 0.0
C1155 C 0.56581 0.46168 0.56014 0.0
C1156 C 0.55561 0.41975 0.5274 0.0
H1157 H 0.57395 0.38786 0.51716 0.0
C1158 C 0.55321 0.42487 0.5098 0.0
C1159 C 0.56292 0.40604 0.53012 0.0
C1160 C 0.56657 0.40058 0.54874 0.0
C1161 C 0.5585 0.41706 0.49482 0.0
C1162 C 0.56618 0.40367 0.49759 0.0
C1163 C 0.56794 0.39805 0.51515 0.0
C1164 C 0.57451 0.39694 0.48263 0.0
C1165 C 0.55683 0.42395 0.47621 0.0
C1166 C 0.56132 0.38419 0.46888 0.0
C1167 C 0.56968 0.37836 0.45468 0.0
C1168 C 0.59135 0.38521 0.45407 0.0
C1169 C 0.60438 0.39768 0.46806 0.0
C1170 C 0.59603 0.40344 0.48221 0.0
H1171 H 0.55379 0.43678 0.47659 0.0
H1172 H 0.57152 0.42872 0.46848 0.0
H1173 H 0.5437 0.41109 0.46885 0.0
H1174 H 0.54459 0.37877 0.46914 0.0
H1175 H 0.55925 0.36871 0.44414 0.0
H1176 H 0.11006 0.53502 0.70928 0.0
H1177 H 0.13241 0.5515 0.68311 0.0
H1178 H 0.16185 0.60909 0.71113 0.0
H1179 H 0.13982 0.5926 0.73757 0.0
H1180 H 0.13837 0.58578 0.66205 0.0
H1181 H 0.21108 0.59975 0.69749 0.0
H1182 H 0.18506 0.58222 0.70593 0.0
H1183 H 0.19576 0.60913 0.70824 0.0
C1184 C 0.12126 0.5512 0.70985 0.0
C1185 C 0.12335 0.56248 0.72553 0.0
C1186 C 0.13391 0.56061 0.69488 0.0
C1187 C 0.14894 0.58142 0.69533 0.0
C1188 C 0.15051 0.59294 0.71065 0.0
H1189 H 0.24819 0.6464 0.61485 0.0
H1190 H 0.22551 0.63925 0.64124 0.0
C1191 C 0.13779 0.58354 0.72565 0.0
C1192 C 0.16346 0.59069 0.67995 0.0
H1193 H 0.21441 0.60905 0.66704 0.0
C1194 C 0.15504 0.59106 0.66314 0.0
C1195 C 0.18519 0.59763 0.6815 0.0
C1196 C 0.1949 0.5971 0.6992 0.0
C1197 C 0.16774 0.59781 0.64771 0.0
C1198 C 0.18928 0.60392 0.64911 0.0
C1199 C 0.19787 0.60431 0.66604 0.0
C1200 C 0.2028 0.60852 0.63301 0.0
C1201 C 0.15793 0.59818 0.63002 0.0
C1202 C 0.19772 0.59348 0.61986 0.0
C1203 C 0.2106 0.59746 0.60484 0.0
C1204 C 0.22895 0.61656 0.60271 0.0
C1205 C 0.23416 0.63154 0.61605 0.0
C1206 C 0.22122 0.62752 0.63111 0.0
H1207 H 0.1436 0.59926 0.6321 0.0
H1208 H 0.16922 0.61116 0.62158 0.0
H1209 H 0.15321 0.58388 0.62253 0.0
H1210 H 0.18386 0.57854 0.62131 0.0
H1211 H 0.20615 0.58552 0.5949 0.0
H1212 H 0.52692 0.09693 0.88253 0.0
H1213 H 0.53924 0.11499 0.8539 0.0
H1214 H 0.59445 0.16265 0.88042 0.0
H1215 H 0.58236 0.14455 0.90898 0.0
H1216 H 0.54611 0.15224 0.84544 0.0
H1217 H 0.62009 0.15088 0.83729 0.0
H1218 H 0.60021 0.13527 0.85352 0.0
H1219 H 0.61864 0.1616 0.85842 0.0
C1220 C 0.54175 0.11119 0.8822 0.0
C1221 C 0.55374 0.11928 0.89795 0.0
C1222 C 0.54878 0.12147 0.86585 0.0
C1223 C 0.56791 0.14002 0.86497 0.0
C1224 C 0.57992 0.14811 0.88068 0.0
H1225 H 0.60365 0.23122 0.78137 0.0
H1226 H 0.59169 0.21148 0.80917 0.0
C1227 C 0.57299 0.13776 0.897 0.0
C1228 C 0.57475 0.15139 0.8478 0.0
H1229 H 0.61551 0.17317 0.81794 0.0
C1230 C 0.56123 0.15672 0.83936 0.0
C1231 C 0.59439 0.15702 0.83979 0.0
C1232 C 0.60908 0.15073 0.84762 0.0
C1233 C 0.56692 0.16778 0.82325 0.0
C1234 C 0.5869 0.17411 0.81562 0.0
C1235 C 0.60029 0.16851 0.82392 0.0
C1236 C 0.59408 0.18615 0.79882 0.0
C1237 C 0.5513 0.17224 0.81441 0.0
C1238 C 0.59992 0.17873 0.78395 0.0
C1239 C 0.60702 0.19007 0.76815 0.0
C1240 C 0.60841 0.2091 0.76688 0.0
C1241 C 0.60259 0.21655 0.78184 0.0
C1242 C 0.59564 0.20523 0.79771 0.0
H1243 H 0.53497 0.16163 0.81902 0.0
H1244 H 0.55523 0.18791 0.81799 0.0
H1245 H 0.55182 0.17116 0.79952 0.0
H1246 H 0.59891 0.16407 0.78453 0.0
H1247 H 0.61136 0.18386 0.7569 0.0
H1248 H 0.47368 0.60145 0.07866 0.0
H1249 H 0.46761 0.6151 0.05117 0.0
H1250 H 0.46201 0.56413 0.02096 0.0
H1251 H 0.46752 0.55007 0.04865 0.0
H1252 H 0.48552 0.62667 0.01815 0.0
H1253 H 0.40531 0.55862 0.01266 0.0
H1254 H 0.42175 0.56347 0.03213 0.0
H1255 H 0.4263 0.55321 0.01189 0.0
C1256 C 0.47158 0.59335 0.0661 0.0
C1257 C 0.47086 0.5746 0.06579 0.0
C1258 C 0.46808 0.60115 0.0504 0.0
C1259 C 0.46391 0.59041 0.0341 0.0
C1260 C 0.46465 0.57239 0.0335 0.0
H1261 H 0.44233 0.64035 0.93502 0.0
H1262 H 0.45866 0.62922 0.95741 0.0
C1263 C 0.46787 0.56442 0.04927 0.0
C1264 C 0.45712 0.59735 0.01825 0.0
H1265 H 0.41503 0.58381 0.9907 0.0
C1266 C 0.47018 0.61728 0.01202 0.0
C1267 C 0.43696 0.58512 0.01047 0.0
C1268 C 0.42166 0.56399 0.0172 0.0
C1269 C 0.46343 0.6255 -0.00149 0.0
C1270 C 0.44327 0.61325 0.99079 0.0
C1271 C 0.43049 0.59315 0.99665 0.0
C1272 C 0.43435 0.6212 0.97746 0.0
C1273 C 0.47755 0.64743 0.99323 0.0
C1274 C 0.41518 0.6202 0.98122 0.0
C1275 C 0.40568 0.6262 0.96839 0.0
C1276 C 0.41522 0.63345 0.95158 0.0
C1277 C 0.43469 0.63496 0.94795 0.0
C1278 C 0.4441 0.6287 0.96075 0.0
H1279 H 0.49005 0.656 0.0034 0.0
H1280 H 0.48532 0.64808 0.98023 0.0
H1281 H 0.46833 0.65515 0.99146 0.0
H1282 H 0.40739 0.61448 0.99405 0.0
H1283 H 0.39072 0.62492 0.97159 0.0
H1284 H 0.87221 0.4337 0.2416 0.0
H1285 H 0.85249 0.41824 0.21396 0.0
H1286 H 0.89753 0.47061 0.1838 0.0
H1287 H 0.91783 0.4858 0.21124 0.0
H1288 H 0.834 0.43455 0.19409 0.0
H1289 H 0.88969 0.42451 0.15132 0.0
H1290 H 0.89349 0.42915 0.17526 0.0
H1291 H 0.90094 0.44992 0.15996 0.0
C1292 C 0.87829 0.44167 0.22901 0.0
C1293 C 0.89661 0.46101 0.22863 0.0
C1294 C 0.86691 0.43286 0.21324 0.0
C1295 C 0.87365 0.44317 0.1968 0.0
C1296 C 0.89226 0.46218 0.19627 0.0
H1297 H 0.823 0.4404 0.09299 0.0
H1298 H 0.84371 0.44718 0.12043 0.0
C1299 C 0.9037 0.47098 0.21201 0.0
C1300 C 0.86016 0.43506 0.1806 0.0
H1301 H 0.86049 0.42361 0.13614 0.0
C1302 C 0.83966 0.43184 0.18149 0.0
C1303 C 0.86761 0.43158 0.16418 0.0
C1304 C 0.88907 0.43377 0.16263 0.0
C1305 C 0.82671 0.42604 0.16621 0.0
C1306 C 0.83441 0.42317 0.14968 0.0
C1307 C 0.85469 0.42588 0.14886 0.0
C1308 C 0.82203 0.41845 0.1329 0.0
C1309 C 0.80523 0.42384 0.16768 0.0
C1310 C 0.80309 0.39993 0.13079 0.0
C1311 C 0.79115 0.39598 0.1151 0.0
C1312 C 0.798 0.4105 0.10127 0.0
C1313 C 0.81718 0.42891 0.10338 0.0
C1314 C 0.8291 0.4328 0.11903 0.0
H1315 H 0.80324 0.43022 0.18052 0.0
H1316 H 0.80247 0.43157 0.1563 0.0
H1317 H 0.793 0.40747 0.16708 0.0
H1318 H 0.79753 0.38857 0.14129 0.0
H1319 H 0.77652 0.38161 0.11387 0.0
loop_
_geom_bond_atom_site_label_1
_geom_bond_atom_site_label_2
_geom_bond_distance
_geom_bond_site_symmetry_2
_ccdc_geom_bond_type
H0 C27 0.929 . S
N1 C26 1.433 . S
N1 C32 1.435 . S
N1 C38 1.423 . S
H2 C28 0.930 . S
H3 C31 0.931 . S
H4 C30 0.929 . S
H5 C33 0.930 . S
H6 C34 0.932 . S
H7 C37 0.929 . S
H8 C36 0.931 . S
H9 C39 0.929 . S
H10 C43 0.932 . S
H11 C40 0.931 . S
H12 C42 0.929 . S
H13 C45 0.929 . S
H14 C46 0.930 . S
H15 C48 0.929 . S
H16 C49 0.931 . S
H17 C51 0.930 . S
H18 C52 0.932 . S
H19 C54 0.931 . S
H20 C55 0.929 . S
H21 C57 0.929 . S
H22 C58 0.914 1_455 S
H23 C60 0.929 . S
N24 C44 1.433 . S
N24 C50 1.435 . S
N24 C56 1.423 . S
H25 C61 0.932 . S
C26 N1 1.433 . S
C26 C27 1.363 . S
C26 C31 1.370 . S
C27 H0 0.929 . S
C27 C26 1.363 . S
C27 C28 1.385 . S
C28 H2 0.930 . S
C28 C27 1.385 . S
C28 C29 1.357 . S
C29 C28 1.357 . S
C29 C30 1.406 . S
C30 H4 0.929 . S
C30 C29 1.406 . S
C30 C31 1.391 . S
C31 H3 0.931 . S
C31 C26 1.370 . S
C31 C30 1.391 . S
C32 N1 1.435 . S
C32 C33 1.358 . S
C32 C37 1.371 . S
C33 H5 0.930 . S
C33 C32 1.358 . S
C33 C34 1.405 . S
C34 H6 0.932 . S
C34 C33 1.405 . S
C34 C35 1.383 . S
C35 C34 1.383 . S
C35 C36 1.393 . S
C36 H8 0.931 . S
C36 C35 1.393 . S
C36 C37 1.382 . S
C37 H7 0.929 . S
C37 C32 1.371 . S
C37 C36 1.382 . S
C38 N1 1.423 . S
C38 C39 1.362 . S
C38 C43 1.388 . S
C39 H9 0.929 . S
C39 C38 1.362 . S
C39 C40 1.376 . S
C40 H11 0.931 . S
C40 C39 1.376 . S
C40 C41 1.396 . S
C41 C40 1.396 . S
C41 C42 1.348 . S
C41 C59 1.472 1_455 S
C42 H12 0.929 . S
C42 C41 1.348 . S
C42 C43 1.443 . S
C43 H10 0.932 . S
C43 C38 1.388 . S
C43 C42 1.443 . S
C44 N24 1.433 . S
C44 C45 1.363 . S
C44 C49 1.370 . S
C45 H13 0.929 . S
C45 C44 1.363 . S
C45 C46 1.385 . S
C46 H14 0.930 . S
C46 C45 1.385 . S
C46 C47 1.357 . S
C47 C46 1.357 . S
C47 C48 1.406 . S
C48 H15 0.929 . S
C48 C47 1.406 . S
C48 C49 1.391 . S
C49 H16 0.931 . S
C49 C44 1.370 . S
C49 C48 1.391 . S
C50 N24 1.435 . S
C50 C51 1.358 . S
C50 C55 1.371 . S
C51 H17 0.930 . S
C51 C50 1.358 . S
C51 C52 1.405 . S
C52 H18 0.932 . S
C52 C51 1.405 . S
C52 C53 1.383 . S
C53 C52 1.383 . S
C53 C54 1.393 . S
C54 H19 0.931 . S
C54 C53 1.393 . S
C54 C55 1.382 . S
C55 H20 0.929 . S
C55 C50 1.371 . S
C55 C54 1.382 . S
C56 N24 1.423 . S
C56 C57 1.362 . S
C56 C61 1.388 . S
C57 H21 0.929 . S
C57 C56 1.362 . S
C57 C58 1.376 . S
C58 H22 0.914 1_655 S
C58 C57 1.376 . S
C58 C59 1.396 . S
C59 C41 1.472 1_655 S
C59 C58 1.396 . S
C59 C60 1.348 . S
C60 H23 0.929 . S
C60 C59 1.348 . S
C60 C61 1.443 . S
C61 H25 0.932 . S
C61 C56 1.388 . S
C61 C60 1.443 . S
H62 C89 0.929 . S
N63 C88 1.433 . S
N63 C94 1.435 . S
N63 C100 1.423 . S
H64 C90 0.930 . S
H65 C93 0.931 . S
H66 C92 0.929 . S
H67 C95 0.930 . S
H68 C96 0.932 . S
H69 C99 0.929 . S
H70 C98 0.931 . S
H71 C101 0.929 . S
H72 C105 0.932 . S
H73 C102 0.931 . S
H74 C104 0.927 1_545 S
H75 C107 0.929 . S
H76 C108 0.930 . S
H77 C110 0.929 . S
H78 C111 0.931 . S
H79 C113 0.930 . S
H80 C114 0.932 . S
H81 C116 0.931 . S
H82 C117 0.929 . S
H83 C119 0.929 . S
H84 C120 0.931 . S
H85 C122 0.929 . S
N86 C106 1.433 . S
N86 C112 1.435 . S
N86 C118 1.423 . S
H87 C123 0.932 . S
C88 N63 1.433 . S
C88 C89 1.363 . S
C88 C93 1.370 . S
C89 H62 0.929 . S
C89 C88 1.363 . S
C89 C90 1.385 . S
C90 H64 0.930 . S
C90 C89 1.385 . S
C90 C91 1.357 . S
C91 C90 1.357 . S
C91 C92 1.406 . S
C92 H66 0.929 . S
C92 C91 1.406 . S
C92 C93 1.391 . S
C93 H65 0.931 . S
C93 C88 1.370 . S
C93 C92 1.391 . S
C94 N63 1.435 . S
C94 C95 1.358 . S
C94 C99 1.371 . S
C95 H67 0.930 . S
C95 C94 1.358 . S
C95 C96 1.405 . S
C96 H68 0.932 . S
C96 C95 1.405 . S
C96 C97 1.383 . S
C97 C96 1.383 . S
C97 C98 1.393 . S
C98 H70 0.931 . S
C98 C97 1.393 . S
C98 C99 1.382 . S
C99 H69 0.929 . S
C99 C94 1.371 . S
C99 C98 1.382 . S
C100 N63 1.423 . S
C100 C101 1.362 . S
C100 C105 1.388 . S
C101 H71 0.929 . S
C101 C100 1.362 . S
C101 C102 1.376 . S
C102 H73 0.931 . S
C102 C101 1.376 . S
C102 C103 1.396 1_565 S
C103 C102 1.396 1_545 S
C103 C104 1.348 1_545 S
C103 C121 1.472 . S
C104 H74 0.927 1_565 S
C104 C103 1.348 1_565 S
C104 C105 1.445 . S
C105 H72 0.932 . S
C105 C100 1.388 . S
C105 C104 1.445 . S
C106 N86 1.433 . S
C106 C107 1.363 . S
C106 C111 1.370 . S
C107 H75 0.929 . S
C107 C106 1.363 . S
C107 C108 1.385 . S
C108 H76 0.930 . S
C108 C107 1.385 . S
C108 C109 1.357 . S
C109 C108 1.357 . S
C109 C110 1.406 . S
C110 H77 0.929 . S
C110 C109 1.406 . S
C110 C111 1.391 . S
C111 H78 0.931 . S
C111 C106 1.370 . S
C111 C110 1.391 . S
C112 N86 1.435 . S
C112 C113 1.358 . S
C112 C117 1.371 . S
C113 H79 0.930 . S
C113 C112 1.358 . S
C113 C114 1.405 . S
C114 H80 0.932 . S
C114 C113 1.405 . S
C114 C115 1.383 . S
C115 C114 1.383 . S
C115 C116 1.393 . S
C116 H81 0.931 . S
C116 C115 1.393 . S
C116 C117 1.382 . S
C117 H82 0.929 . S
C117 C112 1.371 . S
C117 C116 1.382 . S
C118 N86 1.423 . S
C118 C119 1.362 . S
C118 C123 1.388 . S
C119 H83 0.929 . S
C119 C118 1.362 . S
C119 C120 1.376 . S
C120 H84 0.931 . S
C120 C119 1.376 . S
C120 C121 1.396 . S
C121 C103 1.472 . S
C121 C120 1.396 . S
C121 C122 1.348 . S
C122 H85 0.929 . S
C122 C121 1.348 . S
C122 C123 1.443 . S
C123 H87 0.932 . S
C123 C118 1.388 . S
C123 C122 1.443 . S
H124 C151 0.929 . S
N125 C150 1.433 . S
N125 C156 1.435 . S
N125 C162 1.423 . S
H126 C152 0.930 . S
H127 C155 0.931 . S
H128 C154 0.929 . S
H129 C157 0.930 . S
H130 C158 0.932 . S
H131 C161 0.929 . S
H132 C160 0.931 . S
H133 C163 0.929 . S
H134 C167 0.932 . S
H135 C164 0.931 . S
H136 C166 0.929 . S
H137 C169 0.929 . S
H138 C170 0.930 . S
H139 C172 0.929 . S
H140 C173 0.931 . S
H141 C175 0.930 . S
H142 C176 0.932 . S
H143 C178 0.931 . S
H144 C179 0.929 . S
H145 C181 0.929 . S
H146 C182 0.931 . S
H147 C184 0.929 . S
N148 C168 1.433 . S
N148 C174 1.435 . S
N148 C180 1.423 . S
H149 C185 0.932 . S
C150 N125 1.433 . S
C150 C151 1.363 . S
C150 C155 1.370 . S
C151 H124 0.929 . S
C151 C150 1.363 . S
C151 C152 1.385 . S
C152 H126 0.930 . S
C152 C151 1.385 . S
C152 C153 1.357 . S
C153 C152 1.357 . S
C153 C154 1.406 . S
C154 H128 0.929 . S
C154 C153 1.406 . S
C154 C155 1.391 . S
C155 H127 0.931 . S
C155 C150 1.370 . S
C155 C154 1.391 . S
C156 N125 1.435 . S
C156 C157 1.358 . S
C156 C161 1.371 . S
C157 H129 0.930 . S
C157 C156 1.358 . S
C157 C158 1.405 . S
C158 H130 0.932 . S
C158 C157 1.405 . S
C158 C159 1.383 . S
C159 C158 1.383 . S
C159 C160 1.393 . S
C160 H132 0.931 . S
C160 C159 1.393 . S
C160 C161 1.382 . S
C161 H131 0.929 . S
C161 C156 1.371 . S
C161 C160 1.382 . S
C162 N125 1.423 . S
C162 C163 1.362 . S
C162 C167 1.388 . S
C163 H133 0.929 . S
C163 C162 1.362 . S
C163 C164 1.376 . S
C164 H135 0.931 . S
C164 C163 1.376 . S
C164 C165 1.396 . S
C165 C164 1.396 . S
C165 C166 1.348 . S
C165 C183 1.472 . S
C166 H136 0.929 . S
C166 C165 1.348 . S
C166 C167 1.443 . S
C167 H134 0.932 . S
C167 C162 1.388 . S
C167 C166 1.443 . S
C168 N148 1.433 . S
C168 C169 1.363 . S
C168 C173 1.370 . S
C169 H137 0.929 . S
C169 C168 1.363 . S
C169 C170 1.385 . S
C170 H138 0.930 . S
C170 C169 1.385 . S
C170 C171 1.357 . S
C171 C170 1.357 . S
C171 C172 1.406 . S
C172 H139 0.929 . S
C172 C171 1.406 . S
C172 C173 1.391 . S
C173 H140 0.931 . S
C173 C168 1.370 . S
C173 C172 1.391 . S
C174 N148 1.435 . S
C174 C175 1.358 . S
C174 C179 1.371 . S
C175 H141 0.930 . S
C175 C174 1.358 . S
C175 C176 1.405 . S
C176 H142 0.932 . S
C176 C175 1.405 . S
C176 C177 1.383 . S
C177 C176 1.383 . S
C177 C178 1.393 . S
C178 H143 0.931 . S
C178 C177 1.393 . S
C178 C179 1.382 . S
C179 H144 0.929 . S
C179 C174 1.371 . S
C179 C178 1.382 . S
C180 N148 1.423 . S
C180 C181 1.362 . S
C180 C185 1.388 . S
C181 H145 0.929 . S
C181 C180 1.362 . S
C181 C182 1.376 . S
C182 H146 0.931 . S
C182 C181 1.376 . S
C182 C183 1.396 . S
C183 C165 1.472 . S
C183 C182 1.396 . S
C183 C184 1.348 . S
C184 H147 0.929 . S
C184 C183 1.348 . S
C184 C185 1.443 . S
C185 H149 0.932 . S
C185 C180 1.388 . S
C185 C184 1.443 . S
H186 C213 0.929 . S
N187 C212 1.433 . S
N187 C218 1.435 . S
N187 C224 1.423 . S
H188 C214 0.930 . S
H189 C217 0.931 . S
H190 C216 0.929 . S
H191 C219 0.930 . S
H192 C220 0.932 . S
H193 C223 0.929 . S
H194 C222 0.931 . S
H195 C225 0.929 . S
H196 C229 0.932 . S
H197 C226 0.931 . S
H198 C228 0.929 . S
H199 C231 0.929 . S
H200 C232 0.930 . S
H201 C234 0.929 . S
H202 C235 0.931 . S
H203 C237 0.930 . S
H204 C238 0.932 . S
H205 C240 0.931 . S
H206 C241 0.929 . S
H207 C243 0.929 . S
H208 C244 0.931 . S
H209 C246 0.929 . S
N210 C230 1.433 . S
N210 C236 1.435 . S
N210 C242 1.423 . S
H211 C247 0.932 . S
C212 N187 1.433 . S
C212 C213 1.363 . S
C212 C217 1.370 . S
C213 H186 0.929 . S
C213 C212 1.363 . S
C213 C214 1.385 . S
C214 H188 0.930 . S
C214 C213 1.385 . S
C214 C215 1.357 . S
C215 C214 1.357 . S
C215 C216 1.406 . S
C216 H190 0.929 . S
C216 C215 1.406 . S
C216 C217 1.391 . S
C217 H189 0.931 . S
C217 C212 1.370 . S
C217 C216 1.391 . S
C218 N187 1.435 . S
C218 C219 1.358 . S
C218 C223 1.371 . S
C219 H191 0.930 . S
C219 C218 1.358 . S
C219 C220 1.405 . S
C220 H192 0.932 . S
C220 C219 1.405 . S
C220 C221 1.383 . S
C221 C220 1.383 . S
C221 C222 1.393 . S
C222 H194 0.931 . S
C222 C221 1.393 . S
C222 C223 1.382 . S
C223 H193 0.929 . S
C223 C218 1.371 . S
C223 C222 1.382 . S
C224 N187 1.423 . S
C224 C225 1.362 . S
C224 C229 1.388 . S
C225 H195 0.929 . S
C225 C224 1.362 . S
C225 C226 1.376 . S
C226 H197 0.931 . S
C226 C225 1.376 . S
C226 C227 1.396 . S
C227 C226 1.396 . S
C227 C228 1.348 . S
C227 C245 1.472 1_455 S
C228 H198 0.929 . S
C228 C227 1.348 . S
C228 C229 1.443 . S
C229 H196 0.932 . S
C229 C224 1.388 . S
C229 C228 1.443 . S
C230 N210 1.433 . S
C230 C231 1.363 . S
C230 C235 1.370 . S
C231 H199 0.929 . S
C231 C230 1.363 . S
C231 C232 1.385 . S
C232 H200 0.930 . S
C232 C231 1.385 . S
C232 C233 1.357 . S
C233 C232 1.357 . S
C233 C234 1.406 . S
C234 H201 0.929 . S
C234 C233 1.406 . S
C234 C235 1.391 . S
C235 H202 0.931 . S
C235 C230 1.370 . S
C235 C234 1.391 . S
C236 N210 1.435 . S
C236 C237 1.358 . S
C236 C241 1.371 . S
C237 H203 0.930 . S
C237 C236 1.358 . S
C237 C238 1.405 . S
C238 H204 0.932 . S
C238 C237 1.405 . S
C238 C239 1.383 . S
C239 C238 1.383 . S
C239 C240 1.393 . S
C240 H205 0.931 . S
C240 C239 1.393 . S
C240 C241 1.382 . S
C241 H206 0.929 . S
C241 C236 1.371 . S
C241 C240 1.382 . S
C242 N210 1.423 . S
C242 C243 1.362 . S
C242 C247 1.388 . S
C243 H207 0.929 . S
C243 C242 1.362 . S
C243 C244 1.376 . S
C244 H208 0.931 . S
C244 C243 1.376 . S
C244 C245 1.396 . S
C245 C227 1.472 1_655 S
C245 C244 1.396 . S
C245 C246 1.348 . S
C246 H209 0.929 . S
C246 C245 1.348 . S
C246 C247 1.443 . S
C247 H211 0.932 . S
C247 C242 1.388 . S
C247 C246 1.443 . S
H248 C275 0.929 . S
N249 C274 1.433 . S
N249 C280 1.435 . S
N249 C286 1.423 . S
H250 C276 0.930 . S
H251 C279 0.931 . S
H252 C278 0.929 . S
H253 C281 0.930 . S
H254 C282 0.932 . S
H255 C285 0.929 . S
H256 C284 0.931 . S
H257 C287 0.929 . S
H258 C291 0.932 . S
H259 C288 0.931 . S
H260 C290 0.929 . S
H261 C293 0.929 . S
H262 C294 0.930 . S
H263 C296 0.929 . S
H264 C297 0.931 . S
H265 C299 0.930 1_554 S
H266 C300 0.932 . S
H267 C302 0.931 . S
H268 C303 0.929 . S
H269 C305 0.929 . S
H270 C306 0.913 1_554 S
H271 C308 0.929 . S
N272 C292 1.433 . S
N272 C298 1.435 1_554 S
N272 C304 1.423 1_554 S
H273 C309 0.932 . S
C274 N249 1.433 . S
C274 C275 1.363 . S
C274 C279 1.370 . S
C275 H248 0.929 . S
C275 C274 1.363 . S
C275 C276 1.385 . S
C276 H250 0.930 . S
C276 C275 1.385 . S
C276 C277 1.357 1_556 S
C277 C276 1.357 1_554 S
C277 C278 1.406 . S
C278 H252 0.929 . S
C278 C277 1.406 . S
C278 C279 1.391 1_554 S
C279 H251 0.931 . S
C279 C274 1.370 . S
C279 C278 1.391 1_556 S
C280 N249 1.435 . S
C280 C281 1.358 . S
C280 C285 1.371 . S
C281 H253 0.930 . S
C281 C280 1.358 . S
C281 C282 1.405 . S
C282 H254 0.932 . S
C282 C281 1.405 . S
C282 C283 1.383 . S
C283 C282 1.383 . S
C283 C284 1.393 . S
C284 H256 0.931 . S
C284 C283 1.393 . S
C284 C285 1.382 . S
C285 H255 0.929 . S
C285 C280 1.371 . S
C285 C284 1.382 . S
C286 N249 1.423 . S
C286 C287 1.362 . S
C286 C291 1.388 . S
C287 H257 0.929 . S
C287 C286 1.362 . S
C287 C288 1.376 . S
C288 H259 0.931 . S
C288 C287 1.376 . S
C288 C289 1.396 . S
C289 C288 1.396 . S
C289 C290 1.348 . S
C289 C307 1.472 1_545 S
C290 H260 0.929 . S
C290 C289 1.348 . S
C290 C291 1.443 . S
C291 H258 0.932 . S
C291 C286 1.388 . S
C291 C290 1.443 . S
C292 N272 1.433 . S
C292 C293 1.363 . S
C292 C297 1.370 . S
C293 H261 0.929 . S
C293 C292 1.363 . S
C293 C294 1.385 . S
C294 H262 0.930 . S
C294 C293 1.385 . S
C294 C295 1.357 . S
C295 C294 1.357 . S
C295 C296 1.406 . S
C296 H263 0.929 . S
C296 C295 1.406 . S
C296 C297 1.391 . S
C297 H264 0.931 . S
C297 C292 1.370 . S
C297 C296 1.391 . S
C298 N272 1.435 1_556 S
C298 C299 1.358 . S
C298 C303 1.371 . S
C299 H265 0.930 1_556 S
C299 C298 1.358 . S
C299 C300 1.405 . S
C300 H266 0.932 . S
C300 C299 1.405 . S
C300 C301 1.383 . S
C301 C300 1.383 . S
C301 C302 1.393 . S
C302 H267 0.931 . S
C302 C301 1.393 . S
C302 C303 1.382 . S
C303 H268 0.929 . S
C303 C298 1.371 . S
C303 C302 1.382 . S
C304 N272 1.423 1_556 S
C304 C305 1.362 1_556 S
C304 C309 1.388 . S
C305 H269 0.929 . S
C305 C304 1.362 1_554 S
C305 C306 1.376 1_554 S
C306 H270 0.913 1_556 S
C306 C305 1.376 1_556 S
C306 C307 1.396 . S
C307 C289 1.472 1_565 S
C307 C306 1.396 . S
C307 C308 1.348 . S
C308 H271 0.929 . S
C308 C307 1.348 . S
C308 C309 1.443 . S
C309 H273 0.932 . S
C309 C304 1.388 . S
C309 C308 1.443 . S
H310 C337 0.929 . S
N311 C336 1.433 . S
N311 C342 1.435 . S
N311 C348 1.423 . S
H312 C338 0.930 . S
H313 C341 0.931 . S
H314 C340 0.929 . S
H315 C343 0.930 . S
H316 C344 0.932 . S
H317 C347 0.929 . S
H318 C346 0.931 . S
H319 C349 0.929 . S
H320 C353 0.932 . S
H321 C350 0.931 . S
H322 C352 0.929 . S
H323 C355 0.929 . S
H324 C356 0.930 . S
H325 C358 0.929 . S
H326 C359 0.931 . S
H327 C361 0.930 . S
H328 C362 0.932 . S
H329 C364 0.931 . S
H330 C365 0.929 . S
H331 C367 0.929 . S
H332 C368 0.931 . S
H333 C370 0.929 . S
N334 C354 1.433 . S
N334 C360 1.435 . S
N334 C366 1.423 . S
H335 C371 0.932 . S
C336 N311 1.433 . S
C336 C337 1.363 . S
C336 C341 1.370 . S
C337 H310 0.929 . S
C337 C336 1.363 . S
C337 C338 1.385 . S
C338 H312 0.930 . S
C338 C337 1.385 . S
C338 C339 1.357 . S
C339 C338 1.357 . S
C339 C340 1.406 . S
C340 H314 0.929 . S
C340 C339 1.406 . S
C340 C341 1.391 . S
C341 H313 0.931 . S
C341 C336 1.370 . S
C341 C340 1.391 . S
C342 N311 1.435 . S
C342 C343 1.358 . S
C342 C347 1.371 . S
C343 H315 0.930 . S
C343 C342 1.358 . S
C343 C344 1.405 . S
C344 H316 0.932 . S
C344 C343 1.405 . S
C344 C345 1.383 . S
C345 C344 1.383 . S
C345 C346 1.393 . S
C346 H318 0.931 . S
C346 C345 1.393 . S
C346 C347 1.382 . S
C347 H317 0.929 . S
C347 C342 1.371 . S
C347 C346 1.382 . S
C348 N311 1.423 . S
C348 C349 1.362 . S
C348 C353 1.388 . S
C349 H319 0.929 . S
C349 C348 1.362 . S
C349 C350 1.376 . S
C350 H321 0.931 . S
C350 C349 1.376 . S
C350 C351 1.396 . S
C351 C350 1.396 . S
C351 C352 1.348 . S
C351 C369 1.472 . S
C352 H322 0.929 . S
C352 C351 1.348 . S
C352 C353 1.443 . S
C353 H320 0.932 . S
C353 C348 1.388 . S
C353 C352 1.443 . S
C354 N334 1.433 . S
C354 C355 1.363 . S
C354 C359 1.370 . S
C355 H323 0.929 . S
C355 C354 1.363 . S
C355 C356 1.385 . S
C356 H324 0.930 . S
C356 C355 1.385 . S
C356 C357 1.357 . S
C357 C356 1.357 . S
C357 C358 1.406 . S
C358 H325 0.929 . S
C358 C357 1.406 . S
C358 C359 1.391 . S
C359 H326 0.931 . S
C359 C354 1.370 . S
C359 C358 1.391 . S
C360 N334 1.435 . S
C360 C361 1.358 . S
C360 C365 1.371 . S
C361 H327 0.930 . S
C361 C360 1.358 . S
C361 C362 1.405 . S
C362 H328 0.932 . S
C362 C361 1.405 . S
C362 C363 1.383 . S
C363 C362 1.383 . S
C363 C364 1.393 . S
C364 H329 0.931 . S
C364 C363 1.393 . S
C364 C365 1.382 . S
C365 H330 0.929 . S
C365 C360 1.371 . S
C365 C364 1.382 . S
C366 N334 1.423 . S
C366 C367 1.362 . S
C366 C371 1.388 . S
C367 H331 0.929 . S
C367 C366 1.362 . S
C367 C368 1.376 . S
C368 H332 0.931 . S
C368 C367 1.376 . S
C368 C369 1.396 . S
C369 C351 1.472 . S
C369 C368 1.396 . S
C369 C370 1.348 . S
C370 H333 0.929 . S
C370 C369 1.348 . S
C370 C371 1.443 . S
C371 H335 0.932 . S
C371 C366 1.388 . S
C371 C370 1.443 . S
C372 O373 1.306 . S
C372 O375 1.160 . S
O373 C372 1.306 . S
O373 Cd374 2.228 . S
Cd374 O373 2.228 . S
Cd374 O378 2.273 . S
Cd374 O382 2.277 . S
O375 C372 1.160 . S
O375 Cd376 2.203 . S
Cd376 O375 2.203 . S
Cd376 O378 2.411 . S
Cd376 O379 2.333 . S
Cd376 O380 2.352 . S
Cd376 O384 2.277 . S
Cd376 O385 2.356 . S
C377 O382 1.209 . S
C377 O384 1.226 . S
O378 Cd374 2.273 . S
O378 Cd376 2.411 . S
O378 C381 1.320 . S
O379 Cd376 2.333 . S
O379 C381 1.214 . S
O380 Cd376 2.352 . S
O380 C383 1.258 . S
C381 O378 1.320 . S
C381 O379 1.214 . S
O382 Cd374 2.277 . S
O382 C377 1.209 . S
C383 O380 1.258 . S
C383 O385 1.282 . S
O384 Cd376 2.277 . S
O384 C377 1.226 . S
O385 Cd376 2.356 . S
O385 C383 1.282 . S
C386 O387 1.306 . S
C386 O389 1.160 . S
O387 C386 1.306 . S
O387 Cd388 2.228 . S
Cd388 O387 2.228 . S
Cd388 O392 2.273 . S
Cd388 O396 2.277 . S
O389 C386 1.160 . S
O389 Cd390 2.203 . S
Cd390 O389 2.203 . S
Cd390 O392 2.411 . S
Cd390 O393 2.333 . S
Cd390 O394 2.352 . S
Cd390 O398 2.277 . S
Cd390 O399 2.356 . S
C391 O396 1.209 . S
C391 O398 1.226 . S
O392 Cd388 2.273 . S
O392 Cd390 2.411 . S
O392 C395 1.320 . S
O393 Cd390 2.333 . S
O393 C395 1.214 . S
O394 Cd390 2.352 . S
O394 C397 1.258 . S
C395 O392 1.320 . S
C395 O393 1.214 . S
O396 Cd388 2.277 . S
O396 C391 1.209 . S
C397 O394 1.258 . S
C397 O399 1.282 . S
O398 Cd390 2.277 . S
O398 C391 1.226 . S
O399 Cd390 2.356 . S
O399 C397 1.282 . S
C400 O401 1.306 . S
C400 O403 1.160 . S
O401 C400 1.306 . S
O401 Cd402 2.228 . S
Cd402 O401 2.228 . S
Cd402 O406 2.273 . S
Cd402 O410 2.277 . S
O403 C400 1.160 . S
O403 Cd404 2.203 . S
Cd404 O403 2.203 . S
Cd404 O406 2.411 . S
Cd404 O407 2.333 . S
Cd404 O408 2.352 . S
Cd404 O412 2.277 . S
Cd404 O413 2.356 . S
C405 O410 1.209 . S
C405 O412 1.226 . S
O406 Cd402 2.273 . S
O406 Cd404 2.411 . S
O406 C409 1.320 . S
O407 Cd404 2.333 . S
O407 C409 1.214 . S
O408 Cd404 2.352 . S
O408 C411 1.258 . S
C409 O406 1.320 . S
C409 O407 1.214 . S
O410 Cd402 2.277 . S
O410 C405 1.209 . S
C411 O408 1.258 . S
C411 O413 1.282 . S
O412 Cd404 2.277 . S
O412 C405 1.226 . S
O413 Cd404 2.356 . S
O413 C411 1.282 . S
C414 O415 1.306 . S
C414 O417 1.160 . S
O415 C414 1.306 . S
O415 Cd416 2.228 . S
Cd416 O415 2.228 . S
Cd416 O420 2.273 . S
Cd416 O424 2.277 . S
O417 C414 1.160 . S
O417 Cd418 2.203 . S
Cd418 O417 2.203 . S
Cd418 O420 2.411 . S
Cd418 O421 2.333 . S
Cd418 O422 2.352 . S
Cd418 O426 2.277 . S
Cd418 O427 2.356 . S
C419 O424 1.209 . S
C419 O426 1.226 . S
O420 Cd416 2.273 . S
O420 Cd418 2.411 . S
O420 C423 1.320 . S
O421 Cd418 2.333 . S
O421 C423 1.214 . S
O422 Cd418 2.352 . S
O422 C425 1.258 . S
C423 O420 1.320 . S
C423 O421 1.214 . S
O424 Cd416 2.277 . S
O424 C419 1.209 . S
C425 O422 1.258 . S
C425 O427 1.282 . S
O426 Cd418 2.277 . S
O426 C419 1.226 . S
O427 Cd418 2.356 . S
O427 C425 1.282 . S
C428 O429 1.306 . S
C428 O431 1.160 . S
O429 C428 1.306 . S
O429 Cd430 2.228 . S
Cd430 O429 2.228 . S
Cd430 O434 2.273 . S
Cd430 O438 2.277 . S
O431 C428 1.160 . S
O431 Cd432 2.203 . S
Cd432 O431 2.203 . S
Cd432 O434 2.411 . S
Cd432 O435 2.333 . S
Cd432 O436 2.352 . S
Cd432 O440 2.277 . S
Cd432 O441 2.356 . S
C433 O438 1.209 . S
C433 O440 1.226 . S
O434 Cd430 2.273 . S
O434 Cd432 2.411 . S
O434 C437 1.320 . S
O435 Cd432 2.333 . S
O435 C437 1.214 . S
O436 Cd432 2.352 . S
O436 C439 1.258 . S
C437 O434 1.320 . S
C437 O435 1.214 . S
O438 Cd430 2.277 . S
O438 C433 1.209 . S
C439 O436 1.258 . S
C439 O441 1.282 . S
O440 Cd432 2.277 . S
O440 C433 1.226 . S
O441 Cd432 2.356 . S
O441 C439 1.282 . S
C442 O443 1.306 . S
C442 O445 1.160 . S
O443 C442 1.306 . S
O443 Cd444 2.228 . S
Cd444 O443 2.228 . S
Cd444 O448 2.273 . S
Cd444 O452 2.277 . S
O445 C442 1.160 . S
O445 Cd446 2.203 . S
Cd446 O445 2.203 . S
Cd446 O448 2.411 . S
Cd446 O449 2.333 . S
Cd446 O450 2.352 . S
Cd446 O454 2.277 . S
Cd446 O455 2.356 . S
C447 O452 1.209 . S
C447 O454 1.226 . S
O448 Cd444 2.273 . S
O448 Cd446 2.411 . S
O448 C451 1.320 . S
O449 Cd446 2.333 . S
O449 C451 1.214 . S
O450 Cd446 2.352 . S
O450 C453 1.258 . S
C451 O448 1.320 . S
C451 O449 1.214 . S
O452 Cd444 2.277 . S
O452 C447 1.209 . S
C453 O450 1.258 . S
C453 O455 1.282 . S
O454 Cd446 2.277 . S
O454 C447 1.226 . S
O455 Cd446 2.356 . S
O455 C453 1.282 . S
H456 C464 0.929 . S
H457 C466 0.930 . S
H458 C468 0.930 . S
H459 C471 0.929 . S
H460 C474 0.930 . S
H461 C476 0.960 . S
H462 C476 0.960 . S
H463 C476 0.960 . S
C464 H456 0.929 . S
C464 C465 1.377 . S
C464 C466 1.384 . S
C465 C464 1.377 . S
C465 C471 1.390 . S
C466 H457 0.930 . S
C466 C464 1.384 . S
C466 C467 1.372 . S
C467 C466 1.372 . S
C467 C468 1.400 . S
C467 C472 1.490 . S
C468 H458 0.930 . S
C468 C467 1.400 . S
C468 C471 1.386 . S
H469 C485 0.930 . S
H470 C486 0.931 . S
C471 H459 0.929 . S
C471 C465 1.390 . S
C471 C468 1.386 . S
C472 C467 1.490 . S
C472 C474 1.395 . S
C472 C475 1.403 . S
H473 C479 0.930 . S
C474 H460 0.930 . S
C474 C472 1.395 . S
C474 C477 1.403 . S
C475 C472 1.403 . S
C475 C476 1.524 . S
C475 C479 1.400 . S
C476 H461 0.960 . S
C476 H462 0.960 . S
C476 H463 0.960 . S
C476 C475 1.524 . S
C477 C474 1.403 . S
C477 C478 1.392 . S
C477 C481 1.495 . S
C478 C477 1.392 . S
C478 C479 1.385 . S
C478 C480 1.478 . S
C479 H473 0.930 . S
C479 C475 1.400 . S
C479 C478 1.385 . S
C480 C478 1.478 . S
C480 C482 1.381 . S
C480 C486 1.383 . S
C481 C477 1.495 . S
C481 H487 0.959 . S
C481 H488 0.961 . S
C481 H489 0.960 . S
C482 C480 1.381 . S
C482 C483 1.394 . S
C482 H490 0.930 . S
C483 C482 1.394 . S
C483 C484 1.383 . S
C483 H491 0.929 . S
C484 C483 1.383 . S
C484 C485 1.377 . S
C485 H469 0.930 . S
C485 C484 1.377 . S
C485 C486 1.379 . S
C486 H470 0.931 . S
C486 C480 1.383 . S
C486 C485 1.379 . S
H487 C481 0.959 . S
H488 C481 0.961 . S
H489 C481 0.960 . S
H490 C482 0.930 . S
H491 C483 0.929 . S
H492 C500 0.929 . S
H493 C502 0.930 . S
H494 C504 0.930 . S
H495 C507 0.929 . S
H496 C510 0.930 . S
H497 C512 0.960 . S
H498 C512 0.960 . S
H499 C512 0.960 . S
C500 H492 0.929 . S
C500 C501 1.377 . S
C500 C502 1.384 . S
C501 C500 1.377 . S
C501 C507 1.390 . S
C502 H493 0.930 . S
C502 C500 1.384 . S
C502 C503 1.372 . S
C503 C502 1.372 . S
C503 C504 1.400 . S
C503 C508 1.490 . S
C504 H494 0.930 . S
C504 C503 1.400 . S
C504 C507 1.386 . S
H505 C521 0.930 . S
H506 C522 0.931 . S
C507 H495 0.929 . S
C507 C501 1.390 . S
C507 C504 1.386 . S
C508 C503 1.490 . S
C508 C510 1.395 . S
C508 C511 1.403 . S
H509 C515 0.930 . S
C510 H496 0.930 . S
C510 C508 1.395 . S
C510 C513 1.403 . S
C511 C508 1.403 . S
C511 C512 1.524 . S
C511 C515 1.400 . S
C512 H497 0.960 . S
C512 H498 0.960 . S
C512 H499 0.960 . S
C512 C511 1.524 . S
C513 C510 1.403 . S
C513 C514 1.392 . S
C513 C517 1.495 . S
C514 C513 1.392 . S
C514 C515 1.385 . S
C514 C516 1.478 . S
C515 H509 0.930 . S
C515 C511 1.400 . S
C515 C514 1.385 . S
C516 C514 1.478 . S
C516 C518 1.381 . S
C516 C522 1.383 . S
C517 C513 1.495 . S
C517 H523 0.959 . S
C517 H524 0.961 . S
C517 H525 0.960 . S
C518 C516 1.381 . S
C518 C519 1.394 . S
C518 H526 0.930 . S
C519 C518 1.394 . S
C519 C520 1.383 . S
C519 H527 0.929 . S
C520 C519 1.383 . S
C520 C521 1.377 . S
C521 H505 0.930 . S
C521 C520 1.377 . S
C521 C522 1.379 . S
C522 H506 0.931 . S
C522 C516 1.383 . S
C522 C521 1.379 . S
H523 C517 0.959 . S
H524 C517 0.961 . S
H525 C517 0.960 . S
H526 C518 0.930 . S
H527 C519 0.929 . S
H528 C536 0.929 . S
H529 C538 0.930 . S
H530 C540 0.930 . S
H531 C543 0.929 . S
H532 C546 0.930 . S
H533 C548 0.960 . S
H534 C548 0.960 . S
H535 C548 0.960 . S
C536 H528 0.929 . S
C536 C537 1.377 . S
C536 C538 1.384 . S
C537 C536 1.377 . S
C537 C543 1.390 . S
C538 H529 0.930 . S
C538 C536 1.384 . S
C538 C539 1.372 . S
C539 C538 1.372 . S
C539 C540 1.400 . S
C539 C544 1.490 . S
C540 H530 0.930 . S
C540 C539 1.400 . S
C540 C543 1.386 . S
H541 C557 0.930 . S
H542 C558 0.931 . S
C543 H531 0.929 . S
C543 C537 1.390 . S
C543 C540 1.386 . S
C544 C539 1.490 . S
C544 C546 1.395 . S
C544 C547 1.403 . S
H545 C551 0.930 . S
C546 H532 0.930 . S
C546 C544 1.395 . S
C546 C549 1.403 . S
C547 C544 1.403 . S
C547 C548 1.524 . S
C547 C551 1.400 . S
C548 H533 0.960 . S
C548 H534 0.960 . S
C548 H535 0.960 . S
C548 C547 1.524 . S
C549 C546 1.403 . S
C549 C550 1.392 . S
C549 C553 1.495 . S
C550 C549 1.392 . S
C550 C551 1.385 . S
C550 C552 1.478 . S
C551 H545 0.930 . S
C551 C547 1.400 . S
C551 C550 1.385 . S
C552 C550 1.478 . S
C552 C554 1.381 . S
C552 C558 1.383 . S
C553 C549 1.495 . S
C553 H559 0.959 . S
C553 H560 0.961 . S
C553 H561 0.960 . S
C554 C552 1.381 . S
C554 C555 1.394 . S
C554 H562 0.930 . S
C555 C554 1.394 . S
C555 C556 1.383 . S
C555 H563 0.929 . S
C556 C555 1.383 . S
C556 C557 1.377 . S
C557 H541 0.930 . S
C557 C556 1.377 . S
C557 C558 1.379 . S
C558 H542 0.931 . S
C558 C552 1.383 . S
C558 C557 1.379 . S
H559 C553 0.959 . S
H560 C553 0.961 . S
H561 C553 0.960 . S
H562 C554 0.930 . S
H563 C555 0.929 . S
H564 C572 0.929 . S
H565 C574 0.930 . S
H566 C576 0.930 . S
H567 C579 0.929 . S
H568 C582 0.930 . S
H569 C584 0.960 . S
H570 C584 0.960 . S
H571 C584 0.960 . S
C572 H564 0.929 . S
C572 C573 1.377 . S
C572 C574 1.384 . S
C573 C572 1.377 . S
C573 C579 1.390 . S
C574 H565 0.930 . S
C574 C572 1.384 . S
C574 C575 1.372 . S
C575 C574 1.372 . S
C575 C576 1.400 . S
C575 C580 1.490 . S
C576 H566 0.930 . S
C576 C575 1.400 . S
C576 C579 1.386 . S
H577 C593 0.930 . S
H578 C594 0.931 . S
C579 H567 0.929 . S
C579 C573 1.390 . S
C579 C576 1.386 . S
C580 C575 1.490 . S
C580 C582 1.395 . S
C580 C583 1.403 . S
H581 C587 0.930 . S
C582 H568 0.930 . S
C582 C580 1.395 . S
C582 C585 1.403 . S
C583 C580 1.403 . S
C583 C584 1.524 . S
C583 C587 1.400 . S
C584 H569 0.960 . S
C584 H570 0.960 . S
C584 H571 0.960 . S
C584 C583 1.524 . S
C585 C582 1.403 . S
C585 C586 1.392 . S
C585 C589 1.495 . S
C586 C585 1.392 . S
C586 C587 1.385 . S
C586 C588 1.478 . S
C587 H581 0.930 . S
C587 C583 1.400 . S
C587 C586 1.385 . S
C588 C586 1.478 . S
C588 C590 1.381 . S
C588 C594 1.383 . S
C589 C585 1.495 . S
C589 H595 0.959 . S
C589 H596 0.961 . S
C589 H597 0.960 . S
C590 C588 1.381 . S
C590 C591 1.394 . S
C590 H598 0.930 . S
C591 C590 1.394 . S
C591 C592 1.383 . S
C591 H599 0.929 . S
C592 C591 1.383 . S
C592 C593 1.377 . S
C593 H577 0.930 . S
C593 C592 1.377 . S
C593 C594 1.379 . S
C594 H578 0.931 . S
C594 C588 1.383 . S
C594 C593 1.379 . S
H595 C589 0.959 . S
H596 C589 0.961 . S
H597 C589 0.960 . S
H598 C590 0.930 . S
H599 C591 0.929 . S
H600 C608 0.929 . S
H601 C610 0.930 . S
H602 C612 0.930 . S
H603 C615 0.929 . S
H604 C618 0.930 . S
H605 C620 0.960 . S
H606 C620 0.960 . S
H607 C620 0.960 . S
C608 H600 0.929 . S
C608 C609 1.377 . S
C608 C610 1.384 . S
C609 C608 1.377 . S
C609 C615 1.390 . S
C610 H601 0.930 . S
C610 C608 1.384 . S
C610 C611 1.372 . S
C611 C610 1.372 . S
C611 C612 1.400 . S
C611 C616 1.490 . S
C612 H602 0.930 . S
C612 C611 1.400 . S
C612 C615 1.386 . S
H613 C629 0.930 . S
H614 C630 0.931 . S
C615 H603 0.929 . S
C615 C609 1.390 . S
C615 C612 1.386 . S
C616 C611 1.490 . S
C616 C618 1.395 . S
C616 C619 1.403 . S
H617 C623 0.930 . S
C618 H604 0.930 . S
C618 C616 1.395 . S
C618 C621 1.403 . S
C619 C616 1.403 . S
C619 C620 1.524 . S
C619 C623 1.400 . S
C620 H605 0.960 . S
C620 H606 0.960 . S
C620 H607 0.960 . S
C620 C619 1.524 . S
C621 C618 1.403 . S
C621 C622 1.392 . S
C621 C625 1.495 . S
C622 C621 1.392 . S
C622 C623 1.385 . S
C622 C624 1.478 . S
C623 H617 0.930 . S
C623 C619 1.400 . S
C623 C622 1.385 . S
C624 C622 1.478 . S
C624 C626 1.381 . S
C624 C630 1.383 . S
C625 C621 1.495 . S
C625 H631 0.959 . S
C625 H632 0.961 . S
C625 H633 0.960 . S
C626 C624 1.381 . S
C626 C627 1.394 . S
C626 H634 0.930 . S
C627 C626 1.394 . S
C627 C628 1.383 . S
C627 H635 0.929 . S
C628 C627 1.383 . S
C628 C629 1.377 . S
C629 H613 0.930 . S
C629 C628 1.377 . S
C629 C630 1.379 . S
C630 H614 0.931 . S
C630 C624 1.383 . S
C630 C629 1.379 . S
H631 C625 0.959 . S
H632 C625 0.961 . S
H633 C625 0.960 . S
H634 C626 0.930 . S
H635 C627 0.929 . S
H636 C644 0.929 . S
H637 C646 0.930 . S
H638 C648 0.930 . S
H639 C651 0.929 . S
H640 C654 0.930 . S
H641 C656 0.960 . S
H642 C656 0.960 . S
H643 C656 0.960 . S
C644 H636 0.929 . S
C644 C645 1.377 . S
C644 C646 1.384 . S
C645 C644 1.377 . S
C645 C651 1.390 . S
C646 H637 0.930 . S
C646 C644 1.384 . S
C646 C647 1.372 . S
C647 C646 1.372 . S
C647 C648 1.400 . S
C647 C652 1.490 . S
C648 H638 0.930 . S
C648 C647 1.400 . S
C648 C651 1.386 . S
H649 C665 0.930 . S
H650 C666 0.931 . S
C651 H639 0.929 . S
C651 C645 1.390 . S
C651 C648 1.386 . S
C652 C647 1.490 . S
C652 C654 1.395 . S
C652 C655 1.403 . S
H653 C659 0.930 . S
C654 H640 0.930 . S
C654 C652 1.395 . S
C654 C657 1.403 . S
C655 C652 1.403 . S
C655 C656 1.524 . S
C655 C659 1.400 . S
C656 H641 0.960 . S
C656 H642 0.960 . S
C656 H643 0.960 . S
C656 C655 1.524 . S
C657 C654 1.403 . S
C657 C658 1.392 . S
C657 C661 1.495 . S
C658 C657 1.392 . S
C658 C659 1.385 . S
C658 C660 1.478 . S
C659 H653 0.930 . S
C659 C655 1.400 . S
C659 C658 1.385 . S
C660 C658 1.478 . S
C660 C662 1.381 . S
C660 C666 1.383 . S
C661 C657 1.495 . S
C661 H667 0.959 . S
C661 H668 0.961 . S
C661 H669 0.960 . S
C662 C660 1.381 . S
C662 C663 1.394 . S
C662 H670 0.930 . S
C663 C662 1.394 . S
C663 C664 1.383 . S
C663 H671 0.929 . S
C664 C663 1.383 . S
C664 C665 1.377 . S
C665 H649 0.930 . S
C665 C664 1.377 . S
C665 C666 1.379 . S
C666 H650 0.931 . S
C666 C660 1.383 . S
C666 C665 1.379 . S
H667 C661 0.959 . S
H668 C661 0.961 . S
H669 C661 0.960 . S
H670 C662 0.930 . S
H671 C663 0.929 . S
H672 C680 0.929 . S
H673 C682 0.930 . S
H674 C684 0.930 . S
H675 C687 0.929 . S
H676 C690 0.930 . S
H677 C692 0.960 . S
H678 C692 0.960 . S
H679 C692 0.960 . S
C680 H672 0.929 . S
C680 C681 1.377 . S
C680 C682 1.384 . S
C681 C680 1.377 . S
C681 C687 1.390 . S
C682 H673 0.930 . S
C682 C680 1.384 . S
C682 C683 1.372 . S
C683 C682 1.372 . S
C683 C684 1.400 . S
C683 C688 1.490 . S
C684 H674 0.930 . S
C684 C683 1.400 . S
C684 C687 1.386 . S
H685 C701 0.930 . S
H686 C702 0.931 . S
C687 H675 0.929 . S
C687 C681 1.390 . S
C687 C684 1.386 . S
C688 C683 1.490 . S
C688 C690 1.395 . S
C688 C691 1.403 . S
H689 C695 0.930 . S
C690 H676 0.930 . S
C690 C688 1.395 . S
C690 C693 1.403 . S
C691 C688 1.403 . S
C691 C692 1.524 . S
C691 C695 1.400 . S
C692 H677 0.960 . S
C692 H678 0.960 . S
C692 H679 0.960 . S
C692 C691 1.524 . S
C693 C690 1.403 . S
C693 C694 1.392 . S
C693 C697 1.495 . S
C694 C693 1.392 . S
C694 C695 1.385 . S
C694 C696 1.478 . S
C695 H689 0.930 . S
C695 C691 1.400 . S
C695 C694 1.385 . S
C696 C694 1.478 . S
C696 C698 1.381 . S
C696 C702 1.383 . S
C697 C693 1.495 . S
C697 H703 0.959 . S
C697 H704 0.961 . S
C697 H705 0.960 . S
C698 C696 1.381 . S
C698 C699 1.394 . S
C698 H706 0.930 . S
C699 C698 1.394 . S
C699 C700 1.383 . S
C699 H707 0.929 . S
C700 C699 1.383 . S
C700 C701 1.377 . S
C701 H685 0.930 . S
C701 C700 1.377 . S
C701 C702 1.379 . S
C702 H686 0.931 . S
C702 C696 1.383 . S
C702 C701 1.379 . S
H703 C697 0.959 . S
H704 C697 0.961 . S
H705 C697 0.960 . S
H706 C698 0.930 . S
H707 C699 0.929 . S
H708 C716 0.929 . S
H709 C718 0.930 . S
H710 C720 0.930 . S
H711 C723 0.929 . S
H712 C726 0.930 . S
H713 C728 0.960 . S
H714 C728 0.960 . S
H715 C728 0.960 . S
C716 H708 0.929 . S
C716 C717 1.377 . S
C716 C718 1.384 . S
C717 C716 1.377 . S
C717 C723 1.390 . S
C718 H709 0.930 . S
C718 C716 1.384 . S
C718 C719 1.372 . S
C719 C718 1.372 . S
C719 C720 1.400 . S
C719 C724 1.490 . S
C720 H710 0.930 . S
C720 C719 1.400 . S
C720 C723 1.386 . S
H721 C737 0.930 . S
H722 C738 0.931 . S
C723 H711 0.929 . S
C723 C717 1.390 . S
C723 C720 1.386 . S
C724 C719 1.490 . S
C724 C726 1.395 . S
C724 C727 1.403 . S
H725 C731 0.930 . S
C726 H712 0.930 . S
C726 C724 1.395 . S
C726 C729 1.403 . S
C727 C724 1.403 . S
C727 C728 1.524 . S
C727 C731 1.400 . S
C728 H713 0.960 . S
C728 H714 0.960 . S
C728 H715 0.960 . S
C728 C727 1.524 . S
C729 C726 1.403 . S
C729 C730 1.392 . S
C729 C733 1.495 . S
C730 C729 1.392 . S
C730 C731 1.385 . S
C730 C732 1.478 . S
C731 H725 0.930 . S
C731 C727 1.400 . S
C731 C730 1.385 . S
C732 C730 1.478 . S
C732 C734 1.381 . S
C732 C738 1.383 . S
C733 C729 1.495 . S
C733 H739 0.959 . S
C733 H740 0.961 . S
C733 H741 0.960 . S
C734 C732 1.381 . S
C734 C735 1.394 . S
C734 H742 0.930 . S
C735 C734 1.394 . S
C735 C736 1.383 . S
C735 H743 0.929 . S
C736 C735 1.383 . S
C736 C737 1.377 . S
C737 H721 0.930 . S
C737 C736 1.377 . S
C737 C738 1.379 . S
C738 H722 0.931 . S
C738 C732 1.383 . S
C738 C737 1.379 . S
H739 C733 0.959 . S
H740 C733 0.961 . S
H741 C733 0.960 . S
H742 C734 0.930 . S
H743 C735 0.929 . S
H744 C752 0.929 . S
H745 C754 0.930 . S
H746 C756 0.930 . S
H747 C759 0.929 . S
H748 C762 0.930 . S
H749 C764 0.960 . S
H750 C764 0.960 . S
H751 C764 0.960 . S
C752 H744 0.929 . S
C752 C753 1.377 . S
C752 C754 1.384 . S
C753 C752 1.377 . S
C753 C759 1.390 . S
C754 H745 0.930 . S
C754 C752 1.384 . S
C754 C755 1.372 . S
C755 C754 1.372 . S
C755 C756 1.400 . S
C755 C760 1.490 . S
C756 H746 0.930 . S
C756 C755 1.400 . S
C756 C759 1.386 . S
H757 C773 0.930 . S
H758 C774 0.931 . S
C759 H747 0.929 . S
C759 C753 1.390 . S
C759 C756 1.386 . S
C760 C755 1.490 . S
C760 C762 1.395 . S
C760 C763 1.403 . S
H761 C767 0.930 . S
C762 H748 0.930 . S
C762 C760 1.395 . S
C762 C765 1.403 . S
C763 C760 1.403 . S
C763 C764 1.524 . S
C763 C767 1.400 . S
C764 H749 0.960 . S
C764 H750 0.960 . S
C764 H751 0.960 . S
C764 C763 1.524 . S
C765 C762 1.403 . S
C765 C766 1.392 . S
C765 C769 1.495 . S
C766 C765 1.392 . S
C766 C767 1.385 . S
C766 C768 1.478 . S
C767 H761 0.930 . S
C767 C763 1.400 . S
C767 C766 1.385 . S
C768 C766 1.478 . S
C768 C770 1.381 . S
C768 C774 1.383 . S
C769 C765 1.495 . S
C769 H775 0.959 . S
C769 H776 0.961 . S
C769 H777 0.960 . S
C770 C768 1.381 . S
C770 C771 1.394 . S
C770 H778 0.930 . S
C771 C770 1.394 . S
C771 C772 1.383 . S
C771 H779 0.929 . S
C772 C771 1.383 . S
C772 C773 1.377 . S
C773 H757 0.930 . S
C773 C772 1.377 . S
C773 C774 1.379 . S
C774 H758 0.931 . S
C774 C768 1.383 . S
C774 C773 1.379 . S
H775 C769 0.959 . S
H776 C769 0.961 . S
H777 C769 0.960 . S
H778 C770 0.930 . S
H779 C771 0.929 . S
H780 C788 0.929 . S
H781 C790 0.930 . S
H782 C792 0.930 . S
H783 C795 0.929 . S
H784 C798 0.930 . S
H785 C800 0.960 . S
H786 C800 0.960 . S
H787 C800 0.960 . S
C788 H780 0.929 . S
C788 C789 1.377 . S
C788 C790 1.384 . S
C789 C788 1.377 . S
C789 C795 1.390 . S
C790 H781 0.930 . S
C790 C788 1.384 . S
C790 C791 1.372 . S
C791 C790 1.372 . S
C791 C792 1.400 . S
C791 C796 1.490 . S
C792 H782 0.930 . S
C792 C791 1.400 . S
C792 C795 1.386 . S
H793 C809 0.930 . S
H794 C810 0.931 . S
C795 H783 0.929 . S
C795 C789 1.390 . S
C795 C792 1.386 . S
C796 C791 1.490 . S
C796 C798 1.395 . S
C796 C799 1.403 . S
H797 C803 0.930 . S
C798 H784 0.930 . S
C798 C796 1.395 . S
C798 C801 1.403 . S
C799 C796 1.403 . S
C799 C800 1.524 . S
C799 C803 1.400 . S
C800 H785 0.960 . S
C800 H786 0.960 . S
C800 H787 0.960 . S
C800 C799 1.524 . S
C801 C798 1.403 . S
C801 C802 1.392 . S
C801 C805 1.549 . S
C802 C801 1.392 . S
C802 C803 1.385 . S
C802 C804 1.478 . S
C803 H797 0.930 . S
C803 C799 1.400 . S
C803 C802 1.385 . S
C804 C802 1.478 . S
C804 C806 1.381 . S
C804 C810 1.383 . S
C805 C801 1.549 . S
C805 H811 0.905 1_554 S
C805 H812 0.967 . S
C805 H813 0.959 . S
C806 C804 1.381 . S
C806 C807 1.394 . S
C806 H814 0.930 . S
C807 C806 1.394 . S
C807 C808 1.383 . S
C807 H815 0.929 . S
C808 C807 1.383 . S
C808 C809 1.377 . S
C809 H793 0.930 . S
C809 C808 1.377 . S
C809 C810 1.379 . S
C810 H794 0.931 . S
C810 C804 1.383 . S
C810 C809 1.379 . S
H811 C805 0.905 1_556 S
H812 C805 0.967 . S
H813 C805 0.959 . S
H814 C806 0.930 . S
H815 C807 0.929 . S
H816 C824 0.929 . S
H817 C826 0.930 . S
H818 C828 0.930 . S
H819 C831 0.929 . S
H820 C834 0.930 . S
H821 C836 0.960 . S
H822 C836 0.960 . S
H823 C836 0.960 . S
C824 H816 0.929 . S
C824 C825 1.377 . S
C824 C826 1.384 . S
C825 C824 1.377 . S
C825 C831 1.390 . S
C826 H817 0.930 . S
C826 C824 1.384 . S
C826 C827 1.372 . S
C827 C826 1.372 . S
C827 C828 1.400 . S
C827 C832 1.490 . S
C828 H818 0.930 . S
C828 C827 1.400 . S
C828 C831 1.386 . S
H829 C845 0.930 . S
H830 C846 0.931 . S
C831 H819 0.929 . S
C831 C825 1.390 . S
C831 C828 1.386 . S
C832 C827 1.490 . S
C832 C834 1.395 . S
C832 C835 1.403 . S
H833 C839 0.930 . S
C834 H820 0.930 . S
C834 C832 1.395 . S
C834 C837 1.403 . S
C835 C832 1.403 . S
C835 C836 1.524 . S
C835 C839 1.400 . S
C836 H821 0.960 . S
C836 H822 0.960 . S
C836 H823 0.960 . S
C836 C835 1.524 . S
C837 C834 1.403 . S
C837 C838 1.392 . S
C837 C841 1.495 . S
C838 C837 1.392 . S
C838 C839 1.385 . S
C838 C840 1.478 . S
C839 H833 0.930 . S
C839 C835 1.400 . S
C839 C838 1.385 . S
C840 C838 1.478 . S
C840 C842 1.381 . S
C840 C846 1.383 . S
C841 C837 1.495 . S
C841 H847 0.959 . S
C841 H848 0.961 . S
C841 H849 0.960 . S
C842 C840 1.381 . S
C842 C843 1.394 . S
C842 H850 0.930 . S
C843 C842 1.394 . S
C843 C844 1.383 . S
C843 H851 0.929 . S
C844 C843 1.383 . S
C844 C845 1.377 . S
C845 H829 0.930 . S
C845 C844 1.377 . S
C845 C846 1.379 . S
C846 H830 0.931 . S
C846 C840 1.383 . S
C846 C845 1.379 . S
H847 C841 0.959 . S
H848 C841 0.961 . S
H849 C841 0.960 . S
H850 C842 0.930 . S
H851 C843 0.929 . S
H852 C860 0.929 . S
H853 C862 0.930 . S
H854 C864 0.930 . S
H855 C867 0.929 . S
H856 C870 0.930 . S
H857 C872 0.960 . S
H858 C872 0.960 . S
H859 C872 0.960 . S
C860 H852 0.929 . S
C860 C861 1.377 . S
C860 C862 1.384 . S
C861 C860 1.377 . S
C861 C867 1.390 . S
C862 H853 0.930 . S
C862 C860 1.384 . S
C862 C863 1.372 . S
C863 C862 1.372 . S
C863 C864 1.400 . S
C863 C868 1.490 . S
C864 H854 0.930 . S
C864 C863 1.400 . S
C864 C867 1.386 . S
H865 C881 0.930 . S
H866 C882 0.931 . S
C867 H855 0.929 . S
C867 C861 1.390 . S
C867 C864 1.386 . S
C868 C863 1.490 . S
C868 C870 1.395 . S
C868 C871 1.403 . S
H869 C875 0.930 . S
C870 H856 0.930 . S
C870 C868 1.395 . S
C870 C873 1.403 . S
C871 C868 1.403 . S
C871 C872 1.524 . S
C871 C875 1.400 . S
C872 H857 0.960 . S
C872 H858 0.960 . S
C872 H859 0.960 . S
C872 C871 1.524 . S
C873 C870 1.403 . S
C873 C874 1.392 . S
C873 C877 1.495 . S
C874 C873 1.392 . S
C874 C875 1.385 . S
C874 C876 1.478 . S
C875 H869 0.930 . S
C875 C871 1.400 . S
C875 C874 1.385 . S
C876 C874 1.478 . S
C876 C878 1.381 . S
C876 C882 1.383 . S
C877 C873 1.495 . S
C877 H883 0.959 . S
C877 H884 0.961 . S
C877 H885 0.960 . S
C878 C876 1.381 . S
C878 C879 1.394 . S
C878 H886 0.930 . S
C879 C878 1.394 . S
C879 C880 1.383 . S
C879 H887 0.929 . S
C880 C879 1.383 . S
C880 C881 1.377 . S
C881 H865 0.930 . S
C881 C880 1.377 . S
C881 C882 1.379 . S
C882 H866 0.931 . S
C882 C876 1.383 . S
C882 C881 1.379 . S
H883 C877 0.959 . S
H884 C877 0.961 . S
H885 C877 0.960 . S
H886 C878 0.930 . S
H887 C879 0.929 . S
H888 C896 0.929 . S
H889 C898 0.930 . S
H890 C900 0.930 . S
H891 C903 0.929 . S
H892 C906 0.930 . S
H893 C908 0.960 . S
H894 C908 0.960 . S
H895 C908 0.960 . S
C896 H888 0.929 . S
C896 C897 1.377 . S
C896 C898 1.384 . S
C897 C896 1.377 . S
C897 C903 1.390 . S
C898 H889 0.930 . S
C898 C896 1.384 . S
C898 C899 1.372 . S
C899 C898 1.372 . S
C899 C900 1.400 . S
C899 C904 1.490 . S
C900 H890 0.930 . S
C900 C899 1.400 . S
C900 C903 1.386 . S
H901 C917 0.930 . S
H902 C918 0.931 . S
C903 H891 0.929 . S
C903 C897 1.390 . S
C903 C900 1.386 . S
C904 C899 1.490 . S
C904 C906 1.395 . S
C904 C907 1.403 . S
H905 C911 0.930 . S
C906 H892 0.930 . S
C906 C904 1.395 . S
C906 C909 1.403 . S
C907 C904 1.403 . S
C907 C908 1.524 . S
C907 C911 1.400 . S
C908 H893 0.960 . S
C908 H894 0.960 . S
C908 H895 0.960 . S
C908 C907 1.524 . S
C909 C906 1.403 . S
C909 C910 1.392 . S
C909 C913 1.495 . S
C910 C909 1.392 . S
C910 C911 1.385 . S
C910 C912 1.478 . S
C911 H905 0.930 . S
C911 C907 1.400 . S
C911 C910 1.385 . S
C912 C910 1.478 . S
C912 C914 1.381 . S
C912 C918 1.383 . S
C913 C909 1.495 . S
C913 H919 0.959 . S
C913 H920 0.961 . S
C913 H921 0.960 . S
C914 C912 1.381 . S
C914 C915 1.394 . S
C914 H922 0.930 . S
C915 C914 1.394 . S
C915 C916 1.383 . S
C915 H923 0.929 . S
C916 C915 1.383 . S
C916 C917 1.377 . S
C917 H901 0.930 . S
C917 C916 1.377 . S
C917 C918 1.379 . S
C918 H902 0.931 . S
C918 C912 1.383 . S
C918 C917 1.379 . S
H919 C913 0.959 . S
H920 C913 0.961 . S
H921 C913 0.960 . S
H922 C914 0.930 . S
H923 C915 0.929 . S
H924 C932 0.929 . S
H925 C934 0.930 . S
H926 C936 0.930 . S
H927 C939 0.929 . S
H928 C942 0.930 . S
H929 C944 0.960 . S
H930 C944 0.960 . S
H931 C944 0.960 . S
C932 H924 0.929 . S
C932 C933 1.377 . S
C932 C934 1.384 . S
C933 C932 1.377 . S
C933 C939 1.390 . S
C934 H925 0.930 . S
C934 C932 1.384 . S
C934 C935 1.372 . S
C935 C934 1.372 . S
C935 C936 1.400 . S
C935 C940 1.490 . S
C936 H926 0.930 . S
C936 C935 1.400 . S
C936 C939 1.386 . S
H937 C953 0.930 . S
H938 C954 0.931 . S
C939 H927 0.929 . S
C939 C933 1.390 . S
C939 C936 1.386 . S
C940 C935 1.490 . S
C940 C942 1.395 . S
C940 C943 1.403 . S
H941 C947 0.930 . S
C942 H928 0.930 . S
C942 C940 1.395 . S
C942 C945 1.403 . S
C943 C940 1.403 . S
C943 C944 1.524 . S
C943 C947 1.400 . S
C944 H929 0.960 . S
C944 H930 0.960 . S
C944 H931 0.960 . S
C944 C943 1.524 . S
C945 C942 1.403 . S
C945 C946 1.392 . S
C945 C949 1.495 . S
C946 C945 1.392 . S
C946 C947 1.385 . S
C946 C948 1.478 . S
C947 H941 0.930 . S
C947 C943 1.400 . S
C947 C946 1.385 . S
C948 C946 1.478 . S
C948 C950 1.381 . S
C948 C954 1.383 . S
C949 C945 1.495 . S
C949 H955 0.959 . S
C949 H956 0.961 . S
C949 H957 0.960 . S
C950 C948 1.381 . S
C950 C951 1.394 . S
C950 H958 0.930 . S
C951 C950 1.394 . S
C951 C952 1.383 . S
C951 H959 0.929 . S
C952 C951 1.383 . S
C952 C953 1.377 . S
C953 H937 0.930 . S
C953 C952 1.377 . S
C953 C954 1.379 . S
C954 H938 0.931 . S
C954 C948 1.383 . S
C954 C953 1.379 . S
H955 C949 0.959 . S
H956 C949 0.961 . S
H957 C949 0.960 . S
H958 C950 0.930 . S
H959 C951 0.929 . S
H960 C968 0.929 . S
H961 C970 0.930 . S
H962 C972 0.930 . S
H963 C975 0.929 . S
H964 C978 0.930 . S
H965 C980 0.960 . S
H966 C980 0.960 . S
H967 C980 0.960 . S
C968 H960 0.929 . S
C968 C969 1.377 . S
C968 C970 1.384 . S
C969 C968 1.377 . S
C969 C975 1.390 . S
C970 H961 0.930 . S
C970 C968 1.384 . S
C970 C971 1.372 . S
C971 C970 1.372 . S
C971 C972 1.400 . S
C971 C976 1.490 . S
C972 H962 0.930 . S
C972 C971 1.400 . S
C972 C975 1.386 . S
H973 C989 0.930 . S
H974 C990 0.931 . S
C975 H963 0.929 . S
C975 C969 1.390 . S
C975 C972 1.386 . S
C976 C971 1.490 . S
C976 C978 1.395 . S
C976 C979 1.403 . S
H977 C983 0.930 . S
C978 H964 0.930 . S
C978 C976 1.395 . S
C978 C981 1.403 . S
C979 C976 1.403 . S
C979 C980 1.524 . S
C979 C983 1.400 . S
C980 H965 0.960 . S
C980 H966 0.960 . S
C980 H967 0.960 . S
C980 C979 1.524 . S
C981 C978 1.403 . S
C981 C982 1.392 . S
C981 C985 1.495 . S
C982 C981 1.392 . S
C982 C983 1.385 . S
C982 C984 1.478 . S
C983 H977 0.930 . S
C983 C979 1.400 . S
C983 C982 1.385 . S
C984 C982 1.478 . S
C984 C986 1.381 . S
C984 C990 1.383 . S
C985 C981 1.495 . S
C985 H991 0.959 . S
C985 H992 0.961 . S
C985 H993 0.960 . S
C986 C984 1.381 . S
C986 C987 1.394 . S
C986 H994 0.930 . S
C987 C986 1.394 . S
C987 C988 1.383 . S
C987 H995 0.929 . S
C988 C987 1.383 . S
C988 C989 1.377 . S
C989 H973 0.930 . S
C989 C988 1.377 . S
C989 C990 1.379 . S
C990 H974 0.931 . S
C990 C984 1.383 . S
C990 C989 1.379 . S
H991 C985 0.959 . S
H992 C985 0.961 . S
H993 C985 0.960 . S
H994 C986 0.930 . S
H995 C987 0.929 . S
H996 C1004 0.929 . S
H997 C1006 0.930 . S
H998 C1008 0.930 . S
H999 C1011 0.929 . S
H1000 C1014 0.930 . S
H1001 C1016 0.960 . S
H1002 C1016 0.960 . S
H1003 C1016 0.960 . S
C1004 H996 0.929 . S
C1004 C1005 1.377 . S
C1004 C1006 1.384 . S
C1005 C1004 1.377 . S
C1005 C1011 1.390 . S
C1006 H997 0.930 . S
C1006 C1004 1.384 . S
C1006 C1007 1.372 . S
C1007 C1006 1.372 . S
C1007 C1008 1.400 . S
C1007 C1012 1.490 . S
C1008 H998 0.930 . S
C1008 C1007 1.400 . S
C1008 C1011 1.386 . S
H1009 C1025 0.930 . S
H1010 C1026 0.906 1_556 S
C1011 H999 0.929 . S
C1011 C1005 1.390 . S
C1011 C1008 1.386 . S
C1012 C1007 1.490 . S
C1012 C1014 1.395 . S
C1012 C1015 1.403 . S
H1013 C1019 0.930 . S
C1014 H1000 0.930 . S
C1014 C1012 1.395 . S
C1014 C1017 1.403 . S
C1015 C1012 1.403 . S
C1015 C1016 1.524 . S
C1015 C1019 1.400 . S
C1016 H1001 0.960 . S
C1016 H1002 0.960 . S
C1016 H1003 0.960 . S
C1016 C1015 1.524 . S
C1017 C1014 1.403 . S
C1017 C1018 1.392 . S
C1017 C1021 1.495 1_556 S
C1018 C1017 1.392 . S
C1018 C1019 1.385 . S
C1018 C1020 1.478 . S
C1019 H1013 0.930 . S
C1019 C1015 1.400 . S
C1019 C1018 1.385 . S
C1020 C1018 1.478 . S
C1020 C1022 1.381 1_556 S
C1020 C1026 1.373 1_556 S
C1021 C1017 1.495 1_554 S
C1021 H1027 0.959 . S
C1021 H1028 0.961 . S
C1021 H1029 0.960 . S
C1022 C1020 1.381 1_554 S
C1022 C1023 1.394 . S
C1022 H1030 0.930 . S
C1023 C1022 1.394 . S
C1023 C1024 1.383 . S
C1023 H1031 0.929 . S
C1024 C1023 1.383 . S
C1024 C1025 1.377 . S
C1025 H1009 0.930 . S
C1025 C1024 1.377 . S
C1025 C1026 1.416 . S
C1026 H1010 0.906 1_554 S
C1026 C1020 1.373 1_554 S
C1026 C1025 1.416 . S
H1027 C1021 0.959 . S
H1028 C1021 0.961 . S
H1029 C1021 0.960 . S
H1030 C1022 0.930 . S
H1031 C1023 0.929 . S
H1032 C1040 0.929 . S
H1033 C1042 0.930 . S
H1034 C1044 0.930 . S
H1035 C1047 0.929 . S
H1036 C1050 0.930 . S
H1037 C1052 0.960 . S
H1038 C1052 0.960 . S
H1039 C1052 0.960 . S
C1040 H1032 0.929 . S
C1040 C1041 1.377 . S
C1040 C1042 1.384 . S
C1041 C1040 1.377 . S
C1041 C1047 1.390 . S
C1042 H1033 0.930 . S
C1042 C1040 1.384 . S
C1042 C1043 1.372 . S
C1043 C1042 1.372 . S
C1043 C1044 1.400 . S
C1043 C1048 1.490 . S
C1044 H1034 0.930 . S
C1044 C1043 1.400 . S
C1044 C1047 1.386 . S
H1045 C1061 0.930 . S
H1046 C1062 0.931 . S
C1047 H1035 0.929 . S
C1047 C1041 1.390 . S
C1047 C1044 1.386 . S
C1048 C1043 1.490 . S
C1048 C1050 1.395 . S
C1048 C1051 1.403 . S
H1049 C1055 0.930 . S
C1050 H1036 0.930 . S
C1050 C1048 1.395 . S
C1050 C1053 1.403 . S
C1051 C1048 1.403 . S
C1051 C1052 1.524 . S
C1051 C1055 1.400 . S
C1052 H1037 0.960 . S
C1052 H1038 0.960 . S
C1052 H1039 0.960 . S
C1052 C1051 1.524 . S
C1053 C1050 1.403 . S
C1053 C1054 1.392 . S
C1053 C1057 1.495 . S
C1054 C1053 1.392 . S
C1054 C1055 1.385 . S
C1054 C1056 1.478 . S
C1055 H1049 0.930 . S
C1055 C1051 1.400 . S
C1055 C1054 1.385 . S
C1056 C1054 1.478 . S
C1056 C1058 1.381 . S
C1056 C1062 1.383 . S
C1057 C1053 1.495 . S
C1057 H1063 0.959 . S
C1057 H1064 0.961 . S
C1057 H1065 0.960 . S
C1058 C1056 1.381 . S
C1058 C1059 1.394 . S
C1058 H1066 0.930 . S
C1059 C1058 1.394 . S
C1059 C1060 1.383 . S
C1059 H1067 0.929 . S
C1060 C1059 1.383 . S
C1060 C1061 1.377 . S
C1061 H1045 0.930 . S
C1061 C1060 1.377 . S
C1061 C1062 1.379 . S
C1062 H1046 0.931 . S
C1062 C1056 1.383 . S
C1062 C1061 1.379 . S
H1063 C1057 0.959 . S
H1064 C1057 0.961 . S
H1065 C1057 0.960 . S
H1066 C1058 0.930 . S
H1067 C1059 0.929 . S
H1068 C1076 0.929 . S
H1069 C1078 0.930 . S
H1070 C1080 0.930 . S
H1071 C1083 0.929 . S
H1072 C1086 0.930 . S
H1073 C1088 0.960 . S
H1074 C1088 0.960 . S
H1075 C1088 0.960 . S
C1076 H1068 0.929 . S
C1076 C1077 1.377 . S
C1076 C1078 1.384 . S
C1077 C1076 1.377 . S
C1077 C1083 1.390 . S
C1078 H1069 0.930 . S
C1078 C1076 1.384 . S
C1078 C1079 1.372 . S
C1079 C1078 1.372 . S
C1079 C1080 1.400 . S
C1079 C1084 1.490 . S
C1080 H1070 0.930 . S
C1080 C1079 1.400 . S
C1080 C1083 1.386 . S
H1081 C1097 0.930 . S
H1082 C1098 0.931 . S
C1083 H1071 0.929 . S
C1083 C1077 1.390 . S
C1083 C1080 1.386 . S
C1084 C1079 1.490 . S
C1084 C1086 1.395 . S
C1084 C1087 1.403 . S
H1085 C1091 0.930 . S
C1086 H1072 0.930 . S
C1086 C1084 1.395 . S
C1086 C1089 1.403 . S
C1087 C1084 1.403 . S
C1087 C1088 1.524 . S
C1087 C1091 1.400 . S
C1088 H1073 0.960 . S
C1088 H1074 0.960 . S
C1088 H1075 0.960 . S
C1088 C1087 1.524 . S
C1089 C1086 1.403 . S
C1089 C1090 1.392 . S
C1089 C1093 1.495 . S
C1090 C1089 1.392 . S
C1090 C1091 1.385 . S
C1090 C1092 1.478 . S
C1091 H1085 0.930 . S
C1091 C1087 1.400 . S
C1091 C1090 1.385 . S
C1092 C1090 1.478 . S
C1092 C1094 1.381 . S
C1092 C1098 1.383 . S
C1093 C1089 1.495 . S
C1093 H1099 0.959 . S
C1093 H1100 0.961 . S
C1093 H1101 0.960 . S
C1094 C1092 1.381 . S
C1094 C1095 1.394 . S
C1094 H1102 0.930 . S
C1095 C1094 1.394 . S
C1095 C1096 1.383 . S
C1095 H1103 0.929 . S
C1096 C1095 1.383 . S
C1096 C1097 1.377 . S
C1097 H1081 0.930 . S
C1097 C1096 1.377 . S
C1097 C1098 1.379 . S
C1098 H1082 0.931 . S
C1098 C1092 1.383 . S
C1098 C1097 1.379 . S
H1099 C1093 0.959 . S
H1100 C1093 0.961 . S
H1101 C1093 0.960 . S
H1102 C1094 0.930 . S
H1103 C1095 0.929 . S
H1104 C1112 0.929 . S
H1105 C1114 0.930 . S
H1106 C1116 0.930 . S
H1107 C1119 0.929 . S
H1108 C1122 0.930 . S
H1109 C1124 0.960 . S
H1110 C1124 0.960 . S
H1111 C1124 0.960 . S
C1112 H1104 0.929 . S
C1112 C1113 1.377 . S
C1112 C1114 1.384 . S
C1113 C1112 1.377 . S
C1113 C1119 1.390 . S
C1114 H1105 0.930 . S
C1114 C1112 1.384 . S
C1114 C1115 1.372 . S
C1115 C1114 1.372 . S
C1115 C1116 1.400 . S
C1115 C1120 1.490 . S
C1116 H1106 0.930 . S
C1116 C1115 1.400 . S
C1116 C1119 1.386 . S
H1117 C1133 0.930 . S
H1118 C1134 0.931 . S
C1119 H1107 0.929 . S
C1119 C1113 1.390 . S
C1119 C1116 1.386 . S
C1120 C1115 1.490 . S
C1120 C1122 1.395 . S
C1120 C1123 1.403 . S
H1121 C1127 0.930 . S
C1122 H1108 0.930 . S
C1122 C1120 1.395 . S
C1122 C1125 1.403 . S
C1123 C1120 1.403 . S
C1123 C1124 1.524 . S
C1123 C1127 1.400 . S
C1124 H1109 0.960 . S
C1124 H1110 0.960 . S
C1124 H1111 0.960 . S
C1124 C1123 1.524 . S
C1125 C1122 1.403 . S
C1125 C1126 1.392 . S
C1125 C1129 1.495 . S
C1126 C1125 1.392 . S
C1126 C1127 1.385 . S
C1126 C1128 1.478 . S
C1127 H1121 0.930 . S
C1127 C1123 1.400 . S
C1127 C1126 1.385 . S
C1128 C1126 1.478 . S
C1128 C1130 1.381 . S
C1128 C1134 1.383 . S
C1129 C1125 1.495 . S
C1129 H1135 0.959 . S
C1129 H1136 0.961 . S
C1129 H1137 0.960 . S
C1130 C1128 1.381 . S
C1130 C1131 1.394 . S
C1130 H1138 0.930 . S
C1131 C1130 1.394 . S
C1131 C1132 1.383 . S
C1131 H1139 0.929 . S
C1132 C1131 1.383 . S
C1132 C1133 1.377 . S
C1133 H1117 0.930 . S
C1133 C1132 1.377 . S
C1133 C1134 1.379 . S
C1134 H1118 0.931 . S
C1134 C1128 1.383 . S
C1134 C1133 1.379 . S
H1135 C1129 0.959 . S
H1136 C1129 0.961 . S
H1137 C1129 0.960 . S
H1138 C1130 0.930 . S
H1139 C1131 0.929 . S
H1140 C1148 0.929 . S
H1141 C1150 0.930 . S
H1142 C1152 0.930 . S
H1143 C1155 0.929 . S
H1144 C1158 0.930 . S
H1145 C1160 0.960 . S
H1146 C1160 0.960 . S
H1147 C1160 0.960 . S
C1148 H1140 0.929 . S
C1148 C1149 1.377 . S
C1148 C1150 1.384 . S
C1149 C1148 1.377 . S
C1149 C1155 1.390 . S
C1150 H1141 0.930 . S
C1150 C1148 1.384 . S
C1150 C1151 1.372 . S
C1151 C1150 1.372 . S
C1151 C1152 1.400 . S
C1151 C1156 1.490 . S
C1152 H1142 0.930 . S
C1152 C1151 1.400 . S
C1152 C1155 1.386 . S
H1153 C1169 0.930 . S
H1154 C1170 0.931 . S
C1155 H1143 0.929 . S
C1155 C1149 1.390 . S
C1155 C1152 1.386 . S
C1156 C1151 1.490 . S
C1156 C1158 1.395 . S
C1156 C1159 1.403 . S
H1157 C1163 0.930 . S
C1158 H1144 0.930 . S
C1158 C1156 1.395 . S
C1158 C1161 1.403 . S
C1159 C1156 1.403 . S
C1159 C1160 1.524 . S
C1159 C1163 1.400 . S
C1160 H1145 0.960 . S
C1160 H1146 0.960 . S
C1160 H1147 0.960 . S
C1160 C1159 1.524 . S
C1161 C1158 1.403 . S
C1161 C1162 1.392 . S
C1161 C1165 1.495 . S
C1162 C1161 1.392 . S
C1162 C1163 1.385 . S
C1162 C1164 1.478 . S
C1163 H1157 0.930 . S
C1163 C1159 1.400 . S
C1163 C1162 1.385 . S
C1164 C1162 1.478 . S
C1164 C1166 1.381 . S
C1164 C1170 1.383 . S
C1165 C1161 1.495 . S
C1165 H1171 0.959 . S
C1165 H1172 0.961 . S
C1165 H1173 0.960 . S
C1166 C1164 1.381 . S
C1166 C1167 1.394 . S
C1166 H1174 0.930 . S
C1167 C1166 1.394 . S
C1167 C1168 1.383 . S
C1167 H1175 0.929 . S
C1168 C1167 1.383 . S
C1168 C1169 1.377 . S
C1169 H1153 0.930 . S
C1169 C1168 1.377 . S
C1169 C1170 1.379 . S
C1170 H1154 0.931 . S
C1170 C1164 1.383 . S
C1170 C1169 1.379 . S
H1171 C1165 0.959 . S
H1172 C1165 0.961 . S
H1173 C1165 0.960 . S
H1174 C1166 0.930 . S
H1175 C1167 0.929 . S
H1176 C1184 0.929 . S
H1177 C1186 0.930 . S
H1178 C1188 0.930 . S
H1179 C1191 0.929 . S
H1180 C1194 0.930 . S
H1181 C1196 0.960 . S
H1182 C1196 0.960 . S
H1183 C1196 0.960 . S
C1184 H1176 0.929 . S
C1184 C1185 1.377 . S
C1184 C1186 1.384 . S
C1185 C1184 1.377 . S
C1185 C1191 1.390 . S
C1186 H1177 0.930 . S
C1186 C1184 1.384 . S
C1186 C1187 1.372 . S
C1187 C1186 1.372 . S
C1187 C1188 1.400 . S
C1187 C1192 1.490 . S
C1188 H1178 0.930 . S
C1188 C1187 1.400 . S
C1188 C1191 1.386 . S
H1189 C1205 0.930 . S
H1190 C1206 0.931 . S
C1191 H1179 0.929 . S
C1191 C1185 1.390 . S
C1191 C1188 1.386 . S
C1192 C1187 1.490 . S
C1192 C1194 1.395 . S
C1192 C1195 1.403 . S
H1193 C1199 0.930 . S
C1194 H1180 0.930 . S
C1194 C1192 1.395 . S
C1194 C1197 1.403 . S
C1195 C1192 1.403 . S
C1195 C1196 1.524 . S
C1195 C1199 1.400 . S
C1196 H1181 0.960 . S
C1196 H1182 0.960 . S
C1196 H1183 0.960 . S
C1196 C1195 1.524 . S
C1197 C1194 1.403 . S
C1197 C1198 1.392 . S
C1197 C1201 1.495 . S
C1198 C1197 1.392 . S
C1198 C1199 1.385 . S
C1198 C1200 1.478 . S
C1199 H1193 0.930 . S
C1199 C1195 1.400 . S
C1199 C1198 1.385 . S
C1200 C1198 1.478 . S
C1200 C1202 1.381 . S
C1200 C1206 1.383 . S
C1201 C1197 1.495 . S
C1201 H1207 0.959 . S
C1201 H1208 0.961 . S
C1201 H1209 0.960 . S
C1202 C1200 1.381 . S
C1202 C1203 1.394 . S
C1202 H1210 0.930 . S
C1203 C1202 1.394 . S
C1203 C1204 1.383 . S
C1203 H1211 0.929 . S
C1204 C1203 1.383 . S
C1204 C1205 1.377 . S
C1205 H1189 0.930 . S
C1205 C1204 1.377 . S
C1205 C1206 1.379 . S
C1206 H1190 0.931 . S
C1206 C1200 1.383 . S
C1206 C1205 1.379 . S
H1207 C1201 0.959 . S
H1208 C1201 0.961 . S
H1209 C1201 0.960 . S
H1210 C1202 0.930 . S
H1211 C1203 0.929 . S
H1212 C1220 0.929 . S
H1213 C1222 0.930 . S
H1214 C1224 0.930 . S
H1215 C1227 0.929 . S
H1216 C1230 0.930 . S
H1217 C1232 0.960 . S
H1218 C1232 0.960 . S
H1219 C1232 0.960 . S
C1220 H1212 0.929 . S
C1220 C1221 1.377 . S
C1220 C1222 1.384 . S
C1221 C1220 1.377 . S
C1221 C1227 1.390 . S
C1222 H1213 0.930 . S
C1222 C1220 1.384 . S
C1222 C1223 1.372 . S
C1223 C1222 1.372 . S
C1223 C1224 1.400 . S
C1223 C1228 1.490 . S
C1224 H1214 0.930 . S
C1224 C1223 1.400 . S
C1224 C1227 1.386 . S
H1225 C1241 0.930 . S
H1226 C1242 0.931 . S
C1227 H1215 0.929 . S
C1227 C1221 1.390 . S
C1227 C1224 1.386 . S
C1228 C1223 1.490 . S
C1228 C1230 1.395 . S
C1228 C1231 1.403 . S
H1229 C1235 0.930 . S
C1230 H1216 0.930 . S
C1230 C1228 1.395 . S
C1230 C1233 1.403 . S
C1231 C1228 1.403 . S
C1231 C1232 1.524 . S
C1231 C1235 1.400 . S
C1232 H1217 0.960 . S
C1232 H1218 0.960 . S
C1232 H1219 0.960 . S
C1232 C1231 1.524 . S
C1233 C1230 1.403 . S
C1233 C1234 1.392 . S
C1233 C1237 1.495 . S
C1234 C1233 1.392 . S
C1234 C1235 1.385 . S
C1234 C1236 1.478 . S
C1235 H1229 0.930 . S
C1235 C1231 1.400 . S
C1235 C1234 1.385 . S
C1236 C1234 1.478 . S
C1236 C1238 1.381 . S
C1236 C1242 1.383 . S
C1237 C1233 1.495 . S
C1237 H1243 0.959 . S
C1237 H1244 0.961 . S
C1237 H1245 0.960 . S
C1238 C1236 1.381 . S
C1238 C1239 1.394 . S
C1238 H1246 0.930 . S
C1239 C1238 1.394 . S
C1239 C1240 1.383 . S
C1239 H1247 0.929 . S
C1240 C1239 1.383 . S
C1240 C1241 1.377 . S
C1241 H1225 0.930 . S
C1241 C1240 1.377 . S
C1241 C1242 1.379 . S
C1242 H1226 0.931 . S
C1242 C1236 1.383 . S
C1242 C1241 1.379 . S
H1243 C1237 0.959 . S
H1244 C1237 0.961 . S
H1245 C1237 0.960 . S
H1246 C1238 0.930 . S
H1247 C1239 0.929 . S
H1248 C1256 0.929 . S
H1249 C1258 0.930 . S
H1250 C1260 0.930 . S
H1251 C1263 0.929 . S
H1252 C1266 0.930 . S
H1253 C1268 0.960 . S
H1254 C1268 0.960 . S
H1255 C1268 0.960 . S
C1256 H1248 0.929 . S
C1256 C1257 1.377 . S
C1256 C1258 1.384 . S
C1257 C1256 1.377 . S
C1257 C1263 1.390 . S
C1258 H1249 0.930 . S
C1258 C1256 1.384 . S
C1258 C1259 1.372 . S
C1259 C1258 1.372 . S
C1259 C1260 1.400 . S
C1259 C1264 1.490 . S
C1260 H1250 0.930 . S
C1260 C1259 1.400 . S
C1260 C1263 1.386 . S
H1261 C1277 0.930 . S
H1262 C1278 0.931 . S
C1263 H1251 0.929 . S
C1263 C1257 1.390 . S
C1263 C1260 1.386 . S
C1264 C1259 1.490 . S
C1264 C1266 1.395 . S
C1264 C1267 1.403 . S
H1265 C1271 0.930 . S
C1266 H1252 0.930 . S
C1266 C1264 1.395 . S
C1266 C1269 1.403 1_554 S
C1267 C1264 1.403 . S
C1267 C1268 1.524 . S
C1267 C1271 1.400 1_554 S
C1268 H1253 0.960 . S
C1268 H1254 0.960 . S
C1268 H1255 0.960 . S
C1268 C1267 1.524 . S
C1269 C1266 1.403 1_556 S
C1269 C1270 1.392 . S
C1269 C1273 1.495 . S
C1270 C1269 1.392 . S
C1270 C1271 1.385 . S
C1270 C1272 1.478 . S
C1271 H1265 0.930 . S
C1271 C1267 1.400 1_556 S
C1271 C1270 1.385 . S
C1272 C1270 1.478 . S
C1272 C1274 1.381 . S
C1272 C1278 1.383 . S
C1273 C1269 1.495 . S
C1273 H1279 0.959 . S
C1273 H1280 0.961 . S
C1273 H1281 0.960 . S
C1274 C1272 1.381 . S
C1274 C1275 1.394 . S
C1274 H1282 0.930 . S
C1275 C1274 1.394 . S
C1275 C1276 1.383 . S
C1275 H1283 0.929 . S
C1276 C1275 1.383 . S
C1276 C1277 1.377 . S
C1277 H1261 0.930 . S
C1277 C1276 1.377 . S
C1277 C1278 1.379 . S
C1278 H1262 0.931 . S
C1278 C1272 1.383 . S
C1278 C1277 1.379 . S
H1279 C1273 0.959 . S
H1280 C1273 0.961 . S
H1281 C1273 0.960 . S
H1282 C1274 0.930 . S
H1283 C1275 0.929 . S
H1284 C1292 0.929 . S
H1285 C1294 0.930 . S
H1286 C1296 0.930 . S
H1287 C1299 0.929 . S
H1288 C1302 0.930 . S
H1289 C1304 0.960 . S
H1290 C1304 0.960 . S
H1291 C1304 0.960 . S
C1292 H1284 0.929 . S
C1292 C1293 1.377 . S
C1292 C1294 1.384 . S
C1293 C1292 1.377 . S
C1293 C1299 1.390 . S
C1294 H1285 0.930 . S
C1294 C1292 1.384 . S
C1294 C1295 1.372 . S
C1295 C1294 1.372 . S
C1295 C1296 1.400 . S
C1295 C1300 1.490 . S
C1296 H1286 0.930 . S
C1296 C1295 1.400 . S
C1296 C1299 1.386 . S
H1297 C1313 0.930 . S
H1298 C1314 0.931 . S
C1299 H1287 0.929 . S
C1299 C1293 1.390 . S
C1299 C1296 1.386 . S
C1300 C1295 1.490 . S
C1300 C1302 1.395 . S
C1300 C1303 1.403 . S
H1301 C1307 0.930 . S
C1302 H1288 0.930 . S
C1302 C1300 1.395 . S
C1302 C1305 1.403 . S
C1303 C1300 1.403 . S
C1303 C1304 1.524 . S
C1303 C1307 1.400 . S
C1304 H1289 0.960 . S
C1304 H1290 0.960 . S
C1304 H1291 0.960 . S
C1304 C1303 1.524 . S
C1305 C1302 1.403 . S
C1305 C1306 1.392 . S
C1305 C1309 1.495 . S
C1306 C1305 1.392 . S
C1306 C1307 1.385 . S
C1306 C1308 1.478 . S
C1307 H1301 0.930 . S
C1307 C1303 1.400 . S
C1307 C1306 1.385 . S
C1308 C1306 1.478 . S
C1308 C1310 1.381 . S
C1308 C1314 1.383 . S
C1309 C1305 1.495 . S
C1309 H1315 0.959 . S
C1309 H1316 0.961 . S
C1309 H1317 0.960 . S
C1310 C1308 1.381 . S
C1310 C1311 1.394 . S
C1310 H1318 0.930 . S
C1311 C1310 1.394 . S
C1311 C1312 1.383 . S
C1311 H1319 0.929 . S
C1312 C1311 1.383 . S
C1312 C1313 1.377 . S
C1313 H1297 0.930 . S
C1313 C1312 1.377 . S
C1313 C1314 1.379 . S
C1314 H1298 0.931 . S
C1314 C1308 1.383 . S
C1314 C1313 1.379 . S
H1315 C1309 0.959 . S
H1316 C1309 0.961 . S
H1317 C1309 0.960 . S
H1318 C1310 0.930 . S
H1319 C1311 0.929 . S
C484 C442 1.677 . S
C465 C29 1.592 . S
C501 C115 1.553 . S
C520 C383 1.573 . S
C537 C153 1.588 . S
C556 C386 1.674 . S
C573 C239 1.545 . S
C592 C400 1.571 . S
C628 C425 1.619 . S
C609 C301 1.597 . S
C645 C339 1.838 . S
C664 C428 1.945 . S
C681 C91 1.572 . S
C700 C397 1.664 . S
C717 C177 1.529 . S
C736 C411 1.549 . S
C753 C215 1.553 . S
C772 C414 1.637 . S
C808 C439 1.938 . S
C789 C277 1.820 . S
C844 C453 1.601 . S
C825 C363 1.582 . S
C880 C372 1.518 . S
C861 C53 1.504 . S
C897 C35 1.530 . S
C916 C395 1.550 . S
C933 C109 1.412 . S
C952 C409 1.512 . S
C988 C419 1.453 . S
C969 C159 1.431 . S
C1005 C233 1.592 . S
C1024 C437 1.705 . S
C1060 C451 1.530 . S
C1041 C295 1.414 . S
C1096 C377 1.394 . S
C1077 C345 1.373 . S
C1132 C447 1.480 . S
C1113 C97 1.464 . S
C1149 C171 1.416 . S
C1168 C381 1.525 . S
C1204 C391 1.590 . S
C1185 C221 1.562 . S
C1221 C283 1.402 . S
C1240 C405 1.421 . S
C1257 C357 1.417 . S
C1276 C423 1.540 . S
C1293 C47 1.621 . S
C1312 C433 1.748 . S
