# Generated by pormake.
# Topology pyr, (3,6)-cn, num edge types: 1
# Building blocks:
#     Node 0, Type 0, BuildingBlock: BETDAH_clean_linker_0, # of connection points: 3
#     Node 1, Type 0, BuildingBlock: BETDAH_clean_linker_0, # of connection points: 3
#     Node 2, Type 0, BuildingBlock: BETDAH_clean_linker_0, # of connection points: 3
#     Node 3, Type 0, BuildingBlock: BETDAH_clean_linker_0, # of connection points: 3
#     Node 4, Type 0, BuildingBlock: BETDAH_clean_linker_0, # of connection points: 3
#     Node 5, Type 0, BuildingBlock: BETDAH_clean_linker_0, # of connection points: 3
#     Node 6, Type 0, BuildingBlock: BETDAH_clean_linker_0, # of connection points: 3
#     Node 7, Type 0, BuildingBlock: BETDAH_clean_linker_0, # of connection points: 3
#     Node 8, Type 1, BuildingBlock: FUNLAD_clean_sbu_0, # of connection points: 6
#     Node 9, Type 1, BuildingBlock: FUNLAD_clean_sbu_0, # of connection points: 6
#     Node 10, Type 1, BuildingBlock: FUNLAD_clean_sbu_0, # of connection points: 6
#     Node 11, Type 1, BuildingBlock: FUNLAD_clean_sbu_0, # of connection points: 6
#     Edge 12, Type (0, 1), BuildingBlock: OJICUG_clean_linker_0, # of connection points: 2
#     Edge 13, Type (0, 1), BuildingBlock: OJICUG_clean_linker_0, # of connection points: 2
#     Edge 14, Type (0, 1), BuildingBlock: OJICUG_clean_linker_0, # of connection points: 2
#     Edge 15, Type (0, 1), BuildingBlock: OJICUG_clean_linker_0, # of connection points: 2
#     Edge 16, Type (0, 1), BuildingBlock: OJICUG_clean_linker_0, # of connection points: 2
#     Edge 17, Type (0, 1), BuildingBlock: OJICUG_clean_linker_0, # of connection points: 2
#     Edge 18, Type (0, 1), BuildingBlock: OJICUG_clean_linker_0, # of connection points: 2
#     Edge 19, Type (0, 1), BuildingBlock: OJICUG_clean_linker_0, # of connection points: 2
#     Edge 20, Type (0, 1), BuildingBlock: OJICUG_clean_linker_0, # of connection points: 2
#     Edge 21, Type (0, 1), BuildingBlock: OJICUG_clean_linker_0, # of connection points: 2
#     Edge 22, Type (0, 1), BuildingBlock: OJICUG_clean_linker_0, # of connection points: 2
#     Edge 23, Type (0, 1), BuildingBlock: OJICUG_clean_linker_0, # of connection points: 2
#     Edge 24, Type (0, 1), BuildingBlock: OJICUG_clean_linker_0, # of connection points: 2
#     Edge 25, Type (0, 1), BuildingBlock: OJICUG_clean_linker_0, # of connection points: 2
#     Edge 26, Type (0, 1), BuildingBlock: OJICUG_clean_linker_0, # of connection points: 2
#     Edge 27, Type (0, 1), BuildingBlock: OJICUG_clean_linker_0, # of connection points: 2
#     Edge 28, Type (0, 1), BuildingBlock: OJICUG_clean_linker_0, # of connection points: 2
#     Edge 29, Type (0, 1), BuildingBlock: OJICUG_clean_linker_0, # of connection points: 2
#     Edge 30, Type (0, 1), BuildingBlock: OJICUG_clean_linker_0, # of connection points: 2
#     Edge 31, Type (0, 1), BuildingBlock: OJICUG_clean_linker_0, # of connection points: 2
#     Edge 32, Type (0, 1), BuildingBlock: OJICUG_clean_linker_0, # of connection points: 2
#     Edge 33, Type (0, 1), BuildingBlock: OJICUG_clean_linker_0, # of connection points: 2
#     Edge 34, Type (0, 1), BuildingBlock: OJICUG_clean_linker_0, # of connection points: 2
#     Edge 35, Type (0, 1), BuildingBlock: OJICUG_clean_linker_0, # of connection points: 2
# Relax obj value: 0.292
# Max RMSD: 0.218
# Mean RMSD: 0.135
data_MOF--net-pry--node1-FUNLAD_clean_sbu_0--node2-BETDAH_clean_linker_0--edge1-OJICUG_clean_linker_0
_symmetry_space_group_name_H-M    P1
_symmetry_Int_Tables_number       1
_symmetry_cell_setting            triclinic
loop_
_symmetry_equiv_pos_as_xyz
'x, y, z'
_cell_length_a     24.478688
_cell_length_b     27.060196
_cell_length_c     28.043069
_cell_angle_alpha  90.061716
_cell_angle_beta   90.490487
_cell_angle_gamma 85.434912
loop_
_atom_site_label
_atom_site_type_symbol
_atom_site_fract_x
_atom_site_fract_y
_atom_site_fract_z
_atom_type_partial_charge
H0 H 0.21472 0.13426 0.26254 0.0
H1 H 0.18924 0.24734 0.15342 0.0
H2 H 0.07377 0.23917 0.2667 0.0
C3 C 0.19055 0.16539 0.24678 0.0
C4 C 0.1422 0.18388 0.26998 0.0
C5 C 0.20883 0.18791 0.20463 0.0
C6 C 0.17721 0.23003 0.18607 0.0
C7 C 0.12848 0.2485 0.20861 0.0
C8 C 0.11168 0.22509 0.25003 0.0
N9 N 0.09279 0.28846 0.1901 0.0
C10 C 0.10409 0.32586 0.15803 0.0
H11 H 0.49348 0.88064 0.80869 0.0
H12 H 0.36927 1.00281 0.81384 0.0
H13 H 0.36822 0.89971 0.69864 0.0
C14 C 0.45766 0.90095 0.79339 0.0
C15 C 0.43467 0.88458 0.7495 0.0
C16 C 0.43493 0.94482 0.8165 0.0
C17 C 0.38829 0.97016 0.79628 0.0
C18 C 0.36476 0.95442 0.75414 0.0
C19 C 0.38789 0.91209 0.73075 0.0
N20 N 0.31669 0.98196 0.73748 0.0
C21 C 0.29262 0.97838 0.69271 0.0
H22 H 0.71558 0.45933 0.05004 0.0
H23 H 0.66446 0.61492 0.06171 0.0
H24 H 0.54496 0.50782 0.06603 0.0
C25 C 0.68369 0.4889 0.05549 0.0
C26 C 0.62885 0.47751 0.05933 0.0
C27 C 0.69721 0.53847 0.05685 0.0
C28 C 0.65528 0.57642 0.06336 0.0
C29 C 0.60055 0.56532 0.0668 0.0
C30 C 0.58762 0.51593 0.06518 0.0
N31 N 0.55848 0.60318 0.05873 0.0
C32 C 0.54131 0.60882 1.01181 0.0
H33 H 0.86137 0.69428 0.55322 0.0
H34 H 0.98487 0.62602 0.46114 0.0
H35 H 0.84982 0.54484 0.50469 0.0
C36 C 0.8793 0.66188 0.53459 0.0
C37 C 0.85117 0.61876 0.5337 0.0
C38 C 0.92758 0.66487 0.5085 0.0
C39 C 0.9481 0.62374 0.482 0.0
C40 C 0.92 0.58046 0.48032 0.0
C41 C 0.87262 0.57747 0.50755 0.0
N42 N 0.93486 0.54263 0.44676 0.0
C43 C 0.95445 0.55503 0.40233 0.0
H44 H 0.99172 0.87913 0.8134 0.0
H45 H 0.87017 0.89942 0.92467 0.0
H46 H 0.86793 1.00169 0.80867 0.0
C47 C 0.95641 0.89963 0.82886 0.0
C48 C 0.93323 0.94342 0.80571 0.0
C49 C 0.93476 0.88364 0.87304 0.0
C50 C 0.88869 0.91145 0.89219 0.0
C51 C 0.86494 0.95371 0.86876 0.0
C52 C 0.8873 0.96907 0.82625 0.0
N53 N 0.81744 0.98165 0.88563 0.0
C54 C 0.79375 0.97856 0.93032 0.0
H55 H 0.71159 0.13706 0.36282 0.0
H56 H 0.68259 0.24386 0.47681 0.0
H57 H 0.56616 0.23661 0.36213 0.0
C58 C 0.68628 0.16661 0.37972 0.0
C59 C 0.63707 0.18429 0.357 0.0
C60 C 0.70385 0.18761 0.42303 0.0
C61 C 0.67093 0.22785 0.44319 0.0
C62 C 0.62114 0.24554 0.4211 0.0
C63 C 0.60491 0.22341 0.37844 0.0
N64 N 0.58332 0.28219 0.44194 0.0
C65 C 0.59365 0.32121 0.47273 0.0
H66 H 0.37909 0.69337 0.05182 0.0
H67 H 0.36234 0.54582 0.10348 0.0
H68 H 0.49477 0.62744 0.15368 0.0
C69 C 0.39515 0.66145 0.07233 0.0
C70 C 0.44112 0.66521 0.10198 0.0
C71 C 0.3661 0.61875 0.07263 0.0
C72 C 0.38569 0.57809 0.10094 0.0
C73 C 0.43151 0.58157 0.13082 0.0
C74 C 0.45962 0.62472 0.13033 0.0
N75 N 0.4441 0.54497 0.1662 0.0
C76 C 0.45745 0.55941 0.2122 0.0
H77 H 0.20596 0.45781 0.59545 0.0
H78 H 0.15405 0.61362 0.58703 0.0
H79 H 0.03574 0.50528 0.57432 0.0
C80 C 0.17396 0.48742 0.59007 0.0
C81 C 0.11951 0.47577 0.58414 0.0
C82 C 0.18693 0.53706 0.59153 0.0
C83 C 0.14488 0.57513 0.58526 0.0
C84 C 0.09049 0.56359 0.57854 0.0
C85 C 0.07803 0.51396 0.57828 0.0
N86 N 0.04746 0.60162 0.57969 0.0
C87 C 1.01401 0.60305 0.61928 0.0
C88 C 0.05881 0.09963 0.44531 0.0
N89 N 0.04148 0.1734 0.57592 0.0
C90 C 0.09379 0.18543 0.569 0.0
C91 C 0.1078 0.23367 0.57585 0.0
C92 C 0.06732 0.27104 0.588 0.0
C93 C 1.01407 0.25743 0.5972 0.0
C94 C 1.00206 0.20801 0.59119 0.0
Zn95 Zn 0.02346 0.10508 0.55094 0.0
C96 C 0.91302 0.10702 0.50557 0.0
N97 N 0.99787 0.96493 0.4912 0.0
C98 C 0.03769 0.93355 0.47144 0.0
C99 C 0.94916 0.94883 0.50483 0.0
C100 C 0.94079 0.89874 0.50281 0.0
C101 C 0.98277 0.86504 0.48634 0.0
C102 C 0.03075 0.88282 0.46838 0.0
Zn103 Zn 1.01384 1.03261 0.51628 0.0
O104 O 0.05295 0.1271 0.48213 0.0
C105 C 0.12245 1.03172 0.56184 0.0
O106 O 0.04534 0.05515 0.44798 0.0
H107 H 0.91838 0.97422 0.521 0.0
H108 H 0.12457 0.15842 0.55542 0.0
H109 H 0.07628 0.94721 0.46132 0.0
O110 O 0.10284 0.07546 0.57083 0.0
O111 O 0.09389 1.00321 0.53793 0.0
H112 H 0.96059 0.19805 0.59614 0.0
O113 O 0.98562 1.00964 0.58545 0.0
O114 O 0.99548 0.08073 0.6205 0.0
O115 O 0.9321 0.06316 0.49503 0.0
O116 O 0.9426 0.13396 0.53046 0.0
C117 C 0.98416 0.0355 0.62342 0.0
H118 H 0.14975 0.24181 0.56968 0.0
H119 H 0.98131 0.2849 0.60646 0.0
H120 H 0.90301 0.88608 0.51642 0.0
H121 H 0.0638 0.85753 0.45533 0.0
C122 C 0.6242 1.03445 0.06013 0.0
N123 N 0.54307 0.17699 1.04876 0.0
C124 C 0.59616 0.18763 0.05498 0.0
C125 C 0.61107 0.23586 0.05074 0.0
C126 C 0.5709 0.27472 1.04214 0.0
C127 C 0.51671 0.26281 1.03346 0.0
C128 C 0.50368 0.21336 1.03673 0.0
Zn129 Zn 0.52486 0.10772 0.07187 0.0
C130 C 0.48548 0.03877 0.99854 0.0
N131 N 0.50134 0.96665 0.12971 0.0
C132 C 0.54192 0.9358 0.14958 0.0
C133 C 0.45328 0.94966 0.11476 0.0
C134 C 0.44658 0.8992 0.11525 0.0
C135 C 0.4895 0.86621 0.13174 0.0
C136 C 0.53663 0.88478 0.15124 0.0
Zn137 Zn 0.51622 0.03477 0.10583 0.0
O138 O 0.60417 0.07818 0.05148 0.0
C139 C 0.56055 0.10096 0.17786 0.0
O140 O 0.59635 1.0059 0.08419 0.0
H141 H 0.42188 0.97475 0.09862 0.0
H142 H 0.62712 0.15952 0.06641 0.0
H143 H 0.57996 0.95022 0.16075 0.0
O144 O 0.55477 0.12869 0.14122 0.0
O145 O 0.54772 0.05635 0.17449 0.0
H146 H 0.46157 0.20468 1.03248 0.0
O147 O 0.43453 0.06443 0.1272 0.0
O148 O 0.4439 0.13594 0.09296 0.0
O149 O 0.48763 1.01279 1.03638 0.0
O150 O 0.49614 0.08422 1.00171 0.0
C151 C 0.41506 0.10847 0.1176 0.0
H152 H 0.65362 0.24272 0.05637 0.0
H153 H 0.48414 0.2915 1.02686 0.0
H154 H 0.40948 0.88581 0.10044 0.0
H155 H 0.57034 0.85997 0.16433 0.0
C156 C 0.54338 0.50668 0.573 0.0
N157 N 0.54445 0.56779 0.71252 0.0
C158 C 0.51405 0.53729 0.73801 0.0
C159 C 0.51521 0.53866 0.78791 0.0
C160 C 0.54819 0.57148 0.81133 0.0
C161 C 0.58176 0.59984 0.784 0.0
C162 C 0.57913 0.59754 0.7346 0.0
Zn163 Zn 0.52687 0.58553 0.64316 0.0
C164 C 0.62667 0.61912 0.59301 0.0
N165 N 0.49076 0.63702 0.50122 0.0
C166 C 0.4517 0.60959 0.4819 0.0
C167 C 0.5226 0.6633 0.47248 0.0
C168 C 0.51717 0.66054 0.42258 0.0
C169 C 0.47784 0.6314 0.40249 0.0
C170 C 0.44396 0.60707 0.43295 0.0
Zn171 Zn 0.50951 0.62104 0.57235 0.0
O172 O 0.5444 0.51062 0.61829 0.0
C173 C 0.40968 0.58528 0.61965 0.0
O174 O 0.52987 0.54534 0.54831 0.0
H175 H 0.55448 0.68389 0.48788 0.0
H176 H 0.48626 0.51434 0.71984 0.0
H177 H 0.42889 0.58591 0.50363 0.0
O178 O 0.44233 0.57189 0.65347 0.0
O179 O 0.42765 0.60654 0.5836 0.0
H180 H 0.6015 0.62288 0.71413 0.0
O181 O 0.49092 0.69669 0.59889 0.0
O182 O 0.50964 0.66111 0.66788 0.0
O183 O 0.59121 0.63514 0.56234 0.0
O184 O 0.61135 0.59747 0.63024 0.0
C185 C 0.4957 0.70028 0.64424 0.0
H186 H 0.4892 0.51573 0.80785 0.0
H187 H 0.60712 0.62623 0.80045 0.0
H188 H 0.54441 0.67959 0.40004 0.0
H189 H 0.41422 0.58307 0.41899 0.0
C190 C 1.00273 0.70107 0.97941 0.0
N191 N 0.02368 0.64644 0.12319 0.0
C192 C 0.06698 0.62873 0.15072 0.0
C193 C 0.06079 0.6222 0.19959 0.0
C194 C 1.00942 0.63348 0.22041 0.0
C195 C 0.9672 0.65702 0.19225 0.0
C196 C 0.97533 0.66332 0.14336 0.0
Zn197 Zn 0.02639 0.62501 0.05284 0.0
C198 C 0.91938 0.58856 1.02331 0.0
N199 N 0.03458 0.56446 0.91351 0.0
C200 C 0.06625 0.59147 0.88558 0.0
C201 C 0.99636 0.53634 0.89399 0.0
C202 C 0.98576 0.53824 0.84481 0.0
C203 C 1.01464 0.56959 0.81618 0.0
C204 C 0.05709 0.59436 0.83674 0.0
Zn205 Zn 0.03223 0.58581 0.98337 0.0
O206 O 1.00295 0.69907 1.02496 0.0
C207 C 0.13966 0.62001 1.01711 0.0
O208 O 1.01385 0.66098 0.95645 0.0
H209 H 0.97116 0.51551 0.91677 0.0
H210 H 0.10486 0.61461 0.13436 0.0
H211 H 0.09534 0.61471 0.90141 0.0
O212 O 0.10865 0.63957 1.04907 0.0
O213 O 0.11926 0.59454 0.98428 0.0
H214 H 0.94124 0.67709 0.12103 0.0
O215 O 0.05061 0.51186 1.00979 0.0
O216 O 0.0506 0.55016 0.07864 0.0
O217 O 0.94596 0.57525 0.98605 0.0
O218 O 0.94369 0.61007 0.05651 0.0
C219 C 0.05769 0.51 0.05483 0.0
H220 H 0.09482 0.60505 0.22017 0.0
H221 H 0.92688 0.66643 0.20681 0.0
H222 H 0.95309 0.51811 0.82995 0.0
H223 H 0.08123 0.61791 0.81558 0.0
C224 C 0.10536 0.19172 0.35381 0.0
C225 C 0.1231 0.1612 0.31535 0.0
H226 H 0.072 0.19662 0.42419 0.0
C227 C 0.12021 0.10962 0.32023 0.0
H228 H 0.10734 0.23151 0.35168 0.0
C229 C 0.09902 0.0894 0.36197 0.0
C230 C 0.08105 0.12016 0.4003 0.0
H231 H 0.13316 0.08496 0.29132 0.0
H232 H 0.0969 0.04965 0.36425 0.0
C233 C 0.0851 0.17157 0.3956 0.0
C234 C 0.46005 0.93903 0.90465 0.0
C235 C 0.45679 0.96619 0.8619 0.0
H236 H 0.47039 0.94042 0.98079 0.0
C237 C 0.46468 1.01734 0.86446 0.0
H238 H 0.45318 0.89998 0.90437 0.0
C239 C 0.47383 0.04089 0.9083 0.0
C240 C 0.4751 1.01421 0.95134 0.0
H241 H 0.46205 0.03965 0.83235 0.0
H242 H 0.47912 0.08024 0.90846 0.0
C243 C 0.46899 0.96266 0.94865 0.0
C244 C 0.49245 0.59528 0.93596 0.0
C245 C 0.54072 0.60281 0.96106 0.0
H246 H 0.45693 0.57928 0.86802 0.0
C247 C 0.59117 0.59793 0.93781 0.0
H248 H 0.45332 0.59784 0.95396 0.0
C249 C 0.59361 0.58619 0.88954 0.0
C250 C 0.54547 0.57932 0.86357 0.0
H251 H 0.62899 0.60229 0.95721 0.0
H252 H 0.6333 0.58232 0.87255 0.0
C253 C 0.49476 0.58379 0.88726 0.0
C254 C 0.95014 0.62329 0.34449 0.0
C255 C 0.97032 0.57522 0.35752 0.0
H256 H 0.94746 0.6801 0.29108 0.0
C257 C 1.00502 0.54718 0.32673 0.0
H258 H 0.92327 0.64542 0.36813 0.0
C259 C 0.01879 0.56678 0.28274 0.0
C260 C 0.99812 0.61485 0.26894 0.0
H261 H 0.02079 0.50993 0.33631 0.0
H262 H 0.0443 0.5436 0.25893 0.0
C263 C 0.96386 0.64301 0.30049 0.0
C264 C 0.27685 0.11604 0.18104 0.0
C265 C 0.26075 0.16732 0.18038 0.0
H266 H 0.33714 0.05746 0.16209 0.0
C267 C 0.29534 0.19862 0.1569 0.0
H268 H 0.25125 0.09023 0.19759 0.0
C269 C 0.34441 0.17946 0.13559 0.0
C270 C 0.3609 0.1284 0.13733 0.0
H271 H 0.28533 0.23829 0.1559 0.0
H272 H 0.37012 0.20498 0.11868 0.0
C273 C 0.32616 0.09698 0.16016 0.0
C274 C 0.25465 1.034 0.6304 0.0
C275 C 0.25936 0.9865 0.65041 0.0
H276 H 0.20746 0.08544 0.58558 0.0
C277 C 0.22427 0.95113 0.63493 0.0
H278 H 0.28113 0.06189 0.64234 0.0
C279 C 0.18226 0.96439 0.60193 0.0
C280 C 0.17452 1.01342 0.58504 0.0
H281 H 0.22701 0.91441 0.65059 0.0
H282 H 0.15326 0.93759 0.59282 0.0
C283 C 0.21245 0.04745 0.59808 0.0
C284 C 0.77798 0.58624 0.07663 0.0
C285 C 0.75416 0.55115 1.04791 0.0
H286 H 0.84855 0.62557 0.09129 0.0
C287 C 0.78444 0.52953 1.00973 0.0
H288 H 0.75566 0.60347 0.10628 0.0
C289 C 0.83762 0.54259 1.00068 0.0
C290 C 0.86174 0.57712 1.02997 0.0
H291 H 0.76674 0.50292 0.98652 0.0
H292 H 0.86014 0.52503 0.9713 0.0
C293 C 0.83121 0.59887 0.06795 0.0
C294 C 0.75585 0.65777 0.53692 0.0
C295 C 0.79495 0.62047 0.55278 0.0
H296 H 0.67195 0.68655 0.53741 0.0
C297 C 0.77921 0.58449 0.58478 0.0
H298 H 0.76694 0.68567 0.51186 0.0
C299 C 0.72482 0.58555 0.60019 0.0
C300 C 0.68534 0.62189 0.58281 0.0
H301 H 0.80878 0.55542 0.5974 0.0
H302 H 0.71319 0.55676 0.624 0.0
C303 C 0.70154 0.65825 0.55147 0.0
C304 C 0.08912 0.37138 0.08092 0.0
C305 C 0.10029 0.37162 0.13017 0.0
H306 H 0.06719 0.41465 1.01826 0.0
C307 C 0.09937 0.41737 0.15388 0.0
H308 H 0.08851 0.33654 0.06193 0.0
C309 C 0.08647 0.46197 0.12923 0.0
C310 C 0.07399 0.46212 0.08004 0.0
H311 H 0.10683 0.41862 0.192 0.0
H312 H 0.08529 0.4964 0.14909 0.0
C313 C 0.07646 0.41616 0.05603 0.0
C314 C 0.63977 0.38855 0.08329 0.0
C315 C 0.61408 0.42581 0.05447 0.0
H316 H 0.64473 0.31252 0.10356 0.0
C317 C 0.57381 0.41357 1.0214 0.0
H318 H 0.67037 0.39726 0.10947 0.0
C319 C 0.55982 0.36461 1.01698 0.0
C320 C 0.58545 0.32706 1.04594 0.0
H321 H 0.55368 0.44181 0.99852 0.0
H322 H 0.52947 0.35618 0.99051 0.0
C323 C 0.62521 0.3399 0.07949 0.0
C324 C 0.96618 0.73063 0.45885 0.0
C325 C 0.95156 0.71316 0.50394 0.0
H326 H 0.98798 0.79307 0.41793 0.0
C327 C 0.95392 0.74452 0.54367 0.0
H328 H 0.9643 0.7075 0.42745 0.0
C329 C 0.96649 0.79342 0.53793 0.0
C330 C 0.97761 0.81165 0.49248 0.0
H331 H 0.94391 0.7318 0.57892 0.0
H332 H 0.96583 0.81757 0.56881 0.0
C333 C 0.97942 0.77956 0.45323 0.0
C334 C 0.47409 0.79436 0.74663 0.0
C335 C 0.4568 0.83863 0.72273 0.0
H336 H 0.4994 0.71678 0.74115 0.0
C337 C 0.45581 0.83738 0.67223 0.0
H338 H 0.47518 0.7933 0.78523 0.0
C339 C 0.46906 0.79319 0.64671 0.0
C340 C 0.48426 0.74856 0.67068 0.0
H341 H 0.44387 0.87068 0.65211 0.0
H342 H 0.46659 0.79394 0.60814 0.0
C343 C 0.48754 0.75015 0.72108 0.0
C344 C 0.96202 1.01562 0.7572 0.0
C345 C 0.9543 0.96448 0.76015 0.0
H346 H 0.97677 0.07794 0.71293 0.0
C347 C 0.95803 0.93675 0.7177 0.0
H348 H 0.95919 0.03836 0.78904 0.0
C349 C 0.96732 0.95982 0.67361 0.0
C350 C 0.97343 1.01133 0.67057 0.0
H351 H 0.95144 0.89765 0.71824 0.0
H352 H 0.96913 0.93718 0.64171 0.0
C353 C 0.97158 0.03857 0.71333 0.0
C354 C 0.59998 0.19315 0.27285 0.0
C355 C 0.61884 0.16226 0.31086 0.0
H356 H 0.56776 0.19832 0.20158 0.0
C357 C 0.61898 0.11056 0.30457 0.0
H358 H 0.59966 0.23306 0.27619 0.0
C359 C 0.59981 0.09044 0.26176 0.0
C360 C 0.58101 0.12148 0.22375 0.0
H361 H 0.63291 0.08565 0.33315 0.0
H362 H 0.59998 0.05056 0.25836 0.0
C363 C 0.58182 0.17311 0.2299 0.0
C364 C 0.51619 0.58212 0.2799 0.0
C365 C 0.46427 0.58113 0.2586 0.0
H366 H 0.56144 0.60017 0.34271 0.0
C367 C 0.41807 0.60235 0.28223 0.0
H368 H 0.55239 0.56645 0.26166 0.0
C369 C 0.42315 0.62208 0.32791 0.0
C370 C 0.47465 0.62102 0.35066 0.0
H371 H 0.37778 0.60264 0.26583 0.0
H372 H 0.3865 0.63652 0.34625 0.0
C373 C 0.5214 0.60204 0.32576 0.0
C374 C 0.99318 0.54825 0.6846 0.0
C375 C 0.99573 0.59654 0.6671 0.0
H376 H 0.99723 0.50152 0.74651 0.0
C377 C 0.99529 0.63642 0.69877 0.0
H378 H 0.99424 0.51699 0.66037 0.0
C379 C 0.99711 0.62768 0.74776 0.0
C380 C 1.00009 0.57887 0.76552 0.0
H381 H 0.99799 0.67384 0.68572 0.0
H382 H 0.99968 0.65888 0.77171 0.0
C383 C 0.99517 0.53939 0.73372 0.0
C384 C 0.72595 0.95272 0.98861 0.0
C385 C 0.76024 0.98798 0.97198 0.0
H386 H 0.65603 0.93966 1.03129 0.0
C387 C 0.75467 0.03628 0.99024 0.0
H388 H 0.72924 0.91539 0.97434 0.0
C389 C 0.71273 0.05034 1.02209 0.0
C390 C 0.67579 1.01619 1.03651 0.0
H391 H 0.78043 0.06413 0.97741 0.0
H392 H 0.70731 0.08874 1.03332 0.0
C393 C 0.68421 0.96664 1.02116 0.0
C394 C 0.77265 0.11565 0.44438 0.0
C395 C 0.75623 0.1668 0.44679 0.0
H396 H 0.83407 0.05691 0.46063 0.0
C397 C 0.79114 0.19763 0.47095 0.0
H398 H 0.74667 0.09021 0.42729 0.0
C399 C 0.84123 0.17814 0.49091 0.0
C400 C 0.85814 0.12727 0.48715 0.0
H401 H 0.78058 0.23716 0.47338 0.0
H402 H 0.86732 0.20327 0.50838 0.0
C403 C 0.82284 0.09629 0.46394 0.0
C404 C 0.29137 0.58122 1.02532 0.0
C405 C 0.31015 0.62101 0.05142 0.0
H406 H 0.22214 0.55035 0.99231 0.0
C407 C 0.27348 0.66246 0.06087 0.0
H408 H 0.31879 0.54886 1.01758 0.0
C409 C 0.21879 0.66324 1.0467 0.0
C410 C 0.19934 0.62279 1.02241 0.0
H411 H 0.2863 0.6934 0.08155 0.0
H412 H 0.1911 0.69476 0.05661 0.0
C413 C 0.23636 0.58232 1.01048 0.0
C414 C 0.25701 0.58238 0.63662 0.0
C415 C 0.24426 0.54862 0.60071 0.0
H416 H 0.32058 0.6196 0.67204 0.0
C417 C 0.28686 0.52506 0.57382 0.0
H418 H 0.22485 0.60067 0.65811 0.0
C419 C 0.34091 0.53598 0.58168 0.0
C420 C 0.35363 0.56983 0.61723 0.0
H421 H 0.27815 0.49907 0.54587 0.0
H422 H 0.37289 0.51859 0.55935 0.0
C423 C 0.31154 0.5927 0.64505 0.0
C424 C 0.97391 0.79328 0.8761 0.0
C425 C 0.95797 0.83792 0.89982 0.0
H426 H 0.99986 0.71577 0.88205 0.0
C427 C 0.95987 0.83743 0.95029 0.0
H428 H 0.97276 0.79167 0.83752 0.0
C429 C 0.97501 0.79371 0.97604 0.0
C430 C 0.98905 0.74872 0.95235 0.0
H431 H 0.94891 0.87102 0.9702 0.0
H432 H 0.97493 0.7951 1.01463 0.0
C433 C 0.98906 0.74946 0.90189 0.0
C434 C 0.47454 0.73108 0.15521 0.0
C435 C 0.46369 0.71392 0.10886 0.0
H436 H 0.49182 0.79337 0.19875 0.0
C437 C 0.46803 0.74597 0.06999 0.0
H438 H 0.47084 0.70755 0.18604 0.0
C439 C 0.47883 0.79514 0.07758 0.0
C440 C 0.48631 0.81283 0.12405 0.0
H441 H 0.46087 0.73358 1.03389 0.0
H442 H 0.4796 0.81987 1.04726 0.0
C443 C 0.48615 0.7802 0.16269 0.0
C444 C 0.13088 0.38928 0.55357 0.0
C445 C 0.10577 0.42371 0.58535 0.0
H446 H 0.13675 0.31499 0.52801 0.0
C447 C 0.06759 0.40823 0.61814 0.0
H448 H 0.15995 0.40066 0.52763 0.0
C449 C 0.05521 0.35866 0.61947 0.0
C450 C 0.08029 0.32388 0.58755 0.0
H451 H 0.04806 0.43431 0.64324 0.0
H452 H 0.02658 0.34758 0.64587 0.0
C453 C 0.11782 0.34009 0.55424 0.0
C454 C 0.57828 0.41248 0.47415 0.0
C455 C 0.58797 0.36782 0.49929 0.0
H456 H 0.55647 0.49062 0.47728 0.0
C457 C 0.58408 0.36878 0.54929 0.0
H458 H 0.58002 0.41271 0.43555 0.0
C459 C 0.5703 0.41372 0.57359 0.0
C460 C 0.55935 0.4585 0.54827 0.0
H461 H 0.59031 0.33468 0.5695 0.0
H462 H 0.56716 0.41319 0.61207 0.0
C463 C 0.5642 0.45713 0.4982 0.0
loop_
_geom_bond_atom_site_label_1
_geom_bond_atom_site_label_2
_geom_bond_distance
_geom_bond_site_symmetry_2
_ccdc_geom_bond_type
H0 C3 0.929 . S
H1 C6 0.929 . S
H2 C8 0.930 . S
C3 H0 0.929 . S
C3 C4 1.398 . S
C3 C5 1.396 . S
C4 C3 1.398 . S
C4 C8 1.407 . S
C5 C3 1.396 . S
C5 C6 1.394 . S
C6 H1 0.929 . S
C6 C5 1.394 . S
C6 C7 1.382 . S
C7 C6 1.382 . S
C7 C8 1.392 . S
C7 N9 1.420 . S
C8 H2 0.930 . S
C8 C4 1.407 . S
C8 C7 1.392 . S
N9 C7 1.420 . S
N9 C10 1.244 . S
C10 N9 1.244 . S
H11 C14 0.929 . S
H12 C17 0.929 . S
H13 C19 0.930 . S
C14 H11 0.929 . S
C14 C15 1.398 . S
C14 C16 1.396 . S
C15 C14 1.398 . S
C15 C19 1.407 . S
C16 C14 1.396 . S
C16 C17 1.394 . S
C17 H12 0.929 . S
C17 C16 1.394 . S
C17 C18 1.382 . S
C18 C17 1.382 . S
C18 C19 1.392 . S
C18 N20 1.420 . S
C19 H13 0.930 . S
C19 C15 1.407 . S
C19 C18 1.392 . S
N20 C18 1.420 . S
N20 C21 1.244 . S
C21 N20 1.244 . S
H22 C25 0.929 1_554 S
H23 C28 0.929 . S
H24 C30 0.930 . S
C25 H22 0.929 1_556 S
C25 C26 1.398 . S
C25 C27 1.396 . S
C26 C25 1.398 . S
C26 C30 1.407 . S
C27 C25 1.396 . S
C27 C28 1.394 . S
C28 H23 0.929 . S
C28 C27 1.394 . S
C28 C29 1.382 . S
C29 C28 1.382 . S
C29 C30 1.392 . S
C29 N31 1.420 . S
C30 H24 0.930 . S
C30 C26 1.407 . S
C30 C29 1.392 . S
N31 C29 1.420 . S
N31 C32 1.244 . S
C32 N31 1.244 . S
H33 C36 0.929 . S
H34 C39 0.929 . S
H35 C41 0.930 . S
C36 H33 0.929 . S
C36 C37 1.398 . S
C36 C38 1.396 . S
C37 C36 1.398 . S
C37 C41 1.407 . S
C38 C36 1.396 . S
C38 C39 1.394 . S
C39 H34 0.929 . S
C39 C38 1.394 . S
C39 C40 1.382 . S
C40 C39 1.382 . S
C40 C41 1.392 . S
C40 N42 1.420 . S
C41 H35 0.930 . S
C41 C37 1.407 . S
C41 C40 1.392 . S
N42 C40 1.420 . S
N42 C43 1.244 . S
C43 N42 1.244 . S
H44 C47 0.929 . S
H45 C50 0.929 . S
H46 C52 0.930 . S
C47 H44 0.929 . S
C47 C48 1.398 . S
C47 C49 1.396 . S
C48 C47 1.398 . S
C48 C52 1.407 . S
C49 C47 1.396 . S
C49 C50 1.394 . S
C50 H45 0.929 . S
C50 C49 1.394 . S
C50 C51 1.382 . S
C51 C50 1.382 . S
C51 C52 1.392 . S
C51 N53 1.420 . S
C52 H46 0.930 . S
C52 C48 1.407 . S
C52 C51 1.392 . S
N53 C51 1.420 . S
N53 C54 1.244 . S
C54 N53 1.244 . S
H55 C58 0.929 . S
H56 C61 0.929 . S
H57 C63 0.930 . S
C58 H55 0.929 . S
C58 C59 1.398 . S
C58 C60 1.396 . S
C59 C58 1.398 . S
C59 C63 1.407 . S
C60 C58 1.396 . S
C60 C61 1.394 . S
C61 H56 0.929 . S
C61 C60 1.394 . S
C61 C62 1.382 . S
C62 C61 1.382 . S
C62 C63 1.392 . S
C62 N64 1.420 . S
C63 H57 0.930 . S
C63 C59 1.407 . S
C63 C62 1.392 . S
N64 C62 1.420 . S
N64 C65 1.244 . S
C65 N64 1.244 . S
H66 C69 0.929 . S
H67 C72 0.929 . S
H68 C74 0.930 . S
C69 H66 0.929 . S
C69 C70 1.398 . S
C69 C71 1.396 . S
C70 C69 1.398 . S
C70 C74 1.407 . S
C71 C69 1.396 . S
C71 C72 1.394 . S
C72 H67 0.929 . S
C72 C71 1.394 . S
C72 C73 1.382 . S
C73 C72 1.382 . S
C73 C74 1.392 . S
C73 N75 1.420 . S
C74 H68 0.930 . S
C74 C70 1.407 . S
C74 C73 1.392 . S
N75 C73 1.420 . S
N75 C76 1.244 . S
C76 N75 1.244 . S
H77 C80 0.929 . S
H78 C83 0.929 . S
H79 C85 0.930 . S
C80 H77 0.929 . S
C80 C81 1.398 . S
C80 C82 1.396 . S
C81 C80 1.398 . S
C81 C85 1.407 . S
C82 C80 1.396 . S
C82 C83 1.394 . S
C83 H78 0.929 . S
C83 C82 1.394 . S
C83 C84 1.382 . S
C84 C83 1.382 . S
C84 C85 1.392 . S
C84 N86 1.420 . S
C85 H79 0.930 . S
C85 C81 1.407 . S
C85 C84 1.392 . S
N86 C84 1.420 . S
N86 C87 1.244 . S
C87 N86 1.244 . S
C88 O104 1.251 . S
C88 O106 1.254 . S
N89 C90 1.333 . S
N89 C94 1.307 . S
N89 Zn95 2.020 . S
C90 N89 1.333 . S
C90 C91 1.379 . S
C90 H108 0.952 . S
C91 C90 1.379 . S
C91 C92 1.390 . S
C91 H118 0.949 . S
C92 C91 1.390 . S
C92 C93 1.357 . S
C93 C92 1.357 . S
C93 C94 1.370 . S
C93 H119 0.950 . S
C94 N89 1.307 . S
C94 C93 1.370 . S
C94 H112 0.948 1_455 S
Zn95 N89 2.020 . S
Zn95 O104 2.039 . S
Zn95 O110 2.034 . S
Zn95 O114 2.025 1_455 S
Zn95 O116 2.024 1_455 S
C96 O115 1.246 . S
C96 O116 1.249 . S
N97 C98 1.307 . S
N97 C99 1.333 . S
N97 Zn103 2.020 . S
C98 N97 1.307 . S
C98 C102 1.370 . S
C98 H109 0.948 1_655 S
C99 N97 1.333 . S
C99 C100 1.379 . S
C99 H107 0.952 . S
C100 C99 1.379 . S
C100 C101 1.390 . S
C100 H120 0.949 . S
C101 C100 1.390 . S
C101 C102 1.357 . S
C102 C98 1.370 . S
C102 C101 1.357 . S
C102 H121 0.950 . S
Zn103 N97 2.020 . S
Zn103 O106 2.025 1_665 S
Zn103 O111 2.024 1_655 S
Zn103 O113 2.039 . S
Zn103 O115 2.034 1_565 S
O104 C88 1.251 . S
O104 Zn95 2.039 . S
C105 O110 1.246 . S
C105 O111 1.249 1_545 S
O106 C88 1.254 . S
O106 Zn103 2.025 1_445 S
H107 C99 0.952 . S
H108 C90 0.952 . S
H109 C98 0.948 1_455 S
O110 Zn95 2.034 . S
O110 C105 1.246 . S
O111 Zn103 2.024 1_455 S
O111 C105 1.249 1_565 S
H112 C94 0.948 1_655 S
O113 Zn103 2.039 . S
O113 C117 1.251 1_565 S
O114 Zn95 2.025 1_655 S
O114 C117 1.254 . S
O115 C96 1.246 . S
O115 Zn103 2.034 1_545 S
O116 Zn95 2.024 1_655 S
O116 C96 1.249 . S
C117 O113 1.251 1_545 S
C117 O114 1.254 . S
H118 C91 0.949 . S
H119 C93 0.950 . S
H120 C100 0.949 . S
H121 C102 0.950 . S
C122 O138 1.251 . S
C122 O140 1.254 1_546 S
N123 C124 1.333 . S
N123 C128 1.307 . S
N123 Zn129 2.020 1_556 S
C124 N123 1.333 . S
C124 C125 1.379 . S
C124 H142 0.952 . S
C125 C124 1.379 . S
C125 C126 1.390 . S
C125 H152 0.949 . S
C126 C125 1.390 . S
C126 C127 1.357 . S
C127 C126 1.357 . S
C127 C128 1.370 . S
C127 H153 0.950 . S
C128 N123 1.307 . S
C128 C127 1.370 . S
C128 H146 0.948 . S
Zn129 N123 2.020 1_554 S
Zn129 O138 2.039 1_554 S
Zn129 O144 2.034 . S
Zn129 O148 2.025 . S
Zn129 O150 2.024 1_554 S
C130 O149 1.246 1_545 S
C130 O150 1.249 . S
N131 C132 1.307 . S
N131 C133 1.333 . S
N131 Zn137 2.020 . S
C132 N131 1.307 . S
C132 C136 1.370 . S
C132 H143 0.948 . S
C133 N131 1.333 . S
C133 C134 1.379 . S
C133 H141 0.952 . S
C134 C133 1.379 . S
C134 C135 1.390 . S
C134 H154 0.949 . S
C135 C134 1.390 . S
C135 C136 1.357 . S
C136 C132 1.370 . S
C136 C135 1.357 . S
C136 H155 0.950 . S
Zn137 N131 2.020 . S
Zn137 O140 2.025 . S
Zn137 O145 2.024 1_565 S
Zn137 O147 2.039 1_565 S
Zn137 O149 2.034 1_554 S
O138 C122 1.251 . S
O138 Zn129 2.039 1_556 S
C139 O144 1.246 . S
C139 O145 1.249 . S
O140 C122 1.254 1_564 S
O140 Zn137 2.025 . S
H141 C133 0.952 . S
H142 C124 0.952 . S
H143 C132 0.948 . S
O144 Zn129 2.034 . S
O144 C139 1.246 . S
O145 Zn137 2.024 1_545 S
O145 C139 1.249 . S
H146 C128 0.948 . S
O147 Zn137 2.039 1_545 S
O147 C151 1.251 . S
O148 Zn129 2.025 . S
O148 C151 1.254 . S
O149 C130 1.246 1_565 S
O149 Zn137 2.034 1_556 S
O150 Zn129 2.024 1_556 S
O150 C130 1.249 . S
C151 O147 1.251 . S
C151 O148 1.254 . S
H152 C125 0.949 . S
H153 C127 0.950 . S
H154 C134 0.949 . S
H155 C136 0.950 . S
C156 O172 1.251 . S
C156 O174 1.254 . S
N157 C158 1.333 . S
N157 C162 1.307 . S
N157 Zn163 2.020 . S
C158 N157 1.333 . S
C158 C159 1.379 . S
C158 H176 0.952 . S
C159 C158 1.379 . S
C159 C160 1.390 . S
C159 H186 0.949 . S
C160 C159 1.390 . S
C160 C161 1.357 . S
C161 C160 1.357 . S
C161 C162 1.370 . S
C161 H187 0.950 . S
C162 N157 1.307 . S
C162 C161 1.370 . S
C162 H180 0.948 . S
Zn163 N157 2.020 . S
Zn163 O172 2.039 . S
Zn163 O178 2.034 . S
Zn163 O182 2.025 . S
Zn163 O184 2.024 . S
C164 O183 1.246 . S
C164 O184 1.249 . S
N165 C166 1.307 . S
N165 C167 1.333 . S
N165 Zn171 2.020 . S
C166 N165 1.307 . S
C166 C170 1.370 . S
C166 H177 0.948 . S
C167 N165 1.333 . S
C167 C168 1.379 . S
C167 H175 0.952 . S
C168 C167 1.379 . S
C168 C169 1.390 . S
C168 H188 0.949 . S
C169 C168 1.390 . S
C169 C170 1.357 . S
C170 C166 1.370 . S
C170 C169 1.357 . S
C170 H189 0.950 . S
Zn171 N165 2.020 . S
Zn171 O174 2.025 . S
Zn171 O179 2.024 . S
Zn171 O181 2.039 . S
Zn171 O183 2.034 . S
O172 C156 1.251 . S
O172 Zn163 2.039 . S
C173 O178 1.246 . S
C173 O179 1.249 . S
O174 C156 1.254 . S
O174 Zn171 2.025 . S
H175 C167 0.952 . S
H176 C158 0.952 . S
H177 C166 0.948 . S
O178 Zn163 2.034 . S
O178 C173 1.246 . S
O179 Zn171 2.024 . S
O179 C173 1.249 . S
H180 C162 0.948 . S
O181 Zn171 2.039 . S
O181 C185 1.251 . S
O182 Zn163 2.025 . S
O182 C185 1.254 . S
O183 C164 1.246 . S
O183 Zn171 2.034 . S
O184 Zn163 2.024 . S
O184 C164 1.249 . S
C185 O181 1.251 . S
C185 O182 1.254 . S
H186 C159 0.949 . S
H187 C161 0.950 . S
H188 C168 0.949 . S
H189 C170 0.950 . S
C190 O206 1.251 1_556 S
C190 O208 1.254 1_655 S
N191 C192 1.333 . S
N191 C196 1.307 . S
N191 Zn197 2.020 . S
C192 N191 1.333 . S
C192 C193 1.379 . S
C192 H210 0.952 . S
C193 C192 1.379 . S
C193 C194 1.390 . S
C193 H220 0.949 . S
C194 C193 1.390 . S
C194 C195 1.357 . S
C195 C194 1.357 . S
C195 C196 1.370 . S
C195 H221 0.950 . S
C196 N191 1.307 . S
C196 C195 1.370 . S
C196 H214 0.948 . S
Zn197 N191 2.020 . S
Zn197 O206 2.039 . S
Zn197 O212 2.034 1_655 S
Zn197 O216 2.025 1_655 S
Zn197 O218 2.024 . S
C198 O217 1.246 . S
C198 O218 1.249 1_556 S
N199 C200 1.307 . S
N199 C201 1.333 . S
N199 Zn205 2.020 . S
C200 N199 1.307 . S
C200 C204 1.370 . S
C200 H211 0.948 . S
C201 N199 1.333 . S
C201 C202 1.379 . S
C201 H209 0.952 . S
C202 C201 1.379 . S
C202 C203 1.390 . S
C202 H222 0.949 . S
C203 C202 1.390 . S
C203 C204 1.357 . S
C204 C200 1.370 . S
C204 C203 1.357 . S
C204 H223 0.950 . S
Zn205 N199 2.020 . S
Zn205 O208 2.025 . S
Zn205 O213 2.024 . S
Zn205 O215 2.039 . S
Zn205 O217 2.034 1_455 S
O206 C190 1.251 1_554 S
O206 Zn197 2.039 . S
C207 O212 1.246 . S
C207 O213 1.249 1_554 S
O208 C190 1.254 1_455 S
O208 Zn205 2.025 . S
H209 C201 0.952 . S
H210 C192 0.952 . S
H211 C200 0.948 . S
O212 Zn197 2.034 1_455 S
O212 C207 1.246 . S
O213 Zn205 2.024 . S
O213 C207 1.249 1_556 S
H214 C196 0.948 . S
O215 Zn205 2.039 . S
O215 C219 1.251 1_556 S
O216 Zn197 2.025 1_455 S
O216 C219 1.254 . S
O217 C198 1.246 . S
O217 Zn205 2.034 1_655 S
O218 Zn197 2.024 . S
O218 C198 1.249 1_554 S
C219 O215 1.251 1_554 S
C219 O216 1.254 . S
H220 C193 0.949 . S
H221 C195 0.950 . S
H222 C202 0.949 . S
H223 C204 0.950 . S
C224 C225 1.387 . S
C224 H228 0.950 . S
C224 C233 1.390 . S
C225 C224 1.387 . S
C225 C227 1.387 . S
H226 C233 0.950 1_655 S
C227 C225 1.387 . S
C227 C229 1.390 . S
C227 H231 0.950 . S
H228 C224 0.950 . S
C229 C227 1.390 . S
C229 C230 1.387 . S
C229 H232 0.950 . S
C230 C229 1.387 . S
C230 C233 1.387 . S
H231 C227 0.950 . S
H232 C229 0.950 . S
C233 C224 1.390 . S
C233 H226 0.950 1_455 S
C233 C230 1.387 . S
C234 C235 1.387 . S
C234 H238 0.950 . S
C234 C243 1.390 . S
C235 C234 1.387 . S
C235 C237 1.387 1_565 S
H236 C243 0.950 . S
C237 C235 1.387 1_545 S
C237 C239 1.390 . S
C237 H241 0.950 . S
H238 C234 0.950 . S
C239 C237 1.390 . S
C239 C240 1.387 1_545 S
C239 H242 0.950 . S
C240 C239 1.387 1_565 S
C240 C243 1.387 . S
H241 C237 0.950 . S
H242 C239 0.950 . S
C243 C234 1.390 . S
C243 H236 0.950 . S
C243 C240 1.387 . S
C244 C245 1.387 . S
C244 H248 0.950 . S
C244 C253 1.390 . S
C245 C244 1.387 . S
C245 C247 1.387 . S
H246 C253 0.950 . S
C247 C245 1.387 . S
C247 C249 1.390 . S
C247 H251 0.950 . S
H248 C244 0.950 . S
C249 C247 1.390 . S
C249 C250 1.387 . S
C249 H252 0.950 . S
C250 C249 1.387 . S
C250 C253 1.387 . S
H251 C247 0.950 . S
H252 C249 0.950 . S
C253 C244 1.390 . S
C253 H246 0.950 . S
C253 C250 1.387 . S
C254 C255 1.387 . S
C254 H258 0.950 . S
C254 C263 1.390 . S
C255 C254 1.387 . S
C255 C257 1.387 . S
H256 C263 0.950 . S
C257 C255 1.387 . S
C257 C259 1.390 . S
C257 H261 0.950 . S
H258 C254 0.950 . S
C259 C257 1.390 . S
C259 C260 1.387 . S
C259 H262 0.950 . S
C260 C259 1.387 . S
C260 C263 1.387 . S
H261 C257 0.950 . S
H262 C259 0.950 . S
C263 C254 1.390 . S
C263 H256 0.950 . S
C263 C260 1.387 . S
C264 C265 1.387 . S
C264 H268 0.950 . S
C264 C273 1.390 . S
C265 C264 1.387 . S
C265 C267 1.387 . S
H266 C273 0.950 . S
C267 C265 1.387 . S
C267 C269 1.390 . S
C267 H271 0.950 . S
H268 C264 0.950 . S
C269 C267 1.390 . S
C269 C270 1.387 . S
C269 H272 0.950 . S
C270 C269 1.387 . S
C270 C273 1.387 . S
H271 C267 0.950 . S
H272 C269 0.950 . S
C273 C264 1.390 . S
C273 H266 0.950 . S
C273 C270 1.387 . S
C274 C275 1.387 1_545 S
C274 H278 0.950 . S
C274 C283 1.390 . S
C275 C274 1.387 1_565 S
C275 C277 1.387 . S
H276 C283 0.950 . S
C277 C275 1.387 . S
C277 C279 1.390 . S
C277 H281 0.950 . S
H278 C274 0.950 . S
C279 C277 1.390 . S
C279 C280 1.387 . S
C279 H282 0.950 . S
C280 C279 1.387 . S
C280 C283 1.387 1_565 S
H281 C277 0.950 . S
H282 C279 0.950 . S
C283 C274 1.390 . S
C283 H276 0.950 . S
C283 C280 1.387 1_545 S
C284 C285 1.387 1_554 S
C284 H288 0.950 . S
C284 C293 1.390 . S
C285 C284 1.387 1_556 S
C285 C287 1.387 . S
H286 C293 0.950 . S
C287 C285 1.387 . S
C287 C289 1.390 . S
C287 H291 0.950 . S
H288 C284 0.950 . S
C289 C287 1.390 . S
C289 C290 1.387 . S
C289 H292 0.950 . S
C290 C289 1.387 . S
C290 C293 1.387 1_556 S
H291 C287 0.950 . S
H292 C289 0.950 . S
C293 C284 1.390 . S
C293 H286 0.950 . S
C293 C290 1.387 1_554 S
C294 C295 1.387 . S
C294 H298 0.950 . S
C294 C303 1.390 . S
C295 C294 1.387 . S
C295 C297 1.387 . S
H296 C303 0.950 . S
C297 C295 1.387 . S
C297 C299 1.390 . S
C297 H301 0.950 . S
H298 C294 0.950 . S
C299 C297 1.390 . S
C299 C300 1.387 . S
C299 H302 0.950 . S
C300 C299 1.387 . S
C300 C303 1.387 . S
H301 C297 0.950 . S
H302 C299 0.950 . S
C303 C294 1.390 . S
C303 H296 0.950 . S
C303 C300 1.387 . S
C304 C305 1.387 . S
C304 H308 0.950 . S
C304 C313 1.390 . S
C305 C304 1.387 . S
C305 C307 1.387 . S
H306 C313 0.950 1_655 S
C307 C305 1.387 . S
C307 C309 1.390 . S
C307 H311 0.950 . S
H308 C304 0.950 . S
C309 C307 1.390 . S
C309 C310 1.387 . S
C309 H312 0.950 . S
C310 C309 1.387 . S
C310 C313 1.387 . S
H311 C307 0.950 . S
H312 C309 0.950 . S
C313 C304 1.390 . S
C313 H306 0.950 1_455 S
C313 C310 1.387 . S
C314 C315 1.387 1_554 S
C314 H318 0.950 . S
C314 C323 1.390 . S
C315 C314 1.387 1_556 S
C315 C317 1.387 . S
H316 C323 0.950 . S
C317 C315 1.387 . S
C317 C319 1.390 . S
C317 H321 0.950 . S
H318 C314 0.950 . S
C319 C317 1.390 . S
C319 C320 1.387 . S
C319 H322 0.950 . S
C320 C319 1.387 . S
C320 C323 1.387 1_556 S
H321 C317 0.950 . S
H322 C319 0.950 . S
C323 C314 1.390 . S
C323 H316 0.950 . S
C323 C320 1.387 1_554 S
C324 C325 1.387 . S
C324 H328 0.950 . S
C324 C333 1.390 . S
C325 C324 1.387 . S
C325 C327 1.387 . S
H326 C333 0.950 . S
C327 C325 1.387 . S
C327 C329 1.390 . S
C327 H331 0.950 . S
H328 C324 0.950 . S
C329 C327 1.390 . S
C329 C330 1.387 . S
C329 H332 0.950 . S
C330 C329 1.387 . S
C330 C333 1.387 . S
H331 C327 0.950 . S
H332 C329 0.950 . S
C333 C324 1.390 . S
C333 H326 0.950 . S
C333 C330 1.387 . S
C334 C335 1.387 . S
C334 H338 0.950 . S
C334 C343 1.390 . S
C335 C334 1.387 . S
C335 C337 1.387 . S
H336 C343 0.950 . S
C337 C335 1.387 . S
C337 C339 1.390 . S
C337 H341 0.950 . S
H338 C334 0.950 . S
C339 C337 1.390 . S
C339 C340 1.387 . S
C339 H342 0.950 . S
C340 C339 1.387 . S
C340 C343 1.387 . S
H341 C337 0.950 . S
H342 C339 0.950 . S
C343 C334 1.390 . S
C343 H336 0.950 . S
C343 C340 1.387 . S
C344 C345 1.387 . S
C344 H348 0.950 . S
C344 C353 1.390 . S
C345 C344 1.387 . S
C345 C347 1.387 . S
H346 C353 0.950 . S
C347 C345 1.387 . S
C347 C349 1.390 1_655 S
C347 H351 0.950 1_655 S
H348 C344 0.950 . S
C349 C347 1.390 1_455 S
C349 C350 1.387 1_455 S
C349 H352 0.950 . S
C350 C349 1.387 1_655 S
C350 C353 1.387 . S
H351 C347 0.950 1_455 S
H352 C349 0.950 . S
C353 C344 1.390 . S
C353 H346 0.950 . S
C353 C350 1.387 . S
C354 C355 1.387 . S
C354 H358 0.950 . S
C354 C363 1.390 . S
C355 C354 1.387 . S
C355 C357 1.387 . S
H356 C363 0.950 . S
C357 C355 1.387 . S
C357 C359 1.390 . S
C357 H361 0.950 . S
H358 C354 0.950 . S
C359 C357 1.390 . S
C359 C360 1.387 . S
C359 H362 0.950 . S
C360 C359 1.387 . S
C360 C363 1.387 . S
H361 C357 0.950 . S
H362 C359 0.950 . S
C363 C354 1.390 . S
C363 H356 0.950 . S
C363 C360 1.387 . S
C364 C365 1.387 . S
C364 H368 0.950 . S
C364 C373 1.390 . S
C365 C364 1.387 . S
C365 C367 1.387 . S
H366 C373 0.950 . S
C367 C365 1.387 . S
C367 C369 1.390 . S
C367 H371 0.950 . S
H368 C364 0.950 . S
C369 C367 1.390 . S
C369 C370 1.387 . S
C369 H372 0.950 . S
C370 C369 1.387 . S
C370 C373 1.387 . S
H371 C367 0.950 . S
H372 C369 0.950 . S
C373 C364 1.390 . S
C373 H366 0.950 . S
C373 C370 1.387 . S
C374 C375 1.387 . S
C374 H378 0.950 . S
C374 C383 1.390 . S
C375 C374 1.387 . S
C375 C377 1.387 . S
H376 C383 0.950 . S
C377 C375 1.387 . S
C377 C379 1.390 . S
C377 H381 0.950 . S
H378 C374 0.950 . S
C379 C377 1.390 . S
C379 C380 1.387 . S
C379 H382 0.950 . S
C380 C379 1.387 . S
C380 C383 1.387 . S
H381 C377 0.950 . S
H382 C379 0.950 . S
C383 C374 1.390 . S
C383 H376 0.950 . S
C383 C380 1.387 . S
C384 C385 1.387 . S
C384 H388 0.950 . S
C384 C393 1.390 . S
C385 C384 1.387 . S
C385 C387 1.387 1_565 S
H386 C393 0.950 1_554 S
C387 C385 1.387 1_545 S
C387 C389 1.390 . S
C387 H391 0.950 . S
H388 C384 0.950 . S
C389 C387 1.390 . S
C389 C390 1.387 1_545 S
C389 H392 0.950 . S
C390 C389 1.387 1_565 S
C390 C393 1.387 . S
H391 C387 0.950 . S
H392 C389 0.950 . S
C393 C384 1.390 . S
C393 H386 0.950 1_556 S
C393 C390 1.387 . S
C394 C395 1.387 . S
C394 H398 0.950 . S
C394 C403 1.390 . S
C395 C394 1.387 . S
C395 C397 1.387 . S
H396 C403 0.950 . S
C397 C395 1.387 . S
C397 C399 1.390 . S
C397 H401 0.950 . S
H398 C394 0.950 . S
C399 C397 1.390 . S
C399 C400 1.387 . S
C399 H402 0.950 . S
C400 C399 1.387 . S
C400 C403 1.387 . S
H401 C397 0.950 . S
H402 C399 0.950 . S
C403 C394 1.390 . S
C403 H396 0.950 . S
C403 C400 1.387 . S
C404 C405 1.387 . S
C404 H408 0.950 . S
C404 C413 1.390 . S
C405 C404 1.387 . S
C405 C407 1.387 . S
H406 C413 0.950 . S
C407 C405 1.387 . S
C407 C409 1.390 . S
C407 H411 0.950 . S
H408 C404 0.950 . S
C409 C407 1.390 . S
C409 C410 1.387 . S
C409 H412 0.950 . S
C410 C409 1.387 . S
C410 C413 1.387 . S
H411 C407 0.950 . S
H412 C409 0.950 . S
C413 C404 1.390 . S
C413 H406 0.950 . S
C413 C410 1.387 . S
C414 C415 1.387 . S
C414 H418 0.950 . S
C414 C423 1.390 . S
C415 C414 1.387 . S
C415 C417 1.387 . S
H416 C423 0.950 . S
C417 C415 1.387 . S
C417 C419 1.390 . S
C417 H421 0.950 . S
H418 C414 0.950 . S
C419 C417 1.390 . S
C419 C420 1.387 . S
C419 H422 0.950 . S
C420 C419 1.387 . S
C420 C423 1.387 . S
H421 C417 0.950 . S
H422 C419 0.950 . S
C423 C414 1.390 . S
C423 H416 0.950 . S
C423 C420 1.387 . S
C424 C425 1.387 . S
C424 H428 0.950 1_655 S
C424 C433 1.390 1_655 S
C425 C424 1.387 . S
C425 C427 1.387 . S
H426 C433 0.950 . S
C427 C425 1.387 . S
C427 C429 1.390 . S
C427 H431 0.950 . S
H428 C424 0.950 1_455 S
C429 C427 1.390 . S
C429 C430 1.387 . S
C429 H432 0.950 . S
C430 C429 1.387 . S
C430 C433 1.387 1_655 S
H431 C427 0.950 . S
H432 C429 0.950 . S
C433 C424 1.390 1_455 S
C433 H426 0.950 . S
C433 C430 1.387 1_455 S
C434 C435 1.387 . S
C434 H438 0.950 . S
C434 C443 1.390 . S
C435 C434 1.387 . S
C435 C437 1.387 . S
H436 C443 0.950 . S
C437 C435 1.387 . S
C437 C439 1.390 . S
C437 H441 0.950 . S
H438 C434 0.950 . S
C439 C437 1.390 . S
C439 C440 1.387 . S
C439 H442 0.950 . S
C440 C439 1.387 . S
C440 C443 1.387 . S
H441 C437 0.950 . S
H442 C439 0.950 . S
C443 C434 1.390 . S
C443 H436 0.950 . S
C443 C440 1.387 . S
C444 C445 1.387 . S
C444 H448 0.950 . S
C444 C453 1.390 . S
C445 C444 1.387 . S
C445 C447 1.387 . S
H446 C453 0.950 . S
C447 C445 1.387 . S
C447 C449 1.390 . S
C447 H451 0.950 . S
H448 C444 0.950 . S
C449 C447 1.390 . S
C449 C450 1.387 . S
C449 H452 0.950 . S
C450 C449 1.387 . S
C450 C453 1.387 . S
H451 C447 0.950 . S
H452 C449 0.950 . S
C453 C444 1.390 . S
C453 H446 0.950 . S
C453 C450 1.387 . S
C454 C455 1.387 . S
C454 H458 0.950 . S
C454 C463 1.390 . S
C455 C454 1.387 . S
C455 C457 1.387 . S
H456 C463 0.950 . S
C457 C455 1.387 . S
C457 C459 1.390 . S
C457 H461 0.950 . S
H458 C454 0.950 . S
C459 C457 1.390 . S
C459 C460 1.387 . S
C459 H462 0.950 . S
C460 C459 1.387 . S
C460 C463 1.387 . S
H461 C457 0.950 . S
H462 C459 0.950 . S
C463 C454 1.390 . S
C463 H456 0.950 . S
C463 C460 1.387 . S
C225 C4 2.498 . S
C230 C88 2.506 . S
C235 C16 2.590 . S
C240 C130 2.598 1_565 S
C250 C160 0.813 . S
C245 C32 0.814 . S
C255 C43 1.006 . S
C260 C194 1.027 . S
C270 C151 2.188 . S
C265 C5 2.180 . S
C280 C105 1.696 1_565 S
C275 C21 1.683 . S
C290 C198 1.163 . S
C285 C27 1.155 . S
C300 C164 1.180 . S
C295 C37 1.163 . S
C305 C10 2.183 . S
C310 C219 2.205 . S
C320 C126 1.267 . S
C315 C26 1.236 . S
C325 C38 1.064 . S
C330 C101 1.075 . S
C335 C15 2.351 . S
C340 C185 2.364 . S
C350 C117 2.603 1_565 S
C345 C48 2.594 . S
C355 C59 2.393 . S
C360 C139 2.413 . S
C365 C76 1.007 . S
C370 C169 1.010 . S
C375 C87 0.883 . S
C380 C203 0.887 . S
C385 C54 1.694 . S
C390 C122 1.716 1_565 S
C400 C96 2.148 . S
C395 C60 2.132 . S
C410 C207 1.082 . S
C405 C71 1.057 . S
C420 C173 1.187 . S
C415 C82 1.177 . S
C425 C49 2.473 . S
C430 C190 2.471 . S
C440 C135 1.048 . S
C435 C70 1.037 . S
C450 C92 1.231 . S
C445 C81 1.200 . S
C455 C65 2.145 . S
C460 C156 2.157 . S
