# Generated by pormake.
# Topology pyr, (3,6)-cn, num edge types: 1
# Building blocks:
#     Node 0, Type 0, BuildingBlock: BETDIP_clean_linker_0, # of connection points: 3
#     Node 1, Type 0, BuildingBlock: BETDIP_clean_linker_0, # of connection points: 3
#     Node 2, Type 0, BuildingBlock: BETDIP_clean_linker_0, # of connection points: 3
#     Node 3, Type 0, BuildingBlock: BETDIP_clean_linker_0, # of connection points: 3
#     Node 4, Type 0, BuildingBlock: BETDIP_clean_linker_0, # of connection points: 3
#     Node 5, Type 0, BuildingBlock: BETDIP_clean_linker_0, # of connection points: 3
#     Node 6, Type 0, BuildingBlock: BETDIP_clean_linker_0, # of connection points: 3
#     Node 7, Type 0, BuildingBlock: BETDIP_clean_linker_0, # of connection points: 3
#     Node 8, Type 1, BuildingBlock: PAMTOO_clean_sbu_0, # of connection points: 6
#     Node 9, Type 1, BuildingBlock: PAMTOO_clean_sbu_0, # of connection points: 6
#     Node 10, Type 1, BuildingBlock: PAMTOO_clean_sbu_0, # of connection points: 6
#     Node 11, Type 1, BuildingBlock: PAMTOO_clean_sbu_0, # of connection points: 6
#     Edge 12, Type (0, 1), BuildingBlock: TEMPAE_clean_linker_10, # of connection points: 2
#     Edge 13, Type (0, 1), BuildingBlock: TEMPAE_clean_linker_10, # of connection points: 2
#     Edge 14, Type (0, 1), BuildingBlock: TEMPAE_clean_linker_10, # of connection points: 2
#     Edge 15, Type (0, 1), BuildingBlock: TEMPAE_clean_linker_10, # of connection points: 2
#     Edge 16, Type (0, 1), BuildingBlock: TEMPAE_clean_linker_10, # of connection points: 2
#     Edge 17, Type (0, 1), BuildingBlock: TEMPAE_clean_linker_10, # of connection points: 2
#     Edge 18, Type (0, 1), BuildingBlock: TEMPAE_clean_linker_10, # of connection points: 2
#     Edge 19, Type (0, 1), BuildingBlock: TEMPAE_clean_linker_10, # of connection points: 2
#     Edge 20, Type (0, 1), BuildingBlock: TEMPAE_clean_linker_10, # of connection points: 2
#     Edge 21, Type (0, 1), BuildingBlock: TEMPAE_clean_linker_10, # of connection points: 2
#     Edge 22, Type (0, 1), BuildingBlock: TEMPAE_clean_linker_10, # of connection points: 2
#     Edge 23, Type (0, 1), BuildingBlock: TEMPAE_clean_linker_10, # of connection points: 2
#     Edge 24, Type (0, 1), BuildingBlock: TEMPAE_clean_linker_10, # of connection points: 2
#     Edge 25, Type (0, 1), BuildingBlock: TEMPAE_clean_linker_10, # of connection points: 2
#     Edge 26, Type (0, 1), BuildingBlock: TEMPAE_clean_linker_10, # of connection points: 2
#     Edge 27, Type (0, 1), BuildingBlock: TEMPAE_clean_linker_10, # of connection points: 2
#     Edge 28, Type (0, 1), BuildingBlock: TEMPAE_clean_linker_10, # of connection points: 2
#     Edge 29, Type (0, 1), BuildingBlock: TEMPAE_clean_linker_10, # of connection points: 2
#     Edge 30, Type (0, 1), BuildingBlock: TEMPAE_clean_linker_10, # of connection points: 2
#     Edge 31, Type (0, 1), BuildingBlock: TEMPAE_clean_linker_10, # of connection points: 2
#     Edge 32, Type (0, 1), BuildingBlock: TEMPAE_clean_linker_10, # of connection points: 2
#     Edge 33, Type (0, 1), BuildingBlock: TEMPAE_clean_linker_10, # of connection points: 2
#     Edge 34, Type (0, 1), BuildingBlock: TEMPAE_clean_linker_10, # of connection points: 2
#     Edge 35, Type (0, 1), BuildingBlock: TEMPAE_clean_linker_10, # of connection points: 2
# Relax obj value: 0.120
# Max RMSD: 0.197
# Mean RMSD: 0.129
data_MOF--net-pyr--node1-PAMTOO_clean_sbu_0--node2-BETDIP_clean_linker_0--edge1-TEMPAE_clean_linker_10
_symmetry_space_group_name_H-M    P1
_symmetry_Int_Tables_number       1
_symmetry_cell_setting            triclinic
loop_
_symmetry_equiv_pos_as_xyz
'x, y, z'
_cell_length_a     37.084748
_cell_length_b     39.078924
_cell_length_c     41.147743
_cell_angle_alpha  91.924814
_cell_angle_beta   87.622489
_cell_angle_gamma 109.15625
loop_
_atom_site_label
_atom_site_type_symbol
_atom_site_fract_x
_atom_site_fract_y
_atom_site_fract_z
_atom_type_partial_charge
H0 H 0.31066 0.29538 0.2227 0.0
H1 H 0.38025 0.28291 0.14018 0.0
H2 H 0.35752 0.20824 0.2189 0.0
H3 H 0.33852 0.30458 0.1139 0.0
C4 C 0.32769 0.32067 0.13128 0.0
C5 C 0.32813 0.28106 0.21056 0.0
C6 C 0.33262 0.25074 0.22489 0.0
C7 C 0.34405 0.29196 0.17971 0.0
C8 C 0.36695 0.27382 0.16365 0.0
C9 C 0.37297 0.24412 0.17818 0.0
C10 C 0.35522 0.23257 0.20858 0.0
N11 N 0.3342 0.31977 0.16494 0.0
H12 H 0.13493 0.77748 0.75099 0.0
H13 H 0.15543 0.73091 0.65866 0.0
H14 H 0.22619 0.73286 0.73922 0.0
H15 H 0.10933 0.75026 0.64067 0.0
C16 C 0.10233 0.76795 0.65893 0.0
C17 C 0.15058 0.76323 0.73621 0.0
C18 C 0.18135 0.75564 0.74922 0.0
C19 C 0.14109 0.75487 0.7037 0.0
C20 C 0.16196 0.73725 0.68396 0.0
C21 C 0.192 0.72805 0.69711 0.0
C22 C 0.2014 0.73749 0.72968 0.0
N23 N 0.11261 0.76775 0.69175 0.0
H24 H 0.70664 0.41954 0.83456 0.0
H25 H 0.60541 0.3248 0.82927 0.0
H26 H 0.68793 0.33418 0.90275 0.0
H27 H 0.58392 0.36211 0.7964 0.0
C28 C 0.60832 0.38246 0.78529 0.0
C29 C 0.68902 0.39352 0.84377 0.0
C30 C 0.70148 0.37906 0.87051 0.0
C31 C 0.6544 0.37464 0.82832 0.0
C32 C 0.63182 0.3401 0.84064 0.0
C33 C 0.64367 0.3254 0.86801 0.0
C34 C 0.6785 0.34526 0.88216 0.0
N35 N 0.64472 0.39118 0.80033 0.0
H36 H 0.8162 0.63487 0.33631 0.0
H37 H 0.90901 0.73414 0.31905 0.0
H38 H 0.83401 0.72592 0.40267 0.0
H39 H 0.931 0.70073 0.28439 0.0
C40 C 0.90765 0.67747 0.27622 0.0
C41 C 0.83215 0.66248 0.34346 0.0
C42 C 0.82142 0.67781 0.37214 0.0
C43 C 0.86395 0.6821 0.32421 0.0
C44 C 0.88495 0.71802 0.33369 0.0
C45 C 0.87395 0.73392 0.36191 0.0
C46 C 0.84236 0.71362 0.38089 0.0
N47 N 0.87316 0.66487 0.29539 0.0
H48 H 0.63312 0.76643 0.91594 0.0
H49 H 0.69113 0.73246 0.8351 0.0
H50 H 0.63922 0.8141 0.82215 0.0
H51 H 0.6718 0.67778 0.86717 0.0
C52 C 0.68475 0.69381 0.88834 0.0
C53 C 0.64092 0.7675 0.89023 0.0
C54 C 0.63259 0.79238 0.87037 0.0
C55 C 0.66119 0.74521 0.87756 0.0
C56 C 0.67372 0.74815 0.84475 0.0
C57 C 0.66606 0.77309 0.82472 0.0
C58 C 0.64466 0.79441 0.83746 0.0
N59 N 0.67266 0.72333 0.89908 0.0
H60 H 0.87178 0.25767 0.31381 0.0
H61 H 0.84845 0.29944 0.40771 0.0
H62 H 0.78787 0.3115 0.32461 0.0
H63 H 0.89335 0.27999 0.42538 0.0
C64 C 0.89945 0.26134 0.40761 0.0
C65 C 0.85746 0.27305 0.3287 0.0
C66 C 0.82947 0.28462 0.31519 0.0
C67 C 0.86474 0.27813 0.36195 0.0
C68 C 0.84426 0.29602 0.38182 0.0
C69 C 0.81714 0.30893 0.36822 0.0
C70 C 0.81013 0.30326 0.33491 0.0
N71 N 0.89002 0.26162 0.37453 0.0
H72 H 0.31892 0.63163 0.22598 0.0
H73 H 0.41658 0.72918 0.23487 0.0
H74 H 0.33729 0.71793 0.15859 0.0
H75 H 0.43498 0.69891 0.274 0.0
C76 C 0.41254 0.67439 0.28132 0.0
C77 C 0.33575 0.65828 0.21754 0.0
C78 C 0.32426 0.67201 0.18979 0.0
C79 C 0.36922 0.67802 0.23422 0.0
C80 C 0.39118 0.71304 0.22259 0.0
C81 C 0.37939 0.7278 0.19531 0.0
C82 C 0.34626 0.70679 0.17939 0.0
N83 N 0.37871 0.66159 0.26237 0.0
H84 H 0.10208 0.31668 0.73135 0.0
H85 H 0.19864 0.41397 0.71892 0.0
H86 H 0.17827 0.32783 0.64755 0.0
H87 H 0.19266 0.41606 0.77469 0.0
C88 C 0.16193 0.4081 0.77885 0.0
C89 C 0.12721 0.33223 0.71741 0.0
C90 C 0.13729 0.31795 0.68784 0.0
C91 C 0.14936 0.36663 0.72918 0.0
C92 C 0.18181 0.38704 0.7108 0.0
C93 C 0.19188 0.37328 0.68106 0.0
C94 C 0.16964 0.33882 0.66996 0.0
N95 N 0.13746 0.38041 0.7588 0.0
Dy96 Dy 0.04809 0.03158 0.5202 0.0
Dy97 Dy 0.96064 1.00532 0.55187 0.0
C98 C 0.02609 0.07171 0.58106 0.0
O99 O 0.0453 0.98405 0.54947 0.0
O100 O 0.99067 0.97645 0.58147 0.0
O101 O 0.10378 0.07244 0.5178 0.0
O102 O 0.09299 0.02235 0.48975 0.0
O103 O 0.96646 0.9596 0.52081 0.0
O104 O 0.01029 0.99353 0.48392 0.0
O105 O 0.95884 0.03646 0.50781 0.0
O106 O 0.02194 0.0712 0.50277 0.0
O107 O 0.89984 0.98066 0.54623 0.0
O108 O 0.92219 1.00527 0.5925 0.0
C109 C 0.02203 0.96878 0.57368 0.0
O110 O 0.04982 0.05491 0.57069 0.0
O111 O 0.99119 0.06119 0.57063 0.0
C112 C 0.13778 0.07553 0.46806 0.0
C113 C 0.17849 0.11763 0.41606 0.0
C114 C 0.19478 0.12095 0.4467 0.0
C115 C 0.17459 0.09998 0.47246 0.0
C116 C 0.12118 0.07232 0.43758 0.0
C117 C 0.14153 0.0931 0.41168 0.0
C118 C 0.11708 0.05452 0.49588 0.0
C119 C 0.98373 0.96303 0.49205 0.0
C120 C 0.98586 0.06516 0.49683 0.0
C121 C 0.86464 0.95674 0.59408 0.0
C122 C 0.81437 0.90391 0.63402 0.0
C123 C 0.84936 0.90031 0.62291 0.0
C124 C 0.87447 0.92671 0.60311 0.0
C125 C 0.8291 0.95947 0.60384 0.0
C126 C 0.80412 0.93327 0.62366 0.0
C127 C 0.89195 0.98682 0.57662 0.0
H128 H 0.22336 0.13941 0.45061 0.0
H129 H 0.18772 0.10287 0.49588 0.0
H130 H 0.09256 0.05389 0.43382 0.0
H131 H 0.12824 0.0903 0.38835 0.0
H132 H 0.85802 0.87808 0.63076 0.0
H133 H 0.90198 0.92436 0.59575 0.0
H134 H 0.82114 0.9825 0.59698 0.0
H135 H 0.77716 0.93644 0.63162 0.0
Dy136 Dy 0.47376 1.01163 1.01107 0.0
Dy137 Dy 0.55462 0.03665 0.04793 0.0
C138 C 0.48703 0.96247 0.0671 0.0
O139 O 0.46575 0.04074 0.05706 0.0
O140 O 0.52725 0.07773 0.06304 0.0
O141 O 0.41238 0.98691 1.01338 0.0
O142 O 0.4412 1.01137 0.96884 0.0
O143 O 0.56582 0.07485 1.00547 0.0
O144 O 0.50387 0.06885 0.99453 0.0
O145 O 0.55474 0.9888 1.01724 0.0
O146 O 0.51131 0.98912 0.97938 0.0
O147 O 0.61626 0.05209 0.0476 0.0
O148 O 0.5833 0.04415 0.09333 0.0
C149 C 0.49052 0.07052 0.06857 0.0
O150 O 0.47284 0.96211 0.03824 0.0
O151 O 0.51308 0.99207 0.078 0.0
C152 C 0.38532 0.96073 0.96315 0.0
C153 C 0.33897 0.90309 0.92494 0.0
C154 C 0.34161 0.89889 0.95844 0.0
C155 C 0.36471 0.92745 0.97741 0.0
C156 C 0.38233 0.96488 0.92974 0.0
C157 C 0.35957 0.93635 0.91082 0.0
C158 C 0.40905 0.99179 0.98258 0.0
C159 C 0.54081 0.08625 0.99099 0.0
C160 C 0.5388 0.97809 0.98921 0.0
C161 C 0.64689 0.08336 0.09509 0.0
C162 C 0.70434 0.13794 0.12763 0.0
C163 C 0.69486 0.14332 0.09585 0.0
C164 C 0.66629 0.11614 0.07962 0.0
C165 C 0.65625 0.07816 0.12672 0.0
C166 C 0.68444 0.10512 0.14287 0.0
C167 C 0.61721 0.05351 0.07932 0.0
H168 H 0.32601 0.87349 0.96988 0.0
H169 H 0.36623 0.92348 1.00317 0.0
H170 H 0.39743 0.99037 0.91822 0.0
H171 H 0.35747 0.94059 0.88518 0.0
H172 H 0.70965 0.16834 0.08351 0.0
H173 H 0.65945 0.12073 0.05516 0.0
H174 H 0.64154 0.0531 0.13909 0.0
H175 H 0.69016 0.10039 0.16762 0.0
Dy176 Dy 0.50937 0.49142 0.51171 0.0
Dy177 Dy 0.51199 0.56535 0.55356 0.0
C178 C 0.53922 0.50254 0.58647 0.0
O179 O 0.44861 0.47904 0.52932 0.0
O180 O 0.4549 0.52631 0.56612 0.0
O181 O 0.49987 0.4337 0.50731 0.0
O182 O 0.51913 0.46771 0.4655 0.0
O183 O 0.47741 0.5669 0.50979 0.0
O184 O 0.49651 0.52833 0.47547 0.0
O185 O 0.56408 0.58076 0.52077 0.0
O186 O 0.57092 0.52502 0.51371 0.0
O187 O 0.52273 0.62319 0.55576 0.0
O188 O 0.50477 0.59175 0.59926 0.0
C189 C 0.4348 0.49543 0.55269 0.0
O190 O 0.52438 0.48026 0.56209 0.0
O191 O 0.54189 0.53719 0.58586 0.0
C192 C 0.54546 0.42127 0.47155 0.0
C193 C 0.60611 0.39344 0.45952 0.0
C194 C 0.6135 0.43058 0.46626 0.0
C195 C 0.5835 0.44428 0.47231 0.0
C196 C 0.53782 0.38415 0.46525 0.0
C197 C 0.56789 0.37031 0.45928 0.0
C198 C 0.51398 0.43603 0.47764 0.0
C199 C 0.48075 0.55398 0.48019 0.0
C200 C 0.58441 0.56029 0.51099 0.0
C201 C 0.47789 0.6374 0.59163 0.0
C202 C 0.41321 0.65908 0.60568 0.0
C203 C 0.4193 0.64566 0.57451 0.0
C204 C 0.45117 0.63475 0.56761 0.0
C205 C 0.47237 0.6514 0.62252 0.0
C206 C 0.44035 0.66208 0.62952 0.0
C207 C 0.50941 0.62257 0.58564 0.0
H208 H 0.64248 0.44928 0.46612 0.0
H209 H 0.59002 0.473 0.47719 0.0
H210 H 0.50863 0.36593 0.46484 0.0
H211 H 0.56122 0.34151 0.45454 0.0
H212 H 0.39932 0.64338 0.55544 0.0
H213 H 0.45452 0.62362 0.54365 0.0
H214 H 0.49232 0.65315 0.64152 0.0
H215 H 0.43631 0.67166 0.65396 0.0
Dy216 Dy 0.02039 0.56512 1.0103 0.0
Dy217 Dy 0.00778 0.48856 0.04535 0.0
C218 C 0.97522 0.54777 0.07805 0.0
O219 O 0.06654 0.57802 0.04729 0.0
O220 O 0.06967 0.52095 0.0527 0.0
O221 O 0.02476 0.62164 1.0147 0.0
O222 O 0.02567 0.59666 0.96717 0.0
O223 O 0.03182 0.48311 0.9955 0.0
O224 O 0.06128 0.5427 0.98271 0.0
O225 O 0.95014 0.48292 0.02525 0.0
O226 O 0.97285 0.52332 0.98441 0.0
O227 O 0.99079 0.43008 0.04332 0.0
O228 O 0.01134 0.45923 0.08803 0.0
C229 C 0.08391 0.55622 0.05788 0.0
O230 O 0.97412 0.55917 0.04861 0.0
O231 O 0.99256 0.52424 0.08313 0.0
C232 C 0.98831 0.63446 0.97476 0.0
C233 C 0.9235 0.65289 0.96013 0.0
C234 C 0.9198 0.61738 0.96877 0.0
C235 C 0.95181 0.60835 0.97617 0.0
C236 C 0.99242 0.6699 0.966 0.0
C237 C 0.9602 0.67908 0.95869 0.0
C238 C 0.02129 0.62423 0.98358 0.0
C239 C 0.05566 0.50802 0.97724 0.0
C240 C 0.94548 0.49602 0.99719 0.0
C241 C 0.03384 0.41164 0.07296 0.0
C242 C 0.09744 0.38832 0.07923 0.0
C243 C 0.09504 0.40859 0.05233 0.0
C244 C 0.06371 0.42035 0.04936 0.0
C245 C 0.03537 0.3904 0.09927 0.0
C246 C 0.06693 0.37875 0.10238 0.0
C247 C 1.00392 0.42856 0.07196 0.0
H248 H 0.89215 0.59637 0.96952 0.0
H249 H 0.94803 0.58086 0.98308 0.0
H250 H 0.02038 0.69043 0.96506 0.0
H251 H 0.96394 0.70674 0.95236 0.0
H252 H 0.11776 0.416 0.03384 0.0
H253 H 0.06339 0.43725 0.02914 0.0
H254 H 0.01287 0.38395 0.11797 0.0
H255 H 0.06813 0.36352 0.12359 0.0
C256 C 0.27273 0.23381 0.25979 0.0
C257 C 0.31114 0.23598 0.25537 0.0
C258 C 0.25095 0.21686 0.28695 0.0
C259 C 0.26787 0.20135 0.31003 0.0
C260 C 0.3069 0.20437 0.30626 0.0
C261 C 0.32813 0.22182 0.27904 0.0
C262 C 0.20946 0.2144 0.29032 0.0
C263 C 0.32588 0.18809 0.33039 0.0
C264 C 0.21944 0.1766 0.39299 0.0
C265 C 0.20038 0.13938 0.38866 0.0
C266 C 0.24121 0.1973 0.36747 0.0
C267 C 0.24422 0.18019 0.33711 0.0
C268 C 0.22485 0.14264 0.33257 0.0
C269 C 0.20298 0.1227 0.3584 0.0
C270 C 0.26105 0.23737 0.373 0.0
C271 C 0.22767 0.12342 0.30058 0.0
H272 H 0.2592 0.24418 0.24139 0.0
H273 H 0.35793 0.22387 0.27599 0.0
H274 H 0.19106 0.18571 0.28765 0.0
H275 H 0.20318 0.22411 0.31486 0.0
H276 H 0.20155 0.23048 0.27179 0.0
H277 H 0.35689 0.19427 0.32475 0.0
H278 H 0.32218 0.19836 0.35534 0.0
H279 H 0.31211 0.15823 0.33038 0.0
H280 H 0.21709 0.18957 0.41632 0.0
H281 H 0.18858 0.09384 0.35517 0.0
H282 H 0.25165 0.253 0.35506 0.0
H283 H 0.29236 0.24386 0.36926 0.0
H284 H 0.25521 0.24664 0.39788 0.0
H285 H 0.21742 0.13603 0.28072 0.0
H286 H 0.21073 0.09412 0.30104 0.0
H287 H 0.25794 0.12623 0.29459 0.0
C288 C 0.20054 0.80743 0.78905 0.0
C289 C 0.19619 0.77111 0.78133 0.0
C290 C 0.22046 0.82468 0.81641 0.0
C291 C 0.23649 0.80514 0.83653 0.0
C292 C 0.23004 0.76783 0.83016 0.0
C293 C 0.21 0.75123 0.80251 0.0
C294 C 0.22669 0.86454 0.82238 0.0
C295 C 0.24627 0.74602 0.85133 0.0
C296 C 0.32734 0.86558 0.87384 0.0
C297 C 0.31399 0.87357 0.90454 0.0
C298 C 0.30274 0.84157 0.85216 0.0
C299 C 0.26382 0.82512 0.86146 0.0
C300 C 0.25071 0.83125 0.89321 0.0
C301 C 0.27603 0.8555 0.91446 0.0
C302 C 0.31796 0.83553 0.81859 0.0
C303 C 0.20949 0.81395 0.90405 0.0
H304 H 0.19041 0.82312 0.7726 0.0
H305 H 0.20628 0.72301 0.79683 0.0
H306 H 0.21964 0.86977 0.84812 0.0
H307 H 0.25724 0.88025 0.81764 0.0
H308 H 0.20918 0.87482 0.8065 0.0
H309 H 0.23372 0.71645 0.84627 0.0
H310 H 0.27762 0.75407 0.84682 0.0
H311 H 0.24124 0.75151 0.87745 0.0
H312 H 0.35689 0.87905 0.86639 0.0
H313 H 0.26561 0.86171 0.93818 0.0
H314 H 0.3049 0.84759 0.80022 0.0
H315 H 0.31012 0.80613 0.81277 0.0
H316 H 0.3495 0.84787 0.81619 0.0
H317 H 0.19152 0.82699 0.89169 0.0
H318 H 0.20524 0.81685 0.93076 0.0
H319 H 0.19923 0.78474 0.89715 0.0
C320 C 0.56328 0.3971 0.74749 0.0
C321 C 0.60107 0.40258 0.75641 0.0
C322 C 0.55462 0.41464 0.72063 0.0
C323 C 0.58433 0.4383 0.70112 0.0
C324 C 0.62269 0.44396 0.70995 0.0
C325 C 0.63055 0.42642 0.73737 0.0
C326 C 0.5133 0.40764 0.7131 0.0
C327 C 0.65562 0.46826 0.69004 0.0
C328 C 0.5583 0.4533 0.61347 0.0
C329 C 0.55285 0.4874 0.61558 0.0
C330 C 0.56949 0.43779 0.64047 0.0
C331 C 0.57502 0.4561 0.67126 0.0
C332 C 0.56984 0.49067 0.67355 0.0
C333 C 0.55926 0.50589 0.64593 0.0
C334 C 0.57503 0.40134 0.63602 0.0
C335 C 0.57461 0.51137 0.70555 0.0
H336 H 0.54008 0.37892 0.76177 0.0
H337 H 0.65989 0.43101 0.74358 0.0
H338 H 0.50737 0.43366 0.71258 0.0
H339 H 0.50732 0.39464 0.68864 0.0
H340 H 0.49338 0.38987 0.73117 0.0
H341 H 0.68372 0.47028 0.69985 0.0
H342 H 0.65446 0.45775 0.66457 0.0
H343 H 0.65339 0.49584 0.68935 0.0
H344 H 0.55379 0.43846 0.59045 0.0
H345 H 0.5551 0.53204 0.64839 0.0
H346 H 0.55362 0.38113 0.65131 0.0
H347 H 0.6037 0.40291 0.64415 0.0
H348 H 0.57216 0.39147 0.61031 0.0
H349 H 0.55349 0.4954 0.72385 0.0
H350 H 0.5707 0.53819 0.70349 0.0
H351 H 0.60342 0.51552 0.71484 0.0
C352 C 0.88512 0.62732 0.23396 0.0
C353 C 0.91399 0.65751 0.24627 0.0
C354 C 0.89179 0.60832 0.20589 0.0
C355 C 0.92821 0.61967 0.18983 0.0
C356 C 0.95726 0.65037 0.20203 0.0
C357 C 0.94975 0.66891 0.23 0.0
C358 C 0.86 0.57587 0.19361 0.0
C359 C 0.99653 0.66336 0.18582 0.0
C360 C 0.96274 0.5532 0.1381 0.0
C361 C 0.95936 0.56365 0.10634 0.0
C362 C 0.95163 0.57044 0.16537 0.0
C363 C 0.93661 0.59887 0.16096 0.0
C364 C 0.93179 0.60869 0.12897 0.0
C365 C 0.94326 0.59103 0.10208 0.0
C366 C 0.9573 0.55907 0.19898 0.0
C367 C 0.91567 0.63867 0.12316 0.0
H368 H 0.85732 0.61839 0.24629 0.0
H369 H 0.97211 0.69225 0.23939 0.0
H370 H 0.85476 0.57948 0.1678 0.0
H371 H 0.86845 0.55121 0.19458 0.0
H372 H 0.83292 0.57133 0.20806 0.0
H373 H 0.01571 0.68812 0.1979 0.0
H374 H 0.00983 0.64176 0.18625 0.0
H375 H 0.99435 0.66928 0.15993 0.0
H376 H 0.97506 0.53208 0.14179 0.0
H377 H 0.94046 0.59936 0.07771 0.0
H378 H 0.93024 0.55252 0.21369 0.0
H379 H 0.97873 0.5818 0.21163 0.0
H380 H 0.96722 0.53514 0.19832 0.0
H381 H 0.88814 0.63381 0.13691 0.0
H382 H 0.91099 0.6412 0.09698 0.0
H383 H 0.9356 0.66485 0.13216 0.0
C384 C 0.39195 0.2153 0.12778 0.0
C385 C 0.39568 0.22344 0.16119 0.0
C386 C 0.4101 0.19251 0.11233 0.0
C387 C 0.43203 0.17713 0.13084 0.0
C388 C 0.43706 0.18629 0.16427 0.0
C389 C 0.41913 0.20959 0.17896 0.0
C390 C 0.40457 0.18377 0.07648 0.0
C391 C 0.46008 0.1703 0.18485 0.0
C392 C 0.43951 0.08702 0.10019 0.0
C393 C 0.47647 0.09746 0.08613 0.0
C394 C 0.42497 0.11267 0.11527 0.0
C395 C 0.4477 0.14971 0.11572 0.0
C396 C 0.48511 0.16041 0.10169 0.0
C397 C 0.4992 0.13407 0.0873 0.0
C398 C 0.38515 0.10014 0.1305 0.0
C399 C 0.50992 0.19973 0.10126 0.0
H400 H 0.37365 0.22558 0.1139 0.0
H401 H 0.42278 0.21635 0.20464 0.0
H402 H 0.43255 0.18804 0.06362 0.0
H403 H 0.38737 0.15481 0.07302 0.0
H404 H 0.3898 0.20056 0.06497 0.0
H405 H 0.4628 0.1816 0.21011 0.0
H406 H 0.4462 0.1405 0.18586 0.0
H407 H 0.4891 0.17537 0.1738 0.0
H408 H 0.4219 0.05872 0.09942 0.0
H409 H 0.52765 0.14233 0.07611 0.0
H410 H 0.3668 0.11277 0.11816 0.0
H411 H 0.38599 0.1089 0.15647 0.0
H412 H 0.37169 0.07023 0.12898 0.0
H413 H 0.49573 0.21562 0.08779 0.0
H414 H 0.53852 0.20351 0.08966 0.0
H415 H 0.51377 0.21112 0.12642 0.0
C416 C 0.08041 0.82143 0.67119 0.0
C417 C 0.0844 0.79463 0.64908 0.0
C418 C 0.06689 0.8489 0.6613 0.0
C419 C 0.05676 0.84942 0.62859 0.0
C420 C 0.05905 0.82148 0.60655 0.0
C421 C 0.0731 0.79453 0.61703 0.0
C422 C 0.06527 0.87836 0.68546 0.0
C423 C 0.04809 0.82088 0.57155 0.0
C424 C 1.00152 0.91117 0.60495 0.0
C425 C 0.03077 0.94004 0.59102 0.0
C426 C 0.00946 0.88148 0.6176 0.0
C427 C 0.04756 0.88106 0.61667 0.0
C428 C 0.07729 0.91085 0.60377 0.0
C429 C 0.0685 0.9398 0.59094 0.0
C430 C 0.97699 0.85009 0.63094 0.0
C431 C 0.1184 0.91182 0.60284 0.0
H432 H 0.08904 0.82179 0.69607 0.0
H433 H 0.07601 0.77377 0.59996 0.0
H434 H 0.08687 0.90443 0.67829 0.0
H435 H 0.0369 0.88212 0.68549 0.0
H436 H 0.07093 0.87236 0.71059 0.0
H437 H 0.04778 0.79546 0.55845 0.0
H438 H 0.01944 0.82385 0.57028 0.0
H439 H 0.06872 0.84411 0.55872 0.0
H440 H 0.97226 0.91106 0.60476 0.0
H441 H 0.09126 0.96217 0.58039 0.0
H442 H 0.98293 0.8442 0.65597 0.0
H443 H 0.97425 0.82542 0.61574 0.0
H444 H 0.9493 0.85537 0.63143 0.0
H445 H 0.12705 0.90805 0.6276 0.0
H446 H 0.1383 0.93771 0.59333 0.0
H447 H 0.12155 0.88924 0.58718 0.0
C448 C 0.74642 0.43372 0.89986 0.0
C449 C 0.73855 0.39846 0.88678 0.0
C450 C 0.77942 0.45043 0.91816 0.0
C451 C 0.80588 0.43186 0.92304 0.0
C452 C 0.79851 0.39665 0.90901 0.0
C453 C 0.76496 0.38035 0.89151 0.0
C454 C 0.7855 0.48766 0.93297 0.0
C455 C 0.82605 0.37599 0.91259 0.0
C456 C 0.90878 0.48654 0.94541 0.0
C457 C 0.90937 0.47967 0.97872 0.0
C458 C 0.87559 0.47133 0.9272 0.0
C459 C 0.84134 0.44912 0.94255 0.0
C460 C 0.84151 0.44257 0.97632 0.0
C461 C 0.87545 0.4575 0.99383 0.0
C462 C 0.87743 0.47858 0.89126 0.0
C463 C 0.8057 0.41975 0.99403 0.0
H464 H 0.72605 0.44779 0.89674 0.0
H465 H 0.75926 0.35316 0.88146 0.0
H466 H 0.78662 0.48661 0.95982 0.0
H467 H 0.81327 0.50675 0.92422 0.0
H468 H 0.76248 0.4986 0.92704 0.0
H469 H 0.81711 0.34956 0.89917 0.0
H470 H 0.85496 0.39232 0.90346 0.0
H471 H 0.82833 0.37093 0.93866 0.0
H472 H 0.93467 0.50344 0.93324 0.0
H473 H 0.87527 0.45213 0.01952 0.0
H474 H 0.8561 0.49165 0.88557 0.0
H475 H 0.87016 0.4526 0.87721 0.0
H476 H 0.90612 0.49631 0.88284 0.0
H477 H 0.78215 0.43082 0.99058 0.0
H478 H 0.80979 0.41862 0.02051 0.0
H479 H 0.79657 0.39174 0.98374 0.0
C480 C 0.79119 0.65845 0.42712 0.0
C481 C 0.78833 0.65693 0.39314 0.0
C482 C 0.75952 0.64141 0.44755 0.0
C483 C 0.72399 0.62236 0.43374 0.0
C484 C 0.72118 0.61974 0.39943 0.0
C485 C 0.7534 0.63698 0.37954 0.0
C486 C 0.76385 0.64464 0.48396 0.0
C487 C 0.6838 0.5997 0.38375 0.0
C488 C 0.6455 0.55626 0.48506 0.0
C489 C 0.62189 0.57698 0.49383 0.0
C490 C 0.67902 0.57071 0.46583 0.0
C491 C 0.68933 0.60685 0.45518 0.0
C492 C 0.66624 0.62824 0.46474 0.0
C493 C 0.6329 0.61309 0.48394 0.0
C494 C 0.70296 0.54706 0.45637 0.0
C495 C 0.67627 0.66693 0.45403 0.0
H496 H 0.81826 0.67332 0.43779 0.0
H497 H 0.7509 0.63589 0.35334 0.0
H498 H 0.74583 0.66004 0.49485 0.0
H499 H 0.75383 0.61738 0.49482 0.0
H500 H 0.79389 0.65859 0.4908 0.0
H501 H 0.68682 0.59844 0.3568 0.0
H502 H 0.67223 0.57166 0.39286 0.0
H503 H 0.66252 0.61336 0.39041 0.0
H504 H 0.63759 0.52851 0.49289 0.0
H505 H 0.6149 0.62938 0.49047 0.0
H506 H 0.73281 0.56039 0.46385 0.0
H507 H 0.70377 0.54332 0.42953 0.0
H508 H 0.69175 0.51996 0.46755 0.0
H509 H 0.70538 0.68297 0.46176 0.0
H510 H 0.65585 0.68022 0.46417 0.0
H511 H 0.67644 0.66766 0.42709 0.0
C512 C 0.28451 0.32839 0.08932 0.0
C513 C 0.29783 0.33514 0.12103 0.0
C514 C 0.25312 0.33808 0.08022 0.0
C515 C 0.23474 0.35482 0.10349 0.0
C516 C 0.24903 0.36292 0.13519 0.0
C517 C 0.28048 0.35308 0.14356 0.0
C518 C 0.23888 0.32936 0.04609 0.0
C519 C 0.23025 0.38082 0.16066 0.0
C520 C 0.16868 0.40464 0.07783 0.0
C521 C 0.13256 0.37895 0.08393 0.0
C522 C 0.20222 0.39683 0.08322 0.0
C523 C 0.1996 0.3626 0.09528 0.0
C524 C 0.16328 0.33636 0.10109 0.0
C525 C 0.13018 0.34483 0.0953 0.0
C526 C 0.24042 0.42551 0.07675 0.0
C527 C 0.15937 0.29957 0.11405 0.0
H528 H 0.29793 0.31453 0.0719 0.0
H529 H 0.29077 0.35863 0.16808 0.0
H530 H 0.20983 0.309 0.04684 0.0
H531 H 0.23665 0.35397 0.03484 0.0
H532 H 0.25783 0.3185 0.03033 0.0
H533 H 0.24592 0.38673 0.18372 0.0
H534 H 0.22844 0.40654 0.15146 0.0
H535 H 0.20062 0.36292 0.16602 0.0
H536 H 0.17078 0.4313 0.06957 0.0
H537 H 0.10239 0.32473 0.0997 0.0
H538 H 0.25861 0.41444 0.06037 0.0
H539 H 0.25554 0.43386 0.09989 0.0
H540 H 0.23755 0.44993 0.06556 0.0
H541 H 0.17528 0.28587 0.09784 0.0
H542 H 0.1291 0.2818 0.11625 0.0
H543 H 0.17205 0.30273 0.13838 0.0
C544 C 0.61306 0.25652 0.86565 0.0
C545 C 0.62114 0.28955 0.88316 0.0
C546 C 0.59874 0.22269 0.88153 0.0
C547 C 0.59194 0.22146 0.91587 0.0
C548 C 0.59862 0.2548 0.93333 0.0
C549 C 0.61315 0.28804 0.91695 0.0
C550 C 0.59227 0.1882 0.86165 0.0
C551 C 0.59155 0.25548 0.9697 0.0
C552 C 0.52767 0.1343 0.95751 0.0
C553 C 0.55417 0.12028 0.97092 0.0
C554 C 0.53942 0.16649 0.93928 0.0
C555 C 0.57886 0.18572 0.93381 0.0
C556 C 0.60577 0.17151 0.94693 0.0
C557 C 0.59323 0.13932 0.96524 0.0
C558 C 0.50941 0.18028 0.92628 0.0
C559 C 0.64807 0.19063 0.94193 0.0
H560 H 0.61966 0.25711 0.83972 0.0
H561 H 0.6194 0.31325 0.93088 0.0
H562 H 0.61222 0.17429 0.8691 0.0
H563 H 0.56284 0.16946 0.86625 0.0
H564 H 0.59667 0.1933 0.83515 0.0
H565 H 0.59606 0.28333 0.97958 0.0
H566 H 0.56192 0.23832 0.97609 0.0
H567 H 0.61107 0.24405 0.98187 0.0
H568 H 0.49741 0.12027 0.96153 0.0
H569 H 0.61422 0.12914 0.97523 0.0
H570 H 0.51365 0.18368 0.89959 0.0
H571 H 0.51223 0.20731 0.93729 0.0
H572 H 0.47997 0.16178 0.93151 0.0
H573 H 0.65542 0.1942 0.91556 0.0
H574 H 0.66546 0.17559 0.95235 0.0
H575 H 0.65603 0.21805 0.95347 0.0
C576 C 0.87537 0.79614 0.37937 0.0
C577 C 0.8952 0.77163 0.3725 0.0
C578 C 0.89319 0.82976 0.39468 0.0
C579 C 0.93167 0.83893 0.40383 0.0
C580 C 0.9525 0.81515 0.3952 0.0
C581 C 0.93402 0.78179 0.37944 0.0
C582 C 0.87001 0.85442 0.40295 0.0
C583 C 0.99344 0.82372 0.40467 0.0
C584 C 0.98051 0.93553 0.43548 0.0
C585 C 0.97289 0.93146 0.46908 0.0
C586 C 0.96807 0.90556 0.41381 0.0
C587 C 0.94806 0.87075 0.42612 0.0
C588 C 0.94155 0.86643 0.46012 0.0
C589 C 0.95379 0.89677 0.48107 0.0
C590 C 0.97526 0.91132 0.37773 0.0
C591 C 0.92082 0.8298 0.47443 0.0
H592 H 0.84539 0.78836 0.37379 0.0
H593 H 0.9493 0.76276 0.37431 0.0
H594 H 0.8641 0.85453 0.4296 0.0
H595 H 0.88622 0.88266 0.39607 0.0
H596 H 0.84231 0.84565 0.39054 0.0
H597 H 0.00715 0.8052 0.39236 0.0
H598 H 0.01038 0.85205 0.39869 0.0
H599 H 0.99441 0.82106 0.43136 0.0
H600 H 0.99526 0.96224 0.42604 0.0
H601 H 0.94822 0.89323 0.50702 0.0
H602 H 0.94764 0.90569 0.36565 0.0
H603 H 0.98911 0.89216 0.367 0.0
H604 H 0.99357 0.93942 0.37217 0.0
H605 H 0.89098 0.81982 0.46619 0.0
H606 H 0.92017 0.83066 0.50146 0.0
H607 H 0.93473 0.80984 0.46579 0.0
C608 C 0.22838 0.68454 0.68985 0.0
C609 C 0.21652 0.71169 0.67688 0.0
C610 C 0.25777 0.67407 0.67469 0.0
C611 C 0.27546 0.6908 0.64554 0.0
C612 C 0.26153 0.7161 0.63089 0.0
C613 C 0.23225 0.72639 0.64683 0.0
C614 C 0.27166 0.64696 0.69117 0.0
C615 C 0.27914 0.734 0.59949 0.0
C616 C 0.37996 0.69873 0.63417 0.0
C617 C 0.37815 0.6688 0.61372 0.0
C618 C 0.34685 0.70673 0.64389 0.0
C619 C 0.31096 0.68457 0.63257 0.0
C620 C 0.30901 0.65517 0.6109 0.0
C621 C 0.34257 0.64747 0.60192 0.0
C622 C 0.35018 0.73827 0.66717 0.0
C623 C 0.27137 0.63115 0.59803 0.0
H624 H 0.21587 0.67272 0.71285 0.0
H625 H 0.22335 0.74749 0.63673 0.0
H626 H 0.27351 0.62537 0.67365 0.0
H627 H 0.3008 0.66077 0.70013 0.0
H628 H 0.25274 0.63414 0.71212 0.0
H629 H 0.26154 0.74869 0.58882 0.0
H630 H 0.30786 0.75369 0.60409 0.0
H631 H 0.28291 0.71363 0.58141 0.0
H632 H 0.40734 0.71582 0.64288 0.0
H633 H 0.3407 0.62402 0.58642 0.0
H634 H 0.33428 0.72827 0.69028 0.0
H635 H 0.33717 0.75713 0.65678 0.0
H636 H 0.38031 0.75361 0.6728 0.0
H637 H 0.2535 0.61524 0.61816 0.0
H638 H 0.27517 0.61199 0.57868 0.0
H639 H 0.25541 0.64781 0.58811 0.0
C640 C 0.72469 0.78837 0.78887 0.0
C641 C 0.68511 0.78108 0.79219 0.0
C642 C 0.74473 0.80299 0.76023 0.0
C643 C 0.72462 0.81022 0.73426 0.0
C644 C 0.68428 0.80012 0.73649 0.0
C645 C 0.66498 0.78589 0.7656 0.0
C646 C 0.78777 0.81366 0.75897 0.0
C647 C 0.66179 0.80684 0.70909 0.0
C648 C 0.77741 0.89394 0.68661 0.0
C649 C 0.79016 0.87924 0.65869 0.0
C650 C 0.75568 0.87162 0.71108 0.0
C651 C 0.74614 0.83356 0.70745 0.0
C652 C 0.75839 0.81842 0.67908 0.0
C653 C 0.78064 0.84154 0.65506 0.0
C654 C 0.74365 0.88891 0.74119 0.0
C655 C 0.7483 0.77795 0.67429 0.0
H656 H 0.74041 0.78504 0.8095 0.0
H657 H 0.63432 0.77991 0.76806 0.0
H658 H 0.79811 0.80502 0.73546 0.0
H659 H 0.8003 0.84361 0.76093 0.0
H660 H 0.79853 0.80174 0.77906 0.0
H661 H 0.63073 0.79203 0.71232 0.0
H662 H 0.66596 0.83624 0.70814 0.0
H663 H 0.67202 0.79858 0.68535 0.0
H664 H 0.7853 0.92311 0.68969 0.0
H665 H 0.79039 0.8302 0.63338 0.0
H666 H 0.75576 0.8814 0.76301 0.0
H667 H 0.7121 0.87876 0.74452 0.0
H668 H 0.75318 0.91893 0.74002 0.0
H669 H 0.76133 0.7669 0.6934 0.0
H670 H 0.75828 0.77046 0.6501 0.0
H671 H 0.71691 0.76475 0.67677 0.0
C672 C 0.77724 0.25183 0.27864 0.0
C673 C 0.81586 0.27179 0.28228 0.0
C674 C 0.76392 0.23512 0.24888 0.0
C675 C 0.78978 0.23906 0.22185 0.0
C676 C 0.82844 0.261 0.22484 0.0
C677 C 0.84124 0.27666 0.25531 0.0
C678 C 0.72259 0.21145 0.247 0.0
C679 C 0.85657 0.26678 0.19635 0.0
C680 C 0.75743 0.15668 0.16669 0.0
C681 C 0.73348 0.16652 0.14603 0.0
C682 C 0.7786 0.18117 0.18997 0.0
C683 C 0.77662 0.21673 0.19201 0.0
C684 C 0.75617 0.22811 0.16869 0.0
C685 C 0.73441 0.2027 0.1461 0.0
C686 C 0.79993 0.16778 0.2144 0.0
C687 C 0.75469 0.26625 0.16928 0.0
H688 H 0.75773 0.24769 0.29963 0.0
H689 H 0.87111 0.29225 0.25818 0.0
H690 H 0.70875 0.22013 0.22692 0.0
H691 H 0.72097 0.18296 0.24169 0.0
H692 H 0.70602 0.21227 0.26997 0.0
H693 H 0.88255 0.29051 0.20054 0.0
H694 H 0.86549 0.24246 0.19249 0.0
H695 H 0.84337 0.27082 0.1737 0.0
H696 H 0.75784 0.12905 0.16598 0.0
H697 H 0.71626 0.21065 0.13004 0.0
H698 H 0.78499 0.16581 0.23856 0.0
H699 H 0.82922 0.18708 0.21706 0.0
H700 H 0.80187 0.14071 0.20746 0.0
H701 H 0.7344 0.26914 0.1889 0.0
H702 H 0.74502 0.27298 0.14586 0.0
H703 H 0.78312 0.28615 0.17446 0.0
C704 C 0.39263 0.62342 0.32346 0.0
C705 C 0.41977 0.65472 0.31049 0.0
C706 C 0.40042 0.60596 0.35096 0.0
C707 C 0.43635 0.61965 0.36621 0.0
C708 C 0.46372 0.65118 0.35304 0.0
C709 C 0.45513 0.66812 0.32578 0.0
C710 C 0.37002 0.57272 0.36379 0.0
C711 C 0.50246 0.66715 0.36774 0.0
C712 C 0.44982 0.59635 0.45508 0.0
C713 C 0.46756 0.56953 0.45112 0.0
C714 C 0.43884 0.61207 0.42805 0.0
C715 C 0.44567 0.60126 0.39563 0.0
C716 C 0.46317 0.57391 0.3915 0.0
C717 C 0.4737 0.55852 0.41894 0.0
C718 C 0.42029 0.64083 0.43429 0.0
C719 C 0.4715 0.56126 0.35786 0.0
H720 H 0.36516 0.61257 0.31223 0.0
H721 H 0.47649 0.69218 0.31625 0.0
H722 H 0.38088 0.54941 0.36284 0.0
H723 H 0.36288 0.57734 0.38966 0.0
H724 H 0.34351 0.56542 0.34975 0.0
H725 H 0.52078 0.69157 0.35481 0.0
H726 H 0.49913 0.67467 0.39366 0.0
H727 H 0.51734 0.64669 0.36705 0.0
H728 H 0.44469 0.60541 0.47947 0.0
H729 H 0.48736 0.53804 0.41503 0.0
H730 H 0.39266 0.63316 0.42191 0.0
H731 H 0.43879 0.66684 0.42399 0.0
H732 H 0.41511 0.64518 0.46066 0.0
H733 H 0.44494 0.55176 0.34391 0.0
H734 H 0.48386 0.53896 0.35842 0.0
H735 H 0.49188 0.58422 0.34451 0.0
C736 C 0.1723 0.44475 0.83057 0.0
C737 C 0.14687 0.42387 0.8076 0.0
C738 C 0.1592 0.45986 0.85824 0.0
C739 C 0.11967 0.4545 0.86285 0.0
C740 C 0.09389 0.43392 0.83938 0.0
C741 C 0.10775 0.41863 0.81216 0.0
C742 C 0.18761 0.48105 0.88284 0.0
C743 C 0.05161 0.42791 0.84312 0.0
C744 C 0.07802 0.46101 0.94811 0.0
C745 C 0.07481 0.49585 0.94881 0.0
C746 C 0.09333 0.44764 0.92065 0.0
C747 C 0.10512 0.46928 0.89276 0.0
C748 C 0.10244 0.50469 0.8934 0.0
C749 C 0.08766 0.51768 0.92153 0.0
C750 C 0.09638 0.41007 0.92138 0.0
C751 C 0.11425 0.52849 0.86407 0.0
H752 H 0.20257 0.44888 0.82709 0.0
H753 H 0.08795 0.40279 0.79437 0.0
H754 H 0.18597 0.5088 0.88612 0.0
H755 H 0.18055 0.46786 0.90681 0.0
H756 H 0.21741 0.48312 0.87552 0.0
H757 H 0.03556 0.4127 0.82206 0.0
H758 H 0.03991 0.41258 0.86552 0.0
H759 H 0.04655 0.45434 0.84577 0.0
H760 H 0.06834 0.44396 0.96909 0.0
H761 H 0.08498 0.54449 0.92172 0.0
H762 H 0.12612 0.4111 0.9152 0.0
H763 H 0.07781 0.39237 0.90284 0.0
H764 H 0.0879 0.39747 0.94554 0.0
H765 H 0.14444 0.53227 0.85687 0.0
H766 H 0.11106 0.55555 0.86862 0.0
H767 H 0.09661 0.51516 0.84318 0.0
C768 C 0.62969 0.8554 0.87644 0.0
C769 C 0.61484 0.81872 0.88466 0.0
C770 C 0.61513 0.88119 0.89119 0.0
C771 C 0.58519 0.87014 0.91497 0.0
C772 C 0.56932 0.83305 0.92277 0.0
C773 C 0.58436 0.80776 0.90752 0.0
C774 C 0.63293 0.9205 0.88229 0.0
C775 C 0.53736 0.82028 0.94804 0.0
C776 C 0.58075 0.93992 0.9798 0.0
C777 C 0.55095 0.95118 0.96938 0.0
C778 C 0.59193 0.91348 0.96236 0.0
C779 C 0.57292 0.89784 0.93368 0.0
C780 C 0.54296 0.90914 0.92283 0.0
C781 C 0.5323 0.93572 0.94082 0.0
C782 C 0.62411 0.90225 0.97471 0.0
C783 C 0.52215 0.89308 0.89228 0.0
H784 H 0.6537 0.86426 0.85925 0.0
H785 H 0.57253 0.77942 0.91372 0.0
H786 H 0.6105 0.93205 0.87615 0.0
H787 H 0.64808 0.93631 0.90343 0.0
H788 H 0.65363 0.92417 0.86134 0.0
H789 H 0.52624 0.79027 0.94952 0.0
H790 H 0.54776 0.83173 0.97226 0.0
H791 H 0.51348 0.83011 0.94248 0.0
H792 H 0.59541 0.95163 1.00181 0.0
H793 H 0.50916 0.94414 0.93263 0.0
H794 H 0.64766 0.90755 0.95607 0.0
H795 H 0.61396 0.87272 0.97922 0.0
H796 H 0.63574 0.91687 0.99759 0.0
H797 H 0.54262 0.89806 0.87114 0.0
H798 H 0.4993 0.90459 0.88725 0.0
H799 H 0.50916 0.86329 0.89446 0.0
C800 C 0.92327 0.20876 0.39658 0.0
C801 C 0.91565 0.23391 0.41863 0.0
C802 C 0.93643 0.18138 0.40731 0.0
C803 C 0.94204 0.17908 0.44087 0.0
C804 C 0.93521 0.2049 0.46313 0.0
C805 C 0.9221 0.23203 0.4517 0.0
C806 C 0.9435 0.15442 0.38284 0.0
C807 C 0.94093 0.20337 0.49911 0.0
C808 C 0.93629 0.08854 0.47551 0.0
C809 C 0.97493 0.09288 0.47963 0.0
C810 C 0.92528 0.11612 0.46233 0.0
C811 C 0.95357 0.14884 0.45294 0.0
C812 C 0.99265 0.15298 0.45602 0.0
C813 C 1.00288 0.12496 0.46934 0.0
C814 C 0.88328 0.11062 0.45932 0.0
C815 C 0.02364 0.18739 0.44608 0.0
H816 H 0.91846 0.21006 0.37092 0.0
H817 H 0.91623 0.25145 0.46876 0.0
H818 H 0.97296 0.15361 0.38477 0.0
H819 H 0.92363 0.12686 0.38809 0.0
H820 H 0.93953 0.16097 0.35745 0.0
H821 H 0.93574 0.22626 0.51302 0.0
H822 H 0.92121 0.17758 0.50888 0.0
H823 H 0.97045 0.20388 0.50333 0.0
H824 H 0.91444 0.0639 0.48333 0.0
H825 H 0.03282 0.12861 0.47235 0.0
H826 H 0.8772 0.11499 0.43391 0.0
H827 H 0.87524 0.1308 0.47498 0.0
H828 H 0.86494 0.08305 0.4665 0.0
H829 H 0.02012 0.1937 0.42056 0.0
H830 H 0.0527 0.18554 0.4483 0.0
H831 H 0.02132 0.2104 0.46159 0.0
C832 C 0.29105 0.6493 0.1369 0.0
C833 C 0.28937 0.65079 0.17115 0.0
C834 C 0.25826 0.63239 0.11862 0.0
C835 C 0.22224 0.61661 0.13465 0.0
C836 C 0.22044 0.61728 0.16925 0.0
C837 C 0.2539 0.63404 0.187 0.0
C838 C 0.26211 0.63204 0.08196 0.0
C839 C 0.18287 0.60119 0.18758 0.0
C840 C 0.13282 0.60848 0.08656 0.0
C841 C 0.11978 0.57168 0.07695 0.0
C842 C 0.16557 0.62316 0.10549 0.0
C843 C 0.18649 0.6008 0.11515 0.0
C844 C 0.17361 0.56365 0.1054 0.0
C845 C 0.14055 0.5496 0.08668 0.0
C846 C 0.17777 0.66279 0.11525 0.0
C847 C 0.19489 0.53866 0.11465 0.0
H848 H 0.31824 0.66169 0.12426 0.0
H849 H 0.25201 0.63518 0.21334 0.0
H850 H 0.25025 0.60389 0.07222 0.0
H851 H 0.24543 0.6479 0.07185 0.0
H852 H 0.29229 0.64363 0.07312 0.0
H853 H 0.18625 0.60248 0.21433 0.0
H854 H 0.16308 0.61596 0.18174 0.0
H855 H 0.16929 0.57249 0.17989 0.0
H856 H 0.11717 0.62596 0.07955 0.0
H857 H 0.131 0.52114 0.07962 0.0
H858 H 0.20692 0.67689 0.1052 0.0
H859 H 0.17892 0.66584 0.14213 0.0
H860 H 0.15812 0.67647 0.10656 0.0
H861 H 0.2248 0.54894 0.10498 0.0
H862 H 0.18143 0.51053 0.10525 0.0
H863 H 0.19604 0.53805 0.14151 0.0
C864 C 0.26183 0.40761 0.67516 0.0
C865 C 0.22588 0.39428 0.66132 0.0
C866 C 0.29475 0.42439 0.65592 0.0
C867 C 0.29147 0.42847 0.62216 0.0
C868 C 0.25501 0.41607 0.60831 0.0
C869 C 0.2227 0.39883 0.628 0.0
C870 C 0.33316 0.43691 0.67156 0.0
C871 C 0.25017 0.42062 0.57263 0.0
C872 C 0.3755 0.49925 0.58114 0.0
C873 C 0.39578 0.47788 0.56643 0.0
C874 C 0.34076 0.48346 0.59826 0.0
C875 C 0.32631 0.44537 0.60137 0.0
C876 C 0.34605 0.42356 0.58569 0.0
C877 C 0.3804 0.44008 0.56809 0.0
C878 C 0.32018 0.50766 0.61386 0.0
C879 C 0.3318 0.38287 0.58874 0.0
H880 H 0.26435 0.40377 0.70084 0.0
H881 H 0.19483 0.3887 0.61733 0.0
H882 H 0.3519 0.42267 0.65986 0.0
H883 H 0.34735 0.46633 0.66784 0.0
H884 H 0.33083 0.43181 0.69809 0.0
H885 H 0.21969 0.411 0.56597 0.0
H886 H 0.26292 0.44956 0.56621 0.0
H887 H 0.26551 0.40529 0.5577 0.0
H888 H 0.38719 0.52852 0.57973 0.0
H889 H 0.39617 0.42351 0.55705 0.0
H890 H 0.32048 0.50627 0.64073 0.0
H891 H 0.28984 0.49824 0.60691 0.0
H892 H 0.33345 0.5364 0.60682 0.0
H893 H 0.33198 0.37577 0.6146 0.0
H894 H 0.34955 0.36968 0.57403 0.0
H895 H 0.30187 0.37154 0.58088 0.0
C896 C 0.72949 0.65866 0.89067 0.0
C897 C 0.71833 0.68789 0.90219 0.0
C898 C 0.76276 0.65367 0.90148 0.0
C899 C 0.78555 0.67877 0.92414 0.0
C900 C 0.77409 0.70809 0.93624 0.0
C901 C 0.74047 0.71224 0.92519 0.0
C902 C 0.77383 0.62185 0.88828 0.0
C903 C 0.79775 0.73546 0.96031 0.0
C904 C 0.85487 0.64762 0.97075 0.0
C905 C 0.88898 0.66202 0.95235 0.0
C906 C 0.82116 0.65343 0.96222 0.0
C907 C 0.8216 0.67446 0.9348 0.0
C908 C 0.85618 0.69014 0.91678 0.0
C909 C 0.88946 0.68365 0.92572 0.0
C910 C 0.78486 0.63626 0.98205 0.0
C911 C 0.85779 0.71292 0.88749 0.0
H912 H 0.71238 0.63989 0.87284 0.0
H913 H 0.73207 0.73503 0.93407 0.0
H914 H 0.80184 0.6317 0.87499 0.0
H915 H 0.77707 0.60522 0.90859 0.0
H916 H 0.75243 0.60425 0.87151 0.0
H917 H 0.78441 0.75621 0.96794 0.0
H918 H 0.80185 0.7216 0.98226 0.0
H919 H 0.8265 0.74937 0.94937 0.0
H920 H 0.85444 0.63146 0.99175 0.0
H921 H 0.91558 0.6946 0.91121 0.0
H922 H 0.76351 0.61657 0.96661 0.0
H923 H 0.77229 0.65719 0.99072 0.0
H924 H 0.78967 0.62188 1.00344 0.0
H925 H 0.83973 0.69603 0.86823 0.0
H926 H 0.88733 0.72495 0.87729 0.0
H927 H 0.84619 0.73512 0.89407 0.0
C928 C 0.43662 0.77412 0.16763 0.0
C929 C 0.40003 0.76525 0.18256 0.0
C930 C 0.45278 0.80661 0.15004 0.0
C931 C 0.43219 0.83135 0.14738 0.0
C932 C 0.3959 0.82308 0.16363 0.0
C933 C 0.38029 0.79029 0.18058 0.0
C934 C 0.49127 0.81368 0.13306 0.0
C935 C 0.3728 0.84836 0.16221 0.0
C936 C 0.48355 0.92982 0.12039 0.0
C937 C 0.47348 0.92889 0.08765 0.0
C938 C 0.47073 0.89856 0.13988 0.0
C939 C 0.44749 0.8649 0.12655 0.0
C940 C 0.43768 0.86371 0.0934 0.0
C941 C 0.45047 0.89545 0.07459 0.0
C942 C 0.48169 0.90171 0.17503 0.0
C943 C 0.4134 0.82874 0.0777 0.0
H944 H 0.45187 0.75478 0.16836 0.0
H945 H 0.35186 0.78366 0.19167 0.0
H946 H 0.48802 0.81318 0.10635 0.0
H947 H 0.51069 0.84101 0.13991 0.0
H948 H 0.50481 0.79327 0.13898 0.0
H949 H 0.34654 0.83962 0.17805 0.0
H950 H 0.39025 0.87622 0.16973 0.0
H951 H 0.36435 0.84958 0.13683 0.0
H952 H 0.5012 0.95523 0.13103 0.0
H953 H 0.44251 0.89394 0.04941 0.0
H954 H 0.49676 0.88222 0.17987 0.0
H955 H 0.45559 0.89463 0.19104 0.0
H956 H 0.50039 0.92943 0.18177 0.0
H957 H 0.42669 0.80738 0.08029 0.0
H958 H 0.40947 0.8317 0.05144 0.0
H959 H 0.38487 0.81927 0.09019 0.0
C960 C 0.10772 0.27512 0.64221 0.0
C961 C 0.11513 0.28102 0.67547 0.0
C962 C 0.09115 0.24005 0.62917 0.0
C963 C 0.08138 0.20994 0.64989 0.0
C964 C 0.08719 0.21576 0.68374 0.0
C965 C 0.10404 0.25124 0.69614 0.0
C966 C 0.08528 0.23517 0.59297 0.0
C967 C 0.07683 0.18441 0.70667 0.0
C968 C 0.01412 0.12234 0.614 0.0
C969 C 0.03976 0.10501 0.60184 0.0
C970 C 0.02705 0.15576 0.63093 0.0
C971 C 0.06663 0.17247 0.63566 0.0
C972 C 0.0925 0.1545 0.62449 0.0
C973 C 0.07876 0.12097 0.60783 0.0
C974 C 0.99848 0.17382 0.64266 0.0
C975 C 0.13494 0.17143 0.6289 0.0
H976 H 0.11558 0.29804 0.62616 0.0
H977 H 0.10988 0.25552 0.72182 0.0
H978 H 0.10288 0.21931 0.58215 0.0
H979 H 0.055 0.21967 0.5882 0.0
H980 H 0.09313 0.26145 0.58038 0.0
H981 H 0.08024 0.19358 0.73255 0.0
H982 H 0.04686 0.16684 0.70334 0.0
H983 H 0.09532 0.16754 0.70108 0.0
H984 H 0.9839 0.11018 0.60968 0.0
H985 H 0.09883 0.10787 0.59856 0.0
H986 H 1.00285 0.19868 0.62861 0.0
H987 H 1.00276 0.18223 0.66863 0.0
H988 H 0.96853 0.1558 0.6399 0.0
H989 H 0.14592 0.19664 0.61474 0.0
H990 H 0.15098 0.15299 0.62077 0.0
H991 H 0.14085 0.17905 0.65483 0.0
C992 C 0.77128 0.30589 0.41518 0.0
C993 C 0.79274 0.32491 0.38874 0.0
C994 C 0.74253 0.31711 0.43081 0.0
C995 C 0.73539 0.34816 0.41978 0.0
C996 C 0.75876 0.36877 0.3945 0.0
C997 C 0.78704 0.35678 0.37918 0.0
C998 C 0.71821 0.29441 0.45765 0.0
C999 C 0.75244 0.40231 0.38229 0.0
C1000 C 0.63535 0.35425 0.42571 0.0
C1001 C 0.63821 0.37939 0.45141 0.0
C1002 C 0.66641 0.34293 0.41598 0.0
C1003 C 0.70131 0.35723 0.43222 0.0
C1004 C 0.70408 0.38174 0.45883 0.0
C1005 C 0.67247 0.39248 0.46815 0.0
C1006 C 0.66227 0.31662 0.38752 0.0
C1007 C 0.74078 0.39748 0.47678 0.0
H1008 H 0.77541 0.28102 0.42237 0.0
H1009 H 0.80382 0.37158 0.35882 0.0
H1010 H 0.71497 0.3118 0.47867 0.0
H1011 H 0.68921 0.28002 0.44867 0.0
H1012 H 0.73039 0.27396 0.46614 0.0
H1013 H 0.77541 0.41721 0.36481 0.0
H1014 H 0.72476 0.39456 0.36998 0.0
H1015 H 0.75095 0.42087 0.40292 0.0
H1016 H 0.60921 0.34433 0.41237 0.0
H1017 H 0.67472 0.41147 0.48839 0.0
H1018 H 0.67087 0.29325 0.39434 0.0
H1019 H 0.68148 0.33015 0.36702 0.0
H1020 H 0.63256 0.30626 0.37888 0.0
H1021 H 0.75095 0.37551 0.48481 0.0
H1022 H 0.73744 0.41414 0.49839 0.0
H1023 H 0.76328 0.41475 0.46021 0.0
loop_
_geom_bond_atom_site_label_1
_geom_bond_atom_site_label_2
_geom_bond_distance
_geom_bond_site_symmetry_2
_ccdc_geom_bond_type
H0 C5 0.930 . S
H1 C8 0.930 . S
H2 C10 0.930 . S
H3 C4 1.016 . S
C4 H3 1.016 . S
C4 N11 1.286 . S
C5 H0 0.930 . S
C5 C6 1.397 . S
C5 C7 1.361 . S
C6 C5 1.397 . S
C6 C10 1.390 . S
C7 C5 1.361 . S
C7 C8 1.393 . S
C7 N11 1.413 . S
C8 H1 0.930 . S
C8 C7 1.393 . S
C8 C9 1.399 . S
C9 C8 1.399 . S
C9 C10 1.381 . S
C10 H2 0.930 . S
C10 C6 1.390 . S
C10 C9 1.381 . S
N11 C4 1.286 . S
N11 C7 1.413 . S
H12 C17 0.930 . S
H13 C20 0.930 . S
H14 C22 0.930 . S
H15 C16 1.016 . S
C16 H15 1.016 . S
C16 N23 1.286 . S
C17 H12 0.930 . S
C17 C18 1.397 . S
C17 C19 1.361 . S
C18 C17 1.397 . S
C18 C22 1.390 . S
C19 C17 1.361 . S
C19 C20 1.393 . S
C19 N23 1.413 . S
C20 H13 0.930 . S
C20 C19 1.393 . S
C20 C21 1.399 . S
C21 C20 1.399 . S
C21 C22 1.381 . S
C22 H14 0.930 . S
C22 C18 1.390 . S
C22 C21 1.381 . S
N23 C16 1.286 . S
N23 C19 1.413 . S
H24 C29 0.930 . S
H25 C32 0.930 . S
H26 C34 0.930 . S
H27 C28 1.016 . S
C28 H27 1.016 . S
C28 N35 1.286 . S
C29 H24 0.930 . S
C29 C30 1.397 . S
C29 C31 1.361 . S
C30 C29 1.397 . S
C30 C34 1.390 . S
C31 C29 1.361 . S
C31 C32 1.393 . S
C31 N35 1.413 . S
C32 H25 0.930 . S
C32 C31 1.393 . S
C32 C33 1.399 . S
C33 C32 1.399 . S
C33 C34 1.381 . S
C34 H26 0.930 . S
C34 C30 1.390 . S
C34 C33 1.381 . S
N35 C28 1.286 . S
N35 C31 1.413 . S
H36 C41 0.930 . S
H37 C44 0.930 . S
H38 C46 0.930 . S
H39 C40 1.016 . S
C40 H39 1.016 . S
C40 N47 1.286 . S
C41 H36 0.930 . S
C41 C42 1.397 . S
C41 C43 1.361 . S
C42 C41 1.397 . S
C42 C46 1.390 . S
C43 C41 1.361 . S
C43 C44 1.393 . S
C43 N47 1.413 . S
C44 H37 0.930 . S
C44 C43 1.393 . S
C44 C45 1.399 . S
C45 C44 1.399 . S
C45 C46 1.381 . S
C46 H38 0.930 . S
C46 C42 1.390 . S
C46 C45 1.381 . S
N47 C40 1.286 . S
N47 C43 1.413 . S
H48 C53 0.930 . S
H49 C56 0.930 . S
H50 C58 0.930 . S
H51 C52 1.016 . S
C52 H51 1.016 . S
C52 N59 1.286 . S
C53 H48 0.930 . S
C53 C54 1.397 . S
C53 C55 1.361 . S
C54 C53 1.397 . S
C54 C58 1.390 . S
C55 C53 1.361 . S
C55 C56 1.393 . S
C55 N59 1.413 . S
C56 H49 0.930 . S
C56 C55 1.393 . S
C56 C57 1.399 . S
C57 C56 1.399 . S
C57 C58 1.381 . S
C58 H50 0.930 . S
C58 C54 1.390 . S
C58 C57 1.381 . S
N59 C52 1.286 . S
N59 C55 1.413 . S
H60 C65 0.930 . S
H61 C68 0.930 . S
H62 C70 0.930 . S
H63 C64 1.016 . S
C64 H63 1.016 . S
C64 N71 1.286 . S
C65 H60 0.930 . S
C65 C66 1.397 . S
C65 C67 1.361 . S
C66 C65 1.397 . S
C66 C70 1.390 . S
C67 C65 1.361 . S
C67 C68 1.393 . S
C67 N71 1.413 . S
C68 H61 0.930 . S
C68 C67 1.393 . S
C68 C69 1.399 . S
C69 C68 1.399 . S
C69 C70 1.381 . S
C70 H62 0.930 . S
C70 C66 1.390 . S
C70 C69 1.381 . S
N71 C64 1.286 . S
N71 C67 1.413 . S
H72 C77 0.930 . S
H73 C80 0.930 . S
H74 C82 0.930 . S
H75 C76 1.016 . S
C76 H75 1.016 . S
C76 N83 1.286 . S
C77 H72 0.930 . S
C77 C78 1.397 . S
C77 C79 1.361 . S
C78 C77 1.397 . S
C78 C82 1.390 . S
C79 C77 1.361 . S
C79 C80 1.393 . S
C79 N83 1.413 . S
C80 H73 0.930 . S
C80 C79 1.393 . S
C80 C81 1.399 . S
C81 C80 1.399 . S
C81 C82 1.381 . S
C82 H74 0.930 . S
C82 C78 1.390 . S
C82 C81 1.381 . S
N83 C76 1.286 . S
N83 C79 1.413 . S
H84 C89 0.930 . S
H85 C92 0.930 . S
H86 C94 0.930 . S
H87 C88 1.016 . S
C88 H87 1.016 . S
C88 N95 1.286 . S
C89 H84 0.930 . S
C89 C90 1.397 . S
C89 C91 1.361 . S
C90 C89 1.397 . S
C90 C94 1.390 . S
C91 C89 1.361 . S
C91 C92 1.393 . S
C91 N95 1.413 . S
C92 H85 0.930 . S
C92 C91 1.393 . S
C92 C93 1.399 . S
C93 C92 1.399 . S
C93 C94 1.381 . S
C94 H86 0.930 . S
C94 C90 1.390 . S
C94 C93 1.381 . S
N95 C88 1.286 . S
N95 C91 1.413 . S
Dy96 O99 2.307 1_545 S
Dy96 O101 2.395 . S
Dy96 O102 2.379 . S
Dy96 O104 2.339 1_545 S
Dy96 O106 2.310 . S
Dy96 O110 2.275 . S
Dy96 C118 2.738 . S
Dy97 O100 2.303 . S
Dy97 O103 2.275 . S
Dy97 O105 2.307 1_565 S
Dy97 O107 2.395 . S
Dy97 O108 2.379 . S
Dy97 O111 2.339 1_565 S
Dy97 C127 2.738 . S
C98 O110 1.254 . S
C98 O111 1.257 1_455 S
O99 Dy96 2.307 1_565 S
O99 C109 1.266 . S
O100 Dy97 2.303 . S
O100 C109 1.231 1_655 S
O101 Dy96 2.395 . S
O101 C118 1.255 . S
O102 Dy96 2.379 . S
O102 C118 1.249 . S
O103 Dy97 2.275 . S
O103 C119 1.254 . S
O104 Dy96 2.339 1_565 S
O104 C119 1.257 1_455 S
O105 Dy97 2.307 1_545 S
O105 C120 1.266 . S
O106 Dy96 2.310 . S
O106 C120 1.224 1_455 S
O107 Dy97 2.395 . S
O107 C127 1.255 . S
O108 Dy97 2.379 . S
O108 C127 1.249 . S
C109 O99 1.266 . S
C109 O100 1.231 1_455 S
O110 Dy96 2.275 . S
O110 C98 1.254 . S
O111 Dy97 2.339 1_545 S
O111 C98 1.257 1_655 S
C112 C115 1.344 . S
C112 C116 1.328 . S
C112 C118 1.516 . S
C113 C114 1.304 . S
C113 C117 1.323 . S
C114 C113 1.304 . S
C114 C115 1.371 . S
C114 H128 0.930 . S
C115 C112 1.344 . S
C115 C114 1.371 . S
C115 H129 0.931 . S
C116 C112 1.328 . S
C116 C117 1.433 . S
C116 H130 0.931 . S
C117 C113 1.323 . S
C117 C116 1.433 . S
C117 H131 0.933 . S
C118 Dy96 2.738 . S
C118 O101 1.255 . S
C118 O102 1.249 . S
C118 C112 1.516 . S
C119 O103 1.254 . S
C119 O104 1.257 1_655 S
C120 O105 1.266 . S
C120 O106 1.224 1_655 S
C121 C124 1.344 . S
C121 C125 1.328 . S
C121 C127 1.516 . S
C122 C123 1.304 . S
C122 C126 1.323 . S
C123 C122 1.304 . S
C123 C124 1.371 . S
C123 H132 0.930 . S
C124 C121 1.344 . S
C124 C123 1.371 . S
C124 H133 0.931 . S
C125 C121 1.328 . S
C125 C126 1.433 . S
C125 H134 0.931 . S
C126 C122 1.323 . S
C126 C125 1.433 . S
C126 H135 0.933 . S
C127 Dy97 2.738 . S
C127 O107 1.255 . S
C127 O108 1.249 . S
C127 C121 1.516 . S
H128 C114 0.930 . S
H129 C115 0.931 . S
H130 C116 0.931 . S
H131 C117 0.933 . S
H132 C123 0.930 . S
H133 C124 0.931 . S
H134 C125 0.931 . S
H135 C126 0.933 . S
Dy136 O139 2.307 1_556 S
Dy136 O141 2.395 1_545 S
Dy136 O142 2.379 1_545 S
Dy136 O144 2.339 . S
Dy136 O146 2.298 1_545 S
Dy136 O150 2.275 1_546 S
Dy136 C158 2.738 1_545 S
Dy137 O140 2.298 . S
Dy137 O143 2.275 1_554 S
Dy137 O145 2.307 1_544 S
Dy137 O147 2.395 . S
Dy137 O148 2.379 . S
Dy137 O151 2.339 1_545 S
Dy137 C167 2.738 . S
C138 O150 1.254 . S
C138 O151 1.257 . S
O139 Dy136 2.307 1_554 S
O139 C149 1.266 . S
O140 Dy137 2.298 . S
O140 C149 1.236 . S
O141 Dy136 2.395 1_565 S
O141 C158 1.255 . S
O142 Dy136 2.379 1_565 S
O142 C158 1.249 . S
O143 Dy137 2.275 1_556 S
O143 C159 1.254 . S
O144 Dy136 2.339 . S
O144 C159 1.257 . S
O145 Dy137 2.307 1_566 S
O145 C160 1.266 . S
O146 Dy136 2.298 1_565 S
O146 C160 1.236 . S
O147 Dy137 2.395 . S
O147 C167 1.255 . S
O148 Dy137 2.379 . S
O148 C167 1.249 . S
C149 O139 1.266 . S
C149 O140 1.236 . S
O150 Dy136 2.275 1_564 S
O150 C138 1.254 . S
O151 Dy137 2.339 1_565 S
O151 C138 1.257 . S
C152 C155 1.344 . S
C152 C156 1.328 . S
C152 C158 1.516 . S
C153 C154 1.304 . S
C153 C157 1.323 . S
C154 C153 1.304 . S
C154 C155 1.371 . S
C154 H168 0.930 . S
C155 C152 1.344 . S
C155 C154 1.371 . S
C155 H169 0.931 . S
C156 C152 1.328 . S
C156 C157 1.433 . S
C156 H170 0.931 . S
C157 C153 1.323 . S
C157 C156 1.433 . S
C157 H171 0.933 . S
C158 Dy136 2.738 1_565 S
C158 O141 1.255 . S
C158 O142 1.249 . S
C158 C152 1.516 . S
C159 O143 1.254 . S
C159 O144 1.257 . S
C160 O145 1.266 . S
C160 O146 1.236 . S
C161 C164 1.344 . S
C161 C165 1.328 . S
C161 C167 1.516 . S
C162 C163 1.304 . S
C162 C166 1.323 . S
C163 C162 1.304 . S
C163 C164 1.371 . S
C163 H172 0.930 . S
C164 C161 1.344 . S
C164 C163 1.371 . S
C164 H173 0.931 . S
C165 C161 1.328 . S
C165 C166 1.433 . S
C165 H174 0.931 . S
C166 C162 1.323 . S
C166 C165 1.433 . S
C166 H175 0.933 . S
C167 Dy137 2.738 . S
C167 O147 1.255 . S
C167 O148 1.249 . S
C167 C161 1.516 . S
H168 C154 0.930 . S
H169 C155 0.931 . S
H170 C156 0.931 . S
H171 C157 0.933 . S
H172 C163 0.930 . S
H173 C164 0.931 . S
H174 C165 0.931 . S
H175 C166 0.933 . S
Dy176 O179 2.307 . S
Dy176 O181 2.395 . S
Dy176 O182 2.379 . S
Dy176 O184 2.339 . S
Dy176 O186 2.298 . S
Dy176 O190 2.275 . S
Dy176 C198 2.738 . S
Dy177 O180 2.298 . S
Dy177 O183 2.275 . S
Dy177 O185 2.307 . S
Dy177 O187 2.395 . S
Dy177 O188 2.379 . S
Dy177 O191 2.339 . S
Dy177 C207 2.738 . S
C178 O190 1.254 . S
C178 O191 1.257 . S
O179 Dy176 2.307 . S
O179 C189 1.266 . S
O180 Dy177 2.298 . S
O180 C189 1.236 . S
O181 Dy176 2.395 . S
O181 C198 1.255 . S
O182 Dy176 2.379 . S
O182 C198 1.249 . S
O183 Dy177 2.275 . S
O183 C199 1.254 . S
O184 Dy176 2.339 . S
O184 C199 1.257 . S
O185 Dy177 2.307 . S
O185 C200 1.266 . S
O186 Dy176 2.298 . S
O186 C200 1.236 . S
O187 Dy177 2.395 . S
O187 C207 1.255 . S
O188 Dy177 2.379 . S
O188 C207 1.249 . S
C189 O179 1.266 . S
C189 O180 1.236 . S
O190 Dy176 2.275 . S
O190 C178 1.254 . S
O191 Dy177 2.339 . S
O191 C178 1.257 . S
C192 C195 1.344 . S
C192 C196 1.328 . S
C192 C198 1.516 . S
C193 C194 1.304 . S
C193 C197 1.323 . S
C194 C193 1.304 . S
C194 C195 1.371 . S
C194 H208 0.930 . S
C195 C192 1.344 . S
C195 C194 1.371 . S
C195 H209 0.931 . S
C196 C192 1.328 . S
C196 C197 1.433 . S
C196 H210 0.931 . S
C197 C193 1.323 . S
C197 C196 1.433 . S
C197 H211 0.933 . S
C198 Dy176 2.738 . S
C198 O181 1.255 . S
C198 O182 1.249 . S
C198 C192 1.516 . S
C199 O183 1.254 . S
C199 O184 1.257 . S
C200 O185 1.266 . S
C200 O186 1.236 . S
C201 C204 1.344 . S
C201 C205 1.328 . S
C201 C207 1.516 . S
C202 C203 1.304 . S
C202 C206 1.323 . S
C203 C202 1.304 . S
C203 C204 1.371 . S
C203 H212 0.930 . S
C204 C201 1.344 . S
C204 C203 1.371 . S
C204 H213 0.931 . S
C205 C201 1.328 . S
C205 C206 1.433 . S
C205 H214 0.931 . S
C206 C202 1.323 . S
C206 C205 1.433 . S
C206 H215 0.933 . S
C207 Dy177 2.738 . S
C207 O187 1.255 . S
C207 O188 1.249 . S
C207 C201 1.516 . S
H208 C194 0.930 . S
H209 C195 0.931 . S
H210 C196 0.931 . S
H211 C197 0.933 . S
H212 C203 0.930 . S
H213 C204 0.931 . S
H214 C205 0.931 . S
H215 C206 0.933 . S
Dy216 O219 2.307 1_556 S
Dy216 O221 2.395 1_455 S
Dy216 O222 2.379 1_455 S
Dy216 O224 2.339 . S
Dy216 O226 2.298 1_455 S
Dy216 O230 2.275 1_456 S
Dy216 C238 2.738 1_455 S
Dy217 O220 2.298 . S
Dy217 O223 2.275 1_554 S
Dy217 O225 2.307 1_455 S
Dy217 O227 2.395 . S
Dy217 O228 2.379 . S
Dy217 O231 2.339 1_455 S
Dy217 C247 2.738 . S
C218 O230 1.254 . S
C218 O231 1.257 . S
O219 Dy216 2.307 1_554 S
O219 C229 1.266 . S
O220 Dy217 2.298 . S
O220 C229 1.236 . S
O221 Dy216 2.395 1_655 S
O221 C238 1.255 . S
O222 Dy216 2.379 1_655 S
O222 C238 1.249 . S
O223 Dy217 2.275 1_556 S
O223 C239 1.254 . S
O224 Dy216 2.339 . S
O224 C239 1.257 . S
O225 Dy217 2.307 1_655 S
O225 C240 1.266 1_554 S
O226 Dy216 2.298 1_655 S
O226 C240 1.236 . S
O227 Dy217 2.395 . S
O227 C247 1.255 . S
O228 Dy217 2.379 . S
O228 C247 1.249 . S
C229 O219 1.266 . S
C229 O220 1.236 . S
O230 Dy216 2.275 1_654 S
O230 C218 1.254 . S
O231 Dy217 2.339 1_655 S
O231 C218 1.257 . S
C232 C235 1.344 . S
C232 C236 1.328 . S
C232 C238 1.516 . S
C233 C234 1.304 . S
C233 C237 1.323 . S
C234 C233 1.304 . S
C234 C235 1.371 . S
C234 H248 0.930 . S
C235 C232 1.344 . S
C235 C234 1.371 . S
C235 H249 0.931 . S
C236 C232 1.328 . S
C236 C237 1.433 . S
C236 H250 0.931 . S
C237 C233 1.323 . S
C237 C236 1.433 . S
C237 H251 0.933 . S
C238 Dy216 2.738 1_655 S
C238 O221 1.255 . S
C238 O222 1.249 . S
C238 C232 1.516 . S
C239 O223 1.254 . S
C239 O224 1.257 . S
C240 O225 1.266 1_556 S
C240 O226 1.236 . S
C241 C244 1.344 . S
C241 C245 1.328 . S
C241 C247 1.516 . S
C242 C243 1.304 . S
C242 C246 1.323 . S
C243 C242 1.304 . S
C243 C244 1.371 . S
C243 H252 0.930 . S
C244 C241 1.344 . S
C244 C243 1.371 . S
C244 H253 0.931 . S
C245 C241 1.328 . S
C245 C246 1.433 . S
C245 H254 0.931 . S
C246 C242 1.323 . S
C246 C245 1.433 . S
C246 H255 0.933 . S
C247 Dy217 2.738 . S
C247 O227 1.255 . S
C247 O228 1.249 . S
C247 C241 1.516 . S
H248 C234 0.930 . S
H249 C235 0.931 . S
H250 C236 0.931 . S
H251 C237 0.933 . S
H252 C243 0.930 . S
H253 C244 0.931 . S
H254 C245 0.931 . S
H255 C246 0.933 . S
C256 C257 1.391 . S
C256 C258 1.394 . S
C256 H272 0.931 . S
C257 C256 1.391 . S
C257 C261 1.376 . S
C258 C256 1.394 . S
C258 C259 1.369 . S
C258 C262 1.531 . S
C259 C258 1.369 . S
C259 C260 1.410 . S
C259 C267 1.503 . S
C260 C259 1.410 . S
C260 C261 1.392 . S
C260 C263 1.511 . S
C261 C257 1.376 . S
C261 C260 1.392 . S
C261 H273 0.929 . S
C262 C258 1.531 . S
C262 H274 0.960 . S
C262 H275 0.962 . S
C262 H276 0.960 . S
C263 C260 1.511 . S
C263 H277 0.961 . S
C263 H278 0.961 . S
C263 H279 0.961 . S
C264 C265 1.370 . S
C264 C266 1.363 . S
C264 H280 0.931 . S
C265 C264 1.370 . S
C265 C269 1.408 . S
C266 C264 1.363 . S
C266 C267 1.370 . S
C266 C270 1.524 . S
C267 C259 1.503 . S
C267 C266 1.370 . S
C267 C268 1.403 . S
C268 C267 1.403 . S
C268 C269 1.404 . S
C268 C271 1.539 . S
C269 C265 1.408 . S
C269 C268 1.404 . S
C269 H281 0.930 . S
C270 C266 1.524 . S
C270 H282 0.956 . S
C270 H283 0.961 . S
C270 H284 0.961 . S
C271 C268 1.539 . S
C271 H285 0.958 . S
C271 H286 0.961 . S
C271 H287 0.960 . S
H272 C256 0.931 . S
H273 C261 0.929 . S
H274 C262 0.960 . S
H275 C262 0.962 . S
H276 C262 0.960 . S
H277 C263 0.961 . S
H278 C263 0.961 . S
H279 C263 0.961 . S
H280 C264 0.931 . S
H281 C269 0.930 . S
H282 C270 0.956 . S
H283 C270 0.961 . S
H284 C270 0.961 . S
H285 C271 0.958 . S
H286 C271 0.961 . S
H287 C271 0.960 . S
C288 C289 1.391 . S
C288 C290 1.394 . S
C288 H304 0.931 . S
C289 C288 1.391 . S
C289 C293 1.376 . S
C290 C288 1.394 . S
C290 C291 1.369 . S
C290 C294 1.531 . S
C291 C290 1.369 . S
C291 C292 1.410 . S
C291 C299 1.503 . S
C292 C291 1.410 . S
C292 C293 1.392 . S
C292 C295 1.511 . S
C293 C289 1.376 . S
C293 C292 1.392 . S
C293 H305 0.929 . S
C294 C290 1.531 . S
C294 H306 0.960 . S
C294 H307 0.962 . S
C294 H308 0.960 . S
C295 C292 1.511 . S
C295 H309 0.961 . S
C295 H310 0.961 . S
C295 H311 0.961 . S
C296 C297 1.370 . S
C296 C298 1.363 . S
C296 H312 0.931 . S
C297 C296 1.370 . S
C297 C301 1.408 . S
C298 C296 1.363 . S
C298 C299 1.370 . S
C298 C302 1.524 . S
C299 C291 1.503 . S
C299 C298 1.370 . S
C299 C300 1.403 . S
C300 C299 1.403 . S
C300 C301 1.404 . S
C300 C303 1.539 . S
C301 C297 1.408 . S
C301 C300 1.404 . S
C301 H313 0.930 . S
C302 C298 1.524 . S
C302 H314 0.956 . S
C302 H315 0.961 . S
C302 H316 0.961 . S
C303 C300 1.539 . S
C303 H317 0.958 . S
C303 H318 0.961 . S
C303 H319 0.960 . S
H304 C288 0.931 . S
H305 C293 0.929 . S
H306 C294 0.960 . S
H307 C294 0.962 . S
H308 C294 0.960 . S
H309 C295 0.961 . S
H310 C295 0.961 . S
H311 C295 0.961 . S
H312 C296 0.931 . S
H313 C301 0.930 . S
H314 C302 0.956 . S
H315 C302 0.961 . S
H316 C302 0.961 . S
H317 C303 0.958 . S
H318 C303 0.961 . S
H319 C303 0.960 . S
C320 C321 1.391 . S
C320 C322 1.394 . S
C320 H336 0.931 . S
C321 C320 1.391 . S
C321 C325 1.376 . S
C322 C320 1.394 . S
C322 C323 1.369 . S
C322 C326 1.531 . S
C323 C322 1.369 . S
C323 C324 1.410 . S
C323 C331 1.503 . S
C324 C323 1.410 . S
C324 C325 1.392 . S
C324 C327 1.511 . S
C325 C321 1.376 . S
C325 C324 1.392 . S
C325 H337 0.929 . S
C326 C322 1.531 . S
C326 H338 0.960 . S
C326 H339 0.962 . S
C326 H340 0.960 . S
C327 C324 1.511 . S
C327 H341 0.961 . S
C327 H342 0.961 . S
C327 H343 0.961 . S
C328 C329 1.370 . S
C328 C330 1.363 . S
C328 H344 0.931 . S
C329 C328 1.370 . S
C329 C333 1.408 . S
C330 C328 1.363 . S
C330 C331 1.370 . S
C330 C334 1.524 . S
C331 C323 1.503 . S
C331 C330 1.370 . S
C331 C332 1.403 . S
C332 C331 1.403 . S
C332 C333 1.404 . S
C332 C335 1.539 . S
C333 C329 1.408 . S
C333 C332 1.404 . S
C333 H345 0.930 . S
C334 C330 1.524 . S
C334 H346 0.956 . S
C334 H347 0.961 . S
C334 H348 0.961 . S
C335 C332 1.539 . S
C335 H349 0.958 . S
C335 H350 0.961 . S
C335 H351 0.960 . S
H336 C320 0.931 . S
H337 C325 0.929 . S
H338 C326 0.960 . S
H339 C326 0.962 . S
H340 C326 0.960 . S
H341 C327 0.961 . S
H342 C327 0.961 . S
H343 C327 0.961 . S
H344 C328 0.931 . S
H345 C333 0.930 . S
H346 C334 0.956 . S
H347 C334 0.961 . S
H348 C334 0.961 . S
H349 C335 0.958 . S
H350 C335 0.961 . S
H351 C335 0.960 . S
C352 C353 1.391 . S
C352 C354 1.394 . S
C352 H368 0.931 . S
C353 C352 1.391 . S
C353 C357 1.376 . S
C354 C352 1.394 . S
C354 C355 1.369 . S
C354 C358 1.531 . S
C355 C354 1.369 . S
C355 C356 1.410 . S
C355 C363 1.503 . S
C356 C355 1.410 . S
C356 C357 1.392 . S
C356 C359 1.511 . S
C357 C353 1.376 . S
C357 C356 1.392 . S
C357 H369 0.929 . S
C358 C354 1.531 . S
C358 H370 0.960 . S
C358 H371 0.962 . S
C358 H372 0.960 . S
C359 C356 1.511 . S
C359 H373 0.961 . S
C359 H374 0.961 . S
C359 H375 0.961 . S
C360 C361 1.370 . S
C360 C362 1.363 . S
C360 H376 0.931 . S
C361 C360 1.370 . S
C361 C365 1.408 . S
C362 C360 1.363 . S
C362 C363 1.370 . S
C362 C366 1.524 . S
C363 C355 1.503 . S
C363 C362 1.370 . S
C363 C364 1.403 . S
C364 C363 1.403 . S
C364 C365 1.404 . S
C364 C367 1.539 . S
C365 C361 1.408 . S
C365 C364 1.404 . S
C365 H377 0.930 . S
C366 C362 1.524 . S
C366 H378 0.956 . S
C366 H379 0.961 . S
C366 H380 0.961 . S
C367 C364 1.539 . S
C367 H381 0.958 . S
C367 H382 0.961 . S
C367 H383 0.960 . S
H368 C352 0.931 . S
H369 C357 0.929 . S
H370 C358 0.960 . S
H371 C358 0.962 . S
H372 C358 0.960 . S
H373 C359 0.961 . S
H374 C359 0.961 . S
H375 C359 0.961 . S
H376 C360 0.931 . S
H377 C365 0.930 . S
H378 C366 0.956 . S
H379 C366 0.961 . S
H380 C366 0.961 . S
H381 C367 0.958 . S
H382 C367 0.961 . S
H383 C367 0.960 . S
C384 C385 1.391 . S
C384 C386 1.394 . S
C384 H400 0.931 . S
C385 C384 1.391 . S
C385 C389 1.376 . S
C386 C384 1.394 . S
C386 C387 1.369 . S
C386 C390 1.531 . S
C387 C386 1.369 . S
C387 C388 1.410 . S
C387 C395 1.503 . S
C388 C387 1.410 . S
C388 C389 1.392 . S
C388 C391 1.511 . S
C389 C385 1.376 . S
C389 C388 1.392 . S
C389 H401 0.929 . S
C390 C386 1.531 . S
C390 H402 0.960 . S
C390 H403 0.962 . S
C390 H404 0.960 . S
C391 C388 1.511 . S
C391 H405 0.961 . S
C391 H406 0.961 . S
C391 H407 0.961 . S
C392 C393 1.370 . S
C392 C394 1.363 . S
C392 H408 0.931 . S
C393 C392 1.370 . S
C393 C397 1.408 . S
C394 C392 1.363 . S
C394 C395 1.370 . S
C394 C398 1.524 . S
C395 C387 1.503 . S
C395 C394 1.370 . S
C395 C396 1.403 . S
C396 C395 1.403 . S
C396 C397 1.404 . S
C396 C399 1.539 . S
C397 C393 1.408 . S
C397 C396 1.404 . S
C397 H409 0.930 . S
C398 C394 1.524 . S
C398 H410 0.956 . S
C398 H411 0.961 . S
C398 H412 0.961 . S
C399 C396 1.539 . S
C399 H413 0.958 . S
C399 H414 0.961 . S
C399 H415 0.960 . S
H400 C384 0.931 . S
H401 C389 0.929 . S
H402 C390 0.960 . S
H403 C390 0.962 . S
H404 C390 0.960 . S
H405 C391 0.961 . S
H406 C391 0.961 . S
H407 C391 0.961 . S
H408 C392 0.931 . S
H409 C397 0.930 . S
H410 C398 0.956 . S
H411 C398 0.961 . S
H412 C398 0.961 . S
H413 C399 0.958 . S
H414 C399 0.961 . S
H415 C399 0.960 . S
C416 C417 1.391 . S
C416 C418 1.394 . S
C416 H432 0.931 . S
C417 C416 1.391 . S
C417 C421 1.376 . S
C418 C416 1.394 . S
C418 C419 1.369 . S
C418 C422 1.531 . S
C419 C418 1.369 . S
C419 C420 1.410 . S
C419 C427 1.503 . S
C420 C419 1.410 . S
C420 C421 1.392 . S
C420 C423 1.511 1_455 S
C421 C417 1.376 . S
C421 C420 1.392 . S
C421 H433 0.929 . S
C422 C418 1.531 . S
C422 H434 0.960 . S
C422 H435 0.962 . S
C422 H436 0.960 . S
C423 C420 1.511 1_655 S
C423 H437 0.961 . S
C423 H438 0.961 . S
C423 H439 0.961 . S
C424 C425 1.370 . S
C424 C426 1.363 . S
C424 H440 0.931 . S
C425 C424 1.370 . S
C425 C429 1.408 . S
C426 C424 1.363 . S
C426 C427 1.370 . S
C426 C430 1.524 . S
C427 C419 1.503 . S
C427 C426 1.370 . S
C427 C428 1.403 . S
C428 C427 1.403 . S
C428 C429 1.404 . S
C428 C431 1.539 . S
C429 C425 1.408 . S
C429 C428 1.404 . S
C429 H441 0.930 . S
C430 C426 1.524 . S
C430 H442 0.956 . S
C430 H443 0.961 . S
C430 H444 0.961 . S
C431 C428 1.539 . S
C431 H445 0.958 . S
C431 H446 0.961 . S
C431 H447 0.960 . S
H432 C416 0.931 . S
H433 C421 0.929 . S
H434 C422 0.960 . S
H435 C422 0.962 . S
H436 C422 0.960 . S
H437 C423 0.961 . S
H438 C423 0.961 . S
H439 C423 0.961 . S
H440 C424 0.931 . S
H441 C429 0.930 . S
H442 C430 0.956 . S
H443 C430 0.961 . S
H444 C430 0.961 . S
H445 C431 0.958 . S
H446 C431 0.961 . S
H447 C431 0.960 . S
C448 C449 1.391 . S
C448 C450 1.394 . S
C448 H464 0.931 . S
C449 C448 1.391 . S
C449 C453 1.376 . S
C450 C448 1.394 . S
C450 C451 1.369 . S
C450 C454 1.531 . S
C451 C450 1.369 . S
C451 C452 1.410 . S
C451 C459 1.503 . S
C452 C451 1.410 . S
C452 C453 1.392 . S
C452 C455 1.511 . S
C453 C449 1.376 . S
C453 C452 1.392 . S
C453 H465 0.929 . S
C454 C450 1.531 . S
C454 H466 0.960 . S
C454 H467 0.962 . S
C454 H468 0.960 . S
C455 C452 1.511 . S
C455 H469 0.961 . S
C455 H470 0.961 . S
C455 H471 0.961 . S
C456 C457 1.370 . S
C456 C458 1.363 . S
C456 H472 0.931 . S
C457 C456 1.370 . S
C457 C461 1.408 . S
C458 C456 1.363 . S
C458 C459 1.370 . S
C458 C462 1.524 . S
C459 C451 1.503 . S
C459 C458 1.370 . S
C459 C460 1.403 . S
C460 C459 1.403 . S
C460 C461 1.404 . S
C460 C463 1.539 . S
C461 C457 1.408 . S
C461 C460 1.404 . S
C461 H473 0.930 1_556 S
C462 C458 1.524 . S
C462 H474 0.956 . S
C462 H475 0.961 . S
C462 H476 0.961 . S
C463 C460 1.539 . S
C463 H477 0.958 . S
C463 H478 0.961 1_556 S
C463 H479 0.960 . S
H464 C448 0.931 . S
H465 C453 0.929 . S
H466 C454 0.960 . S
H467 C454 0.962 . S
H468 C454 0.960 . S
H469 C455 0.961 . S
H470 C455 0.961 . S
H471 C455 0.961 . S
H472 C456 0.931 . S
H473 C461 0.930 1_554 S
H474 C462 0.956 . S
H475 C462 0.961 . S
H476 C462 0.961 . S
H477 C463 0.958 . S
H478 C463 0.961 1_554 S
H479 C463 0.960 . S
C480 C481 1.391 . S
C480 C482 1.394 . S
C480 H496 0.931 . S
C481 C480 1.391 . S
C481 C485 1.376 . S
C482 C480 1.394 . S
C482 C483 1.369 . S
C482 C486 1.531 . S
C483 C482 1.369 . S
C483 C484 1.410 . S
C483 C491 1.503 . S
C484 C483 1.410 . S
C484 C485 1.392 . S
C484 C487 1.511 . S
C485 C481 1.376 . S
C485 C484 1.392 . S
C485 H497 0.929 . S
C486 C482 1.531 . S
C486 H498 0.960 . S
C486 H499 0.962 . S
C486 H500 0.960 . S
C487 C484 1.511 . S
C487 H501 0.961 . S
C487 H502 0.961 . S
C487 H503 0.961 . S
C488 C489 1.370 . S
C488 C490 1.363 . S
C488 H504 0.931 . S
C489 C488 1.370 . S
C489 C493 1.408 . S
C490 C488 1.363 . S
C490 C491 1.370 . S
C490 C494 1.524 . S
C491 C483 1.503 . S
C491 C490 1.370 . S
C491 C492 1.403 . S
C492 C491 1.403 . S
C492 C493 1.404 . S
C492 C495 1.539 . S
C493 C489 1.408 . S
C493 C492 1.404 . S
C493 H505 0.930 . S
C494 C490 1.524 . S
C494 H506 0.956 . S
C494 H507 0.961 . S
C494 H508 0.961 . S
C495 C492 1.539 . S
C495 H509 0.958 . S
C495 H510 0.961 . S
C495 H511 0.960 . S
H496 C480 0.931 . S
H497 C485 0.929 . S
H498 C486 0.960 . S
H499 C486 0.962 . S
H500 C486 0.960 . S
H501 C487 0.961 . S
H502 C487 0.961 . S
H503 C487 0.961 . S
H504 C488 0.931 . S
H505 C493 0.930 . S
H506 C494 0.956 . S
H507 C494 0.961 . S
H508 C494 0.961 . S
H509 C495 0.958 . S
H510 C495 0.961 . S
H511 C495 0.960 . S
C512 C513 1.391 . S
C512 C514 1.394 . S
C512 H528 0.931 . S
C513 C512 1.391 . S
C513 C517 1.376 . S
C514 C512 1.394 . S
C514 C515 1.369 . S
C514 C518 1.531 . S
C515 C514 1.369 . S
C515 C516 1.410 . S
C515 C523 1.503 . S
C516 C515 1.410 . S
C516 C517 1.392 . S
C516 C519 1.511 . S
C517 C513 1.376 . S
C517 C516 1.392 . S
C517 H529 0.929 . S
C518 C514 1.531 . S
C518 H530 0.960 . S
C518 H531 0.962 . S
C518 H532 0.960 . S
C519 C516 1.511 . S
C519 H533 0.961 . S
C519 H534 0.961 . S
C519 H535 0.961 . S
C520 C521 1.370 . S
C520 C522 1.363 . S
C520 H536 0.931 . S
C521 C520 1.370 . S
C521 C525 1.408 . S
C522 C520 1.363 . S
C522 C523 1.370 . S
C522 C526 1.524 . S
C523 C515 1.503 . S
C523 C522 1.370 . S
C523 C524 1.403 . S
C524 C523 1.403 . S
C524 C525 1.404 . S
C524 C527 1.539 . S
C525 C521 1.408 . S
C525 C524 1.404 . S
C525 H537 0.930 . S
C526 C522 1.524 . S
C526 H538 0.956 . S
C526 H539 0.961 . S
C526 H540 0.961 . S
C527 C524 1.539 . S
C527 H541 0.958 . S
C527 H542 0.961 . S
C527 H543 0.960 . S
H528 C512 0.931 . S
H529 C517 0.929 . S
H530 C518 0.960 . S
H531 C518 0.962 . S
H532 C518 0.960 . S
H533 C519 0.961 . S
H534 C519 0.961 . S
H535 C519 0.961 . S
H536 C520 0.931 . S
H537 C525 0.930 . S
H538 C526 0.956 . S
H539 C526 0.961 . S
H540 C526 0.961 . S
H541 C527 0.958 . S
H542 C527 0.961 . S
H543 C527 0.960 . S
C544 C545 1.391 . S
C544 C546 1.394 . S
C544 H560 0.931 . S
C545 C544 1.391 . S
C545 C549 1.376 . S
C546 C544 1.394 . S
C546 C547 1.369 . S
C546 C550 1.531 . S
C547 C546 1.369 . S
C547 C548 1.410 . S
C547 C555 1.503 . S
C548 C547 1.410 . S
C548 C549 1.392 . S
C548 C551 1.511 . S
C549 C545 1.376 . S
C549 C548 1.392 . S
C549 H561 0.929 . S
C550 C546 1.531 . S
C550 H562 0.960 . S
C550 H563 0.962 . S
C550 H564 0.960 . S
C551 C548 1.511 . S
C551 H565 0.961 . S
C551 H566 0.961 . S
C551 H567 0.961 . S
C552 C553 1.370 . S
C552 C554 1.363 . S
C552 H568 0.931 . S
C553 C552 1.370 . S
C553 C557 1.408 . S
C554 C552 1.363 . S
C554 C555 1.370 . S
C554 C558 1.524 . S
C555 C547 1.503 . S
C555 C554 1.370 . S
C555 C556 1.403 . S
C556 C555 1.403 . S
C556 C557 1.404 . S
C556 C559 1.539 . S
C557 C553 1.408 . S
C557 C556 1.404 . S
C557 H569 0.930 . S
C558 C554 1.524 . S
C558 H570 0.956 . S
C558 H571 0.961 . S
C558 H572 0.961 . S
C559 C556 1.539 . S
C559 H573 0.958 . S
C559 H574 0.961 . S
C559 H575 0.960 . S
H560 C544 0.931 . S
H561 C549 0.929 . S
H562 C550 0.960 . S
H563 C550 0.962 . S
H564 C550 0.960 . S
H565 C551 0.961 . S
H566 C551 0.961 . S
H567 C551 0.961 . S
H568 C552 0.931 . S
H569 C557 0.930 . S
H570 C558 0.956 . S
H571 C558 0.961 . S
H572 C558 0.961 . S
H573 C559 0.958 . S
H574 C559 0.961 . S
H575 C559 0.960 . S
C576 C577 1.391 . S
C576 C578 1.394 . S
C576 H592 0.931 . S
C577 C576 1.391 . S
C577 C581 1.376 . S
C578 C576 1.394 . S
C578 C579 1.369 . S
C578 C582 1.531 . S
C579 C578 1.369 . S
C579 C580 1.410 . S
C579 C587 1.503 . S
C580 C579 1.410 . S
C580 C581 1.392 . S
C580 C583 1.511 . S
C581 C577 1.376 . S
C581 C580 1.392 . S
C581 H593 0.929 . S
C582 C578 1.531 . S
C582 H594 0.960 . S
C582 H595 0.962 . S
C582 H596 0.960 . S
C583 C580 1.511 . S
C583 H597 0.961 . S
C583 H598 0.961 . S
C583 H599 0.961 . S
C584 C585 1.370 . S
C584 C586 1.363 . S
C584 H600 0.931 . S
C585 C584 1.370 . S
C585 C589 1.408 . S
C586 C584 1.363 . S
C586 C587 1.370 . S
C586 C590 1.524 . S
C587 C579 1.503 . S
C587 C586 1.370 . S
C587 C588 1.403 . S
C588 C587 1.403 . S
C588 C589 1.404 . S
C588 C591 1.539 . S
C589 C585 1.408 . S
C589 C588 1.404 . S
C589 H601 0.930 . S
C590 C586 1.524 . S
C590 H602 0.956 . S
C590 H603 0.961 . S
C590 H604 0.961 . S
C591 C588 1.539 . S
C591 H605 0.958 . S
C591 H606 0.961 . S
C591 H607 0.960 . S
H592 C576 0.931 . S
H593 C581 0.929 . S
H594 C582 0.960 . S
H595 C582 0.962 . S
H596 C582 0.960 . S
H597 C583 0.961 . S
H598 C583 0.961 . S
H599 C583 0.961 . S
H600 C584 0.931 . S
H601 C589 0.930 . S
H602 C590 0.956 . S
H603 C590 0.961 . S
H604 C590 0.961 . S
H605 C591 0.958 . S
H606 C591 0.961 . S
H607 C591 0.960 . S
C608 C609 1.391 . S
C608 C610 1.394 . S
C608 H624 0.931 . S
C609 C608 1.391 . S
C609 C613 1.376 . S
C610 C608 1.394 . S
C610 C611 1.369 . S
C610 C614 1.531 . S
C611 C610 1.369 . S
C611 C612 1.410 . S
C611 C619 1.503 . S
C612 C611 1.410 . S
C612 C613 1.392 . S
C612 C615 1.511 . S
C613 C609 1.376 . S
C613 C612 1.392 . S
C613 H625 0.929 . S
C614 C610 1.531 . S
C614 H626 0.960 . S
C614 H627 0.962 . S
C614 H628 0.960 . S
C615 C612 1.511 . S
C615 H629 0.961 . S
C615 H630 0.961 . S
C615 H631 0.961 . S
C616 C617 1.370 . S
C616 C618 1.363 . S
C616 H632 0.931 . S
C617 C616 1.370 . S
C617 C621 1.408 . S
C618 C616 1.363 . S
C618 C619 1.370 . S
C618 C622 1.524 . S
C619 C611 1.503 . S
C619 C618 1.370 . S
C619 C620 1.403 . S
C620 C619 1.403 . S
C620 C621 1.404 . S
C620 C623 1.539 . S
C621 C617 1.408 . S
C621 C620 1.404 . S
C621 H633 0.930 . S
C622 C618 1.524 . S
C622 H634 0.956 . S
C622 H635 0.961 . S
C622 H636 0.961 . S
C623 C620 1.539 . S
C623 H637 0.958 . S
C623 H638 0.961 . S
C623 H639 0.960 . S
H624 C608 0.931 . S
H625 C613 0.929 . S
H626 C614 0.960 . S
H627 C614 0.962 . S
H628 C614 0.960 . S
H629 C615 0.961 . S
H630 C615 0.961 . S
H631 C615 0.961 . S
H632 C616 0.931 . S
H633 C621 0.930 . S
H634 C622 0.956 . S
H635 C622 0.961 . S
H636 C622 0.961 . S
H637 C623 0.958 . S
H638 C623 0.961 . S
H639 C623 0.960 . S
C640 C641 1.391 . S
C640 C642 1.394 . S
C640 H656 0.931 . S
C641 C640 1.391 . S
C641 C645 1.376 . S
C642 C640 1.394 . S
C642 C643 1.369 . S
C642 C646 1.531 . S
C643 C642 1.369 . S
C643 C644 1.410 . S
C643 C651 1.503 . S
C644 C643 1.410 . S
C644 C645 1.392 . S
C644 C647 1.511 . S
C645 C641 1.376 . S
C645 C644 1.392 . S
C645 H657 0.929 . S
C646 C642 1.531 . S
C646 H658 0.960 . S
C646 H659 0.962 . S
C646 H660 0.960 . S
C647 C644 1.511 . S
C647 H661 0.961 . S
C647 H662 0.961 . S
C647 H663 0.961 . S
C648 C649 1.370 . S
C648 C650 1.363 . S
C648 H664 0.931 . S
C649 C648 1.370 . S
C649 C653 1.408 . S
C650 C648 1.363 . S
C650 C651 1.370 . S
C650 C654 1.524 . S
C651 C643 1.503 . S
C651 C650 1.370 . S
C651 C652 1.403 . S
C652 C651 1.403 . S
C652 C653 1.404 . S
C652 C655 1.539 . S
C653 C649 1.408 . S
C653 C652 1.404 . S
C653 H665 0.930 . S
C654 C650 1.524 . S
C654 H666 0.956 . S
C654 H667 0.961 . S
C654 H668 0.961 . S
C655 C652 1.539 . S
C655 H669 0.958 . S
C655 H670 0.961 . S
C655 H671 0.960 . S
H656 C640 0.931 . S
H657 C645 0.929 . S
H658 C646 0.960 . S
H659 C646 0.962 . S
H660 C646 0.960 . S
H661 C647 0.961 . S
H662 C647 0.961 . S
H663 C647 0.961 . S
H664 C648 0.931 . S
H665 C653 0.930 . S
H666 C654 0.956 . S
H667 C654 0.961 . S
H668 C654 0.961 . S
H669 C655 0.958 . S
H670 C655 0.961 . S
H671 C655 0.960 . S
C672 C673 1.391 . S
C672 C674 1.394 . S
C672 H688 0.931 . S
C673 C672 1.391 . S
C673 C677 1.376 . S
C674 C672 1.394 . S
C674 C675 1.369 . S
C674 C678 1.531 . S
C675 C674 1.369 . S
C675 C676 1.410 . S
C675 C683 1.503 . S
C676 C675 1.410 . S
C676 C677 1.392 . S
C676 C679 1.511 . S
C677 C673 1.376 . S
C677 C676 1.392 . S
C677 H689 0.929 . S
C678 C674 1.531 . S
C678 H690 0.960 . S
C678 H691 0.962 . S
C678 H692 0.960 . S
C679 C676 1.511 . S
C679 H693 0.961 . S
C679 H694 0.961 . S
C679 H695 0.961 . S
C680 C681 1.370 . S
C680 C682 1.363 . S
C680 H696 0.931 . S
C681 C680 1.370 . S
C681 C685 1.408 . S
C682 C680 1.363 . S
C682 C683 1.370 . S
C682 C686 1.524 . S
C683 C675 1.503 . S
C683 C682 1.370 . S
C683 C684 1.403 . S
C684 C683 1.403 . S
C684 C685 1.404 . S
C684 C687 1.539 . S
C685 C681 1.408 . S
C685 C684 1.404 . S
C685 H697 0.930 . S
C686 C682 1.524 . S
C686 H698 0.956 . S
C686 H699 0.961 . S
C686 H700 0.961 . S
C687 C684 1.539 . S
C687 H701 0.958 . S
C687 H702 0.961 . S
C687 H703 0.960 . S
H688 C672 0.931 . S
H689 C677 0.929 . S
H690 C678 0.960 . S
H691 C678 0.962 . S
H692 C678 0.960 . S
H693 C679 0.961 . S
H694 C679 0.961 . S
H695 C679 0.961 . S
H696 C680 0.931 . S
H697 C685 0.930 . S
H698 C686 0.956 . S
H699 C686 0.961 . S
H700 C686 0.961 . S
H701 C687 0.958 . S
H702 C687 0.961 . S
H703 C687 0.960 . S
C704 C705 1.391 . S
C704 C706 1.394 . S
C704 H720 0.931 . S
C705 C704 1.391 . S
C705 C709 1.376 . S
C706 C704 1.394 . S
C706 C707 1.369 . S
C706 C710 1.531 . S
C707 C706 1.369 . S
C707 C708 1.410 . S
C707 C715 1.503 . S
C708 C707 1.410 . S
C708 C709 1.392 . S
C708 C711 1.511 . S
C709 C705 1.376 . S
C709 C708 1.392 . S
C709 H721 0.929 . S
C710 C706 1.531 . S
C710 H722 0.960 . S
C710 H723 0.962 . S
C710 H724 0.960 . S
C711 C708 1.511 . S
C711 H725 0.961 . S
C711 H726 0.961 . S
C711 H727 0.961 . S
C712 C713 1.370 . S
C712 C714 1.363 . S
C712 H728 0.931 . S
C713 C712 1.370 . S
C713 C717 1.408 . S
C714 C712 1.363 . S
C714 C715 1.370 . S
C714 C718 1.524 . S
C715 C707 1.503 . S
C715 C714 1.370 . S
C715 C716 1.403 . S
C716 C715 1.403 . S
C716 C717 1.404 . S
C716 C719 1.539 . S
C717 C713 1.408 . S
C717 C716 1.404 . S
C717 H729 0.930 . S
C718 C714 1.524 . S
C718 H730 0.956 . S
C718 H731 0.961 . S
C718 H732 0.961 . S
C719 C716 1.539 . S
C719 H733 0.958 . S
C719 H734 0.961 . S
C719 H735 0.960 . S
H720 C704 0.931 . S
H721 C709 0.929 . S
H722 C710 0.960 . S
H723 C710 0.962 . S
H724 C710 0.960 . S
H725 C711 0.961 . S
H726 C711 0.961 . S
H727 C711 0.961 . S
H728 C712 0.931 . S
H729 C717 0.930 . S
H730 C718 0.956 . S
H731 C718 0.961 . S
H732 C718 0.961 . S
H733 C719 0.958 . S
H734 C719 0.961 . S
H735 C719 0.960 . S
C736 C737 1.391 . S
C736 C738 1.394 . S
C736 H752 0.931 . S
C737 C736 1.391 . S
C737 C741 1.376 . S
C738 C736 1.394 . S
C738 C739 1.369 . S
C738 C742 1.531 . S
C739 C738 1.369 . S
C739 C740 1.410 . S
C739 C747 1.503 . S
C740 C739 1.410 . S
C740 C741 1.392 . S
C740 C743 1.511 . S
C741 C737 1.376 . S
C741 C740 1.392 . S
C741 H753 0.929 . S
C742 C738 1.531 . S
C742 H754 0.960 . S
C742 H755 0.962 . S
C742 H756 0.960 . S
C743 C740 1.511 . S
C743 H757 0.961 . S
C743 H758 0.961 . S
C743 H759 0.961 . S
C744 C745 1.370 . S
C744 C746 1.363 . S
C744 H760 0.931 . S
C745 C744 1.370 . S
C745 C749 1.408 . S
C746 C744 1.363 . S
C746 C747 1.370 . S
C746 C750 1.524 . S
C747 C739 1.503 . S
C747 C746 1.370 . S
C747 C748 1.403 . S
C748 C747 1.403 . S
C748 C749 1.404 . S
C748 C751 1.539 . S
C749 C745 1.408 . S
C749 C748 1.404 . S
C749 H761 0.930 . S
C750 C746 1.524 . S
C750 H762 0.956 . S
C750 H763 0.961 . S
C750 H764 0.961 . S
C751 C748 1.539 . S
C751 H765 0.958 . S
C751 H766 0.961 . S
C751 H767 0.960 . S
H752 C736 0.931 . S
H753 C741 0.929 . S
H754 C742 0.960 . S
H755 C742 0.962 . S
H756 C742 0.960 . S
H757 C743 0.961 . S
H758 C743 0.961 . S
H759 C743 0.961 . S
H760 C744 0.931 . S
H761 C749 0.930 . S
H762 C750 0.956 . S
H763 C750 0.961 . S
H764 C750 0.961 . S
H765 C751 0.958 . S
H766 C751 0.961 . S
H767 C751 0.960 . S
C768 C769 1.391 . S
C768 C770 1.394 . S
C768 H784 0.931 . S
C769 C768 1.391 . S
C769 C773 1.376 . S
C770 C768 1.394 . S
C770 C771 1.369 . S
C770 C774 1.531 . S
C771 C770 1.369 . S
C771 C772 1.410 . S
C771 C779 1.503 . S
C772 C771 1.410 . S
C772 C773 1.392 . S
C772 C775 1.511 . S
C773 C769 1.376 . S
C773 C772 1.392 . S
C773 H785 0.929 . S
C774 C770 1.531 . S
C774 H786 0.960 . S
C774 H787 0.962 . S
C774 H788 0.960 . S
C775 C772 1.511 . S
C775 H789 0.961 . S
C775 H790 0.961 . S
C775 H791 0.961 . S
C776 C777 1.370 . S
C776 C778 1.363 . S
C776 H792 0.931 . S
C777 C776 1.370 . S
C777 C781 1.408 . S
C778 C776 1.363 . S
C778 C779 1.370 . S
C778 C782 1.524 . S
C779 C771 1.503 . S
C779 C778 1.370 . S
C779 C780 1.403 . S
C780 C779 1.403 . S
C780 C781 1.404 . S
C780 C783 1.539 . S
C781 C777 1.408 . S
C781 C780 1.404 . S
C781 H793 0.930 . S
C782 C778 1.524 . S
C782 H794 0.956 . S
C782 H795 0.961 . S
C782 H796 0.961 . S
C783 C780 1.539 . S
C783 H797 0.958 . S
C783 H798 0.961 . S
C783 H799 0.960 . S
H784 C768 0.931 . S
H785 C773 0.929 . S
H786 C774 0.960 . S
H787 C774 0.962 . S
H788 C774 0.960 . S
H789 C775 0.961 . S
H790 C775 0.961 . S
H791 C775 0.961 . S
H792 C776 0.931 . S
H793 C781 0.930 . S
H794 C782 0.956 . S
H795 C782 0.961 . S
H796 C782 0.961 . S
H797 C783 0.958 . S
H798 C783 0.961 . S
H799 C783 0.960 . S
C800 C801 1.391 . S
C800 C802 1.394 . S
C800 H816 0.931 . S
C801 C800 1.391 . S
C801 C805 1.376 . S
C802 C800 1.394 . S
C802 C803 1.369 . S
C802 C806 1.531 . S
C803 C802 1.369 . S
C803 C804 1.410 . S
C803 C811 1.503 . S
C804 C803 1.410 . S
C804 C805 1.392 . S
C804 C807 1.511 1_655 S
C805 C801 1.376 . S
C805 C804 1.392 . S
C805 H817 0.929 . S
C806 C802 1.531 . S
C806 H818 0.960 . S
C806 H819 0.962 . S
C806 H820 0.960 . S
C807 C804 1.511 1_455 S
C807 H821 0.961 . S
C807 H822 0.961 . S
C807 H823 0.961 . S
C808 C809 1.370 . S
C808 C810 1.363 . S
C808 H824 0.931 . S
C809 C808 1.370 . S
C809 C813 1.408 . S
C810 C808 1.363 . S
C810 C811 1.370 . S
C810 C814 1.524 . S
C811 C803 1.503 . S
C811 C810 1.370 . S
C811 C812 1.403 . S
C812 C811 1.403 . S
C812 C813 1.404 . S
C812 C815 1.539 1_655 S
C813 C809 1.408 . S
C813 C812 1.404 . S
C813 H825 0.929 . S
C814 C810 1.524 . S
C814 H826 0.956 . S
C814 H827 0.961 . S
C814 H828 0.961 . S
C815 C812 1.539 1_455 S
C815 H829 0.958 1_455 S
C815 H830 0.961 . S
C815 H831 0.960 . S
H816 C800 0.931 . S
H817 C805 0.929 . S
H818 C806 0.960 . S
H819 C806 0.962 . S
H820 C806 0.960 . S
H821 C807 0.961 . S
H822 C807 0.961 . S
H823 C807 0.961 . S
H824 C808 0.931 . S
H825 C813 0.929 . S
H826 C814 0.956 . S
H827 C814 0.961 . S
H828 C814 0.961 . S
H829 C815 0.958 1_655 S
H830 C815 0.961 . S
H831 C815 0.960 . S
C832 C833 1.391 . S
C832 C834 1.394 . S
C832 H848 0.931 . S
C833 C832 1.391 . S
C833 C837 1.376 . S
C834 C832 1.394 . S
C834 C835 1.369 . S
C834 C838 1.531 . S
C835 C834 1.369 . S
C835 C836 1.410 . S
C835 C843 1.503 . S
C836 C835 1.410 . S
C836 C837 1.392 . S
C836 C839 1.511 . S
C837 C833 1.376 . S
C837 C836 1.392 . S
C837 H849 0.929 . S
C838 C834 1.531 . S
C838 H850 0.960 . S
C838 H851 0.962 . S
C838 H852 0.960 . S
C839 C836 1.511 . S
C839 H853 0.961 . S
C839 H854 0.961 . S
C839 H855 0.961 . S
C840 C841 1.370 . S
C840 C842 1.363 . S
C840 H856 0.931 . S
C841 C840 1.370 . S
C841 C845 1.408 . S
C842 C840 1.363 . S
C842 C843 1.370 . S
C842 C846 1.524 . S
C843 C835 1.503 . S
C843 C842 1.370 . S
C843 C844 1.403 . S
C844 C843 1.403 . S
C844 C845 1.404 . S
C844 C847 1.539 . S
C845 C841 1.408 . S
C845 C844 1.404 . S
C845 H857 0.930 . S
C846 C842 1.524 . S
C846 H858 0.956 . S
C846 H859 0.961 . S
C846 H860 0.961 . S
C847 C844 1.539 . S
C847 H861 0.958 . S
C847 H862 0.961 . S
C847 H863 0.960 . S
H848 C832 0.931 . S
H849 C837 0.929 . S
H850 C838 0.960 . S
H851 C838 0.962 . S
H852 C838 0.960 . S
H853 C839 0.961 . S
H854 C839 0.961 . S
H855 C839 0.961 . S
H856 C840 0.931 . S
H857 C845 0.930 . S
H858 C846 0.956 . S
H859 C846 0.961 . S
H860 C846 0.961 . S
H861 C847 0.958 . S
H862 C847 0.961 . S
H863 C847 0.960 . S
C864 C865 1.391 . S
C864 C866 1.394 . S
C864 H880 0.931 . S
C865 C864 1.391 . S
C865 C869 1.376 . S
C866 C864 1.394 . S
C866 C867 1.369 . S
C866 C870 1.531 . S
C867 C866 1.369 . S
C867 C868 1.410 . S
C867 C875 1.503 . S
C868 C867 1.410 . S
C868 C869 1.392 . S
C868 C871 1.511 . S
C869 C865 1.376 . S
C869 C868 1.392 . S
C869 H881 0.929 . S
C870 C866 1.531 . S
C870 H882 0.960 . S
C870 H883 0.962 . S
C870 H884 0.960 . S
C871 C868 1.511 . S
C871 H885 0.961 . S
C871 H886 0.961 . S
C871 H887 0.961 . S
C872 C873 1.370 . S
C872 C874 1.363 . S
C872 H888 0.931 . S
C873 C872 1.370 . S
C873 C877 1.408 . S
C874 C872 1.363 . S
C874 C875 1.370 . S
C874 C878 1.524 . S
C875 C867 1.503 . S
C875 C874 1.370 . S
C875 C876 1.403 . S
C876 C875 1.403 . S
C876 C877 1.404 . S
C876 C879 1.539 . S
C877 C873 1.408 . S
C877 C876 1.404 . S
C877 H889 0.930 . S
C878 C874 1.524 . S
C878 H890 0.956 . S
C878 H891 0.961 . S
C878 H892 0.961 . S
C879 C876 1.539 . S
C879 H893 0.958 . S
C879 H894 0.961 . S
C879 H895 0.960 . S
H880 C864 0.931 . S
H881 C869 0.929 . S
H882 C870 0.960 . S
H883 C870 0.962 . S
H884 C870 0.960 . S
H885 C871 0.961 . S
H886 C871 0.961 . S
H887 C871 0.961 . S
H888 C872 0.931 . S
H889 C877 0.930 . S
H890 C878 0.956 . S
H891 C878 0.961 . S
H892 C878 0.961 . S
H893 C879 0.958 . S
H894 C879 0.961 . S
H895 C879 0.960 . S
C896 C897 1.391 . S
C896 C898 1.394 . S
C896 H912 0.931 . S
C897 C896 1.391 . S
C897 C901 1.376 . S
C898 C896 1.394 . S
C898 C899 1.369 . S
C898 C902 1.531 . S
C899 C898 1.369 . S
C899 C900 1.410 . S
C899 C907 1.503 . S
C900 C899 1.410 . S
C900 C901 1.392 . S
C900 C903 1.511 . S
C901 C897 1.376 . S
C901 C900 1.392 . S
C901 H913 0.929 . S
C902 C898 1.531 . S
C902 H914 0.960 . S
C902 H915 0.962 . S
C902 H916 0.960 . S
C903 C900 1.511 . S
C903 H917 0.961 . S
C903 H918 0.961 . S
C903 H919 0.961 . S
C904 C905 1.370 . S
C904 C906 1.363 . S
C904 H920 0.931 . S
C905 C904 1.370 . S
C905 C909 1.408 . S
C906 C904 1.363 . S
C906 C907 1.370 . S
C906 C910 1.524 . S
C907 C899 1.503 . S
C907 C906 1.370 . S
C907 C908 1.403 . S
C908 C907 1.403 . S
C908 C909 1.404 . S
C908 C911 1.539 . S
C909 C905 1.408 . S
C909 C908 1.404 . S
C909 H921 0.930 . S
C910 C906 1.524 . S
C910 H922 0.956 . S
C910 H923 0.961 . S
C910 H924 0.961 . S
C911 C908 1.539 . S
C911 H925 0.958 . S
C911 H926 0.961 . S
C911 H927 0.960 . S
H912 C896 0.931 . S
H913 C901 0.929 . S
H914 C902 0.960 . S
H915 C902 0.962 . S
H916 C902 0.960 . S
H917 C903 0.961 . S
H918 C903 0.961 . S
H919 C903 0.961 . S
H920 C904 0.931 . S
H921 C909 0.930 . S
H922 C910 0.956 . S
H923 C910 0.961 . S
H924 C910 0.961 . S
H925 C911 0.958 . S
H926 C911 0.961 . S
H927 C911 0.960 . S
C928 C929 1.391 . S
C928 C930 1.394 . S
C928 H944 0.931 . S
C929 C928 1.391 . S
C929 C933 1.376 . S
C930 C928 1.394 . S
C930 C931 1.369 . S
C930 C934 1.531 . S
C931 C930 1.369 . S
C931 C932 1.410 . S
C931 C939 1.503 . S
C932 C931 1.410 . S
C932 C933 1.392 . S
C932 C935 1.511 . S
C933 C929 1.376 . S
C933 C932 1.392 . S
C933 H945 0.929 . S
C934 C930 1.531 . S
C934 H946 0.960 . S
C934 H947 0.962 . S
C934 H948 0.960 . S
C935 C932 1.511 . S
C935 H949 0.961 . S
C935 H950 0.961 . S
C935 H951 0.961 . S
C936 C937 1.370 . S
C936 C938 1.363 . S
C936 H952 0.931 . S
C937 C936 1.370 . S
C937 C941 1.408 . S
C938 C936 1.363 . S
C938 C939 1.370 . S
C938 C942 1.524 . S
C939 C931 1.503 . S
C939 C938 1.370 . S
C939 C940 1.403 . S
C940 C939 1.403 . S
C940 C941 1.404 . S
C940 C943 1.539 . S
C941 C937 1.408 . S
C941 C940 1.404 . S
C941 H953 0.930 . S
C942 C938 1.524 . S
C942 H954 0.956 . S
C942 H955 0.961 . S
C942 H956 0.961 . S
C943 C940 1.539 . S
C943 H957 0.958 . S
C943 H958 0.961 . S
C943 H959 0.960 . S
H944 C928 0.931 . S
H945 C933 0.929 . S
H946 C934 0.960 . S
H947 C934 0.962 . S
H948 C934 0.960 . S
H949 C935 0.961 . S
H950 C935 0.961 . S
H951 C935 0.961 . S
H952 C936 0.931 . S
H953 C941 0.930 . S
H954 C942 0.956 . S
H955 C942 0.961 . S
H956 C942 0.961 . S
H957 C943 0.958 . S
H958 C943 0.961 . S
H959 C943 0.960 . S
C960 C961 1.391 . S
C960 C962 1.394 . S
C960 H976 0.931 . S
C961 C960 1.391 . S
C961 C965 1.376 . S
C962 C960 1.394 . S
C962 C963 1.369 . S
C962 C966 1.531 . S
C963 C962 1.369 . S
C963 C964 1.410 . S
C963 C971 1.503 . S
C964 C963 1.410 . S
C964 C965 1.392 . S
C964 C967 1.511 . S
C965 C961 1.376 . S
C965 C964 1.392 . S
C965 H977 0.929 . S
C966 C962 1.531 . S
C966 H978 0.960 . S
C966 H979 0.962 . S
C966 H980 0.960 . S
C967 C964 1.511 . S
C967 H981 0.961 . S
C967 H982 0.961 . S
C967 H983 0.961 . S
C968 C969 1.370 . S
C968 C970 1.363 . S
C968 H984 0.931 . S
C969 C968 1.370 . S
C969 C973 1.408 . S
C970 C968 1.363 . S
C970 C971 1.370 . S
C970 C974 1.524 . S
C971 C963 1.503 . S
C971 C970 1.370 . S
C971 C972 1.403 . S
C972 C971 1.403 . S
C972 C973 1.404 . S
C972 C975 1.539 . S
C973 C969 1.408 . S
C973 C972 1.404 . S
C973 H985 0.930 . S
C974 C970 1.524 . S
C974 H986 0.956 . S
C974 H987 0.961 . S
C974 H988 0.961 . S
C975 C972 1.539 . S
C975 H989 0.958 . S
C975 H990 0.961 . S
C975 H991 0.960 . S
H976 C960 0.931 . S
H977 C965 0.929 . S
H978 C966 0.960 . S
H979 C966 0.962 . S
H980 C966 0.960 . S
H981 C967 0.961 . S
H982 C967 0.961 . S
H983 C967 0.961 . S
H984 C968 0.931 . S
H985 C973 0.930 . S
H986 C974 0.956 . S
H987 C974 0.961 . S
H988 C974 0.961 . S
H989 C975 0.958 . S
H990 C975 0.961 . S
H991 C975 0.960 . S
C992 C993 1.391 . S
C992 C994 1.394 . S
C992 H1008 0.931 . S
C993 C992 1.391 . S
C993 C997 1.376 . S
C994 C992 1.394 . S
C994 C995 1.369 . S
C994 C998 1.531 . S
C995 C994 1.369 . S
C995 C996 1.410 . S
C995 C1003 1.503 . S
C996 C995 1.410 . S
C996 C997 1.392 . S
C996 C999 1.511 . S
C997 C993 1.376 . S
C997 C996 1.392 . S
C997 H1009 0.929 . S
C998 C994 1.531 . S
C998 H1010 0.960 . S
C998 H1011 0.962 . S
C998 H1012 0.960 . S
C999 C996 1.511 . S
C999 H1013 0.961 . S
C999 H1014 0.961 . S
C999 H1015 0.961 . S
C1000 C1001 1.370 . S
C1000 C1002 1.363 . S
C1000 H1016 0.931 . S
C1001 C1000 1.370 . S
C1001 C1005 1.408 . S
C1002 C1000 1.363 . S
C1002 C1003 1.370 . S
C1002 C1006 1.524 . S
C1003 C995 1.503 . S
C1003 C1002 1.370 . S
C1003 C1004 1.403 . S
C1004 C1003 1.403 . S
C1004 C1005 1.404 . S
C1004 C1007 1.539 . S
C1005 C1001 1.408 . S
C1005 C1004 1.404 . S
C1005 H1017 0.930 . S
C1006 C1002 1.524 . S
C1006 H1018 0.956 . S
C1006 H1019 0.961 . S
C1006 H1020 0.961 . S
C1007 C1004 1.539 . S
C1007 H1021 0.958 . S
C1007 H1022 0.961 . S
C1007 H1023 0.960 . S
H1008 C992 0.931 . S
H1009 C997 0.929 . S
H1010 C998 0.960 . S
H1011 C998 0.962 . S
H1012 C998 0.960 . S
H1013 C999 0.961 . S
H1014 C999 0.961 . S
H1015 C999 0.961 . S
H1016 C1000 0.931 . S
H1017 C1005 0.930 . S
H1018 C1006 0.956 . S
H1019 C1006 0.961 . S
H1020 C1006 0.961 . S
H1021 C1007 0.958 . S
H1022 C1007 0.961 . S
H1023 C1007 0.960 . S
C257 C6 1.046 . S
C265 C113 1.079 . S
C289 C18 1.295 . S
C297 C153 1.283 . S
C329 C178 2.529 . S
C321 C28 2.575 . S
C353 C40 1.814 . S
C361 C218 1.786 . S
C393 C149 1.845 . S
C385 C9 1.796 . S
C425 C109 1.684 . S
C417 C16 1.602 . S
C457 C240 1.701 . S
C449 C30 1.699 . S
C489 C200 1.334 . S
C481 C42 1.349 . S
C513 C4 1.226 . S
C521 C242 1.261 . S
C553 C159 2.363 . S
C545 C33 2.389 . S
C577 C45 1.876 . S
C585 C119 1.872 . S
C609 C21 1.457 . S
C617 C202 1.448 . S
C649 C122 1.096 . S
C641 C57 1.110 . S
C673 C66 1.257 . S
C681 C162 1.286 . S
C705 C76 2.623 . S
C713 C199 2.573 . S
C737 C88 1.735 . S
C745 C239 1.697 . S
C769 C54 1.776 . S
C777 C160 1.842 . S
C809 C120 1.772 . S
C801 C64 1.738 . S
C841 C229 1.585 . S
C833 C78 1.614 . S
C873 C189 1.393 . S
C865 C93 1.408 . S
C897 C52 1.225 . S
C905 C233 1.295 . S
C937 C138 2.357 . S
C929 C81 2.363 . S
C969 C98 1.838 . S
C961 C90 1.853 . S
C993 C69 1.431 . S
C1001 C193 1.462 . S
