# Generated by pormake.
# Topology eea, (3,6)-cn, num edge types: 1
# Building blocks:
#     Node 0, Type 0, BuildingBlock: BELTOD_clean_linker_0, # of connection points: 3
#     Node 1, Type 0, BuildingBlock: BELTOD_clean_linker_0, # of connection points: 3
#     Node 2, Type 0, BuildingBlock: BELTOD_clean_linker_0, # of connection points: 3
#     Node 3, Type 0, BuildingBlock: BELTOD_clean_linker_0, # of connection points: 3
#     Node 4, Type 0, BuildingBlock: BELTOD_clean_linker_0, # of connection points: 3
#     Node 5, Type 0, BuildingBlock: BELTOD_clean_linker_0, # of connection points: 3
#     Node 6, Type 0, BuildingBlock: BELTOD_clean_linker_0, # of connection points: 3
#     Node 7, Type 0, BuildingBlock: BELTOD_clean_linker_0, # of connection points: 3
#     Node 8, Type 0, BuildingBlock: BELTOD_clean_linker_0, # of connection points: 3
#     Node 9, Type 0, BuildingBlock: BELTOD_clean_linker_0, # of connection points: 3
#     Node 10, Type 0, BuildingBlock: BELTOD_clean_linker_0, # of connection points: 3
#     Node 11, Type 0, BuildingBlock: BELTOD_clean_linker_0, # of connection points: 3
#     Node 12, Type 0, BuildingBlock: BELTOD_clean_linker_0, # of connection points: 3
#     Node 13, Type 0, BuildingBlock: BELTOD_clean_linker_0, # of connection points: 3
#     Node 14, Type 0, BuildingBlock: BELTOD_clean_linker_0, # of connection points: 3
#     Node 15, Type 0, BuildingBlock: BELTOD_clean_linker_0, # of connection points: 3
#     Node 16, Type 0, BuildingBlock: BELTOD_clean_linker_0, # of connection points: 3
#     Node 17, Type 0, BuildingBlock: BELTOD_clean_linker_0, # of connection points: 3
#     Node 18, Type 1, BuildingBlock: CUKXOW_clean_sbu_0, # of connection points: 6
#     Node 19, Type 1, BuildingBlock: CUKXOW_clean_sbu_0, # of connection points: 6
#     Node 20, Type 1, BuildingBlock: CUKXOW_clean_sbu_0, # of connection points: 6
#     Node 21, Type 1, BuildingBlock: CUKXOW_clean_sbu_0, # of connection points: 6
#     Node 22, Type 1, BuildingBlock: CUKXOW_clean_sbu_0, # of connection points: 6
#     Node 23, Type 1, BuildingBlock: CUKXOW_clean_sbu_0, # of connection points: 6
#     Node 24, Type 1, BuildingBlock: CUKXOW_clean_sbu_0, # of connection points: 6
#     Node 25, Type 1, BuildingBlock: CUKXOW_clean_sbu_0, # of connection points: 6
#     Node 26, Type 1, BuildingBlock: CUKXOW_clean_sbu_0, # of connection points: 6
#     Edge 27, Type (0, 1), BuildingBlock: XUDNAN_clean_linker_2, # of connection points: 2
#     Edge 28, Type (0, 1), BuildingBlock: XUDNAN_clean_linker_2, # of connection points: 2
#     Edge 29, Type (0, 1), BuildingBlock: XUDNAN_clean_linker_2, # of connection points: 2
#     Edge 30, Type (0, 1), BuildingBlock: XUDNAN_clean_linker_2, # of connection points: 2
#     Edge 31, Type (0, 1), BuildingBlock: XUDNAN_clean_linker_2, # of connection points: 2
#     Edge 32, Type (0, 1), BuildingBlock: XUDNAN_clean_linker_2, # of connection points: 2
#     Edge 33, Type (0, 1), BuildingBlock: XUDNAN_clean_linker_2, # of connection points: 2
#     Edge 34, Type (0, 1), BuildingBlock: XUDNAN_clean_linker_2, # of connection points: 2
#     Edge 35, Type (0, 1), BuildingBlock: XUDNAN_clean_linker_2, # of connection points: 2
#     Edge 36, Type (0, 1), BuildingBlock: XUDNAN_clean_linker_2, # of connection points: 2
#     Edge 37, Type (0, 1), BuildingBlock: XUDNAN_clean_linker_2, # of connection points: 2
#     Edge 38, Type (0, 1), BuildingBlock: XUDNAN_clean_linker_2, # of connection points: 2
#     Edge 39, Type (0, 1), BuildingBlock: XUDNAN_clean_linker_2, # of connection points: 2
#     Edge 40, Type (0, 1), BuildingBlock: XUDNAN_clean_linker_2, # of connection points: 2
#     Edge 41, Type (0, 1), BuildingBlock: XUDNAN_clean_linker_2, # of connection points: 2
#     Edge 42, Type (0, 1), BuildingBlock: XUDNAN_clean_linker_2, # of connection points: 2
#     Edge 43, Type (0, 1), BuildingBlock: XUDNAN_clean_linker_2, # of connection points: 2
#     Edge 44, Type (0, 1), BuildingBlock: XUDNAN_clean_linker_2, # of connection points: 2
#     Edge 45, Type (0, 1), BuildingBlock: XUDNAN_clean_linker_2, # of connection points: 2
#     Edge 46, Type (0, 1), BuildingBlock: XUDNAN_clean_linker_2, # of connection points: 2
#     Edge 47, Type (0, 1), BuildingBlock: XUDNAN_clean_linker_2, # of connection points: 2
#     Edge 48, Type (0, 1), BuildingBlock: XUDNAN_clean_linker_2, # of connection points: 2
#     Edge 49, Type (0, 1), BuildingBlock: XUDNAN_clean_linker_2, # of connection points: 2
#     Edge 50, Type (0, 1), BuildingBlock: XUDNAN_clean_linker_2, # of connection points: 2
#     Edge 51, Type (0, 1), BuildingBlock: XUDNAN_clean_linker_2, # of connection points: 2
#     Edge 52, Type (0, 1), BuildingBlock: XUDNAN_clean_linker_2, # of connection points: 2
#     Edge 53, Type (0, 1), BuildingBlock: XUDNAN_clean_linker_2, # of connection points: 2
#     Edge 54, Type (0, 1), BuildingBlock: XUDNAN_clean_linker_2, # of connection points: 2
#     Edge 55, Type (0, 1), BuildingBlock: XUDNAN_clean_linker_2, # of connection points: 2
#     Edge 56, Type (0, 1), BuildingBlock: XUDNAN_clean_linker_2, # of connection points: 2
#     Edge 57, Type (0, 1), BuildingBlock: XUDNAN_clean_linker_2, # of connection points: 2
#     Edge 58, Type (0, 1), BuildingBlock: XUDNAN_clean_linker_2, # of connection points: 2
#     Edge 59, Type (0, 1), BuildingBlock: XUDNAN_clean_linker_2, # of connection points: 2
#     Edge 60, Type (0, 1), BuildingBlock: XUDNAN_clean_linker_2, # of connection points: 2
#     Edge 61, Type (0, 1), BuildingBlock: XUDNAN_clean_linker_2, # of connection points: 2
#     Edge 62, Type (0, 1), BuildingBlock: XUDNAN_clean_linker_2, # of connection points: 2
#     Edge 63, Type (0, 1), BuildingBlock: XUDNAN_clean_linker_2, # of connection points: 2
#     Edge 64, Type (0, 1), BuildingBlock: XUDNAN_clean_linker_2, # of connection points: 2
#     Edge 65, Type (0, 1), BuildingBlock: XUDNAN_clean_linker_2, # of connection points: 2
#     Edge 66, Type (0, 1), BuildingBlock: XUDNAN_clean_linker_2, # of connection points: 2
#     Edge 67, Type (0, 1), BuildingBlock: XUDNAN_clean_linker_2, # of connection points: 2
#     Edge 68, Type (0, 1), BuildingBlock: XUDNAN_clean_linker_2, # of connection points: 2
#     Edge 69, Type (0, 1), BuildingBlock: XUDNAN_clean_linker_2, # of connection points: 2
#     Edge 70, Type (0, 1), BuildingBlock: XUDNAN_clean_linker_2, # of connection points: 2
#     Edge 71, Type (0, 1), BuildingBlock: XUDNAN_clean_linker_2, # of connection points: 2
#     Edge 72, Type (0, 1), BuildingBlock: XUDNAN_clean_linker_2, # of connection points: 2
#     Edge 73, Type (0, 1), BuildingBlock: XUDNAN_clean_linker_2, # of connection points: 2
#     Edge 74, Type (0, 1), BuildingBlock: XUDNAN_clean_linker_2, # of connection points: 2
#     Edge 75, Type (0, 1), BuildingBlock: XUDNAN_clean_linker_2, # of connection points: 2
#     Edge 76, Type (0, 1), BuildingBlock: XUDNAN_clean_linker_2, # of connection points: 2
#     Edge 77, Type (0, 1), BuildingBlock: XUDNAN_clean_linker_2, # of connection points: 2
#     Edge 78, Type (0, 1), BuildingBlock: XUDNAN_clean_linker_2, # of connection points: 2
#     Edge 79, Type (0, 1), BuildingBlock: XUDNAN_clean_linker_2, # of connection points: 2
#     Edge 80, Type (0, 1), BuildingBlock: XUDNAN_clean_linker_2, # of connection points: 2
# Relax obj value: 0.016
# Max RMSD: 0.122
# Mean RMSD: 0.050
data_MOF--net-eea--node1-CUKXOW_clean_sbu_0--node2-BELTOD_clean_linker_0--edge1-XUDNAN_clean_linker_2
_symmetry_space_group_name_H-M    P1
_symmetry_Int_Tables_number       1
_symmetry_cell_setting            triclinic
loop_
_symmetry_equiv_pos_as_xyz
'x, y, z'
_cell_length_a     63.338524
_cell_length_b     60.166788
_cell_length_c     66.55697
_cell_angle_alpha  93.550412
_cell_angle_beta   93.107972
_cell_angle_gamma 120.0039
loop_
_atom_site_label
_atom_site_type_symbol
_atom_site_fract_x
_atom_site_fract_y
_atom_site_fract_z
_atom_type_partial_charge
P0 P 0.28429 0.15378 0.43029 0.0
H1 H 0.25167 0.12989 0.39247 0.0
H2 H 0.22929 0.08555 0.37646 0.0
H3 H 0.26355 0.06297 0.42242 0.0
H4 H 0.28566 0.10738 0.43861 0.0
H5 H 0.30159 0.20582 0.41836 0.0
H6 H 0.28017 0.22832 0.40837 0.0
H7 H 0.211 0.16061 0.41624 0.0
H8 H 0.23274 0.13895 0.42723 0.0
H9 H 0.32006 0.18536 0.4647 0.0
H10 H 0.24728 0.11882 0.45503 0.0
O11 O 0.31319 0.16977 0.42451 0.0
H12 H 0.32059 0.18108 0.50106 0.0
H13 H 0.24769 0.11441 0.49133 0.0
C14 C 0.26958 0.12172 0.41722 0.0
C15 C 0.25424 0.11543 0.39926 0.0
C16 C 0.24151 0.09008 0.39005 0.0
C17 C 0.24441 0.07077 0.39838 0.0
C18 C 0.26092 0.07747 0.4157 0.0
C19 C 0.27343 0.10278 0.42502 0.0
C20 C 0.26867 0.17058 0.42318 0.0
C21 C 0.28182 0.19589 0.41797 0.0
C22 C 0.2695 0.20867 0.41211 0.0
C23 C 0.24378 0.19627 0.41132 0.0
C24 C 0.2308 0.17097 0.41691 0.0
C25 C 0.24318 0.15841 0.42303 0.0
C26 C 0.28393 0.15195 0.45716 0.0
C27 C 0.30416 0.16991 0.47042 0.0
C28 C 0.30435 0.1676 0.4912 0.0
C29 C 0.28426 0.14726 0.49899 0.0
C30 C 0.26355 0.13004 0.48571 0.0
C31 C 0.26332 0.13252 0.46499 0.0
P32 P 0.90621 0.10798 0.45703 0.0
H33 H 0.89624 0.05929 0.43574 0.0
H34 H 0.86201 0.02664 0.41251 0.0
H35 H 0.8276 0.07317 0.41512 0.0
H36 H 0.86249 0.10622 0.43771 0.0
H37 H 0.95852 0.14227 0.46755 0.0
H38 H 0.98962 0.1797 0.45262 0.0
H39 H 0.93574 0.16834 0.4044 0.0
H40 H 0.9044 0.13139 0.41972 0.0
H41 H 0.85873 0.0872 0.47401 0.0
H42 H 0.93027 0.15581 0.48458 0.0
O43 O 0.91917 0.09311 0.46827 0.0
H44 H 0.84452 0.10414 0.50125 0.0
H45 H 0.91625 0.17204 0.51231 0.0
C46 C 0.88154 0.08481 0.43889 0.0
C47 C 0.88136 0.06249 0.43126 0.0
C48 C 0.86168 0.04375 0.41805 0.0
C49 C 0.84178 0.04701 0.41219 0.0
C50 C 0.8426 0.07 0.41922 0.0
C51 C 0.86242 0.08883 0.43232 0.0
C52 C 0.92919 0.13391 0.44469 0.0
C53 C 0.95339 0.14772 0.45371 0.0
C54 C 0.97109 0.16915 0.44526 0.0
C55 C 0.96496 0.17681 0.42744 0.0
C56 C 0.94085 0.16266 0.41813 0.0
C57 C 0.92299 0.14154 0.42687 0.0
C58 C 0.89532 0.12069 0.47658 0.0
C59 C 0.87128 0.10605 0.48185 0.0
C60 C 0.86319 0.11558 0.4975 0.0
C61 C 0.87931 0.13942 0.50855 0.0
C62 C 0.90352 0.15371 0.50376 0.0
C63 C 0.91146 0.14443 0.48784 0.0
P64 P 0.85567 0.70603 0.43358 0.0
H65 H 0.82013 0.69898 0.40026 0.0
H66 H 0.79821 0.72141 0.39268 0.0
H67 H 0.83784 0.77641 0.44512 0.0
H68 H 0.85799 0.75223 0.45355 0.0
H69 H 0.88564 0.68948 0.41266 0.0
H70 H 0.92805 0.71213 0.40465 0.0
H71 H 0.93853 0.78263 0.43573 0.0
H72 H 0.8961 0.75975 0.44395 0.0
H73 H 0.81242 0.67024 0.45144 0.0
H74 H 0.88829 0.72367 0.47204 0.0
O75 O 0.84165 0.67821 0.41866 0.0
H76 H 0.80508 0.65588 0.48518 0.0
H77 H 0.88101 0.7093 0.50604 0.0
C78 C 0.84081 0.72398 0.42744 0.0
C79 C 0.82407 0.71583 0.41018 0.0
C80 C 0.8117 0.72897 0.4057 0.0
C81 C 0.81618 0.75098 0.41817 0.0
C82 C 0.83344 0.75935 0.43529 0.0
C83 C 0.84537 0.74578 0.43999 0.0
C84 C 0.88747 0.72296 0.42866 0.0
C85 C 0.89698 0.70982 0.41776 0.0
C86 C 0.92126 0.72283 0.41307 0.0
C87 C 0.93662 0.74926 0.41936 0.0
C88 C 0.9272 0.76225 0.43071 0.0
C89 C 0.90284 0.74921 0.43532 0.0
C90 C 0.85095 0.69767 0.45914 0.0
C91 C 0.82751 0.67892 0.46327 0.0
C92 C 0.82335 0.67067 0.48254 0.0
C93 C 0.84255 0.6812 0.49819 0.0
C94 C 0.86588 0.70084 0.49427 0.0
C95 C 0.87007 0.70898 0.47482 0.0
P96 P 0.14007 0.29436 0.57241 0.0
H97 H 0.12114 0.25953 0.60333 0.0
H98 H 0.08121 0.23573 0.61568 0.0
H99 H 0.05125 0.26367 0.57041 0.0
H100 H 0.09197 0.28863 0.5587 0.0
H101 H 0.1882 0.30686 0.59112 0.0
H102 H 0.20623 0.28013 0.59788 0.0
H103 H 0.14351 0.21448 0.56411 0.0
H104 H 0.12549 0.24143 0.55752 0.0
H105 H 0.17699 0.34094 0.55741 0.0
H106 H 0.11037 0.27212 0.53283 0.0
O107 O 0.15423 0.32005 0.5896 0.0
H108 H 0.18276 0.35686 0.52434 0.0
H109 H 0.11519 0.28859 0.4996 0.0
C110 C 0.10941 0.27506 0.57953 0.0
C111 C 0.10592 0.2602 0.59576 0.0
C112 C 0.08293 0.24645 0.6028 0.0
C113 C 0.06273 0.24726 0.59383 0.0
C114 C 0.06633 0.26251 0.57768 0.0
C115 C 0.08957 0.27653 0.57075 0.0
C116 C 0.15531 0.27596 0.57416 0.0
C117 C 0.17849 0.28682 0.58491 0.0
C118 C 0.18886 0.27153 0.58866 0.0
C119 C 0.17617 0.2451 0.58171 0.0
C120 C 0.15355 0.23468 0.56992 0.0
C121 C 0.14329 0.25006 0.56607 0.0
C122 C 0.1428 0.30578 0.54775 0.0
C123 C 0.16325 0.32949 0.54493 0.0
C124 C 0.16645 0.33867 0.52594 0.0
C125 C 0.14918 0.32436 0.50923 0.0
C126 C 0.12888 0.30022 0.51205 0.0
C127 C 0.1259 0.29087 0.53111 0.0
P128 P 0.79071 0.894 0.5658 0.0
H129 H 0.79768 0.91 0.6094 0.0
H130 H 0.79355 0.94321 0.629 0.0
H131 H 0.76771 0.96074 0.57428 0.0
H132 H 0.77101 0.927 0.55482 0.0
H133 H 0.80937 0.85947 0.55817 0.0
H134 H 0.80688 0.82363 0.57515 0.0
H135 H 0.75997 0.83133 0.61652 0.0
H136 H 0.76114 0.86586 0.59836 0.0
H137 H 0.80643 0.90406 0.52529 0.0
H138 H 0.73818 0.86311 0.55186 0.0
O139 O 0.82056 0.91139 0.56307 0.0
H140 H 0.78412 0.89554 0.49215 0.0
H141 H 0.71552 0.85461 0.51836 0.0
C142 C 0.78367 0.91515 0.58073 0.0
C143 C 0.79015 0.92021 0.60171 0.0
C144 C 0.78795 0.93931 0.61289 0.0
C145 C 0.78011 0.95434 0.60314 0.0
C146 C 0.77362 0.94926 0.58216 0.0
C147 C 0.77536 0.92983 0.57107 0.0
C148 C 0.78614 0.86589 0.57744 0.0
C149 C 0.79837 0.85324 0.5708 0.0
C150 C 0.79713 0.83288 0.5807 0.0
C151 C 0.78375 0.82487 0.59763 0.0
C152 C 0.77048 0.83684 0.60358 0.0
C153 C 0.77138 0.85692 0.59337 0.0
C154 C 0.77395 0.88439 0.54107 0.0
C155 C 0.78661 0.89295 0.52398 0.0
C156 C 0.77383 0.88811 0.50501 0.0
C157 C 0.74808 0.87466 0.50271 0.0
C158 C 0.73535 0.86493 0.51969 0.0
C159 C 0.74825 0.86986 0.53879 0.0
P160 P 0.13803 0.85055 0.58163 0.0
H161 H 0.17438 0.87147 0.6167 0.0
H162 H 0.1979 0.914 0.63522 0.0
H163 H 0.16072 0.94165 0.59658 0.0
H164 H 0.13797 0.89887 0.57734 0.0
H165 H 0.10274 0.79594 0.57469 0.0
H166 H 0.06039 0.76951 0.58206 0.0
H167 H 0.06134 0.83784 0.6077 0.0
H168 H 0.10409 0.86413 0.60069 0.0
H169 H 0.17833 0.8648 0.55675 0.0
H170 H 0.10193 0.8419 0.54768 0.0
O171 O 0.1517 0.83412 0.58819 0.0
H172 H 0.18028 0.86258 0.52014 0.0
H173 H 0.10377 0.83992 0.51107 0.0
C174 C 0.15453 0.88205 0.59558 0.0
C175 C 0.17129 0.88665 0.61213 0.0
C176 C 0.1846 0.91104 0.62289 0.0
C177 C 0.18114 0.93137 0.61757 0.0
C178 C 0.1641 0.9266 0.60099 0.0
C179 C 0.15095 0.90213 0.59005 0.0
C180 C 0.10666 0.83193 0.5873 0.0
C181 C 0.09387 0.80523 0.58197 0.0
C182 C 0.06955 0.79017 0.58605 0.0
C183 C 0.05736 0.80153 0.59542 0.0
C184 C 0.07024 0.82842 0.60068 0.0
C185 C 0.09468 0.84352 0.59658 0.0
C186 C 0.13991 0.85302 0.5549 0.0
C187 C 0.16207 0.85968 0.54686 0.0
C188 C 0.16319 0.85855 0.52592 0.0
C189 C 0.14209 0.85074 0.51266 0.0
C190 C 0.12022 0.8455 0.52087 0.0
C191 C 0.11916 0.8467 0.54182 0.0
P192 P 0.96277 0.49681 0.75668 0.0
H193 H 0.96383 0.47789 0.71586 0.0
H194 H 0.94888 0.4348 0.69892 0.0
H195 H 0.92145 0.40178 0.75429 0.0
H196 H 0.93581 0.44504 0.77092 0.0
H197 H 0.97121 0.54911 0.75745 0.0
H198 H 0.94625 0.56681 0.74484 0.0
H199 H 0.88808 0.48965 0.72309 0.0
H200 H 0.91269 0.47219 0.73643 0.0
H201 H 0.99329 0.48702 0.78459 0.0
H202 H 0.93827 0.50892 0.78859 0.0
O203 O 0.99084 0.51551 0.74984 0.0
H204 H 0.99966 0.49105 0.8215 0.0
H205 H 0.94441 0.51282 0.82551 0.0
C206 C 0.95147 0.46469 0.74474 0.0
C207 C 0.95466 0.46136 0.72435 0.0
C208 C 0.94615 0.4367 0.71472 0.0
C209 C 0.93425 0.4148 0.72531 0.0
C210 C 0.93045 0.41819 0.74565 0.0
C211 C 0.93889 0.44295 0.75526 0.0
C212 C 0.94393 0.50941 0.74767 0.0
C213 C 0.95305 0.53606 0.74998 0.0
C214 C 0.93882 0.54615 0.74262 0.0
C215 C 0.91517 0.5297 0.73281 0.0
C216 C 0.90607 0.50291 0.73075 0.0
C217 C 0.92025 0.49286 0.73824 0.0
C218 C 0.96551 0.49789 0.78386 0.0
C219 C 0.98245 0.4925 0.79344 0.0
C220 C 0.98596 0.49468 0.81454 0.0
C221 C 0.97261 0.50238 0.82646 0.0
C222 C 0.95522 0.50721 0.81676 0.0
C223 C 0.95164 0.50489 0.79562 0.0
P224 P 0.55394 0.44702 0.78982 0.0
H225 H 0.52657 0.39101 0.78904 0.0
H226 H 0.4919 0.35704 0.7671 0.0
H227 H 0.49061 0.41434 0.73176 0.0
H228 H 0.52507 0.44841 0.75426 0.0
H229 H 0.59885 0.45328 0.77501 0.0
H230 H 0.63107 0.48707 0.75808 0.0
H231 H 0.59013 0.52682 0.75566 0.0
H232 H 0.55783 0.49278 0.77271 0.0
H233 H 0.51007 0.42424 0.81122 0.0
H234 H 0.57494 0.49904 0.81139 0.0
O235 O 0.5675 0.43356 0.80231 0.0
H236 H 0.49771 0.4407 0.84013 0.0
H237 H 0.56194 0.51571 0.83971 0.0
C238 C 0.52874 0.4222 0.77303 0.0
C239 C 0.51899 0.3963 0.77648 0.0
C240 C 0.49918 0.37684 0.76384 0.0
C241 C 0.48863 0.38289 0.74746 0.0
C242 C 0.49824 0.40899 0.74425 0.0
C243 C 0.51807 0.42849 0.757 0.0
C244 C 0.57631 0.47093 0.77562 0.0
C245 C 0.59672 0.46919 0.77078 0.0
C246 C 0.61506 0.48843 0.76095 0.0
C247 C 0.61324 0.50973 0.75572 0.0
C248 C 0.59221 0.51084 0.75981 0.0
C249 C 0.57375 0.49141 0.7695 0.0
C250 C 0.543 0.4606 0.80862 0.0
C251 C 0.52125 0.44438 0.81699 0.0
C252 C 0.51421 0.45373 0.83351 0.0
C253 C 0.52874 0.4795 0.8418 0.0
C254 C 0.55025 0.4959 0.83323 0.0
C255 C 0.55757 0.48638 0.81697 0.0
P256 P 0.53745 0.05791 0.76218 0.0
H257 H 0.49603 0.04519 0.73257 0.0
H258 H 0.47159 0.0653 0.72648 0.0
H259 H 0.5182 0.12715 0.77307 0.0
H260 H 0.54075 0.10521 0.78041 0.0
H261 H 0.57057 0.04108 0.74816 0.0
H262 H 0.61068 0.06376 0.73508 0.0
H263 H 0.61191 0.1359 0.74633 0.0
H264 H 0.57201 0.11328 0.75908 0.0
H265 H 0.50106 0.04756 0.7906 0.0
H266 H 0.57336 0.05723 0.7918 0.0
O267 O 0.52288 0.02854 0.74951 0.0
H268 H 0.49958 0.03941 0.826 0.0
H269 H 0.57166 0.04808 0.82715 0.0
C270 C 0.52044 0.07389 0.75675 0.0
C271 C 0.50093 0.06305 0.7415 0.0
C272 C 0.48708 0.07485 0.73788 0.0
C273 C 0.49285 0.09817 0.74912 0.0
C274 C 0.51273 0.10905 0.76428 0.0
C275 C 0.52603 0.09677 0.76828 0.0
C276 C 0.56791 0.0753 0.75419 0.0
C277 C 0.57951 0.06179 0.74785 0.0
C278 C 0.60252 0.0748 0.74052 0.0
C279 C 0.61433 0.10159 0.73945 0.0
C280 C 0.60306 0.11518 0.74659 0.0
C281 C 0.58014 0.10218 0.75398 0.0
C282 C 0.53758 0.05368 0.78869 0.0
C283 C 0.51675 0.04816 0.79854 0.0
C284 C 0.51578 0.04314 0.81876 0.0
C285 C 0.53548 0.04302 0.82946 0.0
C286 C 0.55633 0.04843 0.81947 0.0
C287 C 0.55732 0.05361 0.79922 0.0
P288 P 0.80275 0.62413 0.91004 0.0
H289 H 0.78135 0.61245 0.94824 0.0
H290 H 0.73918 0.5925 0.95703 0.0
H291 H 0.71307 0.57403 0.89346 0.0
H292 H 0.75539 0.5946 0.88485 0.0
H293 H 0.85173 0.64304 0.93001 0.0
H294 H 0.87518 0.62209 0.93808 0.0
H295 H 0.81512 0.54928 0.91026 0.0
H296 H 0.79153 0.57047 0.90232 0.0
H297 H 0.79598 0.6626 0.89112 0.0
H298 H 0.81331 0.60417 0.87234 0.0
O299 O 0.8154 0.65173 0.92517 0.0
H300 H 0.80155 0.67724 0.85735 0.0
H301 H 0.81908 0.61886 0.83847 0.0
C302 C 0.7715 0.60542 0.91592 0.0
C303 C 0.76651 0.60382 0.93621 0.0
C304 C 0.74234 0.59224 0.94121 0.0
C305 C 0.72266 0.58191 0.92596 0.0
C306 C 0.72778 0.58228 0.9056 0.0
C307 C 0.75199 0.59393 0.90063 0.0
C308 C 0.81976 0.60823 0.91579 0.0
C309 C 0.84347 0.62253 0.92577 0.0
C310 C 0.85686 0.61052 0.93045 0.0
C311 C 0.84694 0.584 0.92495 0.0
C312 C 0.82327 0.56976 0.91465 0.0
C313 C 0.80975 0.58179 0.91017 0.0
C314 C 0.80474 0.63268 0.88439 0.0
C315 C 0.80093 0.65286 0.8797 0.0
C316 C 0.80417 0.66126 0.8604 0.0
C317 C 0.81109 0.64945 0.84529 0.0
C318 C 0.81372 0.62833 0.84975 0.0
C319 C 0.81057 0.62002 0.86917 0.0
P320 P 0.44642 0.21395 0.89247 0.0
H321 H 0.46646 0.26823 0.88652 0.0
H322 H 0.4666 0.30402 0.906 0.0
H323 H 0.42524 0.25272 0.94969 0.0
H324 H 0.42456 0.21683 0.92969 0.0
H325 H 0.42894 0.15824 0.88744 0.0
H326 H 0.43925 0.1313 0.90722 0.0
H327 H 0.48113 0.19606 0.95259 0.0
H328 H 0.47165 0.2229 0.9325 0.0
H329 H 0.43935 0.19088 0.851 0.0
H330 H 0.3957 0.20309 0.89296 0.0
O331 O 0.47155 0.2267 0.8802 0.0
H332 H 0.40703 0.17829 0.82364 0.0
H333 H 0.36312 0.19027 0.86567 0.0
C334 C 0.44609 0.24007 0.90697 0.0
C335 C 0.45751 0.26472 0.90033 0.0
C336 C 0.45765 0.2852 0.91155 0.0
C337 C 0.44622 0.28136 0.92959 0.0
C338 C 0.43414 0.25637 0.93585 0.0
C339 C 0.43394 0.23587 0.92455 0.0
C340 C 0.44904 0.19243 0.90871 0.0
C341 C 0.43985 0.16641 0.90188 0.0
C342 C 0.44573 0.15103 0.91322 0.0
C343 C 0.46115 0.16158 0.93143 0.0
C344 C 0.46949 0.1874 0.93851 0.0
C345 C 0.46377 0.20272 0.92714 0.0
C346 C 0.42019 0.19856 0.87388 0.0
C347 C 0.42257 0.1903 0.85442 0.0
C348 C 0.40396 0.18292 0.8388 0.0
C349 C 0.38263 0.18365 0.84242 0.0
C350 C 0.37953 0.18996 0.86234 0.0
C351 C 0.39814 0.19725 0.87797 0.0
P352 P 0.81593 0.18187 0.91854 0.0
H353 H 0.80728 0.20993 0.95199 0.0
H354 H 0.82688 0.25586 0.96385 0.0
H355 H 0.87448 0.27415 0.91595 0.0
H356 H 0.85452 0.22842 0.90381 0.0
H357 H 0.79281 0.13132 0.93354 0.0
H358 H 0.75211 0.10322 0.9437 0.0
H359 H 0.73143 0.1596 0.93059 0.0
H360 H 0.7726 0.18795 0.92064 0.0
H361 H 0.85138 0.18227 0.89206 0.0
H362 H 0.77887 0.17201 0.88522 0.0
O363 O 0.83479 0.17305 0.92902 0.0
H364 H 0.85217 0.1801 0.85541 0.0
H365 H 0.77896 0.16855 0.84858 0.0
C366 C 0.82876 0.21571 0.92652 0.0
C367 C 0.82147 0.22381 0.94369 0.0
C368 C 0.83277 0.25005 0.95055 0.0
C369 C 0.85208 0.26851 0.94073 0.0
C370 C 0.85963 0.2603 0.92378 0.0
C371 C 0.84806 0.23415 0.91674 0.0
C372 C 0.78589 0.16191 0.92665 0.0
C373 C 0.77965 0.1378 0.93301 0.0
C374 C 0.75626 0.12165 0.93869 0.0
C375 C 0.73848 0.12915 0.93793 0.0
C376 C 0.7448 0.15341 0.93159 0.0
C377 C 0.76828 0.16958 0.92585 0.0
C378 C 0.81498 0.17705 0.89141 0.0
C379 C 0.83539 0.17897 0.88265 0.0
C380 C 0.83576 0.17758 0.86163 0.0
C381 C 0.81564 0.17417 0.84892 0.0
C382 C 0.79496 0.17162 0.85784 0.0
C383 C 0.79476 0.17332 0.87886 0.0
P384 P 0.62019 0.82012 0.09129 0.0
H385 H 0.63741 0.78927 0.06938 0.0
H386 H 0.62021 0.74276 0.06244 0.0
H387 H 0.55629 0.72961 0.09192 0.0
H388 H 0.57423 0.77606 0.09961 0.0
H389 H 0.62345 0.87004 0.09747 0.0
H390 H 0.59803 0.88697 0.08429 0.0
H391 H 0.54895 0.81301 0.05067 0.0
H392 H 0.57449 0.79631 0.06362 0.0
H393 H 0.65824 0.82199 0.119 0.0
H394 H 0.59374 0.82837 0.12329 0.0
O395 O 0.64684 0.83603 0.08138 0.0
H396 H 0.6656 0.8275 0.15597 0.0
H397 H 0.60114 0.83416 0.16021 0.0
C398 C 0.60693 0.78602 0.08483 0.0
C399 C 0.61965 0.77634 0.07427 0.0
C400 C 0.60972 0.74971 0.07021 0.0
C401 C 0.58686 0.73236 0.07664 0.0
C402 C 0.57413 0.74232 0.08706 0.0
C403 C 0.58421 0.76889 0.0913 0.0
C404 C 0.60066 0.83179 0.08189 0.0
C405 C 0.60713 0.85744 0.08736 0.0
C406 C 0.59266 0.8671 0.07976 0.0
C407 C 0.57143 0.85124 0.06654 0.0
C408 C 0.56498 0.82553 0.0611 0.0
C409 C 0.57961 0.81597 0.06854 0.0
C410 C 0.6259 0.82557 0.11842 0.0
C411 C 0.64583 0.82487 0.12791 0.0
C412 C 0.64988 0.82777 0.14901 0.0
C413 C 0.63402 0.83143 0.16096 0.0
C414 C 0.61387 0.83179 0.15137 0.0
C415 C 0.60969 0.82858 0.13027 0.0
P416 P 0.22986 0.78984 0.12014 0.0
H417 H 0.21919 0.76122 0.08012 0.0
H418 H 0.18301 0.72137 0.06442 0.0
H419 H 0.14319 0.72202 0.11479 0.0
H420 H 0.17891 0.76184 0.13022 0.0
H421 H 0.2822 0.82595 0.12517 0.0
H422 H 0.31068 0.8547 0.10279 0.0
H423 H 0.24972 0.83712 0.05945 0.0
H424 H 0.22128 0.80819 0.082 0.0
H425 H 0.22812 0.77855 0.16211 0.0
H426 H 0.21639 0.82981 0.12681 0.0
O427 O 0.24498 0.77529 0.12783 0.0
H428 H 0.2161 0.79351 0.19181 0.0
H429 H 0.20383 0.84473 0.15663 0.0
C430 C 0.20175 0.76484 0.10621 0.0
C431 C 0.20237 0.75336 0.08739 0.0
C432 C 0.18172 0.73062 0.07842 0.0
C433 C 0.16037 0.71874 0.08841 0.0
C434 C 0.15943 0.73091 0.10676 0.0
C435 C 0.17992 0.75374 0.11557 0.0
C436 C 0.24972 0.81444 0.105 0.0
C437 C 0.27494 0.82857 0.11097 0.0
C438 C 0.29121 0.84514 0.0982 0.0
C439 C 0.28252 0.84796 0.07918 0.0
C440 C 0.25703 0.83498 0.07382 0.0
C441 C 0.24074 0.81847 0.08671 0.0
C442 C 0.22357 0.80341 0.14234 0.0
C443 C 0.22325 0.79331 0.16081 0.0
C444 C 0.21609 0.80168 0.17777 0.0
C445 C 0.20884 0.82021 0.17659 0.0
C446 C 0.20953 0.83062 0.15809 0.0
C447 C 0.21669 0.82214 0.14105 0.0
P448 P 0.19308 0.36851 0.0994 0.0
H449 H 0.15917 0.36073 0.0644 0.0
H450 H 0.13795 0.38354 0.0545 0.0
H451 H 0.17008 0.43542 0.10931 0.0
H452 H 0.19069 0.4119 0.11956 0.0
H453 H 0.22873 0.35361 0.08892 0.0
H454 H 0.27018 0.37777 0.07858 0.0
H455 H 0.26913 0.4487 0.08978 0.0
H456 H 0.22768 0.42445 0.09975 0.0
H457 H 0.14976 0.33778 0.11937 0.0
H458 H 0.22779 0.38133 0.13579 0.0
O459 O 0.1806 0.34057 0.08475 0.0
H460 H 0.14341 0.32271 0.15295 0.0
H461 H 0.22157 0.36613 0.16951 0.0
C462 C 0.17651 0.38462 0.09274 0.0
C463 C 0.16142 0.37677 0.07446 0.0
C464 C 0.14924 0.38976 0.06882 0.0
C465 C 0.15238 0.41119 0.08115 0.0
C466 C 0.16742 0.41897 0.09952 0.0
C467 C 0.17917 0.40558 0.10537 0.0
C468 C 0.2248 0.38709 0.09456 0.0
C469 C 0.2375 0.37439 0.08928 0.0
C470 C 0.2613 0.38826 0.08353 0.0
C471 C 0.27284 0.41514 0.08307 0.0
C472 C 0.26055 0.42794 0.08955 0.0
C473 C 0.23678 0.41405 0.0953 0.0
C474 C 0.18919 0.36056 0.12507 0.0
C475 C 0.16551 0.34426 0.13029 0.0
C476 C 0.16194 0.33551 0.14943 0.0
C477 C 0.18202 0.34294 0.16379 0.0
C478 C 0.20575 0.3601 0.15877 0.0
C479 C 0.20932 0.36876 0.13949 0.0
P480 P 0.4645 0.95862 0.24189 0.0
H481 H 0.44153 0.96521 0.2768 0.0
H482 H 0.39907 0.94513 0.28475 0.0
H483 H 0.37607 0.8953 0.22869 0.0
H484 H 0.41843 0.91604 0.2206 0.0
H485 H 0.51476 0.97704 0.25816 0.0
H486 H 0.53679 0.95495 0.26758 0.0
H487 H 0.4705 0.88137 0.25214 0.0
H488 H 0.44852 0.90364 0.24278 0.0
H489 H 0.47692 0.00182 0.21768 0.0
H490 H 0.45641 0.92173 0.20717 0.0
O491 O 0.47896 0.98824 0.25416 0.0
H492 H 0.48007 0.00596 0.18145 0.0
H493 H 0.45897 0.92568 0.17089 0.0
C494 C 0.43314 0.94259 0.24789 0.0
C495 C 0.42733 0.95002 0.26618 0.0
C496 C 0.40302 0.93832 0.27081 0.0
C497 C 0.38405 0.91869 0.25729 0.0
C498 C 0.39011 0.91072 0.23925 0.0
C499 C 0.41443 0.92254 0.23462 0.0
C500 C 0.47991 0.942 0.25011 0.0
C501 C 0.50486 0.95617 0.25707 0.0
C502 C 0.51744 0.94352 0.26248 0.0
C503 C 0.50534 0.91643 0.26069 0.0
C504 C 0.48032 0.90227 0.2536 0.0
C505 C 0.4677 0.91497 0.24837 0.0
C506 C 0.46651 0.96148 0.21516 0.0
C507 C 0.47309 0.98512 0.20762 0.0
C508 C 0.47493 0.98751 0.18693 0.0
C509 C 0.46976 0.96614 0.17341 0.0
C510 C 0.4629 0.94241 0.18098 0.0
C511 C 0.46147 0.94016 0.20171 0.0
P512 P 0.12682 0.56148 0.2271 0.0
H513 H 0.14074 0.57749 0.27052 0.0
H514 H 0.13874 0.61009 0.29298 0.0
H515 H 0.09964 0.62308 0.24429 0.0
H516 H 0.10116 0.59024 0.22208 0.0
H517 H 0.15668 0.53856 0.21911 0.0
H518 H 0.15899 0.50284 0.23218 0.0
H519 H 0.10359 0.4919 0.27196 0.0
H520 H 0.10154 0.52814 0.25881 0.0
H521 H 0.12169 0.5822 0.18997 0.0
H522 H 0.08217 0.51061 0.21662 0.0
O523 O 0.15384 0.58132 0.21896 0.0
H524 H 0.09237 0.56366 0.15979 0.0
H525 H 0.05295 0.49182 0.18628 0.0
C526 C 0.12059 0.58092 0.24473 0.0
C527 C 0.13097 0.58667 0.26487 0.0
C528 C 0.12992 0.60537 0.27768 0.0
C529 C 0.11906 0.61907 0.27031 0.0
C530 C 0.10816 0.61281 0.2503 0.0
C531 C 0.10891 0.59389 0.23763 0.0
C532 C 0.12933 0.53632 0.23829 0.0
C533 C 0.14525 0.52874 0.23083 0.0
C534 C 0.14639 0.50814 0.2382 0.0
C535 C 0.13139 0.49448 0.25304 0.0
C536 C 0.11554 0.50225 0.26067 0.0
C537 C 0.11436 0.52291 0.25319 0.0
C538 C 0.10432 0.54771 0.20542 0.0
C539 C 0.10667 0.56251 0.18934 0.0
C540 C 0.08983 0.55195 0.17217 0.0
C541 C 0.07041 0.52629 0.1707 0.0
C542 C 0.06787 0.51159 0.18697 0.0
C543 C 0.08457 0.52232 0.2043 0.0
P544 P 0.48159 0.5146 0.25285 0.0
H545 H 0.52595 0.55001 0.2794 0.0
H546 H 0.54719 0.59613 0.28891 0.0
H547 H 0.48957 0.60064 0.25466 0.0
H548 H 0.47002 0.55489 0.24341 0.0
H549 H 0.45692 0.46299 0.2658 0.0
H550 H 0.41567 0.43489 0.27499 0.0
H551 H 0.39877 0.49536 0.26822 0.0
H552 H 0.44004 0.52345 0.25905 0.0
H553 H 0.50099 0.54741 0.21931 0.0
H554 H 0.45785 0.46632 0.22671 0.0
O555 O 0.49964 0.50422 0.26239 0.0
H556 H 0.50148 0.53672 0.18334 0.0
H557 H 0.45865 0.45565 0.1909 0.0
C558 C 0.49606 0.54873 0.26095 0.0
C559 C 0.51785 0.56088 0.27389 0.0
C560 C 0.52993 0.58745 0.27956 0.0
C561 C 0.52023 0.60254 0.27276 0.0
C562 C 0.49804 0.59006 0.26003 0.0
C563 C 0.48638 0.56359 0.25392 0.0
C564 C 0.45187 0.49555 0.26189 0.0
C565 C 0.44452 0.47042 0.26653 0.0
C566 C 0.42083 0.45425 0.27164 0.0
C567 C 0.40394 0.46289 0.27225 0.0
C568 C 0.41146 0.48826 0.26805 0.0
C569 C 0.43515 0.50437 0.26274 0.0
C570 C 0.47896 0.50768 0.22575 0.0
C571 C 0.49107 0.52736 0.2132 0.0
C572 C 0.49138 0.52125 0.1926 0.0
C573 C 0.48009 0.49536 0.18435 0.0
C574 C 0.46754 0.47576 0.19687 0.0
C575 C 0.46697 0.48188 0.21734 0.0
Tb576 Tb 0.53091 0.01244 1.00016 0.0
C577 C 0.50694 0.9546 0.00972 0.0
Tb578 Tb 0.47313 0.97863 0.99903 0.0
O579 O 0.53669 0.0143 0.03331 0.0
O580 O 0.50327 0.00627 0.01906 0.0
O581 O 0.52626 0.97484 0.00381 0.0
C582 C 0.42706 0.95095 0.00828 0.0
O583 O 0.48516 0.95276 0.01029 0.0
C584 C 0.49061 0.98602 0.96369 0.0
C585 C 0.49747 0.03688 0.99006 0.0
O586 O 0.43682 0.94386 0.99446 0.0
O587 O 0.44315 0.9738 0.01678 0.0
O588 O 0.46804 0.97924 0.96619 0.0
O589 O 0.50076 0.98483 0.9801 0.0
O590 O 0.47771 0.01668 0.9958 0.0
O591 O 0.51894 0.03807 0.98893 0.0
C592 C 0.57589 0.0333 0.9879 0.0
O593 O 0.56774 0.04601 0.99833 0.0
O594 O 0.55879 0.0093 0.98456 0.0
C595 C 0.51379 0.00626 0.03567 0.0
Tb596 Tb 0.98499 0.51168 0.99977 0.0
C597 C 0.03639 0.54756 0.02217 0.0
Tb598 Tb 0.0192 0.48948 0.00692 0.0
O599 O 0.98072 0.51518 0.03215 0.0
O600 O 0.98879 0.4879 0.01989 0.0
O601 O 0.01985 0.54718 0.00876 0.0
C602 C 0.05187 0.47771 0.02231 0.0
O603 O 0.0367 0.52628 0.02587 0.0
C604 C 0.01588 0.50245 0.9705 0.0
C605 C 0.96485 0.45085 0.98933 0.0
O606 O 0.0568 0.49735 0.01238 0.0
O607 O 0.02838 0.46436 0.0234 0.0
O608 O 0.0208 0.48451 0.97424 0.0
O609 O 0.01561 0.51374 0.98695 0.0
O610 O 0.98563 0.45321 0.99741 0.0
O611 O 0.96121 0.47076 0.98837 0.0
C612 C 0.95599 0.52493 0.97941 0.0
O613 O 0.96518 0.51165 0.97182 0.0
O614 O 0.9632 0.53094 0.99863 0.0
C615 C 0.987 0.49826 0.03622 0.0
Tb616 Tb 0.47518 0.4937 0.01419 0.0
C617 C 0.48397 0.44777 0.99935 0.0
Tb618 Tb 0.52762 0.50566 0.00728 0.0
O619 O 0.47361 0.5105 0.98582 0.0
O620 O 0.4946 0.49347 0.98969 0.0
O621 O 0.46918 0.45456 0.00793 0.0
C622 C 0.56776 0.52392 0.98752 0.0
O623 O 0.50657 0.46498 0.99552 0.0
C624 C 0.51367 0.49106 0.04273 0.0
C625 C 0.51908 0.55042 0.02614 0.0
O626 O 0.56431 0.51132 0.0034 0.0
O627 O 0.54889 0.52637 0.98317 0.0
O628 O 0.53083 0.48865 0.03464 0.0
O629 O 0.50796 0.50427 0.0322 0.0
O630 O 0.53389 0.54463 0.0165 0.0
O631 O 0.4965 0.53265 0.02927 0.0
C632 C 0.43132 0.47997 0.02672 0.0
O633 O 0.44125 0.49479 0.01261 0.0
O634 O 0.446 0.47243 0.03376 0.0
C635 C 0.48969 0.50613 0.97809 0.0
Tb636 Tb 0.19628 0.35163 0.33358 0.0
C637 C 0.17789 0.29704 0.3508 0.0
Tb638 Tb 0.14151 0.317 0.33951 0.0
O639 O 0.20191 0.37659 0.36151 0.0
O640 O 0.17486 0.33809 0.35782 0.0
O641 O 0.19549 0.3164 0.34222 0.0
C642 C 0.09944 0.29824 0.35632 0.0
O643 O 0.1564 0.29521 0.35319 0.0
C644 C 0.15467 0.30901 0.30425 0.0
C645 C 0.15919 0.37042 0.32112 0.0
O646 O 0.10324 0.28709 0.34072 0.0
O647 O 0.11914 0.32015 0.3621 0.0
O648 O 0.13559 0.29155 0.31201 0.0
O649 O 0.163 0.32995 0.31514 0.0
O650 O 0.14196 0.35186 0.33053 0.0
O651 O 0.18044 0.37179 0.31832 0.0
C652 C 0.23922 0.36948 0.31815 0.0
O653 O 0.23419 0.38231 0.33161 0.0
O654 O 0.22022 0.34664 0.31365 0.0
C655 C 0.18298 0.35866 0.36907 0.0
Tb656 Tb 0.64467 0.84558 0.33402 0.0
C657 C 0.69998 0.88596 0.3478 0.0
Tb658 Tb 0.67998 0.82522 0.34371 0.0
O659 O 0.64153 0.853 0.36591 0.0
O660 O 0.65058 0.82575 0.35691 0.0
O661 O 0.67974 0.8819 0.33711 0.0
C662 C 0.7113 0.81484 0.36363 0.0
O663 O 0.70301 0.86669 0.35311 0.0
C664 C 0.6745 0.83331 0.30596 0.0
C665 C 0.62608 0.78513 0.32686 0.0
O666 O 0.70711 0.8126 0.34409 0.0
O667 O 0.69762 0.8225 0.37185 0.0
O668 O 0.68031 0.81639 0.31108 0.0
O669 O 0.67462 0.84603 0.32164 0.0
O670 O 0.64579 0.78829 0.33777 0.0
O671 O 0.62281 0.80466 0.32295 0.0
C672 C 0.61352 0.85616 0.314 0.0
O673 O 0.61975 0.83971 0.30752 0.0
O674 O 0.62484 0.86675 0.33183 0.0
C675 C 0.64964 0.83845 0.37234 0.0
Tb676 Tb 0.13332 0.82733 0.34147 0.0
C677 C 0.14836 0.78669 0.32917 0.0
Tb678 Tb 0.18747 0.84731 0.33387 0.0
O679 O 0.12257 0.81824 0.30861 0.0
O680 O 0.15717 0.8482 0.32017 0.0
O681 O 0.13331 0.79109 0.3396 0.0
C682 C 0.22598 0.8588 0.31313 0.0
O683 O 0.16922 0.80568 0.3237 0.0
C684 C 0.17696 0.84002 0.37126 0.0
C685 C 0.17293 0.88816 0.34817 0.0
O686 O 0.22554 0.85628 0.33241 0.0
O687 O 0.20494 0.85498 0.30578 0.0
O688 O 0.19867 0.85677 0.36664 0.0
O689 O 0.16375 0.82701 0.35538 0.0
O690 O 0.18989 0.88444 0.34026 0.0
O691 O 0.15045 0.86899 0.35032 0.0
C692 C 0.09429 0.81728 0.36115 0.0
O693 O 0.11698 0.83141 0.36849 0.0
O694 O 0.09341 0.80889 0.34246 0.0
C695 C 0.14413 0.83549 0.30419 0.0
Tb696 Tb 0.85656 0.68448 0.66823 0.0
C697 C 0.84206 0.62851 0.68134 0.0
Tb698 Tb 0.80352 0.64669 0.6763 0.0
O699 O 0.86349 0.7071 0.69755 0.0
O700 O 0.83785 0.66783 0.6934 0.0
O701 O 0.85821 0.64927 0.67303 0.0
C702 C 0.76184 0.62463 0.69381 0.0
O703 O 0.82084 0.62548 0.68634 0.0
C704 C 0.81387 0.64371 0.63888 0.0
C705 C 0.81752 0.70254 0.6639 0.0
O706 O 0.7669 0.61392 0.67873 0.0
O707 O 0.78012 0.64779 0.69888 0.0
O708 O 0.79635 0.62452 0.64669 0.0
O709 O 0.82217 0.66349 0.65119 0.0
O710 O 0.80176 0.6816 0.67214 0.0
O711 O 0.83915 0.70636 0.65904 0.0
C712 C 0.89735 0.70521 0.6493 0.0
O713 O 0.89477 0.71478 0.66643 0.0
O714 O 0.87713 0.68403 0.64307 0.0
C715 C 0.84611 0.68785 0.70549 0.0
Tb716 Tb 0.30462 0.1711 0.66674 0.0
C717 C 0.35764 0.2175 0.68046 0.0
Tb718 Tb 0.34395 0.15869 0.68099 0.0
O719 O 0.30433 0.18677 0.69714 0.0
O720 O 0.31341 0.15795 0.69314 0.0
O721 O 0.33581 0.21033 0.67106 0.0
C722 C 0.37956 0.15406 0.70011 0.0
O723 O 0.36414 0.20076 0.68599 0.0
C724 C 0.3347 0.15549 0.6417 0.0
C725 C 0.29148 0.1132 0.66887 0.0
O726 O 0.37087 0.14604 0.68138 0.0
O727 O 0.36795 0.16443 0.70828 0.0
O728 O 0.34207 0.14163 0.6505 0.0
O729 O 0.33493 0.17165 0.65475 0.0
O730 O 0.31104 0.12157 0.68208 0.0
O731 O 0.28737 0.12924 0.65873 0.0
C732 C 0.27064 0.17588 0.64505 0.0
O733 O 0.2669 0.16277 0.66056 0.0
O734 O 0.29351 0.18633 0.64175 0.0
C735 C 0.31268 0.17372 0.70606 0.0
Tb736 Tb 0.81652 0.17573 0.67266 0.0
C737 C 0.82028 0.12512 0.66344 0.0
Tb738 Tb 0.86718 0.18046 0.67054 0.0
O739 O 0.81615 0.18688 0.64189 0.0
O740 O 0.83597 0.16951 0.65036 0.0
O741 O 0.807 0.13481 0.67067 0.0
C742 C 0.90987 0.19022 0.65754 0.0
O743 O 0.84321 0.14008 0.65928 0.0
C744 C 0.85125 0.1765 0.70668 0.0
C745 C 0.86352 0.23128 0.67701 0.0
O746 O 0.89811 0.17365 0.6702 0.0
O747 O 0.8978 0.20152 0.6525 0.0
O748 O 0.86725 0.17005 0.70194 0.0
O749 O 0.84795 0.1874 0.69248 0.0
O750 O 0.87637 0.2207 0.67064 0.0
O751 O 0.84063 0.21715 0.68179 0.0
C752 C 0.77351 0.16587 0.68491 0.0
O753 O 0.78383 0.1794 0.6702 0.0
O754 O 0.78738 0.15781 0.69272 0.0
C755 C 0.83236 0.18099 0.63667 0.0
H756 H 0.32604 0.89441 0.08638 0.0
H757 H 0.27918 0.83392 0.03877 0.0
H758 H 0.30999 0.85539 0.01486 0.0
H759 H 0.3509 0.94773 0.05413 0.0
H760 H 0.38104 0.96336 0.06762 0.0
H761 H 0.35445 0.94439 0.08064 0.0
H762 H 0.37298 0.91675 0.09194 0.0
H763 H 0.39954 0.93557 0.07891 0.0
H764 H 0.3819 0.90103 0.07311 0.0
H765 H 0.34756 0.88059 0.99711 0.0
H766 H 0.3884 0.90972 0.98615 0.0
H767 H 0.41049 0.95477 0.0447 0.0
C768 C 0.32214 0.88584 0.07086 0.0
C769 C 0.30007 0.86253 0.06444 0.0
C770 C 0.2957 0.85198 0.04398 0.0
C771 C 0.31318 0.86395 0.0303 0.0
C772 C 0.33489 0.8866 0.03722 0.0
C773 C 0.33935 0.89762 0.05696 0.0
C774 C 0.36456 0.92162 0.06068 0.0
C775 C 0.36261 0.9457 0.06608 0.0
C776 C 0.38069 0.91854 0.07713 0.0
C777 C 0.37373 0.92204 0.04006 0.0
C778 C 0.35633 0.90162 0.02676 0.0
C779 C 0.36116 0.89692 0.00725 0.0
C780 C 0.38437 0.91348 1.00118 0.0
C781 C 0.40232 0.93462 0.01448 0.0
C782 C 0.39684 0.93906 0.03409 0.0
H783 H 0.10402 0.39299 0.06856 0.0
H784 H 0.17517 0.46286 0.07805 0.0
H785 H 0.15701 0.48759 0.06442 0.0
H786 H 0.08316 0.40557 0.0224 0.0
H787 H 0.05194 0.3927 0.02825 0.0
H788 H 0.07034 0.38059 0.03918 0.0
H789 H 0.06206 0.39153 0.07511 0.0
H790 H 0.0435 0.40355 0.06428 0.0
H791 H 0.06897 0.42391 0.08283 0.0
H792 H 0.13183 0.50388 0.04737 0.0
H793 H 0.10048 0.51174 0.03109 0.0
H794 H 0.04491 0.43203 0.03478 0.0
C795 C 0.11567 0.41353 0.06787 0.0
C796 C 0.14098 0.4261 0.0743 0.0
C797 C 0.15571 0.45299 0.07331 0.0
C798 C 0.14558 0.46712 0.06553 0.0
C799 C 0.12061 0.45413 0.05911 0.0
C800 C 0.10575 0.42803 0.06049 0.0
C801 C 0.07942 0.41884 0.05274 0.0
C802 C 0.07071 0.39821 0.03456 0.0
C803 C 0.06249 0.40887 0.06976 0.0
C804 C 0.08189 0.44374 0.04643 0.0
C805 C 0.10586 0.46381 0.0501 0.0
C806 C 0.11295 0.48841 0.04467 0.0
C807 C 0.09506 0.49266 0.03536 0.0
C808 C 0.07034 0.47253 0.03183 0.0
C809 C 0.06367 0.4478 0.03752 0.0
H810 H 0.58885 0.7045 0.04289 0.0
H811 H 0.56155 0.69589 0.10212 0.0
H812 H 0.54252 0.6488 0.09565 0.0
H813 H 0.53762 0.64943 0.01652 0.0
H814 H 0.55514 0.64039 1.00102 0.0
H815 H 0.56729 0.6737 0.01029 0.0
H816 H 0.60628 0.67563 0.02671 0.0
H817 H 0.59429 0.64232 0.01742 0.0
H818 H 0.60328 0.65257 0.04405 0.0
H819 H 0.52418 0.60312 0.08227 0.0
H820 H 0.50933 0.56072 0.06332 0.0
H821 H 0.55079 0.59793 0.01364 0.0
C822 C 0.57921 0.69277 0.05465 0.0
C823 C 0.57648 0.704 0.07294 0.0
C824 C 0.56343 0.68783 0.08779 0.0
C825 C 0.55273 0.66103 0.08435 0.0
C826 C 0.55552 0.65065 0.06611 0.0
C827 C 0.56864 0.66593 0.05157 0.0
C828 C 0.56857 0.64962 0.03319 0.0
C829 C 0.55643 0.65352 0.01413 0.0
C830 C 0.59466 0.65538 0.03017 0.0
C831 C 0.55301 0.62278 0.03959 0.0
C832 C 0.54565 0.62396 0.05863 0.0
C833 C 0.53005 0.60191 0.06747 0.0
C834 C 0.52163 0.57795 0.05656 0.0
C835 C 0.52904 0.57617 0.03712 0.0
C836 C 0.54517 0.59885 0.0286 0.0
H837 H 0.90141 0.3016 0.94882 0.0
H838 H 0.83125 0.29769 0.94997 0.0
H839 H 0.85249 0.3442 0.96217 0.0
H840 H 0.93 0.34492 0.99434 0.0
H841 H 0.95968 0.36202 0.98501 0.0
H842 H 0.93893 0.32867 0.97597 0.0
H843 H 0.9419 0.34055 0.93904 0.0
H844 H 0.96264 0.37395 0.94798 0.0
H845 H 0.93498 0.3649 0.93217 0.0
H846 H 0.88156 0.3914 0.9731 0.0
H847 H 0.91606 0.43515 0.98447 0.0
H848 H 0.96716 0.40762 0.97772 0.0
C849 C 0.89056 0.31062 0.95155 0.0
C850 C 0.86473 0.29621 0.94836 0.0
C851 C 0.85107 0.30846 0.9524 0.0
C852 C 0.86296 0.33483 0.95923 0.0
C853 C 0.88849 0.34853 0.96215 0.0
C854 C 0.90212 0.33679 0.95863 0.0
C855 C 0.92928 0.35566 0.96351 0.0
C856 C 0.9401 0.34731 0.98073 0.0
C857 C 0.943 0.35895 0.94454 0.0
C858 C 0.92883 0.3799 0.97025 0.0
C859 C 0.90515 0.37545 0.96917 0.0
C860 C 0.90017 0.39508 0.97413 0.0
C861 C 0.9199 0.41988 0.98051 0.0
C862 C 0.94428 0.42476 0.9821 0.0
C863 C 0.94871 0.40443 0.97687 0.0
H864 H 0.6998 0.55396 0.95756 0.0
H865 H 0.68801 0.5898 0.90678 0.0
H866 H 0.64691 0.57747 0.91653 0.0
H867 H 0.63673 0.50028 0.95562 0.0
H868 H 0.63703 0.50089 0.98275 0.0
H869 H 0.66504 0.51104 0.97109 0.0
H870 H 0.68531 0.55498 0.99314 0.0
H871 H 0.65734 0.54503 0.00478 0.0
H872 H 0.67097 0.57438 0.9926 0.0
H873 H 0.60824 0.56372 0.9326 0.0
H874 H 0.57357 0.54799 0.9535 0.0
H875 H 0.60978 0.52109 0.99429 0.0
C876 C 0.68855 0.55912 0.94843 0.0
C877 C 0.69719 0.57271 0.93126 0.0
C878 C 0.68173 0.57895 0.91972 0.0
C879 C 0.65838 0.5722 0.92522 0.0
C880 C 0.6506 0.55914 0.94232 0.0
C881 C 0.6651 0.5525 0.95371 0.0
C882 C 0.65244 0.53897 0.97168 0.0
C883 C 0.64752 0.51114 0.97019 0.0
C884 C 0.66741 0.55426 0.99173 0.0
C885 C 0.62875 0.53946 0.96877 0.0
C886 C 0.62812 0.55114 0.95168 0.0
C887 C 0.60847 0.55443 0.94596 0.0
C888 C 0.5889 0.5455 0.95798 0.0
C889 C 0.58901 0.53335 0.9755 0.0
C890 C 0.60921 0.53027 0.98095 0.0
H891 H 0.43561 0.1103 0.93895 0.0
H892 H 0.50785 0.17904 0.94772 0.0
H893 H 0.52404 0.15505 0.96518 0.0
H894 H 0.43903 0.08589 0.98695 0.0
H895 H 0.4233 0.05259 0.97645 0.0
H896 H 0.41681 0.07528 0.9652 0.0
H897 H 0.42724 0.06334 0.93051 0.0
H898 H 0.43366 0.04056 0.94165 0.0
H899 H 0.45656 0.06567 0.92859 0.0
H900 H 0.53318 0.12376 0.98003 0.0
H901 H 0.53468 0.08657 0.99191 0.0
H902 H 0.45668 0.03756 0.97427 0.0
C903 C 0.45481 0.12028 0.94459 0.0
C904 C 0.47037 0.14669 0.94218 0.0
C905 C 0.49541 0.15903 0.94977 0.0
C906 C 0.50485 0.14552 0.95962 0.0
C907 C 0.48906 0.11963 0.9618 0.0
C908 C 0.46458 0.10706 0.95456 0.0
C909 C 0.45184 0.07891 0.95858 0.0
C910 C 0.43155 0.07282 0.97264 0.0
C911 C 0.44174 0.06107 0.93865 0.0
C912 C 0.47306 0.07768 0.96908 0.0
C913 C 0.49433 0.10144 0.97071 0.0
C914 C 0.51662 0.10509 0.97901 0.0
C915 C 0.51729 0.08383 0.98567 0.0
C916 C 0.49578 0.05925 0.98416 0.0
C917 C 0.47332 0.05623 0.97594 0.0
H918 H 0.70891 0.1402 0.96062 0.0
H919 H 0.711 0.07739 0.92674 0.0
H920 H 0.67005 0.04671 0.93618 0.0
H921 H 0.67838 0.10511 0.00155 0.0
H922 H 0.65974 0.11976 0.00428 0.0
H923 H 0.68915 0.13729 0.99462 0.0
H924 H 0.66872 0.14379 0.96249 0.0
H925 H 0.63926 0.12642 0.97211 0.0
H926 H 0.64383 0.11608 0.94755 0.0
H927 H 0.62983 0.0227 0.9495 0.0
H928 H 0.59132 0.00633 0.9654 0.0
H929 H 0.61385 0.08411 0.99066 0.0
C930 C 0.70062 0.12003 0.95503 0.0
C931 C 0.71329 0.11116 0.94307 0.0
C932 C 0.70188 0.08458 0.9362 0.0
C933 C 0.67856 0.06701 0.94139 0.0
C934 C 0.66676 0.07628 0.95341 0.0
C935 C 0.67723 0.10212 0.9601 0.0
C936 C 0.66045 0.10674 0.973 0.0
C937 C 0.67266 0.11789 0.99465 0.0
C938 C 0.6526 0.1243 0.9632 0.0
C939 C 0.63901 0.0794 0.97257 0.0
C940 C 0.64316 0.06224 0.96114 0.0
C941 C 0.62631 0.03592 0.95846 0.0
C942 C 0.60451 0.02682 0.9676 0.0
C943 C 0.59965 0.04394 0.97929 0.0
C944 C 0.61716 0.07061 0.98185 0.0
H945 H 0.87368 0.58952 0.96072 0.0
H946 H 0.85333 0.55045 0.89986 0.0
H947 H 0.87902 0.53111 0.90723 0.0
H948 H 0.93612 0.60453 0.96479 0.0
H949 H 0.93682 0.59883 0.99102 0.0
H950 H 0.91656 0.60926 0.98107 0.0
H951 H 0.87952 0.56951 0.99325 0.0
H952 H 0.89968 0.55901 0.0033 0.0
H953 H 0.87384 0.53761 0.98539 0.0
H954 H 0.90832 0.5176 0.92077 0.0
H955 H 0.93703 0.5085 0.94019 0.0
H956 H 0.93748 0.55536 0.99263 0.0
C957 C 0.87466 0.57691 0.94894 0.0
C958 C 0.86154 0.57151 0.92968 0.0
C959 C 0.86305 0.55466 0.91475 0.0
C960 C 0.8777 0.54372 0.91877 0.0
C961 C 0.89056 0.54964 0.93785 0.0
C962 C 0.88901 0.56565 0.95276 0.0
C963 C 0.90449 0.56869 0.97206 0.0
C964 C 0.92469 0.59701 0.97755 0.0
C965 C 0.88842 0.55806 0.98953 0.0
C966 C 0.91515 0.55205 0.96565 0.0
C967 C 0.90697 0.54135 0.94581 0.0
C968 C 0.91469 0.52571 0.93635 0.0
C969 C 0.93101 0.52069 0.94749 0.0
C970 C 0.93931 0.53111 0.96791 0.0
C971 C 0.9313 0.54704 0.97706 0.0
H972 H 0.48508 0.33088 0.93733 0.0
H973 H 0.40959 0.28187 0.94964 0.0
H974 H 0.41146 0.31864 0.97007 0.0
H975 H 0.50711 0.36801 0.98591 0.0
H976 H 0.52711 0.39779 0.97571 0.0
H977 H 0.52004 0.36744 0.96254 0.0
H978 H 0.50433 0.37878 0.93008 0.0
H979 H 0.51189 0.40929 0.9432 0.0
H980 H 0.48121 0.3878 0.93153 0.0
H981 H 0.42143 0.36124 0.98862 0.0
H982 H 0.43844 0.40635 0.00319 0.0
H983 H 0.50705 0.4272 0.97795 0.0
C984 C 0.46884 0.32786 0.94417 0.0
C985 C 0.44718 0.30342 0.94188 0.0
C986 C 0.4265 0.30029 0.95139 0.0
C987 C 0.42734 0.32109 0.96295 0.0
C988 C 0.44898 0.3449 0.96484 0.0
C989 C 0.46933 0.34838 0.95566 0.0
C990 C 0.49024 0.37597 0.95976 0.0
C991 C 0.51243 0.37737 0.97169 0.0
C992 C 0.49731 0.3887 0.93996 0.0
C993 C 0.47842 0.38755 0.97255 0.0
C994 C 0.45467 0.36933 0.97541 0.0
C995 C 0.44004 0.37566 0.98652 0.0
C996 C 0.44988 0.40134 0.99476 0.0
C997 C 0.47411 0.42038 0.99179 0.0
C998 C 0.48852 0.41318 0.98065 0.0
H999 H 0.13258 0.69898 0.05128 0.0
H1000 H 0.14456 0.67807 0.11029 0.0
H1001 H 0.11374 0.6326 0.0996 0.0
H1002 H 0.06612 0.65398 0.04504 0.0
H1003 H 0.06503 0.64632 0.01825 0.0
H1004 H 0.08807 0.67754 0.03032 0.0
H1005 H 0.12201 0.67053 0.01658 0.0
H1006 H 0.09908 0.63929 0.0045 0.0
H1007 H 0.12332 0.64222 0.02196 0.0
H1008 H 0.08516 0.5899 0.08224 0.0
H1009 H 0.05498 0.55098 0.06042 0.0
H1010 H 0.05794 0.59824 0.01268 0.0
C1011 C 0.1285 0.68474 0.06189 0.0
C1012 C 0.14081 0.69192 0.08164 0.0
C1013 C 0.13511 0.67292 0.0952 0.0
C1014 C 0.11775 0.64707 0.08923 0.0
C1015 C 0.10596 0.64054 0.06972 0.0
C1016 C 0.11071 0.65873 0.05629 0.0
C1017 C 0.09485 0.64615 0.03634 0.0
C1018 C 0.07749 0.65662 0.03225 0.0
C1019 C 0.11077 0.64977 0.01881 0.0
C1020 C 0.0808 0.61808 0.04066 0.0
C1021 C 0.08786 0.61547 0.05997 0.0
C1022 C 0.0789 0.59158 0.06728 0.0
C1023 C 0.06193 0.56961 0.05467 0.0
C1024 C 0.05394 0.5716 0.03493 0.0
C1025 C 0.06341 0.59622 0.02785 0.0
H1026 H 0.31376 0.40997 0.0886 0.0
H1027 H 0.28541 0.45211 0.05706 0.0
H1028 H 0.32344 0.47413 0.04045 0.0
H1029 H 0.37796 0.46272 0.09604 0.0
H1030 H 0.38998 0.44145 0.09193 0.0
H1031 H 0.36112 0.43 0.10248 0.0
H1032 H 0.34016 0.3923 0.07385 0.0
H1033 H 0.36891 0.4037 0.06319 0.0
H1034 H 0.3425 0.39928 0.04784 0.0
H1035 H 0.36283 0.48948 0.02556 0.0
H1036 H 0.40258 0.49886 0.01418 0.0
H1037 H 0.40646 0.44745 0.05526 0.0
C1038 C 0.31565 0.42396 0.0783 0.0
C1039 C 0.29662 0.42945 0.07427 0.0
C1040 C 0.29985 0.44792 0.06071 0.0
C1041 C 0.32134 0.46043 0.05109 0.0
C1042 C 0.33957 0.4544 0.05523 0.0
C1043 C 0.33713 0.4368 0.06861 0.0
C1044 C 0.35944 0.43356 0.06995 0.0
C1045 C 0.37292 0.44247 0.09137 0.0
C1046 C 0.35232 0.40554 0.06331 0.0
C1047 C 0.37449 0.45167 0.05488 0.0
C1048 C 0.36263 0.46351 0.04665 0.0
C1049 C 0.3724 0.48051 0.032 0.0
C1050 C 0.39495 0.48565 0.0256 0.0
C1051 C 0.40753 0.47388 0.03384 0.0
C1052 C 0.39721 0.45673 0.04874 0.0
H1053 H 0.58797 0.89691 0.0502 0.0
H1054 H 0.52137 0.82927 0.06338 0.0
H1055 H 0.49686 0.84738 0.04923 0.0
H1056 H 0.57 0.94314 0.0628 0.0
H1057 H 0.5847 0.96248 0.04273 0.0
H1058 H 0.59653 0.94376 0.05361 0.0
H1059 H 0.59265 0.9212 0.01798 0.0
H1060 H 0.5807 0.93978 0.00702 0.0
H1061 H 0.56346 0.90505 0.00291 0.0
H1062 H 0.47997 0.87443 0.03476 0.0
H1063 H 0.47235 0.90718 0.02054 0.0
H1064 H 0.5504 0.95579 0.01632 0.0
C1065 C 0.56824 0.88596 0.0502 0.0
C1066 C 0.55655 0.86178 0.05797 0.0
C1067 C 0.53065 0.84781 0.0574 0.0
C1068 C 0.51662 0.85796 0.04945 0.0
C1069 C 0.52877 0.88196 0.04197 0.0
C1070 C 0.55401 0.89567 0.0422 0.0
C1071 C 0.56277 0.92097 0.03327 0.0
C1072 C 0.57948 0.94394 0.04904 0.0
C1073 C 0.57565 0.92178 0.01416 0.0
C1074 C 0.53857 0.91956 0.02816 0.0
C1075 C 0.51911 0.89701 0.03328 0.0
C1076 C 0.49507 0.89206 0.03053 0.0
C1077 C 0.49092 0.91075 0.02244 0.0
C1078 C 0.5107 0.93399 0.01711 0.0
C1079 C 0.53475 0.93816 0.01994 0.0
H1080 H 0.9795 0.17933 0.38934 0.0
H1081 H 0.99316 0.22542 0.44635 0.0
H1082 H 0.02643 0.26332 0.43269 0.0
H1083 H 0.04137 0.20447 0.38166 0.0
H1084 H 0.03707 0.20366 0.35458 0.0
H1085 H 0.0124 0.18127 0.3679 0.0
H1086 H 0.98422 0.19692 0.35253 0.0
H1087 H 0.00889 0.21944 0.33917 0.0
H1088 H 0.99391 0.23076 0.35575 0.0
H1089 H 0.05976 0.29512 0.41374 0.0
H1090 H 0.0927 0.31789 0.39172 0.0
H1091 H 0.05844 0.25066 0.34742 0.0
C1092 C 0.9892 0.1976 0.39872 0.0
C1093 C 0.98374 0.19972 0.41877 0.0
C1094 C 0.99714 0.22361 0.43091 0.0
C1095 C 0.01592 0.24519 0.42325 0.0
C1096 C 0.0211 0.24245 0.40347 0.0
C1097 C 0.00823 0.21923 0.39139 0.0
C1098 C 0.01896 0.22078 0.37138 0.0
C1099 C 0.02799 0.2014 0.36874 0.0
C1100 C 1.00038 0.21674 0.35366 0.0
C1101 C 0.04013 0.24834 0.37424 0.0
C1102 C 0.04078 0.26063 0.39271 0.0
C1103 C 0.05928 0.28581 0.39915 0.0
C1104 C 0.07787 0.2986 0.38654 0.0
C1105 C 0.07796 0.28604 0.36788 0.0
C1106 C 0.05861 0.26079 0.36152 0.0
H1107 H 0.79876 0.75642 0.38077 0.0
H1108 H 0.80147 0.77596 0.44524 0.0
H1109 H 0.77782 0.79724 0.43786 0.0
H1110 H 0.80092 0.81314 0.36308 0.0
H1111 H 0.77906 0.79535 0.34143 0.0
H1112 H 0.79847 0.78393 0.35154 0.0
H1113 H 0.76018 0.73985 0.3556 0.0
H1114 H 0.74068 0.75109 0.34547 0.0
H1115 H 0.73644 0.73893 0.3699 0.0
H1116 H 0.7531 0.8158 0.42363 0.0
H1117 H 0.72654 0.82728 0.40353 0.0
H1118 H 0.73603 0.79156 0.34894 0.0
C1119 C 0.79438 0.76502 0.39344 0.0
C1120 C 0.8024 0.76459 0.41364 0.0
C1121 C 0.7963 0.7765 0.42959 0.0
C1122 C 0.78265 0.78853 0.42558 0.0
C1123 C 0.77491 0.7883 0.40554 0.0
C1124 C 0.78036 0.77666 0.38974 0.0
C1125 C 0.76844 0.7776 0.36968 0.0
C1126 C 0.78789 0.79345 0.35561 0.0
C1127 C 0.75036 0.75024 0.35958 0.0
C1128 C 0.7552 0.79135 0.3767 0.0
C1129 C 0.75949 0.79769 0.39743 0.0
C1130 C 0.74938 0.81063 0.40744 0.0
C1131 C 0.73413 0.81681 0.39601 0.0
C1132 C 0.72871 0.80958 0.37494 0.0
C1133 C 0.73972 0.79708 0.36511 0.0
H1134 H 0.26005 0.03645 0.38964 0.0
H1135 H 0.19519 0.04368 0.38732 0.0
H1136 H 0.16985 0.99787 0.37365 0.0
H1137 H 0.24259 0.99398 0.34321 0.0
H1138 H 0.25535 0.97539 0.35282 0.0
H1139 H 0.26839 0.0088 0.36225 0.0
H1140 H 0.2621 0.99607 0.39889 0.0
H1141 H 0.24904 0.96263 0.38956 0.0
H1142 H 0.23199 0.97254 0.40486 0.0
H1143 H 0.15133 0.95081 0.36206 0.0
H1144 H 0.14121 0.90628 0.35116 0.0
H1145 H 0.21836 0.93013 0.35963 0.0
C1146 C 0.24052 0.02835 0.38623 0.0
C1147 C 0.22954 0.04355 0.38949 0.0
C1148 C 0.20396 0.03239 0.38471 0.0
C1149 C 0.18942 0.00639 0.37706 0.0
C1150 C 0.20079 0.9919 0.3741 0.0
C1151 C 0.22577 0.0025 0.37836 0.0
C1152 C 0.23342 0.98273 0.37367 0.0
C1153 C 0.25097 0.9907 0.35699 0.0
C1154 C 0.24481 0.97823 0.39289 0.0
C1155 C 0.20881 0.95931 0.36624 0.0
C1156 C 0.19021 0.96497 0.36675 0.0
C1157 C 0.16576 0.9462 0.36139 0.0
C1158 C 0.1602 0.92097 0.35528 0.0
C1159 C 0.17902 0.91485 0.35437 0.0
C1160 C 0.20363 0.93435 0.35987 0.0
H1161 H 0.5506 0.63073 0.30771 0.0
H1162 H 0.52109 0.63995 0.25026 0.0
H1163 H 0.54286 0.68678 0.25918 0.0
H1164 H 0.55135 0.68275 0.33805 0.0
H1165 H 0.58044 0.69287 0.35198 0.0
H1166 H 0.56089 0.65959 0.34207 0.0
H1167 H 0.59612 0.66121 0.32296 0.0
H1168 H 0.6158 0.69445 0.33288 0.0
H1169 H 0.61075 0.68557 0.30594 0.0
H1170 H 0.56764 0.73247 0.27391 0.0
H1171 H 0.59678 0.77475 0.29224 0.0
H1172 H 0.61416 0.7371 0.33863 0.0
C1173 C 0.54874 0.64243 0.29683 0.0
C1174 C 0.53356 0.63114 0.27833 0.0
C1175 C 0.53175 0.64762 0.26482 0.0
C1176 C 0.5443 0.67442 0.26965 0.0
C1177 C 0.55903 0.68472 0.28791 0.0
C1178 C 0.56162 0.66933 0.30118 0.0
C1179 C 0.57982 0.68556 0.31926 0.0
C1180 C 0.56737 0.67985 0.33901 0.0
C1181 C 0.60194 0.68145 0.32031 0.0
C1182 C 0.58705 0.71249 0.31401 0.0
C1183 C 0.5745 0.71142 0.29598 0.0
C1184 C 0.57761 0.73357 0.28802 0.0
C1185 C 0.59414 0.75752 0.29864 0.0
C1186 C 0.60769 0.75925 0.31693 0.0
C1187 C 0.60408 0.73637 0.32469 0.0
H1188 H 0.36503 0.90655 0.29402 0.0
H1189 H 0.34409 0.90535 0.23055 0.0
H1190 H 0.30117 0.88785 0.2378 0.0
H1191 H 0.30983 0.84815 0.30366 0.0
H1192 H 0.309 0.86102 0.3286 0.0
H1193 H 0.3379 0.87195 0.31825 0.0
H1194 H 0.34758 0.91924 0.3241 0.0
H1195 H 0.31873 0.90846 0.33445 0.0
H1196 H 0.32612 0.92777 0.31346 0.0
H1197 H 0.26091 0.87248 0.25205 0.0
H1198 H 0.22601 0.86025 0.27244 0.0
H1199 H 0.27296 0.87213 0.32681 0.0
C1200 C 0.35145 0.90263 0.28162 0.0
C1201 C 0.35801 0.90722 0.26166 0.0
C1202 C 0.33954 0.90157 0.24589 0.0
C1203 C 0.3151 0.89176 0.24988 0.0
C1204 C 0.30934 0.88768 0.26971 0.0
C1205 C 0.32696 0.89289 0.28533 0.0
C1206 C 0.31602 0.88752 0.30541 0.0
C1207 C 0.31833 0.86587 0.31451 0.0
C1208 C 0.32781 0.91222 0.32022 0.0
C1209 C 0.28956 0.87882 0.29866 0.0
C1210 C 0.2861 0.87893 0.27798 0.0
C1211 C 0.26338 0.87222 0.26823 0.0
C1212 C 0.24369 0.86535 0.27995 0.0
C1213 C 0.24687 0.86528 0.30116 0.0
C1214 C 0.27005 0.87193 0.3106 0.0
H1215 H 0.13267 0.48177 0.29206 0.0
H1216 H 0.13162 0.45601 0.22943 0.0
H1217 H 0.13613 0.42014 0.24041 0.0
H1218 H 0.17766 0.46915 0.31215 0.0
H1219 H 0.16388 0.45778 0.33515 0.0
H1220 H 0.15855 0.48039 0.32254 0.0
H1221 H 0.11169 0.44915 0.32072 0.0
H1222 H 0.11688 0.42646 0.33344 0.0
H1223 H 0.09877 0.41647 0.3093 0.0
H1224 H 0.14436 0.38984 0.25768 0.0
H1225 H 0.15419 0.36498 0.28072 0.0
H1226 H 0.14866 0.40848 0.3325 0.0
C1227 C 0.1329 0.46825 0.28068 0.0
C1228 C 0.13197 0.47177 0.25989 0.0
C1229 C 0.13267 0.45391 0.24544 0.0
C1230 C 0.13506 0.43337 0.25151 0.0
C1231 C 0.1365 0.43078 0.27209 0.0
C1232 C 0.13524 0.44751 0.2865 0.0
C1233 C 0.13831 0.44082 0.30769 0.0
C1234 C 0.16095 0.46338 0.32011 0.0
C1235 C 0.11502 0.43274 0.31842 0.0
C1236 C 0.14203 0.4181 0.30288 0.0
C1237 C 0.14082 0.41268 0.2822 0.0
C1238 C 0.14503 0.39363 0.27388 0.0
C1239 C 0.15071 0.37974 0.28703 0.0
C1240 C 0.15204 0.38489 0.30821 0.0
C1241 C 0.14739 0.40407 0.31631 0.0
H1242 H 0.37601 0.47263 0.2977 0.0
H1243 H 0.37408 0.4129 0.25626 0.0
H1244 H 0.33167 0.38278 0.26331 0.0
H1245 H 0.34194 0.43113 0.33456 0.0
H1246 H 0.32575 0.44791 0.34036 0.0
H1247 H 0.35578 0.46507 0.33171 0.0
H1248 H 0.33865 0.4799 0.30245 0.0
H1249 H 0.30858 0.46282 0.31105 0.0
H1250 H 0.31305 0.4561 0.28536 0.0
H1251 H 0.28958 0.3592 0.27465 0.0
H1252 H 0.25077 0.34325 0.29036 0.0
H1253 H 0.27997 0.41786 0.32495 0.0
C1254 C 0.36657 0.45327 0.29001 0.0
C1255 C 0.37835 0.44506 0.27647 0.0
C1256 C 0.3655 0.41949 0.26687 0.0
C1257 C 0.34138 0.40229 0.27069 0.0
C1258 C 0.33035 0.41092 0.2842 0.0
C1259 C 0.34249 0.43576 0.29376 0.0
C1260 C 0.32655 0.43992 0.30794 0.0
C1261 C 0.3382 0.44638 0.32994 0.0
C1262 C 0.32141 0.46093 0.30129 0.0
C1263 C 0.30358 0.41352 0.30486 0.0
C1264 C 0.30614 0.39715 0.29101 0.0
C1265 C 0.28738 0.3718 0.28557 0.0
C1266 C 0.26544 0.36292 0.29458 0.0
C1267 C 0.26251 0.37928 0.30893 0.0
C1268 C 0.28181 0.40492 0.31408 0.0
H1269 H 0.53792 0.92743 0.29385 0.0
H1270 H 0.50381 0.87552 0.23879 0.0
H1271 H 0.52771 0.85431 0.24651 0.0
H1272 H 0.59776 0.93581 0.29142 0.0
H1273 H 0.60343 0.93636 0.31833 0.0
H1274 H 0.58334 0.94713 0.30864 0.0
H1275 H 0.54865 0.91437 0.32827 0.0
H1276 H 0.56867 0.90355 0.33807 0.0
H1277 H 0.53944 0.88068 0.32454 0.0
H1278 H 0.55648 0.83989 0.2596 0.0
H1279 H 0.58648 0.83175 0.27809 0.0
H1280 H 0.60121 0.89252 0.32493 0.0
C1281 C 0.53552 0.91163 0.28341 0.0
C1282 C 0.51903 0.90311 0.26572 0.0
C1283 C 0.51617 0.88217 0.25254 0.0
C1284 C 0.52976 0.87012 0.25673 0.0
C1285 C 0.54599 0.87913 0.27423 0.0
C1286 C 0.5488 0.89928 0.28744 0.0
C1287 C 0.56734 0.90515 0.30527 0.0
C1288 C 0.58927 0.93275 0.30594 0.0
C1289 C 0.5553 0.90066 0.32522 0.0
C1290 C 0.57467 0.88526 0.29997 0.0
C1291 C 0.56221 0.87051 0.28196 0.0
C1292 C 0.56622 0.85121 0.27378 0.0
C1293 C 0.58329 0.84675 0.28435 0.0
C1294 C 0.59599 0.86144 0.30293 0.0
C1295 C 0.59163 0.88094 0.31079 0.0
H1296 H 0.13625 0.66766 0.25969 0.0
H1297 H 0.10683 0.62077 0.30908 0.0
H1298 H 0.11068 0.65864 0.32975 0.0
H1299 H 0.18099 0.72473 0.2898 0.0
H1300 H 0.17738 0.74635 0.27432 0.0
H1301 H 0.17121 0.71541 0.26317 0.0
H1302 H 0.12775 0.70419 0.24962 0.0
H1303 H 0.13277 0.73468 0.26072 0.0
H1304 H 0.10722 0.70518 0.2669 0.0
H1305 H 0.11653 0.70165 0.34432 0.0
H1306 H 0.12699 0.74695 0.35269 0.0
H1307 H 0.15541 0.76589 0.29461 0.0
C1308 C 0.13043 0.66533 0.27481 0.0
C1309 C 0.12098 0.64133 0.28279 0.0
C1310 C 0.11403 0.63907 0.30275 0.0
C1311 C 0.11611 0.6604 0.31452 0.0
C1312 C 0.12548 0.68385 0.30615 0.0
C1313 C 0.13274 0.68644 0.28682 0.0
C1314 C 0.14278 0.71377 0.28145 0.0
C1315 C 0.16968 0.72577 0.27692 0.0
C1316 C 0.1267 0.71451 0.26362 0.0
C1317 C 0.14044 0.72636 0.30091 0.0
C1318 C 0.12997 0.7087 0.31485 0.0
C1319 C 0.12496 0.71567 0.3336 0.0
C1320 C 0.13091 0.74136 0.33821 0.0
C1321 C 0.14223 0.75979 0.32431 0.0
C1322 C 0.14711 0.75217 0.30552 0.0
H1323 H 0.8203 0.99477 0.41397 0.0
H1324 H 0.81361 0.0518 0.38162 0.0
H1325 H 0.77658 0.01688 0.36139 0.0
H1326 H 0.80214 0.94748 0.37068 0.0
H1327 H 0.78603 0.92049 0.38515 0.0
H1328 H 0.81184 0.95003 0.39711 0.0
H1329 H 0.78489 0.95258 0.4242 0.0
H1330 H 0.75929 0.92288 0.41231 0.0
H1331 H 0.7566 0.95126 0.41616 0.0
H1332 H 0.73945 0.97538 0.34524 0.0
H1333 H 0.70619 0.93079 0.33393 0.0
H1334 H 0.73883 0.90158 0.3761 0.0
C1335 C 0.81133 1.0 0.40244 0.0
C1336 C 0.81995 0.02611 0.39942 0.0
C1337 C 0.80723 0.03199 0.38443 0.0
C1338 C 0.78625 0.01228 0.37278 0.0
C1339 C 0.77828 0.98679 0.37622 0.0
C1340 C 0.79052 0.98063 0.39063 0.0
C1341 C 0.77832 0.95177 0.3914 0.0
C1342 C 0.79561 0.94187 0.38574 0.0
C1343 C 0.76923 0.9442 0.41225 0.0
C1344 C 0.75718 0.94262 0.37525 0.0
C1345 C 0.75737 0.96305 0.36668 0.0
C1346 C 0.73921 0.95923 0.35176 0.0
C1347 C 0.72039 0.93386 0.34545 0.0
C1348 C 0.72003 0.91269 0.35398 0.0
C1349 C 0.73874 0.91728 0.36904 0.0
H1350 H 0.95364 0.74516 0.38299 0.0
H1351 H 0.97779 0.78456 0.44377 0.0
H1352 H 0.0206 0.80703 0.43514 0.0
H1353 H 0.00424 0.73502 0.37751 0.0
H1354 H 0.00574 0.74038 0.35114 0.0
H1355 H 0.97698 0.72794 0.36196 0.0
H1356 H 0.97237 0.76558 0.34992 0.0
H1357 H 1.00114 0.77816 0.33909 0.0
H1358 H 0.99646 0.79839 0.35726 0.0
H1359 H 0.06086 0.82399 0.42029 0.0
H1360 H 0.09571 0.83509 0.40001 0.0
H1361 H 0.04541 0.78492 0.34877 0.0
C1362 C 0.96793 0.75843 0.39452 0.0
C1363 C 0.96235 0.7631 0.41408 0.0
C1364 C 0.98158 0.78089 0.42864 0.0
C1365 C 0.00596 0.79364 0.4239 0.0
C1366 C 0.0108 0.7885 0.40452 0.0
C1367 C 0.99234 0.77139 0.39003 0.0
C1368 C 0.00248 0.7692 0.37036 0.0
C1369 C 0.99704 0.74149 0.36493 0.0
C1370 C 0.99252 0.77838 0.35314 0.0
C1371 C 0.02958 0.78761 0.37608 0.0
C1372 C 0.03398 0.79853 0.39587 0.0
C1373 C 0.05762 0.81571 0.40475 0.0
C1374 C 0.07728 0.82191 0.39311 0.0
C1375 C 0.07318 0.811 0.37281 0.0
C1376 C 0.04901 0.79369 0.3642 0.0
H1377 H 0.25472 0.22968 0.38175 0.0
H1378 H 0.20276 0.19322 0.42589 0.0
H1379 H 0.17966 0.21356 0.414 0.0
H1380 H 0.25582 0.29047 0.388 0.0
H1381 H 0.25871 0.29559 0.36165 0.0
H1382 H 0.27081 0.27741 0.37312 0.0
H1383 H 0.24495 0.23904 0.34571 0.0
H1384 H 0.23262 0.25702 0.33425 0.0
H1385 H 0.21226 0.22566 0.34201 0.0
H1386 H 0.16181 0.23703 0.39727 0.0
H1387 H 0.15176 0.26487 0.37841 0.0
H1388 H 0.21656 0.28866 0.34637 0.0
C1389 C 0.23865 0.22616 0.38911 0.0
C1390 C 0.23047 0.20951 0.40465 0.0
C1391 C 0.20915 0.20532 0.41365 0.0
C1392 C 0.19595 0.21693 0.40709 0.0
C1393 C 0.20441 0.23295 0.39166 0.0
C1394 C 0.22539 0.23785 0.38293 0.0
C1395 C 0.23082 0.25648 0.36699 0.0
C1396 C 0.25551 0.28147 0.3728 0.0
C1397 C 0.23011 0.24378 0.346 0.0
C1398 C 0.20955 0.26122 0.36814 0.0
C1399 C 0.19446 0.24724 0.38237 0.0
C1400 C 0.1735 0.24812 0.38612 0.0
C1401 C 0.16791 0.26396 0.37521 0.0
C1402 C 0.18337 0.27899 0.36085 0.0
C1403 C 0.20441 0.27745 0.35724 0.0
H1404 H 0.63985 0.50652 0.72562 0.0
H1405 H 0.63353 0.56146 0.76652 0.0
H1406 H 0.67007 0.59721 0.75415 0.0
H1407 H 0.70451 0.53723 0.7318 0.0
H1408 H 0.70755 0.53016 0.70576 0.0
H1409 H 0.68005 0.50909 0.71691 0.0
H1410 H 0.65395 0.51477 0.68855 0.0
H1411 H 0.68138 0.53579 0.67726 0.0
H1412 H 0.66068 0.54678 0.68395 0.0
H1413 H 0.70933 0.62649 0.73946 0.0
H1414 H 0.74675 0.64752 0.7216 0.0
H1415 H 0.72666 0.57362 0.68957 0.0
C1416 C 0.64606 0.52609 0.73186 0.0
C1417 C 0.63384 0.53125 0.747 0.0
C1418 C 0.64243 0.55712 0.75472 0.0
C1419 C 0.66324 0.57752 0.74788 0.0
C1420 C 0.6751 0.57172 0.73318 0.0
C1421 C 0.66667 0.54667 0.7251 0.0
C1422 C 0.68301 0.54558 0.70976 0.0
C1423 C 0.69445 0.52957 0.71647 0.0
C1424 C 0.66891 0.53512 0.68863 0.0
C1425 C 0.70213 0.57391 0.71064 0.0
C1426 C 0.69731 0.58866 0.72432 0.0
C1427 C 0.71309 0.61519 0.7285 0.0
C1428 C 0.73428 0.62695 0.71833 0.0
C1429 C 0.73931 0.61219 0.70408 0.0
C1430 C 0.72299 0.58538 0.70018 0.0
H1431 H 0.46824 0.09708 0.71306 0.0
H1432 H 0.48306 0.12765 0.77642 0.0
H1433 H 0.45867 0.14833 0.76994 0.0
H1434 H 0.46652 0.14947 0.69133 0.0
H1435 H 0.44098 0.12855 0.67299 0.0
H1436 H 0.46185 0.1184 0.682 0.0
H1437 H 0.42559 0.0769 0.69301 0.0
H1438 H 0.40461 0.08684 0.68394 0.0
H1439 H 0.40537 0.07962 0.70976 0.0
H1440 H 0.43253 0.16596 0.75649 0.0
H1441 H 0.40298 0.17474 0.73789 0.0
H1442 H 0.40074 0.12751 0.68511 0.0
C1443 C 0.46634 0.10789 0.72573 0.0
C1444 C 0.47806 0.11083 0.74525 0.0
C1445 C 0.47507 0.12559 0.76116 0.0
C1446 C 0.46103 0.13732 0.75769 0.0
C1447 C 0.4497 0.13383 0.73831 0.0
C1448 C 0.4519 0.11916 0.72268 0.0
C1449 C 0.43636 0.11671 0.70365 0.0
C1450 C 0.45239 0.12902 0.68648 0.0
C1451 C 0.41683 0.08833 0.69722 0.0
C1452 C 0.42492 0.13215 0.71108 0.0
C1453 C 0.4332 0.14229 0.731 0.0
C1454 C 0.42558 0.15771 0.74101 0.0
C1455 C 0.4086 0.16234 0.73048 0.0
C1456 C 0.39892 0.15096 0.71047 0.0
C1457 C 0.40758 0.13612 0.70055 0.0
H1458 H 0.89193 0.36853 0.72853 0.0
H1459 H 0.95962 0.40195 0.69964 0.0
H1460 H 0.94756 0.35911 0.68285 0.0
H1461 H 0.89107 0.31018 0.73845 0.0
H1462 H 0.85828 0.28999 0.73358 0.0
H1463 H 0.87159 0.32354 0.74268 0.0
H1464 H 0.84905 0.33002 0.71195 0.0
H1465 H 0.83576 0.2965 0.7027 0.0
H1466 H 0.85322 0.32122 0.6867 0.0
H1467 H 0.92929 0.31294 0.67011 0.0
H1468 H 0.90608 0.2657 0.66256 0.0
H1469 H 0.85014 0.26136 0.6998 0.0
C1470 C 0.90425 0.36683 0.71871 0.0
C1471 C 0.92665 0.38875 0.71527 0.0
C1472 C 0.94215 0.38563 0.70221 0.0
C1473 C 0.93553 0.36133 0.69267 0.0
C1474 C 0.91335 0.34023 0.69632 0.0
C1475 C 0.89793 0.34264 0.70904 0.0
C1476 C 0.87541 0.31661 0.71072 0.0
C1477 C 0.87402 0.30968 0.73266 0.0
C1478 C 0.85198 0.31607 0.70252 0.0
C1479 C 0.88077 0.29922 0.69712 0.0
C1480 C 0.90272 0.31333 0.68894 0.0
C1481 C 0.91202 0.30166 0.67635 0.0
C1482 C 0.89869 0.27478 0.67218 0.0
C1483 C 0.87626 0.25978 0.68056 0.0
C1484 C 0.86709 0.27228 0.69301 0.0
H1485 H 0.20037 0.97933 0.60332 0.0
H1486 H 0.19452 0.9424 0.65848 0.0
H1487 H 0.22128 0.98489 0.67755 0.0
H1488 H 0.2622 0.02846 0.61315 0.0
H1489 H 0.25812 0.05332 0.60306 0.0
H1490 H 0.23787 0.02004 0.59356 0.0
H1491 H 0.20037 0.02395 0.60215 0.0
H1492 H 0.22054 0.05733 0.61154 0.0
H1493 H 0.1992 0.03537 0.62753 0.0
H1494 H 0.25141 0.03076 0.69017 0.0
H1495 H 0.28011 0.07782 0.69608 0.0
H1496 H 0.26375 0.08561 0.63364 0.0
C1497 C 0.20428 0.98014 0.61947 0.0
C1498 C 0.19552 0.95732 0.62928 0.0
C1499 C 0.20144 0.95943 0.65044 0.0
C1500 C 0.21649 0.98352 0.66148 0.0
C1501 C 0.22519 0.00549 0.65128 0.0
C1502 C 0.21904 0.00412 0.63082 0.0
C1503 C 0.23102 0.03078 0.62356 0.0
C1504 C 0.24833 0.03328 0.60738 0.0
C1505 C 0.21162 0.03724 0.61574 0.0
C1506 C 0.24517 0.04724 0.64307 0.0
C1507 C 0.24166 0.03222 0.65884 0.0
C1508 C 0.254 0.0428 0.67804 0.0
C1509 C 0.27032 0.06948 0.68123 0.0
C1510 C 0.27385 0.08527 0.66539 0.0
C1511 C 0.26098 0.074 0.64612 0.0
H1512 H 0.02828 0.26224 0.59798 0.0
H1513 H 0.04196 0.19973 0.60828 0.0
H1514 H 0.00427 0.1783 0.62541 0.0
H1515 H 0.00509 0.26545 0.64368 0.0
H1516 H 0.9814 0.27093 0.63326 0.0
H1517 H 0.0088 0.28096 0.62075 0.0
H1518 H 0.98272 0.25397 0.58758 0.0
H1519 H 0.95518 0.24402 0.59992 0.0
H1520 H 0.96089 0.22013 0.5879 0.0
H1521 H 0.96703 0.1654 0.64397 0.0
H1522 H 0.93048 0.15995 0.65981 0.0
H1523 H 0.9395 0.22917 0.63563 0.0
C1524 C 0.02313 0.24376 0.60339 0.0
C1525 C 0.03843 0.23294 0.60198 0.0
C1526 C 0.03098 0.20883 0.60957 0.0
C1527 C 0.00947 0.19636 0.61922 0.0
C1528 C 0.99525 0.20793 0.62086 0.0
C1529 C 0.0015 0.23083 0.61283 0.0
C1530 C 0.98305 0.23924 0.61681 0.0
C1531 C 0.99533 0.26571 0.62938 0.0
C1532 C 0.96967 0.23934 0.59686 0.0
C1533 C 0.96595 0.21792 0.62886 0.0
C1534 C 0.97329 0.20002 0.631 0.0
C1535 C 0.96092 0.17911 0.64219 0.0
C1536 C 0.94032 0.17626 0.65123 0.0
C1537 C 0.93227 0.19413 0.6489 0.0
C1538 C 0.94528 0.2152 0.63759 0.0
H1539 H 0.82214 0.81602 0.60475 0.0
H1540 H 0.7466 0.78771 0.61699 0.0
H1541 H 0.74811 0.75536 0.63705 0.0
H1542 H 0.81618 0.75308 0.59765 0.0
H1543 H 0.84682 0.76432 0.60885 0.0
H1544 H 0.84 0.78596 0.59626 0.0
H1545 H 0.85694 0.81803 0.62884 0.0
H1546 H 0.86344 0.79624 0.64156 0.0
H1547 H 0.84431 0.80719 0.65233 0.0
H1548 H 0.7577 0.72587 0.65562 0.0
H1549 H 0.77355 0.69937 0.66933 0.0
H1550 H 0.84207 0.74535 0.64332 0.0
C1551 C 0.80573 0.80288 0.61139 0.0
C1552 C 0.78427 0.80469 0.60929 0.0
C1553 C 0.76346 0.78723 0.61864 0.0
C1554 C 0.76408 0.76864 0.62999 0.0
C1555 C 0.78554 0.76753 0.63175 0.0
C1556 C 0.8059 0.78399 0.62252 0.0
C1557 C 0.82639 0.77814 0.62611 0.0
C1558 C 0.83271 0.76988 0.60603 0.0
C1559 C 0.84911 0.80128 0.63792 0.0
C1560 C 0.81436 0.7558 0.63884 0.0
C1561 C 0.79087 0.75012 0.64204 0.0
C1562 C 0.77605 0.73012 0.6532 0.0
C1563 C 0.78529 0.7152 0.66096 0.0
C1564 C 0.8091 0.72021 0.65743 0.0
C1565 C 0.82386 0.74104 0.64641 0.0
H1566 H 0.0355 0.8051 0.62933 0.0
H1567 H 0.02025 0.76094 0.57091 0.0
H1568 H 0.97786 0.73197 0.57841 0.0
H1569 H 1.00027 0.75225 0.65711 0.0
H1570 H 0.98906 0.76888 0.67274 0.0
H1571 H 0.01814 0.78683 0.66267 0.0
H1572 H 0.00354 0.81533 0.64617 0.0
H1573 H 0.97446 0.79758 0.65632 0.0
H1574 H 0.97554 0.80024 0.62952 0.0
H1575 H 0.93785 0.70655 0.59269 0.0
H1576 H 0.90197 0.68741 0.61233 0.0
H1577 H 0.94209 0.74877 0.66099 0.0
C1578 C 0.02315 0.78959 0.61798 0.0
C1579 C 0.03135 0.78521 0.59957 0.0
C1580 C 0.01461 0.76444 0.58526 0.0
C1581 C 0.99042 0.74795 0.58933 0.0
C1582 C 0.98309 0.75254 0.60771 0.0
C1583 C 0.99885 0.77295 0.62176 0.0
C1584 C 0.9863 0.77333 0.64046 0.0
C1585 C 0.99921 0.77013 0.65936 0.0
C1586 C 0.98487 0.7981 0.64328 0.0
C1587 C 0.96113 0.74979 0.63479 0.0
C1588 C 0.95973 0.7381 0.61583 0.0
C1589 C 0.93865 0.71565 0.60747 0.0
C1590 C 0.91838 0.70492 0.61874 0.0
C1591 C 0.91924 0.71673 0.63806 0.0
C1592 C 0.94092 0.73945 0.64619 0.0
H1593 H 0.22353 0.25447 0.58352 0.0
H1594 H 0.14996 0.19793 0.59566 0.0
H1595 H 0.16578 0.17188 0.61043 0.0
H1596 H 0.24467 0.20764 0.5719 0.0
H1597 H 0.27498 0.22969 0.58403 0.0
H1598 H 0.25723 0.24197 0.57209 0.0
H1599 H 0.26282 0.26927 0.60584 0.0
H1600 H 0.28016 0.25661 0.61779 0.0
H1601 H 0.25334 0.25337 0.6285 0.0
H1602 H 0.19007 0.15498 0.62786 0.0
H1603 H 0.22108 0.14711 0.64486 0.0
H1604 H 0.27875 0.21368 0.62063 0.0
C1605 C 0.21071 0.23638 0.58898 0.0
C1606 C 0.18547 0.22815 0.58831 0.0
C1607 C 0.16929 0.2044 0.59567 0.0
C1608 C 0.17812 0.18952 0.60418 0.0
C1609 C 0.20315 0.19846 0.60501 0.0
C1610 C 0.2192 0.22116 0.59736 0.0
C1611 C 0.24542 0.22712 0.60113 0.0
C1612 C 0.2562 0.22656 0.58109 0.0
C1613 C 0.26136 0.25313 0.61409 0.0
C1614 C 0.24168 0.20472 0.61269 0.0
C1615 C 0.21714 0.18833 0.61468 0.0
C1616 C 0.20929 0.16737 0.62606 0.0
C1617 C 0.22699 0.1631 0.63572 0.0
C1618 C 0.25217 0.17961 0.63381 0.0
C1619 C 0.25954 0.20046 0.62196 0.0
H1620 H 0.80407 0.00416 0.59445 0.0
H1621 H 0.75859 0.95503 0.63771 0.0
H1622 H 0.76138 0.99318 0.6571 0.0
H1623 H 0.845 0.05585 0.63039 0.0
H1624 H 0.84921 0.08064 0.61447 0.0
H1625 H 0.8416 0.04923 0.60325 0.0
H1626 H 0.80401 0.04544 0.58248 0.0
H1627 H 0.81115 0.07671 0.59377 0.0
H1628 H 0.78139 0.04901 0.59535 0.0
H1629 H 0.76975 0.03765 0.67178 0.0
H1630 H 0.78622 0.0843 0.68203 0.0
H1631 H 0.82822 0.10338 0.63007 0.0
C1632 C 0.79437 0.00141 0.60782 0.0
C1633 C 0.78081 0.97671 0.61448 0.0
C1634 C 0.76892 0.97386 0.63235 0.0
C1635 C 0.77035 0.99537 0.64338 0.0
C1636 C 0.78399 0.01957 0.63642 0.0
C1637 C 0.79597 0.02265 0.61913 0.0
C1638 C 0.81085 0.05075 0.61554 0.0
C1639 C 0.83828 0.05963 0.61595 0.0
C1640 C 0.80127 0.05576 0.5956 0.0
C1641 C 0.80567 0.0631 0.63361 0.0
C1642 C 0.78977 0.0449 0.64533 0.0
C1643 C 0.78227 0.05204 0.66273 0.0
C1644 C 0.79161 0.07849 0.66842 0.0
C1645 C 0.80862 0.09728 0.65695 0.0
C1646 C 0.81545 0.08937 0.63926 0.0
H1647 H 0.48195 0.33571 0.73359 0.0
H1648 H 0.44745 0.38238 0.73124 0.0
H1649 H 0.41147 0.34634 0.71073 0.0
H1650 H 0.45814 0.30111 0.68294 0.0
H1651 H 0.45391 0.2713 0.69122 0.0
H1652 H 0.47792 0.30172 0.70377 0.0
H1653 H 0.46063 0.28799 0.73817 0.0
H1654 H 0.43667 0.25758 0.72575 0.0
H1655 H 0.42902 0.278 0.74083 0.0
H1656 H 0.3778 0.30367 0.69262 0.0
H1657 H 0.34927 0.25814 0.67946 0.0
H1658 H 0.40593 0.23974 0.69472 0.0
C1659 C 0.4669 0.33846 0.72872 0.0
C1660 C 0.46758 0.36194 0.73404 0.0
C1661 C 0.44754 0.36474 0.72713 0.0
C1662 C 0.42698 0.34433 0.71552 0.0
C1663 C 0.42678 0.32131 0.71086 0.0
C1664 C 0.44627 0.31834 0.71724 0.0
C1665 C 0.44105 0.29125 0.71134 0.0
C1666 C 0.45881 0.29136 0.69643 0.0
C1667 C 0.44188 0.27793 0.73014 0.0
C1668 C 0.41529 0.27918 0.70112 0.0
C1669 C 0.40744 0.29685 0.70071 0.0
C1670 C 0.38386 0.28975 0.69269 0.0
C1671 C 0.36779 0.26384 0.68521 0.0
C1672 C 0.37533 0.24532 0.68601 0.0
C1673 C 0.39955 0.25335 0.6938 0.0
H1674 H 0.65476 0.09589 0.74472 0.0
H1675 H 0.62651 0.13771 0.71264 0.0
H1676 H 0.66469 0.15963 0.69607 0.0
H1677 H 0.71813 0.14821 0.75281 0.0
H1678 H 0.7305 0.1272 0.749 0.0
H1679 H 0.70125 0.11535 0.75892 0.0
H1680 H 0.68117 0.078 0.72999 0.0
H1681 H 0.71034 0.08973 0.71998 0.0
H1682 H 0.68431 0.08534 0.70408 0.0
H1683 H 0.70493 0.17555 0.68181 0.0
H1684 H 0.74534 0.18532 0.67146 0.0
H1685 H 0.7479 0.13371 0.71297 0.0
C1686 C 0.65664 0.10967 0.73421 0.0
C1687 C 0.6377 0.11519 0.73004 0.0
C1688 C 0.64091 0.13347 0.7163 0.0
C1689 C 0.66247 0.14592 0.70673 0.0
C1690 C 0.68073 0.13999 0.71112 0.0
C1691 C 0.67813 0.12241 0.72459 0.0
C1692 C 0.70049 0.11936 0.72643 0.0
C1693 C 0.71335 0.12806 0.74808 0.0
C1694 C 0.69366 0.09145 0.71971 0.0
C1695 C 0.71589 0.13772 0.71168 0.0
C1696 C 0.70413 0.14942 0.70303 0.0
C1697 C 0.7144 0.16665 0.68857 0.0
C1698 C 0.7373 0.17205 0.68277 0.0
C1699 C 0.74966 0.16031 0.69147 0.0
C1700 C 0.73885 0.14304 0.70617 0.0
H1701 H 0.93 0.57436 0.71426 0.0
H1702 H 0.86573 0.50928 0.7339 0.0
H1703 H 0.84013 0.52628 0.72073 0.0
H1704 H 0.91313 0.6215 0.72825 0.0
H1705 H 0.92522 0.63964 0.70701 0.0
H1706 H 0.93844 0.62167 0.71695 0.0
H1707 H 0.93088 0.59733 0.68142 0.0
H1708 H 0.91747 0.61512 0.67139 0.0
H1709 H 0.90038 0.58034 0.6685 0.0
H1710 H 0.82162 0.55046 0.70654 0.0
H1711 H 0.81123 0.58139 0.69336 0.0
H1712 H 0.88744 0.63199 0.68354 0.0
C1713 C 0.91056 0.56372 0.71588 0.0
C1714 C 0.89989 0.54028 0.72497 0.0
C1715 C 0.87432 0.52693 0.72663 0.0
C1716 C 0.85961 0.5365 0.71928 0.0
C1717 C 0.8707 0.55952 0.71036 0.0
C1718 C 0.89558 0.57307 0.70871 0.0
C1719 C 0.90291 0.59784 0.69909 0.0
C1720 C 0.92099 0.62156 0.7137 0.0
C1721 C 0.91354 0.59763 0.6789 0.0
C1722 C 0.87825 0.59617 0.6958 0.0
C1723 C 0.85996 0.57378 0.70231 0.0
C1724 C 0.83575 0.56803 0.70135 0.0
C1725 C 0.83007 0.58581 0.69383 0.0
C1726 C 0.84852 0.60919 0.68741 0.0
C1727 C 0.8729 0.61422 0.68816 0.0
H1728 H 0.50787 0.00273 0.15506 0.0
H1729 H 0.43558 0.93485 0.14237 0.0
H1730 H 0.43842 0.93858 0.10567 0.0
H1731 H 0.50296 0.03814 0.1147 0.0
H1732 H 0.53427 0.05088 0.10918 0.0
H1733 H 0.52613 0.04347 0.13443 0.0
H1734 H 0.54467 0.01359 0.13388 0.0
H1735 H 0.55289 0.02093 0.10865 0.0
H1736 H 0.53417 0.98785 0.11376 0.0
H1737 H 0.44942 0.94928 0.07053 0.0
H1738 H 0.46849 0.9651 0.03933 0.0
H1739 H 0.53384 0.02579 0.07448 0.0
C1740 C 0.49258 0.98882 0.14452 0.0
C1741 C 0.47145 0.96856 0.15146 0.0
C1742 C 0.45195 0.95043 0.13729 0.0
C1743 C 0.45337 0.95246 0.11647 0.0
C1744 C 0.4745 0.97261 0.11011 0.0
C1745 C 0.49383 0.99038 0.12369 0.0
C1746 C 0.51485 0.00959 0.11284 0.0
C1747 C 0.51984 0.03715 0.1181 0.0
C1748 C 0.53801 0.00787 0.11756 0.0
C1749 C 0.50433 0.99984 0.09103 0.0
C1750 C 0.48096 0.97864 0.08982 0.0
C1751 C 0.46758 0.96609 0.07132 0.0
C1752 C 0.47838 0.97547 0.05359 0.0
C1753 C 0.50221 0.99717 0.05443 0.0
C1754 C 0.51543 0.00933 0.07342 0.0
H1755 H 0.04755 0.54713 0.14943 0.0
H1756 H 0.05609 0.47997 0.14917 0.0
H1757 H 0.03203 0.46318 0.11569 0.0
H1758 H 0.9845 0.5135 0.12248 0.0
H1759 H 0.99113 0.54096 0.10894 0.0
H1760 H 0.00608 0.54563 0.13394 0.0
H1761 H 0.04785 0.57162 0.11995 0.0
H1762 H 0.03381 0.56627 0.09454 0.0
H1763 H 0.05609 0.55657 0.10008 0.0
H1764 H 0.01129 0.45642 0.08063 0.0
H1765 H 0.994 0.45937 0.0473 0.0
H1766 H 0.99897 0.53087 0.07064 0.0
C1767 C 0.04393 0.52865 0.14247 0.0
C1768 C 0.05359 0.51478 0.15185 0.0
C1769 C 0.04858 0.49071 0.14232 0.0
C1770 C 0.03498 0.48107 0.1233 0.0
C1771 C 0.02621 0.49554 0.11423 0.0
C1772 C 0.03016 0.51862 0.12365 0.0
C1773 C 0.02017 0.53129 0.11018 0.0
C1774 C 0.99922 0.53293 0.11944 0.0
C1775 C 0.04069 0.55804 0.10592 0.0
C1776 C 0.01077 0.51223 0.0914 0.0
C1777 C 0.0142 0.4916 0.09409 0.0
C1778 C 0.00821 0.47229 0.07845 0.0
C1779 C 0.99858 0.47419 0.05957 0.0
C1780 C 0.99518 0.49529 0.05651 0.0
C1781 C 1.00105 0.51432 0.07271 0.0
H1782 H 0.47268 0.51406 0.14954 0.0
H1783 H 0.49522 0.46214 0.17188 0.0
H1784 H 0.5034 0.4529 0.13743 0.0
H1785 H 0.44298 0.47531 0.10001 0.0
H1786 H 0.45279 0.50349 0.08666 0.0
H1787 H 0.44689 0.50462 0.11279 0.0
H1788 H 0.49078 0.54389 0.12195 0.0
H1789 H 0.49647 0.54292 0.09584 0.0
H1790 H 0.51672 0.54139 0.11507 0.0
H1791 H 0.51309 0.45265 0.10153 0.0
H1792 H 0.52171 0.45985 0.06596 0.0
H1793 H 0.49108 0.51019 0.0663 0.0
C1794 C 0.47907 0.50054 0.14707 0.0
C1795 C 0.48325 0.48872 0.16332 0.0
C1796 C 0.49162 0.47113 0.15958 0.0
C1797 C 0.49636 0.46581 0.14009 0.0
C1798 C 0.49229 0.47792 0.12441 0.0
C1799 C 0.48351 0.49465 0.12759 0.0
C1800 C 0.48132 0.50558 0.10817 0.0
C1801 C 0.4544 0.49672 0.10152 0.0
C1802 C 0.49729 0.53519 0.1104 0.0
C1803 C 0.49118 0.4932 0.09383 0.0
C1804 C 0.49725 0.47719 0.10348 0.0
C1805 C 0.50806 0.46481 0.09371 0.0
C1806 C 0.51295 0.46905 0.07356 0.0
C1807 C 0.50693 0.48541 0.06343 0.0
C1808 C 0.49559 0.49732 0.07363 0.0
H1809 H 0.97981 0.4715 0.85138 0.0
H1810 H 0.97677 0.54203 0.85224 0.0
H1811 H 0.98698 0.54957 0.88931 0.0
H1812 H 0.9538 0.45228 0.89898 0.0
H1813 H 0.97338 0.43969 0.90598 0.0
H1814 H 0.9648 0.43939 0.87968 0.0
H1815 H 0.01066 0.46472 0.87336 0.0
H1816 H 0.01937 0.46522 0.89966 0.0
H1817 H 0.03095 0.49503 0.88822 0.0
H1818 H 0.99958 0.55049 0.92619 0.0
H1819 H 0.01172 0.5435 0.96017 0.0
H1820 H 0.0062 0.47234 0.93505 0.0
C1821 C 0.98129 0.48854 0.85935 0.0
C1822 C 0.97748 0.50617 0.84889 0.0
C1823 C 0.9793 0.52807 0.85994 0.0
C1824 C 0.98524 0.53261 0.88099 0.0
C1825 C 0.98919 0.515 0.89078 0.0
C1826 C 0.98711 0.4933 0.88034 0.0
C1827 C 0.99246 0.47749 0.89439 0.0
C1828 C 0.96975 0.45063 0.89478 0.0
C1829 C 0.01468 0.47551 0.88856 0.0
C1830 C 0.99824 0.49387 0.91432 0.0
C1831 C 0.99622 0.51542 0.91195 0.0
C1832 C 1.00104 0.53359 0.92823 0.0
C1833 C 0.00791 0.52948 0.94744 0.0
C1834 C 0.00964 0.50729 0.95019 0.0
C1835 C 0.00494 0.48944 0.93337 0.0
H1836 H 0.52972 0.46372 0.87881 0.0
H1837 H 0.51455 0.5155 0.84684 0.0
H1838 H 0.5036 0.52947 0.87864 0.0
H1839 H 0.48226 0.44349 0.91123 0.0
H1840 H 0.50042 0.44325 0.93291 0.0
H1841 H 0.50717 0.43763 0.90782 0.0
H1842 H 0.5517 0.47484 0.9161 0.0
H1843 H 0.54561 0.48148 0.94123 0.0
H1844 H 0.55773 0.50666 0.92457 0.0
H1845 H 0.49183 0.53536 0.91412 0.0
H1846 H 0.48303 0.5346 0.95013 0.0
H1847 H 0.50896 0.481 0.95815 0.0
C1848 C 0.52407 0.47799 0.87858 0.0
C1849 C 0.52267 0.48845 0.86055 0.0
C1850 C 0.51558 0.50731 0.86065 0.0
C1851 C 0.50936 0.5153 0.87858 0.0
C1852 C 0.5108 0.50449 0.8962 0.0
C1853 C 0.51827 0.48645 0.89632 0.0
C1854 C 0.51879 0.47804 0.91716 0.0
C1855 C 0.5011 0.44888 0.91727 0.0
C1856 C 0.54501 0.48572 0.92525 0.0
C1857 C 0.50988 0.49366 0.92871 0.0
C1858 C 0.50526 0.50878 0.91648 0.0
C1859 C 0.49569 0.52383 0.92387 0.0
C1860 C 0.49071 0.52327 0.94426 0.0
C1861 C 0.49553 0.50796 0.9569 0.0
C1862 C 0.50538 0.49319 0.94895 0.0
H1863 H 0.49552 0.00683 0.84663 0.0
H1864 H 0.57209 0.06568 0.86081 0.0
H1865 H 0.56938 0.05614 0.89644 0.0
H1866 H 0.47492 0.02096 0.89206 0.0
H1867 H 0.45263 0.98773 0.89428 0.0
H1868 H 0.46098 0.9983 0.86972 0.0
H1869 H 0.4726 0.96308 0.86279 0.0
H1870 H 0.46437 0.95246 0.88737 0.0
H1871 H 0.49456 0.96175 0.88033 0.0
H1872 H 0.5578 0.04169 0.93079 0.0
H1873 H 0.53801 0.0233 0.9612 0.0
H1874 H 0.46927 0.97392 0.9249 0.0
C1875 C 0.51173 0.01785 0.85721 0.0
C1876 C 0.53406 0.03701 0.85086 0.0
C1877 C 0.55488 0.05066 0.8652 0.0
C1878 C 0.55349 0.04548 0.8855 0.0
C1879 C 0.53115 0.0266 0.89122 0.0
C1880 C 0.51064 0.01301 0.87751 0.0
C1881 C 0.48866 0.99417 0.88764 0.0
C1882 C 0.46809 0.00069 0.88581 0.0
C1883 C 0.47952 0.96621 0.87902 0.0
C1884 C 0.49999 0.99939 0.90925 0.0
C1885 C 0.52454 0.01807 0.91096 0.0
C1886 C 0.53872 0.02666 0.92953 0.0
C1887 C 0.52751 0.01578 0.94674 0.0
C1888 C 0.50254 0.99648 0.94535 0.0
C1889 C 0.48857 0.98837 0.92635 0.0
H1890 H 0.13828 0.29709 0.4715 0.0
H1891 H 0.16866 0.37483 0.50095 0.0
H1892 H 0.17874 0.39217 0.46804 0.0
H1893 H 0.18075 0.31072 0.43633 0.0
H1894 H 0.15898 0.28907 0.41578 0.0
H1895 H 0.15286 0.28257 0.44148 0.0
H1896 H 0.11152 0.28106 0.43488 0.0
H1897 H 0.11747 0.2879 0.40914 0.0
H1898 H 0.11103 0.3083 0.42556 0.0
H1899 H 0.18944 0.40144 0.43226 0.0
H1900 H 0.19708 0.40116 0.39607 0.0
H1901 H 0.15666 0.31749 0.38998 0.0
C1902 C 0.1465 0.31771 0.47106 0.0
C1903 C 0.15292 0.33453 0.48901 0.0
C1904 C 0.16406 0.36147 0.48758 0.0
C1905 C 0.16967 0.37156 0.46889 0.0
C1906 C 0.16361 0.35448 0.45161 0.0
C1907 C 0.1519 0.32809 0.45249 0.0
C1908 C 0.14784 0.31394 0.43174 0.0
C1909 C 0.16089 0.29816 0.43132 0.0
C1910 C 0.12033 0.29678 0.42492 0.0
C1911 C 0.15979 0.33653 0.41924 0.0
C1912 C 0.16877 0.35978 0.43092 0.0
C1913 C 0.18208 0.38333 0.42287 0.0
C1914 C 0.1864 0.38303 0.40237 0.0
C1915 C 0.17727 0.35937 0.39023 0.0
C1916 C 0.16355 0.33592 0.39879 0.0
H1917 H 0.70813 0.8321 0.48097 0.0
H1918 H 0.75848 0.91416 0.48015 0.0
H1919 H 0.73867 0.91294 0.44697 0.0
H1920 H 0.70673 0.81327 0.43131 0.0
H1921 H 0.67452 0.7909 0.42455 0.0
H1922 H 0.68783 0.79553 0.45018 0.0
H1923 H 0.66011 0.8091 0.46601 0.0
H1924 H 0.64313 0.80145 0.44151 0.0
H1925 H 0.65473 0.83276 0.4552 0.0
H1926 H 0.71273 0.90419 0.41559 0.0
H1927 H 0.68384 0.88747 0.38502 0.0
H1928 H 0.65236 0.80974 0.40253 0.0
C1929 C 0.71478 0.84978 0.4738 0.0
C1930 C 0.73501 0.87322 0.48304 0.0
C1931 C 0.7433 0.89595 0.47321 0.0
C1932 C 0.73208 0.89549 0.45442 0.0
C1933 C 0.71256 0.87212 0.44555 0.0
C1934 C 0.70382 0.84964 0.45481 0.0
C1935 C 0.68269 0.82715 0.4415 0.0
C1936 C 0.68825 0.80543 0.43653 0.0
C1937 C 0.65875 0.81702 0.45166 0.0
C1938 C 0.68184 0.84043 0.42296 0.0
C1939 C 0.69874 0.86655 0.42615 0.0
C1940 C 0.69994 0.88369 0.41258 0.0
C1941 C 0.68352 0.87396 0.39516 0.0
C1942 C 0.66673 0.84721 0.39092 0.0
C1943 C 0.66575 0.83014 0.40505 0.0
H1944 H 0.17785 0.88034 0.48836 0.0
H1945 H 0.10734 0.81004 0.48692 0.0
H1946 H 0.10872 0.80013 0.45071 0.0
H1947 H 0.16787 0.89591 0.43776 0.0
H1948 H 0.19917 0.90797 0.43249 0.0
H1949 H 0.19214 0.91028 0.45814 0.0
H1950 H 0.2143 0.88585 0.46879 0.0
H1951 H 0.2212 0.88328 0.44315 0.0
H1952 H 0.20494 0.85463 0.45587 0.0
H1953 H 0.11861 0.79629 0.41544 0.0
H1954 H 0.13521 0.8003 0.38234 0.0
H1955 H 0.19914 0.8733 0.40596 0.0
C1956 C 0.16267 0.86292 0.4804 0.0
C1957 C 0.14241 0.84604 0.4905 0.0
C1958 C 0.12284 0.82351 0.47948 0.0
C1959 C 0.12354 0.81759 0.45893 0.0
C1960 C 0.14389 0.83442 0.44954 0.0
C1961 C 0.16301 0.85676 0.4598 0.0
C1962 C 0.18279 0.8714 0.44605 0.0
C1963 C 0.18565 0.89796 0.44346 0.0
C1964 C 0.20725 0.87393 0.45394 0.0
C1965 C 0.17196 0.85356 0.42657 0.0
C1966 C 0.1495 0.83235 0.42897 0.0
C1967 C 0.13607 0.81291 0.41331 0.0
C1968 C 0.14566 0.81536 0.39459 0.0
C1969 C 0.16829 0.83723 0.39158 0.0
C1970 C 0.18175 0.85642 0.40786 0.0
H1971 H 0.64561 0.80341 0.18573 0.0
H1972 H 0.63303 0.86803 0.18664 0.0
H1973 H 0.64179 0.87524 0.22385 0.0
H1974 H 0.61808 0.77993 0.23207 0.0
H1975 H 0.63997 0.7706 0.23995 0.0
H1976 H 0.63234 0.77027 0.21341 0.0
H1977 H 0.6783 0.80044 0.20909 0.0
H1978 H 0.68604 0.80092 0.23562 0.0
H1979 H 0.69539 0.83078 0.22471 0.0
H1980 H 0.65354 0.8766 0.26056 0.0
H1981 H 0.66557 0.87075 0.29481 0.0
H1982 H 0.66935 0.80437 0.27048 0.0
C1983 C 0.64477 0.8191 0.19379 0.0
C1984 C 0.63869 0.83521 0.18333 0.0
C1985 C 0.63745 0.85534 0.19439 0.0
C1986 C 0.6425 0.85965 0.21549 0.0
C1987 C 0.64856 0.84352 0.22531 0.0
C1988 C 0.64952 0.82351 0.21488 0.0
C1989 C 0.65633 0.8089 0.22916 0.0
C1990 C 0.63543 0.78076 0.22861 0.0
C1991 C 0.68045 0.81036 0.22435 0.0
C1992 C 0.65942 0.82407 0.24921 0.0
C1993 C 0.65486 0.84396 0.24661 0.0
C1994 C 0.65697 0.86097 0.2628 0.0
C1995 C 0.66378 0.85747 0.28219 0.0
C1996 C 0.66812 0.83696 0.28527 0.0
C1997 C 0.66602 0.82014 0.26854 0.0
H1998 H 0.17839 0.78884 0.203 0.0
H1999 H 0.2195 0.86898 0.19092 0.0
H2000 H 0.20585 0.88157 0.22155 0.0
H2001 H 0.1267 0.78881 0.22235 0.0
H2002 H 0.12444 0.76837 0.24181 0.0
H2003 H 0.13681 0.7658 0.21862 0.0
H2004 H 0.17581 0.77325 0.23916 0.0
H2005 H 0.16488 0.77744 0.26267 0.0
H2006 H 0.1938 0.80237 0.25609 0.0
H2007 H 0.1898 0.88543 0.25498 0.0
H2008 H 0.17114 0.88002 0.28743 0.0
H2009 H 0.13936 0.79722 0.2767 0.0
C2010 C 0.18452 0.80906 0.20673 0.0
C2011 C 0.20003 0.82793 0.19453 0.0
C2012 C 0.20743 0.85415 0.19991 0.0
C2013 C 0.19984 0.86148 0.21733 0.0
C2014 C 0.18469 0.84234 0.22909 0.0
C2015 C 0.17704 0.81667 0.22392 0.0
C2016 C 0.16169 0.79994 0.23947 0.0
C2017 C 0.13588 0.77953 0.22999 0.0
C2018 C 0.17484 0.7875 0.24994 0.0
C2019 C 0.16105 0.82 0.25389 0.0
C2020 C 0.17486 0.84445 0.24786 0.0
C2021 C 0.17856 0.86633 0.25961 0.0
C2022 C 0.16788 0.8631 0.27794 0.0
C2023 C 0.15331 0.83819 0.28412 0.0
C2024 C 0.14973 0.81638 0.27189 0.0
H2025 H 0.20259 0.3686 0.20167 0.0
H2026 H 0.15211 0.29279 0.17065 0.0
H2027 H 0.14291 0.27484 0.20349 0.0
H2028 H 0.22527 0.34594 0.24414 0.0
H2029 H 0.22684 0.37026 0.26239 0.0
H2030 H 0.23169 0.37674 0.23643 0.0
H2031 H 0.19703 0.38795 0.23442 0.0
H2032 H 0.19253 0.38182 0.26038 0.0
H2033 H 0.16712 0.36488 0.2411 0.0
H2034 H 0.13635 0.26578 0.23949 0.0
H2035 H 0.13223 0.26674 0.27625 0.0
H2036 H 0.18716 0.34817 0.28395 0.0
C2037 C 0.19004 0.34813 0.20182 0.0
C2038 C 0.17802 0.33209 0.18361 0.0
C2039 C 0.16132 0.30548 0.18442 0.0
C2040 C 0.15614 0.29506 0.20299 0.0
C2041 C 0.16792 0.31144 0.22067 0.0
C2042 C 0.18461 0.33739 0.22027 0.0
C2043 C 0.19334 0.35112 0.24151 0.0
C2044 C 0.22092 0.36163 0.2464 0.0
C2045 C 0.18711 0.3727 0.24452 0.0
C2046 C 0.17834 0.32899 0.25379 0.0
C2047 C 0.16408 0.30619 0.24151 0.0
C2048 C 0.14767 0.28344 0.24931 0.0
C2049 C 0.14543 0.28415 0.27017 0.0
C2050 C 0.15942 0.30746 0.2829 0.0
C2051 C 0.17642 0.32998 0.27461 0.0
H2052 H 0.79788 0.62309 0.80702 0.0
H2053 H 0.83797 0.70016 0.83873 0.0
H2054 H 0.84919 0.71855 0.80624 0.0
H2055 H 0.83969 0.63306 0.77057 0.0
H2056 H 0.81661 0.61399 0.74994 0.0
H2057 H 0.81035 0.60683 0.77554 0.0
H2058 H 0.77185 0.61143 0.77067 0.0
H2059 H 0.77807 0.61862 0.74503 0.0
H2060 H 0.77489 0.64076 0.76235 0.0
H2061 H 0.85833 0.72857 0.7706 0.0
H2062 H 0.86419 0.72925 0.73411 0.0
H2063 H 0.81776 0.64595 0.72541 0.0
C2064 C 0.80892 0.64383 0.80709 0.0
C2065 C 0.81692 0.6602 0.82545 0.0
C2066 C 0.83129 0.68726 0.82488 0.0
C2067 C 0.83784 0.6979 0.80649 0.0
C2068 C 0.82973 0.68128 0.78871 0.0
C2069 C 0.81544 0.65483 0.7888 0.0
C2070 C 0.80966 0.64128 0.76755 0.0
C2071 C 0.81968 0.6227 0.76581 0.0
C2072 C 0.78197 0.62719 0.76102 0.0
C2073 C 0.8235 0.66419 0.75564 0.0
C2074 C 0.83481 0.6871 0.7681 0.0
C2075 C 0.84938 0.71077 0.76066 0.0
C2076 C 0.85263 0.71099 0.73995 0.0
C2077 C 0.84137 0.68772 0.72698 0.0
C2078 C 0.82643 0.66409 0.73495 0.0
H2079 H 0.36503 0.14866 0.80833 0.0
H2080 H 0.36248 0.21394 0.83699 0.0
H2081 H 0.33984 0.21497 0.80615 0.0
H2082 H 0.37798 0.17068 0.76305 0.0
H2083 H 0.35947 0.14074 0.74703 0.0
H2084 H 0.37051 0.14038 0.7724 0.0
H2085 H 0.32672 0.11042 0.7815 0.0
H2086 H 0.31511 0.10931 0.75589 0.0
H2087 H 0.30347 0.11891 0.7768 0.0
H2088 H 0.32355 0.21355 0.77101 0.0
H2089 H 0.31264 0.20827 0.73419 0.0
H2090 H 0.32559 0.14401 0.72768 0.0
C2091 C 0.35909 0.16269 0.80828 0.0
C2092 C 0.36537 0.18108 0.82516 0.0
C2093 C 0.35747 0.19931 0.82445 0.0
C2094 C 0.34466 0.20012 0.80694 0.0
C2095 C 0.33953 0.18233 0.79034 0.0
C2096 C 0.34604 0.1636 0.79096 0.0
C2097 C 0.34024 0.14829 0.77044 0.0
C2098 C 0.36344 0.15012 0.76275 0.0
C2099 C 0.32019 0.12005 0.77121 0.0
C2100 C 0.3309 0.16238 0.75792 0.0
C2101 C 0.33019 0.18161 0.76982 0.0
C2102 C 0.32358 0.19825 0.76159 0.0
C2103 C 0.31752 0.19518 0.74066 0.0
C2104 C 0.31829 0.17576 0.72814 0.0
C2105 C 0.32484 0.159 0.73693 0.0
H2106 H 0.83701 0.1543 0.82378 0.0
H2107 H 0.79743 0.19604 0.82347 0.0
H2108 H 0.80034 0.19861 0.78692 0.0
H2109 H 0.87959 0.19171 0.78979 0.0
H2110 H 0.88074 0.16497 0.77722 0.0
H2111 H 0.87389 0.16438 0.80316 0.0
H2112 H 0.83355 0.12084 0.79378 0.0
H2113 H 0.84028 0.12129 0.76779 0.0
H2114 H 0.81169 0.11837 0.77396 0.0
H2115 H 0.80925 0.19899 0.75112 0.0
H2116 H 0.82388 0.19736 0.71791 0.0
H2117 H 0.85869 0.15625 0.74073 0.0
C2118 C 0.82892 0.16397 0.81606 0.0
C2119 C 0.81673 0.17471 0.82662 0.0
C2120 C 0.80632 0.18707 0.81578 0.0
C2121 C 0.80803 0.18881 0.79499 0.0
C2122 C 0.82028 0.1782 0.78516 0.0
C2123 C 0.83057 0.16603 0.79526 0.0
C2124 C 0.84361 0.15722 0.78113 0.0
C2125 C 0.87109 0.17036 0.78825 0.0
C2126 C 0.83155 0.12767 0.77904 0.0
C2127 C 0.83933 0.16673 0.76159 0.0
C2128 C 0.82566 0.1786 0.76431 0.0
C2129 C 0.81978 0.18956 0.74875 0.0
C2130 C 0.82815 0.18847 0.72991 0.0
C2131 C 0.84221 0.17646 0.72669 0.0
C2132 C 0.84782 0.16538 0.74275 0.0
H2133 H 0.30066 0.18284 0.5326 0.0
H2134 H 0.27199 0.10166 0.51393 0.0
H2135 H 0.27831 0.09438 0.54924 0.0
H2136 H 0.34764 0.19157 0.56716 0.0
H2137 H 0.34491 0.21285 0.58576 0.0
H2138 H 0.33527 0.21135 0.55954 0.0
H2139 H 0.29192 0.20011 0.56866 0.0
H2140 H 0.30178 0.20212 0.59496 0.0
H2141 H 0.2751 0.17325 0.58309 0.0
H2142 H 0.29274 0.09682 0.58512 0.0
H2143 H 0.31211 0.10841 0.62025 0.0
H2144 H 0.33009 0.18761 0.61663 0.0
C2145 C 0.29534 0.16348 0.53605 0.0
C2146 C 0.28572 0.14277 0.52056 0.0
C2147 C 0.27902 0.1177 0.5256 0.0
C2148 C 0.2826 0.11339 0.5456 0.0
C2149 C 0.29256 0.13427 0.56045 0.0
C2150 C 0.29849 0.15876 0.55603 0.0
C2151 C 0.31009 0.17804 0.57472 0.0
C2152 C 0.33601 0.19972 0.5716 0.0
C2153 C 0.29374 0.18901 0.58071 0.0
C2154 C 0.31082 0.16076 0.59005 0.0
C2155 C 0.30041 0.13555 0.58149 0.0
C2156 C 0.30055 0.11638 0.59211 0.0
C2157 C 0.31174 0.12317 0.61197 0.0
C2158 C 0.32242 0.14883 0.62103 0.0
C2159 C 0.32167 0.16778 0.61005 0.0
H2160 H 0.89148 0.14177 0.54874 0.0
H2161 H 0.84822 0.15815 0.50604 0.0
H2162 H 0.83379 0.17398 0.53447 0.0
H2163 H 0.84694 0.11704 0.58384 0.0
H2164 H 0.8687 0.12996 0.60601 0.0
H2165 H 0.8774 0.12223 0.58244 0.0
H2166 H 0.91416 0.16909 0.58411 0.0
H2167 H 0.90557 0.17656 0.60783 0.0
H2168 H 0.90878 0.19578 0.58725 0.0
H2169 H 0.8236 0.18712 0.56756 0.0
H2170 H 0.81548 0.19312 0.60287 0.0
H2171 H 0.86359 0.1656 0.6237 0.0
C2172 C 0.87919 0.14901 0.54549 0.0
C2173 C 0.87104 0.14913 0.5254 0.0
C2174 C 0.85464 0.15816 0.52147 0.0
C2175 C 0.84649 0.16723 0.53746 0.0
C2176 C 0.85481 0.16686 0.5572 0.0
C2177 C 0.87062 0.15775 0.56128 0.0
C2178 C 0.87539 0.15764 0.58379 0.0
C2179 C 0.86658 0.13008 0.58934 0.0
C2180 C 0.9026 0.17587 0.59116 0.0
C2181 C 0.85964 0.1679 0.59174 0.0
C2182 C 0.84822 0.17349 0.5762 0.0
C2183 C 0.83248 0.18287 0.57986 0.0
C2184 C 0.82801 0.18625 0.59992 0.0
C2185 C 0.83898 0.17989 0.61593 0.0
C2186 C 0.85515 0.17085 0.61175 0.0
H2187 H 0.85661 0.7082 0.53618 0.0
H2188 H 0.81838 0.63064 0.50532 0.0
H2189 H 0.80892 0.61267 0.53813 0.0
H2190 H 0.88265 0.69354 0.58018 0.0
H2191 H 0.87851 0.71458 0.59798 0.0
H2192 H 0.88351 0.72204 0.57224 0.0
H2193 H 0.84351 0.72357 0.56796 0.0
H2194 H 0.83836 0.71662 0.59374 0.0
H2195 H 0.81516 0.69635 0.57352 0.0
H2196 H 0.80157 0.60298 0.57388 0.0
H2197 H 0.7968 0.60238 0.61053 0.0
H2198 H 0.83997 0.68599 0.61847 0.0
C2199 C 0.84656 0.68744 0.53639 0.0
C2200 C 0.83817 0.6708 0.51819 0.0
C2201 C 0.82476 0.64374 0.51906 0.0
C2202 C 0.81942 0.63335 0.53763 0.0
C2203 C 0.82763 0.65023 0.55526 0.0
C2204 C 0.84093 0.6767 0.55486 0.0
C2205 C 0.84669 0.6905 0.57602 0.0
C2206 C 0.87449 0.70608 0.58196 0.0
C2207 C 0.83524 0.70777 0.57791 0.0
C2208 C 0.83427 0.66763 0.58827 0.0
C2209 C 0.8235 0.64459 0.57599 0.0
C2210 C 0.8101 0.62088 0.58369 0.0
C2211 C 0.80746 0.6207 0.60449 0.0
C2212 C 0.81814 0.64407 0.61729 0.0
C2213 C 0.83188 0.66779 0.60906 0.0
loop_
_geom_bond_atom_site_label_1
_geom_bond_atom_site_label_2
_geom_bond_distance
_geom_bond_site_symmetry_2
_ccdc_geom_bond_type
P0 O11 1.490 . S
P0 C14 1.812 . S
P0 C20 1.803 . S
P0 C26 1.819 . S
H1 C15 0.941 . S
H2 C16 0.939 . S
H3 C18 0.940 . S
H4 C19 0.940 . S
H5 C21 0.939 . S
H6 C22 0.942 . S
H7 C24 0.940 . S
H8 C25 0.939 . S
H9 C27 0.941 . S
H10 C31 0.939 . S
O11 P0 1.490 . S
H12 C28 0.939 . S
H13 C30 0.940 . S
C14 P0 1.812 . S
C14 C15 1.389 . S
C14 C19 1.391 . S
C15 H1 0.941 . S
C15 C14 1.389 . S
C15 C16 1.397 . S
C16 H2 0.939 . S
C16 C15 1.397 . S
C16 C17 1.378 . S
C17 C16 1.378 . S
C17 C18 1.378 . S
C18 H3 0.940 . S
C18 C17 1.378 . S
C18 C19 1.396 . S
C19 H4 0.940 . S
C19 C14 1.391 . S
C19 C18 1.396 . S
C20 P0 1.803 . S
C20 C21 1.378 . S
C20 C25 1.400 . S
C21 H5 0.939 . S
C21 C20 1.378 . S
C21 C22 1.361 . S
C22 H6 0.942 . S
C22 C21 1.361 . S
C22 C23 1.369 . S
C23 C22 1.369 . S
C23 C24 1.404 . S
C24 H7 0.940 . S
C24 C23 1.404 . S
C24 C25 1.389 . S
C25 H8 0.939 . S
C25 C20 1.400 . S
C25 C24 1.389 . S
C26 P0 1.819 . S
C26 C27 1.391 . S
C26 C31 1.391 . S
C27 H9 0.941 . S
C27 C26 1.391 . S
C27 C28 1.396 . S
C28 H12 0.939 . S
C28 C27 1.396 . S
C28 C29 1.397 . S
C29 C28 1.397 . S
C29 C30 1.385 . S
C30 H13 0.940 . S
C30 C29 1.385 . S
C30 C31 1.388 . S
C31 H10 0.939 . S
C31 C26 1.391 . S
C31 C30 1.388 . S
P32 O43 1.490 . S
P32 C46 1.812 . S
P32 C52 1.803 . S
P32 C58 1.819 . S
H33 C47 0.941 . S
H34 C48 0.939 . S
H35 C50 0.940 . S
H36 C51 0.940 . S
H37 C53 0.939 . S
H38 C54 0.942 . S
H39 C56 0.940 . S
H40 C57 0.939 . S
H41 C59 0.941 . S
H42 C63 0.939 . S
O43 P32 1.490 . S
H44 C60 0.939 . S
H45 C62 0.940 . S
C46 P32 1.812 . S
C46 C47 1.389 . S
C46 C51 1.391 . S
C47 H33 0.941 . S
C47 C46 1.389 . S
C47 C48 1.397 . S
C48 H34 0.939 . S
C48 C47 1.397 . S
C48 C49 1.378 . S
C49 C48 1.378 . S
C49 C50 1.378 . S
C50 H35 0.940 . S
C50 C49 1.378 . S
C50 C51 1.396 . S
C51 H36 0.940 . S
C51 C46 1.391 . S
C51 C50 1.396 . S
C52 P32 1.803 . S
C52 C53 1.378 . S
C52 C57 1.400 . S
C53 H37 0.939 . S
C53 C52 1.378 . S
C53 C54 1.361 . S
C54 H38 0.942 . S
C54 C53 1.361 . S
C54 C55 1.369 . S
C55 C54 1.369 . S
C55 C56 1.404 . S
C56 H39 0.940 . S
C56 C55 1.404 . S
C56 C57 1.389 . S
C57 H40 0.939 . S
C57 C52 1.400 . S
C57 C56 1.389 . S
C58 P32 1.819 . S
C58 C59 1.391 . S
C58 C63 1.391 . S
C59 H41 0.941 . S
C59 C58 1.391 . S
C59 C60 1.396 . S
C60 H44 0.939 . S
C60 C59 1.396 . S
C60 C61 1.397 . S
C61 C60 1.397 . S
C61 C62 1.385 . S
C62 H45 0.940 . S
C62 C61 1.385 . S
C62 C63 1.388 . S
C63 H42 0.939 . S
C63 C58 1.391 . S
C63 C62 1.388 . S
P64 O75 1.490 . S
P64 C78 1.812 . S
P64 C84 1.803 . S
P64 C90 1.819 . S
H65 C79 0.941 . S
H66 C80 0.939 . S
H67 C82 0.940 . S
H68 C83 0.940 . S
H69 C85 0.939 . S
H70 C86 0.942 . S
H71 C88 0.940 . S
H72 C89 0.939 . S
H73 C91 0.941 . S
H74 C95 0.939 . S
O75 P64 1.490 . S
H76 C92 0.939 . S
H77 C94 0.940 . S
C78 P64 1.812 . S
C78 C79 1.389 . S
C78 C83 1.391 . S
C79 H65 0.941 . S
C79 C78 1.389 . S
C79 C80 1.397 . S
C80 H66 0.939 . S
C80 C79 1.397 . S
C80 C81 1.378 . S
C81 C80 1.378 . S
C81 C82 1.378 . S
C82 H67 0.940 . S
C82 C81 1.378 . S
C82 C83 1.396 . S
C83 H68 0.940 . S
C83 C78 1.391 . S
C83 C82 1.396 . S
C84 P64 1.803 . S
C84 C85 1.378 . S
C84 C89 1.400 . S
C85 H69 0.939 . S
C85 C84 1.378 . S
C85 C86 1.361 . S
C86 H70 0.942 . S
C86 C85 1.361 . S
C86 C87 1.369 . S
C87 C86 1.369 . S
C87 C88 1.404 . S
C88 H71 0.940 . S
C88 C87 1.404 . S
C88 C89 1.389 . S
C89 H72 0.939 . S
C89 C84 1.400 . S
C89 C88 1.389 . S
C90 P64 1.819 . S
C90 C91 1.391 . S
C90 C95 1.391 . S
C91 H73 0.941 . S
C91 C90 1.391 . S
C91 C92 1.396 . S
C92 H76 0.939 . S
C92 C91 1.396 . S
C92 C93 1.397 . S
C93 C92 1.397 . S
C93 C94 1.385 . S
C94 H77 0.940 . S
C94 C93 1.385 . S
C94 C95 1.388 . S
C95 H74 0.939 . S
C95 C90 1.391 . S
C95 C94 1.388 . S
P96 O107 1.490 . S
P96 C110 1.812 . S
P96 C116 1.803 . S
P96 C122 1.819 . S
H97 C111 0.941 . S
H98 C112 0.939 . S
H99 C114 0.940 . S
H100 C115 0.940 . S
H101 C117 0.939 . S
H102 C118 0.942 . S
H103 C120 0.940 . S
H104 C121 0.939 . S
H105 C123 0.941 . S
H106 C127 0.939 . S
O107 P96 1.490 . S
H108 C124 0.939 . S
H109 C126 0.940 . S
C110 P96 1.812 . S
C110 C111 1.389 . S
C110 C115 1.391 . S
C111 H97 0.941 . S
C111 C110 1.389 . S
C111 C112 1.397 . S
C112 H98 0.939 . S
C112 C111 1.397 . S
C112 C113 1.378 . S
C113 C112 1.378 . S
C113 C114 1.378 . S
C114 H99 0.940 . S
C114 C113 1.378 . S
C114 C115 1.396 . S
C115 H100 0.940 . S
C115 C110 1.391 . S
C115 C114 1.396 . S
C116 P96 1.803 . S
C116 C117 1.378 . S
C116 C121 1.400 . S
C117 H101 0.939 . S
C117 C116 1.378 . S
C117 C118 1.361 . S
C118 H102 0.942 . S
C118 C117 1.361 . S
C118 C119 1.369 . S
C119 C118 1.369 . S
C119 C120 1.404 . S
C120 H103 0.940 . S
C120 C119 1.404 . S
C120 C121 1.389 . S
C121 H104 0.939 . S
C121 C116 1.400 . S
C121 C120 1.389 . S
C122 P96 1.819 . S
C122 C123 1.391 . S
C122 C127 1.391 . S
C123 H105 0.941 . S
C123 C122 1.391 . S
C123 C124 1.396 . S
C124 H108 0.939 . S
C124 C123 1.396 . S
C124 C125 1.397 . S
C125 C124 1.397 . S
C125 C126 1.385 . S
C126 H109 0.940 . S
C126 C125 1.385 . S
C126 C127 1.388 . S
C127 H106 0.939 . S
C127 C122 1.391 . S
C127 C126 1.388 . S
P128 O139 1.490 . S
P128 C142 1.812 . S
P128 C148 1.803 . S
P128 C154 1.819 . S
H129 C143 0.941 . S
H130 C144 0.939 . S
H131 C146 0.940 . S
H132 C147 0.940 . S
H133 C149 0.939 . S
H134 C150 0.942 . S
H135 C152 0.940 . S
H136 C153 0.939 . S
H137 C155 0.941 . S
H138 C159 0.939 . S
O139 P128 1.490 . S
H140 C156 0.939 . S
H141 C158 0.940 . S
C142 P128 1.812 . S
C142 C143 1.389 . S
C142 C147 1.391 . S
C143 H129 0.941 . S
C143 C142 1.389 . S
C143 C144 1.397 . S
C144 H130 0.939 . S
C144 C143 1.397 . S
C144 C145 1.378 . S
C145 C144 1.378 . S
C145 C146 1.378 . S
C146 H131 0.940 . S
C146 C145 1.378 . S
C146 C147 1.396 . S
C147 H132 0.940 . S
C147 C142 1.391 . S
C147 C146 1.396 . S
C148 P128 1.803 . S
C148 C149 1.378 . S
C148 C153 1.400 . S
C149 H133 0.939 . S
C149 C148 1.378 . S
C149 C150 1.361 . S
C150 H134 0.942 . S
C150 C149 1.361 . S
C150 C151 1.369 . S
C151 C150 1.369 . S
C151 C152 1.404 . S
C152 H135 0.940 . S
C152 C151 1.404 . S
C152 C153 1.389 . S
C153 H136 0.939 . S
C153 C148 1.400 . S
C153 C152 1.389 . S
C154 P128 1.819 . S
C154 C155 1.391 . S
C154 C159 1.391 . S
C155 H137 0.941 . S
C155 C154 1.391 . S
C155 C156 1.396 . S
C156 H140 0.939 . S
C156 C155 1.396 . S
C156 C157 1.397 . S
C157 C156 1.397 . S
C157 C158 1.385 . S
C158 H141 0.940 . S
C158 C157 1.385 . S
C158 C159 1.388 . S
C159 H138 0.939 . S
C159 C154 1.391 . S
C159 C158 1.388 . S
P160 O171 1.490 . S
P160 C174 1.812 . S
P160 C180 1.803 . S
P160 C186 1.819 . S
H161 C175 0.941 . S
H162 C176 0.939 . S
H163 C178 0.940 . S
H164 C179 0.940 . S
H165 C181 0.939 . S
H166 C182 0.942 . S
H167 C184 0.940 . S
H168 C185 0.939 . S
H169 C187 0.941 . S
H170 C191 0.939 . S
O171 P160 1.490 . S
H172 C188 0.939 . S
H173 C190 0.940 . S
C174 P160 1.812 . S
C174 C175 1.389 . S
C174 C179 1.391 . S
C175 H161 0.941 . S
C175 C174 1.389 . S
C175 C176 1.397 . S
C176 H162 0.939 . S
C176 C175 1.397 . S
C176 C177 1.378 . S
C177 C176 1.378 . S
C177 C178 1.378 . S
C178 H163 0.940 . S
C178 C177 1.378 . S
C178 C179 1.396 . S
C179 H164 0.940 . S
C179 C174 1.391 . S
C179 C178 1.396 . S
C180 P160 1.803 . S
C180 C181 1.378 . S
C180 C185 1.400 . S
C181 H165 0.939 . S
C181 C180 1.378 . S
C181 C182 1.361 . S
C182 H166 0.942 . S
C182 C181 1.361 . S
C182 C183 1.369 . S
C183 C182 1.369 . S
C183 C184 1.404 . S
C184 H167 0.940 . S
C184 C183 1.404 . S
C184 C185 1.389 . S
C185 H168 0.939 . S
C185 C180 1.400 . S
C185 C184 1.389 . S
C186 P160 1.819 . S
C186 C187 1.391 . S
C186 C191 1.391 . S
C187 H169 0.941 . S
C187 C186 1.391 . S
C187 C188 1.396 . S
C188 H172 0.939 . S
C188 C187 1.396 . S
C188 C189 1.397 . S
C189 C188 1.397 . S
C189 C190 1.385 . S
C190 H173 0.940 . S
C190 C189 1.385 . S
C190 C191 1.388 . S
C191 H170 0.939 . S
C191 C186 1.391 . S
C191 C190 1.388 . S
P192 O203 1.490 . S
P192 C206 1.812 . S
P192 C212 1.803 . S
P192 C218 1.819 . S
H193 C207 0.941 . S
H194 C208 0.939 . S
H195 C210 0.940 . S
H196 C211 0.940 . S
H197 C213 0.939 . S
H198 C214 0.942 . S
H199 C216 0.940 . S
H200 C217 0.939 . S
H201 C219 0.941 . S
H202 C223 0.939 . S
O203 P192 1.490 . S
H204 C220 0.939 . S
H205 C222 0.940 . S
C206 P192 1.812 . S
C206 C207 1.389 . S
C206 C211 1.391 . S
C207 H193 0.941 . S
C207 C206 1.389 . S
C207 C208 1.397 . S
C208 H194 0.939 . S
C208 C207 1.397 . S
C208 C209 1.378 . S
C209 C208 1.378 . S
C209 C210 1.378 . S
C210 H195 0.940 . S
C210 C209 1.378 . S
C210 C211 1.396 . S
C211 H196 0.940 . S
C211 C206 1.391 . S
C211 C210 1.396 . S
C212 P192 1.803 . S
C212 C213 1.378 . S
C212 C217 1.400 . S
C213 H197 0.939 . S
C213 C212 1.378 . S
C213 C214 1.361 . S
C214 H198 0.942 . S
C214 C213 1.361 . S
C214 C215 1.369 . S
C215 C214 1.369 . S
C215 C216 1.404 . S
C216 H199 0.940 . S
C216 C215 1.404 . S
C216 C217 1.389 . S
C217 H200 0.939 . S
C217 C212 1.400 . S
C217 C216 1.389 . S
C218 P192 1.819 . S
C218 C219 1.391 . S
C218 C223 1.391 . S
C219 H201 0.941 . S
C219 C218 1.391 . S
C219 C220 1.396 . S
C220 H204 0.939 . S
C220 C219 1.396 . S
C220 C221 1.397 . S
C221 C220 1.397 . S
C221 C222 1.385 . S
C222 H205 0.940 . S
C222 C221 1.385 . S
C222 C223 1.388 . S
C223 H202 0.939 . S
C223 C218 1.391 . S
C223 C222 1.388 . S
P224 O235 1.490 . S
P224 C238 1.812 . S
P224 C244 1.803 . S
P224 C250 1.819 . S
H225 C239 0.941 . S
H226 C240 0.939 . S
H227 C242 0.940 . S
H228 C243 0.940 . S
H229 C245 0.939 . S
H230 C246 0.942 . S
H231 C248 0.940 . S
H232 C249 0.939 . S
H233 C251 0.941 . S
H234 C255 0.939 . S
O235 P224 1.490 . S
H236 C252 0.939 . S
H237 C254 0.940 . S
C238 P224 1.812 . S
C238 C239 1.389 . S
C238 C243 1.391 . S
C239 H225 0.941 . S
C239 C238 1.389 . S
C239 C240 1.397 . S
C240 H226 0.939 . S
C240 C239 1.397 . S
C240 C241 1.378 . S
C241 C240 1.378 . S
C241 C242 1.378 . S
C242 H227 0.940 . S
C242 C241 1.378 . S
C242 C243 1.396 . S
C243 H228 0.940 . S
C243 C238 1.391 . S
C243 C242 1.396 . S
C244 P224 1.803 . S
C244 C245 1.378 . S
C244 C249 1.400 . S
C245 H229 0.939 . S
C245 C244 1.378 . S
C245 C246 1.361 . S
C246 H230 0.942 . S
C246 C245 1.361 . S
C246 C247 1.369 . S
C247 C246 1.369 . S
C247 C248 1.404 . S
C248 H231 0.940 . S
C248 C247 1.404 . S
C248 C249 1.389 . S
C249 H232 0.939 . S
C249 C244 1.400 . S
C249 C248 1.389 . S
C250 P224 1.819 . S
C250 C251 1.391 . S
C250 C255 1.391 . S
C251 H233 0.941 . S
C251 C250 1.391 . S
C251 C252 1.396 . S
C252 H236 0.939 . S
C252 C251 1.396 . S
C252 C253 1.397 . S
C253 C252 1.397 . S
C253 C254 1.385 . S
C254 H237 0.940 . S
C254 C253 1.385 . S
C254 C255 1.388 . S
C255 H234 0.939 . S
C255 C250 1.391 . S
C255 C254 1.388 . S
P256 O267 1.490 . S
P256 C270 1.812 . S
P256 C276 1.803 . S
P256 C282 1.819 . S
H257 C271 0.941 . S
H258 C272 0.939 . S
H259 C274 0.940 . S
H260 C275 0.940 . S
H261 C277 0.939 . S
H262 C278 0.942 . S
H263 C280 0.940 . S
H264 C281 0.939 . S
H265 C283 0.941 . S
H266 C287 0.939 . S
O267 P256 1.490 . S
H268 C284 0.939 . S
H269 C286 0.940 . S
C270 P256 1.812 . S
C270 C271 1.389 . S
C270 C275 1.391 . S
C271 H257 0.941 . S
C271 C270 1.389 . S
C271 C272 1.397 . S
C272 H258 0.939 . S
C272 C271 1.397 . S
C272 C273 1.378 . S
C273 C272 1.378 . S
C273 C274 1.378 . S
C274 H259 0.940 . S
C274 C273 1.378 . S
C274 C275 1.396 . S
C275 H260 0.940 . S
C275 C270 1.391 . S
C275 C274 1.396 . S
C276 P256 1.803 . S
C276 C277 1.378 . S
C276 C281 1.400 . S
C277 H261 0.939 . S
C277 C276 1.378 . S
C277 C278 1.361 . S
C278 H262 0.942 . S
C278 C277 1.361 . S
C278 C279 1.369 . S
C279 C278 1.369 . S
C279 C280 1.404 . S
C280 H263 0.940 . S
C280 C279 1.404 . S
C280 C281 1.389 . S
C281 H264 0.939 . S
C281 C276 1.400 . S
C281 C280 1.389 . S
C282 P256 1.819 . S
C282 C283 1.391 . S
C282 C287 1.391 . S
C283 H265 0.941 . S
C283 C282 1.391 . S
C283 C284 1.396 . S
C284 H268 0.939 . S
C284 C283 1.396 . S
C284 C285 1.397 . S
C285 C284 1.397 . S
C285 C286 1.385 . S
C286 H269 0.940 . S
C286 C285 1.385 . S
C286 C287 1.388 . S
C287 H266 0.939 . S
C287 C282 1.391 . S
C287 C286 1.388 . S
P288 O299 1.490 . S
P288 C302 1.812 . S
P288 C308 1.803 . S
P288 C314 1.819 . S
H289 C303 0.941 . S
H290 C304 0.939 . S
H291 C306 0.940 . S
H292 C307 0.940 . S
H293 C309 0.939 . S
H294 C310 0.942 . S
H295 C312 0.940 . S
H296 C313 0.939 . S
H297 C315 0.941 . S
H298 C319 0.939 . S
O299 P288 1.490 . S
H300 C316 0.939 . S
H301 C318 0.940 . S
C302 P288 1.812 . S
C302 C303 1.389 . S
C302 C307 1.391 . S
C303 H289 0.941 . S
C303 C302 1.389 . S
C303 C304 1.397 . S
C304 H290 0.939 . S
C304 C303 1.397 . S
C304 C305 1.378 . S
C305 C304 1.378 . S
C305 C306 1.378 . S
C306 H291 0.940 . S
C306 C305 1.378 . S
C306 C307 1.396 . S
C307 H292 0.940 . S
C307 C302 1.391 . S
C307 C306 1.396 . S
C308 P288 1.803 . S
C308 C309 1.378 . S
C308 C313 1.400 . S
C309 H293 0.939 . S
C309 C308 1.378 . S
C309 C310 1.361 . S
C310 H294 0.942 . S
C310 C309 1.361 . S
C310 C311 1.369 . S
C311 C310 1.369 . S
C311 C312 1.404 . S
C312 H295 0.940 . S
C312 C311 1.404 . S
C312 C313 1.389 . S
C313 H296 0.939 . S
C313 C308 1.400 . S
C313 C312 1.389 . S
C314 P288 1.819 . S
C314 C315 1.391 . S
C314 C319 1.391 . S
C315 H297 0.941 . S
C315 C314 1.391 . S
C315 C316 1.396 . S
C316 H300 0.939 . S
C316 C315 1.396 . S
C316 C317 1.397 . S
C317 C316 1.397 . S
C317 C318 1.385 . S
C318 H301 0.940 . S
C318 C317 1.385 . S
C318 C319 1.388 . S
C319 H298 0.939 . S
C319 C314 1.391 . S
C319 C318 1.388 . S
P320 O331 1.490 . S
P320 C334 1.812 . S
P320 C340 1.803 . S
P320 C346 1.819 . S
H321 C335 0.941 . S
H322 C336 0.939 . S
H323 C338 0.940 . S
H324 C339 0.940 . S
H325 C341 0.939 . S
H326 C342 0.942 . S
H327 C344 0.940 . S
H328 C345 0.939 . S
H329 C347 0.941 . S
H330 C351 0.939 . S
O331 P320 1.490 . S
H332 C348 0.939 . S
H333 C350 0.940 . S
C334 P320 1.812 . S
C334 C335 1.389 . S
C334 C339 1.391 . S
C335 H321 0.941 . S
C335 C334 1.389 . S
C335 C336 1.397 . S
C336 H322 0.939 . S
C336 C335 1.397 . S
C336 C337 1.378 . S
C337 C336 1.378 . S
C337 C338 1.378 . S
C338 H323 0.940 . S
C338 C337 1.378 . S
C338 C339 1.396 . S
C339 H324 0.940 . S
C339 C334 1.391 . S
C339 C338 1.396 . S
C340 P320 1.803 . S
C340 C341 1.378 . S
C340 C345 1.400 . S
C341 H325 0.939 . S
C341 C340 1.378 . S
C341 C342 1.361 . S
C342 H326 0.942 . S
C342 C341 1.361 . S
C342 C343 1.369 . S
C343 C342 1.369 . S
C343 C344 1.404 . S
C344 H327 0.940 . S
C344 C343 1.404 . S
C344 C345 1.389 . S
C345 H328 0.939 . S
C345 C340 1.400 . S
C345 C344 1.389 . S
C346 P320 1.819 . S
C346 C347 1.391 . S
C346 C351 1.391 . S
C347 H329 0.941 . S
C347 C346 1.391 . S
C347 C348 1.396 . S
C348 H332 0.939 . S
C348 C347 1.396 . S
C348 C349 1.397 . S
C349 C348 1.397 . S
C349 C350 1.385 . S
C350 H333 0.940 . S
C350 C349 1.385 . S
C350 C351 1.388 . S
C351 H330 0.939 . S
C351 C346 1.391 . S
C351 C350 1.388 . S
P352 O363 1.490 . S
P352 C366 1.812 . S
P352 C372 1.803 . S
P352 C378 1.819 . S
H353 C367 0.941 . S
H354 C368 0.939 . S
H355 C370 0.940 . S
H356 C371 0.940 . S
H357 C373 0.939 . S
H358 C374 0.942 . S
H359 C376 0.940 . S
H360 C377 0.939 . S
H361 C379 0.941 . S
H362 C383 0.939 . S
O363 P352 1.490 . S
H364 C380 0.939 . S
H365 C382 0.940 . S
C366 P352 1.812 . S
C366 C367 1.389 . S
C366 C371 1.391 . S
C367 H353 0.941 . S
C367 C366 1.389 . S
C367 C368 1.397 . S
C368 H354 0.939 . S
C368 C367 1.397 . S
C368 C369 1.378 . S
C369 C368 1.378 . S
C369 C370 1.378 . S
C370 H355 0.940 . S
C370 C369 1.378 . S
C370 C371 1.396 . S
C371 H356 0.940 . S
C371 C366 1.391 . S
C371 C370 1.396 . S
C372 P352 1.803 . S
C372 C373 1.378 . S
C372 C377 1.400 . S
C373 H357 0.939 . S
C373 C372 1.378 . S
C373 C374 1.361 . S
C374 H358 0.942 . S
C374 C373 1.361 . S
C374 C375 1.369 . S
C375 C374 1.369 . S
C375 C376 1.404 . S
C376 H359 0.940 . S
C376 C375 1.404 . S
C376 C377 1.389 . S
C377 H360 0.939 . S
C377 C372 1.400 . S
C377 C376 1.389 . S
C378 P352 1.819 . S
C378 C379 1.391 . S
C378 C383 1.391 . S
C379 H361 0.941 . S
C379 C378 1.391 . S
C379 C380 1.396 . S
C380 H364 0.939 . S
C380 C379 1.396 . S
C380 C381 1.397 . S
C381 C380 1.397 . S
C381 C382 1.385 . S
C382 H365 0.940 . S
C382 C381 1.385 . S
C382 C383 1.388 . S
C383 H362 0.939 . S
C383 C378 1.391 . S
C383 C382 1.388 . S
P384 O395 1.490 . S
P384 C398 1.812 . S
P384 C404 1.803 . S
P384 C410 1.819 . S
H385 C399 0.941 . S
H386 C400 0.939 . S
H387 C402 0.940 . S
H388 C403 0.940 . S
H389 C405 0.939 . S
H390 C406 0.942 . S
H391 C408 0.940 . S
H392 C409 0.939 . S
H393 C411 0.941 . S
H394 C415 0.939 . S
O395 P384 1.490 . S
H396 C412 0.939 . S
H397 C414 0.940 . S
C398 P384 1.812 . S
C398 C399 1.389 . S
C398 C403 1.391 . S
C399 H385 0.941 . S
C399 C398 1.389 . S
C399 C400 1.397 . S
C400 H386 0.939 . S
C400 C399 1.397 . S
C400 C401 1.378 . S
C401 C400 1.378 . S
C401 C402 1.378 . S
C402 H387 0.940 . S
C402 C401 1.378 . S
C402 C403 1.396 . S
C403 H388 0.940 . S
C403 C398 1.391 . S
C403 C402 1.396 . S
C404 P384 1.803 . S
C404 C405 1.378 . S
C404 C409 1.400 . S
C405 H389 0.939 . S
C405 C404 1.378 . S
C405 C406 1.361 . S
C406 H390 0.942 . S
C406 C405 1.361 . S
C406 C407 1.369 . S
C407 C406 1.369 . S
C407 C408 1.404 . S
C408 H391 0.940 . S
C408 C407 1.404 . S
C408 C409 1.389 . S
C409 H392 0.939 . S
C409 C404 1.400 . S
C409 C408 1.389 . S
C410 P384 1.819 . S
C410 C411 1.391 . S
C410 C415 1.391 . S
C411 H393 0.941 . S
C411 C410 1.391 . S
C411 C412 1.396 . S
C412 H396 0.939 . S
C412 C411 1.396 . S
C412 C413 1.397 . S
C413 C412 1.397 . S
C413 C414 1.385 . S
C414 H397 0.940 . S
C414 C413 1.385 . S
C414 C415 1.388 . S
C415 H394 0.939 . S
C415 C410 1.391 . S
C415 C414 1.388 . S
P416 O427 1.490 . S
P416 C430 1.812 . S
P416 C436 1.803 . S
P416 C442 1.819 . S
H417 C431 0.941 . S
H418 C432 0.939 . S
H419 C434 0.940 . S
H420 C435 0.940 . S
H421 C437 0.939 . S
H422 C438 0.942 . S
H423 C440 0.940 . S
H424 C441 0.939 . S
H425 C443 0.941 . S
H426 C447 0.939 . S
O427 P416 1.490 . S
H428 C444 0.939 . S
H429 C446 0.940 . S
C430 P416 1.812 . S
C430 C431 1.389 . S
C430 C435 1.391 . S
C431 H417 0.941 . S
C431 C430 1.389 . S
C431 C432 1.397 . S
C432 H418 0.939 . S
C432 C431 1.397 . S
C432 C433 1.378 . S
C433 C432 1.378 . S
C433 C434 1.378 . S
C434 H419 0.940 . S
C434 C433 1.378 . S
C434 C435 1.396 . S
C435 H420 0.940 . S
C435 C430 1.391 . S
C435 C434 1.396 . S
C436 P416 1.803 . S
C436 C437 1.378 . S
C436 C441 1.400 . S
C437 H421 0.939 . S
C437 C436 1.378 . S
C437 C438 1.361 . S
C438 H422 0.942 . S
C438 C437 1.361 . S
C438 C439 1.369 . S
C439 C438 1.369 . S
C439 C440 1.404 . S
C440 H423 0.940 . S
C440 C439 1.404 . S
C440 C441 1.389 . S
C441 H424 0.939 . S
C441 C436 1.400 . S
C441 C440 1.389 . S
C442 P416 1.819 . S
C442 C443 1.391 . S
C442 C447 1.391 . S
C443 H425 0.941 . S
C443 C442 1.391 . S
C443 C444 1.396 . S
C444 H428 0.939 . S
C444 C443 1.396 . S
C444 C445 1.397 . S
C445 C444 1.397 . S
C445 C446 1.385 . S
C446 H429 0.940 . S
C446 C445 1.385 . S
C446 C447 1.388 . S
C447 H426 0.939 . S
C447 C442 1.391 . S
C447 C446 1.388 . S
P448 O459 1.490 . S
P448 C462 1.812 . S
P448 C468 1.803 . S
P448 C474 1.819 . S
H449 C463 0.941 . S
H450 C464 0.939 . S
H451 C466 0.940 . S
H452 C467 0.940 . S
H453 C469 0.939 . S
H454 C470 0.942 . S
H455 C472 0.940 . S
H456 C473 0.939 . S
H457 C475 0.941 . S
H458 C479 0.939 . S
O459 P448 1.490 . S
H460 C476 0.939 . S
H461 C478 0.940 . S
C462 P448 1.812 . S
C462 C463 1.389 . S
C462 C467 1.391 . S
C463 H449 0.941 . S
C463 C462 1.389 . S
C463 C464 1.397 . S
C464 H450 0.939 . S
C464 C463 1.397 . S
C464 C465 1.378 . S
C465 C464 1.378 . S
C465 C466 1.378 . S
C466 H451 0.940 . S
C466 C465 1.378 . S
C466 C467 1.396 . S
C467 H452 0.940 . S
C467 C462 1.391 . S
C467 C466 1.396 . S
C468 P448 1.803 . S
C468 C469 1.378 . S
C468 C473 1.400 . S
C469 H453 0.939 . S
C469 C468 1.378 . S
C469 C470 1.361 . S
C470 H454 0.942 . S
C470 C469 1.361 . S
C470 C471 1.369 . S
C471 C470 1.369 . S
C471 C472 1.404 . S
C472 H455 0.940 . S
C472 C471 1.404 . S
C472 C473 1.389 . S
C473 H456 0.939 . S
C473 C468 1.400 . S
C473 C472 1.389 . S
C474 P448 1.819 . S
C474 C475 1.391 . S
C474 C479 1.391 . S
C475 H457 0.941 . S
C475 C474 1.391 . S
C475 C476 1.396 . S
C476 H460 0.939 . S
C476 C475 1.396 . S
C476 C477 1.397 . S
C477 C476 1.397 . S
C477 C478 1.385 . S
C478 H461 0.940 . S
C478 C477 1.385 . S
C478 C479 1.388 . S
C479 H458 0.939 . S
C479 C474 1.391 . S
C479 C478 1.388 . S
P480 O491 1.490 . S
P480 C494 1.812 . S
P480 C500 1.803 . S
P480 C506 1.819 . S
H481 C495 0.941 . S
H482 C496 0.939 . S
H483 C498 0.940 . S
H484 C499 0.940 . S
H485 C501 0.939 . S
H486 C502 0.942 . S
H487 C504 0.940 . S
H488 C505 0.939 . S
H489 C507 0.941 . S
H490 C511 0.939 . S
O491 P480 1.490 . S
H492 C508 0.939 . S
H493 C510 0.940 . S
C494 P480 1.812 . S
C494 C495 1.389 . S
C494 C499 1.391 . S
C495 H481 0.941 . S
C495 C494 1.389 . S
C495 C496 1.397 . S
C496 H482 0.939 . S
C496 C495 1.397 . S
C496 C497 1.378 . S
C497 C496 1.378 . S
C497 C498 1.378 . S
C498 H483 0.940 . S
C498 C497 1.378 . S
C498 C499 1.396 . S
C499 H484 0.940 . S
C499 C494 1.391 . S
C499 C498 1.396 . S
C500 P480 1.803 . S
C500 C501 1.378 . S
C500 C505 1.400 . S
C501 H485 0.939 . S
C501 C500 1.378 . S
C501 C502 1.361 . S
C502 H486 0.942 . S
C502 C501 1.361 . S
C502 C503 1.369 . S
C503 C502 1.369 . S
C503 C504 1.404 . S
C504 H487 0.940 . S
C504 C503 1.404 . S
C504 C505 1.389 . S
C505 H488 0.939 . S
C505 C500 1.400 . S
C505 C504 1.389 . S
C506 P480 1.819 . S
C506 C507 1.391 . S
C506 C511 1.391 . S
C507 H489 0.941 . S
C507 C506 1.391 . S
C507 C508 1.396 . S
C508 H492 0.939 . S
C508 C507 1.396 . S
C508 C509 1.397 . S
C509 C508 1.397 . S
C509 C510 1.385 . S
C510 H493 0.940 . S
C510 C509 1.385 . S
C510 C511 1.388 . S
C511 H490 0.939 . S
C511 C506 1.391 . S
C511 C510 1.388 . S
P512 O523 1.490 . S
P512 C526 1.812 . S
P512 C532 1.803 . S
P512 C538 1.819 . S
H513 C527 0.941 . S
H514 C528 0.939 . S
H515 C530 0.940 . S
H516 C531 0.940 . S
H517 C533 0.939 . S
H518 C534 0.942 . S
H519 C536 0.940 . S
H520 C537 0.939 . S
H521 C539 0.941 . S
H522 C543 0.939 . S
O523 P512 1.490 . S
H524 C540 0.939 . S
H525 C542 0.940 . S
C526 P512 1.812 . S
C526 C527 1.389 . S
C526 C531 1.391 . S
C527 H513 0.941 . S
C527 C526 1.389 . S
C527 C528 1.397 . S
C528 H514 0.939 . S
C528 C527 1.397 . S
C528 C529 1.378 . S
C529 C528 1.378 . S
C529 C530 1.378 . S
C530 H515 0.940 . S
C530 C529 1.378 . S
C530 C531 1.396 . S
C531 H516 0.940 . S
C531 C526 1.391 . S
C531 C530 1.396 . S
C532 P512 1.803 . S
C532 C533 1.378 . S
C532 C537 1.400 . S
C533 H517 0.939 . S
C533 C532 1.378 . S
C533 C534 1.361 . S
C534 H518 0.942 . S
C534 C533 1.361 . S
C534 C535 1.369 . S
C535 C534 1.369 . S
C535 C536 1.404 . S
C536 H519 0.940 . S
C536 C535 1.404 . S
C536 C537 1.389 . S
C537 H520 0.939 . S
C537 C532 1.400 . S
C537 C536 1.389 . S
C538 P512 1.819 . S
C538 C539 1.391 . S
C538 C543 1.391 . S
C539 H521 0.941 . S
C539 C538 1.391 . S
C539 C540 1.396 . S
C540 H524 0.939 . S
C540 C539 1.396 . S
C540 C541 1.397 . S
C541 C540 1.397 . S
C541 C542 1.385 . S
C542 H525 0.940 . S
C542 C541 1.385 . S
C542 C543 1.388 . S
C543 H522 0.939 . S
C543 C538 1.391 . S
C543 C542 1.388 . S
P544 O555 1.490 . S
P544 C558 1.812 . S
P544 C564 1.803 . S
P544 C570 1.819 . S
H545 C559 0.941 . S
H546 C560 0.939 . S
H547 C562 0.940 . S
H548 C563 0.940 . S
H549 C565 0.939 . S
H550 C566 0.942 . S
H551 C568 0.940 . S
H552 C569 0.939 . S
H553 C571 0.941 . S
H554 C575 0.939 . S
O555 P544 1.490 . S
H556 C572 0.939 . S
H557 C574 0.940 . S
C558 P544 1.812 . S
C558 C559 1.389 . S
C558 C563 1.391 . S
C559 H545 0.941 . S
C559 C558 1.389 . S
C559 C560 1.397 . S
C560 H546 0.939 . S
C560 C559 1.397 . S
C560 C561 1.378 . S
C561 C560 1.378 . S
C561 C562 1.378 . S
C562 H547 0.940 . S
C562 C561 1.378 . S
C562 C563 1.396 . S
C563 H548 0.940 . S
C563 C558 1.391 . S
C563 C562 1.396 . S
C564 P544 1.803 . S
C564 C565 1.378 . S
C564 C569 1.400 . S
C565 H549 0.939 . S
C565 C564 1.378 . S
C565 C566 1.361 . S
C566 H550 0.942 . S
C566 C565 1.361 . S
C566 C567 1.369 . S
C567 C566 1.369 . S
C567 C568 1.404 . S
C568 H551 0.940 . S
C568 C567 1.404 . S
C568 C569 1.389 . S
C569 H552 0.939 . S
C569 C564 1.400 . S
C569 C568 1.389 . S
C570 P544 1.819 . S
C570 C571 1.391 . S
C570 C575 1.391 . S
C571 H553 0.941 . S
C571 C570 1.391 . S
C571 C572 1.396 . S
C572 H556 0.939 . S
C572 C571 1.396 . S
C572 C573 1.397 . S
C573 C572 1.397 . S
C573 C574 1.385 . S
C574 H557 0.940 . S
C574 C573 1.385 . S
C574 C575 1.388 . S
C575 H554 0.939 . S
C575 C570 1.391 . S
C575 C574 1.388 . S
Tb576 O579 2.453 . S
Tb576 O580 2.596 1_545 S
Tb576 O581 2.374 1_545 S
Tb576 O589 2.343 1_554 S
Tb576 O591 2.353 . S
Tb576 O593 2.427 1_554 S
Tb576 O594 2.513 1_554 S
C577 O581 1.251 . S
C577 O583 1.271 . S
Tb578 O580 2.343 1_556 S
Tb578 O583 2.350 1_556 S
Tb578 O586 2.427 1_556 S
Tb578 O587 2.513 1_556 S
Tb578 O588 2.453 . S
Tb578 O589 2.596 1_565 S
Tb578 O590 2.374 1_565 S
O579 Tb576 2.453 . S
O579 C595 1.245 . S
O580 Tb576 2.596 1_565 S
O580 Tb578 2.343 1_554 S
O580 C595 1.259 1_565 S
O581 Tb576 2.374 1_565 S
O581 C577 1.251 . S
C582 O586 1.275 . S
C582 O587 1.246 . S
O583 C577 1.271 . S
O583 Tb578 2.350 1_554 S
C584 O588 1.243 1_545 S
C584 O589 1.260 . S
C585 O590 1.250 . S
C585 O591 1.263 1_556 S
O586 Tb578 2.427 1_554 S
O586 C582 1.275 . S
O587 Tb578 2.513 1_554 S
O587 C582 1.246 . S
O588 Tb578 2.453 . S
O588 C584 1.243 1_565 S
O589 Tb576 2.343 1_556 S
O589 Tb578 2.596 1_545 S
O589 C584 1.260 . S
O590 Tb578 2.374 1_545 S
O590 C585 1.250 . S
O591 Tb576 2.353 . S
O591 C585 1.263 1_554 S
C592 O593 1.275 . S
C592 O594 1.246 . S
O593 Tb576 2.427 1_556 S
O593 C592 1.275 . S
O594 Tb576 2.513 1_556 S
O594 C592 1.246 . S
C595 O579 1.245 . S
C595 O580 1.259 1_545 S
Tb596 O599 2.453 . S
Tb596 O600 2.596 1_655 S
Tb596 O601 2.374 1_655 S
Tb596 O609 2.343 1_554 S
Tb596 O611 2.353 . S
Tb596 O613 2.427 1_554 S
Tb596 O614 2.513 1_554 S
C597 O601 1.251 . S
C597 O603 1.263 . S
Tb598 O600 2.343 1_556 S
Tb598 O603 2.353 1_556 S
Tb598 O606 2.427 1_556 S
Tb598 O607 2.513 1_556 S
Tb598 O608 2.453 . S
Tb598 O609 2.596 1_455 S
Tb598 O610 2.374 1_455 S
O599 Tb596 2.453 . S
O599 C615 1.245 1_655 S
O600 Tb596 2.596 1_455 S
O600 Tb598 2.343 1_554 S
O600 C615 1.259 . S
O601 Tb596 2.374 1_455 S
O601 C597 1.251 . S
C602 O606 1.275 . S
C602 O607 1.246 . S
O603 C597 1.263 . S
O603 Tb598 2.353 1_554 S
C604 O608 1.231 1_655 S
C604 O609 1.265 . S
C605 O610 1.250 . S
C605 O611 1.263 1_556 S
O606 Tb598 2.427 1_554 S
O606 C602 1.275 . S
O607 Tb598 2.513 1_554 S
O607 C602 1.246 . S
O608 Tb598 2.453 . S
O608 C604 1.231 1_455 S
O609 Tb596 2.343 1_556 S
O609 Tb598 2.596 1_655 S
O609 C604 1.265 . S
O610 Tb598 2.374 1_655 S
O610 C605 1.250 . S
O611 Tb596 2.353 . S
O611 C605 1.263 1_554 S
C612 O613 1.275 . S
C612 O614 1.246 . S
O613 Tb596 2.427 1_556 S
O613 C612 1.275 . S
O614 Tb596 2.513 1_556 S
O614 C612 1.246 . S
C615 O599 1.245 1_455 S
C615 O600 1.259 . S
Tb616 O619 2.453 . S
Tb616 O620 2.596 . S
Tb616 O621 2.374 . S
Tb616 O629 2.343 1_556 S
Tb616 O631 2.353 1_556 S
Tb616 O633 2.427 1_556 S
Tb616 O634 2.513 1_556 S
C617 O621 1.251 . S
C617 O623 1.263 1_556 S
Tb618 O620 2.343 1_554 S
Tb618 O623 2.353 . S
Tb618 O626 2.427 1_554 S
Tb618 O627 2.513 1_554 S
Tb618 O628 2.453 . S
Tb618 O629 2.596 . S
Tb618 O630 2.374 . S
O619 Tb616 2.453 . S
O619 C635 1.245 . S
O620 Tb616 2.596 . S
O620 Tb618 2.343 1_556 S
O620 C635 1.259 . S
O621 Tb616 2.374 . S
O621 C617 1.251 . S
C622 O626 1.275 . S
C622 O627 1.246 . S
O623 C617 1.263 1_554 S
O623 Tb618 2.353 . S
C624 O628 1.245 . S
C624 O629 1.259 . S
C625 O630 1.250 . S
C625 O631 1.263 . S
O626 Tb618 2.427 1_556 S
O626 C622 1.275 . S
O627 Tb618 2.513 1_556 S
O627 C622 1.246 . S
O628 Tb618 2.453 . S
O628 C624 1.245 . S
O629 Tb616 2.343 1_554 S
O629 Tb618 2.596 . S
O629 C624 1.259 . S
O630 Tb618 2.374 . S
O630 C625 1.250 . S
O631 Tb616 2.353 1_554 S
O631 C625 1.263 . S
C632 O633 1.275 . S
C632 O634 1.246 . S
O633 Tb616 2.427 1_554 S
O633 C632 1.275 . S
O634 Tb616 2.513 1_554 S
O634 C632 1.246 . S
C635 O619 1.245 . S
C635 O620 1.259 . S
Tb636 O639 2.453 . S
Tb636 O640 2.596 . S
Tb636 O641 2.374 . S
Tb636 O649 2.343 . S
Tb636 O651 2.353 . S
Tb636 O653 2.427 . S
Tb636 O654 2.513 . S
C637 O641 1.251 . S
C637 O643 1.263 . S
Tb638 O640 2.343 . S
Tb638 O643 2.353 . S
Tb638 O646 2.427 . S
Tb638 O647 2.513 . S
Tb638 O648 2.453 . S
Tb638 O649 2.596 . S
Tb638 O650 2.374 . S
O639 Tb636 2.453 . S
O639 C655 1.245 . S
O640 Tb636 2.596 . S
O640 Tb638 2.343 . S
O640 C655 1.259 . S
O641 Tb636 2.374 . S
O641 C637 1.251 . S
C642 O646 1.275 . S
C642 O647 1.246 . S
O643 C637 1.263 . S
O643 Tb638 2.353 . S
C644 O648 1.245 . S
C644 O649 1.259 . S
C645 O650 1.250 . S
C645 O651 1.263 . S
O646 Tb638 2.427 . S
O646 C642 1.275 . S
O647 Tb638 2.513 . S
O647 C642 1.246 . S
O648 Tb638 2.453 . S
O648 C644 1.245 . S
O649 Tb636 2.343 . S
O649 Tb638 2.596 . S
O649 C644 1.259 . S
O650 Tb638 2.374 . S
O650 C645 1.250 . S
O651 Tb636 2.353 . S
O651 C645 1.263 . S
C652 O653 1.275 . S
C652 O654 1.246 . S
O653 Tb636 2.427 . S
O653 C652 1.275 . S
O654 Tb636 2.513 . S
O654 C652 1.246 . S
C655 O639 1.245 . S
C655 O640 1.259 . S
Tb656 O659 2.453 . S
Tb656 O660 2.596 . S
Tb656 O661 2.374 . S
Tb656 O669 2.343 . S
Tb656 O671 2.353 . S
Tb656 O673 2.427 . S
Tb656 O674 2.513 . S
C657 O661 1.251 . S
C657 O663 1.263 . S
Tb658 O660 2.343 . S
Tb658 O663 2.353 . S
Tb658 O666 2.427 . S
Tb658 O667 2.513 . S
Tb658 O668 2.453 . S
Tb658 O669 2.596 . S
Tb658 O670 2.374 . S
O659 Tb656 2.453 . S
O659 C675 1.245 . S
O660 Tb656 2.596 . S
O660 Tb658 2.343 . S
O660 C675 1.259 . S
O661 Tb656 2.374 . S
O661 C657 1.251 . S
C662 O666 1.275 . S
C662 O667 1.246 . S
O663 C657 1.263 . S
O663 Tb658 2.353 . S
C664 O668 1.245 . S
C664 O669 1.259 . S
C665 O670 1.250 . S
C665 O671 1.263 . S
O666 Tb658 2.427 . S
O666 C662 1.275 . S
O667 Tb658 2.513 . S
O667 C662 1.246 . S
O668 Tb658 2.453 . S
O668 C664 1.245 . S
O669 Tb656 2.343 . S
O669 Tb658 2.596 . S
O669 C664 1.259 . S
O670 Tb658 2.374 . S
O670 C665 1.250 . S
O671 Tb656 2.353 . S
O671 C665 1.263 . S
C672 O673 1.275 . S
C672 O674 1.246 . S
O673 Tb656 2.427 . S
O673 C672 1.275 . S
O674 Tb656 2.513 . S
O674 C672 1.246 . S
C675 O659 1.245 . S
C675 O660 1.259 . S
Tb676 O679 2.453 . S
Tb676 O680 2.596 . S
Tb676 O681 2.374 . S
Tb676 O689 2.343 . S
Tb676 O691 2.353 . S
Tb676 O693 2.427 . S
Tb676 O694 2.513 . S
C677 O681 1.251 . S
C677 O683 1.263 . S
Tb678 O680 2.343 . S
Tb678 O683 2.353 . S
Tb678 O686 2.427 . S
Tb678 O687 2.513 . S
Tb678 O688 2.453 . S
Tb678 O689 2.596 . S
Tb678 O690 2.374 . S
O679 Tb676 2.453 . S
O679 C695 1.245 . S
O680 Tb676 2.596 . S
O680 Tb678 2.343 . S
O680 C695 1.259 . S
O681 Tb676 2.374 . S
O681 C677 1.251 . S
C682 O686 1.275 . S
C682 O687 1.246 . S
O683 C677 1.263 . S
O683 Tb678 2.353 . S
C684 O688 1.245 . S
C684 O689 1.259 . S
C685 O690 1.250 . S
C685 O691 1.263 . S
O686 Tb678 2.427 . S
O686 C682 1.275 . S
O687 Tb678 2.513 . S
O687 C682 1.246 . S
O688 Tb678 2.453 . S
O688 C684 1.245 . S
O689 Tb676 2.343 . S
O689 Tb678 2.596 . S
O689 C684 1.259 . S
O690 Tb678 2.374 . S
O690 C685 1.250 . S
O691 Tb676 2.353 . S
O691 C685 1.263 . S
C692 O693 1.275 . S
C692 O694 1.246 . S
O693 Tb676 2.427 . S
O693 C692 1.275 . S
O694 Tb676 2.513 . S
O694 C692 1.246 . S
C695 O679 1.245 . S
C695 O680 1.259 . S
Tb696 O699 2.453 . S
Tb696 O700 2.596 . S
Tb696 O701 2.374 . S
Tb696 O709 2.343 . S
Tb696 O711 2.353 . S
Tb696 O713 2.427 . S
Tb696 O714 2.513 . S
C697 O701 1.251 . S
C697 O703 1.263 . S
Tb698 O700 2.343 . S
Tb698 O703 2.353 . S
Tb698 O706 2.427 . S
Tb698 O707 2.513 . S
Tb698 O708 2.453 . S
Tb698 O709 2.596 . S
Tb698 O710 2.374 . S
O699 Tb696 2.453 . S
O699 C715 1.245 . S
O700 Tb696 2.596 . S
O700 Tb698 2.343 . S
O700 C715 1.259 . S
O701 Tb696 2.374 . S
O701 C697 1.251 . S
C702 O706 1.275 . S
C702 O707 1.246 . S
O703 C697 1.263 . S
O703 Tb698 2.353 . S
C704 O708 1.245 . S
C704 O709 1.259 . S
C705 O710 1.250 . S
C705 O711 1.263 . S
O706 Tb698 2.427 . S
O706 C702 1.275 . S
O707 Tb698 2.513 . S
O707 C702 1.246 . S
O708 Tb698 2.453 . S
O708 C704 1.245 . S
O709 Tb696 2.343 . S
O709 Tb698 2.596 . S
O709 C704 1.259 . S
O710 Tb698 2.374 . S
O710 C705 1.250 . S
O711 Tb696 2.353 . S
O711 C705 1.263 . S
C712 O713 1.275 . S
C712 O714 1.246 . S
O713 Tb696 2.427 . S
O713 C712 1.275 . S
O714 Tb696 2.513 . S
O714 C712 1.246 . S
C715 O699 1.245 . S
C715 O700 1.259 . S
Tb716 O719 2.453 . S
Tb716 O720 2.596 . S
Tb716 O721 2.374 . S
Tb716 O729 2.343 . S
Tb716 O731 2.353 . S
Tb716 O733 2.427 . S
Tb716 O734 2.513 . S
C717 O721 1.251 . S
C717 O723 1.263 . S
Tb718 O720 2.343 . S
Tb718 O723 2.353 . S
Tb718 O726 2.427 . S
Tb718 O727 2.513 . S
Tb718 O728 2.453 . S
Tb718 O729 2.596 . S
Tb718 O730 2.374 . S
O719 Tb716 2.453 . S
O719 C735 1.245 . S
O720 Tb716 2.596 . S
O720 Tb718 2.343 . S
O720 C735 1.259 . S
O721 Tb716 2.374 . S
O721 C717 1.251 . S
C722 O726 1.275 . S
C722 O727 1.246 . S
O723 C717 1.263 . S
O723 Tb718 2.353 . S
C724 O728 1.245 . S
C724 O729 1.259 . S
C725 O730 1.250 . S
C725 O731 1.263 . S
O726 Tb718 2.427 . S
O726 C722 1.275 . S
O727 Tb718 2.513 . S
O727 C722 1.246 . S
O728 Tb718 2.453 . S
O728 C724 1.245 . S
O729 Tb716 2.343 . S
O729 Tb718 2.596 . S
O729 C724 1.259 . S
O730 Tb718 2.374 . S
O730 C725 1.250 . S
O731 Tb716 2.353 . S
O731 C725 1.263 . S
C732 O733 1.275 . S
C732 O734 1.246 . S
O733 Tb716 2.427 . S
O733 C732 1.275 . S
O734 Tb716 2.513 . S
O734 C732 1.246 . S
C735 O719 1.245 . S
C735 O720 1.259 . S
Tb736 O739 2.453 . S
Tb736 O740 2.596 . S
Tb736 O741 2.374 . S
Tb736 O749 2.343 . S
Tb736 O751 2.353 . S
Tb736 O753 2.427 . S
Tb736 O754 2.513 . S
C737 O741 1.251 . S
C737 O743 1.263 . S
Tb738 O740 2.343 . S
Tb738 O743 2.353 . S
Tb738 O746 2.427 . S
Tb738 O747 2.513 . S
Tb738 O748 2.453 . S
Tb738 O749 2.596 . S
Tb738 O750 2.374 . S
O739 Tb736 2.453 . S
O739 C755 1.245 . S
O740 Tb736 2.596 . S
O740 Tb738 2.343 . S
O740 C755 1.259 . S
O741 Tb736 2.374 . S
O741 C737 1.251 . S
C742 O746 1.275 . S
C742 O747 1.246 . S
O743 C737 1.263 . S
O743 Tb738 2.353 . S
C744 O748 1.245 . S
C744 O749 1.259 . S
C745 O750 1.250 . S
C745 O751 1.263 . S
O746 Tb738 2.427 . S
O746 C742 1.275 . S
O747 Tb738 2.513 . S
O747 C742 1.246 . S
O748 Tb738 2.453 . S
O748 C744 1.245 . S
O749 Tb736 2.343 . S
O749 Tb738 2.596 . S
O749 C744 1.259 . S
O750 Tb738 2.374 . S
O750 C745 1.250 . S
O751 Tb736 2.353 . S
O751 C745 1.263 . S
C752 O753 1.275 . S
C752 O754 1.246 . S
O753 Tb736 2.427 . S
O753 C752 1.275 . S
O754 Tb736 2.513 . S
O754 C752 1.246 . S
C755 O739 1.245 . S
C755 O740 1.259 . S
H756 C768 0.930 . S
H757 C770 0.930 . S
H758 C771 0.930 . S
H759 C775 0.959 . S
H760 C775 0.959 . S
H761 C775 0.961 . S
H762 C776 0.960 . S
H763 C776 0.961 . S
H764 C776 0.959 . S
H765 C779 0.929 . S
H766 C780 0.931 . S
H767 C782 0.930 . S
C768 H756 0.930 . S
C768 C769 1.399 . S
C768 C773 1.399 . S
C769 C768 1.399 . S
C769 C770 1.376 . S
C770 H757 0.930 . S
C770 C769 1.376 . S
C770 C771 1.388 . S
C771 H758 0.930 . S
C771 C770 1.388 . S
C771 C772 1.390 . S
C772 C771 1.390 . S
C772 C773 1.394 . S
C772 C778 1.465 . S
C773 C768 1.399 . S
C773 C772 1.394 . S
C773 C774 1.516 . S
C774 C773 1.516 . S
C774 C775 1.502 . S
C774 C776 1.561 . S
C774 C777 1.526 . S
C775 H759 0.959 . S
C775 H760 0.959 . S
C775 H761 0.961 . S
C775 C774 1.502 . S
C776 H762 0.960 . S
C776 H763 0.961 . S
C776 H764 0.959 . S
C776 C774 1.561 . S
C777 C774 1.526 . S
C777 C778 1.396 . S
C777 C782 1.390 . S
C778 C772 1.465 . S
C778 C777 1.396 . S
C778 C779 1.399 . S
C779 H765 0.929 . S
C779 C778 1.399 . S
C779 C780 1.385 . S
C780 H766 0.931 . S
C780 C779 1.385 . S
C780 C781 1.389 . S
C781 C780 1.389 . S
C781 C782 1.387 . S
C782 H767 0.930 . S
C782 C777 1.390 . S
C782 C781 1.387 . S
H783 C795 0.930 . S
H784 C797 0.930 . S
H785 C798 0.930 . S
H786 C802 0.959 . S
H787 C802 0.959 . S
H788 C802 0.961 . S
H789 C803 0.960 . S
H790 C803 0.961 . S
H791 C803 0.959 . S
H792 C806 0.929 . S
H793 C807 0.931 . S
H794 C809 0.930 . S
C795 H783 0.930 . S
C795 C796 1.399 . S
C795 C800 1.399 . S
C796 C795 1.399 . S
C796 C797 1.376 . S
C797 H784 0.930 . S
C797 C796 1.376 . S
C797 C798 1.388 . S
C798 H785 0.930 . S
C798 C797 1.388 . S
C798 C799 1.390 . S
C799 C798 1.390 . S
C799 C800 1.394 . S
C799 C805 1.465 . S
C800 C795 1.399 . S
C800 C799 1.394 . S
C800 C801 1.516 . S
C801 C800 1.516 . S
C801 C802 1.502 . S
C801 C803 1.561 . S
C801 C804 1.526 . S
C802 H786 0.959 . S
C802 H787 0.959 . S
C802 H788 0.961 . S
C802 C801 1.502 . S
C803 H789 0.960 . S
C803 H790 0.961 . S
C803 H791 0.959 . S
C803 C801 1.561 . S
C804 C801 1.526 . S
C804 C805 1.396 . S
C804 C809 1.390 . S
C805 C799 1.465 . S
C805 C804 1.396 . S
C805 C806 1.399 . S
C806 H792 0.929 . S
C806 C805 1.399 . S
C806 C807 1.385 . S
C807 H793 0.931 . S
C807 C806 1.385 . S
C807 C808 1.389 . S
C808 C807 1.389 . S
C808 C809 1.387 . S
C809 H794 0.930 . S
C809 C804 1.390 . S
C809 C808 1.387 . S
H810 C822 0.930 . S
H811 C824 0.930 . S
H812 C825 0.930 . S
H813 C829 0.959 . S
H814 C829 0.959 1_556 S
H815 C829 0.961 . S
H816 C830 0.960 . S
H817 C830 0.961 . S
H818 C830 0.959 1_554 S
H819 C833 0.929 . S
H820 C834 0.931 . S
H821 C836 0.930 1_556 S
C822 H810 0.930 . S
C822 C823 1.399 . S
C822 C827 1.399 . S
C823 C822 1.399 . S
C823 C824 1.376 . S
C824 H811 0.930 . S
C824 C823 1.376 . S
C824 C825 1.388 . S
C825 H812 0.930 . S
C825 C824 1.388 . S
C825 C826 1.390 . S
C826 C825 1.390 . S
C826 C827 1.394 . S
C826 C832 1.465 . S
C827 C822 1.399 . S
C827 C826 1.394 . S
C827 C828 1.516 . S
C828 C827 1.516 . S
C828 C829 1.502 . S
C828 C830 1.561 1_554 S
C828 C831 1.526 . S
C829 H813 0.959 . S
C829 H814 0.959 1_554 S
C829 H815 0.961 . S
C829 C828 1.502 . S
C830 H816 0.960 . S
C830 H817 0.961 . S
C830 H818 0.959 1_556 S
C830 C828 1.561 1_556 S
C831 C828 1.526 . S
C831 C832 1.396 . S
C831 C836 1.390 . S
C832 C826 1.465 . S
C832 C831 1.396 . S
C832 C833 1.399 . S
C833 H819 0.929 . S
C833 C832 1.399 . S
C833 C834 1.385 . S
C834 H820 0.931 . S
C834 C833 1.385 . S
C834 C835 1.389 . S
C835 C834 1.389 . S
C835 C836 1.387 . S
C836 H821 0.930 1_554 S
C836 C831 1.390 . S
C836 C835 1.387 . S
H837 C849 0.930 . S
H838 C851 0.930 . S
H839 C852 0.930 . S
H840 C856 0.959 . S
H841 C856 0.959 . S
H842 C856 0.961 . S
H843 C857 0.960 . S
H844 C857 0.961 . S
H845 C857 0.959 . S
H846 C860 0.929 . S
H847 C861 0.931 1_554 S
H848 C863 0.930 . S
C849 H837 0.930 . S
C849 C850 1.399 . S
C849 C854 1.399 . S
C850 C849 1.399 . S
C850 C851 1.376 . S
C851 H838 0.930 . S
C851 C850 1.376 . S
C851 C852 1.388 . S
C852 H839 0.930 . S
C852 C851 1.388 . S
C852 C853 1.390 . S
C853 C852 1.390 . S
C853 C854 1.394 . S
C853 C859 1.465 . S
C854 C849 1.399 . S
C854 C853 1.394 . S
C854 C855 1.516 . S
C855 C854 1.516 . S
C855 C856 1.502 . S
C855 C857 1.561 . S
C855 C858 1.526 . S
C856 H840 0.959 . S
C856 H841 0.959 . S
C856 H842 0.961 . S
C856 C855 1.502 . S
C857 H843 0.960 . S
C857 H844 0.961 . S
C857 H845 0.959 . S
C857 C855 1.561 . S
C858 C855 1.526 . S
C858 C859 1.396 . S
C858 C863 1.390 . S
C859 C853 1.465 . S
C859 C858 1.396 . S
C859 C860 1.399 . S
C860 H846 0.929 . S
C860 C859 1.399 . S
C860 C861 1.385 . S
C861 H847 0.931 1_556 S
C861 C860 1.385 . S
C861 C862 1.389 . S
C862 C861 1.389 . S
C862 C863 1.387 . S
C863 H848 0.930 . S
C863 C858 1.390 . S
C863 C862 1.387 . S
H864 C876 0.930 . S
H865 C878 0.930 . S
H866 C879 0.930 . S
H867 C883 0.959 . S
H868 C883 0.959 . S
H869 C883 0.961 . S
H870 C884 0.960 . S
H871 C884 0.961 . S
H872 C884 0.959 . S
H873 C887 0.929 . S
H874 C888 0.931 . S
H875 C890 0.930 . S
C876 H864 0.930 . S
C876 C877 1.399 . S
C876 C881 1.399 . S
C877 C876 1.399 . S
C877 C878 1.376 . S
C878 H865 0.930 . S
C878 C877 1.376 . S
C878 C879 1.388 . S
C879 H866 0.930 . S
C879 C878 1.388 . S
C879 C880 1.390 . S
C880 C879 1.390 . S
C880 C881 1.394 . S
C880 C886 1.465 . S
C881 C876 1.399 . S
C881 C880 1.394 . S
C881 C882 1.516 . S
C882 C881 1.516 . S
C882 C883 1.502 . S
C882 C884 1.561 . S
C882 C885 1.526 . S
C883 H867 0.959 . S
C883 H868 0.959 . S
C883 H869 0.961 . S
C883 C882 1.502 . S
C884 H870 0.960 . S
C884 H871 0.961 . S
C884 H872 0.959 . S
C884 C882 1.561 . S
C885 C882 1.526 . S
C885 C886 1.396 . S
C885 C890 1.390 . S
C886 C880 1.465 . S
C886 C885 1.396 . S
C886 C887 1.399 . S
C887 H873 0.929 . S
C887 C886 1.399 . S
C887 C888 1.385 . S
C888 H874 0.931 . S
C888 C887 1.385 . S
C888 C889 1.389 . S
C889 C888 1.389 . S
C889 C890 1.387 . S
C890 H875 0.930 . S
C890 C885 1.390 . S
C890 C889 1.387 . S
H891 C903 0.930 . S
H892 C905 0.930 . S
H893 C906 0.930 . S
H894 C910 0.959 . S
H895 C910 0.959 . S
H896 C910 0.961 . S
H897 C911 0.960 . S
H898 C911 0.961 . S
H899 C911 0.959 . S
H900 C914 0.929 . S
H901 C915 0.931 . S
H902 C917 0.930 . S
C903 H891 0.930 . S
C903 C904 1.399 . S
C903 C908 1.399 . S
C904 C903 1.399 . S
C904 C905 1.376 . S
C905 H892 0.930 . S
C905 C904 1.376 . S
C905 C906 1.388 . S
C906 H893 0.930 . S
C906 C905 1.388 . S
C906 C907 1.390 . S
C907 C906 1.390 . S
C907 C908 1.394 . S
C907 C913 1.465 . S
C908 C903 1.399 . S
C908 C907 1.394 . S
C908 C909 1.516 . S
C909 C908 1.516 . S
C909 C910 1.502 . S
C909 C911 1.561 . S
C909 C912 1.526 . S
C910 H894 0.959 . S
C910 H895 0.959 . S
C910 H896 0.961 . S
C910 C909 1.502 . S
C911 H897 0.960 . S
C911 H898 0.961 . S
C911 H899 0.959 . S
C911 C909 1.561 . S
C912 C909 1.526 . S
C912 C913 1.396 . S
C912 C917 1.390 . S
C913 C907 1.465 . S
C913 C912 1.396 . S
C913 C914 1.399 . S
C914 H900 0.929 . S
C914 C913 1.399 . S
C914 C915 1.385 . S
C915 H901 0.931 . S
C915 C914 1.385 . S
C915 C916 1.389 . S
C916 C915 1.389 . S
C916 C917 1.387 . S
C917 H902 0.930 . S
C917 C912 1.390 . S
C917 C916 1.387 . S
H918 C930 0.930 . S
H919 C932 0.930 . S
H920 C933 0.930 . S
H921 C937 0.959 . S
H922 C937 0.959 1_554 S
H923 C937 0.961 1_554 S
H924 C938 0.960 . S
H925 C938 0.961 1_554 S
H926 C938 0.959 . S
H927 C941 0.929 . S
H928 C942 0.931 . S
H929 C944 0.930 . S
C930 H918 0.930 . S
C930 C931 1.399 . S
C930 C935 1.399 . S
C931 C930 1.399 . S
C931 C932 1.376 . S
C932 H919 0.930 . S
C932 C931 1.376 . S
C932 C933 1.388 . S
C933 H920 0.930 . S
C933 C932 1.388 . S
C933 C934 1.390 . S
C934 C933 1.390 . S
C934 C935 1.394 . S
C934 C940 1.465 . S
C935 C930 1.399 . S
C935 C934 1.394 . S
C935 C936 1.516 . S
C936 C935 1.516 . S
C936 C937 1.502 . S
C936 C938 1.561 . S
C936 C939 1.526 . S
C937 H921 0.959 . S
C937 H922 0.959 1_556 S
C937 H923 0.961 1_556 S
C937 C936 1.502 . S
C938 H924 0.960 . S
C938 H925 0.961 1_556 S
C938 H926 0.959 . S
C938 C936 1.561 . S
C939 C936 1.526 . S
C939 C940 1.396 . S
C939 C944 1.390 . S
C940 C934 1.465 . S
C940 C939 1.396 . S
C940 C941 1.399 . S
C941 H927 0.929 . S
C941 C940 1.399 . S
C941 C942 1.385 . S
C942 H928 0.931 . S
C942 C941 1.385 . S
C942 C943 1.389 . S
C943 C942 1.389 . S
C943 C944 1.387 . S
C944 H929 0.930 . S
C944 C939 1.390 . S
C944 C943 1.387 . S
H945 C957 0.930 . S
H946 C959 0.930 . S
H947 C960 0.930 . S
H948 C964 0.959 . S
H949 C964 0.959 . S
H950 C964 0.961 . S
H951 C965 0.960 . S
H952 C965 0.961 . S
H953 C965 0.959 . S
H954 C968 0.929 . S
H955 C969 0.931 . S
H956 C971 0.930 . S
C957 H945 0.930 . S
C957 C958 1.399 . S
C957 C962 1.399 . S
C958 C957 1.399 . S
C958 C959 1.376 . S
C959 H946 0.930 . S
C959 C958 1.376 . S
C959 C960 1.388 . S
C960 H947 0.930 . S
C960 C959 1.388 . S
C960 C961 1.390 . S
C961 C960 1.390 . S
C961 C962 1.394 . S
C961 C967 1.465 . S
C962 C957 1.399 . S
C962 C961 1.394 . S
C962 C963 1.516 . S
C963 C962 1.516 . S
C963 C964 1.502 . S
C963 C965 1.561 . S
C963 C966 1.526 . S
C964 H948 0.959 . S
C964 H949 0.959 . S
C964 H950 0.961 . S
C964 C963 1.502 . S
C965 H951 0.960 . S
C965 H952 0.961 . S
C965 H953 0.959 . S
C965 C963 1.561 . S
C966 C963 1.526 . S
C966 C967 1.396 . S
C966 C971 1.390 . S
C967 C961 1.465 . S
C967 C966 1.396 . S
C967 C968 1.399 . S
C968 H954 0.929 . S
C968 C967 1.399 . S
C968 C969 1.385 . S
C969 H955 0.931 . S
C969 C968 1.385 . S
C969 C970 1.389 . S
C970 C969 1.389 . S
C970 C971 1.387 . S
C971 H956 0.930 . S
C971 C966 1.390 . S
C971 C970 1.387 . S
H972 C984 0.930 . S
H973 C986 0.930 . S
H974 C987 0.930 . S
H975 C991 0.959 . S
H976 C991 0.959 . S
H977 C991 0.961 . S
H978 C992 0.967 . S
H979 C992 0.961 1_554 S
H980 C992 0.959 . S
H981 C995 0.929 . S
H982 C996 0.931 . S
H983 C998 0.930 1_554 S
C984 H972 0.930 . S
C984 C985 1.399 . S
C984 C989 1.399 . S
C985 C984 1.399 . S
C985 C986 1.376 . S
C986 H973 0.930 . S
C986 C985 1.376 . S
C986 C987 1.388 . S
C987 H974 0.930 . S
C987 C986 1.388 . S
C987 C988 1.390 . S
C988 C987 1.390 . S
C988 C989 1.394 . S
C988 C994 1.465 . S
C989 C984 1.399 . S
C989 C988 1.394 . S
C989 C990 1.516 . S
C990 C989 1.516 . S
C990 C991 1.502 1_556 S
C990 C992 1.561 . S
C990 C993 1.526 . S
C991 H975 0.959 . S
C991 H976 0.959 . S
C991 H977 0.961 . S
C991 C990 1.502 1_554 S
C992 H978 0.967 . S
C992 H979 0.961 1_556 S
C992 H980 0.959 . S
C992 C990 1.561 . S
C993 C990 1.526 . S
C993 C994 1.396 . S
C993 C998 1.390 . S
C994 C988 1.465 . S
C994 C993 1.396 . S
C994 C995 1.399 . S
C995 H981 0.929 . S
C995 C994 1.399 . S
C995 C996 1.385 . S
C996 H982 0.931 . S
C996 C995 1.385 . S
C996 C997 1.389 . S
C997 C996 1.389 . S
C997 C998 1.387 . S
C998 H983 0.930 1_556 S
C998 C993 1.390 . S
C998 C997 1.387 . S
H999 C1011 0.930 . S
H1000 C1013 0.930 . S
H1001 C1014 0.930 . S
H1002 C1018 0.959 . S
H1003 C1018 0.959 1_556 S
H1004 C1018 0.961 . S
H1005 C1019 0.960 . S
H1006 C1019 0.961 1_556 S
H1007 C1019 0.959 . S
H1008 C1022 0.929 . S
H1009 C1023 0.931 . S
H1010 C1025 0.930 . S
C1011 H999 0.930 . S
C1011 C1012 1.399 . S
C1011 C1016 1.399 . S
C1012 C1011 1.399 . S
C1012 C1013 1.376 . S
C1013 H1000 0.930 . S
C1013 C1012 1.376 . S
C1013 C1014 1.388 . S
C1014 H1001 0.930 . S
C1014 C1013 1.388 . S
C1014 C1015 1.390 . S
C1015 C1014 1.390 . S
C1015 C1016 1.394 . S
C1015 C1021 1.465 . S
C1016 C1011 1.399 . S
C1016 C1015 1.394 . S
C1016 C1017 1.516 . S
C1017 C1016 1.516 . S
C1017 C1018 1.502 . S
C1017 C1019 1.561 . S
C1017 C1020 1.526 . S
C1018 H1002 0.959 . S
C1018 H1003 0.959 1_554 S
C1018 H1004 0.961 . S
C1018 C1017 1.502 . S
C1019 H1005 0.960 . S
C1019 H1006 0.961 1_554 S
C1019 H1007 0.959 . S
C1019 C1017 1.561 . S
C1020 C1017 1.526 . S
C1020 C1021 1.396 . S
C1020 C1025 1.390 . S
C1021 C1015 1.465 . S
C1021 C1020 1.396 . S
C1021 C1022 1.399 . S
C1022 H1008 0.929 . S
C1022 C1021 1.399 . S
C1022 C1023 1.385 . S
C1023 H1009 0.931 . S
C1023 C1022 1.385 . S
C1023 C1024 1.389 . S
C1024 C1023 1.389 . S
C1024 C1025 1.387 . S
C1025 H1010 0.930 . S
C1025 C1020 1.390 . S
C1025 C1024 1.387 . S
H1026 C1038 0.930 . S
H1027 C1040 0.930 . S
H1028 C1041 0.930 . S
H1029 C1045 0.959 . S
H1030 C1045 0.959 . S
H1031 C1045 0.961 . S
H1032 C1046 0.960 . S
H1033 C1046 0.961 . S
H1034 C1046 0.959 . S
H1035 C1049 0.929 . S
H1036 C1050 0.931 . S
H1037 C1052 0.930 . S
C1038 H1026 0.930 . S
C1038 C1039 1.399 . S
C1038 C1043 1.399 . S
C1039 C1038 1.399 . S
C1039 C1040 1.376 . S
C1040 H1027 0.930 . S
C1040 C1039 1.376 . S
C1040 C1041 1.388 . S
C1041 H1028 0.930 . S
C1041 C1040 1.388 . S
C1041 C1042 1.390 . S
C1042 C1041 1.390 . S
C1042 C1043 1.394 . S
C1042 C1048 1.465 . S
C1043 C1038 1.399 . S
C1043 C1042 1.394 . S
C1043 C1044 1.516 . S
C1044 C1043 1.516 . S
C1044 C1045 1.502 . S
C1044 C1046 1.561 . S
C1044 C1047 1.526 . S
C1045 H1029 0.959 . S
C1045 H1030 0.959 . S
C1045 H1031 0.961 . S
C1045 C1044 1.502 . S
C1046 H1032 0.960 . S
C1046 H1033 0.961 . S
C1046 H1034 0.959 . S
C1046 C1044 1.561 . S
C1047 C1044 1.526 . S
C1047 C1048 1.396 . S
C1047 C1052 1.390 . S
C1048 C1042 1.465 . S
C1048 C1047 1.396 . S
C1048 C1049 1.399 . S
C1049 H1035 0.929 . S
C1049 C1048 1.399 . S
C1049 C1050 1.385 . S
C1050 H1036 0.931 . S
C1050 C1049 1.385 . S
C1050 C1051 1.389 . S
C1051 C1050 1.389 . S
C1051 C1052 1.387 . S
C1052 H1037 0.930 . S
C1052 C1047 1.390 . S
C1052 C1051 1.387 . S
H1053 C1065 0.930 . S
H1054 C1067 0.930 . S
H1055 C1068 0.930 . S
H1056 C1072 0.959 . S
H1057 C1072 0.959 . S
H1058 C1072 0.961 . S
H1059 C1073 0.960 . S
H1060 C1073 0.961 . S
H1061 C1073 0.959 . S
H1062 C1076 0.929 . S
H1063 C1077 0.931 . S
H1064 C1079 0.930 . S
C1065 H1053 0.930 . S
C1065 C1066 1.399 . S
C1065 C1070 1.399 . S
C1066 C1065 1.399 . S
C1066 C1067 1.376 . S
C1067 H1054 0.930 . S
C1067 C1066 1.376 . S
C1067 C1068 1.388 . S
C1068 H1055 0.930 . S
C1068 C1067 1.388 . S
C1068 C1069 1.390 . S
C1069 C1068 1.390 . S
C1069 C1070 1.394 . S
C1069 C1075 1.465 . S
C1070 C1065 1.399 . S
C1070 C1069 1.394 . S
C1070 C1071 1.516 . S
C1071 C1070 1.516 . S
C1071 C1072 1.502 . S
C1071 C1073 1.561 1_554 S
C1071 C1074 1.526 . S
C1072 H1056 0.959 . S
C1072 H1057 0.959 . S
C1072 H1058 0.961 . S
C1072 C1071 1.502 . S
C1073 H1059 0.960 . S
C1073 H1060 0.961 . S
C1073 H1061 0.959 . S
C1073 C1071 1.561 1_556 S
C1074 C1071 1.526 . S
C1074 C1075 1.396 . S
C1074 C1079 1.390 . S
C1075 C1069 1.465 . S
C1075 C1074 1.396 . S
C1075 C1076 1.399 . S
C1076 H1062 0.929 . S
C1076 C1075 1.399 . S
C1076 C1077 1.385 . S
C1077 H1063 0.931 . S
C1077 C1076 1.385 . S
C1077 C1078 1.389 . S
C1078 C1077 1.389 . S
C1078 C1079 1.387 . S
C1079 H1064 0.930 . S
C1079 C1074 1.390 . S
C1079 C1078 1.387 . S
H1080 C1092 0.930 . S
H1081 C1094 0.930 . S
H1082 C1095 0.930 1_455 S
H1083 C1099 0.959 . S
H1084 C1099 0.959 . S
H1085 C1099 0.961 1_655 S
H1086 C1100 0.959 1_655 S
H1087 C1100 0.962 . S
H1088 C1100 0.957 1_655 S
H1089 C1103 0.929 . S
H1090 C1104 0.931 . S
H1091 C1106 0.930 . S
C1092 H1080 0.930 . S
C1092 C1093 1.399 . S
C1092 C1097 1.399 . S
C1093 C1092 1.399 . S
C1093 C1094 1.376 . S
C1094 H1081 0.930 . S
C1094 C1093 1.376 . S
C1094 C1095 1.388 . S
C1095 H1082 0.930 1_655 S
C1095 C1094 1.388 . S
C1095 C1096 1.390 1_655 S
C1096 C1095 1.390 1_455 S
C1096 C1097 1.394 1_455 S
C1096 C1102 1.465 . S
C1097 C1092 1.399 . S
C1097 C1096 1.394 1_655 S
C1097 C1098 1.516 1_655 S
C1098 C1097 1.516 1_455 S
C1098 C1099 1.502 . S
C1098 C1100 1.562 . S
C1098 C1101 1.526 . S
C1099 H1083 0.959 . S
C1099 H1084 0.959 . S
C1099 H1085 0.961 1_455 S
C1099 C1098 1.502 . S
C1100 H1086 0.959 1_455 S
C1100 H1087 0.962 . S
C1100 H1088 0.957 1_455 S
C1100 C1098 1.562 . S
C1101 C1098 1.526 . S
C1101 C1102 1.396 . S
C1101 C1106 1.390 . S
C1102 C1096 1.465 . S
C1102 C1101 1.396 . S
C1102 C1103 1.399 . S
C1103 H1089 0.929 . S
C1103 C1102 1.399 . S
C1103 C1104 1.385 . S
C1104 H1090 0.931 . S
C1104 C1103 1.385 . S
C1104 C1105 1.389 . S
C1105 C1104 1.389 . S
C1105 C1106 1.387 . S
C1106 H1091 0.930 . S
C1106 C1101 1.390 . S
C1106 C1105 1.387 . S
H1107 C1119 0.930 . S
H1108 C1121 0.930 . S
H1109 C1122 0.930 . S
H1110 C1126 0.959 . S
H1111 C1126 0.959 . S
H1112 C1126 0.961 . S
H1113 C1127 0.960 . S
H1114 C1127 0.961 . S
H1115 C1127 0.959 . S
H1116 C1130 0.929 . S
H1117 C1131 0.931 . S
H1118 C1133 0.930 . S
C1119 H1107 0.930 . S
C1119 C1120 1.399 . S
C1119 C1124 1.399 . S
C1120 C1119 1.399 . S
C1120 C1121 1.376 . S
C1121 H1108 0.930 . S
C1121 C1120 1.376 . S
C1121 C1122 1.388 . S
C1122 H1109 0.930 . S
C1122 C1121 1.388 . S
C1122 C1123 1.390 . S
C1123 C1122 1.390 . S
C1123 C1124 1.394 . S
C1123 C1129 1.465 . S
C1124 C1119 1.399 . S
C1124 C1123 1.394 . S
C1124 C1125 1.516 . S
C1125 C1124 1.516 . S
C1125 C1126 1.502 . S
C1125 C1127 1.561 . S
C1125 C1128 1.526 . S
C1126 H1110 0.959 . S
C1126 H1111 0.959 . S
C1126 H1112 0.961 . S
C1126 C1125 1.502 . S
C1127 H1113 0.960 . S
C1127 H1114 0.961 . S
C1127 H1115 0.959 . S
C1127 C1125 1.561 . S
C1128 C1125 1.526 . S
C1128 C1129 1.396 . S
C1128 C1133 1.390 . S
C1129 C1123 1.465 . S
C1129 C1128 1.396 . S
C1129 C1130 1.399 . S
C1130 H1116 0.929 . S
C1130 C1129 1.399 . S
C1130 C1131 1.385 . S
C1131 H1117 0.931 . S
C1131 C1130 1.385 . S
C1131 C1132 1.389 . S
C1132 C1131 1.389 . S
C1132 C1133 1.387 . S
C1133 H1118 0.930 . S
C1133 C1128 1.390 . S
C1133 C1132 1.387 . S
H1134 C1146 0.930 . S
H1135 C1148 0.930 . S
H1136 C1149 0.930 . S
H1137 C1153 0.959 . S
H1138 C1153 0.959 . S
H1139 C1153 0.961 . S
H1140 C1154 0.960 . S
H1141 C1154 0.961 . S
H1142 C1154 0.959 . S
H1143 C1157 0.929 . S
H1144 C1158 0.931 . S
H1145 C1160 0.930 . S
C1146 H1134 0.930 . S
C1146 C1147 1.399 . S
C1146 C1151 1.399 1_545 S
C1147 C1146 1.399 . S
C1147 C1148 1.376 . S
C1148 H1135 0.930 . S
C1148 C1147 1.376 . S
C1148 C1149 1.388 . S
C1149 H1136 0.930 . S
C1149 C1148 1.388 . S
C1149 C1150 1.390 1_545 S
C1150 C1149 1.390 1_565 S
C1150 C1151 1.394 . S
C1150 C1156 1.465 . S
C1151 C1146 1.399 1_565 S
C1151 C1150 1.394 . S
C1151 C1152 1.516 . S
C1152 C1151 1.516 . S
C1152 C1153 1.502 . S
C1152 C1154 1.561 . S
C1152 C1155 1.526 . S
C1153 H1137 0.959 . S
C1153 H1138 0.959 . S
C1153 H1139 0.961 . S
C1153 C1152 1.502 . S
C1154 H1140 0.960 . S
C1154 H1141 0.961 . S
C1154 H1142 0.959 . S
C1154 C1152 1.561 . S
C1155 C1152 1.526 . S
C1155 C1156 1.396 . S
C1155 C1160 1.390 . S
C1156 C1150 1.465 . S
C1156 C1155 1.396 . S
C1156 C1157 1.399 . S
C1157 H1143 0.929 . S
C1157 C1156 1.399 . S
C1157 C1158 1.385 . S
C1158 H1144 0.931 . S
C1158 C1157 1.385 . S
C1158 C1159 1.389 . S
C1159 C1158 1.389 . S
C1159 C1160 1.387 . S
C1160 H1145 0.930 . S
C1160 C1155 1.390 . S
C1160 C1159 1.387 . S
H1161 C1173 0.930 . S
H1162 C1175 0.930 . S
H1163 C1176 0.930 . S
H1164 C1180 0.959 . S
H1165 C1180 0.959 . S
H1166 C1180 0.961 . S
H1167 C1181 0.960 . S
H1168 C1181 0.961 . S
H1169 C1181 0.959 . S
H1170 C1184 0.929 . S
H1171 C1185 0.931 . S
H1172 C1187 0.930 . S
C1173 H1161 0.930 . S
C1173 C1174 1.399 . S
C1173 C1178 1.399 . S
C1174 C1173 1.399 . S
C1174 C1175 1.376 . S
C1175 H1162 0.930 . S
C1175 C1174 1.376 . S
C1175 C1176 1.388 . S
C1176 H1163 0.930 . S
C1176 C1175 1.388 . S
C1176 C1177 1.390 . S
C1177 C1176 1.390 . S
C1177 C1178 1.394 . S
C1177 C1183 1.465 . S
C1178 C1173 1.399 . S
C1178 C1177 1.394 . S
C1178 C1179 1.516 . S
C1179 C1178 1.516 . S
C1179 C1180 1.502 . S
C1179 C1181 1.561 . S
C1179 C1182 1.526 . S
C1180 H1164 0.959 . S
C1180 H1165 0.959 . S
C1180 H1166 0.961 . S
C1180 C1179 1.502 . S
C1181 H1167 0.960 . S
C1181 H1168 0.961 . S
C1181 H1169 0.959 . S
C1181 C1179 1.561 . S
C1182 C1179 1.526 . S
C1182 C1183 1.396 . S
C1182 C1187 1.390 . S
C1183 C1177 1.465 . S
C1183 C1182 1.396 . S
C1183 C1184 1.399 . S
C1184 H1170 0.929 . S
C1184 C1183 1.399 . S
C1184 C1185 1.385 . S
C1185 H1171 0.931 . S
C1185 C1184 1.385 . S
C1185 C1186 1.389 . S
C1186 C1185 1.389 . S
C1186 C1187 1.387 . S
C1187 H1172 0.930 . S
C1187 C1182 1.390 . S
C1187 C1186 1.387 . S
H1188 C1200 0.930 . S
H1189 C1202 0.930 . S
H1190 C1203 0.930 . S
H1191 C1207 0.959 . S
H1192 C1207 0.959 . S
H1193 C1207 0.961 . S
H1194 C1208 0.960 . S
H1195 C1208 0.961 . S
H1196 C1208 0.959 . S
H1197 C1211 0.929 . S
H1198 C1212 0.931 . S
H1199 C1214 0.930 . S
C1200 H1188 0.930 . S
C1200 C1201 1.399 . S
C1200 C1205 1.399 . S
C1201 C1200 1.399 . S
C1201 C1202 1.376 . S
C1202 H1189 0.930 . S
C1202 C1201 1.376 . S
C1202 C1203 1.388 . S
C1203 H1190 0.930 . S
C1203 C1202 1.388 . S
C1203 C1204 1.390 . S
C1204 C1203 1.390 . S
C1204 C1205 1.394 . S
C1204 C1210 1.465 . S
C1205 C1200 1.399 . S
C1205 C1204 1.394 . S
C1205 C1206 1.516 . S
C1206 C1205 1.516 . S
C1206 C1207 1.502 . S
C1206 C1208 1.561 . S
C1206 C1209 1.526 . S
C1207 H1191 0.959 . S
C1207 H1192 0.959 . S
C1207 H1193 0.961 . S
C1207 C1206 1.502 . S
C1208 H1194 0.960 . S
C1208 H1195 0.961 . S
C1208 H1196 0.959 . S
C1208 C1206 1.561 . S
C1209 C1206 1.526 . S
C1209 C1210 1.396 . S
C1209 C1214 1.390 . S
C1210 C1204 1.465 . S
C1210 C1209 1.396 . S
C1210 C1211 1.399 . S
C1211 H1197 0.929 . S
C1211 C1210 1.399 . S
C1211 C1212 1.385 . S
C1212 H1198 0.931 . S
C1212 C1211 1.385 . S
C1212 C1213 1.389 . S
C1213 C1212 1.389 . S
C1213 C1214 1.387 . S
C1214 H1199 0.930 . S
C1214 C1209 1.390 . S
C1214 C1213 1.387 . S
H1215 C1227 0.930 . S
H1216 C1229 0.930 . S
H1217 C1230 0.930 . S
H1218 C1234 0.959 . S
H1219 C1234 0.959 . S
H1220 C1234 0.961 . S
H1221 C1235 0.960 . S
H1222 C1235 0.961 . S
H1223 C1235 0.959 . S
H1224 C1238 0.929 . S
H1225 C1239 0.931 . S
H1226 C1241 0.930 . S
C1227 H1215 0.930 . S
C1227 C1228 1.399 . S
C1227 C1232 1.399 . S
C1228 C1227 1.399 . S
C1228 C1229 1.376 . S
C1229 H1216 0.930 . S
C1229 C1228 1.376 . S
C1229 C1230 1.388 . S
C1230 H1217 0.930 . S
C1230 C1229 1.388 . S
C1230 C1231 1.390 . S
C1231 C1230 1.390 . S
C1231 C1232 1.394 . S
C1231 C1237 1.465 . S
C1232 C1227 1.399 . S
C1232 C1231 1.394 . S
C1232 C1233 1.516 . S
C1233 C1232 1.516 . S
C1233 C1234 1.502 . S
C1233 C1235 1.561 . S
C1233 C1236 1.526 . S
C1234 H1218 0.959 . S
C1234 H1219 0.959 . S
C1234 H1220 0.961 . S
C1234 C1233 1.502 . S
C1235 H1221 0.960 . S
C1235 H1222 0.961 . S
C1235 H1223 0.959 . S
C1235 C1233 1.561 . S
C1236 C1233 1.526 . S
C1236 C1237 1.396 . S
C1236 C1241 1.390 . S
C1237 C1231 1.465 . S
C1237 C1236 1.396 . S
C1237 C1238 1.399 . S
C1238 H1224 0.929 . S
C1238 C1237 1.399 . S
C1238 C1239 1.385 . S
C1239 H1225 0.931 . S
C1239 C1238 1.385 . S
C1239 C1240 1.389 . S
C1240 C1239 1.389 . S
C1240 C1241 1.387 . S
C1241 H1226 0.930 . S
C1241 C1236 1.390 . S
C1241 C1240 1.387 . S
H1242 C1254 0.930 . S
H1243 C1256 0.930 . S
H1244 C1257 0.930 . S
H1245 C1261 0.959 . S
H1246 C1261 0.959 . S
H1247 C1261 0.961 . S
H1248 C1262 0.960 . S
H1249 C1262 0.961 . S
H1250 C1262 0.959 . S
H1251 C1265 0.929 . S
H1252 C1266 0.931 . S
H1253 C1268 0.930 . S
C1254 H1242 0.930 . S
C1254 C1255 1.399 . S
C1254 C1259 1.399 . S
C1255 C1254 1.399 . S
C1255 C1256 1.376 . S
C1256 H1243 0.930 . S
C1256 C1255 1.376 . S
C1256 C1257 1.388 . S
C1257 H1244 0.930 . S
C1257 C1256 1.388 . S
C1257 C1258 1.390 . S
C1258 C1257 1.390 . S
C1258 C1259 1.394 . S
C1258 C1264 1.465 . S
C1259 C1254 1.399 . S
C1259 C1258 1.394 . S
C1259 C1260 1.516 . S
C1260 C1259 1.516 . S
C1260 C1261 1.502 . S
C1260 C1262 1.561 . S
C1260 C1263 1.526 . S
C1261 H1245 0.959 . S
C1261 H1246 0.959 . S
C1261 H1247 0.961 . S
C1261 C1260 1.502 . S
C1262 H1248 0.960 . S
C1262 H1249 0.961 . S
C1262 H1250 0.959 . S
C1262 C1260 1.561 . S
C1263 C1260 1.526 . S
C1263 C1264 1.396 . S
C1263 C1268 1.390 . S
C1264 C1258 1.465 . S
C1264 C1263 1.396 . S
C1264 C1265 1.399 . S
C1265 H1251 0.929 . S
C1265 C1264 1.399 . S
C1265 C1266 1.385 . S
C1266 H1252 0.931 . S
C1266 C1265 1.385 . S
C1266 C1267 1.389 . S
C1267 C1266 1.389 . S
C1267 C1268 1.387 . S
C1268 H1253 0.930 . S
C1268 C1263 1.390 . S
C1268 C1267 1.387 . S
H1269 C1281 0.930 . S
H1270 C1283 0.930 . S
H1271 C1284 0.930 . S
H1272 C1288 0.959 . S
H1273 C1288 0.959 . S
H1274 C1288 0.961 . S
H1275 C1289 0.960 . S
H1276 C1289 0.961 . S
H1277 C1289 0.959 . S
H1278 C1292 0.929 . S
H1279 C1293 0.931 . S
H1280 C1295 0.930 . S
C1281 H1269 0.930 . S
C1281 C1282 1.399 . S
C1281 C1286 1.399 . S
C1282 C1281 1.399 . S
C1282 C1283 1.376 . S
C1283 H1270 0.930 . S
C1283 C1282 1.376 . S
C1283 C1284 1.388 . S
C1284 H1271 0.930 . S
C1284 C1283 1.388 . S
C1284 C1285 1.390 . S
C1285 C1284 1.390 . S
C1285 C1286 1.394 . S
C1285 C1291 1.465 . S
C1286 C1281 1.399 . S
C1286 C1285 1.394 . S
C1286 C1287 1.516 . S
C1287 C1286 1.516 . S
C1287 C1288 1.502 . S
C1287 C1289 1.561 . S
C1287 C1290 1.526 . S
C1288 H1272 0.959 . S
C1288 H1273 0.959 . S
C1288 H1274 0.961 . S
C1288 C1287 1.502 . S
C1289 H1275 0.960 . S
C1289 H1276 0.961 . S
C1289 H1277 0.959 . S
C1289 C1287 1.561 . S
C1290 C1287 1.526 . S
C1290 C1291 1.396 . S
C1290 C1295 1.390 . S
C1291 C1285 1.465 . S
C1291 C1290 1.396 . S
C1291 C1292 1.399 . S
C1292 H1278 0.929 . S
C1292 C1291 1.399 . S
C1292 C1293 1.385 . S
C1293 H1279 0.931 . S
C1293 C1292 1.385 . S
C1293 C1294 1.389 . S
C1294 C1293 1.389 . S
C1294 C1295 1.387 . S
C1295 H1280 0.930 . S
C1295 C1290 1.390 . S
C1295 C1294 1.387 . S
H1296 C1308 0.930 . S
H1297 C1310 0.930 . S
H1298 C1311 0.930 . S
H1299 C1315 0.959 . S
H1300 C1315 0.959 . S
H1301 C1315 0.961 . S
H1302 C1316 0.960 . S
H1303 C1316 0.961 . S
H1304 C1316 0.959 . S
H1305 C1319 0.929 . S
H1306 C1320 0.931 . S
H1307 C1322 0.930 . S
C1308 H1296 0.930 . S
C1308 C1309 1.399 . S
C1308 C1313 1.399 . S
C1309 C1308 1.399 . S
C1309 C1310 1.376 . S
C1310 H1297 0.930 . S
C1310 C1309 1.376 . S
C1310 C1311 1.388 . S
C1311 H1298 0.930 . S
C1311 C1310 1.388 . S
C1311 C1312 1.390 . S
C1312 C1311 1.390 . S
C1312 C1313 1.394 . S
C1312 C1318 1.465 . S
C1313 C1308 1.399 . S
C1313 C1312 1.394 . S
C1313 C1314 1.516 . S
C1314 C1313 1.516 . S
C1314 C1315 1.502 . S
C1314 C1316 1.561 . S
C1314 C1317 1.526 . S
C1315 H1299 0.959 . S
C1315 H1300 0.959 . S
C1315 H1301 0.961 . S
C1315 C1314 1.502 . S
C1316 H1302 0.960 . S
C1316 H1303 0.961 . S
C1316 H1304 0.959 . S
C1316 C1314 1.561 . S
C1317 C1314 1.526 . S
C1317 C1318 1.396 . S
C1317 C1322 1.390 . S
C1318 C1312 1.465 . S
C1318 C1317 1.396 . S
C1318 C1319 1.399 . S
C1319 H1305 0.929 . S
C1319 C1318 1.399 . S
C1319 C1320 1.385 . S
C1320 H1306 0.931 . S
C1320 C1319 1.385 . S
C1320 C1321 1.389 . S
C1321 C1320 1.389 . S
C1321 C1322 1.387 . S
C1322 H1307 0.930 . S
C1322 C1317 1.390 . S
C1322 C1321 1.387 . S
H1323 C1335 0.930 . S
H1324 C1337 0.930 . S
H1325 C1338 0.930 . S
H1326 C1342 0.959 . S
H1327 C1342 0.959 . S
H1328 C1342 0.961 . S
H1329 C1343 0.960 . S
H1330 C1343 0.961 . S
H1331 C1343 0.959 . S
H1332 C1346 0.929 . S
H1333 C1347 0.931 . S
H1334 C1349 0.930 . S
C1335 H1323 0.930 . S
C1335 C1336 1.399 . S
C1335 C1340 1.399 1_545 S
C1336 C1335 1.399 . S
C1336 C1337 1.376 . S
C1337 H1324 0.930 . S
C1337 C1336 1.376 . S
C1337 C1338 1.388 . S
C1338 H1325 0.930 . S
C1338 C1337 1.388 . S
C1338 C1339 1.390 1_545 S
C1339 C1338 1.390 1_565 S
C1339 C1340 1.394 . S
C1339 C1345 1.465 . S
C1340 C1335 1.399 1_565 S
C1340 C1339 1.394 . S
C1340 C1341 1.516 . S
C1341 C1340 1.516 . S
C1341 C1342 1.502 . S
C1341 C1343 1.561 . S
C1341 C1344 1.526 . S
C1342 H1326 0.959 . S
C1342 H1327 0.959 . S
C1342 H1328 0.961 . S
C1342 C1341 1.502 . S
C1343 H1329 0.960 . S
C1343 H1330 0.961 . S
C1343 H1331 0.959 . S
C1343 C1341 1.561 . S
C1344 C1341 1.526 . S
C1344 C1345 1.396 . S
C1344 C1349 1.390 . S
C1345 C1339 1.465 . S
C1345 C1344 1.396 . S
C1345 C1346 1.399 . S
C1346 H1332 0.929 . S
C1346 C1345 1.399 . S
C1346 C1347 1.385 . S
C1347 H1333 0.931 . S
C1347 C1346 1.385 . S
C1347 C1348 1.389 . S
C1348 C1347 1.389 . S
C1348 C1349 1.387 . S
C1349 H1334 0.930 . S
C1349 C1344 1.390 . S
C1349 C1348 1.387 . S
H1350 C1362 0.930 . S
H1351 C1364 0.930 . S
H1352 C1365 0.930 . S
H1353 C1369 0.959 . S
H1354 C1369 0.959 . S
H1355 C1369 0.961 1_655 S
H1356 C1370 0.960 1_655 S
H1357 C1370 0.961 . S
H1358 C1370 0.959 . S
H1359 C1373 0.929 . S
H1360 C1374 0.931 . S
H1361 C1376 0.930 . S
C1362 H1350 0.930 . S
C1362 C1363 1.399 . S
C1362 C1367 1.399 1_655 S
C1363 C1362 1.399 . S
C1363 C1364 1.376 . S
C1364 H1351 0.930 . S
C1364 C1363 1.376 . S
C1364 C1365 1.388 1_655 S
C1365 H1352 0.930 . S
C1365 C1364 1.388 1_455 S
C1365 C1366 1.390 . S
C1366 C1365 1.390 . S
C1366 C1367 1.394 . S
C1366 C1372 1.465 . S
C1367 C1362 1.399 1_455 S
C1367 C1366 1.394 . S
C1367 C1368 1.516 . S
C1368 C1367 1.516 . S
C1368 C1369 1.502 . S
C1368 C1370 1.561 . S
C1368 C1371 1.526 . S
C1369 H1353 0.959 . S
C1369 H1354 0.959 . S
C1369 H1355 0.961 1_455 S
C1369 C1368 1.502 . S
C1370 H1356 0.960 1_455 S
C1370 H1357 0.961 . S
C1370 H1358 0.959 . S
C1370 C1368 1.561 . S
C1371 C1368 1.526 . S
C1371 C1372 1.396 . S
C1371 C1376 1.390 . S
C1372 C1366 1.465 . S
C1372 C1371 1.396 . S
C1372 C1373 1.399 . S
C1373 H1359 0.929 . S
C1373 C1372 1.399 . S
C1373 C1374 1.385 . S
C1374 H1360 0.931 . S
C1374 C1373 1.385 . S
C1374 C1375 1.389 . S
C1375 C1374 1.389 . S
C1375 C1376 1.387 . S
C1376 H1361 0.930 . S
C1376 C1371 1.390 . S
C1376 C1375 1.387 . S
H1377 C1389 0.930 . S
H1378 C1391 0.930 . S
H1379 C1392 0.930 . S
H1380 C1396 0.959 . S
H1381 C1396 0.959 . S
H1382 C1396 0.961 . S
H1383 C1397 0.960 . S
H1384 C1397 0.961 . S
H1385 C1397 0.959 . S
H1386 C1400 0.929 . S
H1387 C1401 0.931 . S
H1388 C1403 0.930 . S
C1389 H1377 0.930 . S
C1389 C1390 1.399 . S
C1389 C1394 1.399 . S
C1390 C1389 1.399 . S
C1390 C1391 1.376 . S
C1391 H1378 0.930 . S
C1391 C1390 1.376 . S
C1391 C1392 1.388 . S
C1392 H1379 0.930 . S
C1392 C1391 1.388 . S
C1392 C1393 1.390 . S
C1393 C1392 1.390 . S
C1393 C1394 1.394 . S
C1393 C1399 1.465 . S
C1394 C1389 1.399 . S
C1394 C1393 1.394 . S
C1394 C1395 1.516 . S
C1395 C1394 1.516 . S
C1395 C1396 1.502 . S
C1395 C1397 1.561 . S
C1395 C1398 1.526 . S
C1396 H1380 0.959 . S
C1396 H1381 0.959 . S
C1396 H1382 0.961 . S
C1396 C1395 1.502 . S
C1397 H1383 0.960 . S
C1397 H1384 0.961 . S
C1397 H1385 0.959 . S
C1397 C1395 1.561 . S
C1398 C1395 1.526 . S
C1398 C1399 1.396 . S
C1398 C1403 1.390 . S
C1399 C1393 1.465 . S
C1399 C1398 1.396 . S
C1399 C1400 1.399 . S
C1400 H1386 0.929 . S
C1400 C1399 1.399 . S
C1400 C1401 1.385 . S
C1401 H1387 0.931 . S
C1401 C1400 1.385 . S
C1401 C1402 1.389 . S
C1402 C1401 1.389 . S
C1402 C1403 1.387 . S
C1403 H1388 0.930 . S
C1403 C1398 1.390 . S
C1403 C1402 1.387 . S
H1404 C1416 0.930 . S
H1405 C1418 0.930 . S
H1406 C1419 0.930 . S
H1407 C1423 0.959 . S
H1408 C1423 0.959 . S
H1409 C1423 0.961 . S
H1410 C1424 0.960 . S
H1411 C1424 0.961 . S
H1412 C1424 0.959 . S
H1413 C1427 0.929 . S
H1414 C1428 0.931 . S
H1415 C1430 0.930 . S
C1416 H1404 0.930 . S
C1416 C1417 1.399 . S
C1416 C1421 1.399 . S
C1417 C1416 1.399 . S
C1417 C1418 1.376 . S
C1418 H1405 0.930 . S
C1418 C1417 1.376 . S
C1418 C1419 1.388 . S
C1419 H1406 0.930 . S
C1419 C1418 1.388 . S
C1419 C1420 1.390 . S
C1420 C1419 1.390 . S
C1420 C1421 1.394 . S
C1420 C1426 1.465 . S
C1421 C1416 1.399 . S
C1421 C1420 1.394 . S
C1421 C1422 1.516 . S
C1422 C1421 1.516 . S
C1422 C1423 1.502 . S
C1422 C1424 1.561 . S
C1422 C1425 1.526 . S
C1423 H1407 0.959 . S
C1423 H1408 0.959 . S
C1423 H1409 0.961 . S
C1423 C1422 1.502 . S
C1424 H1410 0.960 . S
C1424 H1411 0.961 . S
C1424 H1412 0.959 . S
C1424 C1422 1.561 . S
C1425 C1422 1.526 . S
C1425 C1426 1.396 . S
C1425 C1430 1.390 . S
C1426 C1420 1.465 . S
C1426 C1425 1.396 . S
C1426 C1427 1.399 . S
C1427 H1413 0.929 . S
C1427 C1426 1.399 . S
C1427 C1428 1.385 . S
C1428 H1414 0.931 . S
C1428 C1427 1.385 . S
C1428 C1429 1.389 . S
C1429 C1428 1.389 . S
C1429 C1430 1.387 . S
C1430 H1415 0.930 . S
C1430 C1425 1.390 . S
C1430 C1429 1.387 . S
H1431 C1443 0.930 . S
H1432 C1445 0.930 . S
H1433 C1446 0.930 . S
H1434 C1450 0.959 . S
H1435 C1450 0.959 . S
H1436 C1450 0.961 . S
H1437 C1451 0.960 . S
H1438 C1451 0.961 . S
H1439 C1451 0.959 . S
H1440 C1454 0.929 . S
H1441 C1455 0.931 . S
H1442 C1457 0.930 . S
C1443 H1431 0.930 . S
C1443 C1444 1.399 . S
C1443 C1448 1.399 . S
C1444 C1443 1.399 . S
C1444 C1445 1.376 . S
C1445 H1432 0.930 . S
C1445 C1444 1.376 . S
C1445 C1446 1.388 . S
C1446 H1433 0.930 . S
C1446 C1445 1.388 . S
C1446 C1447 1.390 . S
C1447 C1446 1.390 . S
C1447 C1448 1.394 . S
C1447 C1453 1.465 . S
C1448 C1443 1.399 . S
C1448 C1447 1.394 . S
C1448 C1449 1.516 . S
C1449 C1448 1.516 . S
C1449 C1450 1.502 . S
C1449 C1451 1.561 . S
C1449 C1452 1.526 . S
C1450 H1434 0.959 . S
C1450 H1435 0.959 . S
C1450 H1436 0.961 . S
C1450 C1449 1.502 . S
C1451 H1437 0.960 . S
C1451 H1438 0.961 . S
C1451 H1439 0.959 . S
C1451 C1449 1.561 . S
C1452 C1449 1.526 . S
C1452 C1453 1.396 . S
C1452 C1457 1.390 . S
C1453 C1447 1.465 . S
C1453 C1452 1.396 . S
C1453 C1454 1.399 . S
C1454 H1440 0.929 . S
C1454 C1453 1.399 . S
C1454 C1455 1.385 . S
C1455 H1441 0.931 . S
C1455 C1454 1.385 . S
C1455 C1456 1.389 . S
C1456 C1455 1.389 . S
C1456 C1457 1.387 . S
C1457 H1442 0.930 . S
C1457 C1452 1.390 . S
C1457 C1456 1.387 . S
H1458 C1470 0.930 . S
H1459 C1472 0.930 . S
H1460 C1473 0.930 . S
H1461 C1477 0.959 . S
H1462 C1477 0.959 . S
H1463 C1477 0.961 . S
H1464 C1478 0.960 . S
H1465 C1478 0.961 . S
H1466 C1478 0.959 . S
H1467 C1481 0.929 . S
H1468 C1482 0.931 . S
H1469 C1484 0.930 . S
C1470 H1458 0.930 . S
C1470 C1471 1.399 . S
C1470 C1475 1.399 . S
C1471 C1470 1.399 . S
C1471 C1472 1.376 . S
C1472 H1459 0.930 . S
C1472 C1471 1.376 . S
C1472 C1473 1.388 . S
C1473 H1460 0.930 . S
C1473 C1472 1.388 . S
C1473 C1474 1.390 . S
C1474 C1473 1.390 . S
C1474 C1475 1.394 . S
C1474 C1480 1.465 . S
C1475 C1470 1.399 . S
C1475 C1474 1.394 . S
C1475 C1476 1.516 . S
C1476 C1475 1.516 . S
C1476 C1477 1.502 . S
C1476 C1478 1.561 . S
C1476 C1479 1.526 . S
C1477 H1461 0.959 . S
C1477 H1462 0.959 . S
C1477 H1463 0.961 . S
C1477 C1476 1.502 . S
C1478 H1464 0.960 . S
C1478 H1465 0.961 . S
C1478 H1466 0.959 . S
C1478 C1476 1.561 . S
C1479 C1476 1.526 . S
C1479 C1480 1.396 . S
C1479 C1484 1.390 . S
C1480 C1474 1.465 . S
C1480 C1479 1.396 . S
C1480 C1481 1.399 . S
C1481 H1467 0.929 . S
C1481 C1480 1.399 . S
C1481 C1482 1.385 . S
C1482 H1468 0.931 . S
C1482 C1481 1.385 . S
C1482 C1483 1.389 . S
C1483 C1482 1.389 . S
C1483 C1484 1.387 . S
C1484 H1469 0.930 . S
C1484 C1479 1.390 . S
C1484 C1483 1.387 . S
H1485 C1497 0.930 . S
H1486 C1499 0.930 . S
H1487 C1500 0.930 . S
H1488 C1504 0.959 . S
H1489 C1504 0.959 . S
H1490 C1504 0.961 . S
H1491 C1505 0.960 . S
H1492 C1505 0.961 . S
H1493 C1505 0.959 . S
H1494 C1508 0.929 . S
H1495 C1509 0.931 . S
H1496 C1511 0.930 . S
C1497 H1485 0.930 . S
C1497 C1498 1.399 . S
C1497 C1502 1.399 1_565 S
C1498 C1497 1.399 . S
C1498 C1499 1.376 . S
C1499 H1486 0.930 . S
C1499 C1498 1.376 . S
C1499 C1500 1.388 . S
C1500 H1487 0.930 . S
C1500 C1499 1.388 . S
C1500 C1501 1.390 1_565 S
C1501 C1500 1.390 1_545 S
C1501 C1502 1.394 . S
C1501 C1507 1.465 . S
C1502 C1497 1.399 1_545 S
C1502 C1501 1.394 . S
C1502 C1503 1.516 . S
C1503 C1502 1.516 . S
C1503 C1504 1.502 . S
C1503 C1505 1.561 . S
C1503 C1506 1.526 . S
C1504 H1488 0.959 . S
C1504 H1489 0.959 . S
C1504 H1490 0.961 . S
C1504 C1503 1.502 . S
C1505 H1491 0.960 . S
C1505 H1492 0.961 . S
C1505 H1493 0.959 . S
C1505 C1503 1.561 . S
C1506 C1503 1.526 . S
C1506 C1507 1.396 . S
C1506 C1511 1.390 . S
C1507 C1501 1.465 . S
C1507 C1506 1.396 . S
C1507 C1508 1.399 . S
C1508 H1494 0.929 . S
C1508 C1507 1.399 . S
C1508 C1509 1.385 . S
C1509 H1495 0.931 . S
C1509 C1508 1.385 . S
C1509 C1510 1.389 . S
C1510 C1509 1.389 . S
C1510 C1511 1.387 . S
C1511 H1496 0.930 . S
C1511 C1506 1.390 . S
C1511 C1510 1.387 . S
H1512 C1524 0.930 . S
H1513 C1526 0.930 . S
H1514 C1527 0.930 . S
H1515 C1531 0.959 . S
H1516 C1531 0.959 . S
H1517 C1531 0.961 . S
H1518 C1532 0.960 . S
H1519 C1532 0.961 . S
H1520 C1532 0.959 . S
H1521 C1535 0.929 . S
H1522 C1536 0.931 . S
H1523 C1538 0.930 . S
C1524 H1512 0.930 . S
C1524 C1525 1.399 . S
C1524 C1529 1.399 1_455 S
C1525 C1524 1.399 . S
C1525 C1526 1.376 . S
C1526 H1513 0.930 . S
C1526 C1525 1.376 . S
C1526 C1527 1.388 . S
C1527 H1514 0.930 . S
C1527 C1526 1.388 . S
C1527 C1528 1.390 1_455 S
C1528 C1527 1.390 1_655 S
C1528 C1529 1.394 . S
C1528 C1534 1.465 . S
C1529 C1524 1.399 1_655 S
C1529 C1528 1.394 . S
C1529 C1530 1.516 . S
C1530 C1529 1.516 . S
C1530 C1531 1.502 . S
C1530 C1532 1.561 . S
C1530 C1533 1.526 . S
C1531 H1515 0.959 . S
C1531 H1516 0.959 . S
C1531 H1517 0.961 . S
C1531 C1530 1.502 . S
C1532 H1518 0.960 . S
C1532 H1519 0.961 . S
C1532 H1520 0.959 . S
C1532 C1530 1.561 . S
C1533 C1530 1.526 . S
C1533 C1534 1.396 . S
C1533 C1538 1.390 . S
C1534 C1528 1.465 . S
C1534 C1533 1.396 . S
C1534 C1535 1.399 . S
C1535 H1521 0.929 . S
C1535 C1534 1.399 . S
C1535 C1536 1.385 . S
C1536 H1522 0.931 . S
C1536 C1535 1.385 . S
C1536 C1537 1.389 . S
C1537 C1536 1.389 . S
C1537 C1538 1.387 . S
C1538 H1523 0.930 . S
C1538 C1533 1.390 . S
C1538 C1537 1.387 . S
H1539 C1551 0.930 . S
H1540 C1553 0.930 . S
H1541 C1554 0.930 . S
H1542 C1558 0.959 . S
H1543 C1558 0.959 . S
H1544 C1558 0.961 . S
H1545 C1559 0.960 . S
H1546 C1559 0.961 . S
H1547 C1559 0.959 . S
H1548 C1562 0.929 . S
H1549 C1563 0.931 . S
H1550 C1565 0.930 . S
C1551 H1539 0.930 . S
C1551 C1552 1.399 . S
C1551 C1556 1.399 . S
C1552 C1551 1.399 . S
C1552 C1553 1.376 . S
C1553 H1540 0.930 . S
C1553 C1552 1.376 . S
C1553 C1554 1.388 . S
C1554 H1541 0.930 . S
C1554 C1553 1.388 . S
C1554 C1555 1.390 . S
C1555 C1554 1.390 . S
C1555 C1556 1.394 . S
C1555 C1561 1.465 . S
C1556 C1551 1.399 . S
C1556 C1555 1.394 . S
C1556 C1557 1.516 . S
C1557 C1556 1.516 . S
C1557 C1558 1.502 . S
C1557 C1559 1.561 . S
C1557 C1560 1.526 . S
C1558 H1542 0.959 . S
C1558 H1543 0.959 . S
C1558 H1544 0.961 . S
C1558 C1557 1.502 . S
C1559 H1545 0.960 . S
C1559 H1546 0.961 . S
C1559 H1547 0.959 . S
C1559 C1557 1.561 . S
C1560 C1557 1.526 . S
C1560 C1561 1.396 . S
C1560 C1565 1.390 . S
C1561 C1555 1.465 . S
C1561 C1560 1.396 . S
C1561 C1562 1.399 . S
C1562 H1548 0.929 . S
C1562 C1561 1.399 . S
C1562 C1563 1.385 . S
C1563 H1549 0.931 . S
C1563 C1562 1.385 . S
C1563 C1564 1.389 . S
C1564 C1563 1.389 . S
C1564 C1565 1.387 . S
C1565 H1550 0.930 . S
C1565 C1560 1.390 . S
C1565 C1564 1.387 . S
H1566 C1578 0.930 . S
H1567 C1580 0.930 . S
H1568 C1581 0.930 . S
H1569 C1585 0.959 . S
H1570 C1585 0.959 . S
H1571 C1585 0.961 1_455 S
H1572 C1586 0.960 . S
H1573 C1586 0.961 . S
H1574 C1586 0.959 . S
H1575 C1589 0.929 . S
H1576 C1590 0.931 . S
H1577 C1592 0.930 . S
C1578 H1566 0.930 . S
C1578 C1579 1.399 . S
C1578 C1583 1.399 . S
C1579 C1578 1.399 . S
C1579 C1580 1.376 . S
C1580 H1567 0.930 . S
C1580 C1579 1.376 . S
C1580 C1581 1.388 . S
C1581 H1568 0.930 . S
C1581 C1580 1.388 . S
C1581 C1582 1.390 1_455 S
C1582 C1581 1.390 1_655 S
C1582 C1583 1.394 1_655 S
C1582 C1588 1.465 . S
C1583 C1578 1.399 . S
C1583 C1582 1.394 1_455 S
C1583 C1584 1.516 1_455 S
C1584 C1583 1.516 1_655 S
C1584 C1585 1.502 . S
C1584 C1586 1.561 . S
C1584 C1587 1.526 . S
C1585 H1569 0.959 . S
C1585 H1570 0.959 . S
C1585 H1571 0.961 1_655 S
C1585 C1584 1.502 . S
C1586 H1572 0.960 . S
C1586 H1573 0.961 . S
C1586 H1574 0.959 . S
C1586 C1584 1.561 . S
C1587 C1584 1.526 . S
C1587 C1588 1.396 . S
C1587 C1592 1.390 . S
C1588 C1582 1.465 . S
C1588 C1587 1.396 . S
C1588 C1589 1.399 . S
C1589 H1575 0.929 . S
C1589 C1588 1.399 . S
C1589 C1590 1.385 . S
C1590 H1576 0.931 . S
C1590 C1589 1.385 . S
C1590 C1591 1.389 . S
C1591 C1590 1.389 . S
C1591 C1592 1.387 . S
C1592 H1577 0.930 . S
C1592 C1587 1.390 . S
C1592 C1591 1.387 . S
H1593 C1605 0.930 . S
H1594 C1607 0.930 . S
H1595 C1608 0.930 . S
H1596 C1612 0.959 . S
H1597 C1612 0.959 . S
H1598 C1612 0.961 . S
H1599 C1613 0.960 . S
H1600 C1613 0.961 . S
H1601 C1613 0.959 . S
H1602 C1616 0.929 . S
H1603 C1617 0.931 . S
H1604 C1619 0.930 . S
C1605 H1593 0.930 . S
C1605 C1606 1.399 . S
C1605 C1610 1.399 . S
C1606 C1605 1.399 . S
C1606 C1607 1.376 . S
C1607 H1594 0.930 . S
C1607 C1606 1.376 . S
C1607 C1608 1.388 . S
C1608 H1595 0.930 . S
C1608 C1607 1.388 . S
C1608 C1609 1.390 . S
C1609 C1608 1.390 . S
C1609 C1610 1.394 . S
C1609 C1615 1.465 . S
C1610 C1605 1.399 . S
C1610 C1609 1.394 . S
C1610 C1611 1.516 . S
C1611 C1610 1.516 . S
C1611 C1612 1.502 . S
C1611 C1613 1.561 . S
C1611 C1614 1.526 . S
C1612 H1596 0.959 . S
C1612 H1597 0.959 . S
C1612 H1598 0.961 . S
C1612 C1611 1.502 . S
C1613 H1599 0.960 . S
C1613 H1600 0.961 . S
C1613 H1601 0.959 . S
C1613 C1611 1.561 . S
C1614 C1611 1.526 . S
C1614 C1615 1.396 . S
C1614 C1619 1.390 . S
C1615 C1609 1.465 . S
C1615 C1614 1.396 . S
C1615 C1616 1.399 . S
C1616 H1602 0.929 . S
C1616 C1615 1.399 . S
C1616 C1617 1.385 . S
C1617 H1603 0.931 . S
C1617 C1616 1.385 . S
C1617 C1618 1.389 . S
C1618 C1617 1.389 . S
C1618 C1619 1.387 . S
C1619 H1604 0.930 . S
C1619 C1614 1.390 . S
C1619 C1618 1.387 . S
H1620 C1632 0.930 . S
H1621 C1634 0.930 . S
H1622 C1635 0.930 . S
H1623 C1639 0.959 . S
H1624 C1639 0.959 . S
H1625 C1639 0.961 . S
H1626 C1640 0.960 . S
H1627 C1640 0.961 . S
H1628 C1640 0.959 . S
H1629 C1643 0.929 . S
H1630 C1644 0.931 . S
H1631 C1646 0.930 . S
C1632 H1620 0.930 . S
C1632 C1633 1.399 . S
C1632 C1637 1.399 1_565 S
C1633 C1632 1.399 . S
C1633 C1634 1.376 . S
C1634 H1621 0.930 . S
C1634 C1633 1.376 . S
C1634 C1635 1.388 . S
C1635 H1622 0.930 . S
C1635 C1634 1.388 . S
C1635 C1636 1.390 1_565 S
C1636 C1635 1.390 1_545 S
C1636 C1637 1.394 . S
C1636 C1642 1.465 . S
C1637 C1632 1.399 1_545 S
C1637 C1636 1.394 . S
C1637 C1638 1.516 . S
C1638 C1637 1.516 . S
C1638 C1639 1.502 . S
C1638 C1640 1.561 . S
C1638 C1641 1.526 . S
C1639 H1623 0.959 . S
C1639 H1624 0.959 . S
C1639 H1625 0.961 . S
C1639 C1638 1.502 . S
C1640 H1626 0.960 . S
C1640 H1627 0.961 . S
C1640 H1628 0.959 . S
C1640 C1638 1.561 . S
C1641 C1638 1.526 . S
C1641 C1642 1.396 . S
C1641 C1646 1.390 . S
C1642 C1636 1.465 . S
C1642 C1641 1.396 . S
C1642 C1643 1.399 . S
C1643 H1629 0.929 . S
C1643 C1642 1.399 . S
C1643 C1644 1.385 . S
C1644 H1630 0.931 . S
C1644 C1643 1.385 . S
C1644 C1645 1.389 . S
C1645 C1644 1.389 . S
C1645 C1646 1.387 . S
C1646 H1631 0.930 . S
C1646 C1641 1.390 . S
C1646 C1645 1.387 . S
H1647 C1659 0.930 . S
H1648 C1661 0.930 . S
H1649 C1662 0.930 . S
H1650 C1666 0.959 . S
H1651 C1666 0.959 . S
H1652 C1666 0.961 . S
H1653 C1667 0.960 . S
H1654 C1667 0.961 . S
H1655 C1667 0.959 . S
H1656 C1670 0.929 . S
H1657 C1671 0.931 . S
H1658 C1673 0.930 . S
C1659 H1647 0.930 . S
C1659 C1660 1.399 . S
C1659 C1664 1.399 . S
C1660 C1659 1.399 . S
C1660 C1661 1.376 . S
C1661 H1648 0.930 . S
C1661 C1660 1.376 . S
C1661 C1662 1.388 . S
C1662 H1649 0.930 . S
C1662 C1661 1.388 . S
C1662 C1663 1.390 . S
C1663 C1662 1.390 . S
C1663 C1664 1.394 . S
C1663 C1669 1.465 . S
C1664 C1659 1.399 . S
C1664 C1663 1.394 . S
C1664 C1665 1.516 . S
C1665 C1664 1.516 . S
C1665 C1666 1.502 . S
C1665 C1667 1.561 . S
C1665 C1668 1.526 . S
C1666 H1650 0.959 . S
C1666 H1651 0.959 . S
C1666 H1652 0.961 . S
C1666 C1665 1.502 . S
C1667 H1653 0.960 . S
C1667 H1654 0.961 . S
C1667 H1655 0.959 . S
C1667 C1665 1.561 . S
C1668 C1665 1.526 . S
C1668 C1669 1.396 . S
C1668 C1673 1.390 . S
C1669 C1663 1.465 . S
C1669 C1668 1.396 . S
C1669 C1670 1.399 . S
C1670 H1656 0.929 . S
C1670 C1669 1.399 . S
C1670 C1671 1.385 . S
C1671 H1657 0.931 . S
C1671 C1670 1.385 . S
C1671 C1672 1.389 . S
C1672 C1671 1.389 . S
C1672 C1673 1.387 . S
C1673 H1658 0.930 . S
C1673 C1668 1.390 . S
C1673 C1672 1.387 . S
H1674 C1686 0.930 . S
H1675 C1688 0.930 . S
H1676 C1689 0.930 . S
H1677 C1693 0.959 . S
H1678 C1693 0.959 . S
H1679 C1693 0.961 . S
H1680 C1694 0.960 . S
H1681 C1694 0.961 . S
H1682 C1694 0.959 . S
H1683 C1697 0.929 . S
H1684 C1698 0.931 . S
H1685 C1700 0.930 . S
C1686 H1674 0.930 . S
C1686 C1687 1.399 . S
C1686 C1691 1.399 . S
C1687 C1686 1.399 . S
C1687 C1688 1.376 . S
C1688 H1675 0.930 . S
C1688 C1687 1.376 . S
C1688 C1689 1.388 . S
C1689 H1676 0.930 . S
C1689 C1688 1.388 . S
C1689 C1690 1.390 . S
C1690 C1689 1.390 . S
C1690 C1691 1.394 . S
C1690 C1696 1.465 . S
C1691 C1686 1.399 . S
C1691 C1690 1.394 . S
C1691 C1692 1.516 . S
C1692 C1691 1.516 . S
C1692 C1693 1.502 . S
C1692 C1694 1.561 . S
C1692 C1695 1.526 . S
C1693 H1677 0.959 . S
C1693 H1678 0.959 . S
C1693 H1679 0.961 . S
C1693 C1692 1.502 . S
C1694 H1680 0.960 . S
C1694 H1681 0.961 . S
C1694 H1682 0.959 . S
C1694 C1692 1.561 . S
C1695 C1692 1.526 . S
C1695 C1696 1.396 . S
C1695 C1700 1.390 . S
C1696 C1690 1.465 . S
C1696 C1695 1.396 . S
C1696 C1697 1.399 . S
C1697 H1683 0.929 . S
C1697 C1696 1.399 . S
C1697 C1698 1.385 . S
C1698 H1684 0.931 . S
C1698 C1697 1.385 . S
C1698 C1699 1.389 . S
C1699 C1698 1.389 . S
C1699 C1700 1.387 . S
C1700 H1685 0.930 . S
C1700 C1695 1.390 . S
C1700 C1699 1.387 . S
H1701 C1713 0.930 . S
H1702 C1715 0.930 . S
H1703 C1716 0.930 . S
H1704 C1720 0.959 . S
H1705 C1720 0.959 . S
H1706 C1720 0.961 . S
H1707 C1721 0.960 . S
H1708 C1721 0.961 . S
H1709 C1721 0.959 . S
H1710 C1724 0.929 . S
H1711 C1725 0.931 . S
H1712 C1727 0.930 . S
C1713 H1701 0.930 . S
C1713 C1714 1.399 . S
C1713 C1718 1.399 . S
C1714 C1713 1.399 . S
C1714 C1715 1.376 . S
C1715 H1702 0.930 . S
C1715 C1714 1.376 . S
C1715 C1716 1.388 . S
C1716 H1703 0.930 . S
C1716 C1715 1.388 . S
C1716 C1717 1.390 . S
C1717 C1716 1.390 . S
C1717 C1718 1.394 . S
C1717 C1723 1.465 . S
C1718 C1713 1.399 . S
C1718 C1717 1.394 . S
C1718 C1719 1.516 . S
C1719 C1718 1.516 . S
C1719 C1720 1.502 . S
C1719 C1721 1.561 . S
C1719 C1722 1.526 . S
C1720 H1704 0.959 . S
C1720 H1705 0.959 . S
C1720 H1706 0.961 . S
C1720 C1719 1.502 . S
C1721 H1707 0.960 . S
C1721 H1708 0.961 . S
C1721 H1709 0.959 . S
C1721 C1719 1.561 . S
C1722 C1719 1.526 . S
C1722 C1723 1.396 . S
C1722 C1727 1.390 . S
C1723 C1717 1.465 . S
C1723 C1722 1.396 . S
C1723 C1724 1.399 . S
C1724 H1710 0.929 . S
C1724 C1723 1.399 . S
C1724 C1725 1.385 . S
C1725 H1711 0.931 . S
C1725 C1724 1.385 . S
C1725 C1726 1.389 . S
C1726 C1725 1.389 . S
C1726 C1727 1.387 . S
C1727 H1712 0.930 . S
C1727 C1722 1.390 . S
C1727 C1726 1.387 . S
H1728 C1740 0.930 . S
H1729 C1742 0.930 . S
H1730 C1743 0.930 . S
H1731 C1747 0.959 . S
H1732 C1747 0.959 . S
H1733 C1747 0.961 . S
H1734 C1748 0.960 . S
H1735 C1748 0.961 . S
H1736 C1748 0.959 . S
H1737 C1751 0.929 . S
H1738 C1752 0.931 . S
H1739 C1754 0.930 . S
C1740 H1728 0.930 . S
C1740 C1741 1.399 . S
C1740 C1745 1.399 . S
C1741 C1740 1.399 . S
C1741 C1742 1.376 . S
C1742 H1729 0.930 . S
C1742 C1741 1.376 . S
C1742 C1743 1.388 . S
C1743 H1730 0.930 . S
C1743 C1742 1.388 . S
C1743 C1744 1.390 . S
C1744 C1743 1.390 . S
C1744 C1745 1.394 . S
C1744 C1750 1.465 . S
C1745 C1740 1.399 . S
C1745 C1744 1.394 . S
C1745 C1746 1.516 1_565 S
C1746 C1745 1.516 1_545 S
C1746 C1747 1.502 . S
C1746 C1748 1.561 . S
C1746 C1749 1.526 1_545 S
C1747 H1731 0.959 . S
C1747 H1732 0.959 . S
C1747 H1733 0.961 . S
C1747 C1746 1.502 . S
C1748 H1734 0.960 . S
C1748 H1735 0.961 . S
C1748 H1736 0.959 . S
C1748 C1746 1.561 . S
C1749 C1746 1.526 1_565 S
C1749 C1750 1.396 . S
C1749 C1754 1.390 1_565 S
C1750 C1744 1.465 . S
C1750 C1749 1.396 . S
C1750 C1751 1.399 . S
C1751 H1737 0.929 . S
C1751 C1750 1.399 . S
C1751 C1752 1.385 . S
C1752 H1738 0.931 . S
C1752 C1751 1.385 . S
C1752 C1753 1.389 . S
C1753 C1752 1.389 . S
C1753 C1754 1.387 1_565 S
C1754 H1739 0.930 . S
C1754 C1749 1.390 1_545 S
C1754 C1753 1.387 1_545 S
H1755 C1767 0.930 . S
H1756 C1769 0.930 . S
H1757 C1770 0.930 . S
H1758 C1774 0.959 . S
H1759 C1774 0.959 . S
H1760 C1774 0.961 . S
H1761 C1775 0.960 . S
H1762 C1775 0.961 . S
H1763 C1775 0.959 . S
H1764 C1778 0.929 . S
H1765 C1779 0.931 . S
H1766 C1781 0.930 . S
C1767 H1755 0.930 . S
C1767 C1768 1.399 . S
C1767 C1772 1.399 . S
C1768 C1767 1.399 . S
C1768 C1769 1.376 . S
C1769 H1756 0.930 . S
C1769 C1768 1.376 . S
C1769 C1770 1.388 . S
C1770 H1757 0.930 . S
C1770 C1769 1.388 . S
C1770 C1771 1.390 . S
C1771 C1770 1.390 . S
C1771 C1772 1.394 . S
C1771 C1777 1.465 . S
C1772 C1767 1.399 . S
C1772 C1771 1.394 . S
C1772 C1773 1.516 . S
C1773 C1772 1.516 . S
C1773 C1774 1.502 . S
C1773 C1775 1.561 . S
C1773 C1776 1.526 . S
C1774 H1758 0.959 . S
C1774 H1759 0.959 . S
C1774 H1760 0.961 . S
C1774 C1773 1.502 . S
C1775 H1761 0.960 . S
C1775 H1762 0.961 . S
C1775 H1763 0.959 . S
C1775 C1773 1.561 . S
C1776 C1773 1.526 . S
C1776 C1777 1.396 . S
C1776 C1781 1.390 . S
C1777 C1771 1.465 . S
C1777 C1776 1.396 . S
C1777 C1778 1.399 . S
C1778 H1764 0.929 . S
C1778 C1777 1.399 . S
C1778 C1779 1.385 . S
C1779 H1765 0.931 . S
C1779 C1778 1.385 . S
C1779 C1780 1.389 . S
C1780 C1779 1.389 . S
C1780 C1781 1.387 . S
C1781 H1766 0.930 . S
C1781 C1776 1.390 . S
C1781 C1780 1.387 . S
H1782 C1794 0.930 . S
H1783 C1796 0.930 . S
H1784 C1797 0.930 . S
H1785 C1801 0.959 . S
H1786 C1801 0.959 . S
H1787 C1801 0.961 . S
H1788 C1802 0.960 . S
H1789 C1802 0.961 . S
H1790 C1802 0.959 . S
H1791 C1805 0.929 . S
H1792 C1806 0.931 . S
H1793 C1808 0.930 . S
C1794 H1782 0.930 . S
C1794 C1795 1.399 . S
C1794 C1799 1.399 . S
C1795 C1794 1.399 . S
C1795 C1796 1.376 . S
C1796 H1783 0.930 . S
C1796 C1795 1.376 . S
C1796 C1797 1.388 . S
C1797 H1784 0.930 . S
C1797 C1796 1.388 . S
C1797 C1798 1.390 . S
C1798 C1797 1.390 . S
C1798 C1799 1.394 . S
C1798 C1804 1.465 . S
C1799 C1794 1.399 . S
C1799 C1798 1.394 . S
C1799 C1800 1.516 . S
C1800 C1799 1.516 . S
C1800 C1801 1.502 . S
C1800 C1802 1.561 . S
C1800 C1803 1.526 . S
C1801 H1785 0.959 . S
C1801 H1786 0.959 . S
C1801 H1787 0.961 . S
C1801 C1800 1.502 . S
C1802 H1788 0.960 . S
C1802 H1789 0.961 . S
C1802 H1790 0.959 . S
C1802 C1800 1.561 . S
C1803 C1800 1.526 . S
C1803 C1804 1.396 . S
C1803 C1808 1.390 . S
C1804 C1798 1.465 . S
C1804 C1803 1.396 . S
C1804 C1805 1.399 . S
C1805 H1791 0.929 . S
C1805 C1804 1.399 . S
C1805 C1806 1.385 . S
C1806 H1792 0.931 . S
C1806 C1805 1.385 . S
C1806 C1807 1.389 . S
C1807 C1806 1.389 . S
C1807 C1808 1.387 . S
C1808 H1793 0.930 . S
C1808 C1803 1.390 . S
C1808 C1807 1.387 . S
H1809 C1821 0.930 . S
H1810 C1823 0.930 1_455 S
H1811 C1824 0.953 . S
H1812 C1828 0.959 . S
H1813 C1828 0.959 . S
H1814 C1828 0.961 . S
H1815 C1829 0.960 . S
H1816 C1829 0.961 . S
H1817 C1829 0.959 . S
H1818 C1832 0.929 . S
H1819 C1833 0.931 . S
H1820 C1835 0.930 . S
C1821 H1809 0.930 . S
C1821 C1822 1.399 . S
C1821 C1826 1.399 . S
C1822 C1821 1.399 . S
C1822 C1823 1.376 . S
C1823 H1810 0.930 1_655 S
C1823 C1822 1.376 . S
C1823 C1824 1.379 1_655 S
C1824 H1811 0.953 . S
C1824 C1823 1.379 1_455 S
C1824 C1825 1.378 1_455 S
C1825 C1824 1.378 1_655 S
C1825 C1826 1.394 . S
C1825 C1831 1.465 . S
C1826 C1821 1.399 . S
C1826 C1825 1.394 . S
C1826 C1827 1.516 . S
C1827 C1826 1.516 . S
C1827 C1828 1.502 . S
C1827 C1829 1.561 . S
C1827 C1830 1.526 . S
C1828 H1812 0.959 . S
C1828 H1813 0.959 . S
C1828 H1814 0.961 . S
C1828 C1827 1.502 . S
C1829 H1815 0.960 . S
C1829 H1816 0.961 . S
C1829 H1817 0.959 . S
C1829 C1827 1.561 . S
C1830 C1827 1.526 . S
C1830 C1831 1.396 . S
C1830 C1835 1.390 . S
C1831 C1825 1.465 . S
C1831 C1830 1.396 . S
C1831 C1832 1.399 1_655 S
C1832 H1818 0.929 . S
C1832 C1831 1.399 1_455 S
C1832 C1833 1.385 . S
C1833 H1819 0.931 . S
C1833 C1832 1.385 . S
C1833 C1834 1.389 1_455 S
C1834 C1833 1.389 1_655 S
C1834 C1835 1.387 . S
C1835 H1820 0.930 . S
C1835 C1830 1.390 . S
C1835 C1834 1.387 . S
H1836 C1848 0.930 . S
H1837 C1850 0.930 . S
H1838 C1851 0.930 . S
H1839 C1855 0.959 . S
H1840 C1855 0.959 . S
H1841 C1855 0.961 . S
H1842 C1856 0.960 . S
H1843 C1856 0.961 . S
H1844 C1856 0.959 . S
H1845 C1859 0.929 . S
H1846 C1860 0.931 . S
H1847 C1862 0.930 . S
C1848 H1836 0.930 . S
C1848 C1849 1.399 . S
C1848 C1853 1.399 . S
C1849 C1848 1.399 . S
C1849 C1850 1.376 . S
C1850 H1837 0.930 . S
C1850 C1849 1.376 . S
C1850 C1851 1.388 . S
C1851 H1838 0.930 . S
C1851 C1850 1.388 . S
C1851 C1852 1.390 . S
C1852 C1851 1.390 . S
C1852 C1853 1.394 . S
C1852 C1858 1.465 . S
C1853 C1848 1.399 . S
C1853 C1852 1.394 . S
C1853 C1854 1.516 . S
C1854 C1853 1.516 . S
C1854 C1855 1.502 . S
C1854 C1856 1.561 . S
C1854 C1857 1.526 . S
C1855 H1839 0.959 . S
C1855 H1840 0.959 . S
C1855 H1841 0.961 . S
C1855 C1854 1.502 . S
C1856 H1842 0.960 . S
C1856 H1843 0.961 . S
C1856 H1844 0.959 . S
C1856 C1854 1.561 . S
C1857 C1854 1.526 . S
C1857 C1858 1.396 . S
C1857 C1862 1.390 . S
C1858 C1852 1.465 . S
C1858 C1857 1.396 . S
C1858 C1859 1.399 . S
C1859 H1845 0.929 . S
C1859 C1858 1.399 . S
C1859 C1860 1.385 . S
C1860 H1846 0.931 . S
C1860 C1859 1.385 . S
C1860 C1861 1.389 . S
C1861 C1860 1.389 . S
C1861 C1862 1.387 . S
C1862 H1847 0.930 . S
C1862 C1857 1.390 . S
C1862 C1861 1.387 . S
H1863 C1875 0.930 . S
H1864 C1877 0.930 . S
H1865 C1878 0.930 . S
H1866 C1882 0.959 1_545 S
H1867 C1882 0.959 . S
H1868 C1882 0.961 . S
H1869 C1883 0.960 . S
H1870 C1883 0.961 . S
H1871 C1883 0.959 . S
H1872 C1886 0.929 . S
H1873 C1887 0.931 . S
H1874 C1889 0.936 . S
C1875 H1863 0.930 . S
C1875 C1876 1.399 . S
C1875 C1880 1.399 . S
C1876 C1875 1.399 . S
C1876 C1877 1.376 . S
C1877 H1864 0.930 . S
C1877 C1876 1.376 . S
C1877 C1878 1.388 . S
C1878 H1865 0.930 . S
C1878 C1877 1.388 . S
C1878 C1879 1.390 . S
C1879 C1878 1.390 . S
C1879 C1880 1.394 . S
C1879 C1885 1.465 . S
C1880 C1875 1.399 . S
C1880 C1879 1.394 . S
C1880 C1881 1.516 1_545 S
C1881 C1880 1.516 1_565 S
C1881 C1882 1.502 . S
C1881 C1883 1.561 . S
C1881 C1884 1.526 1_565 S
C1882 H1866 0.959 1_565 S
C1882 H1867 0.959 . S
C1882 H1868 0.961 . S
C1882 C1881 1.502 . S
C1883 H1869 0.960 . S
C1883 H1870 0.961 . S
C1883 H1871 0.959 . S
C1883 C1881 1.561 . S
C1884 C1881 1.526 1_545 S
C1884 C1885 1.396 . S
C1884 C1889 1.386 1_545 S
C1885 C1879 1.465 . S
C1885 C1884 1.396 . S
C1885 C1886 1.399 . S
C1886 H1872 0.929 . S
C1886 C1885 1.399 . S
C1886 C1887 1.385 . S
C1887 H1873 0.931 . S
C1887 C1886 1.385 . S
C1887 C1888 1.389 . S
C1888 C1887 1.389 . S
C1888 C1889 1.384 1_545 S
C1889 H1874 0.936 . S
C1889 C1884 1.386 1_565 S
C1889 C1888 1.384 1_565 S
H1890 C1902 0.930 . S
H1891 C1904 0.930 . S
H1892 C1905 0.930 . S
H1893 C1909 0.959 . S
H1894 C1909 0.959 . S
H1895 C1909 0.961 . S
H1896 C1910 0.960 . S
H1897 C1910 0.961 . S
H1898 C1910 0.959 . S
H1899 C1913 0.929 . S
H1900 C1914 0.931 . S
H1901 C1916 0.930 . S
C1902 H1890 0.930 . S
C1902 C1903 1.399 . S
C1902 C1907 1.399 . S
C1903 C1902 1.399 . S
C1903 C1904 1.376 . S
C1904 H1891 0.930 . S
C1904 C1903 1.376 . S
C1904 C1905 1.388 . S
C1905 H1892 0.930 . S
C1905 C1904 1.388 . S
C1905 C1906 1.390 . S
C1906 C1905 1.390 . S
C1906 C1907 1.394 . S
C1906 C1912 1.465 . S
C1907 C1902 1.399 . S
C1907 C1906 1.394 . S
C1907 C1908 1.516 . S
C1908 C1907 1.516 . S
C1908 C1909 1.502 . S
C1908 C1910 1.561 . S
C1908 C1911 1.526 . S
C1909 H1893 0.959 . S
C1909 H1894 0.959 . S
C1909 H1895 0.961 . S
C1909 C1908 1.502 . S
C1910 H1896 0.960 . S
C1910 H1897 0.961 . S
C1910 H1898 0.959 . S
C1910 C1908 1.561 . S
C1911 C1908 1.526 . S
C1911 C1912 1.396 . S
C1911 C1916 1.390 . S
C1912 C1906 1.465 . S
C1912 C1911 1.396 . S
C1912 C1913 1.399 . S
C1913 H1899 0.929 . S
C1913 C1912 1.399 . S
C1913 C1914 1.385 . S
C1914 H1900 0.931 . S
C1914 C1913 1.385 . S
C1914 C1915 1.389 . S
C1915 C1914 1.389 . S
C1915 C1916 1.387 . S
C1916 H1901 0.930 . S
C1916 C1911 1.390 . S
C1916 C1915 1.387 . S
H1917 C1929 0.930 . S
H1918 C1931 0.930 . S
H1919 C1932 0.930 . S
H1920 C1936 0.959 . S
H1921 C1936 0.959 . S
H1922 C1936 0.961 . S
H1923 C1937 0.960 . S
H1924 C1937 0.961 . S
H1925 C1937 0.959 . S
H1926 C1940 0.929 . S
H1927 C1941 0.931 . S
H1928 C1943 0.930 . S
C1929 H1917 0.930 . S
C1929 C1930 1.399 . S
C1929 C1934 1.399 . S
C1930 C1929 1.399 . S
C1930 C1931 1.376 . S
C1931 H1918 0.930 . S
C1931 C1930 1.376 . S
C1931 C1932 1.388 . S
C1932 H1919 0.930 . S
C1932 C1931 1.388 . S
C1932 C1933 1.390 . S
C1933 C1932 1.390 . S
C1933 C1934 1.394 . S
C1933 C1939 1.465 . S
C1934 C1929 1.399 . S
C1934 C1933 1.394 . S
C1934 C1935 1.516 . S
C1935 C1934 1.516 . S
C1935 C1936 1.502 . S
C1935 C1937 1.561 . S
C1935 C1938 1.526 . S
C1936 H1920 0.959 . S
C1936 H1921 0.959 . S
C1936 H1922 0.961 . S
C1936 C1935 1.502 . S
C1937 H1923 0.960 . S
C1937 H1924 0.961 . S
C1937 H1925 0.959 . S
C1937 C1935 1.561 . S
C1938 C1935 1.526 . S
C1938 C1939 1.396 . S
C1938 C1943 1.390 . S
C1939 C1933 1.465 . S
C1939 C1938 1.396 . S
C1939 C1940 1.399 . S
C1940 H1926 0.929 . S
C1940 C1939 1.399 . S
C1940 C1941 1.385 . S
C1941 H1927 0.931 . S
C1941 C1940 1.385 . S
C1941 C1942 1.389 . S
C1942 C1941 1.389 . S
C1942 C1943 1.387 . S
C1943 H1928 0.930 . S
C1943 C1938 1.390 . S
C1943 C1942 1.387 . S
H1944 C1956 0.930 . S
H1945 C1958 0.930 . S
H1946 C1959 0.930 . S
H1947 C1963 0.959 . S
H1948 C1963 0.959 . S
H1949 C1963 0.961 . S
H1950 C1964 0.960 . S
H1951 C1964 0.961 . S
H1952 C1964 0.959 . S
H1953 C1967 0.929 . S
H1954 C1968 0.931 . S
H1955 C1970 0.930 . S
C1956 H1944 0.930 . S
C1956 C1957 1.399 . S
C1956 C1961 1.399 . S
C1957 C1956 1.399 . S
C1957 C1958 1.376 . S
C1958 H1945 0.930 . S
C1958 C1957 1.376 . S
C1958 C1959 1.388 . S
C1959 H1946 0.930 . S
C1959 C1958 1.388 . S
C1959 C1960 1.390 . S
C1960 C1959 1.390 . S
C1960 C1961 1.394 . S
C1960 C1966 1.465 . S
C1961 C1956 1.399 . S
C1961 C1960 1.394 . S
C1961 C1962 1.516 . S
C1962 C1961 1.516 . S
C1962 C1963 1.502 . S
C1962 C1964 1.561 . S
C1962 C1965 1.526 . S
C1963 H1947 0.959 . S
C1963 H1948 0.959 . S
C1963 H1949 0.961 . S
C1963 C1962 1.502 . S
C1964 H1950 0.960 . S
C1964 H1951 0.961 . S
C1964 H1952 0.959 . S
C1964 C1962 1.561 . S
C1965 C1962 1.526 . S
C1965 C1966 1.396 . S
C1965 C1970 1.390 . S
C1966 C1960 1.465 . S
C1966 C1965 1.396 . S
C1966 C1967 1.399 . S
C1967 H1953 0.929 . S
C1967 C1966 1.399 . S
C1967 C1968 1.385 . S
C1968 H1954 0.931 . S
C1968 C1967 1.385 . S
C1968 C1969 1.389 . S
C1969 C1968 1.389 . S
C1969 C1970 1.387 . S
C1970 H1955 0.930 . S
C1970 C1965 1.390 . S
C1970 C1969 1.387 . S
H1971 C1983 0.930 . S
H1972 C1985 0.930 . S
H1973 C1986 0.930 . S
H1974 C1990 0.959 . S
H1975 C1990 0.959 . S
H1976 C1990 0.961 . S
H1977 C1991 0.960 . S
H1978 C1991 0.961 . S
H1979 C1991 0.959 . S
H1980 C1994 0.929 . S
H1981 C1995 0.931 . S
H1982 C1997 0.930 . S
C1983 H1971 0.930 . S
C1983 C1984 1.399 . S
C1983 C1988 1.399 . S
C1984 C1983 1.399 . S
C1984 C1985 1.376 . S
C1985 H1972 0.930 . S
C1985 C1984 1.376 . S
C1985 C1986 1.388 . S
C1986 H1973 0.930 . S
C1986 C1985 1.388 . S
C1986 C1987 1.390 . S
C1987 C1986 1.390 . S
C1987 C1988 1.394 . S
C1987 C1993 1.465 . S
C1988 C1983 1.399 . S
C1988 C1987 1.394 . S
C1988 C1989 1.516 . S
C1989 C1988 1.516 . S
C1989 C1990 1.502 . S
C1989 C1991 1.561 . S
C1989 C1992 1.526 . S
C1990 H1974 0.959 . S
C1990 H1975 0.959 . S
C1990 H1976 0.961 . S
C1990 C1989 1.502 . S
C1991 H1977 0.960 . S
C1991 H1978 0.961 . S
C1991 H1979 0.959 . S
C1991 C1989 1.561 . S
C1992 C1989 1.526 . S
C1992 C1993 1.396 . S
C1992 C1997 1.390 . S
C1993 C1987 1.465 . S
C1993 C1992 1.396 . S
C1993 C1994 1.399 . S
C1994 H1980 0.929 . S
C1994 C1993 1.399 . S
C1994 C1995 1.385 . S
C1995 H1981 0.931 . S
C1995 C1994 1.385 . S
C1995 C1996 1.389 . S
C1996 C1995 1.389 . S
C1996 C1997 1.387 . S
C1997 H1982 0.930 . S
C1997 C1992 1.390 . S
C1997 C1996 1.387 . S
H1998 C2010 0.930 . S
H1999 C2012 0.930 . S
H2000 C2013 0.930 . S
H2001 C2017 0.959 . S
H2002 C2017 0.959 . S
H2003 C2017 0.961 . S
H2004 C2018 0.960 . S
H2005 C2018 0.961 . S
H2006 C2018 0.959 . S
H2007 C2021 0.929 . S
H2008 C2022 0.931 . S
H2009 C2024 0.930 . S
C2010 H1998 0.930 . S
C2010 C2011 1.399 . S
C2010 C2015 1.399 . S
C2011 C2010 1.399 . S
C2011 C2012 1.376 . S
C2012 H1999 0.930 . S
C2012 C2011 1.376 . S
C2012 C2013 1.388 . S
C2013 H2000 0.930 . S
C2013 C2012 1.388 . S
C2013 C2014 1.390 . S
C2014 C2013 1.390 . S
C2014 C2015 1.394 . S
C2014 C2020 1.465 . S
C2015 C2010 1.399 . S
C2015 C2014 1.394 . S
C2015 C2016 1.516 . S
C2016 C2015 1.516 . S
C2016 C2017 1.502 . S
C2016 C2018 1.561 . S
C2016 C2019 1.526 . S
C2017 H2001 0.959 . S
C2017 H2002 0.959 . S
C2017 H2003 0.961 . S
C2017 C2016 1.502 . S
C2018 H2004 0.960 . S
C2018 H2005 0.961 . S
C2018 H2006 0.959 . S
C2018 C2016 1.561 . S
C2019 C2016 1.526 . S
C2019 C2020 1.396 . S
C2019 C2024 1.390 . S
C2020 C2014 1.465 . S
C2020 C2019 1.396 . S
C2020 C2021 1.399 . S
C2021 H2007 0.929 . S
C2021 C2020 1.399 . S
C2021 C2022 1.385 . S
C2022 H2008 0.931 . S
C2022 C2021 1.385 . S
C2022 C2023 1.389 . S
C2023 C2022 1.389 . S
C2023 C2024 1.387 . S
C2024 H2009 0.930 . S
C2024 C2019 1.390 . S
C2024 C2023 1.387 . S
H2025 C2037 0.930 . S
H2026 C2039 0.930 . S
H2027 C2040 0.930 . S
H2028 C2044 0.959 . S
H2029 C2044 0.959 . S
H2030 C2044 0.961 . S
H2031 C2045 0.960 . S
H2032 C2045 0.961 . S
H2033 C2045 0.959 . S
H2034 C2048 0.929 . S
H2035 C2049 0.931 . S
H2036 C2051 0.930 . S
C2037 H2025 0.930 . S
C2037 C2038 1.399 . S
C2037 C2042 1.399 . S
C2038 C2037 1.399 . S
C2038 C2039 1.376 . S
C2039 H2026 0.930 . S
C2039 C2038 1.376 . S
C2039 C2040 1.388 . S
C2040 H2027 0.930 . S
C2040 C2039 1.388 . S
C2040 C2041 1.390 . S
C2041 C2040 1.390 . S
C2041 C2042 1.394 . S
C2041 C2047 1.465 . S
C2042 C2037 1.399 . S
C2042 C2041 1.394 . S
C2042 C2043 1.516 . S
C2043 C2042 1.516 . S
C2043 C2044 1.502 . S
C2043 C2045 1.561 . S
C2043 C2046 1.526 . S
C2044 H2028 0.959 . S
C2044 H2029 0.959 . S
C2044 H2030 0.961 . S
C2044 C2043 1.502 . S
C2045 H2031 0.960 . S
C2045 H2032 0.961 . S
C2045 H2033 0.959 . S
C2045 C2043 1.561 . S
C2046 C2043 1.526 . S
C2046 C2047 1.396 . S
C2046 C2051 1.390 . S
C2047 C2041 1.465 . S
C2047 C2046 1.396 . S
C2047 C2048 1.399 . S
C2048 H2034 0.929 . S
C2048 C2047 1.399 . S
C2048 C2049 1.385 . S
C2049 H2035 0.931 . S
C2049 C2048 1.385 . S
C2049 C2050 1.389 . S
C2050 C2049 1.389 . S
C2050 C2051 1.387 . S
C2051 H2036 0.930 . S
C2051 C2046 1.390 . S
C2051 C2050 1.387 . S
H2052 C2064 0.930 . S
H2053 C2066 0.930 . S
H2054 C2067 0.930 . S
H2055 C2071 0.959 . S
H2056 C2071 0.959 . S
H2057 C2071 0.961 . S
H2058 C2072 0.960 . S
H2059 C2072 0.961 . S
H2060 C2072 0.959 . S
H2061 C2075 0.929 . S
H2062 C2076 0.931 . S
H2063 C2078 0.930 . S
C2064 H2052 0.930 . S
C2064 C2065 1.399 . S
C2064 C2069 1.399 . S
C2065 C2064 1.399 . S
C2065 C2066 1.376 . S
C2066 H2053 0.930 . S
C2066 C2065 1.376 . S
C2066 C2067 1.388 . S
C2067 H2054 0.930 . S
C2067 C2066 1.388 . S
C2067 C2068 1.390 . S
C2068 C2067 1.390 . S
C2068 C2069 1.394 . S
C2068 C2074 1.465 . S
C2069 C2064 1.399 . S
C2069 C2068 1.394 . S
C2069 C2070 1.516 . S
C2070 C2069 1.516 . S
C2070 C2071 1.502 . S
C2070 C2072 1.561 . S
C2070 C2073 1.526 . S
C2071 H2055 0.959 . S
C2071 H2056 0.959 . S
C2071 H2057 0.961 . S
C2071 C2070 1.502 . S
C2072 H2058 0.960 . S
C2072 H2059 0.961 . S
C2072 H2060 0.959 . S
C2072 C2070 1.561 . S
C2073 C2070 1.526 . S
C2073 C2074 1.396 . S
C2073 C2078 1.390 . S
C2074 C2068 1.465 . S
C2074 C2073 1.396 . S
C2074 C2075 1.399 . S
C2075 H2061 0.929 . S
C2075 C2074 1.399 . S
C2075 C2076 1.385 . S
C2076 H2062 0.931 . S
C2076 C2075 1.385 . S
C2076 C2077 1.389 . S
C2077 C2076 1.389 . S
C2077 C2078 1.387 . S
C2078 H2063 0.930 . S
C2078 C2073 1.390 . S
C2078 C2077 1.387 . S
H2079 C2091 0.930 . S
H2080 C2093 0.930 . S
H2081 C2094 0.930 . S
H2082 C2098 0.959 . S
H2083 C2098 0.959 . S
H2084 C2098 0.961 . S
H2085 C2099 0.960 . S
H2086 C2099 0.961 . S
H2087 C2099 0.959 . S
H2088 C2102 0.929 . S
H2089 C2103 0.931 . S
H2090 C2105 0.930 . S
C2091 H2079 0.930 . S
C2091 C2092 1.399 . S
C2091 C2096 1.399 . S
C2092 C2091 1.399 . S
C2092 C2093 1.376 . S
C2093 H2080 0.930 . S
C2093 C2092 1.376 . S
C2093 C2094 1.388 . S
C2094 H2081 0.930 . S
C2094 C2093 1.388 . S
C2094 C2095 1.390 . S
C2095 C2094 1.390 . S
C2095 C2096 1.394 . S
C2095 C2101 1.465 . S
C2096 C2091 1.399 . S
C2096 C2095 1.394 . S
C2096 C2097 1.516 . S
C2097 C2096 1.516 . S
C2097 C2098 1.502 . S
C2097 C2099 1.561 . S
C2097 C2100 1.526 . S
C2098 H2082 0.959 . S
C2098 H2083 0.959 . S
C2098 H2084 0.961 . S
C2098 C2097 1.502 . S
C2099 H2085 0.960 . S
C2099 H2086 0.961 . S
C2099 H2087 0.959 . S
C2099 C2097 1.561 . S
C2100 C2097 1.526 . S
C2100 C2101 1.396 . S
C2100 C2105 1.390 . S
C2101 C2095 1.465 . S
C2101 C2100 1.396 . S
C2101 C2102 1.399 . S
C2102 H2088 0.929 . S
C2102 C2101 1.399 . S
C2102 C2103 1.385 . S
C2103 H2089 0.931 . S
C2103 C2102 1.385 . S
C2103 C2104 1.389 . S
C2104 C2103 1.389 . S
C2104 C2105 1.387 . S
C2105 H2090 0.930 . S
C2105 C2100 1.390 . S
C2105 C2104 1.387 . S
H2106 C2118 0.930 . S
H2107 C2120 0.930 . S
H2108 C2121 0.930 . S
H2109 C2125 0.959 . S
H2110 C2125 0.959 . S
H2111 C2125 0.961 . S
H2112 C2126 0.960 . S
H2113 C2126 0.961 . S
H2114 C2126 0.959 . S
H2115 C2129 0.929 . S
H2116 C2130 0.931 . S
H2117 C2132 0.930 . S
C2118 H2106 0.930 . S
C2118 C2119 1.399 . S
C2118 C2123 1.399 . S
C2119 C2118 1.399 . S
C2119 C2120 1.376 . S
C2120 H2107 0.930 . S
C2120 C2119 1.376 . S
C2120 C2121 1.388 . S
C2121 H2108 0.930 . S
C2121 C2120 1.388 . S
C2121 C2122 1.390 . S
C2122 C2121 1.390 . S
C2122 C2123 1.394 . S
C2122 C2128 1.465 . S
C2123 C2118 1.399 . S
C2123 C2122 1.394 . S
C2123 C2124 1.516 . S
C2124 C2123 1.516 . S
C2124 C2125 1.502 . S
C2124 C2126 1.561 . S
C2124 C2127 1.526 . S
C2125 H2109 0.959 . S
C2125 H2110 0.959 . S
C2125 H2111 0.961 . S
C2125 C2124 1.502 . S
C2126 H2112 0.960 . S
C2126 H2113 0.961 . S
C2126 H2114 0.959 . S
C2126 C2124 1.561 . S
C2127 C2124 1.526 . S
C2127 C2128 1.396 . S
C2127 C2132 1.390 . S
C2128 C2122 1.465 . S
C2128 C2127 1.396 . S
C2128 C2129 1.399 . S
C2129 H2115 0.929 . S
C2129 C2128 1.399 . S
C2129 C2130 1.385 . S
C2130 H2116 0.931 . S
C2130 C2129 1.385 . S
C2130 C2131 1.389 . S
C2131 C2130 1.389 . S
C2131 C2132 1.387 . S
C2132 H2117 0.930 . S
C2132 C2127 1.390 . S
C2132 C2131 1.387 . S
H2133 C2145 0.930 . S
H2134 C2147 0.930 . S
H2135 C2148 0.930 . S
H2136 C2152 0.959 . S
H2137 C2152 0.959 . S
H2138 C2152 0.961 . S
H2139 C2153 0.960 . S
H2140 C2153 0.961 . S
H2141 C2153 0.959 . S
H2142 C2156 0.929 . S
H2143 C2157 0.931 . S
H2144 C2159 0.930 . S
C2145 H2133 0.930 . S
C2145 C2146 1.399 . S
C2145 C2150 1.399 . S
C2146 C2145 1.399 . S
C2146 C2147 1.376 . S
C2147 H2134 0.930 . S
C2147 C2146 1.376 . S
C2147 C2148 1.388 . S
C2148 H2135 0.930 . S
C2148 C2147 1.388 . S
C2148 C2149 1.390 . S
C2149 C2148 1.390 . S
C2149 C2150 1.394 . S
C2149 C2155 1.465 . S
C2150 C2145 1.399 . S
C2150 C2149 1.394 . S
C2150 C2151 1.516 . S
C2151 C2150 1.516 . S
C2151 C2152 1.502 . S
C2151 C2153 1.561 . S
C2151 C2154 1.526 . S
C2152 H2136 0.959 . S
C2152 H2137 0.959 . S
C2152 H2138 0.961 . S
C2152 C2151 1.502 . S
C2153 H2139 0.960 . S
C2153 H2140 0.961 . S
C2153 H2141 0.959 . S
C2153 C2151 1.561 . S
C2154 C2151 1.526 . S
C2154 C2155 1.396 . S
C2154 C2159 1.390 . S
C2155 C2149 1.465 . S
C2155 C2154 1.396 . S
C2155 C2156 1.399 . S
C2156 H2142 0.929 . S
C2156 C2155 1.399 . S
C2156 C2157 1.385 . S
C2157 H2143 0.931 . S
C2157 C2156 1.385 . S
C2157 C2158 1.389 . S
C2158 C2157 1.389 . S
C2158 C2159 1.387 . S
C2159 H2144 0.930 . S
C2159 C2154 1.390 . S
C2159 C2158 1.387 . S
H2160 C2172 0.930 . S
H2161 C2174 0.930 . S
H2162 C2175 0.930 . S
H2163 C2179 0.959 . S
H2164 C2179 0.959 . S
H2165 C2179 0.961 . S
H2166 C2180 0.960 . S
H2167 C2180 0.961 . S
H2168 C2180 0.959 . S
H2169 C2183 0.929 . S
H2170 C2184 0.931 . S
H2171 C2186 0.930 . S
C2172 H2160 0.930 . S
C2172 C2173 1.399 . S
C2172 C2177 1.399 . S
C2173 C2172 1.399 . S
C2173 C2174 1.376 . S
C2174 H2161 0.930 . S
C2174 C2173 1.376 . S
C2174 C2175 1.388 . S
C2175 H2162 0.930 . S
C2175 C2174 1.388 . S
C2175 C2176 1.390 . S
C2176 C2175 1.390 . S
C2176 C2177 1.394 . S
C2176 C2182 1.465 . S
C2177 C2172 1.399 . S
C2177 C2176 1.394 . S
C2177 C2178 1.516 . S
C2178 C2177 1.516 . S
C2178 C2179 1.502 . S
C2178 C2180 1.561 . S
C2178 C2181 1.526 . S
C2179 H2163 0.959 . S
C2179 H2164 0.959 . S
C2179 H2165 0.961 . S
C2179 C2178 1.502 . S
C2180 H2166 0.960 . S
C2180 H2167 0.961 . S
C2180 H2168 0.959 . S
C2180 C2178 1.561 . S
C2181 C2178 1.526 . S
C2181 C2182 1.396 . S
C2181 C2186 1.390 . S
C2182 C2176 1.465 . S
C2182 C2181 1.396 . S
C2182 C2183 1.399 . S
C2183 H2169 0.929 . S
C2183 C2182 1.399 . S
C2183 C2184 1.385 . S
C2184 H2170 0.931 . S
C2184 C2183 1.385 . S
C2184 C2185 1.389 . S
C2185 C2184 1.389 . S
C2185 C2186 1.387 . S
C2186 H2171 0.930 . S
C2186 C2181 1.390 . S
C2186 C2185 1.387 . S
H2187 C2199 0.930 . S
H2188 C2201 0.930 . S
H2189 C2202 0.930 . S
H2190 C2206 0.959 . S
H2191 C2206 0.959 . S
H2192 C2206 0.961 . S
H2193 C2207 0.960 . S
H2194 C2207 0.961 . S
H2195 C2207 0.959 . S
H2196 C2210 0.929 . S
H2197 C2211 0.931 . S
H2198 C2213 0.930 . S
C2199 H2187 0.930 . S
C2199 C2200 1.399 . S
C2199 C2204 1.399 . S
C2200 C2199 1.399 . S
C2200 C2201 1.376 . S
C2201 H2188 0.930 . S
C2201 C2200 1.376 . S
C2201 C2202 1.388 . S
C2202 H2189 0.930 . S
C2202 C2201 1.388 . S
C2202 C2203 1.390 . S
C2203 C2202 1.390 . S
C2203 C2204 1.394 . S
C2203 C2209 1.465 . S
C2204 C2199 1.399 . S
C2204 C2203 1.394 . S
C2204 C2205 1.516 . S
C2205 C2204 1.516 . S
C2205 C2206 1.502 . S
C2205 C2207 1.561 . S
C2205 C2208 1.526 . S
C2206 H2190 0.959 . S
C2206 H2191 0.959 . S
C2206 H2192 0.961 . S
C2206 C2205 1.502 . S
C2207 H2193 0.960 . S
C2207 H2194 0.961 . S
C2207 H2195 0.959 . S
C2207 C2205 1.561 . S
C2208 C2205 1.526 . S
C2208 C2209 1.396 . S
C2208 C2213 1.390 . S
C2209 C2203 1.465 . S
C2209 C2208 1.396 . S
C2209 C2210 1.399 . S
C2210 H2196 0.929 . S
C2210 C2209 1.399 . S
C2210 C2211 1.385 . S
C2211 H2197 0.931 . S
C2211 C2210 1.385 . S
C2211 C2212 1.389 . S
C2212 C2211 1.389 . S
C2212 C2213 1.387 . S
C2213 H2198 0.930 . S
C2213 C2208 1.390 . S
C2213 C2212 1.387 . S
C769 C439 1.431 . S
C781 C582 1.477 . S
C796 C465 1.543 . S
C808 C602 1.528 . S
C823 C401 1.543 . S
C835 C625 1.537 . S
C850 C369 1.460 . S
C862 C605 1.444 . S
C889 C622 1.427 . S
C877 C305 1.442 . S
C904 C343 1.323 . S
C916 C585 1.444 . S
C943 C592 1.547 . S
C931 C375 1.560 . S
C970 C612 1.492 . S
C958 C311 1.515 . S
C985 C337 1.453 . S
C997 C617 1.544 . S
C1012 C433 1.360 . S
C1024 C597 1.460 . S
C1039 C471 1.425 . S
C1051 C632 1.417 . S
C1078 C577 1.480 . S
C1066 C407 1.482 . S
C1105 C642 1.496 . S
C1093 C55 1.485 . S
C1120 C81 1.539 . S
C1132 C662 1.532 . S
C1147 C17 1.552 . S
C1159 C685 1.521 . S
C1174 C561 1.453 . S
C1186 C665 1.452 . S
C1201 C497 1.464 . S
C1213 C682 1.459 . S
C1228 C535 1.375 . S
C1240 C645 1.435 . S
C1255 C567 1.556 . S
C1267 C652 1.529 . S
C1282 C503 1.517 . S
C1294 C672 1.501 . S
C1321 C677 1.507 . S
C1309 C529 1.516 . S
C1336 C49 1.437 . S
C1348 C657 1.419 . S
C1375 C692 1.444 . S
C1363 C87 1.446 . S
C1390 C23 1.480 . S
C1402 C637 1.481 . S
C1429 C702 1.471 . S
C1417 C247 1.491 . S
C1444 C273 1.534 . S
C1456 C722 1.530 . S
C1483 C745 1.527 . S
C1471 C209 1.541 . S
C1510 C725 1.424 . S
C1498 C177 1.450 . S
C1537 C742 1.429 . S
C1525 C113 1.446 . S
C1552 C151 1.417 . S
C1564 C705 1.406 . S
C1579 C183 1.553 . S
C1591 C712 1.519 . S
C1606 C119 1.498 . S
C1618 C732 1.456 . S
C1645 C737 1.507 . S
C1633 C145 1.514 . S
C1660 C241 1.355 . S
C1672 C717 1.462 . S
C1687 C279 1.434 . S
C1699 C752 1.430 . S
C1714 C215 1.477 . S
C1726 C697 1.478 . S
C1741 C509 1.301 . S
C1753 C595 1.301 1_565 S
C1780 C615 1.574 . S
C1768 C541 1.539 . S
C1795 C573 1.475 . S
C1807 C624 1.423 . S
C1822 C221 1.649 . S
C1834 C604 1.574 . S
C1849 C253 1.441 . S
C1861 C635 1.375 . S
C1888 C584 1.311 . S
C1876 C285 1.307 . S
C1903 C125 1.302 . S
C1915 C655 1.277 . S
C1930 C157 1.560 . S
C1942 C675 1.552 . S
C1957 C189 1.475 . S
C1969 C684 1.422 . S
C1984 C413 1.649 . S
C1996 C664 1.570 . S
C2023 C695 1.427 . S
C2011 C445 1.385 . S
C2038 C477 1.279 . S
C2050 C644 1.235 . S
C2065 C317 1.291 . S
C2077 C715 1.263 . S
C2092 C349 1.553 . S
C2104 C735 1.559 . S
C2131 C744 1.469 . S
C2119 C381 1.504 . S
C2146 C29 1.670 . S
C2158 C724 1.620 . S
C2173 C61 1.417 . S
C2185 C755 1.393 . S
C2200 C93 1.271 . S
C2212 C704 1.236 . S
