# Generated by pormake.
# Topology hwx, (6,3)-cn, num edge types: 1
# Building blocks:
#     Node 0, Type 0, BuildingBlock: OJICUG_clean_sbu_0, # of connection points: 6
#     Node 1, Type 0, BuildingBlock: OJICUG_clean_sbu_0, # of connection points: 6
#     Node 2, Type 0, BuildingBlock: OJICUG_clean_sbu_0, # of connection points: 6
#     Node 3, Type 0, BuildingBlock: OJICUG_clean_sbu_0, # of connection points: 6
#     Node 4, Type 1, BuildingBlock: PAMTOO_clean_linker_0, # of connection points: 3
#     Node 5, Type 1, BuildingBlock: PAMTOO_clean_linker_0, # of connection points: 3
#     Node 6, Type 1, BuildingBlock: PAMTOO_clean_linker_0, # of connection points: 3
#     Node 7, Type 1, BuildingBlock: PAMTOO_clean_linker_0, # of connection points: 3
#     Node 8, Type 1, BuildingBlock: PAMTOO_clean_linker_0, # of connection points: 3
#     Node 9, Type 1, BuildingBlock: PAMTOO_clean_linker_0, # of connection points: 3
#     Node 10, Type 1, BuildingBlock: PAMTOO_clean_linker_0, # of connection points: 3
#     Node 11, Type 1, BuildingBlock: PAMTOO_clean_linker_0, # of connection points: 3
#     Edge 12, Type (0, 1), BuildingBlock: XUDNAN_clean_linker_2, # of connection points: 2
#     Edge 13, Type (0, 1), BuildingBlock: XUDNAN_clean_linker_2, # of connection points: 2
#     Edge 14, Type (0, 1), BuildingBlock: XUDNAN_clean_linker_2, # of connection points: 2
#     Edge 15, Type (0, 1), BuildingBlock: XUDNAN_clean_linker_2, # of connection points: 2
#     Edge 16, Type (0, 1), BuildingBlock: XUDNAN_clean_linker_2, # of connection points: 2
#     Edge 17, Type (0, 1), BuildingBlock: XUDNAN_clean_linker_2, # of connection points: 2
#     Edge 18, Type (0, 1), BuildingBlock: XUDNAN_clean_linker_2, # of connection points: 2
#     Edge 19, Type (0, 1), BuildingBlock: XUDNAN_clean_linker_2, # of connection points: 2
#     Edge 20, Type (0, 1), BuildingBlock: XUDNAN_clean_linker_2, # of connection points: 2
#     Edge 21, Type (0, 1), BuildingBlock: XUDNAN_clean_linker_2, # of connection points: 2
#     Edge 22, Type (0, 1), BuildingBlock: XUDNAN_clean_linker_2, # of connection points: 2
#     Edge 23, Type (0, 1), BuildingBlock: XUDNAN_clean_linker_2, # of connection points: 2
#     Edge 24, Type (0, 1), BuildingBlock: XUDNAN_clean_linker_2, # of connection points: 2
#     Edge 25, Type (0, 1), BuildingBlock: XUDNAN_clean_linker_2, # of connection points: 2
#     Edge 26, Type (0, 1), BuildingBlock: XUDNAN_clean_linker_2, # of connection points: 2
#     Edge 27, Type (0, 1), BuildingBlock: XUDNAN_clean_linker_2, # of connection points: 2
#     Edge 28, Type (0, 1), BuildingBlock: XUDNAN_clean_linker_2, # of connection points: 2
#     Edge 29, Type (0, 1), BuildingBlock: XUDNAN_clean_linker_2, # of connection points: 2
#     Edge 30, Type (0, 1), BuildingBlock: XUDNAN_clean_linker_2, # of connection points: 2
#     Edge 31, Type (0, 1), BuildingBlock: XUDNAN_clean_linker_2, # of connection points: 2
#     Edge 32, Type (0, 1), BuildingBlock: XUDNAN_clean_linker_2, # of connection points: 2
#     Edge 33, Type (0, 1), BuildingBlock: XUDNAN_clean_linker_2, # of connection points: 2
#     Edge 34, Type (0, 1), BuildingBlock: XUDNAN_clean_linker_2, # of connection points: 2
#     Edge 35, Type (0, 1), BuildingBlock: XUDNAN_clean_linker_2, # of connection points: 2
# Relax obj value: 0.008
# Max RMSD: 0.047
# Mean RMSD: 0.043
data_MOF--net-hwx--node1-OJICUG_clean_sbu_0--node2-PAMTOO_clean_linker_0--edge1-XUDNAN_clean_linker_2
_symmetry_space_group_name_H-M    P1
_symmetry_Int_Tables_number       1
_symmetry_cell_setting            triclinic
loop_
_symmetry_equiv_pos_as_xyz
'x, y, z'
_cell_length_a     52.84525
_cell_length_b     52.770417
_cell_length_c     20.259502
_cell_angle_alpha  88.074706
_cell_angle_beta   91.954742
_cell_angle_gamma 89.899422
loop_
_atom_site_label
_atom_site_type_symbol
_atom_site_fract_x
_atom_site_fract_y
_atom_site_fract_z
_atom_type_partial_charge
Sc0 Sc 0.22683 0.22557 0.08781 0.0
Sc1 Sc 0.19332 0.18234 0.98761 0.0
Sc2 Sc 0.23213 0.2292 0.91554 0.0
O3 O 0.21739 0.21236 0.99704 0.0
C4 C 0.21991 0.27699 0.00264 0.0
C5 C 0.1681 0.21251 0.10123 0.0
C6 C 0.1749 0.21966 0.86831 0.0
C7 C 0.22856 0.16562 0.11307 0.0
C8 C 0.27973 0.22945 0.01569 0.0
C9 C 0.23405 0.17052 0.88085 0.0
O10 O 0.21912 0.26468 0.05768 0.0
O11 O 0.16661 0.19808 0.05247 0.0
O12 O 0.19553 0.23194 0.86626 0.0
O13 O 0.23596 0.18796 0.1251 0.0
O14 O 0.27015 0.22866 0.9574 0.0
O15 O 0.21725 0.16344 0.92081 0.0
O16 O 0.26633 0.22951 0.06658 0.0
O17 O 0.21229 0.16067 0.06756 0.0
O18 O 0.24075 0.19351 0.87292 0.0
O19 O 0.18854 0.22284 0.12124 0.0
O20 O 0.22518 0.26669 0.94899 0.0
O21 O 0.17164 0.2006 0.90714 0.0
Sc22 Sc 0.27148 0.72457 0.42211 0.0
Sc23 Sc 0.3105 0.68668 0.5301 0.0
Sc24 Sc 0.26559 0.72764 0.59478 0.0
O25 O 0.28249 0.713 0.5156 0.0
C26 C 0.27128 0.77651 0.49781 0.0
C27 C 0.33165 0.71941 0.40949 0.0
C28 C 0.32379 0.72569 0.64265 0.0
C29 C 0.2782 0.66493 0.40854 0.0
C30 C 0.21831 0.72283 0.49421 0.0
C31 C 0.27143 0.66905 0.63892 0.0
O32 O 0.27308 0.76389 0.44579 0.0
O33 O 0.33442 0.70455 0.45969 0.0
O34 O 0.3013 0.73402 0.64512 0.0
O35 O 0.26853 0.6862 0.39007 0.0
O36 O 0.22813 0.72373 0.55219 0.0
O37 O 0.28973 0.66551 0.6014 0.0
O38 O 0.2315 0.72307 0.44274 0.0
O39 O 0.29396 0.66235 0.45717 0.0
O40 O 0.26072 0.69056 0.64328 0.0
O41 O 0.31012 0.72802 0.38931 0.0
O42 O 0.2683 0.76611 0.5547 0.0
O43 O 0.33007 0.70826 0.60456 0.0
Sc44 Sc 0.76194 0.77605 0.90995 0.0
Sc45 Sc 0.80771 0.81518 0.98584 0.0
Sc46 Sc 0.77522 0.7687 0.08011 0.0
O47 O 0.78166 0.78668 0.99204 0.0
C48 C 0.71901 0.77316 0.01566 0.0
C49 C 0.76495 0.83567 0.88218 0.0
C50 C 0.77728 0.82771 0.11418 0.0
C51 C 0.81895 0.78192 0.86181 0.0
C52 C 0.77407 0.72241 0.98368 0.0
C53 C 0.83478 0.77812 0.0945 0.0
O54 O 0.72595 0.77692 0.9567 0.0
O55 O 0.78478 0.83862 0.91817 0.0
O56 O 0.77091 0.80473 0.12564 0.0
O57 O 0.79631 0.77381 0.85638 0.0
O58 O 0.77861 0.73123 0.04061 0.0
O59 O 0.83481 0.79632 0.05204 0.0
O60 O 0.76705 0.73635 0.93402 0.0
O61 O 0.82625 0.79728 0.90576 0.0
O62 O 0.81477 0.76618 0.10907 0.0
O63 O 0.75428 0.81435 0.87574 0.0
O64 O 0.73466 0.76895 0.06383 0.0
O65 O 0.79089 0.83474 0.0661 0.0
Sc66 Sc 0.72938 0.26857 0.60096 0.0
Sc67 Sc 0.69105 0.31688 0.52503 0.0
Sc68 Sc 0.72995 0.28023 0.42811 0.0
O69 O 0.7168 0.28848 0.51807 0.0
C70 C 0.78006 0.276 0.52073 0.0
C71 C 0.7277 0.32564 0.64971 0.0
C72 C 0.72698 0.34069 0.41654 0.0
C73 C 0.67063 0.27492 0.62728 0.0
C74 C 0.72504 0.22483 0.49559 0.0
C75 C 0.67087 0.28937 0.396 0.0
O76 O 0.76826 0.2717 0.57361 0.0
O77 O 0.71188 0.33346 0.60515 0.0
O78 O 0.73554 0.31947 0.39937 0.0
O79 O 0.69161 0.26331 0.63706 0.0
O80 O 0.72622 0.24012 0.44601 0.0
O81 O 0.66779 0.30329 0.44504 0.0
O82 O 0.72581 0.23211 0.55495 0.0
O83 O 0.66813 0.29456 0.58971 0.0
O84 O 0.69221 0.27982 0.38303 0.0
O85 O 0.73539 0.30279 0.6558 0.0
O86 O 0.76885 0.27948 0.46451 0.0
O87 O 0.71072 0.3426 0.46072 0.0
H88 H 0.22882 0.57387 0.02827 0.0
H89 H 0.2097 0.50611 0.92507 0.0
H90 H 0.21256 0.50472 0.13672 0.0
H91 H 0.23613 0.4623 0.09038 0.0
C92 C 0.22776 0.46115 0.03941 0.0
O93 O 0.20725 0.47739 0.03237 0.0
H94 H 0.24258 0.46687 0.00411 0.0
C95 C 0.22245 0.55437 0.02883 0.0
C96 C 0.2203 0.54119 0.08976 0.0
C97 C 0.21844 0.54219 0.96876 0.0
C98 C 0.21242 0.5162 0.97044 0.0
C99 C 0.21058 0.50279 0.031 0.0
C100 C 0.21395 0.51538 0.09035 0.0
H101 H 0.92281 0.74314 0.491 0.0
H102 H 0.99807 0.73839 0.41683 0.0
H103 H 0.98694 0.73553 0.62625 0.0
H104 H 0.037 0.76123 0.59025 0.0
C105 C 0.0366 0.75476 0.53854 0.0
O106 O 0.02059 0.73426 0.53351 0.0
H107 H 0.02973 0.77091 0.50582 0.0
C108 C 0.9431 0.74099 0.49938 0.0
C109 C 0.95288 0.739 0.56442 0.0
C110 C 0.95908 0.74086 0.44549 0.0
C111 C 0.98534 0.73876 0.4576 0.0
C112 C 0.99535 0.73692 0.52265 0.0
C113 C 0.97914 0.7372 0.57613 0.0
H114 H 0.76914 0.42773 0.03271 0.0
H115 H 0.77888 0.50217 0.11024 0.0
H116 H 0.77747 0.49252 0.90069 0.0
H117 H 0.81599 0.52978 0.95602 0.0
C118 C 0.80398 0.53762 0.99458 0.0
O119 O 0.78097 0.52535 0.99482 0.0
H120 H 0.81406 0.53461 0.04336 0.0
C121 C 0.77216 0.4479 0.02493 0.0
C122 C 0.77319 0.45799 0.96013 0.0
C123 C 0.77423 0.4635 0.07964 0.0
C124 C 0.77751 0.48969 0.0689 0.0
C125 C 0.77897 0.5 0.00453 0.0
C126 C 0.77693 0.4842 0.95025 0.0
H127 H 0.07203 0.24173 0.48577 0.0
H128 H 0.00306 0.25748 0.58203 0.0
H129 H 0.00098 0.24477 0.37378 0.0
H130 H 0.96516 0.28521 0.40834 0.0
C131 C 0.96421 0.28022 0.46198 0.0
O132 O 0.97419 0.25629 0.47425 0.0
H133 H 0.97531 0.29457 0.4897 0.0
C134 C 0.05161 0.24383 0.48275 0.0
C135 C 0.0383 0.24216 0.42177 0.0
C136 C 0.03904 0.24892 0.54047 0.0
C137 C 0.01289 0.25319 0.53767 0.0
C138 C 0.99938 0.25195 0.47716 0.0
C139 C 0.01193 0.24614 0.41968 0.0
H140 H 0.73498 0.92783 0.49319 0.0
H141 H 0.73411 0.0019 0.57486 0.0
H142 H 0.7393 0.99424 0.36476 0.0
H143 H 0.76946 0.03796 0.42343 0.0
C144 C 0.75671 0.04194 0.46443 0.0
O145 O 0.73574 0.0265 0.46055 0.0
H146 H 0.76736 0.0381 0.51208 0.0
C147 C 0.73576 0.9483 0.48625 0.0
C148 C 0.7375 0.95909 0.42245 0.0
C149 C 0.73478 0.96353 0.54124 0.0
C150 C 0.73543 0.98995 0.53264 0.0
C151 C 0.73713 1.00103 0.469 0.0
C152 C 0.73849 0.9856 0.41391 0.0
H153 H 0.57693 0.23961 0.00419 0.0
H154 H 0.5077 0.23178 0.10867 0.0
H155 H 0.50776 0.21928 0.90094 0.0
H156 H 0.46589 0.24915 0.93391 0.0
C157 C 0.46464 0.24425 0.98756 0.0
O158 O 0.47962 0.2233 0.00324 0.0
H159 H 0.47148 0.26089 0.01543 0.0
C160 C 0.55716 0.23426 0.00491 0.0
C161 C 0.54433 0.22845 0.94545 0.0
C162 C 0.54436 0.23526 0.06443 0.0
C163 C 0.51817 0.2306 0.06383 0.0
C164 C 0.50512 0.22513 0.00474 0.0
C165 C 0.51823 0.22346 0.94617 0.0
H166 H 0.2759 0.07361 0.49839 0.0
H167 H 0.26761 1.00023 0.41426 0.0
H168 H 0.26938 0.00716 0.6255 0.0
H169 H 0.29521 0.9618 0.59336 0.0
C170 C 0.2893 0.96105 0.54023 0.0
O171 O 0.26754 0.97528 0.52893 0.0
H172 H 0.30507 0.96893 0.51078 0.0
C173 C 0.2739 0.05322 0.50477 0.0
C174 C 0.273 0.04223 0.56851 0.0
C175 C 0.27163 0.03833 0.44902 0.0
C176 C 0.2689 0.012 0.45704 0.0
C177 C 0.26844 1.00077 0.52085 0.0
C178 C 0.26985 0.01595 0.57644 0.0
H179 H 0.42313 0.76306 0.02222 0.0
H180 H 0.49107 0.77386 0.91502 0.0
H181 H 0.49552 0.7664 0.12686 0.0
H182 H 0.5265 0.80667 0.06265 0.0
C183 C 0.53384 0.79523 0.0222 0.0
O184 O 0.52156 0.77223 0.02012 0.0
H185 H 0.53026 0.80606 0.97472 0.0
C186 C 0.44348 0.76569 0.02285 0.0
C187 C 0.45757 0.76451 0.08293 0.0
C188 C 0.45535 0.76927 0.96261 0.0
C189 C 0.48173 0.77134 0.96157 0.0
C190 C 0.49609 0.7704 0.02104 0.0
C191 C 0.48408 0.76702 0.08145 0.0
H192 H 0.1587 0.19933 0.22852 0.0
H193 H 0.12569 0.23652 0.05213 0.0
H194 H 0.08697 0.24619 0.11273 0.0
H195 H 0.09928 0.17045 0.28223 0.0
H196 H 0.10737 0.17399 0.36858 0.0
H197 H 0.13199 0.16974 0.31056 0.0
H198 H 0.15346 0.21119 0.34852 0.0
H199 H 0.12891 0.21556 0.40651 0.0
H200 H 0.1354 0.24025 0.34584 0.0
H201 H 0.05398 0.25525 0.19669 0.0
H202 H 0.02822 0.26075 0.29442 0.0
H203 H 0.08073 0.21244 0.411 0.0
C204 C 0.1432 0.20941 0.20289 0.0
C205 C 0.14495 0.21748 0.13633 0.0
C206 C 0.12444 0.23033 0.10344 0.0
C207 C 0.10248 0.23584 0.13735 0.0
C208 C 0.10128 0.22771 0.20338 0.0
C209 C 0.12094 0.2144 0.23542 0.0
C210 C 0.11492 0.20764 0.30622 0.0
C211 C 0.11329 0.17874 0.31753 0.0
C212 C 0.13432 0.21937 0.3546 0.0
C213 C 0.08919 0.22 0.30977 0.0
C214 C 0.08163 0.23154 0.25016 0.0
C215 C 0.05943 0.24582 0.24328 0.0
C216 C 0.04479 0.24868 0.29913 0.0
C217 C 0.0523 0.23708 0.36094 0.0
C218 C 0.07449 0.22199 0.36519 0.0
H219 H 0.24034 0.66734 0.74663 0.0
H220 H 0.28163 0.61957 0.61647 0.0
H221 H 0.26835 0.58173 0.67964 0.0
H222 H 0.25659 0.63297 0.89351 0.0
H223 H 0.22639 0.63654 0.93092 0.0
H224 H 0.23683 0.66006 0.87159 0.0
H225 H 0.1957 0.6539 0.80065 0.0
H226 H 0.18514 0.63029 0.85986 0.0
H227 H 0.18731 0.62264 0.77419 0.0
H228 H 0.25435 0.54933 0.76144 0.0
H229 H 0.24128 0.52456 0.85948 0.0
H230 H 0.2073 0.59222 0.9356 0.0
C231 C 0.24625 0.6489 0.73091 0.0
C232 C 0.26212 0.64656 0.67662 0.0
C233 C 0.26966 0.62202 0.65813 0.0
C234 C 0.26206 0.60029 0.69341 0.0
C235 C 0.24678 0.60323 0.74707 0.0
C236 C 0.23887 0.62685 0.76588 0.0
C237 C 0.22387 0.62462 0.82828 0.0
C238 C 0.23669 0.63942 0.88437 0.0
C239 C 0.19637 0.63338 0.81492 0.0
C240 C 0.22533 0.59621 0.84238 0.0
C241 C 0.23836 0.58424 0.79441 0.0
C242 C 0.24368 0.55836 0.79882 0.0
C243 C 0.23599 0.54438 0.85461 0.0
C244 C 0.22311 0.5563 0.90541 0.0
C245 C 0.21719 0.58248 0.89794 0.0
H246 H 0.84244 0.74179 0.19339 0.0
H247 H 0.88157 0.79968 0.07882 0.0
H248 H 0.92045 0.79153 0.14694 0.0
H249 H 0.86708 0.75758 0.34476 0.0
H250 H 0.86988 0.72565 0.37872 0.0
H251 H 0.84651 0.73301 0.31444 0.0
H252 H 0.86498 0.69811 0.24274 0.0
H253 H 0.88846 0.69059 0.3071 0.0
H254 H 0.89813 0.69866 0.22458 0.0
H255 H 0.95305 0.78152 0.23724 0.0
H256 H 0.97602 0.77086 0.34291 0.0
H257 H 0.91624 0.71849 0.39557 0.0
C258 C 0.85931 0.75237 0.18147 0.0
C259 C 0.85886 0.77138 0.13065 0.0
C260 C 0.88136 0.78498 0.1174 0.0
C261 C 0.90363 0.78041 0.15564 0.0
C262 C 0.90322 0.76197 0.20643 0.0
C263 C 0.88168 0.74802 0.21901 0.0
C264 C 0.88541 0.73101 0.28016 0.0
C265 C 0.86609 0.7372 0.33258 0.0
C266 C 0.88418 0.70292 0.26257 0.0
C267 C 0.91198 0.73845 0.30177 0.0
C268 C 0.92214 0.75601 0.25811 0.0
C269 C 0.94553 0.76736 0.27107 0.0
C270 C 0.95851 0.76113 0.33108 0.0
C271 C 0.94792 0.74387 0.37745 0.0
C272 C 0.92479 0.73181 0.36119 0.0
H273 H 0.71386 0.34029 0.77146 0.0
H274 H 0.76743 0.35496 0.61781 0.0
H275 H 0.7851 0.391 0.67966 0.0
H276 H 0.70072 0.40462 0.8029 0.0
H277 H 0.69835 0.39978 0.89097 0.0
H278 H 0.69098 0.37428 0.83672 0.0
H279 H 0.72397 0.34545 0.90031 0.0
H280 H 0.73125 0.37078 0.95521 0.0
H281 H 0.75615 0.35626 0.9109 0.0
H282 H 0.79565 0.4265 0.7566 0.0
H283 H 0.79986 0.45727 0.84597 0.0
H284 H 0.73849 0.41983 0.94725 0.0
C285 C 0.72963 0.35086 0.75182 0.0
C286 C 0.73971 0.34485 0.69083 0.0
C287 C 0.75988 0.35927 0.66524 0.0
C288 C 0.7699 0.37976 0.69977 0.0
C289 C 0.75938 0.38554 0.75961 0.0
C290 C 0.73982 0.37141 0.78568 0.0
C291 C 0.73155 0.38193 0.85009 0.0
C292 C 0.70375 0.39068 0.8448 0.0
C293 C 0.736 0.36245 0.90752 0.0
C294 C 0.74938 0.40423 0.85592 0.0
C295 C 0.7653 0.40604 0.80335 0.0
C296 C 0.78333 0.42523 0.79815 0.0
C297 C 0.78546 0.44274 0.84879 0.0
C298 C 0.76966 0.44087 0.90379 0.0
C299 C 0.75116 0.42154 0.90645 0.0
H300 H 0.66729 0.25589 0.29464 0.0
H301 H 0.62321 0.3095 0.40193 0.0
H302 H 0.58537 0.29929 0.33378 0.0
H303 H 0.63835 0.26948 0.13595 0.0
H304 H 0.63895 0.23707 0.1107 0.0
H305 H 0.66246 0.24802 0.1694 0.0
H306 H 0.65015 0.21204 0.25244 0.0
H307 H 0.62649 0.20106 0.19405 0.0
H308 H 0.61768 0.20901 0.27602 0.0
H309 H 0.55266 0.28465 0.25128 0.0
H310 H 0.52785 0.26751 0.15766 0.0
H311 H 0.59263 0.22214 0.10732 0.0
C312 C 0.64971 0.26552 0.30388 0.0
C313 C 0.64833 0.28354 0.3537 0.0
C314 C 0.62485 0.29561 0.36414 0.0
C315 C 0.60317 0.2899 0.32581 0.0
C316 C 0.60519 0.27197 0.27744 0.0
C317 C 0.62784 0.25997 0.26629 0.0
C318 C 0.62498 0.24185 0.21017 0.0
C319 C 0.6422 0.24958 0.15319 0.0
C320 C 0.63013 0.21436 0.23466 0.0
C321 C 0.59731 0.24589 0.19088 0.0
C322 C 0.58619 0.26323 0.23051 0.0
C323 C 0.56105 0.27082 0.22033 0.0
C324 C 0.54704 0.26081 0.16732 0.0
C325 C 0.55821 0.24337 0.12518 0.0
C326 C 0.58355 0.23552 0.13831 0.0
H327 H 0.21579 0.12377 0.84819 0.0
H328 H 0.28008 0.17394 0.82398 0.0
H329 H 0.29997 0.14279 0.75389 0.0
H330 H 0.25132 0.06286 0.84611 0.0
H331 H 0.22646 0.04768 0.79897 0.0
H332 H 0.21881 0.07216 0.85506 0.0
H333 H 0.19531 0.09746 0.75965 0.0
H334 H 0.20276 0.07306 0.70353 0.0
H335 H 0.2118 0.10541 0.68532 0.0
H336 H 0.3108 0.10895 0.67793 0.0
H337 H 0.3107 0.07556 0.59539 0.0
H338 H 0.23945 0.04715 0.6671 0.0
C339 C 0.23431 0.12793 0.8293 0.0
C340 C 0.24645 0.15121 0.84175 0.0
C341 C 0.2704 0.15625 0.81494 0.0
C342 C 0.28196 0.13858 0.77555 0.0
C343 C 0.26934 0.11597 0.76346 0.0
C344 C 0.24601 0.1106 0.78932 0.0
C345 C 0.23531 0.08612 0.76312 0.0
C346 C 0.23284 0.06601 0.81917 0.0
C347 C 0.2098 0.09081 0.72567 0.0
C348 C 0.25588 0.07906 0.71676 0.0
C349 C 0.27555 0.09632 0.71875 0.0
C350 C 0.29576 0.09506 0.67667 0.0
C351 C 0.29555 0.07611 0.63001 0.0
C352 C 0.27521 0.05877 0.6257 0.0
C353 C 0.2555 0.05983 0.67074 0.0
H354 H 0.33582 0.75274 0.30219 0.0
H355 H 0.37978 0.70141 0.43361 0.0
H356 H 0.4178 0.71081 0.37091 0.0
H357 H 0.3643 0.73637 0.15575 0.0
H358 H 0.36424 0.76802 0.11942 0.0
H359 H 0.34075 0.75904 0.17796 0.0
H360 H 0.35413 0.79659 0.25056 0.0
H361 H 0.3777 0.8057 0.19211 0.0
H362 H 0.38678 0.79965 0.27777 0.0
H363 H 0.45012 0.72223 0.28803 0.0
H364 H 0.47424 0.73514 0.19058 0.0
H365 H 0.41053 0.78137 0.11712 0.0
C366 C 0.35349 0.74371 0.31831 0.0
C367 C 0.35466 0.7263 0.37294 0.0
C368 C 0.37824 0.71484 0.39206 0.0
C369 C 0.40006 0.7201 0.35687 0.0
C370 C 0.39819 0.73709 0.30298 0.0
C371 C 0.37558 0.74888 0.28398 0.0
C372 C 0.37855 0.76548 0.22229 0.0
C373 C 0.36092 0.75669 0.16552 0.0
C374 C 0.37402 0.79352 0.23657 0.0
C375 C 0.4061 0.7605 0.20862 0.0
C376 C 0.41713 0.74422 0.25598 0.0
C377 C 0.44186 0.7354 0.25123 0.0
C378 C 0.45551 0.743 0.19579 0.0
C379 C 0.44441 0.75932 0.14584 0.0
C380 C 0.41959 0.76867 0.1538 0.0
H381 H 0.79021 0.87724 0.83446 0.0
H382 H 0.7156 0.84338 0.84243 0.0
H383 H 0.69817 0.87832 0.77052 0.0
H384 H 0.76937 0.94544 0.82178 0.0
H385 H 0.79344 0.95343 0.76374 0.0
H386 H 0.79918 0.9287 0.8261 0.0
H387 H 0.80949 0.8972 0.73523 0.0
H388 H 0.80392 0.92178 0.67292 0.0
H389 H 0.78664 0.89242 0.6687 0.0
H390 H 0.69001 0.91282 0.68647 0.0
H391 H 0.69234 0.94282 0.5904 0.0
H392 H 0.77214 0.95416 0.63435 0.0
C393 C 0.77007 0.87765 0.82267 0.0
C394 C 0.75418 0.85779 0.84444 0.0
C395 C 0.72807 0.85847 0.82634 0.0
C396 C 0.71797 0.87834 0.786 0.0
C397 C 0.73424 0.89736 0.7641 0.0
C398 C 0.75976 0.89716 0.78162 0.0
C399 C 0.77375 0.91787 0.74432 0.0
C400 C 0.78457 0.93753 0.79184 0.0
C401 C 0.79467 0.90664 0.70283 0.0
C402 C 0.75232 0.92903 0.70103 0.0
C403 C 0.72956 0.91732 0.71444 0.0
C404 C 0.70754 0.92259 0.6766 0.0
C405 C 0.70897 0.93965 0.6224 0.0
C406 C 0.73224 0.95111 0.6067 0.0
C407 C 0.754 0.94625 0.64728 0.0
H408 H 0.8658 0.80105 0.82889 0.0
H409 H 0.81501 0.73758 0.79762 0.0
H410 H 0.84648 0.71767 0.72931 0.0
H411 H 0.88788 0.80432 0.66455 0.0
H412 H 0.91991 0.81262 0.68833 0.0
H413 H 0.89421 0.82113 0.73932 0.0
H414 H 0.91652 0.79768 0.83964 0.0
H415 H 0.94216 0.78882 0.78859 0.0
H416 H 0.92508 0.76476 0.83385 0.0
H417 H 0.88182 0.70518 0.66117 0.0
H418 H 0.91786 0.70294 0.58716 0.0
H419 H 0.94632 0.77423 0.65908 0.0
C420 C 0.86141 0.78291 0.80791 0.0
C421 C 0.83789 0.77093 0.81864 0.0
C422 C 0.83275 0.74729 0.78975 0.0
C423 C 0.85062 0.73566 0.75135 0.0
C424 C 0.87358 0.74786 0.74191 0.0
C425 C 0.87899 0.77108 0.76857 0.0
C426 C 0.90446 0.78084 0.74643 0.0
C427 C 0.90142 0.80623 0.70732 0.0
C428 C 0.92316 0.78316 0.80567 0.0
C429 C 0.91219 0.75967 0.70228 0.0
C430 C 0.89421 0.74067 0.70147 0.0
C431 C 0.8962 0.71975 0.66188 0.0
C432 C 0.91672 0.71857 0.6203 0.0
C433 C 0.93491 0.73818 0.61856 0.0
C434 C 0.93297 0.7587 0.66108 0.0
H435 H 0.7631 0.3452 0.32269 0.0
H436 H 0.71036 0.38935 0.43228 0.0
H437 H 0.72231 0.42784 0.36868 0.0
H438 H 0.81177 0.39608 0.30327 0.0
H439 H 0.81852 0.38658 0.22104 0.0
H440 H 0.80875 0.36329 0.28209 0.0
H441 H 0.7719 0.34972 0.20326 0.0
H442 H 0.78154 0.37288 0.14219 0.0
H443 H 0.74963 0.3733 0.17085 0.0
H444 H 0.73498 0.45992 0.28247 0.0
H445 H 0.74696 0.48257 0.17971 0.0
H446 H 0.7932 0.41833 0.13029 0.0
C447 C 0.75442 0.36303 0.33437 0.0
C448 C 0.73576 0.36418 0.38247 0.0
C449 C 0.72474 0.38792 0.39575 0.0
C450 C 0.7315 0.40996 0.36011 0.0
C451 C 0.74956 0.40805 0.31207 0.0
C452 C 0.76103 0.38521 0.29957 0.0
C453 C 0.77814 0.38775 0.24138 0.0
C454 C 0.80595 0.38316 0.26328 0.0
C455 C 0.76978 0.36986 0.18619 0.0
C456 C 0.77349 0.41525 0.22105 0.0
C457 C 0.75728 0.42678 0.26301 0.0
C458 C 0.74818 0.45133 0.25014 0.0
C459 C 0.75519 0.46412 0.19176 0.0
C460 C 0.77103 0.45224 0.14695 0.0
C461 C 0.78101 0.42789 0.16344 0.0
H462 H 0.13829 0.1916 0.80586 0.0
H463 H 0.1631 0.26879 0.83596 0.0
H464 H 0.12678 0.28493 0.76675 0.0
H465 H 0.12171 0.20165 0.63674 0.0
H466 H 0.09501 0.18045 0.63735 0.0
H467 H 0.1211 0.17528 0.69561 0.0
H468 H 0.09005 0.17631 0.79193 0.0
H469 H 0.06389 0.18182 0.73377 0.0
H470 H 0.06977 0.20349 0.79943 0.0
H471 H 0.08915 0.29265 0.69029 0.0
H472 H 0.05611 0.29108 0.60063 0.0
H473 H 0.05721 0.20906 0.61552 0.0
C474 C 0.13581 0.21189 0.79849 0.0
C475 C 0.1533 0.229 0.8264 0.0
C476 C 0.14988 0.25541 0.81469 0.0
C477 C 0.1292 0.26474 0.77606 0.0
C478 C 0.11229 0.2474 0.74901 0.0
C479 C 0.11557 0.22152 0.75889 0.0
C480 C 0.09625 0.20691 0.71859 0.0
C481 C 0.1093 0.1901 0.66914 0.0
C482 C 0.07896 0.19121 0.76364 0.0
C483 C 0.08187 0.2286 0.68374 0.0
C484 C 0.09105 0.25182 0.70309 0.0
C485 C 0.08158 0.27461 0.6753 0.0
C486 C 0.06278 0.2736 0.6249 0.0
C487 C 0.05399 0.25 0.60278 0.0
C488 C 0.0633 0.22729 0.63322 0.0
H489 H 0.24444 0.66234 0.30308 0.0
H490 H 0.29425 0.6158 0.43225 0.0
H491 H 0.28138 0.57797 0.37127 0.0
H492 H 0.194 0.6156 0.28414 0.0
H493 H 0.18761 0.62464 0.19859 0.0
H494 H 0.1994 0.64777 0.25533 0.0
H495 H 0.23695 0.65754 0.17942 0.0
H496 H 0.22522 0.63457 0.12242 0.0
H497 H 0.25715 0.63199 0.15621 0.0
H498 H 0.26539 0.5458 0.29129 0.0
H499 H 0.2488 0.52224 0.19599 0.0
H500 H 0.20834 0.58963 0.12226 0.0
C501 C 0.25255 0.64421 0.31906 0.0
C502 C 0.2704 0.64211 0.37253 0.0
C503 C 0.28057 0.61795 0.39144 0.0
C504 C 0.27328 0.59631 0.35732 0.0
C505 C 0.2557 0.59911 0.30479 0.0
C506 C 0.24546 0.62245 0.28579 0.0
C507 C 0.22791 0.62061 0.22562 0.0
C508 C 0.20061 0.62756 0.24193 0.0
C509 C 0.23739 0.63715 0.16751 0.0
C510 C 0.23037 0.59268 0.21271 0.0
C511 C 0.24626 0.58053 0.25925 0.0
C512 C 0.2526 0.55501 0.25511 0.0
C513 C 0.24293 0.54173 0.20103 0.0
C514 C 0.22717 0.55406 0.15181 0.0
C515 C 0.22037 0.57969 0.15899 0.0
H516 H 0.36918 0.7054 0.68942 0.0
H517 H 0.32309 0.77361 0.68833 0.0
H518 H 0.35573 0.79442 0.75709 0.0
H519 H 0.38875 0.70747 0.85608 0.0
H520 H 0.42025 0.69557 0.84475 0.0
H521 H 0.39481 0.68719 0.78848 0.0
H522 H 0.4205 0.70466 0.6902 0.0
H523 H 0.44594 0.71336 0.74648 0.0
H524 H 0.43172 0.7369 0.69024 0.0
H525 H 0.39088 0.80659 0.83321 0.0
H526 H 0.42493 0.808 0.91982 0.0
H527 H 0.44848 0.73219 0.87356 0.0
C528 C 0.36619 0.72484 0.70286 0.0
C529 C 0.34365 0.73791 0.68347 0.0
C530 C 0.34015 0.76318 0.70299 0.0
C531 C 0.3587 0.77526 0.74146 0.0
C532 C 0.38062 0.76183 0.76014 0.0
C533 C 0.38441 0.73712 0.74201 0.0
C534 C 0.40849 0.72616 0.7743 0.0
C535 C 0.40272 0.70272 0.81853 0.0
C536 C 0.42781 0.71991 0.72218 0.0
C537 C 0.41722 0.74833 0.81482 0.0
C538 C 0.40109 0.76888 0.80483 0.0
C539 C 0.40395 0.79086 0.84055 0.0
C540 C 0.42332 0.79157 0.8893 0.0
C541 C 0.43948 0.77047 0.90161 0.0
C542 C 0.4368 0.74883 0.86306 0.0
H543 H 0.79815 0.87333 0.1516 0.0
H544 H 0.73163 0.82585 0.17091 0.0
H545 H 0.71235 0.85752 0.24025 0.0
H546 H 0.80037 0.89205 0.31819 0.0
H547 H 0.81091 0.92394 0.30031 0.0
H548 H 0.81852 0.89894 0.24601 0.0
H549 H 0.79778 0.9247 0.14728 0.0
H550 H 0.7899 0.94971 0.20155 0.0
H551 H 0.76542 0.9352 0.15163 0.0
H552 H 0.70098 0.8923 0.3115 0.0
H553 H 0.69988 0.92674 0.3907 0.0
H554 H 0.77387 0.95204 0.33054 0.0
C555 C 0.77941 0.86984 0.16987 0.0
C556 C 0.76635 0.84716 0.15579 0.0
C557 C 0.74205 0.843 0.18143 0.0
C558 C 0.73082 0.86098 0.22035 0.0
C559 C 0.74416 0.88303 0.23369 0.0
C560 C 0.76802 0.8875 0.21 0.0
C561 C 0.77904 0.91178 0.23704 0.0
C562 C 0.80366 0.90634 0.27782 0.0
C563 C 0.78328 0.93152 0.18102 0.0
C564 C 0.75782 0.9199 0.28054 0.0
C565 C 0.73773 0.9032 0.27665 0.0
C566 C 0.71645 0.90567 0.31454 0.0
C567 C 0.71596 0.92527 0.35922 0.0
C568 C 0.73665 0.94207 0.36596 0.0
C569 C 0.7576 0.93974 0.32504 0.0
H570 H 0.66813 0.24356 0.73835 0.0
H571 H 0.62144 0.28508 0.5908 0.0
H572 H 0.58318 0.27197 0.64859 0.0
H573 H 0.62245 0.1908 0.76958 0.0
H574 H 0.63027 0.1894 0.85693 0.0
H575 H 0.65391 0.19882 0.79895 0.0
H576 H 0.66116 0.24057 0.86072 0.0
H577 H 0.63762 0.23128 0.91872 0.0
H578 H 0.6346 0.26114 0.87325 0.0
H579 H 0.5507 0.25924 0.72822 0.0
H580 H 0.52634 0.24898 0.82684 0.0
H581 H 0.59328 0.21427 0.92212 0.0
C582 C 0.64982 0.24939 0.71744 0.0
C583 C 0.6478 0.26533 0.66006 0.0
C584 C 0.6235 0.27297 0.6349 0.0
C585 C 0.60161 0.26545 0.66703 0.0
C586 C 0.60424 0.25017 0.72415 0.0
C587 C 0.6277 0.24215 0.74919 0.0
C588 C 0.62536 0.2279 0.81485 0.0
C589 C 0.63347 0.20007 0.80974 0.0
C590 C 0.64058 0.24102 0.87012 0.0
C591 C 0.59711 0.2301 0.82387 0.0
C592 C 0.58524 0.24262 0.77043 0.0
C593 C 0.55962 0.24889 0.76979 0.0
C594 C 0.54587 0.24281 0.82602 0.0
C595 C 0.5578 0.23065 0.88229 0.0
C596 C 0.58359 0.22356 0.88001 0.0
H597 H 0.20611 0.12253 0.16331 0.0
H598 H 0.27799 0.16167 0.1519 0.0
H599 H 0.29849 0.12777 0.22152 0.0
H600 H 0.21293 0.10638 0.33044 0.0
H601 H 0.19763 0.07595 0.32603 0.0
H602 H 0.18958 0.10066 0.2657 0.0
H603 H 0.20063 0.07071 0.17196 0.0
H604 H 0.20897 0.04594 0.23233 0.0
H605 H 0.23152 0.05614 0.17227 0.0
H606 H 0.31027 0.09311 0.30123 0.0
H607 H 0.31163 0.06214 0.39543 0.0
H608 H 0.23223 0.04548 0.35986 0.0
C609 C 0.22628 0.12352 0.17428 0.0
C610 C 0.24059 0.14448 0.15191 0.0
C611 C 0.26676 0.14569 0.16864 0.0
C612 C 0.27861 0.12642 0.20757 0.0
C613 C 0.26398 0.10614 0.22977 0.0
C614 C 0.23833 0.10462 0.21434 0.0
C615 C 0.22639 0.08262 0.2519 0.0
C616 C 0.20541 0.09197 0.29614 0.0
C617 C 0.21628 0.06267 0.20425 0.0
C618 C 0.24914 0.07263 0.29253 0.0
C619 C 0.27074 0.08612 0.27759 0.0
C620 C 0.29365 0.08204 0.31245 0.0
C621 C 0.29431 0.06438 0.36559 0.0
C622 C 0.2722 0.05115 0.38338 0.0
C623 C 0.24954 0.05477 0.34537 0.0
H624 H 0.22696 0.31095 0.10171 0.0
H625 H 0.20208 0.30543 0.89632 0.0
H626 H 0.19709 0.35187 0.88712 0.0
H627 H 0.18622 0.36558 0.14057 0.0
H628 H 0.21061 0.3795 0.19195 0.0
H629 H 0.2091 0.34556 0.18513 0.0
H630 H 0.25558 0.34504 0.14829 0.0
H631 H 0.25721 0.37891 0.15482 0.0
H632 H 0.26441 0.36459 0.07812 0.0
H633 H 0.19854 0.39888 0.89659 0.0
H634 H 0.20729 0.44347 0.92428 0.0
H635 H 0.23177 0.41877 0.12247 0.0
C636 C 0.21989 0.3195 0.05533 0.0
C637 C 0.21481 0.30458 -0.00016 0.0
C638 C 0.20615 0.3165 0.93947 0.0
C639 C 0.20311 0.34286 0.93382 0.0
C640 C 0.20882 0.3571 0.98894 0.0
C641 C 0.217 0.34588 0.0486 0.0
C642 C 0.22391 0.36571 0.09849 0.0
C643 C 0.20641 0.36398 0.15753 0.0
C644 C 0.25194 0.36342 0.12123 0.0
C645 C 0.21897 0.38975 0.05698 0.0
C646 C 0.20992 0.38436 0.99422 0.0
C647 C 0.20525 0.40338 0.94587 0.0
C648 C 0.21024 0.42858 0.96189 0.0
C649 C 0.21988 0.43444 0.0255 0.0
C650 C 0.22402 0.41478 0.07376 0.0
H651 H 0.18406 0.7253 0.59247 0.0
H652 H 0.18889 0.72228 0.37925 0.0
H653 H 0.14245 0.72752 0.36761 0.0
H654 H 0.12337 0.6921 0.6061 0.0
H655 H 0.11326 0.71199 0.67089 0.0
H656 H 0.14646 0.70553 0.66228 0.0
H657 H 0.15541 0.75379 0.6549 0.0
H658 H 0.12228 0.76042 0.66291 0.0
H659 H 0.13871 0.77331 0.59292 0.0
H660 H 0.09569 0.73638 0.37918 0.0
H661 H 0.05257 0.74758 0.41351 0.0
H662 H 0.07891 0.74497 0.61848 0.0
C663 C 0.17542 0.72528 0.54323 0.0
C664 C 0.19025 0.72332 0.48676 0.0
C665 C 0.17801 0.72367 0.42334 0.0
C666 C 0.15162 0.72663 0.41622 0.0
C667 C 0.13771 0.7291 0.47295 0.0
C668 C 0.14921 0.72828 0.53525 0.0
C669 C 0.1303 0.73269 0.58819 0.0
C670 C 0.12823 0.70917 0.63459 0.0
C671 C 0.13709 0.75647 0.62698 0.0
C672 C 0.10639 0.73668 0.54593 0.0
C673 C 0.11098 0.73435 0.47959 0.0
C674 C 0.09188 0.73808 0.43099 0.0
C675 C 0.06754 0.74449 0.45077 0.0
C676 C 0.06264 0.74731 0.51837 0.0
C677 C 0.08225 0.74301 0.56645 0.0
H678 H 0.78686 0.68435 0.07635 0.0
H679 H 0.76934 0.69802 0.86693 0.0
H680 H 0.77553 0.65275 0.84761 0.0
H681 H 0.83555 0.63757 0.05676 0.0
H682 H 0.82673 0.61823 0.12727 0.0
H683 H 0.8209 0.65189 0.12547 0.0
H684 H 0.77337 0.64376 0.14527 0.0
H685 H 0.77906 0.61007 0.1473 0.0
H686 H 0.75554 0.6238 0.09023 0.0
H687 H 0.78348 0.60616 0.84983 0.0
H688 H 0.79245 0.5607 0.87488 0.0
H689 H 0.80457 0.5767 0.082 0.0
C690 C 0.78429 0.67785 0.02645 0.0
C691 C 0.77754 0.6949 0.9733 0.0
C692 C 0.7744 0.68547 0.90872 0.0
C693 C 0.77792 0.65973 0.89705 0.0
C694 C 0.78457 0.64351 0.95035 0.0
C695 C 0.78768 0.65211 0.0138 0.0
C696 C 0.79476 0.63051 0.06224 0.0
C697 C 0.82105 0.63481 0.09485 0.0
C698 C 0.77447 0.62682 0.11433 0.0
C699 C 0.79511 0.60851 0.01599 0.0
C700 C 0.78923 0.61648 0.95163 0.0
C701 C 0.78822 0.59967 0.89998 0.0
C702 C 0.79338 0.57399 0.9145 0.0
C703 C 0.79955 0.56542 0.97996 0.0
C704 C 0.80024 0.58289 0.03137 0.0
H705 H 0.81315 0.27982 0.41879 0.0
H706 H 0.81055 0.27458 0.63301 0.0
H707 H 0.85714 0.27607 0.64097 0.0
H708 H 0.86763 0.24035 0.40512 0.0
H709 H 0.88032 0.25881 0.33752 0.0
H710 H 0.84666 0.25803 0.34853 0.0
H711 H 0.84571 0.30708 0.35162 0.0
H712 H 0.87938 0.30803 0.34065 0.0
H713 H 0.86603 0.32294 0.4103 0.0
H714 H 0.90398 0.27754 0.62611 0.0
H715 H 0.94811 0.2784 0.58843 0.0
H716 H 0.92024 0.28222 0.38464 0.0
C717 C 0.82232 0.27908 0.46744 0.0
C718 C 0.80809 0.27708 0.52525 0.0
C719 C 0.82095 0.27605 0.5879 0.0
C720 C 0.84744 0.27694 0.59303 0.0
C721 C 0.86084 0.27883 0.53512 0.0
C722 C 0.84875 0.27985 0.47352 0.0
C723 C 0.86764 0.28141 0.41898 0.0
C724 C 0.86542 0.25827 0.37496 0.0
C725 C 0.8645 0.30635 0.37798 0.0
C726 C 0.89223 0.28096 0.45959 0.0
C727 C 0.88788 0.27959 0.52651 0.0
C728 C 0.90764 0.27872 0.57387 0.0
C729 C 0.93255 0.27925 0.5522 0.0
C730 C 0.93738 0.28063 0.48394 0.0
C731 C 0.91697 0.28141 0.43714 0.0
H732 H 0.73883 0.18463 0.57985 0.0
H733 H 0.70987 0.20293 0.38075 0.0
H734 H 0.71274 0.15791 0.35345 0.0
H735 H 0.78407 0.1403 0.53512 0.0
H736 H 0.78012 0.11882 0.60506 0.0
H737 H 0.77334 0.15205 0.61193 0.0
H738 H 0.72798 0.14139 0.6486 0.0
H739 H 0.7347 0.10807 0.64246 0.0
H740 H 0.70784 0.12201 0.5975 0.0
H741 H 0.72185 0.11173 0.34438 0.0
H742 H 0.73566 0.06686 0.35587 0.0
H743 H 0.75879 0.07818 0.56006 0.0
C744 C 0.73255 0.17907 0.53102 0.0
C745 C 0.72407 0.19735 0.48253 0.0
C746 C 0.71649 0.18933 0.41874 0.0
C747 C 0.71799 0.16377 0.40273 0.0
C748 C 0.72707 0.14636 0.45099 0.0
C749 C 0.73407 0.15358 0.51399 0.0
C750 C 0.74453 0.13122 0.5554 0.0
C751 C 0.77215 0.13589 0.57819 0.0
C752 C 0.72775 0.12533 0.61449 0.0
C753 C 0.74275 0.11049 0.50542 0.0
C754 C 0.73248 0.11961 0.44563 0.0
C755 C 0.72972 0.10429 0.39112 0.0
C756 C 0.73766 0.07894 0.39791 0.0
C757 C 0.74832 0.06923 0.45858 0.0
C758 C 0.7507 0.08518 0.5131 0.0
H759 H 0.31538 0.23242 0.91988 0.0
H760 H 0.3075 0.22777 0.13275 0.0
H761 H 0.35394 0.22887 0.14843 0.0
H762 H 0.37181 0.19335 0.91561 0.0
H763 H 0.38544 0.21232 0.85032 0.0
H764 H 0.35154 0.21022 0.85567 0.0
H765 H 0.34849 0.25921 0.85818 0.0
H766 H 0.38234 0.26146 0.85268 0.0
H767 H 0.36672 0.27582 0.91982 0.0
H768 H 0.40126 0.23173 0.14127 0.0
H769 H 0.44603 0.23733 0.11095 0.0
H770 H 0.42288 0.24001 0.90354 0.0
C771 C 0.32336 0.23151 0.96985 0.0
C772 C 0.30768 0.23002 0.02504 0.0
C773 C 0.31902 0.22898 0.08957 0.0
C774 C 0.34542 0.2295 0.09906 0.0
C775 C 0.36026 0.23103 0.0436 0.0
C776 C 0.34965 0.23204 0.98027 0.0
C777 C 0.3698 0.23438 0.92907 0.0
C778 C 0.36963 0.21118 0.88508 0.0
C779 C 0.36664 0.2592 0.88752 0.0
C780 C 0.39339 0.23484 0.97355 0.0
C781 C 0.3875 0.23271 0.03946 0.0
C782 C 0.40612 0.23329 0.08984 0.0
C783 C 0.4314 0.23644 0.07232 0.0
C784 C 0.43772 0.23906 0.00517 0.0
C785 C 0.41849 0.23794 0.95527 0.0
H786 H 0.27487 0.81095 0.59708 0.0
H787 H 0.27097 0.80567 0.38336 0.0
H788 H 0.27363 0.85215 0.37145 0.0
H789 H 0.23772 0.86851 0.60495 0.0
H790 H 0.25686 0.88095 0.67165 0.0
H791 H 0.25386 0.84717 0.66375 0.0
H792 H 0.30269 0.84282 0.66195 0.0
H793 H 0.30585 0.87656 0.66997 0.0
H794 H 0.31993 0.86123 0.60197 0.0
H795 H 0.27736 0.89913 0.38207 0.0
H796 H 0.28323 0.94355 0.41555 0.0
H797 H 0.28496 0.9184 0.62154 0.0
C798 C 0.2744 0.81954 0.54775 0.0
C799 C 0.27263 0.80455 0.49121 0.0
C800 C 0.27233 0.81664 0.42755 0.0
C801 C 0.27376 0.84308 0.42017 0.0
C802 C 0.27553 0.85724 0.47684 0.0
C803 C 0.27592 0.84594 0.5394 0.0
C804 C 0.27866 0.86553 0.59214 0.0
C805 C 0.25538 0.86553 0.63568 0.0
C806 C 0.30324 0.86128 0.63395 0.0
C807 C 0.27989 0.88957 0.54937 0.0
C808 C 0.27792 0.88437 0.48299 0.0
C809 C 0.2789 0.90346 0.43389 0.0
C810 C 0.28222 0.92854 0.45319 0.0
C811 C 0.28466 0.93419 0.52083 0.0
C812 C 0.28319 0.91449 0.56945 0.0
H813 H 0.67914 0.78339 0.92752 0.0
H814 H 0.69673 0.76593 0.1352 0.0
H815 H 0.65144 0.76917 0.15893 0.0
H816 H 0.63105 0.82927 0.95251 0.0
H817 H 0.61126 0.81993 0.88334 0.0
H818 H 0.64503 0.8155 0.88208 0.0
H819 H 0.6386 0.76768 0.8617 0.0
H820 H 0.60479 0.77197 0.86271 0.0
H821 H 0.62012 0.7488 0.91799 0.0
H822 H 0.60428 0.77493 0.16075 0.0
H823 H 0.55843 0.78293 0.13972 0.0
H824 H 0.5716 0.79664 0.93162 0.0
C825 C 0.67352 0.78009 0.97797 0.0
C826 C 0.69162 0.77433 0.0294 0.0
C827 C 0.68333 0.7703 0.09479 0.0
C828 C 0.65761 0.77211 0.10886 0.0
C829 C 0.64035 0.77794 0.0571 0.0
C830 C 0.64793 0.78182 0.99296 0.0
C831 C 0.62558 0.7882 0.94651 0.0
C832 C 0.62841 0.81481 0.91423 0.0
C833 C 0.62207 0.76795 0.89414 0.0
C834 C 0.60427 0.78743 0.99465 0.0
C835 C 0.61319 0.78142 0.0582 0.0
C836 C 0.59708 0.77969 0.11124 0.0
C837 C 0.57117 0.7843 0.09899 0.0
C838 C 0.56172 0.79073 0.03441 0.0
C839 C 0.57846 0.79204 0.98157 0.0
loop_
_geom_bond_atom_site_label_1
_geom_bond_atom_site_label_2
_geom_bond_distance
_geom_bond_site_symmetry_2
_ccdc_geom_bond_type
Sc0 O3 2.025 . S
Sc0 O10 2.105 . S
Sc0 O13 2.105 . S
Sc0 O16 2.105 . S
Sc0 O19 2.105 . S
Sc1 O3 2.025 . S
Sc1 O11 2.105 . S
Sc1 O15 2.105 1_554 S
Sc1 O17 2.105 . S
Sc1 O21 2.105 1_554 S
Sc2 O3 2.025 1_556 S
Sc2 O12 2.105 . S
Sc2 O14 2.105 . S
Sc2 O18 2.105 . S
Sc2 O20 2.105 . S
O3 Sc0 2.025 . S
O3 Sc1 2.025 . S
O3 Sc2 2.025 1_554 S
C4 O10 1.268 . S
C4 O20 1.268 1_554 S
C5 O11 1.268 . S
C5 O19 1.268 . S
C6 O12 1.268 . S
C6 O21 1.268 . S
C7 O13 1.268 . S
C7 O17 1.268 . S
C8 O14 1.268 1_554 S
C8 O16 1.268 . S
C9 O15 1.268 . S
C9 O18 1.268 . S
O10 Sc0 2.105 . S
O10 C4 1.268 . S
O11 Sc1 2.105 . S
O11 C5 1.268 . S
O12 Sc2 2.105 . S
O12 C6 1.268 . S
O13 Sc0 2.105 . S
O13 C7 1.268 . S
O14 Sc2 2.105 . S
O14 C8 1.268 1_556 S
O15 Sc1 2.105 1_556 S
O15 C9 1.268 . S
O16 Sc0 2.105 . S
O16 C8 1.268 . S
O17 Sc1 2.105 . S
O17 C7 1.268 . S
O18 Sc2 2.105 . S
O18 C9 1.268 . S
O19 Sc0 2.105 . S
O19 C5 1.268 . S
O20 Sc2 2.105 . S
O20 C4 1.268 1_556 S
O21 Sc1 2.105 1_556 S
O21 C6 1.268 . S
Sc22 O25 2.025 . S
Sc22 O32 2.105 . S
Sc22 O35 2.105 . S
Sc22 O38 2.105 . S
Sc22 O41 2.105 . S
Sc23 O25 2.025 . S
Sc23 O33 2.105 . S
Sc23 O37 2.105 . S
Sc23 O39 2.105 . S
Sc23 O43 2.105 . S
Sc24 O25 2.025 . S
Sc24 O34 2.105 . S
Sc24 O36 2.105 . S
Sc24 O40 2.105 . S
Sc24 O42 2.105 . S
O25 Sc22 2.025 . S
O25 Sc23 2.025 . S
O25 Sc24 2.025 . S
C26 O32 1.268 . S
C26 O42 1.268 . S
C27 O33 1.268 . S
C27 O41 1.268 . S
C28 O34 1.268 . S
C28 O43 1.268 . S
C29 O35 1.268 . S
C29 O39 1.268 . S
C30 O36 1.268 . S
C30 O38 1.268 . S
C31 O37 1.268 . S
C31 O40 1.268 . S
O32 Sc22 2.105 . S
O32 C26 1.268 . S
O33 Sc23 2.105 . S
O33 C27 1.268 . S
O34 Sc24 2.105 . S
O34 C28 1.268 . S
O35 Sc22 2.105 . S
O35 C29 1.268 . S
O36 Sc24 2.105 . S
O36 C30 1.268 . S
O37 Sc23 2.105 . S
O37 C31 1.268 . S
O38 Sc22 2.105 . S
O38 C30 1.268 . S
O39 Sc23 2.105 . S
O39 C29 1.268 . S
O40 Sc24 2.105 . S
O40 C31 1.268 . S
O41 Sc22 2.105 . S
O41 C27 1.268 . S
O42 Sc24 2.105 . S
O42 C26 1.268 . S
O43 Sc23 2.105 . S
O43 C28 1.268 . S
Sc44 O47 2.025 1_556 S
Sc44 O54 2.105 . S
Sc44 O57 2.105 . S
Sc44 O60 2.105 . S
Sc44 O63 2.105 . S
Sc45 O47 2.025 . S
Sc45 O55 2.105 1_554 S
Sc45 O59 2.105 . S
Sc45 O61 2.105 1_554 S
Sc45 O65 2.105 . S
Sc46 O47 2.025 . S
Sc46 O56 2.105 . S
Sc46 O58 2.105 . S
Sc46 O62 2.105 . S
Sc46 O64 2.105 . S
O47 Sc44 2.025 1_554 S
O47 Sc45 2.025 . S
O47 Sc46 2.025 . S
C48 O54 1.268 1_554 S
C48 O64 1.268 . S
C49 O55 1.268 . S
C49 O63 1.268 . S
C50 O56 1.268 . S
C50 O65 1.268 . S
C51 O57 1.268 . S
C51 O61 1.268 . S
C52 O58 1.268 . S
C52 O60 1.268 1_554 S
C53 O59 1.268 . S
C53 O62 1.268 . S
O54 Sc44 2.105 . S
O54 C48 1.268 1_556 S
O55 Sc45 2.105 1_556 S
O55 C49 1.268 . S
O56 Sc46 2.105 . S
O56 C50 1.268 . S
O57 Sc44 2.105 . S
O57 C51 1.268 . S
O58 Sc46 2.105 . S
O58 C52 1.268 . S
O59 Sc45 2.105 . S
O59 C53 1.268 . S
O60 Sc44 2.105 . S
O60 C52 1.268 1_556 S
O61 Sc45 2.105 1_556 S
O61 C51 1.268 . S
O62 Sc46 2.105 . S
O62 C53 1.268 . S
O63 Sc44 2.105 . S
O63 C49 1.268 . S
O64 Sc46 2.105 . S
O64 C48 1.268 . S
O65 Sc45 2.105 . S
O65 C50 1.268 . S
Sc66 O69 2.025 . S
Sc66 O76 2.105 . S
Sc66 O79 2.105 . S
Sc66 O82 2.105 . S
Sc66 O85 2.105 . S
Sc67 O69 2.025 . S
Sc67 O77 2.105 . S
Sc67 O81 2.105 . S
Sc67 O83 2.105 . S
Sc67 O87 2.105 . S
Sc68 O69 2.025 . S
Sc68 O78 2.105 . S
Sc68 O80 2.105 . S
Sc68 O84 2.105 . S
Sc68 O86 2.105 . S
O69 Sc66 2.025 . S
O69 Sc67 2.025 . S
O69 Sc68 2.025 . S
C70 O76 1.268 . S
C70 O86 1.268 . S
C71 O77 1.268 . S
C71 O85 1.268 . S
C72 O78 1.268 . S
C72 O87 1.268 . S
C73 O79 1.268 . S
C73 O83 1.268 . S
C74 O80 1.268 . S
C74 O82 1.268 . S
C75 O81 1.268 . S
C75 O84 1.268 . S
O76 Sc66 2.105 . S
O76 C70 1.268 . S
O77 Sc67 2.105 . S
O77 C71 1.268 . S
O78 Sc68 2.105 . S
O78 C72 1.268 . S
O79 Sc66 2.105 . S
O79 C73 1.268 . S
O80 Sc68 2.105 . S
O80 C74 1.268 . S
O81 Sc67 2.105 . S
O81 C75 1.268 . S
O82 Sc66 2.105 . S
O82 C74 1.268 . S
O83 Sc67 2.105 . S
O83 C73 1.268 . S
O84 Sc68 2.105 . S
O84 C75 1.268 . S
O85 Sc66 2.105 . S
O85 C71 1.268 . S
O86 Sc68 2.105 . S
O86 C70 1.268 . S
O87 Sc67 2.105 . S
O87 C72 1.268 . S
H88 C95 0.929 . S
H89 C98 0.930 . S
H90 C100 0.929 . S
H91 C92 0.969 . S
C92 H91 0.969 . S
C92 O93 1.550 1_556 S
C92 H94 0.973 . S
O93 C92 1.550 1_554 S
O93 C99 1.412 . S
H94 C92 0.973 . S
C95 H88 0.929 . S
C95 C96 1.400 . S
C95 C97 1.364 1_554 S
C96 C95 1.400 . S
C96 C100 1.377 . S
C97 C95 1.364 1_556 S
C97 C98 1.374 . S
C98 H89 0.930 . S
C98 C97 1.374 . S
C98 C99 1.383 1_556 S
C99 O93 1.412 . S
C99 C98 1.383 1_554 S
C99 C100 1.394 . S
C100 H90 0.929 . S
C100 C96 1.377 . S
C100 C99 1.394 . S
H101 C108 0.929 . S
H102 C111 0.930 . S
H103 C113 0.929 . S
H104 C105 0.969 . S
C105 H104 0.969 . S
C105 O106 1.550 . S
C105 H107 0.973 . S
O106 C105 1.550 . S
O106 C112 1.412 1_455 S
H107 C105 0.973 . S
C108 H101 0.929 . S
C108 C109 1.400 . S
C108 C110 1.364 . S
C109 C108 1.400 . S
C109 C113 1.377 . S
C110 C108 1.364 . S
C110 C111 1.374 . S
C111 H102 0.930 . S
C111 C110 1.374 . S
C111 C112 1.383 . S
C112 O106 1.412 1_655 S
C112 C111 1.383 . S
C112 C113 1.394 . S
C113 H103 0.929 . S
C113 C109 1.377 . S
C113 C112 1.394 . S
H114 C121 0.929 . S
H115 C124 0.930 . S
H116 C126 0.929 . S
H117 C118 0.969 . S
C118 H117 0.969 . S
C118 O119 1.550 1_554 S
C118 H120 0.973 . S
O119 C118 1.550 1_556 S
O119 C125 1.412 . S
H120 C118 0.973 . S
C121 H114 0.929 . S
C121 C122 1.398 1_554 S
C121 C123 1.365 . S
C122 C121 1.398 1_556 S
C122 C126 1.377 . S
C123 C121 1.365 . S
C123 C124 1.374 . S
C124 H115 0.930 . S
C124 C123 1.374 . S
C124 C125 1.383 1_554 S
C125 O119 1.412 . S
C125 C124 1.383 1_556 S
C125 C126 1.394 . S
C126 H116 0.929 . S
C126 C122 1.377 . S
C126 C125 1.394 . S
H127 C134 0.929 . S
H128 C137 0.930 . S
H129 C139 0.929 . S
H130 C131 0.969 . S
C131 H130 0.969 . S
C131 O132 1.550 . S
C131 H133 0.973 . S
O132 C131 1.550 . S
O132 C138 1.412 1_655 S
H133 C131 0.973 . S
C134 H127 0.929 . S
C134 C135 1.400 . S
C134 C136 1.364 . S
C135 C134 1.400 . S
C135 C139 1.377 . S
C136 C134 1.364 . S
C136 C137 1.374 . S
C137 H128 0.930 . S
C137 C136 1.374 . S
C137 C138 1.383 . S
C138 O132 1.412 1_455 S
C138 C137 1.383 . S
C138 C139 1.394 . S
C139 H129 0.929 . S
C139 C135 1.377 . S
C139 C138 1.394 . S
H140 C147 0.929 . S
H141 C150 0.930 . S
H142 C152 0.929 . S
H143 C144 0.969 . S
C144 H143 0.969 . S
C144 O145 1.550 . S
C144 H146 0.973 . S
O145 C144 1.550 . S
O145 C151 1.412 1_545 S
H146 C144 0.973 . S
C147 H140 0.929 . S
C147 C148 1.400 . S
C147 C149 1.364 . S
C148 C147 1.400 . S
C148 C152 1.377 . S
C149 C147 1.364 . S
C149 C150 1.374 . S
C150 H141 0.930 . S
C150 C149 1.374 . S
C150 C151 1.383 . S
C151 O145 1.412 1_565 S
C151 C150 1.383 . S
C151 C152 1.394 . S
C152 H142 0.929 . S
C152 C148 1.377 . S
C152 C151 1.394 . S
H153 C160 0.929 . S
H154 C163 0.930 . S
H155 C165 0.929 . S
H156 C157 0.969 . S
C157 H156 0.969 . S
C157 O158 1.550 1_554 S
C157 H159 0.973 . S
O158 C157 1.550 1_556 S
O158 C164 1.412 . S
H159 C157 0.973 . S
C160 H153 0.929 . S
C160 C161 1.398 1_554 S
C160 C162 1.365 . S
C161 C160 1.398 1_556 S
C161 C165 1.377 . S
C162 C160 1.365 . S
C162 C163 1.374 . S
C163 H154 0.930 . S
C163 C162 1.374 . S
C163 C164 1.383 1_554 S
C164 O158 1.412 . S
C164 C163 1.383 1_556 S
C164 C165 1.394 . S
C165 H155 0.929 . S
C165 C161 1.377 . S
C165 C164 1.394 . S
H166 C173 0.929 . S
H167 C176 0.930 . S
H168 C178 0.929 . S
H169 C170 0.969 . S
C170 H169 0.969 . S
C170 O171 1.550 . S
C170 H172 0.973 . S
O171 C170 1.550 . S
O171 C177 1.412 1_565 S
H172 C170 0.973 . S
C173 H166 0.929 . S
C173 C174 1.400 . S
C173 C175 1.364 . S
C174 C173 1.400 . S
C174 C178 1.377 . S
C175 C173 1.364 . S
C175 C176 1.374 . S
C176 H167 0.930 . S
C176 C175 1.374 . S
C176 C177 1.383 . S
C177 O171 1.412 1_545 S
C177 C176 1.383 . S
C177 C178 1.394 . S
C178 H168 0.929 . S
C178 C174 1.377 . S
C178 C177 1.394 . S
H179 C186 0.929 . S
H180 C189 0.930 . S
H181 C191 0.929 . S
H182 C183 0.969 . S
C183 H182 0.969 . S
C183 O184 1.550 1_556 S
C183 H185 0.973 . S
O184 C183 1.550 1_554 S
O184 C190 1.412 . S
H185 C183 0.973 . S
C186 H179 0.929 . S
C186 C187 1.400 . S
C186 C188 1.364 1_554 S
C187 C186 1.400 . S
C187 C191 1.377 . S
C188 C186 1.364 1_556 S
C188 C189 1.374 . S
C189 H180 0.930 . S
C189 C188 1.374 . S
C189 C190 1.383 1_556 S
C190 O184 1.412 . S
C190 C189 1.383 1_554 S
C190 C191 1.394 . S
C191 H181 0.929 . S
C191 C187 1.377 . S
C191 C190 1.394 . S
H192 C204 0.930 . S
H193 C206 0.930 . S
H194 C207 0.930 . S
H195 C211 0.959 . S
H196 C211 0.959 . S
H197 C211 0.961 . S
H198 C212 0.960 . S
H199 C212 0.961 . S
H200 C212 0.959 . S
H201 C215 0.929 . S
H202 C216 0.931 . S
H203 C218 0.930 . S
C204 H192 0.930 . S
C204 C205 1.399 . S
C204 C209 1.399 . S
C205 C204 1.399 . S
C205 C206 1.376 . S
C206 H193 0.930 . S
C206 C205 1.376 . S
C206 C207 1.388 . S
C207 H194 0.930 . S
C207 C206 1.388 . S
C207 C208 1.390 . S
C208 C207 1.390 . S
C208 C209 1.394 . S
C208 C214 1.465 . S
C209 C204 1.399 . S
C209 C208 1.394 . S
C209 C210 1.516 . S
C210 C209 1.516 . S
C210 C211 1.502 . S
C210 C212 1.561 . S
C210 C213 1.526 . S
C211 H195 0.959 . S
C211 H196 0.959 . S
C211 H197 0.961 . S
C211 C210 1.502 . S
C212 H198 0.960 . S
C212 H199 0.961 . S
C212 H200 0.959 . S
C212 C210 1.561 . S
C213 C210 1.526 . S
C213 C214 1.396 . S
C213 C218 1.390 . S
C214 C208 1.465 . S
C214 C213 1.396 . S
C214 C215 1.399 . S
C215 H201 0.929 . S
C215 C214 1.399 . S
C215 C216 1.385 . S
C216 H202 0.931 . S
C216 C215 1.385 . S
C216 C217 1.389 . S
C217 C216 1.389 . S
C217 C218 1.387 . S
C218 H203 0.930 . S
C218 C213 1.390 . S
C218 C217 1.387 . S
H219 C231 0.930 . S
H220 C233 0.930 . S
H221 C234 0.930 . S
H222 C238 0.959 . S
H223 C238 0.959 . S
H224 C238 0.961 . S
H225 C239 0.960 . S
H226 C239 0.961 . S
H227 C239 0.959 . S
H228 C242 0.929 . S
H229 C243 0.931 . S
H230 C245 0.930 . S
C231 H219 0.930 . S
C231 C232 1.399 . S
C231 C236 1.399 . S
C232 C231 1.399 . S
C232 C233 1.376 . S
C233 H220 0.930 . S
C233 C232 1.376 . S
C233 C234 1.388 . S
C234 H221 0.930 . S
C234 C233 1.388 . S
C234 C235 1.390 . S
C235 C234 1.390 . S
C235 C236 1.394 . S
C235 C241 1.465 . S
C236 C231 1.399 . S
C236 C235 1.394 . S
C236 C237 1.516 . S
C237 C236 1.516 . S
C237 C238 1.502 . S
C237 C239 1.561 . S
C237 C240 1.526 . S
C238 H222 0.959 . S
C238 H223 0.959 . S
C238 H224 0.961 . S
C238 C237 1.502 . S
C239 H225 0.960 . S
C239 H226 0.961 . S
C239 H227 0.959 . S
C239 C237 1.561 . S
C240 C237 1.526 . S
C240 C241 1.396 . S
C240 C245 1.390 . S
C241 C235 1.465 . S
C241 C240 1.396 . S
C241 C242 1.399 . S
C242 H228 0.929 . S
C242 C241 1.399 . S
C242 C243 1.385 . S
C243 H229 0.931 . S
C243 C242 1.385 . S
C243 C244 1.389 . S
C244 C243 1.389 . S
C244 C245 1.387 . S
C245 H230 0.930 . S
C245 C240 1.390 . S
C245 C244 1.387 . S
H246 C258 0.930 . S
H247 C260 0.930 . S
H248 C261 0.930 . S
H249 C265 0.959 . S
H250 C265 0.959 . S
H251 C265 0.961 . S
H252 C266 0.960 . S
H253 C266 0.961 . S
H254 C266 0.959 . S
H255 C269 0.929 . S
H256 C270 0.931 . S
H257 C272 0.930 . S
C258 H246 0.930 . S
C258 C259 1.399 . S
C258 C263 1.399 . S
C259 C258 1.399 . S
C259 C260 1.376 . S
C260 H247 0.930 . S
C260 C259 1.376 . S
C260 C261 1.388 . S
C261 H248 0.930 . S
C261 C260 1.388 . S
C261 C262 1.390 . S
C262 C261 1.390 . S
C262 C263 1.394 . S
C262 C268 1.465 . S
C263 C258 1.399 . S
C263 C262 1.394 . S
C263 C264 1.516 . S
C264 C263 1.516 . S
C264 C265 1.502 . S
C264 C266 1.561 . S
C264 C267 1.526 . S
C265 H249 0.959 . S
C265 H250 0.959 . S
C265 H251 0.961 . S
C265 C264 1.502 . S
C266 H252 0.960 . S
C266 H253 0.961 . S
C266 H254 0.959 . S
C266 C264 1.561 . S
C267 C264 1.526 . S
C267 C268 1.396 . S
C267 C272 1.390 . S
C268 C262 1.465 . S
C268 C267 1.396 . S
C268 C269 1.399 . S
C269 H255 0.929 . S
C269 C268 1.399 . S
C269 C270 1.385 . S
C270 H256 0.931 . S
C270 C269 1.385 . S
C270 C271 1.389 . S
C271 C270 1.389 . S
C271 C272 1.387 . S
C272 H257 0.930 . S
C272 C267 1.390 . S
C272 C271 1.387 . S
H273 C285 0.930 . S
H274 C287 0.930 . S
H275 C288 0.930 . S
H276 C292 0.959 . S
H277 C292 0.959 . S
H278 C292 0.961 . S
H279 C293 0.960 . S
H280 C293 0.961 . S
H281 C293 0.959 . S
H282 C296 0.929 . S
H283 C297 0.931 . S
H284 C299 0.930 . S
C285 H273 0.930 . S
C285 C286 1.399 . S
C285 C290 1.399 . S
C286 C285 1.399 . S
C286 C287 1.376 . S
C287 H274 0.930 . S
C287 C286 1.376 . S
C287 C288 1.388 . S
C288 H275 0.930 . S
C288 C287 1.388 . S
C288 C289 1.390 . S
C289 C288 1.390 . S
C289 C290 1.394 . S
C289 C295 1.465 . S
C290 C285 1.399 . S
C290 C289 1.394 . S
C290 C291 1.516 . S
C291 C290 1.516 . S
C291 C292 1.502 . S
C291 C293 1.561 . S
C291 C294 1.526 . S
C292 H276 0.959 . S
C292 H277 0.959 . S
C292 H278 0.961 . S
C292 C291 1.502 . S
C293 H279 0.960 . S
C293 H280 0.961 . S
C293 H281 0.959 . S
C293 C291 1.561 . S
C294 C291 1.526 . S
C294 C295 1.396 . S
C294 C299 1.390 . S
C295 C289 1.465 . S
C295 C294 1.396 . S
C295 C296 1.399 . S
C296 H282 0.929 . S
C296 C295 1.399 . S
C296 C297 1.385 . S
C297 H283 0.931 . S
C297 C296 1.385 . S
C297 C298 1.389 . S
C298 C297 1.389 . S
C298 C299 1.387 . S
C299 H284 0.930 . S
C299 C294 1.390 . S
C299 C298 1.387 . S
H300 C312 0.930 . S
H301 C314 0.930 . S
H302 C315 0.930 . S
H303 C319 0.959 . S
H304 C319 0.959 . S
H305 C319 0.961 . S
H306 C320 0.960 . S
H307 C320 0.961 . S
H308 C320 0.959 . S
H309 C323 0.929 . S
H310 C324 0.931 . S
H311 C326 0.930 . S
C312 H300 0.930 . S
C312 C313 1.399 . S
C312 C317 1.399 . S
C313 C312 1.399 . S
C313 C314 1.376 . S
C314 H301 0.930 . S
C314 C313 1.376 . S
C314 C315 1.388 . S
C315 H302 0.930 . S
C315 C314 1.388 . S
C315 C316 1.390 . S
C316 C315 1.390 . S
C316 C317 1.394 . S
C316 C322 1.465 . S
C317 C312 1.399 . S
C317 C316 1.394 . S
C317 C318 1.516 . S
C318 C317 1.516 . S
C318 C319 1.502 . S
C318 C320 1.561 . S
C318 C321 1.526 . S
C319 H303 0.959 . S
C319 H304 0.959 . S
C319 H305 0.961 . S
C319 C318 1.502 . S
C320 H306 0.960 . S
C320 H307 0.961 . S
C320 H308 0.959 . S
C320 C318 1.561 . S
C321 C318 1.526 . S
C321 C322 1.396 . S
C321 C326 1.390 . S
C322 C316 1.465 . S
C322 C321 1.396 . S
C322 C323 1.399 . S
C323 H309 0.929 . S
C323 C322 1.399 . S
C323 C324 1.385 . S
C324 H310 0.931 . S
C324 C323 1.385 . S
C324 C325 1.389 . S
C325 C324 1.389 . S
C325 C326 1.387 . S
C326 H311 0.930 . S
C326 C321 1.390 . S
C326 C325 1.387 . S
H327 C339 0.930 . S
H328 C341 0.930 . S
H329 C342 0.930 . S
H330 C346 0.959 . S
H331 C346 0.959 . S
H332 C346 0.961 . S
H333 C347 0.960 . S
H334 C347 0.961 . S
H335 C347 0.959 . S
H336 C350 0.929 . S
H337 C351 0.931 . S
H338 C353 0.930 . S
C339 H327 0.930 . S
C339 C340 1.399 . S
C339 C344 1.399 . S
C340 C339 1.399 . S
C340 C341 1.376 . S
C341 H328 0.930 . S
C341 C340 1.376 . S
C341 C342 1.388 . S
C342 H329 0.930 . S
C342 C341 1.388 . S
C342 C343 1.390 . S
C343 C342 1.390 . S
C343 C344 1.394 . S
C343 C349 1.465 . S
C344 C339 1.399 . S
C344 C343 1.394 . S
C344 C345 1.516 . S
C345 C344 1.516 . S
C345 C346 1.502 . S
C345 C347 1.561 . S
C345 C348 1.526 . S
C346 H330 0.959 . S
C346 H331 0.959 . S
C346 H332 0.961 . S
C346 C345 1.502 . S
C347 H333 0.960 . S
C347 H334 0.961 . S
C347 H335 0.959 . S
C347 C345 1.561 . S
C348 C345 1.526 . S
C348 C349 1.396 . S
C348 C353 1.390 . S
C349 C343 1.465 . S
C349 C348 1.396 . S
C349 C350 1.399 . S
C350 H336 0.929 . S
C350 C349 1.399 . S
C350 C351 1.385 . S
C351 H337 0.931 . S
C351 C350 1.385 . S
C351 C352 1.389 . S
C352 C351 1.389 . S
C352 C353 1.387 . S
C353 H338 0.930 . S
C353 C348 1.390 . S
C353 C352 1.387 . S
H354 C366 0.930 . S
H355 C368 0.930 . S
H356 C369 0.930 . S
H357 C373 0.959 . S
H358 C373 0.959 . S
H359 C373 0.961 . S
H360 C374 0.960 . S
H361 C374 0.961 . S
H362 C374 0.959 . S
H363 C377 0.929 . S
H364 C378 0.931 . S
H365 C380 0.930 . S
C366 H354 0.930 . S
C366 C367 1.399 . S
C366 C371 1.399 . S
C367 C366 1.399 . S
C367 C368 1.376 . S
C368 H355 0.930 . S
C368 C367 1.376 . S
C368 C369 1.388 . S
C369 H356 0.930 . S
C369 C368 1.388 . S
C369 C370 1.390 . S
C370 C369 1.390 . S
C370 C371 1.394 . S
C370 C376 1.465 . S
C371 C366 1.399 . S
C371 C370 1.394 . S
C371 C372 1.516 . S
C372 C371 1.516 . S
C372 C373 1.502 . S
C372 C374 1.561 . S
C372 C375 1.526 . S
C373 H357 0.959 . S
C373 H358 0.959 . S
C373 H359 0.961 . S
C373 C372 1.502 . S
C374 H360 0.960 . S
C374 H361 0.961 . S
C374 H362 0.959 . S
C374 C372 1.561 . S
C375 C372 1.526 . S
C375 C376 1.396 . S
C375 C380 1.390 . S
C376 C370 1.465 . S
C376 C375 1.396 . S
C376 C377 1.399 . S
C377 H363 0.929 . S
C377 C376 1.399 . S
C377 C378 1.385 . S
C378 H364 0.931 . S
C378 C377 1.385 . S
C378 C379 1.389 . S
C379 C378 1.389 . S
C379 C380 1.387 . S
C380 H365 0.930 . S
C380 C375 1.390 . S
C380 C379 1.387 . S
H381 C393 0.930 . S
H382 C395 0.930 . S
H383 C396 0.930 . S
H384 C400 0.959 . S
H385 C400 0.959 . S
H386 C400 0.961 . S
H387 C401 0.960 . S
H388 C401 0.961 . S
H389 C401 0.959 . S
H390 C404 0.929 . S
H391 C405 0.931 . S
H392 C407 0.930 . S
C393 H381 0.930 . S
C393 C394 1.399 . S
C393 C398 1.399 . S
C394 C393 1.399 . S
C394 C395 1.376 . S
C395 H382 0.930 . S
C395 C394 1.376 . S
C395 C396 1.388 . S
C396 H383 0.930 . S
C396 C395 1.388 . S
C396 C397 1.390 . S
C397 C396 1.390 . S
C397 C398 1.394 . S
C397 C403 1.465 . S
C398 C393 1.399 . S
C398 C397 1.394 . S
C398 C399 1.516 . S
C399 C398 1.516 . S
C399 C400 1.502 . S
C399 C401 1.561 . S
C399 C402 1.526 . S
C400 H384 0.959 . S
C400 H385 0.959 . S
C400 H386 0.961 . S
C400 C399 1.502 . S
C401 H387 0.960 . S
C401 H388 0.961 . S
C401 H389 0.959 . S
C401 C399 1.561 . S
C402 C399 1.526 . S
C402 C403 1.396 . S
C402 C407 1.390 . S
C403 C397 1.465 . S
C403 C402 1.396 . S
C403 C404 1.399 . S
C404 H390 0.929 . S
C404 C403 1.399 . S
C404 C405 1.385 . S
C405 H391 0.931 . S
C405 C404 1.385 . S
C405 C406 1.389 . S
C406 C405 1.389 . S
C406 C407 1.387 . S
C407 H392 0.930 . S
C407 C402 1.390 . S
C407 C406 1.387 . S
H408 C420 0.930 . S
H409 C422 0.930 . S
H410 C423 0.930 . S
H411 C427 0.959 . S
H412 C427 0.959 . S
H413 C427 0.961 . S
H414 C428 0.960 . S
H415 C428 0.961 . S
H416 C428 0.959 . S
H417 C431 0.929 . S
H418 C432 0.931 . S
H419 C434 0.930 . S
C420 H408 0.930 . S
C420 C421 1.399 . S
C420 C425 1.399 . S
C421 C420 1.399 . S
C421 C422 1.376 . S
C422 H409 0.930 . S
C422 C421 1.376 . S
C422 C423 1.388 . S
C423 H410 0.930 . S
C423 C422 1.388 . S
C423 C424 1.390 . S
C424 C423 1.390 . S
C424 C425 1.394 . S
C424 C430 1.465 . S
C425 C420 1.399 . S
C425 C424 1.394 . S
C425 C426 1.516 . S
C426 C425 1.516 . S
C426 C427 1.502 . S
C426 C428 1.561 . S
C426 C429 1.526 . S
C427 H411 0.959 . S
C427 H412 0.959 . S
C427 H413 0.961 . S
C427 C426 1.502 . S
C428 H414 0.960 . S
C428 H415 0.961 . S
C428 H416 0.959 . S
C428 C426 1.561 . S
C429 C426 1.526 . S
C429 C430 1.396 . S
C429 C434 1.390 . S
C430 C424 1.465 . S
C430 C429 1.396 . S
C430 C431 1.399 . S
C431 H417 0.929 . S
C431 C430 1.399 . S
C431 C432 1.385 . S
C432 H418 0.931 . S
C432 C431 1.385 . S
C432 C433 1.389 . S
C433 C432 1.389 . S
C433 C434 1.387 . S
C434 H419 0.930 . S
C434 C429 1.390 . S
C434 C433 1.387 . S
H435 C447 0.930 . S
H436 C449 0.930 . S
H437 C450 0.930 . S
H438 C454 0.959 . S
H439 C454 0.959 . S
H440 C454 0.961 . S
H441 C455 0.960 . S
H442 C455 0.961 . S
H443 C455 0.959 . S
H444 C458 0.929 . S
H445 C459 0.931 . S
H446 C461 0.930 . S
C447 H435 0.930 . S
C447 C448 1.399 . S
C447 C452 1.399 . S
C448 C447 1.399 . S
C448 C449 1.376 . S
C449 H436 0.930 . S
C449 C448 1.376 . S
C449 C450 1.388 . S
C450 H437 0.930 . S
C450 C449 1.388 . S
C450 C451 1.390 . S
C451 C450 1.390 . S
C451 C452 1.394 . S
C451 C457 1.465 . S
C452 C447 1.399 . S
C452 C451 1.394 . S
C452 C453 1.516 . S
C453 C452 1.516 . S
C453 C454 1.502 . S
C453 C455 1.561 . S
C453 C456 1.526 . S
C454 H438 0.959 . S
C454 H439 0.959 . S
C454 H440 0.961 . S
C454 C453 1.502 . S
C455 H441 0.960 . S
C455 H442 0.961 . S
C455 H443 0.959 . S
C455 C453 1.561 . S
C456 C453 1.526 . S
C456 C457 1.396 . S
C456 C461 1.390 . S
C457 C451 1.465 . S
C457 C456 1.396 . S
C457 C458 1.399 . S
C458 H444 0.929 . S
C458 C457 1.399 . S
C458 C459 1.385 . S
C459 H445 0.931 . S
C459 C458 1.385 . S
C459 C460 1.389 . S
C460 C459 1.389 . S
C460 C461 1.387 . S
C461 H446 0.930 . S
C461 C456 1.390 . S
C461 C460 1.387 . S
H462 C474 0.930 . S
H463 C476 0.930 . S
H464 C477 0.930 . S
H465 C481 0.959 . S
H466 C481 0.959 . S
H467 C481 0.961 . S
H468 C482 0.960 . S
H469 C482 0.961 . S
H470 C482 0.959 . S
H471 C485 0.929 . S
H472 C486 0.931 . S
H473 C488 0.930 . S
C474 H462 0.930 . S
C474 C475 1.399 . S
C474 C479 1.399 . S
C475 C474 1.399 . S
C475 C476 1.376 . S
C476 H463 0.930 . S
C476 C475 1.376 . S
C476 C477 1.388 . S
C477 H464 0.930 . S
C477 C476 1.388 . S
C477 C478 1.390 . S
C478 C477 1.390 . S
C478 C479 1.394 . S
C478 C484 1.465 . S
C479 C474 1.399 . S
C479 C478 1.394 . S
C479 C480 1.516 . S
C480 C479 1.516 . S
C480 C481 1.502 . S
C480 C482 1.561 . S
C480 C483 1.526 . S
C481 H465 0.959 . S
C481 H466 0.959 . S
C481 H467 0.961 . S
C481 C480 1.502 . S
C482 H468 0.960 . S
C482 H469 0.961 . S
C482 H470 0.959 . S
C482 C480 1.561 . S
C483 C480 1.526 . S
C483 C484 1.396 . S
C483 C488 1.390 . S
C484 C478 1.465 . S
C484 C483 1.396 . S
C484 C485 1.399 . S
C485 H471 0.929 . S
C485 C484 1.399 . S
C485 C486 1.385 . S
C486 H472 0.931 . S
C486 C485 1.385 . S
C486 C487 1.389 . S
C487 C486 1.389 . S
C487 C488 1.387 . S
C488 H473 0.930 . S
C488 C483 1.390 . S
C488 C487 1.387 . S
H489 C501 0.930 . S
H490 C503 0.930 . S
H491 C504 0.930 . S
H492 C508 0.959 . S
H493 C508 0.959 . S
H494 C508 0.961 . S
H495 C509 0.960 . S
H496 C509 0.961 . S
H497 C509 0.959 . S
H498 C512 0.929 . S
H499 C513 0.931 . S
H500 C515 0.930 . S
C501 H489 0.930 . S
C501 C502 1.399 . S
C501 C506 1.399 . S
C502 C501 1.399 . S
C502 C503 1.376 . S
C503 H490 0.930 . S
C503 C502 1.376 . S
C503 C504 1.388 . S
C504 H491 0.930 . S
C504 C503 1.388 . S
C504 C505 1.390 . S
C505 C504 1.390 . S
C505 C506 1.394 . S
C505 C511 1.465 . S
C506 C501 1.399 . S
C506 C505 1.394 . S
C506 C507 1.516 . S
C507 C506 1.516 . S
C507 C508 1.502 . S
C507 C509 1.561 . S
C507 C510 1.526 . S
C508 H492 0.959 . S
C508 H493 0.959 . S
C508 H494 0.961 . S
C508 C507 1.502 . S
C509 H495 0.960 . S
C509 H496 0.961 . S
C509 H497 0.959 . S
C509 C507 1.561 . S
C510 C507 1.526 . S
C510 C511 1.396 . S
C510 C515 1.390 . S
C511 C505 1.465 . S
C511 C510 1.396 . S
C511 C512 1.399 . S
C512 H498 0.929 . S
C512 C511 1.399 . S
C512 C513 1.385 . S
C513 H499 0.931 . S
C513 C512 1.385 . S
C513 C514 1.389 . S
C514 C513 1.389 . S
C514 C515 1.387 . S
C515 H500 0.930 . S
C515 C510 1.390 . S
C515 C514 1.387 . S
H516 C528 0.930 . S
H517 C530 0.930 . S
H518 C531 0.930 . S
H519 C535 0.959 . S
H520 C535 0.959 . S
H521 C535 0.961 . S
H522 C536 0.960 . S
H523 C536 0.961 . S
H524 C536 0.959 . S
H525 C539 0.929 . S
H526 C540 0.931 . S
H527 C542 0.930 . S
C528 H516 0.930 . S
C528 C529 1.399 . S
C528 C533 1.399 . S
C529 C528 1.399 . S
C529 C530 1.376 . S
C530 H517 0.930 . S
C530 C529 1.376 . S
C530 C531 1.388 . S
C531 H518 0.930 . S
C531 C530 1.388 . S
C531 C532 1.390 . S
C532 C531 1.390 . S
C532 C533 1.394 . S
C532 C538 1.465 . S
C533 C528 1.399 . S
C533 C532 1.394 . S
C533 C534 1.516 . S
C534 C533 1.516 . S
C534 C535 1.502 . S
C534 C536 1.561 . S
C534 C537 1.526 . S
C535 H519 0.959 . S
C535 H520 0.959 . S
C535 H521 0.961 . S
C535 C534 1.502 . S
C536 H522 0.960 . S
C536 H523 0.961 . S
C536 H524 0.959 . S
C536 C534 1.561 . S
C537 C534 1.526 . S
C537 C538 1.396 . S
C537 C542 1.390 . S
C538 C532 1.465 . S
C538 C537 1.396 . S
C538 C539 1.399 . S
C539 H525 0.929 . S
C539 C538 1.399 . S
C539 C540 1.385 . S
C540 H526 0.931 . S
C540 C539 1.385 . S
C540 C541 1.389 . S
C541 C540 1.389 . S
C541 C542 1.387 . S
C542 H527 0.930 . S
C542 C537 1.390 . S
C542 C541 1.387 . S
H543 C555 0.930 . S
H544 C557 0.930 . S
H545 C558 0.930 . S
H546 C562 0.959 . S
H547 C562 0.959 . S
H548 C562 0.961 . S
H549 C563 0.960 . S
H550 C563 0.961 . S
H551 C563 0.959 . S
H552 C566 0.929 . S
H553 C567 0.931 . S
H554 C569 0.930 . S
C555 H543 0.930 . S
C555 C556 1.399 . S
C555 C560 1.399 . S
C556 C555 1.399 . S
C556 C557 1.376 . S
C557 H544 0.930 . S
C557 C556 1.376 . S
C557 C558 1.388 . S
C558 H545 0.930 . S
C558 C557 1.388 . S
C558 C559 1.390 . S
C559 C558 1.390 . S
C559 C560 1.394 . S
C559 C565 1.465 . S
C560 C555 1.399 . S
C560 C559 1.394 . S
C560 C561 1.516 . S
C561 C560 1.516 . S
C561 C562 1.502 . S
C561 C563 1.561 . S
C561 C564 1.526 . S
C562 H546 0.959 . S
C562 H547 0.959 . S
C562 H548 0.961 . S
C562 C561 1.502 . S
C563 H549 0.960 . S
C563 H550 0.961 . S
C563 H551 0.959 . S
C563 C561 1.561 . S
C564 C561 1.526 . S
C564 C565 1.396 . S
C564 C569 1.390 . S
C565 C559 1.465 . S
C565 C564 1.396 . S
C565 C566 1.399 . S
C566 H552 0.929 . S
C566 C565 1.399 . S
C566 C567 1.385 . S
C567 H553 0.931 . S
C567 C566 1.385 . S
C567 C568 1.389 . S
C568 C567 1.389 . S
C568 C569 1.387 . S
C569 H554 0.930 . S
C569 C564 1.390 . S
C569 C568 1.387 . S
H570 C582 0.930 . S
H571 C584 0.930 . S
H572 C585 0.930 . S
H573 C589 0.959 . S
H574 C589 0.959 . S
H575 C589 0.961 . S
H576 C590 0.960 . S
H577 C590 0.961 . S
H578 C590 0.959 . S
H579 C593 0.929 . S
H580 C594 0.931 . S
H581 C596 0.930 . S
C582 H570 0.930 . S
C582 C583 1.399 . S
C582 C587 1.399 . S
C583 C582 1.399 . S
C583 C584 1.376 . S
C584 H571 0.930 . S
C584 C583 1.376 . S
C584 C585 1.388 . S
C585 H572 0.930 . S
C585 C584 1.388 . S
C585 C586 1.390 . S
C586 C585 1.390 . S
C586 C587 1.394 . S
C586 C592 1.465 . S
C587 C582 1.399 . S
C587 C586 1.394 . S
C587 C588 1.516 . S
C588 C587 1.516 . S
C588 C589 1.502 . S
C588 C590 1.561 . S
C588 C591 1.526 . S
C589 H573 0.959 . S
C589 H574 0.959 . S
C589 H575 0.961 . S
C589 C588 1.502 . S
C590 H576 0.960 . S
C590 H577 0.961 . S
C590 H578 0.959 . S
C590 C588 1.561 . S
C591 C588 1.526 . S
C591 C592 1.396 . S
C591 C596 1.390 . S
C592 C586 1.465 . S
C592 C591 1.396 . S
C592 C593 1.399 . S
C593 H579 0.929 . S
C593 C592 1.399 . S
C593 C594 1.385 . S
C594 H580 0.931 . S
C594 C593 1.385 . S
C594 C595 1.389 . S
C595 C594 1.389 . S
C595 C596 1.387 . S
C596 H581 0.930 . S
C596 C591 1.390 . S
C596 C595 1.387 . S
H597 C609 0.930 . S
H598 C611 0.930 . S
H599 C612 0.930 . S
H600 C616 0.959 . S
H601 C616 0.959 . S
H602 C616 0.961 . S
H603 C617 0.960 . S
H604 C617 0.961 . S
H605 C617 0.959 . S
H606 C620 0.929 . S
H607 C621 0.931 . S
H608 C623 0.930 . S
C609 H597 0.930 . S
C609 C610 1.399 . S
C609 C614 1.399 . S
C610 C609 1.399 . S
C610 C611 1.376 . S
C611 H598 0.930 . S
C611 C610 1.376 . S
C611 C612 1.388 . S
C612 H599 0.930 . S
C612 C611 1.388 . S
C612 C613 1.390 . S
C613 C612 1.390 . S
C613 C614 1.394 . S
C613 C619 1.465 . S
C614 C609 1.399 . S
C614 C613 1.394 . S
C614 C615 1.516 . S
C615 C614 1.516 . S
C615 C616 1.502 . S
C615 C617 1.561 . S
C615 C618 1.526 . S
C616 H600 0.959 . S
C616 H601 0.959 . S
C616 H602 0.961 . S
C616 C615 1.502 . S
C617 H603 0.960 . S
C617 H604 0.961 . S
C617 H605 0.959 . S
C617 C615 1.561 . S
C618 C615 1.526 . S
C618 C619 1.396 . S
C618 C623 1.390 . S
C619 C613 1.465 . S
C619 C618 1.396 . S
C619 C620 1.399 . S
C620 H606 0.929 . S
C620 C619 1.399 . S
C620 C621 1.385 . S
C621 H607 0.931 . S
C621 C620 1.385 . S
C621 C622 1.389 . S
C622 C621 1.389 . S
C622 C623 1.387 . S
C623 H608 0.930 . S
C623 C618 1.390 . S
C623 C622 1.387 . S
H624 C636 0.930 . S
H625 C638 0.930 . S
H626 C639 0.930 . S
H627 C643 0.959 . S
H628 C643 0.959 . S
H629 C643 0.961 . S
H630 C644 0.960 . S
H631 C644 0.961 . S
H632 C644 0.959 . S
H633 C647 0.929 . S
H634 C648 0.931 . S
H635 C650 0.930 . S
C636 H624 0.930 . S
C636 C637 1.399 1_554 S
C636 C641 1.399 . S
C637 C636 1.399 1_556 S
C637 C638 1.377 . S
C638 H625 0.930 . S
C638 C637 1.377 . S
C638 C639 1.388 . S
C639 H626 0.930 . S
C639 C638 1.388 . S
C639 C640 1.390 . S
C640 C639 1.390 . S
C640 C641 1.394 1_556 S
C640 C646 1.465 . S
C641 C636 1.399 . S
C641 C640 1.394 1_554 S
C641 C642 1.516 . S
C642 C641 1.516 . S
C642 C643 1.502 . S
C642 C644 1.561 . S
C642 C645 1.526 . S
C643 H627 0.959 . S
C643 H628 0.959 . S
C643 H629 0.961 . S
C643 C642 1.502 . S
C644 H630 0.960 . S
C644 H631 0.961 . S
C644 H632 0.959 . S
C644 C642 1.561 . S
C645 C642 1.526 . S
C645 C646 1.396 1_554 S
C645 C650 1.390 . S
C646 C640 1.465 . S
C646 C645 1.396 1_556 S
C646 C647 1.399 . S
C647 H633 0.929 . S
C647 C646 1.399 . S
C647 C648 1.385 . S
C648 H634 0.931 . S
C648 C647 1.385 . S
C648 C649 1.394 . S
C649 C648 1.394 . S
C649 C650 1.383 1_556 S
C650 H635 0.930 . S
C650 C645 1.390 . S
C650 C649 1.383 1_554 S
H651 C663 0.930 . S
H652 C665 0.930 . S
H653 C666 0.930 . S
H654 C670 0.959 . S
H655 C670 0.959 . S
H656 C670 0.961 . S
H657 C671 0.960 . S
H658 C671 0.961 . S
H659 C671 0.959 . S
H660 C674 0.929 . S
H661 C675 0.931 . S
H662 C677 0.930 . S
C663 H651 0.930 . S
C663 C664 1.399 . S
C663 C668 1.399 . S
C664 C663 1.399 . S
C664 C665 1.376 . S
C665 H652 0.930 . S
C665 C664 1.376 . S
C665 C666 1.388 . S
C666 H653 0.930 . S
C666 C665 1.388 . S
C666 C667 1.390 . S
C667 C666 1.390 . S
C667 C668 1.394 . S
C667 C673 1.465 . S
C668 C663 1.399 . S
C668 C667 1.394 . S
C668 C669 1.516 . S
C669 C668 1.516 . S
C669 C670 1.502 . S
C669 C671 1.561 . S
C669 C672 1.526 . S
C670 H654 0.959 . S
C670 H655 0.959 . S
C670 H656 0.961 . S
C670 C669 1.502 . S
C671 H657 0.960 . S
C671 H658 0.961 . S
C671 H659 0.959 . S
C671 C669 1.561 . S
C672 C669 1.526 . S
C672 C673 1.396 . S
C672 C677 1.390 . S
C673 C667 1.465 . S
C673 C672 1.396 . S
C673 C674 1.399 . S
C674 H660 0.929 . S
C674 C673 1.399 . S
C674 C675 1.385 . S
C675 H661 0.931 . S
C675 C674 1.385 . S
C675 C676 1.389 . S
C676 C675 1.389 . S
C676 C677 1.387 . S
C677 H662 0.930 . S
C677 C672 1.390 . S
C677 C676 1.387 . S
H678 C690 0.930 . S
H679 C692 0.930 . S
H680 C693 0.930 . S
H681 C697 0.959 . S
H682 C697 0.959 . S
H683 C697 0.961 . S
H684 C698 0.960 . S
H685 C698 0.961 . S
H686 C698 0.959 . S
H687 C701 0.929 . S
H688 C702 0.931 . S
H689 C704 0.930 . S
C690 H678 0.930 . S
C690 C691 1.399 . S
C690 C695 1.399 . S
C691 C690 1.399 . S
C691 C692 1.376 1_554 S
C692 H679 0.930 . S
C692 C691 1.376 1_556 S
C692 C693 1.388 . S
C693 H680 0.930 . S
C693 C692 1.388 . S
C693 C694 1.390 . S
C694 C693 1.390 . S
C694 C695 1.394 1_556 S
C694 C700 1.465 . S
C695 C690 1.399 . S
C695 C694 1.394 1_554 S
C695 C696 1.516 . S
C696 C695 1.516 . S
C696 C697 1.502 . S
C696 C698 1.561 . S
C696 C699 1.526 . S
C697 H681 0.959 . S
C697 H682 0.959 . S
C697 H683 0.961 . S
C697 C696 1.502 . S
C698 H684 0.960 . S
C698 H685 0.961 . S
C698 H686 0.959 . S
C698 C696 1.561 . S
C699 C696 1.526 . S
C699 C700 1.396 1_554 S
C699 C704 1.390 . S
C700 C694 1.465 . S
C700 C699 1.396 1_556 S
C700 C701 1.399 . S
C701 H687 0.929 . S
C701 C700 1.399 . S
C701 C702 1.385 . S
C702 H688 0.931 . S
C702 C701 1.385 . S
C702 C703 1.389 1_556 S
C703 C702 1.389 1_554 S
C703 C704 1.387 . S
C704 H689 0.930 . S
C704 C699 1.390 . S
C704 C703 1.387 . S
H705 C717 0.930 . S
H706 C719 0.930 . S
H707 C720 0.930 . S
H708 C724 0.959 . S
H709 C724 0.959 . S
H710 C724 0.961 . S
H711 C725 0.960 . S
H712 C725 0.961 . S
H713 C725 0.959 . S
H714 C728 0.929 . S
H715 C729 0.931 . S
H716 C731 0.930 . S
C717 H705 0.930 . S
C717 C718 1.399 . S
C717 C722 1.399 . S
C718 C717 1.399 . S
C718 C719 1.376 . S
C719 H706 0.930 . S
C719 C718 1.376 . S
C719 C720 1.388 . S
C720 H707 0.930 . S
C720 C719 1.388 . S
C720 C721 1.390 . S
C721 C720 1.390 . S
C721 C722 1.394 . S
C721 C727 1.465 . S
C722 C717 1.399 . S
C722 C721 1.394 . S
C722 C723 1.516 . S
C723 C722 1.516 . S
C723 C724 1.502 . S
C723 C725 1.561 . S
C723 C726 1.526 . S
C724 H708 0.959 . S
C724 H709 0.959 . S
C724 H710 0.961 . S
C724 C723 1.502 . S
C725 H711 0.960 . S
C725 H712 0.961 . S
C725 H713 0.959 . S
C725 C723 1.561 . S
C726 C723 1.526 . S
C726 C727 1.396 . S
C726 C731 1.390 . S
C727 C721 1.465 . S
C727 C726 1.396 . S
C727 C728 1.399 . S
C728 H714 0.929 . S
C728 C727 1.399 . S
C728 C729 1.385 . S
C729 H715 0.931 . S
C729 C728 1.385 . S
C729 C730 1.389 . S
C730 C729 1.389 . S
C730 C731 1.387 . S
C731 H716 0.930 . S
C731 C726 1.390 . S
C731 C730 1.387 . S
H732 C744 0.930 . S
H733 C746 0.930 . S
H734 C747 0.930 . S
H735 C751 0.959 . S
H736 C751 0.959 . S
H737 C751 0.961 . S
H738 C752 0.960 . S
H739 C752 0.961 . S
H740 C752 0.959 . S
H741 C755 0.929 . S
H742 C756 0.931 . S
H743 C758 0.930 . S
C744 H732 0.930 . S
C744 C745 1.399 . S
C744 C749 1.399 . S
C745 C744 1.399 . S
C745 C746 1.376 . S
C746 H733 0.930 . S
C746 C745 1.376 . S
C746 C747 1.388 . S
C747 H734 0.930 . S
C747 C746 1.388 . S
C747 C748 1.390 . S
C748 C747 1.390 . S
C748 C749 1.394 . S
C748 C754 1.465 . S
C749 C744 1.399 . S
C749 C748 1.394 . S
C749 C750 1.516 . S
C750 C749 1.516 . S
C750 C751 1.502 . S
C750 C752 1.561 . S
C750 C753 1.526 . S
C751 H735 0.959 . S
C751 H736 0.959 . S
C751 H737 0.961 . S
C751 C750 1.502 . S
C752 H738 0.960 . S
C752 H739 0.961 . S
C752 H740 0.959 . S
C752 C750 1.561 . S
C753 C750 1.526 . S
C753 C754 1.396 . S
C753 C758 1.390 . S
C754 C748 1.465 . S
C754 C753 1.396 . S
C754 C755 1.399 . S
C755 H741 0.929 . S
C755 C754 1.399 . S
C755 C756 1.385 . S
C756 H742 0.931 . S
C756 C755 1.385 . S
C756 C757 1.389 . S
C757 C756 1.389 . S
C757 C758 1.387 . S
C758 H743 0.930 . S
C758 C753 1.390 . S
C758 C757 1.387 . S
H759 C771 0.930 . S
H760 C773 0.930 . S
H761 C774 0.930 . S
H762 C778 0.959 . S
H763 C778 0.959 . S
H764 C778 0.961 . S
H765 C779 0.960 . S
H766 C779 0.961 . S
H767 C779 0.959 . S
H768 C782 0.929 . S
H769 C783 0.931 . S
H770 C785 0.930 . S
C771 H759 0.930 . S
C771 C772 1.399 1_556 S
C771 C776 1.399 . S
C772 C771 1.399 1_554 S
C772 C773 1.376 . S
C773 H760 0.930 . S
C773 C772 1.376 . S
C773 C774 1.388 . S
C774 H761 0.930 . S
C774 C773 1.388 . S
C774 C775 1.390 . S
C775 C774 1.390 . S
C775 C776 1.394 1_554 S
C775 C781 1.465 . S
C776 C771 1.399 . S
C776 C775 1.394 1_556 S
C776 C777 1.516 . S
C777 C776 1.516 . S
C777 C778 1.502 . S
C777 C779 1.561 . S
C777 C780 1.526 . S
C778 H762 0.959 . S
C778 H763 0.959 . S
C778 H764 0.961 . S
C778 C777 1.502 . S
C779 H765 0.960 . S
C779 H766 0.961 . S
C779 H767 0.959 . S
C779 C777 1.561 . S
C780 C777 1.526 . S
C780 C781 1.396 1_556 S
C780 C785 1.390 . S
C781 C775 1.465 . S
C781 C780 1.396 1_554 S
C781 C782 1.399 . S
C782 H768 0.929 . S
C782 C781 1.399 . S
C782 C783 1.385 . S
C783 H769 0.931 . S
C783 C782 1.385 . S
C783 C784 1.389 . S
C784 C783 1.389 . S
C784 C785 1.387 1_554 S
C785 H770 0.930 . S
C785 C780 1.390 . S
C785 C784 1.387 1_556 S
H786 C798 0.930 . S
H787 C800 0.930 . S
H788 C801 0.930 . S
H789 C805 0.959 . S
H790 C805 0.959 . S
H791 C805 0.961 . S
H792 C806 0.960 . S
H793 C806 0.961 . S
H794 C806 0.959 . S
H795 C809 0.929 . S
H796 C810 0.931 . S
H797 C812 0.930 . S
C798 H786 0.930 . S
C798 C799 1.399 . S
C798 C803 1.399 . S
C799 C798 1.399 . S
C799 C800 1.376 . S
C800 H787 0.930 . S
C800 C799 1.376 . S
C800 C801 1.388 . S
C801 H788 0.930 . S
C801 C800 1.388 . S
C801 C802 1.390 . S
C802 C801 1.390 . S
C802 C803 1.394 . S
C802 C808 1.465 . S
C803 C798 1.399 . S
C803 C802 1.394 . S
C803 C804 1.516 . S
C804 C803 1.516 . S
C804 C805 1.502 . S
C804 C806 1.561 . S
C804 C807 1.526 . S
C805 H789 0.959 . S
C805 H790 0.959 . S
C805 H791 0.961 . S
C805 C804 1.502 . S
C806 H792 0.960 . S
C806 H793 0.961 . S
C806 H794 0.959 . S
C806 C804 1.561 . S
C807 C804 1.526 . S
C807 C808 1.396 . S
C807 C812 1.390 . S
C808 C802 1.465 . S
C808 C807 1.396 . S
C808 C809 1.399 . S
C809 H795 0.929 . S
C809 C808 1.399 . S
C809 C810 1.385 . S
C810 H796 0.931 . S
C810 C809 1.385 . S
C810 C811 1.389 . S
C811 C810 1.389 . S
C811 C812 1.387 . S
C812 H797 0.930 . S
C812 C807 1.390 . S
C812 C811 1.387 . S
H813 C825 0.930 . S
H814 C827 0.930 . S
H815 C828 0.930 . S
H816 C832 0.959 . S
H817 C832 0.959 . S
H818 C832 0.961 . S
H819 C833 0.960 . S
H820 C833 0.961 . S
H821 C833 0.959 . S
H822 C836 0.929 . S
H823 C837 0.931 . S
H824 C839 0.930 . S
C825 H813 0.930 . S
C825 C826 1.399 . S
C825 C830 1.399 . S
C826 C825 1.399 . S
C826 C827 1.376 . S
C827 H814 0.930 . S
C827 C826 1.376 . S
C827 C828 1.388 . S
C828 H815 0.930 . S
C828 C827 1.388 . S
C828 C829 1.390 . S
C829 C828 1.390 . S
C829 C830 1.394 . S
C829 C835 1.465 . S
C830 C825 1.399 . S
C830 C829 1.394 . S
C830 C831 1.516 . S
C831 C830 1.516 . S
C831 C832 1.502 1_554 S
C831 C833 1.561 . S
C831 C834 1.526 . S
C832 H816 0.959 . S
C832 H817 0.959 . S
C832 H818 0.961 . S
C832 C831 1.502 1_556 S
C833 H819 0.960 . S
C833 H820 0.961 . S
C833 H821 0.959 . S
C833 C831 1.561 . S
C834 C831 1.526 . S
C834 C835 1.396 . S
C834 C839 1.390 . S
C835 C829 1.465 . S
C835 C834 1.396 . S
C835 C836 1.399 . S
C836 H822 0.929 . S
C836 C835 1.399 . S
C836 C837 1.385 . S
C837 H823 0.931 . S
C837 C836 1.385 . S
C837 C838 1.389 . S
C838 C837 1.389 . S
C838 C839 1.387 . S
C839 H824 0.930 . S
C839 C834 1.390 . S
C839 C838 1.387 . S
C205 C5 1.475 . S
C217 C135 1.480 . S
C232 C31 1.470 . S
C244 C97 1.453 . S
C271 C110 1.455 . S
C259 C53 1.463 . S
C286 C71 1.463 . S
C298 C122 1.467 . S
C325 C162 1.476 . S
C313 C75 1.488 . S
C352 C174 1.453 . S
C340 C9 1.436 . S
C379 C187 1.441 . S
C367 C27 1.424 . S
C406 C149 1.427 . S
C394 C49 1.439 . S
C421 C51 1.478 . S
C433 C109 1.479 . S
C448 C72 1.460 . S
C460 C123 1.458 . S
C475 C6 1.488 . S
C487 C136 1.482 . S
C514 C96 1.457 . S
C502 C29 1.442 . S
C529 C28 1.503 . S
C541 C188 1.494 . S
C568 C148 1.463 . S
C556 C50 1.463 . S
C595 C161 1.431 . S
C583 C73 1.412 . S
C610 C7 1.462 . S
C622 C175 1.436 . S
C649 C92 1.402 . S
C637 C4 1.481 1_556 S
C676 C105 1.401 . S
C664 C30 1.477 . S
C691 C52 1.479 . S
C703 C118 1.503 . S
C718 C70 1.509 . S
C730 C131 1.440 . S
C757 C144 1.485 . S
C745 C74 1.511 . S
C772 C8 1.481 . S
C784 C157 1.401 . S
C799 C26 1.511 . S
C811 C170 1.440 . S
C826 C48 1.513 . S
C838 C183 1.467 1_554 S
