# Generated by pormake.
# Topology ssa, (4,4)-cn, num edge types: 1
# Building blocks:
#     Node 0, Type 0, BuildingBlock: KOZSID_clean_sbu_0, # of connection points: 4
#     Node 1, Type 0, BuildingBlock: KOZSID_clean_sbu_0, # of connection points: 4
#     Node 2, Type 0, BuildingBlock: KOZSID_clean_sbu_0, # of connection points: 4
#     Node 3, Type 0, BuildingBlock: KOZSID_clean_sbu_0, # of connection points: 4
#     Node 4, Type 0, BuildingBlock: KOZSID_clean_sbu_0, # of connection points: 4
#     Node 5, Type 0, BuildingBlock: KOZSID_clean_sbu_0, # of connection points: 4
#     Node 6, Type 1, BuildingBlock: MUDLON_clean_linker_0, # of connection points: 4
#     Node 7, Type 1, BuildingBlock: MUDLON_clean_linker_0, # of connection points: 4
#     Node 8, Type 1, BuildingBlock: MUDLON_clean_linker_0, # of connection points: 4
#     Node 9, Type 1, BuildingBlock: MUDLON_clean_linker_0, # of connection points: 4
#     Node 10, Type 1, BuildingBlock: MUDLON_clean_linker_0, # of connection points: 4
#     Node 11, Type 1, BuildingBlock: MUDLON_clean_linker_0, # of connection points: 4
#     Edge 12, Type (0, 1), BuildingBlock: CIFDUS_clean_linker_0, # of connection points: 2
#     Edge 13, Type (0, 1), BuildingBlock: CIFDUS_clean_linker_0, # of connection points: 2
#     Edge 14, Type (0, 1), BuildingBlock: CIFDUS_clean_linker_0, # of connection points: 2
#     Edge 15, Type (0, 1), BuildingBlock: CIFDUS_clean_linker_0, # of connection points: 2
#     Edge 16, Type (0, 1), BuildingBlock: CIFDUS_clean_linker_0, # of connection points: 2
#     Edge 17, Type (0, 1), BuildingBlock: CIFDUS_clean_linker_0, # of connection points: 2
#     Edge 18, Type (0, 1), BuildingBlock: CIFDUS_clean_linker_0, # of connection points: 2
#     Edge 19, Type (0, 1), BuildingBlock: CIFDUS_clean_linker_0, # of connection points: 2
#     Edge 20, Type (0, 1), BuildingBlock: CIFDUS_clean_linker_0, # of connection points: 2
#     Edge 21, Type (0, 1), BuildingBlock: CIFDUS_clean_linker_0, # of connection points: 2
#     Edge 22, Type (0, 1), BuildingBlock: CIFDUS_clean_linker_0, # of connection points: 2
#     Edge 23, Type (0, 1), BuildingBlock: CIFDUS_clean_linker_0, # of connection points: 2
#     Edge 24, Type (0, 1), BuildingBlock: CIFDUS_clean_linker_0, # of connection points: 2
#     Edge 25, Type (0, 1), BuildingBlock: CIFDUS_clean_linker_0, # of connection points: 2
#     Edge 26, Type (0, 1), BuildingBlock: CIFDUS_clean_linker_0, # of connection points: 2
#     Edge 27, Type (0, 1), BuildingBlock: CIFDUS_clean_linker_0, # of connection points: 2
#     Edge 28, Type (0, 1), BuildingBlock: CIFDUS_clean_linker_0, # of connection points: 2
#     Edge 29, Type (0, 1), BuildingBlock: CIFDUS_clean_linker_0, # of connection points: 2
#     Edge 30, Type (0, 1), BuildingBlock: CIFDUS_clean_linker_0, # of connection points: 2
#     Edge 31, Type (0, 1), BuildingBlock: CIFDUS_clean_linker_0, # of connection points: 2
#     Edge 32, Type (0, 1), BuildingBlock: CIFDUS_clean_linker_0, # of connection points: 2
#     Edge 33, Type (0, 1), BuildingBlock: CIFDUS_clean_linker_0, # of connection points: 2
#     Edge 34, Type (0, 1), BuildingBlock: CIFDUS_clean_linker_0, # of connection points: 2
#     Edge 35, Type (0, 1), BuildingBlock: CIFDUS_clean_linker_0, # of connection points: 2
# Relax obj value: 0.007
# Max RMSD: 0.045
# Mean RMSD: 0.025
data_MOF--net-ssa--node1-KOZSID_clean_sbu_0--node2-MUDLON_clean_linker_0--edge1-CIFDUS_clean_linker_0
_symmetry_space_group_name_H-M    P1
_symmetry_Int_Tables_number       1
_symmetry_cell_setting            triclinic
loop_
_symmetry_equiv_pos_as_xyz
'x, y, z'
_cell_length_a     68.341358
_cell_length_b     69.872972
_cell_length_c     38.799874
_cell_angle_alpha  87.372608
_cell_angle_beta   89.89258
_cell_angle_gamma 122.11725
loop_
_atom_site_label
_atom_site_type_symbol
_atom_site_fract_x
_atom_site_fract_y
_atom_site_fract_z
_atom_type_partial_charge
C0 C 0.97831 0.50777 0.02784 0.0
C1 C 0.95741 0.50122 0.04419 0.0
C2 C 0.95475 0.48711 0.07174 0.0
C3 C 0.97406 0.48582 0.07058 0.0
N4 N 0.98903 0.4984 0.04412 0.0
Co5 Co 0.0188 0.50064 0.03199 0.0
N6 N 0.0149 0.47995 0.07263 0.0
C7 C 0.99743 0.47032 0.09664 0.0
C8 C 0.99992 0.4577 0.1223 0.0
C9 C 0.02035 0.45956 0.11448 0.0
C10 C 0.02912 0.47322 0.08431 0.0
N11 N 0.04823 0.50235 0.01927 0.0
C12 C 0.05899 0.49303 0.03558 0.0
C13 C 0.07911 0.49836 0.01795 0.0
C14 C 0.08132 0.51176 0.98965 0.0
C15 C 0.06247 0.51377 0.99154 0.0
N16 N 0.0231 0.52188 0.99195 0.0
C17 C 0.04117 0.53241 0.96895 0.0
C18 C 0.03944 0.54622 0.94458 0.0
C19 C 0.01903 0.54441 0.9524 0.0
C20 C 0.00943 0.52947 0.98117 0.0
N21 N 0.03614 0.52701 0.06114 0.0
C22 C 0.06061 0.56486 0.10153 0.0
C23 C 0.07031 0.56348 0.07083 0.0
C24 C 0.05782 0.54467 0.05107 0.0
C25 C 0.03852 0.54698 0.11188 0.0
C26 C 0.02677 0.52822 0.09164 0.0
N27 N 0.00141 0.47437 0.00266 0.0
C28 C 0.99563 0.45828 0.94697 0.0
C29 C 0.97518 0.43866 0.95889 0.0
C30 C 0.96846 0.43688 0.99353 0.0
C31 C 0.98175 0.45479 0.01481 0.0
C32 C 0.00834 0.4757 0.96903 0.0
H33 H 0.9756 0.45253 0.04084 0.0
H34 H 0.0236 0.49016 0.95808 0.0
H35 H 0.06609 0.54492 0.02768 0.0
H36 H 0.01017 0.51492 0.10122 0.0
C37 C 0.9789 0.4734 0.09436 0.0
C38 C 0.98707 0.52269 0.99675 0.0
C39 C 0.05126 0.47969 0.06825 0.0
C40 C 0.05872 0.52781 0.96949 0.0
H41 H 0.94531 0.50609 0.03686 0.0
H42 H 0.94045 0.47878 0.0904 0.0
H43 H 0.98836 0.44842 0.14425 0.0
H44 H 0.02803 0.4519 0.12947 0.0
H45 H 0.09118 0.49343 0.02519 0.0
H46 H 0.09535 0.51964 0.97051 0.0
H47 H 0.05136 0.55608 0.92326 0.0
H48 H 0.01187 0.5529 0.93827 0.0
H49 H 0.08736 0.57707 0.06177 0.0
H50 H 0.03048 0.54729 0.13576 0.0
H51 H 0.00193 0.46026 0.92059 0.0
H52 H 0.95275 0.42198 0.00402 0.0
C53 C 0.56849 0.02221 0.56512 0.0
C54 C 0.56983 0.01439 0.59806 0.0
C55 C 0.54916 0.99475 0.60526 0.0
C56 C 0.53641 0.99175 0.57653 0.0
N57 N 0.54765 0.00825 0.55131 0.0
Co58 Co 0.5351 0.0109 0.50583 0.0
N59 N 0.50518 0.98128 0.51568 0.0
C60 C 0.49954 0.96716 0.54409 0.0
C61 C 0.47784 0.94811 0.54377 0.0
C62 C 0.46909 0.95001 0.51318 0.0
C63 C 0.48612 0.97016 0.49639 0.0
N64 N 0.52224 0.01399 0.4609 0.0
C65 C 0.50152 0.9999 0.44682 0.0
C66 C 0.49985 0.00849 0.41468 0.0
C67 C 0.51997 0.02882 0.40855 0.0
C68 C 0.53285 0.03148 0.43696 0.0
N69 N 0.56541 0.04007 0.49537 0.0
C70 C 0.57152 0.05365 0.46625 0.0
C71 C 0.59364 0.07215 0.46596 0.0
C72 C 0.60229 0.07025 0.49667 0.0
C73 C 0.58481 0.05068 0.51404 0.0
N74 N 0.54759 0.99436 0.48362 0.0
C75 C 0.56461 0.9705 0.4511 0.0
C76 C 0.56504 0.98878 0.43399 0.0
C77 C 0.5567 0.00042 0.45061 0.0
C78 C 0.55548 0.9644 0.48493 0.0
C79 C 0.5471 0.97643 0.50054 0.0
N80 N 0.5225 0.02742 0.52797 0.0
C81 C 0.51939 0.0603 0.53018 0.0
C82 C 0.50379 0.0504 0.55825 0.0
C83 C 0.49781 0.02893 0.57113 0.0
C84 C 0.50747 0.01794 0.55597 0.0
C85 C 0.5283 0.04853 0.51536 0.0
H86 H 0.5025 0.00181 0.56746 0.0
H87 H 0.53977 0.05688 0.49364 0.0
H88 H 0.55769 0.0142 0.43606 0.0
H89 H 0.54028 0.9709 0.52629 0.0
C90 C 0.51441 0.97299 0.57165 0.0
C91 C 0.58751 0.04292 0.54816 0.0
C92 C 0.4832 0.9781 0.46244 0.0
C93 C 0.55569 0.04916 0.44042 0.0
H94 H 0.5843 0.02205 0.61506 0.0
H95 H 0.54414 0.9838 0.62848 0.0
H96 H 0.46924 0.93465 0.5637 0.0
H97 H 0.45199 0.93799 0.50446 0.0
H98 H 0.48577 0.00075 0.39706 0.0
H99 H 0.52489 0.04004 0.38564 0.0
H100 H 0.60237 0.08552 0.44592 0.0
H101 H 0.61951 0.08199 0.50538 0.0
H102 H 0.57149 0.99399 0.40754 0.0
H103 H 0.55498 0.95055 0.49951 0.0
H104 H 0.52442 0.07692 0.51934 0.0
H105 H 0.48599 0.02079 0.59322 0.0
C106 C 0.56333 0.52441 0.95347 0.0
C107 C 0.56831 0.53503 0.92063 0.0
C108 C 0.54956 0.53587 0.91133 0.0
C109 C 0.53412 0.52551 0.93863 0.0
N110 N 0.5418 0.518 0.96486 0.0
Co111 Co 0.52408 0.50045 0.00825 0.0
N112 N 0.49672 0.50225 0.99477 0.0
C113 C 0.49481 0.51268 0.9659 0.0
C114 C 0.47426 0.51167 0.96417 0.0
C115 C 0.46232 0.50002 0.99386 0.0
C116 C 0.47636 0.49457 0.01198 0.0
N117 N 0.50614 0.48244 0.05131 0.0
C118 C 0.48464 0.47614 0.06271 0.0
C119 C 0.47863 0.46351 0.09391 0.0
C120 C 0.497 0.46184 0.10266 0.0
C121 C 0.5131 0.47345 0.07641 0.0
N122 N 0.55168 0.49914 0.02215 0.0
C123 C 0.5538 0.48932 0.05161 0.0
C124 C 0.57511 0.49214 0.05494 0.0
C125 C 0.58743 0.50454 0.02593 0.0
C126 C 0.57276 0.5084 0.00626 0.0
N127 N 0.53669 0.52903 0.03228 0.0
C128 C 0.5561 0.56982 0.06635 0.0
C129 C 0.5529 0.55018 0.0831 0.0
C130 C 0.54336 0.53025 0.06576 0.0
C131 C 0.54892 0.56854 0.03235 0.0
C132 C 0.53929 0.54811 0.01594 0.0
N133 N 0.51154 0.47183 0.98419 0.0
C134 C 0.50511 0.43436 0.98163 0.0
C135 C 0.49621 0.43206 0.94866 0.0
C136 C 0.49447 0.44979 0.93422 0.0
C137 C 0.50206 0.46928 0.95234 0.0
C138 C 0.51263 0.45417 0.99869 0.0
H139 H 0.50035 0.48215 0.9398 0.0
H140 H 0.51946 0.45483 0.02348 0.0
H141 H 0.54164 0.51606 0.08006 0.0
H142 H 0.53422 0.54819 0.98999 0.0
C143 C 0.51247 0.52297 0.94064 0.0
C144 C 0.57972 0.52104 0.9728 0.0
C145 C 0.46956 0.48213 0.04542 0.0
C146 C 0.5354 0.47741 0.0756 0.0
H147 H 0.58388 0.54154 0.90487 0.0
H148 H 0.54744 0.54317 0.8875 0.0
H149 H 0.46864 0.51859 0.94377 0.0
H150 H 0.44522 0.49601 0.00137 0.0
H151 H 0.4627 0.45649 0.10901 0.0
H152 H 0.49861 0.45353 0.12574 0.0
H153 H 0.58103 0.48601 0.07605 0.0
H154 H 0.60524 0.51017 0.02008 0.0
H155 H 0.5576 0.55006 0.10972 0.0
H156 H 0.55109 0.5833 0.01819 0.0
H157 H 0.50638 0.42095 0.99434 0.0
H158 H 0.48787 0.44898 0.90862 0.0
C159 C 0.99807 0.46318 0.5561 0.0
C160 C 0.97493 0.45172 0.54731 0.0
C161 C 0.97271 0.46515 0.5227 0.0
C162 C 0.99423 0.48448 0.51897 0.0
N163 N 0.0097 0.48398 0.53975 0.0
Co164 Co 0.03992 0.51085 0.55019 0.0
N165 N 0.04147 0.52637 0.50554 0.0
C166 C 0.02335 0.52158 0.48596 0.0
C167 C 0.02975 0.53512 0.45612 0.0
C168 C 0.05331 0.54941 0.45738 0.0
C169 C 0.05998 0.54394 0.48825 0.0
N170 N 0.06993 0.53786 0.56082 0.0
C171 C 0.08613 0.55467 0.53928 0.0
C172 C 0.10442 0.57084 0.55779 0.0
C173 C 0.09916 0.56384 0.59208 0.0
C174 C 0.07804 0.54386 0.59261 0.0
N175 N 0.03826 0.49544 0.59507 0.0
C176 C 0.04826 0.50621 0.62378 0.0
C177 C 0.0399 0.49216 0.65304 0.0
C178 C 0.0237 0.47129 0.64181 0.0
C179 C 0.02385 0.47347 0.60593 0.0
N180 N 0.05585 0.49788 0.52904 0.0
C181 C 0.0814 0.48352 0.49457 0.0
C182 C 0.08772 0.49239 0.52723 0.0
C183 C 0.07459 0.4993 0.54417 0.0
C184 C 0.0615 0.48122 0.48021 0.0
C185 C 0.04901 0.48849 0.49781 0.0
N186 N 0.0238 0.52393 0.57121 0.0
C187 C 0.99149 0.51854 0.60482 0.0
C188 C 0.99809 0.54094 0.59699 0.0
C189 C 0.01834 0.55502 0.57705 0.0
C190 C 0.03089 0.54612 0.56419 0.0
C191 C 0.00461 0.51046 0.59201 0.0
H192 H 0.04607 0.55708 0.54805 0.0
H193 H 0.99884 0.49308 0.59848 0.0
H194 H 0.0799 0.50635 0.5691 0.0
H195 H 0.03419 0.48718 0.48566 0.0
C196 C 0.00132 0.50252 0.49439 0.0
C197 C 0.0081 0.4555 0.583 0.0
C198 C 0.08336 0.55705 0.50207 0.0
C199 C 0.06662 0.52896 0.62149 0.0
H200 H 0.96082 0.43573 0.55831 0.0
H201 H 0.95722 0.46132 0.50942 0.0
H202 H 0.01875 0.53433 0.43548 0.0
H203 H 0.06421 0.56259 0.43804 0.0
H204 H 0.11967 0.58632 0.54767 0.0
H205 H 0.10968 0.57213 0.61387 0.0
H206 H 0.04472 0.49657 0.67939 0.0
H207 H 0.01239 0.45655 0.65852 0.0
H208 H 0.1028 0.49419 0.53945 0.0
H209 H 0.05609 0.47469 0.4549 0.0
H210 H 0.9762 0.50726 0.62079 0.0
H211 H 0.02404 0.57252 0.57066 0.0
C212 C 0.4969 0.99882 0.0652 0.0
C213 C 0.49363 0.00729 0.09485 0.0
C214 C 0.51334 0.02787 0.09847 0.0
C215 C 0.52743 0.03079 0.07091 0.0
N216 N 0.51781 0.01342 0.04967 0.0
Co217 Co 0.53229 0.0105 0.00679 0.0
N218 N 0.5625 0.03915 0.0148 0.0
C219 C 0.56755 0.05249 0.04179 0.0
C220 C 0.58999 0.07042 0.04125 0.0
C221 C 0.5999 0.0685 0.01215 0.0
C222 C 0.58278 0.04954 0.99631 0.0
N223 N 0.54651 0.00787 0.96338 0.0
C224 C 0.56787 0.02188 0.94868 0.0
C225 C 0.56999 0.01456 0.91696 0.0
C226 C 0.54948 0.99507 0.91178 0.0
C227 C 0.53592 0.99172 0.94021 0.0
N228 N 0.50232 0.98141 0.99947 0.0
C229 C 0.49729 0.9677 0.97303 0.0
C230 C 0.4758 0.94828 0.97605 0.0
C231 C 0.46666 0.94941 0.0066 0.0
C232 C 0.48319 0.96956 0.02039 0.0
N233 N 0.52156 0.02798 0.97983 0.0
C234 C 0.5057 0.05242 0.94219 0.0
C235 C 0.50096 0.03153 0.9318 0.0
C236 C 0.50897 0.01973 0.95079 0.0
C237 C 0.51873 0.06099 0.97155 0.0
C238 C 0.52642 0.04862 0.98978 0.0
N239 N 0.54282 0.99302 0.03378 0.0
C240 C 0.54677 0.96067 0.04103 0.0
C241 C 0.55321 0.96564 0.07515 0.0
C242 C 0.55539 0.98506 0.08768 0.0
C243 C 0.55036 0.99851 0.06665 0.0
C244 C 0.54161 0.97447 0.02093 0.0
H245 H 0.55227 0.01304 0.07778 0.0
H246 H 0.53621 0.96955 0.99535 0.0
H247 H 0.50473 0.00398 0.94134 0.0
H248 H 0.53619 0.05615 0.01189 0.0
C249 C 0.55064 0.04818 0.0666 0.0
C250 C 0.48023 0.97631 0.05396 0.0
C251 C 0.58657 0.04231 0.96354 0.0
C252 C 0.51334 0.97334 0.94614 0.0
H253 H 0.47879 0.99911 0.11255 0.0
H254 H 0.51732 0.03893 0.11949 0.0
H255 H 0.59813 0.08343 0.0597 0.0
H256 H 0.6177 0.07987 0.00351 0.0
H257 H 0.58474 0.02247 0.89914 0.0
H258 H 0.54496 0.98463 0.88981 0.0
H259 H 0.46791 0.93471 0.95847 0.0
H260 H 0.44989 0.93668 0.01779 0.0
H261 H 0.49129 0.02433 0.90884 0.0
H262 H 0.52271 0.07703 0.98083 0.0
H263 H 0.54493 0.94577 0.03028 0.0
H264 H 0.56081 0.9898 0.11379 0.0
C265 C 0.54785 0.56478 0.50462 0.0
C266 C 0.54696 0.58068 0.5236 0.0
C267 C 0.53609 0.56999 0.55435 0.0
C268 C 0.53116 0.54833 0.55251 0.0
N269 N 0.53845 0.54456 0.5226 0.0
Co270 Co 0.53515 0.51557 0.5094 0.0
N271 N 0.51673 0.49909 0.55295 0.0
C272 C 0.51079 0.50786 0.57842 0.0
C273 C 0.49905 0.49288 0.60581 0.0
C274 C 0.49717 0.47329 0.59735 0.0
C275 C 0.50769 0.47733 0.56483 0.0
N276 N 0.53224 0.48667 0.4965 0.0
C277 C 0.52102 0.46584 0.51301 0.0
C278 C 0.5225 0.45024 0.49401 0.0
C279 C 0.53565 0.4617 0.46513 0.0
C280 C 0.54121 0.48349 0.46779 0.0
N281 N 0.55303 0.53192 0.46542 0.0
C282 C 0.55903 0.52323 0.43997 0.0
C283 C 0.5697 0.53785 0.41182 0.0
C284 C 0.57037 0.55701 0.41946 0.0
C285 C 0.56023 0.55305 0.45223 0.0
N286 N 0.56442 0.52423 0.53298 0.0
C287 C 0.60592 0.53701 0.56693 0.0
C288 C 0.60307 0.5309 0.53263 0.0
C289 C 0.58232 0.5245 0.51636 0.0
C290 C 0.58746 0.53625 0.58392 0.0
C291 C 0.56726 0.53011 0.56662 0.0
N292 N 0.50605 0.50703 0.48594 0.0
C293 C 0.48148 0.49219 0.43699 0.0
C294 C 0.46539 0.49626 0.45154 0.0
C295 C 0.46993 0.50564 0.48379 0.0
C296 C 0.49016 0.5108 0.50044 0.0
C297 C 0.50149 0.49764 0.45447 0.0
H298 H 0.49264 0.51791 0.52495 0.0
H299 H 0.51314 0.4943 0.44185 0.0
H300 H 0.58125 0.51991 0.49035 0.0
H301 H 0.55423 0.53023 0.58126 0.0
C302 C 0.51811 0.53073 0.57716 0.0
C303 C 0.55703 0.56949 0.46919 0.0
C304 C 0.50888 0.46006 0.54658 0.0
C305 C 0.55335 0.50087 0.44252 0.0
H306 H 0.55311 0.59809 0.51573 0.0
H307 H 0.53173 0.57699 0.57518 0.0
H308 H 0.49311 0.49602 0.62954 0.0
H309 H 0.48927 0.45792 0.61374 0.0
H310 H 0.51473 0.43233 0.50011 0.0
H311 H 0.54019 0.45486 0.44428 0.0
H312 H 0.57567 0.53471 0.38812 0.0
H313 H 0.57709 0.57194 0.4023 0.0
H314 H 0.61683 0.53127 0.51814 0.0
H315 H 0.58835 0.54016 0.61078 0.0
H316 H 0.47891 0.48522 0.41185 0.0
H317 H 0.45786 0.50886 0.49631 0.0
H318 H 0.34785 0.48454 0.26576 0.0
N319 N 0.31439 0.44324 0.24423 0.0
H320 H 0.37431 0.49102 0.31225 0.0
H321 H 0.30968 0.41298 0.29285 0.0
H322 H 0.33551 0.41932 0.34052 0.0
H323 H 0.32609 0.41717 0.21476 0.0
H324 H 0.35633 0.42867 0.17057 0.0
H325 H 0.33538 0.48319 0.2047 0.0
H326 H 0.36514 0.4947 0.15973 0.0
H327 H 0.31145 0.48066 0.24995 0.0
H328 H 0.27154 0.40867 0.2391 0.0
H329 H 0.27607 0.48132 0.25033 0.0
H330 H 0.23595 0.40872 0.24176 0.0
H331 H 0.17571 0.47801 0.288 0.0
H332 H 0.15849 0.48205 0.34009 0.0
H333 H 0.12337 0.40996 0.36355 0.0
H334 H 0.14035 0.40606 0.31067 0.0
H335 H 0.12382 0.41333 0.23593 0.0
H336 H 0.10531 0.42568 0.19463 0.0
H337 H 0.16856 0.49151 0.18304 0.0
H338 H 0.18664 0.47903 0.2254 0.0
H339 H 0.20679 0.46955 0.28999 0.0
H340 H 0.24335 0.47178 0.28382 0.0
H341 H 0.21249 0.41809 0.21262 0.0
N342 N 0.16541 0.43811 0.26175 0.0
H343 H 0.1755 0.41494 0.22096 0.0
C344 C 0.32692 0.44818 0.27569 0.0
C345 C 0.34473 0.47029 0.2824 0.0
C346 C 0.35984 0.47397 0.30917 0.0
C347 C 0.35729 0.45563 0.32984 0.0
C348 C 0.33831 0.43376 0.32462 0.0
C349 C 0.32337 0.43011 0.2977 0.0
C350 C 0.32839 0.44919 0.21308 0.0
C351 C 0.33413 0.43391 0.20211 0.0
C352 C 0.35144 0.44055 0.17679 0.0
C353 C 0.36339 0.46273 0.16172 0.0
C354 C 0.35659 0.47762 0.17121 0.0
C355 C 0.33932 0.47096 0.19675 0.0
C356 C 0.29409 0.44459 0.24382 0.0
C357 C 0.29508 0.465 0.24737 0.0
C358 C 0.27471 0.46527 0.24809 0.0
C359 C 0.25295 0.44508 0.2459 0.0
C360 C 0.25224 0.42473 0.24259 0.0
C361 C 0.27257 0.42458 0.24134 0.0
C362 C 0.1592 0.44163 0.29539 0.0
C363 C 0.1647 0.46314 0.30469 0.0
C364 C 0.1549 0.46544 0.33465 0.0
C365 C 0.13936 0.44629 0.35587 0.0
C366 C 0.13499 0.425 0.34751 0.0
C367 C 0.14482 0.42274 0.31753 0.0
C368 C 0.15651 0.44517 0.2336 0.0
C369 C 0.13376 0.43028 0.22393 0.0
C370 C 0.12327 0.43739 0.20021 0.0
C371 C 0.1354 0.45965 0.18545 0.0
C372 C 0.1586 0.47436 0.19423 0.0
C373 C 0.16905 0.46721 0.21818 0.0
C374 C 0.18807 0.44163 0.25645 0.0
C375 C 0.20774 0.45816 0.27315 0.0
C376 C 0.22889 0.4596 0.26927 0.0
C377 C 0.23099 0.4449 0.24807 0.0
C378 C 0.21152 0.42925 0.23002 0.0
C379 C 0.19035 0.42755 0.23444 0.0
H380 H 0.74199 0.12616 0.80801 0.0
N381 N 0.74006 0.14632 0.74927 0.0
H382 H 0.71529 0.11286 0.85809 0.0
H383 H 0.70631 0.15551 0.76032 0.0
H384 H 0.67864 0.14096 0.80846 0.0
H385 H 0.73061 0.17062 0.70208 0.0
H386 H 0.70284 0.15499 0.65601 0.0
H387 H 0.719 0.10465 0.72776 0.0
H388 H 0.6906 0.08864 0.6828 0.0
H389 H 0.78018 0.15345 0.72666 0.0
H390 H 0.74869 0.18808 0.76512 0.0
H391 H 0.81793 0.18878 0.72457 0.0
H392 H 0.78642 0.2231 0.7653 0.0
H393 H 0.91528 0.28782 0.81798 0.0
H394 H 0.92555 0.31259 0.8661 0.0
H395 H 0.89105 0.34329 0.81787 0.0
H396 H 0.88171 0.31911 0.76947 0.0
H397 H 0.88725 0.3128 0.70951 0.0
H398 H 0.91594 0.34178 0.66884 0.0
H399 H 0.96642 0.32695 0.70519 0.0
H400 H 0.93737 0.29777 0.74617 0.0
H401 H 0.88425 0.24678 0.76702 0.0
H402 H 0.84629 0.21243 0.76197 0.0
H403 H 0.81787 0.2533 0.73418 0.0
N404 N 0.89537 0.28926 0.76011 0.0
H405 H 0.85548 0.28733 0.74144 0.0
C406 C 0.72598 0.14145 0.78017 0.0
C407 C 0.72846 0.12983 0.80848 0.0
C408 C 0.71297 0.12201 0.83687 0.0
C409 C 0.69438 0.12536 0.83726 0.0
C410 C 0.69274 0.13813 0.80953 0.0
C411 C 0.70849 0.1463 0.78154 0.0
C412 C 0.72698 0.13874 0.71827 0.0
C413 C 0.72246 0.15286 0.69733 0.0
C414 C 0.70632 0.14381 0.67125 0.0
C415 C 0.69426 0.12047 0.66578 0.0
C416 C 0.69971 0.1067 0.68577 0.0
C417 C 0.71592 0.11579 0.71159 0.0
C418 C 0.76168 0.16793 0.74656 0.0
C419 C 0.78147 0.16871 0.73475 0.0
C420 C 0.80307 0.18891 0.73393 0.0
C421 C 0.80546 0.20887 0.74535 0.0
C422 C 0.78538 0.20822 0.75606 0.0
C423 C 0.76369 0.18803 0.75635 0.0
C424 C 0.8977 0.3015 0.79026 0.0
C425 C 0.90956 0.29961 0.81826 0.0
C426 C 0.91533 0.31373 0.84577 0.0
C427 C 0.90926 0.33008 0.8458 0.0
C428 C 0.8963 0.33115 0.81845 0.0
C429 C 0.89068 0.31709 0.79085 0.0
C430 C 0.9101 0.30294 0.73097 0.0
C431 C 0.90416 0.31514 0.70815 0.0
C432 C 0.92068 0.33178 0.68471 0.0
C433 C 0.94351 0.33674 0.68387 0.0
C434 C 0.94902 0.32363 0.70536 0.0
C435 C 0.93244 0.30687 0.72858 0.0
C436 C 0.87294 0.26964 0.75423 0.0
C437 C 0.86981 0.24824 0.75958 0.0
C438 C 0.84807 0.22862 0.75642 0.0
C439 C 0.82884 0.22993 0.7474 0.0
C440 C 0.83211 0.25151 0.74154 0.0
C441 C 0.85386 0.27115 0.74521 0.0
H442 H 0.56375 0.84087 0.30438 0.0
N443 N 0.60515 0.86089 0.26851 0.0
H444 H 0.5544 0.85782 0.35006 0.0
H445 H 0.63508 0.89537 0.30448 0.0
H446 H 0.62646 0.91153 0.35231 0.0
H447 H 0.63464 0.89167 0.22127 0.0
H448 H 0.6257 0.90954 0.1731 0.0
H449 H 0.56185 0.84764 0.24631 0.0
H450 H 0.55288 0.86523 0.19858 0.0
H451 H 0.56768 0.81842 0.25846 0.0
H452 H 0.64036 0.85587 0.27918 0.0
H453 H 0.56831 0.78401 0.25394 0.0
H454 H 0.64101 0.82138 0.27654 0.0
H455 H 0.5708 0.68393 0.27434 0.0
H456 H 0.56449 0.65793 0.32248 0.0
H457 H 0.63458 0.70342 0.35408 0.0
H458 H 0.64127 0.72861 0.30348 0.0
H459 H 0.63958 0.71508 0.21497 0.0
H460 H 0.62875 0.69034 0.16681 0.0
H461 H 0.55922 0.67666 0.17446 0.0
H462 H 0.57082 0.70268 0.22091 0.0
H463 H 0.57467 0.72229 0.2787 0.0
H464 H 0.572 0.75557 0.28412 0.0
H465 H 0.63964 0.79746 0.23448 0.0
N466 N 0.61217 0.72218 0.25339 0.0
H467 H 0.64252 0.76426 0.23084 0.0
C468 C 0.60003 0.86732 0.30038 0.0
C469 C 0.5775 0.85627 0.31474 0.0
C470 C 0.57225 0.86589 0.34129 0.0
C471 C 0.58956 0.88646 0.35446 0.0
C472 C 0.61249 0.89618 0.34207 0.0
C473 C 0.61757 0.88683 0.31506 0.0
C474 C 0.59904 0.86845 0.23754 0.0
C475 C 0.61675 0.88554 0.2159 0.0
C476 C 0.61162 0.89566 0.18842 0.0
C477 C 0.5886 0.8889 0.18235 0.0
C478 C 0.57079 0.87096 0.20297 0.0
C479 C 0.57594 0.86079 0.23026 0.0
C480 C 0.60417 0.83983 0.26858 0.0
C481 C 0.58375 0.81924 0.26232 0.0
C482 C 0.5841 0.79947 0.26002 0.0
C483 C 0.6048 0.79992 0.26434 0.0
C484 C 0.6249 0.82045 0.27206 0.0
C485 C 0.62456 0.84016 0.27396 0.0
C486 C 0.60683 0.70804 0.28465 0.0
C487 C 0.5849 0.68838 0.29139 0.0
C488 C 0.58119 0.67356 0.31956 0.0
C489 C 0.59907 0.67831 0.34232 0.0
C490 C 0.62054 0.69879 0.33672 0.0
C491 C 0.62437 0.71337 0.30802 0.0
C492 C 0.60598 0.7104 0.22186 0.0
C493 C 0.62218 0.70713 0.20558 0.0
C494 C 0.61583 0.69277 0.17834 0.0
C495 C 0.5929 0.68095 0.16723 0.0
C496 C 0.57704 0.68544 0.18216 0.0
C497 C 0.58358 0.70021 0.209 0.0
C498 C 0.60905 0.74095 0.25483 0.0
C499 C 0.58892 0.73865 0.26911 0.0
C500 C 0.58736 0.75771 0.27195 0.0
C501 C 0.60575 0.77932 0.26021 0.0
C502 C 0.62541 0.78125 0.24473 0.0
C503 C 0.62703 0.76229 0.24227 0.0
H504 H 0.93302 0.60758 0.8343 0.0
N505 N 0.8963 0.58674 0.79553 0.0
H506 H 0.94551 0.59031 0.8779 0.0
H507 H 0.86992 0.54323 0.82337 0.0
H508 H 0.88206 0.52578 0.8674 0.0
H509 H 0.88757 0.54831 0.76558 0.0
H510 H 0.9101 0.54636 0.71913 0.0
H511 H 0.92858 0.62119 0.75542 0.0
H512 H 0.95131 0.61941 0.70801 0.0
H513 H 0.8851 0.61374 0.82285 0.0
H514 H 0.85663 0.55342 0.76594 0.0
H515 H 0.848 0.61105 0.82168 0.0
H516 H 0.81983 0.55111 0.76328 0.0
H517 H 0.74477 0.59983 0.84406 0.0
H518 H 0.71475 0.58407 0.88982 0.0
H519 H 0.68019 0.51982 0.84164 0.0
H520 H 0.71106 0.53516 0.79836 0.0
H521 H 0.7268 0.54552 0.74356 0.0
H522 H 0.70223 0.54242 0.69603 0.0
H523 H 0.72074 0.61129 0.70886 0.0
H524 H 0.7431 0.61304 0.75885 0.0
H525 H 0.78859 0.61553 0.78173 0.0
H526 H 0.82485 0.61655 0.78237 0.0
H527 H 0.78645 0.54354 0.79607 0.0
N528 N 0.74607 0.57971 0.7883 0.0
H529 H 0.75023 0.54278 0.79386 0.0
C530 C 0.90066 0.57679 0.82556 0.0
C531 C 0.92158 0.58985 0.84212 0.0
C532 C 0.92864 0.57992 0.86707 0.0
C533 C 0.91485 0.5566 0.876 0.0
C534 C 0.89322 0.54372 0.86075 0.0
C535 C 0.88617 0.55372 0.83575 0.0
C536 C 0.90627 0.58499 0.76393 0.0
C537 C 0.90092 0.56395 0.75261 0.0
C538 C 0.91391 0.56286 0.72586 0.0
C539 C 0.93259 0.58275 0.70983 0.0
C540 C 0.93718 0.60378 0.72003 0.0
C541 C 0.9241 0.60484 0.74683 0.0
C542 C 0.87389 0.58409 0.79418 0.0
C543 C 0.87087 0.60002 0.80987 0.0
C544 C 0.84967 0.59851 0.80892 0.0
C545 C 0.83092 0.58102 0.79194 0.0
C546 C 0.83381 0.56473 0.77674 0.0
C547 C 0.85504 0.56617 0.77797 0.0
C548 C 0.73005 0.56893 0.8174 0.0
C549 C 0.73096 0.5822 0.84405 0.0
C550 C 0.71356 0.57318 0.8699 0.0
C551 C 0.69456 0.55072 0.86925 0.0
C552 C 0.69447 0.53711 0.84347 0.0
C553 C 0.71214 0.54601 0.81814 0.0
C554 C 0.73598 0.57923 0.75556 0.0
C555 C 0.7254 0.55986 0.73623 0.0
C556 C 0.71161 0.55829 0.70853 0.0
C557 C 0.7088 0.57638 0.69891 0.0
C558 C 0.72154 0.5966 0.71625 0.0
C559 C 0.73466 0.59783 0.74456 0.0
C560 C 0.76682 0.57921 0.78812 0.0
C561 C 0.78808 0.59978 0.78473 0.0
C562 C 0.80876 0.6003 0.78541 0.0
C563 C 0.80866 0.58014 0.7898 0.0
C564 C 0.78722 0.55939 0.79247 0.0
C565 C 0.76645 0.55891 0.79148 0.0
H566 H 0.18441 0.67692 0.30392 0.0
N567 N 0.18148 0.71439 0.29425 0.0
H568 H 0.16816 0.64987 0.35331 0.0
H569 H 0.17163 0.72246 0.35625 0.0
H570 H 0.15743 0.69655 0.4074 0.0
H571 H 0.13632 0.69058 0.28486 0.0
H572 H 0.11552 0.66207 0.24307 0.0
H573 H 0.20115 0.70718 0.23803 0.0
H574 H 0.18064 0.68013 0.19449 0.0
H575 H 0.2245 0.7207 0.2902 0.0
H576 H 0.18774 0.75512 0.28698 0.0
H577 H 0.2612 0.75695 0.28031 0.0
H578 H 0.22411 0.79149 0.27957 0.0
H579 H 0.36547 0.86146 0.2775 0.0
H580 H 0.39477 0.87841 0.32055 0.0
H581 H 0.35516 0.9016 0.37104 0.0
H582 H 0.32667 0.88591 0.32583 0.0
H583 H 0.33923 0.90652 0.24211 0.0
H584 H 0.36428 0.92723 0.19141 0.0
H585 H 0.37011 0.86996 0.17258 0.0
H586 H 0.34485 0.84932 0.2234 0.0
H587 H 0.32381 0.82755 0.29991 0.0
H588 H 0.28854 0.79034 0.30468 0.0
H589 H 0.25395 0.8155 0.24158 0.0
N590 N 0.32861 0.86653 0.26948 0.0
H591 H 0.28887 0.85316 0.2393 0.0
C592 C 0.17844 0.70139 0.32602 0.0
C593 C 0.17881 0.68144 0.32659 0.0
C594 C 0.16964 0.66599 0.35519 0.0
C595 C 0.16065 0.67055 0.38424 0.0
C596 C 0.16316 0.6919 0.38504 0.0
C597 C 0.17164 0.70697 0.35604 0.0
C598 C 0.17027 0.70112 0.26485 0.0
C599 C 0.14605 0.68861 0.26478 0.0
C600 C 0.13418 0.67232 0.24064 0.0
C601 C 0.14629 0.66847 0.21529 0.0
C602 C 0.17063 0.68207 0.21409 0.0
C603 C 0.1825 0.69795 0.23886 0.0
C604 C 0.20343 0.73532 0.2887 0.0
C605 C 0.22441 0.73614 0.28737 0.0
C606 C 0.24539 0.75694 0.28207 0.0
C607 C 0.24582 0.77736 0.27878 0.0
C608 C 0.22465 0.77627 0.28086 0.0
C609 C 0.20377 0.7555 0.28546 0.0
C610 C 0.34405 0.87286 0.29801 0.0
C611 C 0.36303 0.87017 0.29777 0.0
C612 C 0.37972 0.87969 0.32287 0.0
C613 C 0.37763 0.89172 0.34927 0.0
C614 C 0.35777 0.89304 0.35066 0.0
C615 C 0.34128 0.88384 0.32513 0.0
C616 C 0.34029 0.87653 0.23654 0.0
C617 C 0.3455 0.89829 0.22652 0.0
C618 C 0.35978 0.91005 0.19757 0.0
C619 C 0.36929 0.90027 0.17813 0.0
C620 C 0.36324 0.87801 0.1873 0.0
C621 C 0.34873 0.86617 0.21617 0.0
C622 C 0.30897 0.84349 0.26969 0.0
C623 C 0.3087 0.82521 0.28714 0.0
C624 C 0.28841 0.80368 0.28957 0.0
C625 C 0.26806 0.79977 0.27401 0.0
C626 C 0.26891 0.81785 0.25494 0.0
C627 C 0.28898 0.83941 0.25319 0.0
H628 H 0.43283 0.11093 0.72905 0.0
N629 N 0.45409 0.15388 0.7442 0.0
H630 H 0.44468 0.09455 0.68606 0.0
H631 H 0.48632 0.1779 0.69107 0.0
H632 H 0.49724 0.16182 0.64643 0.0
H633 H 0.49928 0.1681 0.75478 0.0
H634 H 0.51336 0.15465 0.80181 0.0
H635 H 0.43088 0.13101 0.80191 0.0
H636 H 0.44493 0.11784 0.84972 0.0
H637 H 0.41737 0.1572 0.73977 0.0
H638 H 0.49164 0.19749 0.74281 0.0
H639 H 0.41612 0.19148 0.7373 0.0
H640 H 0.49085 0.23197 0.73808 0.0
H641 H 0.42313 0.30065 0.68583 0.0
H642 H 0.43767 0.32916 0.63827 0.0
H643 H 0.50775 0.35072 0.66559 0.0
H644 H 0.49259 0.31982 0.70893 0.0
H645 H 0.48772 0.3247 0.76404 0.0
H646 H 0.49118 0.34814 0.81017 0.0
H647 H 0.41675 0.31364 0.81923 0.0
H648 H 0.41343 0.29043 0.77134 0.0
H649 H 0.42055 0.25594 0.70209 0.0
H650 H 0.42305 0.22239 0.70236 0.0
H651 H 0.48213 0.25488 0.76775 0.0
N652 N 0.4476 0.29411 0.73262 0.0
H653 H 0.48039 0.28867 0.76533 0.0
C654 C 0.45854 0.14558 0.71359 0.0
C655 C 0.44659 0.12212 0.71057 0.0
C656 C 0.4534 0.11279 0.68575 0.0
C657 C 0.47216 0.12679 0.6627 0.0
C658 C 0.48312 0.15043 0.66422 0.0
C659 C 0.47662 0.15974 0.68964 0.0
C660 C 0.46392 0.15039 0.77483 0.0
C661 C 0.48746 0.15768 0.77588 0.0
C662 C 0.49549 0.14996 0.80285 0.0
C663 C 0.48018 0.13489 0.82927 0.0
C664 C 0.45705 0.12907 0.82941 0.0
C665 C 0.44904 0.13673 0.80237 0.0
C666 C 0.45448 0.17472 0.74106 0.0
C667 C 0.43343 0.17352 0.7393 0.0
C668 C 0.43282 0.1932 0.73763 0.0
C669 C 0.45341 0.21468 0.73719 0.0
C670 C 0.4746 0.21582 0.73882 0.0
C671 C 0.47513 0.19605 0.74111 0.0
C672 C 0.45675 0.30878 0.70182 0.0
C673 C 0.4416 0.31127 0.68074 0.0
C674 C 0.4501 0.328 0.65392 0.0
C675 C 0.47411 0.34338 0.64855 0.0
C676 C 0.48919 0.33962 0.66841 0.0
C677 C 0.48057 0.32214 0.69408 0.0
C678 C 0.45017 0.30561 0.7639 0.0
C679 C 0.47202 0.32172 0.77599 0.0
C680 C 0.47401 0.33518 0.80285 0.0
C681 C 0.45425 0.33289 0.81853 0.0
C682 C 0.43236 0.31608 0.80747 0.0
C683 C 0.43039 0.30264 0.78038 0.0
C684 C 0.44993 0.27476 0.73401 0.0
C685 C 0.43407 0.25578 0.71637 0.0
C686 C 0.43544 0.23653 0.71682 0.0
C687 C 0.45264 0.23567 0.73546 0.0
C688 C 0.46879 0.2549 0.75279 0.0
C689 C 0.46763 0.27432 0.75177 0.0
H690 H 0.08627 0.50472 0.11044 0.0
H691 H 0.04946 0.44007 0.06491 0.0
H692 H 0.07335 0.42856 0.0954 0.0
H693 H 0.10382 0.43661 0.13642 0.0
H694 H 0.13947 0.50084 0.18407 0.0
H695 H 0.11743 0.51307 0.15073 0.0
C696 C 0.08368 0.48819 0.10723 0.0
C697 C 0.06628 0.47315 0.08577 0.0
C698 C 0.09734 0.48172 0.12501 0.0
C699 C 0.06284 0.45177 0.08149 0.0
C700 C 0.07646 0.44526 0.09887 0.0
C701 C 0.10674 0.45327 0.13963 0.0
C702 C 0.12331 0.46772 0.16286 0.0
C703 C 0.09361 0.46002 0.12097 0.0
C704 C 0.12712 0.48943 0.16609 0.0
C705 C 0.11435 0.49639 0.14727 0.0
H706 H 0.60236 0.08105 0.58204 0.0
H707 H 0.62166 0.03424 0.55411 0.0
H708 H 0.65748 0.05512 0.58594 0.0
H709 H 0.68237 0.08582 0.62351 0.0
H710 H 0.66183 0.1315 0.65395 0.0
H711 H 0.62786 0.11243 0.6186 0.0
C712 C 0.61459 0.07564 0.58286 0.0
C713 C 0.60964 0.05628 0.56602 0.0
C714 C 0.63493 0.08759 0.60144 0.0
C715 C 0.62534 0.04917 0.56706 0.0
C716 C 0.64572 0.06108 0.5852 0.0
C717 C 0.67046 0.09161 0.62252 0.0
C718 C 0.67477 0.11011 0.64153 0.0
C719 C 0.65057 0.08018 0.60282 0.0
C720 C 0.65928 0.11757 0.63927 0.0
C721 C 0.63965 0.10651 0.61931 0.0
H722 H 0.5445 0.60186 0.06408 0.0
H723 H 0.5924 0.58624 0.10949 0.0
H724 H 0.60822 0.6194 0.14364 0.0
H725 H 0.60697 0.6513 0.16328 0.0
H726 H 0.56092 0.66881 0.11621 0.0
H727 H 0.54586 0.63636 0.08012 0.0
C728 C 0.55865 0.60591 0.08102 0.0
C729 C 0.56694 0.59129 0.08458 0.0
C730 C 0.5679 0.62523 0.10051 0.0
C731 C 0.58523 0.5968 0.10685 0.0
C732 C 0.59442 0.61587 0.12627 0.0
C733 C 0.59406 0.64848 0.14457 0.0
C734 C 0.58514 0.6626 0.14265 0.0
C735 C 0.58566 0.62999 0.12369 0.0
C736 C 0.56793 0.6581 0.11873 0.0
C737 C 0.55937 0.63959 0.09792 0.0
H738 H 0.0114 0.57818 0.63335 0.0
H739 H 0.95199 0.52153 0.58962 0.0
H740 H 0.92654 0.53123 0.61745 0.0
H741 H 0.92082 0.55337 0.65877 0.0
H742 H 0.97988 0.60861 0.70575 0.0
H743 H 0.00579 0.6024 0.67142 0.0
C744 C 0.99293 0.5683 0.62945 0.0
C745 C 0.9835 0.54908 0.6098 0.0
C746 C 0.97832 0.57367 0.64621 0.0
C747 C 0.95955 0.53626 0.60501 0.0
C748 C 0.94501 0.54179 0.62089 0.0
C749 C 0.93937 0.56414 0.66136 0.0
C750 C 0.94833 0.58127 0.68507 0.0
C751 C 0.95414 0.56004 0.64235 0.0
C752 C 0.97246 0.59539 0.68753 0.0
C753 C 0.98732 0.59171 0.66814 0.0
H754 H 0.43762 0.96979 0.06042 0.0
H755 H 0.48032 0.94615 0.1001 0.0
H756 H 0.44911 0.91929 0.14078 0.0
H757 H 0.41036 0.90389 0.16661 0.0
H758 H 0.36767 0.92787 0.12743 0.0
H759 H 0.39808 0.95323 0.08492 0.0
C760 C 0.43988 0.95862 0.07797 0.0
C761 C 0.461 0.95976 0.07767 0.0
C762 C 0.42193 0.94338 0.10126 0.0
C763 C 0.46406 0.94539 0.10023 0.0
C764 C 0.44628 0.9301 0.12336 0.0
C765 C 0.40755 0.91437 0.14836 0.0
C766 C 0.38678 0.91398 0.15015 0.0
C767 C 0.42519 0.92907 0.12428 0.0
C768 C 0.38358 0.92798 0.12673 0.0
C769 C 0.40094 0.94247 0.10242 0.0
H770 H 0.53033 0.4375 0.56283 0.0
H771 H 0.46374 0.43042 0.56609 0.0
H772 H 0.447 0.39369 0.5978 0.0
H773 H 0.4522 0.36538 0.62763 0.0
H774 H 0.51699 0.36883 0.61452 0.0
H775 H 0.53353 0.40539 0.58365 0.0
C776 C 0.51207 0.42769 0.57001 0.0
C777 C 0.49834 0.43677 0.56285 0.0
C778 C 0.50234 0.40615 0.58669 0.0
C779 C 0.47468 0.42389 0.57198 0.0
C780 C 0.46513 0.40291 0.58996 0.0
C781 C 0.46971 0.37345 0.61729 0.0
C782 C 0.48327 0.3641 0.62468 0.0
C783 C 0.4789 0.39402 0.59784 0.0
C784 C 0.50614 0.37567 0.61097 0.0
C785 C 0.51567 0.39662 0.59281 0.0
H786 H 0.54724 0.92489 0.45545 0.0
H787 H 0.60215 0.98793 0.40694 0.0
H788 H 0.61479 0.96753 0.3737 0.0
H789 H 0.60899 0.93199 0.35583 0.0
H790 H 0.5561 0.86883 0.40676 0.0
H791 H 0.54398 0.88921 0.4416 0.0
C792 C 0.56223 0.93423 0.43809 0.0
C793 C 0.57344 0.95795 0.43339 0.0
C794 C 0.56969 0.9224 0.41927 0.0
C795 C 0.59274 0.96966 0.41049 0.0
C796 C 0.60012 0.95802 0.39159 0.0
C797 C 0.5952 0.92258 0.37513 0.0
C798 C 0.5835 0.89879 0.37842 0.0
C799 C 0.58853 0.93439 0.39541 0.0
C800 C 0.56524 0.88707 0.40311 0.0
C801 C 0.55835 0.89874 0.42323 0.0
H802 H 0.59931 0.49774 0.95405 0.0
H803 H 0.61294 0.56526 0.95829 0.0
H804 H 0.65023 0.58066 0.92789 0.0
H805 H 0.67717 0.57442 0.89627 0.0
H806 H 0.66544 0.50721 0.89685 0.0
H807 H 0.62912 0.49219 0.92916 0.0
C808 C 0.61069 0.51584 0.94877 0.0
C809 C 0.60342 0.53038 0.95793 0.0
C810 C 0.63225 0.52457 0.93189 0.0
C811 C 0.61821 0.55381 0.95112 0.0
C812 C 0.63946 0.56257 0.93377 0.0
C813 C 0.66713 0.55657 0.90415 0.0
C814 C 0.6741 0.54202 0.89336 0.0
C815 C 0.64648 0.54806 0.92351 0.0
C816 C 0.66037 0.51884 0.9037 0.0
C817 C 0.63959 0.5102 0.92247 0.0
H818 H 0.08394 0.5954 0.48789 0.0
H819 H 0.12342 0.56464 0.47291 0.0
H820 H 0.15246 0.59823 0.43775 0.0
H821 H 0.16517 0.63541 0.40882 0.0
H822 H 0.12281 0.66384 0.4203 0.0
H823 H 0.09684 0.63252 0.45994 0.0
C824 C 0.09895 0.59616 0.47684 0.0
C825 C 0.10151 0.57764 0.48219 0.0
C826 C 0.11514 0.61519 0.45627 0.0
C827 C 0.12111 0.57873 0.46853 0.0
C828 C 0.13763 0.59789 0.44853 0.0
C829 C 0.15025 0.63479 0.41982 0.0
C830 C 0.14627 0.65229 0.41135 0.0
C831 C 0.1346 0.61608 0.44171 0.0
C832 C 0.12693 0.65116 0.42667 0.0
C833 C 0.11174 0.633 0.44913 0.0
H834 H 0.52847 0.09789 0.92619 0.0
H835 H 0.46337 0.03533 0.91399 0.0
H836 H 0.44952 0.05554 0.87941 0.0
H837 H 0.45641 0.09052 0.85063 0.0
H838 H 0.52106 0.15337 0.86322 0.0
H839 H 0.53451 0.13348 0.89994 0.0
C840 C 0.51113 0.08872 0.91637 0.0
C841 C 0.49706 0.06508 0.92249 0.0
C842 C 0.50321 0.10047 0.89656 0.0
C843 C 0.47474 0.05345 0.90917 0.0
C844 C 0.46673 0.06501 0.88957 0.0
C845 C 0.47326 0.1 0.86198 0.0
C846 C 0.48766 0.12343 0.85427 0.0
C847 C 0.48089 0.08847 0.88285 0.0
C848 C 0.50968 0.1353 0.86855 0.0
C849 C 0.51736 0.12395 0.88958 0.0
H850 H 0.43739 0.45909 0.41573 0.0
H851 H 0.4459 0.52179 0.44542 0.0
H852 H 0.41228 0.5141 0.41237 0.0
H853 H 0.38152 0.49037 0.37275 0.0
H854 H 0.37455 0.42861 0.34117 0.0
H855 H 0.4063 0.43507 0.37742 0.0
C856 C 0.43197 0.47114 0.41485 0.0
C857 C 0.44426 0.49105 0.43286 0.0
C858 C 0.41281 0.46675 0.39551 0.0
C859 C 0.43666 0.50624 0.43203 0.0
C860 C 0.41751 0.50192 0.41296 0.0
C861 C 0.38695 0.47833 0.37378 0.0
C862 C 0.37553 0.45899 0.35425 0.0
C863 C 0.40561 0.48235 0.39426 0.0
C864 C 0.38266 0.44343 0.35633 0.0
C865 C 0.40101 0.44721 0.37683 0.0
H866 H 0.95331 0.39283 0.97152 0.0
H867 H 0.96524 0.44369 0.89236 0.0
H868 H 0.94494 0.41453 0.85114 0.0
H869 H 0.92606 0.37506 0.83646 0.0
H870 H 0.91305 0.3237 0.91534 0.0
H871 H 0.93146 0.3526 0.95775 0.0
C872 C 0.95117 0.39749 0.9454 0.0
C873 C 0.96109 0.42047 0.93497 0.0
C874 C 0.93941 0.38058 0.92169 0.0
C875 C 0.95824 0.42619 0.90091 0.0
C876 C 0.94652 0.40952 0.87733 0.0
C877 C 0.92674 0.37004 0.86308 0.0
C878 C 0.9182 0.34719 0.87258 0.0
C879 C 0.93735 0.38671 0.88728 0.0
C880 C 0.91974 0.34118 0.90714 0.0
C881 C 0.93021 0.3577 0.93145 0.0
H882 H 0.95729 0.50358 0.94536 0.0
H883 H 0.98575 0.55959 0.01144 0.0
H884 H 0.96433 0.57429 0.98165 0.0
H885 H 0.93917 0.57209 0.93474 0.0
H886 H 0.91171 0.51649 0.86742 0.0
H887 H 0.93051 0.50038 0.90019 0.0
C888 C 0.95853 0.51889 0.95324 0.0
C889 C 0.97295 0.53065 0.98023 0.0
C890 C 0.9463 0.5272 0.93589 0.0
C891 C 0.97466 0.55043 0.99057 0.0
C892 C 0.96247 0.55877 0.97357 0.0
C893 C 0.93724 0.55642 0.9273 0.0
C894 C 0.92408 0.54558 0.89857 0.0
C895 C 0.9485 0.54746 0.94586 0.0
C896 C 0.92147 0.52507 0.88965 0.0
C897 C 0.93241 0.51593 0.90818 0.0
H898 H 0.46716 0.93643 0.4391 0.0
H899 H 0.45094 0.98797 0.44419 0.0
H900 H 0.41646 0.9656 0.41031 0.0
H901 H 0.3923 0.93237 0.37697 0.0
H902 H 0.40643 0.87899 0.37662 0.0
H903 H 0.44041 0.90114 0.41089 0.0
C904 C 0.45589 0.94257 0.43297 0.0
C905 C 0.46159 0.96386 0.44356 0.0
C906 C 0.43587 0.92939 0.41427 0.0
C907 C 0.44691 0.97171 0.43583 0.0
C908 C 0.42724 0.95892 0.41658 0.0
C909 C 0.4024 0.92522 0.38498 0.0
C910 C 0.39679 0.90404 0.37364 0.0
C911 C 0.42167 0.93782 0.4054 0.0
C912 C 0.41053 0.89544 0.38406 0.0
C913 C 0.42994 0.90804 0.4039 0.0
H914 H 0.45967 0.40946 0.90631 0.0
H915 H 0.51832 0.40904 0.94661 0.0
H916 H 0.50897 0.37686 0.91285 0.0
H917 H 0.48562 0.35023 0.86945 0.0
H918 H 0.42883 0.35245 0.82548 0.0
H919 H 0.43578 0.3822 0.86346 0.0
C920 C 0.47048 0.40241 0.9076 0.0
C921 C 0.4897 0.41177 0.92903 0.0
C922 C 0.4653 0.38412 0.88752 0.0
C923 C 0.50323 0.40207 0.9308 0.0
C924 C 0.498 0.38372 0.91128 0.0
C925 C 0.47477 0.35723 0.86806 0.0
C926 C 0.45682 0.34913 0.84439 0.0
C927 C 0.47928 0.37482 0.88922 0.0
C928 C 0.44261 0.35809 0.84365 0.0
C929 C 0.44672 0.37531 0.86514 0.0
H930 H 0.06724 0.44655 0.45722 0.0
H931 H 0.12847 0.50806 0.48642 0.0
H932 H 0.15222 0.50106 0.44818 0.0
H933 H 0.15514 0.47898 0.40294 0.0
H934 H 0.09347 0.41824 0.37248 0.0
H935 H 0.07047 0.42332 0.41484 0.0
C936 C 0.0858 0.45838 0.4553 0.0
C937 C 0.09603 0.47787 0.47445 0.0
C938 C 0.0993 0.45441 0.43294 0.0
C939 C 0.12016 0.49283 0.47217 0.0
C940 C 0.13374 0.48893 0.45009 0.0
C941 C 0.13669 0.46681 0.40569 0.0
C942 C 0.12609 0.44829 0.38443 0.0
C943 C 0.12343 0.47002 0.42981 0.0
C944 C 0.10218 0.4325 0.38873 0.0
C945 C 0.08894 0.43549 0.41277 0.0
H946 H 0.60628 0.08545 0.93684 0.0
H947 H 0.61717 0.03018 0.94743 0.0
H948 H 0.65221 0.05139 0.91049 0.0
H949 H 0.67767 0.08427 0.87173 0.0
H950 H 0.66884 0.14116 0.86524 0.0
H951 H 0.635 0.12063 0.90403 0.0
C952 C 0.61659 0.07828 0.93141 0.0
C953 C 0.60914 0.05625 0.9443 0.0
C954 C 0.63688 0.09072 0.9107 0.0
C955 C 0.62257 0.04706 0.93737 0.0
C956 C 0.64254 0.05916 0.9163 0.0
C957 C 0.66884 0.09256 0.87938 0.0
C958 C 0.67577 0.11421 0.86486 0.0
C959 C 0.64963 0.08086 0.90234 0.0
C960 C 0.66365 0.1243 0.87503 0.0
C961 C 0.64432 0.11263 0.89747 0.0
H962 H 0.59848 0.60456 0.44404 0.0
H963 H 0.52615 0.58113 0.45144 0.0
H964 H 0.53323 0.61436 0.41622 0.0
H965 H 0.55954 0.64855 0.38031 0.0
H966 H 0.63108 0.66912 0.36689 0.0
H967 H 0.62491 0.63898 0.40805 0.0
C968 C 0.58436 0.60686 0.43787 0.0
C969 C 0.56183 0.59046 0.44976 0.0
C970 C 0.58844 0.62551 0.41663 0.0
C971 C 0.54361 0.59358 0.44223 0.0
C972 C 0.54765 0.61251 0.42209 0.0
C973 C 0.57381 0.64642 0.38604 0.0
C974 C 0.59574 0.66121 0.3701 0.0
C975 C 0.56993 0.62833 0.40854 0.0
C976 C 0.61408 0.65839 0.37895 0.0
C977 C 0.61053 0.64093 0.40228 0.0
H978 H 0.52724 0.09311 0.58007 0.0
H979 H 0.45849 0.03452 0.57272 0.0
H980 H 0.44236 0.05383 0.60145 0.0
H981 H 0.44801 0.08678 0.63041 0.0
H982 H 0.51736 0.14385 0.64287 0.0
H983 H 0.53287 0.12612 0.60922 0.0
C984 C 0.50872 0.08471 0.58451 0.0
C985 C 0.49404 0.06248 0.57438 0.0
C986 C 0.49965 0.09571 0.60169 0.0
C987 C 0.4701 0.0516 0.58057 0.0
C988 C 0.46089 0.06265 0.59688 0.0
C989 C 0.46654 0.09535 0.62609 0.0
C990 C 0.48136 0.11672 0.63941 0.0
C991 C 0.47554 0.08461 0.60795 0.0
C992 C 0.50532 0.12765 0.63255 0.0
C993 C 0.51433 0.11738 0.6136 0.0
H994 H 0.46173 0.50728 0.08736 0.0
H995 H 0.42805 0.4429 0.04102 0.0
H996 H 0.39148 0.43163 0.07097 0.0
H997 H 0.36971 0.43972 0.11213 0.0
H998 H 0.40418 0.50376 0.16038 0.0
H999 H 0.43957 0.51582 0.12727 0.0
C1000 C 0.44626 0.49088 0.08382 0.0
C1001 C 0.4473 0.47583 0.06234 0.0
C1002 C 0.42547 0.48456 0.10126 0.0
C1003 C 0.42739 0.45461 0.05763 0.0
C1004 C 0.40659 0.44823 0.0747 0.0
C1005 C 0.38495 0.45631 0.11544 0.0
C1006 C 0.38416 0.47075 0.13881 0.0
C1007 C 0.40549 0.46298 0.0969 0.0
C1008 C 0.40405 0.49237 0.14224 0.0
C1009 C 0.42444 0.49923 0.12357 0.0
H1010 H 0.02199 0.43472 0.63264 0.0
H1011 H 0.97906 0.41769 0.54449 0.0
H1012 H 0.95545 0.37881 0.56719 0.0
H1013 H 0.94256 0.35124 0.61759 0.0
H1014 H 0.98591 0.36871 0.70603 0.0
H1015 H 0.01311 0.4059 0.67855 0.0
C1016 C 0.00653 0.42312 0.61947 0.0
C1017 C 0.99924 0.4306 0.59066 0.0
C1018 C 0.99308 0.40058 0.6328 0.0
C1019 C 0.98259 0.41367 0.57 0.0
C1020 C 0.96939 0.39107 0.58248 0.0
C1021 C 0.95808 0.36312 0.63067 0.0
C1022 C 0.96193 0.35733 0.66409 0.0
C1023 C 0.97349 0.38471 0.61507 0.0
C1024 C 0.98248 0.37267 0.68029 0.0
C1025 C 0.998 0.39404 0.66469 0.0
H1026 H 0.57907 0.94747 0.06204 0.0
H1027 H 0.53518 0.94953 0.1399 0.0
H1028 H 0.54152 0.92519 0.17923 0.0
H1029 H 0.56046 0.90442 0.19225 0.0
H1030 H 0.60534 0.90288 0.1157 0.0
H1031 H 0.59775 0.92593 0.07501 0.0
C1032 C 0.5708 0.9424 0.08753 0.0
C1033 C 0.55678 0.95033 0.09818 0.0
C1034 C 0.57474 0.92859 0.1102 0.0
C1035 C 0.54628 0.94385 0.13134 0.0
C1036 C 0.54981 0.92987 0.15377 0.0
C1037 C 0.5683 0.90885 0.16647 0.0
C1038 C 0.58327 0.90183 0.15684 0.0
C1039 C 0.56412 0.92229 0.14356 0.0
C1040 C 0.59377 0.90814 0.12367 0.0
C1041 C 0.58941 0.92127 0.10043 0.0
H1042 H 0.62661 0.56917 0.61409 0.0
H1043 H 0.63447 0.52051 0.56118 0.0
H1044 H 0.66845 0.53012 0.5947 0.0
H1045 H 0.69436 0.55053 0.6418 0.0
H1046 H 0.6825 0.59533 0.69906 0.0
H1047 H 0.65192 0.58909 0.66089 0.0
C1048 C 0.63553 0.56042 0.61002 0.0
C1049 C 0.62767 0.54391 0.58534 0.0
C1050 C 0.65451 0.5654 0.63019 0.0
C1051 C 0.6401 0.53341 0.57977 0.0
C1052 C 0.65947 0.53876 0.59917 0.0
C1053 C 0.68506 0.55886 0.64619 0.0
C1054 C 0.69113 0.57354 0.67347 0.0
C1055 C 0.66658 0.55444 0.62494 0.0
C1056 C 0.67893 0.58442 0.67797 0.0
C1057 C 0.6611 0.58064 0.65634 0.0
H1058 H 0.10437 0.58341 0.12331 0.0
H1059 H 0.04581 0.59099 0.12668 0.0
H1060 H 0.06759 0.62457 0.16034 0.0
H1061 H 0.10327 0.65169 0.18849 0.0
H1062 H 0.1605 0.64166 0.18959 0.0
H1063 H 0.13955 0.60971 0.15342 0.0
C1064 C 0.09646 0.5925 0.13136 0.0
C1065 C 0.07361 0.58486 0.12253 0.0
C1066 C 0.10894 0.61152 0.15111 0.0
C1067 C 0.06337 0.59654 0.13342 0.0
C1068 C 0.07584 0.61577 0.15249 0.0
C1069 C 0.11116 0.64244 0.18127 0.0
C1070 C 0.13365 0.64943 0.19184 0.0
C1071 C 0.09863 0.62338 0.16155 0.0
C1072 C 0.14355 0.63727 0.18134 0.0
C1073 C 0.13144 0.61871 0.16093 0.0
loop_
_geom_bond_atom_site_label_1
_geom_bond_atom_site_label_2
_geom_bond_distance
_geom_bond_site_symmetry_2
_ccdc_geom_bond_type
C0 C1 1.443 . S
C0 N4 1.376 . S
C0 C38 1.389 . S
C1 C0 1.443 . S
C1 C2 1.340 . S
C1 H41 0.951 . S
C2 C1 1.340 . S
C2 C3 1.439 . S
C2 H42 0.950 . S
C3 C2 1.439 . S
C3 N4 1.374 . S
C3 C37 1.395 . S
N4 C0 1.376 . S
N4 C3 1.374 . S
N4 Co5 2.008 1_655 S
Co5 N4 2.008 1_455 S
Co5 N6 1.995 . S
Co5 N11 2.008 . S
Co5 N16 1.995 . S
Co5 N21 2.282 . S
Co5 N27 2.282 1_455 S
N6 Co5 1.995 . S
N6 C7 1.376 1_455 S
N6 C10 1.383 . S
C7 N6 1.376 1_655 S
C7 C8 1.446 . S
C7 C37 1.391 . S
C8 C7 1.446 . S
C8 C9 1.339 1_655 S
C8 H43 0.949 . S
C9 C8 1.339 1_455 S
C9 C10 1.439 . S
C9 H44 0.950 . S
C10 N6 1.383 . S
C10 C9 1.439 . S
C10 C39 1.392 . S
N11 Co5 2.008 . S
N11 C12 1.376 . S
N11 C15 1.374 . S
C12 N11 1.376 . S
C12 C13 1.443 . S
C12 C39 1.389 . S
C13 C12 1.443 . S
C13 C14 1.340 . S
C13 H45 0.951 . S
C14 C13 1.340 . S
C14 C15 1.439 . S
C14 H46 0.950 1_554 S
C15 N11 1.374 . S
C15 C14 1.439 . S
C15 C40 1.395 1_554 S
N16 Co5 1.995 . S
N16 C17 1.376 1_554 S
N16 C20 1.383 1_454 S
C17 N16 1.376 1_556 S
C17 C18 1.446 . S
C17 C40 1.391 . S
C18 C17 1.446 . S
C18 C19 1.339 1_455 S
C18 H47 0.949 . S
C19 C18 1.339 1_655 S
C19 C20 1.439 . S
C19 H48 0.950 . S
C20 N16 1.383 1_656 S
C20 C19 1.439 . S
C20 C38 1.392 1_556 S
N21 Co5 2.282 . S
N21 C24 1.332 . S
N21 C26 1.332 . S
C22 C23 1.386 . S
C22 C25 1.388 . S
C23 C22 1.386 . S
C23 C24 1.382 . S
C23 H49 0.950 . S
C24 N21 1.332 . S
C24 C23 1.382 . S
C24 H35 0.952 . S
C25 C22 1.388 . S
C25 C26 1.382 . S
C25 H50 0.950 . S
C26 N21 1.332 . S
C26 C25 1.382 . S
C26 H36 0.948 . S
N27 Co5 2.282 1_655 S
N27 C31 1.332 . S
N27 C32 1.332 1_554 S
C28 C29 1.388 . S
C28 C32 1.382 . S
C28 H51 0.950 . S
C29 C28 1.388 . S
C29 C30 1.386 1_556 S
C30 C29 1.386 1_554 S
C30 C31 1.382 . S
C30 H52 0.950 . S
C31 N27 1.332 . S
C31 C30 1.382 . S
C31 H33 0.952 . S
C32 N27 1.332 1_556 S
C32 C28 1.382 . S
C32 H34 0.948 . S
H33 C31 0.952 . S
H34 C32 0.948 . S
H35 C24 0.952 . S
H36 C26 0.948 . S
C37 C3 1.395 . S
C37 C7 1.391 . S
C38 C0 1.389 . S
C38 C20 1.392 1_554 S
C39 C10 1.392 . S
C39 C12 1.389 . S
C40 C15 1.395 1_556 S
C40 C17 1.391 . S
H41 C1 0.951 . S
H42 C2 0.950 . S
H43 C8 0.949 . S
H44 C9 0.950 . S
H45 C13 0.951 . S
H46 C14 0.950 1_556 S
H47 C18 0.949 . S
H48 C19 0.950 . S
H49 C23 0.950 . S
H50 C25 0.950 . S
H51 C28 0.950 . S
H52 C30 0.950 . S
C53 C54 1.443 . S
C53 N57 1.376 . S
C53 C91 1.389 . S
C54 C53 1.443 . S
C54 C55 1.340 . S
C54 H94 0.951 . S
C55 C54 1.340 . S
C55 C56 1.439 1_545 S
C55 H95 0.950 1_545 S
C56 C55 1.439 1_565 S
C56 N57 1.374 1_565 S
C56 C90 1.395 . S
N57 C53 1.376 . S
N57 C56 1.374 1_545 S
N57 Co58 2.008 . S
Co58 N57 2.008 . S
Co58 N59 1.995 1_545 S
Co58 N64 2.008 . S
Co58 N69 1.995 . S
Co58 N74 2.282 1_545 S
Co58 N80 2.282 . S
N59 Co58 1.995 1_565 S
N59 C60 1.376 . S
N59 C63 1.383 . S
C60 N59 1.376 . S
C60 C61 1.446 . S
C60 C90 1.391 . S
C61 C60 1.446 . S
C61 C62 1.339 . S
C61 H96 0.949 . S
C62 C61 1.339 . S
C62 C63 1.439 . S
C62 H97 0.950 . S
C63 N59 1.383 . S
C63 C62 1.439 . S
C63 C92 1.392 . S
N64 Co58 2.008 . S
N64 C65 1.376 1_545 S
N64 C68 1.374 . S
C65 N64 1.376 1_565 S
C65 C66 1.443 . S
C65 C92 1.389 . S
C66 C65 1.443 . S
C66 C67 1.340 1_565 S
C66 H98 0.951 . S
C67 C66 1.340 1_545 S
C67 C68 1.439 . S
C67 H99 0.950 . S
C68 N64 1.374 . S
C68 C67 1.439 . S
C68 C93 1.395 . S
N69 Co58 1.995 . S
N69 C70 1.376 . S
N69 C73 1.383 . S
C70 N69 1.376 . S
C70 C71 1.446 . S
C70 C93 1.391 . S
C71 C70 1.446 . S
C71 C72 1.339 . S
C71 H100 0.949 . S
C72 C71 1.339 . S
C72 C73 1.439 . S
C72 H101 0.950 . S
C73 N69 1.383 . S
C73 C72 1.439 . S
C73 C91 1.392 . S
N74 Co58 2.282 1_565 S
N74 C77 1.332 . S
N74 C79 1.332 . S
C75 C76 1.386 . S
C75 C78 1.388 . S
C76 C75 1.386 . S
C76 C77 1.382 . S
C76 H102 0.950 . S
C77 N74 1.332 . S
C77 C76 1.382 . S
C77 H88 0.952 1_565 S
C78 C75 1.388 . S
C78 C79 1.382 . S
C78 H103 0.950 . S
C79 N74 1.332 . S
C79 C78 1.382 . S
C79 H89 0.948 . S
N80 Co58 2.282 . S
N80 C84 1.332 . S
N80 C85 1.332 . S
C81 C82 1.388 . S
C81 C85 1.382 . S
C81 H104 0.950 . S
C82 C81 1.388 . S
C82 C83 1.386 . S
C83 C82 1.386 . S
C83 C84 1.382 . S
C83 H105 0.950 . S
C84 N80 1.332 . S
C84 C83 1.382 . S
C84 H86 0.952 . S
C85 N80 1.332 . S
C85 C81 1.382 . S
C85 H87 0.948 . S
H86 C84 0.952 . S
H87 C85 0.948 . S
H88 C77 0.952 1_545 S
H89 C79 0.948 . S
C90 C56 1.395 . S
C90 C60 1.391 . S
C91 C53 1.389 . S
C91 C73 1.392 . S
C92 C63 1.392 . S
C92 C65 1.389 . S
C93 C68 1.395 . S
C93 C70 1.391 . S
H94 C54 0.951 . S
H95 C55 0.950 1_565 S
H96 C61 0.949 . S
H97 C62 0.950 . S
H98 C66 0.951 . S
H99 C67 0.950 . S
H100 C71 0.949 . S
H101 C72 0.950 . S
H102 C76 0.950 . S
H103 C78 0.950 . S
H104 C81 0.950 . S
H105 C83 0.950 . S
C106 C107 1.443 . S
C106 N110 1.376 . S
C106 C144 1.389 . S
C107 C106 1.443 . S
C107 C108 1.340 . S
C107 H147 0.951 . S
C108 C107 1.340 . S
C108 C109 1.439 . S
C108 H148 0.950 . S
C109 C108 1.439 . S
C109 N110 1.374 . S
C109 C143 1.395 . S
N110 C106 1.376 . S
N110 C109 1.374 . S
N110 Co111 2.008 1_556 S
Co111 N110 2.008 1_554 S
Co111 N112 1.995 1_554 S
Co111 N117 2.008 . S
Co111 N122 1.995 . S
Co111 N127 2.282 . S
Co111 N133 2.282 1_554 S
N112 Co111 1.995 1_556 S
N112 C113 1.376 . S
N112 C116 1.383 1_556 S
C113 N112 1.376 . S
C113 C114 1.446 . S
C113 C143 1.391 . S
C114 C113 1.446 . S
C114 C115 1.339 . S
C114 H149 0.949 . S
C115 C114 1.339 . S
C115 C116 1.439 1_556 S
C115 H150 0.950 . S
C116 N112 1.383 1_554 S
C116 C115 1.439 1_554 S
C116 C145 1.392 . S
N117 Co111 2.008 . S
N117 C118 1.376 . S
N117 C121 1.374 . S
C118 N117 1.376 . S
C118 C119 1.443 . S
C118 C145 1.389 . S
C119 C118 1.443 . S
C119 C120 1.340 . S
C119 H151 0.951 . S
C120 C119 1.340 . S
C120 C121 1.439 . S
C120 H152 0.950 . S
C121 N117 1.374 . S
C121 C120 1.439 . S
C121 C146 1.395 . S
N122 Co111 1.995 . S
N122 C123 1.376 . S
N122 C126 1.383 . S
C123 N122 1.376 . S
C123 C124 1.446 . S
C123 C146 1.391 . S
C124 C123 1.446 . S
C124 C125 1.339 . S
C124 H153 0.949 . S
C125 C124 1.339 . S
C125 C126 1.439 . S
C125 H154 0.950 . S
C126 N122 1.383 . S
C126 C125 1.439 . S
C126 C144 1.391 1_554 S
N127 Co111 2.282 . S
N127 C130 1.332 . S
N127 C132 1.332 . S
C128 C129 1.386 . S
C128 C131 1.388 . S
C129 C128 1.386 . S
C129 C130 1.382 . S
C129 H155 0.950 . S
C130 N127 1.332 . S
C130 C129 1.382 . S
C130 H141 0.952 . S
C131 C128 1.388 . S
C131 C132 1.382 . S
C131 H156 0.950 . S
C132 N127 1.332 . S
C132 C131 1.382 . S
C132 H142 0.948 1_554 S
N133 Co111 2.282 1_556 S
N133 C137 1.332 . S
N133 C138 1.332 . S
C134 C135 1.388 . S
C134 C138 1.382 . S
C134 H157 0.950 . S
C135 C134 1.388 . S
C135 C136 1.386 . S
C136 C135 1.386 . S
C136 C137 1.382 . S
C136 H158 0.950 . S
C137 N133 1.332 . S
C137 C136 1.382 . S
C137 H139 0.952 . S
C138 N133 1.332 . S
C138 C134 1.382 . S
C138 H140 0.948 1_556 S
H139 C137 0.952 . S
H140 C138 0.948 1_554 S
H141 C130 0.952 . S
H142 C132 0.948 1_556 S
C143 C109 1.395 . S
C143 C113 1.391 . S
C144 C106 1.389 . S
C144 C126 1.391 1_556 S
C145 C116 1.392 . S
C145 C118 1.389 . S
C146 C121 1.395 . S
C146 C123 1.391 . S
H147 C107 0.951 . S
H148 C108 0.950 . S
H149 C114 0.949 . S
H150 C115 0.950 . S
H151 C119 0.951 . S
H152 C120 0.950 . S
H153 C124 0.949 . S
H154 C125 0.950 . S
H155 C129 0.950 . S
H156 C131 0.950 . S
H157 C134 0.950 . S
H158 C136 0.950 . S
C159 C160 1.443 1_455 S
C159 N163 1.376 . S
C159 C197 1.389 . S
C160 C159 1.443 1_655 S
C160 C161 1.340 . S
C160 H200 0.951 . S
C161 C160 1.340 . S
C161 C162 1.439 1_655 S
C161 H201 0.950 . S
C162 C161 1.439 1_455 S
C162 N163 1.374 . S
C162 C196 1.395 . S
N163 C159 1.376 . S
N163 C162 1.374 . S
N163 Co164 2.008 . S
Co164 N163 2.008 . S
Co164 N165 1.995 . S
Co164 N170 2.008 . S
Co164 N175 1.995 . S
Co164 N180 2.282 . S
Co164 N186 2.282 . S
N165 Co164 1.995 . S
N165 C166 1.376 . S
N165 C169 1.383 . S
C166 N165 1.376 . S
C166 C167 1.446 . S
C166 C196 1.391 . S
C167 C166 1.446 . S
C167 C168 1.339 . S
C167 H202 0.949 . S
C168 C167 1.339 . S
C168 C169 1.439 . S
C168 H203 0.950 . S
C169 N165 1.383 . S
C169 C168 1.439 . S
C169 C198 1.392 . S
N170 Co164 2.008 . S
N170 C171 1.376 . S
N170 C174 1.374 . S
C171 N170 1.376 . S
C171 C172 1.443 . S
C171 C198 1.389 . S
C172 C171 1.443 . S
C172 C173 1.340 . S
C172 H204 0.951 . S
C173 C172 1.340 . S
C173 C174 1.439 . S
C173 H205 0.950 . S
C174 N170 1.374 . S
C174 C173 1.439 . S
C174 C199 1.395 . S
N175 Co164 1.995 . S
N175 C176 1.376 . S
N175 C179 1.383 . S
C176 N175 1.376 . S
C176 C177 1.446 . S
C176 C199 1.391 . S
C177 C176 1.446 . S
C177 C178 1.339 . S
C177 H206 0.949 . S
C178 C177 1.339 . S
C178 C179 1.439 . S
C178 H207 0.950 . S
C179 N175 1.383 . S
C179 C178 1.439 . S
C179 C197 1.392 . S
N180 Co164 2.282 . S
N180 C183 1.332 . S
N180 C185 1.332 . S
C181 C182 1.386 . S
C181 C184 1.388 . S
C182 C181 1.386 . S
C182 C183 1.382 . S
C182 H208 0.950 . S
C183 N180 1.332 . S
C183 C182 1.382 . S
C183 H194 0.952 . S
C184 C181 1.388 . S
C184 C185 1.382 . S
C184 H209 0.950 . S
C185 N180 1.332 . S
C185 C184 1.382 . S
C185 H195 0.948 . S
N186 Co164 2.282 . S
N186 C190 1.332 . S
N186 C191 1.332 . S
C187 C188 1.388 . S
C187 C191 1.382 . S
C187 H210 0.950 . S
C188 C187 1.388 . S
C188 C189 1.386 . S
C189 C188 1.386 . S
C189 C190 1.382 . S
C189 H211 0.950 1_455 S
C190 N186 1.332 . S
C190 C189 1.382 . S
C190 H192 0.952 . S
C191 N186 1.332 . S
C191 C187 1.382 . S
C191 H193 0.948 . S
H192 C190 0.952 . S
H193 C191 0.948 . S
H194 C183 0.952 . S
H195 C185 0.948 . S
C196 C162 1.395 . S
C196 C166 1.391 . S
C197 C159 1.389 . S
C197 C179 1.392 . S
C198 C169 1.392 . S
C198 C171 1.389 . S
C199 C174 1.395 . S
C199 C176 1.391 . S
H200 C160 0.951 . S
H201 C161 0.950 . S
H202 C167 0.949 . S
H203 C168 0.950 . S
H204 C172 0.951 . S
H205 C173 0.950 . S
H206 C177 0.949 . S
H207 C178 0.950 . S
H208 C182 0.950 . S
H209 C184 0.950 . S
H210 C187 0.950 . S
H211 C189 0.950 1_655 S
C212 C213 1.443 . S
C212 N216 1.376 1_565 S
C212 C250 1.389 . S
C213 C212 1.443 . S
C213 C214 1.340 1_565 S
C213 H253 0.951 . S
C214 C213 1.340 1_545 S
C214 C215 1.439 . S
C214 H254 0.950 . S
C215 C214 1.439 . S
C215 N216 1.374 . S
C215 C249 1.395 . S
N216 C212 1.376 1_545 S
N216 C215 1.374 . S
N216 Co217 2.008 . S
Co217 N216 2.008 . S
Co217 N218 1.995 . S
Co217 N223 2.008 1_554 S
Co217 N228 1.995 1_544 S
Co217 N233 2.282 1_554 S
Co217 N239 2.282 1_545 S
N218 Co217 1.995 . S
N218 C219 1.376 . S
N218 C222 1.383 1_554 S
C219 N218 1.376 . S
C219 C220 1.446 . S
C219 C249 1.391 . S
C220 C219 1.446 . S
C220 C221 1.339 . S
C220 H255 0.949 . S
C221 C220 1.339 . S
C221 C222 1.439 1_554 S
C221 H256 0.950 1_554 S
C222 N218 1.383 1_556 S
C222 C221 1.439 1_556 S
C222 C251 1.392 . S
N223 Co217 2.008 1_556 S
N223 C224 1.376 . S
N223 C227 1.374 1_545 S
C224 N223 1.376 . S
C224 C225 1.443 . S
C224 C251 1.389 . S
C225 C224 1.443 . S
C225 C226 1.340 . S
C225 H257 0.951 . S
C226 C225 1.340 . S
C226 C227 1.439 1_545 S
C226 H258 0.950 1_545 S
C227 N223 1.374 1_565 S
C227 C226 1.439 1_565 S
C227 C252 1.395 . S
N228 Co217 1.995 1_566 S
N228 C229 1.376 . S
N228 C232 1.383 1_556 S
C229 N228 1.376 . S
C229 C230 1.446 . S
C229 C252 1.391 . S
C230 C229 1.446 . S
C230 C231 1.339 . S
C230 H259 0.949 . S
C231 C230 1.339 . S
C231 C232 1.439 1_556 S
C231 H260 0.950 1_556 S
C232 N228 1.383 1_554 S
C232 C231 1.439 1_554 S
C232 C250 1.392 . S
N233 Co217 2.282 1_556 S
N233 C236 1.332 . S
N233 C238 1.332 . S
C234 C235 1.386 . S
C234 C237 1.388 . S
C235 C234 1.386 . S
C235 C236 1.382 . S
C235 H261 0.950 . S
C236 N233 1.332 . S
C236 C235 1.382 . S
C236 H247 0.952 . S
C237 C234 1.388 . S
C237 C238 1.382 . S
C237 H262 0.950 . S
C238 N233 1.332 . S
C238 C237 1.382 . S
C238 H248 0.948 1_556 S
N239 Co217 2.282 1_565 S
N239 C243 1.332 . S
N239 C244 1.332 . S
C240 C241 1.388 . S
C240 C244 1.382 . S
C240 H263 0.950 . S
C241 C240 1.388 . S
C241 C242 1.386 . S
C242 C241 1.386 . S
C242 C243 1.382 . S
C242 H264 0.950 . S
C243 N239 1.332 . S
C243 C242 1.382 . S
C243 H245 0.952 1_565 S
C244 N239 1.332 . S
C244 C240 1.382 . S
C244 H246 0.959 . S
H245 C243 0.952 1_545 S
H246 C244 0.959 . S
H247 C236 0.952 . S
H248 C238 0.948 1_554 S
C249 C215 1.395 . S
C249 C219 1.391 . S
C250 C212 1.389 . S
C250 C232 1.392 . S
C251 C222 1.392 . S
C251 C224 1.389 . S
C252 C227 1.395 . S
C252 C229 1.391 . S
H253 C213 0.951 . S
H254 C214 0.950 . S
H255 C220 0.949 . S
H256 C221 0.950 1_556 S
H257 C225 0.951 . S
H258 C226 0.950 1_565 S
H259 C230 0.949 . S
H260 C231 0.950 1_554 S
H261 C235 0.950 . S
H262 C237 0.950 . S
H263 C240 0.950 . S
H264 C242 0.950 . S
C265 C266 1.443 . S
C265 N269 1.376 . S
C265 C303 1.389 . S
C266 C265 1.443 . S
C266 C267 1.340 . S
C266 H306 0.951 . S
C267 C266 1.340 . S
C267 C268 1.439 . S
C267 H307 0.950 . S
C268 C267 1.439 . S
C268 N269 1.374 . S
C268 C302 1.395 . S
N269 C265 1.376 . S
N269 C268 1.374 . S
N269 Co270 2.008 . S
Co270 N269 2.008 . S
Co270 N271 1.995 . S
Co270 N276 2.008 . S
Co270 N281 1.995 . S
Co270 N286 2.282 . S
Co270 N292 2.282 . S
N271 Co270 1.995 . S
N271 C272 1.376 . S
N271 C275 1.383 . S
C272 N271 1.376 . S
C272 C273 1.446 . S
C272 C302 1.391 . S
C273 C272 1.446 . S
C273 C274 1.339 . S
C273 H308 0.949 . S
C274 C273 1.339 . S
C274 C275 1.439 . S
C274 H309 0.950 . S
C275 N271 1.383 . S
C275 C274 1.439 . S
C275 C304 1.392 . S
N276 Co270 2.008 . S
N276 C277 1.376 . S
N276 C280 1.374 . S
C277 N276 1.376 . S
C277 C278 1.443 . S
C277 C304 1.389 . S
C278 C277 1.443 . S
C278 C279 1.340 . S
C278 H310 0.951 . S
C279 C278 1.340 . S
C279 C280 1.439 . S
C279 H311 0.950 . S
C280 N276 1.374 . S
C280 C279 1.439 . S
C280 C305 1.395 . S
N281 Co270 1.995 . S
N281 C282 1.376 . S
N281 C285 1.383 . S
C282 N281 1.376 . S
C282 C283 1.446 . S
C282 C305 1.391 . S
C283 C282 1.446 . S
C283 C284 1.339 . S
C283 H312 0.949 . S
C284 C283 1.339 . S
C284 C285 1.439 . S
C284 H313 0.950 . S
C285 N281 1.383 . S
C285 C284 1.439 . S
C285 C303 1.392 . S
N286 Co270 2.282 . S
N286 C289 1.332 . S
N286 C291 1.332 . S
C287 C288 1.386 . S
C287 C290 1.388 . S
C288 C287 1.386 . S
C288 C289 1.382 . S
C288 H314 0.950 . S
C289 N286 1.332 . S
C289 C288 1.382 . S
C289 H300 0.952 . S
C290 C287 1.388 . S
C290 C291 1.382 . S
C290 H315 0.950 . S
C291 N286 1.332 . S
C291 C290 1.382 . S
C291 H301 0.948 . S
N292 Co270 2.282 . S
N292 C296 1.332 . S
N292 C297 1.332 . S
C293 C294 1.388 . S
C293 C297 1.382 . S
C293 H316 0.950 . S
C294 C293 1.388 . S
C294 C295 1.386 . S
C295 C294 1.386 . S
C295 C296 1.382 . S
C295 H317 0.950 . S
C296 N292 1.332 . S
C296 C295 1.382 . S
C296 H298 0.952 . S
C297 N292 1.332 . S
C297 C293 1.382 . S
C297 H299 0.948 . S
H298 C296 0.952 . S
H299 C297 0.948 . S
H300 C289 0.952 . S
H301 C291 0.948 . S
C302 C268 1.395 . S
C302 C272 1.391 . S
C303 C265 1.389 . S
C303 C285 1.392 . S
C304 C275 1.392 . S
C304 C277 1.389 . S
C305 C280 1.395 . S
C305 C282 1.391 . S
H306 C266 0.951 . S
H307 C267 0.950 . S
H308 C273 0.949 . S
H309 C274 0.950 . S
H310 C278 0.951 . S
H311 C279 0.950 . S
H312 C283 0.949 . S
H313 C284 0.950 . S
H314 C288 0.950 . S
H315 C290 0.950 . S
H316 C293 0.950 . S
H317 C295 0.950 . S
H318 C345 0.929 . S
N319 C344 1.433 . S
N319 C350 1.435 . S
N319 C356 1.423 . S
H320 C346 0.930 . S
H321 C349 0.931 . S
H322 C348 0.929 . S
H323 C351 0.930 . S
H324 C352 0.932 . S
H325 C355 0.929 . S
H326 C354 0.931 . S
H327 C357 0.929 . S
H328 C361 0.932 . S
H329 C358 0.931 . S
H330 C360 0.929 . S
H331 C363 0.929 . S
H332 C364 0.930 . S
H333 C366 0.929 . S
H334 C367 0.931 . S
H335 C369 0.930 . S
H336 C370 0.932 . S
H337 C372 0.931 . S
H338 C373 0.929 . S
H339 C375 0.929 . S
H340 C376 0.931 . S
H341 C378 0.929 . S
N342 C362 1.433 . S
N342 C368 1.435 . S
N342 C374 1.423 . S
H343 C379 0.932 . S
C344 N319 1.433 . S
C344 C345 1.363 . S
C344 C349 1.370 . S
C345 H318 0.929 . S
C345 C344 1.363 . S
C345 C346 1.385 . S
C346 H320 0.930 . S
C346 C345 1.385 . S
C346 C347 1.357 . S
C347 C346 1.357 . S
C347 C348 1.406 . S
C348 H322 0.929 . S
C348 C347 1.406 . S
C348 C349 1.391 . S
C349 H321 0.931 . S
C349 C344 1.370 . S
C349 C348 1.391 . S
C350 N319 1.435 . S
C350 C351 1.358 . S
C350 C355 1.371 . S
C351 H323 0.930 . S
C351 C350 1.358 . S
C351 C352 1.405 . S
C352 H324 0.932 . S
C352 C351 1.405 . S
C352 C353 1.383 . S
C353 C352 1.383 . S
C353 C354 1.393 . S
C354 H326 0.931 . S
C354 C353 1.393 . S
C354 C355 1.382 . S
C355 H325 0.929 . S
C355 C350 1.371 . S
C355 C354 1.382 . S
C356 N319 1.423 . S
C356 C357 1.362 . S
C356 C361 1.388 . S
C357 H327 0.929 . S
C357 C356 1.362 . S
C357 C358 1.376 . S
C358 H329 0.931 . S
C358 C357 1.376 . S
C358 C359 1.396 . S
C359 C358 1.396 . S
C359 C360 1.348 . S
C359 C377 1.472 . S
C360 H330 0.929 . S
C360 C359 1.348 . S
C360 C361 1.443 . S
C361 H328 0.932 . S
C361 C356 1.388 . S
C361 C360 1.443 . S
C362 N342 1.433 . S
C362 C363 1.363 . S
C362 C367 1.370 . S
C363 H331 0.929 . S
C363 C362 1.363 . S
C363 C364 1.385 . S
C364 H332 0.930 . S
C364 C363 1.385 . S
C364 C365 1.357 . S
C365 C364 1.357 . S
C365 C366 1.406 . S
C366 H333 0.929 . S
C366 C365 1.406 . S
C366 C367 1.391 . S
C367 H334 0.931 . S
C367 C362 1.370 . S
C367 C366 1.391 . S
C368 N342 1.435 . S
C368 C369 1.358 . S
C368 C373 1.371 . S
C369 H335 0.930 . S
C369 C368 1.358 . S
C369 C370 1.405 . S
C370 H336 0.932 . S
C370 C369 1.405 . S
C370 C371 1.383 . S
C371 C370 1.383 . S
C371 C372 1.393 . S
C372 H337 0.931 . S
C372 C371 1.393 . S
C372 C373 1.382 . S
C373 H338 0.929 . S
C373 C368 1.371 . S
C373 C372 1.382 . S
C374 N342 1.423 . S
C374 C375 1.362 . S
C374 C379 1.388 . S
C375 H339 0.929 . S
C375 C374 1.362 . S
C375 C376 1.376 . S
C376 H340 0.931 . S
C376 C375 1.376 . S
C376 C377 1.396 . S
C377 C359 1.472 . S
C377 C376 1.396 . S
C377 C378 1.348 . S
C378 H341 0.929 . S
C378 C377 1.348 . S
C378 C379 1.443 . S
C379 H343 0.932 . S
C379 C374 1.388 . S
C379 C378 1.443 . S
H380 C407 0.929 . S
N381 C406 1.433 . S
N381 C412 1.435 . S
N381 C418 1.423 . S
H382 C408 0.930 . S
H383 C411 0.931 . S
H384 C410 0.929 . S
H385 C413 0.930 . S
H386 C414 0.932 . S
H387 C417 0.929 . S
H388 C416 0.931 . S
H389 C419 0.929 . S
H390 C423 0.932 . S
H391 C420 0.931 . S
H392 C422 0.929 . S
H393 C425 0.929 . S
H394 C426 0.930 . S
H395 C428 0.929 . S
H396 C429 0.931 . S
H397 C431 0.930 . S
H398 C432 0.932 . S
H399 C434 0.931 . S
H400 C435 0.929 . S
H401 C437 0.929 . S
H402 C438 0.931 . S
H403 C440 0.929 . S
N404 C424 1.433 . S
N404 C430 1.435 . S
N404 C436 1.423 . S
H405 C441 0.932 . S
C406 N381 1.433 . S
C406 C407 1.363 . S
C406 C411 1.370 . S
C407 H380 0.929 . S
C407 C406 1.363 . S
C407 C408 1.385 . S
C408 H382 0.930 . S
C408 C407 1.385 . S
C408 C409 1.357 . S
C409 C408 1.357 . S
C409 C410 1.406 . S
C410 H384 0.929 . S
C410 C409 1.406 . S
C410 C411 1.391 . S
C411 H383 0.931 . S
C411 C406 1.370 . S
C411 C410 1.391 . S
C412 N381 1.435 . S
C412 C413 1.358 . S
C412 C417 1.371 . S
C413 H385 0.930 . S
C413 C412 1.358 . S
C413 C414 1.405 . S
C414 H386 0.932 . S
C414 C413 1.405 . S
C414 C415 1.383 . S
C415 C414 1.383 . S
C415 C416 1.393 . S
C416 H388 0.931 . S
C416 C415 1.393 . S
C416 C417 1.382 . S
C417 H387 0.929 . S
C417 C412 1.371 . S
C417 C416 1.382 . S
C418 N381 1.423 . S
C418 C419 1.362 . S
C418 C423 1.388 . S
C419 H389 0.929 . S
C419 C418 1.362 . S
C419 C420 1.376 . S
C420 H391 0.931 . S
C420 C419 1.376 . S
C420 C421 1.396 . S
C421 C420 1.396 . S
C421 C422 1.348 . S
C421 C439 1.472 . S
C422 H392 0.929 . S
C422 C421 1.348 . S
C422 C423 1.443 . S
C423 H390 0.932 . S
C423 C418 1.388 . S
C423 C422 1.443 . S
C424 N404 1.433 . S
C424 C425 1.363 . S
C424 C429 1.370 . S
C425 H393 0.929 . S
C425 C424 1.363 . S
C425 C426 1.385 . S
C426 H394 0.930 . S
C426 C425 1.385 . S
C426 C427 1.357 . S
C427 C426 1.357 . S
C427 C428 1.406 . S
C428 H395 0.929 . S
C428 C427 1.406 . S
C428 C429 1.391 . S
C429 H396 0.931 . S
C429 C424 1.370 . S
C429 C428 1.391 . S
C430 N404 1.435 . S
C430 C431 1.358 . S
C430 C435 1.371 . S
C431 H397 0.930 . S
C431 C430 1.358 . S
C431 C432 1.405 . S
C432 H398 0.932 . S
C432 C431 1.405 . S
C432 C433 1.383 . S
C433 C432 1.383 . S
C433 C434 1.393 . S
C434 H399 0.931 . S
C434 C433 1.393 . S
C434 C435 1.382 . S
C435 H400 0.929 . S
C435 C430 1.371 . S
C435 C434 1.382 . S
C436 N404 1.423 . S
C436 C437 1.362 . S
C436 C441 1.388 . S
C437 H401 0.929 . S
C437 C436 1.362 . S
C437 C438 1.376 . S
C438 H402 0.931 . S
C438 C437 1.376 . S
C438 C439 1.396 . S
C439 C421 1.472 . S
C439 C438 1.396 . S
C439 C440 1.348 . S
C440 H403 0.929 . S
C440 C439 1.348 . S
C440 C441 1.443 . S
C441 H405 0.932 . S
C441 C436 1.388 . S
C441 C440 1.443 . S
H442 C469 0.929 . S
N443 C468 1.433 . S
N443 C474 1.435 . S
N443 C480 1.423 . S
H444 C470 0.930 . S
H445 C473 0.931 . S
H446 C472 0.929 . S
H447 C475 0.930 . S
H448 C476 0.932 . S
H449 C479 0.929 . S
H450 C478 0.931 . S
H451 C481 0.929 . S
H452 C485 0.932 . S
H453 C482 0.931 . S
H454 C484 0.929 . S
H455 C487 0.929 . S
H456 C488 0.930 . S
H457 C490 0.929 . S
H458 C491 0.931 . S
H459 C493 0.930 . S
H460 C494 0.932 . S
H461 C496 0.931 . S
H462 C497 0.929 . S
H463 C499 0.929 . S
H464 C500 0.931 . S
H465 C502 0.929 . S
N466 C486 1.433 . S
N466 C492 1.435 . S
N466 C498 1.423 . S
H467 C503 0.932 . S
C468 N443 1.433 . S
C468 C469 1.363 . S
C468 C473 1.370 . S
C469 H442 0.929 . S
C469 C468 1.363 . S
C469 C470 1.385 . S
C470 H444 0.930 . S
C470 C469 1.385 . S
C470 C471 1.357 . S
C471 C470 1.357 . S
C471 C472 1.406 . S
C472 H446 0.929 . S
C472 C471 1.406 . S
C472 C473 1.391 . S
C473 H445 0.931 . S
C473 C468 1.370 . S
C473 C472 1.391 . S
C474 N443 1.435 . S
C474 C475 1.358 . S
C474 C479 1.371 . S
C475 H447 0.930 . S
C475 C474 1.358 . S
C475 C476 1.405 . S
C476 H448 0.932 . S
C476 C475 1.405 . S
C476 C477 1.383 . S
C477 C476 1.383 . S
C477 C478 1.393 . S
C478 H450 0.931 . S
C478 C477 1.393 . S
C478 C479 1.382 . S
C479 H449 0.929 . S
C479 C474 1.371 . S
C479 C478 1.382 . S
C480 N443 1.423 . S
C480 C481 1.362 . S
C480 C485 1.388 . S
C481 H451 0.929 . S
C481 C480 1.362 . S
C481 C482 1.376 . S
C482 H453 0.931 . S
C482 C481 1.376 . S
C482 C483 1.396 . S
C483 C482 1.396 . S
C483 C484 1.348 . S
C483 C501 1.472 . S
C484 H454 0.929 . S
C484 C483 1.348 . S
C484 C485 1.443 . S
C485 H452 0.932 . S
C485 C480 1.388 . S
C485 C484 1.443 . S
C486 N466 1.433 . S
C486 C487 1.363 . S
C486 C491 1.370 . S
C487 H455 0.929 . S
C487 C486 1.363 . S
C487 C488 1.385 . S
C488 H456 0.930 . S
C488 C487 1.385 . S
C488 C489 1.357 . S
C489 C488 1.357 . S
C489 C490 1.406 . S
C490 H457 0.929 . S
C490 C489 1.406 . S
C490 C491 1.391 . S
C491 H458 0.931 . S
C491 C486 1.370 . S
C491 C490 1.391 . S
C492 N466 1.435 . S
C492 C493 1.358 . S
C492 C497 1.371 . S
C493 H459 0.930 . S
C493 C492 1.358 . S
C493 C494 1.405 . S
C494 H460 0.932 . S
C494 C493 1.405 . S
C494 C495 1.383 . S
C495 C494 1.383 . S
C495 C496 1.393 . S
C496 H461 0.931 . S
C496 C495 1.393 . S
C496 C497 1.382 . S
C497 H462 0.929 . S
C497 C492 1.371 . S
C497 C496 1.382 . S
C498 N466 1.423 . S
C498 C499 1.362 . S
C498 C503 1.388 . S
C499 H463 0.929 . S
C499 C498 1.362 . S
C499 C500 1.376 . S
C500 H464 0.931 . S
C500 C499 1.376 . S
C500 C501 1.396 . S
C501 C483 1.472 . S
C501 C500 1.396 . S
C501 C502 1.348 . S
C502 H465 0.929 . S
C502 C501 1.348 . S
C502 C503 1.443 . S
C503 H467 0.932 . S
C503 C498 1.388 . S
C503 C502 1.443 . S
H504 C531 0.929 . S
N505 C530 1.433 . S
N505 C536 1.435 . S
N505 C542 1.423 . S
H506 C532 0.930 . S
H507 C535 0.931 . S
H508 C534 0.929 . S
H509 C537 0.930 . S
H510 C538 0.932 . S
H511 C541 0.929 . S
H512 C540 0.931 . S
H513 C543 0.929 . S
H514 C547 0.932 . S
H515 C544 0.931 . S
H516 C546 0.929 . S
H517 C549 0.929 . S
H518 C550 0.930 . S
H519 C552 0.929 . S
H520 C553 0.931 . S
H521 C555 0.930 . S
H522 C556 0.932 . S
H523 C558 0.931 . S
H524 C559 0.929 . S
H525 C561 0.929 . S
H526 C562 0.931 . S
H527 C564 0.929 . S
N528 C548 1.433 . S
N528 C554 1.435 . S
N528 C560 1.423 . S
H529 C565 0.932 . S
C530 N505 1.433 . S
C530 C531 1.363 . S
C530 C535 1.370 . S
C531 H504 0.929 . S
C531 C530 1.363 . S
C531 C532 1.385 . S
C532 H506 0.930 . S
C532 C531 1.385 . S
C532 C533 1.357 . S
C533 C532 1.357 . S
C533 C534 1.406 . S
C534 H508 0.929 . S
C534 C533 1.406 . S
C534 C535 1.391 . S
C535 H507 0.931 . S
C535 C530 1.370 . S
C535 C534 1.391 . S
C536 N505 1.435 . S
C536 C537 1.358 . S
C536 C541 1.371 . S
C537 H509 0.930 . S
C537 C536 1.358 . S
C537 C538 1.405 . S
C538 H510 0.932 . S
C538 C537 1.405 . S
C538 C539 1.383 . S
C539 C538 1.383 . S
C539 C540 1.393 . S
C540 H512 0.931 . S
C540 C539 1.393 . S
C540 C541 1.382 . S
C541 H511 0.929 . S
C541 C536 1.371 . S
C541 C540 1.382 . S
C542 N505 1.423 . S
C542 C543 1.362 . S
C542 C547 1.388 . S
C543 H513 0.929 . S
C543 C542 1.362 . S
C543 C544 1.376 . S
C544 H515 0.931 . S
C544 C543 1.376 . S
C544 C545 1.396 . S
C545 C544 1.396 . S
C545 C546 1.348 . S
C545 C563 1.472 . S
C546 H516 0.929 . S
C546 C545 1.348 . S
C546 C547 1.443 . S
C547 H514 0.932 . S
C547 C542 1.388 . S
C547 C546 1.443 . S
C548 N528 1.433 . S
C548 C549 1.363 . S
C548 C553 1.370 . S
C549 H517 0.929 . S
C549 C548 1.363 . S
C549 C550 1.385 . S
C550 H518 0.930 . S
C550 C549 1.385 . S
C550 C551 1.357 . S
C551 C550 1.357 . S
C551 C552 1.406 . S
C552 H519 0.929 . S
C552 C551 1.406 . S
C552 C553 1.391 . S
C553 H520 0.931 . S
C553 C548 1.370 . S
C553 C552 1.391 . S
C554 N528 1.435 . S
C554 C555 1.358 . S
C554 C559 1.371 . S
C555 H521 0.930 . S
C555 C554 1.358 . S
C555 C556 1.405 . S
C556 H522 0.932 . S
C556 C555 1.405 . S
C556 C557 1.383 . S
C557 C556 1.383 . S
C557 C558 1.393 . S
C558 H523 0.931 . S
C558 C557 1.393 . S
C558 C559 1.382 . S
C559 H524 0.929 . S
C559 C554 1.371 . S
C559 C558 1.382 . S
C560 N528 1.423 . S
C560 C561 1.362 . S
C560 C565 1.388 . S
C561 H525 0.929 . S
C561 C560 1.362 . S
C561 C562 1.376 . S
C562 H526 0.931 . S
C562 C561 1.376 . S
C562 C563 1.396 . S
C563 C545 1.472 . S
C563 C562 1.396 . S
C563 C564 1.348 . S
C564 H527 0.929 . S
C564 C563 1.348 . S
C564 C565 1.443 . S
C565 H529 0.932 . S
C565 C560 1.388 . S
C565 C564 1.443 . S
H566 C593 0.929 . S
N567 C592 1.433 . S
N567 C598 1.435 . S
N567 C604 1.423 . S
H568 C594 0.930 . S
H569 C597 0.931 . S
H570 C596 0.929 . S
H571 C599 0.930 . S
H572 C600 0.932 . S
H573 C603 0.929 . S
H574 C602 0.931 . S
H575 C605 0.929 . S
H576 C609 0.932 . S
H577 C606 0.931 . S
H578 C608 0.929 . S
H579 C611 0.929 . S
H580 C612 0.930 . S
H581 C614 0.929 . S
H582 C615 0.931 . S
H583 C617 0.930 . S
H584 C618 0.932 . S
H585 C620 0.931 . S
H586 C621 0.929 . S
H587 C623 0.929 . S
H588 C624 0.931 . S
H589 C626 0.929 . S
N590 C610 1.433 . S
N590 C616 1.435 . S
N590 C622 1.423 . S
H591 C627 0.932 . S
C592 N567 1.433 . S
C592 C593 1.363 . S
C592 C597 1.370 . S
C593 H566 0.929 . S
C593 C592 1.363 . S
C593 C594 1.385 . S
C594 H568 0.930 . S
C594 C593 1.385 . S
C594 C595 1.357 . S
C595 C594 1.357 . S
C595 C596 1.406 . S
C596 H570 0.929 . S
C596 C595 1.406 . S
C596 C597 1.391 . S
C597 H569 0.931 . S
C597 C592 1.370 . S
C597 C596 1.391 . S
C598 N567 1.435 . S
C598 C599 1.358 . S
C598 C603 1.371 . S
C599 H571 0.930 . S
C599 C598 1.358 . S
C599 C600 1.405 . S
C600 H572 0.932 . S
C600 C599 1.405 . S
C600 C601 1.383 . S
C601 C600 1.383 . S
C601 C602 1.393 . S
C602 H574 0.931 . S
C602 C601 1.393 . S
C602 C603 1.382 . S
C603 H573 0.929 . S
C603 C598 1.371 . S
C603 C602 1.382 . S
C604 N567 1.423 . S
C604 C605 1.362 . S
C604 C609 1.388 . S
C605 H575 0.929 . S
C605 C604 1.362 . S
C605 C606 1.376 . S
C606 H577 0.931 . S
C606 C605 1.376 . S
C606 C607 1.396 . S
C607 C606 1.396 . S
C607 C608 1.348 . S
C607 C625 1.472 . S
C608 H578 0.929 . S
C608 C607 1.348 . S
C608 C609 1.443 . S
C609 H576 0.932 . S
C609 C604 1.388 . S
C609 C608 1.443 . S
C610 N590 1.433 . S
C610 C611 1.363 . S
C610 C615 1.370 . S
C611 H579 0.929 . S
C611 C610 1.363 . S
C611 C612 1.385 . S
C612 H580 0.930 . S
C612 C611 1.385 . S
C612 C613 1.357 . S
C613 C612 1.357 . S
C613 C614 1.406 . S
C614 H581 0.929 . S
C614 C613 1.406 . S
C614 C615 1.391 . S
C615 H582 0.931 . S
C615 C610 1.370 . S
C615 C614 1.391 . S
C616 N590 1.435 . S
C616 C617 1.358 . S
C616 C621 1.371 . S
C617 H583 0.930 . S
C617 C616 1.358 . S
C617 C618 1.405 . S
C618 H584 0.932 . S
C618 C617 1.405 . S
C618 C619 1.383 . S
C619 C618 1.383 . S
C619 C620 1.393 . S
C620 H585 0.931 . S
C620 C619 1.393 . S
C620 C621 1.382 . S
C621 H586 0.929 . S
C621 C616 1.371 . S
C621 C620 1.382 . S
C622 N590 1.423 . S
C622 C623 1.362 . S
C622 C627 1.388 . S
C623 H587 0.929 . S
C623 C622 1.362 . S
C623 C624 1.376 . S
C624 H588 0.931 . S
C624 C623 1.376 . S
C624 C625 1.396 . S
C625 C607 1.472 . S
C625 C624 1.396 . S
C625 C626 1.348 . S
C626 H589 0.929 . S
C626 C625 1.348 . S
C626 C627 1.443 . S
C627 H591 0.932 . S
C627 C622 1.388 . S
C627 C626 1.443 . S
H628 C655 0.929 . S
N629 C654 1.433 . S
N629 C660 1.435 . S
N629 C666 1.423 . S
H630 C656 0.930 . S
H631 C659 0.931 . S
H632 C658 0.929 . S
H633 C661 0.930 . S
H634 C662 0.932 . S
H635 C665 0.929 . S
H636 C664 0.931 . S
H637 C667 0.929 . S
H638 C671 0.932 . S
H639 C668 0.931 . S
H640 C670 0.929 . S
H641 C673 0.929 . S
H642 C674 0.930 . S
H643 C676 0.929 . S
H644 C677 0.931 . S
H645 C679 0.930 . S
H646 C680 0.932 . S
H647 C682 0.931 . S
H648 C683 0.929 . S
H649 C685 0.929 . S
H650 C686 0.931 . S
H651 C688 0.929 . S
N652 C672 1.433 . S
N652 C678 1.435 . S
N652 C684 1.423 . S
H653 C689 0.932 . S
C654 N629 1.433 . S
C654 C655 1.363 . S
C654 C659 1.370 . S
C655 H628 0.929 . S
C655 C654 1.363 . S
C655 C656 1.385 . S
C656 H630 0.930 . S
C656 C655 1.385 . S
C656 C657 1.357 . S
C657 C656 1.357 . S
C657 C658 1.406 . S
C658 H632 0.929 . S
C658 C657 1.406 . S
C658 C659 1.391 . S
C659 H631 0.931 . S
C659 C654 1.370 . S
C659 C658 1.391 . S
C660 N629 1.435 . S
C660 C661 1.358 . S
C660 C665 1.371 . S
C661 H633 0.930 . S
C661 C660 1.358 . S
C661 C662 1.405 . S
C662 H634 0.932 . S
C662 C661 1.405 . S
C662 C663 1.383 . S
C663 C662 1.383 . S
C663 C664 1.393 . S
C664 H636 0.931 . S
C664 C663 1.393 . S
C664 C665 1.382 . S
C665 H635 0.929 . S
C665 C660 1.371 . S
C665 C664 1.382 . S
C666 N629 1.423 . S
C666 C667 1.362 . S
C666 C671 1.388 . S
C667 H637 0.929 . S
C667 C666 1.362 . S
C667 C668 1.376 . S
C668 H639 0.931 . S
C668 C667 1.376 . S
C668 C669 1.396 . S
C669 C668 1.396 . S
C669 C670 1.348 . S
C669 C687 1.472 . S
C670 H640 0.929 . S
C670 C669 1.348 . S
C670 C671 1.443 . S
C671 H638 0.932 . S
C671 C666 1.388 . S
C671 C670 1.443 . S
C672 N652 1.433 . S
C672 C673 1.363 . S
C672 C677 1.370 . S
C673 H641 0.929 . S
C673 C672 1.363 . S
C673 C674 1.385 . S
C674 H642 0.930 . S
C674 C673 1.385 . S
C674 C675 1.357 . S
C675 C674 1.357 . S
C675 C676 1.406 . S
C676 H643 0.929 . S
C676 C675 1.406 . S
C676 C677 1.391 . S
C677 H644 0.931 . S
C677 C672 1.370 . S
C677 C676 1.391 . S
C678 N652 1.435 . S
C678 C679 1.358 . S
C678 C683 1.371 . S
C679 H645 0.930 . S
C679 C678 1.358 . S
C679 C680 1.405 . S
C680 H646 0.932 . S
C680 C679 1.405 . S
C680 C681 1.383 . S
C681 C680 1.383 . S
C681 C682 1.393 . S
C682 H647 0.931 . S
C682 C681 1.393 . S
C682 C683 1.382 . S
C683 H648 0.929 . S
C683 C678 1.371 . S
C683 C682 1.382 . S
C684 N652 1.423 . S
C684 C685 1.362 . S
C684 C689 1.388 . S
C685 H649 0.929 . S
C685 C684 1.362 . S
C685 C686 1.376 . S
C686 H650 0.931 . S
C686 C685 1.376 . S
C686 C687 1.396 . S
C687 C669 1.472 . S
C687 C686 1.396 . S
C687 C688 1.348 . S
C688 H651 0.929 . S
C688 C687 1.348 . S
C688 C689 1.443 . S
C689 H653 0.932 . S
C689 C684 1.388 . S
C689 C688 1.443 . S
H690 C696 0.930 . S
H691 C699 0.930 . S
H692 C700 0.930 . S
H693 C701 0.930 . S
H694 C704 0.930 . S
H695 C705 0.930 . S
C696 H690 0.930 . S
C696 C697 1.355 . S
C696 C698 1.415 . S
C697 C696 1.355 . S
C697 C699 1.419 . S
C698 C696 1.415 . S
C698 C703 1.425 . S
C698 C705 1.409 . S
C699 H691 0.930 . S
C699 C697 1.419 . S
C699 C700 1.362 . S
C700 H692 0.930 . S
C700 C699 1.362 . S
C700 C703 1.409 . S
C701 H693 0.930 . S
C701 C702 1.355 . S
C701 C703 1.415 . S
C702 C701 1.355 . S
C702 C704 1.419 . S
C703 C698 1.425 . S
C703 C700 1.409 . S
C703 C701 1.415 . S
C704 H694 0.930 . S
C704 C702 1.419 . S
C704 C705 1.362 . S
C705 H695 0.930 . S
C705 C698 1.409 . S
C705 C704 1.362 . S
H706 C712 0.930 . S
H707 C715 0.930 . S
H708 C716 0.930 . S
H709 C717 0.930 . S
H710 C720 0.930 . S
H711 C721 0.930 . S
C712 H706 0.930 . S
C712 C713 1.355 . S
C712 C714 1.415 . S
C713 C712 1.355 . S
C713 C715 1.419 . S
C714 C712 1.415 . S
C714 C719 1.425 . S
C714 C721 1.409 . S
C715 H707 0.930 . S
C715 C713 1.419 . S
C715 C716 1.362 . S
C716 H708 0.930 . S
C716 C715 1.362 . S
C716 C719 1.409 . S
C717 H709 0.930 . S
C717 C718 1.355 . S
C717 C719 1.415 . S
C718 C717 1.355 . S
C718 C720 1.419 . S
C719 C714 1.425 . S
C719 C716 1.409 . S
C719 C717 1.415 . S
C720 H710 0.930 . S
C720 C718 1.419 . S
C720 C721 1.362 . S
C721 H711 0.930 . S
C721 C714 1.409 . S
C721 C720 1.362 . S
H722 C728 0.930 . S
H723 C731 0.930 . S
H724 C732 0.930 . S
H725 C733 0.930 . S
H726 C736 0.930 . S
H727 C737 0.930 . S
C728 H722 0.930 . S
C728 C729 1.355 . S
C728 C730 1.415 . S
C729 C728 1.355 . S
C729 C731 1.419 . S
C730 C728 1.415 . S
C730 C735 1.425 . S
C730 C737 1.409 . S
C731 H723 0.930 . S
C731 C729 1.419 . S
C731 C732 1.362 . S
C732 H724 0.930 . S
C732 C731 1.362 . S
C732 C735 1.409 . S
C733 H725 0.930 . S
C733 C734 1.355 . S
C733 C735 1.415 . S
C734 C733 1.355 . S
C734 C736 1.419 . S
C735 C730 1.425 . S
C735 C732 1.409 . S
C735 C733 1.415 . S
C736 H726 0.930 . S
C736 C734 1.419 . S
C736 C737 1.362 . S
C737 H727 0.930 . S
C737 C730 1.409 . S
C737 C736 1.362 . S
H738 C744 0.930 1_455 S
H739 C747 0.930 . S
H740 C748 0.930 . S
H741 C749 0.930 . S
H742 C752 0.930 . S
H743 C753 0.930 . S
C744 H738 0.930 1_655 S
C744 C745 1.355 . S
C744 C746 1.415 . S
C745 C744 1.355 . S
C745 C747 1.419 . S
C746 C744 1.415 . S
C746 C751 1.425 . S
C746 C753 1.409 . S
C747 H739 0.930 . S
C747 C745 1.419 . S
C747 C748 1.362 . S
C748 H740 0.930 . S
C748 C747 1.362 . S
C748 C751 1.409 . S
C749 H741 0.930 . S
C749 C750 1.355 . S
C749 C751 1.415 . S
C750 C749 1.355 . S
C750 C752 1.419 . S
C751 C746 1.425 . S
C751 C748 1.409 . S
C751 C749 1.415 . S
C752 H742 0.930 . S
C752 C750 1.419 . S
C752 C753 1.362 . S
C753 H743 0.930 . S
C753 C746 1.409 . S
C753 C752 1.362 . S
H754 C760 0.930 . S
H755 C763 0.930 . S
H756 C764 0.930 . S
H757 C765 0.930 . S
H758 C768 0.930 . S
H759 C769 0.930 . S
C760 H754 0.930 . S
C760 C761 1.355 . S
C760 C762 1.415 . S
C761 C760 1.355 . S
C761 C763 1.419 . S
C762 C760 1.415 . S
C762 C767 1.425 . S
C762 C769 1.409 . S
C763 H755 0.930 . S
C763 C761 1.419 . S
C763 C764 1.362 . S
C764 H756 0.930 . S
C764 C763 1.362 . S
C764 C767 1.409 . S
C765 H757 0.930 . S
C765 C766 1.355 . S
C765 C767 1.415 . S
C766 C765 1.355 . S
C766 C768 1.419 . S
C767 C762 1.425 . S
C767 C764 1.409 . S
C767 C765 1.415 . S
C768 H758 0.930 . S
C768 C766 1.419 . S
C768 C769 1.362 . S
C769 H759 0.930 . S
C769 C762 1.409 . S
C769 C768 1.362 . S
H770 C776 0.930 . S
H771 C779 0.930 . S
H772 C780 0.930 . S
H773 C781 0.930 . S
H774 C784 0.930 . S
H775 C785 0.930 . S
C776 H770 0.930 . S
C776 C777 1.355 . S
C776 C778 1.415 . S
C777 C776 1.355 . S
C777 C779 1.419 . S
C778 C776 1.415 . S
C778 C783 1.425 . S
C778 C785 1.409 . S
C779 H771 0.930 . S
C779 C777 1.419 . S
C779 C780 1.362 . S
C780 H772 0.930 . S
C780 C779 1.362 . S
C780 C783 1.409 . S
C781 H773 0.930 . S
C781 C782 1.355 . S
C781 C783 1.415 . S
C782 C781 1.355 . S
C782 C784 1.419 . S
C783 C778 1.425 . S
C783 C780 1.409 . S
C783 C781 1.415 . S
C784 H774 0.930 . S
C784 C782 1.419 . S
C784 C785 1.362 . S
C785 H775 0.930 . S
C785 C778 1.409 . S
C785 C784 1.362 . S
H786 C792 0.930 . S
H787 C795 0.930 . S
H788 C796 0.930 . S
H789 C797 0.930 . S
H790 C800 0.930 . S
H791 C801 0.930 . S
C792 H786 0.930 . S
C792 C793 1.355 . S
C792 C794 1.415 . S
C793 C792 1.355 . S
C793 C795 1.419 . S
C794 C792 1.415 . S
C794 C799 1.425 . S
C794 C801 1.409 . S
C795 H787 0.930 . S
C795 C793 1.419 . S
C795 C796 1.362 . S
C796 H788 0.930 . S
C796 C795 1.362 . S
C796 C799 1.409 . S
C797 H789 0.930 . S
C797 C798 1.355 . S
C797 C799 1.415 . S
C798 C797 1.355 . S
C798 C800 1.419 . S
C799 C794 1.425 . S
C799 C796 1.409 . S
C799 C797 1.415 . S
C800 H790 0.930 . S
C800 C798 1.419 . S
C800 C801 1.362 . S
C801 H791 0.930 . S
C801 C794 1.409 . S
C801 C800 1.362 . S
H802 C808 0.930 . S
H803 C811 0.930 . S
H804 C812 0.930 . S
H805 C813 0.930 . S
H806 C816 0.930 . S
H807 C817 0.930 . S
C808 H802 0.930 . S
C808 C809 1.355 . S
C808 C810 1.415 . S
C809 C808 1.355 . S
C809 C811 1.419 . S
C810 C808 1.415 . S
C810 C815 1.425 . S
C810 C817 1.409 . S
C811 H803 0.930 . S
C811 C809 1.419 . S
C811 C812 1.362 . S
C812 H804 0.930 . S
C812 C811 1.362 . S
C812 C815 1.409 . S
C813 H805 0.930 . S
C813 C814 1.355 . S
C813 C815 1.415 . S
C814 C813 1.355 . S
C814 C816 1.419 . S
C815 C810 1.425 . S
C815 C812 1.409 . S
C815 C813 1.415 . S
C816 H806 0.930 . S
C816 C814 1.419 . S
C816 C817 1.362 . S
C817 H807 0.930 . S
C817 C810 1.409 . S
C817 C816 1.362 . S
H818 C824 0.930 . S
H819 C827 0.930 . S
H820 C828 0.930 . S
H821 C829 0.930 . S
H822 C832 0.930 . S
H823 C833 0.930 . S
C824 H818 0.930 . S
C824 C825 1.355 . S
C824 C826 1.415 . S
C825 C824 1.355 . S
C825 C827 1.419 . S
C826 C824 1.415 . S
C826 C831 1.425 . S
C826 C833 1.409 . S
C827 H819 0.930 . S
C827 C825 1.419 . S
C827 C828 1.362 . S
C828 H820 0.930 . S
C828 C827 1.362 . S
C828 C831 1.409 . S
C829 H821 0.930 . S
C829 C830 1.355 . S
C829 C831 1.415 . S
C830 C829 1.355 . S
C830 C832 1.419 . S
C831 C826 1.425 . S
C831 C828 1.409 . S
C831 C829 1.415 . S
C832 H822 0.930 . S
C832 C830 1.419 . S
C832 C833 1.362 . S
C833 H823 0.930 . S
C833 C826 1.409 . S
C833 C832 1.362 . S
H834 C840 0.930 . S
H835 C843 0.930 . S
H836 C844 0.930 . S
H837 C845 0.930 . S
H838 C848 0.930 . S
H839 C849 0.930 . S
C840 H834 0.930 . S
C840 C841 1.355 . S
C840 C842 1.415 . S
C841 C840 1.355 . S
C841 C843 1.419 . S
C842 C840 1.415 . S
C842 C847 1.425 . S
C842 C849 1.409 . S
C843 H835 0.930 . S
C843 C841 1.419 . S
C843 C844 1.362 . S
C844 H836 0.930 . S
C844 C843 1.362 . S
C844 C847 1.409 . S
C845 H837 0.930 . S
C845 C846 1.355 . S
C845 C847 1.415 . S
C846 C845 1.355 . S
C846 C848 1.419 . S
C847 C842 1.425 . S
C847 C844 1.409 . S
C847 C845 1.415 . S
C848 H838 0.930 . S
C848 C846 1.419 . S
C848 C849 1.362 . S
C849 H839 0.930 . S
C849 C842 1.409 . S
C849 C848 1.362 . S
H850 C856 0.930 . S
H851 C859 0.930 . S
H852 C860 0.930 . S
H853 C861 0.930 . S
H854 C864 0.930 . S
H855 C865 0.930 . S
C856 H850 0.930 . S
C856 C857 1.355 . S
C856 C858 1.415 . S
C857 C856 1.355 . S
C857 C859 1.419 . S
C858 C856 1.415 . S
C858 C863 1.425 . S
C858 C865 1.409 . S
C859 H851 0.930 . S
C859 C857 1.419 . S
C859 C860 1.362 . S
C860 H852 0.930 . S
C860 C859 1.362 . S
C860 C863 1.409 . S
C861 H853 0.930 . S
C861 C862 1.355 . S
C861 C863 1.415 . S
C862 C861 1.355 . S
C862 C864 1.419 . S
C863 C858 1.425 . S
C863 C860 1.409 . S
C863 C861 1.415 . S
C864 H854 0.930 . S
C864 C862 1.419 . S
C864 C865 1.362 . S
C865 H855 0.930 . S
C865 C858 1.409 . S
C865 C864 1.362 . S
H866 C872 0.930 . S
H867 C875 0.930 . S
H868 C876 0.930 . S
H869 C877 0.930 . S
H870 C880 0.930 . S
H871 C881 0.930 . S
C872 H866 0.930 . S
C872 C873 1.355 . S
C872 C874 1.415 . S
C873 C872 1.355 . S
C873 C875 1.419 . S
C874 C872 1.415 . S
C874 C879 1.425 . S
C874 C881 1.409 . S
C875 H867 0.930 . S
C875 C873 1.419 . S
C875 C876 1.362 . S
C876 H868 0.930 . S
C876 C875 1.362 . S
C876 C879 1.409 . S
C877 H869 0.930 . S
C877 C878 1.355 . S
C877 C879 1.415 . S
C878 C877 1.355 . S
C878 C880 1.419 . S
C879 C874 1.425 . S
C879 C876 1.409 . S
C879 C877 1.415 . S
C880 H870 0.930 . S
C880 C878 1.419 . S
C880 C881 1.362 . S
C881 H871 0.930 . S
C881 C874 1.409 . S
C881 C880 1.362 . S
H882 C888 0.930 . S
H883 C891 0.930 . S
H884 C892 0.930 . S
H885 C893 0.930 . S
H886 C896 0.930 . S
H887 C897 0.930 . S
C888 H882 0.930 . S
C888 C889 1.355 . S
C888 C890 1.415 . S
C889 C888 1.355 . S
C889 C891 1.419 . S
C890 C888 1.415 . S
C890 C895 1.425 . S
C890 C897 1.409 . S
C891 H883 0.930 . S
C891 C889 1.419 . S
C891 C892 1.362 . S
C892 H884 0.930 . S
C892 C891 1.362 . S
C892 C895 1.409 . S
C893 H885 0.930 . S
C893 C894 1.355 . S
C893 C895 1.415 . S
C894 C893 1.355 . S
C894 C896 1.419 . S
C895 C890 1.425 . S
C895 C892 1.409 . S
C895 C893 1.415 . S
C896 H886 0.930 . S
C896 C894 1.419 . S
C896 C897 1.362 . S
C897 H887 0.930 . S
C897 C890 1.409 . S
C897 C896 1.362 . S
H898 C904 0.930 . S
H899 C907 0.930 . S
H900 C908 0.930 . S
H901 C909 0.930 . S
H902 C912 0.930 . S
H903 C913 0.930 . S
C904 H898 0.930 . S
C904 C905 1.355 . S
C904 C906 1.415 . S
C905 C904 1.355 . S
C905 C907 1.419 . S
C906 C904 1.415 . S
C906 C911 1.425 . S
C906 C913 1.409 . S
C907 H899 0.930 . S
C907 C905 1.419 . S
C907 C908 1.362 . S
C908 H900 0.930 . S
C908 C907 1.362 . S
C908 C911 1.409 . S
C909 H901 0.930 . S
C909 C910 1.355 . S
C909 C911 1.415 . S
C910 C909 1.355 . S
C910 C912 1.419 . S
C911 C906 1.425 . S
C911 C908 1.409 . S
C911 C909 1.415 . S
C912 H902 0.930 . S
C912 C910 1.419 . S
C912 C913 1.362 . S
C913 H903 0.930 . S
C913 C906 1.409 . S
C913 C912 1.362 . S
H914 C920 0.930 . S
H915 C923 0.930 . S
H916 C924 0.930 . S
H917 C925 0.930 . S
H918 C928 0.930 . S
H919 C929 0.930 . S
C920 H914 0.930 . S
C920 C921 1.355 . S
C920 C922 1.415 . S
C921 C920 1.355 . S
C921 C923 1.419 . S
C922 C920 1.415 . S
C922 C927 1.425 . S
C922 C929 1.409 . S
C923 H915 0.930 . S
C923 C921 1.419 . S
C923 C924 1.362 . S
C924 H916 0.930 . S
C924 C923 1.362 . S
C924 C927 1.409 . S
C925 H917 0.930 . S
C925 C926 1.355 . S
C925 C927 1.415 . S
C926 C925 1.355 . S
C926 C928 1.419 . S
C927 C922 1.425 . S
C927 C924 1.409 . S
C927 C925 1.415 . S
C928 H918 0.930 . S
C928 C926 1.419 . S
C928 C929 1.362 . S
C929 H919 0.930 . S
C929 C922 1.409 . S
C929 C928 1.362 . S
H930 C936 0.930 . S
H931 C939 0.930 . S
H932 C940 0.930 . S
H933 C941 0.930 . S
H934 C944 0.930 . S
H935 C945 0.930 . S
C936 H930 0.930 . S
C936 C937 1.355 . S
C936 C938 1.415 . S
C937 C936 1.355 . S
C937 C939 1.419 . S
C938 C936 1.415 . S
C938 C943 1.425 . S
C938 C945 1.409 . S
C939 H931 0.930 . S
C939 C937 1.419 . S
C939 C940 1.362 . S
C940 H932 0.930 . S
C940 C939 1.362 . S
C940 C943 1.409 . S
C941 H933 0.930 . S
C941 C942 1.355 . S
C941 C943 1.415 . S
C942 C941 1.355 . S
C942 C944 1.419 . S
C943 C938 1.425 . S
C943 C940 1.409 . S
C943 C941 1.415 . S
C944 H934 0.930 . S
C944 C942 1.419 . S
C944 C945 1.362 . S
C945 H935 0.930 . S
C945 C938 1.409 . S
C945 C944 1.362 . S
H946 C952 0.930 . S
H947 C955 0.930 . S
H948 C956 0.930 . S
H949 C957 0.930 . S
H950 C960 0.930 . S
H951 C961 0.930 . S
C952 H946 0.930 . S
C952 C953 1.355 . S
C952 C954 1.415 . S
C953 C952 1.355 . S
C953 C955 1.419 . S
C954 C952 1.415 . S
C954 C959 1.425 . S
C954 C961 1.409 . S
C955 H947 0.930 . S
C955 C953 1.419 . S
C955 C956 1.362 . S
C956 H948 0.930 . S
C956 C955 1.362 . S
C956 C959 1.409 . S
C957 H949 0.930 . S
C957 C958 1.355 . S
C957 C959 1.415 . S
C958 C957 1.355 . S
C958 C960 1.419 . S
C959 C954 1.425 . S
C959 C956 1.409 . S
C959 C957 1.415 . S
C960 H950 0.930 . S
C960 C958 1.419 . S
C960 C961 1.362 . S
C961 H951 0.930 . S
C961 C954 1.409 . S
C961 C960 1.362 . S
H962 C968 0.930 . S
H963 C971 0.930 . S
H964 C972 0.930 . S
H965 C973 0.930 . S
H966 C976 0.930 . S
H967 C977 0.930 . S
C968 H962 0.930 . S
C968 C969 1.355 . S
C968 C970 1.415 . S
C969 C968 1.355 . S
C969 C971 1.419 . S
C970 C968 1.415 . S
C970 C975 1.425 . S
C970 C977 1.409 . S
C971 H963 0.930 . S
C971 C969 1.419 . S
C971 C972 1.362 . S
C972 H964 0.930 . S
C972 C971 1.362 . S
C972 C975 1.409 . S
C973 H965 0.930 . S
C973 C974 1.355 . S
C973 C975 1.415 . S
C974 C973 1.355 . S
C974 C976 1.419 . S
C975 C970 1.425 . S
C975 C972 1.409 . S
C975 C973 1.415 . S
C976 H966 0.930 . S
C976 C974 1.419 . S
C976 C977 1.362 . S
C977 H967 0.930 . S
C977 C970 1.409 . S
C977 C976 1.362 . S
H978 C984 0.930 . S
H979 C987 0.930 . S
H980 C988 0.930 . S
H981 C989 0.930 . S
H982 C992 0.930 . S
H983 C993 0.930 . S
C984 H978 0.930 . S
C984 C985 1.355 . S
C984 C986 1.415 . S
C985 C984 1.355 . S
C985 C987 1.419 . S
C986 C984 1.415 . S
C986 C991 1.425 . S
C986 C993 1.409 . S
C987 H979 0.930 . S
C987 C985 1.419 . S
C987 C988 1.362 . S
C988 H980 0.930 . S
C988 C987 1.362 . S
C988 C991 1.409 . S
C989 H981 0.930 . S
C989 C990 1.355 . S
C989 C991 1.415 . S
C990 C989 1.355 . S
C990 C992 1.419 . S
C991 C986 1.425 . S
C991 C988 1.409 . S
C991 C989 1.415 . S
C992 H982 0.930 . S
C992 C990 1.419 . S
C992 C993 1.362 . S
C993 H983 0.930 . S
C993 C986 1.409 . S
C993 C992 1.362 . S
H994 C1000 0.930 . S
H995 C1003 0.930 . S
H996 C1004 0.930 . S
H997 C1005 0.930 . S
H998 C1008 0.930 . S
H999 C1009 0.930 . S
C1000 H994 0.930 . S
C1000 C1001 1.355 . S
C1000 C1002 1.415 . S
C1001 C1000 1.355 . S
C1001 C1003 1.419 . S
C1002 C1000 1.415 . S
C1002 C1007 1.425 . S
C1002 C1009 1.409 . S
C1003 H995 0.930 . S
C1003 C1001 1.419 . S
C1003 C1004 1.362 . S
C1004 H996 0.930 . S
C1004 C1003 1.362 . S
C1004 C1007 1.409 . S
C1005 H997 0.930 . S
C1005 C1006 1.355 . S
C1005 C1007 1.415 . S
C1006 C1005 1.355 . S
C1006 C1008 1.419 . S
C1007 C1002 1.425 . S
C1007 C1004 1.409 . S
C1007 C1005 1.415 . S
C1008 H998 0.930 . S
C1008 C1006 1.419 . S
C1008 C1009 1.362 . S
C1009 H999 0.930 . S
C1009 C1002 1.409 . S
C1009 C1008 1.362 . S
H1010 C1016 0.930 1_455 S
H1011 C1019 0.930 . S
H1012 C1020 0.930 . S
H1013 C1021 0.930 . S
H1014 C1024 0.930 . S
H1015 C1025 0.930 . S
C1016 H1010 0.930 1_655 S
C1016 C1017 1.355 . S
C1016 C1018 1.415 . S
C1017 C1016 1.355 . S
C1017 C1019 1.419 . S
C1018 C1016 1.415 . S
C1018 C1023 1.425 . S
C1018 C1025 1.409 . S
C1019 H1011 0.930 . S
C1019 C1017 1.419 . S
C1019 C1020 1.362 . S
C1020 H1012 0.930 . S
C1020 C1019 1.362 . S
C1020 C1023 1.409 . S
C1021 H1013 0.930 . S
C1021 C1022 1.355 . S
C1021 C1023 1.415 . S
C1022 C1021 1.355 . S
C1022 C1024 1.419 . S
C1023 C1018 1.425 . S
C1023 C1020 1.409 . S
C1023 C1021 1.415 . S
C1024 H1014 0.930 . S
C1024 C1022 1.419 . S
C1024 C1025 1.362 . S
C1025 H1015 0.930 . S
C1025 C1018 1.409 . S
C1025 C1024 1.362 . S
H1026 C1032 0.930 . S
H1027 C1035 0.930 . S
H1028 C1036 0.930 . S
H1029 C1037 0.930 . S
H1030 C1040 0.930 . S
H1031 C1041 0.930 . S
C1032 H1026 0.930 . S
C1032 C1033 1.355 . S
C1032 C1034 1.415 . S
C1033 C1032 1.355 . S
C1033 C1035 1.419 . S
C1034 C1032 1.415 . S
C1034 C1039 1.425 . S
C1034 C1041 1.409 . S
C1035 H1027 0.930 . S
C1035 C1033 1.419 . S
C1035 C1036 1.362 . S
C1036 H1028 0.930 . S
C1036 C1035 1.362 . S
C1036 C1039 1.409 . S
C1037 H1029 0.930 . S
C1037 C1038 1.355 . S
C1037 C1039 1.415 . S
C1038 C1037 1.355 . S
C1038 C1040 1.419 . S
C1039 C1034 1.425 . S
C1039 C1036 1.409 . S
C1039 C1037 1.415 . S
C1040 H1030 0.930 . S
C1040 C1038 1.419 . S
C1040 C1041 1.362 . S
C1041 H1031 0.930 . S
C1041 C1034 1.409 . S
C1041 C1040 1.362 . S
H1042 C1048 0.930 . S
H1043 C1051 0.930 . S
H1044 C1052 0.930 . S
H1045 C1053 0.930 . S
H1046 C1056 0.930 . S
H1047 C1057 0.930 . S
C1048 H1042 0.930 . S
C1048 C1049 1.355 . S
C1048 C1050 1.415 . S
C1049 C1048 1.355 . S
C1049 C1051 1.419 . S
C1050 C1048 1.415 . S
C1050 C1055 1.425 . S
C1050 C1057 1.409 . S
C1051 H1043 0.930 . S
C1051 C1049 1.419 . S
C1051 C1052 1.362 . S
C1052 H1044 0.930 . S
C1052 C1051 1.362 . S
C1052 C1055 1.409 . S
C1053 H1045 0.930 . S
C1053 C1054 1.355 . S
C1053 C1055 1.415 . S
C1054 C1053 1.355 . S
C1054 C1056 1.419 . S
C1055 C1050 1.425 . S
C1055 C1052 1.409 . S
C1055 C1053 1.415 . S
C1056 H1046 0.930 . S
C1056 C1054 1.419 . S
C1056 C1057 1.362 . S
C1057 H1047 0.930 . S
C1057 C1050 1.409 . S
C1057 C1056 1.362 . S
H1058 C1064 0.930 . S
H1059 C1067 0.930 . S
H1060 C1068 0.930 . S
H1061 C1069 0.930 . S
H1062 C1072 0.930 . S
H1063 C1073 0.930 . S
C1064 H1058 0.930 . S
C1064 C1065 1.355 . S
C1064 C1066 1.415 . S
C1065 C1064 1.355 . S
C1065 C1067 1.419 . S
C1066 C1064 1.415 . S
C1066 C1071 1.425 . S
C1066 C1073 1.409 . S
C1067 H1059 0.930 . S
C1067 C1065 1.419 . S
C1067 C1068 1.362 . S
C1068 H1060 0.930 . S
C1068 C1067 1.362 . S
C1068 C1071 1.409 . S
C1069 H1061 0.930 . S
C1069 C1070 1.355 . S
C1069 C1071 1.415 . S
C1070 C1069 1.355 . S
C1070 C1072 1.419 . S
C1071 C1066 1.425 . S
C1071 C1068 1.409 . S
C1071 C1069 1.415 . S
C1072 H1062 0.930 . S
C1072 C1070 1.419 . S
C1072 C1073 1.362 . S
C1073 H1063 0.930 . S
C1073 C1066 1.409 . S
C1073 C1072 1.362 . S
C697 C39 1.733 . S
C702 C371 1.605 . S
C713 C91 1.762 . S
C718 C415 1.681 . S
C734 C495 1.435 . S
C729 C128 1.495 . S
C750 C539 1.497 . S
C745 C188 1.520 1_655 S
C766 C619 1.663 . S
C761 C250 1.705 . S
C782 C675 1.775 . S
C777 C304 1.930 . S
C793 C75 1.885 . S
C798 C471 1.594 . S
C809 C144 1.762 . S
C814 C551 1.646 . S
C830 C595 1.702 . S
C825 C198 1.879 . S
C846 C663 1.471 . S
C841 C234 1.514 . S
C857 C294 1.532 . S
C862 C347 1.413 . S
C878 C427 1.677 . S
C873 C29 1.681 . S
C894 C533 1.834 . S
C889 C38 1.919 1_556 S
C905 C92 1.716 . S
C910 C613 1.570 . S
C926 C681 1.562 . S
C921 C135 1.571 . S
C937 C181 1.725 . S
C942 C365 1.630 . S
C953 C251 1.594 . S
C958 C409 1.563 . S
C969 C303 1.980 . S
C974 C489 1.726 . S
C985 C82 1.862 . S
C990 C657 1.700 . S
C1006 C353 1.652 . S
C1001 C145 1.800 . S
C1017 C197 1.650 1_655 S
C1022 C433 1.568 . S
C1033 C241 1.497 . S
C1038 C477 1.467 . S
C1049 C287 1.618 . S
C1054 C557 1.565 . S
C1065 C22 1.522 . S
C1070 C601 1.448 . S
