# Generated by pormake.
# Topology eea, (3,6)-cn, num edge types: 1
# Building blocks:
#     Node 0, Type 0, BuildingBlock: MIDCAF_clean_linker_0, # of connection points: 3
#     Node 1, Type 0, BuildingBlock: MIDCAF_clean_linker_0, # of connection points: 3
#     Node 2, Type 0, BuildingBlock: MIDCAF_clean_linker_0, # of connection points: 3
#     Node 3, Type 0, BuildingBlock: MIDCAF_clean_linker_0, # of connection points: 3
#     Node 4, Type 0, BuildingBlock: MIDCAF_clean_linker_0, # of connection points: 3
#     Node 5, Type 0, BuildingBlock: MIDCAF_clean_linker_0, # of connection points: 3
#     Node 6, Type 0, BuildingBlock: MIDCAF_clean_linker_0, # of connection points: 3
#     Node 7, Type 0, BuildingBlock: MIDCAF_clean_linker_0, # of connection points: 3
#     Node 8, Type 0, BuildingBlock: MIDCAF_clean_linker_0, # of connection points: 3
#     Node 9, Type 0, BuildingBlock: MIDCAF_clean_linker_0, # of connection points: 3
#     Node 10, Type 0, BuildingBlock: MIDCAF_clean_linker_0, # of connection points: 3
#     Node 11, Type 0, BuildingBlock: MIDCAF_clean_linker_0, # of connection points: 3
#     Node 12, Type 0, BuildingBlock: MIDCAF_clean_linker_0, # of connection points: 3
#     Node 13, Type 0, BuildingBlock: MIDCAF_clean_linker_0, # of connection points: 3
#     Node 14, Type 0, BuildingBlock: MIDCAF_clean_linker_0, # of connection points: 3
#     Node 15, Type 0, BuildingBlock: MIDCAF_clean_linker_0, # of connection points: 3
#     Node 16, Type 0, BuildingBlock: MIDCAF_clean_linker_0, # of connection points: 3
#     Node 17, Type 0, BuildingBlock: MIDCAF_clean_linker_0, # of connection points: 3
#     Node 18, Type 1, BuildingBlock: KUMJIN_clean_sbu_0, # of connection points: 6
#     Node 19, Type 1, BuildingBlock: KUMJIN_clean_sbu_0, # of connection points: 6
#     Node 20, Type 1, BuildingBlock: KUMJIN_clean_sbu_0, # of connection points: 6
#     Node 21, Type 1, BuildingBlock: KUMJIN_clean_sbu_0, # of connection points: 6
#     Node 22, Type 1, BuildingBlock: KUMJIN_clean_sbu_0, # of connection points: 6
#     Node 23, Type 1, BuildingBlock: KUMJIN_clean_sbu_0, # of connection points: 6
#     Node 24, Type 1, BuildingBlock: KUMJIN_clean_sbu_0, # of connection points: 6
#     Node 25, Type 1, BuildingBlock: KUMJIN_clean_sbu_0, # of connection points: 6
#     Node 26, Type 1, BuildingBlock: KUMJIN_clean_sbu_0, # of connection points: 6
#     Edge 27, Type (0, 1), BuildingBlock: XIVTED_clean_linker_0, # of connection points: 2
#     Edge 28, Type (0, 1), BuildingBlock: XIVTED_clean_linker_0, # of connection points: 2
#     Edge 29, Type (0, 1), BuildingBlock: XIVTED_clean_linker_0, # of connection points: 2
#     Edge 30, Type (0, 1), BuildingBlock: XIVTED_clean_linker_0, # of connection points: 2
#     Edge 31, Type (0, 1), BuildingBlock: XIVTED_clean_linker_0, # of connection points: 2
#     Edge 32, Type (0, 1), BuildingBlock: XIVTED_clean_linker_0, # of connection points: 2
#     Edge 33, Type (0, 1), BuildingBlock: XIVTED_clean_linker_0, # of connection points: 2
#     Edge 34, Type (0, 1), BuildingBlock: XIVTED_clean_linker_0, # of connection points: 2
#     Edge 35, Type (0, 1), BuildingBlock: XIVTED_clean_linker_0, # of connection points: 2
#     Edge 36, Type (0, 1), BuildingBlock: XIVTED_clean_linker_0, # of connection points: 2
#     Edge 37, Type (0, 1), BuildingBlock: XIVTED_clean_linker_0, # of connection points: 2
#     Edge 38, Type (0, 1), BuildingBlock: XIVTED_clean_linker_0, # of connection points: 2
#     Edge 39, Type (0, 1), BuildingBlock: XIVTED_clean_linker_0, # of connection points: 2
#     Edge 40, Type (0, 1), BuildingBlock: XIVTED_clean_linker_0, # of connection points: 2
#     Edge 41, Type (0, 1), BuildingBlock: XIVTED_clean_linker_0, # of connection points: 2
#     Edge 42, Type (0, 1), BuildingBlock: XIVTED_clean_linker_0, # of connection points: 2
#     Edge 43, Type (0, 1), BuildingBlock: XIVTED_clean_linker_0, # of connection points: 2
#     Edge 44, Type (0, 1), BuildingBlock: XIVTED_clean_linker_0, # of connection points: 2
#     Edge 45, Type (0, 1), BuildingBlock: XIVTED_clean_linker_0, # of connection points: 2
#     Edge 46, Type (0, 1), BuildingBlock: XIVTED_clean_linker_0, # of connection points: 2
#     Edge 47, Type (0, 1), BuildingBlock: XIVTED_clean_linker_0, # of connection points: 2
#     Edge 48, Type (0, 1), BuildingBlock: XIVTED_clean_linker_0, # of connection points: 2
#     Edge 49, Type (0, 1), BuildingBlock: XIVTED_clean_linker_0, # of connection points: 2
#     Edge 50, Type (0, 1), BuildingBlock: XIVTED_clean_linker_0, # of connection points: 2
#     Edge 51, Type (0, 1), BuildingBlock: XIVTED_clean_linker_0, # of connection points: 2
#     Edge 52, Type (0, 1), BuildingBlock: XIVTED_clean_linker_0, # of connection points: 2
#     Edge 53, Type (0, 1), BuildingBlock: XIVTED_clean_linker_0, # of connection points: 2
#     Edge 54, Type (0, 1), BuildingBlock: XIVTED_clean_linker_0, # of connection points: 2
#     Edge 55, Type (0, 1), BuildingBlock: XIVTED_clean_linker_0, # of connection points: 2
#     Edge 56, Type (0, 1), BuildingBlock: XIVTED_clean_linker_0, # of connection points: 2
#     Edge 57, Type (0, 1), BuildingBlock: XIVTED_clean_linker_0, # of connection points: 2
#     Edge 58, Type (0, 1), BuildingBlock: XIVTED_clean_linker_0, # of connection points: 2
#     Edge 59, Type (0, 1), BuildingBlock: XIVTED_clean_linker_0, # of connection points: 2
#     Edge 60, Type (0, 1), BuildingBlock: XIVTED_clean_linker_0, # of connection points: 2
#     Edge 61, Type (0, 1), BuildingBlock: XIVTED_clean_linker_0, # of connection points: 2
#     Edge 62, Type (0, 1), BuildingBlock: XIVTED_clean_linker_0, # of connection points: 2
#     Edge 63, Type (0, 1), BuildingBlock: XIVTED_clean_linker_0, # of connection points: 2
#     Edge 64, Type (0, 1), BuildingBlock: XIVTED_clean_linker_0, # of connection points: 2
#     Edge 65, Type (0, 1), BuildingBlock: XIVTED_clean_linker_0, # of connection points: 2
#     Edge 66, Type (0, 1), BuildingBlock: XIVTED_clean_linker_0, # of connection points: 2
#     Edge 67, Type (0, 1), BuildingBlock: XIVTED_clean_linker_0, # of connection points: 2
#     Edge 68, Type (0, 1), BuildingBlock: XIVTED_clean_linker_0, # of connection points: 2
#     Edge 69, Type (0, 1), BuildingBlock: XIVTED_clean_linker_0, # of connection points: 2
#     Edge 70, Type (0, 1), BuildingBlock: XIVTED_clean_linker_0, # of connection points: 2
#     Edge 71, Type (0, 1), BuildingBlock: XIVTED_clean_linker_0, # of connection points: 2
#     Edge 72, Type (0, 1), BuildingBlock: XIVTED_clean_linker_0, # of connection points: 2
#     Edge 73, Type (0, 1), BuildingBlock: XIVTED_clean_linker_0, # of connection points: 2
#     Edge 74, Type (0, 1), BuildingBlock: XIVTED_clean_linker_0, # of connection points: 2
#     Edge 75, Type (0, 1), BuildingBlock: XIVTED_clean_linker_0, # of connection points: 2
#     Edge 76, Type (0, 1), BuildingBlock: XIVTED_clean_linker_0, # of connection points: 2
#     Edge 77, Type (0, 1), BuildingBlock: XIVTED_clean_linker_0, # of connection points: 2
#     Edge 78, Type (0, 1), BuildingBlock: XIVTED_clean_linker_0, # of connection points: 2
#     Edge 79, Type (0, 1), BuildingBlock: XIVTED_clean_linker_0, # of connection points: 2
#     Edge 80, Type (0, 1), BuildingBlock: XIVTED_clean_linker_0, # of connection points: 2
# Relax obj value: 0.009
# Max RMSD: 0.095
# Mean RMSD: 0.062
data_MOF--net-eea--node1-KUMJIN_clean_sbu_0--node2-MIDCAF_clean_linker_0--edge1-XIVTED_clean_linker_0
_symmetry_space_group_name_H-M    P1
_symmetry_Int_Tables_number       1
_symmetry_cell_setting            triclinic
loop_
_symmetry_equiv_pos_as_xyz
'x, y, z'
_cell_length_a     62.798569
_cell_length_b     65.749054
_cell_length_c     88.34673
_cell_angle_alpha  89.982777
_cell_angle_beta   90.484095
_cell_angle_gamma 120.13168
loop_
_atom_site_label
_atom_site_type_symbol
_atom_site_fract_x
_atom_site_fract_y
_atom_site_fract_z
_atom_type_partial_charge
C0 C 0.22242 0.02595 0.40814 0.0
C1 C 0.20301 0.01501 0.39754 0.0
C2 C 0.18949 0.02618 0.39387 0.0
C3 C 0.19523 0.04762 0.40063 0.0
H4 H 0.18527 0.10756 0.39736 0.0
H5 H 0.17536 0.13533 0.38558 0.0
H6 H 0.23422 0.19203 0.4112 0.0
H7 H 0.24313 0.16409 0.42349 0.0
H8 H 0.25653 0.14809 0.45572 0.0
H9 H 0.27495 0.15644 0.48102 0.0
H10 H 0.26445 0.08639 0.48323 0.0
H11 H 0.24588 0.07787 0.45807 0.0
H12 H 0.24289 0.05494 0.42321 0.0
H13 H 0.23374 0.01836 0.41102 0.0
H14 H 0.17417 0.01821 0.38595 0.0
H15 H 0.18438 0.05567 0.39762 0.0
N16 N 0.21445 0.09583 0.41217 0.0
N17 N 0.23227 0.12205 0.43262 0.0
N18 N 0.23181 0.08621 0.4326 0.0
C19 C 0.22061 0.11669 0.41893 0.0
C20 C 0.23777 0.10681 0.4396 0.0
C21 C 0.22022 0.0806 0.41891 0.0
C22 C 0.21489 0.13358 0.41144 0.0
C23 C 0.19605 0.12597 0.40047 0.0
C24 C 0.19048 0.14198 0.39364 0.0
C25 C 0.20388 0.16606 0.39742 0.0
C26 C 0.22302 0.17362 0.40822 0.0
C27 C 0.22828 0.15758 0.41523 0.0
C28 C 0.24964 0.11228 0.45481 0.0
C29 C 0.25815 0.13445 0.46157 0.0
C30 C 0.26883 0.1393 0.47606 0.0
C31 C 0.27106 0.12205 0.48415 0.0
C32 C 0.26269 0.09995 0.47737 0.0
C33 C 0.25218 0.09514 0.46288 0.0
C34 C 0.21432 0.05819 0.41141 0.0
C35 C 0.22783 0.0471 0.41509 0.0
C36 C 0.94796 0.17989 0.40188 0.0
C37 C 0.96336 0.17417 0.39358 0.0
C38 C 0.95712 0.15036 0.39296 0.0
C39 C 0.93635 0.13299 0.40047 0.0
H40 H 0.86894 0.06596 0.39147 0.0
H41 H 0.83978 0.0283 0.37991 0.0
H42 H 0.79794 0.00725 0.42124 0.0
H43 H 0.8267 0.04491 0.43272 0.0
H44 H 0.8537 0.07929 0.46308 0.0
H45 H 0.84359 0.08812 0.48801 0.0
H46 H 0.87464 0.16092 0.47545 0.0
H47 H 0.88539 0.1523 0.45059 0.0
H48 H 0.91647 0.16774 0.41616 0.0
H49 H 0.95137 0.19772 0.40232 0.0
H50 H 0.96852 0.14506 0.38699 0.0
H51 H 0.93222 0.11491 0.39989 0.0
N52 N 0.88633 0.09891 0.41192 0.0
N53 N 0.86198 0.08767 0.4337 0.0
N54 N 0.89506 0.12623 0.43153 0.0
C55 C 0.86683 0.08221 0.41979 0.0
C56 C 0.87599 0.10956 0.43966 0.0
C57 C 0.9005 0.12093 0.41773 0.0
C58 C 0.85018 0.05865 0.41302 0.0
C59 C 0.85362 0.05328 0.39814 0.0
C60 C 0.83693 0.03161 0.39152 0.0
C61 C 0.81639 0.01479 0.3996 0.0
C62 C 0.81329 0.01995 0.41458 0.0
C63 C 0.82994 0.04156 0.4212 0.0
C64 C 0.87032 0.1151 0.45485 0.0
C65 C 0.85847 0.0972 0.46564 0.0
C66 C 0.8528 0.10225 0.47993 0.0
C67 C 0.85833 0.12517 0.48361 0.0
C68 C 0.87012 0.14308 0.47285 0.0
C69 C 0.87634 0.13815 0.45867 0.0
C70 C 0.92169 0.13903 0.40913 0.0
C71 C 0.92768 0.16263 0.40974 0.0
C72 C 0.80403 0.76704 0.41226 0.0
C73 C 0.80866 0.77757 0.39791 0.0
C74 C 0.83169 0.78507 0.39126 0.0
C75 C 0.84937 0.78143 0.39861 0.0
H76 H 0.92857 0.79849 0.40108 0.0
H77 H 0.96579 0.805 0.38845 0.0
H78 H 0.95328 0.73797 0.40517 0.0
H79 H 0.91745 0.73276 0.41873 0.0
H80 H 0.88487 0.717 0.45266 0.0
H81 H 0.8745 0.69858 0.4777 0.0
H82 H 0.83924 0.73842 0.48888 0.0
H83 H 0.8489 0.75635 0.46374 0.0
H84 H 0.81724 0.75509 0.4306 0.0
H85 H 0.78664 0.76142 0.41781 0.0
H86 H 0.83579 0.79317 0.38019 0.0
H87 H 0.86671 0.78699 0.39302 0.0
N88 N 0.88288 0.76841 0.41286 0.0
N89 N 0.89306 0.75162 0.43315 0.0
N90 N 0.85784 0.7553 0.43433 0.0
C91 C 0.89824 0.76175 0.41922 0.0
C92 C 0.87305 0.74865 0.44087 0.0
C93 C 0.86244 0.76498 0.42028 0.0
C94 C 0.92026 0.76523 0.41099 0.0
C95 C 0.93395 0.78525 0.40205 0.0
C96 C 0.95526 0.78885 0.39469 0.0
C97 C 0.96304 0.77214 0.39572 0.0
C98 C 0.94869 0.75174 0.40438 0.0
C99 C 0.92787 0.74855 0.41209 0.0
C100 C 0.86763 0.73807 0.4562 0.0
C101 C 0.87498 0.72188 0.46047 0.0
C102 C 0.86899 0.71129 0.47476 0.0
C103 C 0.85613 0.71714 0.48519 0.0
C104 C 0.84928 0.73371 0.48107 0.0
C105 C 0.85471 0.74385 0.46665 0.0
C106 C 0.84451 0.7704 0.41284 0.0
C107 C 0.82172 0.76357 0.41965 0.0
C108 C 0.02599 0.20832 0.60596 0.0
C109 C 0.01909 0.19648 0.61989 0.0
C110 C 0.03351 0.1876 0.62602 0.0
C111 C 0.0546 0.1909 0.61854 0.0
H112 H 0.11707 0.18393 0.62406 0.0
H113 H 0.14815 0.17831 0.63725 0.0
H114 H 0.19963 0.21489 0.60139 0.0
H115 H 0.1689 0.22061 0.58826 0.0
H116 H 0.14994 0.2297 0.55792 0.0
H117 H 0.15986 0.24702 0.53287 0.0
H118 H 0.09369 0.25173 0.53257 0.0
H119 H 0.08339 0.23389 0.55763 0.0
H120 H 0.05164 0.22076 0.58776 0.0
H121 H 0.0151 0.21509 0.60081 0.0
H122 H 0.02877 0.17851 0.63677 0.0
H123 H 0.06541 0.18404 0.62369 0.0
N124 N 0.1008 0.2025 0.60402 0.0
N125 N 0.12648 0.2158 0.58285 0.0
N126 N 0.08929 0.21601 0.58257 0.0
C127 C 0.12196 0.20689 0.5971 0.0
C128 C 0.11028 0.22035 0.57546 0.0
C129 C 0.08436 0.20704 0.59684 0.0
C130 C 0.14042 0.2028 0.60509 0.0
C131 C 0.13501 0.19077 0.61898 0.0
C132 C 0.15277 0.18743 0.62651 0.0
C133 C 0.1764 0.1963 0.62042 0.0
C134 C 0.18172 0.20815 0.60651 0.0
C135 C 0.16397 0.21128 0.59892 0.0
C136 C 0.11588 0.23044 0.55993 0.0
C137 C 0.1374 0.23434 0.55257 0.0
C138 C 0.1432 0.24443 0.53817 0.0
C139 C 0.1277 0.25097 0.5307 0.0
C140 C 0.10595 0.24673 0.53792 0.0
C141 C 0.10012 0.2366 0.55235 0.0
C142 C 0.06163 0.20294 0.60466 0.0
C143 C 0.04691 0.21143 0.59842 0.0
C144 C 0.76572 0.7983 0.60489 0.0
C145 C 0.77497 0.8024 0.61981 0.0
C146 C 0.77923 0.82305 0.62724 0.0
C147 C 0.77426 0.83914 0.61994 0.0
H148 H 0.77783 0.90342 0.62569 0.0
H149 H 0.78587 0.93992 0.63788 0.0
H150 H 0.76239 0.95986 0.5972 0.0
H151 H 0.75389 0.92337 0.58512 0.0
H152 H 0.73771 0.89176 0.5568 0.0
H153 H 0.71897 0.883 0.5317 0.0
H154 H 0.7081 0.81282 0.53427 0.0
H155 H 0.72667 0.82142 0.55953 0.0
H156 H 0.75368 0.81051 0.5861 0.0
H157 H 0.76261 0.78279 0.59873 0.0
H158 H 0.78609 0.82665 0.63878 0.0
H159 H 0.77767 0.85479 0.62604 0.0
N160 N 0.76459 0.87241 0.60409 0.0
N161 N 0.74992 0.88294 0.58274 0.0
N162 N 0.7496 0.84717 0.58302 0.0
C163 C 0.75981 0.88802 0.59692 0.0
C164 C 0.74473 0.86259 0.5757 0.0
C165 C 0.75957 0.85195 0.5972 0.0
C166 C 0.76513 0.91033 0.60441 0.0
C167 C 0.77436 0.91557 0.61933 0.0
C168 C 0.77909 0.93656 0.62632 0.0
C169 C 0.77468 0.95279 0.61855 0.0
C170 C 0.76559 0.94759 0.60362 0.0
C171 C 0.76086 0.92666 0.59665 0.0
C172 C 0.73371 0.85729 0.56026 0.0
C173 C 0.73137 0.87444 0.55206 0.0
C174 C 0.72076 0.86949 0.5376 0.0
C175 C 0.71208 0.84723 0.53099 0.0
C176 C 0.71441 0.83007 0.53913 0.0
C177 C 0.72519 0.83506 0.55358 0.0
C178 C 0.76491 0.83496 0.60502 0.0
C179 C 0.76073 0.81433 0.59761 0.0
C180 C 0.17417 0.94174 0.60596 0.0
C181 C 0.16566 0.95205 0.61649 0.0
C182 C 0.14046 0.9398 0.62019 0.0
C183 C 0.12435 0.91789 0.6136 0.0
H184 H 0.04909 0.85302 0.61443 0.0
H185 H 0.01211 0.82268 0.62676 0.0
H186 H 0.0281 0.76979 0.61029 0.0
H187 H 0.06365 0.79995 0.59708 0.0
H188 H 0.08457 0.81638 0.55973 0.0
H189 H 0.09439 0.80844 0.53453 0.0
H190 H 0.1537 0.88037 0.53149 0.0
H191 H 0.14385 0.88846 0.55652 0.0
H192 H 0.16532 0.9128 0.59114 0.0
H193 H 0.19346 0.95012 0.60306 0.0
H194 H 0.133 0.94721 0.62802 0.0
H195 H 0.1051 0.90895 0.61667 0.0
N196 N 0.09547 0.86855 0.60293 0.0
N197 N 0.08697 0.84191 0.5829 0.0
N198 N 0.12181 0.87955 0.58205 0.0
C199 C 0.08093 0.84696 0.5966 0.0
C200 C 0.10725 0.85824 0.57546 0.0
C201 C 0.11614 0.88485 0.59576 0.0
C202 C 0.05906 0.82879 0.60467 0.0
C203 C 0.04451 0.83484 0.61345 0.0
C204 C 0.02337 0.81737 0.62063 0.0
C205 C 0.01665 0.79346 0.61953 0.0
C206 C 0.03189 0.78772 0.61109 0.0
C207 C 0.05253 0.80508 0.60357 0.0
C208 C 0.11338 0.85308 0.56023 0.0
C209 C 0.09972 0.83053 0.55371 0.0
C210 C 0.10541 0.82592 0.53927 0.0
C211 C 0.12478 0.84378 0.53096 0.0
C212 C 0.13844 0.86629 0.53748 0.0
C213 C 0.13287 0.87087 0.55192 0.0
C214 C 0.13295 0.90792 0.60293 0.0
C215 C 0.15801 0.92014 0.59916 0.0
C216 C 0.88168 0.3538 0.74451 0.0
C217 C 0.87251 0.34889 0.72959 0.0
C218 C 0.86784 0.36515 0.7221 0.0
C219 C 0.87238 0.38591 0.72935 0.0
H220 H 0.86877 0.44656 0.72348 0.0
H221 H 0.86063 0.47502 0.71098 0.0
H222 H 0.88405 0.51822 0.75133 0.0
H223 H 0.8927 0.49013 0.76374 0.0
H224 H 0.91619 0.47713 0.79114 0.0
H225 H 0.93547 0.48541 0.81618 0.0
H226 H 0.93064 0.41752 0.81617 0.0
H227 H 0.91191 0.40939 0.79112 0.0
H228 H 0.89326 0.37755 0.76326 0.0
H229 H 0.88509 0.34149 0.75072 0.0
H230 H 0.86099 0.36201 0.71055 0.0
H231 H 0.8687 0.39809 0.72321 0.0
N232 N 0.88192 0.42861 0.74512 0.0
N233 N 0.89658 0.45324 0.7665 0.0
N234 N 0.89656 0.41762 0.76625 0.0
C235 C 0.88674 0.44883 0.75227 0.0
C236 C 0.90153 0.4377 0.77357 0.0
C237 C 0.88677 0.41289 0.75205 0.0
C238 C 0.88147 0.466 0.74464 0.0
C239 C 0.87221 0.46212 0.72971 0.0
C240 C 0.8674 0.47839 0.72255 0.0
C241 C 0.87173 0.49895 0.73012 0.0
C242 C 0.88088 0.50277 0.74506 0.0
C243 C 0.8857 0.48654 0.75222 0.0
C244 C 0.91257 0.44263 0.78902 0.0
C245 C 0.9192 0.46394 0.79647 0.0
C246 C 0.93014 0.46865 0.81088 0.0
C247 C 0.93473 0.45218 0.81816 0.0
C248 C 0.92779 0.43078 0.81079 0.0
C249 C 0.91689 0.42607 0.79642 0.0
C250 C 0.88168 0.39085 0.74427 0.0
C251 C 0.88622 0.37449 0.75175 0.0
C252 C 0.61246 0.51186 0.73632 0.0
C253 C 0.62822 0.50625 0.72835 0.0
C254 C 0.62213 0.48248 0.72781 0.0
C255 C 0.60119 0.46503 0.73516 0.0
H256 H 0.54109 0.39013 0.73307 0.0
H257 H 0.51295 0.3515 0.72225 0.0
H258 H 0.45352 0.34845 0.74846 0.0
H259 H 0.48191 0.38612 0.75983 0.0
H260 H 0.51639 0.41223 0.79707 0.0
H261 H 0.50674 0.42162 0.82195 0.0
H262 H 0.53974 0.49456 0.80926 0.0
H263 H 0.55003 0.48536 0.78444 0.0
H264 H 0.58055 0.49959 0.7502 0.0
H265 H 0.61575 0.52966 0.73667 0.0
H266 H 0.63379 0.47729 0.72204 0.0
H267 H 0.59717 0.44697 0.73468 0.0
N268 N 0.55063 0.43089 0.74633 0.0
N269 N 0.52542 0.42038 0.76775 0.0
N270 N 0.55915 0.45857 0.76569 0.0
C271 C 0.53063 0.4146 0.75406 0.0
C272 C 0.53966 0.44224 0.77369 0.0
C273 C 0.56487 0.45296 0.75208 0.0
C274 C 0.51379 0.39112 0.74739 0.0
C275 C 0.52202 0.38106 0.73655 0.0
C276 C 0.50577 0.35894 0.73027 0.0
C277 C 0.48077 0.34657 0.73444 0.0
C278 C 0.47265 0.35692 0.74519 0.0
C279 C 0.48896 0.37873 0.75168 0.0
C280 C 0.53394 0.44806 0.78877 0.0
C281 C 0.52164 0.43028 0.79958 0.0
C282 C 0.51624 0.43565 0.81385 0.0
C283 C 0.52251 0.45879 0.81748 0.0
C284 C 0.53467 0.47657 0.80669 0.0
C285 C 0.54061 0.4713 0.79253 0.0
C286 C 0.58621 0.47099 0.74355 0.0
C287 C 0.59202 0.49455 0.74401 0.0
C288 C 0.46687 0.09309 0.74309 0.0
C289 C 0.47165 0.1043 0.72895 0.0
C290 C 0.4948 0.11224 0.72236 0.0
C291 C 0.51264 0.10884 0.72968 0.0
H292 H 0.5711 0.09361 0.72099 0.0
H293 H 0.60826 0.10083 0.70764 0.0
H294 H 0.64753 0.11549 0.7502 0.0
H295 H 0.61025 0.1077 0.76365 0.0
H296 H 0.56772 0.06843 0.79017 0.0
H297 H 0.55936 0.05163 0.81552 0.0
H298 H 0.4945 0.05834 0.81767 0.0
H299 H 0.50288 0.07533 0.79243 0.0
H300 H 0.48034 0.08117 0.76135 0.0
H301 H 0.44935 0.08703 0.74858 0.0
H302 H 0.499 0.12078 0.71143 0.0
H303 H 0.53021 0.1151 0.72422 0.0
N304 N 0.54768 0.09845 0.74439 0.0
N305 N 0.56134 0.08739 0.76602 0.0
N306 N 0.52329 0.08601 0.76615 0.0
C307 C 0.56507 0.09527 0.7515 0.0
C308 C 0.54043 0.08263 0.77343 0.0
C309 C 0.52677 0.09398 0.75166 0.0
C310 C 0.58771 0.10004 0.74339 0.0
C311 C 0.58766 0.0984 0.72751 0.0
C312 C 0.60887 0.10244 0.71986 0.0
C313 C 0.63072 0.10877 0.72789 0.0
C314 C 0.63093 0.11078 0.74374 0.0
C315 C 0.60957 0.10619 0.75142 0.0
C316 C 0.53596 0.07322 0.78915 0.0
C317 C 0.55174 0.06647 0.79605 0.0
C318 C 0.54687 0.05669 0.81058 0.0
C319 C 0.52622 0.05355 0.81864 0.0
C320 C 0.51071 0.06071 0.81187 0.0
C321 C 0.51546 0.07034 0.79731 0.0
C322 C 0.50786 0.09761 0.74384 0.0
C323 C 0.48475 0.08986 0.75046 0.0
C324 C 0.68482 0.52652 0.93899 0.0
C325 C 0.68533 0.52875 0.95482 0.0
C326 C 0.70729 0.53496 0.96271 0.0
C327 C 0.72828 0.5387 0.95493 0.0
H328 H 0.78547 0.52111 0.95774 0.0
H329 H 0.81702 0.51563 0.97031 0.0
H330 H 0.86639 0.55032 0.93319 0.0
H331 H 0.83508 0.55593 0.92065 0.0
H332 H 0.81105 0.55909 0.88933 0.0
H333 H 0.81919 0.57546 0.86393 0.0
H334 H 0.75591 0.58466 0.86653 0.0
H335 H 0.74777 0.56843 0.89206 0.0
H336 H 0.70504 0.52913 0.91894 0.0
H337 H 0.66815 0.52189 0.93263 0.0
H338 H 0.70814 0.53674 0.97493 0.0
H339 H 0.74491 0.54343 0.96134 0.0
N340 N 0.76785 0.53824 0.93784 0.0
N341 N 0.79177 0.55014 0.91589 0.0
N342 N 0.75381 0.54894 0.91619 0.0
C343 C 0.78859 0.54249 0.93044 0.0
C344 C 0.77455 0.55345 0.90866 0.0
C345 C 0.75036 0.54136 0.93079 0.0
C346 C 0.80767 0.53902 0.93816 0.0
C347 C 0.80305 0.52762 0.95225 0.0
C348 C 0.82108 0.52434 0.95943 0.0
C349 C 0.84424 0.53261 0.95278 0.0
C350 C 0.84885 0.544 0.93872 0.0
C351 C 0.83079 0.54709 0.93147 0.0
C352 C 0.77877 0.56247 0.89285 0.0
C353 C 0.79875 0.5645 0.88452 0.0
C354 C 0.80336 0.57376 0.86987 0.0
C355 C 0.78823 0.58141 0.86317 0.0
C356 C 0.76808 0.57917 0.87141 0.0
C357 C 0.76335 0.56972 0.88604 0.0
C358 C 0.72792 0.53686 0.93905 0.0
C359 C 0.70596 0.5308 0.93116 0.0
C360 C 0.42096 0.12899 0.94223 0.0
C361 C 0.44027 0.13615 0.95287 0.0
C362 C 0.45437 0.16022 0.95657 0.0
C363 C 0.4495 0.17665 0.94968 0.0
H364 H 0.44767 0.23965 0.95845 0.0
H365 H 0.45652 0.27647 0.97047 0.0
H366 H 0.43751 0.29844 0.92889 0.0
H367 H 0.42818 0.26158 0.91695 0.0
H368 H 0.42081 0.22885 0.8861 0.0
H369 H 0.40211 0.21997 0.86077 0.0
H370 H 0.35978 0.14643 0.87221 0.0
H371 H 0.37896 0.15509 0.89743 0.0
H372 H 0.40155 0.1393 0.92691 0.0
H373 H 0.40923 0.11061 0.93934 0.0
H374 H 0.46963 0.16656 0.96451 0.0
H375 H 0.46096 0.19507 0.95261 0.0
N376 N 0.43371 0.20834 0.93706 0.0
N377 N 0.41994 0.21934 0.91549 0.0
N378 N 0.4157 0.18187 0.91676 0.0
C379 C 0.43032 0.22458 0.92955 0.0
C380 C 0.41258 0.19806 0.90904 0.0
C381 C 0.42646 0.18695 0.93072 0.0
C382 C 0.43707 0.2475 0.93672 0.0
C383 C 0.44546 0.25235 0.95183 0.0
C384 C 0.45064 0.27353 0.95873 0.0
C385 C 0.44758 0.29037 0.95069 0.0
C386 C 0.43963 0.28569 0.93551 0.0
C387 C 0.43443 0.26455 0.92863 0.0
C388 C 0.40132 0.19265 0.89374 0.0
C389 C 0.40756 0.21078 0.8832 0.0
C390 C 0.39699 0.20572 0.86871 0.0
C391 C 0.37957 0.18255 0.86463 0.0
C392 C 0.37316 0.16444 0.87516 0.0
C393 C 0.38418 0.1694 0.88953 0.0
C394 C 0.43069 0.16948 0.93874 0.0
C395 C 0.4164 0.14545 0.93516 0.0
C396 C 0.84169 0.27528 0.93919 0.0
C397 C 0.83343 0.28573 0.9498 0.0
C398 C 0.80826 0.27369 0.95355 0.0
C399 C 0.79193 0.25188 0.94696 0.0
H400 H 0.72761 0.18708 0.95623 0.0
H401 H 0.69201 0.1573 0.97001 0.0
H402 H 0.6803 0.10594 0.93564 0.0
H403 H 0.71587 0.13548 0.92192 0.0
H404 H 0.74865 0.15099 0.89242 0.0
H405 H 0.75812 0.1426 0.86725 0.0
H406 H 0.81923 0.21368 0.86437 0.0
H407 H 0.80973 0.22223 0.88938 0.0
H408 H 0.83235 0.24631 0.92426 0.0
H409 H 0.86094 0.28352 0.93623 0.0
H410 H 0.80096 0.28121 0.96142 0.0
H411 H 0.7727 0.24315 0.95006 0.0
N412 N 0.76234 0.20285 0.93622 0.0
N413 N 0.75225 0.17663 0.91579 0.0
N414 N 0.7881 0.21362 0.91508 0.0
C415 C 0.74689 0.18159 0.92974 0.0
C416 C 0.77275 0.19261 0.90834 0.0
C417 C 0.78304 0.21889 0.92898 0.0
C418 C 0.72475 0.16373 0.93795 0.0
C419 C 0.71746 0.16945 0.95158 0.0
C420 C 0.69696 0.15241 0.95946 0.0
C421 C 0.6834 0.12921 0.95398 0.0
C422 C 0.69056 0.12356 0.9403 0.0
C423 C 0.7109 0.14059 0.93237 0.0
C424 C 0.77841 0.1873 0.89301 0.0
C425 C 0.76409 0.16487 0.88643 0.0
C426 C 0.76959 0.16 0.87201 0.0
C427 C 0.78941 0.17747 0.86377 0.0
C428 C 0.80364 0.1999 0.87031 0.0
C429 C 0.79826 0.20474 0.88474 0.0
C430 C 0.80025 0.24178 0.93621 0.0
C431 C 0.82528 0.25376 0.93237 0.0
C432 C 0.54809 0.68862 0.0783 0.0
C433 C 0.53898 0.68384 0.06336 0.0
C434 C 0.53469 0.70034 0.05586 0.0
C435 C 0.53953 0.72119 0.06312 0.0
H436 H 0.53639 0.78218 0.05753 0.0
H437 H 0.5281 0.81069 0.04524 0.0
H438 H 0.55145 0.85345 0.08578 0.0
H439 H 0.56027 0.82532 0.09798 0.0
H440 H 0.58495 0.81238 0.12509 0.0
H441 H 0.60495 0.82045 0.14992 0.0
H442 H 0.59965 0.75236 0.14927 0.0
H443 H 0.58019 0.74443 0.12447 0.0
H444 H 0.55991 0.71234 0.09706 0.0
H445 H 0.55119 0.67613 0.08452 0.0
H446 H 0.5279 0.69732 0.0443 0.0
H447 H 0.53615 0.73356 0.05698 0.0
N448 N 0.54932 0.76391 0.07906 0.0
N449 N 0.5646 0.78858 0.10041 0.0
N450 N 0.56432 0.75284 0.09996 0.0
C451 C 0.55443 0.78419 0.08627 0.0
C452 C 0.5696 0.77296 0.10734 0.0
C453 C 0.5542 0.74812 0.08586 0.0
C454 C 0.54908 0.8014 0.07877 0.0
C455 C 0.53978 0.79766 0.06385 0.0
C456 C 0.53488 0.81396 0.05681 0.0
C457 C 0.53914 0.83441 0.0645 0.0
C458 C 0.54833 0.8381 0.07942 0.0
C459 C 0.55325 0.82184 0.08646 0.0
C460 C 0.58104 0.7778 0.12267 0.0
C461 C 0.58801 0.79911 0.13024 0.0
C462 C 0.59938 0.8037 0.14452 0.0
C463 C 0.60406 0.78712 0.15155 0.0
C464 C 0.59676 0.76571 0.14407 0.0
C465 C 0.58543 0.76112 0.12984 0.0
C466 C 0.54877 0.72599 0.07805 0.0
C467 C 0.55294 0.7094 0.08553 0.0
C468 C 0.29006 0.84465 0.07456 0.0
C469 C 0.29703 0.83903 0.06079 0.0
C470 C 0.28332 0.81586 0.05528 0.0
C471 C 0.26298 0.79879 0.06326 0.0
H472 H 0.20901 0.72454 0.06541 0.0
H473 H 0.18058 0.68651 0.05405 0.0
H474 H 0.12125 0.68349 0.08037 0.0
H475 H 0.15003 0.72061 0.09233 0.0
H476 H 0.1861 0.74427 0.13034 0.0
H477 H 0.17652 0.75284 0.15551 0.0
H478 H 0.21043 0.82634 0.14412 0.0
H479 H 0.22072 0.81797 0.11902 0.0
H480 H 0.26513 0.83268 0.09312 0.0
H481 H 0.30043 0.86224 0.07925 0.0
H482 H 0.28808 0.81098 0.04466 0.0
H483 H 0.25278 0.78116 0.05861 0.0
N484 N 0.2191 0.76489 0.07929 0.0
N485 N 0.19438 0.75377 0.10093 0.0
N486 N 0.22922 0.79143 0.09953 0.0
C487 C 0.19902 0.74854 0.0869 0.0
C488 C 0.20944 0.77511 0.10735 0.0
C489 C 0.23429 0.78644 0.08551 0.0
C490 C 0.18181 0.72552 0.07983 0.0
C491 C 0.18989 0.71563 0.06878 0.0
C492 C 0.17346 0.69384 0.06219 0.0
C493 C 0.14841 0.68164 0.06622 0.0
C494 C 0.14041 0.69184 0.07718 0.0
C495 C 0.15693 0.71331 0.084 0.0
C496 C 0.20413 0.78045 0.12269 0.0
C497 C 0.19162 0.76228 0.13321 0.0
C498 C 0.18625 0.76717 0.14764 0.0
C499 C 0.19274 0.79022 0.1517 0.0
C500 C 0.2052 0.80841 0.14121 0.0
C501 C 0.21114 0.80362 0.1269 0.0
C502 C 0.25597 0.80445 0.07702 0.0
C503 C 0.26986 0.8276 0.08258 0.0
C504 C 0.13349 0.42836 0.07665 0.0
C505 C 0.13813 0.43945 0.06248 0.0
C506 C 0.16121 0.44736 0.05581 0.0
C507 C 0.17914 0.44405 0.06309 0.0
H508 H 0.23798 0.42961 0.05428 0.0
H509 H 0.27513 0.43691 0.04087 0.0
H510 H 0.31438 0.45114 0.08342 0.0
H511 H 0.27713 0.4433 0.09691 0.0
H512 H 0.23525 0.40464 0.1235 0.0
H513 H 0.22722 0.38788 0.14885 0.0
H514 H 0.16169 0.39346 0.1511 0.0
H515 H 0.16975 0.41042 0.12584 0.0
H516 H 0.14716 0.41662 0.09489 0.0
H517 H 0.11602 0.42233 0.08219 0.0
H518 H 0.1653 0.4558 0.04485 0.0
H519 H 0.19667 0.45029 0.05757 0.0
N520 N 0.21444 0.43402 0.07776 0.0
N521 N 0.22834 0.4231 0.09935 0.0
N522 N 0.19017 0.42149 0.09956 0.0
C523 C 0.23195 0.43096 0.08482 0.0
C524 C 0.20743 0.41824 0.1068 0.0
C525 C 0.19353 0.42944 0.08506 0.0
C526 C 0.2546 0.43584 0.07667 0.0
C527 C 0.25454 0.43434 0.06078 0.0
C528 C 0.27574 0.43842 0.0531 0.0
C529 C 0.29758 0.44464 0.06112 0.0
C530 C 0.29779 0.44652 0.07697 0.0
C531 C 0.27645 0.4419 0.08468 0.0
C532 C 0.20312 0.40886 0.12252 0.0
C533 C 0.21919 0.40244 0.1294 0.0
C534 C 0.21452 0.39269 0.14393 0.0
C535 C 0.19377 0.38924 0.15202 0.0
C536 C 0.17797 0.39608 0.14527 0.0
C537 C 0.18254 0.40568 0.13071 0.0
C538 C 0.17451 0.43294 0.07728 0.0
C539 C 0.15146 0.42521 0.08398 0.0
C540 C 0.35198 0.85853 0.2715 0.0
C541 C 0.35181 0.86087 0.2873 0.0
C542 C 0.37349 0.86738 0.29559 0.0
C543 C 0.39488 0.87128 0.28824 0.0
H544 H 0.45269 0.85368 0.29229 0.0
H545 H 0.48417 0.84839 0.30521 0.0
H546 H 0.53489 0.88507 0.26902 0.0
H547 H 0.50373 0.89047 0.25616 0.0
H548 H 0.48226 0.8946 0.22511 0.0
H549 H 0.4921 0.91151 0.19998 0.0
H550 H 0.42635 0.91695 0.19963 0.0
H551 H 0.41611 0.89947 0.22483 0.0
H552 H 0.37314 0.86124 0.25189 0.0
H553 H 0.33553 0.85367 0.26484 0.0
H554 H 0.37381 0.86924 0.30779 0.0
H555 H 0.4113 0.87624 0.29496 0.0
N556 N 0.43543 0.87114 0.27206 0.0
N557 N 0.46035 0.88345 0.25056 0.0
N558 N 0.42215 0.88172 0.24999 0.0
C559 C 0.45659 0.87571 0.26509 0.0
C560 C 0.44333 0.88653 0.2429 0.0
C561 C 0.4181 0.87406 0.26459 0.0
C562 C 0.4756 0.87253 0.27316 0.0
C563 C 0.47057 0.86069 0.28711 0.0
C564 C 0.48856 0.85753 0.29448 0.0
C565 C 0.51206 0.86639 0.28818 0.0
C566 C 0.51709 0.8783 0.27429 0.0
C567 C 0.4991 0.88125 0.26686 0.0
C568 C 0.44844 0.89578 0.22715 0.0
C569 C 0.46976 0.89928 0.21973 0.0
C570 C 0.47552 0.90914 0.20528 0.0
C571 C 0.4602 0.91589 0.1978 0.0
C572 C 0.43851 0.91183 0.20501 0.0
C573 C 0.43269 0.9019 0.21951 0.0
C574 C 0.39522 0.86933 0.27239 0.0
C575 C 0.37353 0.86299 0.2641 0.0
C576 C 0.09042 0.46258 0.27358 0.0
C577 C 0.10992 0.47028 0.28413 0.0
C578 C 0.12342 0.49441 0.2878 0.0
C579 C 0.11759 0.51032 0.28108 0.0
H580 H 0.12909 0.58087 0.28375 0.0
H581 H 0.1395 0.61863 0.29505 0.0
H582 H 0.07895 0.61745 0.27054 0.0
H583 H 0.06957 0.58056 0.25872 0.0
H584 H 0.06663 0.55771 0.22382 0.0
H585 H 0.04789 0.54902 0.19872 0.0
H586 H 0.03749 0.47901 0.20105 0.0
H587 H 0.0561 0.48754 0.22631 0.0
H588 H 0.06979 0.47191 0.25861 0.0
H589 H 0.07914 0.44413 0.27071 0.0
H590 H 0.13881 0.50115 0.29566 0.0
H591 H 0.12846 0.52877 0.28408 0.0
N592 N 0.09868 0.54025 0.26961 0.0
N593 N 0.08094 0.54958 0.24924 0.0
N594 N 0.08065 0.51383 0.24927 0.0
C595 C 0.09272 0.55535 0.26287 0.0
C596 C 0.07498 0.52895 0.2423 0.0
C597 C 0.0925 0.51934 0.2629 0.0
C598 C 0.09864 0.57782 0.27026 0.0
C599 C 0.11806 0.58875 0.2808 0.0
C600 C 0.12392 0.61037 0.28734 0.0
C601 C 0.1102 0.62135 0.28369 0.0
C602 C 0.09042 0.61001 0.27337 0.0
C603 C 0.08488 0.58868 0.26664 0.0
C604 C 0.06295 0.52334 0.22714 0.0
C605 C 0.06031 0.54041 0.21906 0.0
C606 C 0.04971 0.5355 0.2046 0.0
C607 C 0.04132 0.51338 0.19787 0.0
C608 C 0.04363 0.49617 0.20599 0.0
C609 C 0.05441 0.50113 0.22044 0.0
C610 C 0.09842 0.50257 0.27035 0.0
C611 C 0.08491 0.47852 0.26669 0.0
C612 C 0.49701 0.61804 0.26932 0.0
C613 C 0.50167 0.61913 0.28495 0.0
C614 C 0.48961 0.59846 0.29354 0.0
C615 C 0.47286 0.57708 0.28663 0.0
H616 H 0.41044 0.5079 0.29493 0.0
H617 H 0.37413 0.47864 0.30866 0.0
H618 H 0.33362 0.45489 0.26656 0.0
H619 H 0.36998 0.48362 0.25275 0.0
H620 H 0.41272 0.48783 0.22539 0.0
H621 H 0.42149 0.47991 0.19992 0.0
H622 H 0.48196 0.55131 0.19692 0.0
H623 H 0.4731 0.5594 0.22225 0.0
H624 H 0.47761 0.59625 0.25025 0.0
H625 H 0.50618 0.63376 0.26248 0.0
H626 H 0.49291 0.59894 0.30562 0.0
H627 H 0.46367 0.56142 0.29352 0.0
N628 N 0.4314 0.53641 0.27131 0.0
N629 N 0.41823 0.51224 0.24968 0.0
N630 N 0.45392 0.54938 0.24882 0.0
C631 C 0.41487 0.51593 0.2644 0.0
C632 C 0.43786 0.52881 0.24183 0.0
C633 C 0.45085 0.5533 0.26354 0.0
C634 C 0.39309 0.49804 0.27275 0.0
C635 C 0.39381 0.49639 0.2886 0.0
C636 C 0.37311 0.47964 0.29646 0.0
C637 C 0.35112 0.46465 0.28865 0.0
C638 C 0.35033 0.46638 0.27284 0.0
C639 C 0.37118 0.48271 0.26494 0.0
C640 C 0.44224 0.52425 0.22598 0.0
C641 C 0.42779 0.50193 0.21929 0.0
C642 C 0.4329 0.49732 0.2047 0.0
C643 C 0.45249 0.51494 0.19638 0.0
C644 C 0.46658 0.53739 0.20293 0.0
C645 C 0.46156 0.54197 0.21753 0.0
C646 C 0.46839 0.5759 0.27094 0.0
C647 C 0.48076 0.59658 0.26234 0.0
Eu648 Eu 0.4785 0.96858 0.99018 0.0
C649 C 0.53481 0.05755 0.03222 0.0
C650 C 0.57764 0.06834 0.03032 0.0
C651 C 0.5669 0.09842 0.03535 0.0
C652 C 0.5524 0.05123 0.02974 0.0
C653 C 0.54185 0.08112 0.03545 0.0
C654 C 0.58478 0.09204 0.03277 0.0
C655 C 0.49905 0.06834 0.04002 0.0
N656 N 0.51083 0.04038 0.0324 0.0
C657 C 0.49301 0.04523 0.03675 0.0
C658 C 0.52355 0.08643 0.03915 0.0
Eu659 Eu 0.50178 0.00177 0.02635 0.0
N660 N 0.54485 0.02814 0.02762 0.0
C661 C 0.56165 0.02076 0.02716 0.0
C662 C 0.59495 0.06101 0.0289 0.0
C663 C 0.5869 0.03706 0.02754 0.0
H664 H 0.47404 0.03132 0.03734 0.0
H665 H 0.60012 0.03115 0.02675 0.0
H666 H 0.60407 0.10547 0.0331 0.0
H667 H 0.48482 0.0722 0.04315 0.0
H668 H 0.55573 0.00234 0.02605 0.0
H669 H 0.38041 0.94019 0.98887 0.0
H670 H 0.61451 0.0736 0.02923 0.0
H671 H 0.506 0.93821 0.98041 0.0
H672 H 0.42488 0.96868 0.98978 0.0
H673 H 0.49485 0.897 0.97539 0.0
H674 H 0.57268 0.11666 0.03765 0.0
H675 H 0.36562 0.89762 0.98676 0.0
H676 H 0.37565 0.86537 0.98355 0.0
H677 H 0.5282 0.10432 0.04172 0.0
H678 H 0.40679 0.8536 0.97981 0.0
N679 N 0.43539 0.94257 0.98865 0.0
C680 C 0.41879 0.9502 0.98882 0.0
C681 C 0.38522 0.91007 0.98717 0.0
C682 C 0.40235 0.90247 0.98608 0.0
C683 C 0.39349 0.93408 0.98832 0.0
C684 C 0.42765 0.9194 0.98675 0.0
H685 H 0.45125 0.86531 0.97652 0.0
N686 N 0.46917 0.92972 0.98466 0.0
C687 C 0.48068 0.90118 0.97806 0.0
C688 C 0.4451 0.91276 0.98469 0.0
C689 C 0.48692 0.92447 0.98086 0.0
C690 C 0.45606 0.88333 0.97875 0.0
C691 C 0.43786 0.88904 0.98186 0.0
O692 O 0.49683 0.9746 0.96835 0.0
O693 O 0.50939 -0.00082 1.00205 0.0
O694 O 0.49648 0.02534 0.00991 0.0
O695 O 0.46838 -0.00266 0.99285 0.0
O696 O 0.51905 0.98066 0.98751 0.0
O697 O 0.46525 0.97923 0.97045 0.0
O698 O 0.48387 -0.00456 0.04835 0.0
O699 O 0.47088 0.97141 0.01438 0.0
O700 O 0.48316 0.94502 0.00694 0.0
O701 O 0.51226 0.97329 0.02338 0.0
O702 O 0.46117 -0.01045 0.02916 0.0
O703 O 0.5152 -0.00944 0.04571 0.0
C704 C 0.52747 -0.00131 0.99636 0.0
C705 C 0.47238 0.96786 0.94648 0.0
C706 C 0.4737 0.97026 0.91883 0.0
C707 C 0.48158 0.98107 0.93315 0.0
C708 C 0.45633 0.94606 0.91811 0.0
C709 C 0.45506 0.94381 0.94548 0.0
C710 C 0.44708 0.93301 0.93135 0.0
C711 C 0.48006 0.01887 0.99876 0.0
C712 C 0.48148 0.97927 0.96132 0.0
C713 C 0.41272 0.87195 0.98183 0.0
C714 C 0.395 0.87865 0.98395 0.0
C715 C 0.45276 0.97179 0.02008 0.0
C716 C 0.50906 0.0021 0.06986 0.0
C717 C 0.50097 -0.01111 0.08326 0.0
C718 C 0.51023 -0.00033 0.09748 0.0
C719 C 0.52749 0.02392 0.09798 0.0
C720 C 0.52635 0.02618 0.07067 0.0
C721 C 0.53544 0.03701 0.08467 0.0
C722 C 0.50012 0.95161 0.01775 0.0
C723 C 0.49932 -0.00938 0.05511 0.0
H724 H 0.49517 -0.00038 0.93396 0.0
H725 H 0.44965 0.93726 0.9073 0.0
H726 H 0.44777 0.9334 0.9556 0.0
H727 H 0.43367 0.91442 0.93065 0.0
H728 H 0.48781 0.97021 0.08258 0.0
H729 H 0.53468 0.03288 0.10869 0.0
H730 H 0.5328 0.03658 0.0605 0.0
H731 H 0.5487 0.05564 0.08522 0.0
Eu732 Eu 0.00984 0.49015 0.99065 0.0
C733 C 0.91173 0.45527 0.02674 0.0
C734 C 0.90199 0.48634 0.02389 0.0
C735 C 0.86908 0.44601 0.02739 0.0
C736 C 0.91936 0.47872 0.02445 0.0
C737 C 0.88657 0.43873 0.02867 0.0
C738 C 0.87678 0.46977 0.02497 0.0
C739 C 0.8981 0.40961 0.03453 0.0
N740 N 0.92911 0.44891 0.02812 0.0
C741 C 0.92282 0.42667 0.03253 0.0
C742 C 0.87984 0.41557 0.03237 0.0
Eu743 Eu 0.97053 0.47854 0.02443 0.0
N744 N 0.94386 0.49428 0.02366 0.0
C745 C 0.95234 0.5179 0.02346 0.0
C746 C 0.91054 0.51045 0.02273 0.0
C747 C 0.93584 0.52631 0.02274 0.0
H748 H 0.93688 0.42197 0.03413 0.0
H749 H 0.94266 0.54503 0.02217 0.0
H750 H 0.86316 0.47526 0.02441 0.0
H751 H 0.89314 0.39188 0.0377 0.0
H752 H 0.97183 0.53037 0.02342 0.0
H753 H 0.03782 0.42373 0.99288 0.0
H754 H 0.89781 0.51701 0.02222 0.0
H755 H 0.04347 0.54671 0.98094 0.0
H756 H 0.00862 0.43834 0.99153 0.0
H757 H 0.08722 0.57685 0.97743 0.0
H758 H 0.84963 0.43352 0.02867 0.0
H759 H 0.08267 0.45179 0.99303 0.0
H760 H 0.1173 0.49357 0.99092 0.0
H761 H 0.86071 0.40234 0.03397 0.0
H762 H 0.13079 0.53531 0.98663 0.0
N763 N 0.03655 0.47445 0.99141 0.0
C764 C 0.02811 0.45083 0.99156 0.0
C765 C 0.06992 0.45834 0.99246 0.0
C766 C 0.07844 0.48244 0.99132 0.0
C767 C 0.04462 0.44244 0.99233 0.0
C768 C 0.06106 0.49003 0.9907 0.0
H769 H 0.11968 0.56644 0.98124 0.0
N770 N 0.05126 0.5198 0.98696 0.0
C771 C 0.08227 0.55912 0.9806 0.0
C772 C 0.06866 0.51347 0.98839 0.0
C773 C 0.05754 0.54203 0.98256 0.0
C774 C 0.10054 0.55319 0.98281 0.0
C775 C 0.09383 0.53004 0.98652 0.0
O776 O 0.0071 0.5023 0.96809 0.0
O777 O 0.97685 0.48941 1.00029 0.0
O778 O 0.94765 0.45078 0.00689 0.0
O779 O 0.97881 0.45173 0.99209 0.0
O780 O -0.00176 0.51729 0.98627 0.0
O781 O 0.00046 0.4669 0.97104 0.0
O782 O 0.97373 0.46645 0.04692 0.0
O783 O 0.0035 0.47929 0.0148 0.0
O784 O 0.03276 0.51781 0.00823 0.0
O785 O 0.00168 0.51694 0.02307 0.0
O786 O 0.98211 0.45138 0.0288 0.0
O787 O 0.97924 0.50149 0.04416 0.0
C788 C 0.97843 0.50743 0.99418 0.0
C789 C 0.01678 0.48542 0.9477 0.0
C790 C 0.01835 0.48361 0.92014 0.0
C791 C 0.00515 0.48119 0.93348 0.0
C792 C 0.04345 0.49045 0.92132 0.0
C793 C 0.04174 0.49211 0.94863 0.0
C794 C 0.055 0.49464 0.93548 0.0
C795 C 0.95552 0.4416 0.99652 0.0
C796 C 0.00261 0.48285 0.96141 0.0
C797 C 0.11134 0.5228 0.98787 0.0
C798 C 0.10365 0.49903 0.9903 0.0
C799 C 0.00192 0.46125 0.02089 0.0
C800 C 0.96322 0.4824 0.06743 0.0
C801 C 0.97461 0.48575 0.08166 0.0
C802 C 0.96111 0.48217 0.09501 0.0
C803 C 0.93598 0.47516 0.09387 0.0
C804 C 0.93821 0.47557 0.06651 0.0
C805 C 0.92468 0.47195 0.07969 0.0
C806 C 0.02497 0.527 0.01865 0.0
C807 C 0.97758 0.48562 0.0537 0.0
H808 H 0.98575 0.47569 0.93285 0.0
H809 H 0.05424 0.49281 0.9113 0.0
H810 H 0.05097 0.49537 0.95947 0.0
H811 H 0.0743 0.49991 0.93627 0.0
H812 H -0.00609 0.49081 0.08232 0.0
H813 H 0.92516 0.4725 0.10393 0.0
H814 H 0.92916 0.47302 0.05566 0.0
H815 H 0.90537 0.46668 0.07892 0.0
Eu816 Eu 0.50243 0.47959 0.02555 0.0
C817 C 0.44767 0.51824 0.98623 0.0
C818 C 0.40458 0.48837 0.98763 0.0
C819 C 0.41622 0.5294 0.98453 0.0
C820 C 0.42969 0.49494 0.98793 0.0
C821 C 0.44114 0.53568 0.98413 0.0
C822 C 0.39797 0.50578 0.98629 0.0
C823 C 0.48413 0.5638 0.98001 0.0
N824 N 0.47153 0.52366 0.98573 0.0
C825 C 0.48968 0.54587 0.9821 0.0
C826 C 0.45979 0.55875 0.98123 0.0
Eu827 Eu 0.47955 0.49258 0.98998 0.0
N828 N 0.4367 0.47855 0.989 0.0
C829 C 0.41954 0.45515 0.98864 0.0
C830 C 0.38688 0.46444 0.98819 0.0
C831 C 0.39441 0.44775 0.98844 0.0
H832 H 0.50853 0.54985 0.98122 0.0
H833 H 0.38087 0.42918 0.98856 0.0
H834 H 0.37878 0.50109 0.98619 0.0
H835 H 0.49863 0.58148 0.97748 0.0
H836 H 0.42514 0.44209 0.98893 0.0
H837 H 0.60102 0.54361 0.02694 0.0
H838 H 0.3674 0.45866 0.98803 0.0
H839 H 0.47389 0.42248 0.03453 0.0
H840 H 0.55674 0.53039 0.0264 0.0
H841 H 0.48409 0.39113 0.03867 0.0
H842 H 0.41083 0.54257 0.98309 0.0
H843 H 0.61485 0.51443 0.02803 0.0
H844 H 0.60384 0.47215 0.03036 0.0
H845 H 0.45553 0.57266 0.97955 0.0
H846 H 0.57202 0.43064 0.03367 0.0
N847 N 0.5454 0.49397 0.02678 0.0
C848 C 0.56242 0.51742 0.02694 0.0
C849 C 0.59534 0.5085 0.02779 0.0
C850 C 0.57779 0.48455 0.02856 0.0
C851 C 0.5876 0.52502 0.02723 0.0
C852 C 0.55263 0.47778 0.02814 0.0
H853 H 0.52735 0.40032 0.03704 0.0
N854 N 0.5109 0.4489 0.03032 0.0
C855 C 0.49853 0.40886 0.03618 0.0
C856 C 0.53481 0.45449 0.02999 0.0
C857 C 0.49282 0.42664 0.03387 0.0
C858 C 0.52296 0.4141 0.03521 0.0
C859 C 0.54152 0.43722 0.03231 0.0
O860 O 0.48417 0.46759 0.04734 0.0
O861 O 0.47175 0.4812 0.01397 0.0
O862 O 0.48449 0.51977 0.00739 0.0
O863 O 0.51339 0.51842 0.02352 0.0
O864 O 0.46169 0.45297 0.0281 0.0
O865 O 0.51614 0.50236 0.04551 0.0
O866 O 0.49822 0.50421 0.96831 0.0
O867 O 0.51006 0.49065 1.0015 0.0
O868 O 0.49748 0.45229 0.0082 0.0
O869 O 0.46896 0.45378 0.99173 0.0
O870 O 0.52041 0.51885 0.98729 0.0
O871 O 0.46431 0.47084 0.96961 0.0
C872 C 0.45348 0.46326 0.01938 0.0
C873 C 0.50895 0.48328 0.06917 0.0
C874 C 0.50756 0.48315 0.09683 0.0
C875 C 0.49965 0.48695 0.08268 0.0
C876 C 0.52504 0.47573 0.09719 0.0
C877 C 0.52639 0.47595 0.0698 0.0
C878 C 0.53439 0.47222 0.08376 0.0
C879 C 0.50146 0.52888 0.01821 0.0
C880 C 0.49985 0.48666 0.05455 0.0
C881 C 0.56649 0.44368 0.03205 0.0
C882 C 0.58461 0.46731 0.03017 0.0
C883 C 0.52845 0.50841 0.99602 0.0
C884 C 0.47328 0.49151 0.94642 0.0
C885 C 0.4799 0.48566 0.93262 0.0
C886 C 0.47388 0.49217 0.91868 0.0
C887 C 0.46095 0.50457 0.91897 0.0
C888 C 0.46004 0.50344 0.94635 0.0
C889 C 0.45393 0.50992 0.93268 0.0
C890 C 0.48081 0.44331 0.99719 0.0
C891 C 0.48139 0.48615 0.96078 0.0
H892 H 0.48594 0.49235 0.08213 0.0
H893 H 0.53176 0.47293 0.10787 0.0
H894 H 0.53375 0.47306 0.05952 0.0
H895 H 0.54788 0.46659 0.08419 0.0
H896 H 0.48972 0.47602 0.93284 0.0
H897 H 0.45653 0.51056 0.90864 0.0
H898 H 0.4547 0.508 0.95682 0.0
H899 H 0.44399 0.51942 0.93272 0.0
Eu900 Eu 0.14683 0.30294 0.32345 0.0
C901 C 0.20329 0.3921 0.36484 0.0
C902 C 0.24597 0.40226 0.3632 0.0
C903 C 0.23579 0.43288 0.36755 0.0
C904 C 0.22064 0.38539 0.36264 0.0
C905 C 0.21065 0.41583 0.36773 0.0
C906 C 0.25342 0.42611 0.36526 0.0
C907 C 0.16799 0.4037 0.37225 0.0
N908 N 0.17923 0.37514 0.36514 0.0
C909 C 0.16163 0.38041 0.36932 0.0
C910 C 0.19258 0.42155 0.37124 0.0
Eu911 Eu 0.16965 0.33623 0.35959 0.0
N912 N 0.2128 0.36217 0.36094 0.0
C913 C 0.22932 0.35443 0.36095 0.0
C914 C 0.26302 0.39455 0.36222 0.0
C915 C 0.25464 0.37049 0.36136 0.0
H916 H 0.14259 0.36667 0.37 0.0
H917 H 0.26766 0.36429 0.36095 0.0
H918 H 0.27279 0.43936 0.36558 0.0
H919 H 0.15394 0.40787 0.37524 0.0
H920 H 0.22313 0.33591 0.36022 0.0
H921 H 0.04862 0.27414 0.3224 0.0
H922 H 0.28263 0.40694 0.36257 0.0
H923 H 0.17458 0.2732 0.31296 0.0
H924 H 0.09306 0.30275 0.32347 0.0
H925 H 0.16367 0.23233 0.30698 0.0
H926 H 0.24181 0.45125 0.36959 0.0
H927 H 0.03404 0.23169 0.31959 0.0
H928 H 0.04429 0.19972 0.31561 0.0
H929 H 0.19747 0.43957 0.37355 0.0
H930 H 0.0756 0.18833 0.31133 0.0
N931 N 0.10375 0.27681 0.32182 0.0
C932 C 0.08705 0.28433 0.32224 0.0
C933 C 0.05362 0.24419 0.32009 0.0
C934 C 0.07084 0.23675 0.31872 0.0
C935 C 0.06178 0.26813 0.32164 0.0
C936 C 0.09611 0.25374 0.31955 0.0
H937 H 0.12013 0.20042 0.30781 0.0
N938 N 0.1377 0.26433 0.3174 0.0
C939 C 0.14943 0.23627 0.30993 0.0
C940 C 0.11366 0.24729 0.31726 0.0
C941 C 0.15554 0.25938 0.3133 0.0
C942 C 0.12484 0.2183 0.31045 0.0
C943 C 0.10654 0.22374 0.31393 0.0
O944 O 0.16548 0.30964 0.30169 0.0
O945 O 0.17755 0.33334 0.33548 0.0
O946 O 0.16496 0.3598 0.34284 0.0
O947 O 0.13661 0.33164 0.32601 0.0
O948 O 0.18751 0.31505 0.32102 0.0
O949 O 0.13356 0.31371 0.30378 0.0
O950 O 0.15179 0.33088 0.38155 0.0
O951 O 0.13874 0.30568 0.34767 0.0
O952 O 0.15154 0.27922 0.34006 0.0
O953 O 0.17951 0.30727 0.35714 0.0
O954 O 0.12921 0.32448 0.36204 0.0
O955 O 0.18256 0.32508 0.37922 0.0
C956 C 0.19577 0.33293 0.32999 0.0
C957 C 0.14112 0.30289 0.27976 0.0
C958 C 0.14256 0.30558 0.25212 0.0
C959 C 0.1503 0.31626 0.26649 0.0
C960 C 0.12537 0.28134 0.25129 0.0
C961 C 0.12395 0.2788 0.27865 0.0
C962 C 0.11612 0.26813 0.26447 0.0
C963 C 0.14858 0.35331 0.33167 0.0
C964 C 0.15 0.31415 0.29466 0.0
C965 C 0.08144 0.20656 0.31372 0.0
C966 C 0.06361 0.21305 0.31615 0.0
C967 C 0.12069 0.3064 0.35323 0.0
C968 C 0.17686 0.33757 0.40313 0.0
C969 C 0.1693 0.32455 0.41663 0.0
C970 C 0.17889 0.33558 0.43074 0.0
C971 C 0.19594 0.35989 0.43105 0.0
C972 C 0.19396 0.36172 0.40375 0.0
C973 C 0.20337 0.37279 0.41765 0.0
C974 C 0.16776 0.28567 0.35133 0.0
C975 C 0.1669 0.32579 0.3885 0.0
H976 H 0.16374 0.33485 0.26738 0.0
H977 H 0.1188 0.27264 0.24044 0.0
H978 H 0.11664 0.26827 0.28871 0.0
H979 H 0.10284 0.24952 0.26369 0.0
H980 H 0.15631 0.30582 0.4161 0.0
H981 H 0.20338 0.36903 0.44168 0.0
H982 H 0.20002 0.37198 0.3935 0.0
H983 H 0.21649 0.39147 0.41805 0.0
Eu984 Eu 0.67804 0.8228 0.32433 0.0
C985 C 0.57987 0.78857 0.35991 0.0
C986 C 0.57008 0.81967 0.35754 0.0
C987 C 0.53715 0.77914 0.36017 0.0
C988 C 0.5875 0.81211 0.35805 0.0
C989 C 0.55465 0.77185 0.3613 0.0
C990 C 0.54486 0.80301 0.35829 0.0
C991 C 0.56602 0.74233 0.3661 0.0
N992 N 0.59724 0.78217 0.36113 0.0
C993 C 0.59081 0.7596 0.36476 0.0
C994 C 0.54782 0.74843 0.36419 0.0
Eu995 Eu 0.63875 0.81211 0.35804 0.0
N996 N 0.612 0.82775 0.35741 0.0
C997 C 0.62041 0.85136 0.3573 0.0
C998 C 0.57857 0.8438 0.35663 0.0
C999 C 0.60386 0.85971 0.35671 0.0
H1000 H 0.60484 0.75481 0.36617 0.0
H1001 H 0.61063 0.87843 0.35626 0.0
H1002 H 0.5312 0.80846 0.35776 0.0
H1003 H 0.56097 0.72435 0.36861 0.0
H1004 H 0.63988 0.86387 0.35729 0.0
H1005 H 0.70783 0.75777 0.3276 0.0
H1006 H 0.5658 0.85032 0.35616 0.0
H1007 H 0.71099 0.87964 0.31484 0.0
H1008 H 0.678 0.7716 0.32592 0.0
H1009 H 0.75458 0.9104 0.31179 0.0
H1010 H 0.51767 0.76653 0.36108 0.0
H1011 H 0.75252 0.78644 0.32759 0.0
H1012 H 0.78659 0.82843 0.32527 0.0
H1013 H 0.52863 0.73504 0.36531 0.0
H1014 H 0.79933 0.86998 0.3209 0.0
N1015 N 0.7054 0.80785 0.32535 0.0
C1016 C 0.6974 0.78433 0.32585 0.0
C1017 C 0.73949 0.79263 0.32684 0.0
C1018 C 0.74756 0.81662 0.32545 0.0
C1019 C 0.71428 0.7764 0.32681 0.0
C1020 C 0.72982 0.82374 0.3246 0.0
H1021 H 0.78752 0.90065 0.31562 0.0
N1022 N 0.71929 0.85298 0.32066 0.0
C1023 C 0.7499 0.89268 0.31477 0.0
C1024 C 0.73699 0.84706 0.32217 0.0
C1025 C 0.72525 0.87522 0.31647 0.0
C1026 C 0.76844 0.88712 0.31698 0.0
C1027 C 0.7621 0.864 0.32051 0.0
O1028 O 0.67458 0.83397 0.30161 0.0
O1029 O 0.64519 0.82242 0.33385 0.0
O1030 O 0.61618 0.78489 0.34018 0.0
O1031 O 0.64755 0.78422 0.32661 0.0
O1032 O 0.66607 0.84959 0.31927 0.0
O1033 O 0.66895 0.799 0.30503 0.0
O1034 O 0.64111 0.79981 0.38059 0.0
O1035 O 0.67171 0.8127 0.34858 0.0
O1036 O 0.7008 0.85056 0.34182 0.0
O1037 O 0.66978 0.85059 0.35623 0.0
O1038 O 0.65076 0.78535 0.36302 0.0
O1039 O 0.64784 0.8353 0.37767 0.0
C1040 C 0.64654 0.84012 0.32743 0.0
C1041 C 0.68465 0.81708 0.28145 0.0
C1042 C 0.68636 0.81638 0.25386 0.0
C1043 C 0.67317 0.81365 0.26724 0.0
C1044 C 0.7113 0.82265 0.25499 0.0
C1045 C 0.70948 0.82327 0.28234 0.0
C1046 C 0.72272 0.82605 0.26915 0.0
C1047 C 0.62415 0.77466 0.33069 0.0
C1048 C 0.67054 0.8145 0.29519 0.0
C1049 C 0.77993 0.85719 0.322 0.0
C1050 C 0.77268 0.83354 0.32449 0.0
C1051 C 0.67049 0.79507 0.35503 0.0
C1052 C 0.63163 0.81667 0.40105 0.0
C1053 C 0.64346 0.82072 0.41517 0.0
C1054 C 0.63036 0.81764 0.42863 0.0
C1055 C 0.60517 0.81044 0.42771 0.0
C1056 C 0.60655 0.80961 0.40033 0.0
C1057 C 0.59341 0.80653 0.41362 0.0
C1058 C 0.69307 0.86035 0.35183 0.0
C1059 C 0.64564 0.81928 0.38727 0.0
H1060 H 0.65387 0.80859 0.26666 0.0
H1061 H 0.7221 0.82523 0.24494 0.0
H1062 H 0.71861 0.82599 0.29319 0.0
H1063 H 0.74192 0.83093 0.26989 0.0
H1064 H 0.66279 0.82587 0.41567 0.0
H1065 H 0.59464 0.80813 0.43785 0.0
H1066 H 0.59715 0.80641 0.38954 0.0
H1067 H 0.57404 0.80108 0.41301 0.0
Eu1068 Eu 0.17034 0.81268 0.3585 0.0
C1069 C 0.1121 0.84785 0.31869 0.0
C1070 C 0.06944 0.81706 0.32068 0.0
C1071 C 0.07952 0.85743 0.31635 0.0
C1072 C 0.09477 0.82446 0.3209 0.0
C1073 C 0.10465 0.8645 0.31595 0.0
C1074 C 0.06195 0.83376 0.31875 0.0
C1075 C 0.1472 0.89334 0.31117 0.0
N1076 N 0.13619 0.85404 0.31823 0.0
C1077 C 0.15367 0.87618 0.31397 0.0
C1078 C 0.12263 0.88757 0.31239 0.0
Eu1079 Eu 0.14576 0.82416 0.32318 0.0
N1080 N 0.10263 0.80875 0.32253 0.0
C1081 C 0.08609 0.78518 0.32288 0.0
C1082 C 0.05241 0.79304 0.32197 0.0
C1083 C 0.06078 0.777 0.32286 0.0
H1084 H 0.17269 0.88072 0.31307 0.0
H1085 H 0.04776 0.75835 0.32357 0.0
H1086 H 0.04258 0.82845 0.31869 0.0
H1087 H 0.16117 0.91099 0.30811 0.0
H1088 H 0.09232 0.77262 0.32361 0.0
H1089 H 0.26805 0.87952 0.35859 0.0
H1090 H 0.0328 0.78665 0.32192 0.0
H1091 H 0.14441 0.75627 0.36874 0.0
H1092 H 0.22341 0.86467 0.35864 0.0
H1093 H 0.15654 0.72634 0.37332 0.0
H1094 H 0.07344 0.87001 0.31444 0.0
H1095 H 0.28363 0.85165 0.35945 0.0
H1096 H 0.27449 0.80996 0.36208 0.0
H1097 H 0.11766 0.90087 0.31018 0.0
H1098 H 0.24412 0.76821 0.36622 0.0
N1099 N 0.2136 0.82863 0.35907 0.0
C1100 C 0.22987 0.85227 0.35906 0.0
C1101 C 0.26397 0.845 0.35945 0.0
C1102 C 0.24722 0.82087 0.36047 0.0
C1103 C 0.25525 0.86079 0.35902 0.0
C1104 C 0.22181 0.81316 0.36037 0.0
H1105 H 0.20014 0.73695 0.37078 0.0
N1106 N 0.18067 0.78328 0.36339 0.0
C1107 C 0.17029 0.74407 0.37024 0.0
C1108 C 0.20479 0.78972 0.36264 0.0
C1109 C 0.16349 0.76105 0.36768 0.0
C1110 C 0.1949 0.75011 0.36875 0.0
C1111 C 0.21259 0.77327 0.36514 0.0
O1112 O 0.15278 0.80052 0.38049 0.0
O1113 O 0.13864 0.81328 0.34739 0.0
O1114 O 0.15065 0.85195 0.34017 0.0
O1115 O 0.17951 0.85099 0.35659 0.0
O1116 O 0.1302 0.78507 0.36133 0.0
O1117 O 0.18428 0.83551 0.37843 0.0
O1118 O 0.16407 0.83543 0.30136 0.0
O1119 O 0.17713 0.82337 0.33438 0.0
O1120 O 0.16546 0.78501 0.34143 0.0
O1121 O 0.13641 0.78579 0.3251 0.0
O1122 O 0.18625 0.8514 0.32023 0.0
O1123 O 0.13054 0.80185 0.30304 0.0
C1124 C 0.12102 0.79494 0.35301 0.0
C1125 C 0.17837 0.8164 0.40198 0.0
C1126 C 0.17777 0.81552 0.42965 0.0
C1127 C 0.16906 0.8192 0.41575 0.0
C1128 C 0.196 0.80906 0.4295 0.0
C1129 C 0.19659 0.81005 0.4021 0.0
C1130 C 0.20534 0.8064 0.41581 0.0
C1131 C 0.16726 0.86109 0.35123 0.0
C1132 C 0.16851 0.81966 0.38761 0.0
C1133 C 0.23778 0.78063 0.36449 0.0
C1134 C 0.25507 0.8044 0.36213 0.0
C1135 C 0.19504 0.84142 0.32878 0.0
C1136 C 0.13895 0.82177 0.27957 0.0
C1137 C 0.14589 0.816 0.26584 0.0
C1138 C 0.13942 0.82188 0.25182 0.0
C1139 C 0.12582 0.83364 0.25195 0.0
C1140 C 0.125 0.83299 0.27932 0.0
C1141 C 0.11852 0.83891 0.26557 0.0
C1142 C 0.14877 0.77576 0.33044 0.0
C1143 C 0.14739 0.81704 0.29404 0.0
H1144 H 0.15478 0.82389 0.41561 0.0
H1145 H 0.20332 0.80638 0.43997 0.0
H1146 H 0.20403 0.8079 0.39163 0.0
H1147 H 0.21944 0.80152 0.41583 0.0
H1148 H 0.15625 0.8069 0.26618 0.0
H1149 H 0.12107 0.83917 0.24154 0.0
H1150 H 0.11936 0.83743 0.28971 0.0
H1151 H 0.10803 0.84788 0.26548 0.0
Eu1152 Eu 0.81015 0.63282 0.65626 0.0
C1153 C 0.86898 0.72238 0.6977 0.0
C1154 C 0.91162 0.73254 0.69565 0.0
C1155 C 0.90157 0.76308 0.7007 0.0
C1156 C 0.88628 0.71568 0.6952 0.0
C1157 C 0.87641 0.74607 0.70079 0.0
C1158 C 0.91914 0.75633 0.69812 0.0
C1159 C 0.83372 0.73408 0.70503 0.0
N1160 N 0.84488 0.7055 0.69783 0.0
C1161 C 0.8273 0.71081 0.70195 0.0
C1162 C 0.85837 0.75185 0.70427 0.0
Eu1163 Eu 0.8352 0.66662 0.69203 0.0
N1164 N 0.87838 0.69254 0.69295 0.0
C1165 C 0.89492 0.68487 0.69208 0.0
C1166 C 0.92863 0.72491 0.69395 0.0
C1167 C 0.92023 0.70093 0.69234 0.0
H1168 H 0.8082 0.69715 0.70249 0.0
H1169 H 0.93324 0.69479 0.69127 0.0
H1170 H 0.93851 0.76955 0.69837 0.0
H1171 H 0.81968 0.7383 0.70796 0.0
H1172 H 0.88874 0.66643 0.69077 0.0
H1173 H 0.71189 0.60353 0.65694 0.0
H1174 H 0.94825 0.7373 0.69417 0.0
H1175 H 0.83784 0.60272 0.64601 0.0
H1176 H 0.75631 0.63233 0.6573 0.0
H1177 H 0.82687 0.56162 0.64091 0.0
H1178 H 0.90764 0.78141 0.70293 0.0
H1179 H 0.69743 0.56106 0.65444 0.0
H1180 H 0.70774 0.52911 0.65065 0.0
H1181 H 0.86332 0.76985 0.70671 0.0
H1182 H 0.73901 0.51769 0.64632 0.0
N1183 N 0.7671 0.6065 0.65543 0.0
C1184 C 0.75033 0.6139 0.65616 0.0
C1185 C 0.717 0.57365 0.65459 0.0
C1186 C 0.73426 0.56628 0.65304 0.0
C1187 C 0.72508 0.5976 0.65598 0.0
C1188 C 0.75952 0.58338 0.6534 0.0
H1189 H 0.78343 0.52971 0.64248 0.0
N1190 N 0.8011 0.59401 0.65082 0.0
C1191 C 0.81269 0.56566 0.64383 0.0
C1192 C 0.77706 0.57692 0.65107 0.0
C1193 C 0.81884 0.58891 0.6467 0.0
C1194 C 0.78816 0.54769 0.64476 0.0
C1195 C 0.76992 0.55324 0.64818 0.0
O1196 O 0.82844 0.64029 0.63437 0.0
O1197 O 0.84169 0.66365 0.66759 0.0
O1198 O 0.8297 0.68998 0.67554 0.0
O1199 O 0.80007 0.66154 0.65937 0.0
O1200 O 0.85046 0.64462 0.6529 0.0
O1201 O 0.79467 0.64115 0.63647 0.0
O1202 O 0.81759 0.66042 0.7141 0.0
O1203 O 0.8036 0.63604 0.68063 0.0
O1204 O 0.81536 0.6094 0.67284 0.0
O1205 O 0.84521 0.63786 0.68886 0.0
O1206 O 0.79489 0.6549 0.69545 0.0
O1207 O 0.84926 0.65608 0.71142 0.0
C1208 C 0.85943 0.66289 0.66158 0.0
C1209 C 0.80338 0.63064 0.61259 0.0
C1210 C 0.80377 0.63218 0.58483 0.0
C1211 C 0.81001 0.64367 0.59907 0.0
C1212 C 0.79075 0.60737 0.58455 0.0
C1213 C 0.79001 0.60604 0.61192 0.0
C1214 C 0.78378 0.59451 0.59797 0.0
C1215 C 0.81232 0.68325 0.66497 0.0
C1216 C 0.81163 0.6428 0.6273 0.0
C1217 C 0.74485 0.53601 0.64838 0.0
C1218 C 0.72705 0.54252 0.65083 0.0
C1219 C 0.78586 0.63675 0.68668 0.0
C1220 C 0.84277 0.66739 0.73562 0.0
C1221 C 0.83323 0.65449 0.74901 0.0
C1222 C 0.84138 0.66543 0.76328 0.0
C1223 C 0.85938 0.68945 0.76387 0.0
C1224 C 0.86074 0.69127 0.73649 0.0
C1225 C 0.86899 0.7022 0.75057 0.0
C1226 C 0.83272 0.61609 0.68339 0.0
C1227 C 0.83328 0.65592 0.72084 0.0
H1228 H 0.81999 0.66269 0.59973 0.0
H1229 H 0.78623 0.59772 0.57398 0.0
H1230 H 0.78469 0.59573 0.62215 0.0
H1231 H 0.77376 0.57548 0.59755 0.0
H1232 H 0.81914 0.63608 0.74831 0.0
H1233 H 0.86627 0.69834 0.77464 0.0
H1234 H 0.8683 0.70146 0.72632 0.0
H1235 H 0.88289 0.72065 0.75117 0.0
Eu1236 Eu 0.34289 0.15573 0.65776 0.0
C1237 C 0.24547 0.1201 0.69444 0.0
C1238 C 0.23556 0.15113 0.69209 0.0
C1239 C 0.20278 0.11067 0.69537 0.0
C1240 C 0.253 0.14359 0.69241 0.0
C1241 C 0.22035 0.10346 0.6964 0.0
C1242 C 0.21038 0.13447 0.69318 0.0
C1243 C 0.23208 0.07436 0.70185 0.0
N1244 N 0.26292 0.11379 0.69557 0.0
C1245 C 0.25676 0.09151 0.69982 0.0
C1246 C 0.21374 0.08026 0.69989 0.0
Eu1247 Eu 0.30426 0.14367 0.69193 0.0
N1248 N 0.27748 0.15925 0.69159 0.0
C1249 C 0.28586 0.18286 0.69154 0.0
C1250 C 0.244 0.17524 0.69112 0.0
C1251 C 0.26928 0.19118 0.69107 0.0
H1252 H 0.27088 0.08686 0.70128 0.0
H1253 H 0.27602 0.20989 0.69063 0.0
H1254 H 0.19669 0.13989 0.6928 0.0
H1255 H 0.22721 0.0566 0.70488 0.0
H1256 H 0.30535 0.19536 0.69145 0.0
H1257 H 0.37121 0.08955 0.65902 0.0
H1258 H 0.2312 0.18174 0.69079 0.0
H1259 H 0.37619 0.21244 0.64825 0.0
H1260 H 0.34187 0.10403 0.65811 0.0
H1261 H 0.41983 0.24273 0.6446 0.0
H1262 H 0.18336 0.09811 0.69668 0.0
H1263 H 0.41603 0.11773 0.65898 0.0
H1264 H 0.45052 0.15959 0.65693 0.0
H1265 H 0.19464 0.06696 0.70152 0.0
H1266 H 0.46379 0.20133 0.65291 0.0
N1267 N 0.36971 0.14016 0.65806 0.0
C1268 C 0.36135 0.11656 0.65806 0.0
C1269 C 0.40322 0.12421 0.65861 0.0
C1270 C 0.41164 0.14832 0.65762 0.0
C1271 C 0.37794 0.10825 0.65858 0.0
C1272 C 0.39418 0.15582 0.65725 0.0
H1273 H 0.45245 0.23242 0.64796 0.0
N1274 N 0.38419 0.18554 0.65392 0.0
C1275 C 0.41499 0.22498 0.64763 0.0
C1276 C 0.40167 0.17928 0.6551 0.0
C1277 C 0.39032 0.2078 0.64968 0.0
C1278 C 0.43336 0.21911 0.64959 0.0
C1279 C 0.42679 0.19593 0.65313 0.0
O1280 O 0.33929 0.16805 0.63543 0.0
O1281 O 0.31014 0.15486 0.66786 0.0
O1282 O 0.28103 0.11617 0.67434 0.0
O1283 O 0.31183 0.1173 0.65907 0.0
O1284 O 0.33113 0.18289 0.65388 0.0
O1285 O 0.33387 0.13301 0.63788 0.0
O1286 O 0.30875 0.13168 0.71414 0.0
O1287 O 0.33704 0.14455 0.68186 0.0
O1288 O 0.36619 0.18308 0.67536 0.0
O1289 O 0.33553 0.18209 0.69071 0.0
O1290 O 0.31585 0.11641 0.69577 0.0
O1291 O 0.31194 0.16588 0.712 0.0
C1292 C 0.31151 0.17292 0.66195 0.0
C1293 C 0.34954 0.15236 0.61464 0.0
C1294 C 0.35133 0.15286 0.58703 0.0
C1295 C 0.33796 0.14909 0.60047 0.0
C1296 C 0.37649 0.15995 0.58803 0.0
C1297 C 0.37458 0.15928 0.6154 0.0
C1298 C 0.38797 0.16307 0.60214 0.0
C1299 C 0.28864 0.10714 0.6637 0.0
C1300 C 0.33536 0.14897 0.62849 0.0
C1301 C 0.44438 0.18876 0.65423 0.0
C1302 C 0.43682 0.16499 0.6565 0.0
C1303 C 0.33552 0.12639 0.68773 0.0
C1304 C 0.29712 0.14571 0.73514 0.0
C1305 C 0.30929 0.15206 0.74923 0.0
C1306 C 0.29583 0.14647 0.76281 0.0
C1307 C 0.26991 0.13454 0.76189 0.0
C1308 C 0.27137 0.13425 0.73454 0.0
C1309 C 0.25786 0.12871 0.74786 0.0
C1310 C 0.35871 0.19216 0.68604 0.0
C1311 C 0.31151 0.15022 0.72125 0.0
H1312 H 0.31864 0.14395 0.59993 0.0
H1313 H 0.38721 0.16274 0.57791 0.0
H1314 H 0.38377 0.16177 0.62619 0.0
H1315 H 0.4073 0.1684 0.60279 0.0
H1316 H 0.32923 0.16138 0.74951 0.0
H1317 H 0.25879 0.12931 0.77198 0.0
H1318 H 0.26169 0.12935 0.72383 0.0
H1319 H 0.23795 0.11958 0.74731 0.0
Eu1320 Eu 0.83617 0.14564 0.69128 0.0
C1321 C 0.77878 0.18159 0.65193 0.0
C1322 C 0.73595 0.15129 0.65396 0.0
C1323 C 0.74675 0.19201 0.65033 0.0
C1324 C 0.76117 0.15827 0.65401 0.0
C1325 C 0.77176 0.19866 0.64969 0.0
C1326 C 0.72887 0.16836 0.65247 0.0
C1327 C 0.81446 0.22715 0.64499 0.0
N1328 N 0.80273 0.18737 0.65121 0.0
C1329 C 0.82048 0.20957 0.64723 0.0
C1330 C 0.79003 0.22175 0.64643 0.0
Eu1331 Eu 0.81162 0.15691 0.65579 0.0
N1332 N 0.76862 0.1422 0.65523 0.0
C1333 C 0.75176 0.11872 0.65525 0.0
C1334 C 0.71859 0.12731 0.65491 0.0
C1335 C 0.72654 0.11093 0.65531 0.0
H1336 H 0.8394 0.21384 0.64618 0.0
H1337 H 0.71326 0.09231 0.65573 0.0
H1338 H 0.7096 0.16337 0.65255 0.0
H1339 H 0.82864 0.24484 0.64219 0.0
H1340 H 0.75767 0.1059 0.65566 0.0
H1341 H 0.9343 0.21119 0.69165 0.0
H1342 H 0.69904 0.12123 0.65495 0.0
H1343 H 0.80886 0.08875 0.70069 0.0
H1344 H 0.88982 0.19708 0.69126 0.0
H1345 H 0.82007 0.05815 0.70513 0.0
H1346 H 0.741 0.2049 0.64878 0.0
H1347 H 0.94908 0.18274 0.69327 0.0
H1348 H 0.93907 0.14083 0.69616 0.0
H1349 H 0.78539 0.23538 0.64464 0.0
H1350 H 0.908 0.09917 0.69987 0.0
N1351 N 0.87929 0.16088 0.69223 0.0
C1352 C 0.89592 0.18443 0.69201 0.0
C1353 C 0.92948 0.17642 0.69309 0.0
C1354 C 0.91235 0.15239 0.69418 0.0
C1355 C 0.92121 0.19253 0.69222 0.0
C1356 C 0.88705 0.1451 0.69383 0.0
H1357 H 0.86361 0.06823 0.70346 0.0
N1358 N 0.84558 0.11562 0.69622 0.0
C1359 C 0.83419 0.07594 0.70248 0.0
C1360 C 0.86964 0.12172 0.69588 0.0
C1361 C 0.82791 0.0933 0.7 0.0
C1362 C 0.85878 0.08169 0.70148 0.0
C1363 C 0.87692 0.10489 0.69838 0.0
O1364 O 0.8186 0.13388 0.71329 0.0
O1365 O 0.8048 0.14634 0.67996 0.0
O1366 O 0.8166 0.18453 0.67288 0.0
O1367 O 0.8462 0.18417 0.68889 0.0
O1368 O 0.79565 0.11867 0.69444 0.0
O1369 O 0.85009 0.16887 0.71103 0.0
O1370 O 0.82989 0.16788 0.63396 0.0
O1371 O 0.84296 0.15599 0.66705 0.0
O1372 O 0.83121 0.11803 0.67419 0.0
O1373 O 0.80165 0.11837 0.65811 0.0
O1374 O 0.85208 0.18381 0.65264 0.0
O1375 O 0.79601 0.13458 0.63568 0.0
C1376 C 0.78689 0.12846 0.6857 0.0
C1377 C 0.84402 0.15026 0.7348 0.0
C1378 C 0.84325 0.15013 0.76247 0.0
C1379 C 0.83473 0.15356 0.74842 0.0
C1380 C 0.86131 0.14344 0.76261 0.0
C1381 C 0.86205 0.14366 0.7352 0.0
C1382 C 0.87064 0.14028 0.74906 0.0
C1383 C 0.83381 0.19415 0.68354 0.0
C1384 C 0.83427 0.15319 0.72028 0.0
C1385 C 0.90204 0.11187 0.69811 0.0
C1386 C 0.91973 0.13559 0.696 0.0
C1387 C 0.86084 0.17391 0.66129 0.0
C1388 C 0.80466 0.15457 0.61223 0.0
C1389 C 0.8119 0.14917 0.59849 0.0
C1390 C 0.80576 0.15542 0.58449 0.0
C1391 C 0.79208 0.1671 0.58466 0.0
C1392 C 0.7907 0.16578 0.61203 0.0
C1393 C 0.78447 0.172 0.59831 0.0
C1394 C 0.81399 0.10837 0.66353 0.0
C1395 C 0.81296 0.14961 0.62666 0.0
H1396 H 0.82058 0.1584 0.74806 0.0
H1397 H 0.8685 0.14094 0.7732 0.0
H1398 H 0.86942 0.14107 0.72484 0.0
H1399 H 0.88458 0.13521 0.7493 0.0
H1400 H 0.8223 0.14011 0.5988 0.0
H1401 H 0.78753 0.17289 0.57429 0.0
H1402 H 0.78489 0.16999 0.62246 0.0
H1403 H 0.77396 0.18095 0.59825 0.0
H1404 H 0.33351 0.83504 0.04643 0.0
H1405 H 0.41074 0.97205 0.02588 0.0
H1406 H 0.30962 0.88485 0.0558 0.0
H1407 H 0.43924 0.92497 0.02074 0.0
H1408 H 0.3712 0.93885 0.03358 0.0
H1409 H 0.36993 0.86625 0.03382 0.0
C1410 C 0.33578 0.85246 0.04571 0.0
C1411 C 0.31857 0.85736 0.05233 0.0
C1412 C 0.38596 0.93566 0.03059 0.0
C1413 C 0.36029 0.89318 0.03799 0.0
C1414 C 0.40848 0.9546 0.02615 0.0
C1415 C 0.42811 0.95117 0.02249 0.0
C1416 C 0.38313 0.9131 0.03164 0.0
C1417 C 0.42441 0.92829 0.02321 0.0
C1418 C 0.35665 0.87029 0.03858 0.0
C1419 C 0.3226 0.88033 0.05114 0.0
N1420 N 0.40237 0.91011 0.02778 0.0
N1421 N 0.34303 0.89735 0.04418 0.0
H1422 H 0.14357 0.47843 0.04746 0.0
H1423 H -0.00027 0.42016 0.02771 0.0
H1424 H 0.08878 0.40778 0.05977 0.0
H1425 H 0.05106 0.4944 0.02365 0.0
H1426 H 0.03337 0.41433 0.03645 0.0
H1427 H 0.11115 0.48358 0.03559 0.0
C1428 C 0.12477 0.46395 0.04758 0.0
C1429 C 0.11888 0.44268 0.05473 0.0
C1430 C 0.03737 0.43189 0.03351 0.0
C1431 C 0.0817 0.44851 0.04123 0.0
C1432 C 0.01819 0.43518 0.02849 0.0
C1433 C 0.02275 0.45769 0.02467 0.0
C1434 C 0.06129 0.45131 0.03493 0.0
C1435 C 0.04689 0.47667 0.02614 0.0
C1436 C 0.10627 0.46695 0.04087 0.0
C1437 C 0.09414 0.42459 0.05462 0.0
N1438 N 0.06529 0.47306 0.03114 0.0
N1439 N 0.07652 0.42793 0.048 0.0
H1440 H 0.5 0.65505 0.04476 0.0
H1441 H 0.54066 0.55798 0.03645 0.0
H1442 H 0.56633 0.66189 0.06466 0.0
H1443 H 0.47633 0.55267 0.01452 0.0
H1444 H 0.55038 0.59614 0.04681 0.0
H1445 H 0.49135 0.61786 0.0332 0.0
C1446 C 0.51286 0.64885 0.04661 0.0
C1447 C 0.53388 0.66161 0.05577 0.0
C1448 C 0.53419 0.58667 0.03967 0.0
C1449 C 0.5239 0.61884 0.04271 0.0
C1450 C 0.52859 0.56483 0.03377 0.0
C1451 C 0.50772 0.55212 0.0245 0.0
C1452 C 0.51876 0.59588 0.03637 0.0
C1453 C 0.49278 0.56194 0.02144 0.0
C1454 C 0.50782 0.62753 0.04007 0.0
C1455 C 0.54968 0.65249 0.0579 0.0
N1456 N 0.49857 0.5832 0.02737 0.0
N1457 N 0.54434 0.63167 0.05147 0.0
H1458 H 0.83249 0.30198 0.97853 0.0
H1459 H 0.96379 0.41693 0.97453 0.0
H1460 H 0.87486 0.32299 0.93735 0.0
H1461 H 0.90596 0.41409 1.00217 0.0
H1462 H 0.93389 0.3793 0.9631 0.0
H1463 H 0.86161 0.34008 0.98971 0.0
C1464 C 0.8477 0.31452 0.97174 0.0
C1465 C 0.85102 0.30898 0.95688 0.0
C1466 C 0.92785 0.38693 0.97173 0.0
C1467 C 0.88491 0.35244 0.96994 0.0
C1468 C 0.9449 0.4084 0.97832 0.0
C1469 C 0.93755 0.41865 0.98957 0.0
C1470 C 0.90333 0.37538 0.97658 0.0
C1471 C 0.91268 0.40669 0.99385 0.0
C1472 C 0.86441 0.33624 0.97822 0.0
C1473 C 0.87164 0.32601 0.94892 0.0
N1474 N 0.89651 0.3856 0.98745 0.0
N1475 N 0.88785 0.34683 0.95558 0.0
H1476 H 0.68161 0.55846 0.97486 0.0
H1477 H 0.53921 0.47305 0.99268 0.0
H1478 H 0.6387 0.49069 0.95338 0.0
H1479 H 0.57218 0.54848 0.99205 0.0
H1480 H 0.57847 0.47726 0.98446 0.0
H1481 H 0.64416 0.55293 0.98726 0.0
C1482 C 0.66434 0.54233 0.9729 0.0
C1483 C 0.66314 0.52506 0.96303 0.0
C1484 C 0.57714 0.49287 0.98632 0.0
C1485 C 0.62051 0.51852 0.97727 0.0
C1486 C 0.55485 0.4905 0.99113 0.0
C1487 C 0.55261 0.5105 0.99321 0.0
C1488 C 0.59731 0.51538 0.98368 0.0
C1489 C 0.57328 0.53267 0.99066 0.0
C1490 C 0.64304 0.53924 0.97991 0.0
C1491 C 0.64031 0.5045 0.9608 0.0
N1492 N 0.59483 0.53455 0.98609 0.0
N1493 N 0.61988 0.50176 0.9679 0.0
H1494 H 0.4361 0.09624 0.93984 0.0
H1495 H 0.49945 0.06529 0.00702 0.0
H1496 H 0.4578 0.13599 0.98166 0.0
H1497 H 0.44777 0.01286 0.97578 0.0
H1498 H 0.48929 0.09374 0.99636 0.0
H1499 H 0.44513 0.06769 0.95131 0.0
C1500 C 0.44251 0.09895 0.95147 0.0
C1501 C 0.44595 0.11864 0.95978 0.0
C1502 C 0.4801 0.07594 0.99194 0.0
C1503 C 0.4571 0.08615 0.97282 0.0
C1504 C 0.48578 0.05962 0.99807 0.0
C1505 C 0.47417 0.03644 0.99251 0.0
C1506 C 0.46312 0.06921 0.97992 0.0
C1507 C 0.45712 0.03043 0.98054 0.0
C1508 C 0.44783 0.08265 0.95797 0.0
C1509 C 0.45513 0.12136 0.97469 0.0
N1510 N 0.45223 0.04673 0.9746 0.0
N1511 N 0.46048 0.10537 0.9807 0.0
H1512 H 0.67169 0.0838 0.95943 0.0
H1513 H 0.54078 0.04547 0.99598 0.0
H1514 H 0.64632 0.13271 0.96793 0.0
H1515 H 0.56931 -0.00136 0.98953 0.0
H1516 H 0.58036 0.07846 0.98784 0.0
H1517 H 0.63535 0.05313 0.97209 0.0
C1518 C 0.65844 0.08809 0.96395 0.0
C1519 C 0.66195 0.11083 0.96245 0.0
C1520 C 0.57808 0.06102 0.98838 0.0
C1521 C 0.62017 0.07569 0.97711 0.0
C1522 C 0.55555 0.04223 0.99314 0.0
C1523 C 0.55195 0.01938 0.99361 0.0
C1524 C 0.59693 0.0568 0.98381 0.0
C1525 C 0.57145 0.01604 0.98942 0.0
C1526 C 0.63773 0.07058 0.97128 0.0
C1527 C 0.64439 0.11545 0.96885 0.0
N1528 N 0.59302 0.03449 0.98464 0.0
N1529 N 0.62414 0.09799 0.97578 0.0
H1530 H 0.89334 0.56477 0.95589 0.0
H1531 H 0.92933 0.47416 0.99163 0.0
H1532 H 0.83934 0.4933 0.96705 0.0
H1533 H 0.98041 0.54835 0.98695 0.0
H1534 H 0.89589 0.4805 0.98305 0.0
H1535 H 0.92534 0.55889 0.96736 0.0
C1536 C 0.88821 0.54781 0.96074 0.0
C1537 C 0.86362 0.52945 0.9604 0.0
C1538 C 0.91436 0.49544 0.98404 0.0
C1539 C 0.90026 0.52257 0.97364 0.0
C1540 C 0.93341 0.49184 0.98904 0.0
C1541 C 0.95753 0.51088 0.99032 0.0
C1542 C 0.91961 0.51817 0.97998 0.0
C1543 C 0.96198 0.53328 0.9863 0.0
C1544 C 0.90649 0.54449 0.96738 0.0
C1545 C 0.85803 0.50797 0.96712 0.0
N1546 N 0.94323 0.53631 0.9813 0.0
N1547 N 0.87623 0.50505 0.97335 0.0
H1548 H 0.48498 0.31854 0.97045 0.0
H1549 H 0.44317 0.41497 0.97771 0.0
H1550 H 0.42105 0.31299 0.94783 0.0
H1551 H 0.50573 0.41942 1.00153 0.0
H1552 H 0.43469 0.37751 0.96675 0.0
H1553 H 0.49257 0.35526 0.98223 0.0
C1554 C 0.47245 0.32495 0.96802 0.0
C1555 C 0.45238 0.31264 0.95808 0.0
C1556 C 0.45021 0.38664 0.97442 0.0
C1557 C 0.46113 0.35487 0.97142 0.0
C1558 C 0.45509 0.40807 0.98068 0.0
C1559 C 0.47511 0.42036 0.99065 0.0
C1560 C 0.46551 0.37741 0.97808 0.0
C1561 C 0.48991 0.41049 0.99406 0.0
C1562 C 0.47687 0.346 0.97469 0.0
C1563 C 0.43698 0.32203 0.95522 0.0
N1564 N 0.48483 0.38965 0.98778 0.0
N1565 N 0.44169 0.34255 0.96184 0.0
H1566 H 0.14868 0.66599 0.03719 0.0
H1567 H 0.01708 0.55146 0.04099 0.0
H1568 H 0.1072 0.6441 0.07871 0.0
H1569 H 0.07449 0.55436 0.0129 0.0
H1570 H 0.04732 0.5888 0.05264 0.0
H1571 H 0.1192 0.62821 0.02579 0.0
C1572 C 0.1336 0.65332 0.04401 0.0
C1573 C 0.13064 0.65853 0.05903 0.0
C1574 C 0.05319 0.58124 0.04386 0.0
C1575 C 0.0963 0.61545 0.04572 0.0
C1576 C 0.03595 0.55995 0.03715 0.0
C1577 C 0.04308 0.54981 0.02571 0.0
C1578 C 0.07767 0.59272 0.03895 0.0
C1579 C 0.06792 0.56169 0.02137 0.0
C1580 C 0.11667 0.63179 0.03741 0.0
C1581 C 0.11016 0.64135 0.06702 0.0
N1582 N 0.08427 0.5826 0.02789 0.0
N1583 N 0.09372 0.62072 0.06024 0.0
H1584 H 0.34398 0.4829 0.06306 0.0
H1585 H 0.40992 0.4229 0.0228 0.0
H1586 H 0.30207 0.41552 0.04095 0.0
H1587 H 0.44247 0.49828 0.02357 0.0
H1588 H 0.37077 0.41894 0.03102 0.0
H1589 H 0.38125 0.48838 0.05049 0.0
C1590 C 0.34266 0.46932 0.05551 0.0
C1591 C 0.32 0.44871 0.05304 0.0
C1592 C 0.38638 0.43633 0.02916 0.0
C1593 C 0.36244 0.4547 0.03883 0.0
C1594 C 0.40865 0.43858 0.02449 0.0
C1595 C 0.42924 0.46091 0.02228 0.0
C1596 C 0.38497 0.45659 0.03218 0.0
C1597 C 0.42687 0.48074 0.02487 0.0
C1598 C 0.36384 0.47251 0.04829 0.0
C1599 C 0.31921 0.43169 0.0431 0.0
N1600 N 0.4052 0.47813 0.02987 0.0
N1601 N 0.34019 0.43491 0.03651 0.0
H1602 H 0.56641 0.88257 0.06615 0.0
H1603 H 0.47542 0.90381 0.01297 0.0
H1604 H 0.5004 0.82618 0.04571 0.0
H1605 H 0.53834 0.95924 0.03658 0.0
H1606 H 0.48536 0.87522 0.02363 0.0
H1607 H 0.55731 0.91094 0.05437 0.0
C1608 C 0.54992 0.87612 0.05924 0.0
C1609 C 0.53408 0.85188 0.05702 0.0
C1610 C 0.49702 0.89365 0.02643 0.0
C1611 C 0.52368 0.88442 0.04328 0.0
C1612 C 0.49143 0.91003 0.02029 0.0
C1613 C 0.50612 0.93404 0.02381 0.0
C1614 C 0.51744 0.9013 0.03619 0.0
C1615 C 0.52644 0.94095 0.03354 0.0
C1616 C 0.5448 0.89237 0.05244 0.0
C1617 C 0.51327 0.84466 0.04765 0.0
N1618 N 0.53147 0.92469 0.03938 0.0
N1619 N 0.50865 0.86085 0.04117 0.0
H1620 H 0.98681 0.17105 0.3678 0.0
H1621 H 0.08009 0.30766 0.36137 0.0
H1622 H -0.00756 0.22078 0.40192 0.0
H1623 H 0.10559 0.25902 0.35236 0.0
H1624 H 0.0408 0.27482 0.36989 0.0
H1625 H 0.02445 0.20227 0.35628 0.0
C1626 C -0.00423 0.18834 0.37297 0.0
C1627 C 0.98601 0.193 0.38597 0.0
C1628 C 0.05488 0.27133 0.36579 0.0
C1629 C 0.02858 0.22894 0.37231 0.0
C1630 C 0.0772 0.28998 0.36089 0.0
C1631 C 0.09595 0.28599 0.35595 0.0
C1632 C 0.05115 0.24846 0.36567 0.0
C1633 C 0.0914 0.26277 0.35576 0.0
C1634 C 0.01718 0.20615 0.36626 0.0
C1635 C -0.00151 0.21614 0.39175 0.0
N1636 N 0.06935 0.24477 0.36052 0.0
N1637 N 0.01891 0.23318 0.38482 0.0
H1638 H 0.81344 0.81568 0.38202 0.0
H1639 H 0.66919 0.75453 0.36246 0.0
H1640 H 0.75957 0.74525 0.39536 0.0
H1641 H 0.71944 0.82884 0.35744 0.0
H1642 H 0.70341 0.74971 0.3714 0.0
H1643 H 0.78053 0.81969 0.36974 0.0
C1644 C 0.79474 0.80102 0.38228 0.0
C1645 C 0.78923 0.78018 0.38987 0.0
C1646 C 0.70704 0.76706 0.3682 0.0
C1647 C 0.75153 0.78466 0.37588 0.0
C1648 C 0.68754 0.76977 0.36307 0.0
C1649 C 0.69162 0.792 0.35892 0.0
C1650 C 0.73081 0.78679 0.3694 0.0
C1651 C 0.71562 0.8113 0.36016 0.0
C1652 C 0.77596 0.80336 0.37534 0.0
C1653 C 0.76463 0.76179 0.3899 0.0
N1654 N 0.73434 0.80825 0.36528 0.0
N1655 N 0.74675 0.76447 0.38305 0.0
H1656 H 0.18556 -0.00116 0.36862 0.0
H1657 H 0.1997 0.88572 0.37423 0.0
H1658 H 0.20654 0.97847 0.41018 0.0
H1659 H 0.14671 0.88831 0.34399 0.0
H1660 H 0.20792 0.92293 0.38545 0.0
H1661 H 0.17623 0.96126 0.35736 0.0
C1662 C 0.18808 -0.01348 0.37546 0.0
C1663 C 0.19698 -0.00792 0.39044 0.0
C1664 C 0.19457 0.91535 0.3763 0.0
C1665 C 0.18696 0.94927 0.37735 0.0
C1666 C 0.18989 0.89412 0.36984 0.0
C1667 C 0.17268 0.8839 0.35795 0.0
C1668 C 0.18226 0.92668 0.37073 0.0
C1669 C 0.16049 0.89568 0.35287 0.0
C1670 C 0.18286 0.96511 0.36895 0.0
C1671 C 0.2003 0.9754 0.39851 0.0
N1672 N 0.16564 0.91653 0.35921 0.0
N1673 N 0.19546 0.95489 0.39184 0.0
H1674 H 0.49964 0.65961 0.28506 0.0
H1675 H 0.63281 0.74041 0.32001 0.0
H1676 H 0.54328 0.63013 0.30123 0.0
H1677 H 0.57441 0.75575 0.32722 0.0
H1678 H 0.60254 0.70198 0.30946 0.0
H1679 H 0.5292 0.69739 0.29686 0.0
C1680 C 0.51548 0.66116 0.2911 0.0
C1681 C 0.5191 0.64184 0.29224 0.0
C1682 C 0.59641 0.71378 0.3134 0.0
C1683 C 0.55303 0.68486 0.30546 0.0
C1684 C 0.61365 0.73572 0.31934 0.0
C1685 C 0.60611 0.7513 0.32448 0.0
C1686 C 0.57158 0.70762 0.31225 0.0
C1687 C 0.581 0.74425 0.32343 0.0
C1688 C 0.53222 0.68261 0.29786 0.0
C1689 C 0.53984 0.64465 0.3002 0.0
N1690 N 0.56466 0.72301 0.31728 0.0
N1691 N 0.55621 0.66586 0.30639 0.0
H1692 H 0.30556 0.82235 0.28543 0.0
H1693 H 0.23798 0.88206 0.3243 0.0
H1694 H 0.34666 0.8905 0.30669 0.0
H1695 H 0.20684 0.80685 0.3249 0.0
H1696 H 0.27723 0.88642 0.31588 0.0
H1697 H 0.26802 0.81686 0.29764 0.0
C1698 C 0.30664 0.83611 0.2927 0.0
C1699 C 0.32916 0.85692 0.29505 0.0
C1700 C 0.2619 0.86899 0.31807 0.0
C1701 C 0.28641 0.85092 0.30886 0.0
C1702 C 0.23957 0.86651 0.32284 0.0
C1703 C 0.21935 0.84411 0.32553 0.0
C1704 C 0.26374 0.84887 0.31542 0.0
C1705 C 0.22214 0.82445 0.32323 0.0
C1706 C 0.2853 0.83292 0.29972 0.0
C1707 C 0.32964 0.87418 0.30464 0.0
N1708 N 0.24385 0.82727 0.31813 0.0
N1709 N 0.30852 0.87093 0.31103 0.0
H1710 H 0.10675 0.43069 0.27127 0.0
H1711 H 0.16872 0.40002 0.3394 0.0
H1712 H 0.12765 0.47078 0.31296 0.0
H1713 H 0.11655 0.34725 0.30852 0.0
H1714 H 0.15929 0.42866 0.32822 0.0
H1715 H 0.11578 0.40235 0.28308 0.0
C1716 C 0.11303 0.43353 0.28293 0.0
C1717 C 0.11616 0.45321 0.29112 0.0
C1718 C 0.14984 0.41075 0.32399 0.0
C1719 C 0.12728 0.42096 0.30455 0.0
C1720 C 0.1551 0.39432 0.33042 0.0
C1721 C 0.14312 0.37099 0.32512 0.0
C1722 C 0.13294 0.40397 0.31192 0.0
C1723 C 0.12617 0.36493 0.31309 0.0
C1724 C 0.11833 0.41735 0.28962 0.0
C1725 C 0.12519 0.45614 0.30607 0.0
N1726 N 0.12171 0.38134 0.30685 0.0
N1727 N 0.13051 0.44024 0.31229 0.0
H1728 H 0.30495 0.45889 0.28778 0.0
H1729 H 0.23911 0.33413 0.32586 0.0
H1730 H 0.34711 0.43056 0.30813 0.0
H1731 H 0.2072 0.37882 0.32705 0.0
H1732 H 0.27835 0.36793 0.31795 0.0
H1733 H 0.26799 0.4284 0.30043 0.0
C1734 C 0.30638 0.44627 0.29497 0.0
C1735 C 0.329 0.44712 0.29691 0.0
C1736 C 0.26286 0.37041 0.32018 0.0
C1737 C 0.2869 0.41213 0.31121 0.0
C1738 C 0.24054 0.35117 0.32467 0.0
C1739 C 0.22009 0.35383 0.32731 0.0
C1740 C 0.26444 0.39223 0.31778 0.0
C1741 C 0.22267 0.37614 0.32538 0.0
C1742 C 0.28538 0.42901 0.30224 0.0
C1743 C 0.32998 0.43049 0.3064 0.0
N1744 N 0.24437 0.39445 0.32054 0.0
N1745 N 0.30913 0.41343 0.31303 0.0
H1746 H 0.56089 0.89888 0.2921 0.0
H1747 H 0.59738 0.80709 0.32515 0.0
H1748 H 0.50727 0.82666 0.30177 0.0
H1749 H 0.64861 0.8813 0.32083 0.0
H1750 H 0.56385 0.81374 0.31734 0.0
H1751 H 0.59299 0.89277 0.30317 0.0
C1752 C 0.55587 0.88171 0.29657 0.0
C1753 C 0.53137 0.8632 0.29588 0.0
C1754 C 0.58237 0.82862 0.31825 0.0
C1755 C 0.56813 0.85604 0.30864 0.0
C1756 C 0.60148 0.82484 0.32281 0.0
C1757 C 0.62567 0.84379 0.324 0.0
C1758 C 0.5876 0.85146 0.31453 0.0
C1759 C 0.63012 0.8663 0.32027 0.0
C1760 C 0.5742 0.87826 0.30296 0.0
C1761 C 0.52589 0.84145 0.3021 0.0
N1762 N 0.61129 0.86951 0.3157 0.0
N1763 N 0.54415 0.83841 0.3081 0.0
H1764 H 0.10629 0.65738 0.2706 0.0
H1765 H 0.16996 0.74913 0.33756 0.0
H1766 H 0.12867 0.63864 0.31226 0.0
H1767 H 0.11601 0.75063 0.30766 0.0
H1768 H 0.16052 0.71142 0.32653 0.0
H1769 H 0.11526 0.69456 0.28212 0.0
C1770 C 0.11289 0.66089 0.28219 0.0
C1771 C 0.11645 0.64452 0.29047 0.0
C1772 C 0.15067 0.71998 0.32249 0.0
C1773 C 0.12751 0.68762 0.30353 0.0
C1774 C 0.15593 0.74147 0.32884 0.0
C1775 C 0.14341 0.75294 0.3238 0.0
C1776 C 0.13324 0.71016 0.31072 0.0
C1777 C 0.12601 0.74242 0.31203 0.0
C1778 C 0.11815 0.68224 0.28871 0.0
C1779 C 0.12588 0.65067 0.30531 0.0
N1780 N 0.12154 0.7217 0.30585 0.0
N1781 N 0.13116 0.67175 0.31134 0.0
H1782 H 0.76606 -0.00825 0.40194 0.0
H1783 H 0.74335 0.88349 0.34915 0.0
H1784 H 0.8246 -0.01381 0.38071 0.0
H1785 H 0.68482 0.88964 0.36993 0.0
H1786 H 0.77328 0.9212 0.36032 0.0
H1787 H 0.7361 0.95444 0.39026 0.0
C1788 C 0.77266 0.98262 0.3949 0.0
C1789 C 0.79797 -0.00786 0.39239 0.0
C1790 C 0.75389 0.91435 0.3624 0.0
C1791 C 0.76359 0.94939 0.37878 0.0
C1792 C 0.73672 0.89282 0.35595 0.0
C1793 C 0.71142 0.88338 0.35846 0.0
C1794 C 0.7458 0.92658 0.37153 0.0
C1795 C 0.70408 0.89618 0.36763 0.0
C1796 C 0.75549 0.96136 0.38814 0.0
C1797 C 0.8053 0.97968 0.38287 0.0
N1798 N 0.72118 0.91709 0.37383 0.0
N1799 N 0.78822 0.95896 0.37646 0.0
H1800 H 0.98513 0.79745 0.36958 0.0
H1801 H 0.08124 0.75439 0.36166 0.0
H1802 H -0.00563 0.75597 0.40429 0.0
H1803 H 0.10526 0.82737 0.35334 0.0
H1804 H 0.04209 0.74886 0.37107 0.0
H1805 H 0.0231 0.80362 0.35781 0.0
C1806 C -0.00504 0.78968 0.37484 0.0
C1807 C 0.98606 0.77601 0.38807 0.0
C1808 C 0.05581 0.76597 0.36693 0.0
C1809 C 0.02905 0.78235 0.37412 0.0
C1810 C 0.07805 0.76913 0.36152 0.0
C1811 C 0.09633 0.79126 0.35647 0.0
C1812 C 0.05165 0.78501 0.36717 0.0
C1813 C 0.09141 0.80989 0.35677 0.0
C1814 C 0.01656 0.79313 0.36798 0.0
C1815 C -0.00031 0.76605 0.39395 0.0
N1816 N 0.06942 0.80633 0.36197 0.0
N1817 N 0.02026 0.76923 0.38686 0.0
H1818 H 0.18727 0.16586 0.36831 0.0
H1819 H 0.19915 0.29164 0.37484 0.0
H1820 H 0.2068 0.20568 0.41009 0.0
H1821 H 0.14876 0.23925 0.34308 0.0
H1822 H 0.20753 0.26237 0.38588 0.0
H1823 H 0.17791 0.19445 0.35697 0.0
C1824 C 0.18946 0.18044 0.37517 0.0
C1825 C 0.19795 0.18324 0.39024 0.0
C1826 C 0.19471 0.25734 0.37645 0.0
C1827 C 0.18787 0.21638 0.37709 0.0
C1828 C 0.18992 0.27406 0.37008 0.0
C1829 C 0.17336 0.26805 0.35785 0.0
C1830 C 0.18313 0.23446 0.37047 0.0
C1831 C 0.16197 0.24486 0.35229 0.0
C1832 C 0.18423 0.19682 0.36862 0.0
C1833 C 0.20088 0.2029 0.39836 0.0
N1834 N 0.16718 0.22894 0.35858 0.0
N1835 N 0.196 0.21875 0.39166 0.0
H1836 H 0.65696 0.55266 0.73713 0.0
H1837 H 0.77104 0.58948 0.68575 0.0
H1838 H 0.65257 0.5036 0.70291 0.0
H1839 H 0.74558 0.63779 0.69594 0.0
H1840 H 0.7313 0.55679 0.69423 0.0
H1841 H 0.69342 0.58349 0.72494 0.0
C1842 C 0.66329 0.54824 0.72697 0.0
C1843 C 0.65107 0.52523 0.72102 0.0
C1844 C 0.73437 0.57453 0.69436 0.0
C1845 C 0.69391 0.56074 0.70737 0.0
C1846 C 0.75691 0.59314 0.68942 0.0
C1847 C 0.76133 0.6163 0.6898 0.0
C1848 C 0.71668 0.57935 0.70029 0.0
C1849 C 0.74276 0.62016 0.69529 0.0
C1850 C 0.68434 0.56596 0.72009 0.0
C1851 C 0.66128 0.52083 0.70812 0.0
N1852 N 0.72139 0.60194 0.70049 0.0
N1853 N 0.68221 0.53837 0.7018 0.0
H1854 H 0.47721 0.14343 0.71408 0.0
H1855 H 0.33343 0.08523 0.69413 0.0
H1856 H 0.42237 0.0726 0.72601 0.0
H1857 H 0.38469 0.15955 0.69041 0.0
H1858 H 0.36711 0.07934 0.70268 0.0
H1859 H 0.44485 0.14867 0.70218 0.0
C1860 C 0.45841 0.12892 0.7141 0.0
C1861 C 0.45247 0.10759 0.72116 0.0
C1862 C 0.37109 0.09693 0.69986 0.0
C1863 C 0.41538 0.11351 0.70762 0.0
C1864 C 0.35189 0.10026 0.69494 0.0
C1865 C 0.35641 0.12281 0.69129 0.0
C1866 C 0.395 0.11636 0.70134 0.0
C1867 C 0.38055 0.14179 0.69277 0.0
C1868 C 0.43994 0.13198 0.70738 0.0
C1869 C 0.42775 0.08947 0.72093 0.0
N1870 N 0.39897 0.13814 0.69768 0.0
N1871 N 0.41017 0.09285 0.7143 0.0
H1872 H 0.90069 0.32782 0.73071 0.0
H1873 H 0.80813 0.21739 0.67957 0.0
H1874 H 0.83357 0.31955 0.71113 0.0
H1875 H 0.87288 0.22387 0.70165 0.0
H1876 H 0.81817 0.25565 0.68989 0.0
H1877 H 0.89173 0.29063 0.71912 0.0
C1878 C 0.88401 0.31815 0.72401 0.0
C1879 C 0.86778 0.32679 0.72199 0.0
C1880 C 0.83023 0.24874 0.69244 0.0
C1881 C 0.85751 0.2842 0.70852 0.0
C1882 C 0.82457 0.22691 0.68648 0.0
C1883 C 0.83978 0.21741 0.68964 0.0
C1884 C 0.85121 0.26119 0.70168 0.0
C1885 C 0.86061 0.23045 0.6989 0.0
C1886 C 0.87897 0.29695 0.71733 0.0
C1887 C 0.84672 0.3137 0.7129 0.0
N1888 N 0.8657 0.25164 0.70458 0.0
N1889 N 0.84215 0.29303 0.70656 0.0
H1890 H 0.16456 0.96822 0.64522 0.0
H1891 H 0.29639 0.08257 0.64139 0.0
H1892 H 0.20687 -0.01051 0.60402 0.0
H1893 H 0.23909 0.07994 0.66945 0.0
H1894 H 0.26611 0.04523 0.62981 0.0
H1895 H 0.19385 0.0062 0.65652 0.0
C1896 C 0.17979 0.9808 0.63846 0.0
C1897 C 0.18309 0.97534 0.62357 0.0
C1898 C 0.26026 0.05284 0.63856 0.0
C1899 C 0.21715 0.01864 0.63675 0.0
C1900 C 0.27754 0.07414 0.64523 0.0
C1901 C 0.27045 0.08435 0.65666 0.0
C1902 C 0.23578 0.04142 0.64348 0.0
C1903 C 0.24562 0.07254 0.66101 0.0
C1904 C 0.19659 0.00245 0.645 0.0
C1905 C 0.20369 -0.00757 0.61562 0.0
N1906 N 0.22922 0.05161 0.65452 0.0
N1907 N 0.21999 0.01316 0.62234 0.0
H1908 H 0.00529 0.22946 0.62407 0.0
H1909 H 0.87482 0.14036 0.66032 0.0
H1910 H 0.98277 0.15728 0.6342 0.0
H1911 H 0.90234 0.21453 0.65466 0.0
H1912 H 0.91475 0.14615 0.65222 0.0
H1913 H 0.96819 0.22435 0.63623 0.0
C1914 C -0.0075 0.2125 0.62884 0.0
C1915 C -0.00293 0.19371 0.62797 0.0
C1916 C 0.91217 0.16122 0.65293 0.0
C1917 C 0.9544 0.1877 0.64205 0.0
C1918 C 0.88944 0.15793 0.65767 0.0
C1919 C 0.88547 0.1771 0.6584 0.0
C1920 C 0.93084 0.18374 0.64859 0.0
C1921 C 0.90477 0.19935 0.65438 0.0
C1922 C 0.97136 0.20961 0.63589 0.0
C1923 C 0.98003 0.17226 0.63464 0.0
N1924 N 0.92654 0.20205 0.6496 0.0
N1925 N 0.95935 0.16977 0.64128 0.0
H1926 H 0.81397 0.81119 0.63852 0.0
H1927 H 0.77331 0.67522 0.64682 0.0
H1928 H 0.74773 0.75424 0.61869 0.0
H1929 H 0.83696 0.73111 0.66961 0.0
H1930 H 0.76369 0.70413 0.63664 0.0
H1931 H 0.82251 0.78238 0.6504 0.0
C1932 C 0.80111 0.79264 0.63675 0.0
C1933 C 0.78014 0.78517 0.6275 0.0
C1934 C 0.77971 0.7101 0.64392 0.0
C1935 C 0.78999 0.75208 0.64094 0.0
C1936 C 0.78525 0.69357 0.64974 0.0
C1937 C 0.80597 0.70069 0.65914 0.0
C1938 C 0.79503 0.73403 0.64741 0.0
C1939 C 0.8207 0.72476 0.66251 0.0
C1940 C 0.80608 0.7762 0.64348 0.0
C1941 C 0.76434 0.76088 0.62548 0.0
N1942 N 0.81499 0.74057 0.65661 0.0
N1943 N 0.76962 0.74526 0.6321 0.0
H1944 H 0.98685 0.74749 0.61016 0.0
H1945 H 0.87443 0.71019 0.66293 0.0
H1946 H -0.00674 0.79577 0.64555 0.0
H1947 H 0.8995 0.66187 0.65181 0.0
H1948 H 0.91406 0.74293 0.65434 0.0
H1949 H 0.95051 0.71661 0.62244 0.0
C1950 C 0.98099 0.75172 0.62058 0.0
C1951 C -0.00624 0.77452 0.62684 0.0
C1952 C 0.91093 0.72517 0.65403 0.0
C1953 C 0.95106 0.73901 0.6406 0.0
C1954 C 0.88845 0.70653 0.65903 0.0
C1955 C 0.88394 0.68335 0.65841 0.0
C1956 C 0.92843 0.72037 0.64778 0.0
C1957 C 0.90237 0.67951 0.65264 0.0
C1958 C 0.96001 0.73399 0.62751 0.0
C1959 C 0.98412 0.77872 0.64009 0.0
N1960 N 0.92366 0.69776 0.64737 0.0
N1961 N 0.96324 0.76119 0.64646 0.0
H1962 H 0.22489 0.22928 0.6248 0.0
H1963 H 0.26256 0.13924 0.65942 0.0
H1964 H 0.17182 0.15684 0.63433 0.0
H1965 H 0.31281 0.21368 0.65516 0.0
H1966 H 0.22873 0.14515 0.65111 0.0
H1967 H 0.257 0.22386 0.63653 0.0
C1968 C 0.22 0.2122 0.62937 0.0
C1969 C 0.19566 0.19343 0.62845 0.0
C1970 C 0.24709 0.16024 0.65214 0.0
C1971 C 0.23244 0.18706 0.64198 0.0
C1972 C 0.26637 0.15688 0.65698 0.0
C1973 C 0.29039 0.17611 0.65829 0.0
C1974 C 0.252 0.18292 0.64827 0.0
C1975 C 0.29447 0.19847 0.65448 0.0
C1976 C 0.23833 0.20914 0.63615 0.0
C1977 C 0.19032 0.17181 0.63483 0.0
N1978 N 0.27551 0.20126 0.64963 0.0
N1979 N 0.2086 0.16915 0.64121 0.0
H1980 H 0.74693 0.97427 0.61684 0.0
H1981 H 0.83944 0.08496 0.66781 0.0
H1982 H 0.81359 0.98225 0.63699 0.0
H1983 H 0.77509 0.0787 0.64528 0.0
H1984 H 0.82931 0.0466 0.65765 0.0
H1985 H 0.7561 0.01174 0.62808 0.0
C1986 C 0.76356 0.98394 0.62359 0.0
C1987 C 0.77959 0.97512 0.62588 0.0
C1988 C 0.81737 0.05358 0.65496 0.0
C1989 C 0.79009 0.01803 0.63895 0.0
C1990 C 0.82307 0.07548 0.66082 0.0
C1991 C 0.808 0.08507 0.65749 0.0
C1992 C 0.79646 0.04115 0.64565 0.0
C1993 C 0.78727 0.07206 0.64816 0.0
C1994 C 0.76872 0.0053 0.63007 0.0
C1995 C 0.80058 -0.01177 0.63501 0.0
N1996 N 0.78212 0.05079 0.64258 0.0
N1997 N 0.80526 0.00905 0.64117 0.0
H1998 H 0.44023 0.30913 0.74751 0.0
H1999 H 0.40812 0.21903 0.67996 0.0
H2000 H 0.48071 0.33006 0.70562 0.0
H2001 H 0.35173 0.21675 0.70874 0.0
H2002 H 0.43793 0.25659 0.69146 0.0
H2003 H 0.4105 0.27193 0.73568 0.0
C2004 C 0.44291 0.30612 0.73582 0.0
C2005 C 0.46311 0.32316 0.72757 0.0
C2006 C 0.41898 0.24789 0.69516 0.0
C2007 C 0.42932 0.27996 0.71417 0.0
C2008 C 0.40186 0.22649 0.68853 0.0
C2009 C 0.37713 0.21485 0.69308 0.0
C2010 C 0.41155 0.25745 0.70675 0.0
C2011 C 0.37048 0.22511 0.70472 0.0
C2012 C 0.42593 0.28473 0.72913 0.0
C2013 C 0.46577 0.31756 0.71258 0.0
N2014 N 0.38761 0.24574 0.71121 0.0
N2015 N 0.44915 0.29643 0.7064 0.0
H2016 H 0.67695 0.14731 0.72958 0.0
H2017 H 0.74383 0.08784 0.68983 0.0
H2018 H 0.63544 0.07945 0.70801 0.0
H2019 H 0.7752 0.16308 0.68956 0.0
H2020 H 0.70459 0.08351 0.69823 0.0
H2021 H 0.71425 0.15295 0.71697 0.0
C2022 C 0.67573 0.13365 0.72215 0.0
C2023 C 0.65317 0.11287 0.71983 0.0
C2024 C 0.71996 0.10094 0.69611 0.0
C2025 C 0.69564 0.11904 0.70558 0.0
C2026 C 0.74228 0.1034 0.69134 0.0
C2027 C 0.76256 0.1258 0.68878 0.0
C2028 C 0.71822 0.12108 0.69888 0.0
C2029 C 0.75985 0.14549 0.69114 0.0
C2030 C 0.69692 0.13693 0.7149 0.0
C2031 C 0.65249 0.09575 0.71004 0.0
N2032 N 0.73815 0.14269 0.69625 0.0
N2033 N 0.67349 0.09906 0.70343 0.0
H2034 H 0.89929 0.54709 0.73147 0.0
H2035 H 0.80768 0.56823 0.67885 0.0
H2036 H 0.83292 0.49066 0.71139 0.0
H2037 H 0.87144 0.62378 0.70177 0.0
H2038 H 0.81768 0.53963 0.68942 0.0
H2039 H 0.89026 0.57545 0.71961 0.0
C2040 C 0.88274 0.54063 0.72462 0.0
C2041 C 0.86677 0.51639 0.72253 0.0
C2042 C 0.82952 0.55809 0.69209 0.0
C2043 C 0.85644 0.54891 0.70871 0.0
C2044 C 0.82389 0.57447 0.68599 0.0
C2045 C 0.83879 0.59852 0.68935 0.0
C2046 C 0.85019 0.56578 0.70164 0.0
C2047 C 0.85937 0.60546 0.69885 0.0
C2048 C 0.87766 0.55687 0.71777 0.0
C2049 C 0.84588 0.50915 0.71323 0.0
N2050 N 0.86442 0.58919 0.70465 0.0
N2051 N 0.84129 0.52532 0.70671 0.0
H2052 H 0.50622 0.94906 0.18843 0.0
H2053 H 0.46362 0.9649 0.10552 0.0
H2054 H 0.4307 0.91013 0.17291 0.0
H2055 H 0.53855 0.00292 0.12215 0.0
H2056 H 0.451 0.94377 0.12964 0.0
H2057 H 0.51811 0.96819 0.16388 0.0
C2058 C 0.49211 0.94436 0.17982 0.0
C2059 C 0.4674 0.92778 0.18278 0.0
C2060 C 0.4702 0.95672 0.12798 0.0
C2061 C 0.48095 0.95004 0.1545 0.0
C2062 C 0.47745 0.9687 0.11418 0.0
C2063 C 0.50219 -0.01413 0.11179 0.0
C2064 C 0.48781 0.96187 0.13949 0.0
C2065 C 0.51922 -0.00983 0.12352 0.0
C2066 C 0.49892 0.95544 0.16579 0.0
C2067 C 0.44993 0.92291 0.17121 0.0
N2068 N 0.51172 0.97832 0.1368 0.0
N2069 N 0.45704 0.93395 0.15759 0.0
H2070 H 0.05757 0.54176 0.17295 0.0
H2071 H 0.94348 0.45461 0.12028 0.0
H2072 H 1e-05 0.47366 0.18761 0.0
H2073 H 0.00626 0.5182 0.10407 0.0
H2074 H 0.96334 0.46162 0.14518 0.0
H2075 H 0.03853 0.5338 0.1478 0.0
C2076 C 0.04087 0.52515 0.17088 0.0
C2077 C 0.0303 0.50839 0.18242 0.0
C2078 C 0.97281 0.47401 0.13617 0.0
C2079 C 0.00844 0.4991 0.1536 0.0
C2080 C 0.96142 0.47008 0.12198 0.0
C2081 C 0.9732 0.48588 0.11008 0.0
C2082 C -0.00391 0.49397 0.13854 0.0
C2083 C -0.0034 0.50546 0.11287 0.0
C2084 C 0.03009 0.52055 0.15649 0.0
C2085 C 0.00888 0.487 0.17902 0.0
N2086 N 0.00721 0.509 0.12681 0.0
N2087 N -0.00142 0.48302 0.16495 0.0
H2088 H 0.46607 0.54261 0.17093 0.0
H2089 H 0.49333 0.45554 0.12221 0.0
H2090 H 0.45346 0.47556 0.18714 0.0
H2091 H 0.49926 0.5192 0.10423 0.0
H2092 H 0.47867 0.46266 0.14605 0.0
H2093 H 0.47821 0.53446 0.14644 0.0
C2094 C 0.46586 0.52617 0.16935 0.0
C2095 C 0.45877 0.50978 0.18116 0.0
C2096 C 0.48309 0.47505 0.13689 0.0
C2097 C 0.4726 0.50029 0.15308 0.0
C2098 C 0.49161 0.47107 0.12328 0.0
C2099 C 0.49768 0.48686 0.1112 0.0
C2100 C 0.48072 0.49508 0.13852 0.0
C2101 C 0.49464 0.50646 0.11319 0.0
C2102 C 0.47268 0.52148 0.15533 0.0
C2103 C 0.45853 0.48863 0.17835 0.0
N2104 N 0.48652 0.51008 0.1266 0.0
N2105 N 0.46546 0.48457 0.16466 0.0
H2106 H 0.92749 0.47382 0.84263 0.0
H2107 H 0.02399 0.46088 0.89583 0.0
H2108 H 0.96999 0.44234 0.8282 0.0
H2109 H 0.98451 0.49553 0.91004 0.0
H2110 H 0.00396 0.45366 0.87106 0.0
H2111 H 0.94783 0.48177 0.86743 0.0
C2112 C 0.94118 0.46869 0.84464 0.0
C2113 C 0.94697 0.45732 0.83329 0.0
C2114 C -0.00034 0.46286 0.87958 0.0
C2115 C 0.97015 0.46618 0.86173 0.0
C2116 C 0.01121 0.46711 0.89372 0.0
C2117 C 0.00601 0.47891 0.90506 0.0
C2118 C 0.98272 0.47043 0.87669 0.0
C2119 C 0.9889 0.48614 0.90172 0.0
C2120 C 0.95269 0.47312 0.85883 0.0
C2121 C 0.96463 0.4508 0.83664 0.0
N2122 N 0.9779 0.48182 0.88784 0.0
N2123 N 0.97556 0.45531 0.85053 0.0
H2124 H 0.49641 0.48085 0.82316 0.0
H2125 H 0.51523 0.48901 0.91226 0.0
H2126 H 0.53348 0.44893 0.84561 0.0
H2127 H 0.44966 0.48233 0.8911 0.0
H2128 H 0.52707 0.48043 0.88784 0.0
H2129 H 0.48446 0.4886 0.84796 0.0
C2130 C 0.50215 0.47563 0.83334 0.0
C2131 C 0.51589 0.46422 0.8324 0.0
C2132 C 0.51009 0.48086 0.88863 0.0
C2133 C 0.50256 0.47319 0.86068 0.0
C2134 C 0.50315 0.48559 0.90261 0.0
C2135 C 0.48132 0.48652 0.90392 0.0
C2136 C 0.49544 0.47751 0.87577 0.0
C2137 C 0.46691 0.48243 0.89074 0.0
C2138 C 0.49523 0.47991 0.84743 0.0
C2139 C 0.52276 0.45766 0.84589 0.0
N2140 N 0.47433 0.47833 0.87724 0.0
N2141 N 0.51618 0.4624 0.85951 0.0
H2142 H 0.52912 0.01523 0.82803 0.0
H2143 H 0.48111 0.01419 0.91208 0.0
H2144 H 0.50994 0.06596 0.84393 0.0
H2145 H 0.48849 0.95759 0.89314 0.0
H2146 H 0.49548 0.03551 0.88814 0.0
H2147 H 0.5182 -0.00394 0.85272 0.0
C2148 C 0.52283 0.02248 0.83675 0.0
C2149 C 0.52043 0.04225 0.83385 0.0
C2150 C 0.49399 0.01844 0.88924 0.0
C2151 C 0.50764 0.02019 0.86221 0.0
C2152 C 0.48594 0.00633 0.90294 0.0
C2153 C 0.48345 0.98399 0.90461 0.0
C2154 C 0.49982 0.00827 0.87714 0.0
C2155 C 0.48977 0.9746 0.89231 0.0
C2156 C 0.51642 0.01142 0.85084 0.0
C2157 C 0.51181 0.05062 0.84558 0.0
N2158 N 0.49765 -0.01325 0.87913 0.0
N2159 N 0.50575 0.03957 0.85922 0.0
H2160 H 0.0977 0.24445 0.506 0.0
H2161 H 0.20808 0.33937 0.45504 0.0
H2162 H 0.17347 0.2843 0.52094 0.0
H2163 H 0.13266 0.30074 0.43932 0.0
H2164 H 0.19548 0.31849 0.47903 0.0
H2165 H 0.10979 0.26417 0.48143 0.0
C2166 C 0.11685 0.25739 0.50416 0.0
C2167 C 0.13458 0.26264 0.51561 0.0
C2168 C 0.18164 0.31451 0.47035 0.0
C2169 C 0.14859 0.28516 0.48742 0.0
C2170 C 0.18882 0.32654 0.45664 0.0
C2171 C 0.17139 0.32198 0.44513 0.0
C2172 C 0.15679 0.29772 0.4727 0.0
C2173 C 0.14677 0.30475 0.44781 0.0
C2174 C 0.12376 0.26854 0.49009 0.0
C2175 C 0.15918 0.27936 0.51244 0.0
N2176 N 0.14019 0.29333 0.46133 0.0
N2177 N 0.1654 0.28999 0.49871 0.0
H2178 H 0.67033 0.80736 0.52142 0.0
H2179 H 0.67581 0.85396 0.43692 0.0
H2180 H 0.72718 0.87514 0.50578 0.0
H2181 H 0.61366 0.791 0.45436 0.0
H2182 H 0.69629 0.86063 0.46157 0.0
H2183 H 0.65076 0.79962 0.49639 0.0
C2184 C 0.6788 0.82054 0.51268 0.0
C2185 C 0.70039 0.84196 0.51571 0.0
C2186 C 0.67817 0.84536 0.46002 0.0
C2187 C 0.67799 0.83329 0.48706 0.0
C2188 C 0.66653 0.84147 0.44592 0.0
C2189 C 0.64297 0.8219 0.44358 0.0
C2190 C 0.66626 0.8295 0.47187 0.0
C2191 C 0.63169 0.80646 0.45572 0.0
C2192 C 0.66753 0.81618 0.49843 0.0
C2193 C 0.71038 0.85851 0.50401 0.0
N2194 N 0.64345 0.81057 0.46932 0.0
N2195 N 0.69912 0.85383 0.49021 0.0
H2196 H 0.13671 0.8716 0.50571 0.0
H2197 H 0.16534 0.78752 0.45481 0.0
H2198 H 0.12684 0.80516 0.52115 0.0
H2199 H 0.16812 0.85037 0.4379 0.0
H2200 H 0.15119 0.79367 0.47915 0.0
H2201 H 0.14825 0.86418 0.48083 0.0
C2202 C 0.13702 0.85546 0.50388 0.0
C2203 C 0.1309 0.83903 0.51559 0.0
C2204 C 0.1548 0.80608 0.47011 0.0
C2205 C 0.14399 0.83035 0.48704 0.0
C2206 C 0.16301 0.80265 0.45622 0.0
C2207 C 0.16806 0.81852 0.44429 0.0
C2208 C 0.15172 0.82563 0.47219 0.0
C2209 C 0.16429 0.83759 0.44672 0.0
C2210 C 0.14347 0.85117 0.48963 0.0
C2211 C 0.13122 0.81824 0.51245 0.0
N2212 N 0.1565 0.84068 0.46041 0.0
N2213 N 0.13778 0.81457 0.49852 0.0
H2214 H 0.6395 0.77704 0.16077 0.0
H2215 H 0.65323 0.82959 0.24439 0.0
H2216 H 0.59776 0.80861 0.17647 0.0
H2217 H 0.69161 0.79451 0.22891 0.0
H2218 H 0.63327 0.82287 0.21955 0.0
H2219 H 0.65943 0.78425 0.18555 0.0
C2220 C 0.63441 0.78539 0.16945 0.0
C2221 C 0.61678 0.79209 0.16652 0.0
C2222 C 0.64608 0.81666 0.22159 0.0
C2223 C 0.63983 0.80068 0.19498 0.0
C2224 C 0.65738 0.82037 0.2358 0.0
C2225 C 0.67415 0.8126 0.23878 0.0
C2226 C 0.65155 0.80509 0.21023 0.0
C2227 C 0.67909 0.8011 0.2271 0.0
C2228 C 0.64592 0.78962 0.1836 0.0
C2229 C 0.61137 0.80331 0.17816 0.0
N2230 N 0.66784 0.79769 0.21338 0.0
N2231 N 0.6228 0.8072 0.19188 0.0
H2232 H 0.20383 0.77999 0.17969 0.0
H2233 H 0.11473 0.81071 0.22437 0.0
H2234 H 0.16571 0.81121 0.15767 0.0
H2235 H 0.18142 0.81978 0.24538 0.0
H2236 H 0.12844 0.80378 0.2002 0.0
H2237 H 0.19114 0.78746 0.20439 0.0
C2238 C 0.19279 0.78842 0.1801 0.0
C2239 C 0.18584 0.7951 0.1667 0.0
C2240 C 0.14002 0.80731 0.21014 0.0
C2241 C 0.17094 0.80319 0.19471 0.0
C2242 C 0.13232 0.81144 0.22399 0.0
C2243 C 0.14701 0.81622 0.2371 0.0
C2244 C 0.16231 0.80734 0.20933 0.0
C2245 C 0.16921 0.81595 0.23576 0.0
C2246 C 0.18565 0.79272 0.19414 0.0
C2247 C 0.17157 0.80597 0.16778 0.0
N2248 N 0.17613 0.81151 0.22215 0.0
N2249 N 0.16437 0.80946 0.18154 0.0
H2250 H 0.19746 0.35132 0.16135 0.0
H2251 H 0.14938 0.34934 0.24551 0.0
H2252 H 0.1772 0.40124 0.17736 0.0
H2253 H 0.15779 0.29342 0.22642 0.0
H2254 H 0.16346 0.37081 0.2216 0.0
H2255 H 0.18695 0.33216 0.18605 0.0
C2256 C 0.19101 0.35841 0.1701 0.0
C2257 C 0.18819 0.37794 0.16723 0.0
C2258 C 0.16227 0.35387 0.22266 0.0
C2259 C 0.17588 0.35588 0.19559 0.0
C2260 C 0.15438 0.34167 0.23634 0.0
C2261 C 0.15225 0.31947 0.23796 0.0
C2262 C 0.16828 0.34391 0.21052 0.0
C2263 C 0.15879 0.31031 0.22562 0.0
C2264 C 0.18485 0.34734 0.18419 0.0
C2265 C 0.1794 0.38608 0.17899 0.0
N2266 N 0.16648 0.32254 0.21247 0.0
N2267 N 0.17357 0.37503 0.19263 0.0
H2268 H 0.80283 0.56738 0.83789 0.0
H2269 H 0.82719 0.67924 0.78871 0.0
H2270 H 0.78687 0.62044 0.8535 0.0
H2271 H 0.83256 0.62115 0.77046 0.0
H2272 H 0.81271 0.65802 0.81257 0.0
H2273 H 0.81412 0.5868 0.81323 0.0
C2274 C 0.80169 0.58311 0.83614 0.0
C2275 C 0.79394 0.59231 0.84784 0.0
C2276 C 0.81694 0.64984 0.80334 0.0
C2277 C 0.80683 0.61465 0.81957 0.0
C2278 C 0.82534 0.66201 0.78973 0.0
C2279 C 0.83126 0.65204 0.77757 0.0
C2280 C 0.81458 0.62754 0.80494 0.0
C2281 C 0.8281 0.62947 0.77949 0.0
C2282 C 0.80802 0.59412 0.82202 0.0
C2283 C 0.79251 0.61257 0.84481 0.0
N2284 N 0.82016 0.61807 0.79293 0.0
N2285 N 0.79904 0.62312 0.83104 0.0
H2286 H 0.40196 0.192 0.83712 0.0
H2287 H 0.2816 0.15855 0.7892 0.0
H2288 H 0.33061 0.16159 0.85788 0.0
H2289 H 0.33953 0.14866 0.77104 0.0
H2290 H 0.30186 0.16683 0.81393 0.0
H2291 H 0.38191 0.18349 0.81203 0.0
C2292 C 0.38208 0.18357 0.83634 0.0
C2293 C 0.36782 0.17738 0.84948 0.0
C2294 C 0.31005 0.16285 0.80448 0.0
C2295 C 0.34498 0.16805 0.82106 0.0
C2296 C 0.29844 0.15794 0.79033 0.0
C2297 C 0.30863 0.15263 0.77787 0.0
C2298 C 0.33233 0.16301 0.80618 0.0
C2299 C 0.33104 0.15298 0.78014 0.0
C2300 C 0.3707 0.17866 0.8221 0.0
C2301 C 0.34216 0.16646 0.84796 0.0
N2302 N 0.34218 0.15818 0.79399 0.0
N2303 N 0.33153 0.16233 0.83399 0.0
H2304 H 0.78996 0.13798 0.85427 0.0
H2305 H 0.83387 0.18539 0.77006 0.0
H2306 H 0.80283 0.20529 0.83844 0.0
H2307 H 0.8304 0.12272 0.78794 0.0
H2308 H 0.81916 0.19135 0.79431 0.0
H2309 H 0.80134 0.13049 0.82934 0.0
C2310 C 0.79498 0.15111 0.84552 0.0
C2311 C 0.79551 0.17234 0.8485 0.0
C2312 C 0.82158 0.17627 0.79292 0.0
C2313 C 0.80877 0.16395 0.81991 0.0
C2314 C 0.82983 0.17278 0.77904 0.0
C2315 C 0.8335 0.15358 0.77697 0.0
C2316 C 0.81678 0.16038 0.80482 0.0
C2317 C 0.8282 0.13796 0.78909 0.0
C2318 C 0.80164 0.14689 0.83131 0.0
C2319 C 0.80248 0.18882 0.83674 0.0
N2320 N 0.82013 0.1417 0.80247 0.0
N2321 N 0.80883 0.18429 0.82299 0.0
H2322 H 0.25484 0.0935 0.50902 0.0
H2323 H 0.36868 0.18069 0.56186 0.0
H2324 H 0.31227 0.16177 0.49453 0.0
H2325 H 0.30614 0.11683 0.57797 0.0
H2326 H 0.34878 0.17376 0.53698 0.0
H2327 H 0.2738 0.10139 0.53421 0.0
C2328 C 0.27149 0.11014 0.51113 0.0
C2329 C 0.28204 0.12696 0.49963 0.0
C2330 C 0.33936 0.1613 0.54597 0.0
C2331 C 0.30381 0.13618 0.52849 0.0
C2332 C 0.35078 0.16518 0.56015 0.0
C2333 C 0.33909 0.14927 0.57201 0.0
C2334 C 0.31614 0.14127 0.54356 0.0
C2335 C 0.31573 0.12965 0.5692 0.0
C2336 C 0.28223 0.11469 0.52554 0.0
C2337 C 0.3034 0.14837 0.50309 0.0
N2338 N 0.30509 0.12615 0.55526 0.0
N2339 N 0.31365 0.15231 0.51718 0.0
H2340 H 0.831 0.14603 0.48914 0.0
H2341 H 0.84807 0.15374 0.57838 0.0
H2342 H 0.86934 0.11557 0.51183 0.0
H2343 H 0.78205 0.14522 0.5567 0.0
H2344 H 0.86091 0.14595 0.55406 0.0
H2345 H 0.81813 0.15302 0.51384 0.0
C2346 C 0.83683 0.14098 0.49935 0.0
C2347 C 0.8512 0.1302 0.4985 0.0
C2348 C 0.84362 0.1458 0.55471 0.0
C2349 C 0.83681 0.13832 0.52669 0.0
C2350 C 0.8361 0.15007 0.56863 0.0
C2351 C 0.81384 0.15025 0.56978 0.0
C2352 C 0.8291 0.14216 0.54173 0.0
C2353 C 0.79961 0.14589 0.55649 0.0
C2354 C 0.82938 0.14483 0.51339 0.0
C2355 C 0.85815 0.12383 0.51204 0.0
N2356 N 0.80758 0.14225 0.54305 0.0
N2357 N 0.85105 0.12814 0.52562 0.0
H2358 H 0.86634 0.73771 0.5133 0.0
H2359 H 0.77905 0.62013 0.55738 0.0
H2360 H 0.82989 0.67012 0.49104 0.0
H2361 H 0.84496 0.67548 0.57877 0.0
H2362 H 0.79243 0.64085 0.5334 0.0
H2363 H 0.85379 0.71776 0.53794 0.0
C2364 C 0.85569 0.71869 0.51363 0.0
C2365 C 0.84919 0.70548 0.50017 0.0
C2366 C 0.80392 0.6484 0.54337 0.0
C2367 C 0.83442 0.68272 0.52813 0.0
C2368 C 0.79641 0.63652 0.55712 0.0
C2369 C 0.81102 0.64571 0.57028 0.0
C2370 C 0.82591 0.67003 0.5427 0.0
C2371 C 0.83286 0.66763 0.5691 0.0
C2372 C 0.84863 0.70736 0.52764 0.0
C2373 C 0.8354 0.68089 0.50117 0.0
N2374 N 0.83959 0.67906 0.55558 0.0
N2375 N 0.82827 0.6703 0.5149 0.0
loop_
_geom_bond_atom_site_label_1
_geom_bond_atom_site_label_2
_geom_bond_distance
_geom_bond_site_symmetry_2
_ccdc_geom_bond_type
C0 C1 1.384 . S
C0 H13 0.947 . S
C0 C35 1.382 . S
C1 C0 1.384 . S
C1 C2 1.378 . S
C2 C1 1.378 . S
C2 C3 1.378 . S
C2 H14 0.952 . S
C3 C2 1.378 . S
C3 H15 0.950 . S
C3 C34 1.383 . S
H4 C23 0.947 . S
H5 C24 0.946 . S
H6 C26 0.953 . S
H7 C27 0.945 . S
H8 C29 0.952 . S
H9 C30 0.949 . S
H10 C32 0.950 . S
H11 C33 0.948 . S
H12 C35 0.951 . S
H13 C0 0.947 . S
H14 C2 0.952 . S
H15 C3 0.950 . S
N16 C19 1.382 . S
N16 C21 1.363 . S
N17 C19 1.371 . S
N17 C20 1.372 . S
N18 C20 1.361 . S
N18 C21 1.377 . S
C19 N16 1.382 . S
C19 N17 1.371 . S
C19 C22 1.480 . S
C20 N17 1.372 . S
C20 N18 1.361 . S
C20 C28 1.457 . S
C21 N16 1.363 . S
C21 N18 1.377 . S
C21 C34 1.479 . S
C22 C19 1.480 . S
C22 C23 1.383 . S
C22 C27 1.385 . S
C23 H4 0.947 . S
C23 C22 1.383 . S
C23 C24 1.388 . S
C24 H5 0.946 . S
C24 C23 1.388 . S
C24 C25 1.384 . S
C25 C24 1.384 . S
C25 C26 1.377 . S
C26 H6 0.953 . S
C26 C25 1.377 . S
C26 C27 1.369 . S
C27 H7 0.945 . S
C27 C22 1.385 . S
C27 C26 1.369 . S
C28 C20 1.457 . S
C28 C29 1.372 . S
C28 C33 1.364 . S
C29 H8 0.952 . S
C29 C28 1.372 . S
C29 C30 1.389 . S
C30 H9 0.949 . S
C30 C29 1.389 . S
C30 C31 1.387 . S
C31 C30 1.387 . S
C31 C32 1.372 . S
C32 H10 0.950 . S
C32 C31 1.372 . S
C32 C33 1.379 . S
C33 H11 0.948 . S
C33 C28 1.364 . S
C33 C32 1.379 . S
C34 C3 1.383 . S
C34 C21 1.479 . S
C34 C35 1.398 . S
C35 C0 1.382 . S
C35 H12 0.951 . S
C35 C34 1.398 . S
C36 C37 1.384 . S
C36 H49 0.947 . S
C36 C71 1.382 . S
C37 C36 1.384 . S
C37 C38 1.378 . S
C38 C37 1.378 . S
C38 C39 1.378 . S
C38 H50 0.952 . S
C39 C38 1.378 . S
C39 H51 0.950 . S
C39 C70 1.383 . S
H40 C59 0.947 . S
H41 C60 0.946 . S
H42 C62 0.953 . S
H43 C63 0.945 . S
H44 C65 0.952 . S
H45 C66 0.949 . S
H46 C68 0.950 . S
H47 C69 0.948 . S
H48 C71 0.951 . S
H49 C36 0.947 . S
H50 C38 0.952 . S
H51 C39 0.950 . S
N52 C55 1.382 . S
N52 C57 1.363 . S
N53 C55 1.371 . S
N53 C56 1.372 . S
N54 C56 1.361 . S
N54 C57 1.377 . S
C55 N52 1.382 . S
C55 N53 1.371 . S
C55 C58 1.480 . S
C56 N53 1.372 . S
C56 N54 1.361 . S
C56 C64 1.457 . S
C57 N52 1.363 . S
C57 N54 1.377 . S
C57 C70 1.479 . S
C58 C55 1.480 . S
C58 C59 1.383 . S
C58 C63 1.385 . S
C59 H40 0.947 . S
C59 C58 1.383 . S
C59 C60 1.388 . S
C60 H41 0.946 . S
C60 C59 1.388 . S
C60 C61 1.384 . S
C61 C60 1.384 . S
C61 C62 1.377 . S
C62 H42 0.953 . S
C62 C61 1.377 . S
C62 C63 1.369 . S
C63 H43 0.945 . S
C63 C58 1.385 . S
C63 C62 1.369 . S
C64 C56 1.457 . S
C64 C65 1.372 . S
C64 C69 1.364 . S
C65 H44 0.952 . S
C65 C64 1.372 . S
C65 C66 1.389 . S
C66 H45 0.949 . S
C66 C65 1.389 . S
C66 C67 1.387 . S
C67 C66 1.387 . S
C67 C68 1.372 . S
C68 H46 0.950 . S
C68 C67 1.372 . S
C68 C69 1.379 . S
C69 H47 0.948 . S
C69 C64 1.364 . S
C69 C68 1.379 . S
C70 C39 1.383 . S
C70 C57 1.479 . S
C70 C71 1.398 . S
C71 C36 1.382 . S
C71 H48 0.951 . S
C71 C70 1.398 . S
C72 C73 1.384 . S
C72 H85 0.947 . S
C72 C107 1.382 . S
C73 C72 1.384 . S
C73 C74 1.378 . S
C74 C73 1.378 . S
C74 C75 1.378 . S
C74 H86 0.952 . S
C75 C74 1.378 . S
C75 H87 0.950 . S
C75 C106 1.383 . S
H76 C95 0.947 . S
H77 C96 0.946 . S
H78 C98 0.953 . S
H79 C99 0.945 . S
H80 C101 0.952 . S
H81 C102 0.949 . S
H82 C104 0.950 . S
H83 C105 0.948 . S
H84 C107 0.951 . S
H85 C72 0.947 . S
H86 C74 0.952 . S
H87 C75 0.950 . S
N88 C91 1.382 . S
N88 C93 1.363 . S
N89 C91 1.371 . S
N89 C92 1.372 . S
N90 C92 1.361 . S
N90 C93 1.377 . S
C91 N88 1.382 . S
C91 N89 1.371 . S
C91 C94 1.480 . S
C92 N89 1.372 . S
C92 N90 1.361 . S
C92 C100 1.457 . S
C93 N88 1.363 . S
C93 N90 1.377 . S
C93 C106 1.479 . S
C94 C91 1.480 . S
C94 C95 1.383 . S
C94 C99 1.385 . S
C95 H76 0.947 . S
C95 C94 1.383 . S
C95 C96 1.388 . S
C96 H77 0.946 . S
C96 C95 1.388 . S
C96 C97 1.384 . S
C97 C96 1.384 . S
C97 C98 1.377 . S
C98 H78 0.953 . S
C98 C97 1.377 . S
C98 C99 1.369 . S
C99 H79 0.945 . S
C99 C94 1.385 . S
C99 C98 1.369 . S
C100 C92 1.457 . S
C100 C101 1.372 . S
C100 C105 1.364 . S
C101 H80 0.952 . S
C101 C100 1.372 . S
C101 C102 1.389 . S
C102 H81 0.949 . S
C102 C101 1.389 . S
C102 C103 1.387 . S
C103 C102 1.387 . S
C103 C104 1.372 . S
C104 H82 0.950 . S
C104 C103 1.372 . S
C104 C105 1.379 . S
C105 H83 0.948 . S
C105 C100 1.364 . S
C105 C104 1.379 . S
C106 C75 1.383 . S
C106 C93 1.479 . S
C106 C107 1.398 . S
C107 C72 1.382 . S
C107 H84 0.951 . S
C107 C106 1.398 . S
C108 C109 1.384 . S
C108 H121 0.947 . S
C108 C143 1.382 . S
C109 C108 1.384 . S
C109 C110 1.378 . S
C110 C109 1.378 . S
C110 C111 1.378 . S
C110 H122 0.952 . S
C111 C110 1.378 . S
C111 H123 0.950 . S
C111 C142 1.383 . S
H112 C131 0.947 . S
H113 C132 0.946 . S
H114 C134 0.953 . S
H115 C135 0.945 . S
H116 C137 0.952 . S
H117 C138 0.949 . S
H118 C140 0.950 . S
H119 C141 0.948 . S
H120 C143 0.951 . S
H121 C108 0.947 . S
H122 C110 0.952 . S
H123 C111 0.950 . S
N124 C127 1.382 . S
N124 C129 1.363 . S
N125 C127 1.371 . S
N125 C128 1.372 . S
N126 C128 1.361 . S
N126 C129 1.377 . S
C127 N124 1.382 . S
C127 N125 1.371 . S
C127 C130 1.480 . S
C128 N125 1.372 . S
C128 N126 1.361 . S
C128 C136 1.457 . S
C129 N124 1.363 . S
C129 N126 1.377 . S
C129 C142 1.479 . S
C130 C127 1.480 . S
C130 C131 1.383 . S
C130 C135 1.385 . S
C131 H112 0.947 . S
C131 C130 1.383 . S
C131 C132 1.388 . S
C132 H113 0.946 . S
C132 C131 1.388 . S
C132 C133 1.384 . S
C133 C132 1.384 . S
C133 C134 1.377 . S
C134 H114 0.953 . S
C134 C133 1.377 . S
C134 C135 1.369 . S
C135 H115 0.945 . S
C135 C130 1.385 . S
C135 C134 1.369 . S
C136 C128 1.457 . S
C136 C137 1.372 . S
C136 C141 1.364 . S
C137 H116 0.952 . S
C137 C136 1.372 . S
C137 C138 1.389 . S
C138 H117 0.949 . S
C138 C137 1.389 . S
C138 C139 1.387 . S
C139 C138 1.387 . S
C139 C140 1.372 . S
C140 H118 0.950 . S
C140 C139 1.372 . S
C140 C141 1.379 . S
C141 H119 0.948 . S
C141 C136 1.364 . S
C141 C140 1.379 . S
C142 C111 1.383 . S
C142 C129 1.479 . S
C142 C143 1.398 . S
C143 C108 1.382 . S
C143 H120 0.951 . S
C143 C142 1.398 . S
C144 C145 1.384 . S
C144 H157 0.947 . S
C144 C179 1.382 . S
C145 C144 1.384 . S
C145 C146 1.378 . S
C146 C145 1.378 . S
C146 C147 1.378 . S
C146 H158 0.952 . S
C147 C146 1.378 . S
C147 H159 0.950 . S
C147 C178 1.383 . S
H148 C167 0.947 . S
H149 C168 0.946 . S
H150 C170 0.953 . S
H151 C171 0.945 . S
H152 C173 0.952 . S
H153 C174 0.949 . S
H154 C176 0.950 . S
H155 C177 0.948 . S
H156 C179 0.951 . S
H157 C144 0.947 . S
H158 C146 0.952 . S
H159 C147 0.950 . S
N160 C163 1.382 . S
N160 C165 1.363 . S
N161 C163 1.371 . S
N161 C164 1.372 . S
N162 C164 1.361 . S
N162 C165 1.377 . S
C163 N160 1.382 . S
C163 N161 1.371 . S
C163 C166 1.480 . S
C164 N161 1.372 . S
C164 N162 1.361 . S
C164 C172 1.457 . S
C165 N160 1.363 . S
C165 N162 1.377 . S
C165 C178 1.479 . S
C166 C163 1.480 . S
C166 C167 1.383 . S
C166 C171 1.385 . S
C167 H148 0.947 . S
C167 C166 1.383 . S
C167 C168 1.388 . S
C168 H149 0.946 . S
C168 C167 1.388 . S
C168 C169 1.384 . S
C169 C168 1.384 . S
C169 C170 1.377 . S
C170 H150 0.953 . S
C170 C169 1.377 . S
C170 C171 1.369 . S
C171 H151 0.945 . S
C171 C166 1.385 . S
C171 C170 1.369 . S
C172 C164 1.457 . S
C172 C173 1.372 . S
C172 C177 1.364 . S
C173 H152 0.952 . S
C173 C172 1.372 . S
C173 C174 1.389 . S
C174 H153 0.949 . S
C174 C173 1.389 . S
C174 C175 1.387 . S
C175 C174 1.387 . S
C175 C176 1.372 . S
C176 H154 0.950 . S
C176 C175 1.372 . S
C176 C177 1.379 . S
C177 H155 0.948 . S
C177 C172 1.364 . S
C177 C176 1.379 . S
C178 C147 1.383 . S
C178 C165 1.479 . S
C178 C179 1.398 . S
C179 C144 1.382 . S
C179 H156 0.951 . S
C179 C178 1.398 . S
C180 C181 1.384 . S
C180 H193 0.947 . S
C180 C215 1.382 . S
C181 C180 1.384 . S
C181 C182 1.378 . S
C182 C181 1.378 . S
C182 C183 1.378 . S
C182 H194 0.952 . S
C183 C182 1.378 . S
C183 H195 0.950 . S
C183 C214 1.383 . S
H184 C203 0.947 . S
H185 C204 0.946 . S
H186 C206 0.953 . S
H187 C207 0.945 . S
H188 C209 0.952 . S
H189 C210 0.949 . S
H190 C212 0.950 . S
H191 C213 0.948 . S
H192 C215 0.951 . S
H193 C180 0.947 . S
H194 C182 0.952 . S
H195 C183 0.950 . S
N196 C199 1.382 . S
N196 C201 1.363 . S
N197 C199 1.371 . S
N197 C200 1.372 . S
N198 C200 1.361 . S
N198 C201 1.377 . S
C199 N196 1.382 . S
C199 N197 1.371 . S
C199 C202 1.480 . S
C200 N197 1.372 . S
C200 N198 1.361 . S
C200 C208 1.457 . S
C201 N196 1.363 . S
C201 N198 1.377 . S
C201 C214 1.479 . S
C202 C199 1.480 . S
C202 C203 1.383 . S
C202 C207 1.385 . S
C203 H184 0.947 . S
C203 C202 1.383 . S
C203 C204 1.388 . S
C204 H185 0.946 . S
C204 C203 1.388 . S
C204 C205 1.384 . S
C205 C204 1.384 . S
C205 C206 1.377 . S
C206 H186 0.953 . S
C206 C205 1.377 . S
C206 C207 1.369 . S
C207 H187 0.945 . S
C207 C202 1.385 . S
C207 C206 1.369 . S
C208 C200 1.457 . S
C208 C209 1.372 . S
C208 C213 1.364 . S
C209 H188 0.952 . S
C209 C208 1.372 . S
C209 C210 1.389 . S
C210 H189 0.949 . S
C210 C209 1.389 . S
C210 C211 1.387 . S
C211 C210 1.387 . S
C211 C212 1.372 . S
C212 H190 0.950 . S
C212 C211 1.372 . S
C212 C213 1.379 . S
C213 H191 0.948 . S
C213 C208 1.364 . S
C213 C212 1.379 . S
C214 C183 1.383 . S
C214 C201 1.479 . S
C214 C215 1.398 . S
C215 C180 1.382 . S
C215 H192 0.951 . S
C215 C214 1.398 . S
C216 C217 1.384 . S
C216 H229 0.947 . S
C216 C251 1.382 . S
C217 C216 1.384 . S
C217 C218 1.378 . S
C218 C217 1.378 . S
C218 C219 1.378 . S
C218 H230 0.952 . S
C219 C218 1.378 . S
C219 H231 0.950 . S
C219 C250 1.383 . S
H220 C239 0.947 . S
H221 C240 0.946 . S
H222 C242 0.953 . S
H223 C243 0.945 . S
H224 C245 0.952 . S
H225 C246 0.949 . S
H226 C248 0.950 . S
H227 C249 0.948 . S
H228 C251 0.951 . S
H229 C216 0.947 . S
H230 C218 0.952 . S
H231 C219 0.950 . S
N232 C235 1.382 . S
N232 C237 1.363 . S
N233 C235 1.371 . S
N233 C236 1.372 . S
N234 C236 1.361 . S
N234 C237 1.377 . S
C235 N232 1.382 . S
C235 N233 1.371 . S
C235 C238 1.480 . S
C236 N233 1.372 . S
C236 N234 1.361 . S
C236 C244 1.457 . S
C237 N232 1.363 . S
C237 N234 1.377 . S
C237 C250 1.479 . S
C238 C235 1.480 . S
C238 C239 1.383 . S
C238 C243 1.385 . S
C239 H220 0.947 . S
C239 C238 1.383 . S
C239 C240 1.388 . S
C240 H221 0.946 . S
C240 C239 1.388 . S
C240 C241 1.384 . S
C241 C240 1.384 . S
C241 C242 1.377 . S
C242 H222 0.953 . S
C242 C241 1.377 . S
C242 C243 1.369 . S
C243 H223 0.945 . S
C243 C238 1.385 . S
C243 C242 1.369 . S
C244 C236 1.457 . S
C244 C245 1.372 . S
C244 C249 1.364 . S
C245 H224 0.952 . S
C245 C244 1.372 . S
C245 C246 1.389 . S
C246 H225 0.949 . S
C246 C245 1.389 . S
C246 C247 1.387 . S
C247 C246 1.387 . S
C247 C248 1.372 . S
C248 H226 0.950 . S
C248 C247 1.372 . S
C248 C249 1.379 . S
C249 H227 0.948 . S
C249 C244 1.364 . S
C249 C248 1.379 . S
C250 C219 1.383 . S
C250 C237 1.479 . S
C250 C251 1.398 . S
C251 C216 1.382 . S
C251 H228 0.951 . S
C251 C250 1.398 . S
C252 C253 1.384 . S
C252 H265 0.947 . S
C252 C287 1.382 . S
C253 C252 1.384 . S
C253 C254 1.378 . S
C254 C253 1.378 . S
C254 C255 1.378 . S
C254 H266 0.952 . S
C255 C254 1.378 . S
C255 H267 0.950 . S
C255 C286 1.383 . S
H256 C275 0.947 . S
H257 C276 0.946 . S
H258 C278 0.953 . S
H259 C279 0.945 . S
H260 C281 0.952 . S
H261 C282 0.949 . S
H262 C284 0.950 . S
H263 C285 0.948 . S
H264 C287 0.951 . S
H265 C252 0.947 . S
H266 C254 0.952 . S
H267 C255 0.950 . S
N268 C271 1.382 . S
N268 C273 1.363 . S
N269 C271 1.371 . S
N269 C272 1.372 . S
N270 C272 1.361 . S
N270 C273 1.377 . S
C271 N268 1.382 . S
C271 N269 1.371 . S
C271 C274 1.480 . S
C272 N269 1.372 . S
C272 N270 1.361 . S
C272 C280 1.457 . S
C273 N268 1.363 . S
C273 N270 1.377 . S
C273 C286 1.479 . S
C274 C271 1.480 . S
C274 C275 1.383 . S
C274 C279 1.385 . S
C275 H256 0.947 . S
C275 C274 1.383 . S
C275 C276 1.388 . S
C276 H257 0.946 . S
C276 C275 1.388 . S
C276 C277 1.384 . S
C277 C276 1.384 . S
C277 C278 1.377 . S
C278 H258 0.953 . S
C278 C277 1.377 . S
C278 C279 1.369 . S
C279 H259 0.945 . S
C279 C274 1.385 . S
C279 C278 1.369 . S
C280 C272 1.457 . S
C280 C281 1.372 . S
C280 C285 1.364 . S
C281 H260 0.952 . S
C281 C280 1.372 . S
C281 C282 1.389 . S
C282 H261 0.949 . S
C282 C281 1.389 . S
C282 C283 1.387 . S
C283 C282 1.387 . S
C283 C284 1.372 . S
C284 H262 0.950 . S
C284 C283 1.372 . S
C284 C285 1.379 . S
C285 H263 0.948 . S
C285 C280 1.364 . S
C285 C284 1.379 . S
C286 C255 1.383 . S
C286 C273 1.479 . S
C286 C287 1.398 . S
C287 C252 1.382 . S
C287 H264 0.951 . S
C287 C286 1.398 . S
C288 C289 1.384 . S
C288 H301 0.947 . S
C288 C323 1.382 . S
C289 C288 1.384 . S
C289 C290 1.378 . S
C290 C289 1.378 . S
C290 C291 1.378 . S
C290 H302 0.952 . S
C291 C290 1.378 . S
C291 H303 0.950 . S
C291 C322 1.383 . S
H292 C311 0.947 . S
H293 C312 0.946 . S
H294 C314 0.953 . S
H295 C315 0.945 . S
H296 C317 0.952 . S
H297 C318 0.949 . S
H298 C320 0.950 . S
H299 C321 0.948 . S
H300 C323 0.951 . S
H301 C288 0.947 . S
H302 C290 0.952 . S
H303 C291 0.950 . S
N304 C307 1.382 . S
N304 C309 1.363 . S
N305 C307 1.371 . S
N305 C308 1.372 . S
N306 C308 1.361 . S
N306 C309 1.377 . S
C307 N304 1.382 . S
C307 N305 1.371 . S
C307 C310 1.480 . S
C308 N305 1.372 . S
C308 N306 1.361 . S
C308 C316 1.457 . S
C309 N304 1.363 . S
C309 N306 1.377 . S
C309 C322 1.479 . S
C310 C307 1.480 . S
C310 C311 1.383 . S
C310 C315 1.385 . S
C311 H292 0.947 . S
C311 C310 1.383 . S
C311 C312 1.388 . S
C312 H293 0.946 . S
C312 C311 1.388 . S
C312 C313 1.384 . S
C313 C312 1.384 . S
C313 C314 1.377 . S
C314 H294 0.953 . S
C314 C313 1.377 . S
C314 C315 1.369 . S
C315 H295 0.945 . S
C315 C310 1.385 . S
C315 C314 1.369 . S
C316 C308 1.457 . S
C316 C317 1.372 . S
C316 C321 1.364 . S
C317 H296 0.952 . S
C317 C316 1.372 . S
C317 C318 1.389 . S
C318 H297 0.949 . S
C318 C317 1.389 . S
C318 C319 1.387 . S
C319 C318 1.387 . S
C319 C320 1.372 . S
C320 H298 0.950 . S
C320 C319 1.372 . S
C320 C321 1.379 . S
C321 H299 0.948 . S
C321 C316 1.364 . S
C321 C320 1.379 . S
C322 C291 1.383 . S
C322 C309 1.479 . S
C322 C323 1.398 . S
C323 C288 1.382 . S
C323 H300 0.951 . S
C323 C322 1.398 . S
C324 C325 1.384 . S
C324 H337 0.947 . S
C324 C359 1.382 . S
C325 C324 1.384 . S
C325 C326 1.378 . S
C326 C325 1.378 . S
C326 C327 1.378 . S
C326 H338 0.952 . S
C327 C326 1.378 . S
C327 H339 0.950 . S
C327 C358 1.383 . S
H328 C347 0.947 . S
H329 C348 0.946 . S
H330 C350 0.953 . S
H331 C351 0.945 . S
H332 C353 0.952 . S
H333 C354 0.949 . S
H334 C356 0.950 . S
H335 C357 0.948 . S
H336 C359 0.951 . S
H337 C324 0.947 . S
H338 C326 0.952 . S
H339 C327 0.950 . S
N340 C343 1.382 . S
N340 C345 1.363 . S
N341 C343 1.371 . S
N341 C344 1.372 . S
N342 C344 1.361 . S
N342 C345 1.377 . S
C343 N340 1.382 . S
C343 N341 1.371 . S
C343 C346 1.480 . S
C344 N341 1.372 . S
C344 N342 1.361 . S
C344 C352 1.457 . S
C345 N340 1.363 . S
C345 N342 1.377 . S
C345 C358 1.479 . S
C346 C343 1.480 . S
C346 C347 1.383 . S
C346 C351 1.385 . S
C347 H328 0.947 . S
C347 C346 1.383 . S
C347 C348 1.388 . S
C348 H329 0.946 . S
C348 C347 1.388 . S
C348 C349 1.384 . S
C349 C348 1.384 . S
C349 C350 1.377 . S
C350 H330 0.953 . S
C350 C349 1.377 . S
C350 C351 1.369 . S
C351 H331 0.945 . S
C351 C346 1.385 . S
C351 C350 1.369 . S
C352 C344 1.457 . S
C352 C353 1.372 . S
C352 C357 1.364 . S
C353 H332 0.952 . S
C353 C352 1.372 . S
C353 C354 1.389 . S
C354 H333 0.949 . S
C354 C353 1.389 . S
C354 C355 1.387 . S
C355 C354 1.387 . S
C355 C356 1.372 . S
C356 H334 0.950 . S
C356 C355 1.372 . S
C356 C357 1.379 . S
C357 H335 0.948 . S
C357 C352 1.364 . S
C357 C356 1.379 . S
C358 C327 1.383 . S
C358 C345 1.479 . S
C358 C359 1.398 . S
C359 C324 1.382 . S
C359 H336 0.951 . S
C359 C358 1.398 . S
C360 C361 1.384 . S
C360 H373 0.947 . S
C360 C395 1.382 . S
C361 C360 1.384 . S
C361 C362 1.378 . S
C362 C361 1.378 . S
C362 C363 1.378 . S
C362 H374 0.952 . S
C363 C362 1.378 . S
C363 H375 0.950 . S
C363 C394 1.383 . S
H364 C383 0.947 . S
H365 C384 0.946 . S
H366 C386 0.953 . S
H367 C387 0.945 . S
H368 C389 0.952 . S
H369 C390 0.949 . S
H370 C392 0.950 . S
H371 C393 0.948 . S
H372 C395 0.951 . S
H373 C360 0.947 . S
H374 C362 0.952 . S
H375 C363 0.950 . S
N376 C379 1.382 . S
N376 C381 1.363 . S
N377 C379 1.371 . S
N377 C380 1.372 . S
N378 C380 1.361 . S
N378 C381 1.377 . S
C379 N376 1.382 . S
C379 N377 1.371 . S
C379 C382 1.480 . S
C380 N377 1.372 . S
C380 N378 1.361 . S
C380 C388 1.457 . S
C381 N376 1.363 . S
C381 N378 1.377 . S
C381 C394 1.479 . S
C382 C379 1.480 . S
C382 C383 1.383 . S
C382 C387 1.385 . S
C383 H364 0.947 . S
C383 C382 1.383 . S
C383 C384 1.388 . S
C384 H365 0.946 . S
C384 C383 1.388 . S
C384 C385 1.384 . S
C385 C384 1.384 . S
C385 C386 1.377 . S
C386 H366 0.953 . S
C386 C385 1.377 . S
C386 C387 1.369 . S
C387 H367 0.945 . S
C387 C382 1.385 . S
C387 C386 1.369 . S
C388 C380 1.457 . S
C388 C389 1.372 . S
C388 C393 1.364 . S
C389 H368 0.952 . S
C389 C388 1.372 . S
C389 C390 1.389 . S
C390 H369 0.949 . S
C390 C389 1.389 . S
C390 C391 1.387 . S
C391 C390 1.387 . S
C391 C392 1.372 . S
C392 H370 0.950 . S
C392 C391 1.372 . S
C392 C393 1.379 . S
C393 H371 0.948 . S
C393 C388 1.364 . S
C393 C392 1.379 . S
C394 C363 1.383 . S
C394 C381 1.479 . S
C394 C395 1.398 . S
C395 C360 1.382 . S
C395 H372 0.951 . S
C395 C394 1.398 . S
C396 C397 1.384 . S
C396 H409 0.947 . S
C396 C431 1.382 . S
C397 C396 1.384 . S
C397 C398 1.378 . S
C398 C397 1.378 . S
C398 C399 1.378 . S
C398 H410 0.952 . S
C399 C398 1.378 . S
C399 H411 0.950 . S
C399 C430 1.383 . S
H400 C419 0.947 . S
H401 C420 0.946 . S
H402 C422 0.953 . S
H403 C423 0.945 . S
H404 C425 0.952 . S
H405 C426 0.949 . S
H406 C428 0.950 . S
H407 C429 0.948 . S
H408 C431 0.951 . S
H409 C396 0.947 . S
H410 C398 0.952 . S
H411 C399 0.950 . S
N412 C415 1.382 . S
N412 C417 1.363 . S
N413 C415 1.371 . S
N413 C416 1.372 . S
N414 C416 1.361 . S
N414 C417 1.377 . S
C415 N412 1.382 . S
C415 N413 1.371 . S
C415 C418 1.480 . S
C416 N413 1.372 . S
C416 N414 1.361 . S
C416 C424 1.457 . S
C417 N412 1.363 . S
C417 N414 1.377 . S
C417 C430 1.479 . S
C418 C415 1.480 . S
C418 C419 1.383 . S
C418 C423 1.385 . S
C419 H400 0.947 . S
C419 C418 1.383 . S
C419 C420 1.388 . S
C420 H401 0.946 . S
C420 C419 1.388 . S
C420 C421 1.384 . S
C421 C420 1.384 . S
C421 C422 1.377 . S
C422 H402 0.953 . S
C422 C421 1.377 . S
C422 C423 1.369 . S
C423 H403 0.945 . S
C423 C418 1.385 . S
C423 C422 1.369 . S
C424 C416 1.457 . S
C424 C425 1.372 . S
C424 C429 1.364 . S
C425 H404 0.952 . S
C425 C424 1.372 . S
C425 C426 1.389 . S
C426 H405 0.949 . S
C426 C425 1.389 . S
C426 C427 1.387 . S
C427 C426 1.387 . S
C427 C428 1.372 . S
C428 H406 0.950 . S
C428 C427 1.372 . S
C428 C429 1.379 . S
C429 H407 0.948 . S
C429 C424 1.364 . S
C429 C428 1.379 . S
C430 C399 1.383 . S
C430 C417 1.479 . S
C430 C431 1.398 . S
C431 C396 1.382 . S
C431 H408 0.951 . S
C431 C430 1.398 . S
C432 C433 1.384 . S
C432 H445 0.947 . S
C432 C467 1.382 . S
C433 C432 1.384 . S
C433 C434 1.378 . S
C434 C433 1.378 . S
C434 C435 1.378 . S
C434 H446 0.952 . S
C435 C434 1.378 . S
C435 H447 0.950 . S
C435 C466 1.383 . S
H436 C455 0.947 . S
H437 C456 0.946 . S
H438 C458 0.953 . S
H439 C459 0.945 . S
H440 C461 0.952 . S
H441 C462 0.949 . S
H442 C464 0.950 . S
H443 C465 0.948 . S
H444 C467 0.951 . S
H445 C432 0.947 . S
H446 C434 0.952 . S
H447 C435 0.950 . S
N448 C451 1.382 . S
N448 C453 1.363 . S
N449 C451 1.371 . S
N449 C452 1.372 . S
N450 C452 1.361 . S
N450 C453 1.377 . S
C451 N448 1.382 . S
C451 N449 1.371 . S
C451 C454 1.480 . S
C452 N449 1.372 . S
C452 N450 1.361 . S
C452 C460 1.457 . S
C453 N448 1.363 . S
C453 N450 1.377 . S
C453 C466 1.479 . S
C454 C451 1.480 . S
C454 C455 1.383 . S
C454 C459 1.385 . S
C455 H436 0.947 . S
C455 C454 1.383 . S
C455 C456 1.388 . S
C456 H437 0.946 . S
C456 C455 1.388 . S
C456 C457 1.384 . S
C457 C456 1.384 . S
C457 C458 1.377 . S
C458 H438 0.953 . S
C458 C457 1.377 . S
C458 C459 1.369 . S
C459 H439 0.945 . S
C459 C454 1.385 . S
C459 C458 1.369 . S
C460 C452 1.457 . S
C460 C461 1.372 . S
C460 C465 1.364 . S
C461 H440 0.952 . S
C461 C460 1.372 . S
C461 C462 1.389 . S
C462 H441 0.949 . S
C462 C461 1.389 . S
C462 C463 1.387 . S
C463 C462 1.387 . S
C463 C464 1.372 . S
C464 H442 0.950 . S
C464 C463 1.372 . S
C464 C465 1.379 . S
C465 H443 0.948 . S
C465 C460 1.364 . S
C465 C464 1.379 . S
C466 C435 1.383 . S
C466 C453 1.479 . S
C466 C467 1.398 . S
C467 C432 1.382 . S
C467 H444 0.951 . S
C467 C466 1.398 . S
C468 C469 1.384 . S
C468 H481 0.947 . S
C468 C503 1.382 . S
C469 C468 1.384 . S
C469 C470 1.378 . S
C470 C469 1.378 . S
C470 C471 1.378 . S
C470 H482 0.952 . S
C471 C470 1.378 . S
C471 H483 0.950 . S
C471 C502 1.383 . S
H472 C491 0.947 . S
H473 C492 0.946 . S
H474 C494 0.953 . S
H475 C495 0.945 . S
H476 C497 0.952 . S
H477 C498 0.949 . S
H478 C500 0.950 . S
H479 C501 0.948 . S
H480 C503 0.951 . S
H481 C468 0.947 . S
H482 C470 0.952 . S
H483 C471 0.950 . S
N484 C487 1.382 . S
N484 C489 1.363 . S
N485 C487 1.371 . S
N485 C488 1.372 . S
N486 C488 1.361 . S
N486 C489 1.377 . S
C487 N484 1.382 . S
C487 N485 1.371 . S
C487 C490 1.480 . S
C488 N485 1.372 . S
C488 N486 1.361 . S
C488 C496 1.457 . S
C489 N484 1.363 . S
C489 N486 1.377 . S
C489 C502 1.479 . S
C490 C487 1.480 . S
C490 C491 1.383 . S
C490 C495 1.385 . S
C491 H472 0.947 . S
C491 C490 1.383 . S
C491 C492 1.388 . S
C492 H473 0.946 . S
C492 C491 1.388 . S
C492 C493 1.384 . S
C493 C492 1.384 . S
C493 C494 1.377 . S
C494 H474 0.953 . S
C494 C493 1.377 . S
C494 C495 1.369 . S
C495 H475 0.945 . S
C495 C490 1.385 . S
C495 C494 1.369 . S
C496 C488 1.457 . S
C496 C497 1.372 . S
C496 C501 1.364 . S
C497 H476 0.952 . S
C497 C496 1.372 . S
C497 C498 1.389 . S
C498 H477 0.949 . S
C498 C497 1.389 . S
C498 C499 1.387 . S
C499 C498 1.387 . S
C499 C500 1.372 . S
C500 H478 0.950 . S
C500 C499 1.372 . S
C500 C501 1.379 . S
C501 H479 0.948 . S
C501 C496 1.364 . S
C501 C500 1.379 . S
C502 C471 1.383 . S
C502 C489 1.479 . S
C502 C503 1.398 . S
C503 C468 1.382 . S
C503 H480 0.951 . S
C503 C502 1.398 . S
C504 C505 1.384 . S
C504 H517 0.947 . S
C504 C539 1.382 . S
C505 C504 1.384 . S
C505 C506 1.378 . S
C506 C505 1.378 . S
C506 C507 1.378 . S
C506 H518 0.952 . S
C507 C506 1.378 . S
C507 H519 0.950 . S
C507 C538 1.383 . S
H508 C527 0.947 . S
H509 C528 0.946 . S
H510 C530 0.953 . S
H511 C531 0.945 . S
H512 C533 0.952 . S
H513 C534 0.949 . S
H514 C536 0.950 . S
H515 C537 0.948 . S
H516 C539 0.951 . S
H517 C504 0.947 . S
H518 C506 0.952 . S
H519 C507 0.950 . S
N520 C523 1.382 . S
N520 C525 1.363 . S
N521 C523 1.371 . S
N521 C524 1.372 . S
N522 C524 1.361 . S
N522 C525 1.377 . S
C523 N520 1.382 . S
C523 N521 1.371 . S
C523 C526 1.480 . S
C524 N521 1.372 . S
C524 N522 1.361 . S
C524 C532 1.457 . S
C525 N520 1.363 . S
C525 N522 1.377 . S
C525 C538 1.479 . S
C526 C523 1.480 . S
C526 C527 1.383 . S
C526 C531 1.385 . S
C527 H508 0.947 . S
C527 C526 1.383 . S
C527 C528 1.388 . S
C528 H509 0.946 . S
C528 C527 1.388 . S
C528 C529 1.384 . S
C529 C528 1.384 . S
C529 C530 1.377 . S
C530 H510 0.953 . S
C530 C529 1.377 . S
C530 C531 1.369 . S
C531 H511 0.945 . S
C531 C526 1.385 . S
C531 C530 1.369 . S
C532 C524 1.457 . S
C532 C533 1.372 . S
C532 C537 1.364 . S
C533 H512 0.952 . S
C533 C532 1.372 . S
C533 C534 1.389 . S
C534 H513 0.949 . S
C534 C533 1.389 . S
C534 C535 1.387 . S
C535 C534 1.387 . S
C535 C536 1.372 . S
C536 H514 0.950 . S
C536 C535 1.372 . S
C536 C537 1.379 . S
C537 H515 0.948 . S
C537 C532 1.364 . S
C537 C536 1.379 . S
C538 C507 1.383 . S
C538 C525 1.479 . S
C538 C539 1.398 . S
C539 C504 1.382 . S
C539 H516 0.951 . S
C539 C538 1.398 . S
C540 C541 1.384 . S
C540 H553 0.947 . S
C540 C575 1.382 . S
C541 C540 1.384 . S
C541 C542 1.378 . S
C542 C541 1.378 . S
C542 C543 1.378 . S
C542 H554 0.952 . S
C543 C542 1.378 . S
C543 H555 0.950 . S
C543 C574 1.383 . S
H544 C563 0.947 . S
H545 C564 0.946 . S
H546 C566 0.953 . S
H547 C567 0.945 . S
H548 C569 0.952 . S
H549 C570 0.949 . S
H550 C572 0.950 . S
H551 C573 0.948 . S
H552 C575 0.951 . S
H553 C540 0.947 . S
H554 C542 0.952 . S
H555 C543 0.950 . S
N556 C559 1.382 . S
N556 C561 1.363 . S
N557 C559 1.371 . S
N557 C560 1.372 . S
N558 C560 1.361 . S
N558 C561 1.377 . S
C559 N556 1.382 . S
C559 N557 1.371 . S
C559 C562 1.480 . S
C560 N557 1.372 . S
C560 N558 1.361 . S
C560 C568 1.457 . S
C561 N556 1.363 . S
C561 N558 1.377 . S
C561 C574 1.479 . S
C562 C559 1.480 . S
C562 C563 1.383 . S
C562 C567 1.385 . S
C563 H544 0.947 . S
C563 C562 1.383 . S
C563 C564 1.388 . S
C564 H545 0.946 . S
C564 C563 1.388 . S
C564 C565 1.384 . S
C565 C564 1.384 . S
C565 C566 1.377 . S
C566 H546 0.953 . S
C566 C565 1.377 . S
C566 C567 1.369 . S
C567 H547 0.945 . S
C567 C562 1.385 . S
C567 C566 1.369 . S
C568 C560 1.457 . S
C568 C569 1.372 . S
C568 C573 1.364 . S
C569 H548 0.952 . S
C569 C568 1.372 . S
C569 C570 1.389 . S
C570 H549 0.949 . S
C570 C569 1.389 . S
C570 C571 1.387 . S
C571 C570 1.387 . S
C571 C572 1.372 . S
C572 H550 0.950 . S
C572 C571 1.372 . S
C572 C573 1.379 . S
C573 H551 0.948 . S
C573 C568 1.364 . S
C573 C572 1.379 . S
C574 C543 1.383 . S
C574 C561 1.479 . S
C574 C575 1.398 . S
C575 C540 1.382 . S
C575 H552 0.951 . S
C575 C574 1.398 . S
C576 C577 1.384 . S
C576 H589 0.947 . S
C576 C611 1.382 . S
C577 C576 1.384 . S
C577 C578 1.378 . S
C578 C577 1.378 . S
C578 C579 1.378 . S
C578 H590 0.952 . S
C579 C578 1.378 . S
C579 H591 0.950 . S
C579 C610 1.383 . S
H580 C599 0.947 . S
H581 C600 0.946 . S
H582 C602 0.953 . S
H583 C603 0.945 . S
H584 C605 0.952 . S
H585 C606 0.949 . S
H586 C608 0.950 . S
H587 C609 0.948 . S
H588 C611 0.951 . S
H589 C576 0.947 . S
H590 C578 0.952 . S
H591 C579 0.950 . S
N592 C595 1.382 . S
N592 C597 1.363 . S
N593 C595 1.371 . S
N593 C596 1.372 . S
N594 C596 1.361 . S
N594 C597 1.377 . S
C595 N592 1.382 . S
C595 N593 1.371 . S
C595 C598 1.480 . S
C596 N593 1.372 . S
C596 N594 1.361 . S
C596 C604 1.457 . S
C597 N592 1.363 . S
C597 N594 1.377 . S
C597 C610 1.479 . S
C598 C595 1.480 . S
C598 C599 1.383 . S
C598 C603 1.385 . S
C599 H580 0.947 . S
C599 C598 1.383 . S
C599 C600 1.388 . S
C600 H581 0.946 . S
C600 C599 1.388 . S
C600 C601 1.384 . S
C601 C600 1.384 . S
C601 C602 1.377 . S
C602 H582 0.953 . S
C602 C601 1.377 . S
C602 C603 1.369 . S
C603 H583 0.945 . S
C603 C598 1.385 . S
C603 C602 1.369 . S
C604 C596 1.457 . S
C604 C605 1.372 . S
C604 C609 1.364 . S
C605 H584 0.952 . S
C605 C604 1.372 . S
C605 C606 1.389 . S
C606 H585 0.949 . S
C606 C605 1.389 . S
C606 C607 1.387 . S
C607 C606 1.387 . S
C607 C608 1.372 . S
C608 H586 0.950 . S
C608 C607 1.372 . S
C608 C609 1.379 . S
C609 H587 0.948 . S
C609 C604 1.364 . S
C609 C608 1.379 . S
C610 C579 1.383 . S
C610 C597 1.479 . S
C610 C611 1.398 . S
C611 C576 1.382 . S
C611 H588 0.951 . S
C611 C610 1.398 . S
C612 C613 1.384 . S
C612 H625 0.947 . S
C612 C647 1.382 . S
C613 C612 1.384 . S
C613 C614 1.378 . S
C614 C613 1.378 . S
C614 C615 1.378 . S
C614 H626 0.952 . S
C615 C614 1.378 . S
C615 H627 0.950 . S
C615 C646 1.383 . S
H616 C635 0.947 . S
H617 C636 0.946 . S
H618 C638 0.953 . S
H619 C639 0.945 . S
H620 C641 0.952 . S
H621 C642 0.949 . S
H622 C644 0.950 . S
H623 C645 0.948 . S
H624 C647 0.951 . S
H625 C612 0.947 . S
H626 C614 0.952 . S
H627 C615 0.950 . S
N628 C631 1.382 . S
N628 C633 1.363 . S
N629 C631 1.371 . S
N629 C632 1.372 . S
N630 C632 1.361 . S
N630 C633 1.377 . S
C631 N628 1.382 . S
C631 N629 1.371 . S
C631 C634 1.480 . S
C632 N629 1.372 . S
C632 N630 1.361 . S
C632 C640 1.457 . S
C633 N628 1.363 . S
C633 N630 1.377 . S
C633 C646 1.479 . S
C634 C631 1.480 . S
C634 C635 1.383 . S
C634 C639 1.385 . S
C635 H616 0.947 . S
C635 C634 1.383 . S
C635 C636 1.388 . S
C636 H617 0.946 . S
C636 C635 1.388 . S
C636 C637 1.384 . S
C637 C636 1.384 . S
C637 C638 1.377 . S
C638 H618 0.953 . S
C638 C637 1.377 . S
C638 C639 1.369 . S
C639 H619 0.945 . S
C639 C634 1.385 . S
C639 C638 1.369 . S
C640 C632 1.457 . S
C640 C641 1.372 . S
C640 C645 1.364 . S
C641 H620 0.952 . S
C641 C640 1.372 . S
C641 C642 1.389 . S
C642 H621 0.949 . S
C642 C641 1.389 . S
C642 C643 1.387 . S
C643 C642 1.387 . S
C643 C644 1.372 . S
C644 H622 0.950 . S
C644 C643 1.372 . S
C644 C645 1.379 . S
C645 H623 0.948 . S
C645 C640 1.364 . S
C645 C644 1.379 . S
C646 C615 1.383 . S
C646 C633 1.479 . S
C646 C647 1.398 . S
C647 C612 1.382 . S
C647 H624 0.951 . S
C647 C646 1.398 . S
Eu648 N679 2.657 . S
Eu648 N686 2.609 . S
Eu648 O692 2.558 . S
Eu648 O693 2.612 1_565 S
Eu648 O695 2.339 1_565 S
Eu648 O696 2.563 1_565 S
Eu648 O697 2.419 . S
Eu648 O699 2.380 1_556 S
Eu648 O700 2.432 . S
Eu648 C712 2.848 . S
C649 C652 1.429 . S
C649 C653 1.411 . S
C649 N656 1.377 . S
C650 C652 1.420 . S
C650 C654 1.423 . S
C650 C662 1.392 . S
C651 C653 1.420 . S
C651 C654 1.351 . S
C651 H674 0.931 . S
C652 C649 1.429 . S
C652 C650 1.420 . S
C652 N660 1.362 . S
C653 C649 1.411 . S
C653 C651 1.420 . S
C653 C658 1.395 . S
C654 C650 1.423 . S
C654 C651 1.351 . S
C654 H666 0.930 . S
C655 C657 1.400 . S
C655 C658 1.386 . S
C655 H667 0.930 . S
N656 C649 1.377 . S
N656 C657 1.321 . S
N656 Eu659 2.609 . S
C657 C655 1.400 . S
C657 N656 1.321 . S
C657 H664 0.930 . S
C658 C653 1.395 . S
C658 C655 1.386 . S
C658 H677 0.930 . S
Eu659 N656 2.609 . S
Eu659 N660 2.657 . S
Eu659 O693 2.380 1_554 S
Eu659 O694 2.432 . S
Eu659 O698 2.558 . S
Eu659 O699 2.612 1_545 S
Eu659 O701 2.339 1_545 S
Eu659 O702 2.563 1_545 S
Eu659 O703 2.419 . S
Eu659 C723 2.848 . S
N660 C652 1.362 . S
N660 Eu659 2.657 . S
N660 C661 1.334 . S
C661 N660 1.334 . S
C661 C663 1.413 . S
C661 H668 0.929 . S
C662 C650 1.392 . S
C662 C663 1.367 . S
C662 H670 0.930 . S
C663 C661 1.413 . S
C663 C662 1.367 . S
C663 H665 0.930 . S
H664 C657 0.930 . S
H665 C663 0.930 . S
H666 C654 0.930 . S
H667 C655 0.930 . S
H668 C661 0.929 . S
H669 C683 0.930 . S
H670 C662 0.930 . S
H671 C689 0.930 . S
H672 C680 0.929 . S
H673 C687 0.930 . S
H674 C651 0.931 . S
H675 C681 0.930 . S
H676 C714 0.930 . S
H677 C658 0.930 . S
H678 C713 0.931 . S
N679 Eu648 2.657 . S
N679 C680 1.334 . S
N679 C684 1.362 . S
C680 H672 0.929 . S
C680 N679 1.334 . S
C680 C683 1.413 . S
C681 H675 0.930 . S
C681 C682 1.392 . S
C681 C683 1.367 . S
C682 C681 1.392 . S
C682 C684 1.420 . S
C682 C714 1.423 . S
C683 H669 0.930 . S
C683 C680 1.413 . S
C683 C681 1.367 . S
C684 N679 1.362 . S
C684 C682 1.420 . S
C684 C688 1.429 . S
H685 C690 0.930 . S
N686 Eu648 2.609 . S
N686 C688 1.377 . S
N686 C689 1.321 . S
C687 H673 0.930 . S
C687 C689 1.400 . S
C687 C690 1.386 . S
C688 C684 1.429 . S
C688 N686 1.377 . S
C688 C691 1.411 . S
C689 H671 0.930 . S
C689 N686 1.321 . S
C689 C687 1.400 . S
C690 H685 0.930 . S
C690 C687 1.386 . S
C690 C691 1.395 . S
C691 C688 1.411 . S
C691 C690 1.395 . S
C691 C713 1.420 . S
O692 Eu648 2.558 . S
O692 C712 1.257 . S
O693 Eu648 2.612 1_545 S
O693 Eu659 2.380 1_556 S
O693 C704 1.276 . S
O694 Eu659 2.432 . S
O694 C711 1.264 1_554 S
O695 Eu648 2.339 1_545 S
O695 C711 1.254 . S
O696 Eu648 2.563 1_545 S
O696 C704 1.235 . S
O697 Eu648 2.419 . S
O697 C712 1.249 . S
O698 Eu659 2.558 . S
O698 C723 1.257 . S
O699 Eu648 2.380 1_554 S
O699 Eu659 2.612 1_565 S
O699 C715 1.276 . S
O700 Eu648 2.432 . S
O700 C722 1.264 1_556 S
O701 Eu659 2.339 1_565 S
O701 C722 1.254 . S
O702 Eu659 2.563 1_565 S
O702 C715 1.235 . S
O703 Eu659 2.419 . S
O703 C723 1.249 . S
C704 O693 1.276 . S
C704 O696 1.235 . S
C705 C707 1.393 1_565 S
C705 C709 1.395 . S
C705 C712 1.492 . S
C706 C707 1.392 . S
C706 C708 1.386 1_545 S
C707 C705 1.393 1_545 S
C707 C706 1.392 . S
C707 H724 0.930 . S
C708 C706 1.386 1_565 S
C708 C710 1.395 . S
C708 H725 0.930 . S
C709 C705 1.395 . S
C709 C710 1.379 . S
C709 H726 0.930 . S
C710 C708 1.395 . S
C710 C709 1.379 . S
C710 H727 0.930 . S
C711 O694 1.264 1_556 S
C711 O695 1.254 . S
C712 Eu648 2.848 . S
C712 O692 1.257 . S
C712 O697 1.249 . S
C712 C705 1.492 . S
C713 H678 0.931 . S
C713 C691 1.420 . S
C713 C714 1.351 . S
C714 H676 0.930 . S
C714 C682 1.423 . S
C714 C713 1.351 . S
C715 O699 1.276 . S
C715 O702 1.235 . S
C716 C717 1.393 1_545 S
C716 C720 1.395 . S
C716 C723 1.492 . S
C717 C716 1.393 1_565 S
C717 C718 1.392 . S
C717 H728 0.930 . S
C718 C717 1.392 . S
C718 C719 1.386 1_565 S
C719 C718 1.386 1_545 S
C719 C721 1.395 . S
C719 H729 0.930 . S
C720 C716 1.395 . S
C720 C721 1.379 . S
C720 H730 0.930 . S
C721 C719 1.395 . S
C721 C720 1.379 . S
C721 H731 0.930 . S
C722 O700 1.264 1_554 S
C722 O701 1.254 . S
C723 Eu659 2.848 . S
C723 O698 1.257 . S
C723 O703 1.249 . S
C723 C716 1.492 . S
H724 C707 0.930 . S
H725 C708 0.930 . S
H726 C709 0.930 . S
H727 C710 0.930 . S
H728 C717 0.930 . S
H729 C719 0.930 . S
H730 C720 0.930 . S
H731 C721 0.930 . S
Eu732 N763 2.657 . S
Eu732 N770 2.609 . S
Eu732 O776 2.558 . S
Eu732 O777 2.612 1_455 S
Eu732 O779 2.339 1_455 S
Eu732 O780 2.563 1_455 S
Eu732 O781 2.419 . S
Eu732 O783 2.380 1_556 S
Eu732 O784 2.432 . S
Eu732 C796 2.848 . S
C733 C736 1.429 . S
C733 C737 1.411 . S
C733 N740 1.377 . S
C734 C736 1.420 . S
C734 C738 1.423 . S
C734 C746 1.392 . S
C735 C737 1.420 . S
C735 C738 1.351 . S
C735 H758 0.931 . S
C736 C733 1.429 . S
C736 C734 1.420 . S
C736 N744 1.362 . S
C737 C733 1.411 . S
C737 C735 1.420 . S
C737 C742 1.395 . S
C738 C734 1.423 . S
C738 C735 1.351 . S
C738 H750 0.930 . S
C739 C741 1.400 . S
C739 C742 1.386 . S
C739 H751 0.930 . S
N740 C733 1.377 . S
N740 C741 1.321 . S
N740 Eu743 2.609 . S
C741 C739 1.400 . S
C741 N740 1.321 . S
C741 H748 0.930 . S
C742 C737 1.395 . S
C742 C739 1.386 . S
C742 H761 0.930 . S
Eu743 N740 2.609 . S
Eu743 N744 2.657 . S
Eu743 O777 2.380 1_554 S
Eu743 O778 2.432 . S
Eu743 O782 2.558 . S
Eu743 O783 2.612 1_655 S
Eu743 O785 2.339 1_655 S
Eu743 O786 2.563 1_655 S
Eu743 O787 2.419 . S
Eu743 C807 2.848 . S
N744 C736 1.362 . S
N744 Eu743 2.657 . S
N744 C745 1.334 . S
C745 N744 1.334 . S
C745 C747 1.413 . S
C745 H752 0.929 . S
C746 C734 1.392 . S
C746 C747 1.367 . S
C746 H754 0.930 . S
C747 C745 1.413 . S
C747 C746 1.367 . S
C747 H749 0.930 . S
H748 C741 0.930 . S
H749 C747 0.930 . S
H750 C738 0.930 . S
H751 C739 0.930 . S
H752 C745 0.929 . S
H753 C767 0.930 . S
H754 C746 0.930 . S
H755 C773 0.930 . S
H756 C764 0.929 . S
H757 C771 0.930 . S
H758 C735 0.931 . S
H759 C765 0.930 . S
H760 C798 0.930 . S
H761 C742 0.930 . S
H762 C797 0.931 . S
N763 Eu732 2.657 . S
N763 C764 1.334 . S
N763 C768 1.362 . S
C764 H756 0.929 . S
C764 N763 1.334 . S
C764 C767 1.413 . S
C765 H759 0.930 . S
C765 C766 1.392 . S
C765 C767 1.367 . S
C766 C765 1.392 . S
C766 C768 1.420 . S
C766 C798 1.423 . S
C767 H753 0.930 . S
C767 C764 1.413 . S
C767 C765 1.367 . S
C768 N763 1.362 . S
C768 C766 1.420 . S
C768 C772 1.429 . S
H769 C774 0.930 . S
N770 Eu732 2.609 . S
N770 C772 1.377 . S
N770 C773 1.321 . S
C771 H757 0.930 . S
C771 C773 1.400 . S
C771 C774 1.386 . S
C772 C768 1.429 . S
C772 N770 1.377 . S
C772 C775 1.411 . S
C773 H755 0.930 . S
C773 N770 1.321 . S
C773 C771 1.400 . S
C774 H769 0.930 . S
C774 C771 1.386 . S
C774 C775 1.395 . S
C775 C772 1.411 . S
C775 C774 1.395 . S
C775 C797 1.420 . S
O776 Eu732 2.558 . S
O776 C796 1.257 . S
O777 Eu732 2.612 1_655 S
O777 Eu743 2.380 1_556 S
O777 C788 1.276 . S
O778 Eu743 2.432 . S
O778 C795 1.264 1_554 S
O779 Eu732 2.339 1_655 S
O779 C795 1.254 . S
O780 Eu732 2.563 1_655 S
O780 C788 1.235 . S
O781 Eu732 2.419 . S
O781 C796 1.249 . S
O782 Eu743 2.558 . S
O782 C807 1.257 . S
O783 Eu732 2.380 1_554 S
O783 Eu743 2.612 1_455 S
O783 C799 1.276 . S
O784 Eu732 2.432 . S
O784 C806 1.264 1_556 S
O785 Eu743 2.339 1_455 S
O785 C806 1.254 . S
O786 Eu743 2.563 1_455 S
O786 C799 1.235 . S
O787 Eu743 2.419 . S
O787 C807 1.249 . S
C788 O777 1.276 . S
C788 O780 1.235 . S
C789 C791 1.393 1_455 S
C789 C793 1.395 . S
C789 C796 1.492 . S
C790 C791 1.392 . S
C790 C792 1.386 1_655 S
C791 C789 1.393 1_655 S
C791 C790 1.392 . S
C791 H808 0.930 . S
C792 C790 1.386 1_455 S
C792 C794 1.395 . S
C792 H809 0.930 . S
C793 C789 1.395 . S
C793 C794 1.379 . S
C793 H810 0.930 . S
C794 C792 1.395 . S
C794 C793 1.379 . S
C794 H811 0.930 . S
C795 O778 1.264 1_556 S
C795 O779 1.254 . S
C796 Eu732 2.848 . S
C796 O776 1.257 . S
C796 O781 1.249 . S
C796 C789 1.492 . S
C797 H762 0.931 . S
C797 C775 1.420 . S
C797 C798 1.351 . S
C798 H760 0.930 . S
C798 C766 1.423 . S
C798 C797 1.351 . S
C799 O783 1.276 . S
C799 O786 1.235 . S
C800 C801 1.393 1_655 S
C800 C804 1.395 . S
C800 C807 1.492 . S
C801 C800 1.393 1_455 S
C801 C802 1.392 . S
C801 H812 0.930 . S
C802 C801 1.392 . S
C802 C803 1.386 1_455 S
C803 C802 1.386 1_655 S
C803 C805 1.395 . S
C803 H813 0.930 . S
C804 C800 1.395 . S
C804 C805 1.379 . S
C804 H814 0.930 . S
C805 C803 1.395 . S
C805 C804 1.379 . S
C805 H815 0.930 . S
C806 O784 1.264 1_554 S
C806 O785 1.254 . S
C807 Eu743 2.848 . S
C807 O782 1.257 . S
C807 O787 1.249 . S
C807 C800 1.492 . S
H808 C791 0.930 . S
H809 C792 0.930 . S
H810 C793 0.930 . S
H811 C794 0.930 . S
H812 C801 0.930 . S
H813 C803 0.930 . S
H814 C804 0.930 . S
H815 C805 0.930 . S
Eu816 N847 2.657 . S
Eu816 N854 2.609 . S
Eu816 O860 2.558 . S
Eu816 O861 2.612 . S
Eu816 O863 2.339 . S
Eu816 O864 2.563 . S
Eu816 O865 2.419 . S
Eu816 O867 2.380 1_554 S
Eu816 O868 2.432 . S
Eu816 C880 2.848 . S
C817 C820 1.429 . S
C817 C821 1.411 . S
C817 N824 1.377 . S
C818 C820 1.420 . S
C818 C822 1.423 . S
C818 C830 1.392 . S
C819 C821 1.420 . S
C819 C822 1.351 . S
C819 H842 0.931 . S
C820 C817 1.429 . S
C820 C818 1.420 . S
C820 N828 1.362 . S
C821 C817 1.411 . S
C821 C819 1.420 . S
C821 C826 1.395 . S
C822 C818 1.423 . S
C822 C819 1.351 . S
C822 H834 0.930 . S
C823 C825 1.400 . S
C823 C826 1.386 . S
C823 H835 0.930 . S
N824 C817 1.377 . S
N824 C825 1.321 . S
N824 Eu827 2.609 . S
C825 C823 1.400 . S
C825 N824 1.321 . S
C825 H832 0.930 . S
C826 C821 1.395 . S
C826 C823 1.386 . S
C826 H845 0.930 . S
Eu827 N824 2.609 . S
Eu827 N828 2.657 . S
Eu827 O861 2.380 1_556 S
Eu827 O862 2.432 . S
Eu827 O866 2.558 . S
Eu827 O867 2.612 . S
Eu827 O869 2.339 . S
Eu827 O870 2.563 . S
Eu827 O871 2.419 . S
Eu827 C891 2.848 . S
N828 C820 1.362 . S
N828 Eu827 2.657 . S
N828 C829 1.334 . S
C829 N828 1.334 . S
C829 C831 1.413 . S
C829 H836 0.929 . S
C830 C818 1.392 . S
C830 C831 1.367 . S
C830 H838 0.930 . S
C831 C829 1.413 . S
C831 C830 1.367 . S
C831 H833 0.930 . S
H832 C825 0.930 . S
H833 C831 0.930 . S
H834 C822 0.930 . S
H835 C823 0.930 . S
H836 C829 0.929 . S
H837 C851 0.930 . S
H838 C830 0.930 . S
H839 C857 0.930 . S
H840 C848 0.929 . S
H841 C855 0.930 . S
H842 C819 0.931 . S
H843 C849 0.930 . S
H844 C882 0.930 . S
H845 C826 0.930 . S
H846 C881 0.931 . S
N847 Eu816 2.657 . S
N847 C848 1.334 . S
N847 C852 1.362 . S
C848 H840 0.929 . S
C848 N847 1.334 . S
C848 C851 1.413 . S
C849 H843 0.930 . S
C849 C850 1.392 . S
C849 C851 1.367 . S
C850 C849 1.392 . S
C850 C852 1.420 . S
C850 C882 1.423 . S
C851 H837 0.930 . S
C851 C848 1.413 . S
C851 C849 1.367 . S
C852 N847 1.362 . S
C852 C850 1.420 . S
C852 C856 1.429 . S
H853 C858 0.930 . S
N854 Eu816 2.609 . S
N854 C856 1.377 . S
N854 C857 1.321 . S
C855 H841 0.930 . S
C855 C857 1.400 . S
C855 C858 1.386 . S
C856 C852 1.429 . S
C856 N854 1.377 . S
C856 C859 1.411 . S
C857 H839 0.930 . S
C857 N854 1.321 . S
C857 C855 1.400 . S
C858 H853 0.930 . S
C858 C855 1.386 . S
C858 C859 1.395 . S
C859 C856 1.411 . S
C859 C858 1.395 . S
C859 C881 1.420 . S
O860 Eu816 2.558 . S
O860 C880 1.257 . S
O861 Eu816 2.612 . S
O861 Eu827 2.380 1_554 S
O861 C872 1.276 . S
O862 Eu827 2.432 . S
O862 C879 1.264 1_556 S
O863 Eu816 2.339 . S
O863 C879 1.254 . S
O864 Eu816 2.563 . S
O864 C872 1.235 . S
O865 Eu816 2.419 . S
O865 C880 1.249 . S
O866 Eu827 2.558 . S
O866 C891 1.257 . S
O867 Eu816 2.380 1_556 S
O867 Eu827 2.612 . S
O867 C883 1.276 . S
O868 Eu816 2.432 . S
O868 C890 1.264 1_554 S
O869 Eu827 2.339 . S
O869 C890 1.254 . S
O870 Eu827 2.563 . S
O870 C883 1.235 . S
O871 Eu827 2.419 . S
O871 C891 1.249 . S
C872 O861 1.276 . S
C872 O864 1.235 . S
C873 C875 1.393 . S
C873 C877 1.395 . S
C873 C880 1.492 . S
C874 C875 1.392 . S
C874 C876 1.386 . S
C875 C873 1.393 . S
C875 C874 1.392 . S
C875 H892 0.930 . S
C876 C874 1.386 . S
C876 C878 1.395 . S
C876 H893 0.930 . S
C877 C873 1.395 . S
C877 C878 1.379 . S
C877 H894 0.930 . S
C878 C876 1.395 . S
C878 C877 1.379 . S
C878 H895 0.930 . S
C879 O862 1.264 1_554 S
C879 O863 1.254 . S
C880 Eu816 2.848 . S
C880 O860 1.257 . S
C880 O865 1.249 . S
C880 C873 1.492 . S
C881 H846 0.931 . S
C881 C859 1.420 . S
C881 C882 1.351 . S
C882 H844 0.930 . S
C882 C850 1.423 . S
C882 C881 1.351 . S
C883 O867 1.276 . S
C883 O870 1.235 . S
C884 C885 1.393 . S
C884 C888 1.395 . S
C884 C891 1.492 . S
C885 C884 1.393 . S
C885 C886 1.392 . S
C885 H896 0.930 . S
C886 C885 1.392 . S
C886 C887 1.386 . S
C887 C886 1.386 . S
C887 C889 1.395 . S
C887 H897 0.930 . S
C888 C884 1.395 . S
C888 C889 1.379 . S
C888 H898 0.930 . S
C889 C887 1.395 . S
C889 C888 1.379 . S
C889 H899 0.930 . S
C890 O868 1.264 1_556 S
C890 O869 1.254 . S
C891 Eu827 2.848 . S
C891 O866 1.257 . S
C891 O871 1.249 . S
C891 C884 1.492 . S
H892 C875 0.930 . S
H893 C876 0.930 . S
H894 C877 0.930 . S
H895 C878 0.930 . S
H896 C885 0.930 . S
H897 C887 0.930 . S
H898 C888 0.930 . S
H899 C889 0.930 . S
Eu900 N931 2.657 . S
Eu900 N938 2.609 . S
Eu900 O944 2.558 . S
Eu900 O945 2.612 . S
Eu900 O947 2.339 . S
Eu900 O948 2.563 . S
Eu900 O949 2.419 . S
Eu900 O951 2.380 . S
Eu900 O952 2.432 . S
Eu900 C964 2.848 . S
C901 C904 1.429 . S
C901 C905 1.411 . S
C901 N908 1.377 . S
C902 C904 1.420 . S
C902 C906 1.423 . S
C902 C914 1.392 . S
C903 C905 1.420 . S
C903 C906 1.351 . S
C903 H926 0.931 . S
C904 C901 1.429 . S
C904 C902 1.420 . S
C904 N912 1.362 . S
C905 C901 1.411 . S
C905 C903 1.420 . S
C905 C910 1.395 . S
C906 C902 1.423 . S
C906 C903 1.351 . S
C906 H918 0.930 . S
C907 C909 1.400 . S
C907 C910 1.386 . S
C907 H919 0.930 . S
N908 C901 1.377 . S
N908 C909 1.321 . S
N908 Eu911 2.609 . S
C909 C907 1.400 . S
C909 N908 1.321 . S
C909 H916 0.930 . S
C910 C905 1.395 . S
C910 C907 1.386 . S
C910 H929 0.930 . S
Eu911 N908 2.609 . S
Eu911 N912 2.657 . S
Eu911 O945 2.380 . S
Eu911 O946 2.432 . S
Eu911 O950 2.558 . S
Eu911 O951 2.612 . S
Eu911 O953 2.339 . S
Eu911 O954 2.563 . S
Eu911 O955 2.419 . S
Eu911 C975 2.848 . S
N912 C904 1.362 . S
N912 Eu911 2.657 . S
N912 C913 1.334 . S
C913 N912 1.334 . S
C913 C915 1.413 . S
C913 H920 0.929 . S
C914 C902 1.392 . S
C914 C915 1.367 . S
C914 H922 0.930 . S
C915 C913 1.413 . S
C915 C914 1.367 . S
C915 H917 0.930 . S
H916 C909 0.930 . S
H917 C915 0.930 . S
H918 C906 0.930 . S
H919 C907 0.930 . S
H920 C913 0.929 . S
H921 C935 0.930 . S
H922 C914 0.930 . S
H923 C941 0.930 . S
H924 C932 0.929 . S
H925 C939 0.930 . S
H926 C903 0.931 . S
H927 C933 0.930 . S
H928 C966 0.930 . S
H929 C910 0.930 . S
H930 C965 0.931 . S
N931 Eu900 2.657 . S
N931 C932 1.334 . S
N931 C936 1.362 . S
C932 H924 0.929 . S
C932 N931 1.334 . S
C932 C935 1.413 . S
C933 H927 0.930 . S
C933 C934 1.392 . S
C933 C935 1.367 . S
C934 C933 1.392 . S
C934 C936 1.420 . S
C934 C966 1.423 . S
C935 H921 0.930 . S
C935 C932 1.413 . S
C935 C933 1.367 . S
C936 N931 1.362 . S
C936 C934 1.420 . S
C936 C940 1.429 . S
H937 C942 0.930 . S
N938 Eu900 2.609 . S
N938 C940 1.377 . S
N938 C941 1.321 . S
C939 H925 0.930 . S
C939 C941 1.400 . S
C939 C942 1.386 . S
C940 C936 1.429 . S
C940 N938 1.377 . S
C940 C943 1.411 . S
C941 H923 0.930 . S
C941 N938 1.321 . S
C941 C939 1.400 . S
C942 H937 0.930 . S
C942 C939 1.386 . S
C942 C943 1.395 . S
C943 C940 1.411 . S
C943 C942 1.395 . S
C943 C965 1.420 . S
O944 Eu900 2.558 . S
O944 C964 1.257 . S
O945 Eu900 2.612 . S
O945 Eu911 2.380 . S
O945 C956 1.276 . S
O946 Eu911 2.432 . S
O946 C963 1.264 . S
O947 Eu900 2.339 . S
O947 C963 1.254 . S
O948 Eu900 2.563 . S
O948 C956 1.235 . S
O949 Eu900 2.419 . S
O949 C964 1.249 . S
O950 Eu911 2.558 . S
O950 C975 1.257 . S
O951 Eu900 2.380 . S
O951 Eu911 2.612 . S
O951 C967 1.276 . S
O952 Eu900 2.432 . S
O952 C974 1.264 . S
O953 Eu911 2.339 . S
O953 C974 1.254 . S
O954 Eu911 2.563 . S
O954 C967 1.235 . S
O955 Eu911 2.419 . S
O955 C975 1.249 . S
C956 O945 1.276 . S
C956 O948 1.235 . S
C957 C959 1.393 . S
C957 C961 1.395 . S
C957 C964 1.492 . S
C958 C959 1.392 . S
C958 C960 1.386 . S
C959 C957 1.393 . S
C959 C958 1.392 . S
C959 H976 0.930 . S
C960 C958 1.386 . S
C960 C962 1.395 . S
C960 H977 0.930 . S
C961 C957 1.395 . S
C961 C962 1.379 . S
C961 H978 0.930 . S
C962 C960 1.395 . S
C962 C961 1.379 . S
C962 H979 0.930 . S
C963 O946 1.264 . S
C963 O947 1.254 . S
C964 Eu900 2.848 . S
C964 O944 1.257 . S
C964 O949 1.249 . S
C964 C957 1.492 . S
C965 H930 0.931 . S
C965 C943 1.420 . S
C965 C966 1.351 . S
C966 H928 0.930 . S
C966 C934 1.423 . S
C966 C965 1.351 . S
C967 O951 1.276 . S
C967 O954 1.235 . S
C968 C969 1.393 . S
C968 C972 1.395 . S
C968 C975 1.492 . S
C969 C968 1.393 . S
C969 C970 1.392 . S
C969 H980 0.930 . S
C970 C969 1.392 . S
C970 C971 1.386 . S
C971 C970 1.386 . S
C971 C973 1.395 . S
C971 H981 0.930 . S
C972 C968 1.395 . S
C972 C973 1.379 . S
C972 H982 0.930 . S
C973 C971 1.395 . S
C973 C972 1.379 . S
C973 H983 0.930 . S
C974 O952 1.264 . S
C974 O953 1.254 . S
C975 Eu911 2.848 . S
C975 O950 1.257 . S
C975 O955 1.249 . S
C975 C968 1.492 . S
H976 C959 0.930 . S
H977 C960 0.930 . S
H978 C961 0.930 . S
H979 C962 0.930 . S
H980 C969 0.930 . S
H981 C971 0.930 . S
H982 C972 0.930 . S
H983 C973 0.930 . S
Eu984 N1015 2.657 . S
Eu984 N1022 2.609 . S
Eu984 O1028 2.558 . S
Eu984 O1029 2.612 . S
Eu984 O1031 2.339 . S
Eu984 O1032 2.563 . S
Eu984 O1033 2.419 . S
Eu984 O1035 2.380 . S
Eu984 O1036 2.432 . S
Eu984 C1048 2.848 . S
C985 C988 1.429 . S
C985 C989 1.411 . S
C985 N992 1.377 . S
C986 C988 1.420 . S
C986 C990 1.423 . S
C986 C998 1.392 . S
C987 C989 1.420 . S
C987 C990 1.351 . S
C987 H1010 0.931 . S
C988 C985 1.429 . S
C988 C986 1.420 . S
C988 N996 1.362 . S
C989 C985 1.411 . S
C989 C987 1.420 . S
C989 C994 1.395 . S
C990 C986 1.423 . S
C990 C987 1.351 . S
C990 H1002 0.930 . S
C991 C993 1.400 . S
C991 C994 1.386 . S
C991 H1003 0.930 . S
N992 C985 1.377 . S
N992 C993 1.321 . S
N992 Eu995 2.609 . S
C993 C991 1.400 . S
C993 N992 1.321 . S
C993 H1000 0.930 . S
C994 C989 1.395 . S
C994 C991 1.386 . S
C994 H1013 0.930 . S
Eu995 N992 2.609 . S
Eu995 N996 2.657 . S
Eu995 O1029 2.380 . S
Eu995 O1030 2.432 . S
Eu995 O1034 2.558 . S
Eu995 O1035 2.612 . S
Eu995 O1037 2.339 . S
Eu995 O1038 2.563 . S
Eu995 O1039 2.419 . S
Eu995 C1059 2.848 . S
N996 C988 1.362 . S
N996 Eu995 2.657 . S
N996 C997 1.334 . S
C997 N996 1.334 . S
C997 C999 1.413 . S
C997 H1004 0.929 . S
C998 C986 1.392 . S
C998 C999 1.367 . S
C998 H1006 0.930 . S
C999 C997 1.413 . S
C999 C998 1.367 . S
C999 H1001 0.930 . S
H1000 C993 0.930 . S
H1001 C999 0.930 . S
H1002 C990 0.930 . S
H1003 C991 0.930 . S
H1004 C997 0.929 . S
H1005 C1019 0.930 . S
H1006 C998 0.930 . S
H1007 C1025 0.930 . S
H1008 C1016 0.929 . S
H1009 C1023 0.930 . S
H1010 C987 0.931 . S
H1011 C1017 0.930 . S
H1012 C1050 0.930 . S
H1013 C994 0.930 . S
H1014 C1049 0.931 . S
N1015 Eu984 2.657 . S
N1015 C1016 1.334 . S
N1015 C1020 1.362 . S
C1016 H1008 0.929 . S
C1016 N1015 1.334 . S
C1016 C1019 1.413 . S
C1017 H1011 0.930 . S
C1017 C1018 1.392 . S
C1017 C1019 1.367 . S
C1018 C1017 1.392 . S
C1018 C1020 1.420 . S
C1018 C1050 1.423 . S
C1019 H1005 0.930 . S
C1019 C1016 1.413 . S
C1019 C1017 1.367 . S
C1020 N1015 1.362 . S
C1020 C1018 1.420 . S
C1020 C1024 1.429 . S
H1021 C1026 0.930 . S
N1022 Eu984 2.609 . S
N1022 C1024 1.377 . S
N1022 C1025 1.321 . S
C1023 H1009 0.930 . S
C1023 C1025 1.400 . S
C1023 C1026 1.386 . S
C1024 C1020 1.429 . S
C1024 N1022 1.377 . S
C1024 C1027 1.411 . S
C1025 H1007 0.930 . S
C1025 N1022 1.321 . S
C1025 C1023 1.400 . S
C1026 H1021 0.930 . S
C1026 C1023 1.386 . S
C1026 C1027 1.395 . S
C1027 C1024 1.411 . S
C1027 C1026 1.395 . S
C1027 C1049 1.420 . S
O1028 Eu984 2.558 . S
O1028 C1048 1.257 . S
O1029 Eu984 2.612 . S
O1029 Eu995 2.380 . S
O1029 C1040 1.276 . S
O1030 Eu995 2.432 . S
O1030 C1047 1.264 . S
O1031 Eu984 2.339 . S
O1031 C1047 1.254 . S
O1032 Eu984 2.563 . S
O1032 C1040 1.235 . S
O1033 Eu984 2.419 . S
O1033 C1048 1.249 . S
O1034 Eu995 2.558 . S
O1034 C1059 1.257 . S
O1035 Eu984 2.380 . S
O1035 Eu995 2.612 . S
O1035 C1051 1.276 . S
O1036 Eu984 2.432 . S
O1036 C1058 1.264 . S
O1037 Eu995 2.339 . S
O1037 C1058 1.254 . S
O1038 Eu995 2.563 . S
O1038 C1051 1.235 . S
O1039 Eu995 2.419 . S
O1039 C1059 1.249 . S
C1040 O1029 1.276 . S
C1040 O1032 1.235 . S
C1041 C1043 1.393 . S
C1041 C1045 1.395 . S
C1041 C1048 1.492 . S
C1042 C1043 1.392 . S
C1042 C1044 1.386 . S
C1043 C1041 1.393 . S
C1043 C1042 1.392 . S
C1043 H1060 0.930 . S
C1044 C1042 1.386 . S
C1044 C1046 1.395 . S
C1044 H1061 0.930 . S
C1045 C1041 1.395 . S
C1045 C1046 1.379 . S
C1045 H1062 0.930 . S
C1046 C1044 1.395 . S
C1046 C1045 1.379 . S
C1046 H1063 0.930 . S
C1047 O1030 1.264 . S
C1047 O1031 1.254 . S
C1048 Eu984 2.848 . S
C1048 O1028 1.257 . S
C1048 O1033 1.249 . S
C1048 C1041 1.492 . S
C1049 H1014 0.931 . S
C1049 C1027 1.420 . S
C1049 C1050 1.351 . S
C1050 H1012 0.930 . S
C1050 C1018 1.423 . S
C1050 C1049 1.351 . S
C1051 O1035 1.276 . S
C1051 O1038 1.235 . S
C1052 C1053 1.393 . S
C1052 C1056 1.395 . S
C1052 C1059 1.492 . S
C1053 C1052 1.393 . S
C1053 C1054 1.392 . S
C1053 H1064 0.930 . S
C1054 C1053 1.392 . S
C1054 C1055 1.386 . S
C1055 C1054 1.386 . S
C1055 C1057 1.395 . S
C1055 H1065 0.930 . S
C1056 C1052 1.395 . S
C1056 C1057 1.379 . S
C1056 H1066 0.930 . S
C1057 C1055 1.395 . S
C1057 C1056 1.379 . S
C1057 H1067 0.930 . S
C1058 O1036 1.264 . S
C1058 O1037 1.254 . S
C1059 Eu995 2.848 . S
C1059 O1034 1.257 . S
C1059 O1039 1.249 . S
C1059 C1052 1.492 . S
H1060 C1043 0.930 . S
H1061 C1044 0.930 . S
H1062 C1045 0.930 . S
H1063 C1046 0.930 . S
H1064 C1053 0.930 . S
H1065 C1055 0.930 . S
H1066 C1056 0.930 . S
H1067 C1057 0.930 . S
Eu1068 N1099 2.657 . S
Eu1068 N1106 2.609 . S
Eu1068 O1112 2.558 . S
Eu1068 O1113 2.612 . S
Eu1068 O1115 2.339 . S
Eu1068 O1116 2.563 . S
Eu1068 O1117 2.419 . S
Eu1068 O1119 2.380 . S
Eu1068 O1120 2.432 . S
Eu1068 C1132 2.848 . S
C1069 C1072 1.429 . S
C1069 C1073 1.411 . S
C1069 N1076 1.377 . S
C1070 C1072 1.420 . S
C1070 C1074 1.423 . S
C1070 C1082 1.392 . S
C1071 C1073 1.420 . S
C1071 C1074 1.351 . S
C1071 H1094 0.931 . S
C1072 C1069 1.429 . S
C1072 C1070 1.420 . S
C1072 N1080 1.362 . S
C1073 C1069 1.411 . S
C1073 C1071 1.420 . S
C1073 C1078 1.395 . S
C1074 C1070 1.423 . S
C1074 C1071 1.351 . S
C1074 H1086 0.930 . S
C1075 C1077 1.400 . S
C1075 C1078 1.386 . S
C1075 H1087 0.930 . S
N1076 C1069 1.377 . S
N1076 C1077 1.321 . S
N1076 Eu1079 2.609 . S
C1077 C1075 1.400 . S
C1077 N1076 1.321 . S
C1077 H1084 0.930 . S
C1078 C1073 1.395 . S
C1078 C1075 1.386 . S
C1078 H1097 0.930 . S
Eu1079 N1076 2.609 . S
Eu1079 N1080 2.657 . S
Eu1079 O1113 2.380 . S
Eu1079 O1114 2.432 . S
Eu1079 O1118 2.558 . S
Eu1079 O1119 2.612 . S
Eu1079 O1121 2.339 . S
Eu1079 O1122 2.563 . S
Eu1079 O1123 2.419 . S
Eu1079 C1143 2.848 . S
N1080 C1072 1.362 . S
N1080 Eu1079 2.657 . S
N1080 C1081 1.334 . S
C1081 N1080 1.334 . S
C1081 C1083 1.413 . S
C1081 H1088 0.929 . S
C1082 C1070 1.392 . S
C1082 C1083 1.367 . S
C1082 H1090 0.930 . S
C1083 C1081 1.413 . S
C1083 C1082 1.367 . S
C1083 H1085 0.930 . S
H1084 C1077 0.930 . S
H1085 C1083 0.930 . S
H1086 C1074 0.930 . S
H1087 C1075 0.930 . S
H1088 C1081 0.929 . S
H1089 C1103 0.930 . S
H1090 C1082 0.930 . S
H1091 C1109 0.930 . S
H1092 C1100 0.929 . S
H1093 C1107 0.930 . S
H1094 C1071 0.931 . S
H1095 C1101 0.930 . S
H1096 C1134 0.930 . S
H1097 C1078 0.930 . S
H1098 C1133 0.931 . S
N1099 Eu1068 2.657 . S
N1099 C1100 1.334 . S
N1099 C1104 1.362 . S
C1100 H1092 0.929 . S
C1100 N1099 1.334 . S
C1100 C1103 1.413 . S
C1101 H1095 0.930 . S
C1101 C1102 1.392 . S
C1101 C1103 1.367 . S
C1102 C1101 1.392 . S
C1102 C1104 1.420 . S
C1102 C1134 1.423 . S
C1103 H1089 0.930 . S
C1103 C1100 1.413 . S
C1103 C1101 1.367 . S
C1104 N1099 1.362 . S
C1104 C1102 1.420 . S
C1104 C1108 1.429 . S
H1105 C1110 0.930 . S
N1106 Eu1068 2.609 . S
N1106 C1108 1.377 . S
N1106 C1109 1.321 . S
C1107 H1093 0.930 . S
C1107 C1109 1.400 . S
C1107 C1110 1.386 . S
C1108 C1104 1.429 . S
C1108 N1106 1.377 . S
C1108 C1111 1.411 . S
C1109 H1091 0.930 . S
C1109 N1106 1.321 . S
C1109 C1107 1.400 . S
C1110 H1105 0.930 . S
C1110 C1107 1.386 . S
C1110 C1111 1.395 . S
C1111 C1108 1.411 . S
C1111 C1110 1.395 . S
C1111 C1133 1.420 . S
O1112 Eu1068 2.558 . S
O1112 C1132 1.257 . S
O1113 Eu1068 2.612 . S
O1113 Eu1079 2.380 . S
O1113 C1124 1.276 . S
O1114 Eu1079 2.432 . S
O1114 C1131 1.264 . S
O1115 Eu1068 2.339 . S
O1115 C1131 1.254 . S
O1116 Eu1068 2.563 . S
O1116 C1124 1.235 . S
O1117 Eu1068 2.419 . S
O1117 C1132 1.249 . S
O1118 Eu1079 2.558 . S
O1118 C1143 1.257 . S
O1119 Eu1068 2.380 . S
O1119 Eu1079 2.612 . S
O1119 C1135 1.276 . S
O1120 Eu1068 2.432 . S
O1120 C1142 1.264 . S
O1121 Eu1079 2.339 . S
O1121 C1142 1.254 . S
O1122 Eu1079 2.563 . S
O1122 C1135 1.235 . S
O1123 Eu1079 2.419 . S
O1123 C1143 1.249 . S
C1124 O1113 1.276 . S
C1124 O1116 1.235 . S
C1125 C1127 1.393 . S
C1125 C1129 1.395 . S
C1125 C1132 1.492 . S
C1126 C1127 1.392 . S
C1126 C1128 1.386 . S
C1127 C1125 1.393 . S
C1127 C1126 1.392 . S
C1127 H1144 0.930 . S
C1128 C1126 1.386 . S
C1128 C1130 1.395 . S
C1128 H1145 0.930 . S
C1129 C1125 1.395 . S
C1129 C1130 1.379 . S
C1129 H1146 0.930 . S
C1130 C1128 1.395 . S
C1130 C1129 1.379 . S
C1130 H1147 0.930 . S
C1131 O1114 1.264 . S
C1131 O1115 1.254 . S
C1132 Eu1068 2.848 . S
C1132 O1112 1.257 . S
C1132 O1117 1.249 . S
C1132 C1125 1.492 . S
C1133 H1098 0.931 . S
C1133 C1111 1.420 . S
C1133 C1134 1.351 . S
C1134 H1096 0.930 . S
C1134 C1102 1.423 . S
C1134 C1133 1.351 . S
C1135 O1119 1.276 . S
C1135 O1122 1.235 . S
C1136 C1137 1.393 . S
C1136 C1140 1.395 . S
C1136 C1143 1.492 . S
C1137 C1136 1.393 . S
C1137 C1138 1.392 . S
C1137 H1148 0.930 . S
C1138 C1137 1.392 . S
C1138 C1139 1.386 . S
C1139 C1138 1.386 . S
C1139 C1141 1.395 . S
C1139 H1149 0.930 . S
C1140 C1136 1.395 . S
C1140 C1141 1.379 . S
C1140 H1150 0.930 . S
C1141 C1139 1.395 . S
C1141 C1140 1.379 . S
C1141 H1151 0.930 . S
C1142 O1120 1.264 . S
C1142 O1121 1.254 . S
C1143 Eu1079 2.848 . S
C1143 O1118 1.257 . S
C1143 O1123 1.249 . S
C1143 C1136 1.492 . S
H1144 C1127 0.930 . S
H1145 C1128 0.930 . S
H1146 C1129 0.930 . S
H1147 C1130 0.930 . S
H1148 C1137 0.930 . S
H1149 C1139 0.930 . S
H1150 C1140 0.930 . S
H1151 C1141 0.930 . S
Eu1152 N1183 2.657 . S
Eu1152 N1190 2.609 . S
Eu1152 O1196 2.558 . S
Eu1152 O1197 2.612 . S
Eu1152 O1199 2.339 . S
Eu1152 O1200 2.563 . S
Eu1152 O1201 2.419 . S
Eu1152 O1203 2.380 . S
Eu1152 O1204 2.432 . S
Eu1152 C1216 2.848 . S
C1153 C1156 1.429 . S
C1153 C1157 1.411 . S
C1153 N1160 1.377 . S
C1154 C1156 1.420 . S
C1154 C1158 1.423 . S
C1154 C1166 1.392 . S
C1155 C1157 1.420 . S
C1155 C1158 1.351 . S
C1155 H1178 0.931 . S
C1156 C1153 1.429 . S
C1156 C1154 1.420 . S
C1156 N1164 1.362 . S
C1157 C1153 1.411 . S
C1157 C1155 1.420 . S
C1157 C1162 1.395 . S
C1158 C1154 1.423 . S
C1158 C1155 1.351 . S
C1158 H1170 0.930 . S
C1159 C1161 1.400 . S
C1159 C1162 1.386 . S
C1159 H1171 0.930 . S
N1160 C1153 1.377 . S
N1160 C1161 1.321 . S
N1160 Eu1163 2.609 . S
C1161 C1159 1.400 . S
C1161 N1160 1.321 . S
C1161 H1168 0.930 . S
C1162 C1157 1.395 . S
C1162 C1159 1.386 . S
C1162 H1181 0.930 . S
Eu1163 N1160 2.609 . S
Eu1163 N1164 2.657 . S
Eu1163 O1197 2.380 . S
Eu1163 O1198 2.432 . S
Eu1163 O1202 2.558 . S
Eu1163 O1203 2.612 . S
Eu1163 O1205 2.339 . S
Eu1163 O1206 2.563 . S
Eu1163 O1207 2.419 . S
Eu1163 C1227 2.848 . S
N1164 C1156 1.362 . S
N1164 Eu1163 2.657 . S
N1164 C1165 1.334 . S
C1165 N1164 1.334 . S
C1165 C1167 1.413 . S
C1165 H1172 0.929 . S
C1166 C1154 1.392 . S
C1166 C1167 1.367 . S
C1166 H1174 0.930 . S
C1167 C1165 1.413 . S
C1167 C1166 1.367 . S
C1167 H1169 0.930 . S
H1168 C1161 0.930 . S
H1169 C1167 0.930 . S
H1170 C1158 0.930 . S
H1171 C1159 0.930 . S
H1172 C1165 0.929 . S
H1173 C1187 0.930 . S
H1174 C1166 0.930 . S
H1175 C1193 0.930 . S
H1176 C1184 0.929 . S
H1177 C1191 0.930 . S
H1178 C1155 0.931 . S
H1179 C1185 0.930 . S
H1180 C1218 0.930 . S
H1181 C1162 0.930 . S
H1182 C1217 0.931 . S
N1183 Eu1152 2.657 . S
N1183 C1184 1.334 . S
N1183 C1188 1.362 . S
C1184 H1176 0.929 . S
C1184 N1183 1.334 . S
C1184 C1187 1.413 . S
C1185 H1179 0.930 . S
C1185 C1186 1.392 . S
C1185 C1187 1.367 . S
C1186 C1185 1.392 . S
C1186 C1188 1.420 . S
C1186 C1218 1.423 . S
C1187 H1173 0.930 . S
C1187 C1184 1.413 . S
C1187 C1185 1.367 . S
C1188 N1183 1.362 . S
C1188 C1186 1.420 . S
C1188 C1192 1.429 . S
H1189 C1194 0.930 . S
N1190 Eu1152 2.609 . S
N1190 C1192 1.377 . S
N1190 C1193 1.321 . S
C1191 H1177 0.930 . S
C1191 C1193 1.400 . S
C1191 C1194 1.386 . S
C1192 C1188 1.429 . S
C1192 N1190 1.377 . S
C1192 C1195 1.411 . S
C1193 H1175 0.930 . S
C1193 N1190 1.321 . S
C1193 C1191 1.400 . S
C1194 H1189 0.930 . S
C1194 C1191 1.386 . S
C1194 C1195 1.395 . S
C1195 C1192 1.411 . S
C1195 C1194 1.395 . S
C1195 C1217 1.420 . S
O1196 Eu1152 2.558 . S
O1196 C1216 1.257 . S
O1197 Eu1152 2.612 . S
O1197 Eu1163 2.380 . S
O1197 C1208 1.276 . S
O1198 Eu1163 2.432 . S
O1198 C1215 1.264 . S
O1199 Eu1152 2.339 . S
O1199 C1215 1.254 . S
O1200 Eu1152 2.563 . S
O1200 C1208 1.235 . S
O1201 Eu1152 2.419 . S
O1201 C1216 1.249 . S
O1202 Eu1163 2.558 . S
O1202 C1227 1.257 . S
O1203 Eu1152 2.380 . S
O1203 Eu1163 2.612 . S
O1203 C1219 1.276 . S
O1204 Eu1152 2.432 . S
O1204 C1226 1.264 . S
O1205 Eu1163 2.339 . S
O1205 C1226 1.254 . S
O1206 Eu1163 2.563 . S
O1206 C1219 1.235 . S
O1207 Eu1163 2.419 . S
O1207 C1227 1.249 . S
C1208 O1197 1.276 . S
C1208 O1200 1.235 . S
C1209 C1211 1.393 . S
C1209 C1213 1.395 . S
C1209 C1216 1.492 . S
C1210 C1211 1.392 . S
C1210 C1212 1.386 . S
C1211 C1209 1.393 . S
C1211 C1210 1.392 . S
C1211 H1228 0.930 . S
C1212 C1210 1.386 . S
C1212 C1214 1.395 . S
C1212 H1229 0.930 . S
C1213 C1209 1.395 . S
C1213 C1214 1.379 . S
C1213 H1230 0.930 . S
C1214 C1212 1.395 . S
C1214 C1213 1.379 . S
C1214 H1231 0.930 . S
C1215 O1198 1.264 . S
C1215 O1199 1.254 . S
C1216 Eu1152 2.848 . S
C1216 O1196 1.257 . S
C1216 O1201 1.249 . S
C1216 C1209 1.492 . S
C1217 H1182 0.931 . S
C1217 C1195 1.420 . S
C1217 C1218 1.351 . S
C1218 H1180 0.930 . S
C1218 C1186 1.423 . S
C1218 C1217 1.351 . S
C1219 O1203 1.276 . S
C1219 O1206 1.235 . S
C1220 C1221 1.393 . S
C1220 C1224 1.395 . S
C1220 C1227 1.492 . S
C1221 C1220 1.393 . S
C1221 C1222 1.392 . S
C1221 H1232 0.930 . S
C1222 C1221 1.392 . S
C1222 C1223 1.386 . S
C1223 C1222 1.386 . S
C1223 C1225 1.395 . S
C1223 H1233 0.930 . S
C1224 C1220 1.395 . S
C1224 C1225 1.379 . S
C1224 H1234 0.930 . S
C1225 C1223 1.395 . S
C1225 C1224 1.379 . S
C1225 H1235 0.930 . S
C1226 O1204 1.264 . S
C1226 O1205 1.254 . S
C1227 Eu1163 2.848 . S
C1227 O1202 1.257 . S
C1227 O1207 1.249 . S
C1227 C1220 1.492 . S
H1228 C1211 0.930 . S
H1229 C1212 0.930 . S
H1230 C1213 0.930 . S
H1231 C1214 0.930 . S
H1232 C1221 0.930 . S
H1233 C1223 0.930 . S
H1234 C1224 0.930 . S
H1235 C1225 0.930 . S
Eu1236 N1267 2.657 . S
Eu1236 N1274 2.609 . S
Eu1236 O1280 2.558 . S
Eu1236 O1281 2.612 . S
Eu1236 O1283 2.339 . S
Eu1236 O1284 2.563 . S
Eu1236 O1285 2.419 . S
Eu1236 O1287 2.380 . S
Eu1236 O1288 2.432 . S
Eu1236 C1300 2.848 . S
C1237 C1240 1.429 . S
C1237 C1241 1.411 . S
C1237 N1244 1.377 . S
C1238 C1240 1.420 . S
C1238 C1242 1.423 . S
C1238 C1250 1.392 . S
C1239 C1241 1.420 . S
C1239 C1242 1.351 . S
C1239 H1262 0.931 . S
C1240 C1237 1.429 . S
C1240 C1238 1.420 . S
C1240 N1248 1.362 . S
C1241 C1237 1.411 . S
C1241 C1239 1.420 . S
C1241 C1246 1.395 . S
C1242 C1238 1.423 . S
C1242 C1239 1.351 . S
C1242 H1254 0.930 . S
C1243 C1245 1.400 . S
C1243 C1246 1.386 . S
C1243 H1255 0.930 . S
N1244 C1237 1.377 . S
N1244 C1245 1.321 . S
N1244 Eu1247 2.609 . S
C1245 C1243 1.400 . S
C1245 N1244 1.321 . S
C1245 H1252 0.930 . S
C1246 C1241 1.395 . S
C1246 C1243 1.386 . S
C1246 H1265 0.930 . S
Eu1247 N1244 2.609 . S
Eu1247 N1248 2.657 . S
Eu1247 O1281 2.380 . S
Eu1247 O1282 2.432 . S
Eu1247 O1286 2.558 . S
Eu1247 O1287 2.612 . S
Eu1247 O1289 2.339 . S
Eu1247 O1290 2.563 . S
Eu1247 O1291 2.419 . S
Eu1247 C1311 2.848 . S
N1248 C1240 1.362 . S
N1248 Eu1247 2.657 . S
N1248 C1249 1.334 . S
C1249 N1248 1.334 . S
C1249 C1251 1.413 . S
C1249 H1256 0.929 . S
C1250 C1238 1.392 . S
C1250 C1251 1.367 . S
C1250 H1258 0.930 . S
C1251 C1249 1.413 . S
C1251 C1250 1.367 . S
C1251 H1253 0.930 . S
H1252 C1245 0.930 . S
H1253 C1251 0.930 . S
H1254 C1242 0.930 . S
H1255 C1243 0.930 . S
H1256 C1249 0.929 . S
H1257 C1271 0.930 . S
H1258 C1250 0.930 . S
H1259 C1277 0.930 . S
H1260 C1268 0.929 . S
H1261 C1275 0.930 . S
H1262 C1239 0.931 . S
H1263 C1269 0.930 . S
H1264 C1302 0.930 . S
H1265 C1246 0.930 . S
H1266 C1301 0.931 . S
N1267 Eu1236 2.657 . S
N1267 C1268 1.334 . S
N1267 C1272 1.362 . S
C1268 H1260 0.929 . S
C1268 N1267 1.334 . S
C1268 C1271 1.413 . S
C1269 H1263 0.930 . S
C1269 C1270 1.392 . S
C1269 C1271 1.367 . S
C1270 C1269 1.392 . S
C1270 C1272 1.420 . S
C1270 C1302 1.423 . S
C1271 H1257 0.930 . S
C1271 C1268 1.413 . S
C1271 C1269 1.367 . S
C1272 N1267 1.362 . S
C1272 C1270 1.420 . S
C1272 C1276 1.429 . S
H1273 C1278 0.930 . S
N1274 Eu1236 2.609 . S
N1274 C1276 1.377 . S
N1274 C1277 1.321 . S
C1275 H1261 0.930 . S
C1275 C1277 1.400 . S
C1275 C1278 1.386 . S
C1276 C1272 1.429 . S
C1276 N1274 1.377 . S
C1276 C1279 1.411 . S
C1277 H1259 0.930 . S
C1277 N1274 1.321 . S
C1277 C1275 1.400 . S
C1278 H1273 0.930 . S
C1278 C1275 1.386 . S
C1278 C1279 1.395 . S
C1279 C1276 1.411 . S
C1279 C1278 1.395 . S
C1279 C1301 1.420 . S
O1280 Eu1236 2.558 . S
O1280 C1300 1.257 . S
O1281 Eu1236 2.612 . S
O1281 Eu1247 2.380 . S
O1281 C1292 1.276 . S
O1282 Eu1247 2.432 . S
O1282 C1299 1.264 . S
O1283 Eu1236 2.339 . S
O1283 C1299 1.254 . S
O1284 Eu1236 2.563 . S
O1284 C1292 1.235 . S
O1285 Eu1236 2.419 . S
O1285 C1300 1.249 . S
O1286 Eu1247 2.558 . S
O1286 C1311 1.257 . S
O1287 Eu1236 2.380 . S
O1287 Eu1247 2.612 . S
O1287 C1303 1.276 . S
O1288 Eu1236 2.432 . S
O1288 C1310 1.264 . S
O1289 Eu1247 2.339 . S
O1289 C1310 1.254 . S
O1290 Eu1247 2.563 . S
O1290 C1303 1.235 . S
O1291 Eu1247 2.419 . S
O1291 C1311 1.249 . S
C1292 O1281 1.276 . S
C1292 O1284 1.235 . S
C1293 C1295 1.393 . S
C1293 C1297 1.395 . S
C1293 C1300 1.492 . S
C1294 C1295 1.392 . S
C1294 C1296 1.386 . S
C1295 C1293 1.393 . S
C1295 C1294 1.392 . S
C1295 H1312 0.930 . S
C1296 C1294 1.386 . S
C1296 C1298 1.395 . S
C1296 H1313 0.930 . S
C1297 C1293 1.395 . S
C1297 C1298 1.379 . S
C1297 H1314 0.930 . S
C1298 C1296 1.395 . S
C1298 C1297 1.379 . S
C1298 H1315 0.930 . S
C1299 O1282 1.264 . S
C1299 O1283 1.254 . S
C1300 Eu1236 2.848 . S
C1300 O1280 1.257 . S
C1300 O1285 1.249 . S
C1300 C1293 1.492 . S
C1301 H1266 0.931 . S
C1301 C1279 1.420 . S
C1301 C1302 1.351 . S
C1302 H1264 0.930 . S
C1302 C1270 1.423 . S
C1302 C1301 1.351 . S
C1303 O1287 1.276 . S
C1303 O1290 1.235 . S
C1304 C1305 1.393 . S
C1304 C1308 1.395 . S
C1304 C1311 1.492 . S
C1305 C1304 1.393 . S
C1305 C1306 1.392 . S
C1305 H1316 0.930 . S
C1306 C1305 1.392 . S
C1306 C1307 1.386 . S
C1307 C1306 1.386 . S
C1307 C1309 1.395 . S
C1307 H1317 0.930 . S
C1308 C1304 1.395 . S
C1308 C1309 1.379 . S
C1308 H1318 0.930 . S
C1309 C1307 1.395 . S
C1309 C1308 1.379 . S
C1309 H1319 0.930 . S
C1310 O1288 1.264 . S
C1310 O1289 1.254 . S
C1311 Eu1247 2.848 . S
C1311 O1286 1.257 . S
C1311 O1291 1.249 . S
C1311 C1304 1.492 . S
H1312 C1295 0.930 . S
H1313 C1296 0.930 . S
H1314 C1297 0.930 . S
H1315 C1298 0.930 . S
H1316 C1305 0.930 . S
H1317 C1307 0.930 . S
H1318 C1308 0.930 . S
H1319 C1309 0.930 . S
Eu1320 N1351 2.657 . S
Eu1320 N1358 2.609 . S
Eu1320 O1364 2.558 . S
Eu1320 O1365 2.612 . S
Eu1320 O1367 2.339 . S
Eu1320 O1368 2.563 . S
Eu1320 O1369 2.419 . S
Eu1320 O1371 2.380 . S
Eu1320 O1372 2.432 . S
Eu1320 C1384 2.848 . S
C1321 C1324 1.429 . S
C1321 C1325 1.411 . S
C1321 N1328 1.377 . S
C1322 C1324 1.420 . S
C1322 C1326 1.423 . S
C1322 C1334 1.392 . S
C1323 C1325 1.420 . S
C1323 C1326 1.351 . S
C1323 H1346 0.931 . S
C1324 C1321 1.429 . S
C1324 C1322 1.420 . S
C1324 N1332 1.362 . S
C1325 C1321 1.411 . S
C1325 C1323 1.420 . S
C1325 C1330 1.395 . S
C1326 C1322 1.423 . S
C1326 C1323 1.351 . S
C1326 H1338 0.930 . S
C1327 C1329 1.400 . S
C1327 C1330 1.386 . S
C1327 H1339 0.930 . S
N1328 C1321 1.377 . S
N1328 C1329 1.321 . S
N1328 Eu1331 2.609 . S
C1329 C1327 1.400 . S
C1329 N1328 1.321 . S
C1329 H1336 0.930 . S
C1330 C1325 1.395 . S
C1330 C1327 1.386 . S
C1330 H1349 0.930 . S
Eu1331 N1328 2.609 . S
Eu1331 N1332 2.657 . S
Eu1331 O1365 2.380 . S
Eu1331 O1366 2.432 . S
Eu1331 O1370 2.558 . S
Eu1331 O1371 2.612 . S
Eu1331 O1373 2.339 . S
Eu1331 O1374 2.563 . S
Eu1331 O1375 2.419 . S
Eu1331 C1395 2.848 . S
N1332 C1324 1.362 . S
N1332 Eu1331 2.657 . S
N1332 C1333 1.334 . S
C1333 N1332 1.334 . S
C1333 C1335 1.413 . S
C1333 H1340 0.929 . S
C1334 C1322 1.392 . S
C1334 C1335 1.367 . S
C1334 H1342 0.930 . S
C1335 C1333 1.413 . S
C1335 C1334 1.367 . S
C1335 H1337 0.930 . S
H1336 C1329 0.930 . S
H1337 C1335 0.930 . S
H1338 C1326 0.930 . S
H1339 C1327 0.930 . S
H1340 C1333 0.929 . S
H1341 C1355 0.930 . S
H1342 C1334 0.930 . S
H1343 C1361 0.930 . S
H1344 C1352 0.929 . S
H1345 C1359 0.930 . S
H1346 C1323 0.931 . S
H1347 C1353 0.930 . S
H1348 C1386 0.930 . S
H1349 C1330 0.930 . S
H1350 C1385 0.931 . S
N1351 Eu1320 2.657 . S
N1351 C1352 1.334 . S
N1351 C1356 1.362 . S
C1352 H1344 0.929 . S
C1352 N1351 1.334 . S
C1352 C1355 1.413 . S
C1353 H1347 0.930 . S
C1353 C1354 1.392 . S
C1353 C1355 1.367 . S
C1354 C1353 1.392 . S
C1354 C1356 1.420 . S
C1354 C1386 1.423 . S
C1355 H1341 0.930 . S
C1355 C1352 1.413 . S
C1355 C1353 1.367 . S
C1356 N1351 1.362 . S
C1356 C1354 1.420 . S
C1356 C1360 1.429 . S
H1357 C1362 0.930 . S
N1358 Eu1320 2.609 . S
N1358 C1360 1.377 . S
N1358 C1361 1.321 . S
C1359 H1345 0.930 . S
C1359 C1361 1.400 . S
C1359 C1362 1.386 . S
C1360 C1356 1.429 . S
C1360 N1358 1.377 . S
C1360 C1363 1.411 . S
C1361 H1343 0.930 . S
C1361 N1358 1.321 . S
C1361 C1359 1.400 . S
C1362 H1357 0.930 . S
C1362 C1359 1.386 . S
C1362 C1363 1.395 . S
C1363 C1360 1.411 . S
C1363 C1362 1.395 . S
C1363 C1385 1.420 . S
O1364 Eu1320 2.558 . S
O1364 C1384 1.257 . S
O1365 Eu1320 2.612 . S
O1365 Eu1331 2.380 . S
O1365 C1376 1.276 . S
O1366 Eu1331 2.432 . S
O1366 C1383 1.264 . S
O1367 Eu1320 2.339 . S
O1367 C1383 1.254 . S
O1368 Eu1320 2.563 . S
O1368 C1376 1.235 . S
O1369 Eu1320 2.419 . S
O1369 C1384 1.249 . S
O1370 Eu1331 2.558 . S
O1370 C1395 1.257 . S
O1371 Eu1320 2.380 . S
O1371 Eu1331 2.612 . S
O1371 C1387 1.276 . S
O1372 Eu1320 2.432 . S
O1372 C1394 1.264 . S
O1373 Eu1331 2.339 . S
O1373 C1394 1.254 . S
O1374 Eu1331 2.563 . S
O1374 C1387 1.235 . S
O1375 Eu1331 2.419 . S
O1375 C1395 1.249 . S
C1376 O1365 1.276 . S
C1376 O1368 1.235 . S
C1377 C1379 1.393 . S
C1377 C1381 1.395 . S
C1377 C1384 1.492 . S
C1378 C1379 1.392 . S
C1378 C1380 1.386 . S
C1379 C1377 1.393 . S
C1379 C1378 1.392 . S
C1379 H1396 0.930 . S
C1380 C1378 1.386 . S
C1380 C1382 1.395 . S
C1380 H1397 0.930 . S
C1381 C1377 1.395 . S
C1381 C1382 1.379 . S
C1381 H1398 0.930 . S
C1382 C1380 1.395 . S
C1382 C1381 1.379 . S
C1382 H1399 0.930 . S
C1383 O1366 1.264 . S
C1383 O1367 1.254 . S
C1384 Eu1320 2.848 . S
C1384 O1364 1.257 . S
C1384 O1369 1.249 . S
C1384 C1377 1.492 . S
C1385 H1350 0.931 . S
C1385 C1363 1.420 . S
C1385 C1386 1.351 . S
C1386 H1348 0.930 . S
C1386 C1354 1.423 . S
C1386 C1385 1.351 . S
C1387 O1371 1.276 . S
C1387 O1374 1.235 . S
C1388 C1389 1.393 . S
C1388 C1392 1.395 . S
C1388 C1395 1.492 . S
C1389 C1388 1.393 . S
C1389 C1390 1.392 . S
C1389 H1400 0.930 . S
C1390 C1389 1.392 . S
C1390 C1391 1.386 . S
C1391 C1390 1.386 . S
C1391 C1393 1.395 . S
C1391 H1401 0.930 . S
C1392 C1388 1.395 . S
C1392 C1393 1.379 . S
C1392 H1402 0.930 . S
C1393 C1391 1.395 . S
C1393 C1392 1.379 . S
C1393 H1403 0.930 . S
C1394 O1372 1.264 . S
C1394 O1373 1.254 . S
C1395 Eu1331 2.848 . S
C1395 O1370 1.257 . S
C1395 O1375 1.249 . S
C1395 C1388 1.492 . S
H1396 C1379 0.930 . S
H1397 C1380 0.930 . S
H1398 C1381 0.930 . S
H1399 C1382 0.930 . S
H1400 C1389 0.930 . S
H1401 C1391 0.930 . S
H1402 C1392 0.930 . S
H1403 C1393 0.930 . S
H1404 C1410 0.930 . S
H1405 C1414 0.930 . S
H1406 C1419 0.929 . S
H1407 C1417 0.929 . S
H1408 C1412 0.929 . S
H1409 C1418 0.929 . S
C1410 H1404 0.930 . S
C1410 C1411 1.367 . S
C1410 C1418 1.378 . S
C1411 C1410 1.367 . S
C1411 C1419 1.433 . S
C1412 H1408 0.929 . S
C1412 C1414 1.378 . S
C1412 C1416 1.350 . S
C1413 C1416 1.463 . S
C1413 C1418 1.350 . S
C1413 N1421 1.427 . S
C1414 H1405 0.930 . S
C1414 C1412 1.378 . S
C1414 C1415 1.367 . S
C1415 C1414 1.367 . S
C1415 C1417 1.433 . S
C1416 C1412 1.350 . S
C1416 C1413 1.463 . S
C1416 N1420 1.427 . S
C1417 H1407 0.929 . S
C1417 C1415 1.433 . S
C1417 N1420 1.384 . S
C1418 H1409 0.929 . S
C1418 C1410 1.378 . S
C1418 C1413 1.350 . S
C1419 H1406 0.929 . S
C1419 C1411 1.433 . S
C1419 N1421 1.384 . S
N1420 C1416 1.427 . S
N1420 C1417 1.384 . S
N1421 C1413 1.427 . S
N1421 C1419 1.384 . S
H1422 C1428 0.930 . S
H1423 C1432 0.930 . S
H1424 C1437 0.929 . S
H1425 C1435 0.929 . S
H1426 C1430 0.929 . S
H1427 C1436 0.929 . S
C1428 H1422 0.930 . S
C1428 C1429 1.367 . S
C1428 C1436 1.378 . S
C1429 C1428 1.367 . S
C1429 C1437 1.433 . S
C1430 H1426 0.929 . S
C1430 C1432 1.378 . S
C1430 C1434 1.350 . S
C1431 C1434 1.463 . S
C1431 C1436 1.350 . S
C1431 N1439 1.427 . S
C1432 H1423 0.930 . S
C1432 C1430 1.378 . S
C1432 C1433 1.367 . S
C1433 C1432 1.367 . S
C1433 C1435 1.433 . S
C1434 C1430 1.350 . S
C1434 C1431 1.463 . S
C1434 N1438 1.427 . S
C1435 H1425 0.929 . S
C1435 C1433 1.433 . S
C1435 N1438 1.384 . S
C1436 H1427 0.929 . S
C1436 C1428 1.378 . S
C1436 C1431 1.350 . S
C1437 H1424 0.929 . S
C1437 C1429 1.433 . S
C1437 N1439 1.384 . S
N1438 C1434 1.427 . S
N1438 C1435 1.384 . S
N1439 C1431 1.427 . S
N1439 C1437 1.384 . S
H1440 C1446 0.930 . S
H1441 C1450 0.930 . S
H1442 C1455 0.929 . S
H1443 C1453 0.929 . S
H1444 C1448 0.929 . S
H1445 C1454 0.929 . S
C1446 H1440 0.930 . S
C1446 C1447 1.367 . S
C1446 C1454 1.378 . S
C1447 C1446 1.367 . S
C1447 C1455 1.433 . S
C1448 H1444 0.929 . S
C1448 C1450 1.378 . S
C1448 C1452 1.350 . S
C1449 C1452 1.463 . S
C1449 C1454 1.350 . S
C1449 N1457 1.427 . S
C1450 H1441 0.930 . S
C1450 C1448 1.378 . S
C1450 C1451 1.367 . S
C1451 C1450 1.367 . S
C1451 C1453 1.433 . S
C1452 C1448 1.350 . S
C1452 C1449 1.463 . S
C1452 N1456 1.427 . S
C1453 H1443 0.929 . S
C1453 C1451 1.433 . S
C1453 N1456 1.384 . S
C1454 H1445 0.929 . S
C1454 C1446 1.378 . S
C1454 C1449 1.350 . S
C1455 H1442 0.929 . S
C1455 C1447 1.433 . S
C1455 N1457 1.384 . S
N1456 C1452 1.427 . S
N1456 C1453 1.384 . S
N1457 C1449 1.427 . S
N1457 C1455 1.384 . S
H1458 C1464 0.930 . S
H1459 C1468 0.930 . S
H1460 C1473 0.929 . S
H1461 C1471 0.929 1_554 S
H1462 C1466 0.929 . S
H1463 C1472 0.929 . S
C1464 H1458 0.930 . S
C1464 C1465 1.367 . S
C1464 C1472 1.378 . S
C1465 C1464 1.367 . S
C1465 C1473 1.433 . S
C1466 H1462 0.929 . S
C1466 C1468 1.378 . S
C1466 C1470 1.350 . S
C1467 C1470 1.463 . S
C1467 C1472 1.350 . S
C1467 N1475 1.427 . S
C1468 H1459 0.930 . S
C1468 C1466 1.378 . S
C1468 C1469 1.367 . S
C1469 C1468 1.367 . S
C1469 C1471 1.433 . S
C1470 C1466 1.350 . S
C1470 C1467 1.463 . S
C1470 N1474 1.427 . S
C1471 H1461 0.929 1_556 S
C1471 C1469 1.433 . S
C1471 N1474 1.384 . S
C1472 H1463 0.929 . S
C1472 C1464 1.378 . S
C1472 C1467 1.350 . S
C1473 H1460 0.929 . S
C1473 C1465 1.433 . S
C1473 N1475 1.384 . S
N1474 C1470 1.427 . S
N1474 C1471 1.384 . S
N1475 C1467 1.427 . S
N1475 C1473 1.384 . S
H1476 C1482 0.930 . S
H1477 C1486 0.930 . S
H1478 C1491 0.929 . S
H1479 C1489 0.929 1_554 S
H1480 C1484 0.929 . S
H1481 C1490 0.929 . S
C1482 H1476 0.930 . S
C1482 C1483 1.367 . S
C1482 C1490 1.378 . S
C1483 C1482 1.367 . S
C1483 C1491 1.433 . S
C1484 H1480 0.929 . S
C1484 C1486 1.378 . S
C1484 C1488 1.350 . S
C1485 C1488 1.463 . S
C1485 C1490 1.350 . S
C1485 N1493 1.427 . S
C1486 H1477 0.930 . S
C1486 C1484 1.378 . S
C1486 C1487 1.367 . S
C1487 C1486 1.367 . S
C1487 C1489 1.433 . S
C1488 C1484 1.350 . S
C1488 C1485 1.463 . S
C1488 N1492 1.427 . S
C1489 H1479 0.929 1_556 S
C1489 C1487 1.433 . S
C1489 N1492 1.384 . S
C1490 H1481 0.929 . S
C1490 C1482 1.378 . S
C1490 C1485 1.350 . S
C1491 H1478 0.929 . S
C1491 C1483 1.433 . S
C1491 N1493 1.384 . S
N1492 C1488 1.427 . S
N1492 C1489 1.384 . S
N1493 C1485 1.427 . S
N1493 C1491 1.384 . S
H1494 C1500 0.930 . S
H1495 C1504 0.930 1_554 S
H1496 C1509 0.929 . S
H1497 C1507 0.929 . S
H1498 C1502 0.929 . S
H1499 C1508 0.929 . S
C1500 H1494 0.930 . S
C1500 C1501 1.367 . S
C1500 C1508 1.378 . S
C1501 C1500 1.367 . S
C1501 C1509 1.433 . S
C1502 H1498 0.929 . S
C1502 C1504 1.378 . S
C1502 C1506 1.350 . S
C1503 C1506 1.463 . S
C1503 C1508 1.350 . S
C1503 N1511 1.427 . S
C1504 H1495 0.930 1_556 S
C1504 C1502 1.378 . S
C1504 C1505 1.367 . S
C1505 C1504 1.367 . S
C1505 C1507 1.433 . S
C1506 C1502 1.350 . S
C1506 C1503 1.463 . S
C1506 N1510 1.427 . S
C1507 H1497 0.929 . S
C1507 C1505 1.433 . S
C1507 N1510 1.384 . S
C1508 H1499 0.929 . S
C1508 C1500 1.378 . S
C1508 C1503 1.350 . S
C1509 H1496 0.929 . S
C1509 C1501 1.433 . S
C1509 N1511 1.384 . S
N1510 C1506 1.427 . S
N1510 C1507 1.384 . S
N1511 C1503 1.427 . S
N1511 C1509 1.384 . S
H1512 C1518 0.930 . S
H1513 C1522 0.930 . S
H1514 C1527 0.929 . S
H1515 C1525 0.929 . S
H1516 C1520 0.929 . S
H1517 C1526 0.929 . S
C1518 H1512 0.930 . S
C1518 C1519 1.367 . S
C1518 C1526 1.378 . S
C1519 C1518 1.367 . S
C1519 C1527 1.433 . S
C1520 H1516 0.929 . S
C1520 C1522 1.378 . S
C1520 C1524 1.350 . S
C1521 C1524 1.463 . S
C1521 C1526 1.350 . S
C1521 N1529 1.427 . S
C1522 H1513 0.930 . S
C1522 C1520 1.378 . S
C1522 C1523 1.367 . S
C1523 C1522 1.367 . S
C1523 C1525 1.433 . S
C1524 C1520 1.350 . S
C1524 C1521 1.463 . S
C1524 N1528 1.427 . S
C1525 H1515 0.929 . S
C1525 C1523 1.433 . S
C1525 N1528 1.384 . S
C1526 H1517 0.929 . S
C1526 C1518 1.378 . S
C1526 C1521 1.350 . S
C1527 H1514 0.929 . S
C1527 C1519 1.433 . S
C1527 N1529 1.384 . S
N1528 C1524 1.427 . S
N1528 C1525 1.384 . S
N1529 C1521 1.427 . S
N1529 C1527 1.384 . S
H1530 C1536 0.930 . S
H1531 C1540 0.930 . S
H1532 C1545 0.929 . S
H1533 C1543 0.929 . S
H1534 C1538 0.929 . S
H1535 C1544 0.929 . S
C1536 H1530 0.930 . S
C1536 C1537 1.367 . S
C1536 C1544 1.378 . S
C1537 C1536 1.367 . S
C1537 C1545 1.433 . S
C1538 H1534 0.929 . S
C1538 C1540 1.378 . S
C1538 C1542 1.350 . S
C1539 C1542 1.463 . S
C1539 C1544 1.350 . S
C1539 N1547 1.427 . S
C1540 H1531 0.930 . S
C1540 C1538 1.378 . S
C1540 C1541 1.367 . S
C1541 C1540 1.367 . S
C1541 C1543 1.433 . S
C1542 C1538 1.350 . S
C1542 C1539 1.463 . S
C1542 N1546 1.427 . S
C1543 H1533 0.929 . S
C1543 C1541 1.433 . S
C1543 N1546 1.384 . S
C1544 H1535 0.929 . S
C1544 C1536 1.378 . S
C1544 C1539 1.350 . S
C1545 H1532 0.929 . S
C1545 C1537 1.433 . S
C1545 N1547 1.384 . S
N1546 C1542 1.427 . S
N1546 C1543 1.384 . S
N1547 C1539 1.427 . S
N1547 C1545 1.384 . S
H1548 C1554 0.930 . S
H1549 C1558 0.930 . S
H1550 C1563 0.929 . S
H1551 C1561 0.879 1_554 S
H1552 C1556 0.929 . S
H1553 C1562 0.929 . S
C1554 H1548 0.930 . S
C1554 C1555 1.367 . S
C1554 C1562 1.378 . S
C1555 C1554 1.367 . S
C1555 C1563 1.433 . S
C1556 H1552 0.929 . S
C1556 C1558 1.378 . S
C1556 C1560 1.350 . S
C1557 C1560 1.463 . S
C1557 C1562 1.350 . S
C1557 N1565 1.427 . S
C1558 H1549 0.930 . S
C1558 C1556 1.378 . S
C1558 C1559 1.367 . S
C1559 C1558 1.367 . S
C1559 C1561 1.433 . S
C1560 C1556 1.350 . S
C1560 C1557 1.463 . S
C1560 N1564 1.427 . S
C1561 H1551 0.879 1_556 S
C1561 C1559 1.433 . S
C1561 N1564 1.384 . S
C1562 H1553 0.929 . S
C1562 C1554 1.378 . S
C1562 C1557 1.350 . S
C1563 H1550 0.929 . S
C1563 C1555 1.433 . S
C1563 N1565 1.384 . S
N1564 C1560 1.427 . S
N1564 C1561 1.384 . S
N1565 C1557 1.427 . S
N1565 C1563 1.384 . S
H1566 C1572 0.930 . S
H1567 C1576 0.930 . S
H1568 C1581 0.929 . S
H1569 C1579 0.906 1_556 S
H1570 C1574 0.929 . S
H1571 C1580 0.929 . S
C1572 H1566 0.930 . S
C1572 C1573 1.367 . S
C1572 C1580 1.378 . S
C1573 C1572 1.367 . S
C1573 C1581 1.433 . S
C1574 H1570 0.929 . S
C1574 C1576 1.378 . S
C1574 C1578 1.350 . S
C1575 C1578 1.463 . S
C1575 C1580 1.350 . S
C1575 N1583 1.427 . S
C1576 H1567 0.930 . S
C1576 C1574 1.378 . S
C1576 C1577 1.367 . S
C1577 C1576 1.367 . S
C1577 C1579 1.433 . S
C1578 C1574 1.350 . S
C1578 C1575 1.463 . S
C1578 N1582 1.427 . S
C1579 H1569 0.906 1_554 S
C1579 C1577 1.433 . S
C1579 N1582 1.384 . S
C1580 H1571 0.929 . S
C1580 C1572 1.378 . S
C1580 C1575 1.350 . S
C1581 H1568 0.929 . S
C1581 C1573 1.433 . S
C1581 N1583 1.384 . S
N1582 C1578 1.427 . S
N1582 C1579 1.384 . S
N1583 C1575 1.427 . S
N1583 C1581 1.384 . S
H1584 C1590 0.930 . S
H1585 C1594 0.862 1_556 S
H1586 C1599 0.929 . S
H1587 C1597 0.929 . S
H1588 C1592 0.929 . S
H1589 C1598 0.929 . S
C1590 H1584 0.930 . S
C1590 C1591 1.367 . S
C1590 C1598 1.378 . S
C1591 C1590 1.367 . S
C1591 C1599 1.433 . S
C1592 H1588 0.929 . S
C1592 C1594 1.378 . S
C1592 C1596 1.350 . S
C1593 C1596 1.463 . S
C1593 C1598 1.350 . S
C1593 N1601 1.427 . S
C1594 H1585 0.862 1_554 S
C1594 C1592 1.378 . S
C1594 C1595 1.367 . S
C1595 C1594 1.367 . S
C1595 C1597 1.433 . S
C1596 C1592 1.350 . S
C1596 C1593 1.463 . S
C1596 N1600 1.427 . S
C1597 H1587 0.929 . S
C1597 C1595 1.433 . S
C1597 N1600 1.384 . S
C1598 H1589 0.929 . S
C1598 C1590 1.378 . S
C1598 C1593 1.350 . S
C1599 H1586 0.929 . S
C1599 C1591 1.433 . S
C1599 N1601 1.384 . S
N1600 C1596 1.427 . S
N1600 C1597 1.384 . S
N1601 C1593 1.427 . S
N1601 C1599 1.384 . S
H1602 C1608 0.930 . S
H1603 C1612 0.930 . S
H1604 C1617 0.929 . S
H1605 C1615 0.929 . S
H1606 C1610 0.929 . S
H1607 C1616 0.929 . S
C1608 H1602 0.930 . S
C1608 C1609 1.367 . S
C1608 C1616 1.378 . S
C1609 C1608 1.367 . S
C1609 C1617 1.433 . S
C1610 H1606 0.929 . S
C1610 C1612 1.378 . S
C1610 C1614 1.350 . S
C1611 C1614 1.463 . S
C1611 C1616 1.350 . S
C1611 N1619 1.427 . S
C1612 H1603 0.930 . S
C1612 C1610 1.378 . S
C1612 C1613 1.367 . S
C1613 C1612 1.367 . S
C1613 C1615 1.433 . S
C1614 C1610 1.350 . S
C1614 C1611 1.463 . S
C1614 N1618 1.427 . S
C1615 H1605 0.929 . S
C1615 C1613 1.433 . S
C1615 N1618 1.384 . S
C1616 H1607 0.929 . S
C1616 C1608 1.378 . S
C1616 C1611 1.350 . S
C1617 H1604 0.929 . S
C1617 C1609 1.433 . S
C1617 N1619 1.384 . S
N1618 C1614 1.427 . S
N1618 C1615 1.384 . S
N1619 C1611 1.427 . S
N1619 C1617 1.384 . S
H1620 C1626 0.930 . S
H1621 C1630 0.930 . S
H1622 C1635 0.929 . S
H1623 C1633 0.929 . S
H1624 C1628 0.929 . S
H1625 C1634 0.929 . S
C1626 H1620 0.930 . S
C1626 C1627 1.367 . S
C1626 C1634 1.378 1_655 S
C1627 C1626 1.367 . S
C1627 C1635 1.433 1_655 S
C1628 H1624 0.929 . S
C1628 C1630 1.378 . S
C1628 C1632 1.350 . S
C1629 C1632 1.463 . S
C1629 C1634 1.350 . S
C1629 N1637 1.427 . S
C1630 H1621 0.930 . S
C1630 C1628 1.378 . S
C1630 C1631 1.367 . S
C1631 C1630 1.367 . S
C1631 C1633 1.433 . S
C1632 C1628 1.350 . S
C1632 C1629 1.463 . S
C1632 N1636 1.427 . S
C1633 H1623 0.929 . S
C1633 C1631 1.433 . S
C1633 N1636 1.384 . S
C1634 H1625 0.929 . S
C1634 C1626 1.378 1_455 S
C1634 C1629 1.350 . S
C1635 H1622 0.929 . S
C1635 C1627 1.433 1_455 S
C1635 N1637 1.384 . S
N1636 C1632 1.427 . S
N1636 C1633 1.384 . S
N1637 C1629 1.427 . S
N1637 C1635 1.384 . S
H1638 C1644 0.930 . S
H1639 C1648 0.930 . S
H1640 C1653 0.929 . S
H1641 C1651 0.929 . S
H1642 C1646 0.929 . S
H1643 C1652 0.929 . S
C1644 H1638 0.930 . S
C1644 C1645 1.367 . S
C1644 C1652 1.378 . S
C1645 C1644 1.367 . S
C1645 C1653 1.433 . S
C1646 H1642 0.929 . S
C1646 C1648 1.378 . S
C1646 C1650 1.350 . S
C1647 C1650 1.463 . S
C1647 C1652 1.350 . S
C1647 N1655 1.427 . S
C1648 H1639 0.930 . S
C1648 C1646 1.378 . S
C1648 C1649 1.367 . S
C1649 C1648 1.367 . S
C1649 C1651 1.433 . S
C1650 C1646 1.350 . S
C1650 C1647 1.463 . S
C1650 N1654 1.427 . S
C1651 H1641 0.929 . S
C1651 C1649 1.433 . S
C1651 N1654 1.384 . S
C1652 H1643 0.929 . S
C1652 C1644 1.378 . S
C1652 C1647 1.350 . S
C1653 H1640 0.929 . S
C1653 C1645 1.433 . S
C1653 N1655 1.384 . S
N1654 C1650 1.427 . S
N1654 C1651 1.384 . S
N1655 C1647 1.427 . S
N1655 C1653 1.384 . S
H1656 C1662 0.930 . S
H1657 C1666 0.930 . S
H1658 C1671 0.929 1_545 S
H1659 C1669 0.929 . S
H1660 C1664 0.929 . S
H1661 C1670 0.929 . S
C1662 H1656 0.930 . S
C1662 C1663 1.367 . S
C1662 C1670 1.378 1_545 S
C1663 C1662 1.367 . S
C1663 C1671 1.434 1_545 S
C1664 H1660 0.929 . S
C1664 C1666 1.378 . S
C1664 C1668 1.350 . S
C1665 C1668 1.463 . S
C1665 C1670 1.350 . S
C1665 N1673 1.427 . S
C1666 H1657 0.930 . S
C1666 C1664 1.378 . S
C1666 C1667 1.367 . S
C1667 C1666 1.367 . S
C1667 C1669 1.433 . S
C1668 C1664 1.350 . S
C1668 C1665 1.463 . S
C1668 N1672 1.427 . S
C1669 H1659 0.929 . S
C1669 C1667 1.433 . S
C1669 N1672 1.384 . S
C1670 H1661 0.929 . S
C1670 C1662 1.378 1_565 S
C1670 C1665 1.350 . S
C1671 H1658 0.929 1_565 S
C1671 C1663 1.434 1_565 S
C1671 N1673 1.383 . S
N1672 C1668 1.427 . S
N1672 C1669 1.384 . S
N1673 C1665 1.427 . S
N1673 C1671 1.383 . S
H1674 C1680 0.930 . S
H1675 C1684 0.930 . S
H1676 C1689 0.929 . S
H1677 C1687 0.929 . S
H1678 C1682 0.929 . S
H1679 C1688 0.929 . S
C1680 H1674 0.930 . S
C1680 C1681 1.367 . S
C1680 C1688 1.378 . S
C1681 C1680 1.367 . S
C1681 C1689 1.433 . S
C1682 H1678 0.929 . S
C1682 C1684 1.378 . S
C1682 C1686 1.350 . S
C1683 C1686 1.463 . S
C1683 C1688 1.350 . S
C1683 N1691 1.427 . S
C1684 H1675 0.930 . S
C1684 C1682 1.378 . S
C1684 C1685 1.367 . S
C1685 C1684 1.367 . S
C1685 C1687 1.433 . S
C1686 C1682 1.350 . S
C1686 C1683 1.463 . S
C1686 N1690 1.427 . S
C1687 H1677 0.929 . S
C1687 C1685 1.433 . S
C1687 N1690 1.384 . S
C1688 H1679 0.929 . S
C1688 C1680 1.378 . S
C1688 C1683 1.350 . S
C1689 H1676 0.929 . S
C1689 C1681 1.433 . S
C1689 N1691 1.384 . S
N1690 C1686 1.427 . S
N1690 C1687 1.384 . S
N1691 C1683 1.427 . S
N1691 C1689 1.384 . S
H1692 C1698 0.930 . S
H1693 C1702 0.930 . S
H1694 C1707 0.929 . S
H1695 C1705 0.929 . S
H1696 C1700 0.929 . S
H1697 C1706 0.929 . S
C1698 H1692 0.930 . S
C1698 C1699 1.367 . S
C1698 C1706 1.378 . S
C1699 C1698 1.367 . S
C1699 C1707 1.433 . S
C1700 H1696 0.929 . S
C1700 C1702 1.378 . S
C1700 C1704 1.350 . S
C1701 C1704 1.463 . S
C1701 C1706 1.350 . S
C1701 N1709 1.427 . S
C1702 H1693 0.930 . S
C1702 C1700 1.378 . S
C1702 C1703 1.367 . S
C1703 C1702 1.367 . S
C1703 C1705 1.433 . S
C1704 C1700 1.350 . S
C1704 C1701 1.463 . S
C1704 N1708 1.427 . S
C1705 H1695 0.929 . S
C1705 C1703 1.433 . S
C1705 N1708 1.384 . S
C1706 H1697 0.929 . S
C1706 C1698 1.378 . S
C1706 C1701 1.350 . S
C1707 H1694 0.929 . S
C1707 C1699 1.433 . S
C1707 N1709 1.384 . S
N1708 C1704 1.427 . S
N1708 C1705 1.384 . S
N1709 C1701 1.427 . S
N1709 C1707 1.384 . S
H1710 C1716 0.930 . S
H1711 C1720 0.930 . S
H1712 C1725 0.929 . S
H1713 C1723 0.929 . S
H1714 C1718 0.929 . S
H1715 C1724 0.929 . S
C1716 H1710 0.930 . S
C1716 C1717 1.367 . S
C1716 C1724 1.378 . S
C1717 C1716 1.367 . S
C1717 C1725 1.433 . S
C1718 H1714 0.929 . S
C1718 C1720 1.378 . S
C1718 C1722 1.350 . S
C1719 C1722 1.463 . S
C1719 C1724 1.350 . S
C1719 N1727 1.427 . S
C1720 H1711 0.930 . S
C1720 C1718 1.378 . S
C1720 C1721 1.367 . S
C1721 C1720 1.367 . S
C1721 C1723 1.433 . S
C1722 C1718 1.350 . S
C1722 C1719 1.463 . S
C1722 N1726 1.427 . S
C1723 H1713 0.929 . S
C1723 C1721 1.433 . S
C1723 N1726 1.384 . S
C1724 H1715 0.929 . S
C1724 C1716 1.378 . S
C1724 C1719 1.350 . S
C1725 H1712 0.929 . S
C1725 C1717 1.433 . S
C1725 N1727 1.384 . S
N1726 C1722 1.427 . S
N1726 C1723 1.384 . S
N1727 C1719 1.427 . S
N1727 C1725 1.384 . S
H1728 C1734 0.930 . S
H1729 C1738 0.930 . S
H1730 C1743 0.929 . S
H1731 C1741 0.929 . S
H1732 C1736 0.929 . S
H1733 C1742 0.929 . S
C1734 H1728 0.930 . S
C1734 C1735 1.367 . S
C1734 C1742 1.378 . S
C1735 C1734 1.367 . S
C1735 C1743 1.433 . S
C1736 H1732 0.929 . S
C1736 C1738 1.378 . S
C1736 C1740 1.350 . S
C1737 C1740 1.463 . S
C1737 C1742 1.350 . S
C1737 N1745 1.427 . S
C1738 H1729 0.930 . S
C1738 C1736 1.378 . S
C1738 C1739 1.367 . S
C1739 C1738 1.367 . S
C1739 C1741 1.433 . S
C1740 C1736 1.350 . S
C1740 C1737 1.463 . S
C1740 N1744 1.427 . S
C1741 H1731 0.929 . S
C1741 C1739 1.433 . S
C1741 N1744 1.384 . S
C1742 H1733 0.929 . S
C1742 C1734 1.378 . S
C1742 C1737 1.350 . S
C1743 H1730 0.929 . S
C1743 C1735 1.433 . S
C1743 N1745 1.384 . S
N1744 C1740 1.427 . S
N1744 C1741 1.384 . S
N1745 C1737 1.427 . S
N1745 C1743 1.384 . S
H1746 C1752 0.930 . S
H1747 C1756 0.930 . S
H1748 C1761 0.929 . S
H1749 C1759 0.929 . S
H1750 C1754 0.929 . S
H1751 C1760 0.929 . S
C1752 H1746 0.930 . S
C1752 C1753 1.367 . S
C1752 C1760 1.378 . S
C1753 C1752 1.367 . S
C1753 C1761 1.433 . S
C1754 H1750 0.929 . S
C1754 C1756 1.378 . S
C1754 C1758 1.350 . S
C1755 C1758 1.463 . S
C1755 C1760 1.350 . S
C1755 N1763 1.427 . S
C1756 H1747 0.930 . S
C1756 C1754 1.378 . S
C1756 C1757 1.367 . S
C1757 C1756 1.367 . S
C1757 C1759 1.433 . S
C1758 C1754 1.350 . S
C1758 C1755 1.463 . S
C1758 N1762 1.427 . S
C1759 H1749 0.929 . S
C1759 C1757 1.433 . S
C1759 N1762 1.384 . S
C1760 H1751 0.929 . S
C1760 C1752 1.378 . S
C1760 C1755 1.350 . S
C1761 H1748 0.929 . S
C1761 C1753 1.433 . S
C1761 N1763 1.384 . S
N1762 C1758 1.427 . S
N1762 C1759 1.384 . S
N1763 C1755 1.427 . S
N1763 C1761 1.384 . S
H1764 C1770 0.930 . S
H1765 C1774 0.930 . S
H1766 C1779 0.929 . S
H1767 C1777 0.929 . S
H1768 C1772 0.929 . S
H1769 C1778 0.929 . S
C1770 H1764 0.930 . S
C1770 C1771 1.367 . S
C1770 C1778 1.378 . S
C1771 C1770 1.367 . S
C1771 C1779 1.433 . S
C1772 H1768 0.929 . S
C1772 C1774 1.378 . S
C1772 C1776 1.350 . S
C1773 C1776 1.463 . S
C1773 C1778 1.350 . S
C1773 N1781 1.427 . S
C1774 H1765 0.930 . S
C1774 C1772 1.378 . S
C1774 C1775 1.367 . S
C1775 C1774 1.367 . S
C1775 C1777 1.433 . S
C1776 C1772 1.350 . S
C1776 C1773 1.463 . S
C1776 N1780 1.427 . S
C1777 H1767 0.929 . S
C1777 C1775 1.433 . S
C1777 N1780 1.384 . S
C1778 H1769 0.929 . S
C1778 C1770 1.378 . S
C1778 C1773 1.350 . S
C1779 H1766 0.929 . S
C1779 C1771 1.433 . S
C1779 N1781 1.384 . S
N1780 C1776 1.427 . S
N1780 C1777 1.384 . S
N1781 C1773 1.427 . S
N1781 C1779 1.384 . S
H1782 C1788 0.919 1_545 S
H1783 C1792 0.930 . S
H1784 C1797 0.929 . S
H1785 C1795 0.929 . S
H1786 C1790 0.929 . S
H1787 C1796 0.929 . S
C1788 H1782 0.919 1_565 S
C1788 C1789 1.361 1_565 S
C1788 C1796 1.396 . S
C1789 C1788 1.361 1_545 S
C1789 C1797 1.433 . S
C1790 H1786 0.929 . S
C1790 C1792 1.378 . S
C1790 C1794 1.350 . S
C1791 C1794 1.463 . S
C1791 C1796 1.350 . S
C1791 N1799 1.427 . S
C1792 H1783 0.930 . S
C1792 C1790 1.378 . S
C1792 C1793 1.367 . S
C1793 C1792 1.367 . S
C1793 C1795 1.433 . S
C1794 C1790 1.350 . S
C1794 C1791 1.463 . S
C1794 N1798 1.427 . S
C1795 H1785 0.929 . S
C1795 C1793 1.433 . S
C1795 N1798 1.384 . S
C1796 H1787 0.929 . S
C1796 C1788 1.396 . S
C1796 C1791 1.350 . S
C1797 H1784 0.929 . S
C1797 C1789 1.433 . S
C1797 N1799 1.384 1_545 S
N1798 C1794 1.427 . S
N1798 C1795 1.384 . S
N1799 C1791 1.427 . S
N1799 C1797 1.384 1_565 S
H1800 C1806 0.930 . S
H1801 C1810 0.930 . S
H1802 C1815 0.929 . S
H1803 C1813 0.929 . S
H1804 C1808 0.929 . S
H1805 C1814 0.929 . S
C1806 H1800 0.930 . S
C1806 C1807 1.367 . S
C1806 C1814 1.378 1_655 S
C1807 C1806 1.367 . S
C1807 C1815 1.433 1_655 S
C1808 H1804 0.929 . S
C1808 C1810 1.378 . S
C1808 C1812 1.350 . S
C1809 C1812 1.463 . S
C1809 C1814 1.350 . S
C1809 N1817 1.427 . S
C1810 H1801 0.930 . S
C1810 C1808 1.378 . S
C1810 C1811 1.367 . S
C1811 C1810 1.367 . S
C1811 C1813 1.433 . S
C1812 C1808 1.350 . S
C1812 C1809 1.463 . S
C1812 N1816 1.427 . S
C1813 H1803 0.929 . S
C1813 C1811 1.433 . S
C1813 N1816 1.384 . S
C1814 H1805 0.929 . S
C1814 C1806 1.378 1_455 S
C1814 C1809 1.350 . S
C1815 H1802 0.929 . S
C1815 C1807 1.433 1_455 S
C1815 N1817 1.384 . S
N1816 C1812 1.427 . S
N1816 C1813 1.384 . S
N1817 C1809 1.427 . S
N1817 C1815 1.384 . S
H1818 C1824 0.930 . S
H1819 C1828 0.930 . S
H1820 C1833 0.929 . S
H1821 C1831 0.929 . S
H1822 C1826 0.929 . S
H1823 C1832 0.929 . S
C1824 H1818 0.930 . S
C1824 C1825 1.367 . S
C1824 C1832 1.378 . S
C1825 C1824 1.367 . S
C1825 C1833 1.433 . S
C1826 H1822 0.929 . S
C1826 C1828 1.378 . S
C1826 C1830 1.350 . S
C1827 C1830 1.463 . S
C1827 C1832 1.350 . S
C1827 N1835 1.427 . S
C1828 H1819 0.930 . S
C1828 C1826 1.378 . S
C1828 C1829 1.367 . S
C1829 C1828 1.367 . S
C1829 C1831 1.433 . S
C1830 C1826 1.350 . S
C1830 C1827 1.463 . S
C1830 N1834 1.427 . S
C1831 H1821 0.929 . S
C1831 C1829 1.433 . S
C1831 N1834 1.384 . S
C1832 H1823 0.929 . S
C1832 C1824 1.378 . S
C1832 C1827 1.350 . S
C1833 H1820 0.929 . S
C1833 C1825 1.433 . S
C1833 N1835 1.384 . S
N1834 C1830 1.427 . S
N1834 C1831 1.384 . S
N1835 C1827 1.427 . S
N1835 C1833 1.384 . S
H1836 C1842 0.930 . S
H1837 C1846 0.930 . S
H1838 C1851 0.929 . S
H1839 C1849 0.929 . S
H1840 C1844 0.929 . S
H1841 C1850 0.929 . S
C1842 H1836 0.930 . S
C1842 C1843 1.367 . S
C1842 C1850 1.378 . S
C1843 C1842 1.367 . S
C1843 C1851 1.433 . S
C1844 H1840 0.929 . S
C1844 C1846 1.378 . S
C1844 C1848 1.350 . S
C1845 C1848 1.463 . S
C1845 C1850 1.350 . S
C1845 N1853 1.427 . S
C1846 H1837 0.930 . S
C1846 C1844 1.378 . S
C1846 C1847 1.367 . S
C1847 C1846 1.367 . S
C1847 C1849 1.433 . S
C1848 C1844 1.350 . S
C1848 C1845 1.463 . S
C1848 N1852 1.427 . S
C1849 H1839 0.929 . S
C1849 C1847 1.433 . S
C1849 N1852 1.384 . S
C1850 H1841 0.929 . S
C1850 C1842 1.378 . S
C1850 C1845 1.350 . S
C1851 H1838 0.929 . S
C1851 C1843 1.433 . S
C1851 N1853 1.384 . S
N1852 C1848 1.427 . S
N1852 C1849 1.384 . S
N1853 C1845 1.427 . S
N1853 C1851 1.384 . S
H1854 C1860 0.930 . S
H1855 C1864 0.930 . S
H1856 C1869 0.929 . S
H1857 C1867 0.929 . S
H1858 C1862 0.929 . S
H1859 C1868 0.929 . S
C1860 H1854 0.930 . S
C1860 C1861 1.367 . S
C1860 C1868 1.378 . S
C1861 C1860 1.367 . S
C1861 C1869 1.433 . S
C1862 H1858 0.929 . S
C1862 C1864 1.378 . S
C1862 C1866 1.350 . S
C1863 C1866 1.463 . S
C1863 C1868 1.350 . S
C1863 N1871 1.427 . S
C1864 H1855 0.930 . S
C1864 C1862 1.378 . S
C1864 C1865 1.367 . S
C1865 C1864 1.367 . S
C1865 C1867 1.433 . S
C1866 C1862 1.350 . S
C1866 C1863 1.463 . S
C1866 N1870 1.427 . S
C1867 H1857 0.929 . S
C1867 C1865 1.433 . S
C1867 N1870 1.384 . S
C1868 H1859 0.929 . S
C1868 C1860 1.378 . S
C1868 C1863 1.350 . S
C1869 H1856 0.929 . S
C1869 C1861 1.433 . S
C1869 N1871 1.384 . S
N1870 C1866 1.427 . S
N1870 C1867 1.384 . S
N1871 C1863 1.427 . S
N1871 C1869 1.384 . S
H1872 C1878 0.930 . S
H1873 C1882 0.930 . S
H1874 C1887 0.929 . S
H1875 C1885 0.929 . S
H1876 C1880 0.929 . S
H1877 C1886 0.929 . S
C1878 H1872 0.930 . S
C1878 C1879 1.367 . S
C1878 C1886 1.378 . S
C1879 C1878 1.367 . S
C1879 C1887 1.433 . S
C1880 H1876 0.929 . S
C1880 C1882 1.378 . S
C1880 C1884 1.350 . S
C1881 C1884 1.463 . S
C1881 C1886 1.350 . S
C1881 N1889 1.427 . S
C1882 H1873 0.930 . S
C1882 C1880 1.378 . S
C1882 C1883 1.367 . S
C1883 C1882 1.367 . S
C1883 C1885 1.433 . S
C1884 C1880 1.350 . S
C1884 C1881 1.463 . S
C1884 N1888 1.427 . S
C1885 H1875 0.929 . S
C1885 C1883 1.433 . S
C1885 N1888 1.384 . S
C1886 H1877 0.929 . S
C1886 C1878 1.378 . S
C1886 C1881 1.350 . S
C1887 H1874 0.929 . S
C1887 C1879 1.433 . S
C1887 N1889 1.384 . S
N1888 C1884 1.427 . S
N1888 C1885 1.384 . S
N1889 C1881 1.427 . S
N1889 C1887 1.384 . S
H1890 C1896 0.930 . S
H1891 C1900 0.930 . S
H1892 C1905 0.929 . S
H1893 C1903 0.929 . S
H1894 C1898 0.929 . S
H1895 C1904 0.929 . S
C1896 H1890 0.930 . S
C1896 C1897 1.367 . S
C1896 C1904 1.378 1_565 S
C1897 C1896 1.367 . S
C1897 C1905 1.433 1_565 S
C1898 H1894 0.929 . S
C1898 C1900 1.378 . S
C1898 C1902 1.350 . S
C1899 C1902 1.463 . S
C1899 C1904 1.350 . S
C1899 N1907 1.427 . S
C1900 H1891 0.930 . S
C1900 C1898 1.378 . S
C1900 C1901 1.367 . S
C1901 C1900 1.367 . S
C1901 C1903 1.433 . S
C1902 C1898 1.350 . S
C1902 C1899 1.463 . S
C1902 N1906 1.427 . S
C1903 H1893 0.929 . S
C1903 C1901 1.433 . S
C1903 N1906 1.384 . S
C1904 H1895 0.929 . S
C1904 C1896 1.378 1_545 S
C1904 C1899 1.350 . S
C1905 H1892 0.929 . S
C1905 C1897 1.433 1_545 S
C1905 N1907 1.384 . S
N1906 C1902 1.427 . S
N1906 C1903 1.384 . S
N1907 C1899 1.427 . S
N1907 C1905 1.384 . S
H1908 C1914 0.930 . S
H1909 C1918 0.930 . S
H1910 C1923 0.929 . S
H1911 C1921 0.929 . S
H1912 C1916 0.929 . S
H1913 C1922 0.929 . S
C1914 H1908 0.930 . S
C1914 C1915 1.367 1_655 S
C1914 C1922 1.378 . S
C1915 C1914 1.367 1_455 S
C1915 C1923 1.433 . S
C1916 H1912 0.929 . S
C1916 C1918 1.378 . S
C1916 C1920 1.350 . S
C1917 C1920 1.463 . S
C1917 C1922 1.350 . S
C1917 N1925 1.427 . S
C1918 H1909 0.930 . S
C1918 C1916 1.378 . S
C1918 C1919 1.367 . S
C1919 C1918 1.367 . S
C1919 C1921 1.433 . S
C1920 C1916 1.350 . S
C1920 C1917 1.463 . S
C1920 N1924 1.427 . S
C1921 H1911 0.929 . S
C1921 C1919 1.433 . S
C1921 N1924 1.384 . S
C1922 H1913 0.929 . S
C1922 C1914 1.378 . S
C1922 C1917 1.350 . S
C1923 H1910 0.929 . S
C1923 C1915 1.433 . S
C1923 N1925 1.384 1_455 S
N1924 C1920 1.427 . S
N1924 C1921 1.384 . S
N1925 C1917 1.427 . S
N1925 C1923 1.384 1_655 S
H1926 C1932 0.930 . S
H1927 C1936 0.930 . S
H1928 C1941 0.929 . S
H1929 C1939 0.929 . S
H1930 C1934 0.929 . S
H1931 C1940 0.929 . S
C1932 H1926 0.930 . S
C1932 C1933 1.367 . S
C1932 C1940 1.378 . S
C1933 C1932 1.367 . S
C1933 C1941 1.433 . S
C1934 H1930 0.929 . S
C1934 C1936 1.378 . S
C1934 C1938 1.350 . S
C1935 C1938 1.463 . S
C1935 C1940 1.350 . S
C1935 N1943 1.427 . S
C1936 H1927 0.930 . S
C1936 C1934 1.378 . S
C1936 C1937 1.367 . S
C1937 C1936 1.367 . S
C1937 C1939 1.433 . S
C1938 C1934 1.350 . S
C1938 C1935 1.463 . S
C1938 N1942 1.427 . S
C1939 H1929 0.929 . S
C1939 C1937 1.433 . S
C1939 N1942 1.384 . S
C1940 H1931 0.929 . S
C1940 C1932 1.378 . S
C1940 C1935 1.350 . S
C1941 H1928 0.929 . S
C1941 C1933 1.433 . S
C1941 N1943 1.384 . S
N1942 C1938 1.427 . S
N1942 C1939 1.384 . S
N1943 C1935 1.427 . S
N1943 C1941 1.384 . S
H1944 C1950 0.930 . S
H1945 C1954 0.930 . S
H1946 C1959 0.929 . S
H1947 C1957 0.929 . S
H1948 C1952 0.929 . S
H1949 C1958 0.929 . S
C1950 H1944 0.930 . S
C1950 C1951 1.367 1_655 S
C1950 C1958 1.378 . S
C1951 C1950 1.367 1_455 S
C1951 C1959 1.433 . S
C1952 H1948 0.929 . S
C1952 C1954 1.378 . S
C1952 C1956 1.350 . S
C1953 C1956 1.463 . S
C1953 C1958 1.350 . S
C1953 N1961 1.427 . S
C1954 H1945 0.930 . S
C1954 C1952 1.378 . S
C1954 C1955 1.367 . S
C1955 C1954 1.367 . S
C1955 C1957 1.433 . S
C1956 C1952 1.350 . S
C1956 C1953 1.463 . S
C1956 N1960 1.427 . S
C1957 H1947 0.929 . S
C1957 C1955 1.433 . S
C1957 N1960 1.384 . S
C1958 H1949 0.929 . S
C1958 C1950 1.378 . S
C1958 C1953 1.350 . S
C1959 H1946 0.929 . S
C1959 C1951 1.433 . S
C1959 N1961 1.384 1_455 S
N1960 C1956 1.427 . S
N1960 C1957 1.384 . S
N1961 C1953 1.427 . S
N1961 C1959 1.384 1_655 S
H1962 C1968 0.930 . S
H1963 C1972 0.930 . S
H1964 C1977 0.929 . S
H1965 C1975 0.929 . S
H1966 C1970 0.929 . S
H1967 C1976 0.929 . S
C1968 H1962 0.930 . S
C1968 C1969 1.367 . S
C1968 C1976 1.378 . S
C1969 C1968 1.367 . S
C1969 C1977 1.433 . S
C1970 H1966 0.929 . S
C1970 C1972 1.378 . S
C1970 C1974 1.350 . S
C1971 C1974 1.463 . S
C1971 C1976 1.350 . S
C1971 N1979 1.427 . S
C1972 H1963 0.930 . S
C1972 C1970 1.378 . S
C1972 C1973 1.367 . S
C1973 C1972 1.367 . S
C1973 C1975 1.433 . S
C1974 C1970 1.350 . S
C1974 C1971 1.463 . S
C1974 N1978 1.427 . S
C1975 H1965 0.929 . S
C1975 C1973 1.433 . S
C1975 N1978 1.384 . S
C1976 H1967 0.929 . S
C1976 C1968 1.378 . S
C1976 C1971 1.350 . S
C1977 H1964 0.929 . S
C1977 C1969 1.433 . S
C1977 N1979 1.384 . S
N1978 C1974 1.427 . S
N1978 C1975 1.384 . S
N1979 C1971 1.427 . S
N1979 C1977 1.384 . S
H1980 C1986 0.930 . S
H1981 C1990 0.930 . S
H1982 C1995 0.929 . S
H1983 C1993 0.929 . S
H1984 C1988 0.929 . S
H1985 C1994 0.929 . S
C1986 H1980 0.930 . S
C1986 C1987 1.367 . S
C1986 C1994 1.378 1_565 S
C1987 C1986 1.367 . S
C1987 C1995 1.433 . S
C1988 H1984 0.929 . S
C1988 C1990 1.378 . S
C1988 C1992 1.350 . S
C1989 C1992 1.463 . S
C1989 C1994 1.350 . S
C1989 N1997 1.427 . S
C1990 H1981 0.930 . S
C1990 C1988 1.378 . S
C1990 C1991 1.367 . S
C1991 C1990 1.367 . S
C1991 C1993 1.433 . S
C1992 C1988 1.350 . S
C1992 C1989 1.463 . S
C1992 N1996 1.427 . S
C1993 H1983 0.929 . S
C1993 C1991 1.433 . S
C1993 N1996 1.384 . S
C1994 H1985 0.929 . S
C1994 C1986 1.378 1_545 S
C1994 C1989 1.350 . S
C1995 H1982 0.929 . S
C1995 C1987 1.433 . S
C1995 N1997 1.384 1_565 S
N1996 C1992 1.427 . S
N1996 C1993 1.384 . S
N1997 C1989 1.427 . S
N1997 C1995 1.384 1_545 S
H1998 C2004 0.930 . S
H1999 C2008 0.930 . S
H2000 C2013 0.929 . S
H2001 C2011 0.929 . S
H2002 C2006 0.929 . S
H2003 C2012 0.929 . S
C2004 H1998 0.930 . S
C2004 C2005 1.367 . S
C2004 C2012 1.378 . S
C2005 C2004 1.367 . S
C2005 C2013 1.433 . S
C2006 H2002 0.929 . S
C2006 C2008 1.378 . S
C2006 C2010 1.350 . S
C2007 C2010 1.463 . S
C2007 C2012 1.350 . S
C2007 N2015 1.427 . S
C2008 H1999 0.930 . S
C2008 C2006 1.378 . S
C2008 C2009 1.367 . S
C2009 C2008 1.367 . S
C2009 C2011 1.433 . S
C2010 C2006 1.350 . S
C2010 C2007 1.463 . S
C2010 N2014 1.427 . S
C2011 H2001 0.929 . S
C2011 C2009 1.433 . S
C2011 N2014 1.384 . S
C2012 H2003 0.929 . S
C2012 C2004 1.378 . S
C2012 C2007 1.350 . S
C2013 H2000 0.929 . S
C2013 C2005 1.433 . S
C2013 N2015 1.384 . S
N2014 C2010 1.427 . S
N2014 C2011 1.384 . S
N2015 C2007 1.427 . S
N2015 C2013 1.384 . S
H2016 C2022 0.930 . S
H2017 C2026 0.930 . S
H2018 C2031 0.929 . S
H2019 C2029 0.929 . S
H2020 C2024 0.929 . S
H2021 C2030 0.929 . S
C2022 H2016 0.930 . S
C2022 C2023 1.367 . S
C2022 C2030 1.378 . S
C2023 C2022 1.367 . S
C2023 C2031 1.433 . S
C2024 H2020 0.929 . S
C2024 C2026 1.378 . S
C2024 C2028 1.350 . S
C2025 C2028 1.463 . S
C2025 C2030 1.350 . S
C2025 N2033 1.427 . S
C2026 H2017 0.930 . S
C2026 C2024 1.378 . S
C2026 C2027 1.367 . S
C2027 C2026 1.367 . S
C2027 C2029 1.433 . S
C2028 C2024 1.350 . S
C2028 C2025 1.463 . S
C2028 N2032 1.427 . S
C2029 H2019 0.929 . S
C2029 C2027 1.433 . S
C2029 N2032 1.384 . S
C2030 H2021 0.929 . S
C2030 C2022 1.378 . S
C2030 C2025 1.350 . S
C2031 H2018 0.929 . S
C2031 C2023 1.433 . S
C2031 N2033 1.384 . S
N2032 C2028 1.427 . S
N2032 C2029 1.384 . S
N2033 C2025 1.427 . S
N2033 C2031 1.384 . S
H2034 C2040 0.930 . S
H2035 C2044 0.930 . S
H2036 C2049 0.929 . S
H2037 C2047 0.929 . S
H2038 C2042 0.929 . S
H2039 C2048 0.929 . S
C2040 H2034 0.930 . S
C2040 C2041 1.367 . S
C2040 C2048 1.378 . S
C2041 C2040 1.367 . S
C2041 C2049 1.433 . S
C2042 H2038 0.929 . S
C2042 C2044 1.378 . S
C2042 C2046 1.350 . S
C2043 C2046 1.463 . S
C2043 C2048 1.350 . S
C2043 N2051 1.427 . S
C2044 H2035 0.930 . S
C2044 C2042 1.378 . S
C2044 C2045 1.367 . S
C2045 C2044 1.367 . S
C2045 C2047 1.433 . S
C2046 C2042 1.350 . S
C2046 C2043 1.463 . S
C2046 N2050 1.427 . S
C2047 H2037 0.929 . S
C2047 C2045 1.433 . S
C2047 N2050 1.384 . S
C2048 H2039 0.929 . S
C2048 C2040 1.378 . S
C2048 C2043 1.350 . S
C2049 H2036 0.929 . S
C2049 C2041 1.433 . S
C2049 N2051 1.384 . S
N2050 C2046 1.427 . S
N2050 C2047 1.384 . S
N2051 C2043 1.427 . S
N2051 C2049 1.384 . S
H2052 C2058 0.930 . S
H2053 C2062 0.930 . S
H2054 C2067 0.929 . S
H2055 C2065 0.949 . S
H2056 C2060 0.929 . S
H2057 C2066 0.929 . S
C2058 H2052 0.930 . S
C2058 C2059 1.367 . S
C2058 C2066 1.378 . S
C2059 C2058 1.367 . S
C2059 C2067 1.433 . S
C2060 H2056 0.929 . S
C2060 C2062 1.378 . S
C2060 C2064 1.350 . S
C2061 C2064 1.463 . S
C2061 C2066 1.350 . S
C2061 N2069 1.427 . S
C2062 H2053 0.930 . S
C2062 C2060 1.378 . S
C2062 C2063 1.367 . S
C2063 C2062 1.367 . S
C2063 C2065 1.433 . S
C2064 C2060 1.350 . S
C2064 C2061 1.463 . S
C2064 N2068 1.427 . S
C2065 H2055 0.949 . S
C2065 C2063 1.433 . S
C2065 N2068 1.384 . S
C2066 H2057 0.929 . S
C2066 C2058 1.378 . S
C2066 C2061 1.350 . S
C2067 H2054 0.929 . S
C2067 C2059 1.433 . S
C2067 N2069 1.384 . S
N2068 C2064 1.427 . S
N2068 C2065 1.384 . S
N2069 C2061 1.427 . S
N2069 C2067 1.384 . S
H2070 C2076 0.930 . S
H2071 C2080 0.928 1_655 S
H2072 C2085 0.929 . S
H2073 C2083 0.929 . S
H2074 C2078 0.929 . S
H2075 C2084 0.929 . S
C2076 H2070 0.930 . S
C2076 C2077 1.367 . S
C2076 C2084 1.378 . S
C2077 C2076 1.367 . S
C2077 C2085 1.433 . S
C2078 H2074 0.929 . S
C2078 C2080 1.378 . S
C2078 C2082 1.350 . S
C2079 C2082 1.463 . S
C2079 C2084 1.350 . S
C2079 N2087 1.427 . S
C2080 H2071 0.928 1_455 S
C2080 C2078 1.378 . S
C2080 C2081 1.367 . S
C2081 C2080 1.367 . S
C2081 C2083 1.433 . S
C2082 C2078 1.350 . S
C2082 C2079 1.463 . S
C2082 N2086 1.427 . S
C2083 H2073 0.929 . S
C2083 C2081 1.433 . S
C2083 N2086 1.384 . S
C2084 H2075 0.929 . S
C2084 C2076 1.378 . S
C2084 C2079 1.350 . S
C2085 H2072 0.929 . S
C2085 C2077 1.433 . S
C2085 N2087 1.384 . S
N2086 C2082 1.427 . S
N2086 C2083 1.384 . S
N2087 C2079 1.427 . S
N2087 C2085 1.384 . S
H2088 C2094 0.930 . S
H2089 C2098 0.930 . S
H2090 C2103 0.929 . S
H2091 C2101 0.929 . S
H2092 C2096 0.929 . S
H2093 C2102 0.929 . S
C2094 H2088 0.930 . S
C2094 C2095 1.367 . S
C2094 C2102 1.378 . S
C2095 C2094 1.367 . S
C2095 C2103 1.433 . S
C2096 H2092 0.929 . S
C2096 C2098 1.378 . S
C2096 C2100 1.350 . S
C2097 C2100 1.463 . S
C2097 C2102 1.350 . S
C2097 N2105 1.427 . S
C2098 H2089 0.930 . S
C2098 C2096 1.378 . S
C2098 C2099 1.367 . S
C2099 C2098 1.367 . S
C2099 C2101 1.433 . S
C2100 C2096 1.350 . S
C2100 C2097 1.463 . S
C2100 N2104 1.427 . S
C2101 H2091 0.929 . S
C2101 C2099 1.433 . S
C2101 N2104 1.384 . S
C2102 H2093 0.929 . S
C2102 C2094 1.378 . S
C2102 C2097 1.350 . S
C2103 H2090 0.929 . S
C2103 C2095 1.433 . S
C2103 N2105 1.384 . S
N2104 C2100 1.427 . S
N2104 C2101 1.384 . S
N2105 C2097 1.427 . S
N2105 C2103 1.384 . S
H2106 C2112 0.930 . S
H2107 C2116 0.930 . S
H2108 C2121 0.929 . S
H2109 C2119 0.929 . S
H2110 C2114 0.929 . S
H2111 C2120 0.929 . S
C2112 H2106 0.930 . S
C2112 C2113 1.367 . S
C2112 C2120 1.378 . S
C2113 C2112 1.367 . S
C2113 C2121 1.433 . S
C2114 H2110 0.929 . S
C2114 C2116 1.378 . S
C2114 C2118 1.350 . S
C2115 C2118 1.463 . S
C2115 C2120 1.350 . S
C2115 N2123 1.427 . S
C2116 H2107 0.930 . S
C2116 C2114 1.378 . S
C2116 C2117 1.367 . S
C2117 C2116 1.367 . S
C2117 C2119 1.433 . S
C2118 C2114 1.350 . S
C2118 C2115 1.463 . S
C2118 N2122 1.427 . S
C2119 H2109 0.929 . S
C2119 C2117 1.433 . S
C2119 N2122 1.384 . S
C2120 H2111 0.929 . S
C2120 C2112 1.378 . S
C2120 C2115 1.350 . S
C2121 H2108 0.929 . S
C2121 C2113 1.433 . S
C2121 N2123 1.384 . S
N2122 C2118 1.427 . S
N2122 C2119 1.384 . S
N2123 C2115 1.427 . S
N2123 C2121 1.384 . S
H2124 C2130 0.930 . S
H2125 C2134 0.930 . S
H2126 C2139 0.929 . S
H2127 C2137 0.929 . S
H2128 C2132 0.929 . S
H2129 C2138 0.929 . S
C2130 H2124 0.930 . S
C2130 C2131 1.367 . S
C2130 C2138 1.378 . S
C2131 C2130 1.367 . S
C2131 C2139 1.433 . S
C2132 H2128 0.929 . S
C2132 C2134 1.378 . S
C2132 C2136 1.350 . S
C2133 C2136 1.463 . S
C2133 C2138 1.350 . S
C2133 N2141 1.427 . S
C2134 H2125 0.930 . S
C2134 C2132 1.378 . S
C2134 C2135 1.367 . S
C2135 C2134 1.367 . S
C2135 C2137 1.433 . S
C2136 C2132 1.350 . S
C2136 C2133 1.463 . S
C2136 N2140 1.427 . S
C2137 H2127 0.929 . S
C2137 C2135 1.433 . S
C2137 N2140 1.384 . S
C2138 H2129 0.929 . S
C2138 C2130 1.378 . S
C2138 C2133 1.350 . S
C2139 H2126 0.929 . S
C2139 C2131 1.433 . S
C2139 N2141 1.384 . S
N2140 C2136 1.427 . S
N2140 C2137 1.384 . S
N2141 C2133 1.427 . S
N2141 C2139 1.384 . S
H2142 C2148 0.930 . S
H2143 C2152 0.930 . S
H2144 C2157 0.929 . S
H2145 C2155 0.929 . S
H2146 C2150 0.929 . S
H2147 C2156 0.929 . S
C2148 H2142 0.930 . S
C2148 C2149 1.367 . S
C2148 C2156 1.378 . S
C2149 C2148 1.367 . S
C2149 C2157 1.433 . S
C2150 H2146 0.929 . S
C2150 C2152 1.378 . S
C2150 C2154 1.350 . S
C2151 C2154 1.463 . S
C2151 C2156 1.350 . S
C2151 N2159 1.427 . S
C2152 H2143 0.930 . S
C2152 C2150 1.378 . S
C2152 C2153 1.367 . S
C2153 C2152 1.367 . S
C2153 C2155 1.433 . S
C2154 C2150 1.350 . S
C2154 C2151 1.463 . S
C2154 N2158 1.427 . S
C2155 H2145 0.929 . S
C2155 C2153 1.433 . S
C2155 N2158 1.384 . S
C2156 H2147 0.929 . S
C2156 C2148 1.378 . S
C2156 C2151 1.350 . S
C2157 H2144 0.929 . S
C2157 C2149 1.433 . S
C2157 N2159 1.384 . S
N2158 C2154 1.427 . S
N2158 C2155 1.384 . S
N2159 C2151 1.427 . S
N2159 C2157 1.384 . S
H2160 C2166 0.930 . S
H2161 C2170 0.930 . S
H2162 C2175 0.929 . S
H2163 C2173 0.929 . S
H2164 C2168 0.929 . S
H2165 C2174 0.929 . S
C2166 H2160 0.930 . S
C2166 C2167 1.367 . S
C2166 C2174 1.378 . S
C2167 C2166 1.367 . S
C2167 C2175 1.433 . S
C2168 H2164 0.929 . S
C2168 C2170 1.378 . S
C2168 C2172 1.350 . S
C2169 C2172 1.463 . S
C2169 C2174 1.350 . S
C2169 N2177 1.427 . S
C2170 H2161 0.930 . S
C2170 C2168 1.378 . S
C2170 C2171 1.367 . S
C2171 C2170 1.367 . S
C2171 C2173 1.433 . S
C2172 C2168 1.350 . S
C2172 C2169 1.463 . S
C2172 N2176 1.427 . S
C2173 H2163 0.929 . S
C2173 C2171 1.433 . S
C2173 N2176 1.384 . S
C2174 H2165 0.929 . S
C2174 C2166 1.378 . S
C2174 C2169 1.350 . S
C2175 H2162 0.929 . S
C2175 C2167 1.433 . S
C2175 N2177 1.384 . S
N2176 C2172 1.427 . S
N2176 C2173 1.384 . S
N2177 C2169 1.427 . S
N2177 C2175 1.384 . S
H2178 C2184 0.930 . S
H2179 C2188 0.930 . S
H2180 C2193 0.929 . S
H2181 C2191 0.929 . S
H2182 C2186 0.929 . S
H2183 C2192 0.929 . S
C2184 H2178 0.930 . S
C2184 C2185 1.367 . S
C2184 C2192 1.378 . S
C2185 C2184 1.367 . S
C2185 C2193 1.433 . S
C2186 H2182 0.929 . S
C2186 C2188 1.378 . S
C2186 C2190 1.350 . S
C2187 C2190 1.463 . S
C2187 C2192 1.350 . S
C2187 N2195 1.427 . S
C2188 H2179 0.930 . S
C2188 C2186 1.378 . S
C2188 C2189 1.367 . S
C2189 C2188 1.367 . S
C2189 C2191 1.433 . S
C2190 C2186 1.350 . S
C2190 C2187 1.463 . S
C2190 N2194 1.427 . S
C2191 H2181 0.929 . S
C2191 C2189 1.433 . S
C2191 N2194 1.384 . S
C2192 H2183 0.929 . S
C2192 C2184 1.378 . S
C2192 C2187 1.350 . S
C2193 H2180 0.929 . S
C2193 C2185 1.433 . S
C2193 N2195 1.384 . S
N2194 C2190 1.427 . S
N2194 C2191 1.384 . S
N2195 C2187 1.427 . S
N2195 C2193 1.384 . S
H2196 C2202 0.930 . S
H2197 C2206 0.930 . S
H2198 C2211 0.929 . S
H2199 C2209 0.929 . S
H2200 C2204 0.929 . S
H2201 C2210 0.929 . S
C2202 H2196 0.930 . S
C2202 C2203 1.367 . S
C2202 C2210 1.378 . S
C2203 C2202 1.367 . S
C2203 C2211 1.433 . S
C2204 H2200 0.929 . S
C2204 C2206 1.378 . S
C2204 C2208 1.350 . S
C2205 C2208 1.463 . S
C2205 C2210 1.350 . S
C2205 N2213 1.427 . S
C2206 H2197 0.930 . S
C2206 C2204 1.378 . S
C2206 C2207 1.367 . S
C2207 C2206 1.367 . S
C2207 C2209 1.433 . S
C2208 C2204 1.350 . S
C2208 C2205 1.463 . S
C2208 N2212 1.427 . S
C2209 H2199 0.929 . S
C2209 C2207 1.433 . S
C2209 N2212 1.384 . S
C2210 H2201 0.929 . S
C2210 C2202 1.378 . S
C2210 C2205 1.350 . S
C2211 H2198 0.929 . S
C2211 C2203 1.433 . S
C2211 N2213 1.384 . S
N2212 C2208 1.427 . S
N2212 C2209 1.384 . S
N2213 C2205 1.427 . S
N2213 C2211 1.384 . S
H2214 C2220 0.930 . S
H2215 C2224 0.930 . S
H2216 C2229 0.929 . S
H2217 C2227 0.929 . S
H2218 C2222 0.929 . S
H2219 C2228 0.929 . S
C2220 H2214 0.930 . S
C2220 C2221 1.367 . S
C2220 C2228 1.378 . S
C2221 C2220 1.367 . S
C2221 C2229 1.433 . S
C2222 H2218 0.929 . S
C2222 C2224 1.378 . S
C2222 C2226 1.350 . S
C2223 C2226 1.463 . S
C2223 C2228 1.350 . S
C2223 N2231 1.427 . S
C2224 H2215 0.930 . S
C2224 C2222 1.378 . S
C2224 C2225 1.367 . S
C2225 C2224 1.367 . S
C2225 C2227 1.433 . S
C2226 C2222 1.350 . S
C2226 C2223 1.463 . S
C2226 N2230 1.427 . S
C2227 H2217 0.929 . S
C2227 C2225 1.433 . S
C2227 N2230 1.384 . S
C2228 H2219 0.929 . S
C2228 C2220 1.378 . S
C2228 C2223 1.350 . S
C2229 H2216 0.929 . S
C2229 C2221 1.433 . S
C2229 N2231 1.384 . S
N2230 C2226 1.427 . S
N2230 C2227 1.384 . S
N2231 C2223 1.427 . S
N2231 C2229 1.384 . S
H2232 C2238 0.930 . S
H2233 C2242 0.930 . S
H2234 C2247 0.929 . S
H2235 C2245 0.929 . S
H2236 C2240 0.929 . S
H2237 C2246 0.929 . S
C2238 H2232 0.930 . S
C2238 C2239 1.367 . S
C2238 C2246 1.378 . S
C2239 C2238 1.367 . S
C2239 C2247 1.433 . S
C2240 H2236 0.929 . S
C2240 C2242 1.378 . S
C2240 C2244 1.350 . S
C2241 C2244 1.463 . S
C2241 C2246 1.350 . S
C2241 N2249 1.427 . S
C2242 H2233 0.930 . S
C2242 C2240 1.378 . S
C2242 C2243 1.367 . S
C2243 C2242 1.367 . S
C2243 C2245 1.433 . S
C2244 C2240 1.350 . S
C2244 C2241 1.463 . S
C2244 N2248 1.427 . S
C2245 H2235 0.929 . S
C2245 C2243 1.433 . S
C2245 N2248 1.384 . S
C2246 H2237 0.929 . S
C2246 C2238 1.378 . S
C2246 C2241 1.350 . S
C2247 H2234 0.929 . S
C2247 C2239 1.433 . S
C2247 N2249 1.384 . S
N2248 C2244 1.427 . S
N2248 C2245 1.384 . S
N2249 C2241 1.427 . S
N2249 C2247 1.384 . S
H2250 C2256 0.930 . S
H2251 C2260 0.930 . S
H2252 C2265 0.929 . S
H2253 C2263 0.929 . S
H2254 C2258 0.929 . S
H2255 C2264 0.929 . S
C2256 H2250 0.930 . S
C2256 C2257 1.367 . S
C2256 C2264 1.378 . S
C2257 C2256 1.367 . S
C2257 C2265 1.433 . S
C2258 H2254 0.929 . S
C2258 C2260 1.378 . S
C2258 C2262 1.350 . S
C2259 C2262 1.463 . S
C2259 C2264 1.350 . S
C2259 N2267 1.427 . S
C2260 H2251 0.930 . S
C2260 C2258 1.378 . S
C2260 C2261 1.367 . S
C2261 C2260 1.367 . S
C2261 C2263 1.433 . S
C2262 C2258 1.350 . S
C2262 C2259 1.463 . S
C2262 N2266 1.427 . S
C2263 H2253 0.929 . S
C2263 C2261 1.433 . S
C2263 N2266 1.384 . S
C2264 H2255 0.929 . S
C2264 C2256 1.378 . S
C2264 C2259 1.350 . S
C2265 H2252 0.929 . S
C2265 C2257 1.433 . S
C2265 N2267 1.384 . S
N2266 C2262 1.427 . S
N2266 C2263 1.384 . S
N2267 C2259 1.427 . S
N2267 C2265 1.384 . S
H2268 C2274 0.930 . S
H2269 C2278 0.930 . S
H2270 C2283 0.929 . S
H2271 C2281 0.929 . S
H2272 C2276 0.929 . S
H2273 C2282 0.929 . S
C2274 H2268 0.930 . S
C2274 C2275 1.367 . S
C2274 C2282 1.378 . S
C2275 C2274 1.367 . S
C2275 C2283 1.433 . S
C2276 H2272 0.929 . S
C2276 C2278 1.378 . S
C2276 C2280 1.350 . S
C2277 C2280 1.463 . S
C2277 C2282 1.350 . S
C2277 N2285 1.427 . S
C2278 H2269 0.930 . S
C2278 C2276 1.378 . S
C2278 C2279 1.367 . S
C2279 C2278 1.367 . S
C2279 C2281 1.433 . S
C2280 C2276 1.350 . S
C2280 C2277 1.463 . S
C2280 N2284 1.427 . S
C2281 H2271 0.929 . S
C2281 C2279 1.433 . S
C2281 N2284 1.384 . S
C2282 H2273 0.929 . S
C2282 C2274 1.378 . S
C2282 C2277 1.350 . S
C2283 H2270 0.929 . S
C2283 C2275 1.433 . S
C2283 N2285 1.384 . S
N2284 C2280 1.427 . S
N2284 C2281 1.384 . S
N2285 C2277 1.427 . S
N2285 C2283 1.384 . S
H2286 C2292 0.930 . S
H2287 C2296 0.930 . S
H2288 C2301 0.929 . S
H2289 C2299 0.929 . S
H2290 C2294 0.929 . S
H2291 C2300 0.929 . S
C2292 H2286 0.930 . S
C2292 C2293 1.367 . S
C2292 C2300 1.378 . S
C2293 C2292 1.367 . S
C2293 C2301 1.433 . S
C2294 H2290 0.929 . S
C2294 C2296 1.378 . S
C2294 C2298 1.350 . S
C2295 C2298 1.463 . S
C2295 C2300 1.350 . S
C2295 N2303 1.427 . S
C2296 H2287 0.930 . S
C2296 C2294 1.378 . S
C2296 C2297 1.367 . S
C2297 C2296 1.367 . S
C2297 C2299 1.433 . S
C2298 C2294 1.350 . S
C2298 C2295 1.463 . S
C2298 N2302 1.427 . S
C2299 H2289 0.929 . S
C2299 C2297 1.433 . S
C2299 N2302 1.384 . S
C2300 H2291 0.929 . S
C2300 C2292 1.378 . S
C2300 C2295 1.350 . S
C2301 H2288 0.929 . S
C2301 C2293 1.433 . S
C2301 N2303 1.384 . S
N2302 C2298 1.427 . S
N2302 C2299 1.384 . S
N2303 C2295 1.427 . S
N2303 C2301 1.384 . S
H2304 C2310 0.930 . S
H2305 C2314 0.930 . S
H2306 C2319 0.929 . S
H2307 C2317 0.929 . S
H2308 C2312 0.929 . S
H2309 C2318 0.929 . S
C2310 H2304 0.930 . S
C2310 C2311 1.367 . S
C2310 C2318 1.378 . S
C2311 C2310 1.367 . S
C2311 C2319 1.433 . S
C2312 H2308 0.929 . S
C2312 C2314 1.378 . S
C2312 C2316 1.350 . S
C2313 C2316 1.463 . S
C2313 C2318 1.350 . S
C2313 N2321 1.427 . S
C2314 H2305 0.930 . S
C2314 C2312 1.378 . S
C2314 C2315 1.367 . S
C2315 C2314 1.367 . S
C2315 C2317 1.433 . S
C2316 C2312 1.350 . S
C2316 C2313 1.463 . S
C2316 N2320 1.427 . S
C2317 H2307 0.929 . S
C2317 C2315 1.433 . S
C2317 N2320 1.384 . S
C2318 H2309 0.929 . S
C2318 C2310 1.378 . S
C2318 C2313 1.350 . S
C2319 H2306 0.929 . S
C2319 C2311 1.433 . S
C2319 N2321 1.384 . S
N2320 C2316 1.427 . S
N2320 C2317 1.384 . S
N2321 C2313 1.427 . S
N2321 C2319 1.384 . S
H2322 C2328 0.930 . S
H2323 C2332 0.930 . S
H2324 C2337 0.929 . S
H2325 C2335 0.929 . S
H2326 C2330 0.929 . S
H2327 C2336 0.929 . S
C2328 H2322 0.930 . S
C2328 C2329 1.367 . S
C2328 C2336 1.378 . S
C2329 C2328 1.367 . S
C2329 C2337 1.433 . S
C2330 H2326 0.929 . S
C2330 C2332 1.378 . S
C2330 C2334 1.350 . S
C2331 C2334 1.463 . S
C2331 C2336 1.350 . S
C2331 N2339 1.427 . S
C2332 H2323 0.930 . S
C2332 C2330 1.378 . S
C2332 C2333 1.367 . S
C2333 C2332 1.367 . S
C2333 C2335 1.433 . S
C2334 C2330 1.350 . S
C2334 C2331 1.463 . S
C2334 N2338 1.427 . S
C2335 H2325 0.929 . S
C2335 C2333 1.433 . S
C2335 N2338 1.384 . S
C2336 H2327 0.929 . S
C2336 C2328 1.378 . S
C2336 C2331 1.350 . S
C2337 H2324 0.929 . S
C2337 C2329 1.433 . S
C2337 N2339 1.384 . S
N2338 C2334 1.427 . S
N2338 C2335 1.384 . S
N2339 C2331 1.427 . S
N2339 C2337 1.384 . S
H2340 C2346 0.930 . S
H2341 C2350 0.930 . S
H2342 C2355 0.929 . S
H2343 C2353 0.929 . S
H2344 C2348 0.929 . S
H2345 C2354 0.929 . S
C2346 H2340 0.930 . S
C2346 C2347 1.367 . S
C2346 C2354 1.378 . S
C2347 C2346 1.367 . S
C2347 C2355 1.433 . S
C2348 H2344 0.929 . S
C2348 C2350 1.378 . S
C2348 C2352 1.350 . S
C2349 C2352 1.463 . S
C2349 C2354 1.350 . S
C2349 N2357 1.427 . S
C2350 H2341 0.930 . S
C2350 C2348 1.378 . S
C2350 C2351 1.367 . S
C2351 C2350 1.367 . S
C2351 C2353 1.433 . S
C2352 C2348 1.350 . S
C2352 C2349 1.463 . S
C2352 N2356 1.427 . S
C2353 H2343 0.929 . S
C2353 C2351 1.433 . S
C2353 N2356 1.384 . S
C2354 H2345 0.929 . S
C2354 C2346 1.378 . S
C2354 C2349 1.350 . S
C2355 H2342 0.929 . S
C2355 C2347 1.433 . S
C2355 N2357 1.384 . S
N2356 C2352 1.427 . S
N2356 C2353 1.384 . S
N2357 C2349 1.427 . S
N2357 C2355 1.384 . S
H2358 C2364 0.930 . S
H2359 C2368 0.930 . S
H2360 C2373 0.929 . S
H2361 C2371 0.929 . S
H2362 C2366 0.929 . S
H2363 C2372 0.929 . S
C2364 H2358 0.930 . S
C2364 C2365 1.367 . S
C2364 C2372 1.378 . S
C2365 C2364 1.367 . S
C2365 C2373 1.433 . S
C2366 H2362 0.929 . S
C2366 C2368 1.378 . S
C2366 C2370 1.350 . S
C2367 C2370 1.463 . S
C2367 C2372 1.350 . S
C2367 N2375 1.427 . S
C2368 H2359 0.930 . S
C2368 C2366 1.378 . S
C2368 C2369 1.367 . S
C2369 C2368 1.367 . S
C2369 C2371 1.433 . S
C2370 C2366 1.350 . S
C2370 C2367 1.463 . S
C2370 N2374 1.427 . S
C2371 H2361 0.929 . S
C2371 C2369 1.433 . S
C2371 N2374 1.384 . S
C2372 H2363 0.929 . S
C2372 C2364 1.378 . S
C2372 C2367 1.350 . S
C2373 H2360 0.929 . S
C2373 C2365 1.433 . S
C2373 N2375 1.384 . S
N2374 C2370 1.427 . S
N2374 C2371 1.384 . S
N2375 C2367 1.427 . S
N2375 C2373 1.384 . S
C1411 C469 1.447 . S
C1415 C715 1.360 . S
C1429 C505 1.467 . S
C1433 C799 1.389 . S
C1447 C433 1.482 . S
C1451 C879 1.426 . S
C1465 C397 1.437 . S
C1469 C795 1.395 . S
C1487 C883 1.325 . S
C1483 C325 1.404 . S
C1501 C361 1.421 . S
C1505 C711 1.370 . S
C1523 C704 1.375 . S
C1519 C421 1.447 . S
C1541 C788 1.401 . S
C1537 C349 1.466 . S
C1555 C385 1.483 . S
C1559 C890 1.432 . S
C1573 C493 1.438 . S
C1577 C806 1.394 . S
C1591 C529 1.403 . S
C1595 C872 1.337 . S
C1613 C722 1.378 . S
C1609 C457 1.420 . S
C1631 C967 1.361 . S
C1627 C37 1.448 . S
C1645 C73 1.467 . S
C1649 C1051 1.390 . S
C1663 C1 1.485 . S
C1667 C1131 1.441 . S
C1681 C613 1.436 . S
C1685 C1047 1.386 . S
C1699 C541 1.404 . S
C1703 C1135 1.328 . S
C1717 C577 1.420 . S
C1721 C963 1.366 . S
C1735 C637 1.445 . S
C1739 C956 1.376 . S
C1753 C565 1.466 . S
C1757 C1040 1.398 . S
C1775 C1142 1.429 . S
C1771 C601 1.479 . S
C1789 C61 1.434 . S
C1793 C1058 1.395 . S
C1811 C1124 1.322 . S
C1807 C97 1.406 . S
C1825 C25 1.423 . S
C1829 C974 1.373 . S
C1847 C1219 1.377 . S
C1843 C253 1.448 . S
C1861 C289 1.467 . S
C1865 C1303 1.387 . S
C1883 C1383 1.438 . S
C1879 C217 1.484 . S
C1901 C1299 1.400 . S
C1897 C181 1.438 . S
C1919 C1387 1.339 . S
C1915 C109 1.405 . S
C1933 C145 1.419 . S
C1937 C1215 1.365 . S
C1951 C205 1.446 . S
C1955 C1208 1.378 . S
C1969 C133 1.465 . S
C1973 C1292 1.404 . S
C1991 C1394 1.436 . S
C1987 C169 1.480 . S
C2005 C277 1.434 . S
C2009 C1310 1.394 . S
C2023 C313 1.403 . S
C2027 C1376 1.337 . S
C2041 C241 1.420 . S
C2045 C1226 1.378 . S
C2059 C571 1.446 . S
C2063 C718 1.342 . S
C2081 C802 1.354 . S
C2077 C607 1.511 . S
C2095 C643 1.475 . S
C2099 C874 1.335 . S
C2113 C247 1.511 . S
C2117 C790 1.365 . S
C2131 C283 1.474 . S
C2135 C886 1.357 . S
C2153 C706 1.348 . S
C2149 C319 1.446 . S
C2167 C139 1.449 . S
C2171 C970 1.328 . S
C2185 C175 1.509 . S
C2189 C1054 1.376 . S
C2203 C211 1.474 . S
C2207 C1126 1.339 . S
C2221 C463 1.510 . S
C2225 C1042 1.375 . S
C2243 C1138 1.333 . S
C2239 C499 1.477 . S
C2257 C535 1.446 . S
C2261 C958 1.347 . S
C2275 C355 1.448 . S
C2279 C1222 1.332 . S
C2293 C391 1.511 . S
C2297 C1306 1.353 . S
C2315 C1378 1.352 . S
C2311 C427 1.476 . S
C2329 C31 1.510 . S
C2333 C1294 1.355 . S
C2347 C67 1.474 . S
C2351 C1390 1.356 . S
C2365 C103 1.449 . S
C2369 C1210 1.326 . S
