# Generated by pormake.
# Topology pyr, (3,6)-cn, num edge types: 1
# Building blocks:
#     Node 0, Type 0, BuildingBlock: QEWDON_clean_linker_0, # of connection points: 3
#     Node 1, Type 0, BuildingBlock: QEWDON_clean_linker_0, # of connection points: 3
#     Node 2, Type 0, BuildingBlock: QEWDON_clean_linker_0, # of connection points: 3
#     Node 3, Type 0, BuildingBlock: QEWDON_clean_linker_0, # of connection points: 3
#     Node 4, Type 0, BuildingBlock: QEWDON_clean_linker_0, # of connection points: 3
#     Node 5, Type 0, BuildingBlock: QEWDON_clean_linker_0, # of connection points: 3
#     Node 6, Type 0, BuildingBlock: QEWDON_clean_linker_0, # of connection points: 3
#     Node 7, Type 0, BuildingBlock: QEWDON_clean_linker_0, # of connection points: 3
#     Node 8, Type 1, BuildingBlock: BETDIP_clean_sbu_0, # of connection points: 6
#     Node 9, Type 1, BuildingBlock: BETDIP_clean_sbu_0, # of connection points: 6
#     Node 10, Type 1, BuildingBlock: BETDIP_clean_sbu_0, # of connection points: 6
#     Node 11, Type 1, BuildingBlock: BETDIP_clean_sbu_0, # of connection points: 6
#     Edge 12, Type (0, 1), None
#     Edge 13, Type (0, 1), None
#     Edge 14, Type (0, 1), None
#     Edge 15, Type (0, 1), None
#     Edge 16, Type (0, 1), None
#     Edge 17, Type (0, 1), None
#     Edge 18, Type (0, 1), None
#     Edge 19, Type (0, 1), None
#     Edge 20, Type (0, 1), None
#     Edge 21, Type (0, 1), None
#     Edge 22, Type (0, 1), None
#     Edge 23, Type (0, 1), None
#     Edge 24, Type (0, 1), None
#     Edge 25, Type (0, 1), None
#     Edge 26, Type (0, 1), None
#     Edge 27, Type (0, 1), None
#     Edge 28, Type (0, 1), None
#     Edge 29, Type (0, 1), None
#     Edge 30, Type (0, 1), None
#     Edge 31, Type (0, 1), None
#     Edge 32, Type (0, 1), None
#     Edge 33, Type (0, 1), None
#     Edge 34, Type (0, 1), None
#     Edge 35, Type (0, 1), None
# Relax obj value: 0.378
# Max RMSD: 0.277
# Mean RMSD: 0.189
data_MOF--net-pyr--node1-BETDIP_clean_sbu_0--node2-QEWDON_clean_linker_0--edge1-none
_symmetry_space_group_name_H-M    P1
_symmetry_Int_Tables_number       1
_symmetry_cell_setting            triclinic
loop_
_symmetry_equiv_pos_as_xyz
'x, y, z'
_cell_length_a     17.582436
_cell_length_b     19.460884
_cell_length_c     19.908619
_cell_angle_alpha  89.511933
_cell_angle_beta   93.494333
_cell_angle_gamma 121.18472
loop_
_atom_site_label
_atom_site_type_symbol
_atom_site_fract_x
_atom_site_fract_y
_atom_site_fract_z
_atom_type_partial_charge
H0 H 0.57477 0.41415 0.23423 0.0
C1 C 0.56109 0.40161 0.28672 0.0
C2 C 0.55317 0.33167 0.31402 0.0
C3 C 0.54019 0.44961 0.32416 0.0
H4 H 0.5129 0.25278 0.39714 0.0
C5 C 0.52595 0.31042 0.37934 0.0
C6 C 0.5088 0.35982 0.41896 0.0
C7 C 0.51873 0.43062 0.39102 0.0
C8 C 0.52382 0.50937 0.29021 0.0
H9 H 0.50656 0.47031 0.42003 0.0
C10 C 0.44278 0.50588 0.29802 0.0
C11 C 0.41996 0.5543 0.26002 0.0
C12 C 0.58345 0.56427 0.24543 0.0
H13 H 0.64609 0.56797 0.23844 0.0
C14 C 0.56189 0.61415 0.20868 0.0
H15 H 0.39488 0.46214 0.33085 0.0
C16 C 0.48012 0.60861 0.21523 0.0
H17 H 0.46361 0.6464 0.18523 0.0
H18 H 0.60797 0.65617 0.17407 0.0
H19 H 1.04944 0.87516 0.88303 0.0
C20 C 0.09994 0.86518 0.86439 0.0
C21 C 0.17705 0.88973 0.90429 0.0
C22 C 0.09955 0.85211 0.79589 0.0
H23 H 0.30212 0.89468 0.91442 0.0
C24 C 0.24211 0.87621 0.8824 0.0
C25 C 0.23553 0.84954 0.81581 0.0
C26 C 0.16636 0.8424 0.7708 0.0
C27 C 1.04338 0.87297 0.75472 0.0
H28 H 0.16629 0.83261 0.7173 0.0
C29 C 0.06959 0.95502 0.75619 0.0
C30 C 1.00565 0.97769 0.75659 0.0
C31 C 0.95337 0.81406 0.74472 0.0
H32 H 0.93195 0.75087 0.74539 0.0
C33 C 0.88981 0.83607 0.74304 0.0
H34 H 0.13976 1.00048 0.76341 0.0
C35 C 0.91538 0.91652 0.75145 0.0
H36 H 0.86453 0.93126 0.75075 0.0
H37 H 0.82056 0.79008 0.73724 0.0
H38 H 0.82463 0.62132 1.00571 0.0
C39 C 0.78064 0.56014 1.0202 0.0
C40 C 0.80784 0.52957 1.0771 0.0
C41 C 0.69353 0.51445 0.98595 0.0
H42 H 0.76801 0.42679 0.13993 0.0
C43 C 0.7488 0.44994 0.09663 0.0
C44 C 0.66325 0.40101 1.06526 0.0
C45 C 0.63598 0.43493 1.01121 0.0
C46 C 0.65164 0.55523 0.94098 0.0
H47 H 0.56761 0.40044 0.99058 0.0
C48 C 0.67005 0.58671 0.87225 0.0
C49 C 0.61971 0.61989 0.83749 0.0
C50 C 0.58574 0.56151 0.97192 0.0
H51 H 0.56968 0.54104 1.0228 0.0
C52 C 0.53939 0.59406 0.93971 0.0
H53 H 0.72106 0.58449 0.84629 0.0
C54 C 0.55514 0.62164 0.87427 0.0
H55 H 0.51653 0.64622 0.85233 0.0
H56 H 0.48999 0.59817 0.96633 0.0
H57 H 1.01172 0.97662 0.45506 0.0
C58 C 0.96049 0.93711 0.48777 0.0
C59 C 0.94665 0.97105 0.5464 0.0
C60 C 0.90518 0.8532 0.46899 0.0
H61 H 0.86017 0.94397 0.62731 0.0
C62 C 0.87391 0.91897 0.58485 0.0
C63 C 0.81759 0.83585 0.56936 0.0
C64 C 0.83521 0.80422 0.51184 0.0
C65 C 0.89736 0.82224 0.3959 0.0
H66 H 0.78915 0.74197 0.49673 0.0
C67 C 0.94704 0.79024 0.3657 0.0
C68 C 0.92695 0.76036 0.29572 0.0
C69 C 0.82951 0.82212 0.355 0.0
H70 H 0.79077 0.8452 0.37482 0.0
C71 C 0.80902 0.79221 0.28903 0.0
H72 H 1.00046 0.78984 0.39534 0.0
C73 C 0.85644 0.76224 0.26012 0.0
H74 H 0.8373 0.74033 0.20831 0.0
H75 H 0.75545 0.79261 0.25951 0.0
H76 H 0.66739 0.85057 1.04726 0.0
C77 C 0.67345 0.87313 0.99671 0.0
C78 C 0.74586 0.88696 0.9595 0.0
C79 C 0.61335 0.89536 0.97004 0.0
H80 H 0.81214 0.93558 0.86754 0.0
C81 C 0.75572 0.9224 0.89603 0.0
C82 C 0.69639 0.9456 0.87093 0.0
C83 C 0.62371 0.92843 0.90662 0.0
C84 C 0.54939 0.90097 1.00999 0.0
H85 H 0.57756 0.94612 0.88683 0.0
C86 C 0.56356 0.97803 1.02177 0.0
C87 C 0.49572 0.988 1.04353 0.0
C88 C 0.46708 0.83287 1.02191 0.0
H89 H 0.45409 0.77321 1.01064 0.0
C90 C 0.39962 0.84216 1.04551 0.0
H91 H 0.62727 1.03058 1.01172 0.0
C92 C 0.41387 0.91911 1.05622 0.0
H93 H 0.36247 0.92484 1.07719 0.0
H94 H 0.33601 0.78974 1.05517 0.0
H95 H 0.11352 0.4075 0.61639 0.0
C96 C 0.08633 0.39957 0.56497 0.0
C97 C 0.10333 0.35421 0.52061 0.0
C98 C 1.01833 0.41581 0.54816 0.0
H99 H 0.09308 0.31638 0.41898 0.0
C100 C 0.07531 0.34809 0.45311 0.0
C101 C 1.01151 0.36809 0.43287 0.0
C102 C 0.98244 0.40081 0.48097 0.0
C103 C 0.97128 0.42963 0.60237 0.0
H104 H 0.9256 0.40663 0.46741 0.0
C105 C 0.9187 0.46423 0.58788 0.0
C106 C 0.85929 0.46124 0.63419 0.0
C107 C 0.96867 0.39821 0.66697 0.0
H108 H 1.00482 0.36868 0.68086 0.0
C109 C 0.91432 0.39942 0.71432 0.0
H110 H 0.92222 0.49171 0.53982 0.0
C111 C 0.85883 0.42909 0.69787 0.0
H112 H 0.81317 0.4237 0.73451 0.0
H113 H 0.91211 0.37365 0.76311 0.0
H114 H 0.52799 0.98273 0.34377 0.0
C115 C 0.46383 0.94445 0.31711 0.0
C116 C 0.43525 0.97892 0.26444 0.0
C117 C 0.41409 0.85998 0.33281 0.0
H118 H 0.33279 0.94947 0.1865 0.0
C119 C 0.35447 0.92551 0.22701 0.0
C120 C 0.30168 0.84197 0.23921 0.0
C121 C 0.3323 0.81041 0.2928 0.0
C122 C 0.4617 0.82228 0.37409 0.0
H123 H 0.29581 0.74617 0.30011 0.0
C124 C 0.44251 0.78357 0.43986 0.0
C125 C 0.49714 0.75335 0.47155 0.0
C126 C 0.53306 0.82636 0.34251 0.0
H127 H 0.55 0.853 0.29352 0.0
C128 C 0.5836 0.7963 0.37173 0.0
H129 H 0.38758 0.77818 0.46602 0.0
C130 C 0.56681 0.76151 0.43471 0.0
H131 H 0.609 0.73968 0.45468 0.0
H132 H 0.63713 0.80007 0.34474 0.0
H133 H 0.32479 0.62326 0.81115 0.0
C134 C 0.28167 0.56057 0.79629 0.0
C135 C 0.30254 0.53067 0.73909 0.0
C136 C 0.21199 0.50992 0.83891 0.0
H137 H 0.26614 0.42479 0.67989 0.0
C138 C 0.25047 0.44782 0.72296 0.0
C139 C 0.1802 0.39338 0.7616 0.0
C140 C 0.16225 0.42525 0.82021 0.0
C141 C 0.21647 0.54222 0.9119 0.0
H142 H 0.11202 0.38381 0.85269 0.0
C143 C 0.16348 0.5722 0.94122 0.0
C144 C 0.18308 0.60531 1.01084 0.0
C145 C 0.28681 0.54793 0.95362 0.0
H146 H 0.32845 0.52723 0.93512 0.0
C147 C 0.30697 0.58115 1.01852 0.0
H148 H 0.10819 0.56883 0.91121 0.0
C149 C 0.25677 0.60898 1.04624 0.0
H150 H 0.27653 0.63403 0.09713 0.0
H151 H 0.36294 0.58529 1.04824 0.0
Tb152 Tb 0.99111 0.17879 0.66717 0.0
Tb153 Tb 0.14585 0.18374 0.64204 0.0
C154 C 0.83999 0.16169 0.66818 0.0
C155 C 0.7664 0.09535 0.70086 0.0
C156 C 0.7587 1.02007 0.6965 0.0
C157 C 0.73555 0.97132 0.75189 0.0
C158 C 0.71349 0.99407 0.8104 0.0
C159 C 0.70775 1.06352 0.81089 0.0
C160 C 0.73381 0.11393 0.75606 0.0
C161 C 0.12777 0.30424 0.73816 0.0
C162 C 1.03103 1.06324 0.74993 0.0
C163 C 0.30026 0.20598 0.63964 0.0
C164 C 0.37352 0.26196 0.5995 0.0
C165 C 0.43628 0.24334 0.58047 0.0
C166 C 0.48623 0.2802 0.52495 0.0
C167 C 0.47037 0.33282 0.48568 0.0
C168 C 0.41121 0.35457 0.50835 0.0
C169 C 0.36654 0.32209 0.56614 0.0
C170 C 1.00592 1.05993 0.56971 0.0
C171 C 0.09567 0.2819 0.54958 0.0
O172 O 0.86746 0.1432 0.61559 0.0
O173 O 0.90596 0.20756 0.71112 0.0
O174 O 0.12726 0.27996 0.67846 0.0
O175 O 1.05196 0.25272 0.76069 0.0
O176 O 0.96717 1.07487 0.72557 0.0
O177 O 0.11348 0.11621 0.73582 0.0
O178 O 0.23146 0.15218 0.60267 0.0
O179 O 0.27692 0.23723 0.68612 0.0
O180 O 1.00842 1.08421 0.62929 0.0
O181 O 0.08356 0.10921 0.54782 0.0
O182 O 0.16441 0.2841 0.58089 0.0
O183 O 1.01605 0.22864 0.56737 0.0
H184 H 0.78078 1.0031 0.65357 0.0
H185 H 0.73398 0.91528 0.74915 0.0
H186 H 0.6897 1.08197 0.85543 0.0
H187 H 0.73971 0.17199 0.76059 0.0
H188 H 0.44275 0.19696 0.60582 0.0
H189 H 0.53359 0.26403 0.51098 0.0
H190 H 0.39531 0.39385 0.48037 0.0
H191 H 0.32122 0.33969 0.5815 0.0
Tb192 Tb 0.6226 0.1944 0.17722 0.0
Tb193 Tb 0.46258 0.18062 0.13822 0.0
C194 C 0.78371 0.23604 0.19178 0.0
C195 C 0.85054 0.27532 0.24802 0.0
C196 C 0.86996 0.34941 0.27549 0.0
C197 C 0.92547 0.38127 0.33387 0.0
C198 C 0.96201 0.33951 0.36623 0.0
C199 C 0.94372 0.26607 0.33745 0.0
C200 C 0.8894 0.23491 0.27851 0.0
C201 C 0.491 1.06816 0.24299 0.0
C202 C 0.55077 0.27197 0.26857 0.0
C203 C 0.31259 0.14587 0.08981 0.0
C204 C 0.25033 1.07305 1.05154 0.0
C205 C 0.24741 1.0019 1.06931 0.0
C206 C 0.22546 0.9427 1.02078 0.0
C207 C 0.20024 0.95149 0.95559 0.0
C208 C 0.19764 1.02054 0.93832 0.0
C209 C 0.22218 1.08098 0.9863 0.0
C210 C 0.59866 0.32263 0.09961 0.0
C211 C 0.51582 1.06892 1.06419 0.0
O212 O 0.75548 0.27958 0.16231 0.0
O213 O 0.71856 0.16335 0.20231 0.0
O214 O 0.48708 0.091 0.18331 0.0
O215 O 0.57077 0.11972 0.26809 0.0
O216 O 0.62371 0.28429 0.24287 0.0
O217 O 0.47295 0.2168 0.24179 0.0
O218 O 0.32826 0.13791 0.15379 0.0
O219 O 0.3856 0.1888 1.05885 0.0
O220 O 0.59198 0.25402 0.09624 0.0
O221 O 0.53019 0.31218 0.1285 0.0
O222 O 0.45016 1.07894 0.07993 0.0
O223 O 0.59692 0.11952 0.08896 0.0
H224 H 0.84058 0.38198 0.2531 0.0
H225 H 0.93827 0.43796 0.35431 0.0
H226 H 0.96726 0.23002 0.36183 0.0
H227 H 0.87441 0.17729 0.25844 0.0
H228 H 0.26879 0.99498 0.11936 0.0
H229 H 0.22592 0.88907 1.03359 0.0
H230 H 0.17944 1.02887 0.8873 0.0
H231 H 0.22664 0.1365 0.97109 0.0
Tb232 Tb 0.5731 0.74573 0.69155 0.0
Tb233 Tb 0.5445 0.62219 0.61333 0.0
C234 C 0.54402 0.84801 0.73945 0.0
C235 C 0.46369 0.84592 0.75893 0.0
C236 C 0.43125 0.88714 0.72027 0.0
C237 C 0.35432 0.88522 0.73677 0.0
C238 C 0.30938 0.84282 0.79274 0.0
C239 C 0.34155 0.80125 0.83136 0.0
C240 C 0.41809 0.80263 0.81453 0.0
C241 C 0.62991 0.65787 0.76627 0.0
C242 C 0.38508 0.58326 0.70052 0.0
C243 C 0.57318 0.51974 0.56428 0.0
C244 C 0.64969 0.50946 0.58097 0.0
C245 C 0.68888 0.52468 0.64694 0.0
C246 C 0.75982 0.51319 0.66344 0.0
C247 C 0.79228 0.48454 0.61465 0.0
C248 C 0.75531 0.47301 0.5479 0.0
C249 C 0.68624 0.4871 0.53117 0.0
C250 C 0.48805 0.71133 0.54037 0.0
C251 C 0.73427 0.78471 0.6083 0.0
O252 O 0.54754 0.8385 0.67532 0.0
O253 O 0.57322 0.80932 0.77598 0.0
O254 O 0.5623 0.63365 0.72347 0.0
O255 O 0.66859 0.73593 0.76345 0.0
O256 O 0.43226 0.66137 0.71237 0.0
O257 O 0.4165 0.55112 0.66051 0.0
O258 O 0.51967 0.50449 0.61214 0.0
O259 O 0.59107 0.58543 0.53409 0.0
O260 O 0.55609 0.73384 0.58192 0.0
O261 O 0.44903 0.63323 0.54132 0.0
O262 O 0.68997 0.7054 0.60307 0.0
O263 O 0.69972 0.81828 0.64299 0.0
H264 H 0.46587 0.9214 0.67746 0.0
H265 H 0.33195 0.91928 0.70729 0.0
H266 H 0.30814 0.76869 0.87518 0.0
H267 H 0.44177 0.77049 0.84537 0.0
H268 H 0.66442 0.54516 0.68604 0.0
H269 H 0.78827 0.52591 0.71482 0.0
H270 H 0.77763 0.45091 0.50854 0.0
H271 H 0.66125 0.47983 0.47936 0.0
Tb272 Tb 0.0672 0.74283 0.11113 0.0
Tb273 Tb 1.0444 0.62403 0.19946 0.0
C274 C 1.03163 0.83356 1.04217 0.0
C275 C 0.95707 0.84743 1.02895 0.0
C276 C 0.86827 0.78926 1.04043 0.0
C277 C 0.7987 0.80221 1.01992 0.0
C278 C 0.81752 0.87392 0.98835 0.0
C279 C 0.90706 0.93365 0.98145 0.0
C280 C 0.97557 0.92039 1.00148 0.0
C281 C 0.21928 0.78913 0.19097 0.0
C282 C 0.97696 0.73212 0.25262 0.0
C283 C 0.08412 0.53804 0.27039 0.0
C284 C 0.16339 0.53004 0.26977 0.0
C285 C 0.18898 0.5132 0.20941 0.0
C286 C 0.27226 0.5209 0.20658 0.0
C287 C 0.331 0.54424 0.26416 0.0
C288 C 0.30378 0.5567 0.32545 0.0
C289 C 0.22078 0.55007 0.32813 0.0
C290 C 0.89253 0.57993 0.12291 0.0
C291 C 0.13124 0.6324 1.05458 0.0
O292 O 1.02122 0.76655 1.01901 0.0
O293 O 0.07211 0.85281 0.10205 0.0
O294 O 0.13903 0.75061 0.20709 0.0
O295 O 0.21437 0.80579 0.12815 0.0
O296 O 0.9825 0.7493 0.18753 0.0
O297 O 1.00298 0.6823 0.27351 0.0
O298 O 0.10102 0.60856 0.28997 0.0
O299 O 1.0274 0.51037 0.21778 0.0
O300 O 0.97168 0.61675 0.10444 0.0
O301 O 0.89809 0.56348 0.18593 0.0
O302 O 0.1233 0.61263 0.11939 0.0
O303 O 0.10899 0.68557 1.03556 0.0
H304 H 0.85279 0.7338 1.06433 0.0
H305 H 0.73046 0.75544 1.02678 0.0
H306 H 0.92438 0.9907 0.95952 0.0
H307 H 1.04318 0.96712 0.99441 0.0
H308 H 0.14605 0.49653 0.16369 0.0
H309 H 0.29114 0.50904 0.15923 0.0
H310 H 0.34787 0.57404 0.37067 0.0
H311 H 0.20274 0.56344 0.37525 0.0
loop_
_geom_bond_atom_site_label_1
_geom_bond_atom_site_label_2
_geom_bond_distance
_geom_bond_site_symmetry_2
_ccdc_geom_bond_type
H0 C1 0.949 . S
C1 H0 0.949 . S
C1 C2 1.395 . S
C1 C3 1.391 . S
C2 C1 1.395 . S
C2 C5 1.390 . S
C3 C1 1.391 . S
C3 C7 1.387 . S
C3 C8 1.491 . S
H4 C5 0.950 . S
C5 C2 1.390 . S
C5 H4 0.950 . S
C5 C6 1.378 . S
C6 C5 1.378 . S
C6 C7 1.409 . S
C7 C3 1.387 . S
C7 C6 1.409 . S
C7 H9 0.951 . S
C8 C3 1.491 . S
C8 C10 1.382 . S
C8 C12 1.404 . S
H9 C7 0.951 . S
C10 C8 1.382 . S
C10 C11 1.390 . S
C10 H15 0.949 . S
C11 C10 1.390 . S
C11 C16 1.399 . S
C12 C8 1.404 . S
C12 H13 0.950 . S
C12 C14 1.375 . S
H13 C12 0.950 . S
C14 C12 1.375 . S
C14 C16 1.382 . S
C14 H18 0.950 . S
H15 C10 0.949 . S
C16 C11 1.399 . S
C16 C14 1.382 . S
C16 H17 0.952 . S
H17 C16 0.952 . S
H18 C14 0.950 . S
H19 C20 0.955 . S
C20 H19 0.955 . S
C20 C21 1.389 1_655 S
C20 C22 1.391 . S
C21 C20 1.389 1_455 S
C21 C24 1.390 . S
C22 C20 1.391 . S
C22 C26 1.387 1_655 S
C22 C27 1.491 . S
H23 C24 0.950 . S
C24 C21 1.390 . S
C24 H23 0.950 . S
C24 C25 1.378 . S
C25 C24 1.378 . S
C25 C26 1.409 . S
C26 C22 1.387 1_455 S
C26 C25 1.409 . S
C26 H28 0.951 . S
C27 C22 1.491 . S
C27 C29 1.382 . S
C27 C31 1.404 . S
H28 C26 0.951 . S
C29 C27 1.382 . S
C29 C30 1.390 . S
C29 H34 0.949 . S
C30 C29 1.390 . S
C30 C35 1.399 . S
C31 C27 1.404 . S
C31 H32 0.950 . S
C31 C33 1.375 . S
H32 C31 0.950 . S
C33 C31 1.375 . S
C33 C35 1.382 . S
C33 H37 0.950 . S
H34 C29 0.949 . S
C35 C30 1.399 . S
C35 C33 1.382 . S
C35 H36 0.952 . S
H36 C35 0.952 . S
H37 C33 0.950 . S
H38 C39 0.949 . S
C39 H38 0.949 . S
C39 C40 1.395 . S
C39 C41 1.391 . S
C40 C39 1.395 . S
C40 C43 1.390 1_556 S
C41 C39 1.391 . S
C41 C45 1.387 . S
C41 C46 1.491 . S
H42 C43 0.950 . S
C43 C40 1.390 1_554 S
C43 H42 0.950 . S
C43 C44 1.378 1_554 S
C44 C43 1.378 1_556 S
C44 C45 1.409 . S
C45 C41 1.387 . S
C45 C44 1.409 . S
C45 H47 0.951 . S
C46 C41 1.491 . S
C46 C48 1.382 . S
C46 C50 1.404 . S
H47 C45 0.951 . S
C48 C46 1.382 . S
C48 C49 1.390 . S
C48 H53 0.949 . S
C49 C48 1.390 . S
C49 C54 1.399 . S
C50 C46 1.404 . S
C50 H51 0.950 . S
C50 C52 1.375 . S
H51 C50 0.950 . S
C52 C50 1.375 . S
C52 C54 1.382 . S
C52 H56 0.950 . S
H53 C48 0.949 . S
C54 C49 1.399 . S
C54 C52 1.382 . S
C54 H55 0.952 . S
H55 C54 0.952 . S
H56 C52 0.950 . S
H57 C58 0.949 . S
C58 H57 0.949 . S
C58 C59 1.395 . S
C58 C60 1.391 . S
C59 C58 1.395 . S
C59 C62 1.390 . S
C60 C58 1.391 . S
C60 C64 1.387 . S
C60 C65 1.491 . S
H61 C62 0.950 . S
C62 C59 1.390 . S
C62 H61 0.950 . S
C62 C63 1.378 . S
C63 C62 1.378 . S
C63 C64 1.409 . S
C64 C60 1.387 . S
C64 C63 1.409 . S
C64 H66 0.951 . S
C65 C60 1.491 . S
C65 C67 1.382 . S
C65 C69 1.404 . S
H66 C64 0.951 . S
C67 C65 1.382 . S
C67 C68 1.390 . S
C67 H72 0.949 . S
C68 C67 1.390 . S
C68 C73 1.399 . S
C69 C65 1.404 . S
C69 H70 0.950 . S
C69 C71 1.375 . S
H70 C69 0.950 . S
C71 C69 1.375 . S
C71 C73 1.382 . S
C71 H75 0.950 . S
H72 C67 0.949 . S
C73 C68 1.399 . S
C73 C71 1.382 . S
C73 H74 0.952 . S
H74 C73 0.952 . S
H75 C71 0.950 . S
H76 C77 0.949 . S
C77 H76 0.949 . S
C77 C78 1.395 . S
C77 C79 1.391 . S
C78 C77 1.395 . S
C78 C81 1.390 . S
C79 C77 1.391 . S
C79 C83 1.387 . S
C79 C84 1.491 . S
H80 C81 0.950 . S
C81 C78 1.390 . S
C81 H80 0.950 . S
C81 C82 1.378 . S
C82 C81 1.378 . S
C82 C83 1.409 . S
C83 C79 1.387 . S
C83 C82 1.409 . S
C83 H85 0.951 . S
C84 C79 1.491 . S
C84 C86 1.382 . S
C84 C88 1.404 . S
H85 C83 0.951 . S
C86 C84 1.382 . S
C86 C87 1.390 1_556 S
C86 H91 0.949 1_556 S
C87 C86 1.390 1_554 S
C87 C92 1.399 1_554 S
C88 C84 1.404 . S
C88 H89 0.950 . S
C88 C90 1.375 . S
H89 C88 0.950 . S
C90 C88 1.375 . S
C90 C92 1.382 . S
C90 H94 0.950 . S
H91 C86 0.949 1_554 S
C92 C87 1.399 1_556 S
C92 C90 1.382 . S
C92 H93 0.952 . S
H93 C92 0.952 . S
H94 C90 0.950 . S
H95 C96 0.949 . S
C96 H95 0.949 . S
C96 C97 1.395 . S
C96 C98 1.391 1_455 S
C97 C96 1.395 . S
C97 C100 1.390 . S
C98 C96 1.391 1_655 S
C98 C102 1.387 . S
C98 C103 1.491 . S
H99 C100 0.950 . S
C100 C97 1.390 . S
C100 H99 0.950 . S
C100 C101 1.378 1_455 S
C101 C100 1.378 1_655 S
C101 C102 1.409 . S
C102 C98 1.387 . S
C102 C101 1.409 . S
C102 H104 0.951 . S
C103 C98 1.491 . S
C103 C105 1.382 . S
C103 C107 1.404 . S
H104 C102 0.951 . S
C105 C103 1.382 . S
C105 C106 1.390 . S
C105 H110 0.949 1_655 S
C106 C105 1.390 . S
C106 C111 1.399 . S
C107 C103 1.404 . S
C107 H108 0.950 . S
C107 C109 1.375 . S
H108 C107 0.950 . S
C109 C107 1.375 . S
C109 C111 1.382 . S
C109 H113 0.950 . S
H110 C105 0.949 1_455 S
C111 C106 1.399 . S
C111 C109 1.382 . S
C111 H112 0.952 . S
H112 C111 0.952 . S
H113 C109 0.950 . S
H114 C115 0.949 . S
C115 H114 0.949 . S
C115 C116 1.395 . S
C115 C117 1.391 . S
C116 C115 1.395 . S
C116 C119 1.390 . S
C117 C115 1.391 . S
C117 C121 1.387 . S
C117 C122 1.491 . S
H118 C119 0.950 . S
C119 C116 1.390 . S
C119 H118 0.950 . S
C119 C120 1.378 . S
C120 C119 1.378 . S
C120 C121 1.409 . S
C121 C117 1.387 . S
C121 C120 1.409 . S
C121 H123 0.951 . S
C122 C117 1.491 . S
C122 C124 1.382 . S
C122 C126 1.404 . S
H123 C121 0.951 . S
C124 C122 1.382 . S
C124 C125 1.390 . S
C124 H129 0.949 . S
C125 C124 1.390 . S
C125 C130 1.399 . S
C126 C122 1.404 . S
C126 H127 0.950 . S
C126 C128 1.375 . S
H127 C126 0.950 . S
C128 C126 1.375 . S
C128 C130 1.382 . S
C128 H132 0.950 . S
H129 C124 0.949 . S
C130 C125 1.399 . S
C130 C128 1.382 . S
C130 H131 0.952 . S
H131 C130 0.952 . S
H132 C128 0.950 . S
H133 C134 0.949 . S
C134 H133 0.949 . S
C134 C135 1.395 . S
C134 C136 1.391 . S
C135 C134 1.395 . S
C135 C138 1.390 . S
C136 C134 1.391 . S
C136 C140 1.387 . S
C136 C141 1.491 . S
H137 C138 0.950 . S
C138 C135 1.390 . S
C138 H137 0.950 . S
C138 C139 1.378 . S
C139 C138 1.378 . S
C139 C140 1.409 . S
C140 C136 1.387 . S
C140 C139 1.409 . S
C140 H142 0.951 . S
C141 C136 1.491 . S
C141 C143 1.382 . S
C141 C145 1.404 . S
H142 C140 0.951 . S
C143 C141 1.382 . S
C143 C144 1.390 . S
C143 H148 0.949 . S
C144 C143 1.390 . S
C144 C149 1.399 . S
C145 C141 1.404 . S
C145 H146 0.950 . S
C145 C147 1.375 . S
H146 C145 0.950 . S
C147 C145 1.375 . S
C147 C149 1.382 . S
C147 H151 0.950 . S
H148 C143 0.949 . S
C149 C144 1.399 . S
C149 C147 1.382 . S
C149 H150 0.952 . S
H150 C149 0.952 . S
H151 C147 0.950 . S
Tb152 C154 2.809 1_545 S
Tb152 O172 2.484 1_545 S
Tb152 O173 2.440 . S
Tb152 O174 2.658 1_655 S
Tb152 O175 2.409 1_655 S
Tb152 O176 2.378 . S
Tb152 O180 2.325 1_545 S
Tb152 O183 2.341 . S
Tb153 C163 2.809 . S
Tb153 O174 2.325 . S
Tb153 O177 2.344 . S
Tb153 O178 2.484 . S
Tb153 O179 2.440 . S
Tb153 O180 2.658 1_445 S
Tb153 O181 2.409 1_545 S
Tb153 O182 2.378 . S
C154 Tb152 2.809 1_565 S
C154 C155 1.514 . S
C154 O172 1.248 . S
C154 O173 1.266 1_565 S
C155 C154 1.514 . S
C155 C156 1.359 . S
C155 C160 1.348 . S
C156 C155 1.359 . S
C156 C157 1.380 . S
C156 H184 0.929 . S
C157 C156 1.380 . S
C157 C158 1.347 . S
C157 H185 0.931 . S
C158 C157 1.347 . S
C158 C159 1.369 . S
C159 C158 1.369 . S
C159 C160 1.408 . S
C159 H186 0.930 . S
C160 C155 1.348 . S
C160 C159 1.408 . S
C160 H187 0.930 . S
C161 O174 1.281 . S
C161 O175 1.254 . S
C162 O176 1.236 1_465 S
C162 O177 1.266 1_565 S
C163 Tb153 2.809 . S
C163 C164 1.514 . S
C163 O178 1.248 . S
C163 O179 1.266 . S
C164 C163 1.514 . S
C164 C165 1.359 . S
C164 C169 1.348 . S
C165 C164 1.359 . S
C165 C166 1.380 . S
C165 H188 0.929 . S
C166 C165 1.380 . S
C166 C167 1.347 . S
C166 H189 0.931 . S
C167 C166 1.347 . S
C167 C168 1.369 . S
C168 C167 1.369 . S
C168 C169 1.408 . S
C168 H190 0.930 . S
C169 C164 1.348 . S
C169 C168 1.408 . S
C169 H191 0.930 . S
C170 O180 1.281 . S
C170 O181 1.254 1_655 S
C171 O182 1.236 1_655 S
C171 O183 1.266 . S
O172 Tb152 2.484 1_565 S
O172 C154 1.248 . S
O173 Tb152 2.440 . S
O173 C154 1.266 1_545 S
O174 Tb152 2.658 1_455 S
O174 Tb153 2.325 . S
O174 C161 1.281 . S
O175 Tb152 2.409 1_455 S
O175 C161 1.254 . S
O176 Tb152 2.378 . S
O176 C162 1.236 1_645 S
O177 Tb153 2.344 . S
O177 C162 1.266 1_545 S
O178 Tb153 2.484 . S
O178 C163 1.248 . S
O179 Tb153 2.440 . S
O179 C163 1.266 . S
O180 Tb152 2.325 1_565 S
O180 Tb153 2.658 1_665 S
O180 C170 1.281 . S
O181 Tb153 2.409 1_565 S
O181 C170 1.254 1_455 S
O182 Tb153 2.378 . S
O182 C171 1.236 1_455 S
O183 Tb152 2.341 . S
O183 C171 1.266 . S
H184 C156 0.929 . S
H185 C157 0.931 . S
H186 C159 0.930 . S
H187 C160 0.930 . S
H188 C165 0.929 . S
H189 C166 0.931 . S
H190 C168 0.930 . S
H191 C169 0.930 . S
Tb192 C194 2.809 . S
Tb192 O212 2.484 . S
Tb192 O213 2.440 . S
Tb192 O214 2.658 1_545 S
Tb192 O215 2.409 1_545 S
Tb192 O216 2.378 . S
Tb192 O220 2.325 . S
Tb192 O223 2.341 1_545 S
Tb193 C203 2.809 1_544 S
Tb193 O214 2.325 1_545 S
Tb193 O217 2.341 . S
Tb193 O218 2.484 1_545 S
Tb193 O219 2.440 1_544 S
Tb193 O220 2.658 . S
Tb193 O221 2.409 1_554 S
Tb193 O222 2.378 1_545 S
C194 Tb192 2.809 . S
C194 C195 1.514 . S
C194 O212 1.248 . S
C194 O213 1.266 . S
C195 C194 1.514 . S
C195 C196 1.359 . S
C195 C200 1.348 . S
C196 C195 1.359 . S
C196 C197 1.380 . S
C196 H224 0.929 . S
C197 C196 1.380 . S
C197 C198 1.347 . S
C197 H225 0.931 . S
C198 C197 1.347 . S
C198 C199 1.369 . S
C199 C198 1.369 . S
C199 C200 1.408 . S
C199 H226 0.930 . S
C200 C195 1.348 . S
C200 C199 1.408 . S
C200 H227 0.930 . S
C201 O214 1.281 . S
C201 O215 1.254 . S
C202 O216 1.236 . S
C202 O217 1.266 . S
C203 Tb193 2.809 1_566 S
C203 C204 1.514 . S
C203 O218 1.248 1_556 S
C203 O219 1.266 . S
C204 C203 1.514 . S
C204 C205 1.359 . S
C204 C209 1.348 . S
C205 C204 1.359 . S
C205 C206 1.380 . S
C205 H228 0.929 . S
C206 C205 1.380 . S
C206 C207 1.347 . S
C206 H229 0.931 . S
C207 C206 1.347 . S
C207 C208 1.369 . S
C208 C207 1.369 . S
C208 C209 1.408 . S
C208 H230 0.930 . S
C209 C204 1.348 . S
C209 C208 1.408 . S
C209 H231 0.930 . S
C210 O220 1.281 . S
C210 O221 1.254 1_554 S
C211 O222 1.236 . S
C211 O223 1.266 . S
O212 Tb192 2.484 . S
O212 C194 1.248 . S
O213 Tb192 2.440 . S
O213 C194 1.266 . S
O214 Tb192 2.658 1_565 S
O214 Tb193 2.325 1_565 S
O214 C201 1.281 . S
O215 Tb192 2.409 1_565 S
O215 C201 1.254 . S
O216 Tb192 2.378 . S
O216 C202 1.236 . S
O217 Tb193 2.341 . S
O217 C202 1.266 . S
O218 Tb193 2.484 1_565 S
O218 C203 1.248 1_554 S
O219 Tb193 2.440 1_566 S
O219 C203 1.266 . S
O220 Tb192 2.325 . S
O220 Tb193 2.658 . S
O220 C210 1.281 . S
O221 Tb193 2.409 1_556 S
O221 C210 1.254 1_556 S
O222 Tb193 2.378 1_565 S
O222 C211 1.236 . S
O223 Tb192 2.341 1_565 S
O223 C211 1.266 . S
H224 C196 0.929 . S
H225 C197 0.931 . S
H226 C199 0.930 . S
H227 C200 0.930 . S
H228 C205 0.929 . S
H229 C206 0.931 . S
H230 C208 0.930 . S
H231 C209 0.930 . S
Tb232 C234 2.809 . S
Tb232 O252 2.484 . S
Tb232 O253 2.440 . S
Tb232 O254 2.658 . S
Tb232 O255 2.409 . S
Tb232 O256 2.378 . S
Tb232 O260 2.325 . S
Tb232 O263 2.341 . S
Tb233 C243 2.809 . S
Tb233 O254 2.325 . S
Tb233 O257 2.341 . S
Tb233 O258 2.484 . S
Tb233 O259 2.440 . S
Tb233 O260 2.658 . S
Tb233 O261 2.409 . S
Tb233 O262 2.378 . S
C234 Tb232 2.809 . S
C234 C235 1.514 . S
C234 O252 1.248 . S
C234 O253 1.266 . S
C235 C234 1.514 . S
C235 C236 1.359 . S
C235 C240 1.348 . S
C236 C235 1.359 . S
C236 C237 1.380 . S
C236 H264 0.929 . S
C237 C236 1.380 . S
C237 C238 1.347 . S
C237 H265 0.931 . S
C238 C237 1.347 . S
C238 C239 1.369 . S
C239 C238 1.369 . S
C239 C240 1.408 . S
C239 H266 0.930 . S
C240 C235 1.348 . S
C240 C239 1.408 . S
C240 H267 0.930 . S
C241 O254 1.281 . S
C241 O255 1.254 . S
C242 O256 1.236 . S
C242 O257 1.266 . S
C243 Tb233 2.809 . S
C243 C244 1.514 . S
C243 O258 1.248 . S
C243 O259 1.266 . S
C244 C243 1.514 . S
C244 C245 1.359 . S
C244 C249 1.348 . S
C245 C244 1.359 . S
C245 C246 1.380 . S
C245 H268 0.929 . S
C246 C245 1.380 . S
C246 C247 1.347 . S
C246 H269 0.931 . S
C247 C246 1.347 . S
C247 C248 1.369 . S
C248 C247 1.369 . S
C248 C249 1.408 . S
C248 H270 0.930 . S
C249 C244 1.348 . S
C249 C248 1.408 . S
C249 H271 0.930 . S
C250 O260 1.281 . S
C250 O261 1.254 . S
C251 O262 1.236 . S
C251 O263 1.266 . S
O252 Tb232 2.484 . S
O252 C234 1.248 . S
O253 Tb232 2.440 . S
O253 C234 1.266 . S
O254 Tb232 2.658 . S
O254 Tb233 2.325 . S
O254 C241 1.281 . S
O255 Tb232 2.409 . S
O255 C241 1.254 . S
O256 Tb232 2.378 . S
O256 C242 1.236 . S
O257 Tb233 2.341 . S
O257 C242 1.266 . S
O258 Tb233 2.484 . S
O258 C243 1.248 . S
O259 Tb233 2.440 . S
O259 C243 1.266 . S
O260 Tb232 2.325 . S
O260 Tb233 2.658 . S
O260 C250 1.281 . S
O261 Tb233 2.409 . S
O261 C250 1.254 . S
O262 Tb233 2.378 . S
O262 C251 1.236 . S
O263 Tb232 2.341 . S
O263 C251 1.266 . S
H264 C236 0.929 . S
H265 C237 0.931 . S
H266 C239 0.930 . S
H267 C240 0.930 . S
H268 C245 0.929 . S
H269 C246 0.931 . S
H270 C248 0.930 . S
H271 C249 0.930 . S
Tb272 C274 2.809 1_455 S
Tb272 O292 2.484 1_455 S
Tb272 O293 2.440 . S
Tb272 O294 2.658 1_556 S
Tb272 O295 2.409 1_556 S
Tb272 O296 2.378 1_556 S
Tb272 O300 2.325 1_456 S
Tb272 O303 2.341 . S
Tb273 C283 2.809 . S
Tb273 O294 2.325 . S
Tb273 O297 2.341 1_455 S
Tb273 O298 2.484 . S
Tb273 O299 2.440 . S
Tb273 O300 2.658 1_455 S
Tb273 O301 2.409 1_455 S
Tb273 O302 2.378 1_554 S
C274 Tb272 2.809 1_655 S
C274 C275 1.514 . S
C274 O292 1.248 . S
C274 O293 1.266 1_655 S
C275 C274 1.514 . S
C275 C276 1.359 . S
C275 C280 1.348 . S
C276 C275 1.359 . S
C276 C277 1.380 . S
C276 H304 0.929 . S
C277 C276 1.380 . S
C277 C278 1.347 . S
C277 H305 0.931 . S
C278 C277 1.347 . S
C278 C279 1.369 . S
C279 C278 1.369 . S
C279 C280 1.408 . S
C279 H306 0.930 1_565 S
C280 C275 1.348 . S
C280 C279 1.408 . S
C280 H307 0.930 1_655 S
C281 O294 1.281 . S
C281 O295 1.254 . S
C282 O296 1.236 1_655 S
C282 O297 1.266 . S
C283 Tb273 2.809 . S
C283 C284 1.514 . S
C283 O298 1.248 . S
C283 O299 1.266 . S
C284 C283 1.514 . S
C284 C285 1.359 . S
C284 C289 1.348 . S
C285 C284 1.359 . S
C285 C286 1.380 . S
C285 H308 0.929 . S
C286 C285 1.380 . S
C286 C287 1.347 . S
C286 H309 0.931 . S
C287 C286 1.347 . S
C287 C288 1.369 . S
C288 C287 1.369 . S
C288 C289 1.408 . S
C288 H310 0.930 . S
C289 C284 1.348 . S
C289 C288 1.408 . S
C289 H311 0.930 . S
C290 O300 1.281 1_556 S
C290 O301 1.254 1_556 S
C291 O302 1.236 . S
C291 O303 1.266 . S
O292 Tb272 2.484 1_655 S
O292 C274 1.248 . S
O293 Tb272 2.440 . S
O293 C274 1.266 1_455 S
O294 Tb272 2.658 1_554 S
O294 Tb273 2.325 . S
O294 C281 1.281 . S
O295 Tb272 2.409 1_554 S
O295 C281 1.254 . S
O296 Tb272 2.378 1_554 S
O296 C282 1.236 1_455 S
O297 Tb273 2.341 1_655 S
O297 C282 1.266 . S
O298 Tb273 2.484 . S
O298 C283 1.248 . S
O299 Tb273 2.440 . S
O299 C283 1.266 . S
O300 Tb272 2.325 1_654 S
O300 Tb273 2.658 1_655 S
O300 C290 1.281 1_554 S
O301 Tb273 2.409 1_655 S
O301 C290 1.254 1_554 S
O302 Tb273 2.378 1_556 S
O302 C291 1.236 . S
O303 Tb272 2.341 . S
O303 C291 1.266 . S
H304 C276 0.929 . S
H305 C277 0.931 . S
H306 C279 0.930 1_545 S
H307 C280 0.930 1_455 S
H308 C285 0.929 . S
H309 C286 0.931 . S
H310 C288 0.930 . S
H311 C289 0.930 . S
C6 C167 2.471 . S
C21 C207 1.039 . S
C241 C49 3.569 . S
C68 C282 3.434 . S
C202 C2 2.885 . S
C162 C30 3.713 1_455 S
C290 C40 2.636 . S
C251 C63 2.901 . S
C11 C287 2.722 . S
C210 C44 3.585 1_554 S
C59 C170 2.822 . S
C25 C238 3.591 . S
C158 C82 1.536 . S
C101 C198 1.511 . S
C125 C250 2.980 . S
C144 C291 3.488 . S
C87 C211 3.158 . S
C171 C97 3.418 1_655 S
C281 C120 2.899 . S
C242 C135 2.810 . S
C78 C278 4.426 . S
C201 C116 2.412 . S
C161 C139 3.790 . S
C106 C247 1.801 . S
