# Generated by pormake.
# Topology ctn, (3,4)-cn, num edge types: 1
# Building blocks:
#     Node 0, Type 0, BuildingBlock: VETTIZ_charged_linker_0, # of connection points: 3
#     Node 1, Type 0, BuildingBlock: VETTIZ_charged_linker_0, # of connection points: 3
#     Node 2, Type 0, BuildingBlock: VETTIZ_charged_linker_0, # of connection points: 3
#     Node 3, Type 0, BuildingBlock: VETTIZ_charged_linker_0, # of connection points: 3
#     Node 4, Type 0, BuildingBlock: VETTIZ_charged_linker_0, # of connection points: 3
#     Node 5, Type 0, BuildingBlock: VETTIZ_charged_linker_0, # of connection points: 3
#     Node 6, Type 0, BuildingBlock: VETTIZ_charged_linker_0, # of connection points: 3
#     Node 7, Type 0, BuildingBlock: VETTIZ_charged_linker_0, # of connection points: 3
#     Node 8, Type 0, BuildingBlock: VETTIZ_charged_linker_0, # of connection points: 3
#     Node 9, Type 0, BuildingBlock: VETTIZ_charged_linker_0, # of connection points: 3
#     Node 10, Type 0, BuildingBlock: VETTIZ_charged_linker_0, # of connection points: 3
#     Node 11, Type 0, BuildingBlock: VETTIZ_charged_linker_0, # of connection points: 3
#     Node 12, Type 0, BuildingBlock: VETTIZ_charged_linker_0, # of connection points: 3
#     Node 13, Type 0, BuildingBlock: VETTIZ_charged_linker_0, # of connection points: 3
#     Node 14, Type 0, BuildingBlock: VETTIZ_charged_linker_0, # of connection points: 3
#     Node 15, Type 0, BuildingBlock: VETTIZ_charged_linker_0, # of connection points: 3
#     Node 16, Type 1, BuildingBlock: KUFVIS_clean_sbu_0, # of connection points: 4
#     Node 17, Type 1, BuildingBlock: KUFVIS_clean_sbu_0, # of connection points: 4
#     Node 18, Type 1, BuildingBlock: KUFVIS_clean_sbu_0, # of connection points: 4
#     Node 19, Type 1, BuildingBlock: KUFVIS_clean_sbu_0, # of connection points: 4
#     Node 20, Type 1, BuildingBlock: KUFVIS_clean_sbu_0, # of connection points: 4
#     Node 21, Type 1, BuildingBlock: KUFVIS_clean_sbu_0, # of connection points: 4
#     Node 22, Type 1, BuildingBlock: KUFVIS_clean_sbu_0, # of connection points: 4
#     Node 23, Type 1, BuildingBlock: KUFVIS_clean_sbu_0, # of connection points: 4
#     Node 24, Type 1, BuildingBlock: KUFVIS_clean_sbu_0, # of connection points: 4
#     Node 25, Type 1, BuildingBlock: KUFVIS_clean_sbu_0, # of connection points: 4
#     Node 26, Type 1, BuildingBlock: KUFVIS_clean_sbu_0, # of connection points: 4
#     Node 27, Type 1, BuildingBlock: KUFVIS_clean_sbu_0, # of connection points: 4
#     Edge 28, Type (0, 1), BuildingBlock: OJICUG_clean_linker_0, # of connection points: 2
#     Edge 29, Type (0, 1), BuildingBlock: OJICUG_clean_linker_0, # of connection points: 2
#     Edge 30, Type (0, 1), BuildingBlock: OJICUG_clean_linker_0, # of connection points: 2
#     Edge 31, Type (0, 1), BuildingBlock: OJICUG_clean_linker_0, # of connection points: 2
#     Edge 32, Type (0, 1), BuildingBlock: OJICUG_clean_linker_0, # of connection points: 2
#     Edge 33, Type (0, 1), BuildingBlock: OJICUG_clean_linker_0, # of connection points: 2
#     Edge 34, Type (0, 1), BuildingBlock: OJICUG_clean_linker_0, # of connection points: 2
#     Edge 35, Type (0, 1), BuildingBlock: OJICUG_clean_linker_0, # of connection points: 2
#     Edge 36, Type (0, 1), BuildingBlock: OJICUG_clean_linker_0, # of connection points: 2
#     Edge 37, Type (0, 1), BuildingBlock: OJICUG_clean_linker_0, # of connection points: 2
#     Edge 38, Type (0, 1), BuildingBlock: OJICUG_clean_linker_0, # of connection points: 2
#     Edge 39, Type (0, 1), BuildingBlock: OJICUG_clean_linker_0, # of connection points: 2
#     Edge 40, Type (0, 1), BuildingBlock: OJICUG_clean_linker_0, # of connection points: 2
#     Edge 41, Type (0, 1), BuildingBlock: OJICUG_clean_linker_0, # of connection points: 2
#     Edge 42, Type (0, 1), BuildingBlock: OJICUG_clean_linker_0, # of connection points: 2
#     Edge 43, Type (0, 1), BuildingBlock: OJICUG_clean_linker_0, # of connection points: 2
#     Edge 44, Type (0, 1), BuildingBlock: OJICUG_clean_linker_0, # of connection points: 2
#     Edge 45, Type (0, 1), BuildingBlock: OJICUG_clean_linker_0, # of connection points: 2
#     Edge 46, Type (0, 1), BuildingBlock: OJICUG_clean_linker_0, # of connection points: 2
#     Edge 47, Type (0, 1), BuildingBlock: OJICUG_clean_linker_0, # of connection points: 2
#     Edge 48, Type (0, 1), BuildingBlock: OJICUG_clean_linker_0, # of connection points: 2
#     Edge 49, Type (0, 1), BuildingBlock: OJICUG_clean_linker_0, # of connection points: 2
#     Edge 50, Type (0, 1), BuildingBlock: OJICUG_clean_linker_0, # of connection points: 2
#     Edge 51, Type (0, 1), BuildingBlock: OJICUG_clean_linker_0, # of connection points: 2
#     Edge 52, Type (0, 1), BuildingBlock: OJICUG_clean_linker_0, # of connection points: 2
#     Edge 53, Type (0, 1), BuildingBlock: OJICUG_clean_linker_0, # of connection points: 2
#     Edge 54, Type (0, 1), BuildingBlock: OJICUG_clean_linker_0, # of connection points: 2
#     Edge 55, Type (0, 1), BuildingBlock: OJICUG_clean_linker_0, # of connection points: 2
#     Edge 56, Type (0, 1), BuildingBlock: OJICUG_clean_linker_0, # of connection points: 2
#     Edge 57, Type (0, 1), BuildingBlock: OJICUG_clean_linker_0, # of connection points: 2
#     Edge 58, Type (0, 1), BuildingBlock: OJICUG_clean_linker_0, # of connection points: 2
#     Edge 59, Type (0, 1), BuildingBlock: OJICUG_clean_linker_0, # of connection points: 2
#     Edge 60, Type (0, 1), BuildingBlock: OJICUG_clean_linker_0, # of connection points: 2
#     Edge 61, Type (0, 1), BuildingBlock: OJICUG_clean_linker_0, # of connection points: 2
#     Edge 62, Type (0, 1), BuildingBlock: OJICUG_clean_linker_0, # of connection points: 2
#     Edge 63, Type (0, 1), BuildingBlock: OJICUG_clean_linker_0, # of connection points: 2
#     Edge 64, Type (0, 1), BuildingBlock: OJICUG_clean_linker_0, # of connection points: 2
#     Edge 65, Type (0, 1), BuildingBlock: OJICUG_clean_linker_0, # of connection points: 2
#     Edge 66, Type (0, 1), BuildingBlock: OJICUG_clean_linker_0, # of connection points: 2
#     Edge 67, Type (0, 1), BuildingBlock: OJICUG_clean_linker_0, # of connection points: 2
#     Edge 68, Type (0, 1), BuildingBlock: OJICUG_clean_linker_0, # of connection points: 2
#     Edge 69, Type (0, 1), BuildingBlock: OJICUG_clean_linker_0, # of connection points: 2
#     Edge 70, Type (0, 1), BuildingBlock: OJICUG_clean_linker_0, # of connection points: 2
#     Edge 71, Type (0, 1), BuildingBlock: OJICUG_clean_linker_0, # of connection points: 2
#     Edge 72, Type (0, 1), BuildingBlock: OJICUG_clean_linker_0, # of connection points: 2
#     Edge 73, Type (0, 1), BuildingBlock: OJICUG_clean_linker_0, # of connection points: 2
#     Edge 74, Type (0, 1), BuildingBlock: OJICUG_clean_linker_0, # of connection points: 2
#     Edge 75, Type (0, 1), BuildingBlock: OJICUG_clean_linker_0, # of connection points: 2
# Relax obj value: 0.012
# Max RMSD: 0.062
# Mean RMSD: 0.030
data_MOF--net-ctn--node1-KUFVIS_clean_sbu_0--node2-VETTIZ_charged_linker_0--edge1-OJICUG_clean_linker_0
_symmetry_space_group_name_H-M    P1
_symmetry_Int_Tables_number       1
_symmetry_cell_setting            triclinic
loop_
_symmetry_equiv_pos_as_xyz
'x, y, z'
_cell_length_a     51.273367
_cell_length_b     51.177572
_cell_length_c     51.420279
_cell_angle_alpha  91.001997
_cell_angle_beta   90.266196
_cell_angle_gamma 91.554998
loop_
_atom_site_label
_atom_site_type_symbol
_atom_site_fract_x
_atom_site_fract_y
_atom_site_fract_z
_atom_type_partial_charge
C0 C 0.03982 0.11715 0.98773 0.0
C1 C 0.01693 0.13181 0.9901 0.0
C2 C 0.99849 0.12409 0.00909 0.0
C3 C 0.02587 0.0889 0.02296 0.0
C4 C 0.04365 0.09572 1.00398 0.0
C5 C 0.06598 0.07714 1.00279 0.0
H6 H 0.12291 0.9679 0.04689 0.0
C7 C 0.03558 0.06574 0.0366 0.0
C8 C 0.05897 0.05853 0.02462 0.0
H9 H 0.14824 0.0173 0.98389 0.0
H10 H 0.11245 0.04583 0.99204 0.0
H11 H 0.11149 0.01519 0.08607 0.0
H12 H 0.06106 0.96914 0.03502 0.0
H13 H 0.04566 0.97212 0.06544 0.0
H14 H 0.07652 0.95629 0.0633 0.0
H15 H 0.10007 0.98299 0.09442 0.0
H16 H 0.08154 0.01161 0.10213 0.0
C17 C 0.0916 0.09286 0.00871 0.0
C18 C 0.06525 0.06319 0.97579 0.0
C19 C 0.98642 0.02991 0.11499 0.0
C20 C 0.99113 0.00932 0.13215 0.0
C21 C 0.01337 0.99412 0.12795 0.0
C22 C 0.03038 0.99917 0.10721 0.0
C23 C 0.02537 0.01976 0.09032 0.0
C24 C 1.00375 0.03481 0.09441 0.0
C25 C 1.00171 0.05606 0.07461 0.0
C26 C 0.0259 0.05152 0.05825 0.0
C27 C 0.03957 0.03008 0.06744 0.0
C28 C 1.00326 0.08274 0.08926 0.0
C29 C 0.97624 0.05113 0.05871 0.0
C30 C 0.12096 0.98495 0.03495 0.0
C31 C 0.13847 0.98997 0.01445 0.0
C32 C 0.13485 0.01246 0.99941 0.0
C33 C 0.11405 0.02915 1.00424 0.0
C34 C 0.09644 0.02349 0.02437 0.0
C35 C 0.10026 1.00187 0.03954 0.0
C36 C 0.07993 0.99921 0.06044 0.0
C37 C 0.06283 0.02228 0.05482 0.0
C38 C 0.07256 0.03648 0.03363 0.0
C39 C 0.09379 1.00219 0.08724 0.0
C40 C 0.06499 0.97277 0.0561 0.0
H41 H 0.98808 0.0984 0.03947 0.0
H42 H 0.05464 0.12212 0.97361 0.0
H43 H 0.04482 0.06008 0.96877 0.0
H44 H 0.0733 0.04341 0.97613 0.0
H45 H 0.07587 0.07495 0.96106 0.0
H46 H 0.08862 0.10747 0.02462 0.0
H47 H 0.09842 0.1036 0.99131 0.0
H48 H 0.10743 0.08051 0.01562 0.0
H49 H 0.96943 0.04184 0.11728 0.0
H50 H 0.01792 0.97846 0.14096 0.0
H51 H 0.04685 0.98684 0.10519 0.0
H52 H 0.01877 0.08279 0.10447 0.0
H53 H 0.9845 0.08688 0.09902 0.0
H54 H 0.00842 0.09922 0.07656 0.0
H55 H 0.97094 0.02991 0.05742 0.0
H56 H 0.97813 0.05719 0.03825 0.0
H57 H 0.95959 0.06125 0.06778 0.0
H58 H 0.98021 0.13397 0.01111 0.0
C59 C 1.00291 0.10304 0.02552 0.0
C60 C 0.26684 0.62548 0.214 0.0
C61 C 0.24424 0.62062 0.19891 0.0
C62 C 0.23892 0.63748 0.17822 0.0
C63 C 0.2775 0.66424 0.18913 0.0
C64 C 0.28294 0.64727 0.20893 0.0
C65 C 0.30684 0.65561 0.22423 0.0
H66 H 0.40562 0.74279 0.24782 0.0
C67 C 0.2976 0.68569 0.19007 0.0
C68 C 0.31476 0.68064 0.21066 0.0
H69 H 0.38702 0.67125 0.28828 0.0
H70 H 0.35101 0.66231 0.25917 0.0
H71 H 0.34774 0.76128 0.24408 0.0
H72 H 0.39386 0.71924 0.1883 0.0
H73 H 0.37794 0.74447 0.17225 0.0
H74 H 0.40085 0.75261 0.19796 0.0
H75 H 0.37252 0.77741 0.2252 0.0
H76 H 0.33954 0.77269 0.21318 0.0
C77 C 0.29856 0.66083 0.2528 0.0
C78 C 0.32743 0.63421 0.22072 0.0
C79 C 0.29473 0.76015 0.12557 0.0
C80 C 0.30948 0.78357 0.12313 0.0
C81 C 0.32991 0.7892 0.14093 0.0
C82 C 0.33589 0.77159 0.16059 0.0
C83 C 0.32106 0.7482 0.16277 0.0
C84 C 0.30062 0.74297 0.14564 0.0
C85 C 0.28596 0.71796 0.15196 0.0
C86 C 0.30141 0.70867 0.17517 0.0
C87 C 0.32211 0.72638 0.18131 0.0
C88 C 0.25769 0.72486 0.15945 0.0
C89 C 0.28783 0.69897 0.12835 0.0
C90 C 0.39379 0.72519 0.25044 0.0
C91 C 0.39947 0.70762 0.27041 0.0
C92 C 0.38358 0.68487 0.27283 0.0
C93 C 0.36242 0.67983 0.256 0.0
C94 C 0.35679 0.69773 0.23646 0.0
C95 C 0.37244 0.7199 0.23381 0.0
C96 C 0.36318 0.73686 0.21211 0.0
C97 C 0.33953 0.72107 0.20209 0.0
C98 C 0.33591 0.69825 0.21652 0.0
C99 C 0.35547 0.76357 0.22403 0.0
C100 C 0.38504 0.73865 0.19152 0.0
H101 H 0.25017 0.6715 0.15745 0.0
H102 H 0.27178 0.61276 0.22979 0.0
H103 H 0.32592 0.62484 0.20106 0.0
H104 H 0.3477 0.64206 0.22193 0.0
H105 H 0.32473 0.61857 0.23525 0.0
H106 H 0.27876 0.66918 0.25365 0.0
H107 H 0.298 0.64249 0.26404 0.0
H108 H 0.3113 0.67543 0.26303 0.0
H109 H 0.2786 0.75558 0.11243 0.0
H110 H 0.34147 0.80714 0.1394 0.0
H111 H 0.35181 0.77692 0.1734 0.0
H112 H 0.25727 0.7441 0.16984 0.0
H113 H 0.24507 0.72603 0.14191 0.0
H114 H 0.24872 0.71088 0.17309 0.0
H115 H 0.30788 0.69961 0.12016 0.0
H116 H 0.284 0.67837 0.13345 0.0
H117 H 0.27409 0.7043 0.11266 0.0
H118 H 0.22154 0.63434 0.1664 0.0
C119 C 0.25543 0.65921 0.17323 0.0
C120 C 0.99397 0.39611 0.99895 0.0
C121 C 0.9812 0.38927 0.97551 0.0
C122 C 0.96254 0.4061 0.9654 0.0
C123 C 0.96859 0.43554 1.00267 0.0
C124 C 0.9876 0.41939 0.012 0.0
C125 C 0.99989 0.42994 0.03678 0.0
H126 H 0.0052 0.52148 0.1334 0.0
C127 C 0.9659 0.45762 0.0215 0.0
C128 C 0.98443 0.45449 0.04139 0.0
H129 H 0.05643 0.45668 0.12052 0.0
H130 H 0.03164 0.44332 0.08259 0.0
H131 H 0.95222 0.49082 0.11936 0.0
H132 H 1.00361 0.53856 0.073 0.0
H133 H 0.97139 0.54725 0.06609 0.0
H134 H 0.98393 0.55155 0.0987 0.0
H135 H 0.95253 0.52584 0.12171 0.0
H136 H 0.93229 0.50807 0.09821 0.0
C137 C 0.995 0.40966 0.05835 0.0
C138 C 0.02912 0.43631 0.03145 0.0
C139 C 0.89487 0.52476 0.00927 0.0
C140 C 0.88681 0.54624 0.02458 0.0
C141 C 0.90017 0.55182 0.04823 0.0
C142 C 0.92113 0.53686 0.05625 0.0
C143 C 0.92903 0.51573 0.04072 0.0
C144 C 0.91586 0.50979 0.01775 0.0
C145 C 0.92662 0.48597 1.00428 0.0
C146 C 0.94837 0.47876 0.02292 0.0
C147 C 0.94975 0.49643 0.04416 0.0
C148 C 0.90465 0.46465 1.00279 0.0
C149 C 0.93741 0.49424 0.9775 0.0
C150 C 0.01128 0.50452 0.12236 0.0
C151 C 0.03293 0.49014 0.13034 0.0
C152 C 0.03966 0.46794 0.11536 0.0
C153 C 0.02538 0.46033 0.09304 0.0
C154 C 1.00409 0.47508 0.08521 0.0
C155 C 0.99736 0.49678 0.09978 0.0
C156 C 0.97446 0.51038 0.08816 0.0
C157 C 0.96891 0.49354 0.06397 0.0
C158 C 0.98621 0.47278 0.06249 0.0
C159 C 0.95164 0.50898 0.10781 0.0
C160 C 0.98356 0.5385 0.0812 0.0
H161 H 0.94152 0.44103 0.97036 0.0
H162 H 0.00853 0.38355 0.00697 0.0
H163 H 0.03254 0.44072 0.01061 0.0
H164 H 0.03636 0.45405 0.04209 0.0
H165 H 0.04151 0.41962 0.03644 0.0
H166 H 0.97464 0.40159 0.0572 0.0
H167 H 0.00839 0.39306 0.05628 0.0
H168 H 0.99713 0.4181 0.07816 0.0
H169 H 0.88523 0.51976 0.99101 0.0
H170 H 0.89416 0.56759 0.06096 0.0
H171 H 0.93029 0.54229 0.07441 0.0
H172 H 0.89353 0.46408 0.02131 0.0
H173 H 0.89066 0.4686 0.98686 0.0
H174 H 0.91201 0.44476 1.00001 0.0
H175 H 0.94641 0.51426 0.97866 0.0
H176 H 0.95315 0.48163 0.97051 0.0
H177 H 0.92164 0.49434 0.96262 0.0
H178 H 0.95249 0.40104 0.94736 0.0
C179 C 0.95611 0.42916 0.97887 0.0
C180 C 0.63592 0.81525 0.27778 0.0
C181 C 0.61577 0.79613 0.27632 0.0
C182 C 0.61459 0.77878 0.25473 0.0
C183 C 0.65378 0.79909 0.23695 0.0
C184 C 0.65443 0.8166 0.25777 0.0
C185 C 0.67631 0.83661 0.25556 0.0
H186 H 0.78365 0.8819 0.19271 0.0
C187 C 0.67617 0.80547 0.21983 0.0
C188 C 0.68924 0.82765 0.23053 0.0
H189 H 0.74613 0.91531 0.26024 0.0
H190 H 0.71312 0.88101 0.25856 0.0
H191 H 0.72967 0.86918 0.16043 0.0
H192 H 0.77771 0.82298 0.20963 0.0
H193 H 0.76701 0.80252 0.18376 0.0
H194 H 0.7871 0.83114 0.17714 0.0
H195 H 0.76135 0.85852 0.1509 0.0
H196 H 0.73245 0.83831 0.14535 0.0
C197 C 0.66424 0.86394 0.25297 0.0
C198 C 0.69456 0.83402 0.2794 0.0
C199 C 0.69573 0.74719 0.14117 0.0
C200 C 0.71627 0.74722 0.12307 0.0
C201 C 0.73593 0.76697 0.12507 0.0
C202 C 0.7352 0.78634 0.14464 0.0
C203 C 0.71466 0.78602 0.16264 0.0
C204 C 0.69544 0.76658 0.16084 0.0
C205 C 0.67559 0.76897 0.18224 0.0
C206 C 0.686 0.7931 0.19702 0.0
C207 C 0.70881 0.80307 0.18529 0.0
C208 C 0.64864 0.77357 0.16965 0.0
C209 C 0.67663 0.74408 0.19886 0.0
C210 C 0.76809 0.88206 0.20688 0.0
C211 C 0.76765 0.90137 0.2267 0.0
C212 C 0.74722 0.90052 0.24499 0.0
C213 C 0.72793 0.88061 0.24392 0.0
C214 C 0.72888 0.86124 0.22431 0.0
C215 C 0.74856 0.86231 0.20605 0.0
C216 C 0.74625 0.84012 0.1865 0.0
C217 C 0.72175 0.82581 0.19585 0.0
C218 C 0.71185 0.83814 0.21818 0.0
C219 C 0.7424 0.85194 0.15926 0.0
C220 C 0.77079 0.82328 0.18909 0.0
H221 H 0.63167 0.76616 0.21933 0.0
H222 H 0.63698 0.82913 0.29393 0.0
H223 H 0.6979 0.81307 0.28341 0.0
H224 H 0.71412 0.84296 0.27651 0.0
H225 H 0.68585 0.84292 0.29709 0.0
H226 H 0.64424 0.86248 0.24448 0.0
H227 H 0.66281 0.87402 0.27219 0.0
H228 H 0.67529 0.87667 0.2395 0.0
H229 H 0.68048 0.73213 0.14033 0.0
H230 H 0.7518 0.76761 0.11125 0.0
H231 H 0.75073 0.80081 0.14499 0.0
H232 H 0.65072 0.78544 0.15181 0.0
H233 H 0.63868 0.75477 0.16398 0.0
H234 H 0.63566 0.78487 0.18242 0.0
H235 H 0.69717 0.73827 0.20185 0.0
H236 H 0.6687 0.74683 0.21858 0.0
H237 H 0.66597 0.72741 0.18913 0.0
H238 H 0.59916 0.76393 0.25325 0.0
C239 C 0.63352 0.78005 0.23513 0.0
C240 C 0.03067 0.90379 0.54705 0.0
C241 C 0.01187 0.88344 0.54305 0.0
C242 C 0.99621 0.884 0.52033 0.0
C243 C 0.01876 0.9237 0.50622 0.0
C244 C 0.03408 0.92319 0.52836 0.0
C245 C 0.05494 0.94445 0.52878 0.0
H246 H 0.11855 0.04279 0.46755 0.0
C247 C 0.02799 0.94609 0.49036 0.0
C248 C 0.04942 0.95808 0.50345 0.0
H249 H 0.13644 0.01049 0.54249 0.0
H250 H 0.09876 0.98141 0.53875 0.0
H251 H 0.06028 0.04886 0.47782 0.0
H252 H 0.10028 0.98782 0.43742 0.0
H253 H 0.07354 0.99757 0.41843 0.0
H254 H 0.09889 0.02111 0.42704 0.0
H255 H 0.06767 0.05114 0.44389 0.0
H256 H 0.03769 0.0358 0.45496 0.0
C257 C 0.05033 0.96256 0.55268 0.0
C258 C 0.08185 0.93129 0.52859 0.0
C259 C 0.98203 0.96754 0.40537 0.0
C260 C 0.98602 0.98734 0.38693 0.0
C261 C 0.00625 0.00612 0.39134 0.0
C262 C 0.02256 0.00488 0.41328 0.0
C263 C 0.01864 0.98471 0.43121 0.0
C264 C 0.99838 0.9667 0.42733 0.0
C265 C 0.99681 0.94697 0.44878 0.0
C266 C 0.0193 0.95628 0.4663 0.0
C267 C 0.03224 0.97817 0.45566 0.0
C268 C 0.97013 0.94951 0.46239 0.0
C269 C 1.00149 0.91954 0.43676 0.0
C270 C 0.11446 0.02954 0.4832 0.0
C271 C 0.13066 0.02922 0.50541 0.0
C272 C 0.12428 0.01151 0.52528 0.0
C273 C 0.10242 0.99447 0.523 0.0
C274 C 0.08655 0.99506 0.50063 0.0
C275 C 0.09248 0.01272 0.48139 0.0
C276 C 0.07271 0.0116 0.4596 0.0
C277 C 0.05451 0.9896 0.46845 0.0
C278 C 0.06286 0.97981 0.49236 0.0
C279 C 0.0589 0.03819 0.4588 0.0
C280 C 0.08696 1.00427 0.43414 0.0
H281 H 0.98703 0.90312 0.48521 0.0
H282 H 0.0429 0.90464 0.56427 0.0
H283 H 0.08103 0.91274 0.51696 0.0
H284 H 0.09729 0.94326 0.5193 0.0
H285 H 0.08818 0.92653 0.5486 0.0
H286 H 0.0291 0.96509 0.55592 0.0
H287 H 0.05864 0.95427 0.57063 0.0
H288 H 0.05847 0.98255 0.55017 0.0
H289 H 0.96648 0.95297 0.40278 0.0
H290 H 0.00992 0.02142 0.37742 0.0
H291 H 0.03782 0.01953 0.4153 0.0
H292 H 0.96545 0.97045 0.46536 0.0
H293 H 0.95424 0.94016 0.45045 0.0
H294 H 0.96973 0.94098 0.48193 0.0
H295 H 0.01557 0.92073 0.4204 0.0
H296 H 0.01038 0.90613 0.45066 0.0
H297 H 0.98305 0.91046 0.42904 0.0
H298 H 0.98188 0.86858 0.51614 0.0
C299 C 0.99943 0.90401 0.5021 0.0
C300 C 0.2784 0.63636 0.81586 0.0
C301 C 0.27781 0.61707 0.79611 0.0
C302 C 0.25684 0.61611 0.77827 0.0
C303 C 0.23787 0.65384 0.79948 0.0
C304 C 0.25813 0.65423 0.81739 0.0
C305 C 0.25499 0.67498 0.83812 0.0
H306 H 0.19039 0.7788 0.88577 0.0
C307 C 0.22023 0.6754 0.80637 0.0
C308 C 0.2301 0.68763 0.82919 0.0
H309 H 0.25703 0.7411 0.91888 0.0
H310 H 0.25611 0.70931 0.88388 0.0
H311 H 0.15819 0.72451 0.87066 0.0
H312 H 0.20919 0.7758 0.82759 0.0
H313 H 0.18395 0.76555 0.80632 0.0
H314 H 0.17634 0.78415 0.83534 0.0
H315 H 0.14897 0.75647 0.86086 0.0
H316 H 0.14416 0.72823 0.83976 0.0
C317 C 0.25151 0.66134 0.86466 0.0
C318 C 0.27885 0.69413 0.83689 0.0
C319 C 0.14252 0.69567 0.74815 0.0
C320 C 0.1243 0.71581 0.74877 0.0
C321 C 0.12594 0.73472 0.76901 0.0
C322 C 0.14516 0.73359 0.78838 0.0
C323 C 0.16322 0.71343 0.78756 0.0
C324 C 0.16193 0.69503 0.76754 0.0
C325 C 0.18348 0.67562 0.76945 0.0
C326 C 0.19764 0.68525 0.79404 0.0
C327 C 0.18548 0.7073 0.80463 0.0
C328 C 0.17091 0.64805 0.77279 0.0
C329 C 0.20079 0.67833 0.74502 0.0
C330 C 0.2045 0.76343 0.88572 0.0
C331 C 0.22395 0.76269 0.90509 0.0
C332 C 0.24211 0.74246 0.90402 0.0
C333 C 0.24151 0.7239 0.88369 0.0
C334 C 0.2225 0.72537 0.86407 0.0
C335 C 0.20418 0.74465 0.86547 0.0
C336 C 0.18535 0.74298 0.84292 0.0
C337 C 0.19523 0.71934 0.82798 0.0
C338 C 0.21719 0.70934 0.84032 0.0
C339 C 0.15762 0.73796 0.85391 0.0
C340 C 0.18857 0.76844 0.82719 0.0
H341 H 0.22162 0.63279 0.76551 0.0
H342 H 0.29402 0.63717 0.83013 0.0
H343 H 0.28356 0.69875 0.81635 0.0
H344 H 0.27548 0.71314 0.84656 0.0
H345 H 0.29635 0.68547 0.84574 0.0
H346 H 0.24344 0.64104 0.86216 0.0
H347 H 0.2704 0.66017 0.87518 0.0
H348 H 0.23727 0.67118 0.87735 0.0
H349 H 0.14192 0.681 0.73271 0.0
H350 H 0.11202 0.75025 0.77008 0.0
H351 H 0.14516 0.74851 0.80328 0.0
H352 H 0.15308 0.64899 0.78498 0.0
H353 H 0.16516 0.63915 0.75369 0.0
H354 H 0.1838 0.63464 0.78305 0.0
H355 H 0.20393 0.69928 0.74015 0.0
H356 H 0.22049 0.67069 0.7477 0.0
H357 H 0.19146 0.66829 0.72791 0.0
H358 H 0.256 0.60126 0.76298 0.0
C359 C 0.23697 0.63445 0.77974 0.0
C360 C 0.90035 0.49716 0.49374 0.0
C361 C 0.89286 0.47556 0.47792 0.0
C362 C 0.90944 0.46793 0.45747 0.0
C363 C 0.93961 0.50397 0.46787 0.0
C364 C 0.9236 0.51113 0.48825 0.0
C365 C 0.93345 0.53571 0.50193 0.0
H366 H 0.02464 0.63327 0.51546 0.0
C367 C 0.96168 0.52325 0.46669 0.0
C368 C 0.95815 0.54185 0.4867 0.0
H369 H 0.95219 0.62227 0.55715 0.0
H370 H 0.94233 0.58331 0.53244 0.0
H371 H 0.99889 0.6217 0.4609 0.0
H372 H 0.04067 0.57137 0.51158 0.0
H373 H 0.05174 0.56587 0.47963 0.0
H374 H 0.056 0.59789 0.49448 0.0
H375 H 0.03381 0.62305 0.4632 0.0
H376 H 0.01683 0.60101 0.44072 0.0
C377 C 0.91275 0.55703 0.4987 0.0
C378 C 0.93955 0.52894 0.53051 0.0
C379 C 0.02921 0.51767 0.39411 0.0
C380 C 0.05064 0.53401 0.38754 0.0
C381 C 0.05815 0.55468 0.40472 0.0
C382 C 0.04401 0.5598 0.42738 0.0
C383 C 0.02183 0.54428 0.43303 0.0
C384 C 0.01503 0.52326 0.41686 0.0
C385 C 0.99057 0.50922 0.426 0.0
C386 C 0.98354 0.52571 0.44978 0.0
C387 C 1.00196 0.54628 0.45372 0.0
C388 C 0.96967 0.51051 0.40425 0.0
C389 C 0.99778 0.48114 0.43345 0.0
C390 C 0.00683 0.62227 0.51952 0.0
C391 C 0.98958 0.63079 0.53902 0.0
C392 C 0.96616 0.61623 0.54278 0.0
C393 C 0.96034 0.59345 0.52824 0.0
C394 C 0.97777 0.58511 0.50909 0.0
C395 C 1.00038 0.59963 0.50467 0.0
C396 C 0.0155 0.58871 0.48206 0.0
C397 C 0.99848 0.56499 0.47415 0.0
C398 C 0.97656 0.5629 0.4903 0.0
C399 C 0.01659 0.6096 0.46056 0.0
C400 C 0.04252 0.58063 0.49224 0.0
H401 H 0.94431 0.47521 0.43645 0.0
H402 H 0.88784 0.50373 0.50932 0.0
H403 H 0.94974 0.51006 0.53148 0.0
H404 H 0.95272 0.54345 0.5403 0.0
H405 H 0.92132 0.52699 0.542 0.0
H406 H 0.90042 0.55329 0.48109 0.0
H407 H 0.8995 0.55781 0.51571 0.0
H408 H 0.92163 0.57669 0.49572 0.0
H409 H 0.02289 0.50175 0.38122 0.0
H410 H 0.07475 0.56734 0.40023 0.0
H411 H 0.05056 0.57609 0.43933 0.0
H412 H 0.97063 0.52984 0.39468 0.0
H413 H 0.97267 0.49523 0.38902 0.0
H414 H 0.94954 0.50855 0.41157 0.0
H415 H 0.01742 0.48103 0.44276 0.0
H416 H 0.98443 0.47253 0.44795 0.0
H417 H 0.99822 0.46805 0.41601 0.0
H418 H 0.90413 0.45126 0.44509 0.0
C419 C 0.93276 0.48188 0.45246 0.0
C420 C 0.80861 0.75363 0.88758 0.0
C421 C 0.78604 0.75416 0.90303 0.0
C422 C 0.76931 0.77547 0.90088 0.0
C423 C 0.79588 0.79359 0.86643 0.0
C424 C 0.81307 0.77348 0.86938 0.0
C425 C 0.8352 0.77526 0.85027 0.0
H426 H 0.88501 0.82517 0.73966 0.0
C427 C 0.8049 0.80988 0.84454 0.0
C428 C 0.82812 0.79944 0.83512 0.0
H429 H 0.9155 0.76443 0.7877 0.0
H430 H 0.88286 0.77258 0.81994 0.0
H431 H 0.8767 0.86553 0.78944 0.0
H432 H 0.82286 0.81302 0.74848 0.0
H433 H 0.80956 0.84443 0.75166 0.0
H434 H 0.8391 0.84049 0.73365 0.0
H435 H 0.86283 0.87384 0.75867 0.0
H436 H 0.84619 0.88029 0.78893 0.0
C437 C 0.86107 0.77946 0.86573 0.0
C438 C 0.834 0.75016 0.83296 0.0
C439 C 0.74821 0.88331 0.81345 0.0
C440 C 0.75114 0.90195 0.79388 0.0
C441 C 0.77373 0.90175 0.77832 0.0
C442 C 0.79286 0.88294 0.78189 0.0
C443 C 0.78956 0.86425 0.80142 0.0
C444 C 0.76772 0.86499 0.81709 0.0
C445 C 0.76806 0.84459 0.83777 0.0
C446 C 0.79361 0.83138 0.83192 0.0
C447 C 0.80597 0.84262 0.81028 0.0
C448 C 0.76863 0.85866 0.86474 0.0
C449 C 0.74417 0.82586 0.83313 0.0
C450 C 0.88476 0.81389 0.75728 0.0
C451 C 0.90241 0.79354 0.7607 0.0
C452 C 0.90169 0.77964 0.78417 0.0
C453 C 0.88266 0.78435 0.80291 0.0
C454 C 0.86392 0.8032 0.79837 0.0
C455 C 0.86571 0.81841 0.77644 0.0
C456 C 0.84477 0.83862 0.77605 0.0
C457 C 0.82945 0.83191 0.80053 0.0
C458 C 0.84066 0.81082 0.81325 0.0
C459 C 0.85814 0.86608 0.77819 0.0
C460 C 0.82815 0.83413 0.75112 0.0
H461 H 0.76031 0.81044 0.88186 0.0
H462 H 0.82184 0.73755 0.88878 0.0
H463 H 0.81355 0.74543 0.82682 0.0
H464 H 0.84513 0.75194 0.81479 0.0
H465 H 0.84129 0.73316 0.84371 0.0
H466 H 0.85772 0.78875 0.88511 0.0
H467 H 0.87072 0.76063 0.86906 0.0
H468 H 0.8749 0.79302 0.85596 0.0
H469 H 0.73126 0.88327 0.82596 0.0
H470 H 0.77636 0.91594 0.76311 0.0
H471 H 0.80944 0.88357 0.76924 0.0
H472 H 0.77851 0.87825 0.86374 0.0
H473 H 0.74859 0.86158 0.87217 0.0
H474 H 0.77998 0.84813 0.87939 0.0
H475 H 0.74125 0.82173 0.81198 0.0
H476 H 0.74638 0.80653 0.84189 0.0
H477 H 0.72605 0.8346 0.84067 0.0
H478 H 0.75208 0.77665 0.91291 0.0
C479 C 0.77412 0.79512 0.88279 0.0
C480 C 0.31123 0.25504 0.38741 0.0
C481 C 0.28866 0.25545 0.40284 0.0
C482 C 0.27184 0.27669 0.40075 0.0
C483 C 0.29825 0.29492 0.36625 0.0
C484 C 0.31555 0.27491 0.3692 0.0
C485 C 0.33752 0.27665 0.3499 0.0
H486 H 0.38589 0.32515 0.23818 0.0
C487 C 0.30702 0.31108 0.34417 0.0
C488 C 0.33019 0.30068 0.33464 0.0
H489 H 0.41706 0.26527 0.28684 0.0
H490 H 0.38488 0.27398 0.31937 0.0
H491 H 0.37787 0.36634 0.28798 0.0
H492 H 0.32379 0.31325 0.24794 0.0
H493 H 0.3106 0.34476 0.25083 0.0
H494 H 0.33993 0.34047 0.23256 0.0
H495 H 0.36418 0.37402 0.25695 0.0
H496 H 0.34735 0.38108 0.28697 0.0
C497 C 0.36349 0.28109 0.36514 0.0
C498 C 0.33629 0.2514 0.33279 0.0
C499 C 0.24961 0.3839 0.31307 0.0
C500 C 0.25217 0.40238 0.29332 0.0
C501 C 0.27455 0.40214 0.27746 0.0
C502 C 0.29383 0.38344 0.28092 0.0
C503 C 0.2909 0.36492 0.30067 0.0
C504 C 0.26926 0.36571 0.31661 0.0
C505 C 0.26993 0.3455 0.33744 0.0
C506 C 0.29549 0.33238 0.33144 0.0
C507 C 0.30755 0.34345 0.30954 0.0
C508 C 0.27071 0.3598 0.36429 0.0
C509 C 0.24608 0.32662 0.33318 0.0
C510 C 0.38586 0.31418 0.25599 0.0
C511 C 0.40357 0.29389 0.25954 0.0
C512 C 0.4032 0.28043 0.28324 0.0
C513 C 0.38443 0.28545 0.30215 0.0
C514 C 0.36557 0.30415 0.29751 0.0
C515 C 0.36705 0.31901 0.27533 0.0
C516 C 0.34604 0.33918 0.27493 0.0
C517 C 0.331 0.33275 0.29967 0.0
C518 C 0.34245 0.31188 0.31253 0.0
C519 C 0.35937 0.36667 0.2766 0.0
C520 C 0.32915 0.33438 0.25023 0.0
H521 H 0.26263 0.31162 0.38176 0.0
H522 H 0.32449 0.23898 0.38855 0.0
H523 H 0.3158 0.2465 0.3269 0.0
H524 H 0.34719 0.2531 0.31447 0.0
H525 H 0.34382 0.23455 0.34358 0.0
H526 H 0.36023 0.29034 0.38456 0.0
H527 H 0.37336 0.26236 0.36837 0.0
H528 H 0.3771 0.29479 0.35525 0.0
H529 H 0.23284 0.38389 0.32582 0.0
H530 H 0.27691 0.41622 0.2621 0.0
H531 H 0.31024 0.38403 0.26805 0.0
H532 H 0.28066 0.37933 0.36305 0.0
H533 H 0.25073 0.36287 0.37181 0.0
H534 H 0.28211 0.34936 0.37897 0.0
H535 H 0.24279 0.3225 0.31208 0.0
H536 H 0.24859 0.30728 0.34183 0.0
H537 H 0.22803 0.33522 0.34108 0.0
H538 H 0.25455 0.27768 0.41272 0.0
C539 C 0.27653 0.29638 0.38269 0.0
C540 C 0.49059 0.89504 0.49655 0.0
C541 C 0.47387 0.88618 0.47628 0.0
C542 C 0.45283 0.90178 0.4691 0.0
C543 C 0.46467 0.93389 0.50262 0.0
C544 C 0.48549 0.91877 0.50955 0.0
C545 C 0.50029 0.9304 0.53255 0.0
H546 H 0.51142 0.02444 0.62688 0.0
C547 C 0.46434 0.95706 0.52028 0.0
C548 C 0.48523 0.95512 0.53792 0.0
H549 H 0.56037 0.95775 0.61472 0.0
H550 H 0.53509 0.94484 0.57683 0.0
H551 H 0.45502 0.99548 0.61125 0.0
H552 H 0.51216 0.04143 0.57002 0.0
H553 H 0.48229 0.04702 0.55453 0.0
H554 H 0.48684 0.05659 0.58829 0.0
H555 H 0.46331 0.02921 0.61837 0.0
H556 H 0.43929 0.02025 0.59412 0.0
C557 C 0.49803 0.91091 0.55521 0.0
C558 C 0.52862 0.9367 0.52392 0.0
C559 C 0.39279 0.02423 0.51184 0.0
C560 C 0.38833 0.04829 0.52478 0.0
C561 C 0.40702 0.05749 0.54335 0.0
C562 C 0.4285 0.04263 0.55002 0.0
C563 C 0.43199 0.0183 0.53779 0.0
C564 C 0.41483 0.00982 0.51843 0.0
C565 C 0.42306 0.98432 0.50621 0.0
C566 C 0.4475 0.97873 0.52194 0.0
C567 C 0.45226 0.99849 0.54076 0.0
C568 C 0.40107 0.96357 0.51066 0.0
C569 C 0.42934 0.98921 0.47722 0.0
C570 C 0.51692 0.00712 0.61608 0.0
C571 C 0.53794 0.99203 0.62431 0.0
C572 C 0.544 0.96952 0.60945 0.0
C573 C 0.52938 0.96211 0.58721 0.0
C574 C 0.50839 0.97734 0.57945 0.0
C575 C 0.50267 0.99958 0.59369 0.0
C576 C 0.48035 0.014 0.58206 0.0
C577 C 0.47302 0.99627 0.55899 0.0
C578 C 0.48945 0.97475 0.55757 0.0
C579 C 0.45825 0.015 0.60244 0.0
C580 C 0.49073 0.04125 0.57338 0.0
H581 H 0.43175 0.93629 0.47571 0.0
H582 H 0.5067 0.88334 0.50273 0.0
H583 H 0.52896 0.94422 0.50375 0.0
H584 H 0.53828 0.95225 0.53594 0.0
H585 H 0.54063 0.91896 0.52425 0.0
H586 H 0.47843 0.90103 0.5553 0.0
H587 H 0.5128 0.89551 0.55342 0.0
H588 H 0.49994 0.92046 0.57455 0.0
H589 H 0.37925 0.01643 0.49729 0.0
H590 H 0.40516 0.07634 0.55292 0.0
H591 H 0.44152 0.05066 0.56463 0.0
H592 H 0.39286 0.96573 0.53055 0.0
H593 H 0.38487 0.96569 0.4965 0.0
H594 H 0.40794 0.94334 0.50948 0.0
H595 H 0.43761 0.0093 0.47452 0.0
H596 H 0.44439 0.97618 0.46948 0.0
H597 H 0.41151 0.98709 0.46493 0.0
H598 H 0.43978 0.89548 0.45344 0.0
C599 C 0.44821 0.92553 0.48203 0.0
C600 C 0.13583 0.3168 0.77411 0.0
C601 C 0.11546 0.29792 0.77242 0.0
C602 C 0.11372 0.28123 0.75036 0.0
C603 C 0.15291 0.30155 0.73262 0.0
C604 C 0.15406 0.3185 0.75388 0.0
C605 C 0.17621 0.33825 0.75196 0.0
H606 H 0.28429 0.38273 0.6898 0.0
C607 C 0.17523 0.30802 0.71548 0.0
C608 C 0.18875 0.32973 0.72658 0.0
H609 H 0.24734 0.41561 0.75792 0.0
H610 H 0.21359 0.3821 0.75549 0.0
H611 H 0.22998 0.3721 0.65728 0.0
H612 H 0.27683 0.32346 0.70524 0.0
H613 H 0.26574 0.30398 0.67879 0.0
H614 H 0.28647 0.33234 0.67302 0.0
H615 H 0.26132 0.36081 0.64738 0.0
H616 H 0.2319 0.34147 0.64151 0.0
C617 C 0.16455 0.36584 0.75019 0.0
C618 C 0.19462 0.33476 0.77552 0.0
C619 C 0.19363 0.25054 0.63605 0.0
C620 C 0.21418 0.2504 0.618 0.0
C621 C 0.23401 0.26998 0.62 0.0
C622 C 0.23352 0.28926 0.63967 0.0
C623 C 0.21306 0.28899 0.65775 0.0
C624 C 0.19358 0.26982 0.65582 0.0
C625 C 0.17389 0.27217 0.67733 0.0
C626 C 0.18471 0.29594 0.69238 0.0
C627 C 0.2076 0.30577 0.6807 0.0
C628 C 0.14695 0.27735 0.66496 0.0
C629 C 0.17467 0.247 0.69358 0.0
C630 C 0.26871 0.38294 0.70395 0.0
C631 C 0.26866 0.40183 0.72418 0.0
C632 C 0.24815 0.40109 0.74239 0.0
C633 C 0.22843 0.38166 0.74088 0.0
C634 C 0.229 0.36266 0.72089 0.0
C635 C 0.24871 0.36367 0.70266 0.0
C636 C 0.24585 0.34199 0.6826 0.0
C637 C 0.22103 0.32803 0.69168 0.0
C638 C 0.21147 0.34008 0.71431 0.0
C639 C 0.24224 0.35453 0.65567 0.0
C640 C 0.26997 0.32451 0.68472 0.0
H641 H 0.13012 0.26943 0.71437 0.0
H642 H 0.1373 0.33017 0.79064 0.0
H643 H 0.1978 0.31366 0.77885 0.0
H644 H 0.21423 0.34364 0.77273 0.0
H645 H 0.18615 0.3432 0.79355 0.0
H646 H 0.14437 0.3649 0.74211 0.0
H647 H 0.16368 0.37556 0.76964 0.0
H648 H 0.17554 0.37867 0.73677 0.0
H649 H 0.17827 0.23559 0.6352 0.0
H650 H 0.24991 0.27045 0.6062 0.0
H651 H 0.24921 0.30355 0.64009 0.0
H652 H 0.14912 0.28923 0.64714 0.0
H653 H 0.13659 0.25875 0.65931 0.0
H654 H 0.13431 0.28889 0.67787 0.0
H655 H 0.19513 0.24083 0.69632 0.0
H656 H 0.16694 0.24957 0.7134 0.0
H657 H 0.1637 0.23063 0.68369 0.0
H658 H 0.09814 0.26656 0.74871 0.0
C659 C 0.13237 0.28286 0.73052 0.0
C660 C 0.76649 0.1277 0.71613 0.0
C661 C 0.74411 0.12274 0.70076 0.0
C662 C 0.73863 0.13994 0.6804 0.0
C663 C 0.77685 0.16696 0.69193 0.0
C664 C 0.78236 0.14975 0.71149 0.0
C665 C 0.80611 0.15805 0.727 0.0
H666 H 0.90541 0.24439 0.75112 0.0
C667 C 0.79712 0.18824 0.69288 0.0
C668 C 0.8143 0.18295 0.71336 0.0
H669 H 0.88389 0.17472 0.79336 0.0
H670 H 0.84881 0.16542 0.76326 0.0
H671 H 0.84499 0.26353 0.74251 0.0
H672 H 0.89727 0.21971 0.69412 0.0
H673 H 0.87951 0.23993 0.6737 0.0
H674 H 0.90088 0.25451 0.69827 0.0
H675 H 0.87466 0.27728 0.72946 0.0
H676 H 0.84486 0.27626 0.71088 0.0
C677 C 0.79755 0.1634 0.75549 0.0
C678 C 0.82665 0.13655 0.72377 0.0
C679 C 0.79344 0.26394 0.62996 0.0
C680 C 0.81026 0.2855 0.62538 0.0
C681 C 0.83332 0.28869 0.64019 0.0
C682 C 0.83929 0.27096 0.65977 0.0
C683 C 0.82215 0.24961 0.66441 0.0
C684 C 0.7999 0.2461 0.64926 0.0
C685 C 0.78483 0.22142 0.65583 0.0
C686 C 0.8013 0.21104 0.67782 0.0
C687 C 0.82298 0.22783 0.68302 0.0
C688 C 0.75739 0.22902 0.66523 0.0
C689 C 0.78466 0.20297 0.63163 0.0
C690 C 0.89305 0.2272 0.75394 0.0
C691 C 0.89766 0.21018 0.77467 0.0
C692 C 0.88122 0.18788 0.77736 0.0
C693 C 0.86061 0.18264 0.75994 0.0
C694 C 0.85608 0.19991 0.73954 0.0
C695 C 0.87218 0.22173 0.73672 0.0
C696 C 0.86409 0.23796 0.71397 0.0
C697 C 0.84028 0.22243 0.7039 0.0
C698 C 0.83583 0.20016 0.71898 0.0
C699 C 0.85686 0.26531 0.72453 0.0
C700 C 0.88656 0.23832 0.69393 0.0
H701 H 0.74941 0.17459 0.66043 0.0
H702 H 0.77149 0.11479 0.73175 0.0
H703 H 0.82619 0.12819 0.70365 0.0
H704 H 0.84689 0.14402 0.72663 0.0
H705 H 0.82282 0.12026 0.73734 0.0
H706 H 0.77707 0.17001 0.75635 0.0
H707 H 0.79871 0.14553 0.76734 0.0
H708 H 0.80907 0.17942 0.7651 0.0
H709 H 0.7758 0.26087 0.61851 0.0
H710 H 0.84653 0.30515 0.63682 0.0
H711 H 0.857 0.27456 0.67057 0.0
H712 H 0.75868 0.24661 0.67824 0.0
H713 H 0.74459 0.23362 0.64852 0.0
H714 H 0.74766 0.2137 0.67682 0.0
H715 H 0.80324 0.20503 0.62066 0.0
H716 H 0.78324 0.1821 0.63667 0.0
H717 H 0.76846 0.20746 0.61814 0.0
H718 H 0.72137 0.13675 0.66842 0.0
C719 C 0.75484 0.16201 0.67592 0.0
C720 C 0.53637 0.61419 0.48534 0.0
C721 C 0.51525 0.63074 0.49005 0.0
C722 C 0.50008 0.62662 0.51255 0.0
C723 C 0.52618 0.58974 0.52439 0.0
C724 C 0.54146 0.59395 0.50271 0.0
C725 C 0.56303 0.57456 0.50061 0.0
H726 H 0.62214 0.46754 0.54717 0.0
C727 C 0.53628 0.56691 0.53825 0.0
C728 C 0.55801 0.55796 0.52446 0.0
H729 H 0.64394 0.51322 0.48026 0.0
H730 H 0.60849 0.54209 0.48861 0.0
H731 H 0.61275 0.51669 0.58469 0.0
H732 H 0.55969 0.46881 0.53802 0.0
H733 H 0.54535 0.47376 0.56864 0.0
H734 H 0.57576 0.45707 0.56645 0.0
H735 H 0.60265 0.4844 0.59415 0.0
H736 H 0.58399 0.51268 0.60273 0.0
C737 C 0.58948 0.58982 0.50251 0.0
C738 C 0.55899 0.55856 0.47501 0.0
C739 C 0.48958 0.53356 0.6191 0.0
C740 C 0.49411 0.51274 0.63603 0.0
C741 C 0.51605 0.49721 0.63145 0.0
C742 C 0.5327 0.50189 0.61035 0.0
C743 C 0.52764 0.52246 0.59345 0.0
C744 C 0.50653 0.53806 0.59813 0.0
C745 C 0.50449 0.55934 0.57839 0.0
C746 C 0.52769 0.55377 0.56098 0.0
C747 C 0.54111 0.53203 0.56982 0.0
C748 C 0.5077 0.58609 0.59283 0.0
C749 C 0.47822 0.55525 0.56368 0.0
C750 C 0.61953 0.48387 0.53441 0.0
C751 C 0.636 0.48776 0.51284 0.0
C752 C 0.63141 0.50925 0.4967 0.0
C753 C 0.61085 0.52621 0.50169 0.0
C754 C 0.59451 0.52188 0.52315 0.0
C755 C 0.59912 0.50109 0.53919 0.0
C756 C 0.58003 0.49969 0.56133 0.0
C757 C 0.56312 0.52295 0.55588 0.0
C758 C 0.5716 0.53586 0.53339 0.0
C759 C 0.59548 0.50335 0.58718 0.0
C760 C 0.56439 0.47345 0.55877 0.0
H761 H 0.49295 0.60429 0.54621 0.0
H762 H 0.54843 0.61657 0.46827 0.0
H763 H 0.53791 0.55385 0.47166 0.0
H764 H 0.56848 0.53948 0.47522 0.0
H765 H 0.56625 0.56971 0.45805 0.0
H766 H 0.5882 0.60689 0.51611 0.0
H767 H 0.5955 0.59734 0.48324 0.0
H768 H 0.60527 0.57805 0.5105 0.0
H769 H 0.47292 0.54587 0.62176 0.0
H770 H 0.52054 0.48142 0.64433 0.0
H771 H 0.5489 0.48924 0.608 0.0
H772 H 0.52104 0.58475 0.60986 0.0
H773 H 0.48867 0.59295 0.60013 0.0
H774 H 0.51678 0.60137 0.58064 0.0
H775 H 0.47404 0.53408 0.55982 0.0
H776 H 0.47814 0.56429 0.54437 0.0
H777 H 0.46181 0.56296 0.57527 0.0
H778 H 0.4841 0.63927 0.51717 0.0
C779 C 0.50537 0.60631 0.5296 0.0
C780 C 0.53158 0.40161 0.04745 0.0
C781 C 0.51276 0.38132 0.04322 0.0
C782 C 0.49697 0.38222 0.02063 0.0
C783 C 0.51945 0.42213 0.00702 0.0
C784 C 0.53489 0.4213 0.02905 0.0
C785 C 0.55573 0.44258 0.02968 0.0
H786 H 0.61887 0.54197 0.96958 0.0
C787 C 0.5286 0.44475 0.99146 0.0
C788 C 0.55007 0.45658 1.00458 0.0
H789 H 0.63713 0.50857 0.04395 0.0
H790 H 0.59951 0.47949 0.03994 0.0
H791 H 0.5598 0.54719 0.98052 0.0
H792 H 0.60069 0.48753 0.93873 0.0
H793 H 0.57373 0.49724 0.92005 0.0
H794 H 0.59892 0.52092 0.92876 0.0
H795 H 0.56843 0.55087 0.947 0.0
H796 H 0.5381 0.53502 0.95643 0.0
C797 C 0.55122 0.46033 0.05386 0.0
C798 C 0.58265 0.42946 0.02915 0.0
C799 C 0.4821 0.46692 0.90711 0.0
C800 C 0.48592 0.4868 0.88876 0.0
C801 C 0.50616 0.50559 0.89313 0.0
C802 C 0.52264 0.50426 0.91496 0.0
C803 C 0.51886 0.48398 0.93281 0.0
C804 C 0.49859 0.46596 0.92892 0.0
C805 C 0.49719 0.44604 0.95016 0.0
C806 C 0.51977 0.45522 0.96759 0.0
C807 C 0.53263 0.47725 0.95713 0.0
C808 C 0.4706 0.44845 0.96399 0.0
C809 C 0.50182 0.41872 0.93785 0.0
C810 C 0.61487 0.52849 0.98507 0.0
C811 C 0.63117 0.52789 0.00721 0.0
C812 C 0.6249 0.50985 0.02682 0.0
C813 C 0.60307 0.49279 0.02437 0.0
C814 C 0.58711 0.49369 1.00209 0.0
C815 C 0.59291 0.51163 0.9831 0.0
C816 C 0.57305 0.51077 0.96138 0.0
C817 C 0.55494 0.48858 0.96997 0.0
C818 C 0.56342 0.47849 0.99371 0.0
C819 C 0.55915 0.53731 0.96107 0.0
C820 C 0.5872 0.50389 0.93574 0.0
H821 H 0.48761 0.40187 0.98588 0.0
H822 H 0.54389 0.40218 0.0646 0.0
H823 H 0.5818 0.41111 0.0172 0.0
H824 H 0.59805 0.44161 0.02002 0.0
H825 H 0.58905 0.42434 0.04904 0.0
H826 H 0.53 0.46275 0.05729 0.0
H827 H 0.55967 0.45181 0.07164 0.0
H828 H 0.55928 0.48039 0.0516 0.0
H829 H 0.46655 0.45233 0.90456 0.0
H830 H 0.5097 0.52097 0.87927 0.0
H831 H 0.53791 0.51891 0.91696 0.0
H832 H 0.46586 0.46936 0.96707 0.0
H833 H 0.45464 0.43908 0.95214 0.0
H834 H 0.47037 0.43987 0.98352 0.0
H835 H 0.5155 0.42011 0.92116 0.0
H836 H 0.51118 0.40531 0.95144 0.0
H837 H 0.48329 0.40952 0.9305 0.0
H838 H 0.48262 0.36686 0.01629 0.0
C839 C 0.50009 0.40251 1.0027 0.0
C840 C 0.77872 0.13575 0.31705 0.0
C841 C 0.78079 0.11973 0.29476 0.0
C842 C 0.76243 0.12194 0.27449 0.0
C843 C 0.74048 0.15599 0.29869 0.0
C844 C 0.75871 0.15393 0.31844 0.0
C845 C 0.75489 0.17383 0.33986 0.0
H846 H 0.69199 0.27919 0.38677 0.0
C847 C 0.72275 0.17737 0.30583 0.0
C848 C 0.73134 0.18807 0.32983 0.0
H849 H 0.75716 0.23991 0.42079 0.0
H850 H 0.75587 0.20797 0.38587 0.0
H851 H 0.6591 0.22595 0.37147 0.0
H852 H 0.71144 0.27554 0.32795 0.0
H853 H 0.68455 0.26728 0.30784 0.0
H854 H 0.67956 0.28542 0.3377 0.0
H855 H 0.64968 0.25721 0.35991 0.0
H856 H 0.64603 0.22793 0.34 0.0
C857 C 0.74868 0.15904 0.36522 0.0
C858 C 0.77965 0.1919 0.34135 0.0
C859 C 0.64509 0.19756 0.24774 0.0
C860 C 0.62608 0.2169 0.24902 0.0
C861 C 0.62726 0.23546 0.2696 0.0
C862 C 0.64672 0.23462 0.28879 0.0
C863 C 0.66546 0.21511 0.28741 0.0
C864 C 0.66467 0.19718 0.26696 0.0
C865 C 0.687 0.17863 0.26813 0.0
C866 C 0.70059 0.18769 0.2932 0.0
C867 C 0.68782 0.20906 0.30441 0.0
C868 C 0.67553 0.15048 0.27016 0.0
C869 C 0.70446 0.18308 0.24398 0.0
C870 C 0.70572 0.26347 0.38688 0.0
C871 C 0.72487 0.26227 0.4065 0.0
C872 C 0.7425 0.24158 0.40573 0.0
C873 C 0.74171 0.223 0.3854 0.0
C874 C 0.72315 0.22503 0.36541 0.0
C875 C 0.70529 0.24476 0.36657 0.0
C876 C 0.68684 0.24362 0.34368 0.0
C877 C 0.69685 0.22021 0.32846 0.0
C878 C 0.71826 0.20955 0.34122 0.0
C879 C 0.65887 0.23861 0.35409 0.0
C880 C 0.69049 0.26931 0.32845 0.0
H881 H 0.72876 0.14049 0.26039 0.0
H882 H 0.79283 0.13469 0.33272 0.0
H883 H 0.78795 0.19504 0.32166 0.0
H884 H 0.77575 0.21173 0.34887 0.0
H885 H 0.79504 0.18323 0.3535 0.0
H886 H 0.73674 0.14095 0.36102 0.0
H887 H 0.76684 0.15317 0.37514 0.0
H888 H 0.73685 0.17047 0.37899 0.0
H889 H 0.64493 0.1833 0.23193 0.0
H890 H 0.61279 0.25044 0.27109 0.0
H891 H 0.64637 0.24921 0.304 0.0
H892 H 0.65951 0.14977 0.28467 0.0
H893 H 0.66737 0.14345 0.25117 0.0
H894 H 0.68995 0.1364 0.27678 0.0
H895 H 0.70338 0.20352 0.23709 0.0
H896 H 0.72539 0.1805 0.2482 0.0
H897 H 0.69839 0.16988 0.22755 0.0
H898 H 0.76377 0.10973 0.25714 0.0
C899 C 0.74219 0.13981 0.27641 0.0
C900 C 0.40169 0.9946 0.99227 0.0
C901 C 0.39423 0.97324 0.97608 0.0
C902 C 0.41094 0.96588 0.95564 0.0
C903 C 0.44103 1.00179 0.96666 0.0
C904 C 0.425 0.00862 0.98711 0.0
C905 C 0.43496 0.03285 1.00133 0.0
H906 H 0.52589 0.13064 0.01594 0.0
C907 C 0.4631 0.0211 0.96581 0.0
C908 C 0.45965 0.0393 0.98619 0.0
H909 H 0.45435 0.11796 0.05873 0.0
H910 H 0.44442 0.07943 0.03332 0.0
H911 H 0.49943 0.11973 0.96149 0.0
H912 H 0.54242 0.06865 0.01048 0.0
H913 H 0.55319 0.0643 0.97824 0.0
H914 H 0.55723 0.09589 0.99403 0.0
H915 H 0.53437 0.12153 0.96351 0.0
H916 H 0.51752 0.0997 0.94075 0.0
C917 C 0.41432 0.05431 0.99866 0.0
C918 C 0.4411 0.02538 0.02972 0.0
C919 C 0.5299 0.01682 0.8926 0.0
C920 C 0.55112 0.03335 0.88593 0.0
C921 C 0.55863 0.05398 0.90316 0.0
C922 C 0.54472 0.05879 0.92607 0.0
C923 C 0.52277 0.04301 0.93186 0.0
C924 C 0.51593 0.02211 0.91554 0.0
C925 C 0.49165 0.00784 0.9247 0.0
C926 C 0.48478 0.02396 0.94876 0.0
C927 C 0.50311 0.04458 0.95284 0.0
C928 C 0.47055 0.00938 0.90315 0.0
C929 C 0.49905 0.97967 0.93168 0.0
C930 C 0.50828 0.11935 0.02008 0.0
C931 C 0.49125 0.12733 0.04002 0.0
C932 C 0.46811 0.11237 0.04396 0.0
C933 C 0.46226 0.08985 0.02903 0.0
C934 C 0.47939 0.08213 0.00935 0.0
C935 C 0.50182 0.09693 0.00488 0.0
C936 C 0.5167 0.08658 0.98183 0.0
C937 C 0.49976 0.06288 0.97368 0.0
C938 C 0.47804 0.06032 0.99007 0.0
C939 C 0.51732 0.1079 0.96075 0.0
C940 C 0.54393 0.07853 0.99141 0.0
H941 H 0.4459 0.97344 0.93489 0.0
H942 H 0.38915 1.00094 0.00792 0.0
H943 H 0.45083 0.00622 0.03024 0.0
H944 H 0.45474 0.03936 0.03964 0.0
H945 H 0.42294 0.02365 0.04134 0.0
H946 H 0.40246 0.05137 0.98062 0.0
H947 H 0.40066 0.05423 0.01536 0.0
H948 H 0.42321 0.07412 0.99681 0.0
H949 H 0.52355 1.00095 0.87966 0.0
H950 H 0.57507 0.06681 0.89858 0.0
H951 H 0.55127 0.07503 0.93808 0.0
H952 H 0.47144 0.02881 0.89376 0.0
H953 H 0.47339 0.99425 0.88774 0.0
H954 H 0.45047 0.00739 0.91062 0.0
H955 H 0.5189 0.97946 0.94052 0.0
H956 H 0.48605 0.97092 0.94642 0.0
H957 H 0.49908 0.96675 0.9141 0.0
H958 H 0.40576 0.94934 0.94304 0.0
C959 C 0.43427 0.97991 0.95093 0.0
Mn960 Mn 0.25921 0.87618 0.00841 0.0
Mn961 Mn 0.25258 0.89371 0.94574 0.0
C962 C 0.23714 0.84897 0.97836 0.0
C963 C 0.28052 0.85406 0.04158 0.0
C964 C 0.22149 0.91779 0.98984 0.0
O965 O 0.28855 0.90411 1.00447 0.0
O966 O 0.28285 0.91285 0.96193 0.0
C967 C 0.30125 0.87206 0.92453 0.0
N968 N 0.27474 0.87317 0.9242 0.0
C969 C 0.27166 0.84214 0.88851 0.0
C970 C 0.29893 0.84079 0.8884 0.0
C971 C 0.31378 0.85578 0.90653 0.0
C972 C 0.26026 0.85878 0.90687 0.0
H973 H 0.31277 0.88345 0.93848 0.0
C974 C 0.29525 0.91584 0.98356 0.0
O975 O 0.26515 0.87319 0.04673 0.0
O976 O 0.28476 0.84888 0.0172 0.0
N977 N 0.22426 0.87579 0.92798 0.0
C978 C 0.19811 0.878 0.93176 0.0
C979 C 0.18051 0.86362 0.91572 0.0
C980 C 0.18994 0.84721 0.8959 0.0
C981 C 0.21692 0.84532 0.89232 0.0
C982 C 0.23353 0.86023 0.90882 0.0
H983 H 0.19074 0.89055 0.94697 0.0
O984 O 0.23203 0.84726 1.00298 0.0
O985 O 0.25402 0.86706 0.9723 0.0
O986 O 0.23126 0.90431 0.00794 0.0
O987 O 0.2284 0.91555 0.96608 0.0
C988 C 0.22797 0.82889 0.87333 0.0
C989 C 0.25532 0.82722 0.87148 0.0
H990 H 0.30866 0.82815 0.87464 0.0
H991 H 0.33483 0.85473 0.90665 0.0
H992 H 0.15972 0.86512 0.91866 0.0
H993 H 0.17631 0.83598 0.88371 0.0
H994 H 0.21562 0.81717 0.86028 0.0
H995 H 0.26357 0.81416 0.8571 0.0
Mn996 Mn 0.14644 0.50888 0.25237 0.0
Mn997 Mn 0.12342 0.56988 0.24718 0.0
C998 C 0.16892 0.54052 0.22858 0.0
C999 C 0.17296 0.47789 0.27169 0.0
C1000 C 0.10096 0.52332 0.21651 0.0
O1001 O 0.12081 0.51075 0.28306 0.0
O1002 O 0.10744 0.55189 0.27733 0.0
C1003 C 0.14636 0.59278 0.2957 0.0
N1004 N 0.14342 0.59324 0.26937 0.0
C1005 C 0.17097 0.63192 0.26661 0.0
C1006 C 0.17415 0.63195 0.29371 0.0
C1007 C 0.16182 0.61226 0.3083 0.0
C1008 C 0.15524 0.61207 0.25514 0.0
H1009 H 0.13703 0.57765 0.30701 0.0
C1010 C 0.10721 0.5304 0.28982 0.0
O1011 O 0.15281 0.47091 0.25759 0.0
O1012 O 0.17667 0.50277 0.27599 0.0
N1013 N 0.13775 0.58961 0.21908 0.0
C1014 C 0.13378 0.58607 0.19302 0.0
C1015 C 0.14521 0.60383 0.17564 0.0
C1016 C 0.1605 0.62509 0.18522 0.0
C1017 C 0.16418 0.62843 0.21212 0.0
C1018 C 0.15209 0.61025 0.22852 0.0
H1019 H 0.12212 0.56972 0.18552 0.0
O1020 O 0.17206 0.51589 0.22357 0.0
O1021 O 0.15242 0.54582 0.24684 0.0
O1022 O 0.11596 0.50647 0.2262 0.0
O1023 O 0.10208 0.54752 0.22305 0.0
C1024 C 0.17974 0.64883 0.22328 0.0
C1025 C 0.18319 0.65054 0.2505 0.0
H1026 H 0.18617 0.64686 0.30349 0.0
H1027 H 0.16429 0.61207 0.32921 0.0
H1028 H 0.14233 0.60107 0.1549 0.0
H1029 H 0.16948 0.6386 0.17175 0.0
H1030 H 0.18947 0.66308 0.21107 0.0
H1031 H 0.19551 0.66609 0.25881 0.0
Mn1032 Mn 0.75538 0.62926 0.01105 0.0
Mn1033 Mn 0.69687 0.64938 0.98931 0.0
C1034 C 0.71774 0.603 0.01557 0.0
C1035 C 0.79531 0.60804 0.00719 0.0
C1036 C 0.72254 0.67077 0.03864 0.0
O1037 O 0.76602 0.6582 0.98552 0.0
O1038 O 0.72576 0.66857 0.97198 0.0
C1039 C 0.70004 0.63005 0.93482 0.0
N1040 N 0.68727 0.63089 0.95797 0.0
C1041 C 0.65109 0.60528 0.94037 0.0
C1042 C 0.6638 0.60419 0.9163 0.0
C1043 C 0.68845 0.6165 0.91357 0.0
C1044 C 0.66374 0.6188 0.96091 0.0
H1045 H 0.71886 0.63972 0.93259 0.0
C1046 C 0.75066 0.67133 0.97133 0.0
O1047 O 0.79179 0.62668 0.02404 0.0
O1048 O 0.77587 0.60218 0.99163 0.0
N1049 N 0.66701 0.63234 1.00426 0.0
C1050 C 0.65797 0.63414 0.02909 0.0
C1051 C 0.63386 0.62221 0.03531 0.0
C1052 C 0.61909 0.60901 0.01585 0.0
C1053 C 0.62863 0.60774 0.99037 0.0
C1054 C 0.6529 0.61975 0.98539 0.0
H1055 H 0.66909 0.64456 0.04405 0.0
O1056 O 0.73761 0.60028 0.03094 0.0
O1057 O 0.72027 0.62107 0.99833 0.0
O1058 O 0.74268 0.65682 0.03707 0.0
O1059 O 0.70418 0.66956 0.02181 0.0
C1060 C 0.61508 0.59495 0.96973 0.0
C1061 C 0.6264 0.59346 0.94481 0.0
H1062 H 0.65487 0.59389 0.89982 0.0
H1063 H 0.69841 0.61571 0.89507 0.0
H1064 H 0.62662 0.62331 0.05502 0.0
H1065 H 0.60048 0.59985 0.0207 0.0
H1066 H 0.59612 0.58578 0.97295 0.0
H1067 H 0.61602 0.58305 0.92925 0.0
Mn1068 Mn 0.88113 0.00776 0.25765 0.0
Mn1069 Mn 0.89885 0.94471 0.25367 0.0
C1070 C 0.85373 0.97594 0.23845 0.0
C1071 C 0.8593 0.04268 0.27694 0.0
C1072 C 0.92164 0.98703 0.21909 0.0
O1073 O 0.90969 0.00623 0.28587 0.0
O1074 O 0.91873 0.96335 0.28196 0.0
C1075 C 0.87892 0.92657 0.30444 0.0
N1076 N 0.87923 0.92439 0.278 0.0
C1077 C 0.84831 0.88815 0.27853 0.0
C1078 C 0.8478 0.88993 0.30576 0.0
C1079 C 0.86314 0.90925 0.31875 0.0
C1080 C 0.86453 0.90585 0.2653 0.0
H1081 H 0.89056 0.94146 0.31454 0.0
C1082 C 0.92182 0.9859 0.29306 0.0
O1083 O 0.87816 0.04645 0.26058 0.0
O1084 O 0.85448 0.01872 0.2837 0.0
N1085 N 0.88031 0.92463 0.22739 0.0
C1086 C 0.88173 0.92659 0.20103 0.0
C1087 C 0.8669 0.90916 0.18514 0.0
C1088 C 0.85083 0.88988 0.19649 0.0
C1089 C 0.84977 0.88817 0.22365 0.0
C1090 C 0.86516 0.90593 0.23849 0.0
H1091 H 0.89395 0.94142 0.19218 0.0
O1092 O 0.85191 1.00023 0.23206 0.0
O1093 O 0.87195 0.97104 0.25504 0.0
O1094 O 0.90842 0.00557 0.22868 0.0
O1095 O 0.91978 0.96361 0.22723 0.0
C1096 C 0.83365 0.86988 0.23656 0.0
C1097 C 0.83289 0.86989 0.26398 0.0
H1098 H 0.83552 0.87672 0.31687 0.0
H1099 H 0.86275 0.91083 0.33976 0.0
H1100 H 0.86775 0.91067 0.1642 0.0
H1101 H 0.8392 0.87667 0.18418 0.0
H1102 H 0.82146 0.85598 0.22559 0.0
H1103 H 0.82011 0.85601 0.27368 0.0
Mn1104 Mn 0.25514 0.13035 0.50988 0.0
Mn1105 Mn 0.19753 0.15007 0.4855 0.0
C1106 C 0.21741 0.10407 0.51319 0.0
C1107 C 0.29515 0.10909 0.5088 0.0
C1108 C 0.22117 0.17208 0.53551 0.0
O1109 O 0.26688 0.15914 0.48458 0.0
O1110 O 0.22715 0.16908 0.46924 0.0
C1111 C 0.20306 0.13016 0.43144 0.0
N1112 N 0.18929 0.13125 0.45399 0.0
C1113 C 0.15389 0.10543 0.43513 0.0
C1114 C 0.16765 0.10408 0.41166 0.0
C1115 C 0.1924 0.11637 0.40986 0.0
C1116 C 0.16563 0.11918 0.45605 0.0
H1117 H 0.22197 0.1398 0.42992 0.0
C1118 C 0.25204 0.17202 0.46961 0.0
O1119 O 0.29053 0.12793 0.52511 0.0
O1120 O 0.27694 0.10331 0.49178 0.0
N1121 N 0.16703 0.13319 0.49933 0.0
C1122 C 0.15689 0.13531 0.52371 0.0
C1123 C 0.13251 0.12346 0.52901 0.0
C1124 C 0.11857 0.11005 0.50908 0.0
C1125 C 0.12924 0.1085 0.48406 0.0
C1126 C 0.15373 0.12042 0.48001 0.0
H1127 H 0.16735 0.14591 0.539 0.0
O1128 O 0.23666 0.1016 0.52935 0.0
O1129 O 0.22059 0.12185 0.49572 0.0
O1130 O 0.24124 0.15802 0.53492 0.0
O1131 O 0.20344 0.1707 0.51803 0.0
C1132 C 0.11657 0.09549 0.463 0.0
C1133 C 0.12901 0.09367 0.43863 0.0
H1134 H 0.15943 0.09359 0.39494 0.0
H1135 H 0.20316 0.11537 0.39183 0.0
H1136 H 0.1244 0.1248 0.54836 0.0
H1137 H 0.09976 0.10097 0.51321 0.0
H1138 H 0.09744 0.08643 0.46547 0.0
H1139 H 0.11929 0.08309 0.42276 0.0
Mn1140 Mn 0.38108 0.50745 0.75934 0.0
Mn1141 Mn 0.40028 0.445 0.75404 0.0
C1142 C 0.35507 0.4757 0.73818 0.0
C1143 C 0.35714 0.54046 0.77946 0.0
C1144 C 0.42324 0.48886 0.72145 0.0
O1145 O 0.40874 0.50565 0.78838 0.0
O1146 O 0.41908 0.46322 0.78332 0.0
C1147 C 0.37937 0.42503 0.80372 0.0
N1148 N 0.38037 0.42364 0.77727 0.0
C1149 C 0.34974 0.38713 0.77599 0.0
C1150 C 0.34852 0.38809 0.80322 0.0
C1151 C 0.36338 0.40714 0.81713 0.0
C1152 C 0.36618 0.40534 0.76368 0.0
H1153 H 0.3906 0.43974 0.81452 0.0
C1154 C 0.42132 0.48548 0.79515 0.0
O1155 O 0.37654 0.54598 0.76418 0.0
O1156 O 0.3531 0.51599 0.78466 0.0
N1157 N 0.3828 0.42535 0.72676 0.0
C1158 C 0.38482 0.42814 0.70053 0.0
C1159 C 0.3705 0.41111 0.6838 0.0
C1160 C 0.35427 0.39139 0.69417 0.0
C1161 C 0.35257 0.38883 0.72122 0.0
C1162 C 0.3675 0.40621 0.73694 0.0
H1163 H 0.39712 0.44336 0.69243 0.0
O1164 O 0.35294 0.50015 0.7325 0.0
O1165 O 0.3729 0.47069 0.75515 0.0
O1166 O 0.40955 0.507 0.73126 0.0
O1167 O 0.42141 0.46515 0.72878 0.0
C1168 C 0.33621 0.37008 0.73319 0.0
C1169 C 0.33479 0.36923 0.76055 0.0
H1170 H 0.33605 0.37447 0.81363 0.0
H1171 H 0.36243 0.4081 0.83815 0.0
H1172 H 0.37183 0.41328 0.66294 0.0
H1173 H 0.34301 0.3785 0.68121 0.0
H1174 H 0.32432 0.35648 0.72153 0.0
H1175 H 0.32183 0.355 0.76952 0.0
Mn1176 Mn 0.75919 0.37672 0.51005 0.0
Mn1177 Mn 0.75363 0.39331 0.44696 0.0
C1178 C 0.73877 0.34848 0.47977 0.0
C1179 C 0.77999 0.35603 0.5445 0.0
C1180 C 0.72043 0.41663 0.48983 0.0
O1181 O 0.7877 0.40562 0.50663 0.0
O1182 O 0.78264 0.41369 0.46389 0.0
C1183 C 0.80381 0.37345 0.42758 0.0
N1184 N 0.77727 0.37354 0.42634 0.0
C1185 C 0.77654 0.34238 0.39071 0.0
C1186 C 0.80387 0.34208 0.39152 0.0
C1187 C 0.81755 0.35764 0.41008 0.0
C1188 C 0.76391 0.35858 0.4086 0.0
H1189 H 0.81444 0.3853 0.44184 0.0
C1190 C 0.79447 0.41736 0.48574 0.0
O1191 O 0.76349 0.37443 0.54854 0.0
O1192 O 0.78565 0.35072 0.52044 0.0
N1193 N 0.72656 0.37425 0.42838 0.0
C1194 C 0.70021 0.37563 0.43113 0.0
C1195 C 0.68369 0.36069 0.41446 0.0
C1196 C 0.6944 0.3446 0.39508 0.0
C1197 C 0.72156 0.3436 0.39254 0.0
C1198 C 0.73706 0.35905 0.40961 0.0
H1199 H 0.69186 0.38795 0.44599 0.0
O1200 O 0.73315 0.34688 0.50428 0.0
O1201 O 0.75536 0.36689 0.47383 0.0
O1202 O 0.73027 0.40373 0.50831 0.0
O1203 O 0.72794 0.41436 0.46627 0.0
C1204 C 0.73387 0.32757 0.37401 0.0
C1205 C 0.76133 0.32688 0.37316 0.0
H1206 H 0.81454 0.32982 0.37814 0.0
H1207 H 0.83864 0.35741 0.41092 0.0
H1208 H 0.66274 0.36152 0.41658 0.0
H1209 H 0.68159 0.33294 0.38239 0.0
H1210 H 0.72239 0.31542 0.36056 0.0
H1211 H 0.77056 0.31415 0.35911 0.0
Mn1212 Mn 0.64687 0.0089 0.75087 0.0
Mn1213 Mn 0.62369 0.06985 0.74569 0.0
C1214 C 0.66981 0.04091 0.72801 0.0
C1215 C 0.67283 0.9778 0.77068 0.0
C1216 C 0.60244 0.0235 0.71382 0.0
O1217 O 0.62045 0.01038 0.7809 0.0
O1218 O 0.60715 0.05156 0.77536 0.0
C1219 C 0.64546 0.09242 0.79489 0.0
N1220 N 0.64303 0.09315 0.76852 0.0
C1221 C 0.67013 0.13222 0.76672 0.0
C1222 C 0.67277 0.13197 0.79386 0.0
C1223 C 0.66043 0.11195 0.80799 0.0
C1224 C 0.65491 0.11228 0.75473 0.0
H1225 H 0.63612 0.07703 0.80585 0.0
C1226 C 0.60677 0.02996 0.78766 0.0
O1227 O 0.65316 0.97091 0.7559 0.0
O1228 O 0.67641 1.00265 0.77527 0.0
N1229 N 0.63853 0.08995 0.71809 0.0
C1230 C 0.63517 0.08664 0.69192 0.0
C1231 C 0.64666 0.10479 0.67498 0.0
C1232 C 0.66139 0.1262 0.6851 0.0
C1233 C 0.66449 0.12927 0.71209 0.0
C1234 C 0.65236 0.1107 0.72804 0.0
H1235 H 0.62396 0.0702 0.68401 0.0
O1236 O 0.67327 0.01635 0.72287 0.0
O1237 O 0.65281 0.04593 0.74586 0.0
O1238 O 0.61721 0.0066 0.72375 0.0
O1239 O 0.60312 0.04758 0.72083 0.0
C1240 C 0.67951 0.14978 0.72377 0.0
C1241 C 0.6824 0.15121 0.75106 0.0
H1242 H 0.6844 0.14693 0.80404 0.0
H1243 H 0.66249 0.11155 0.82894 0.0
H1244 H 0.64426 0.10223 0.65417 0.0
H1245 H 0.67039 0.14004 0.67196 0.0
H1246 H 0.68924 0.16433 0.71193 0.0
H1247 H 0.69432 0.16684 0.75979 0.0
Mn1248 Mn 0.00814 0.25501 0.87773 0.0
Mn1249 Mn 0.94727 0.24905 0.90205 0.0
C1250 C 0.97555 0.23292 0.85422 0.0
C1251 C 0.03983 0.27603 0.8524 0.0
C1252 C 0.99252 0.21756 0.92145 0.0
O1253 O 0.00746 0.28451 0.90527 0.0
O1254 O 0.96587 0.27936 0.91922 0.0
C1255 C 0.92527 0.29784 0.88227 0.0
N1256 N 0.92446 0.27127 0.88362 0.0
C1257 C 0.8865 0.26821 0.8559 0.0
C1258 C 0.88684 0.29554 0.85436 0.0
C1259 C 0.90633 0.31041 0.86758 0.0
C1260 C 0.90575 0.25678 0.87103 0.0
H1261 H 0.9403 0.30935 0.89226 0.0
C1262 C 0.98818 0.29133 0.91941 0.0
O1263 O 0.04619 0.26061 0.87103 0.0
O1264 O 0.0152 0.2805 0.84957 0.0
N1265 N 0.92732 0.22069 0.88643 0.0
C1266 C 0.93082 0.1945 0.88842 0.0
C1267 C 0.9135 0.17686 0.87553 0.0
C1268 C 0.89278 0.18632 0.86077 0.0
C1269 C 0.88951 0.21335 0.85908 0.0
C1270 C 0.90724 0.22998 0.87255 0.0
H1271 H 0.94682 0.18712 0.8996 0.0
O1272 O 0.99985 0.22774 0.85019 0.0
O1273 O 0.97118 0.25011 0.87243 0.0
O1274 O 0.00944 0.2268 0.90574 0.0
O1275 O 0.96892 0.22492 0.92209 0.0
C1276 C 0.86972 0.22443 0.84408 0.0
C1277 C 0.86822 0.25184 0.8425 0.0
H1278 H 0.87241 0.30531 0.84286 0.0
H1279 H 0.90681 0.3315 0.86636 0.0
H1280 H 0.91621 0.15603 0.87684 0.0
H1281 H 0.87964 0.17266 0.8506 0.0
H1282 H 0.85582 0.21206 0.83335 0.0
H1283 H 0.85317 0.26013 0.83058 0.0
Mn1284 Mn 0.50549 0.75352 0.37797 0.0
Mn1285 Mn 0.44321 0.74441 0.39759 0.0
C1286 C 0.47522 0.73071 0.3518 0.0
C1287 C 0.53793 0.77584 0.35461 0.0
C1288 C 0.48832 0.71416 0.41948 0.0
O1289 O 0.50195 0.78236 0.40603 0.0
O1290 O 0.45973 0.77478 0.41654 0.0
C1291 C 0.42094 0.79308 0.37778 0.0
N1292 N 0.42085 0.76648 0.37845 0.0
C1293 C 0.38421 0.7631 0.34901 0.0
C1294 C 0.38384 0.79045 0.34814 0.0
C1295 C 0.40232 0.8055 0.36255 0.0
C1296 C 0.40315 0.75182 0.36465 0.0
H1297 H 0.43516 0.80475 0.38873 0.0
C1298 C 0.48132 0.78796 0.41877 0.0
O1299 O 0.54374 0.76058 0.37357 0.0
O1300 O 0.51335 0.77965 0.35059 0.0
N1301 N 0.42509 0.71596 0.38007 0.0
C1302 C 0.42917 0.68983 0.38165 0.0
C1303 C 0.41284 0.67207 0.36768 0.0
C1304 C 0.39246 0.68133 0.35232 0.0
C1305 C 0.38858 0.70829 0.35107 0.0
C1306 C 0.40535 0.72505 0.36556 0.0
H1307 H 0.44485 0.68259 0.39335 0.0
O1308 O 0.49993 0.72645 0.34943 0.0
O1309 O 0.46907 0.74727 0.36994 0.0
O1310 O 0.50608 0.72508 0.40579 0.0
O1311 O 0.46435 0.72021 0.41805 0.0
C1312 C 0.36906 0.71921 0.33559 0.0
C1313 C 0.36691 0.74659 0.33453 0.0
H1314 H 0.36962 0.80011 0.33628 0.0
H1315 H 0.40224 0.82662 0.36187 0.0
H1316 H 0.41603 0.6513 0.36867 0.0
H1317 H 0.38007 0.66759 0.34139 0.0
H1318 H 0.35587 0.70674 0.3241 0.0
H1319 H 0.3521 0.75476 0.32222 0.0
Mn1320 Mn 0.00909 0.75605 0.63595 0.0
Mn1321 Mn 0.98591 0.69866 0.65949 0.0
C1322 C 0.01011 0.71761 0.61078 0.0
C1323 C 0.00561 0.79516 0.61318 0.0
C1324 C 0.03778 0.72336 0.67623 0.0
O1325 O 0.98577 0.76826 0.66617 0.0
O1326 O 0.9711 0.72856 0.6788 0.0
C1327 C 0.93037 0.70284 0.64447 0.0
N1328 N 0.95299 0.68952 0.64382 0.0
C1329 C 0.93212 0.65323 0.62091 0.0
C1330 C 0.90856 0.66652 0.62138 0.0
C1331 C 0.90773 0.69151 0.63307 0.0
C1332 C 0.95411 0.66566 0.63227 0.0
H1333 H 0.92959 0.72192 0.65371 0.0
C1334 C 0.97157 0.75358 0.68068 0.0
O1335 O 0.02374 0.79187 0.63035 0.0
O1336 O 0.98849 0.77615 0.61004 0.0
N1337 N 0.9984 0.66803 0.64232 0.0
C1338 C 0.02294 0.65845 0.64231 0.0
C1339 C 0.02733 0.634 0.63054 0.0
C1340 C 0.00638 0.61946 0.61938 0.0
C1341 C 0.98126 0.62959 0.61993 0.0
C1342 C 0.97813 0.6542 0.63161 0.0
H1343 H 0.03905 0.66941 0.65114 0.0
O1344 O 0.02625 0.73695 0.60625 0.0
O1345 O 0.9942 0.72113 0.62997 0.0
O1346 O 0.03637 0.74331 0.66185 0.0
O1347 O 0.01997 0.70551 0.67684 0.0
C1348 C 0.9592 0.61627 0.60929 0.0
C1349 C 0.93467 0.62816 0.6096 0.0
H1350 H 0.89102 0.65777 0.61276 0.0
H1351 H 0.88964 0.70191 0.63348 0.0
H1352 H 0.04679 0.62632 0.63022 0.0
H1353 H 0.00982 0.60057 0.61038 0.0
H1354 H 0.96096 0.59708 0.60036 0.0
H1355 H 0.91797 0.61794 0.60086 0.0
Mn1356 Mn 0.51027 0.25368 0.13579 0.0
Mn1357 Mn 0.48726 0.19676 0.16047 0.0
C1358 C 0.51137 0.21478 0.11131 0.0
C1359 C 0.50681 0.29244 0.11251 0.0
C1360 C 0.539 0.22204 0.17683 0.0
O1361 O 0.48689 0.2664 0.16572 0.0
O1362 O 0.4722 0.22699 0.17912 0.0
C1363 C 0.4317 0.20028 0.14525 0.0
N1364 N 0.45442 0.18711 0.1449 0.0
C1365 C 0.43388 0.15037 0.1224 0.0
C1366 C 0.41022 0.1635 0.12258 0.0
C1367 C 0.40917 0.18863 0.13393 0.0
C1368 C 0.45573 0.16308 0.13372 0.0
H1369 H 0.43075 0.21948 0.15419 0.0
C1370 C 0.47262 0.25204 0.18044 0.0
O1371 O 0.52493 0.28935 0.12974 0.0
O1372 O 0.48971 0.27338 0.10951 0.0
N1373 N 0.49998 0.16591 0.14391 0.0
C1374 C 0.52461 0.15655 0.14405 0.0
C1375 C 0.52922 0.132 0.13259 0.0
C1376 C 0.50841 0.11716 0.12155 0.0
C1377 C 0.48319 0.12709 0.12191 0.0
C1378 C 0.47984 0.15179 0.13333 0.0
H1379 H 0.54062 0.16776 0.15274 0.0
O1380 O 0.52748 0.23405 0.10645 0.0
O1381 O 0.49545 0.21863 0.13045 0.0
O1382 O 0.53753 0.24157 0.16194 0.0
O1383 O 0.52126 0.20414 0.17783 0.0
C1384 C 0.46128 0.11352 0.11128 0.0
C1385 C 0.43667 0.12522 0.11135 0.0
H1386 H 0.39278 0.15452 0.11398 0.0
H1387 H 0.39101 0.19891 0.1341 0.0
H1388 H 0.54874 0.12448 0.1324 0.0
H1389 H 0.51203 0.09822 0.11277 0.0
H1390 H 0.46323 0.09426 0.10254 0.0
H1391 H 0.42007 0.11479 0.10264 0.0
C1392 C 0.20478 0.79461 0.93749 0.0
C1393 C 0.22667 0.78383 0.92524 0.0
H1394 H 0.19085 0.82375 0.96446 0.0
C1395 C 0.25162 0.79402 0.93172 0.0
H1396 H 0.18531 0.787 0.93311 0.0
C1397 C 0.25464 0.81482 0.94938 0.0
C1398 C 0.23283 0.82616 0.96087 0.0
H1399 H 0.26889 0.78655 0.92247 0.0
H1400 H 0.27414 0.82246 0.95365 0.0
C1401 C 0.20788 0.81547 0.95547 0.0
C1402 C 0.07435 0.50808 0.35282 0.0
C1403 C 0.06378 0.53165 0.36188 0.0
H1404 H 0.09674 0.48901 0.32301 0.0
C1405 C 0.06645 0.5539 0.34651 0.0
H1406 H 0.07252 0.4906 0.36432 0.0
C1407 C 0.07986 0.55299 0.32304 0.0
C1408 C 0.09136 0.5298 0.31413 0.0
H1409 H 0.05821 0.57223 0.35277 0.0
H1410 H 0.08163 0.57087 0.31215 0.0
C1411 C 0.08823 0.50721 0.32923 0.0
C1412 C 0.79597 0.72017 0.93685 0.0
C1413 C 0.77833 0.7318 0.91976 0.0
H1414 H 0.80122 0.69191 0.96689 0.0
C1415 C 0.75247 0.72219 0.91876 0.0
H1416 H 0.8161 0.72712 0.93793 0.0
C1417 C 0.74407 0.70225 0.93502 0.0
C1418 C 0.76121 0.69117 0.95297 0.0
H1419 H 0.73855 0.73019 0.90535 0.0
H1420 H 0.72382 0.69575 0.93358 0.0
C1421 C 0.78746 0.70005 0.95342 0.0
C1422 C 0.96014 0.01103 0.3529 0.0
C1423 C 0.96993 0.98764 0.36266 0.0
H1424 H 0.93718 0.02905 0.32339 0.0
C1425 C 0.96451 0.96423 0.34886 0.0
H1426 H 0.96393 0.02943 0.36313 0.0
C1427 C 0.94952 0.96403 0.32614 0.0
C1428 C 0.93921 0.98724 0.31647 0.0
H1429 H 0.97209 0.94594 0.35552 0.0
H1430 H 0.94575 0.94539 0.31635 0.0
C1431 C 0.9448 0.01082 0.33013 0.0
C1432 C 0.23901 0.21714 0.59261 0.0
C1433 C 0.21545 0.2297 0.59743 0.0
H1434 H 0.25923 0.1891 0.56962 0.0
C1435 C 0.19344 0.22264 0.58222 0.0
H1436 H 0.25623 0.22194 0.60421 0.0
C1437 C 0.19515 0.20385 0.56217 0.0
C1438 C 0.21884 0.19145 0.55719 0.0
H1439 H 0.17504 0.23207 0.58544 0.0
H1440 H 0.17794 0.19908 0.55056 0.0
C1441 C 0.24066 0.19818 0.57286 0.0
C1442 C 0.46408 0.52703 0.67232 0.0
C1443 C 0.476 0.50687 0.65809 0.0
H1444 H 0.43831 0.53734 0.70338 0.0
C1445 C 0.47042 0.48085 0.6651 0.0
H1446 H 0.4681 0.54732 0.6678 0.0
C1447 C 0.45362 0.47514 0.68574 0.0
C1448 C 0.44165 0.49526 0.69993 0.0
H1449 H 0.4787 0.46471 0.65437 0.0
H1450 H 0.44977 0.45482 0.69031 0.0
C1451 C 0.44709 0.5213 0.69291 0.0
C1452 C 0.78204 0.32063 0.60862 0.0
C1453 C 0.80365 0.3047 0.6053 0.0
H1454 H 0.7581 0.34992 0.5923 0.0
C1455 C 0.81848 0.30682 0.5825 0.0
H1456 H 0.77037 0.31934 0.62609 0.0
C1457 C 0.81123 0.32397 0.5629 0.0
C1458 C 0.7894 0.33977 0.56607 0.0
H1459 H 0.83524 0.29468 0.57956 0.0
H1460 H 0.82252 0.32465 0.54516 0.0
C1461 C 0.77516 0.33822 0.58935 0.0
C1462 C 0.55824 0.02656 0.6544 0.0
C1463 C 0.55372 0.99997 0.64792 0.0
H1464 H 0.57654 0.05474 0.68019 0.0
C1465 C 0.56465 0.98112 0.66408 0.0
H1466 H 0.55067 0.04175 0.64234 0.0
C1467 C 0.58009 0.98866 0.68566 0.0
C1468 C 0.58474 0.01525 0.69192 0.0
H1469 H 0.56125 0.96046 0.66016 0.0
H1470 H 0.58842 0.9736 0.6974 0.0
C1471 C 0.57332 0.03407 0.67616 0.0
C1472 C 0.9335 0.19577 0.80459 0.0
C1473 C 0.91877 0.21599 0.7941 0.0
H1474 H 0.96314 0.1853 0.83197 0.0
C1475 C 0.92365 0.24174 0.80314 0.0
H1476 H 0.93061 0.17577 0.79773 0.0
C1477 C 0.94218 0.24702 0.82265 0.0
C1478 C 0.95601 0.22671 0.83379 0.0
H1479 H 0.91262 0.25776 0.79572 0.0
H1480 H 0.94549 0.26706 0.82928 0.0
C1481 C 0.95215 0.20114 0.8241 0.0
C1482 C 0.45537 0.84308 0.46069 0.0
C1483 C 0.47707 0.86019 0.46341 0.0
H1484 H 0.43978 0.80712 0.44521 0.0
C1485 C 0.5011 0.85258 0.45297 0.0
H1486 H 0.43671 0.84819 0.46886 0.0
C1487 C 0.50297 0.82879 0.43901 0.0
C1488 C 0.48091 0.81203 0.4356 0.0
H1489 H 0.51817 0.86542 0.45481 0.0
H1490 H 0.52149 0.82384 0.43044 0.0
C1491 C 0.45727 0.81937 0.44716 0.0
C1492 C 0.10445 0.29003 0.81912 0.0
C1493 C 0.09621 0.29519 0.79368 0.0
H1494 H 0.09298 0.27972 0.85779 0.0
C1495 C 0.0694 0.29628 0.78834 0.0
H1496 H 0.12505 0.28902 0.82366 0.0
C1497 C 0.0511 0.2916 0.80793 0.0
C1498 C 0.05926 0.28512 0.8331 0.0
H1499 H 0.0626 0.30034 0.76888 0.0
H1500 H 0.03055 0.29186 0.80301 0.0
C1501 C 0.08613 0.28472 0.8386 0.0
C1502 C 0.48243 0.65784 0.46668 0.0
C1503 C 0.50865 0.65201 0.47165 0.0
H1504 H 0.45554 0.6817 0.44672 0.0
C1505 C 0.52825 0.66681 0.45907 0.0
H1506 H 0.46672 0.64659 0.47548 0.0
C1507 C 0.52178 0.68697 0.4422 0.0
C1508 C 0.49553 0.69293 0.43751 0.0
H1509 H 0.54866 0.66313 0.46255 0.0
H1510 H 0.5374 0.69799 0.43297 0.0
C1511 C 0.47599 0.678 0.44999 0.0
C1512 C 0.92121 0.75762 0.73415 0.0
C1513 C 0.91983 0.78454 0.73938 0.0
H1514 H 0.93813 0.72709 0.71218 0.0
C1515 C 0.93523 0.80186 0.72449 0.0
H1516 H 0.90919 0.74372 0.74472 0.0
C1517 C 0.95224 0.7922 0.70531 0.0
C1518 C 0.95393 0.76507 0.70062 0.0
H1519 H 0.93451 0.82275 0.72803 0.0
H1520 H 0.96408 0.80588 0.69432 0.0
C1521 C 0.93791 0.74808 0.71523 0.0
C1522 C 0.03157 0.85339 0.57589 0.0
C1523 C 0.00957 0.86127 0.5618 0.0
H1524 H 0.04734 0.82703 0.60327 0.0
C1525 C 0.98575 0.84734 0.5655 0.0
H1526 H 0.05051 0.86277 0.57327 0.0
C1527 C 0.98421 0.82599 0.58231 0.0
C1528 C 0.00626 0.81844 0.59632 0.0
H1529 H 0.96819 0.85288 0.55549 0.0
H1530 H 0.96574 0.81547 0.58441 0.0
C1531 C 0.02984 0.83258 0.5931 0.0
C1532 C 0.0979 0.74111 0.71706 0.0
C1533 C 0.10334 0.71721 0.72875 0.0
H1534 H 0.07329 0.76177 0.69119 0.0
C1535 C 0.08776 0.69505 0.72214 0.0
H1536 H 0.10971 0.75848 0.72162 0.0
C1537 C 0.06667 0.69697 0.7049 0.0
C1538 C 0.06092 0.72101 0.69354 0.0
H1539 H 0.09137 0.67641 0.73094 0.0
H1540 H 0.05474 0.67961 0.70063 0.0
C1541 C 0.07708 0.74296 0.69954 0.0
C1542 C 0.02126 0.66038 0.56448 0.0
C1543 C 0.99566 0.65449 0.55562 0.0
H1544 H 0.046 0.68517 0.58892 0.0
C1545 C 0.9755 0.67079 0.56388 0.0
H1546 H 0.03728 0.64828 0.55867 0.0
C1547 C 0.98048 0.69139 0.58153 0.0
C1548 C 0.00572 0.69636 0.5913 0.0
H1549 H 0.95569 0.6675 0.55696 0.0
H1550 H 0.96445 0.70329 0.58781 0.0
C1551 C 0.02628 0.68136 0.58193 0.0
C1552 C 0.79911 0.92831 0.25396 0.0
C1553 C 0.78899 0.92155 0.22924 0.0
H1554 H 0.82743 0.95087 0.27596 0.0
C1555 C 0.79982 0.93376 0.20726 0.0
H1556 H 0.79151 0.91914 0.27127 0.0
C1557 C 0.82066 0.95197 0.21003 0.0
C1558 C 0.83129 0.95768 0.23472 0.0
H1559 H 0.79222 0.92924 0.18798 0.0
H1560 H 0.82889 0.961 0.19292 0.0
C1561 C 0.81991 0.94625 0.25664 0.0
C1562 C 0.80417 0.07972 0.30851 0.0
C1563 C 0.80243 0.10127 0.2921 0.0
H1564 H 0.82358 0.04405 0.31655 0.0
C1565 C 0.82091 0.10458 0.27231 0.0
H1566 H 0.79009 0.07682 0.3239 0.0
C1567 C 0.84042 0.08632 0.26853 0.0
C1568 C 0.84148 0.06401 0.28407 0.0
H1569 H 0.81999 0.12112 0.25951 0.0
H1570 H 0.85392 0.08909 0.25261 0.0
C1571 C 0.82334 0.06107 0.30434 0.0
C1572 C 0.35249 0.95537 0.95703 0.0
C1573 C 0.36837 0.95972 0.97902 0.0
H1574 H 0.31724 0.93886 0.94127 0.0
C1575 C 0.35938 0.95092 1.00327 0.0
H1576 H 0.35862 0.96231 0.93817 0.0
C1577 C 0.33536 0.93712 0.00518 0.0
C1578 C 0.31974 0.93226 0.98292 0.0
H1579 H 0.37124 0.95409 0.02059 0.0
H1580 H 0.32927 0.92993 0.02395 0.0
C1581 C 0.32855 0.94201 0.95894 0.0
C1582 C 0.20539 0.41361 0.28541 0.0
C1583 C 0.23155 0.42181 0.28924 0.0
H1584 H 0.16632 0.42488 0.27664 0.0
C1585 C 0.23791 0.44867 0.28885 0.0
H1586 H 0.19997 0.393 0.28559 0.0
C1587 C 0.21858 0.46694 0.28442 0.0
C1588 C 0.19256 0.4587 0.27967 0.0
H1589 H 0.25788 0.45552 0.29193 0.0
H1590 H 0.22422 0.48747 0.2838 0.0
C1591 C 0.18615 0.43184 0.28033 0.0
C1592 C 0.16897 0.05366 0.48595 0.0
C1593 C 0.15384 0.04745 0.50788 0.0
H1594 H 0.20098 0.07633 0.47065 0.0
C1595 C 0.16078 0.05924 0.53201 0.0
H1596 H 0.16471 0.04456 0.46719 0.0
C1597 C 0.18183 0.07726 0.53396 0.0
C1598 C 0.19591 0.08431 0.51173 0.0
H1599 H 0.14954 0.05513 0.5493 0.0
H1600 H 0.1865 0.0864 0.55263 0.0
C1601 C 0.18979 0.07182 0.4879 0.0
C1602 C 0.71394 0.08479 0.68766 0.0
C1603 C 0.72589 0.10068 0.7072 0.0
H1604 H 0.68684 0.05288 0.67896 0.0
C1605 C 0.72002 0.09569 0.73336 0.0
H1606 H 0.71833 0.08791 0.66736 0.0
C1607 C 0.70213 0.07591 0.73982 0.0
C1608 C 0.68947 0.06078 0.72035 0.0
H1609 H 0.72861 0.10764 0.74891 0.0
H1610 H 0.69775 0.07279 0.76015 0.0
C1611 C 0.69609 0.06471 0.69424 0.0
C1612 C 0.35356 0.0787 0.54018 0.0
C1613 C 0.36422 0.06359 0.51991 0.0
H1614 H 0.32421 0.10495 0.55233 0.0
C1615 C 0.35149 0.06338 0.49546 0.0
H1616 H 0.36185 0.07881 0.55957 0.0
C1617 C 0.32896 0.07801 0.49154 0.0
C1618 C 0.31901 0.09355 0.5118 0.0
H1619 H 0.35904 0.05222 0.47924 0.0
H1620 H 0.31957 0.07743 0.47262 0.0
C1621 C 0.33164 0.09367 0.53608 0.0
C1622 C 0.66428 0.46307 0.48119 0.0
C1623 C 0.65772 0.46951 0.50705 0.0
H1624 H 0.68891 0.44164 0.45551 0.0
C1625 C 0.6721 0.4583 0.52722 0.0
H1626 H 0.65344 0.47082 0.46507 0.0
C1627 C 0.69235 0.44119 0.52171 0.0
C1628 C 0.69895 0.4349 0.49584 0.0
H1629 H 0.66797 0.463 0.54737 0.0
H1630 H 0.70296 0.43305 0.53778 0.0
C1631 C 0.68462 0.44613 0.47568 0.0
C1632 C 0.75289 0.29347 0.43295 0.0
C1633 C 0.72785 0.28339 0.42663 0.0
H1634 H 0.77565 0.3219 0.45471 0.0
C1635 C 0.70609 0.29427 0.43899 0.0
H1636 H 0.77005 0.28583 0.42362 0.0
C1637 C 0.7094 0.31511 0.45695 0.0
C1638 C 0.73441 0.32574 0.46217 0.0
H1639 H 0.68657 0.28675 0.4347 0.0
H1640 H 0.69245 0.32343 0.46606 0.0
C1641 C 0.7561 0.31432 0.45055 0.0
C1642 C 0.56652 0.05338 0.84477 0.0
C1643 C 0.56404 0.03111 0.86013 0.0
H1644 H 0.58125 0.07038 0.81023 0.0
C1645 C 0.57442 0.00753 0.85086 0.0
H1646 H 0.5584 0.07172 0.85119 0.0
C1647 C 0.58799 0.00667 0.82709 0.0
C1648 C 0.59095 0.02928 0.81199 0.0
H1649 H 0.57272 0.99003 0.86234 0.0
H1650 H 0.59642 0.98848 0.82075 0.0
C1651 C 0.57959 0.05247 0.8211 0.0
C1652 C 0.25525 0.22268 0.41696 0.0
C1653 C 0.28082 0.23286 0.41913 0.0
H1654 H 0.22653 0.19561 0.43046 0.0
C1655 C 0.29798 0.22159 0.43695 0.0
H1656 H 0.24175 0.23045 0.40298 0.0
C1657 C 0.28917 0.20128 0.45315 0.0
C1658 C 0.26313 0.19186 0.45156 0.0
H1659 H 0.3179 0.229 0.43888 0.0
H1660 H 0.30248 0.19346 0.46726 0.0
C1661 C 0.24657 0.20253 0.4328 0.0
C1662 C 0.46412 0.46372 0.85083 0.0
C1663 C 0.46964 0.48713 0.86462 0.0
H1664 H 0.44512 0.4449 0.81843 0.0
C1665 C 0.45967 0.5105 0.85502 0.0
H1666 H 0.4718 0.44543 0.85737 0.0
C1667 C 0.44412 0.51029 0.83239 0.0
C1668 C 0.43851 0.48673 0.8187 0.0
H1669 H 0.4635 0.52889 0.86526 0.0
H1670 H 0.43645 0.52852 0.82571 0.0
C1671 C 0.44891 0.46352 0.82824 0.0
C1672 C 0.74109 0.71467 0.09655 0.0
C1673 C 0.71746 0.72682 0.10215 0.0
H1674 H 0.76121 0.68742 0.07242 0.0
C1675 C 0.69526 0.71985 0.08718 0.0
H1676 H 0.75848 0.71942 0.10792 0.0
C1677 C 0.69683 0.70159 0.06665 0.0
C1678 C 0.72057 0.68962 0.06085 0.0
H1679 H 0.67681 0.72899 0.09093 0.0
H1680 H 0.67943 0.69692 0.05529 0.0
C1681 C 0.74261 0.69621 0.07627 0.0
C1682 C 0.96137 0.02404 0.16837 0.0
C1683 C 0.97316 1.00366 0.15438 0.0
H1684 H 0.93615 0.03494 0.19961 0.0
C1685 C 0.96782 0.97777 0.16201 0.0
H1686 H 0.96525 0.04425 0.16341 0.0
C1687 C 0.95136 0.97242 0.18305 0.0
C1688 C 0.93958 0.9928 0.19702 0.0
H1689 H 0.97609 0.96148 0.15151 0.0
H1690 H 0.94768 0.95222 0.18816 0.0
C1691 C 0.94478 0.01869 0.18933 0.0
C1692 C 0.29791 0.82831 0.10817 0.0
C1693 C 0.30348 0.80215 0.10218 0.0
H1694 H 0.28602 0.86529 0.09368 0.0
C1695 C 0.30291 0.79369 0.07606 0.0
H1696 H 0.29818 0.83529 0.12818 0.0
C1697 C 0.29664 0.81097 0.05631 0.0
C1698 C 0.29019 0.83692 0.06231 0.0
H1699 H 0.30727 0.77366 0.07094 0.0
H1700 H 0.29596 0.80371 0.03639 0.0
C1701 C 0.29099 0.84545 0.08845 0.0
C1702 C 0.06077 0.48009 0.16949 0.0
C1703 C 0.04902 0.4986 0.15354 0.0
H1704 H 0.08619 0.47321 0.2017 0.0
C1705 C 0.05359 0.5253 0.15942 0.0
H1706 H 0.05734 0.45935 0.16602 0.0
C1707 C 0.06979 0.53324 0.18025 0.0
C1708 C 0.08217 0.51473 0.19566 0.0
H1709 H 0.04529 0.54021 0.14747 0.0
H1710 H 0.07316 0.55399 0.18378 0.0
C1711 C 0.07722 0.48804 0.19015 0.0
C1712 C 0.43588 0.69354 0.29995 0.0
C1713 C 0.42077 0.71357 0.28964 0.0
H1714 H 0.46515 0.68324 0.32784 0.0
C1715 C 0.42515 0.7393 0.29898 0.0
H1716 H 0.43342 0.67358 0.29285 0.0
C1717 C 0.44325 0.74466 0.31884 0.0
C1718 C 0.45716 0.72445 0.33006 0.0
H1719 H 0.41384 0.75522 0.29176 0.0
H1720 H 0.44591 0.76463 0.32592 0.0
C1721 C 0.4541 0.69899 0.31986 0.0
C1722 C 0.97564 0.34076 0.97308 0.0
C1723 C 0.98597 0.36385 0.96245 0.0
H1724 H 0.96834 0.29958 0.96768 0.0
C1725 C 0.99941 0.36255 0.93874 0.0
H1726 H 0.96516 0.34137 0.99132 0.0
C1727 C 1.00189 0.33852 0.92551 0.0
C1728 C 0.99036 0.31558 0.93552 0.0
H1729 H 0.00748 0.38019 0.93022 0.0
H1730 H 0.0115 0.33812 0.9068 0.0
C1731 C 0.97754 0.31692 0.9596 0.0
C1732 C 0.60355 0.78926 0.32295 0.0
C1733 C 0.59601 0.79401 0.29719 0.0
H1734 H 0.59101 0.77962 0.36149 0.0
C1735 C 0.56935 0.79527 0.29117 0.0
H1736 H 0.62402 0.78815 0.32801 0.0
C1737 C 0.55053 0.79107 0.31037 0.0
C1738 C 0.55796 0.7849 0.33586 0.0
H1739 H 0.56309 0.79903 0.27147 0.0
H1740 H 0.53012 0.79138 0.30488 0.0
C1741 C 0.58469 0.78442 0.34206 0.0
C1742 C 0.02229 0.15588 0.94743 0.0
C1743 C 0.01188 0.15461 0.97277 0.0
H1744 H 0.02478 0.17689 0.91165 0.0
C1745 C 0.996 0.1752 0.98119 0.0
H1746 H 0.03418 0.14044 0.93974 0.0
C1747 C 0.98988 0.1956 0.9646 0.0
C1748 C 1.00016 0.19661 0.93938 0.0
H1749 H 0.98818 0.17576 1.00068 0.0
H1750 H 0.97721 0.21076 0.9716 0.0
C1751 C 0.01678 0.17677 0.93112 0.0
C1752 C 0.42161 0.25745 0.23318 0.0
C1753 C 0.42071 0.28444 0.23819 0.0
H1754 H 0.43822 0.22641 0.21164 0.0
C1755 C 0.43651 0.30136 0.22328 0.0
H1756 H 0.40929 0.24387 0.24382 0.0
C1757 C 0.45352 0.29122 0.20436 0.0
C1758 C 0.45482 0.264 0.19996 0.0
H1759 H 0.43615 0.3223 0.22667 0.0
H1760 H 0.46574 0.30459 0.19339 0.0
C1761 C 0.43832 0.24743 0.21452 0.0
C1762 C 0.48673 0.34496 0.06533 0.0
C1763 C 0.51056 0.35886 0.0616 0.0
H1764 H 0.46678 0.31297 0.08411 0.0
C1765 C 0.53268 0.3507 0.07531 0.0
H1766 H 0.4691 0.3507 0.05558 0.0
C1767 C 0.53103 0.32972 0.09228 0.0
C1768 C 0.50742 0.31566 0.09562 0.0
H1769 H 0.55162 0.36006 0.0726 0.0
H1770 H 0.5486 0.324 0.10223 0.0
C1771 C 0.48527 0.32342 0.0819 0.0
C1772 C 0.59861 0.24151 0.21769 0.0
C1773 C 0.6048 0.21778 0.22929 0.0
H1774 H 0.57333 0.26142 0.19187 0.0
C1775 C 0.58979 0.19521 0.22278 0.0
H1776 H 0.60995 0.25919 0.22222 0.0
C1777 C 0.56854 0.19651 0.20563 0.0
C1778 C 0.56213 0.22034 0.19425 0.0
H1779 H 0.59401 0.17668 0.23154 0.0
H1780 H 0.55708 0.17885 0.2014 0.0
C1781 C 0.57768 0.24274 0.20022 0.0
C1782 C 0.47687 0.16706 0.06512 0.0
C1783 C 0.49716 0.15099 0.05674 0.0
H1784 H 0.46564 0.19963 0.08887 0.0
C1785 C 0.52276 0.15719 0.06543 0.0
H1786 H 0.45704 0.16351 0.05835 0.0
C1787 C 0.52767 0.17829 0.08278 0.0
C1788 C 0.50702 0.19318 0.09217 0.0
H1789 H 0.53888 0.14526 0.0595 0.0
H1790 H 0.54741 0.18237 0.08959 0.0
C1791 C 0.48176 0.18784 0.0826 0.0
C1792 C 0.30156 0.43406 0.70559 0.0
C1793 C 0.29041 0.4215 0.72722 0.0
H1794 H 0.33087 0.4615 0.69206 0.0
C1795 C 0.30042 0.42762 0.75213 0.0
H1796 H 0.29406 0.43002 0.68617 0.0
C1797 C 0.32125 0.44543 0.75536 0.0
C1798 C 0.33285 0.45732 0.73378 0.0
H1799 H 0.2926 0.41816 0.76919 0.0
H1800 H 0.32856 0.44966 0.77483 0.0
C1801 C 0.32246 0.45211 0.7089 0.0
C1802 C 0.29277 0.57094 0.79631 0.0
C1803 C 0.29878 0.59772 0.7942 0.0
H1804 H 0.30674 0.53194 0.79418 0.0
C1805 C 0.3247 0.60579 0.78935 0.0
H1806 H 0.27295 0.56429 0.80015 0.0
C1807 C 0.34405 0.58726 0.78545 0.0
C1808 C 0.33794 0.56038 0.78703 0.0
H1809 H 0.32976 0.62637 0.78764 0.0
H1810 H 0.36365 0.59394 0.78069 0.0
C1811 C 0.3122 0.55249 0.79309 0.0
C1812 C 0.85065 0.45849 0.4594 0.0
C1813 C 0.867 0.46215 0.48113 0.0
H1814 H 0.81512 0.44239 0.44393 0.0
C1815 C 0.85853 0.45269 0.50531 0.0
H1816 H 0.85641 0.46596 0.44063 0.0
C1817 C 0.83459 0.43874 0.50734 0.0
C1818 C 0.81855 0.43442 0.48527 0.0
H1819 H 0.87077 0.45537 0.52242 0.0
H1820 H 0.82896 0.43088 0.52597 0.0
C1821 C 0.82678 0.44503 0.46145 0.0
C1822 C 0.70461 0.91336 0.78503 0.0
C1823 C 0.73067 0.92147 0.78959 0.0
H1824 H 0.66584 0.92481 0.77525 0.0
C1825 C 0.73714 0.94831 0.78955 0.0
H1826 H 0.69913 0.89276 0.78493 0.0
C1827 C 0.71801 0.96667 0.7847 0.0
C1828 C 0.69212 0.95853 0.77917 0.0
H1829 H 0.75705 0.95508 0.79318 0.0
H1830 H 0.72374 0.98719 0.78433 0.0
C1831 C 0.68559 0.93168 0.77954 0.0
C1832 C 0.66925 0.55287 0.98793 0.0
C1833 C 0.65437 0.54612 0.00987 0.0
H1834 H 0.70096 0.57603 0.97276 0.0
C1835 C 0.66161 0.55735 0.03419 0.0
H1836 H 0.66482 0.5442 0.96901 0.0
C1837 C 0.68265 0.57538 0.03631 0.0
C1838 C 0.69644 0.583 0.01408 0.0
H1839 H 0.65057 0.55283 0.0515 0.0
H1840 H 0.68751 0.58412 0.05511 0.0
C1841 C 0.69004 0.57104 0.99005 0.0
C1842 C 0.22003 0.59462 0.2323 0.0
C1843 C 0.22563 0.59907 0.20597 0.0
H1844 H 0.1978 0.57255 0.2598 0.0
C1845 C 0.21301 0.58314 0.18687 0.0
H1846 H 0.22911 0.60663 0.24755 0.0
C1847 C 0.19487 0.56354 0.19403 0.0
C1848 C 0.18862 0.56011 0.22031 0.0
H1849 H 0.21715 0.58583 0.16645 0.0
H1850 H 0.18517 0.55163 0.17908 0.0
C1851 C 0.20187 0.5753 0.23935 0.0
C1852 C 0.84204 0.55155 1.00419 0.0
C1853 C 0.86436 0.56264 0.0167 0.0
H1854 H 0.80275 0.55728 0.99098 0.0
C1855 C 0.86445 0.58952 0.02312 0.0
H1856 H 0.84106 0.53095 0.99902 0.0
C1857 C 0.84238 0.60437 0.01894 0.0
C1858 C 0.8197 0.59302 0.00766 0.0
H1859 H 0.88145 0.5991 0.03196 0.0
H1860 H 0.84289 0.62473 0.02512 0.0
C1861 C 0.82 0.56663 0.99959 0.0
C1862 C 0.17363 0.95915 0.02827 0.0
C1863 C 0.16006 0.9717 0.00836 0.0
H1864 H 0.20354 0.93253 0.03822 0.0
C1865 C 0.16712 0.96643 0.98241 0.0
H1866 H 0.16903 0.96291 0.0485 0.0
C1867 C 0.1871 0.94921 0.97653 0.0
C1868 C 0.20061 0.93657 0.99639 0.0
H1869 H 0.15688 0.97525 0.96648 0.0
H1870 H 0.19171 0.9456 0.95627 0.0
C1871 C 0.19359 0.9418 0.02237 0.0
loop_
_geom_bond_atom_site_label_1
_geom_bond_atom_site_label_2
_geom_bond_distance
_geom_bond_site_symmetry_2
_ccdc_geom_bond_type
C0 C1 1.391 . S
C0 C4 1.391 . S
C0 H42 0.948 . S
C1 C0 1.391 . S
C1 C2 1.391 1_455 S
C2 C1 1.391 1_655 S
C2 H58 0.947 . S
C2 C59 1.392 1_556 S
C3 C4 1.391 1_554 S
C3 C7 1.397 . S
C3 C59 1.419 1_455 S
C4 C0 1.391 . S
C4 C3 1.391 1_556 S
C4 C5 1.399 . S
C5 C4 1.399 . S
C5 C8 1.396 1_556 S
C5 C17 1.453 . S
C5 C18 1.684 . S
H6 C30 0.948 . S
C7 C3 1.397 . S
C7 C8 1.394 . S
C7 C26 1.723 . S
C8 C5 1.396 1_554 S
C8 C7 1.394 . S
C8 C38 1.723 . S
H9 C32 0.947 . S
H10 C33 0.948 . S
H11 C39 0.982 1_545 S
H12 C40 0.979 . S
H13 C40 0.980 . S
H14 C40 0.983 . S
H15 C39 0.979 . S
H16 C39 0.977 . S
C17 C5 1.453 . S
C17 H46 0.982 1_556 S
C17 H47 0.979 . S
C17 H48 0.977 . S
C18 C5 1.684 . S
C18 H43 0.979 . S
C18 H44 0.980 . S
C18 H45 0.983 . S
C19 C20 1.391 . S
C19 C24 1.391 . S
C19 H49 0.948 . S
C20 C19 1.391 . S
C20 C21 1.391 1_545 S
C21 C20 1.391 1_565 S
C21 C22 1.392 1_655 S
C21 H50 0.947 . S
C22 C21 1.392 1_455 S
C22 C23 1.419 1_565 S
C22 H51 0.948 . S
C23 C22 1.419 1_545 S
C23 C24 1.391 1_455 S
C23 C27 1.397 . S
C24 C19 1.391 . S
C24 C23 1.391 1_655 S
C24 C25 1.399 . S
C25 C24 1.399 . S
C25 C26 1.396 1_655 S
C25 C28 1.453 . S
C25 C29 1.684 . S
C26 C7 1.723 . S
C26 C25 1.396 1_455 S
C26 C27 1.394 . S
C27 C23 1.397 . S
C27 C26 1.394 . S
C27 C37 1.723 . S
C28 C25 1.453 . S
C28 H52 0.982 1_655 S
C28 H53 0.979 . S
C28 H54 0.977 . S
C29 C25 1.684 . S
C29 H55 0.979 . S
C29 H56 0.980 . S
C29 H57 0.983 . S
C30 H6 0.948 . S
C30 C31 1.391 . S
C30 C35 1.391 . S
C31 C30 1.391 . S
C31 C32 1.391 1_554 S
C32 H9 0.947 . S
C32 C31 1.391 1_556 S
C32 C33 1.392 1_565 S
C33 H10 0.948 . S
C33 C32 1.392 1_545 S
C33 C34 1.419 1_556 S
C34 C33 1.419 1_554 S
C34 C35 1.391 1_545 S
C34 C38 1.397 . S
C35 C30 1.391 . S
C35 C34 1.391 1_565 S
C35 C36 1.399 . S
C36 C35 1.399 . S
C36 C37 1.396 1_565 S
C36 C39 1.453 . S
C36 C40 1.684 . S
C37 C27 1.723 . S
C37 C36 1.396 1_545 S
C37 C38 1.394 . S
C38 C8 1.723 . S
C38 C34 1.397 . S
C38 C37 1.394 . S
C39 H11 0.982 1_565 S
C39 H15 0.979 . S
C39 H16 0.977 . S
C39 C36 1.453 . S
C40 H12 0.979 . S
C40 H13 0.980 . S
C40 H14 0.983 . S
C40 C36 1.684 . S
H41 C59 0.948 . S
H42 C0 0.948 . S
H43 C18 0.979 . S
H44 C18 0.980 . S
H45 C18 0.983 . S
H46 C17 0.982 1_554 S
H47 C17 0.979 . S
H48 C17 0.977 . S
H49 C19 0.948 . S
H50 C21 0.947 . S
H51 C22 0.948 . S
H52 C28 0.982 1_455 S
H53 C28 0.979 . S
H54 C28 0.977 . S
H55 C29 0.979 . S
H56 C29 0.980 . S
H57 C29 0.983 . S
H58 C2 0.947 . S
C59 C2 1.392 1_554 S
C59 C3 1.419 1_655 S
C59 H41 0.948 . S
C60 C61 1.391 . S
C60 C64 1.391 . S
C60 H102 0.948 . S
C61 C60 1.391 . S
C61 C62 1.391 . S
C62 C61 1.391 . S
C62 H118 0.947 . S
C62 C119 1.392 . S
C63 C64 1.391 . S
C63 C67 1.397 . S
C63 C119 1.419 . S
C64 C60 1.391 . S
C64 C63 1.391 . S
C64 C65 1.399 . S
C65 C64 1.399 . S
C65 C68 1.396 . S
C65 C77 1.453 . S
C65 C78 1.684 . S
H66 C90 0.948 . S
C67 C63 1.397 . S
C67 C68 1.394 . S
C67 C86 1.723 . S
C68 C65 1.396 . S
C68 C67 1.394 . S
C68 C98 1.723 . S
H69 C92 0.947 . S
H70 C93 0.948 . S
H71 C99 0.982 . S
H72 C100 0.979 . S
H73 C100 0.980 . S
H74 C100 0.983 . S
H75 C99 0.979 . S
H76 C99 0.977 . S
C77 C65 1.453 . S
C77 H106 0.982 . S
C77 H107 0.979 . S
C77 H108 0.977 . S
C78 C65 1.684 . S
C78 H103 0.979 . S
C78 H104 0.980 . S
C78 H105 0.983 . S
C79 C80 1.391 . S
C79 C84 1.391 . S
C79 H109 0.948 . S
C80 C79 1.391 . S
C80 C81 1.391 . S
C81 C80 1.391 . S
C81 C82 1.392 . S
C81 H110 0.947 . S
C82 C81 1.392 . S
C82 C83 1.419 . S
C82 H111 0.948 . S
C83 C82 1.419 . S
C83 C84 1.391 . S
C83 C87 1.397 . S
C84 C79 1.391 . S
C84 C83 1.391 . S
C84 C85 1.399 . S
C85 C84 1.399 . S
C85 C86 1.396 . S
C85 C88 1.453 . S
C85 C89 1.684 . S
C86 C67 1.723 . S
C86 C85 1.396 . S
C86 C87 1.394 . S
C87 C83 1.397 . S
C87 C86 1.394 . S
C87 C97 1.723 . S
C88 C85 1.453 . S
C88 H112 0.982 . S
C88 H113 0.979 . S
C88 H114 0.977 . S
C89 C85 1.684 . S
C89 H115 0.979 . S
C89 H116 0.980 . S
C89 H117 0.983 . S
C90 H66 0.948 . S
C90 C91 1.391 . S
C90 C95 1.391 . S
C91 C90 1.391 . S
C91 C92 1.391 . S
C92 H69 0.947 . S
C92 C91 1.391 . S
C92 C93 1.392 . S
C93 H70 0.948 . S
C93 C92 1.392 . S
C93 C94 1.419 . S
C94 C93 1.419 . S
C94 C95 1.391 . S
C94 C98 1.397 . S
C95 C90 1.391 . S
C95 C94 1.391 . S
C95 C96 1.399 . S
C96 C95 1.399 . S
C96 C97 1.396 . S
C96 C99 1.453 . S
C96 C100 1.684 . S
C97 C87 1.723 . S
C97 C96 1.396 . S
C97 C98 1.394 . S
C98 C68 1.723 . S
C98 C94 1.397 . S
C98 C97 1.394 . S
C99 H71 0.982 . S
C99 H75 0.979 . S
C99 H76 0.977 . S
C99 C96 1.453 . S
C100 H72 0.979 . S
C100 H73 0.980 . S
C100 H74 0.983 . S
C100 C96 1.684 . S
H101 C119 0.948 . S
H102 C60 0.948 . S
H103 C78 0.979 . S
H104 C78 0.980 . S
H105 C78 0.983 . S
H106 C77 0.982 . S
H107 C77 0.979 . S
H108 C77 0.977 . S
H109 C79 0.948 . S
H110 C81 0.947 . S
H111 C82 0.948 . S
H112 C88 0.982 . S
H113 C88 0.979 . S
H114 C88 0.977 . S
H115 C89 0.979 . S
H116 C89 0.980 . S
H117 C89 0.983 . S
H118 C62 0.947 . S
C119 C62 1.392 . S
C119 C63 1.419 . S
C119 H101 0.948 . S
C120 C121 1.391 . S
C120 C124 1.391 . S
C120 H162 0.948 1_655 S
C121 C120 1.391 . S
C121 C122 1.391 . S
C122 C121 1.391 . S
C122 H178 0.947 . S
C122 C179 1.392 . S
C123 C124 1.391 . S
C123 C127 1.397 1_556 S
C123 C179 1.419 . S
C124 C120 1.391 . S
C124 C123 1.391 . S
C124 C125 1.399 1_656 S
C125 C124 1.399 1_454 S
C125 C128 1.396 1_455 S
C125 C137 1.453 . S
C125 C138 1.684 . S
H126 C150 0.948 . S
C127 C123 1.397 1_554 S
C127 C128 1.394 . S
C127 C146 1.723 . S
C128 C125 1.396 1_655 S
C128 C127 1.394 . S
C128 C158 1.723 . S
H129 C152 0.947 . S
H130 C153 0.948 . S
H131 C159 0.982 . S
H132 C160 0.979 . S
H133 C160 0.980 . S
H134 C160 0.983 . S
H135 C159 0.979 . S
H136 C159 0.977 . S
C137 C125 1.453 . S
C137 H166 0.982 1_455 S
C137 H167 0.979 . S
C137 H168 0.977 . S
C138 C125 1.684 . S
C138 H163 0.979 . S
C138 H164 0.980 . S
C138 H165 0.983 . S
C139 C140 1.391 . S
C139 C144 1.391 . S
C139 H169 0.948 1_554 S
C140 C139 1.391 . S
C140 C141 1.391 . S
C141 C140 1.391 . S
C141 C142 1.392 . S
C141 H170 0.947 . S
C142 C141 1.392 . S
C142 C143 1.419 . S
C142 H171 0.948 . S
C143 C142 1.419 . S
C143 C144 1.391 . S
C143 C147 1.397 . S
C144 C139 1.391 . S
C144 C143 1.391 . S
C144 C145 1.399 1_554 S
C145 C144 1.399 1_556 S
C145 C146 1.396 1_556 S
C145 C148 1.453 . S
C145 C149 1.684 . S
C146 C127 1.723 . S
C146 C145 1.396 1_554 S
C146 C147 1.394 . S
C147 C143 1.397 . S
C147 C146 1.394 . S
C147 C157 1.723 . S
C148 C145 1.453 . S
C148 H172 0.982 1_556 S
C148 H173 0.979 . S
C148 H174 0.977 . S
C149 C145 1.684 . S
C149 H175 0.979 . S
C149 H176 0.980 . S
C149 H177 0.983 . S
C150 H126 0.948 . S
C150 C151 1.391 . S
C150 C155 1.391 . S
C151 C150 1.391 . S
C151 C152 1.391 . S
C152 H129 0.947 . S
C152 C151 1.391 . S
C152 C153 1.392 . S
C153 H130 0.948 . S
C153 C152 1.392 . S
C153 C154 1.419 . S
C154 C153 1.419 . S
C154 C155 1.391 . S
C154 C158 1.397 1_455 S
C155 C150 1.391 . S
C155 C154 1.391 . S
C155 C156 1.399 1_455 S
C156 C155 1.399 1_655 S
C156 C157 1.396 . S
C156 C159 1.453 . S
C156 C160 1.684 . S
C157 C147 1.723 . S
C157 C156 1.396 . S
C157 C158 1.394 . S
C158 C128 1.723 . S
C158 C154 1.397 1_655 S
C158 C157 1.394 . S
C159 H131 0.982 . S
C159 H135 0.979 . S
C159 H136 0.977 . S
C159 C156 1.453 . S
C160 H132 0.979 . S
C160 H133 0.980 . S
C160 H134 0.983 . S
C160 C156 1.684 . S
H161 C179 0.948 . S
H162 C120 0.948 1_455 S
H163 C138 0.979 . S
H164 C138 0.980 . S
H165 C138 0.983 . S
H166 C137 0.982 1_655 S
H167 C137 0.979 . S
H168 C137 0.977 . S
H169 C139 0.948 1_556 S
H170 C141 0.947 . S
H171 C142 0.948 . S
H172 C148 0.982 1_554 S
H173 C148 0.979 . S
H174 C148 0.977 . S
H175 C149 0.979 . S
H176 C149 0.980 . S
H177 C149 0.983 . S
H178 C122 0.947 . S
C179 C122 1.392 . S
C179 C123 1.419 . S
C179 H161 0.948 . S
C180 C181 1.391 . S
C180 C184 1.391 . S
C180 H222 0.948 . S
C181 C180 1.391 . S
C181 C182 1.391 . S
C182 C181 1.391 . S
C182 H238 0.947 . S
C182 C239 1.392 . S
C183 C184 1.391 . S
C183 C187 1.397 . S
C183 C239 1.419 . S
C184 C180 1.391 . S
C184 C183 1.391 . S
C184 C185 1.399 . S
C185 C184 1.399 . S
C185 C188 1.396 . S
C185 C197 1.453 . S
C185 C198 1.684 . S
H186 C210 0.948 . S
C187 C183 1.397 . S
C187 C188 1.394 . S
C187 C206 1.723 . S
C188 C185 1.396 . S
C188 C187 1.394 . S
C188 C218 1.723 . S
H189 C212 0.947 . S
H190 C213 0.948 . S
H191 C219 0.982 . S
H192 C220 0.979 . S
H193 C220 0.980 . S
H194 C220 0.983 . S
H195 C219 0.979 . S
H196 C219 0.977 . S
C197 C185 1.453 . S
C197 H226 0.982 . S
C197 H227 0.979 . S
C197 H228 0.977 . S
C198 C185 1.684 . S
C198 H223 0.979 . S
C198 H224 0.980 . S
C198 H225 0.983 . S
C199 C200 1.391 . S
C199 C204 1.391 . S
C199 H229 0.948 . S
C200 C199 1.391 . S
C200 C201 1.391 . S
C201 C200 1.391 . S
C201 C202 1.392 . S
C201 H230 0.947 . S
C202 C201 1.392 . S
C202 C203 1.419 . S
C202 H231 0.948 . S
C203 C202 1.419 . S
C203 C204 1.391 . S
C203 C207 1.397 . S
C204 C199 1.391 . S
C204 C203 1.391 . S
C204 C205 1.399 . S
C205 C204 1.399 . S
C205 C206 1.396 . S
C205 C208 1.453 . S
C205 C209 1.684 . S
C206 C187 1.723 . S
C206 C205 1.396 . S
C206 C207 1.394 . S
C207 C203 1.397 . S
C207 C206 1.394 . S
C207 C217 1.723 . S
C208 C205 1.453 . S
C208 H232 0.982 . S
C208 H233 0.979 . S
C208 H234 0.977 . S
C209 C205 1.684 . S
C209 H235 0.979 . S
C209 H236 0.980 . S
C209 H237 0.983 . S
C210 H186 0.948 . S
C210 C211 1.391 . S
C210 C215 1.391 . S
C211 C210 1.391 . S
C211 C212 1.391 . S
C212 H189 0.947 . S
C212 C211 1.391 . S
C212 C213 1.392 . S
C213 H190 0.948 . S
C213 C212 1.392 . S
C213 C214 1.419 . S
C214 C213 1.419 . S
C214 C215 1.391 . S
C214 C218 1.397 . S
C215 C210 1.391 . S
C215 C214 1.391 . S
C215 C216 1.399 . S
C216 C215 1.399 . S
C216 C217 1.396 . S
C216 C219 1.453 . S
C216 C220 1.684 . S
C217 C207 1.723 . S
C217 C216 1.396 . S
C217 C218 1.394 . S
C218 C188 1.723 . S
C218 C214 1.397 . S
C218 C217 1.394 . S
C219 H191 0.982 . S
C219 H195 0.979 . S
C219 H196 0.977 . S
C219 C216 1.453 . S
C220 H192 0.979 . S
C220 H193 0.980 . S
C220 H194 0.983 . S
C220 C216 1.684 . S
H221 C239 0.948 . S
H222 C180 0.948 . S
H223 C198 0.979 . S
H224 C198 0.980 . S
H225 C198 0.983 . S
H226 C197 0.982 . S
H227 C197 0.979 . S
H228 C197 0.977 . S
H229 C199 0.948 . S
H230 C201 0.947 . S
H231 C202 0.948 . S
H232 C208 0.982 . S
H233 C208 0.979 . S
H234 C208 0.977 . S
H235 C209 0.979 . S
H236 C209 0.980 . S
H237 C209 0.983 . S
H238 C182 0.947 . S
C239 C182 1.392 . S
C239 C183 1.419 . S
C239 H221 0.948 . S
C240 C241 1.391 . S
C240 C244 1.391 . S
C240 H282 0.948 . S
C241 C240 1.391 . S
C241 C242 1.391 . S
C242 C241 1.391 . S
C242 H298 0.947 1_455 S
C242 C299 1.392 . S
C243 C244 1.391 . S
C243 C247 1.397 . S
C243 C299 1.419 . S
C244 C240 1.391 . S
C244 C243 1.391 . S
C244 C245 1.399 . S
C245 C244 1.399 . S
C245 C248 1.396 . S
C245 C257 1.453 . S
C245 C258 1.684 . S
H246 C270 0.948 . S
C247 C243 1.397 . S
C247 C248 1.394 . S
C247 C266 1.723 . S
C248 C245 1.396 . S
C248 C247 1.394 . S
C248 C278 1.723 . S
H249 C272 0.947 . S
H250 C273 0.948 . S
H251 C279 0.982 . S
H252 C280 0.979 . S
H253 C280 0.980 . S
H254 C280 0.983 . S
H255 C279 0.979 . S
H256 C279 0.977 . S
C257 C245 1.453 . S
C257 H286 0.982 . S
C257 H287 0.979 . S
C257 H288 0.977 . S
C258 C245 1.684 . S
C258 H283 0.979 . S
C258 H284 0.980 . S
C258 H285 0.983 . S
C259 C260 1.391 . S
C259 C264 1.391 . S
C259 H289 0.948 . S
C260 C259 1.391 . S
C260 C261 1.391 1_565 S
C261 C260 1.391 1_545 S
C261 C262 1.392 1_655 S
C261 H290 0.947 . S
C262 C261 1.392 1_455 S
C262 C263 1.419 1_545 S
C262 H291 0.948 . S
C263 C262 1.419 1_565 S
C263 C264 1.391 1_455 S
C263 C267 1.397 . S
C264 C259 1.391 . S
C264 C263 1.391 1_655 S
C264 C265 1.399 . S
C265 C264 1.399 . S
C265 C266 1.396 1_655 S
C265 C268 1.453 . S
C265 C269 1.684 . S
C266 C247 1.723 . S
C266 C265 1.396 1_455 S
C266 C267 1.394 . S
C267 C263 1.397 . S
C267 C266 1.394 . S
C267 C277 1.723 . S
C268 C265 1.453 . S
C268 H292 0.982 . S
C268 H293 0.979 . S
C268 H294 0.977 . S
C269 C265 1.684 . S
C269 H295 0.985 . S
C269 H296 0.980 . S
C269 H297 0.983 . S
C270 H246 0.948 . S
C270 C271 1.391 . S
C270 C275 1.391 . S
C271 C270 1.391 . S
C271 C272 1.391 . S
C272 H249 0.947 . S
C272 C271 1.391 . S
C272 C273 1.392 1_545 S
C273 H250 0.948 . S
C273 C272 1.392 1_565 S
C273 C274 1.419 1_565 S
C274 C273 1.419 1_545 S
C274 C275 1.391 . S
C274 C278 1.397 1_545 S
C275 C270 1.391 . S
C275 C274 1.391 . S
C275 C276 1.399 . S
C276 C275 1.399 . S
C276 C277 1.396 1_545 S
C276 C279 1.453 . S
C276 C280 1.684 . S
C277 C267 1.723 . S
C277 C276 1.396 1_565 S
C277 C278 1.394 . S
C278 C248 1.723 . S
C278 C274 1.397 1_565 S
C278 C277 1.394 . S
C279 H251 0.982 . S
C279 H255 0.979 . S
C279 H256 0.977 . S
C279 C276 1.453 . S
C280 H252 0.979 . S
C280 H253 0.980 . S
C280 H254 0.983 . S
C280 C276 1.684 . S
H281 C299 0.948 1_655 S
H282 C240 0.948 . S
H283 C258 0.979 . S
H284 C258 0.980 . S
H285 C258 0.983 . S
H286 C257 0.982 . S
H287 C257 0.979 . S
H288 C257 0.977 . S
H289 C259 0.948 . S
H290 C261 0.947 . S
H291 C262 0.948 . S
H292 C268 0.982 . S
H293 C268 0.979 . S
H294 C268 0.977 . S
H295 C269 0.985 . S
H296 C269 0.980 . S
H297 C269 0.983 . S
H298 C242 0.947 1_655 S
C299 C242 1.392 . S
C299 C243 1.419 . S
C299 H281 0.948 1_455 S
C300 C301 1.391 . S
C300 C304 1.391 . S
C300 H342 0.948 . S
C301 C300 1.391 . S
C301 C302 1.391 . S
C302 C301 1.391 . S
C302 H358 0.947 . S
C302 C359 1.392 . S
C303 C304 1.391 . S
C303 C307 1.397 . S
C303 C359 1.419 . S
C304 C300 1.391 . S
C304 C303 1.391 . S
C304 C305 1.399 . S
C305 C304 1.399 . S
C305 C308 1.396 . S
C305 C317 1.453 . S
C305 C318 1.684 . S
H306 C330 0.948 . S
C307 C303 1.397 . S
C307 C308 1.394 . S
C307 C326 1.723 . S
C308 C305 1.396 . S
C308 C307 1.394 . S
C308 C338 1.723 . S
H309 C332 0.947 . S
H310 C333 0.948 . S
H311 C339 0.982 . S
H312 C340 0.979 . S
H313 C340 0.980 . S
H314 C340 0.983 . S
H315 C339 0.979 . S
H316 C339 0.977 . S
C317 C305 1.453 . S
C317 H346 0.982 . S
C317 H347 0.979 . S
C317 H348 0.977 . S
C318 C305 1.684 . S
C318 H343 0.979 . S
C318 H344 0.980 . S
C318 H345 0.983 . S
C319 C320 1.391 . S
C319 C324 1.391 . S
C319 H349 0.948 . S
C320 C319 1.391 . S
C320 C321 1.391 . S
C321 C320 1.391 . S
C321 C322 1.392 . S
C321 H350 0.947 . S
C322 C321 1.392 . S
C322 C323 1.419 . S
C322 H351 0.948 . S
C323 C322 1.419 . S
C323 C324 1.391 . S
C323 C327 1.397 . S
C324 C319 1.391 . S
C324 C323 1.391 . S
C324 C325 1.399 . S
C325 C324 1.399 . S
C325 C326 1.396 . S
C325 C328 1.453 . S
C325 C329 1.684 . S
C326 C307 1.723 . S
C326 C325 1.396 . S
C326 C327 1.394 . S
C327 C323 1.397 . S
C327 C326 1.394 . S
C327 C337 1.723 . S
C328 C325 1.453 . S
C328 H352 0.982 . S
C328 H353 0.979 . S
C328 H354 0.977 . S
C329 C325 1.684 . S
C329 H355 0.979 . S
C329 H356 0.980 . S
C329 H357 0.983 . S
C330 H306 0.948 . S
C330 C331 1.391 . S
C330 C335 1.391 . S
C331 C330 1.391 . S
C331 C332 1.391 . S
C332 H309 0.947 . S
C332 C331 1.391 . S
C332 C333 1.392 . S
C333 H310 0.948 . S
C333 C332 1.392 . S
C333 C334 1.419 . S
C334 C333 1.419 . S
C334 C335 1.391 . S
C334 C338 1.397 . S
C335 C330 1.391 . S
C335 C334 1.391 . S
C335 C336 1.399 . S
C336 C335 1.399 . S
C336 C337 1.396 . S
C336 C339 1.453 . S
C336 C340 1.684 . S
C337 C327 1.723 . S
C337 C336 1.396 . S
C337 C338 1.394 . S
C338 C308 1.723 . S
C338 C334 1.397 . S
C338 C337 1.394 . S
C339 H311 0.982 . S
C339 H315 0.979 . S
C339 H316 0.977 . S
C339 C336 1.453 . S
C340 H312 0.979 . S
C340 H313 0.980 . S
C340 H314 0.983 . S
C340 C336 1.684 . S
H341 C359 0.948 . S
H342 C300 0.948 . S
H343 C318 0.979 . S
H344 C318 0.980 . S
H345 C318 0.983 . S
H346 C317 0.982 . S
H347 C317 0.979 . S
H348 C317 0.977 . S
H349 C319 0.948 . S
H350 C321 0.947 . S
H351 C322 0.948 . S
H352 C328 0.982 . S
H353 C328 0.979 . S
H354 C328 0.977 . S
H355 C329 0.979 . S
H356 C329 0.980 . S
H357 C329 0.983 . S
H358 C302 0.947 . S
C359 C302 1.392 . S
C359 C303 1.419 . S
C359 H341 0.948 . S
C360 C361 1.391 . S
C360 C364 1.391 . S
C360 H402 0.948 . S
C361 C360 1.391 . S
C361 C362 1.391 . S
C362 C361 1.391 . S
C362 H418 0.947 . S
C362 C419 1.392 . S
C363 C364 1.391 . S
C363 C367 1.397 . S
C363 C419 1.419 . S
C364 C360 1.391 . S
C364 C363 1.391 . S
C364 C365 1.399 . S
C365 C364 1.399 . S
C365 C368 1.396 . S
C365 C377 1.453 . S
C365 C378 1.684 . S
H366 C390 0.948 . S
C367 C363 1.397 . S
C367 C368 1.394 . S
C367 C386 1.723 . S
C368 C365 1.396 . S
C368 C367 1.394 . S
C368 C398 1.723 . S
H369 C392 0.947 . S
H370 C393 0.948 . S
H371 C399 0.982 1_655 S
H372 C400 0.979 . S
H373 C400 0.980 . S
H374 C400 0.983 . S
H375 C399 0.979 . S
H376 C399 0.977 . S
C377 C365 1.453 . S
C377 H406 0.982 . S
C377 H407 0.979 . S
C377 H408 0.977 . S
C378 C365 1.684 . S
C378 H403 0.979 . S
C378 H404 0.980 . S
C378 H405 0.983 . S
C379 C380 1.391 . S
C379 C384 1.391 . S
C379 H409 0.948 . S
C380 C379 1.391 . S
C380 C381 1.391 . S
C381 C380 1.391 . S
C381 C382 1.392 . S
C381 H410 0.947 . S
C382 C381 1.392 . S
C382 C383 1.419 . S
C382 H411 0.948 . S
C383 C382 1.419 . S
C383 C384 1.391 . S
C383 C387 1.397 1_455 S
C384 C379 1.391 . S
C384 C383 1.391 . S
C384 C385 1.399 1_455 S
C385 C384 1.399 1_655 S
C385 C386 1.396 . S
C385 C388 1.453 . S
C385 C389 1.684 . S
C386 C367 1.723 . S
C386 C385 1.396 . S
C386 C387 1.394 . S
C387 C383 1.397 1_655 S
C387 C386 1.394 . S
C387 C397 1.723 . S
C388 C385 1.453 . S
C388 H412 0.982 . S
C388 H413 0.979 . S
C388 H414 0.977 . S
C389 C385 1.684 . S
C389 H415 0.979 . S
C389 H416 0.980 . S
C389 H417 0.983 . S
C390 H366 0.948 . S
C390 C391 1.391 1_455 S
C390 C395 1.391 1_455 S
C391 C390 1.391 1_655 S
C391 C392 1.391 . S
C392 H369 0.947 . S
C392 C391 1.391 . S
C392 C393 1.392 . S
C393 H370 0.948 . S
C393 C392 1.392 . S
C393 C394 1.419 . S
C394 C393 1.419 . S
C394 C395 1.391 . S
C394 C398 1.397 . S
C395 C390 1.391 1_655 S
C395 C394 1.391 . S
C395 C396 1.399 1_655 S
C396 C395 1.399 1_455 S
C396 C397 1.396 1_455 S
C396 C399 1.453 . S
C396 C400 1.684 . S
C397 C387 1.723 . S
C397 C396 1.396 1_655 S
C397 C398 1.394 . S
C398 C368 1.723 . S
C398 C394 1.397 . S
C398 C397 1.394 . S
C399 H371 0.982 1_455 S
C399 H375 0.979 . S
C399 H376 0.977 . S
C399 C396 1.453 . S
C400 H372 0.979 . S
C400 H373 0.980 . S
C400 H374 0.983 . S
C400 C396 1.684 . S
H401 C419 0.948 . S
H402 C360 0.948 . S
H403 C378 0.979 . S
H404 C378 0.980 . S
H405 C378 0.983 . S
H406 C377 0.982 . S
H407 C377 0.979 . S
H408 C377 0.977 . S
H409 C379 0.948 . S
H410 C381 0.947 . S
H411 C382 0.948 . S
H412 C388 0.982 . S
H413 C388 0.979 . S
H414 C388 0.977 . S
H415 C389 0.979 . S
H416 C389 0.980 . S
H417 C389 0.983 . S
H418 C362 0.947 . S
C419 C362 1.392 . S
C419 C363 1.419 . S
C419 H401 0.948 . S
C420 C421 1.391 . S
C420 C424 1.391 . S
C420 H462 0.948 . S
C421 C420 1.391 . S
C421 C422 1.391 . S
C422 C421 1.391 . S
C422 H478 0.947 . S
C422 C479 1.392 . S
C423 C424 1.391 . S
C423 C427 1.397 . S
C423 C479 1.419 . S
C424 C420 1.391 . S
C424 C423 1.391 . S
C424 C425 1.399 . S
C425 C424 1.399 . S
C425 C428 1.396 . S
C425 C437 1.453 . S
C425 C438 1.684 . S
H426 C450 0.948 . S
C427 C423 1.397 . S
C427 C428 1.394 . S
C427 C446 1.723 . S
C428 C425 1.396 . S
C428 C427 1.394 . S
C428 C458 1.723 . S
H429 C452 0.947 . S
H430 C453 0.948 . S
H431 C459 0.982 . S
H432 C460 0.979 . S
H433 C460 0.980 . S
H434 C460 0.983 . S
H435 C459 0.979 . S
H436 C459 0.977 . S
C437 C425 1.453 . S
C437 H466 0.982 . S
C437 H467 0.979 . S
C437 H468 0.977 . S
C438 C425 1.684 . S
C438 H463 0.979 . S
C438 H464 0.980 . S
C438 H465 0.983 . S
C439 C440 1.391 . S
C439 C444 1.391 . S
C439 H469 0.948 . S
C440 C439 1.391 . S
C440 C441 1.391 . S
C441 C440 1.391 . S
C441 C442 1.392 . S
C441 H470 0.947 . S
C442 C441 1.392 . S
C442 C443 1.419 . S
C442 H471 0.948 . S
C443 C442 1.419 . S
C443 C444 1.391 . S
C443 C447 1.397 . S
C444 C439 1.391 . S
C444 C443 1.391 . S
C444 C445 1.399 . S
C445 C444 1.399 . S
C445 C446 1.396 . S
C445 C448 1.453 . S
C445 C449 1.684 . S
C446 C427 1.723 . S
C446 C445 1.396 . S
C446 C447 1.394 . S
C447 C443 1.397 . S
C447 C446 1.394 . S
C447 C457 1.723 . S
C448 C445 1.453 . S
C448 H472 0.982 . S
C448 H473 0.979 . S
C448 H474 0.977 . S
C449 C445 1.684 . S
C449 H475 0.979 . S
C449 H476 0.980 . S
C449 H477 0.983 . S
C450 H426 0.948 . S
C450 C451 1.391 . S
C450 C455 1.391 . S
C451 C450 1.391 . S
C451 C452 1.391 . S
C452 H429 0.947 . S
C452 C451 1.391 . S
C452 C453 1.392 . S
C453 H430 0.948 . S
C453 C452 1.392 . S
C453 C454 1.419 . S
C454 C453 1.419 . S
C454 C455 1.391 . S
C454 C458 1.397 . S
C455 C450 1.391 . S
C455 C454 1.391 . S
C455 C456 1.399 . S
C456 C455 1.399 . S
C456 C457 1.396 . S
C456 C459 1.453 . S
C456 C460 1.684 . S
C457 C447 1.723 . S
C457 C456 1.396 . S
C457 C458 1.394 . S
C458 C428 1.723 . S
C458 C454 1.397 . S
C458 C457 1.394 . S
C459 H431 0.982 . S
C459 H435 0.979 . S
C459 H436 0.977 . S
C459 C456 1.453 . S
C460 H432 0.979 . S
C460 H433 0.980 . S
C460 H434 0.983 . S
C460 C456 1.684 . S
H461 C479 0.948 . S
H462 C420 0.948 . S
H463 C438 0.979 . S
H464 C438 0.980 . S
H465 C438 0.983 . S
H466 C437 0.982 . S
H467 C437 0.979 . S
H468 C437 0.977 . S
H469 C439 0.948 . S
H470 C441 0.947 . S
H471 C442 0.948 . S
H472 C448 0.982 . S
H473 C448 0.979 . S
H474 C448 0.977 . S
H475 C449 0.979 . S
H476 C449 0.980 . S
H477 C449 0.983 . S
H478 C422 0.947 . S
C479 C422 1.392 . S
C479 C423 1.419 . S
C479 H461 0.948 . S
C480 C481 1.391 . S
C480 C484 1.391 . S
C480 H522 0.948 . S
C481 C480 1.391 . S
C481 C482 1.391 . S
C482 C481 1.391 . S
C482 H538 0.947 . S
C482 C539 1.392 . S
C483 C484 1.391 . S
C483 C487 1.397 . S
C483 C539 1.419 . S
C484 C480 1.391 . S
C484 C483 1.391 . S
C484 C485 1.399 . S
C485 C484 1.399 . S
C485 C488 1.396 . S
C485 C497 1.453 . S
C485 C498 1.684 . S
H486 C510 0.948 . S
C487 C483 1.397 . S
C487 C488 1.394 . S
C487 C506 1.723 . S
C488 C485 1.396 . S
C488 C487 1.394 . S
C488 C518 1.723 . S
H489 C512 0.947 . S
H490 C513 0.948 . S
H491 C519 0.982 . S
H492 C520 0.979 . S
H493 C520 0.980 . S
H494 C520 0.983 . S
H495 C519 0.979 . S
H496 C519 0.977 . S
C497 C485 1.453 . S
C497 H526 0.982 . S
C497 H527 0.979 . S
C497 H528 0.977 . S
C498 C485 1.684 . S
C498 H523 0.979 . S
C498 H524 0.980 . S
C498 H525 0.983 . S
C499 C500 1.391 . S
C499 C504 1.391 . S
C499 H529 0.948 . S
C500 C499 1.391 . S
C500 C501 1.391 . S
C501 C500 1.391 . S
C501 C502 1.392 . S
C501 H530 0.947 . S
C502 C501 1.392 . S
C502 C503 1.419 . S
C502 H531 0.948 . S
C503 C502 1.419 . S
C503 C504 1.391 . S
C503 C507 1.397 . S
C504 C499 1.391 . S
C504 C503 1.391 . S
C504 C505 1.399 . S
C505 C504 1.399 . S
C505 C506 1.396 . S
C505 C508 1.453 . S
C505 C509 1.684 . S
C506 C487 1.723 . S
C506 C505 1.396 . S
C506 C507 1.394 . S
C507 C503 1.397 . S
C507 C506 1.394 . S
C507 C517 1.723 . S
C508 C505 1.453 . S
C508 H532 0.982 . S
C508 H533 0.979 . S
C508 H534 0.977 . S
C509 C505 1.684 . S
C509 H535 0.979 . S
C509 H536 0.980 . S
C509 H537 0.983 . S
C510 H486 0.948 . S
C510 C511 1.391 . S
C510 C515 1.391 . S
C511 C510 1.391 . S
C511 C512 1.391 . S
C512 H489 0.947 . S
C512 C511 1.391 . S
C512 C513 1.392 . S
C513 H490 0.948 . S
C513 C512 1.392 . S
C513 C514 1.419 . S
C514 C513 1.419 . S
C514 C515 1.391 . S
C514 C518 1.397 . S
C515 C510 1.391 . S
C515 C514 1.391 . S
C515 C516 1.399 . S
C516 C515 1.399 . S
C516 C517 1.396 . S
C516 C519 1.453 . S
C516 C520 1.684 . S
C517 C507 1.723 . S
C517 C516 1.396 . S
C517 C518 1.394 . S
C518 C488 1.723 . S
C518 C514 1.397 . S
C518 C517 1.394 . S
C519 H491 0.982 . S
C519 H495 0.979 . S
C519 H496 0.977 . S
C519 C516 1.453 . S
C520 H492 0.979 . S
C520 H493 0.980 . S
C520 H494 0.983 . S
C520 C516 1.684 . S
H521 C539 0.948 . S
H522 C480 0.948 . S
H523 C498 0.979 . S
H524 C498 0.980 . S
H525 C498 0.983 . S
H526 C497 0.982 . S
H527 C497 0.979 . S
H528 C497 0.977 . S
H529 C499 0.948 . S
H530 C501 0.947 . S
H531 C502 0.948 . S
H532 C508 0.982 . S
H533 C508 0.979 . S
H534 C508 0.977 . S
H535 C509 0.979 . S
H536 C509 0.980 . S
H537 C509 0.983 . S
H538 C482 0.947 . S
C539 C482 1.392 . S
C539 C483 1.419 . S
C539 H521 0.948 . S
C540 C541 1.391 . S
C540 C544 1.391 . S
C540 H582 0.948 . S
C541 C540 1.391 . S
C541 C542 1.391 . S
C542 C541 1.391 . S
C542 H598 0.947 . S
C542 C599 1.392 . S
C543 C544 1.391 . S
C543 C547 1.397 . S
C543 C599 1.419 . S
C544 C540 1.391 . S
C544 C543 1.391 . S
C544 C545 1.399 . S
C545 C544 1.399 . S
C545 C548 1.396 . S
C545 C557 1.453 . S
C545 C558 1.684 . S
H546 C570 0.948 1_545 S
C547 C543 1.397 . S
C547 C548 1.394 . S
C547 C566 1.723 . S
C548 C545 1.396 . S
C548 C547 1.394 . S
C548 C578 1.723 . S
H549 C572 0.947 . S
H550 C573 0.948 . S
H551 C579 0.982 1_565 S
H552 C580 0.979 . S
H553 C580 0.980 . S
H554 C580 0.983 . S
H555 C579 0.979 . S
H556 C579 0.977 . S
C557 C545 1.453 . S
C557 H586 0.982 . S
C557 H587 0.979 . S
C557 H588 0.977 . S
C558 C545 1.684 . S
C558 H583 0.979 . S
C558 H584 0.980 . S
C558 H585 0.983 . S
C559 C560 1.391 . S
C559 C564 1.391 . S
C559 H589 0.948 . S
C560 C559 1.391 . S
C560 C561 1.391 . S
C561 C560 1.391 . S
C561 C562 1.392 . S
C561 H590 0.947 . S
C562 C561 1.392 . S
C562 C563 1.419 . S
C562 H591 0.948 . S
C563 C562 1.419 . S
C563 C564 1.391 . S
C563 C567 1.397 1_545 S
C564 C559 1.391 . S
C564 C563 1.391 . S
C564 C565 1.399 1_545 S
C565 C564 1.399 1_565 S
C565 C566 1.396 . S
C565 C568 1.453 . S
C565 C569 1.684 . S
C566 C547 1.723 . S
C566 C565 1.396 . S
C566 C567 1.394 . S
C567 C563 1.397 1_565 S
C567 C566 1.394 . S
C567 C577 1.723 . S
C568 C565 1.453 . S
C568 H592 0.982 . S
C568 H593 0.979 . S
C568 H594 0.977 . S
C569 C565 1.684 . S
C569 H595 0.979 . S
C569 H596 0.980 . S
C569 H597 0.983 . S
C570 H546 0.948 1_565 S
C570 C571 1.391 . S
C570 C575 1.391 . S
C571 C570 1.391 . S
C571 C572 1.391 . S
C572 H549 0.947 . S
C572 C571 1.391 . S
C572 C573 1.392 . S
C573 H550 0.948 . S
C573 C572 1.392 . S
C573 C574 1.419 . S
C574 C573 1.419 . S
C574 C575 1.391 . S
C574 C578 1.397 . S
C575 C570 1.391 . S
C575 C574 1.391 . S
C575 C576 1.399 1_565 S
C576 C575 1.399 1_545 S
C576 C577 1.396 1_545 S
C576 C579 1.453 . S
C576 C580 1.684 . S
C577 C567 1.723 . S
C577 C576 1.396 1_565 S
C577 C578 1.394 . S
C578 C548 1.723 . S
C578 C574 1.397 . S
C578 C577 1.394 . S
C579 H551 0.982 1_545 S
C579 H555 0.979 . S
C579 H556 0.977 . S
C579 C576 1.453 . S
C580 H552 0.979 . S
C580 H553 0.980 . S
C580 H554 0.983 . S
C580 C576 1.684 . S
H581 C599 0.948 . S
H582 C540 0.948 . S
H583 C558 0.979 . S
H584 C558 0.980 . S
H585 C558 0.983 . S
H586 C557 0.982 . S
H587 C557 0.979 . S
H588 C557 0.977 . S
H589 C559 0.948 . S
H590 C561 0.947 . S
H591 C562 0.948 . S
H592 C568 0.982 . S
H593 C568 0.979 . S
H594 C568 0.977 . S
H595 C569 0.979 . S
H596 C569 0.980 . S
H597 C569 0.983 . S
H598 C542 0.947 . S
C599 C542 1.392 . S
C599 C543 1.419 . S
C599 H581 0.948 . S
C600 C601 1.391 . S
C600 C604 1.391 . S
C600 H642 0.948 . S
C601 C600 1.391 . S
C601 C602 1.391 . S
C602 C601 1.391 . S
C602 H658 0.947 . S
C602 C659 1.392 . S
C603 C604 1.391 . S
C603 C607 1.397 . S
C603 C659 1.419 . S
C604 C600 1.391 . S
C604 C603 1.391 . S
C604 C605 1.399 . S
C605 C604 1.399 . S
C605 C608 1.396 . S
C605 C617 1.453 . S
C605 C618 1.684 . S
H606 C630 0.948 . S
C607 C603 1.397 . S
C607 C608 1.394 . S
C607 C626 1.723 . S
C608 C605 1.396 . S
C608 C607 1.394 . S
C608 C638 1.723 . S
H609 C632 0.947 . S
H610 C633 0.948 . S
H611 C639 0.982 . S
H612 C640 0.979 . S
H613 C640 0.980 . S
H614 C640 0.983 . S
H615 C639 0.979 . S
H616 C639 0.977 . S
C617 C605 1.453 . S
C617 H646 0.982 . S
C617 H647 0.979 . S
C617 H648 0.977 . S
C618 C605 1.684 . S
C618 H643 0.979 . S
C618 H644 0.980 . S
C618 H645 0.983 . S
C619 C620 1.391 . S
C619 C624 1.391 . S
C619 H649 0.948 . S
C620 C619 1.391 . S
C620 C621 1.391 . S
C621 C620 1.391 . S
C621 C622 1.392 . S
C621 H650 0.947 . S
C622 C621 1.392 . S
C622 C623 1.419 . S
C622 H651 0.948 . S
C623 C622 1.419 . S
C623 C624 1.391 . S
C623 C627 1.397 . S
C624 C619 1.391 . S
C624 C623 1.391 . S
C624 C625 1.399 . S
C625 C624 1.399 . S
C625 C626 1.396 . S
C625 C628 1.453 . S
C625 C629 1.684 . S
C626 C607 1.723 . S
C626 C625 1.396 . S
C626 C627 1.394 . S
C627 C623 1.397 . S
C627 C626 1.394 . S
C627 C637 1.723 . S
C628 C625 1.453 . S
C628 H652 0.982 . S
C628 H653 0.979 . S
C628 H654 0.977 . S
C629 C625 1.684 . S
C629 H655 0.979 . S
C629 H656 0.980 . S
C629 H657 0.983 . S
C630 H606 0.948 . S
C630 C631 1.391 . S
C630 C635 1.391 . S
C631 C630 1.391 . S
C631 C632 1.391 . S
C632 H609 0.947 . S
C632 C631 1.391 . S
C632 C633 1.392 . S
C633 H610 0.948 . S
C633 C632 1.392 . S
C633 C634 1.419 . S
C634 C633 1.419 . S
C634 C635 1.391 . S
C634 C638 1.397 . S
C635 C630 1.391 . S
C635 C634 1.391 . S
C635 C636 1.399 . S
C636 C635 1.399 . S
C636 C637 1.396 . S
C636 C639 1.453 . S
C636 C640 1.684 . S
C637 C627 1.723 . S
C637 C636 1.396 . S
C637 C638 1.394 . S
C638 C608 1.723 . S
C638 C634 1.397 . S
C638 C637 1.394 . S
C639 H611 0.982 . S
C639 H615 0.979 . S
C639 H616 0.977 . S
C639 C636 1.453 . S
C640 H612 0.979 . S
C640 H613 0.980 . S
C640 H614 0.983 . S
C640 C636 1.684 . S
H641 C659 0.948 . S
H642 C600 0.948 . S
H643 C618 0.979 . S
H644 C618 0.980 . S
H645 C618 0.983 . S
H646 C617 0.982 . S
H647 C617 0.979 . S
H648 C617 0.977 . S
H649 C619 0.948 . S
H650 C621 0.947 . S
H651 C622 0.948 . S
H652 C628 0.982 . S
H653 C628 0.979 . S
H654 C628 0.977 . S
H655 C629 0.979 . S
H656 C629 0.980 . S
H657 C629 0.983 . S
H658 C602 0.947 . S
C659 C602 1.392 . S
C659 C603 1.419 . S
C659 H641 0.948 . S
C660 C661 1.391 . S
C660 C664 1.391 . S
C660 H702 0.948 . S
C661 C660 1.391 . S
C661 C662 1.391 . S
C662 C661 1.391 . S
C662 H718 0.947 . S
C662 C719 1.392 . S
C663 C664 1.391 . S
C663 C667 1.397 . S
C663 C719 1.419 . S
C664 C660 1.391 . S
C664 C663 1.391 . S
C664 C665 1.399 . S
C665 C664 1.399 . S
C665 C668 1.396 . S
C665 C677 1.453 . S
C665 C678 1.684 . S
H666 C690 0.948 . S
C667 C663 1.397 . S
C667 C668 1.394 . S
C667 C686 1.723 . S
C668 C665 1.396 . S
C668 C667 1.394 . S
C668 C698 1.723 . S
H669 C692 0.947 . S
H670 C693 0.948 . S
H671 C699 0.982 . S
H672 C700 0.979 . S
H673 C700 0.980 . S
H674 C700 0.983 . S
H675 C699 0.979 . S
H676 C699 0.977 . S
C677 C665 1.453 . S
C677 H706 0.982 . S
C677 H707 0.979 . S
C677 H708 0.977 . S
C678 C665 1.684 . S
C678 H703 0.979 . S
C678 H704 0.980 . S
C678 H705 0.983 . S
C679 C680 1.391 . S
C679 C684 1.391 . S
C679 H709 0.948 . S
C680 C679 1.391 . S
C680 C681 1.391 . S
C681 C680 1.391 . S
C681 C682 1.392 . S
C681 H710 0.947 . S
C682 C681 1.392 . S
C682 C683 1.419 . S
C682 H711 0.948 . S
C683 C682 1.419 . S
C683 C684 1.391 . S
C683 C687 1.397 . S
C684 C679 1.391 . S
C684 C683 1.391 . S
C684 C685 1.399 . S
C685 C684 1.399 . S
C685 C686 1.396 . S
C685 C688 1.453 . S
C685 C689 1.684 . S
C686 C667 1.723 . S
C686 C685 1.396 . S
C686 C687 1.394 . S
C687 C683 1.397 . S
C687 C686 1.394 . S
C687 C697 1.723 . S
C688 C685 1.453 . S
C688 H712 0.982 . S
C688 H713 0.979 . S
C688 H714 0.977 . S
C689 C685 1.684 . S
C689 H715 0.979 . S
C689 H716 0.980 . S
C689 H717 0.983 . S
C690 H666 0.948 . S
C690 C691 1.391 . S
C690 C695 1.391 . S
C691 C690 1.391 . S
C691 C692 1.391 . S
C692 H669 0.947 . S
C692 C691 1.391 . S
C692 C693 1.392 . S
C693 H670 0.948 . S
C693 C692 1.392 . S
C693 C694 1.419 . S
C694 C693 1.419 . S
C694 C695 1.391 . S
C694 C698 1.397 . S
C695 C690 1.391 . S
C695 C694 1.391 . S
C695 C696 1.399 . S
C696 C695 1.399 . S
C696 C697 1.396 . S
C696 C699 1.453 . S
C696 C700 1.684 . S
C697 C687 1.723 . S
C697 C696 1.396 . S
C697 C698 1.394 . S
C698 C668 1.723 . S
C698 C694 1.397 . S
C698 C697 1.394 . S
C699 H671 0.982 . S
C699 H675 0.979 . S
C699 H676 0.977 . S
C699 C696 1.453 . S
C700 H672 0.979 . S
C700 H673 0.980 . S
C700 H674 0.983 . S
C700 C696 1.684 . S
H701 C719 0.948 . S
H702 C660 0.948 . S
H703 C678 0.979 . S
H704 C678 0.980 . S
H705 C678 0.983 . S
H706 C677 0.982 . S
H707 C677 0.979 . S
H708 C677 0.977 . S
H709 C679 0.948 . S
H710 C681 0.947 . S
H711 C682 0.948 . S
H712 C688 0.982 . S
H713 C688 0.979 . S
H714 C688 0.977 . S
H715 C689 0.979 . S
H716 C689 0.980 . S
H717 C689 0.983 . S
H718 C662 0.947 . S
C719 C662 1.392 . S
C719 C663 1.419 . S
C719 H701 0.948 . S
C720 C721 1.391 . S
C720 C724 1.391 . S
C720 H762 0.948 . S
C721 C720 1.391 . S
C721 C722 1.391 . S
C722 C721 1.391 . S
C722 H778 0.947 . S
C722 C779 1.392 . S
C723 C724 1.391 . S
C723 C727 1.397 . S
C723 C779 1.419 . S
C724 C720 1.391 . S
C724 C723 1.391 . S
C724 C725 1.399 . S
C725 C724 1.399 . S
C725 C728 1.396 . S
C725 C737 1.453 . S
C725 C738 1.684 . S
H726 C750 0.948 . S
C727 C723 1.397 . S
C727 C728 1.394 . S
C727 C746 1.723 . S
C728 C725 1.396 . S
C728 C727 1.394 . S
C728 C758 1.723 . S
H729 C752 0.947 . S
H730 C753 0.948 . S
H731 C759 0.982 . S
H732 C760 0.979 . S
H733 C760 0.980 . S
H734 C760 0.983 . S
H735 C759 0.979 . S
H736 C759 0.977 . S
C737 C725 1.453 . S
C737 H766 0.982 . S
C737 H767 0.979 . S
C737 H768 0.977 . S
C738 C725 1.684 . S
C738 H763 0.979 . S
C738 H764 0.980 . S
C738 H765 0.983 . S
C739 C740 1.391 . S
C739 C744 1.391 . S
C739 H769 0.948 . S
C740 C739 1.391 . S
C740 C741 1.391 . S
C741 C740 1.391 . S
C741 C742 1.392 . S
C741 H770 0.947 . S
C742 C741 1.392 . S
C742 C743 1.419 . S
C742 H771 0.948 . S
C743 C742 1.419 . S
C743 C744 1.391 . S
C743 C747 1.397 . S
C744 C739 1.391 . S
C744 C743 1.391 . S
C744 C745 1.399 . S
C745 C744 1.399 . S
C745 C746 1.396 . S
C745 C748 1.453 . S
C745 C749 1.684 . S
C746 C727 1.723 . S
C746 C745 1.396 . S
C746 C747 1.394 . S
C747 C743 1.397 . S
C747 C746 1.394 . S
C747 C757 1.723 . S
C748 C745 1.453 . S
C748 H772 0.982 . S
C748 H773 0.979 . S
C748 H774 0.977 . S
C749 C745 1.684 . S
C749 H775 0.979 . S
C749 H776 0.980 . S
C749 H777 0.983 . S
C750 H726 0.948 . S
C750 C751 1.391 . S
C750 C755 1.391 . S
C751 C750 1.391 . S
C751 C752 1.391 . S
C752 H729 0.947 . S
C752 C751 1.391 . S
C752 C753 1.392 . S
C753 H730 0.948 . S
C753 C752 1.392 . S
C753 C754 1.419 . S
C754 C753 1.419 . S
C754 C755 1.391 . S
C754 C758 1.397 . S
C755 C750 1.391 . S
C755 C754 1.391 . S
C755 C756 1.399 . S
C756 C755 1.399 . S
C756 C757 1.396 . S
C756 C759 1.453 . S
C756 C760 1.684 . S
C757 C747 1.723 . S
C757 C756 1.396 . S
C757 C758 1.394 . S
C758 C728 1.723 . S
C758 C754 1.397 . S
C758 C757 1.394 . S
C759 H731 0.982 . S
C759 H735 0.979 . S
C759 H736 0.977 . S
C759 C756 1.453 . S
C760 H732 0.979 . S
C760 H733 0.980 . S
C760 H734 0.983 . S
C760 C756 1.684 . S
H761 C779 0.948 . S
H762 C720 0.948 . S
H763 C738 0.979 . S
H764 C738 0.980 . S
H765 C738 0.983 . S
H766 C737 0.982 . S
H767 C737 0.979 . S
H768 C737 0.977 . S
H769 C739 0.948 . S
H770 C741 0.947 . S
H771 C742 0.948 . S
H772 C748 0.982 . S
H773 C748 0.979 . S
H774 C748 0.977 . S
H775 C749 0.979 . S
H776 C749 0.980 . S
H777 C749 0.983 . S
H778 C722 0.947 . S
C779 C722 1.392 . S
C779 C723 1.419 . S
C779 H761 0.948 . S
C780 C781 1.391 . S
C780 C784 1.391 . S
C780 H822 0.948 . S
C781 C780 1.391 . S
C781 C782 1.391 . S
C782 C781 1.391 . S
C782 H838 0.947 . S
C782 C839 1.392 1_554 S
C783 C784 1.391 1_556 S
C783 C787 1.397 . S
C783 C839 1.419 . S
C784 C780 1.391 . S
C784 C783 1.391 1_554 S
C784 C785 1.399 . S
C785 C784 1.399 . S
C785 C788 1.396 1_554 S
C785 C797 1.453 . S
C785 C798 1.684 . S
H786 C810 0.948 . S
C787 C783 1.397 . S
C787 C788 1.394 . S
C787 C806 1.723 . S
C788 C785 1.396 1_556 S
C788 C787 1.394 . S
C788 C818 1.723 . S
H789 C812 0.947 . S
H790 C813 0.939 1_554 S
H791 C819 0.982 . S
H792 C820 0.979 . S
H793 C820 0.980 . S
H794 C820 0.983 . S
H795 C819 0.979 . S
H796 C819 0.977 . S
C797 C785 1.453 . S
C797 H826 0.982 . S
C797 H827 0.979 . S
C797 H828 0.977 . S
C798 C785 1.684 . S
C798 H823 0.979 . S
C798 H824 0.980 . S
C798 H825 0.983 . S
C799 C800 1.391 . S
C799 C804 1.391 . S
C799 H829 0.948 . S
C800 C799 1.391 . S
C800 C801 1.391 . S
C801 C800 1.391 . S
C801 C802 1.392 . S
C801 H830 0.947 . S
C802 C801 1.392 . S
C802 C803 1.419 . S
C802 H831 0.948 . S
C803 C802 1.419 . S
C803 C804 1.391 . S
C803 C807 1.397 . S
C804 C799 1.391 . S
C804 C803 1.391 . S
C804 C805 1.399 . S
C805 C804 1.399 . S
C805 C806 1.396 . S
C805 C808 1.453 . S
C805 C809 1.684 . S
C806 C787 1.723 . S
C806 C805 1.396 . S
C806 C807 1.394 . S
C807 C803 1.397 . S
C807 C806 1.394 . S
C807 C817 1.723 . S
C808 C805 1.453 . S
C808 H832 0.982 . S
C808 H833 0.979 . S
C808 H834 0.977 . S
C809 C805 1.684 . S
C809 H835 0.979 . S
C809 H836 0.980 . S
C809 H837 0.983 . S
C810 H786 0.948 . S
C810 C811 1.391 . S
C810 C815 1.391 . S
C811 C810 1.391 . S
C811 C812 1.391 1_556 S
C812 H789 0.947 . S
C812 C811 1.391 1_554 S
C812 C813 1.391 1_554 S
C813 H790 0.939 1_556 S
C813 C812 1.391 1_556 S
C813 C814 1.430 . S
C814 C813 1.430 . S
C814 C815 1.391 . S
C814 C818 1.397 . S
C815 C810 1.391 . S
C815 C814 1.391 . S
C815 C816 1.399 . S
C816 C815 1.399 . S
C816 C817 1.396 . S
C816 C819 1.453 . S
C816 C820 1.684 . S
C817 C807 1.723 . S
C817 C816 1.396 . S
C817 C818 1.394 . S
C818 C788 1.723 . S
C818 C814 1.397 . S
C818 C817 1.394 . S
C819 H791 0.982 . S
C819 H795 0.979 . S
C819 H796 0.977 . S
C819 C816 1.453 . S
C820 H792 0.979 . S
C820 H793 0.980 . S
C820 H794 0.983 . S
C820 C816 1.684 . S
H821 C839 0.948 . S
H822 C780 0.948 . S
H823 C798 0.979 . S
H824 C798 0.980 . S
H825 C798 0.983 . S
H826 C797 0.982 . S
H827 C797 0.979 . S
H828 C797 0.977 . S
H829 C799 0.948 . S
H830 C801 0.947 . S
H831 C802 0.948 . S
H832 C808 0.982 . S
H833 C808 0.979 . S
H834 C808 0.977 . S
H835 C809 0.979 . S
H836 C809 0.980 . S
H837 C809 0.983 . S
H838 C782 0.947 . S
C839 C782 1.392 1_556 S
C839 C783 1.419 . S
C839 H821 0.948 . S
C840 C841 1.391 . S
C840 C844 1.391 . S
C840 H882 0.948 . S
C841 C840 1.391 . S
C841 C842 1.391 . S
C842 C841 1.391 . S
C842 H898 0.947 . S
C842 C899 1.392 . S
C843 C844 1.391 . S
C843 C847 1.397 . S
C843 C899 1.419 . S
C844 C840 1.391 . S
C844 C843 1.391 . S
C844 C845 1.399 . S
C845 C844 1.399 . S
C845 C848 1.396 . S
C845 C857 1.453 . S
C845 C858 1.684 . S
H846 C870 0.948 . S
C847 C843 1.397 . S
C847 C848 1.394 . S
C847 C866 1.723 . S
C848 C845 1.396 . S
C848 C847 1.394 . S
C848 C878 1.723 . S
H849 C872 0.947 . S
H850 C873 0.948 . S
H851 C879 0.982 . S
H852 C880 0.979 . S
H853 C880 0.980 . S
H854 C880 0.983 . S
H855 C879 0.979 . S
H856 C879 0.977 . S
C857 C845 1.453 . S
C857 H886 0.982 . S
C857 H887 0.979 . S
C857 H888 0.977 . S
C858 C845 1.684 . S
C858 H883 0.979 . S
C858 H884 0.980 . S
C858 H885 0.983 . S
C859 C860 1.391 . S
C859 C864 1.391 . S
C859 H889 0.948 . S
C860 C859 1.391 . S
C860 C861 1.391 . S
C861 C860 1.391 . S
C861 C862 1.392 . S
C861 H890 0.947 . S
C862 C861 1.392 . S
C862 C863 1.419 . S
C862 H891 0.948 . S
C863 C862 1.419 . S
C863 C864 1.391 . S
C863 C867 1.397 . S
C864 C859 1.391 . S
C864 C863 1.391 . S
C864 C865 1.399 . S
C865 C864 1.399 . S
C865 C866 1.396 . S
C865 C868 1.453 . S
C865 C869 1.684 . S
C866 C847 1.723 . S
C866 C865 1.396 . S
C866 C867 1.394 . S
C867 C863 1.397 . S
C867 C866 1.394 . S
C867 C877 1.723 . S
C868 C865 1.453 . S
C868 H892 0.982 . S
C868 H893 0.979 . S
C868 H894 0.977 . S
C869 C865 1.684 . S
C869 H895 0.979 . S
C869 H896 0.980 . S
C869 H897 0.983 . S
C870 H846 0.948 . S
C870 C871 1.391 . S
C870 C875 1.391 . S
C871 C870 1.391 . S
C871 C872 1.391 . S
C872 H849 0.947 . S
C872 C871 1.391 . S
C872 C873 1.392 . S
C873 H850 0.948 . S
C873 C872 1.392 . S
C873 C874 1.419 . S
C874 C873 1.419 . S
C874 C875 1.391 . S
C874 C878 1.397 . S
C875 C870 1.391 . S
C875 C874 1.391 . S
C875 C876 1.399 . S
C876 C875 1.399 . S
C876 C877 1.396 . S
C876 C879 1.453 . S
C876 C880 1.684 . S
C877 C867 1.723 . S
C877 C876 1.396 . S
C877 C878 1.394 . S
C878 C848 1.723 . S
C878 C874 1.397 . S
C878 C877 1.394 . S
C879 H851 0.982 . S
C879 H855 0.979 . S
C879 H856 0.977 . S
C879 C876 1.453 . S
C880 H852 0.979 . S
C880 H853 0.980 . S
C880 H854 0.983 . S
C880 C876 1.684 . S
H881 C899 0.948 . S
H882 C840 0.948 . S
H883 C858 0.979 . S
H884 C858 0.980 . S
H885 C858 0.983 . S
H886 C857 0.982 . S
H887 C857 0.979 . S
H888 C857 0.977 . S
H889 C859 0.948 . S
H890 C861 0.947 . S
H891 C862 0.948 . S
H892 C868 0.982 . S
H893 C868 0.979 . S
H894 C868 0.977 . S
H895 C869 0.979 . S
H896 C869 0.980 . S
H897 C869 0.983 . S
H898 C842 0.947 . S
C899 C842 1.392 . S
C899 C843 1.419 . S
C899 H881 0.948 . S
C900 C901 1.391 1_554 S
C900 C904 1.391 1_564 S
C900 H942 0.948 . S
C901 C900 1.391 1_556 S
C901 C902 1.391 . S
C902 C901 1.391 . S
C902 H958 0.947 . S
C902 C959 1.392 . S
C903 C904 1.391 1_565 S
C903 C907 1.397 1_565 S
C903 C959 1.419 . S
C904 C900 1.391 1_546 S
C904 C903 1.391 1_545 S
C904 C905 1.399 1_556 S
C905 C904 1.399 1_554 S
C905 C908 1.396 1_554 S
C905 C917 1.453 . S
C905 C918 1.684 . S
H906 C930 0.948 . S
C907 C903 1.397 1_545 S
C907 C908 1.394 . S
C907 C926 1.723 . S
C908 C905 1.396 1_556 S
C908 C907 1.394 . S
C908 C938 1.723 . S
H909 C932 0.947 . S
H910 C933 0.948 . S
H911 C939 0.982 . S
H912 C940 1.010 . S
H913 C940 0.980 . S
H914 C940 0.983 . S
H915 C939 0.979 . S
H916 C939 0.977 . S
C917 C905 1.453 . S
C917 H946 0.982 1_554 S
C917 H947 0.979 . S
C917 H948 0.977 . S
C918 C905 1.684 . S
C918 H943 0.979 . S
C918 H944 0.980 . S
C918 H945 0.983 . S
C919 C920 1.391 . S
C919 C924 1.391 . S
C919 H949 0.948 1_545 S
C920 C919 1.391 . S
C920 C921 1.391 . S
C921 C920 1.391 . S
C921 C922 1.392 . S
C921 H950 0.947 . S
C922 C921 1.392 . S
C922 C923 1.419 . S
C922 H951 0.948 . S
C923 C922 1.419 . S
C923 C924 1.391 . S
C923 C927 1.397 . S
C924 C919 1.391 . S
C924 C923 1.391 . S
C924 C925 1.404 . S
C925 C924 1.404 . S
C925 C926 1.404 . S
C925 C928 1.452 1_545 S
C925 C929 1.672 1_545 S
C926 C907 1.723 . S
C926 C925 1.404 . S
C926 C927 1.394 . S
C927 C923 1.397 . S
C927 C926 1.394 . S
C927 C937 1.723 . S
C928 C925 1.452 1_565 S
C928 H952 0.982 1_565 S
C928 H953 0.979 . S
C928 H954 0.977 . S
C929 C925 1.672 1_565 S
C929 H955 0.979 . S
C929 H956 0.980 . S
C929 H957 0.983 . S
C930 H906 0.948 . S
C930 C931 1.391 . S
C930 C935 1.391 . S
C931 C930 1.391 . S
C931 C932 1.391 . S
C932 H909 0.947 . S
C932 C931 1.391 . S
C932 C933 1.392 . S
C933 H910 0.948 . S
C933 C932 1.392 . S
C933 C934 1.419 . S
C934 C933 1.419 . S
C934 C935 1.391 . S
C934 C938 1.397 1_554 S
C935 C930 1.391 . S
C935 C934 1.391 . S
C935 C936 1.399 1_554 S
C936 C935 1.399 1_556 S
C936 C937 1.396 . S
C936 C939 1.453 . S
C936 C940 1.684 . S
C937 C927 1.723 . S
C937 C936 1.396 . S
C937 C938 1.394 . S
C938 C908 1.723 . S
C938 C934 1.397 1_556 S
C938 C937 1.394 . S
C939 H911 0.982 . S
C939 H915 0.979 . S
C939 H916 0.977 . S
C939 C936 1.453 . S
C940 H912 1.010 . S
C940 H913 0.980 . S
C940 H914 0.983 . S
C940 C936 1.684 . S
H941 C959 0.948 . S
H942 C900 0.948 . S
H943 C918 0.979 . S
H944 C918 0.980 . S
H945 C918 0.983 . S
H946 C917 0.982 1_556 S
H947 C917 0.979 . S
H948 C917 0.977 . S
H949 C919 0.948 1_565 S
H950 C921 0.947 . S
H951 C922 0.948 . S
H952 C928 0.982 1_545 S
H953 C928 0.979 . S
H954 C928 0.977 . S
H955 C929 0.979 . S
H956 C929 0.980 . S
H957 C929 0.983 . S
H958 C902 0.947 . S
C959 C902 1.392 . S
C959 C903 1.419 . S
C959 H941 0.948 . S
Mn960 O965 2.095 . S
Mn960 O975 2.162 . S
Mn960 O976 2.297 . S
Mn960 O984 2.385 1_554 S
Mn960 O985 2.209 1_554 S
Mn960 O986 2.094 . S
Mn961 O966 2.121 . S
Mn961 N968 2.257 . S
Mn961 N977 2.282 . S
Mn961 O985 2.215 . S
Mn961 O987 2.117 . S
C962 O984 1.234 . S
C962 O985 1.283 . S
C963 O975 1.281 . S
C963 O976 1.236 . S
C964 O986 1.240 . S
C964 O987 1.264 1_554 S
O965 Mn960 2.095 . S
O965 C974 1.270 . S
O966 Mn961 2.121 . S
O966 C974 1.232 1_556 S
C967 N968 1.326 . S
C967 C971 1.460 . S
C967 H973 0.929 . S
N968 Mn961 2.257 . S
N968 C967 1.326 . S
N968 C972 1.362 . S
C969 C970 1.258 . S
C969 C972 1.431 . S
C969 C989 1.449 . S
C970 C969 1.258 . S
C970 C971 1.477 . S
C970 H990 0.931 . S
C971 C967 1.460 . S
C971 C970 1.477 . S
C971 H991 0.930 . S
C972 N968 1.362 . S
C972 C969 1.431 . S
C972 C982 1.476 . S
H973 C967 0.929 . S
C974 O965 1.270 . S
C974 O966 1.232 1_554 S
O975 Mn960 2.162 . S
O975 C963 1.281 . S
O976 Mn960 2.297 . S
O976 C963 1.236 . S
N977 Mn961 2.282 . S
N977 C978 1.328 . S
N977 C982 1.318 . S
C978 N977 1.328 . S
C978 C979 1.457 . S
C978 H983 0.929 . S
C979 C978 1.457 . S
C979 C980 1.291 . S
C979 H992 0.931 . S
C980 C979 1.291 . S
C980 C981 1.373 . S
C980 H993 0.929 . S
C981 C980 1.373 . S
C981 C982 1.396 . S
C981 C988 1.403 . S
C982 C972 1.476 . S
C982 N977 1.318 . S
C982 C981 1.396 . S
H983 C978 0.929 . S
O984 Mn960 2.385 1_556 S
O984 C962 1.234 . S
O985 Mn960 2.209 1_556 S
O985 Mn961 2.215 . S
O985 C962 1.283 . S
O986 Mn960 2.094 . S
O986 C964 1.240 . S
O987 Mn961 2.117 . S
O987 C964 1.264 1_556 S
C988 C981 1.403 . S
C988 C989 1.399 . S
C988 H994 0.929 . S
C989 C969 1.449 . S
C989 C988 1.399 . S
C989 H995 0.930 . S
H990 C970 0.931 . S
H991 C971 0.930 . S
H992 C979 0.931 . S
H993 C980 0.929 . S
H994 C988 0.929 . S
H995 C989 0.930 . S
Mn996 O1001 2.095 . S
Mn996 O1011 2.162 . S
Mn996 O1012 2.297 . S
Mn996 O1020 2.385 . S
Mn996 O1021 2.209 . S
Mn996 O1022 2.094 . S
Mn997 O1002 2.121 . S
Mn997 N1004 2.257 . S
Mn997 N1013 2.282 . S
Mn997 O1021 2.215 . S
Mn997 O1023 2.117 . S
C998 O1020 1.234 . S
C998 O1021 1.283 . S
C999 O1011 1.281 . S
C999 O1012 1.236 . S
C1000 O1022 1.240 . S
C1000 O1023 1.264 . S
O1001 Mn996 2.095 . S
O1001 C1010 1.250 . S
O1002 Mn997 2.121 . S
O1002 C1010 1.258 . S
C1003 N1004 1.326 . S
C1003 C1007 1.460 . S
C1003 H1009 0.929 . S
N1004 Mn997 2.257 . S
N1004 C1003 1.326 . S
N1004 C1008 1.362 . S
C1005 C1006 1.258 . S
C1005 C1008 1.431 . S
C1005 C1025 1.449 . S
C1006 C1005 1.258 . S
C1006 C1007 1.477 . S
C1006 H1026 0.931 . S
C1007 C1003 1.460 . S
C1007 C1006 1.477 . S
C1007 H1027 0.930 . S
C1008 N1004 1.362 . S
C1008 C1005 1.431 . S
C1008 C1018 1.476 . S
H1009 C1003 0.929 . S
C1010 O1001 1.250 . S
C1010 O1002 1.258 . S
O1011 Mn996 2.162 . S
O1011 C999 1.281 . S
O1012 Mn996 2.297 . S
O1012 C999 1.236 . S
N1013 Mn997 2.282 . S
N1013 C1014 1.328 . S
N1013 C1018 1.318 . S
C1014 N1013 1.328 . S
C1014 C1015 1.457 . S
C1014 H1019 0.929 . S
C1015 C1014 1.457 . S
C1015 C1016 1.291 . S
C1015 H1028 0.931 . S
C1016 C1015 1.291 . S
C1016 C1017 1.373 . S
C1016 H1029 0.929 . S
C1017 C1016 1.373 . S
C1017 C1018 1.396 . S
C1017 C1024 1.403 . S
C1018 C1008 1.476 . S
C1018 N1013 1.318 . S
C1018 C1017 1.396 . S
H1019 C1014 0.929 . S
O1020 Mn996 2.385 . S
O1020 C998 1.234 . S
O1021 Mn996 2.209 . S
O1021 Mn997 2.215 . S
O1021 C998 1.283 . S
O1022 Mn996 2.094 . S
O1022 C1000 1.240 . S
O1023 Mn997 2.117 . S
O1023 C1000 1.264 . S
C1024 C1017 1.403 . S
C1024 C1025 1.399 . S
C1024 H1030 0.929 . S
C1025 C1005 1.449 . S
C1025 C1024 1.399 . S
C1025 H1031 0.930 . S
H1026 C1006 0.931 . S
H1027 C1007 0.930 . S
H1028 C1015 0.931 . S
H1029 C1016 0.929 . S
H1030 C1024 0.929 . S
H1031 C1025 0.930 . S
Mn1032 O1037 2.095 1_554 S
Mn1032 O1047 2.162 . S
Mn1032 O1048 2.297 1_554 S
Mn1032 O1056 2.385 . S
Mn1032 O1057 2.209 1_554 S
Mn1032 O1058 2.094 . S
Mn1033 O1038 2.121 . S
Mn1033 N1040 2.257 . S
Mn1033 N1049 2.282 . S
Mn1033 O1057 2.215 . S
Mn1033 O1059 2.117 1_556 S
C1034 O1056 1.230 . S
C1034 O1057 1.286 1_554 S
C1035 O1047 1.281 . S
C1035 O1048 1.236 1_554 S
C1036 O1058 1.240 . S
C1036 O1059 1.264 . S
O1037 Mn1032 2.095 1_556 S
O1037 C1046 1.250 . S
O1038 Mn1033 2.121 . S
O1038 C1046 1.258 . S
C1039 N1040 1.326 . S
C1039 C1043 1.460 . S
C1039 H1045 0.929 . S
N1040 Mn1033 2.257 . S
N1040 C1039 1.326 . S
N1040 C1044 1.362 . S
C1041 C1042 1.258 . S
C1041 C1044 1.431 . S
C1041 C1061 1.449 . S
C1042 C1041 1.258 . S
C1042 C1043 1.477 . S
C1042 H1062 0.931 . S
C1043 C1039 1.460 . S
C1043 C1042 1.477 . S
C1043 H1063 0.930 . S
C1044 N1040 1.362 . S
C1044 C1041 1.431 . S
C1044 C1054 1.476 . S
H1045 C1039 0.929 . S
C1046 O1037 1.250 . S
C1046 O1038 1.258 . S
O1047 Mn1032 2.162 . S
O1047 C1035 1.281 . S
O1048 Mn1032 2.297 1_556 S
O1048 C1035 1.236 1_556 S
N1049 Mn1033 2.282 . S
N1049 C1050 1.328 1_556 S
N1049 C1054 1.318 . S
C1050 N1049 1.328 1_554 S
C1050 C1051 1.457 . S
C1050 H1055 0.929 . S
C1051 C1050 1.457 . S
C1051 C1052 1.291 . S
C1051 H1064 0.931 . S
C1052 C1051 1.291 . S
C1052 C1053 1.373 1_554 S
C1052 H1065 0.929 . S
C1053 C1052 1.373 1_556 S
C1053 C1054 1.396 . S
C1053 C1060 1.403 . S
C1054 C1044 1.476 . S
C1054 N1049 1.318 . S
C1054 C1053 1.396 . S
H1055 C1050 0.929 . S
O1056 Mn1032 2.385 . S
O1056 C1034 1.230 . S
O1057 Mn1032 2.209 1_556 S
O1057 Mn1033 2.215 . S
O1057 C1034 1.286 1_556 S
O1058 Mn1032 2.094 . S
O1058 C1036 1.240 . S
O1059 Mn1033 2.117 1_554 S
O1059 C1036 1.264 . S
C1060 C1053 1.403 . S
C1060 C1061 1.399 . S
C1060 H1066 0.929 . S
C1061 C1041 1.449 . S
C1061 C1060 1.399 . S
C1061 H1067 0.930 . S
H1062 C1042 0.931 . S
H1063 C1043 0.930 . S
H1064 C1051 0.931 . S
H1065 C1052 0.929 . S
H1066 C1060 0.929 . S
H1067 C1061 0.930 . S
Mn1068 O1073 2.095 . S
Mn1068 O1083 2.162 . S
Mn1068 O1084 2.297 . S
Mn1068 O1092 2.385 1_545 S
Mn1068 O1093 2.209 1_545 S
Mn1068 O1094 2.094 . S
Mn1069 O1074 2.121 . S
Mn1069 N1076 2.257 . S
Mn1069 N1085 2.282 . S
Mn1069 O1093 2.215 . S
Mn1069 O1095 2.117 . S
C1070 O1092 1.234 . S
C1070 O1093 1.283 . S
C1071 O1083 1.281 . S
C1071 O1084 1.236 . S
C1072 O1094 1.240 . S
C1072 O1095 1.264 1_545 S
O1073 Mn1068 2.095 . S
O1073 C1082 1.250 1_545 S
O1074 Mn1069 2.121 . S
O1074 C1082 1.258 . S
C1075 N1076 1.326 . S
C1075 C1079 1.460 . S
C1075 H1081 0.929 . S
N1076 Mn1069 2.257 . S
N1076 C1075 1.326 . S
N1076 C1080 1.362 . S
C1077 C1078 1.258 . S
C1077 C1080 1.431 . S
C1077 C1097 1.449 . S
C1078 C1077 1.258 . S
C1078 C1079 1.477 . S
C1078 H1098 0.931 . S
C1079 C1075 1.460 . S
C1079 C1078 1.477 . S
C1079 H1099 0.930 . S
C1080 N1076 1.362 . S
C1080 C1077 1.431 . S
C1080 C1090 1.476 . S
H1081 C1075 0.929 . S
C1082 O1073 1.250 1_565 S
C1082 O1074 1.258 . S
O1083 Mn1068 2.162 . S
O1083 C1071 1.281 . S
O1084 Mn1068 2.297 . S
O1084 C1071 1.236 . S
N1085 Mn1069 2.282 . S
N1085 C1086 1.328 . S
N1085 C1090 1.318 . S
C1086 N1085 1.328 . S
C1086 C1087 1.457 . S
C1086 H1091 0.929 . S
C1087 C1086 1.457 . S
C1087 C1088 1.291 . S
C1087 H1100 0.931 . S
C1088 C1087 1.291 . S
C1088 C1089 1.373 . S
C1088 H1101 0.929 . S
C1089 C1088 1.373 . S
C1089 C1090 1.396 . S
C1089 C1096 1.403 . S
C1090 C1080 1.476 . S
C1090 N1085 1.318 . S
C1090 C1089 1.396 . S
H1091 C1086 0.929 . S
O1092 Mn1068 2.385 1_565 S
O1092 C1070 1.234 . S
O1093 Mn1068 2.209 1_565 S
O1093 Mn1069 2.215 . S
O1093 C1070 1.283 . S
O1094 Mn1068 2.094 . S
O1094 C1072 1.240 . S
O1095 Mn1069 2.117 . S
O1095 C1072 1.264 1_565 S
C1096 C1089 1.403 . S
C1096 C1097 1.399 . S
C1096 H1102 0.929 . S
C1097 C1077 1.449 . S
C1097 C1096 1.399 . S
C1097 H1103 0.930 . S
H1098 C1078 0.931 . S
H1099 C1079 0.930 . S
H1100 C1087 0.931 . S
H1101 C1088 0.929 . S
H1102 C1096 0.929 . S
H1103 C1097 0.930 . S
Mn1104 O1109 2.095 . S
Mn1104 O1119 2.162 . S
Mn1104 O1120 2.297 . S
Mn1104 O1128 2.385 . S
Mn1104 O1129 2.209 . S
Mn1104 O1130 2.094 . S
Mn1105 O1110 2.121 . S
Mn1105 N1112 2.257 . S
Mn1105 N1121 2.282 . S
Mn1105 O1129 2.215 . S
Mn1105 O1131 2.117 . S
C1106 O1128 1.234 . S
C1106 O1129 1.283 . S
C1107 O1119 1.281 . S
C1107 O1120 1.236 . S
C1108 O1130 1.240 . S
C1108 O1131 1.264 . S
O1109 Mn1104 2.095 . S
O1109 C1118 1.250 . S
O1110 Mn1105 2.121 . S
O1110 C1118 1.258 . S
C1111 N1112 1.326 . S
C1111 C1115 1.460 . S
C1111 H1117 0.929 . S
N1112 Mn1105 2.257 . S
N1112 C1111 1.326 . S
N1112 C1116 1.362 . S
C1113 C1114 1.258 . S
C1113 C1116 1.431 . S
C1113 C1133 1.449 . S
C1114 C1113 1.258 . S
C1114 C1115 1.477 . S
C1114 H1134 0.931 . S
C1115 C1111 1.460 . S
C1115 C1114 1.477 . S
C1115 H1135 0.930 . S
C1116 N1112 1.362 . S
C1116 C1113 1.431 . S
C1116 C1126 1.476 . S
H1117 C1111 0.929 . S
C1118 O1109 1.250 . S
C1118 O1110 1.258 . S
O1119 Mn1104 2.162 . S
O1119 C1107 1.281 . S
O1120 Mn1104 2.297 . S
O1120 C1107 1.236 . S
N1121 Mn1105 2.282 . S
N1121 C1122 1.328 . S
N1121 C1126 1.318 . S
C1122 N1121 1.328 . S
C1122 C1123 1.457 . S
C1122 H1127 0.929 . S
C1123 C1122 1.457 . S
C1123 C1124 1.291 . S
C1123 H1136 0.931 . S
C1124 C1123 1.291 . S
C1124 C1125 1.373 . S
C1124 H1137 0.929 . S
C1125 C1124 1.373 . S
C1125 C1126 1.396 . S
C1125 C1132 1.403 . S
C1126 C1116 1.476 . S
C1126 N1121 1.318 . S
C1126 C1125 1.396 . S
H1127 C1122 0.929 . S
O1128 Mn1104 2.385 . S
O1128 C1106 1.234 . S
O1129 Mn1104 2.209 . S
O1129 Mn1105 2.215 . S
O1129 C1106 1.283 . S
O1130 Mn1104 2.094 . S
O1130 C1108 1.240 . S
O1131 Mn1105 2.117 . S
O1131 C1108 1.264 . S
C1132 C1125 1.403 . S
C1132 C1133 1.399 . S
C1132 H1138 0.929 . S
C1133 C1113 1.449 . S
C1133 C1132 1.399 . S
C1133 H1139 0.930 . S
H1134 C1114 0.931 . S
H1135 C1115 0.930 . S
H1136 C1123 0.931 . S
H1137 C1124 0.929 . S
H1138 C1132 0.929 . S
H1139 C1133 0.930 . S
Mn1140 O1145 2.095 . S
Mn1140 O1155 2.162 . S
Mn1140 O1156 2.297 . S
Mn1140 O1164 2.385 . S
Mn1140 O1165 2.209 . S
Mn1140 O1166 2.094 . S
Mn1141 O1146 2.121 . S
Mn1141 N1148 2.257 . S
Mn1141 N1157 2.282 . S
Mn1141 O1165 2.215 . S
Mn1141 O1167 2.117 . S
C1142 O1164 1.234 . S
C1142 O1165 1.283 . S
C1143 O1155 1.281 . S
C1143 O1156 1.236 . S
C1144 O1166 1.240 . S
C1144 O1167 1.264 . S
O1145 Mn1140 2.095 . S
O1145 C1154 1.250 . S
O1146 Mn1141 2.121 . S
O1146 C1154 1.258 . S
C1147 N1148 1.326 . S
C1147 C1151 1.460 . S
C1147 H1153 0.929 . S
N1148 Mn1141 2.257 . S
N1148 C1147 1.326 . S
N1148 C1152 1.362 . S
C1149 C1150 1.258 . S
C1149 C1152 1.431 . S
C1149 C1169 1.449 . S
C1150 C1149 1.258 . S
C1150 C1151 1.477 . S
C1150 H1170 0.931 . S
C1151 C1147 1.460 . S
C1151 C1150 1.477 . S
C1151 H1171 0.930 . S
C1152 N1148 1.362 . S
C1152 C1149 1.431 . S
C1152 C1162 1.476 . S
H1153 C1147 0.929 . S
C1154 O1145 1.250 . S
C1154 O1146 1.258 . S
O1155 Mn1140 2.162 . S
O1155 C1143 1.281 . S
O1156 Mn1140 2.297 . S
O1156 C1143 1.236 . S
N1157 Mn1141 2.282 . S
N1157 C1158 1.328 . S
N1157 C1162 1.318 . S
C1158 N1157 1.328 . S
C1158 C1159 1.457 . S
C1158 H1163 0.929 . S
C1159 C1158 1.457 . S
C1159 C1160 1.291 . S
C1159 H1172 0.931 . S
C1160 C1159 1.291 . S
C1160 C1161 1.373 . S
C1160 H1173 0.929 . S
C1161 C1160 1.373 . S
C1161 C1162 1.396 . S
C1161 C1168 1.403 . S
C1162 C1152 1.476 . S
C1162 N1157 1.318 . S
C1162 C1161 1.396 . S
H1163 C1158 0.929 . S
O1164 Mn1140 2.385 . S
O1164 C1142 1.234 . S
O1165 Mn1140 2.209 . S
O1165 Mn1141 2.215 . S
O1165 C1142 1.283 . S
O1166 Mn1140 2.094 . S
O1166 C1144 1.240 . S
O1167 Mn1141 2.117 . S
O1167 C1144 1.264 . S
C1168 C1161 1.403 . S
C1168 C1169 1.399 . S
C1168 H1174 0.929 . S
C1169 C1149 1.449 . S
C1169 C1168 1.399 . S
C1169 H1175 0.930 . S
H1170 C1150 0.931 . S
H1171 C1151 0.930 . S
H1172 C1159 0.931 . S
H1173 C1160 0.929 . S
H1174 C1168 0.929 . S
H1175 C1169 0.930 . S
Mn1176 O1181 2.095 . S
Mn1176 O1191 2.162 . S
Mn1176 O1192 2.297 . S
Mn1176 O1200 2.385 . S
Mn1176 O1201 2.209 . S
Mn1176 O1202 2.094 . S
Mn1177 O1182 2.121 . S
Mn1177 N1184 2.257 . S
Mn1177 N1193 2.282 . S
Mn1177 O1201 2.215 . S
Mn1177 O1203 2.117 . S
C1178 O1200 1.234 . S
C1178 O1201 1.283 . S
C1179 O1191 1.281 . S
C1179 O1192 1.236 . S
C1180 O1202 1.240 . S
C1180 O1203 1.264 . S
O1181 Mn1176 2.095 . S
O1181 C1190 1.250 . S
O1182 Mn1177 2.121 . S
O1182 C1190 1.258 . S
C1183 N1184 1.326 . S
C1183 C1187 1.460 . S
C1183 H1189 0.929 . S
N1184 Mn1177 2.257 . S
N1184 C1183 1.326 . S
N1184 C1188 1.362 . S
C1185 C1186 1.258 . S
C1185 C1188 1.431 . S
C1185 C1205 1.449 . S
C1186 C1185 1.258 . S
C1186 C1187 1.477 . S
C1186 H1206 0.931 . S
C1187 C1183 1.460 . S
C1187 C1186 1.477 . S
C1187 H1207 0.930 . S
C1188 N1184 1.362 . S
C1188 C1185 1.431 . S
C1188 C1198 1.476 . S
H1189 C1183 0.929 . S
C1190 O1181 1.250 . S
C1190 O1182 1.258 . S
O1191 Mn1176 2.162 . S
O1191 C1179 1.281 . S
O1192 Mn1176 2.297 . S
O1192 C1179 1.236 . S
N1193 Mn1177 2.282 . S
N1193 C1194 1.328 . S
N1193 C1198 1.318 . S
C1194 N1193 1.328 . S
C1194 C1195 1.457 . S
C1194 H1199 0.929 . S
C1195 C1194 1.457 . S
C1195 C1196 1.291 . S
C1195 H1208 0.931 . S
C1196 C1195 1.291 . S
C1196 C1197 1.373 . S
C1196 H1209 0.929 . S
C1197 C1196 1.373 . S
C1197 C1198 1.396 . S
C1197 C1204 1.403 . S
C1198 C1188 1.476 . S
C1198 N1193 1.318 . S
C1198 C1197 1.396 . S
H1199 C1194 0.929 . S
O1200 Mn1176 2.385 . S
O1200 C1178 1.234 . S
O1201 Mn1176 2.209 . S
O1201 Mn1177 2.215 . S
O1201 C1178 1.283 . S
O1202 Mn1176 2.094 . S
O1202 C1180 1.240 . S
O1203 Mn1177 2.117 . S
O1203 C1180 1.264 . S
C1204 C1197 1.403 . S
C1204 C1205 1.399 . S
C1204 H1210 0.929 . S
C1205 C1185 1.449 . S
C1205 C1204 1.399 . S
C1205 H1211 0.930 . S
H1206 C1186 0.931 . S
H1207 C1187 0.930 . S
H1208 C1195 0.931 . S
H1209 C1196 0.929 . S
H1210 C1204 0.929 . S
H1211 C1205 0.930 . S
Mn1212 O1217 2.095 . S
Mn1212 O1227 2.162 . S
Mn1212 O1228 2.297 . S
Mn1212 O1236 2.385 1_565 S
Mn1212 O1237 2.209 1_565 S
Mn1212 O1238 2.094 . S
Mn1213 O1218 2.121 . S
Mn1213 N1220 2.257 . S
Mn1213 N1229 2.282 . S
Mn1213 O1237 2.215 . S
Mn1213 O1239 2.117 . S
C1214 O1236 1.234 . S
C1214 O1237 1.283 . S
C1215 O1227 1.281 . S
C1215 O1228 1.236 . S
C1216 O1238 1.219 1_545 S
C1216 O1239 1.292 . S
O1217 Mn1212 2.095 . S
O1217 C1226 1.250 1_565 S
O1218 Mn1213 2.121 . S
O1218 C1226 1.258 . S
C1219 N1220 1.326 . S
C1219 C1223 1.460 . S
C1219 H1225 0.929 . S
N1220 Mn1213 2.257 . S
N1220 C1219 1.326 . S
N1220 C1224 1.362 . S
C1221 C1222 1.258 . S
C1221 C1224 1.431 . S
C1221 C1241 1.449 . S
C1222 C1221 1.258 . S
C1222 C1223 1.477 . S
C1222 H1242 0.931 . S
C1223 C1219 1.460 . S
C1223 C1222 1.477 . S
C1223 H1243 0.930 . S
C1224 N1220 1.362 . S
C1224 C1221 1.431 . S
C1224 C1234 1.476 . S
H1225 C1219 0.929 . S
C1226 O1217 1.250 1_545 S
C1226 O1218 1.258 . S
O1227 Mn1212 2.162 . S
O1227 C1215 1.281 . S
O1228 Mn1212 2.297 . S
O1228 C1215 1.236 . S
N1229 Mn1213 2.282 . S
N1229 C1230 1.328 . S
N1229 C1234 1.318 . S
C1230 N1229 1.328 . S
C1230 C1231 1.457 . S
C1230 H1235 0.929 . S
C1231 C1230 1.457 . S
C1231 C1232 1.291 . S
C1231 H1244 0.931 . S
C1232 C1231 1.291 . S
C1232 C1233 1.373 . S
C1232 H1245 0.929 . S
C1233 C1232 1.373 . S
C1233 C1234 1.396 . S
C1233 C1240 1.403 . S
C1234 C1224 1.476 . S
C1234 N1229 1.318 . S
C1234 C1233 1.396 . S
H1235 C1230 0.929 . S
O1236 Mn1212 2.385 1_545 S
O1236 C1214 1.234 . S
O1237 Mn1212 2.209 1_545 S
O1237 Mn1213 2.215 . S
O1237 C1214 1.283 . S
O1238 Mn1212 2.094 . S
O1238 C1216 1.219 1_565 S
O1239 Mn1213 2.117 . S
O1239 C1216 1.292 . S
C1240 C1233 1.403 . S
C1240 C1241 1.399 . S
C1240 H1246 0.929 . S
C1241 C1221 1.449 . S
C1241 C1240 1.399 . S
C1241 H1247 0.930 . S
H1242 C1222 0.931 . S
H1243 C1223 0.930 . S
H1244 C1231 0.931 . S
H1245 C1232 0.929 . S
H1246 C1240 0.929 . S
H1247 C1241 0.930 . S
Mn1248 O1253 2.095 . S
Mn1248 O1263 2.162 . S
Mn1248 O1264 2.297 . S
Mn1248 O1272 2.385 1_455 S
Mn1248 O1273 2.209 1_455 S
Mn1248 O1274 2.094 . S
Mn1249 O1254 2.121 . S
Mn1249 N1256 2.257 . S
Mn1249 N1265 2.282 . S
Mn1249 O1273 2.215 . S
Mn1249 O1275 2.117 . S
C1250 O1272 1.234 . S
C1250 O1273 1.283 . S
C1251 O1263 1.281 . S
C1251 O1264 1.236 . S
C1252 O1274 1.240 . S
C1252 O1275 1.264 1_455 S
O1253 Mn1248 2.095 . S
O1253 C1262 1.250 1_455 S
O1254 Mn1249 2.121 . S
O1254 C1262 1.258 . S
C1255 N1256 1.326 . S
C1255 C1259 1.460 . S
C1255 H1261 0.929 . S
N1256 Mn1249 2.257 . S
N1256 C1255 1.326 . S
N1256 C1260 1.362 . S
C1257 C1258 1.258 . S
C1257 C1260 1.431 . S
C1257 C1277 1.449 . S
C1258 C1257 1.258 . S
C1258 C1259 1.477 . S
C1258 H1278 0.931 . S
C1259 C1255 1.460 . S
C1259 C1258 1.477 . S
C1259 H1279 0.930 . S
C1260 N1256 1.362 . S
C1260 C1257 1.431 . S
C1260 C1270 1.476 . S
H1261 C1255 0.929 . S
C1262 O1253 1.250 1_655 S
C1262 O1254 1.258 . S
O1263 Mn1248 2.162 . S
O1263 C1251 1.281 . S
O1264 Mn1248 2.297 . S
O1264 C1251 1.236 . S
N1265 Mn1249 2.282 . S
N1265 C1266 1.328 . S
N1265 C1270 1.318 . S
C1266 N1265 1.328 . S
C1266 C1267 1.457 . S
C1266 H1271 0.929 . S
C1267 C1266 1.457 . S
C1267 C1268 1.291 . S
C1267 H1280 0.931 . S
C1268 C1267 1.291 . S
C1268 C1269 1.373 . S
C1268 H1281 0.929 . S
C1269 C1268 1.373 . S
C1269 C1270 1.396 . S
C1269 C1276 1.403 . S
C1270 C1260 1.476 . S
C1270 N1265 1.318 . S
C1270 C1269 1.396 . S
H1271 C1266 0.929 . S
O1272 Mn1248 2.385 1_655 S
O1272 C1250 1.234 . S
O1273 Mn1248 2.209 1_655 S
O1273 Mn1249 2.215 . S
O1273 C1250 1.283 . S
O1274 Mn1248 2.094 . S
O1274 C1252 1.240 . S
O1275 Mn1249 2.117 . S
O1275 C1252 1.264 1_655 S
C1276 C1269 1.403 . S
C1276 C1277 1.399 . S
C1276 H1282 0.929 . S
C1277 C1257 1.449 . S
C1277 C1276 1.399 . S
C1277 H1283 0.930 . S
H1278 C1258 0.931 . S
H1279 C1259 0.930 . S
H1280 C1267 0.931 . S
H1281 C1268 0.929 . S
H1282 C1276 0.929 . S
H1283 C1277 0.930 . S
Mn1284 O1289 2.095 . S
Mn1284 O1299 2.162 . S
Mn1284 O1300 2.297 . S
Mn1284 O1308 2.385 . S
Mn1284 O1309 2.209 . S
Mn1284 O1310 2.094 . S
Mn1285 O1290 2.121 . S
Mn1285 N1292 2.257 . S
Mn1285 N1301 2.282 . S
Mn1285 O1309 2.215 . S
Mn1285 O1311 2.117 . S
C1286 O1308 1.234 . S
C1286 O1309 1.283 . S
C1287 O1299 1.281 . S
C1287 O1300 1.236 . S
C1288 O1310 1.240 . S
C1288 O1311 1.264 . S
O1289 Mn1284 2.095 . S
O1289 C1298 1.250 . S
O1290 Mn1285 2.121 . S
O1290 C1298 1.258 . S
C1291 N1292 1.326 . S
C1291 C1295 1.460 . S
C1291 H1297 0.929 . S
N1292 Mn1285 2.257 . S
N1292 C1291 1.326 . S
N1292 C1296 1.362 . S
C1293 C1294 1.258 . S
C1293 C1296 1.431 . S
C1293 C1313 1.449 . S
C1294 C1293 1.258 . S
C1294 C1295 1.477 . S
C1294 H1314 0.931 . S
C1295 C1291 1.460 . S
C1295 C1294 1.477 . S
C1295 H1315 0.930 . S
C1296 N1292 1.362 . S
C1296 C1293 1.431 . S
C1296 C1306 1.476 . S
H1297 C1291 0.929 . S
C1298 O1289 1.250 . S
C1298 O1290 1.258 . S
O1299 Mn1284 2.162 . S
O1299 C1287 1.281 . S
O1300 Mn1284 2.297 . S
O1300 C1287 1.236 . S
N1301 Mn1285 2.282 . S
N1301 C1302 1.328 . S
N1301 C1306 1.318 . S
C1302 N1301 1.328 . S
C1302 C1303 1.457 . S
C1302 H1307 0.929 . S
C1303 C1302 1.457 . S
C1303 C1304 1.291 . S
C1303 H1316 0.931 . S
C1304 C1303 1.291 . S
C1304 C1305 1.373 . S
C1304 H1317 0.929 . S
C1305 C1304 1.373 . S
C1305 C1306 1.396 . S
C1305 C1312 1.403 . S
C1306 C1296 1.476 . S
C1306 N1301 1.318 . S
C1306 C1305 1.396 . S
H1307 C1302 0.929 . S
O1308 Mn1284 2.385 . S
O1308 C1286 1.234 . S
O1309 Mn1284 2.209 . S
O1309 Mn1285 2.215 . S
O1309 C1286 1.283 . S
O1310 Mn1284 2.094 . S
O1310 C1288 1.240 . S
O1311 Mn1285 2.117 . S
O1311 C1288 1.264 . S
C1312 C1305 1.403 . S
C1312 C1313 1.399 . S
C1312 H1318 0.929 . S
C1313 C1293 1.449 . S
C1313 C1312 1.399 . S
C1313 H1319 0.930 . S
H1314 C1294 0.931 . S
H1315 C1295 0.930 . S
H1316 C1303 0.931 . S
H1317 C1304 0.929 . S
H1318 C1312 0.929 . S
H1319 C1313 0.930 . S
Mn1320 O1325 2.095 1_455 S
Mn1320 O1335 2.162 . S
Mn1320 O1336 2.297 1_455 S
Mn1320 O1344 2.385 . S
Mn1320 O1345 2.209 1_455 S
Mn1320 O1346 2.094 . S
Mn1321 O1326 2.121 . S
Mn1321 N1328 2.257 . S
Mn1321 N1337 2.282 1_655 S
Mn1321 O1345 2.215 . S
Mn1321 O1347 2.117 1_655 S
C1322 O1344 1.234 . S
C1322 O1345 1.283 1_455 S
C1323 O1335 1.281 . S
C1323 O1336 1.236 1_455 S
C1324 O1346 1.240 . S
C1324 O1347 1.264 . S
O1325 Mn1320 2.095 1_655 S
O1325 C1334 1.250 . S
O1326 Mn1321 2.121 . S
O1326 C1334 1.258 . S
C1327 N1328 1.326 . S
C1327 C1331 1.460 . S
C1327 H1333 0.929 . S
N1328 Mn1321 2.257 . S
N1328 C1327 1.326 . S
N1328 C1332 1.362 . S
C1329 C1330 1.258 . S
C1329 C1332 1.431 . S
C1329 C1349 1.449 . S
C1330 C1329 1.258 . S
C1330 C1331 1.477 . S
C1330 H1350 0.931 . S
C1331 C1327 1.460 . S
C1331 C1330 1.477 . S
C1331 H1351 0.930 . S
C1332 N1328 1.362 . S
C1332 C1329 1.431 . S
C1332 C1342 1.476 . S
H1333 C1327 0.929 . S
C1334 O1325 1.250 . S
C1334 O1326 1.258 . S
O1335 Mn1320 2.162 . S
O1335 C1323 1.281 . S
O1336 Mn1320 2.297 1_655 S
O1336 C1323 1.236 1_655 S
N1337 Mn1321 2.282 1_455 S
N1337 C1338 1.328 . S
N1337 C1342 1.318 1_455 S
C1338 N1337 1.328 . S
C1338 C1339 1.457 . S
C1338 H1343 0.929 . S
C1339 C1338 1.457 . S
C1339 C1340 1.291 . S
C1339 H1352 0.931 . S
C1340 C1339 1.291 . S
C1340 C1341 1.373 1_455 S
C1340 H1353 0.929 . S
C1341 C1340 1.373 1_655 S
C1341 C1342 1.396 . S
C1341 C1348 1.403 . S
C1342 C1332 1.476 . S
C1342 N1337 1.318 1_655 S
C1342 C1341 1.396 . S
H1343 C1338 0.929 . S
O1344 Mn1320 2.385 . S
O1344 C1322 1.234 . S
O1345 Mn1320 2.209 1_655 S
O1345 Mn1321 2.215 . S
O1345 C1322 1.283 1_655 S
O1346 Mn1320 2.094 . S
O1346 C1324 1.240 . S
O1347 Mn1321 2.117 1_455 S
O1347 C1324 1.264 . S
C1348 C1341 1.403 . S
C1348 C1349 1.399 . S
C1348 H1354 0.929 . S
C1349 C1329 1.449 . S
C1349 C1348 1.399 . S
C1349 H1355 0.930 . S
H1350 C1330 0.931 . S
H1351 C1331 0.930 . S
H1352 C1339 0.931 . S
H1353 C1340 0.929 . S
H1354 C1348 0.929 . S
H1355 C1349 0.930 . S
Mn1356 O1361 2.095 . S
Mn1356 O1371 2.162 . S
Mn1356 O1372 2.297 . S
Mn1356 O1380 2.385 . S
Mn1356 O1381 2.209 . S
Mn1356 O1382 2.094 . S
Mn1357 O1362 2.121 . S
Mn1357 N1364 2.257 . S
Mn1357 N1373 2.282 . S
Mn1357 O1381 2.215 . S
Mn1357 O1383 2.117 . S
C1358 O1380 1.234 . S
C1358 O1381 1.283 . S
C1359 O1371 1.281 . S
C1359 O1372 1.236 . S
C1360 O1382 1.240 . S
C1360 O1383 1.264 . S
O1361 Mn1356 2.095 . S
O1361 C1370 1.250 . S
O1362 Mn1357 2.121 . S
O1362 C1370 1.258 . S
C1363 N1364 1.326 . S
C1363 C1367 1.460 . S
C1363 H1369 0.929 . S
N1364 Mn1357 2.257 . S
N1364 C1363 1.326 . S
N1364 C1368 1.362 . S
C1365 C1366 1.258 . S
C1365 C1368 1.431 . S
C1365 C1385 1.449 . S
C1366 C1365 1.258 . S
C1366 C1367 1.477 . S
C1366 H1386 0.931 . S
C1367 C1363 1.460 . S
C1367 C1366 1.477 . S
C1367 H1387 0.930 . S
C1368 N1364 1.362 . S
C1368 C1365 1.431 . S
C1368 C1378 1.476 . S
H1369 C1363 0.929 . S
C1370 O1361 1.250 . S
C1370 O1362 1.258 . S
O1371 Mn1356 2.162 . S
O1371 C1359 1.281 . S
O1372 Mn1356 2.297 . S
O1372 C1359 1.236 . S
N1373 Mn1357 2.282 . S
N1373 C1374 1.328 . S
N1373 C1378 1.318 . S
C1374 N1373 1.328 . S
C1374 C1375 1.457 . S
C1374 H1379 0.929 . S
C1375 C1374 1.457 . S
C1375 C1376 1.291 . S
C1375 H1388 0.931 . S
C1376 C1375 1.291 . S
C1376 C1377 1.373 . S
C1376 H1389 0.929 . S
C1377 C1376 1.373 . S
C1377 C1378 1.396 . S
C1377 C1384 1.403 . S
C1378 C1368 1.476 . S
C1378 N1373 1.318 . S
C1378 C1377 1.396 . S
H1379 C1374 0.929 . S
O1380 Mn1356 2.385 . S
O1380 C1358 1.234 . S
O1381 Mn1356 2.209 . S
O1381 Mn1357 2.215 . S
O1381 C1358 1.283 . S
O1382 Mn1356 2.094 . S
O1382 C1360 1.240 . S
O1383 Mn1357 2.117 . S
O1383 C1360 1.264 . S
C1384 C1377 1.403 . S
C1384 C1385 1.399 . S
C1384 H1390 0.929 . S
C1385 C1365 1.449 . S
C1385 C1384 1.399 . S
C1385 H1391 0.930 . S
H1386 C1366 0.931 . S
H1387 C1367 0.930 . S
H1388 C1375 0.931 . S
H1389 C1376 0.929 . S
H1390 C1384 0.929 . S
H1391 C1385 0.930 . S
C1392 C1393 1.387 . S
C1392 H1396 0.950 . S
C1392 C1401 1.390 . S
C1393 C1392 1.387 . S
C1393 C1395 1.387 . S
H1394 C1401 0.950 . S
C1395 C1393 1.387 . S
C1395 C1397 1.390 . S
C1395 H1399 0.950 . S
H1396 C1392 0.950 . S
C1397 C1395 1.390 . S
C1397 C1398 1.387 . S
C1397 H1400 0.950 . S
C1398 C1397 1.387 . S
C1398 C1401 1.387 . S
H1399 C1395 0.950 . S
H1400 C1397 0.950 . S
C1401 C1392 1.390 . S
C1401 H1394 0.950 . S
C1401 C1398 1.387 . S
C1402 C1403 1.387 . S
C1402 H1406 0.950 . S
C1402 C1411 1.390 . S
C1403 C1402 1.387 . S
C1403 C1405 1.387 . S
H1404 C1411 0.950 . S
C1405 C1403 1.387 . S
C1405 C1407 1.390 . S
C1405 H1409 0.950 . S
H1406 C1402 0.950 . S
C1407 C1405 1.390 . S
C1407 C1408 1.387 . S
C1407 H1410 0.950 . S
C1408 C1407 1.387 . S
C1408 C1411 1.387 . S
H1409 C1405 0.950 . S
H1410 C1407 0.950 . S
C1411 C1402 1.390 . S
C1411 H1404 0.950 . S
C1411 C1408 1.387 . S
C1412 C1413 1.387 . S
C1412 H1416 0.950 . S
C1412 C1421 1.390 . S
C1413 C1412 1.387 . S
C1413 C1415 1.387 . S
H1414 C1421 0.950 . S
C1415 C1413 1.387 . S
C1415 C1417 1.390 . S
C1415 H1419 0.950 . S
H1416 C1412 0.950 . S
C1417 C1415 1.390 . S
C1417 C1418 1.387 . S
C1417 H1420 0.950 . S
C1418 C1417 1.387 . S
C1418 C1421 1.387 . S
H1419 C1415 0.950 . S
H1420 C1417 0.950 . S
C1421 C1412 1.390 . S
C1421 H1414 0.950 . S
C1421 C1418 1.387 . S
C1422 C1423 1.387 1_545 S
C1422 H1426 0.950 . S
C1422 C1431 1.390 . S
C1423 C1422 1.387 1_565 S
C1423 C1425 1.387 . S
H1424 C1431 0.950 . S
C1425 C1423 1.387 . S
C1425 C1427 1.390 . S
C1425 H1429 0.950 . S
H1426 C1422 0.950 . S
C1427 C1425 1.390 . S
C1427 C1428 1.387 . S
C1427 H1430 0.950 . S
C1428 C1427 1.387 . S
C1428 C1431 1.387 1_565 S
H1429 C1425 0.950 . S
H1430 C1427 0.950 . S
C1431 C1422 1.390 . S
C1431 H1424 0.950 . S
C1431 C1428 1.387 1_545 S
C1432 C1433 1.387 . S
C1432 H1436 0.950 . S
C1432 C1441 1.390 . S
C1433 C1432 1.387 . S
C1433 C1435 1.387 . S
H1434 C1441 0.950 . S
C1435 C1433 1.387 . S
C1435 C1437 1.390 . S
C1435 H1439 0.950 . S
H1436 C1432 0.950 . S
C1437 C1435 1.390 . S
C1437 C1438 1.387 . S
C1437 H1440 0.950 . S
C1438 C1437 1.387 . S
C1438 C1441 1.387 . S
H1439 C1435 0.950 . S
H1440 C1437 0.950 . S
C1441 C1432 1.390 . S
C1441 H1434 0.950 . S
C1441 C1438 1.387 . S
C1442 C1443 1.387 . S
C1442 H1446 0.950 . S
C1442 C1451 1.390 . S
C1443 C1442 1.387 . S
C1443 C1445 1.387 . S
H1444 C1451 0.950 . S
C1445 C1443 1.387 . S
C1445 C1447 1.390 . S
C1445 H1449 0.950 . S
H1446 C1442 0.950 . S
C1447 C1445 1.390 . S
C1447 C1448 1.387 . S
C1447 H1450 0.950 . S
C1448 C1447 1.387 . S
C1448 C1451 1.387 . S
H1449 C1445 0.950 . S
H1450 C1447 0.950 . S
C1451 C1442 1.390 . S
C1451 H1444 0.950 . S
C1451 C1448 1.387 . S
C1452 C1453 1.387 . S
C1452 H1456 0.950 . S
C1452 C1461 1.390 . S
C1453 C1452 1.387 . S
C1453 C1455 1.387 . S
H1454 C1461 0.950 . S
C1455 C1453 1.387 . S
C1455 C1457 1.390 . S
C1455 H1459 0.950 . S
H1456 C1452 0.950 . S
C1457 C1455 1.390 . S
C1457 C1458 1.387 . S
C1457 H1460 0.950 . S
C1458 C1457 1.387 . S
C1458 C1461 1.387 . S
H1459 C1455 0.950 . S
H1460 C1457 0.950 . S
C1461 C1452 1.390 . S
C1461 H1454 0.950 . S
C1461 C1458 1.387 . S
C1462 C1463 1.387 1_545 S
C1462 H1466 0.950 . S
C1462 C1471 1.390 . S
C1463 C1462 1.387 1_565 S
C1463 C1465 1.387 . S
H1464 C1471 0.950 . S
C1465 C1463 1.387 . S
C1465 C1467 1.390 . S
C1465 H1469 0.950 . S
H1466 C1462 0.950 . S
C1467 C1465 1.390 . S
C1467 C1468 1.387 . S
C1467 H1470 0.950 . S
C1468 C1467 1.387 . S
C1468 C1471 1.387 1_565 S
H1469 C1465 0.950 . S
H1470 C1467 0.950 . S
C1471 C1462 1.390 . S
C1471 H1464 0.950 . S
C1471 C1468 1.387 1_545 S
C1472 C1473 1.387 . S
C1472 H1476 0.950 . S
C1472 C1481 1.390 . S
C1473 C1472 1.387 . S
C1473 C1475 1.387 . S
H1474 C1481 0.950 . S
C1475 C1473 1.387 . S
C1475 C1477 1.390 . S
C1475 H1479 0.950 . S
H1476 C1472 0.950 . S
C1477 C1475 1.390 . S
C1477 C1478 1.387 . S
C1477 H1480 0.950 . S
C1478 C1477 1.387 . S
C1478 C1481 1.387 . S
H1479 C1475 0.950 . S
H1480 C1477 0.950 . S
C1481 C1472 1.390 . S
C1481 H1474 0.950 . S
C1481 C1478 1.387 . S
C1482 C1483 1.387 . S
C1482 H1486 0.950 . S
C1482 C1491 1.390 . S
C1483 C1482 1.387 . S
C1483 C1485 1.387 . S
H1484 C1491 0.950 . S
C1485 C1483 1.387 . S
C1485 C1487 1.390 . S
C1485 H1489 0.950 . S
H1486 C1482 0.950 . S
C1487 C1485 1.390 . S
C1487 C1488 1.387 . S
C1487 H1490 0.950 . S
C1488 C1487 1.387 . S
C1488 C1491 1.387 . S
H1489 C1485 0.950 . S
H1490 C1487 0.950 . S
C1491 C1482 1.390 . S
C1491 H1484 0.950 . S
C1491 C1488 1.387 . S
C1492 C1493 1.387 . S
C1492 H1496 0.950 . S
C1492 C1501 1.390 . S
C1493 C1492 1.387 . S
C1493 C1495 1.387 . S
H1494 C1501 0.950 . S
C1495 C1493 1.387 . S
C1495 C1497 1.390 . S
C1495 H1499 0.950 . S
H1496 C1492 0.950 . S
C1497 C1495 1.390 . S
C1497 C1498 1.387 . S
C1497 H1500 0.950 . S
C1498 C1497 1.387 . S
C1498 C1501 1.387 . S
H1499 C1495 0.950 . S
H1500 C1497 0.950 . S
C1501 C1492 1.390 . S
C1501 H1494 0.950 . S
C1501 C1498 1.387 . S
C1502 C1503 1.387 . S
C1502 H1506 0.950 . S
C1502 C1511 1.390 . S
C1503 C1502 1.387 . S
C1503 C1505 1.387 . S
H1504 C1511 0.950 . S
C1505 C1503 1.387 . S
C1505 C1507 1.390 . S
C1505 H1509 0.950 . S
H1506 C1502 0.950 . S
C1507 C1505 1.390 . S
C1507 C1508 1.387 . S
C1507 H1510 0.950 . S
C1508 C1507 1.387 . S
C1508 C1511 1.387 . S
H1509 C1505 0.950 . S
H1510 C1507 0.950 . S
C1511 C1502 1.390 . S
C1511 H1504 0.950 . S
C1511 C1508 1.387 . S
C1512 C1513 1.387 . S
C1512 H1516 0.950 . S
C1512 C1521 1.390 . S
C1513 C1512 1.387 . S
C1513 C1515 1.387 . S
H1514 C1521 0.950 . S
C1515 C1513 1.387 . S
C1515 C1517 1.390 . S
C1515 H1519 0.950 . S
H1516 C1512 0.950 . S
C1517 C1515 1.390 . S
C1517 C1518 1.387 . S
C1517 H1520 0.950 . S
C1518 C1517 1.387 . S
C1518 C1521 1.387 . S
H1519 C1515 0.950 . S
H1520 C1517 0.950 . S
C1521 C1512 1.390 . S
C1521 H1514 0.950 . S
C1521 C1518 1.387 . S
C1522 C1523 1.387 . S
C1522 H1526 0.950 . S
C1522 C1531 1.390 . S
C1523 C1522 1.387 . S
C1523 C1525 1.387 1_455 S
H1524 C1531 0.950 . S
C1525 C1523 1.387 1_655 S
C1525 C1527 1.390 . S
C1525 H1529 0.950 . S
H1526 C1522 0.950 . S
C1527 C1525 1.390 . S
C1527 C1528 1.387 1_655 S
C1527 H1530 0.950 . S
C1528 C1527 1.387 1_455 S
C1528 C1531 1.387 . S
H1529 C1525 0.950 . S
H1530 C1527 0.950 . S
C1531 C1522 1.390 . S
C1531 H1524 0.950 . S
C1531 C1528 1.387 . S
C1532 C1533 1.387 . S
C1532 H1536 0.950 . S
C1532 C1541 1.390 . S
C1533 C1532 1.387 . S
C1533 C1535 1.387 . S
H1534 C1541 0.950 . S
C1535 C1533 1.387 . S
C1535 C1537 1.390 . S
C1535 H1539 0.950 . S
H1536 C1532 0.950 . S
C1537 C1535 1.390 . S
C1537 C1538 1.387 . S
C1537 H1540 0.950 . S
C1538 C1537 1.387 . S
C1538 C1541 1.387 . S
H1539 C1535 0.950 . S
H1540 C1537 0.950 . S
C1541 C1532 1.390 . S
C1541 H1534 0.950 . S
C1541 C1538 1.387 . S
C1542 C1543 1.387 1_455 S
C1542 H1546 0.950 . S
C1542 C1551 1.390 . S
C1543 C1542 1.387 1_655 S
C1543 C1545 1.387 . S
H1544 C1551 0.950 . S
C1545 C1543 1.387 . S
C1545 C1547 1.390 . S
C1545 H1549 0.950 . S
H1546 C1542 0.950 . S
C1547 C1545 1.390 . S
C1547 C1548 1.429 . S
C1547 H1550 0.950 . S
C1548 C1547 1.429 . S
C1548 C1551 1.350 1_655 S
H1549 C1545 0.950 . S
H1550 C1547 0.950 . S
C1551 C1542 1.390 . S
C1551 H1544 0.950 . S
C1551 C1548 1.350 1_455 S
C1552 C1553 1.387 . S
C1552 H1556 0.950 . S
C1552 C1561 1.390 . S
C1553 C1552 1.387 . S
C1553 C1555 1.387 . S
H1554 C1561 0.950 . S
C1555 C1553 1.387 . S
C1555 C1557 1.390 . S
C1555 H1559 0.950 . S
H1556 C1552 0.950 . S
C1557 C1555 1.390 . S
C1557 C1558 1.387 . S
C1557 H1560 0.950 . S
C1558 C1557 1.387 . S
C1558 C1561 1.387 . S
H1559 C1555 0.950 . S
H1560 C1557 0.950 . S
C1561 C1552 1.390 . S
C1561 H1554 0.950 . S
C1561 C1558 1.387 . S
C1562 C1563 1.387 . S
C1562 H1566 0.950 . S
C1562 C1571 1.390 . S
C1563 C1562 1.387 . S
C1563 C1565 1.387 . S
H1564 C1571 0.950 . S
C1565 C1563 1.387 . S
C1565 C1567 1.390 . S
C1565 H1569 0.950 . S
H1566 C1562 0.950 . S
C1567 C1565 1.390 . S
C1567 C1568 1.387 . S
C1567 H1570 0.950 . S
C1568 C1567 1.387 . S
C1568 C1571 1.387 . S
H1569 C1565 0.950 . S
H1570 C1567 0.950 . S
C1571 C1562 1.390 . S
C1571 H1564 0.950 . S
C1571 C1568 1.387 . S
C1572 C1573 1.387 . S
C1572 H1576 0.950 . S
C1572 C1581 1.390 . S
C1573 C1572 1.387 . S
C1573 C1575 1.387 1_556 S
H1574 C1581 0.950 . S
C1575 C1573 1.387 1_554 S
C1575 C1577 1.390 . S
C1575 H1579 0.950 . S
H1576 C1572 0.950 . S
C1577 C1575 1.390 . S
C1577 C1578 1.387 . S
C1577 H1580 0.950 . S
C1578 C1577 1.387 . S
C1578 C1581 1.387 1_554 S
H1579 C1575 0.950 . S
H1580 C1577 0.950 . S
C1581 C1572 1.390 . S
C1581 H1574 0.950 . S
C1581 C1578 1.387 1_556 S
C1582 C1583 1.387 . S
C1582 H1586 0.950 . S
C1582 C1591 1.390 . S
C1583 C1582 1.387 . S
C1583 C1585 1.387 . S
H1584 C1591 0.950 . S
C1585 C1583 1.387 . S
C1585 C1587 1.390 . S
C1585 H1589 0.950 . S
H1586 C1582 0.950 . S
C1587 C1585 1.390 . S
C1587 C1588 1.387 . S
C1587 H1590 0.950 . S
C1588 C1587 1.387 . S
C1588 C1591 1.387 . S
H1589 C1585 0.950 . S
H1590 C1587 0.950 . S
C1591 C1582 1.390 . S
C1591 H1584 0.950 . S
C1591 C1588 1.387 . S
C1592 C1593 1.387 . S
C1592 H1596 0.950 . S
C1592 C1601 1.390 . S
C1593 C1592 1.387 . S
C1593 C1595 1.387 . S
H1594 C1601 0.950 . S
C1595 C1593 1.387 . S
C1595 C1597 1.390 . S
C1595 H1599 0.950 . S
H1596 C1592 0.950 . S
C1597 C1595 1.390 . S
C1597 C1598 1.387 . S
C1597 H1600 0.950 . S
C1598 C1597 1.387 . S
C1598 C1601 1.387 . S
H1599 C1595 0.950 . S
H1600 C1597 0.950 . S
C1601 C1592 1.390 . S
C1601 H1594 0.950 . S
C1601 C1598 1.387 . S
C1602 C1603 1.387 . S
C1602 H1606 0.950 . S
C1602 C1611 1.390 . S
C1603 C1602 1.387 . S
C1603 C1605 1.387 . S
H1604 C1611 0.950 . S
C1605 C1603 1.387 . S
C1605 C1607 1.390 . S
C1605 H1609 0.950 . S
H1606 C1602 0.950 . S
C1607 C1605 1.390 . S
C1607 C1608 1.387 . S
C1607 H1610 0.950 . S
C1608 C1607 1.387 . S
C1608 C1611 1.387 . S
H1609 C1605 0.950 . S
H1610 C1607 0.950 . S
C1611 C1602 1.390 . S
C1611 H1604 0.950 . S
C1611 C1608 1.387 . S
C1612 C1613 1.387 . S
C1612 H1616 0.950 . S
C1612 C1621 1.390 . S
C1613 C1612 1.387 . S
C1613 C1615 1.387 . S
H1614 C1621 0.950 . S
C1615 C1613 1.387 . S
C1615 C1617 1.390 . S
C1615 H1619 0.950 . S
H1616 C1612 0.950 . S
C1617 C1615 1.390 . S
C1617 C1618 1.387 . S
C1617 H1620 0.950 . S
C1618 C1617 1.387 . S
C1618 C1621 1.387 . S
H1619 C1615 0.950 . S
H1620 C1617 0.950 . S
C1621 C1612 1.390 . S
C1621 H1614 0.950 . S
C1621 C1618 1.387 . S
C1622 C1623 1.387 . S
C1622 H1626 0.950 . S
C1622 C1631 1.390 . S
C1623 C1622 1.387 . S
C1623 C1625 1.387 . S
H1624 C1631 0.950 . S
C1625 C1623 1.387 . S
C1625 C1627 1.390 . S
C1625 H1629 0.950 . S
H1626 C1622 0.950 . S
C1627 C1625 1.390 . S
C1627 C1628 1.387 . S
C1627 H1630 0.950 . S
C1628 C1627 1.387 . S
C1628 C1631 1.387 . S
H1629 C1625 0.950 . S
H1630 C1627 0.950 . S
C1631 C1622 1.390 . S
C1631 H1624 0.950 . S
C1631 C1628 1.387 . S
C1632 C1633 1.387 . S
C1632 H1636 0.950 . S
C1632 C1641 1.390 . S
C1633 C1632 1.387 . S
C1633 C1635 1.387 . S
H1634 C1641 0.950 . S
C1635 C1633 1.387 . S
C1635 C1637 1.390 . S
C1635 H1639 0.950 . S
H1636 C1632 0.950 . S
C1637 C1635 1.390 . S
C1637 C1638 1.387 . S
C1637 H1640 0.950 . S
C1638 C1637 1.387 . S
C1638 C1641 1.387 . S
H1639 C1635 0.950 . S
H1640 C1637 0.950 . S
C1641 C1632 1.390 . S
C1641 H1634 0.950 . S
C1641 C1638 1.387 . S
C1642 C1643 1.387 . S
C1642 H1646 0.950 . S
C1642 C1651 1.390 . S
C1643 C1642 1.387 . S
C1643 C1645 1.387 1_545 S
H1644 C1651 0.950 . S
C1645 C1643 1.387 1_565 S
C1645 C1647 1.390 . S
C1645 H1649 0.950 . S
H1646 C1642 0.950 . S
C1647 C1645 1.390 . S
C1647 C1648 1.387 1_565 S
C1647 H1650 0.950 . S
C1648 C1647 1.387 1_545 S
C1648 C1651 1.387 . S
H1649 C1645 0.950 . S
H1650 C1647 0.950 . S
C1651 C1642 1.390 . S
C1651 H1644 0.950 . S
C1651 C1648 1.387 . S
C1652 C1653 1.387 . S
C1652 H1656 0.950 . S
C1652 C1661 1.390 . S
C1653 C1652 1.387 . S
C1653 C1655 1.387 . S
H1654 C1661 0.950 . S
C1655 C1653 1.387 . S
C1655 C1657 1.390 . S
C1655 H1659 0.950 . S
H1656 C1652 0.950 . S
C1657 C1655 1.390 . S
C1657 C1658 1.387 . S
C1657 H1660 0.950 . S
C1658 C1657 1.387 . S
C1658 C1661 1.387 . S
H1659 C1655 0.950 . S
H1660 C1657 0.950 . S
C1661 C1652 1.390 . S
C1661 H1654 0.950 . S
C1661 C1658 1.387 . S
C1662 C1663 1.387 . S
C1662 H1666 0.950 . S
C1662 C1671 1.390 . S
C1663 C1662 1.387 . S
C1663 C1665 1.387 . S
H1664 C1671 0.950 . S
C1665 C1663 1.387 . S
C1665 C1667 1.390 . S
C1665 H1669 0.950 . S
H1666 C1662 0.950 . S
C1667 C1665 1.390 . S
C1667 C1668 1.387 . S
C1667 H1670 0.950 . S
C1668 C1667 1.387 . S
C1668 C1671 1.387 . S
H1669 C1665 0.950 . S
H1670 C1667 0.950 . S
C1671 C1662 1.390 . S
C1671 H1664 0.950 . S
C1671 C1668 1.387 . S
C1672 C1673 1.387 . S
C1672 H1676 0.950 . S
C1672 C1681 1.390 . S
C1673 C1672 1.387 . S
C1673 C1675 1.387 . S
H1674 C1681 0.950 . S
C1675 C1673 1.387 . S
C1675 C1677 1.390 . S
C1675 H1679 0.950 . S
H1676 C1672 0.950 . S
C1677 C1675 1.390 . S
C1677 C1678 1.387 . S
C1677 H1680 0.950 . S
C1678 C1677 1.387 . S
C1678 C1681 1.387 . S
H1679 C1675 0.950 . S
H1680 C1677 0.950 . S
C1681 C1672 1.390 . S
C1681 H1674 0.950 . S
C1681 C1678 1.387 . S
C1682 C1683 1.387 . S
C1682 H1686 0.950 . S
C1682 C1691 1.390 . S
C1683 C1682 1.387 . S
C1683 C1685 1.387 1_545 S
H1684 C1691 0.950 . S
C1685 C1683 1.387 1_565 S
C1685 C1687 1.390 . S
C1685 H1689 0.950 . S
H1686 C1682 0.950 . S
C1687 C1685 1.390 . S
C1687 C1688 1.387 1_565 S
C1687 H1690 0.950 . S
C1688 C1687 1.387 1_545 S
C1688 C1691 1.387 . S
H1689 C1685 0.950 . S
H1690 C1687 0.950 . S
C1691 C1682 1.390 . S
C1691 H1684 0.950 . S
C1691 C1688 1.387 . S
C1692 C1693 1.387 . S
C1692 H1696 0.950 . S
C1692 C1701 1.390 . S
C1693 C1692 1.387 . S
C1693 C1695 1.387 . S
H1694 C1701 0.950 . S
C1695 C1693 1.387 . S
C1695 C1697 1.390 . S
C1695 H1699 0.950 . S
H1696 C1692 0.950 . S
C1697 C1695 1.390 . S
C1697 C1698 1.387 . S
C1697 H1700 0.950 . S
C1698 C1697 1.387 . S
C1698 C1701 1.387 . S
H1699 C1695 0.950 . S
H1700 C1697 0.950 . S
C1701 C1692 1.390 . S
C1701 H1694 0.950 . S
C1701 C1698 1.387 . S
C1702 C1703 1.387 . S
C1702 H1706 0.950 . S
C1702 C1711 1.390 . S
C1703 C1702 1.387 . S
C1703 C1705 1.387 . S
H1704 C1711 0.950 . S
C1705 C1703 1.387 . S
C1705 C1707 1.390 . S
C1705 H1709 0.950 . S
H1706 C1702 0.950 . S
C1707 C1705 1.390 . S
C1707 C1708 1.387 . S
C1707 H1710 0.950 . S
C1708 C1707 1.387 . S
C1708 C1711 1.387 . S
H1709 C1705 0.950 . S
H1710 C1707 0.950 . S
C1711 C1702 1.390 . S
C1711 H1704 0.950 . S
C1711 C1708 1.387 . S
C1712 C1713 1.387 . S
C1712 H1716 0.950 . S
C1712 C1721 1.390 . S
C1713 C1712 1.387 . S
C1713 C1715 1.387 . S
H1714 C1721 0.950 . S
C1715 C1713 1.387 . S
C1715 C1717 1.390 . S
C1715 H1719 0.950 . S
H1716 C1712 0.950 . S
C1717 C1715 1.390 . S
C1717 C1718 1.387 . S
C1717 H1720 0.950 . S
C1718 C1717 1.387 . S
C1718 C1721 1.387 . S
H1719 C1715 0.950 . S
H1720 C1717 0.950 . S
C1721 C1712 1.390 . S
C1721 H1714 0.950 . S
C1721 C1718 1.387 . S
C1722 C1723 1.387 1_455 S
C1722 H1726 0.950 . S
C1722 C1731 1.390 . S
C1723 C1722 1.387 1_655 S
C1723 C1725 1.387 . S
H1724 C1731 0.950 . S
C1725 C1723 1.387 . S
C1725 C1727 1.390 . S
C1725 H1729 0.950 . S
H1726 C1722 0.950 . S
C1727 C1725 1.390 . S
C1727 C1728 1.387 . S
C1727 H1730 0.950 . S
C1728 C1727 1.387 . S
C1728 C1731 1.387 1_655 S
H1729 C1725 0.950 . S
H1730 C1727 0.950 . S
C1731 C1722 1.390 . S
C1731 H1724 0.950 . S
C1731 C1728 1.387 1_455 S
C1732 C1733 1.387 . S
C1732 H1736 0.950 . S
C1732 C1741 1.390 . S
C1733 C1732 1.387 . S
C1733 C1735 1.387 . S
H1734 C1741 0.950 . S
C1735 C1733 1.387 . S
C1735 C1737 1.390 . S
C1735 H1739 0.950 . S
H1736 C1732 0.950 . S
C1737 C1735 1.390 . S
C1737 C1738 1.387 . S
C1737 H1740 0.950 . S
C1738 C1737 1.387 . S
C1738 C1741 1.387 . S
H1739 C1735 0.950 . S
H1740 C1737 0.950 . S
C1741 C1732 1.390 . S
C1741 H1734 0.950 . S
C1741 C1738 1.387 . S
C1742 C1743 1.387 . S
C1742 H1746 0.950 1_455 S
C1742 C1751 1.385 1_455 S
C1743 C1742 1.387 . S
C1743 C1745 1.387 . S
H1744 C1751 0.969 . S
C1745 C1743 1.387 . S
C1745 C1747 1.390 . S
C1745 H1749 0.950 . S
H1746 C1742 0.950 1_655 S
C1747 C1745 1.390 . S
C1747 C1748 1.387 . S
C1747 H1750 0.950 . S
C1748 C1747 1.387 . S
C1748 C1751 1.375 1_455 S
H1749 C1745 0.950 . S
H1750 C1747 0.950 . S
C1751 C1742 1.385 1_655 S
C1751 H1744 0.969 . S
C1751 C1748 1.375 1_655 S
C1752 C1753 1.387 . S
C1752 H1756 0.950 . S
C1752 C1761 1.390 . S
C1753 C1752 1.387 . S
C1753 C1755 1.387 . S
H1754 C1761 0.950 . S
C1755 C1753 1.387 . S
C1755 C1757 1.390 . S
C1755 H1759 0.950 . S
H1756 C1752 0.950 . S
C1757 C1755 1.390 . S
C1757 C1758 1.387 . S
C1757 H1760 0.950 . S
C1758 C1757 1.387 . S
C1758 C1761 1.387 . S
H1759 C1755 0.950 . S
H1760 C1757 0.950 . S
C1761 C1752 1.390 . S
C1761 H1754 0.950 . S
C1761 C1758 1.387 . S
C1762 C1763 1.387 . S
C1762 H1766 0.950 . S
C1762 C1771 1.390 . S
C1763 C1762 1.387 . S
C1763 C1765 1.387 . S
H1764 C1771 0.950 . S
C1765 C1763 1.387 . S
C1765 C1767 1.390 . S
C1765 H1769 0.950 . S
H1766 C1762 0.950 . S
C1767 C1765 1.390 . S
C1767 C1768 1.387 . S
C1767 H1770 0.950 . S
C1768 C1767 1.387 . S
C1768 C1771 1.387 . S
H1769 C1765 0.950 . S
H1770 C1767 0.950 . S
C1771 C1762 1.390 . S
C1771 H1764 0.950 . S
C1771 C1768 1.387 . S
C1772 C1773 1.387 . S
C1772 H1776 0.950 . S
C1772 C1781 1.390 . S
C1773 C1772 1.387 . S
C1773 C1775 1.387 . S
H1774 C1781 0.950 . S
C1775 C1773 1.387 . S
C1775 C1777 1.390 . S
C1775 H1779 0.950 . S
H1776 C1772 0.950 . S
C1777 C1775 1.390 . S
C1777 C1778 1.387 . S
C1777 H1780 0.950 . S
C1778 C1777 1.387 . S
C1778 C1781 1.387 . S
H1779 C1775 0.950 . S
H1780 C1777 0.950 . S
C1781 C1772 1.390 . S
C1781 H1774 0.950 . S
C1781 C1778 1.387 . S
C1782 C1783 1.387 . S
C1782 H1786 0.950 . S
C1782 C1791 1.390 . S
C1783 C1782 1.387 . S
C1783 C1785 1.387 . S
H1784 C1791 0.950 . S
C1785 C1783 1.387 . S
C1785 C1787 1.390 . S
C1785 H1789 0.950 . S
H1786 C1782 0.950 . S
C1787 C1785 1.390 . S
C1787 C1788 1.387 . S
C1787 H1790 0.950 . S
C1788 C1787 1.387 . S
C1788 C1791 1.387 . S
H1789 C1785 0.950 . S
H1790 C1787 0.950 . S
C1791 C1782 1.390 . S
C1791 H1784 0.950 . S
C1791 C1788 1.387 . S
C1792 C1793 1.387 . S
C1792 H1796 0.950 . S
C1792 C1801 1.390 . S
C1793 C1792 1.387 . S
C1793 C1795 1.387 . S
H1794 C1801 0.950 . S
C1795 C1793 1.387 . S
C1795 C1797 1.390 . S
C1795 H1799 0.950 . S
H1796 C1792 0.950 . S
C1797 C1795 1.390 . S
C1797 C1798 1.387 . S
C1797 H1800 0.950 . S
C1798 C1797 1.387 . S
C1798 C1801 1.387 . S
H1799 C1795 0.950 . S
H1800 C1797 0.950 . S
C1801 C1792 1.390 . S
C1801 H1794 0.950 . S
C1801 C1798 1.387 . S
C1802 C1803 1.387 . S
C1802 H1806 0.950 . S
C1802 C1811 1.390 . S
C1803 C1802 1.387 . S
C1803 C1805 1.387 . S
H1804 C1811 0.950 . S
C1805 C1803 1.387 . S
C1805 C1807 1.390 . S
C1805 H1809 0.950 . S
H1806 C1802 0.950 . S
C1807 C1805 1.390 . S
C1807 C1808 1.387 . S
C1807 H1810 0.950 . S
C1808 C1807 1.387 . S
C1808 C1811 1.387 . S
H1809 C1805 0.950 . S
H1810 C1807 0.950 . S
C1811 C1802 1.390 . S
C1811 H1804 0.950 . S
C1811 C1808 1.387 . S
C1812 C1813 1.387 . S
C1812 H1816 0.950 . S
C1812 C1821 1.390 . S
C1813 C1812 1.387 . S
C1813 C1815 1.387 . S
H1814 C1821 0.950 . S
C1815 C1813 1.387 . S
C1815 C1817 1.390 . S
C1815 H1819 0.950 . S
H1816 C1812 0.950 . S
C1817 C1815 1.390 . S
C1817 C1818 1.387 . S
C1817 H1820 0.950 . S
C1818 C1817 1.387 . S
C1818 C1821 1.387 . S
H1819 C1815 0.950 . S
H1820 C1817 0.950 . S
C1821 C1812 1.390 . S
C1821 H1814 0.950 . S
C1821 C1818 1.387 . S
C1822 C1823 1.387 . S
C1822 H1826 0.950 . S
C1822 C1831 1.390 . S
C1823 C1822 1.387 . S
C1823 C1825 1.387 . S
H1824 C1831 0.950 . S
C1825 C1823 1.387 . S
C1825 C1827 1.390 . S
C1825 H1829 0.950 . S
H1826 C1822 0.950 . S
C1827 C1825 1.390 . S
C1827 C1828 1.387 . S
C1827 H1830 0.950 . S
C1828 C1827 1.387 . S
C1828 C1831 1.387 . S
H1829 C1825 0.950 . S
H1830 C1827 0.950 . S
C1831 C1822 1.390 . S
C1831 H1824 0.950 . S
C1831 C1828 1.387 . S
C1832 C1833 1.387 . S
C1832 H1836 0.950 . S
C1832 C1841 1.390 . S
C1833 C1832 1.387 . S
C1833 C1835 1.387 1_556 S
H1834 C1841 0.950 . S
C1835 C1833 1.387 1_554 S
C1835 C1837 1.390 . S
C1835 H1839 0.950 . S
H1836 C1832 0.950 . S
C1837 C1835 1.390 . S
C1837 C1838 1.387 1_554 S
C1837 H1840 0.950 . S
C1838 C1837 1.387 1_556 S
C1838 C1841 1.387 . S
H1839 C1835 0.950 . S
H1840 C1837 0.950 . S
C1841 C1832 1.390 . S
C1841 H1834 0.950 . S
C1841 C1838 1.387 . S
C1842 C1843 1.387 . S
C1842 H1846 0.950 . S
C1842 C1851 1.390 . S
C1843 C1842 1.387 . S
C1843 C1845 1.387 . S
H1844 C1851 0.950 . S
C1845 C1843 1.387 . S
C1845 C1847 1.390 . S
C1845 H1849 0.950 . S
H1846 C1842 0.950 . S
C1847 C1845 1.390 . S
C1847 C1848 1.387 . S
C1847 H1850 0.950 . S
C1848 C1847 1.387 . S
C1848 C1851 1.387 . S
H1849 C1845 0.950 . S
H1850 C1847 0.950 . S
C1851 C1842 1.390 . S
C1851 H1844 0.950 . S
C1851 C1848 1.387 . S
C1852 C1853 1.387 1_556 S
C1852 H1856 0.950 . S
C1852 C1861 1.390 . S
C1853 C1852 1.387 1_554 S
C1853 C1855 1.387 . S
H1854 C1861 0.950 . S
C1855 C1853 1.387 . S
C1855 C1857 1.390 . S
C1855 H1859 0.950 . S
H1856 C1852 0.950 . S
C1857 C1855 1.390 . S
C1857 C1858 1.387 . S
C1857 H1860 0.950 . S
C1858 C1857 1.387 . S
C1858 C1861 1.387 1_554 S
H1859 C1855 0.950 . S
H1860 C1857 0.950 . S
C1861 C1852 1.390 . S
C1861 H1854 0.950 . S
C1861 C1858 1.387 1_556 S
C1862 C1863 1.387 . S
C1862 H1866 0.950 . S
C1862 C1871 1.390 . S
C1863 C1862 1.387 . S
C1863 C1865 1.387 1_554 S
H1864 C1871 0.950 . S
C1865 C1863 1.387 1_556 S
C1865 C1867 1.390 . S
C1865 H1869 0.950 . S
H1866 C1862 0.950 . S
C1867 C1865 1.390 . S
C1867 C1868 1.387 1_556 S
C1867 H1870 0.950 . S
C1868 C1867 1.387 1_554 S
C1868 C1871 1.387 . S
H1869 C1865 0.950 . S
H1870 C1867 0.950 . S
C1871 C1862 1.390 . S
C1871 H1864 0.950 . S
C1871 C1868 1.387 . S
C1398 C962 1.480 . S
C1393 C331 1.446 . S
C1408 C1010 1.605 . S
C1403 C380 1.637 . S
C1413 C421 1.426 . S
C1418 C1046 1.407 . S
C1428 C1082 1.554 . S
C1423 C260 1.562 . S
C1438 C1108 1.509 . S
C1433 C620 1.464 . S
C1448 C1144 1.566 . S
C1443 C740 1.548 . S
C1453 C680 1.514 . S
C1458 C1179 1.540 . S
C1468 C1216 1.584 1_565 S
C1463 C571 1.577 . S
C1473 C691 1.479 . S
C1478 C1250 1.470 . S
C1488 C1298 1.542 . S
C1483 C541 1.578 . S
C1493 C601 1.438 . S
C1498 C1251 1.507 . S
C1508 C1288 1.595 . S
C1503 C721 1.569 . S
C1513 C451 1.462 . S
C1518 C1334 1.438 . S
C1523 C241 1.570 . S
C1528 C1323 1.598 . S
C1533 C320 1.485 . S
C1538 C1324 1.524 . S
C1543 C391 1.609 . S
C1548 C1322 1.615 1_655 S
C1553 C211 1.459 . S
C1558 C1070 1.494 . S
C1563 C841 1.437 . S
C1568 C1071 1.497 . S
C1578 C974 1.580 . S
C1573 C901 1.614 . S
C1588 C999 1.503 . S
C1583 C500 1.462 . S
C1593 C271 1.570 . S
C1598 C1106 1.605 . S
C1608 C1214 1.502 . S
C1603 C661 1.509 . S
C1618 C1107 1.571 . S
C1613 C560 1.566 . S
C1628 C1180 1.594 . S
C1623 C751 1.581 . S
C1638 C1178 1.481 . S
C1633 C871 1.447 . S
C1643 C920 1.638 . S
C1648 C1226 1.607 . S
C1653 C481 1.426 . S
C1658 C1118 1.410 . S
C1668 C1154 1.556 . S
C1663 C800 1.560 . S
C1673 C200 1.464 . S
C1678 C1036 1.509 . S
C1688 C1072 1.566 . S
C1683 C20 1.548 . S
C1698 C963 1.539 . S
C1693 C80 1.514 . S
C1708 C1000 1.587 . S
C1703 C151 1.578 . S
C1713 C91 1.479 . S
C1718 C1286 1.470 . S
C1723 C121 1.578 . S
C1728 C1262 1.540 . S
C1733 C181 1.439 . S
C1738 C1287 1.507 . S
C1743 C1 1.569 . S
C1748 C1252 1.594 . S
C1758 C1370 1.439 . S
C1753 C511 1.461 . S
C1768 C1359 1.599 . S
C1763 C781 1.572 . S
C1778 C1360 1.524 . S
C1773 C860 1.485 . S
C1783 C931 1.611 . S
C1788 C1358 1.622 . S
C1793 C631 1.457 . S
C1798 C1142 1.492 . S
C1808 C1143 1.497 . S
C1803 C301 1.438 . S
C1818 C1190 1.577 . S
C1813 C361 1.614 . S
C1828 C1215 1.503 . S
C1823 C440 1.467 . S
C1833 C811 1.570 . S
C1838 C1034 1.605 1_556 S
C1848 C998 1.503 . S
C1843 C61 1.514 . S
C1853 C140 1.565 . S
C1858 C1035 1.572 . S
C1868 C964 1.593 . S
C1863 C31 1.580 . S
