# Generated by pormake.
# Topology ssa, (4,4)-cn, num edge types: 1
# Building blocks:
#     Node 0, Type 0, BuildingBlock: NAWXER_clean_sbu_0, # of connection points: 4
#     Node 1, Type 0, BuildingBlock: NAWXER_clean_sbu_0, # of connection points: 4
#     Node 2, Type 0, BuildingBlock: NAWXER_clean_sbu_0, # of connection points: 4
#     Node 3, Type 0, BuildingBlock: NAWXER_clean_sbu_0, # of connection points: 4
#     Node 4, Type 0, BuildingBlock: NAWXER_clean_sbu_0, # of connection points: 4
#     Node 5, Type 0, BuildingBlock: NAWXER_clean_sbu_0, # of connection points: 4
#     Node 6, Type 1, BuildingBlock: NAWXER_clean_linker_0, # of connection points: 4
#     Node 7, Type 1, BuildingBlock: NAWXER_clean_linker_0, # of connection points: 4
#     Node 8, Type 1, BuildingBlock: NAWXER_clean_linker_0, # of connection points: 4
#     Node 9, Type 1, BuildingBlock: NAWXER_clean_linker_0, # of connection points: 4
#     Node 10, Type 1, BuildingBlock: NAWXER_clean_linker_0, # of connection points: 4
#     Node 11, Type 1, BuildingBlock: NAWXER_clean_linker_0, # of connection points: 4
#     Edge 12, Type (0, 1), BuildingBlock: TEMPAE_clean_linker_10, # of connection points: 2
#     Edge 13, Type (0, 1), BuildingBlock: TEMPAE_clean_linker_10, # of connection points: 2
#     Edge 14, Type (0, 1), BuildingBlock: TEMPAE_clean_linker_10, # of connection points: 2
#     Edge 15, Type (0, 1), BuildingBlock: TEMPAE_clean_linker_10, # of connection points: 2
#     Edge 16, Type (0, 1), BuildingBlock: TEMPAE_clean_linker_10, # of connection points: 2
#     Edge 17, Type (0, 1), BuildingBlock: TEMPAE_clean_linker_10, # of connection points: 2
#     Edge 18, Type (0, 1), BuildingBlock: TEMPAE_clean_linker_10, # of connection points: 2
#     Edge 19, Type (0, 1), BuildingBlock: TEMPAE_clean_linker_10, # of connection points: 2
#     Edge 20, Type (0, 1), BuildingBlock: TEMPAE_clean_linker_10, # of connection points: 2
#     Edge 21, Type (0, 1), BuildingBlock: TEMPAE_clean_linker_10, # of connection points: 2
#     Edge 22, Type (0, 1), BuildingBlock: TEMPAE_clean_linker_10, # of connection points: 2
#     Edge 23, Type (0, 1), BuildingBlock: TEMPAE_clean_linker_10, # of connection points: 2
#     Edge 24, Type (0, 1), BuildingBlock: TEMPAE_clean_linker_10, # of connection points: 2
#     Edge 25, Type (0, 1), BuildingBlock: TEMPAE_clean_linker_10, # of connection points: 2
#     Edge 26, Type (0, 1), BuildingBlock: TEMPAE_clean_linker_10, # of connection points: 2
#     Edge 27, Type (0, 1), BuildingBlock: TEMPAE_clean_linker_10, # of connection points: 2
#     Edge 28, Type (0, 1), BuildingBlock: TEMPAE_clean_linker_10, # of connection points: 2
#     Edge 29, Type (0, 1), BuildingBlock: TEMPAE_clean_linker_10, # of connection points: 2
#     Edge 30, Type (0, 1), BuildingBlock: TEMPAE_clean_linker_10, # of connection points: 2
#     Edge 31, Type (0, 1), BuildingBlock: TEMPAE_clean_linker_10, # of connection points: 2
#     Edge 32, Type (0, 1), BuildingBlock: TEMPAE_clean_linker_10, # of connection points: 2
#     Edge 33, Type (0, 1), BuildingBlock: TEMPAE_clean_linker_10, # of connection points: 2
#     Edge 34, Type (0, 1), BuildingBlock: TEMPAE_clean_linker_10, # of connection points: 2
#     Edge 35, Type (0, 1), BuildingBlock: TEMPAE_clean_linker_10, # of connection points: 2
# Relax obj value: 0.014
# Max RMSD: 0.030
# Mean RMSD: 0.028
data_MOF--net-ssa--node1-NAWXER_clean_sbu_0--node2-NAWXER_clean_linker_0--edge1-TEMPAE_clean_linker_10
_symmetry_space_group_name_H-M    P1
_symmetry_Int_Tables_number       1
_symmetry_cell_setting            triclinic
loop_
_symmetry_equiv_pos_as_xyz
'x, y, z'
_cell_length_a     57.854737
_cell_length_b     57.863615
_cell_length_c     40.109311
_cell_angle_alpha  90.031077
_cell_angle_beta   90.048343
_cell_angle_gamma 120.01144
loop_
_atom_site_label
_atom_site_type_symbol
_atom_site_fract_x
_atom_site_fract_y
_atom_site_fract_z
_atom_type_partial_charge
C0 C 0.0401 0.54877 0.00669 0.0
C1 C 0.99439 0.46418 0.94641 0.0
O2 O 0.01732 0.5323 0.01925 0.0
Zn3 Zn 0.98516 0.49263 0.00982 0.0
O4 O 0.04816 0.54232 0.98071 0.0
Zn5 Zn 0.01765 0.50689 0.97549 0.0
O6 O 0.98571 0.51375 0.96112 0.0
O7 O 0.95552 0.49827 0.0012 0.0
O8 O 0.0175 0.48376 0.94033 0.0
O9 O 0.98085 0.46541 0.97093 0.0
O10 O 0.98525 0.47336 0.04964 0.0
O11 O 0.02148 0.4878 0.01885 0.0
C12 C 0.9633 0.5095 0.97296 0.0
C13 C 0.00815 0.4759 0.04499 0.0
C14 C 0.50289 0.04268 0.52559 0.0
C15 C 0.54558 0.00197 0.46258 0.0
O16 O 0.49915 0.02076 0.53836 0.0
Zn17 Zn 0.50867 0.99021 0.52742 0.0
O18 O 0.51542 0.05077 0.49816 0.0
Zn19 Zn 0.52362 0.02241 0.49247 0.0
O20 O 0.48608 0.98886 0.47953 0.0
O21 O 0.47419 0.95861 0.51907 0.0
O22 O 0.54558 0.02337 0.45532 0.0
O23 O 0.53281 0.98849 0.48827 0.0
O24 O 0.5294 0.99187 0.56621 0.0
O25 O 0.54865 0.02815 0.53488 0.0
C26 C 0.46938 0.96586 0.49123 0.0
C27 C 0.54874 0.01531 0.5609 0.0
C28 C 0.45775 0.4643 0.95897 0.0
C29 C 0.4932 0.54685 0.02302 0.0
O30 O 0.45639 0.48498 0.9518 0.0
Zn31 Zn 0.47403 0.50534 0.99145 0.0
O32 O 0.46863 0.4635 0.98649 0.0
Zn33 Zn 0.48815 0.48902 0.02836 0.0
O34 O 0.46577 0.47016 0.06596 0.0
O35 O 0.44626 0.48415 0.0305 0.0
O36 O 0.49776 0.52955 0.03684 0.0
O37 O 0.47942 0.54093 0.99642 0.0
O38 O 0.51414 0.51288 0.98471 0.0
O39 O 0.52307 0.49263 0.02531 0.0
C40 C 0.44557 0.47194 0.05747 0.0
C41 C 0.53025 0.50687 0.99908 0.0
C42 C 0.02659 0.54038 0.48776 0.0
C43 C 0.97759 0.45939 0.55429 0.0
O44 O 0.03341 0.53531 0.51574 0.0
Zn45 Zn 0.00185 0.50083 0.52299 0.0
O46 O 0.00373 0.52383 0.47541 0.0
Zn47 Zn 0.96998 0.486 0.48758 0.0
O48 O 0.94125 0.49358 0.49403 0.0
O49 O 0.97137 0.51005 0.53406 0.0
O50 O 0.9649 0.45962 0.52816 0.0
O51 O 8e-05 0.47967 0.56126 0.0
O52 O 0.00407 0.47758 0.48276 0.0
O53 O 0.96919 0.46488 0.44964 0.0
C54 C 0.94938 0.5062 0.52141 0.0
C55 C 0.99076 0.46512 0.45672 0.0
C56 C 0.52732 0.00617 0.04449 0.0
C57 C 0.48823 0.04936 0.97959 0.0
O58 O 0.52762 0.0277 0.05193 0.0
Zn59 Zn 0.50783 0.02819 0.01307 0.0
O60 O 0.51543 0.99352 0.01787 0.0
Zn61 Zn 0.49343 0.99675 0.97701 0.0
O62 O 0.51571 0.99932 0.9393 0.0
O63 O 0.53504 0.03352 0.97384 0.0
O64 O 0.4837 0.02716 0.9668 0.0
O65 O 0.50175 0.05776 0.00631 0.0
O66 O 0.46892 0.99492 0.02295 0.0
O67 O 0.45907 0.96496 0.98319 0.0
C68 C 0.53598 0.02141 0.94755 0.0
C69 C 0.45282 0.9721 0.01011 0.0
C70 C 0.53515 0.54545 0.53707 0.0
C71 C 0.45089 0.50495 0.47584 0.0
O72 O 0.51453 0.54703 0.54393 0.0
Zn73 Zn 0.49324 0.52697 0.50584 0.0
O74 O 0.53557 0.53349 0.51035 0.0
Zn75 Zn 0.50962 0.51222 0.46955 0.0
O76 O 0.52792 0.53401 0.43112 0.0
O77 O 0.51177 0.55284 0.46445 0.0
O78 O 0.46858 0.50102 0.46191 0.0
O79 O 0.45677 0.51932 0.50191 0.0
O80 O 0.48845 0.48834 0.51567 0.0
O81 O 0.50665 0.47758 0.47446 0.0
C82 C 0.52416 0.55335 0.43774 0.0
C83 C 0.4944 0.47187 0.50224 0.0
C84 C 0.28682 0.44518 0.22445 0.0
C85 C 0.28516 0.42776 0.19884 0.0
C86 C 0.26387 0.44117 0.24097 0.0
C87 C 0.23885 0.41918 0.23304 0.0
C88 C 0.25992 0.40617 0.19036 0.0
C89 C 0.23703 0.40196 0.20727 0.0
C90 C 0.21438 0.4147 0.25036 0.0
C91 C 0.27068 0.41237 0.32516 0.0
C92 C 0.27745 0.43107 0.35095 0.0
C93 C 0.24862 0.40585 0.30474 0.0
C94 C 0.23375 0.41884 0.30898 0.0
C95 C 0.26158 0.44266 0.35666 0.0
C96 C 0.23997 0.43667 0.3358 0.0
C97 C 0.2121 0.41477 0.2856 0.0
C98 C 0.09923 0.39541 0.30122 0.0
C99 C 0.10452 0.41658 0.3229 0.0
C100 C 0.12021 0.39288 0.28804 0.0
C101 C 0.14678 0.41155 0.29621 0.0
C102 C 0.13108 0.43454 0.33208 0.0
C103 C 0.15199 0.43198 0.31895 0.0
C104 C 0.16934 0.41102 0.27974 0.0
C105 C 0.13371 0.44168 0.20673 0.0
C106 C 0.11412 0.42045 0.18774 0.0
C107 C 0.15291 0.43878 0.22426 0.0
C108 C 0.15312 0.41469 0.22303 0.0
C109 C 0.11489 0.39652 0.18576 0.0
C110 C 0.13438 0.39373 0.20316 0.0
C111 C 0.17172 0.41121 0.24479 0.0
H112 H 0.30588 0.46191 0.23185 0.0
H113 H 0.26572 0.45526 0.26004 0.0
H114 H 0.25775 0.39272 0.17025 0.0
H115 H 0.21785 0.38518 0.20027 0.0
H116 H 0.28263 0.40306 0.32064 0.0
H117 H 0.24365 0.39122 0.28515 0.0
H118 H 0.26654 0.45714 0.37648 0.0
H119 H 0.22869 0.44674 0.33994 0.0
H120 H 0.07896 0.38122 0.29384 0.0
H121 H 0.11573 0.37662 0.27104 0.0
H122 H 0.13571 0.45069 0.34936 0.0
H123 H 0.17233 0.44651 0.32572 0.0
H124 H 0.13427 0.46064 0.20811 0.0
H125 H 0.16736 0.45523 0.23937 0.0
H126 H 0.10007 0.37973 0.17148 0.0
H127 H 0.13421 0.37494 0.20213 0.0
N128 N 0.19403 0.41288 0.23131 0.0
N129 N 0.18967 0.41305 0.2988 0.0
C130 C 0.89672 0.27504 0.80855 0.0
C131 C 0.89113 0.28593 0.83656 0.0
C132 C 0.87634 0.25239 0.79293 0.0
C133 C 0.84986 0.24093 0.80431 0.0
C134 C 0.86516 0.27306 0.84971 0.0
C135 C 0.84466 0.25075 0.83366 0.0
C136 C 0.82732 0.2203 0.78439 0.0
C137 C 0.86445 0.2954 0.72513 0.0
C138 C 0.87674 0.29453 0.69531 0.0
C139 C 0.84761 0.272 0.74237 0.0
C140 C 0.84329 0.24722 0.73082 0.0
C141 C 0.87188 0.2696 0.68333 0.0
C142 C 0.85522 0.24615 0.70089 0.0
C143 C 0.82545 0.22248 0.7494 0.0
C144 C 0.7139 0.1441 0.7165 0.0
C145 C 0.71384 0.12347 0.69781 0.0
C146 C 0.73709 0.16322 0.73244 0.0
C147 C 0.76072 0.16221 0.72987 0.0
C148 C 0.73778 0.12282 0.69494 0.0
C149 C 0.76108 0.14216 0.71071 0.0
C150 C 0.78447 0.18123 0.74895 0.0
C151 C 0.72612 0.11449 0.81141 0.0
C152 C 0.71226 0.12366 0.83111 0.0
C153 C 0.75084 0.13264 0.79753 0.0
C154 C 0.76205 0.16016 0.80325 0.0
C155 C 0.72424 0.15107 0.83821 0.0
C156 C 0.74899 0.16913 0.82455 0.0
C157 C 0.78535 0.17997 0.784 0.0
H158 H 0.9167 0.28446 0.79827 0.0
H159 H 0.88107 0.24462 0.77101 0.0
H160 H 0.8604 0.28115 0.8713 0.0
H161 H 0.8245 0.24213 0.84315 0.0
H162 H 0.86787 0.3142 0.73528 0.0
H163 H 0.83796 0.27332 0.76485 0.0
H164 H 0.88058 0.26813 0.66009 0.0
H165 H 0.85176 0.22719 0.69121 0.0
H166 H 0.69607 0.14565 0.71865 0.0
H167 H 0.73654 0.17866 0.74712 0.0
H168 H 0.73842 0.10711 0.68102 0.0
H169 H 0.77917 0.14104 0.70873 0.0
H170 H 0.71735 0.09347 0.80565 0.0
H171 H 0.76074 0.12531 0.78132 0.0
H172 H 0.71419 0.1586 0.85381 0.0
H173 H 0.75727 0.19027 0.82922 0.0
N174 N 0.80679 0.19947 0.80051 0.0
N175 N 0.80434 0.20256 0.73288 0.0
C176 C 0.58303 0.72704 0.17212 0.0
C177 C 0.56279 0.71965 0.14828 0.0
C178 C 0.59073 0.74954 0.19214 0.0
C179 C 0.57758 0.76438 0.18937 0.0
C180 C 0.55064 0.73518 0.1442 0.0
C181 C 0.55793 0.75733 0.16464 0.0
C182 C 0.58364 0.78703 0.21203 0.0
C183 C 0.55465 0.71526 0.27883 0.0
C184 C 0.57578 0.71564 0.29676 0.0
C185 C 0.55815 0.73814 0.26264 0.0
C186 C 0.58276 0.76191 0.26419 0.0
C187 C 0.60043 0.73965 0.29829 0.0
C188 C 0.60378 0.76265 0.28244 0.0
C189 C 0.58637 0.78601 0.247 0.0
C190 C 0.56414 0.87086 0.29194 0.0
C191 C 0.58378 0.88532 0.31609 0.0
C192 C 0.56578 0.85201 0.27203 0.0
C193 C 0.58744 0.84761 0.27513 0.0
C194 C 0.60512 0.88034 0.31986 0.0
C195 C 0.60685 0.86152 0.2996 0.0
C196 C 0.5895 0.82848 0.25257 0.0
C197 C 0.60223 0.89967 0.19556 0.0
C198 C 0.58051 0.8939 0.17463 0.0
C199 C 0.60539 0.87899 0.20856 0.0
C200 C 0.5868 0.85227 0.20095 0.0
C201 C 0.56274 0.86723 0.16579 0.0
C202 C 0.56593 0.84663 0.17871 0.0
C203 C 0.58775 0.82995 0.21759 0.0
H204 H 0.59279 0.71536 0.17529 0.0
H205 H 0.60675 0.75512 0.20991 0.0
H206 H 0.53499 0.72972 0.12585 0.0
H207 H 0.54764 0.76853 0.1617 0.0
H208 H 0.5352 0.69742 0.27775 0.0
H209 H 0.54156 0.73734 0.24906 0.0
H210 H 0.61724 0.74066 0.31152 0.0
H211 H 0.6229 0.7809 0.28392 0.0
H212 H 0.54759 0.87432 0.28807 0.0
H213 H 0.5502 0.84105 0.25383 0.0
H214 H 0.62033 0.8908 0.33861 0.0
H215 H 0.62353 0.85814 0.30266 0.0
H216 H 0.6163 0.92005 0.20263 0.0
H217 H 0.62195 0.88382 0.22523 0.0
H218 H 0.54618 0.86225 0.14906 0.0
H219 H 0.55146 0.82619 0.17231 0.0
N220 N 0.58452 0.80905 0.19874 0.0
N221 N 0.58914 0.80674 0.26599 0.0
C222 C 0.84333 0.56696 0.69081 0.0
C223 C 0.8322 0.54589 0.66763 0.0
C224 C 0.82698 0.57036 0.71365 0.0
C225 C 0.79929 0.55277 0.71351 0.0
C226 C 0.80445 0.52861 0.6673 0.0
C227 C 0.78815 0.53216 0.68983 0.0
C228 C 0.78142 0.55585 0.7371 0.0
C229 C 0.83037 0.53147 0.80063 0.0
C230 C 0.84302 0.5478 0.82849 0.0
C231 C 0.81205 0.53497 0.78167 0.0
C232 C 0.80651 0.55537 0.78953 0.0
C233 C 0.83746 0.56824 0.83622 0.0
C234 C 0.81943 0.57195 0.81698 0.0
C235 C 0.78511 0.55767 0.7721 0.0
C236 C 0.67913 0.52942 0.82357 0.0
C237 C 0.6844 0.5485 0.84862 0.0
C238 C 0.69861 0.53339 0.80023 0.0
C239 C 0.72389 0.55634 0.80161 0.0
C240 C 0.70982 0.57161 0.84973 0.0
C241 C 0.7295 0.57531 0.82667 0.0
C242 C 0.74491 0.55927 0.7784 0.0
C243 C 0.69048 0.57799 0.71886 0.0
C244 C 0.67688 0.55996 0.69279 0.0
C245 C 0.71131 0.57728 0.7357 0.0
C246 C 0.71887 0.55847 0.72685 0.0
C247 C 0.68458 0.54126 0.68394 0.0
C248 C 0.70543 0.54063 0.70067 0.0
C249 C 0.74155 0.55805 0.74352 0.0
H250 H 0.86469 0.58051 0.69162 0.0
H251 H 0.83593 0.58669 0.73133 0.0
H252 H 0.79534 0.51241 0.64945 0.0
H253 H 0.7668 0.51852 0.6891 0.0
H254 H 0.83431 0.51569 0.79365 0.0
H255 H 0.80166 0.52112 0.76156 0.0
H256 H 0.84637 0.5809 0.8578 0.0
H257 H 0.81514 0.58751 0.82399 0.0
H258 H 0.66013 0.51104 0.82236 0.0
H259 H 0.69414 0.51817 0.78155 0.0
H260 H 0.71453 0.58692 0.86831 0.0
H261 H 0.74904 0.59304 0.82824 0.0
H262 H 0.68501 0.59262 0.72624 0.0
H263 H 0.7218 0.59174 0.75523 0.0
H264 H 0.67482 0.52741 0.66359 0.0
H265 H 0.71105 0.52612 0.69315 0.0
N266 N 0.75981 0.55614 0.72426 0.0
N267 N 0.76663 0.55931 0.79133 0.0
C268 C 0.17003 0.6855 0.19246 0.0
C269 C 0.1554 0.69224 0.17036 0.0
C270 C 0.18759 0.70404 0.21559 0.0
C271 C 0.19111 0.72983 0.217 0.0
C272 C 0.15847 0.71793 0.17256 0.0
C273 C 0.1764 0.73662 0.19536 0.0
C274 C 0.21242 0.75053 0.23799 0.0
C275 C 0.15004 0.69783 0.31293 0.0
C276 C 0.15823 0.68455 0.33518 0.0
C277 C 0.16843 0.71744 0.29145 0.0
C278 C 0.19536 0.72415 0.29195 0.0
C279 C 0.18509 0.69099 0.33521 0.0
C280 C 0.2035 0.71076 0.31401 0.0
C281 C 0.2156 0.74679 0.27209 0.0
C282 C 0.30869 0.85112 0.31565 0.0
C283 C 0.32126 0.84136 0.33682 0.0
C284 C 0.28849 0.83391 0.2938 0.0
C285 C 0.28047 0.80665 0.29285 0.0
C286 C 0.31348 0.81417 0.3354 0.0
C287 C 0.29314 0.79697 0.31384 0.0
C288 C 0.25731 0.7876 0.27261 0.0
C289 C 0.31883 0.8347 0.19335 0.0
C290 C 0.31214 0.85019 0.17271 0.0
C291 C 0.30034 0.81656 0.21603 0.0
C292 C 0.27471 0.81335 0.2184 0.0
C293 C 0.28665 0.84744 0.17599 0.0
C294 C 0.26804 0.82896 0.1983 0.0
C295 C 0.25392 0.79155 0.23863 0.0
H296 H 0.16874 0.6662 0.19114 0.0
H297 H 0.1993 0.69858 0.23138 0.0
H298 H 0.14724 0.72376 0.15644 0.0
H299 H 0.179 0.75651 0.19586 0.0
H300 H 0.12942 0.69316 0.31229 0.0
H301 H 0.16176 0.72791 0.27524 0.0
H302 H 0.19201 0.68126 0.35232 0.0
H303 H 0.22423 0.71581 0.31508 0.0
H304 H 0.31439 0.87202 0.31613 0.0
H305 H 0.27861 0.84176 0.27843 0.0
H306 H 0.32262 0.80605 0.35165 0.0
H307 H 0.28709 0.77596 0.31378 0.0
H308 H 0.33801 0.83581 0.19118 0.0
H309 H 0.3057 0.8042 0.23068 0.0
H310 H 0.2809 0.85934 0.16108 0.0
H311 H 0.24827 0.82662 0.1996 0.0
N312 N 0.23162 0.77285 0.22265 0.0
N313 N 0.23798 0.7654 0.28798 0.0
C314 C 0.42967 0.15039 0.79904 0.0
C315 C 0.44519 0.16047 0.82799 0.0
C316 C 0.4275 0.1677 0.77654 0.0
C317 C 0.44174 0.19545 0.78206 0.0
C318 C 0.45842 0.18796 0.83429 0.0
C319 C 0.45681 0.20529 0.81148 0.0
C320 C 0.44064 0.21461 0.75841 0.0
C321 C 0.47066 0.17013 0.69478 0.0
C322 C 0.4558 0.15843 0.66558 0.0
C323 C 0.46575 0.18732 0.71413 0.0
C324 C 0.44537 0.19261 0.70524 0.0
C325 C 0.43545 0.16386 0.65677 0.0
C326 C 0.43032 0.18074 0.67637 0.0
C327 C 0.44155 0.21282 0.72326 0.0
C328 C 0.46762 0.32088 0.67691 0.0
C329 C 0.45351 0.31412 0.64656 0.0
C330 C 0.46286 0.30128 0.70048 0.0
C331 C 0.4434 0.27455 0.69463 0.0
C332 C 0.43403 0.28735 0.64074 0.0
C333 C 0.4291 0.26777 0.66451 0.0
C334 C 0.44013 0.25322 0.71775 0.0
C335 C 0.41966 0.30635 0.77802 0.0
C336 C 0.43756 0.31941 0.80439 0.0
C337 C 0.41995 0.28533 0.76104 0.0
C338 C 0.43814 0.27705 0.77022 0.0
C339 C 0.45542 0.31077 0.81377 0.0
C340 C 0.45558 0.28972 0.79701 0.0
C341 C 0.43898 0.25493 0.75276 0.0
H342 H 0.4191 0.12914 0.794 0.0
H343 H 0.41478 0.15936 0.7549 0.0
H344 H 0.47052 0.19607 0.85651 0.0
H345 H 0.46774 0.22651 0.81665 0.0
H346 H 0.48631 0.16622 0.70256 0.0
H347 H 0.47831 0.19692 0.7356 0.0
H348 H 0.42394 0.15571 0.63416 0.0
H349 H 0.41485 0.18493 0.6686 0.0
H350 H 0.48254 0.34135 0.6824 0.0
H351 H 0.47497 0.30699 0.72285 0.0
H352 H 0.42307 0.28139 0.61746 0.0
H353 H 0.41438 0.24719 0.65914 0.0
H354 H 0.40564 0.31256 0.77031 0.0
H355 H 0.40593 0.2755 0.74087 0.0
H356 H 0.46912 0.32011 0.83438 0.0
H357 H 0.46962 0.28354 0.80474 0.0
N358 N 0.43943 0.23564 0.77159 0.0
N359 N 0.4411 0.23213 0.70451 0.0
C360 C 0.04818 0.47917 0.07215 0.0
C361 C 0.0203 0.46604 0.06942 0.0
C362 C 0.06075 0.46972 0.09347 0.0
C363 C 0.0451 0.44617 0.11209 0.0
C364 C 0.01688 0.43294 0.10982 0.0
C365 C 0.00474 0.44324 0.0887 0.0
C366 C 0.09087 0.48483 0.09571 0.0
C367 C 0.9996 0.40756 0.12892 0.0
C368 C 0.08534 0.41368 0.1375 0.0
C369 C 0.09334 0.42371 0.16989 0.0
C370 C 0.06799 0.41925 0.11918 0.0
C371 C 0.05873 0.43554 0.13341 0.0
C372 C 0.06554 0.44449 0.1667 0.0
C373 C 0.08254 0.43826 0.18462 0.0
C374 C 0.06085 0.40898 0.0839 0.0
C375 C 0.05627 0.46207 0.18274 0.0
H376 H 0.06026 0.49699 0.05753 0.0
H377 H 0.98318 0.43299 0.08643 0.0
H378 H 0.09726 0.49009 0.12205 0.0
H379 H 0.09886 0.47205 0.08675 0.0
H380 H 0.10001 0.50346 0.08073 0.0
H381 H 0.97798 0.40032 0.12555 0.0
H382 H 0.00377 0.39175 0.12043 0.0
H383 H 0.0044 0.41072 0.1559 0.0
H384 H 0.09357 0.40249 0.12582 0.0
H385 H 0.08797 0.44545 0.20998 0.0
H386 H 0.07145 0.42578 0.06619 0.0
H387 H 0.03912 0.40032 0.07951 0.0
H388 H 0.0664 0.39359 0.07821 0.0
H389 H 0.06641 0.48198 0.17065 0.0
H390 H 0.06075 0.46481 0.20987 0.0
H391 H 0.0345 0.45354 0.17915 0.0
C392 C 0.58611 0.05634 0.58575 0.0
C393 C 0.57136 0.0284 0.5844 0.0
C394 C 0.60847 0.06959 0.60648 0.0
C395 C 0.61664 0.05456 0.62595 0.0
C396 C 0.60164 0.0263 0.62511 0.0
C397 C 0.57893 0.0135 0.60453 0.0
C398 C 0.62357 0.09975 0.60714 0.0
C399 C 0.61002 0.00966 0.64518 0.0
C400 C 0.68998 0.09428 0.64865 0.0
C401 C 0.68898 0.10319 0.68087 0.0
C402 C 0.66651 0.07701 0.63126 0.0
C403 C 0.64142 0.06877 0.64623 0.0
C404 C 0.64026 0.07671 0.67927 0.0
C405 C 0.66405 0.09365 0.69627 0.0
C406 C 0.66858 0.06871 0.59619 0.0
C407 C 0.6139 0.06851 0.69603 0.0
H408 H 0.58013 0.06794 0.57051 0.0
H409 H 0.56761 0.99189 0.60341 0.0
H410 H 0.62529 0.10703 0.63313 0.0
H411 H 0.64413 0.10737 0.59763 0.0
H412 H 0.61378 0.10841 0.5918 0.0
H413 H 0.59554 0.98795 0.64298 0.0
H414 H 0.62983 0.01347 0.63653 0.0
H415 H 0.61212 0.01539 0.67188 0.0
H416 H 0.70908 0.10163 0.63639 0.0
H417 H 0.66307 0.09987 0.72148 0.0
H418 H 0.66187 0.07873 0.57823 0.0
H419 H 0.65536 0.04687 0.59301 0.0
H420 H 0.68932 0.07401 0.58974 0.0
H421 H 0.60403 0.07834 0.6834 0.0
H422 H 0.61636 0.07408 0.72285 0.0
H423 H 0.60034 0.04665 0.69385 0.0
C424 C 0.52856 0.58457 0.05557 0.0
C425 C 0.50426 0.57351 0.03829 0.0
C426 C 0.53897 0.60928 0.07173 0.0
C427 C 0.52431 0.62286 0.07144 0.0
C428 C 0.49986 0.61189 0.05372 0.0
C429 C 0.4903 0.58747 0.03689 0.0
C430 C 0.56546 0.62064 0.08956 0.0
C431 C 0.48338 0.62549 0.05351 0.0
C432 C 0.53756 0.67027 0.14373 0.0
C433 C 0.55342 0.69507 0.12861 0.0
C434 C 0.52752 0.64661 0.12521 0.0
C435 C 0.53406 0.6479 0.09096 0.0
C436 C 0.55038 0.67303 0.07571 0.0
C437 C 0.55963 0.69642 0.09471 0.0
C438 C 0.50984 0.62025 0.14224 0.0
C439 C 0.55828 0.67517 0.0395 0.0
H440 H 0.5395 0.57389 0.05635 0.0
H441 H 0.47142 0.57881 0.0237 0.0
H442 H 0.5791 0.64139 0.08114 0.0
H443 H 0.5625 0.62142 0.11677 0.0
H444 H 0.57528 0.6086 0.08524 0.0
H445 H 0.46517 0.61472 0.03786 0.0
H446 H 0.47726 0.62677 0.07935 0.0
H447 H 0.49542 0.6462 0.0441 0.0
H448 H 0.53269 0.66947 0.16997 0.0
H449 H 0.57192 0.71576 0.08323 0.0
H450 H 0.5194 0.60775 0.14159 0.0
H451 H 0.49054 0.60916 0.12878 0.0
H452 H 0.50576 0.62281 0.16865 0.0
H453 H 0.56904 0.66406 0.03514 0.0
H454 H 0.57128 0.6962 0.03153 0.0
H455 H 0.54021 0.66592 0.02349 0.0
C456 C 0.9404 0.52475 0.57274 0.0
C457 C 0.93307 0.51501 0.5401 0.0
C458 C 0.92428 0.53117 0.59215 0.0
C459 C 0.90035 0.5281 0.57852 0.0
C460 C 0.89328 0.51923 0.54518 0.0
C461 C 0.90966 0.51262 0.52639 0.0
C462 C 0.93241 0.54031 0.62771 0.0
C463 C 0.86805 0.51605 0.52971 0.0
C464 C 0.84604 0.51586 0.64062 0.0
C465 C 0.84939 0.54145 0.64421 0.0
C466 C 0.86222 0.51119 0.61888 0.0
C467 C 0.88205 0.53259 0.6 0.0
C468 C 0.88523 0.55842 0.6031 0.0
C469 C 0.86897 0.56259 0.62541 0.0
C470 C 0.85849 0.48346 0.6167 0.0
C471 C 0.90597 0.58164 0.5831 0.0
H472 H 0.95843 0.52666 0.58362 0.0
H473 H 0.90393 0.50524 0.50114 0.0
H474 H 0.93313 0.5596 0.63199 0.0
H475 H 0.91734 0.52555 0.64508 0.0
H476 H 0.95221 0.54277 0.63407 0.0
H477 H 0.8665 0.51105 0.50275 0.0
H478 H 0.85041 0.49994 0.54268 0.0
H479 H 0.86723 0.53469 0.53273 0.0
H480 H 0.83107 0.49956 0.6554 0.0
H481 H 0.87137 0.58233 0.62793 0.0
H482 H 0.87702 0.48386 0.62483 0.0
H483 H 0.85464 0.47634 0.59051 0.0
H484 H 0.8417 0.46888 0.6324 0.0
H485 H 0.92622 0.58573 0.59016 0.0
H486 H 0.90492 0.60009 0.58703 0.0
H487 H 0.90334 0.57665 0.55614 0.0
C488 C 0.41701 0.96376 0.05088 0.0
C489 C 0.42843 0.95359 0.02867 0.0
C490 C 0.39624 0.94682 0.0723 0.0
C491 C 0.38712 0.91911 0.07205 0.0
C492 C 0.39788 0.9086 0.04877 0.0
C493 C 0.41825 0.92598 0.02705 0.0
C494 C 0.38483 0.95874 0.09612 0.0
C495 C 0.38897 0.87923 0.04809 0.0
C496 C 0.35887 0.88226 0.15351 0.0
C497 C 0.33131 0.86835 0.14708 0.0
C498 C 0.37719 0.89853 0.12915 0.0
C499 C 0.36778 0.90151 0.09775 0.0
C500 C 0.34004 0.88795 0.0912 0.0
C501 C 0.32217 0.87133 0.11577 0.0
C502 C 0.40668 0.91248 0.13701 0.0
C503 C 0.32923 0.89099 0.05823 0.0
H504 H 0.42473 0.98512 0.05202 0.0
H505 H 0.4272 0.91808 0.01011 0.0
H506 H 0.3627 0.94762 0.09484 0.0
H507 H 0.39052 0.95706 0.12205 0.0
H508 H 0.39208 0.98012 0.09077 0.0
H509 H 0.39791 0.87395 0.02699 0.0
H510 H 0.39484 0.8736 0.07174 0.0
H511 H 0.36692 0.86712 0.04617 0.0
H512 H 0.3662 0.88057 0.17772 0.0
H513 H 0.30102 0.86035 0.11017 0.0
H514 H 0.41524 0.93442 0.13576 0.0
H515 H 0.41723 0.90707 0.1182 0.0
H516 H 0.41078 0.9073 0.16215 0.0
H517 H 0.33625 0.91238 0.05341 0.0
H518 H 0.30706 0.87975 0.05743 0.0
H519 H 0.33685 0.8838 0.03769 0.0
C520 C 0.48883 0.42595 0.50438 0.0
C521 C 0.48781 0.44702 0.52023 0.0
C522 C 0.4828 0.40257 0.52196 0.0
C523 C 0.47602 0.40054 0.55618 0.0
C524 C 0.475 0.42177 0.57222 0.0
C525 C 0.48073 0.44464 0.55402 0.0
C526 C 0.48374 0.38012 0.50403 0.0
C527 C 0.46822 0.42054 0.60881 0.0
C528 C 0.43873 0.33506 0.6029 0.0
C529 C 0.45943 0.33496 0.62103 0.0
C530 C 0.44401 0.35556 0.58019 0.0
C531 C 0.47057 0.3766 0.57585 0.0
C532 C 0.49165 0.37611 0.59313 0.0
C533 C 0.48584 0.35521 0.61533 0.0
C534 C 0.42104 0.35532 0.56199 0.0
C535 C 0.52023 0.39829 0.58934 0.0
H536 H 0.4942 0.42766 0.47825 0.0
H537 H 0.48008 0.4609 0.56656 0.0
H538 H 0.49901 0.37645 0.51566 0.0
H539 H 0.46424 0.36142 0.5064 0.0
H540 H 0.48851 0.38447 0.47714 0.0
H541 H 0.46822 0.43879 0.61746 0.0
H542 H 0.44824 0.40303 0.61368 0.0
H543 H 0.48286 0.41802 0.62395 0.0
H544 H 0.41825 0.3196 0.60726 0.0
H545 H 0.50202 0.35493 0.6286 0.0
H546 H 0.42555 0.35905 0.535 0.0
H547 H 0.41801 0.37157 0.57169 0.0
H548 H 0.40211 0.33608 0.56503 0.0
H549 H 0.5258 0.40178 0.56261 0.0
H550 H 0.53448 0.3939 0.60255 0.0
H551 H 0.52239 0.41711 0.59953 0.0
C552 C 0.5603 0.99557 0.40633 0.0
C553 C 0.55843 0.99109 0.4408 0.0
C554 C 0.56781 0.98117 0.38499 0.0
C555 C 0.5739 0.96224 0.39864 0.0
C556 C 0.57403 0.95926 0.43363 0.0
C557 C 0.56609 0.97357 0.45425 0.0
C558 C 0.56732 0.98479 0.34779 0.0
C559 C 0.58081 0.93964 0.44925 0.0
C560 C 0.55661 0.89974 0.3494 0.0
C561 C 0.58161 0.90523 0.33735 0.0
C562 C 0.55386 0.91842 0.36865 0.0
C563 C 0.57674 0.94314 0.37657 0.0
C564 C 0.60209 0.94885 0.36471 0.0
C565 C 0.60423 0.92984 0.34513 0.0
C566 C 0.52643 0.91152 0.38085 0.0
C567 C 0.62693 0.97491 0.37291 0.0
H568 H 0.55431 0.00905 0.39586 0.0
H569 H 0.56497 0.97031 0.48097 0.0
H570 H 0.58555 0.98674 0.33602 0.0
H571 H 0.54994 0.96691 0.33686 0.0
H572 H 0.56572 0.00262 0.34135 0.0
H573 H 0.58338 0.94225 0.4767 0.0
H574 H 0.56456 0.91898 0.44405 0.0
H575 H 0.5994 0.94183 0.43831 0.0
H576 H 0.5391 0.88062 0.34407 0.0
H577 H 0.62357 0.93437 0.33559 0.0
H578 H 0.5218 0.92717 0.3731 0.0
H579 H 0.52593 0.9108 0.4085 0.0
H580 H 0.51054 0.89197 0.37118 0.0
H581 H 0.62467 0.99189 0.3643 0.0
H582 H 0.64508 0.97649 0.36127 0.0
H583 H 0.62987 0.97693 0.40032 0.0
C584 C 0.56934 0.53978 0.9664 0.0
C585 C 0.5564 0.51551 0.98366 0.0
C586 C 0.59237 0.54687 0.94766 0.0
C587 C 0.60213 0.52887 0.94538 0.0
C588 C 0.58976 0.50481 0.96393 0.0
C589 C 0.56716 0.49857 0.98328 0.0
C590 C 0.60543 0.57304 0.92901 0.0
C591 C 0.59927 0.48487 0.96159 0.0
C592 C 0.6365 0.53115 0.86412 0.0
C593 C 0.66348 0.54399 0.87356 0.0
C594 C 0.6164 0.52567 0.88743 0.0
C595 C 0.62342 0.53394 0.92092 0.0
C596 C 0.65057 0.54739 0.93062 0.0
C597 C 0.67027 0.55198 0.90692 0.0
C598 C 0.5876 0.51101 0.87616 0.0
C599 C 0.6588 0.557 0.96598 0.0
H600 H 0.56111 0.55299 0.96699 0.0
H601 H 0.55698 0.47971 0.99647 0.0
H602 H 0.62735 0.58377 0.93297 0.0
H603 H 0.60181 0.56918 0.90188 0.0
H604 H 0.59757 0.58623 0.93687 0.0
H605 H 0.58912 0.46838 0.97987 0.0
H606 H 0.59529 0.47617 0.93613 0.0
H607 H 0.62112 0.4948 0.96578 0.0
H608 H 0.631 0.52543 0.83834 0.0
H609 H 0.69096 0.56154 0.9147 0.0
H610 H 0.57871 0.52398 0.87932 0.0
H611 H 0.57589 0.49301 0.89177 0.0
H612 H 0.58545 0.50473 0.84962 0.0
H613 H 0.65122 0.57053 0.97316 0.0
H614 H 0.68081 0.56777 0.9693 0.0
H615 H 0.64982 0.53982 0.98338 0.0
C616 C 0.0706 0.58263 0.48041 0.0
C617 C 0.04543 0.56392 0.46784 0.0
C618 C 0.08926 0.60362 0.46036 0.0
C619 C 0.08264 0.60575 0.42692 0.0
C620 C 0.05704 0.58733 0.4144 0.0
C621 C 0.03875 0.56677 0.43503 0.0
C622 C 0.11627 0.62312 0.47467 0.0
C623 C 0.04926 0.5888 0.37883 0.0
C624 C 0.12201 0.67005 0.37784 0.0
C625 C 0.13903 0.6645 0.35892 0.0
C626 C 0.10398 0.65138 0.40071 0.0
C627 C 0.10276 0.62646 0.4044 0.0
C628 C 0.11996 0.62078 0.3854 0.0
C629 C 0.13799 0.63994 0.36302 0.0
C630 C 0.08614 0.65823 0.42075 0.0
C631 C 0.11899 0.59429 0.38827 0.0
H632 H 0.07592 0.58063 0.50574 0.0
H633 H 0.01937 0.55243 0.425 0.0
H634 H 0.13201 0.62116 0.46136 0.0
H635 H 0.12053 0.64389 0.47098 0.0
H636 H 0.11767 0.61981 0.5017 0.0
H637 H 0.02824 0.57349 0.37329 0.0
H638 H 0.05188 0.6088 0.37369 0.0
H639 H 0.0625 0.58588 0.36144 0.0
H640 H 0.12304 0.68918 0.37505 0.0
H641 H 0.151 0.63553 0.34823 0.0
H642 H 0.08871 0.65605 0.44777 0.0
H643 H 0.06493 0.64417 0.41455 0.0
H644 H 0.09037 0.6789 0.41599 0.0
H645 H 0.12238 0.59068 0.41452 0.0
H646 H 0.13412 0.59325 0.3723 0.0
H647 H 0.09891 0.57791 0.38096 0.0
C648 C 0.45571 0.05299 0.94245 0.0
C649 C 0.479 0.06555 0.96178 0.0
C650 C 0.44806 0.06791 0.92246 0.0
C651 C 0.46458 0.09598 0.921 0.0
C652 C 0.4878 0.10882 0.94115 0.0
C653 C 0.49454 0.09344 0.96171 0.0
C654 C 0.42273 0.05355 0.90214 0.0
C655 C 0.50624 0.13866 0.93971 0.0
C656 C 0.46267 0.13009 0.84109 0.0
C657 C 0.44853 0.14263 0.8512 0.0
C658 C 0.46809 0.11489 0.86365 0.0
C659 C 0.45853 0.1117 0.89682 0.0
C660 C 0.44354 0.12377 0.90681 0.0
C661 C 0.43906 0.13947 0.88394 0.0
C662 C 0.48459 0.10278 0.85222 0.0
C663 C 0.43241 0.12022 0.94165 0.0
H664 H 0.44359 0.0314 0.9427 0.0
H665 H 0.51269 0.10313 0.97643 0.0
H666 H 0.41028 0.06298 0.90587 0.0
H667 H 0.42774 0.05513 0.87525 0.0
H668 H 0.41074 0.03208 0.90875 0.0
H669 H 0.52286 0.14568 0.95798 0.0
H670 H 0.51485 0.14444 0.91432 0.0
H671 H 0.49499 0.14918 0.94464 0.0
H672 H 0.47017 0.13288 0.81578 0.0
H673 H 0.42813 0.1493 0.89156 0.0
H674 H 0.47304 0.08078 0.85509 0.0
H675 H 0.50271 0.11027 0.86799 0.0
H676 H 0.49085 0.10752 0.82576 0.0
H677 H 0.42008 0.09866 0.94754 0.0
H678 H 0.42 0.12976 0.94489 0.0
H679 H 0.44897 0.12902 0.96002 0.0
C680 C 0.41339 0.46805 0.4447 0.0
C681 C 0.42393 0.49268 0.4611 0.0
C682 C 0.38853 0.45664 0.42869 0.0
C683 C 0.37427 0.47061 0.42819 0.0
C684 C 0.38466 0.49535 0.44515 0.0
C685 C 0.40925 0.50592 0.46187 0.0
C686 C 0.37779 0.42988 0.41174 0.0
C687 C 0.37033 0.51113 0.4445 0.0
C688 C 0.32686 0.45564 0.35537 0.0
C689 C 0.30203 0.43997 0.37055 0.0
C690 C 0.35052 0.46602 0.37399 0.0
C691 C 0.34922 0.46 0.40841 0.0
C692 C 0.3241 0.44368 0.42367 0.0
C693 C 0.3007 0.43416 0.40459 0.0
C694 C 0.37685 0.48376 0.35693 0.0
C695 C 0.32197 0.43624 0.46006 0.0
H696 H 0.42465 0.45768 0.44439 0.0
H697 H 0.41751 0.52505 0.47438 0.0
H698 H 0.35707 0.41606 0.42008 0.0
H699 H 0.37714 0.43229 0.38438 0.0
H700 H 0.39019 0.42058 0.41693 0.0
H701 H 0.38065 0.52961 0.45976 0.0
H702 H 0.36895 0.51675 0.41843 0.0
H703 H 0.34965 0.49878 0.45386 0.0
H704 H 0.32767 0.4603 0.32905 0.0
H705 H 0.28135 0.42206 0.41616 0.0
H706 H 0.38974 0.47466 0.35843 0.0
H707 H 0.38753 0.50335 0.3698 0.0
H708 H 0.37431 0.4872 0.33026 0.0
H709 H 0.33374 0.42626 0.4651 0.0
H710 H 0.30099 0.42272 0.46786 0.0
H711 H 0.33049 0.45448 0.47573 0.0
C712 C 0.95493 0.4256 0.92086 0.0
C713 C 0.9826 0.4398 0.92583 0.0
C714 C 0.94261 0.40117 0.90391 0.0
C715 C 0.95829 0.39028 0.89242 0.0
C716 C 0.98637 0.40479 0.89675 0.0
C717 C 0.99828 0.42965 0.9131 0.0
C718 C 0.9127 0.38671 0.89904 0.0
C719 C 0.00363 0.39356 0.88538 0.0
C720 C 0.91721 0.31505 0.8844 0.0
C721 C 0.91153 0.312 0.85023 0.0
C722 C 0.93404 0.34037 0.89814 0.0
C723 C 0.94481 0.36317 0.87727 0.0
C724 C 0.93995 0.36002 0.8425 0.0
C725 C 0.92352 0.33439 0.82935 0.0
C726 C 0.93919 0.34284 0.93523 0.0
C727 C 0.95057 0.38381 0.81951 0.0
H728 H 0.94283 0.4336 0.93045 0.0
H729 H 0.01967 0.44056 0.9172 0.0
H730 H 0.90767 0.38138 0.8724 0.0
H731 H 0.90334 0.36785 0.91349 0.0
H732 H 0.90374 0.39886 0.90719 0.0
H733 H 0.02524 0.40801 0.88872 0.0
H734 H 0.99849 0.37526 0.89983 0.0
H735 H -0.00019 0.38772 0.85873 0.0
H736 H 0.90799 0.29766 0.90045 0.0
H737 H 0.91887 0.332 0.80293 0.0
H738 H 0.92855 0.35222 0.94702 0.0
H739 H 0.9608 0.35589 0.94039 0.0
H740 H 0.9323 0.32314 0.94718 0.0
H741 H 0.94023 0.39521 0.82475 0.0
H742 H 0.94749 0.37785 0.79282 0.0
H743 H 0.97218 0.39746 0.82392 0.0
C744 C 0.92474 0.51764 0.96727 0.0
C745 C 0.94628 0.51662 0.95283 0.0
C746 C 0.90814 0.52364 0.94793 0.0
C747 C 0.91295 0.52826 0.91327 0.0
C748 C 0.93472 0.52735 0.89863 0.0
C749 C 0.95122 0.52175 0.91862 0.0
C750 C 0.88536 0.52486 0.96451 0.0
C751 C 0.94028 0.53174 0.8617 0.0
C752 C 0.85531 0.5167 0.8569 0.0
C753 C 0.86111 0.54288 0.85014 0.0
C754 C 0.87198 0.51169 0.8774 0.0
C755 C 0.89483 0.53334 0.89205 0.0
C756 C 0.90069 0.55979 0.88571 0.0
C757 C 0.88391 0.56425 0.86464 0.0
C758 C 0.8652 0.48319 0.88326 0.0
C759 C 0.92476 0.58339 0.90109 0.0
H760 H 0.92088 0.51382 0.99371 0.0
H761 H 0.96771 0.52082 0.9072 0.0
H762 H 0.88691 0.54445 0.95954 0.0
H763 H 0.86609 0.50928 0.95392 0.0
H764 H 0.885 0.52192 0.99192 0.0
H765 H 0.9582 0.53064 0.85426 0.0
H766 H 0.92285 0.51648 0.84744 0.0
H767 H 0.94328 0.55154 0.85439 0.0
H768 H 0.83749 0.49999 0.84648 0.0
H769 H 0.88883 0.58456 0.85929 0.0
H770 H 0.86228 0.47856 0.91028 0.0
H771 H 0.88199 0.48047 0.87499 0.0
H772 H 0.84685 0.46861 0.86977 0.0
H773 H 0.9242 0.58126 0.92861 0.0
H774 H 0.92591 0.60264 0.89483 0.0
H775 H 0.94327 0.58409 0.89227 0.0
C776 C 0.42641 0.92255 0.48301 0.0
C777 C 0.44573 0.94762 0.47095 0.0
C778 C 0.40493 0.90476 0.46279 0.0
C779 C 0.40293 0.91215 0.42969 0.0
C780 C 0.42211 0.93759 0.41763 0.0
C781 C 0.44315 0.95501 0.43841 0.0
C782 C 0.38465 0.87789 0.47659 0.0
C783 C 0.42082 0.94618 0.38243 0.0
C784 C 0.36582 0.85867 0.3642 0.0
C785 C 0.34202 0.85929 0.36091 0.0
C786 C 0.38562 0.87545 0.38692 0.0
C787 C 0.38138 0.89309 0.40708 0.0
C788 C 0.35719 0.89351 0.40424 0.0
C789 C 0.33786 0.8767 0.38104 0.0
C790 C 0.4113 0.87468 0.38885 0.0
C791 C 0.35186 0.91188 0.42549 0.0
H792 H 0.42821 0.9167 0.50812 0.0
H793 H 0.45796 0.9743 0.42875 0.0
H794 H 0.36423 0.87486 0.47379 0.0
H795 H 0.38532 0.86182 0.46227 0.0
H796 H 0.3882 0.87572 0.50334 0.0
H797 H 0.43697 0.96688 0.37714 0.0
H798 H 0.42245 0.93252 0.3644 0.0
H799 H 0.40131 0.94496 0.37799 0.0
H800 H 0.36917 0.84537 0.3485 0.0
H801 H 0.3193 0.87695 0.37889 0.0
H802 H 0.41486 0.8706 0.4148 0.0
H803 H 0.42834 0.89441 0.38175 0.0
H804 H 0.41113 0.85924 0.37221 0.0
H805 H 0.35418 0.90866 0.45226 0.0
H806 H 0.33152 0.90883 0.42145 0.0
H807 H 0.36666 0.93297 0.41972 0.0
C808 C 0.44754 0.41809 0.94516 0.0
C809 C 0.44901 0.44198 0.93494 0.0
C810 C 0.44281 0.39795 0.92216 0.0
C811 C 0.43958 0.40177 0.888 0.0
C812 C 0.4397 0.42524 0.87769 0.0
C813 C 0.44436 0.44509 0.90134 0.0
C814 C 0.44261 0.37313 0.93427 0.0
C815 C 0.43627 0.42999 0.84149 0.0
C816 C 0.46188 0.36472 0.83043 0.0
C817 C 0.43761 0.34177 0.82266 0.0
C818 C 0.46264 0.38498 0.85041 0.0
C819 C 0.43853 0.38221 0.86304 0.0
C820 C 0.41386 0.35964 0.85408 0.0
C821 C 0.41368 0.33967 0.8339 0.0
C822 C 0.48937 0.40883 0.85913 0.0
C823 C 0.38775 0.35597 0.86708 0.0
H824 H 0.45085 0.4154 0.97112 0.0
H825 H 0.44547 0.46348 0.89323 0.0
H826 H 0.42451 0.35501 0.92515 0.0
H827 H 0.46019 0.37262 0.92411 0.0
H828 H 0.44319 0.37223 0.9619 0.0
H829 H 0.4338 0.44769 0.83807 0.0
H830 H 0.45406 0.43322 0.8272 0.0
H831 H 0.41869 0.41226 0.83066 0.0
H832 H 0.48038 0.36663 0.8213 0.0
H833 H 0.39489 0.32191 0.82808 0.0
H834 H 0.4932 0.4087 0.88622 0.0
H835 H 0.48934 0.42761 0.85368 0.0
H836 H 0.50604 0.40898 0.84522 0.0
H837 H 0.38648 0.35226 0.89433 0.0
H838 H 0.37026 0.33894 0.85491 0.0
H839 H 0.38662 0.37434 0.86309 0.0
C840 C 0.02276 0.44914 0.44649 0.0
C841 C 0.00166 0.45231 0.43483 0.0
C842 C 0.03588 0.44016 0.42544 0.0
C843 C 0.02768 0.43412 0.3918 0.0
C844 C 0.00545 0.43583 0.38024 0.0
C845 C 0.99263 0.44495 0.40197 0.0
C846 C 0.05943 0.4385 0.43886 0.0
C847 C 0.99603 0.42928 0.34459 0.0
C848 C 0.08564 0.44575 0.33734 0.0
C849 C 0.08261 0.42018 0.33612 0.0
C850 C 0.06676 0.45024 0.35339 0.0
C851 C 0.04425 0.42858 0.3685 0.0
C852 C 0.04009 0.4024 0.36528 0.0
C853 C 0.0594 0.39849 0.34913 0.0
C854 C 0.0719 0.47847 0.35613 0.0
C855 C 0.0162 0.37878 0.38078 0.0
H856 H 0.02962 0.45441 0.472 0.0
H857 H 0.97627 0.44728 0.39285 0.0
H858 H 0.05694 0.41855 0.43365 0.0
H859 H 0.07796 0.45351 0.42619 0.0
H860 H 0.06209 0.44217 0.46616 0.0
H861 H 0.97631 0.42782 0.34084 0.0
H862 H 0.01073 0.44509 0.32793 0.0
H863 H 0.99457 0.41018 0.33687 0.0
H864 H 0.10325 0.46246 0.32655 0.0
H865 H 0.05695 0.37867 0.34816 0.0
H866 H 0.0769 0.48539 0.38233 0.0
H867 H 0.05375 0.4793 0.34927 0.0
H868 H 0.08863 0.49253 0.33994 0.0
H869 H 0.01891 0.37932 0.40822 0.0
H870 H 0.01346 0.35953 0.37129 0.0
H871 H 0.99774 0.37958 0.37585 0.0
C872 C 0.56191 0.02404 0.8959 0.0
C873 C 0.56101 0.03328 0.92794 0.0
C874 C 0.58571 0.03614 0.87725 0.0
C875 C 0.60905 0.05775 0.89117 0.0
C876 C 0.60833 0.06667 0.92379 0.0
C877 C 0.58436 0.05443 0.94165 0.0
C878 C 0.58575 0.02623 0.84245 0.0
C879 C 0.6328 0.08953 0.93969 0.0
C880 C 0.67926 0.08133 0.85974 0.0
C881 C 0.68498 0.10502 0.84343 0.0
C882 C 0.65402 0.06483 0.87395 0.0
C883 C 0.6341 0.07216 0.87148 0.0
C884 C 0.63938 0.0953 0.85339 0.0
C885 C 0.66478 0.11149 0.83971 0.0
C886 C 0.64919 0.04039 0.89315 0.0
C887 C 0.61862 0.10369 0.84989 0.0
H888 H 0.54396 0.00769 0.88518 0.0
H889 H 0.58398 0.06155 0.96653 0.0
H890 H 0.58995 0.04222 0.82415 0.0
H891 H 0.60183 0.02121 0.83994 0.0
H892 H 0.56638 0.00835 0.83591 0.0
H893 H 0.62918 0.09323 0.96583 0.0
H894 H 0.64955 0.08535 0.93951 0.0
H895 H 0.63925 0.10806 0.92512 0.0
H896 H 0.69485 0.07628 0.86259 0.0
H897 H 0.66902 0.12953 0.82648 0.0
H898 H 0.62996 0.02282 0.8856 0.0
H899 H 0.64782 0.0437 0.92016 0.0
H900 H 0.66543 0.0357 0.8894 0.0
H901 H 0.59937 0.08666 0.84133 0.0
H902 H 0.62485 0.12047 0.83206 0.0
H903 H 0.61506 0.11007 0.87452 0.0
C904 C 0.55457 0.58328 0.39283 0.0
C905 C 0.53319 0.5762 0.41474 0.0
C906 C 0.56363 0.60569 0.37195 0.0
C907 C 0.55056 0.62086 0.37256 0.0
C908 C 0.52857 0.61335 0.3941 0.0
C909 C 0.52036 0.59131 0.41514 0.0
C910 C 0.58746 0.61344 0.34977 0.0
C911 C 0.51373 0.62865 0.39504 0.0
C912 C 0.58319 0.69335 0.34614 0.0
C913 C 0.57168 0.69129 0.31465 0.0
C914 C 0.57773 0.6705 0.36442 0.0
C915 C 0.5599 0.64494 0.35125 0.0
C916 C 0.54898 0.64264 0.31903 0.0
C917 C 0.55521 0.66581 0.30099 0.0
C918 C 0.5901 0.67377 0.39851 0.0
C919 C 0.52966 0.61574 0.30424 0.0
H920 H 0.5646 0.5717 0.3926 0.0
H921 H 0.50362 0.58573 0.43178 0.0
H922 H 0.58215 0.61423 0.32338 0.0
H923 H 0.60375 0.63371 0.35654 0.0
H924 H 0.59512 0.5993 0.35179 0.0
H925 H 0.49634 0.6195 0.4122 0.0
H926 H 0.52736 0.64947 0.40322 0.0
H927 H 0.50651 0.62956 0.3697 0.0
H928 H 0.59572 0.71284 0.35717 0.0
H929 H 0.54674 0.66394 0.27636 0.0
H930 H 0.59877 0.66056 0.40114 0.0
H931 H 0.57449 0.66785 0.41791 0.0
H932 H 0.60599 0.69469 0.4034 0.0
H933 H 0.53811 0.60227 0.30535 0.0
H934 H 0.52458 0.61726 0.27792 0.0
H935 H 0.51097 0.60631 0.31906 0.0
C936 C 0.48726 0.05364 0.57802 0.0
C937 C 0.49413 0.05906 0.54422 0.0
C938 C 0.48048 0.06972 0.59699 0.0
C939 C 0.48013 0.09158 0.58171 0.0
C940 C 0.4864 0.09682 0.54741 0.0
C941 C 0.49356 0.08062 0.5291 0.0
C942 C 0.47431 0.06369 0.6336 0.0
C943 C 0.48579 0.1197 0.53017 0.0
C944 C 0.44148 0.11895 0.62756 0.0
C945 C 0.46201 0.14136 0.64379 0.0
C946 C 0.44713 0.10299 0.60654 0.0
C947 C 0.47392 0.10929 0.60206 0.0
C948 C 0.49473 0.13183 0.61831 0.0
C949 C 0.48856 0.1477 0.63872 0.0
C950 C 0.42441 0.07921 0.58943 0.0
C951 C 0.52354 0.13902 0.61447 0.0
H952 H 0.48783 0.03715 0.59001 0.0
H953 H 0.49875 0.08486 0.50298 0.0
H954 H 0.48881 0.08096 0.64875 0.0
H955 H 0.45415 0.06048 0.63922 0.0
H956 H 0.47514 0.04573 0.64158 0.0
H957 H 0.48993 0.12033 0.50304 0.0
H958 H 0.46598 0.11803 0.5336 0.0
H959 H 0.50086 0.13889 0.54151 0.0
H960 H 0.42089 0.11362 0.63159 0.0
H961 H 0.50463 0.16525 0.65052 0.0
H962 H 0.42318 0.06056 0.59862 0.0
H963 H 0.42803 0.0802 0.56217 0.0
H964 H 0.40488 0.07801 0.59383 0.0
H965 H 0.52615 0.12232 0.62342 0.0
H966 H 0.5374 0.15733 0.62857 0.0
H967 H 0.52928 0.14218 0.58777 0.0
C968 C 0.39733 0.45655 0.06557 0.0
C969 C 0.42171 0.46135 0.07903 0.0
C970 C 0.37502 0.44899 0.08596 0.0
C971 C 0.37726 0.44659 0.12076 0.0
C972 C 0.40159 0.45059 0.13441 0.0
C973 C 0.42351 0.45772 0.11329 0.0
C974 C 0.34929 0.44443 0.07035 0.0
C975 C 0.40481 0.44852 0.17145 0.0
C976 C 0.32948 0.45863 0.17255 0.0
C977 C 0.3095 0.43253 0.1804 0.0
C978 C 0.35209 0.46346 0.15421 0.0
C979 C 0.35464 0.44167 0.14288 0.0
C980 C 0.33481 0.4153 0.15107 0.0
C981 C 0.31258 0.41106 0.16993 0.0
C982 C 0.37293 0.49191 0.14621 0.0
C983 C 0.33675 0.39156 0.13919 0.0
H984 H 0.39576 0.45909 0.03903 0.0
H985 H 0.44237 0.46153 0.12381 0.0
H986 H 0.33243 0.42484 0.07822 0.0
H987 H 0.34486 0.46002 0.07901 0.0
H988 H 0.35021 0.44498 0.04268 0.0
H989 H 0.4243 0.45021 0.17781 0.0
H990 H 0.40336 0.46466 0.18453 0.0
H991 H 0.38855 0.42926 0.18113 0.0
H992 H 0.32718 0.47536 0.18 0.0
H993 H 0.29754 0.39085 0.17636 0.0
H994 H 0.3734 0.49525 0.11892 0.0
H995 H 0.39302 0.49574 0.15368 0.0
H996 H 0.36898 0.50664 0.15895 0.0
H997 H 0.33618 0.39082 0.11154 0.0
H998 H 0.32025 0.3724 0.14889 0.0
H999 H 0.35604 0.39354 0.14705 0.0
C1000 C 0.97429 0.43652 0.60874 0.0
C1001 C 0.9657 0.4354 0.57577 0.0
C1002 C 0.96176 0.41401 0.62957 0.0
C1003 C 0.94044 0.38984 0.61691 0.0
C1004 C 0.93235 0.38841 0.58333 0.0
C1005 C 0.94496 0.41122 0.56327 0.0
C1006 C 0.97074 0.4163 0.66537 0.0
C1007 C 0.90992 0.36293 0.56875 0.0
C1008 C 0.91726 0.32353 0.66055 0.0
C1009 C 0.8939 0.3195 0.67639 0.0
C1010 C 0.93307 0.34669 0.6418 0.0
C1011 C 0.92544 0.36635 0.63905 0.0
C1012 C 0.90227 0.36271 0.65563 0.0
C1013 C 0.88671 0.33929 0.67387 0.0
C1014 C 0.95755 0.34981 0.62427 0.0
C1015 C 0.89348 0.38324 0.65336 0.0
H1016 H 0.9903 0.45516 0.61853 0.0
H1017 H 0.93841 0.41011 0.53768 0.0
H1018 H 0.95433 0.4135 0.68222 0.0
H1019 H 0.97544 0.40037 0.67126 0.0
H1020 H 0.98859 0.43599 0.67082 0.0
H1021 H 0.90716 0.36471 0.54164 0.0
H1022 H 0.91389 0.34624 0.5726 0.0
H1023 H 0.89096 0.35759 0.5817 0.0
H1024 H 0.9232 0.30857 0.66278 0.0
H1025 H 0.8685 0.33622 0.68553 0.0
H1026 H 0.97531 0.36908 0.63124 0.0
H1027 H 0.95495 0.35014 0.5969 0.0
H1028 H 0.96153 0.33339 0.63031 0.0
H1029 H 0.91015 0.40323 0.66039 0.0
H1030 H 0.87614 0.37834 0.66972 0.0
H1031 H 0.88787 0.38457 0.62727 0.0
C1032 C 0.54777 0.00395 0.09894 0.0
C1033 C 0.53984 0.99485 0.06621 0.0
C1034 C 0.55735 0.99124 0.12018 0.0
C1035 C 0.55898 0.96905 0.10826 0.0
C1036 C 0.55211 0.96061 0.07481 0.0
C1037 C 0.54267 0.9736 0.05427 0.0
C1038 C 0.5647 0.00086 0.15565 0.0
C1039 C 0.55362 0.93708 0.06103 0.0
C1040 C 0.59699 0.93876 0.14828 0.0
C1041 C 0.576 0.9154 0.16203 0.0
C1042 C 0.59211 0.95766 0.13274 0.0
C1043 C 0.56565 0.95295 0.13096 0.0
C1044 C 0.54473 0.93031 0.14684 0.0
C1045 C 0.55018 0.91183 0.1622 0.0
C1046 C 0.61495 0.98167 0.1163 0.0
C1047 C 0.51625 0.9246 0.14565 0.0
H1048 H 0.54571 0.02041 0.10827 0.0
H1049 H 0.53695 0.96664 0.02887 0.0
H1050 H 0.54968 0.9859 0.17287 0.0
H1051 H 0.58431 0.00303 0.16227 0.0
H1052 H 0.56557 0.02026 0.15981 0.0
H1053 H 0.54902 0.93407 0.03394 0.0
H1054 H 0.57384 0.93989 0.06507 0.0
H1055 H 0.53923 0.91863 0.07436 0.0
H1056 H 0.61699 0.94163 0.14818 0.0
H1057 H 0.53402 0.89409 0.17356 0.0
H1058 H 0.61397 -4e-05 0.12173 0.0
H1059 H 0.61351 0.97882 0.08886 0.0
H1060 H 0.63464 0.9848 0.12461 0.0
H1061 H 0.51524 0.94261 0.1527 0.0
H1062 H 0.50296 0.90796 0.16246 0.0
H1063 H 0.5085 0.91916 0.11981 0.0
C1064 C 0.58134 0.55572 0.55091 0.0
C1065 C 0.55754 0.55448 0.56104 0.0
C1066 C 0.60116 0.5597 0.57405 0.0
C1067 C 0.5971 0.56245 0.60828 0.0
C1068 C 0.57386 0.56284 0.61848 0.0
C1069 C 0.55433 0.5589 0.59469 0.0
C1070 C 0.62575 0.5594 0.56204 0.0
C1071 C 0.56891 0.56588 0.65473 0.0
C1072 C 0.6319 0.53728 0.6655 0.0
C1073 C 0.65521 0.56098 0.67407 0.0
C1074 C 0.61228 0.53764 0.64531 0.0
C1075 C 0.61604 0.56231 0.63334 0.0
C1076 C 0.63898 0.5864 0.64305 0.0
C1077 C 0.65831 0.58545 0.66333 0.0
C1078 C 0.58802 0.51149 0.63571 0.0
C1079 C 0.64368 0.61308 0.63082 0.0
H1080 H 0.58412 0.55259 0.5249 0.0
H1081 H 0.53599 0.55794 0.60273 0.0
H1082 H 0.64404 0.57696 0.57185 0.0
H1083 H 0.62552 0.54127 0.57155 0.0
H1084 H 0.62699 0.55945 0.5344 0.0
H1085 H 0.55173 0.5692 0.65808 0.0
H1086 H 0.56468 0.54754 0.66849 0.0
H1087 H 0.58689 0.58277 0.66618 0.0
H1088 H 0.62918 0.51835 0.67423 0.0
H1089 H 0.67636 0.60383 0.66968 0.0
H1090 H 0.58829 0.50819 0.60848 0.0
H1091 H 0.56952 0.51205 0.64122 0.0
H1092 H 0.58716 0.49424 0.64901 0.0
H1093 H 0.64774 0.6148 0.60364 0.0
H1094 H 0.66085 0.63002 0.64359 0.0
H1095 H 0.62562 0.61481 0.63471 0.0
C1096 C 0.08533 0.58449 0.02492 0.0
C1097 C 0.05761 0.57383 0.02475 0.0
C1098 C 0.10169 0.60541 0.04669 0.0
C1099 C 0.09005 0.61624 0.06814 0.0
C1100 C 0.06228 0.60668 0.06639 0.0
C1101 C 0.04634 0.58535 0.04503 0.0
C1102 C 0.13115 0.61475 0.04821 0.0
C1103 C 0.0492 0.61816 0.08816 0.0
C1104 C 0.12366 0.6454 0.15116 0.0
C1105 C 0.13787 0.67289 0.14438 0.0
C1106 C 0.10829 0.62683 0.12647 0.0
C1107 C 0.10646 0.63591 0.09433 0.0
C1108 C 0.12017 0.66359 0.08744 0.0
C1109 C 0.13594 0.68171 0.11239 0.0
C1110 C 0.09414 0.59743 0.13474 0.0
C1111 C 0.1183 0.67404 0.05366 0.0
H1112 H 0.09405 0.57544 0.0095 0.0
H1113 H 0.02491 0.57722 0.04477 0.0
H1114 H 0.14307 0.63679 0.04615 0.0
H1115 H 0.13597 0.60921 0.07267 0.0
H1116 H 0.13742 0.6058 0.02815 0.0
H1117 H 0.02808 0.61073 0.081 0.0
H1118 H 0.04971 0.61269 0.11455 0.0
H1119 H 0.06028 0.64028 0.08669 0.0
H1120 H 0.12449 0.63831 0.17588 0.0
H1121 H 0.14713 0.7028 0.10656 0.0
H1122 H 0.10041 0.58679 0.11715 0.0
H1123 H 0.07227 0.58872 0.13186 0.0
H1124 H 0.09831 0.59361 0.16058 0.0
H1125 H 0.12661 0.66657 0.03429 0.0
H1126 H 0.12922 0.6962 0.05275 0.0
H1127 H 0.09708 0.6666 0.04714 0.0
loop_
_geom_bond_atom_site_label_1
_geom_bond_atom_site_label_2
_geom_bond_distance
_geom_bond_site_symmetry_2
_ccdc_geom_bond_type
C0 O2 1.247 . S
C0 O4 1.258 . S
C1 O8 1.247 . S
C1 O9 1.258 . S
O2 C0 1.247 . S
O2 Zn3 2.028 1_455 S
Zn3 O2 2.028 1_655 S
Zn3 O7 2.035 1_554 S
Zn3 O9 2.035 1_554 S
Zn3 O10 2.028 1_655 S
O4 C0 1.258 . S
O4 Zn5 2.035 1_554 S
Zn5 O4 2.035 1_556 S
Zn5 O6 2.028 1_455 S
Zn5 O8 2.028 1_455 S
Zn5 O11 2.035 1_556 S
O6 Zn5 2.028 1_655 S
O6 C12 1.247 . S
O7 Zn3 2.035 1_556 S
O7 C12 1.258 . S
O8 C1 1.247 . S
O8 Zn5 2.028 1_655 S
O9 C1 1.258 . S
O9 Zn3 2.035 1_556 S
O10 Zn3 2.028 1_455 S
O10 C13 1.247 . S
O11 Zn5 2.035 1_554 S
O11 C13 1.258 . S
C12 O6 1.247 . S
C12 O7 1.258 . S
C13 O10 1.247 . S
C13 O11 1.258 . S
C14 O16 1.247 . S
C14 O18 1.258 . S
C15 O22 1.247 . S
C15 O23 1.258 . S
O16 C14 1.247 . S
O16 Zn17 2.028 1_545 S
Zn17 O16 2.028 1_565 S
Zn17 O21 2.035 . S
Zn17 O23 2.035 . S
Zn17 O24 2.028 1_565 S
O18 C14 1.258 . S
O18 Zn19 2.035 . S
Zn19 O18 2.035 . S
Zn19 O20 2.028 1_545 S
Zn19 O22 2.028 1_545 S
Zn19 O25 2.035 . S
O20 Zn19 2.028 1_565 S
O20 C26 1.247 . S
O21 Zn17 2.035 . S
O21 C26 1.258 . S
O22 C15 1.247 . S
O22 Zn19 2.028 1_565 S
O23 C15 1.258 . S
O23 Zn17 2.035 . S
O24 Zn17 2.028 1_545 S
O24 C27 1.247 . S
O25 Zn19 2.035 . S
O25 C27 1.258 . S
C26 O20 1.247 . S
C26 O21 1.258 . S
C27 O24 1.247 . S
C27 O25 1.258 . S
C28 O30 1.247 . S
C28 O32 1.258 . S
C29 O36 1.247 . S
C29 O37 1.258 . S
O30 C28 1.247 . S
O30 Zn31 2.028 . S
Zn31 O30 2.028 . S
Zn31 O35 2.035 1_556 S
Zn31 O37 2.035 1_556 S
Zn31 O38 2.028 . S
O32 C28 1.258 . S
O32 Zn33 2.035 1_556 S
Zn33 O32 2.035 1_554 S
Zn33 O34 2.028 . S
Zn33 O36 2.028 . S
Zn33 O39 2.035 1_554 S
O34 Zn33 2.028 . S
O34 C40 1.247 . S
O35 Zn31 2.035 1_554 S
O35 C40 1.258 . S
O36 C29 1.247 . S
O36 Zn33 2.028 . S
O37 C29 1.258 . S
O37 Zn31 2.035 1_554 S
O38 Zn31 2.028 . S
O38 C41 1.247 . S
O39 Zn33 2.035 1_556 S
O39 C41 1.258 . S
C40 O34 1.247 . S
C40 O35 1.258 . S
C41 O38 1.247 . S
C41 O39 1.258 . S
C42 O44 1.247 . S
C42 O46 1.258 . S
C43 O50 1.247 . S
C43 O51 1.258 . S
O44 C42 1.247 . S
O44 Zn45 2.028 . S
Zn45 O44 2.028 . S
Zn45 O49 2.035 1_455 S
Zn45 O51 2.035 1_455 S
Zn45 O52 2.028 . S
O46 C42 1.258 . S
O46 Zn47 2.035 1_455 S
Zn47 O46 2.035 1_655 S
Zn47 O48 2.028 . S
Zn47 O50 2.028 . S
Zn47 O53 2.035 1_655 S
O48 Zn47 2.028 . S
O48 C54 1.247 . S
O49 Zn45 2.035 1_655 S
O49 C54 1.258 . S
O50 C43 1.247 . S
O50 Zn47 2.028 . S
O51 C43 1.258 . S
O51 Zn45 2.035 1_655 S
O52 Zn45 2.028 . S
O52 C55 1.247 . S
O53 Zn47 2.035 1_455 S
O53 C55 1.258 . S
C54 O48 1.247 . S
C54 O49 1.258 . S
C55 O52 1.247 . S
C55 O53 1.258 . S
C56 O58 1.247 . S
C56 O60 1.258 . S
C57 O64 1.247 . S
C57 O65 1.258 . S
O58 C56 1.247 . S
O58 Zn59 2.028 1_565 S
Zn59 O58 2.028 1_545 S
Zn59 O63 2.035 1_554 S
Zn59 O65 2.035 1_554 S
Zn59 O66 2.028 1_545 S
O60 C56 1.258 . S
O60 Zn61 2.035 1_554 S
Zn61 O60 2.035 1_556 S
Zn61 O62 2.028 1_565 S
Zn61 O64 2.028 1_565 S
Zn61 O67 2.035 1_556 S
O62 Zn61 2.028 1_545 S
O62 C68 1.247 . S
O63 Zn59 2.035 1_556 S
O63 C68 1.258 . S
O64 C57 1.247 . S
O64 Zn61 2.028 1_545 S
O65 C57 1.258 . S
O65 Zn59 2.035 1_556 S
O66 Zn59 2.028 1_565 S
O66 C69 1.247 . S
O67 Zn61 2.035 1_554 S
O67 C69 1.258 . S
C68 O62 1.247 . S
C68 O63 1.258 . S
C69 O66 1.247 . S
C69 O67 1.258 . S
C70 O72 1.247 . S
C70 O74 1.258 . S
C71 O78 1.247 . S
C71 O79 1.258 . S
O72 C70 1.247 . S
O72 Zn73 2.028 . S
Zn73 O72 2.028 . S
Zn73 O77 2.035 . S
Zn73 O79 2.035 . S
Zn73 O80 2.028 . S
O74 C70 1.258 . S
O74 Zn75 2.035 . S
Zn75 O74 2.035 . S
Zn75 O76 2.028 . S
Zn75 O78 2.028 . S
Zn75 O81 2.035 . S
O76 Zn75 2.028 . S
O76 C82 1.247 . S
O77 Zn73 2.035 . S
O77 C82 1.258 . S
O78 C71 1.247 . S
O78 Zn75 2.028 . S
O79 C71 1.258 . S
O79 Zn73 2.035 . S
O80 Zn73 2.028 . S
O80 C83 1.247 . S
O81 Zn75 2.035 . S
O81 C83 1.258 . S
C82 O76 1.247 . S
C82 O77 1.258 . S
C83 O80 1.247 . S
C83 O81 1.258 . S
C84 C85 1.384 . S
C84 C86 1.384 . S
C84 H112 0.931 . S
C85 C84 1.384 . S
C85 C88 1.382 . S
C86 C84 1.384 . S
C86 C87 1.381 . S
C86 H113 0.930 . S
C87 C86 1.381 . S
C87 C89 1.381 . S
C87 C90 1.487 . S
C88 C85 1.382 . S
C88 C89 1.387 . S
C88 H114 0.930 . S
C89 C87 1.381 . S
C89 C88 1.387 . S
C89 H115 0.931 . S
C90 C87 1.487 . S
C90 C97 1.399 . S
C90 N128 1.343 . S
C91 C92 1.384 . S
C91 C93 1.384 . S
C91 H116 0.931 . S
C92 C91 1.384 . S
C92 C95 1.382 . S
C93 C91 1.384 . S
C93 C94 1.381 . S
C93 H117 0.930 . S
C94 C93 1.381 . S
C94 C96 1.381 . S
C94 C97 1.487 . S
C95 C92 1.382 . S
C95 C96 1.387 . S
C95 H118 0.930 . S
C96 C94 1.381 . S
C96 C95 1.387 . S
C96 H119 0.931 . S
C97 C90 1.399 . S
C97 C94 1.487 . S
C97 N129 1.343 . S
C98 C99 1.384 . S
C98 C100 1.384 . S
C98 H120 0.931 . S
C99 C98 1.384 . S
C99 C102 1.382 . S
C100 C98 1.384 . S
C100 C101 1.381 . S
C100 H121 0.930 . S
C101 C100 1.381 . S
C101 C103 1.381 . S
C101 C104 1.487 . S
C102 C99 1.382 . S
C102 C103 1.387 . S
C102 H122 0.930 . S
C103 C101 1.381 . S
C103 C102 1.387 . S
C103 H123 0.931 . S
C104 C101 1.487 . S
C104 C111 1.399 . S
C104 N129 1.343 . S
C105 C106 1.384 . S
C105 C107 1.384 . S
C105 H124 0.931 . S
C106 C105 1.384 . S
C106 C109 1.382 . S
C107 C105 1.384 . S
C107 C108 1.381 . S
C107 H125 0.930 . S
C108 C107 1.381 . S
C108 C110 1.381 . S
C108 C111 1.487 . S
C109 C106 1.382 . S
C109 C110 1.387 . S
C109 H126 0.930 . S
C110 C108 1.381 . S
C110 C109 1.387 . S
C110 H127 0.931 . S
C111 C104 1.399 . S
C111 C108 1.487 . S
C111 N128 1.343 . S
H112 C84 0.931 . S
H113 C86 0.930 . S
H114 C88 0.930 . S
H115 C89 0.931 . S
H116 C91 0.931 . S
H117 C93 0.930 . S
H118 C95 0.930 . S
H119 C96 0.931 . S
H120 C98 0.931 . S
H121 C100 0.930 . S
H122 C102 0.930 . S
H123 C103 0.931 . S
H124 C105 0.931 . S
H125 C107 0.930 . S
H126 C109 0.930 . S
H127 C110 0.931 . S
N128 C90 1.343 . S
N128 C111 1.343 . S
N129 C97 1.343 . S
N129 C104 1.343 . S
C130 C131 1.384 . S
C130 C132 1.384 . S
C130 H158 0.931 . S
C131 C130 1.384 . S
C131 C134 1.382 . S
C132 C130 1.384 . S
C132 C133 1.381 . S
C132 H159 0.930 . S
C133 C132 1.381 . S
C133 C135 1.381 . S
C133 C136 1.487 . S
C134 C131 1.382 . S
C134 C135 1.387 . S
C134 H160 0.930 . S
C135 C133 1.381 . S
C135 C134 1.387 . S
C135 H161 0.931 . S
C136 C133 1.487 . S
C136 C143 1.399 . S
C136 N174 1.343 . S
C137 C138 1.384 . S
C137 C139 1.384 . S
C137 H162 0.931 . S
C138 C137 1.384 . S
C138 C141 1.382 . S
C139 C137 1.384 . S
C139 C140 1.381 . S
C139 H163 0.930 . S
C140 C139 1.381 . S
C140 C142 1.381 . S
C140 C143 1.487 . S
C141 C138 1.382 . S
C141 C142 1.387 . S
C141 H164 0.930 . S
C142 C140 1.381 . S
C142 C141 1.387 . S
C142 H165 0.931 . S
C143 C136 1.399 . S
C143 C140 1.487 . S
C143 N175 1.343 . S
C144 C145 1.384 . S
C144 C146 1.384 . S
C144 H166 0.931 . S
C145 C144 1.384 . S
C145 C148 1.382 . S
C146 C144 1.384 . S
C146 C147 1.381 . S
C146 H167 0.930 . S
C147 C146 1.381 . S
C147 C149 1.381 . S
C147 C150 1.487 . S
C148 C145 1.382 . S
C148 C149 1.387 . S
C148 H168 0.930 . S
C149 C147 1.381 . S
C149 C148 1.387 . S
C149 H169 0.931 . S
C150 C147 1.487 . S
C150 C157 1.399 . S
C150 N175 1.343 . S
C151 C152 1.384 . S
C151 C153 1.384 . S
C151 H170 0.931 . S
C152 C151 1.384 . S
C152 C155 1.382 . S
C153 C151 1.384 . S
C153 C154 1.381 . S
C153 H171 0.930 . S
C154 C153 1.381 . S
C154 C156 1.381 . S
C154 C157 1.487 . S
C155 C152 1.382 . S
C155 C156 1.387 . S
C155 H172 0.930 . S
C156 C154 1.381 . S
C156 C155 1.387 . S
C156 H173 0.931 . S
C157 C150 1.399 . S
C157 C154 1.487 . S
C157 N174 1.343 . S
H158 C130 0.931 . S
H159 C132 0.930 . S
H160 C134 0.930 . S
H161 C135 0.931 . S
H162 C137 0.931 . S
H163 C139 0.930 . S
H164 C141 0.930 . S
H165 C142 0.931 . S
H166 C144 0.931 . S
H167 C146 0.930 . S
H168 C148 0.930 . S
H169 C149 0.931 . S
H170 C151 0.931 . S
H171 C153 0.930 . S
H172 C155 0.930 . S
H173 C156 0.931 . S
N174 C136 1.343 . S
N174 C157 1.343 . S
N175 C143 1.343 . S
N175 C150 1.343 . S
C176 C177 1.384 . S
C176 C178 1.384 . S
C176 H204 0.931 . S
C177 C176 1.384 . S
C177 C180 1.382 . S
C178 C176 1.384 . S
C178 C179 1.381 . S
C178 H205 0.930 . S
C179 C178 1.381 . S
C179 C181 1.381 . S
C179 C182 1.487 . S
C180 C177 1.382 . S
C180 C181 1.387 . S
C180 H206 0.930 . S
C181 C179 1.381 . S
C181 C180 1.387 . S
C181 H207 0.931 . S
C182 C179 1.487 . S
C182 C189 1.399 . S
C182 N220 1.343 . S
C183 C184 1.384 . S
C183 C185 1.384 . S
C183 H208 0.931 . S
C184 C183 1.384 . S
C184 C187 1.382 . S
C185 C183 1.384 . S
C185 C186 1.381 . S
C185 H209 0.930 . S
C186 C185 1.381 . S
C186 C188 1.381 . S
C186 C189 1.487 . S
C187 C184 1.382 . S
C187 C188 1.387 . S
C187 H210 0.930 . S
C188 C186 1.381 . S
C188 C187 1.387 . S
C188 H211 0.931 . S
C189 C182 1.399 . S
C189 C186 1.487 . S
C189 N221 1.343 . S
C190 C191 1.384 . S
C190 C192 1.384 . S
C190 H212 0.931 . S
C191 C190 1.384 . S
C191 C194 1.382 . S
C192 C190 1.384 . S
C192 C193 1.381 . S
C192 H213 0.930 . S
C193 C192 1.381 . S
C193 C195 1.381 . S
C193 C196 1.487 . S
C194 C191 1.382 . S
C194 C195 1.387 . S
C194 H214 0.930 . S
C195 C193 1.381 . S
C195 C194 1.387 . S
C195 H215 0.931 . S
C196 C193 1.487 . S
C196 C203 1.399 . S
C196 N221 1.343 . S
C197 C198 1.384 . S
C197 C199 1.384 . S
C197 H216 0.931 . S
C198 C197 1.384 . S
C198 C201 1.382 . S
C199 C197 1.384 . S
C199 C200 1.381 . S
C199 H217 0.930 . S
C200 C199 1.381 . S
C200 C202 1.381 . S
C200 C203 1.487 . S
C201 C198 1.382 . S
C201 C202 1.387 . S
C201 H218 0.930 . S
C202 C200 1.381 . S
C202 C201 1.387 . S
C202 H219 0.931 . S
C203 C196 1.399 . S
C203 C200 1.487 . S
C203 N220 1.343 . S
H204 C176 0.931 . S
H205 C178 0.930 . S
H206 C180 0.930 . S
H207 C181 0.931 . S
H208 C183 0.931 . S
H209 C185 0.930 . S
H210 C187 0.930 . S
H211 C188 0.931 . S
H212 C190 0.931 . S
H213 C192 0.930 . S
H214 C194 0.930 . S
H215 C195 0.931 . S
H216 C197 0.931 . S
H217 C199 0.930 . S
H218 C201 0.930 . S
H219 C202 0.931 . S
N220 C182 1.343 . S
N220 C203 1.343 . S
N221 C189 1.343 . S
N221 C196 1.343 . S
C222 C223 1.384 . S
C222 C224 1.384 . S
C222 H250 0.931 . S
C223 C222 1.384 . S
C223 C226 1.382 . S
C224 C222 1.384 . S
C224 C225 1.381 . S
C224 H251 0.930 . S
C225 C224 1.381 . S
C225 C227 1.381 . S
C225 C228 1.487 . S
C226 C223 1.382 . S
C226 C227 1.387 . S
C226 H252 0.930 . S
C227 C225 1.381 . S
C227 C226 1.387 . S
C227 H253 0.931 . S
C228 C225 1.487 . S
C228 C235 1.399 . S
C228 N266 1.343 . S
C229 C230 1.384 . S
C229 C231 1.384 . S
C229 H254 0.931 . S
C230 C229 1.384 . S
C230 C233 1.382 . S
C231 C229 1.384 . S
C231 C232 1.381 . S
C231 H255 0.930 . S
C232 C231 1.381 . S
C232 C234 1.381 . S
C232 C235 1.487 . S
C233 C230 1.382 . S
C233 C234 1.387 . S
C233 H256 0.930 . S
C234 C232 1.381 . S
C234 C233 1.387 . S
C234 H257 0.931 . S
C235 C228 1.399 . S
C235 C232 1.487 . S
C235 N267 1.343 . S
C236 C237 1.384 . S
C236 C238 1.384 . S
C236 H258 0.931 . S
C237 C236 1.384 . S
C237 C240 1.382 . S
C238 C236 1.384 . S
C238 C239 1.381 . S
C238 H259 0.930 . S
C239 C238 1.381 . S
C239 C241 1.381 . S
C239 C242 1.487 . S
C240 C237 1.382 . S
C240 C241 1.387 . S
C240 H260 0.930 . S
C241 C239 1.381 . S
C241 C240 1.387 . S
C241 H261 0.931 . S
C242 C239 1.487 . S
C242 C249 1.399 . S
C242 N267 1.343 . S
C243 C244 1.384 . S
C243 C245 1.384 . S
C243 H262 0.931 . S
C244 C243 1.384 . S
C244 C247 1.382 . S
C245 C243 1.384 . S
C245 C246 1.381 . S
C245 H263 0.930 . S
C246 C245 1.381 . S
C246 C248 1.381 . S
C246 C249 1.487 . S
C247 C244 1.382 . S
C247 C248 1.387 . S
C247 H264 0.930 . S
C248 C246 1.381 . S
C248 C247 1.387 . S
C248 H265 0.931 . S
C249 C242 1.399 . S
C249 C246 1.487 . S
C249 N266 1.343 . S
H250 C222 0.931 . S
H251 C224 0.930 . S
H252 C226 0.930 . S
H253 C227 0.931 . S
H254 C229 0.931 . S
H255 C231 0.930 . S
H256 C233 0.930 . S
H257 C234 0.931 . S
H258 C236 0.931 . S
H259 C238 0.930 . S
H260 C240 0.930 . S
H261 C241 0.931 . S
H262 C243 0.931 . S
H263 C245 0.930 . S
H264 C247 0.930 . S
H265 C248 0.931 . S
N266 C228 1.343 . S
N266 C249 1.343 . S
N267 C235 1.343 . S
N267 C242 1.343 . S
C268 C269 1.384 . S
C268 C270 1.384 . S
C268 H296 0.931 . S
C269 C268 1.384 . S
C269 C272 1.382 . S
C270 C268 1.384 . S
C270 C271 1.381 . S
C270 H297 0.930 . S
C271 C270 1.381 . S
C271 C273 1.381 . S
C271 C274 1.487 . S
C272 C269 1.382 . S
C272 C273 1.387 . S
C272 H298 0.930 . S
C273 C271 1.381 . S
C273 C272 1.387 . S
C273 H299 0.931 . S
C274 C271 1.487 . S
C274 C281 1.399 . S
C274 N312 1.343 . S
C275 C276 1.384 . S
C275 C277 1.384 . S
C275 H300 0.931 . S
C276 C275 1.384 . S
C276 C279 1.382 . S
C277 C275 1.384 . S
C277 C278 1.381 . S
C277 H301 0.930 . S
C278 C277 1.381 . S
C278 C280 1.381 . S
C278 C281 1.487 . S
C279 C276 1.382 . S
C279 C280 1.387 . S
C279 H302 0.930 . S
C280 C278 1.381 . S
C280 C279 1.387 . S
C280 H303 0.931 . S
C281 C274 1.399 . S
C281 C278 1.487 . S
C281 N313 1.343 . S
C282 C283 1.384 . S
C282 C284 1.384 . S
C282 H304 0.931 . S
C283 C282 1.384 . S
C283 C286 1.382 . S
C284 C282 1.384 . S
C284 C285 1.381 . S
C284 H305 0.930 . S
C285 C284 1.381 . S
C285 C287 1.381 . S
C285 C288 1.487 . S
C286 C283 1.382 . S
C286 C287 1.387 . S
C286 H306 0.930 . S
C287 C285 1.381 . S
C287 C286 1.387 . S
C287 H307 0.931 . S
C288 C285 1.487 . S
C288 C295 1.399 . S
C288 N313 1.343 . S
C289 C290 1.384 . S
C289 C291 1.384 . S
C289 H308 0.931 . S
C290 C289 1.384 . S
C290 C293 1.382 . S
C291 C289 1.384 . S
C291 C292 1.381 . S
C291 H309 0.930 . S
C292 C291 1.381 . S
C292 C294 1.381 . S
C292 C295 1.487 . S
C293 C290 1.382 . S
C293 C294 1.387 . S
C293 H310 0.930 . S
C294 C292 1.381 . S
C294 C293 1.387 . S
C294 H311 0.931 . S
C295 C288 1.399 . S
C295 C292 1.487 . S
C295 N312 1.343 . S
H296 C268 0.931 . S
H297 C270 0.930 . S
H298 C272 0.930 . S
H299 C273 0.931 . S
H300 C275 0.931 . S
H301 C277 0.930 . S
H302 C279 0.930 . S
H303 C280 0.931 . S
H304 C282 0.931 . S
H305 C284 0.930 . S
H306 C286 0.930 . S
H307 C287 0.931 . S
H308 C289 0.931 . S
H309 C291 0.930 . S
H310 C293 0.930 . S
H311 C294 0.931 . S
N312 C274 1.343 . S
N312 C295 1.343 . S
N313 C281 1.343 . S
N313 C288 1.343 . S
C314 C315 1.384 . S
C314 C316 1.384 . S
C314 H342 0.931 . S
C315 C314 1.384 . S
C315 C318 1.382 . S
C316 C314 1.384 . S
C316 C317 1.381 . S
C316 H343 0.930 . S
C317 C316 1.381 . S
C317 C319 1.381 . S
C317 C320 1.487 . S
C318 C315 1.382 . S
C318 C319 1.387 . S
C318 H344 0.930 . S
C319 C317 1.381 . S
C319 C318 1.387 . S
C319 H345 0.931 . S
C320 C317 1.487 . S
C320 C327 1.399 . S
C320 N358 1.343 . S
C321 C322 1.384 . S
C321 C323 1.384 . S
C321 H346 0.931 . S
C322 C321 1.384 . S
C322 C325 1.382 . S
C323 C321 1.384 . S
C323 C324 1.381 . S
C323 H347 0.930 . S
C324 C323 1.381 . S
C324 C326 1.381 . S
C324 C327 1.487 . S
C325 C322 1.382 . S
C325 C326 1.387 . S
C325 H348 0.930 . S
C326 C324 1.381 . S
C326 C325 1.387 . S
C326 H349 0.931 . S
C327 C320 1.399 . S
C327 C324 1.487 . S
C327 N359 1.343 . S
C328 C329 1.384 . S
C328 C330 1.384 . S
C328 H350 0.931 . S
C329 C328 1.384 . S
C329 C332 1.382 . S
C330 C328 1.384 . S
C330 C331 1.381 . S
C330 H351 0.930 . S
C331 C330 1.381 . S
C331 C333 1.381 . S
C331 C334 1.487 . S
C332 C329 1.382 . S
C332 C333 1.387 . S
C332 H352 0.930 . S
C333 C331 1.381 . S
C333 C332 1.387 . S
C333 H353 0.931 . S
C334 C331 1.487 . S
C334 C341 1.399 . S
C334 N359 1.343 . S
C335 C336 1.384 . S
C335 C337 1.384 . S
C335 H354 0.931 . S
C336 C335 1.384 . S
C336 C339 1.382 . S
C337 C335 1.384 . S
C337 C338 1.381 . S
C337 H355 0.930 . S
C338 C337 1.381 . S
C338 C340 1.381 . S
C338 C341 1.487 . S
C339 C336 1.382 . S
C339 C340 1.387 . S
C339 H356 0.930 . S
C340 C338 1.381 . S
C340 C339 1.387 . S
C340 H357 0.931 . S
C341 C334 1.399 . S
C341 C338 1.487 . S
C341 N358 1.343 . S
H342 C314 0.931 . S
H343 C316 0.930 . S
H344 C318 0.930 . S
H345 C319 0.931 . S
H346 C321 0.931 . S
H347 C323 0.930 . S
H348 C325 0.930 . S
H349 C326 0.931 . S
H350 C328 0.931 . S
H351 C330 0.930 . S
H352 C332 0.930 . S
H353 C333 0.931 . S
H354 C335 0.931 . S
H355 C337 0.930 . S
H356 C339 0.930 . S
H357 C340 0.931 . S
N358 C320 1.343 . S
N358 C341 1.343 . S
N359 C327 1.343 . S
N359 C334 1.343 . S
C360 C361 1.391 . S
C360 C362 1.394 . S
C360 H376 0.931 . S
C361 C360 1.391 . S
C361 C365 1.376 . S
C362 C360 1.394 . S
C362 C363 1.369 . S
C362 C366 1.531 . S
C363 C362 1.369 . S
C363 C364 1.410 . S
C363 C371 1.503 . S
C364 C363 1.410 . S
C364 C365 1.392 . S
C364 C367 1.511 . S
C365 C361 1.376 . S
C365 C364 1.392 . S
C365 H377 0.929 . S
C366 C362 1.531 . S
C366 H378 0.960 . S
C366 H379 0.962 . S
C366 H380 0.960 . S
C367 C364 1.511 . S
C367 H381 0.961 . S
C367 H382 0.961 . S
C367 H383 0.961 . S
C368 C369 1.370 . S
C368 C370 1.363 . S
C368 H384 0.931 . S
C369 C368 1.370 . S
C369 C373 1.408 . S
C370 C368 1.363 . S
C370 C371 1.370 . S
C370 C374 1.524 . S
C371 C363 1.503 . S
C371 C370 1.370 . S
C371 C372 1.403 . S
C372 C371 1.403 . S
C372 C373 1.404 . S
C372 C375 1.539 . S
C373 C369 1.408 . S
C373 C372 1.404 . S
C373 H385 0.930 . S
C374 C370 1.524 . S
C374 H386 0.956 . S
C374 H387 0.961 . S
C374 H388 0.961 . S
C375 C372 1.539 . S
C375 H389 0.958 . S
C375 H390 0.961 . S
C375 H391 0.960 . S
H376 C360 0.931 . S
H377 C365 0.929 . S
H378 C366 0.960 . S
H379 C366 0.962 . S
H380 C366 0.960 . S
H381 C367 0.961 . S
H382 C367 0.961 . S
H383 C367 0.961 . S
H384 C368 0.931 . S
H385 C373 0.930 . S
H386 C374 0.956 . S
H387 C374 0.961 . S
H388 C374 0.961 . S
H389 C375 0.958 . S
H390 C375 0.961 . S
H391 C375 0.960 . S
C392 C393 1.391 . S
C392 C394 1.394 . S
C392 H408 0.931 . S
C393 C392 1.391 . S
C393 C397 1.376 . S
C394 C392 1.394 . S
C394 C395 1.369 . S
C394 C398 1.531 . S
C395 C394 1.369 . S
C395 C396 1.410 . S
C395 C403 1.503 . S
C396 C395 1.410 . S
C396 C397 1.392 . S
C396 C399 1.511 . S
C397 C393 1.376 . S
C397 C396 1.392 . S
C397 H409 0.929 . S
C398 C394 1.531 . S
C398 H410 0.960 . S
C398 H411 0.962 . S
C398 H412 0.960 . S
C399 C396 1.511 . S
C399 H413 0.961 . S
C399 H414 0.961 . S
C399 H415 0.961 . S
C400 C401 1.370 . S
C400 C402 1.363 . S
C400 H416 0.931 . S
C401 C400 1.370 . S
C401 C405 1.408 . S
C402 C400 1.363 . S
C402 C403 1.370 . S
C402 C406 1.524 . S
C403 C395 1.503 . S
C403 C402 1.370 . S
C403 C404 1.403 . S
C404 C403 1.403 . S
C404 C405 1.404 . S
C404 C407 1.539 . S
C405 C401 1.408 . S
C405 C404 1.404 . S
C405 H417 0.930 . S
C406 C402 1.524 . S
C406 H418 0.956 . S
C406 H419 0.961 . S
C406 H420 0.961 . S
C407 C404 1.539 . S
C407 H421 0.958 . S
C407 H422 0.961 . S
C407 H423 0.960 . S
H408 C392 0.931 . S
H409 C397 0.929 . S
H410 C398 0.960 . S
H411 C398 0.962 . S
H412 C398 0.960 . S
H413 C399 0.961 . S
H414 C399 0.961 . S
H415 C399 0.961 . S
H416 C400 0.931 . S
H417 C405 0.930 . S
H418 C406 0.956 . S
H419 C406 0.961 . S
H420 C406 0.961 . S
H421 C407 0.958 . S
H422 C407 0.961 . S
H423 C407 0.960 . S
C424 C425 1.391 . S
C424 C426 1.394 . S
C424 H440 0.931 . S
C425 C424 1.391 . S
C425 C429 1.376 . S
C426 C424 1.394 . S
C426 C427 1.369 . S
C426 C430 1.531 . S
C427 C426 1.369 . S
C427 C428 1.410 . S
C427 C435 1.503 . S
C428 C427 1.410 . S
C428 C429 1.392 . S
C428 C431 1.511 . S
C429 C425 1.376 . S
C429 C428 1.392 . S
C429 H441 0.929 . S
C430 C426 1.531 . S
C430 H442 0.960 . S
C430 H443 0.962 . S
C430 H444 0.960 . S
C431 C428 1.511 . S
C431 H445 0.961 . S
C431 H446 0.961 . S
C431 H447 0.961 . S
C432 C433 1.370 . S
C432 C434 1.363 . S
C432 H448 0.931 . S
C433 C432 1.370 . S
C433 C437 1.408 . S
C434 C432 1.363 . S
C434 C435 1.370 . S
C434 C438 1.524 . S
C435 C427 1.503 . S
C435 C434 1.370 . S
C435 C436 1.403 . S
C436 C435 1.403 . S
C436 C437 1.404 . S
C436 C439 1.539 . S
C437 C433 1.408 . S
C437 C436 1.404 . S
C437 H449 0.930 . S
C438 C434 1.524 . S
C438 H450 0.956 . S
C438 H451 0.961 . S
C438 H452 0.961 . S
C439 C436 1.539 . S
C439 H453 0.958 . S
C439 H454 0.961 . S
C439 H455 0.960 . S
H440 C424 0.931 . S
H441 C429 0.929 . S
H442 C430 0.960 . S
H443 C430 0.962 . S
H444 C430 0.960 . S
H445 C431 0.961 . S
H446 C431 0.961 . S
H447 C431 0.961 . S
H448 C432 0.931 . S
H449 C437 0.930 . S
H450 C438 0.956 . S
H451 C438 0.961 . S
H452 C438 0.961 . S
H453 C439 0.958 . S
H454 C439 0.961 . S
H455 C439 0.960 . S
C456 C457 1.391 . S
C456 C458 1.394 . S
C456 H472 0.931 . S
C457 C456 1.391 . S
C457 C461 1.376 . S
C458 C456 1.394 . S
C458 C459 1.369 . S
C458 C462 1.531 . S
C459 C458 1.369 . S
C459 C460 1.410 . S
C459 C467 1.503 . S
C460 C459 1.410 . S
C460 C461 1.392 . S
C460 C463 1.511 . S
C461 C457 1.376 . S
C461 C460 1.392 . S
C461 H473 0.929 . S
C462 C458 1.531 . S
C462 H474 0.960 . S
C462 H475 0.962 . S
C462 H476 0.960 . S
C463 C460 1.511 . S
C463 H477 0.961 . S
C463 H478 0.961 . S
C463 H479 0.961 . S
C464 C465 1.370 . S
C464 C466 1.363 . S
C464 H480 0.931 . S
C465 C464 1.370 . S
C465 C469 1.408 . S
C466 C464 1.363 . S
C466 C467 1.370 . S
C466 C470 1.524 . S
C467 C459 1.503 . S
C467 C466 1.370 . S
C467 C468 1.403 . S
C468 C467 1.403 . S
C468 C469 1.404 . S
C468 C471 1.539 . S
C469 C465 1.408 . S
C469 C468 1.404 . S
C469 H481 0.930 . S
C470 C466 1.524 . S
C470 H482 0.956 . S
C470 H483 0.961 . S
C470 H484 0.961 . S
C471 C468 1.539 . S
C471 H485 0.958 . S
C471 H486 0.961 . S
C471 H487 0.960 . S
H472 C456 0.931 . S
H473 C461 0.929 . S
H474 C462 0.960 . S
H475 C462 0.962 . S
H476 C462 0.960 . S
H477 C463 0.961 . S
H478 C463 0.961 . S
H479 C463 0.961 . S
H480 C464 0.931 . S
H481 C469 0.930 . S
H482 C470 0.956 . S
H483 C470 0.961 . S
H484 C470 0.961 . S
H485 C471 0.958 . S
H486 C471 0.961 . S
H487 C471 0.960 . S
C488 C489 1.391 . S
C488 C490 1.394 . S
C488 H504 0.931 . S
C489 C488 1.391 . S
C489 C493 1.376 . S
C490 C488 1.394 . S
C490 C491 1.369 . S
C490 C494 1.531 . S
C491 C490 1.369 . S
C491 C492 1.410 . S
C491 C499 1.503 . S
C492 C491 1.410 . S
C492 C493 1.392 . S
C492 C495 1.511 . S
C493 C489 1.376 . S
C493 C492 1.392 . S
C493 H505 0.929 . S
C494 C490 1.531 . S
C494 H506 0.960 . S
C494 H507 0.962 . S
C494 H508 0.960 . S
C495 C492 1.511 . S
C495 H509 0.961 . S
C495 H510 0.961 . S
C495 H511 0.961 . S
C496 C497 1.370 . S
C496 C498 1.363 . S
C496 H512 0.931 . S
C497 C496 1.370 . S
C497 C501 1.408 . S
C498 C496 1.363 . S
C498 C499 1.370 . S
C498 C502 1.524 . S
C499 C491 1.503 . S
C499 C498 1.370 . S
C499 C500 1.403 . S
C500 C499 1.403 . S
C500 C501 1.404 . S
C500 C503 1.539 . S
C501 C497 1.408 . S
C501 C500 1.404 . S
C501 H513 0.930 . S
C502 C498 1.524 . S
C502 H514 0.956 . S
C502 H515 0.961 . S
C502 H516 0.961 . S
C503 C500 1.539 . S
C503 H517 0.958 . S
C503 H518 0.961 . S
C503 H519 0.960 . S
H504 C488 0.931 . S
H505 C493 0.929 . S
H506 C494 0.960 . S
H507 C494 0.962 . S
H508 C494 0.960 . S
H509 C495 0.961 . S
H510 C495 0.961 . S
H511 C495 0.961 . S
H512 C496 0.931 . S
H513 C501 0.930 . S
H514 C502 0.956 . S
H515 C502 0.961 . S
H516 C502 0.961 . S
H517 C503 0.958 . S
H518 C503 0.961 . S
H519 C503 0.960 . S
C520 C521 1.391 . S
C520 C522 1.394 . S
C520 H536 0.931 . S
C521 C520 1.391 . S
C521 C525 1.376 . S
C522 C520 1.394 . S
C522 C523 1.369 . S
C522 C526 1.531 . S
C523 C522 1.369 . S
C523 C524 1.410 . S
C523 C531 1.503 . S
C524 C523 1.410 . S
C524 C525 1.392 . S
C524 C527 1.511 . S
C525 C521 1.376 . S
C525 C524 1.392 . S
C525 H537 0.929 . S
C526 C522 1.531 . S
C526 H538 0.960 . S
C526 H539 0.962 . S
C526 H540 0.960 . S
C527 C524 1.511 . S
C527 H541 0.961 . S
C527 H542 0.961 . S
C527 H543 0.961 . S
C528 C529 1.370 . S
C528 C530 1.363 . S
C528 H544 0.931 . S
C529 C528 1.370 . S
C529 C533 1.408 . S
C530 C528 1.363 . S
C530 C531 1.370 . S
C530 C534 1.524 . S
C531 C523 1.503 . S
C531 C530 1.370 . S
C531 C532 1.403 . S
C532 C531 1.403 . S
C532 C533 1.404 . S
C532 C535 1.539 . S
C533 C529 1.408 . S
C533 C532 1.404 . S
C533 H545 0.930 . S
C534 C530 1.524 . S
C534 H546 0.956 . S
C534 H547 0.961 . S
C534 H548 0.961 . S
C535 C532 1.539 . S
C535 H549 0.958 . S
C535 H550 0.961 . S
C535 H551 0.960 . S
H536 C520 0.931 . S
H537 C525 0.929 . S
H538 C526 0.960 . S
H539 C526 0.962 . S
H540 C526 0.960 . S
H541 C527 0.961 . S
H542 C527 0.961 . S
H543 C527 0.961 . S
H544 C528 0.931 . S
H545 C533 0.930 . S
H546 C534 0.956 . S
H547 C534 0.961 . S
H548 C534 0.961 . S
H549 C535 0.958 . S
H550 C535 0.961 . S
H551 C535 0.960 . S
C552 C553 1.391 . S
C552 C554 1.394 . S
C552 H568 0.931 . S
C553 C552 1.391 . S
C553 C557 1.376 . S
C554 C552 1.394 . S
C554 C555 1.369 . S
C554 C558 1.531 . S
C555 C554 1.369 . S
C555 C556 1.410 . S
C555 C563 1.503 . S
C556 C555 1.410 . S
C556 C557 1.392 . S
C556 C559 1.511 . S
C557 C553 1.376 . S
C557 C556 1.392 . S
C557 H569 0.929 . S
C558 C554 1.531 . S
C558 H570 0.960 . S
C558 H571 0.962 . S
C558 H572 0.960 . S
C559 C556 1.511 . S
C559 H573 0.961 . S
C559 H574 0.961 . S
C559 H575 0.961 . S
C560 C561 1.370 . S
C560 C562 1.363 . S
C560 H576 0.931 . S
C561 C560 1.370 . S
C561 C565 1.408 . S
C562 C560 1.363 . S
C562 C563 1.370 . S
C562 C566 1.524 . S
C563 C555 1.503 . S
C563 C562 1.370 . S
C563 C564 1.403 . S
C564 C563 1.403 . S
C564 C565 1.404 . S
C564 C567 1.539 . S
C565 C561 1.408 . S
C565 C564 1.404 . S
C565 H577 0.930 . S
C566 C562 1.524 . S
C566 H578 0.956 . S
C566 H579 0.961 . S
C566 H580 0.961 . S
C567 C564 1.539 . S
C567 H581 0.958 . S
C567 H582 0.961 . S
C567 H583 0.960 . S
H568 C552 0.931 . S
H569 C557 0.929 . S
H570 C558 0.960 . S
H571 C558 0.962 . S
H572 C558 0.960 . S
H573 C559 0.961 . S
H574 C559 0.961 . S
H575 C559 0.961 . S
H576 C560 0.931 . S
H577 C565 0.930 . S
H578 C566 0.956 . S
H579 C566 0.961 . S
H580 C566 0.961 . S
H581 C567 0.958 . S
H582 C567 0.961 . S
H583 C567 0.960 . S
C584 C585 1.391 . S
C584 C586 1.394 . S
C584 H600 0.931 . S
C585 C584 1.391 . S
C585 C589 1.376 . S
C586 C584 1.394 . S
C586 C587 1.369 . S
C586 C590 1.531 . S
C587 C586 1.369 . S
C587 C588 1.410 . S
C587 C595 1.503 . S
C588 C587 1.410 . S
C588 C589 1.392 . S
C588 C591 1.511 . S
C589 C585 1.376 . S
C589 C588 1.392 . S
C589 H601 0.929 . S
C590 C586 1.531 . S
C590 H602 0.960 . S
C590 H603 0.962 . S
C590 H604 0.960 . S
C591 C588 1.511 . S
C591 H605 0.961 . S
C591 H606 0.961 . S
C591 H607 0.961 . S
C592 C593 1.370 . S
C592 C594 1.363 . S
C592 H608 0.931 . S
C593 C592 1.370 . S
C593 C597 1.408 . S
C594 C592 1.363 . S
C594 C595 1.370 . S
C594 C598 1.524 . S
C595 C587 1.503 . S
C595 C594 1.370 . S
C595 C596 1.403 . S
C596 C595 1.403 . S
C596 C597 1.404 . S
C596 C599 1.539 . S
C597 C593 1.408 . S
C597 C596 1.404 . S
C597 H609 0.930 . S
C598 C594 1.524 . S
C598 H610 0.956 . S
C598 H611 0.961 . S
C598 H612 0.961 . S
C599 C596 1.539 . S
C599 H613 0.958 . S
C599 H614 0.961 . S
C599 H615 0.960 . S
H600 C584 0.931 . S
H601 C589 0.929 . S
H602 C590 0.960 . S
H603 C590 0.962 . S
H604 C590 0.960 . S
H605 C591 0.961 . S
H606 C591 0.961 . S
H607 C591 0.961 . S
H608 C592 0.931 . S
H609 C597 0.930 . S
H610 C598 0.956 . S
H611 C598 0.961 . S
H612 C598 0.961 . S
H613 C599 0.958 . S
H614 C599 0.961 . S
H615 C599 0.960 . S
C616 C617 1.391 . S
C616 C618 1.394 . S
C616 H632 0.931 . S
C617 C616 1.391 . S
C617 C621 1.376 . S
C618 C616 1.394 . S
C618 C619 1.369 . S
C618 C622 1.531 . S
C619 C618 1.369 . S
C619 C620 1.410 . S
C619 C627 1.503 . S
C620 C619 1.410 . S
C620 C621 1.392 . S
C620 C623 1.511 . S
C621 C617 1.376 . S
C621 C620 1.392 . S
C621 H633 0.929 . S
C622 C618 1.531 . S
C622 H634 0.960 . S
C622 H635 0.962 . S
C622 H636 0.960 . S
C623 C620 1.511 . S
C623 H637 0.961 . S
C623 H638 0.961 . S
C623 H639 0.961 . S
C624 C625 1.370 . S
C624 C626 1.363 . S
C624 H640 0.931 . S
C625 C624 1.370 . S
C625 C629 1.408 . S
C626 C624 1.363 . S
C626 C627 1.370 . S
C626 C630 1.524 . S
C627 C619 1.503 . S
C627 C626 1.370 . S
C627 C628 1.403 . S
C628 C627 1.403 . S
C628 C629 1.404 . S
C628 C631 1.539 . S
C629 C625 1.408 . S
C629 C628 1.404 . S
C629 H641 0.930 . S
C630 C626 1.524 . S
C630 H642 0.956 . S
C630 H643 0.961 . S
C630 H644 0.961 . S
C631 C628 1.539 . S
C631 H645 0.958 . S
C631 H646 0.961 . S
C631 H647 0.960 . S
H632 C616 0.931 . S
H633 C621 0.929 . S
H634 C622 0.960 . S
H635 C622 0.962 . S
H636 C622 0.960 . S
H637 C623 0.961 . S
H638 C623 0.961 . S
H639 C623 0.961 . S
H640 C624 0.931 . S
H641 C629 0.930 . S
H642 C630 0.956 . S
H643 C630 0.961 . S
H644 C630 0.961 . S
H645 C631 0.958 . S
H646 C631 0.961 . S
H647 C631 0.960 . S
C648 C649 1.391 . S
C648 C650 1.394 . S
C648 H664 0.931 . S
C649 C648 1.391 . S
C649 C653 1.376 . S
C650 C648 1.394 . S
C650 C651 1.369 . S
C650 C654 1.531 . S
C651 C650 1.369 . S
C651 C652 1.410 . S
C651 C659 1.503 . S
C652 C651 1.410 . S
C652 C653 1.392 . S
C652 C655 1.511 . S
C653 C649 1.376 . S
C653 C652 1.392 . S
C653 H665 0.929 . S
C654 C650 1.531 . S
C654 H666 0.960 . S
C654 H667 0.962 . S
C654 H668 0.960 . S
C655 C652 1.511 . S
C655 H669 0.961 . S
C655 H670 0.961 . S
C655 H671 0.961 . S
C656 C657 1.370 . S
C656 C658 1.363 . S
C656 H672 0.931 . S
C657 C656 1.370 . S
C657 C661 1.408 . S
C658 C656 1.363 . S
C658 C659 1.370 . S
C658 C662 1.524 . S
C659 C651 1.503 . S
C659 C658 1.370 . S
C659 C660 1.403 . S
C660 C659 1.403 . S
C660 C661 1.404 . S
C660 C663 1.539 . S
C661 C657 1.408 . S
C661 C660 1.404 . S
C661 H673 0.930 . S
C662 C658 1.524 . S
C662 H674 0.956 . S
C662 H675 0.961 . S
C662 H676 0.961 . S
C663 C660 1.539 . S
C663 H677 0.958 . S
C663 H678 0.961 . S
C663 H679 0.960 . S
H664 C648 0.931 . S
H665 C653 0.929 . S
H666 C654 0.960 . S
H667 C654 0.962 . S
H668 C654 0.960 . S
H669 C655 0.961 . S
H670 C655 0.961 . S
H671 C655 0.961 . S
H672 C656 0.931 . S
H673 C661 0.930 . S
H674 C662 0.956 . S
H675 C662 0.961 . S
H676 C662 0.961 . S
H677 C663 0.958 . S
H678 C663 0.961 . S
H679 C663 0.960 . S
C680 C681 1.391 . S
C680 C682 1.394 . S
C680 H696 0.931 . S
C681 C680 1.391 . S
C681 C685 1.376 . S
C682 C680 1.394 . S
C682 C683 1.369 . S
C682 C686 1.531 . S
C683 C682 1.369 . S
C683 C684 1.410 . S
C683 C691 1.503 . S
C684 C683 1.410 . S
C684 C685 1.392 . S
C684 C687 1.511 . S
C685 C681 1.376 . S
C685 C684 1.392 . S
C685 H697 0.929 . S
C686 C682 1.531 . S
C686 H698 0.960 . S
C686 H699 0.962 . S
C686 H700 0.960 . S
C687 C684 1.511 . S
C687 H701 0.961 . S
C687 H702 0.961 . S
C687 H703 0.961 . S
C688 C689 1.370 . S
C688 C690 1.363 . S
C688 H704 0.931 . S
C689 C688 1.370 . S
C689 C693 1.408 . S
C690 C688 1.363 . S
C690 C691 1.370 . S
C690 C694 1.524 . S
C691 C683 1.503 . S
C691 C690 1.370 . S
C691 C692 1.403 . S
C692 C691 1.403 . S
C692 C693 1.404 . S
C692 C695 1.539 . S
C693 C689 1.408 . S
C693 C692 1.404 . S
C693 H705 0.930 . S
C694 C690 1.524 . S
C694 H706 0.956 . S
C694 H707 0.961 . S
C694 H708 0.961 . S
C695 C692 1.539 . S
C695 H709 0.958 . S
C695 H710 0.961 . S
C695 H711 0.960 . S
H696 C680 0.931 . S
H697 C685 0.929 . S
H698 C686 0.960 . S
H699 C686 0.962 . S
H700 C686 0.960 . S
H701 C687 0.961 . S
H702 C687 0.961 . S
H703 C687 0.961 . S
H704 C688 0.931 . S
H705 C693 0.930 . S
H706 C694 0.956 . S
H707 C694 0.961 . S
H708 C694 0.961 . S
H709 C695 0.958 . S
H710 C695 0.961 . S
H711 C695 0.960 . S
C712 C713 1.391 . S
C712 C714 1.394 . S
C712 H728 0.931 . S
C713 C712 1.391 . S
C713 C717 1.376 . S
C714 C712 1.394 . S
C714 C715 1.369 . S
C714 C718 1.531 . S
C715 C714 1.369 . S
C715 C716 1.410 . S
C715 C723 1.503 . S
C716 C715 1.410 . S
C716 C717 1.392 . S
C716 C719 1.511 . S
C717 C713 1.376 . S
C717 C716 1.392 . S
C717 H729 0.929 . S
C718 C714 1.531 . S
C718 H730 0.960 . S
C718 H731 0.962 . S
C718 H732 0.960 . S
C719 C716 1.511 . S
C719 H733 0.961 . S
C719 H734 0.961 . S
C719 H735 0.961 . S
C720 C721 1.370 . S
C720 C722 1.363 . S
C720 H736 0.931 . S
C721 C720 1.370 . S
C721 C725 1.408 . S
C722 C720 1.363 . S
C722 C723 1.370 . S
C722 C726 1.524 . S
C723 C715 1.503 . S
C723 C722 1.370 . S
C723 C724 1.403 . S
C724 C723 1.403 . S
C724 C725 1.404 . S
C724 C727 1.539 . S
C725 C721 1.408 . S
C725 C724 1.404 . S
C725 H737 0.930 . S
C726 C722 1.524 . S
C726 H738 0.956 . S
C726 H739 0.961 . S
C726 H740 0.961 . S
C727 C724 1.539 . S
C727 H741 0.958 . S
C727 H742 0.961 . S
C727 H743 0.960 . S
H728 C712 0.931 . S
H729 C717 0.929 . S
H730 C718 0.960 . S
H731 C718 0.962 . S
H732 C718 0.960 . S
H733 C719 0.961 . S
H734 C719 0.961 . S
H735 C719 0.961 . S
H736 C720 0.931 . S
H737 C725 0.930 . S
H738 C726 0.956 . S
H739 C726 0.961 . S
H740 C726 0.961 . S
H741 C727 0.958 . S
H742 C727 0.961 . S
H743 C727 0.960 . S
C744 C745 1.391 . S
C744 C746 1.394 . S
C744 H760 0.931 . S
C745 C744 1.391 . S
C745 C749 1.376 . S
C746 C744 1.394 . S
C746 C747 1.369 . S
C746 C750 1.531 . S
C747 C746 1.369 . S
C747 C748 1.410 . S
C747 C755 1.503 . S
C748 C747 1.410 . S
C748 C749 1.392 . S
C748 C751 1.511 . S
C749 C745 1.376 . S
C749 C748 1.392 . S
C749 H761 0.929 . S
C750 C746 1.531 . S
C750 H762 0.960 . S
C750 H763 0.962 . S
C750 H764 0.960 . S
C751 C748 1.511 . S
C751 H765 0.961 . S
C751 H766 0.961 . S
C751 H767 0.961 . S
C752 C753 1.370 . S
C752 C754 1.363 . S
C752 H768 0.931 . S
C753 C752 1.370 . S
C753 C757 1.408 . S
C754 C752 1.363 . S
C754 C755 1.370 . S
C754 C758 1.524 . S
C755 C747 1.503 . S
C755 C754 1.370 . S
C755 C756 1.403 . S
C756 C755 1.403 . S
C756 C757 1.404 . S
C756 C759 1.539 . S
C757 C753 1.408 . S
C757 C756 1.404 . S
C757 H769 0.930 . S
C758 C754 1.524 . S
C758 H770 0.956 . S
C758 H771 0.961 . S
C758 H772 0.961 . S
C759 C756 1.539 . S
C759 H773 0.958 . S
C759 H774 0.961 . S
C759 H775 0.960 . S
H760 C744 0.931 . S
H761 C749 0.929 . S
H762 C750 0.960 . S
H763 C750 0.962 . S
H764 C750 0.960 . S
H765 C751 0.961 . S
H766 C751 0.961 . S
H767 C751 0.961 . S
H768 C752 0.931 . S
H769 C757 0.930 . S
H770 C758 0.956 . S
H771 C758 0.961 . S
H772 C758 0.961 . S
H773 C759 0.958 . S
H774 C759 0.961 . S
H775 C759 0.960 . S
C776 C777 1.391 . S
C776 C778 1.394 . S
C776 H792 0.931 . S
C777 C776 1.391 . S
C777 C781 1.376 . S
C778 C776 1.394 . S
C778 C779 1.369 . S
C778 C782 1.531 . S
C779 C778 1.369 . S
C779 C780 1.410 . S
C779 C787 1.503 . S
C780 C779 1.410 . S
C780 C781 1.392 . S
C780 C783 1.511 . S
C781 C777 1.376 . S
C781 C780 1.392 . S
C781 H793 0.929 . S
C782 C778 1.531 . S
C782 H794 0.960 . S
C782 H795 0.962 . S
C782 H796 0.960 . S
C783 C780 1.511 . S
C783 H797 0.961 . S
C783 H798 0.961 . S
C783 H799 0.961 . S
C784 C785 1.370 . S
C784 C786 1.363 . S
C784 H800 0.931 . S
C785 C784 1.370 . S
C785 C789 1.408 . S
C786 C784 1.363 . S
C786 C787 1.370 . S
C786 C790 1.524 . S
C787 C779 1.503 . S
C787 C786 1.370 . S
C787 C788 1.403 . S
C788 C787 1.403 . S
C788 C789 1.404 . S
C788 C791 1.539 . S
C789 C785 1.408 . S
C789 C788 1.404 . S
C789 H801 0.930 . S
C790 C786 1.524 . S
C790 H802 0.956 . S
C790 H803 0.961 . S
C790 H804 0.961 . S
C791 C788 1.539 . S
C791 H805 0.958 . S
C791 H806 0.961 . S
C791 H807 0.960 . S
H792 C776 0.931 . S
H793 C781 0.929 . S
H794 C782 0.960 . S
H795 C782 0.962 . S
H796 C782 0.960 . S
H797 C783 0.961 . S
H798 C783 0.961 . S
H799 C783 0.961 . S
H800 C784 0.931 . S
H801 C789 0.930 . S
H802 C790 0.956 . S
H803 C790 0.961 . S
H804 C790 0.961 . S
H805 C791 0.958 . S
H806 C791 0.961 . S
H807 C791 0.960 . S
C808 C809 1.391 . S
C808 C810 1.394 . S
C808 H824 0.931 . S
C809 C808 1.391 . S
C809 C813 1.376 . S
C810 C808 1.394 . S
C810 C811 1.369 . S
C810 C814 1.531 . S
C811 C810 1.369 . S
C811 C812 1.410 . S
C811 C819 1.503 . S
C812 C811 1.410 . S
C812 C813 1.392 . S
C812 C815 1.511 . S
C813 C809 1.376 . S
C813 C812 1.392 . S
C813 H825 0.929 . S
C814 C810 1.531 . S
C814 H826 0.960 . S
C814 H827 0.962 . S
C814 H828 0.960 . S
C815 C812 1.511 . S
C815 H829 0.961 . S
C815 H830 0.961 . S
C815 H831 0.961 . S
C816 C817 1.370 . S
C816 C818 1.363 . S
C816 H832 0.931 . S
C817 C816 1.370 . S
C817 C821 1.408 . S
C818 C816 1.363 . S
C818 C819 1.370 . S
C818 C822 1.524 . S
C819 C811 1.503 . S
C819 C818 1.370 . S
C819 C820 1.403 . S
C820 C819 1.403 . S
C820 C821 1.404 . S
C820 C823 1.539 . S
C821 C817 1.408 . S
C821 C820 1.404 . S
C821 H833 0.930 . S
C822 C818 1.524 . S
C822 H834 0.956 . S
C822 H835 0.961 . S
C822 H836 0.961 . S
C823 C820 1.539 . S
C823 H837 0.958 . S
C823 H838 0.961 . S
C823 H839 0.960 . S
H824 C808 0.931 . S
H825 C813 0.929 . S
H826 C814 0.960 . S
H827 C814 0.962 . S
H828 C814 0.960 . S
H829 C815 0.961 . S
H830 C815 0.961 . S
H831 C815 0.961 . S
H832 C816 0.931 . S
H833 C821 0.930 . S
H834 C822 0.956 . S
H835 C822 0.961 . S
H836 C822 0.961 . S
H837 C823 0.958 . S
H838 C823 0.961 . S
H839 C823 0.960 . S
C840 C841 1.391 . S
C840 C842 1.394 . S
C840 H856 0.931 . S
C841 C840 1.391 . S
C841 C845 1.376 . S
C842 C840 1.394 . S
C842 C843 1.369 . S
C842 C846 1.531 . S
C843 C842 1.369 . S
C843 C844 1.410 . S
C843 C851 1.503 . S
C844 C843 1.410 . S
C844 C845 1.392 . S
C844 C847 1.511 . S
C845 C841 1.376 . S
C845 C844 1.392 . S
C845 H857 0.929 . S
C846 C842 1.531 . S
C846 H858 0.960 . S
C846 H859 0.962 . S
C846 H860 0.960 . S
C847 C844 1.511 . S
C847 H861 0.961 . S
C847 H862 0.961 . S
C847 H863 0.961 . S
C848 C849 1.370 . S
C848 C850 1.363 . S
C848 H864 0.931 . S
C849 C848 1.370 . S
C849 C853 1.408 . S
C850 C848 1.363 . S
C850 C851 1.370 . S
C850 C854 1.524 . S
C851 C843 1.503 . S
C851 C850 1.370 . S
C851 C852 1.403 . S
C852 C851 1.403 . S
C852 C853 1.404 . S
C852 C855 1.539 . S
C853 C849 1.408 . S
C853 C852 1.404 . S
C853 H865 0.930 . S
C854 C850 1.524 . S
C854 H866 0.956 . S
C854 H867 0.961 . S
C854 H868 0.961 . S
C855 C852 1.539 . S
C855 H869 0.958 . S
C855 H870 0.961 . S
C855 H871 0.960 . S
H856 C840 0.931 . S
H857 C845 0.929 . S
H858 C846 0.960 . S
H859 C846 0.962 . S
H860 C846 0.960 . S
H861 C847 0.961 . S
H862 C847 0.961 . S
H863 C847 0.961 . S
H864 C848 0.931 . S
H865 C853 0.930 . S
H866 C854 0.956 . S
H867 C854 0.961 . S
H868 C854 0.961 . S
H869 C855 0.958 . S
H870 C855 0.961 . S
H871 C855 0.960 . S
C872 C873 1.391 . S
C872 C874 1.394 . S
C872 H888 0.931 . S
C873 C872 1.391 . S
C873 C877 1.376 . S
C874 C872 1.394 . S
C874 C875 1.369 . S
C874 C878 1.531 . S
C875 C874 1.369 . S
C875 C876 1.410 . S
C875 C883 1.503 . S
C876 C875 1.410 . S
C876 C877 1.392 . S
C876 C879 1.511 . S
C877 C873 1.376 . S
C877 C876 1.392 . S
C877 H889 0.929 . S
C878 C874 1.531 . S
C878 H890 0.960 . S
C878 H891 0.962 . S
C878 H892 0.960 . S
C879 C876 1.511 . S
C879 H893 0.961 . S
C879 H894 0.961 . S
C879 H895 0.961 . S
C880 C881 1.370 . S
C880 C882 1.363 . S
C880 H896 0.931 . S
C881 C880 1.370 . S
C881 C885 1.408 . S
C882 C880 1.363 . S
C882 C883 1.370 . S
C882 C886 1.524 . S
C883 C875 1.503 . S
C883 C882 1.370 . S
C883 C884 1.403 . S
C884 C883 1.403 . S
C884 C885 1.404 . S
C884 C887 1.539 . S
C885 C881 1.408 . S
C885 C884 1.404 . S
C885 H897 0.930 . S
C886 C882 1.524 . S
C886 H898 0.956 . S
C886 H899 0.961 . S
C886 H900 0.961 . S
C887 C884 1.539 . S
C887 H901 0.958 . S
C887 H902 0.961 . S
C887 H903 0.960 . S
H888 C872 0.931 . S
H889 C877 0.929 . S
H890 C878 0.960 . S
H891 C878 0.962 . S
H892 C878 0.960 . S
H893 C879 0.961 . S
H894 C879 0.961 . S
H895 C879 0.961 . S
H896 C880 0.931 . S
H897 C885 0.930 . S
H898 C886 0.956 . S
H899 C886 0.961 . S
H900 C886 0.961 . S
H901 C887 0.958 . S
H902 C887 0.961 . S
H903 C887 0.960 . S
C904 C905 1.391 . S
C904 C906 1.394 . S
C904 H920 0.931 . S
C905 C904 1.391 . S
C905 C909 1.376 . S
C906 C904 1.394 . S
C906 C907 1.369 . S
C906 C910 1.531 . S
C907 C906 1.369 . S
C907 C908 1.410 . S
C907 C915 1.503 . S
C908 C907 1.410 . S
C908 C909 1.392 . S
C908 C911 1.511 . S
C909 C905 1.376 . S
C909 C908 1.392 . S
C909 H921 0.929 . S
C910 C906 1.531 . S
C910 H922 0.960 . S
C910 H923 0.962 . S
C910 H924 0.960 . S
C911 C908 1.511 . S
C911 H925 0.961 . S
C911 H926 0.961 . S
C911 H927 0.961 . S
C912 C913 1.370 . S
C912 C914 1.363 . S
C912 H928 0.931 . S
C913 C912 1.370 . S
C913 C917 1.408 . S
C914 C912 1.363 . S
C914 C915 1.370 . S
C914 C918 1.524 . S
C915 C907 1.503 . S
C915 C914 1.370 . S
C915 C916 1.403 . S
C916 C915 1.403 . S
C916 C917 1.404 . S
C916 C919 1.539 . S
C917 C913 1.408 . S
C917 C916 1.404 . S
C917 H929 0.930 . S
C918 C914 1.524 . S
C918 H930 0.956 . S
C918 H931 0.961 . S
C918 H932 0.961 . S
C919 C916 1.539 . S
C919 H933 0.958 . S
C919 H934 0.961 . S
C919 H935 0.960 . S
H920 C904 0.931 . S
H921 C909 0.929 . S
H922 C910 0.960 . S
H923 C910 0.962 . S
H924 C910 0.960 . S
H925 C911 0.961 . S
H926 C911 0.961 . S
H927 C911 0.961 . S
H928 C912 0.931 . S
H929 C917 0.930 . S
H930 C918 0.956 . S
H931 C918 0.961 . S
H932 C918 0.961 . S
H933 C919 0.958 . S
H934 C919 0.961 . S
H935 C919 0.960 . S
C936 C937 1.391 . S
C936 C938 1.394 . S
C936 H952 0.931 . S
C937 C936 1.391 . S
C937 C941 1.376 . S
C938 C936 1.394 . S
C938 C939 1.369 . S
C938 C942 1.531 . S
C939 C938 1.369 . S
C939 C940 1.410 . S
C939 C947 1.503 . S
C940 C939 1.410 . S
C940 C941 1.392 . S
C940 C943 1.511 . S
C941 C937 1.376 . S
C941 C940 1.392 . S
C941 H953 0.929 . S
C942 C938 1.531 . S
C942 H954 0.960 . S
C942 H955 0.962 . S
C942 H956 0.960 . S
C943 C940 1.511 . S
C943 H957 0.961 . S
C943 H958 0.961 . S
C943 H959 0.961 . S
C944 C945 1.370 . S
C944 C946 1.363 . S
C944 H960 0.931 . S
C945 C944 1.370 . S
C945 C949 1.408 . S
C946 C944 1.363 . S
C946 C947 1.370 . S
C946 C950 1.524 . S
C947 C939 1.503 . S
C947 C946 1.370 . S
C947 C948 1.403 . S
C948 C947 1.403 . S
C948 C949 1.404 . S
C948 C951 1.539 . S
C949 C945 1.408 . S
C949 C948 1.404 . S
C949 H961 0.930 . S
C950 C946 1.524 . S
C950 H962 0.956 . S
C950 H963 0.961 . S
C950 H964 0.961 . S
C951 C948 1.539 . S
C951 H965 0.958 . S
C951 H966 0.961 . S
C951 H967 0.960 . S
H952 C936 0.931 . S
H953 C941 0.929 . S
H954 C942 0.960 . S
H955 C942 0.962 . S
H956 C942 0.960 . S
H957 C943 0.961 . S
H958 C943 0.961 . S
H959 C943 0.961 . S
H960 C944 0.931 . S
H961 C949 0.930 . S
H962 C950 0.956 . S
H963 C950 0.961 . S
H964 C950 0.961 . S
H965 C951 0.958 . S
H966 C951 0.961 . S
H967 C951 0.960 . S
C968 C969 1.391 . S
C968 C970 1.394 . S
C968 H984 0.931 . S
C969 C968 1.391 . S
C969 C973 1.376 . S
C970 C968 1.394 . S
C970 C971 1.369 . S
C970 C974 1.531 . S
C971 C970 1.369 . S
C971 C972 1.410 . S
C971 C979 1.503 . S
C972 C971 1.410 . S
C972 C973 1.392 . S
C972 C975 1.511 . S
C973 C969 1.376 . S
C973 C972 1.392 . S
C973 H985 0.929 . S
C974 C970 1.531 . S
C974 H986 0.960 . S
C974 H987 0.962 . S
C974 H988 0.960 . S
C975 C972 1.511 . S
C975 H989 0.961 . S
C975 H990 0.961 . S
C975 H991 0.961 . S
C976 C977 1.370 . S
C976 C978 1.363 . S
C976 H992 0.931 . S
C977 C976 1.370 . S
C977 C981 1.408 . S
C978 C976 1.363 . S
C978 C979 1.370 . S
C978 C982 1.524 . S
C979 C971 1.503 . S
C979 C978 1.370 . S
C979 C980 1.403 . S
C980 C979 1.403 . S
C980 C981 1.404 . S
C980 C983 1.539 . S
C981 C977 1.408 . S
C981 C980 1.404 . S
C981 H993 0.930 . S
C982 C978 1.524 . S
C982 H994 0.956 . S
C982 H995 0.961 . S
C982 H996 0.961 . S
C983 C980 1.539 . S
C983 H997 0.958 . S
C983 H998 0.961 . S
C983 H999 0.960 . S
H984 C968 0.931 . S
H985 C973 0.929 . S
H986 C974 0.960 . S
H987 C974 0.962 . S
H988 C974 0.960 . S
H989 C975 0.961 . S
H990 C975 0.961 . S
H991 C975 0.961 . S
H992 C976 0.931 . S
H993 C981 0.930 . S
H994 C982 0.956 . S
H995 C982 0.961 . S
H996 C982 0.961 . S
H997 C983 0.958 . S
H998 C983 0.961 . S
H999 C983 0.960 . S
C1000 C1001 1.391 . S
C1000 C1002 1.394 . S
C1000 H1016 0.931 . S
C1001 C1000 1.391 . S
C1001 C1005 1.376 . S
C1002 C1000 1.394 . S
C1002 C1003 1.369 . S
C1002 C1006 1.531 . S
C1003 C1002 1.369 . S
C1003 C1004 1.410 . S
C1003 C1011 1.503 . S
C1004 C1003 1.410 . S
C1004 C1005 1.392 . S
C1004 C1007 1.511 . S
C1005 C1001 1.376 . S
C1005 C1004 1.392 . S
C1005 H1017 0.929 . S
C1006 C1002 1.531 . S
C1006 H1018 0.960 . S
C1006 H1019 0.962 . S
C1006 H1020 0.960 . S
C1007 C1004 1.511 . S
C1007 H1021 0.961 . S
C1007 H1022 0.961 . S
C1007 H1023 0.961 . S
C1008 C1009 1.370 . S
C1008 C1010 1.363 . S
C1008 H1024 0.931 . S
C1009 C1008 1.370 . S
C1009 C1013 1.408 . S
C1010 C1008 1.363 . S
C1010 C1011 1.370 . S
C1010 C1014 1.524 . S
C1011 C1003 1.503 . S
C1011 C1010 1.370 . S
C1011 C1012 1.403 . S
C1012 C1011 1.403 . S
C1012 C1013 1.404 . S
C1012 C1015 1.539 . S
C1013 C1009 1.408 . S
C1013 C1012 1.404 . S
C1013 H1025 0.930 . S
C1014 C1010 1.524 . S
C1014 H1026 0.956 . S
C1014 H1027 0.961 . S
C1014 H1028 0.961 . S
C1015 C1012 1.539 . S
C1015 H1029 0.958 . S
C1015 H1030 0.961 . S
C1015 H1031 0.960 . S
H1016 C1000 0.931 . S
H1017 C1005 0.929 . S
H1018 C1006 0.960 . S
H1019 C1006 0.962 . S
H1020 C1006 0.960 . S
H1021 C1007 0.961 . S
H1022 C1007 0.961 . S
H1023 C1007 0.961 . S
H1024 C1008 0.931 . S
H1025 C1013 0.930 . S
H1026 C1014 0.956 . S
H1027 C1014 0.961 . S
H1028 C1014 0.961 . S
H1029 C1015 0.958 . S
H1030 C1015 0.961 . S
H1031 C1015 0.960 . S
C1032 C1033 1.391 . S
C1032 C1034 1.394 . S
C1032 H1048 0.931 . S
C1033 C1032 1.391 . S
C1033 C1037 1.376 . S
C1034 C1032 1.394 . S
C1034 C1035 1.369 . S
C1034 C1038 1.531 . S
C1035 C1034 1.369 . S
C1035 C1036 1.410 . S
C1035 C1043 1.503 . S
C1036 C1035 1.410 . S
C1036 C1037 1.392 . S
C1036 C1039 1.511 . S
C1037 C1033 1.376 . S
C1037 C1036 1.392 . S
C1037 H1049 0.929 . S
C1038 C1034 1.531 . S
C1038 H1050 0.960 . S
C1038 H1051 0.962 . S
C1038 H1052 0.960 . S
C1039 C1036 1.511 . S
C1039 H1053 0.961 . S
C1039 H1054 0.961 . S
C1039 H1055 0.961 . S
C1040 C1041 1.370 . S
C1040 C1042 1.363 . S
C1040 H1056 0.931 . S
C1041 C1040 1.370 . S
C1041 C1045 1.408 . S
C1042 C1040 1.363 . S
C1042 C1043 1.370 . S
C1042 C1046 1.524 . S
C1043 C1035 1.503 . S
C1043 C1042 1.370 . S
C1043 C1044 1.403 . S
C1044 C1043 1.403 . S
C1044 C1045 1.404 . S
C1044 C1047 1.539 . S
C1045 C1041 1.408 . S
C1045 C1044 1.404 . S
C1045 H1057 0.930 . S
C1046 C1042 1.524 . S
C1046 H1058 0.956 . S
C1046 H1059 0.961 . S
C1046 H1060 0.961 . S
C1047 C1044 1.539 . S
C1047 H1061 0.958 . S
C1047 H1062 0.961 . S
C1047 H1063 0.960 . S
H1048 C1032 0.931 . S
H1049 C1037 0.929 . S
H1050 C1038 0.960 . S
H1051 C1038 0.962 . S
H1052 C1038 0.960 . S
H1053 C1039 0.961 . S
H1054 C1039 0.961 . S
H1055 C1039 0.961 . S
H1056 C1040 0.931 . S
H1057 C1045 0.930 . S
H1058 C1046 0.956 . S
H1059 C1046 0.961 . S
H1060 C1046 0.961 . S
H1061 C1047 0.958 . S
H1062 C1047 0.961 . S
H1063 C1047 0.960 . S
C1064 C1065 1.391 . S
C1064 C1066 1.394 . S
C1064 H1080 0.931 . S
C1065 C1064 1.391 . S
C1065 C1069 1.376 . S
C1066 C1064 1.394 . S
C1066 C1067 1.369 . S
C1066 C1070 1.531 . S
C1067 C1066 1.369 . S
C1067 C1068 1.410 . S
C1067 C1075 1.503 . S
C1068 C1067 1.410 . S
C1068 C1069 1.392 . S
C1068 C1071 1.511 . S
C1069 C1065 1.376 . S
C1069 C1068 1.392 . S
C1069 H1081 0.929 . S
C1070 C1066 1.531 . S
C1070 H1082 0.960 . S
C1070 H1083 0.962 . S
C1070 H1084 0.960 . S
C1071 C1068 1.511 . S
C1071 H1085 0.961 . S
C1071 H1086 0.961 . S
C1071 H1087 0.961 . S
C1072 C1073 1.370 . S
C1072 C1074 1.363 . S
C1072 H1088 0.931 . S
C1073 C1072 1.370 . S
C1073 C1077 1.408 . S
C1074 C1072 1.363 . S
C1074 C1075 1.370 . S
C1074 C1078 1.524 . S
C1075 C1067 1.503 . S
C1075 C1074 1.370 . S
C1075 C1076 1.403 . S
C1076 C1075 1.403 . S
C1076 C1077 1.404 . S
C1076 C1079 1.539 . S
C1077 C1073 1.408 . S
C1077 C1076 1.404 . S
C1077 H1089 0.930 . S
C1078 C1074 1.524 . S
C1078 H1090 0.956 . S
C1078 H1091 0.961 . S
C1078 H1092 0.961 . S
C1079 C1076 1.539 . S
C1079 H1093 0.958 . S
C1079 H1094 0.961 . S
C1079 H1095 0.960 . S
H1080 C1064 0.931 . S
H1081 C1069 0.929 . S
H1082 C1070 0.960 . S
H1083 C1070 0.962 . S
H1084 C1070 0.960 . S
H1085 C1071 0.961 . S
H1086 C1071 0.961 . S
H1087 C1071 0.961 . S
H1088 C1072 0.931 . S
H1089 C1077 0.930 . S
H1090 C1078 0.956 . S
H1091 C1078 0.961 . S
H1092 C1078 0.961 . S
H1093 C1079 0.958 . S
H1094 C1079 0.961 . S
H1095 C1079 0.960 . S
C1096 C1097 1.391 . S
C1096 C1098 1.394 . S
C1096 H1112 0.931 . S
C1097 C1096 1.391 . S
C1097 C1101 1.376 . S
C1098 C1096 1.394 . S
C1098 C1099 1.369 . S
C1098 C1102 1.531 . S
C1099 C1098 1.369 . S
C1099 C1100 1.410 . S
C1099 C1107 1.503 . S
C1100 C1099 1.410 . S
C1100 C1101 1.392 . S
C1100 C1103 1.511 . S
C1101 C1097 1.376 . S
C1101 C1100 1.392 . S
C1101 H1113 0.929 . S
C1102 C1098 1.531 . S
C1102 H1114 0.960 . S
C1102 H1115 0.962 . S
C1102 H1116 0.960 . S
C1103 C1100 1.511 . S
C1103 H1117 0.961 . S
C1103 H1118 0.961 . S
C1103 H1119 0.961 . S
C1104 C1105 1.370 . S
C1104 C1106 1.363 . S
C1104 H1120 0.931 . S
C1105 C1104 1.370 . S
C1105 C1109 1.408 . S
C1106 C1104 1.363 . S
C1106 C1107 1.370 . S
C1106 C1110 1.524 . S
C1107 C1099 1.503 . S
C1107 C1106 1.370 . S
C1107 C1108 1.403 . S
C1108 C1107 1.403 . S
C1108 C1109 1.404 . S
C1108 C1111 1.539 . S
C1109 C1105 1.408 . S
C1109 C1108 1.404 . S
C1109 H1121 0.930 . S
C1110 C1106 1.524 . S
C1110 H1122 0.956 . S
C1110 H1123 0.961 . S
C1110 H1124 0.961 . S
C1111 C1108 1.539 . S
C1111 H1125 0.958 . S
C1111 H1126 0.961 . S
C1111 H1127 0.960 . S
H1112 C1096 0.931 . S
H1113 C1101 0.929 . S
H1114 C1102 0.960 . S
H1115 C1102 0.962 . S
H1116 C1102 0.960 . S
H1117 C1103 0.961 . S
H1118 C1103 0.961 . S
H1119 C1103 0.961 . S
H1120 C1104 0.931 . S
H1121 C1109 0.930 . S
H1122 C1110 0.956 . S
H1123 C1110 0.961 . S
H1124 C1110 0.961 . S
H1125 C1111 0.958 . S
H1126 C1111 0.961 . S
H1127 C1111 0.960 . S
C361 C13 1.748 . S
C369 C106 1.728 . S
C393 C27 1.749 . S
C401 C145 1.728 . S
C433 C177 1.703 . S
C425 C29 1.754 . S
C465 C223 1.716 . S
C457 C54 1.739 . S
C497 C290 1.734 . S
C489 C69 1.739 . S
C529 C329 1.721 . S
C521 C83 1.756 . S
C553 C15 1.737 . S
C561 C191 1.736 . S
C585 C41 1.751 . S
C593 C237 1.725 . S
C625 C276 1.697 . S
C617 C42 1.762 . S
C657 C315 1.704 . S
C649 C57 1.753 . S
C681 C71 1.748 . S
C689 C92 1.708 . S
C721 C131 1.712 . S
C713 C1 1.745 . S
C753 C230 1.734 . S
C745 C12 1.738 . S
C777 C26 1.737 . S
C785 C283 1.717 . S
C817 C336 1.718 . S
C809 C28 1.739 . S
C841 C55 1.738 . S
C849 C99 1.718 . S
C873 C68 1.762 . S
C881 C152 1.697 . S
C905 C82 1.753 . S
C913 C184 1.722 . S
C937 C14 1.762 . S
C945 C322 1.718 . S
C977 C85 1.735 . S
C969 C40 1.737 . S
C1001 C43 1.762 . S
C1009 C138 1.718 . S
C1033 C56 1.761 . S
C1041 C198 1.697 . S
C1065 C70 1.738 . S
C1073 C244 1.719 . S
C1097 C0 1.740 . S
C1105 C269 1.735 . S
