# Generated by pormake.
# Topology apo, (3,6)-cn, num edge types: 1
# Building blocks:
#     Node 0, Type 0, BuildingBlock: ESEHIV_clean_linker_0, # of connection points: 3
#     Node 1, Type 0, BuildingBlock: ESEHIV_clean_linker_0, # of connection points: 3
#     Node 2, Type 0, BuildingBlock: ESEHIV_clean_linker_0, # of connection points: 3
#     Node 3, Type 0, BuildingBlock: ESEHIV_clean_linker_0, # of connection points: 3
#     Node 4, Type 0, BuildingBlock: ESEHIV_clean_linker_0, # of connection points: 3
#     Node 5, Type 0, BuildingBlock: ESEHIV_clean_linker_0, # of connection points: 3
#     Node 6, Type 0, BuildingBlock: ESEHIV_clean_linker_0, # of connection points: 3
#     Node 7, Type 0, BuildingBlock: ESEHIV_clean_linker_0, # of connection points: 3
#     Node 8, Type 1, BuildingBlock: KUMBOL_clean_sbu_1, # of connection points: 6
#     Node 9, Type 1, BuildingBlock: KUMBOL_clean_sbu_1, # of connection points: 6
#     Node 10, Type 1, BuildingBlock: KUMBOL_clean_sbu_1, # of connection points: 6
#     Node 11, Type 1, BuildingBlock: KUMBOL_clean_sbu_1, # of connection points: 6
#     Edge 12, Type (0, 1), BuildingBlock: XIVTED_clean_linker_0, # of connection points: 2
#     Edge 13, Type (0, 1), BuildingBlock: XIVTED_clean_linker_0, # of connection points: 2
#     Edge 14, Type (0, 1), BuildingBlock: XIVTED_clean_linker_0, # of connection points: 2
#     Edge 15, Type (0, 1), BuildingBlock: XIVTED_clean_linker_0, # of connection points: 2
#     Edge 16, Type (0, 1), BuildingBlock: XIVTED_clean_linker_0, # of connection points: 2
#     Edge 17, Type (0, 1), BuildingBlock: XIVTED_clean_linker_0, # of connection points: 2
#     Edge 18, Type (0, 1), BuildingBlock: XIVTED_clean_linker_0, # of connection points: 2
#     Edge 19, Type (0, 1), BuildingBlock: XIVTED_clean_linker_0, # of connection points: 2
#     Edge 20, Type (0, 1), BuildingBlock: XIVTED_clean_linker_0, # of connection points: 2
#     Edge 21, Type (0, 1), BuildingBlock: XIVTED_clean_linker_0, # of connection points: 2
#     Edge 22, Type (0, 1), BuildingBlock: XIVTED_clean_linker_0, # of connection points: 2
#     Edge 23, Type (0, 1), BuildingBlock: XIVTED_clean_linker_0, # of connection points: 2
#     Edge 24, Type (0, 1), BuildingBlock: XIVTED_clean_linker_0, # of connection points: 2
#     Edge 25, Type (0, 1), BuildingBlock: XIVTED_clean_linker_0, # of connection points: 2
#     Edge 26, Type (0, 1), BuildingBlock: XIVTED_clean_linker_0, # of connection points: 2
#     Edge 27, Type (0, 1), BuildingBlock: XIVTED_clean_linker_0, # of connection points: 2
#     Edge 28, Type (0, 1), BuildingBlock: XIVTED_clean_linker_0, # of connection points: 2
#     Edge 29, Type (0, 1), BuildingBlock: XIVTED_clean_linker_0, # of connection points: 2
#     Edge 30, Type (0, 1), BuildingBlock: XIVTED_clean_linker_0, # of connection points: 2
#     Edge 31, Type (0, 1), BuildingBlock: XIVTED_clean_linker_0, # of connection points: 2
#     Edge 32, Type (0, 1), BuildingBlock: XIVTED_clean_linker_0, # of connection points: 2
#     Edge 33, Type (0, 1), BuildingBlock: XIVTED_clean_linker_0, # of connection points: 2
#     Edge 34, Type (0, 1), BuildingBlock: XIVTED_clean_linker_0, # of connection points: 2
#     Edge 35, Type (0, 1), BuildingBlock: XIVTED_clean_linker_0, # of connection points: 2
# Relax obj value: 0.008
# Max RMSD: 0.114
# Mean RMSD: 0.087
data_MOF--net-apo--node1-KUMBOL_clean_sbu_1--node2-ESEHIV_clean_linker_0--edge1-XIVTED_clean_linker_0
_symmetry_space_group_name_H-M    P1
_symmetry_Int_Tables_number       1
_symmetry_cell_setting            triclinic
loop_
_symmetry_equiv_pos_as_xyz
'x, y, z'
_cell_length_a     22.822928
_cell_length_b     40.25758
_cell_length_c     51.904925
_cell_angle_alpha  89.997601
_cell_angle_beta   89.985377
_cell_angle_gamma 90.264235
loop_
_atom_site_label
_atom_site_type_symbol
_atom_site_fract_x
_atom_site_fract_y
_atom_site_fract_z
_atom_type_partial_charge
H0 H 0.33114 0.42537 0.42363 0.0
H1 H 0.23675 0.39364 0.35626 0.0
H2 H 0.23802 0.33231 0.42409 0.0
C3 C 0.30312 0.40756 0.41389 0.0
C4 C 0.28387 0.37898 0.427 0.0
C5 C 0.28717 0.4126 0.38805 0.0
C6 C 0.25085 0.38917 0.37589 0.0
C7 C 0.23439 0.35956 0.38824 0.0
C8 C 0.25007 0.355 0.41412 0.0
H9 H 0.18459 0.06896 0.92528 0.0
H10 H 0.27046 0.10316 0.85671 0.0
H11 H 0.26116 0.16701 0.92295 0.0
C12 C 0.20836 0.08831 0.91515 0.0
C13 C 0.22145 0.11852 0.92763 0.0
C14 C 0.22536 0.08279 0.88952 0.0
C15 C 0.25762 0.10732 0.87655 0.0
C16 C 0.27085 0.13779 0.88846 0.0
C17 C 0.25298 0.14309 0.91406 0.0
H18 H 0.82655 0.07006 0.58119 0.0
H19 H 0.75831 0.1107 0.65117 0.0
H20 H 0.73738 0.16407 0.57965 0.0
C21 C 0.8024 0.08943 0.59103 0.0
C22 C 0.78327 0.11738 0.5774 0.0
C23 C 0.79345 0.0873 0.61758 0.0
C24 C 0.76356 0.11252 0.63046 0.0
C25 C 0.74163 0.14012 0.61706 0.0
C26 C 0.75282 0.14276 0.59038 0.0
H27 H 0.67207 0.42294 0.08181 0.0
H28 H 0.77515 0.3891 0.14615 0.0
H29 H 0.7621 0.3297 0.07811 0.0
C30 C 0.70175 0.40544 0.09062 0.0
C31 C 0.71843 0.37734 0.07634 0.0
C32 C 0.7204 0.40992 0.11626 0.0
C33 C 0.75704 0.3857 0.12708 0.0
C34 C 0.76935 0.35602 0.11413 0.0
C35 C 0.75148 0.35229 0.08842 0.0
H36 H 0.68051 0.57049 0.57981 0.0
H37 H 0.77022 0.66479 0.57836 0.0
H38 H 0.76356 0.60716 0.64816 0.0
C39 C 0.70575 0.58971 0.58939 0.0
C40 C 0.7207 0.58547 0.61539 0.0
C41 C 0.72274 0.61843 0.57583 0.0
C42 C 0.75702 0.64254 0.58856 0.0
C43 C 0.77282 0.63865 0.61462 0.0
C44 C 0.75444 0.60987 0.62778 0.0
H45 H 0.83281 0.92536 0.08241 0.0
H46 H 0.7465 0.88651 0.149 0.0
H47 H 0.73278 0.83449 0.07669 0.0
C48 C 0.80413 0.90681 0.09086 0.0
C49 C 0.78455 0.87959 0.07609 0.0
C50 C 0.78984 0.90951 0.11697 0.0
C51 C 0.75576 0.88469 0.12858 0.0
C52 C 0.73492 0.85737 0.11435 0.0
C53 C 0.74934 0.85511 0.08798 0.0
H54 H 0.17524 0.92569 0.42129 0.0
H55 H 0.26658 0.8328 0.42597 0.0
H56 H 0.25691 0.88529 0.35375 0.0
C57 C 0.20167 0.90673 0.41215 0.0
C58 C 0.21438 0.90883 0.3858 0.0
C59 C 0.22011 0.87933 0.42656 0.0
C60 C 0.25249 0.85395 0.41468 0.0
C61 C 0.26702 0.85616 0.38835 0.0
C62 C 0.24741 0.88367 0.37416 0.0
H63 H 0.32764 0.56982 0.92185 0.0
H64 H 0.2545 0.6117 0.85329 0.0
H65 H 0.23952 0.66414 0.92537 0.0
C66 C 0.30251 0.58929 0.91264 0.0
C67 C 0.28496 0.6172 0.92681 0.0
C68 C 0.29167 0.58756 0.88618 0.0
C69 C 0.26124 0.61313 0.87393 0.0
C70 C 0.24101 0.6407 0.88784 0.0
C71 C 0.25386 0.64281 0.91436 0.0
C72 C 0.80418 0.11091 0.26235 0.0
C73 C 0.80209 0.05176 0.27143 0.0
C74 C 0.83262 0.0823 0.27062 0.0
C75 C 0.74315 0.05034 0.2637 0.0
C76 C 0.74507 0.10953 0.25448 0.0
C77 C 0.71475 0.07912 0.25523 0.0
N78 N 0.83441 0.14007 0.26188 0.0
C79 C 0.80828 0.16873 0.25406 0.0
C80 C 0.71808 0.13881 0.24619 0.0
C81 C 0.74985 0.16854 0.24599 0.0
Gd82 Gd 0.06925 0.13424 0.22763 0.0
Gd83 Gd 0.93049 0.13817 0.27739 0.0
N84 N 0.88989 0.08437 0.27793 0.0
C85 C 0.83149 0.02358 0.28032 0.0
C86 C 0.9178 0.05726 0.28765 0.0
C87 C 0.88946 0.02641 0.28861 0.0
H88 H 0.96113 0.05934 0.29543 0.0
H89 H 0.91204 0.00494 0.29619 0.0
H90 H 0.05013 0.21141 0.20475 0.0
H91 H 0.83196 0.19191 0.25475 0.0
H92 H 0.10776 0.26288 0.19967 0.0
H93 H 0.80952 -0.00031 0.28132 0.0
H94 H 0.71902 0.02711 0.26429 0.0
H95 H 0.1606 0.07785 0.25316 0.0
H96 H 0.6727 0.13878 0.24006 0.0
H97 H 0.7292 0.19138 0.2399 0.0
H98 H 0.2955 0.23621 0.23563 0.0
H99 H 0.66925 0.07761 0.24937 0.0
H100 H 0.32472 0.12593 0.26776 0.0
H101 H 0.26186 0.07576 0.26959 0.0
N102 N 0.16445 0.12928 0.24401 0.0
C103 C 0.19869 0.15691 0.24216 0.0
C104 C 0.1867 0.10024 0.25329 0.0
C105 C 0.27985 0.12717 0.26101 0.0
C106 C 0.24445 0.09882 0.26217 0.0
C107 C 0.25735 0.1566 0.25069 0.0
H108 H 0.3369 0.1857 0.25493 0.0
N109 N 0.11785 0.1854 0.22402 0.0
C110 C 0.17506 0.18559 0.23149 0.0
C111 C 0.1851 0.24256 0.21736 0.0
C112 C 0.20993 0.2144 0.22874 0.0
C113 C 0.09403 0.21237 0.21219 0.0
C114 C 0.12702 0.24144 0.2089 0.0
O115 O 0.91638 0.11424 0.23821 0.0
O116 O 0.00656 0.09137 0.23171 0.0
O117 O 0.06466 0.13845 0.18526 0.0
O118 O 0.12674 0.10493 0.20409 0.0
O119 O 0.01566 0.11518 0.2911 0.0
O120 O 0.05425 0.09149 0.25455 0.0
O121 O 0.0826 0.16551 0.26357 0.0
O122 O 0.99114 0.18208 0.27831 0.0
O123 O 0.92608 0.12887 0.31918 0.0
O124 O 0.87407 0.16811 0.30114 0.0
O125 O 0.98717 0.16064 0.21498 0.0
O126 O 0.94192 0.18265 0.2512 0.0
C127 C 0.95067 0.0931 0.22639 0.0
C128 C 0.05108 0.09409 0.27972 0.0
C129 C 0.13078 0.10563 0.15761 0.0
C130 C 0.14126 0.10966 0.11091 0.0
C131 C 0.19643 0.06846 0.13469 0.0
C132 C 0.17137 0.07941 0.15758 0.0
C133 C 0.18151 0.08345 0.11151 0.0
C134 C 0.11562 0.12088 0.13402 0.0
C135 C 0.10698 0.11702 0.18258 0.0
C136 C 0.26821 0.21423 0.23742 0.0
C137 C 0.29178 0.18546 0.24843 0.0
H138 H 0.21045 0.26515 0.21486 0.0
C139 C 0.04857 0.18331 0.27866 0.0
C140 C 0.95389 0.18291 0.22631 0.0
C141 C 0.86284 0.16261 0.34731 0.0
C142 C 0.85366 0.15737 0.39401 0.0
C143 C 0.80361 0.20179 0.37155 0.0
C144 C 0.82595 0.1905 0.34821 0.0
C145 C 0.81758 0.18548 0.39432 0.0
C146 C 0.87626 0.14571 0.37043 0.0
C147 C 0.88839 0.15281 0.32226 0.0
H148 H 0.22778 0.04837 0.13493 0.0
H149 H 0.18419 0.06732 0.17533 0.0
H150 H 0.20181 0.07472 0.09389 0.0
H151 H 0.08492 0.14134 0.13363 0.0
H152 H 0.77555 0.22338 0.37201 0.0
H153 H 0.81475 0.20397 0.33085 0.0
H154 H 0.79976 0.19467 0.41231 0.0
H155 H 0.90443 0.12411 0.37017 0.0
C156 C 0.69921 0.38297 0.76268 0.0
C157 C 0.70708 0.44171 0.77308 0.0
C158 C 0.67392 0.41208 0.77206 0.0
C159 C 0.76548 0.44181 0.76453 0.0
C160 C 0.75792 0.38307 0.75414 0.0
C161 C 0.79078 0.41261 0.75507 0.0
N162 N 0.66639 0.35469 0.76174 0.0
C163 C 0.69046 0.3254 0.75393 0.0
C164 C 0.78206 0.35339 0.74504 0.0
C165 C 0.74827 0.3244 0.74509 0.0
Gd166 Gd 0.43784 0.35906 0.72648 0.0
Gd167 Gd 0.57161 0.35919 0.77848 0.0
N168 N 0.61694 0.41147 0.77994 0.0
C169 C 0.68063 0.47039 0.7828 0.0
C170 C 0.59153 0.43909 0.79011 0.0
C171 C 0.62273 0.46901 0.79147 0.0
H172 H 0.54788 0.43799 0.79786 0.0
H173 H 0.60235 0.49091 0.7995 0.0
H174 H 0.4544 0.28355 0.70249 0.0
H175 H 0.66584 0.30251 0.755 0.0
H176 H 0.39537 0.23221 0.69707 0.0
H177 H 0.70472 0.49359 0.78399 0.0
H178 H 0.79156 0.46435 0.7652 0.0
H179 H 0.34424 0.41739 0.75012 0.0
H180 H 0.82697 0.35248 0.73831 0.0
H181 H 0.76698 0.30118 0.73866 0.0
H182 H 0.21094 0.25838 0.73641 0.0
H183 H 0.83593 0.41312 0.74861 0.0
H184 H 0.18311 0.36873 0.7681 0.0
H185 H 0.24451 0.41941 0.76744 0.0
N186 N 0.34383 0.3648 0.74461 0.0
C187 C 0.30982 0.3369 0.74369 0.0
C188 C 0.32013 0.39444 0.75205 0.0
C189 C 0.22809 0.36729 0.76151 0.0
C190 C 0.26266 0.39593 0.76124 0.0
C191 C 0.25097 0.3375 0.75207 0.0
H192 H 0.17081 0.30889 0.75615 0.0
N193 N 0.38873 0.30835 0.72405 0.0
C194 C 0.33245 0.30817 0.73262 0.0
C195 C 0.32027 0.25194 0.71699 0.0
C196 C 0.29686 0.2797 0.72955 0.0
C197 C 0.41088 0.28209 0.71062 0.0
C198 C 0.3774 0.25324 0.70732 0.0
O199 O 0.58529 0.38479 0.73976 0.0
O200 O 0.4941 0.40491 0.72928 0.0
O201 O 0.4547 0.35668 0.68491 0.0
O202 O 0.37197 0.37497 0.69955 0.0
O203 O 0.48937 0.38608 0.79064 0.0
O204 O 0.44431 0.40379 0.75287 0.0
O205 O 0.44571 0.31585 0.75431 0.0
O206 O 0.48201 0.34122 0.79028 0.0
O207 O 0.59983 0.37121 0.8175 0.0
O208 O 0.61094 0.32066 0.80223 0.0
O209 O 0.52498 0.33725 0.71567 0.0
O210 O 0.56151 0.31376 0.75297 0.0
C211 C 0.55144 0.40555 0.72706 0.0
C212 C 0.45208 0.40489 0.77801 0.0
C213 C 0.39359 0.38793 0.65622 0.0
C214 C 0.37356 0.38936 0.61023 0.0
C215 C 0.35768 0.43849 0.63637 0.0
C216 C 0.3764 0.42131 0.65821 0.0
C217 C 0.35585 0.42255 0.61252 0.0
C218 C 0.39279 0.37212 0.63207 0.0
C219 C 0.40261 0.36757 0.67929 0.0
C220 C 0.23887 0.28005 0.73853 0.0
C221 C 0.21606 0.30881 0.74983 0.0
H222 H 0.29425 0.22965 0.71422 0.0
C223 C 0.45316 0.31688 0.77937 0.0
C224 C 0.55506 0.31426 0.72771 0.0
C225 C 0.64495 0.33083 0.84607 0.0
C226 C 0.65483 0.33505 0.89278 0.0
C227 C 0.71359 0.29552 0.86879 0.0
C228 C 0.68733 0.3057 0.84591 0.0
C229 C 0.69728 0.30993 0.89207 0.0
C230 C 0.62922 0.34597 0.86963 0.0
C231 C 0.61832 0.34112 0.82151 0.0
H232 H 0.34325 0.46397 0.63802 0.0
H233 H 0.37552 0.43369 0.67673 0.0
H234 H 0.33986 0.43596 0.59586 0.0
H235 H 0.40437 0.34609 0.63048 0.0
H236 H 0.74656 0.27629 0.8685 0.0
H237 H 0.70062 0.29413 0.82801 0.0
H238 H 0.718 0.30148 0.90967 0.0
H239 H 0.59649 0.3654 0.87004 0.0
C240 C 0.80909 0.83716 0.76063 0.0
C241 C 0.80292 0.77828 0.77053 0.0
C242 C 0.83546 0.80811 0.76936 0.0
C243 C 0.74394 0.77801 0.76278 0.0
C244 C 0.75005 0.83689 0.75264 0.0
C245 C 0.71762 0.8072 0.75385 0.0
N246 N 0.84143 0.86558 0.75964 0.0
C247 C 0.81757 0.89457 0.75106 0.0
C248 C 0.72532 0.86649 0.74367 0.0
C249 C 0.75928 0.89543 0.74285 0.0
Gd250 Gd 0.07354 0.85699 0.72594 0.0
Gd251 Gd 0.93683 0.86182 0.77574 0.0
N252 N 0.89292 0.809 0.77652 0.0
C253 C 0.83047 0.74963 0.77968 0.0
C254 C 0.91918 0.78146 0.7864 0.0
C255 C 0.88873 0.75129 0.78778 0.0
H256 H 0.96288 0.78269 0.79394 0.0
H257 H 0.90994 0.72945 0.79549 0.0
H258 H 0.05048 0.93478 0.70462 0.0
H259 H 0.84299 0.91725 0.75117 0.0
H260 H 0.10402 0.98788 0.70219 0.0
H261 H 0.80691 0.72626 0.78095 0.0
H262 H 0.71824 0.75534 0.76365 0.0
H263 H 0.16718 0.80148 0.75054 0.0
H264 H 0.68006 0.86729 0.7374 0.0
H265 H 0.7404 0.91848 0.73614 0.0
H266 H 0.29373 0.96278 0.73675 0.0
H267 H 0.67211 0.80656 0.74792 0.0
H268 H 0.32987 0.85137 0.76498 0.0
H269 H 0.26918 0.80031 0.7663 0.0
N270 N 0.1694 0.85298 0.74151 0.0
C271 C 0.20215 0.88123 0.74024 0.0
C272 C 0.19278 0.8241 0.75051 0.0
C273 C 0.28493 0.85212 0.75829 0.0
C274 C 0.25076 0.82326 0.75915 0.0
C275 C 0.26085 0.88156 0.74869 0.0
H276 H 0.33868 0.9119 0.75379 0.0
N277 N 0.11911 0.90925 0.7236 0.0
C278 C 0.17642 0.91012 0.7309 0.0
C279 C 0.18243 0.96819 0.71937 0.0
C280 C 0.2093 0.93981 0.72939 0.0
C281 C 0.09372 0.93636 0.71265 0.0
C282 C 0.12459 0.96635 0.71072 0.0
O283 O 0.92121 0.83643 0.73718 0.0
O284 O 0.01126 0.81381 0.72932 0.0
O285 O 0.07094 0.86298 0.68381 0.0
O286 O 0.13013 0.82726 0.70199 0.0
O287 O 0.02019 0.83686 0.78937 0.0
O288 O 0.05959 0.8135 0.75264 0.0
O289 O 0.08991 0.8844 0.76365 0.0
O290 O 0.99916 0.90504 0.77353 0.0
O291 O 0.9353 0.85472 0.81795 0.0
O292 O 0.87931 0.89138 0.79902 0.0
O293 O 0.99061 0.88317 0.71288 0.0
O294 O 0.95192 0.90591 0.75003 0.0
C295 C 0.955 0.81553 0.72482 0.0
C296 C 0.05524 0.81564 0.77787 0.0
C297 C 0.13467 0.8301 0.65544 0.0
C298 C 0.14638 0.8371 0.60901 0.0
C299 C 0.19254 0.79076 0.63076 0.0
C300 C 0.16969 0.80149 0.65417 0.0
C301 C 0.18091 0.80838 0.60831 0.0
C302 C 0.12317 0.84812 0.63265 0.0
C303 C 0.11163 0.84069 0.68074 0.0
C304 C 0.26785 0.94018 0.73772 0.0
C305 C 0.2935 0.91118 0.74739 0.0
H306 H 0.20628 0.99144 0.71778 0.0
C307 C 0.05596 0.90419 0.7771 0.0
C308 C 0.95626 0.90436 0.72483 0.0
C309 C 0.86766 0.88727 0.84509 0.0
C310 C 0.85952 0.88546 0.89194 0.0
C311 C 0.79222 0.91906 0.867 0.0
C312 C 0.8198 0.90918 0.8444 0.0
C313 C 0.81191 0.90734 0.8906 0.0
C314 C 0.88746 0.87515 0.8691 0.0
C315 C 0.89469 0.8772 0.82043 0.0
H316 H 0.21948 0.76873 0.63001 0.0
H317 H 0.17945 0.78724 0.67133 0.0
H318 H 0.19933 0.79972 0.59028 0.0
H319 H 0.0967 0.87039 0.63324 0.0
H320 H 0.75539 0.93587 0.86622 0.0
H321 H 0.80324 0.91868 0.8263 0.0
H322 H 0.78984 0.91538 0.90801 0.0
H323 H 0.9242 0.85823 0.87007 0.0
C324 C 0.69794 0.66047 0.26087 0.0
C325 C 0.70332 0.71928 0.27097 0.0
C326 C 0.67118 0.6893 0.26971 0.0
C327 C 0.76221 0.71991 0.26308 0.0
C328 C 0.75701 0.66105 0.25288 0.0
C329 C 0.78895 0.6909 0.25405 0.0
N330 N 0.66612 0.63188 0.25997 0.0
C331 C 0.69064 0.60299 0.25161 0.0
C332 C 0.78232 0.63155 0.24403 0.0
C333 C 0.74897 0.60239 0.24342 0.0
Gd334 Gd 0.43176 0.64022 0.22645 0.0
Gd335 Gd 0.57019 0.63502 0.27565 0.0
N336 N 0.61391 0.68799 0.27712 0.0
C337 C 0.67556 0.74767 0.28045 0.0
C338 C 0.58763 0.71527 0.28746 0.0
C339 C 0.61761 0.74558 0.28889 0.0
H340 H 0.54431 0.71376 0.29537 0.0
H341 H 0.59629 0.76719 0.29693 0.0
H342 H 0.45612 0.56142 0.20655 0.0
H343 H 0.66578 0.5802 0.25201 0.0
H344 H 0.40321 0.50828 0.20491 0.0
H345 H 0.69879 0.77114 0.28179 0.0
H346 H 0.78756 0.7427 0.264 0.0
H347 H 0.33797 0.69551 0.25091 0.0
H348 H 0.82762 0.63097 0.23779 0.0
H349 H 0.76833 0.57938 0.23691 0.0
H350 H 0.21307 0.53359 0.23871 0.0
H351 H 0.83443 0.69179 0.24809 0.0
H352 H 0.17541 0.64542 0.26542 0.0
H353 H 0.23563 0.69667 0.26637 0.0
N354 N 0.3362 0.64389 0.24235 0.0
C355 C 0.30391 0.61544 0.24152 0.0
C356 C 0.31249 0.67285 0.25104 0.0
C357 C 0.2205 0.64467 0.25891 0.0
C358 C 0.25439 0.67365 0.25954 0.0
C359 C 0.24507 0.6151 0.2498 0.0
H360 H 0.16734 0.58468 0.25493 0.0
N361 N 0.38736 0.58742 0.22518 0.0
C362 C 0.3301 0.58644 0.23263 0.0
C363 C 0.32461 0.52812 0.22179 0.0
C364 C 0.29749 0.55662 0.23143 0.0
C365 C 0.41296 0.56008 0.21461 0.0
C366 C 0.38242 0.52995 0.21313 0.0
O367 O 0.58528 0.66063 0.23714 0.0
O368 O 0.49493 0.68317 0.22905 0.0
O369 O 0.43247 0.63327 0.1844 0.0
O370 O 0.3748 0.66978 0.20256 0.0
O371 O 0.48764 0.66086 0.28934 0.0
O372 O 0.44672 0.68398 0.25275 0.0
O373 O 0.41591 0.61466 0.26479 0.0
O374 O 0.50622 0.59259 0.27292 0.0
O375 O 0.57073 0.64098 0.31792 0.0
O376 O 0.62644 0.60436 0.2988 0.0
O377 O 0.51419 0.61418 0.21306 0.0
O378 O 0.55608 0.59115 0.24943 0.0
C379 C 0.55131 0.68137 0.22467 0.0
C380 C 0.45223 0.68202 0.27795 0.0
C381 C 0.36781 0.66564 0.15608 0.0
C382 C 0.35887 0.65974 0.1094 0.0
C383 C 0.30416 0.70245 0.13181 0.0
C384 C 0.32807 0.69222 0.15514 0.0
C385 C 0.31953 0.68642 0.1091 0.0
C386 C 0.38294 0.6491 0.13299 0.0
C387 C 0.392 0.65569 0.18134 0.0
C388 C 0.23877 0.55626 0.23955 0.0
C389 C 0.21268 0.58539 0.24874 0.0
H390 H 0.30098 0.50477 0.22047 0.0
C391 C 0.45026 0.59488 0.27788 0.0
C392 C 0.54856 0.59236 0.2243 0.0
C393 C 0.63458 0.60631 0.34517 0.0
C394 C 0.64654 0.61027 0.39179 0.0
C395 C 0.69571 0.56668 0.36802 0.0
C396 C 0.6717 0.57848 0.34517 0.0
C397 C 0.6832 0.58242 0.39118 0.0
C398 C 0.62202 0.62237 0.36873 0.0
C399 C 0.61004 0.61777 0.32036 0.0
H400 H 0.27357 0.7229 0.13134 0.0
H401 H 0.3153 0.70525 0.17249 0.0
H402 H 0.30027 0.69474 0.09115 0.0
H403 H 0.41319 0.62842 0.13331 0.0
H404 H 0.72421 0.54527 0.36776 0.0
H405 H 0.68226 0.56564 0.32744 0.0
H406 H 0.70252 0.57294 0.40878 0.0
H407 H 0.59379 0.64394 0.36916 0.0
H408 H 0.16468 0.90521 0.33801 0.0
H409 H 0.08589 0.09798 0.32998 0.0
H410 H 0.21009 0.97515 0.39791 0.0
H411 H 0.07693 0.03084 0.26529 0.0
H412 H 0.12718 0.05313 0.35621 0.0
H413 H 0.12737 0.95081 0.31201 0.0
C414 C 0.1673 0.93024 0.3456 0.0
C415 C 0.19106 0.93645 0.37006 0.0
C416 C 0.11639 0.04831 0.33624 0.0
C417 C 0.14751 0.98876 0.34054 0.0
C418 C 0.09279 0.07382 0.32134 0.0
C419 C 0.07834 0.06804 0.2955 0.0
C420 C 0.12459 0.01679 0.32523 0.0
C421 C 0.08812 0.0364 0.2851 0.0
C422 C 0.14573 0.95626 0.33079 0.0
C423 C 0.19183 0.96926 0.3792 0.0
N424 N 0.11035 0.01191 0.30005 0.0
N425 N 0.17034 0.99425 0.36441 0.0
H426 H 0.37206 0.59244 0.8481 0.0
H427 H 0.37826 0.39754 0.81845 0.0
H428 H 0.26565 0.52141 0.88923 0.0
H429 H 0.46233 0.47131 0.77084 0.0
H430 H 0.33705 0.44201 0.84517 0.0
H431 H 0.4093 0.54766 0.8209 0.0
C432 C 0.35658 0.56728 0.85126 0.0
C433 C 0.31582 0.56033 0.87068 0.0
C434 C 0.36444 0.44851 0.82888 0.0
C435 C 0.35729 0.50919 0.83964 0.0
C436 C 0.38774 0.42323 0.81371 0.0
C437 C 0.42338 0.43116 0.79265 0.0
C438 C 0.37828 0.48175 0.82317 0.0
C439 C 0.43443 0.46451 0.7869 0.0
C440 C 0.3776 0.54179 0.83575 0.0
C441 C 0.29732 0.52749 0.87441 0.0
N442 N 0.41246 0.48868 0.80229 0.0
N443 N 0.31807 0.50301 0.8589 0.0
H444 H 0.60809 0.5627 0.61626 0.0
H445 H 0.66847 0.41649 0.71698 0.0
H446 H 0.77887 0.54389 0.64854 0.0
H447 H 0.49577 0.45151 0.69708 0.0
H448 H 0.71106 0.45925 0.68927 0.0
H449 H 0.56768 0.51775 0.6425 0.0
C450 C 0.6372 0.5488 0.62867 0.0
C451 C 0.69691 0.55694 0.63021 0.0
C452 C 0.66386 0.4576 0.69106 0.0
C453 C 0.65091 0.5056 0.66049 0.0
C454 C 0.63945 0.43328 0.70703 0.0
C455 C 0.57839 0.43074 0.70989 0.0
C456 C 0.62693 0.47917 0.67744 0.0
C457 C 0.54307 0.45269 0.69579 0.0
C458 C 0.61406 0.52331 0.64379 0.0
C459 C 0.7325 0.53849 0.64693 0.0
N460 N 0.56785 0.4759 0.68019 0.0
N461 N 0.70897 0.51361 0.66142 0.0
H462 H 0.78612 0.9762 0.10619 0.0
H463 H 0.97068 0.02721 0.23102 0.0
H464 H 0.84636 0.90613 0.16307 0.0
H465 H 0.8716 0.09847 0.18723 0.0
H466 H 0.93078 0.98264 0.20418 0.0
H467 H 0.82359 0.02182 0.13311 0.0
C468 C 0.80736 0.97049 0.12431 0.0
C469 C 0.81287 0.93745 0.13258 0.0
C470 C 0.91761 0.00798 0.20039 0.0
C471 C 0.85571 0.98918 0.16327 0.0
C472 C 0.94045 0.03334 0.21565 0.0
C473 C 0.9242 0.06631 0.21116 0.0
C474 C 0.87918 0.01575 0.18015 0.0
C475 C 0.88462 0.07317 0.19127 0.0
C476 C 0.82837 0.99645 0.13969 0.0
C477 C 0.84054 0.93129 0.15619 0.0
N478 N 0.86377 0.04806 0.17624 0.0
N479 N 0.86107 0.95688 0.17065 0.0
H480 H 0.88252 0.09072 0.65171 0.0
H481 H 0.88029 0.89688 0.68494 0.0
H482 H 0.75998 0.02218 0.6173 0.0
H483 H 0.9696 0.97074 0.7306 0.0
H484 H 0.83808 0.9414 0.65844 0.0
H485 H 0.92064 0.04571 0.67849 0.0
C486 C 0.86384 0.06603 0.64989 0.0
C487 C 0.81839 0.0598 0.63248 0.0
C488 C 0.86705 0.94784 0.6742 0.0
C489 C 0.8607 0.0085 0.66307 0.0
C490 C 0.89108 0.92254 0.68918 0.0
C491 C 0.92864 0.93049 0.70958 0.0
C492 C 0.88218 0.98105 0.6794 0.0
C493 C 0.94068 0.96388 0.71491 0.0
C494 C 0.88526 0.04044 0.66518 0.0
C495 C 0.79548 0.0276 0.6305 0.0
N496 N 0.91812 0.98799 0.69966 0.0
N497 N 0.81682 0.00301 0.64574 0.0
H498 H 0.71093 0.41364 0.16958 0.0
H499 H 0.5542 0.58994 0.1717 0.0
H500 H 0.67742 0.47149 0.1007 0.0
H501 H 0.60169 0.53482 0.23991 0.0
H502 H 0.59723 0.54631 0.14521 0.0
H503 H 0.67376 0.45851 0.19521 0.0
C504 C 0.69674 0.43566 0.15951 0.0
C505 C 0.69846 0.43816 0.13241 0.0
C506 C 0.59877 0.54395 0.16598 0.0
C507 C 0.65147 0.48952 0.16246 0.0
C508 C 0.57415 0.56882 0.18114 0.0
C509 C 0.57531 0.56635 0.20811 0.0
C510 C 0.62483 0.51643 0.17787 0.0
C511 C 0.60095 0.53819 0.21923 0.0
C512 C 0.6743 0.46128 0.17445 0.0
C513 C 0.67647 0.46749 0.12127 0.0
N514 N 0.62484 0.51438 0.20406 0.0
N515 N 0.6535 0.49181 0.13631 0.0
H516 H 0.33119 0.40919 0.33957 0.0
H517 H 0.4018 0.60324 0.32525 0.0
H518 H 0.30059 0.47887 0.40127 0.0
H519 H 0.43964 0.52937 0.26768 0.0
H520 H 0.36197 0.55934 0.35343 0.0
H521 H 0.3681 0.45406 0.31295 0.0
C522 C 0.33192 0.43408 0.34749 0.0
C523 C 0.31196 0.44033 0.37259 0.0
C524 C 0.37856 0.55279 0.33456 0.0
C525 C 0.35556 0.49215 0.34213 0.0
C526 C 0.40091 0.57775 0.31854 0.0
C527 C 0.42335 0.56956 0.29427 0.0
C528 C 0.37835 0.51969 0.32594 0.0
C529 C 0.42243 0.53644 0.28632 0.0
C530 C 0.35342 0.45974 0.33228 0.0
C531 C 0.31556 0.47298 0.38202 0.0
N532 N 0.40007 0.5127 0.30209 0.0
N533 N 0.33677 0.4978 0.36671 0.0
H534 H 0.28713 0.04167 0.85712 0.0
H535 H 0.99889 0.9479 0.80829 0.0
H536 H 0.11478 0.05706 0.88899 0.0
H537 H 0.17294 0.91676 0.78669 0.0
H538 H 0.04158 0.98908 0.837 0.0
H539 H 0.2474 0.99654 0.83045 0.0
C540 C 0.24107 0.03535 0.85864 0.0
C541 C 0.20417 0.05308 0.87532 0.0
C542 C 0.07055 0.97327 0.82599 0.0
C543 C 0.15846 0.00189 0.84477 0.0
C544 C 0.04619 0.94975 0.80946 0.0
C545 C 0.08236 0.92899 0.79472 0.0
C546 C 0.13168 0.97634 0.82781 0.0
C547 C 0.14333 0.93247 0.79735 0.0
C548 C 0.21847 0.00961 0.84347 0.0
C549 C 0.14493 0.04381 0.87665 0.0
N550 N 0.16612 0.95586 0.81347 0.0
N551 N 0.12387 0.01907 0.86144 0.0
H552 H 0.27612 0.15344 0.96652 0.0
H553 H 0.06273 0.08881 0.07511 0.0
H554 H 0.11774 0.09825 0.94999 0.0
H555 H 0.19748 0.16186 0.08874 0.0
H556 H 0.07271 0.09802 0.0287 0.0
H557 H 0.2418 0.16172 0.01052 0.0
C558 C 0.23386 0.14334 0.97197 0.0
C559 C 0.20024 0.12476 0.95439 0.0
C560 C 0.09886 0.11287 0.0418 0.0
C561 C 0.16097 0.13378 0.00514 0.0
C562 C 0.0925 0.10793 0.06829 0.0
C563 C 0.12918 0.12474 0.08561 0.0
C564 C 0.14313 0.13425 0.03268 0.0
C565 C 0.16817 0.14863 0.0759 0.0
C566 C 0.21427 0.14806 0.99719 0.0
C567 C 0.1461 0.11197 0.9629 0.0
N568 N 0.17507 0.15219 0.05002 0.0
N569 N 0.12854 0.1164 0.98769 0.0
H570 H 0.21088 0.38173 0.46785 0.0
H571 H 0.45679 0.38182 0.5731 0.0
H572 H 0.39087 0.36378 0.44737 0.0
H573 H 0.27558 0.36144 0.59026 0.0
H574 H 0.4372 0.37067 0.52735 0.0
H575 H 0.23549 0.37295 0.51317 0.0
C576 C 0.25554 0.37564 0.47304 0.0
C577 C 0.29911 0.37371 0.4542 0.0
C578 C 0.40208 0.36773 0.5412 0.0
C579 C 0.32767 0.36313 0.50572 0.0
C580 C 0.41337 0.3739 0.56724 0.0
C581 C 0.36744 0.37287 0.58511 0.0
C582 C 0.34429 0.36128 0.53324 0.0
C583 C 0.31184 0.36273 0.57683 0.0
C584 C 0.26957 0.37035 0.4988 0.0
C585 C 0.35645 0.36591 0.46163 0.0
N586 N 0.30148 0.35795 0.55136 0.0
N587 N 0.36932 0.36111 0.48695 0.0
H588 H 0.67313 0.32189 0.05296 0.0
H589 H 0.6759 0.39746 0.91204 0.0
H590 H 0.71657 0.42459 0.03825 0.0
H591 H 0.60021 0.30256 0.93158 0.0
H592 H 0.67943 0.41161 0.95812 0.0
H593 H 0.6397 0.31642 0.00856 0.0
C594 C 0.6758 0.34328 0.04035 0.0
C595 C 0.69811 0.37364 0.04929 0.0
C596 C 0.66071 0.38802 0.95228 0.0
C597 C 0.65904 0.36775 0.99834 0.0
C598 C 0.65813 0.38014 0.92601 0.0
C599 C 0.6385 0.34864 0.91822 0.0
C600 C 0.64425 0.36396 0.97062 0.0
C601 C 0.61623 0.32695 0.93696 0.0
C602 C 0.65599 0.3403 0.01505 0.0
C603 C 0.69948 0.40072 0.03215 0.0
N604 N 0.62076 0.33473 0.9623 0.0
N605 N 0.68075 0.39707 0.00742 0.0
H606 H 0.74181 0.07971 0.53784 0.0
H607 H 0.92762 0.17795 0.43171 0.0
H608 H 0.86087 0.15997 0.55505 0.0
H609 H 0.80135 0.10183 0.41327 0.0
H610 H 0.91831 0.16383 0.4774 0.0
H611 H 0.77281 0.0818 0.49258 0.0
C612 C 0.77428 0.09788 0.53192 0.0
C613 C 0.79809 0.12017 0.54984 0.0
C614 C 0.8936 0.14962 0.46337 0.0
C615 C 0.83513 0.12212 0.49853 0.0
C616 C 0.89963 0.15736 0.4373 0.0
C617 C 0.86522 0.14095 0.41887 0.0
C618 C 0.85205 0.12571 0.47103 0.0
C619 C 0.82883 0.11486 0.42698 0.0
C620 C 0.79237 0.0989 0.50622 0.0
C621 C 0.84065 0.14293 0.54154 0.0
N622 N 0.82234 0.10841 0.45255 0.0
N623 N 0.85781 0.14336 0.51646 0.0
H624 H 0.79913 0.92962 0.04078 0.0
H625 H 0.83538 0.82675 0.91626 0.0
H626 H 0.81154 0.82296 0.04824 0.0
H627 H 0.91978 0.92163 0.92683 0.0
H628 H 0.82673 0.82117 0.96334 0.0
H629 H 0.83745 0.9255 0.9973 0.0
C630 C 0.81041 0.9053 0.03345 0.0
C631 C 0.80295 0.87667 0.04859 0.0
C632 C 0.84902 0.84263 0.95534 0.0
C633 C 0.84579 0.8718 0.99816 0.0
C634 C 0.85463 0.84561 0.92856 0.0
C635 C 0.8781 0.87476 0.91784 0.0
C636 C 0.86576 0.8694 0.9711 0.0
C637 C 0.90143 0.89881 0.93446 0.0
C638 C 0.83238 0.903 0.00854 0.0
C639 C 0.81619 0.84573 0.03734 0.0
N640 N 0.89324 0.89603 0.96025 0.0
N641 N 0.83662 0.84406 0.01269 0.0
H642 H 0.61713 0.60058 0.55416 0.0
H643 H 0.70774 0.66119 0.41316 0.0
H644 H 0.78116 0.64905 0.53563 0.0
H645 H 0.56754 0.592 0.42827 0.0
H646 H 0.71863 0.67024 0.45964 0.0
H647 H 0.58586 0.60777 0.50964 0.0
C648 C 0.6468 0.61266 0.54081 0.0
C649 C 0.70242 0.6238 0.54881 0.0
C650 C 0.68438 0.65377 0.45278 0.0
C651 C 0.66552 0.6332 0.49778 0.0
C652 C 0.67755 0.64907 0.42629 0.0
C653 C 0.63663 0.62592 0.41706 0.0
C654 C 0.6503 0.63493 0.47002 0.0
C655 C 0.5993 0.61023 0.43476 0.0
C656 C 0.62843 0.61714 0.51542 0.0
C657 C 0.73779 0.64024 0.5306 0.0
N658 N 0.60766 0.61457 0.46047 0.0
N659 N 0.71886 0.64428 0.50596 0.0
H660 H 0.33915 0.66998 0.94949 0.0
H661 H 0.3217 0.59932 0.09159 0.0
H662 H 0.27462 0.57133 0.96568 0.0
H663 H 0.42223 0.68579 0.07021 0.0
H664 H 0.3128 0.58453 0.04582 0.0
H665 H 0.37416 0.67422 0.99381 0.0
C666 C 0.33192 0.64933 0.96251 0.0
C667 C 0.30338 0.62046 0.95406 0.0
C668 C 0.33822 0.60623 0.05117 0.0
C669 C 0.34392 0.62486 0.00482 0.0
C670 C 0.34393 0.61439 0.07729 0.0
C671 C 0.3725 0.64385 0.0845 0.0
C672 C 0.36049 0.62809 0.03238 0.0
C673 C 0.39978 0.66289 0.06531 0.0
C674 C 0.35259 0.65153 0.98773 0.0
C675 C 0.29628 0.59409 0.97154 0.0
N676 N 0.39212 0.65506 0.0401 0.0
N677 N 0.31588 0.59703 0.9962 0.0
H678 H 0.13698 0.83878 0.44686 0.0
H679 H 0.20265 0.89259 0.59178 0.0
H680 H 0.26093 0.91533 0.46724 0.0
H681 H 0.07318 0.81963 0.5702 0.0
H682 H 0.21286 0.90843 0.54634 0.0
H683 H 0.10397 0.83663 0.49176 0.0
C684 C 0.1575 0.85487 0.46099 0.0
C685 C 0.20229 0.87677 0.45374 0.0
C686 C 0.18105 0.88956 0.55158 0.0
C687 C 0.16484 0.87482 0.50492 0.0
C688 C 0.17469 0.88089 0.57752 0.0
C689 C 0.137 0.85486 0.58454 0.0
C690 C 0.15002 0.87166 0.53268 0.0
C691 C 0.10254 0.83992 0.56543 0.0
C692 C 0.13839 0.85394 0.48651 0.0
C693 C 0.22674 0.89781 0.47239 0.0
N694 N 0.11055 0.84815 0.5403 0.0
N695 N 0.20812 0.89609 0.49725 0.0
H696 H 0.14962 0.31445 0.40405 0.0
H697 H 0.12378 0.23218 0.26431 0.0
H698 H 0.2548 0.34232 0.33818 0.0
H699 H 0.03293 0.19273 0.33017 0.0
H700 H 0.16966 0.27398 0.29151 0.0
H701 H 0.10459 0.27026 0.3781 0.0
C702 C 0.16323 0.3114 0.38421 0.0
C703 C 0.20546 0.33264 0.37323 0.0
C704 C 0.14023 0.25604 0.30022 0.0
C705 C 0.15366 0.28249 0.34347 0.0
C706 C 0.11465 0.23195 0.28463 0.0
C707 C 0.076 0.20864 0.29511 0.0
C708 C 0.12685 0.2569 0.32664 0.0
C709 C 0.06295 0.21037 0.32147 0.0
C710 C 0.13732 0.28626 0.3694 0.0
C711 C 0.22122 0.32741 0.34738 0.0
N712 N 0.08856 0.23409 0.33646 0.0
N713 N 0.19518 0.30307 0.33345 0.0
H714 H 0.35694 0.18186 0.90386 0.0
H715 H 0.38858 0.26285 0.76423 0.0
H716 H 0.24854 0.15584 0.8387 0.0
H717 H 0.46273 0.30879 0.83187 0.0
H718 H 0.34336 0.22076 0.79113 0.0
H719 H 0.40255 0.22599 0.8779 0.0
C720 C 0.34264 0.18545 0.88416 0.0
C721 C 0.29927 0.16483 0.87336 0.0
C722 C 0.36929 0.2401 0.80018 0.0
C723 C 0.35144 0.21495 0.84362 0.0
C724 C 0.39473 0.26446 0.78475 0.0
C725 C 0.42792 0.29018 0.79571 0.0
C726 C 0.37835 0.24073 0.82691 0.0
C727 C 0.43658 0.28979 0.82254 0.0
C728 C 0.36876 0.21056 0.86937 0.0
C729 C 0.28271 0.17051 0.84769 0.0
N730 N 0.41204 0.26539 0.83725 0.0
N731 N 0.3089 0.19488 0.83374 0.0
H732 H 0.66352 0.13111 0.65664 0.0
H733 H 0.59861 0.32281 0.67953 0.0
H734 H 0.74434 0.20828 0.61081 0.0
H735 H 0.57756 0.24901 0.73909 0.0
H736 H 0.64173 0.28072 0.65148 0.0
H737 H 0.61986 0.1735 0.68398 0.0
C738 C 0.67227 0.15697 0.65229 0.0
C739 C 0.70889 0.16602 0.63161 0.0
C740 C 0.62791 0.27374 0.6707 0.0
C741 C 0.65754 0.21477 0.66267 0.0
C742 C 0.60322 0.29768 0.68669 0.0
C743 C 0.58458 0.28926 0.71163 0.0
C744 C 0.63301 0.24097 0.67951 0.0
C745 C 0.59182 0.25648 0.72005 0.0
C746 C 0.64712 0.18114 0.66793 0.0
C747 C 0.71655 0.20002 0.62646 0.0
N748 N 0.61505 0.23338 0.7039 0.0
N749 N 0.69123 0.22317 0.64195 0.0
H750 H 0.85978 0.31422 0.10006 0.0
H751 H 0.88945 0.23737 0.24096 0.0
H752 H 0.73845 0.33466 0.16179 0.0
H753 H 0.95914 0.18795 0.17379 0.0
H754 H 0.84325 0.27811 0.21275 0.0
H755 H 0.90579 0.27148 0.12724 0.0
C756 C 0.84264 0.30956 0.11919 0.0
C757 C 0.79595 0.32835 0.12887 0.0
C758 C 0.86849 0.25821 0.20423 0.0
C759 C 0.8483 0.28015 0.15992 0.0
C760 C 0.89463 0.23483 0.22033 0.0
C761 C 0.92709 0.20866 0.20977 0.0
C762 C 0.87598 0.25588 0.17742 0.0
C763 C 0.93393 0.20744 0.18284 0.0
C764 C 0.86892 0.28534 0.13468 0.0
C765 C 0.77535 0.32133 0.15381 0.0
N766 N 0.90874 0.23076 0.16759 0.0
N767 N 0.8019 0.29804 0.16851 0.0
H768 H 0.76322 0.70652 0.60864 0.0
H769 H 0.96485 0.74895 0.73052 0.0
H770 H 0.85505 0.63246 0.65314 0.0
H771 H 0.88484 0.82378 0.68297 0.0
H772 H 0.92361 0.70581 0.70251 0.0
H773 H 0.80953 0.74979 0.63447 0.0
C774 C 0.79357 0.69922 0.6236 0.0
C775 C 0.8046 0.66552 0.62876 0.0
C776 C 0.91525 0.73162 0.69805 0.0
C777 C 0.85645 0.71527 0.65906 0.0
C778 C 0.93862 0.75614 0.71405 0.0
C779 C 0.9279 0.78967 0.70888 0.0
C780 C 0.88167 0.74082 0.67651 0.0
C781 C 0.89337 0.79801 0.68758 0.0
C782 C 0.81955 0.72406 0.63856 0.0
C783 C 0.84389 0.65793 0.64876 0.0
N784 N 0.87167 0.7737 0.67203 0.0
N785 N 0.86794 0.68255 0.66326 0.0
H786 H 0.73833 0.78967 0.10622 0.0
H787 H 0.54983 0.74789 0.2323 0.0
H788 H 0.6537 0.86392 0.1532 0.0
H789 H 0.61251 0.67268 0.18028 0.0
H790 H 0.59048 0.79082 0.20389 0.0
H791 H 0.69137 0.7464 0.13211 0.0
C792 C 0.70945 0.79699 0.12174 0.0
C793 C 0.70101 0.83068 0.12773 0.0
C794 C 0.59515 0.76498 0.19853 0.0
C795 C 0.64841 0.78108 0.15795 0.0
C796 C 0.57222 0.74058 0.21479 0.0
C797 C 0.57834 0.70701 0.20848 0.0
C798 C 0.62364 0.75563 0.17563 0.0
C799 C 0.60776 0.69848 0.18578 0.0
C800 C 0.68308 0.77219 0.1367 0.0
C801 C 0.66316 0.83839 0.14825 0.0
N802 N 0.62919 0.72269 0.17005 0.0
N803 N 0.63889 0.81385 0.16274 0.0
H804 H 0.25746 0.78838 0.39455 0.0
H805 H 0.43888 0.74783 0.26742 0.0
H806 H 0.35192 0.86303 0.35132 0.0
H807 H 0.40325 0.67356 0.32525 0.0
H808 H 0.3977 0.79024 0.29598 0.0
H809 H 0.30388 0.74537 0.36825 0.0
C810 C 0.28848 0.79576 0.37981 0.0
C811 C 0.30008 0.82947 0.37494 0.0
C812 C 0.39873 0.76465 0.3024 0.0
C813 C 0.35205 0.78044 0.34442 0.0
C814 C 0.42166 0.74049 0.28604 0.0
C815 C 0.42421 0.70735 0.29412 0.0
C816 C 0.37712 0.75538 0.32674 0.0
C817 C 0.40222 0.69901 0.3185 0.0
C818 C 0.3146 0.7712 0.36469 0.0
C819 C 0.34036 0.83745 0.35536 0.0
N820 N 0.37915 0.72287 0.33394 0.0
N821 N 0.36432 0.81318 0.34065 0.0
H822 H 0.24891 0.70857 0.89458 0.0
H823 H 0.07 0.75004 0.76671 0.0
H824 H 0.15986 0.6339 0.84923 0.0
H825 H 0.10329 0.82344 0.82546 0.0
H826 H 0.11212 0.70744 0.79479 0.0
H827 H 0.2027 0.75164 0.86828 0.0
C828 C 0.21919 0.70117 0.87935 0.0
C829 C 0.20893 0.66745 0.87398 0.0
C830 C 0.11037 0.73288 0.80153 0.0
C831 C 0.15717 0.71661 0.84344 0.0
C832 C 0.08684 0.75717 0.78544 0.0
C833 C 0.08338 0.79015 0.7939 0.0
C834 C 0.13162 0.74182 0.82599 0.0
C835 C 0.10498 0.79814 0.81841 0.0
C836 C 0.19319 0.72578 0.86422 0.0
C837 C 0.17037 0.65949 0.85373 0.0
N838 N 0.1286 0.77416 0.83358 0.0
N839 N 0.14643 0.68383 0.83908 0.0
loop_
_geom_bond_atom_site_label_1
_geom_bond_atom_site_label_2
_geom_bond_distance
_geom_bond_site_symmetry_2
_ccdc_geom_bond_type
H0 C3 0.931 . S
H1 C6 0.928 . S
H2 C8 0.930 . S
C3 H0 0.931 . S
C3 C4 1.413 . S
C3 C5 1.360 . S
C4 C3 1.413 . S
C4 C8 1.429 . S
C5 C3 1.360 . S
C5 C6 1.372 . S
C6 H1 0.928 . S
C6 C5 1.372 . S
C6 C7 1.404 . S
C7 C6 1.404 . S
C7 C8 1.391 . S
C8 H2 0.930 . S
C8 C4 1.429 . S
C8 C7 1.391 . S
H9 C12 0.931 . S
H10 C15 0.928 . S
H11 C17 0.930 . S
C12 H9 0.931 . S
C12 C13 1.413 . S
C12 C14 1.360 . S
C13 C12 1.413 . S
C13 C17 1.429 . S
C14 C12 1.360 . S
C14 C15 1.372 . S
C15 H10 0.928 . S
C15 C14 1.372 . S
C15 C16 1.404 . S
C16 C15 1.404 . S
C16 C17 1.391 . S
C17 H11 0.930 . S
C17 C13 1.429 . S
C17 C16 1.391 . S
H18 C21 0.931 . S
H19 C24 0.928 . S
H20 C26 0.930 . S
C21 H18 0.931 . S
C21 C22 1.413 . S
C21 C23 1.360 . S
C22 C21 1.413 . S
C22 C26 1.429 . S
C23 C21 1.360 . S
C23 C24 1.372 . S
C24 H19 0.928 . S
C24 C23 1.372 . S
C24 C25 1.404 . S
C25 C24 1.404 . S
C25 C26 1.391 . S
C26 H20 0.930 . S
C26 C22 1.429 . S
C26 C25 1.391 . S
H27 C30 0.931 . S
H28 C33 0.928 . S
H29 C35 0.930 . S
C30 H27 0.931 . S
C30 C31 1.413 . S
C30 C32 1.360 . S
C31 C30 1.413 . S
C31 C35 1.429 . S
C32 C30 1.360 . S
C32 C33 1.372 . S
C33 H28 0.928 . S
C33 C32 1.372 . S
C33 C34 1.404 . S
C34 C33 1.404 . S
C34 C35 1.391 . S
C35 H29 0.930 . S
C35 C31 1.429 . S
C35 C34 1.391 . S
H36 C39 0.931 . S
H37 C42 0.928 . S
H38 C44 0.930 . S
C39 H36 0.931 . S
C39 C40 1.413 . S
C39 C41 1.360 . S
C40 C39 1.413 . S
C40 C44 1.429 . S
C41 C39 1.360 . S
C41 C42 1.372 . S
C42 H37 0.928 . S
C42 C41 1.372 . S
C42 C43 1.404 . S
C43 C42 1.404 . S
C43 C44 1.391 . S
C44 H38 0.930 . S
C44 C40 1.429 . S
C44 C43 1.391 . S
H45 C48 0.931 . S
H46 C51 0.928 . S
H47 C53 0.930 . S
C48 H45 0.931 . S
C48 C49 1.413 . S
C48 C50 1.360 . S
C49 C48 1.413 . S
C49 C53 1.429 . S
C50 C48 1.360 . S
C50 C51 1.372 . S
C51 H46 0.928 . S
C51 C50 1.372 . S
C51 C52 1.404 . S
C52 C51 1.404 . S
C52 C53 1.391 . S
C53 H47 0.930 . S
C53 C49 1.429 . S
C53 C52 1.391 . S
H54 C57 0.931 . S
H55 C60 0.928 . S
H56 C62 0.930 . S
C57 H54 0.931 . S
C57 C58 1.413 . S
C57 C59 1.360 . S
C58 C57 1.413 . S
C58 C62 1.429 . S
C59 C57 1.360 . S
C59 C60 1.372 . S
C60 H55 0.928 . S
C60 C59 1.372 . S
C60 C61 1.404 . S
C61 C60 1.404 . S
C61 C62 1.391 . S
C62 H56 0.930 . S
C62 C58 1.429 . S
C62 C61 1.391 . S
H63 C66 0.931 . S
H64 C69 0.928 . S
H65 C71 0.930 . S
C66 H63 0.931 . S
C66 C67 1.413 . S
C66 C68 1.360 . S
C67 C66 1.413 . S
C67 C71 1.429 . S
C68 C66 1.360 . S
C68 C69 1.372 . S
C69 H64 0.928 . S
C69 C68 1.372 . S
C69 C70 1.404 . S
C70 C69 1.404 . S
C70 C71 1.391 . S
C71 H65 0.930 . S
C71 C67 1.429 . S
C71 C70 1.391 . S
C72 C74 1.422 . S
C72 C76 1.415 . S
C72 N78 1.369 . S
C73 C74 1.421 . S
C73 C75 1.417 . S
C73 C85 1.422 . S
C74 C72 1.422 . S
C74 C73 1.421 . S
C74 N84 1.359 . S
C75 C73 1.417 . S
C75 C77 1.329 . S
C75 H94 0.930 . S
C76 C72 1.415 . S
C76 C77 1.437 . S
C76 C80 1.413 . S
C77 C75 1.329 . S
C77 C76 1.437 . S
C77 H99 0.929 . S
N78 C72 1.369 . S
N78 C79 1.338 . S
N78 Gd83 2.622 . S
C79 N78 1.338 . S
C79 C81 1.378 . S
C79 H91 0.929 . S
C80 C76 1.413 . S
C80 C81 1.348 . S
C80 H96 0.931 . S
C81 C79 1.378 . S
C81 C80 1.348 . S
C81 H97 0.930 . S
Gd82 N102 2.622 . S
Gd82 N109 2.570 . S
Gd82 O116 2.364 . S
Gd82 O117 2.468 . S
Gd82 O118 2.427 . S
Gd82 O120 2.388 . S
Gd82 O121 2.386 . S
Gd82 O125 2.300 1_455 S
Gd82 C135 2.805 . S
Gd83 N78 2.622 . S
Gd83 N84 2.570 . S
Gd83 O115 2.386 . S
Gd83 O119 2.307 1_655 S
Gd83 O122 2.353 1_655 S
Gd83 O123 2.468 . S
Gd83 O124 2.427 . S
Gd83 O126 2.388 . S
Gd83 C147 2.805 . S
N84 C74 1.359 . S
N84 Gd83 2.570 . S
N84 C86 1.343 . S
C85 C73 1.422 . S
C85 C87 1.321 . S
C85 H93 0.931 . S
C86 N84 1.343 . S
C86 C87 1.390 . S
C86 H88 0.931 . S
C87 C85 1.321 . S
C87 C86 1.390 . S
C87 H89 0.930 . S
H88 C86 0.931 . S
H89 C87 0.930 . S
H90 C113 0.931 . S
H91 C79 0.929 . S
H92 C114 0.930 . S
H93 C85 0.931 . S
H94 C75 0.930 . S
H95 C104 0.929 . S
H96 C80 0.931 . S
H97 C81 0.930 . S
H98 C136 0.930 . S
H99 C77 0.929 . S
H100 C105 0.931 . S
H101 C106 0.930 . S
N102 Gd82 2.622 . S
N102 C103 1.369 . S
N102 C104 1.338 . S
C103 N102 1.369 . S
C103 C107 1.415 . S
C103 C110 1.422 . S
C104 H95 0.929 . S
C104 N102 1.338 . S
C104 C106 1.378 . S
C105 H100 0.931 . S
C105 C106 1.348 . S
C105 C107 1.413 . S
C106 H101 0.930 . S
C106 C104 1.378 . S
C106 C105 1.348 . S
C107 C103 1.415 . S
C107 C105 1.413 . S
C107 C137 1.437 . S
H108 C137 0.929 . S
N109 Gd82 2.570 . S
N109 C110 1.359 . S
N109 C113 1.343 . S
C110 C103 1.422 . S
C110 N109 1.359 . S
C110 C112 1.421 . S
C111 C112 1.422 . S
C111 C114 1.321 . S
C111 H138 0.931 . S
C112 C110 1.421 . S
C112 C111 1.422 . S
C112 C136 1.417 . S
C113 H90 0.931 . S
C113 N109 1.343 . S
C113 C114 1.390 . S
C114 H92 0.930 . S
C114 C111 1.321 . S
C114 C113 1.390 . S
O115 Gd83 2.386 . S
O115 C127 1.265 . S
O116 Gd82 2.364 . S
O116 C127 1.228 1_455 S
O117 Gd82 2.468 . S
O117 C135 1.263 . S
O118 Gd82 2.427 . S
O118 C135 1.252 . S
O119 Gd83 2.307 1_455 S
O119 C128 1.261 . S
O120 Gd82 2.388 . S
O120 C128 1.252 . S
O121 Gd82 2.386 . S
O121 C139 1.265 . S
O122 Gd83 2.353 1_455 S
O122 C139 1.242 . S
O123 Gd83 2.468 . S
O123 C147 1.263 . S
O124 Gd83 2.427 . S
O124 C147 1.252 . S
O125 Gd82 2.300 1_655 S
O125 C140 1.269 . S
O126 Gd83 2.388 . S
O126 C140 1.252 . S
C127 O115 1.265 . S
C127 O116 1.228 1_655 S
C128 O119 1.261 . S
C128 O120 1.252 . S
C129 C132 1.394 . S
C129 C134 1.370 . S
C129 C135 1.500 . S
C130 C133 1.383 . S
C130 C134 1.395 . S
C131 C132 1.396 . S
C131 C133 1.365 . S
C131 H148 0.929 . S
C132 C129 1.394 . S
C132 C131 1.396 . S
C132 H149 0.930 . S
C133 C130 1.383 . S
C133 C131 1.365 . S
C133 H150 0.931 . S
C134 C129 1.370 . S
C134 C130 1.395 . S
C134 H151 0.930 . S
C135 Gd82 2.805 . S
C135 O117 1.263 . S
C135 O118 1.252 . S
C135 C129 1.500 . S
C136 H98 0.930 . S
C136 C112 1.417 . S
C136 C137 1.329 . S
C137 C107 1.437 . S
C137 H108 0.929 . S
C137 C136 1.329 . S
H138 C111 0.931 . S
C139 O121 1.265 . S
C139 O122 1.242 . S
C140 O125 1.269 . S
C140 O126 1.252 . S
C141 C144 1.394 . S
C141 C146 1.370 . S
C141 C147 1.500 . S
C142 C145 1.383 . S
C142 C146 1.395 . S
C143 C144 1.396 . S
C143 C145 1.365 . S
C143 H152 0.929 . S
C144 C141 1.394 . S
C144 C143 1.396 . S
C144 H153 0.930 . S
C145 C142 1.383 . S
C145 C143 1.365 . S
C145 H154 0.931 . S
C146 C141 1.370 . S
C146 C142 1.395 . S
C146 H155 0.930 . S
C147 Gd83 2.805 . S
C147 O123 1.263 . S
C147 O124 1.252 . S
C147 C141 1.500 . S
H148 C131 0.929 . S
H149 C132 0.930 . S
H150 C133 0.931 . S
H151 C134 0.930 . S
H152 C143 0.929 . S
H153 C144 0.930 . S
H154 C145 0.931 . S
H155 C146 0.930 . S
C156 C158 1.422 . S
C156 C160 1.415 . S
C156 N162 1.369 . S
C157 C158 1.421 . S
C157 C159 1.417 . S
C157 C169 1.422 . S
C158 C156 1.422 . S
C158 C157 1.421 . S
C158 N168 1.359 . S
C159 C157 1.417 . S
C159 C161 1.329 . S
C159 H178 0.930 . S
C160 C156 1.415 . S
C160 C161 1.437 . S
C160 C164 1.413 . S
C161 C159 1.329 . S
C161 C160 1.437 . S
C161 H183 0.929 . S
N162 C156 1.369 . S
N162 C163 1.338 . S
N162 Gd167 2.622 . S
C163 N162 1.338 . S
C163 C165 1.378 . S
C163 H175 0.929 . S
C164 C160 1.413 . S
C164 C165 1.348 . S
C164 H180 0.931 . S
C165 C163 1.378 . S
C165 C164 1.348 . S
C165 H181 0.930 . S
Gd166 N186 2.622 . S
Gd166 N193 2.570 . S
Gd166 O200 2.353 . S
Gd166 O201 2.468 . S
Gd166 O202 2.427 . S
Gd166 O204 2.388 . S
Gd166 O205 2.386 . S
Gd166 O209 2.307 . S
Gd166 C219 2.805 . S
Gd167 N162 2.622 . S
Gd167 N168 2.570 . S
Gd167 O199 2.386 . S
Gd167 O203 2.307 . S
Gd167 O206 2.353 . S
Gd167 O207 2.468 . S
Gd167 O208 2.427 . S
Gd167 O210 2.388 . S
Gd167 C231 2.805 . S
N168 C158 1.359 . S
N168 Gd167 2.570 . S
N168 C170 1.343 . S
C169 C157 1.422 . S
C169 C171 1.321 . S
C169 H177 0.931 . S
C170 N168 1.343 . S
C170 C171 1.390 . S
C170 H172 0.931 . S
C171 C169 1.321 . S
C171 C170 1.390 . S
C171 H173 0.930 . S
H172 C170 0.931 . S
H173 C171 0.930 . S
H174 C197 0.931 . S
H175 C163 0.929 . S
H176 C198 0.930 . S
H177 C169 0.931 . S
H178 C159 0.930 . S
H179 C188 0.929 . S
H180 C164 0.931 . S
H181 C165 0.930 . S
H182 C220 0.930 . S
H183 C161 0.929 . S
H184 C189 0.931 . S
H185 C190 0.930 . S
N186 Gd166 2.622 . S
N186 C187 1.369 . S
N186 C188 1.338 . S
C187 N186 1.369 . S
C187 C191 1.415 . S
C187 C194 1.422 . S
C188 H179 0.929 . S
C188 N186 1.338 . S
C188 C190 1.378 . S
C189 H184 0.931 . S
C189 C190 1.348 . S
C189 C191 1.413 . S
C190 H185 0.930 . S
C190 C188 1.378 . S
C190 C189 1.348 . S
C191 C187 1.415 . S
C191 C189 1.413 . S
C191 C221 1.437 . S
H192 C221 0.929 . S
N193 Gd166 2.570 . S
N193 C194 1.359 . S
N193 C197 1.343 . S
C194 C187 1.422 . S
C194 N193 1.359 . S
C194 C196 1.421 . S
C195 C196 1.422 . S
C195 C198 1.321 . S
C195 H222 0.931 . S
C196 C194 1.421 . S
C196 C195 1.422 . S
C196 C220 1.417 . S
C197 H174 0.931 . S
C197 N193 1.343 . S
C197 C198 1.390 . S
C198 H176 0.930 . S
C198 C195 1.321 . S
C198 C197 1.390 . S
O199 Gd167 2.386 . S
O199 C211 1.265 . S
O200 Gd166 2.353 . S
O200 C211 1.242 . S
O201 Gd166 2.468 . S
O201 C219 1.263 . S
O202 Gd166 2.427 . S
O202 C219 1.252 . S
O203 Gd167 2.307 . S
O203 C212 1.261 . S
O204 Gd166 2.388 . S
O204 C212 1.252 . S
O205 Gd166 2.386 . S
O205 C223 1.265 . S
O206 Gd167 2.353 . S
O206 C223 1.242 . S
O207 Gd167 2.468 . S
O207 C231 1.263 . S
O208 Gd167 2.427 . S
O208 C231 1.252 . S
O209 Gd166 2.307 . S
O209 C224 1.261 . S
O210 Gd167 2.388 . S
O210 C224 1.252 . S
C211 O199 1.265 . S
C211 O200 1.242 . S
C212 O203 1.261 . S
C212 O204 1.252 . S
C213 C216 1.394 . S
C213 C218 1.370 . S
C213 C219 1.500 . S
C214 C217 1.383 . S
C214 C218 1.395 . S
C215 C216 1.396 . S
C215 C217 1.365 . S
C215 H232 0.929 . S
C216 C213 1.394 . S
C216 C215 1.396 . S
C216 H233 0.930 . S
C217 C214 1.383 . S
C217 C215 1.365 . S
C217 H234 0.931 . S
C218 C213 1.370 . S
C218 C214 1.395 . S
C218 H235 0.930 . S
C219 Gd166 2.805 . S
C219 O201 1.263 . S
C219 O202 1.252 . S
C219 C213 1.500 . S
C220 H182 0.930 . S
C220 C196 1.417 . S
C220 C221 1.329 . S
C221 C191 1.437 . S
C221 H192 0.929 . S
C221 C220 1.329 . S
H222 C195 0.931 . S
C223 O205 1.265 . S
C223 O206 1.242 . S
C224 O209 1.261 . S
C224 O210 1.252 . S
C225 C228 1.394 . S
C225 C230 1.370 . S
C225 C231 1.500 . S
C226 C229 1.383 . S
C226 C230 1.395 . S
C227 C228 1.396 . S
C227 C229 1.365 . S
C227 H236 0.929 . S
C228 C225 1.394 . S
C228 C227 1.396 . S
C228 H237 0.930 . S
C229 C226 1.383 . S
C229 C227 1.365 . S
C229 H238 0.931 . S
C230 C225 1.370 . S
C230 C226 1.395 . S
C230 H239 0.930 . S
C231 Gd167 2.805 . S
C231 O207 1.263 . S
C231 O208 1.252 . S
C231 C225 1.500 . S
H232 C215 0.929 . S
H233 C216 0.930 . S
H234 C217 0.931 . S
H235 C218 0.930 . S
H236 C227 0.929 . S
H237 C228 0.930 . S
H238 C229 0.931 . S
H239 C230 0.930 . S
C240 C242 1.422 . S
C240 C244 1.415 . S
C240 N246 1.369 . S
C241 C242 1.421 . S
C241 C243 1.417 . S
C241 C253 1.422 . S
C242 C240 1.422 . S
C242 C241 1.421 . S
C242 N252 1.359 . S
C243 C241 1.417 . S
C243 C245 1.329 . S
C243 H262 0.930 . S
C244 C240 1.415 . S
C244 C245 1.437 . S
C244 C248 1.413 . S
C245 C243 1.329 . S
C245 C244 1.437 . S
C245 H267 0.929 . S
N246 C240 1.369 . S
N246 C247 1.338 . S
N246 Gd251 2.622 . S
C247 N246 1.338 . S
C247 C249 1.378 . S
C247 H259 0.929 . S
C248 C244 1.413 . S
C248 C249 1.348 . S
C248 H264 0.931 . S
C249 C247 1.378 . S
C249 C248 1.348 . S
C249 H265 0.930 . S
Gd250 N270 2.622 . S
Gd250 N277 2.570 . S
Gd250 O284 2.353 . S
Gd250 O285 2.468 . S
Gd250 O286 2.427 . S
Gd250 O288 2.388 . S
Gd250 O289 2.386 . S
Gd250 O293 2.307 . S
Gd250 C303 2.805 . S
Gd251 N246 2.622 . S
Gd251 N252 2.570 . S
Gd251 O283 2.386 . S
Gd251 O287 2.307 1_655 S
Gd251 O290 2.353 1_655 S
Gd251 O291 2.468 . S
Gd251 O292 2.427 . S
Gd251 O294 2.388 . S
Gd251 C315 2.805 . S
N252 C242 1.359 . S
N252 Gd251 2.570 . S
N252 C254 1.343 . S
C253 C241 1.422 . S
C253 C255 1.321 . S
C253 H261 0.931 . S
C254 N252 1.343 . S
C254 C255 1.390 . S
C254 H256 0.931 . S
C255 C253 1.321 . S
C255 C254 1.390 . S
C255 H257 0.930 . S
H256 C254 0.931 . S
H257 C255 0.930 . S
H258 C281 0.931 . S
H259 C247 0.929 . S
H260 C282 0.930 . S
H261 C253 0.931 . S
H262 C243 0.930 . S
H263 C272 0.929 . S
H264 C248 0.931 . S
H265 C249 0.930 . S
H266 C304 0.930 . S
H267 C245 0.929 . S
H268 C273 0.931 . S
H269 C274 0.930 . S
N270 Gd250 2.622 . S
N270 C271 1.369 . S
N270 C272 1.338 . S
C271 N270 1.369 . S
C271 C275 1.415 . S
C271 C278 1.422 . S
C272 H263 0.929 . S
C272 N270 1.338 . S
C272 C274 1.378 . S
C273 H268 0.931 . S
C273 C274 1.348 . S
C273 C275 1.413 . S
C274 H269 0.930 . S
C274 C272 1.378 . S
C274 C273 1.348 . S
C275 C271 1.415 . S
C275 C273 1.413 . S
C275 C305 1.437 . S
H276 C305 0.929 . S
N277 Gd250 2.570 . S
N277 C278 1.359 . S
N277 C281 1.343 . S
C278 C271 1.422 . S
C278 N277 1.359 . S
C278 C280 1.421 . S
C279 C280 1.422 . S
C279 C282 1.321 . S
C279 H306 0.931 . S
C280 C278 1.421 . S
C280 C279 1.422 . S
C280 C304 1.417 . S
C281 H258 0.931 . S
C281 N277 1.343 . S
C281 C282 1.390 . S
C282 H260 0.930 . S
C282 C279 1.321 . S
C282 C281 1.390 . S
O283 Gd251 2.386 . S
O283 C295 1.265 . S
O284 Gd250 2.353 . S
O284 C295 1.242 1_455 S
O285 Gd250 2.468 . S
O285 C303 1.263 . S
O286 Gd250 2.427 . S
O286 C303 1.252 . S
O287 Gd251 2.307 1_455 S
O287 C296 1.261 . S
O288 Gd250 2.388 . S
O288 C296 1.252 . S
O289 Gd250 2.386 . S
O289 C307 1.265 . S
O290 Gd251 2.353 1_455 S
O290 C307 1.242 . S
O291 Gd251 2.468 . S
O291 C315 1.263 . S
O292 Gd251 2.427 . S
O292 C315 1.252 . S
O293 Gd250 2.307 . S
O293 C308 1.261 1_455 S
O294 Gd251 2.388 . S
O294 C308 1.252 . S
C295 O283 1.265 . S
C295 O284 1.242 1_655 S
C296 O287 1.261 . S
C296 O288 1.252 . S
C297 C300 1.394 . S
C297 C302 1.370 . S
C297 C303 1.500 . S
C298 C301 1.383 . S
C298 C302 1.395 . S
C299 C300 1.396 . S
C299 C301 1.365 . S
C299 H316 0.929 . S
C300 C297 1.394 . S
C300 C299 1.396 . S
C300 H317 0.930 . S
C301 C298 1.383 . S
C301 C299 1.365 . S
C301 H318 0.931 . S
C302 C297 1.370 . S
C302 C298 1.395 . S
C302 H319 0.930 . S
C303 Gd250 2.805 . S
C303 O285 1.263 . S
C303 O286 1.252 . S
C303 C297 1.500 . S
C304 H266 0.930 . S
C304 C280 1.417 . S
C304 C305 1.329 . S
C305 C275 1.437 . S
C305 H276 0.929 . S
C305 C304 1.329 . S
H306 C279 0.931 . S
C307 O289 1.265 . S
C307 O290 1.242 . S
C308 O293 1.261 1_655 S
C308 O294 1.252 . S
C309 C312 1.394 . S
C309 C314 1.370 . S
C309 C315 1.500 . S
C310 C313 1.383 . S
C310 C314 1.395 . S
C311 C312 1.396 . S
C311 C313 1.365 . S
C311 H320 0.929 . S
C312 C309 1.394 . S
C312 C311 1.396 . S
C312 H321 0.930 . S
C313 C310 1.383 . S
C313 C311 1.365 . S
C313 H322 0.931 . S
C314 C309 1.370 . S
C314 C310 1.395 . S
C314 H323 0.930 . S
C315 Gd251 2.805 . S
C315 O291 1.263 . S
C315 O292 1.252 . S
C315 C309 1.500 . S
H316 C299 0.929 . S
H317 C300 0.930 . S
H318 C301 0.931 . S
H319 C302 0.930 . S
H320 C311 0.929 . S
H321 C312 0.930 . S
H322 C313 0.931 . S
H323 C314 0.930 . S
C324 C326 1.422 . S
C324 C328 1.415 . S
C324 N330 1.369 . S
C325 C326 1.421 . S
C325 C327 1.417 . S
C325 C337 1.422 . S
C326 C324 1.422 . S
C326 C325 1.421 . S
C326 N336 1.359 . S
C327 C325 1.417 . S
C327 C329 1.329 . S
C327 H346 0.930 . S
C328 C324 1.415 . S
C328 C329 1.437 . S
C328 C332 1.413 . S
C329 C327 1.329 . S
C329 C328 1.437 . S
C329 H351 0.929 . S
N330 C324 1.369 . S
N330 C331 1.338 . S
N330 Gd335 2.622 . S
C331 N330 1.338 . S
C331 C333 1.378 . S
C331 H343 0.929 . S
C332 C328 1.413 . S
C332 C333 1.348 . S
C332 H348 0.931 . S
C333 C331 1.378 . S
C333 C332 1.348 . S
C333 H349 0.930 . S
Gd334 N354 2.622 . S
Gd334 N361 2.570 . S
Gd334 O368 2.353 . S
Gd334 O369 2.468 . S
Gd334 O370 2.427 . S
Gd334 O372 2.388 . S
Gd334 O373 2.386 . S
Gd334 O377 2.307 . S
Gd334 C387 2.805 . S
Gd335 N330 2.622 . S
Gd335 N336 2.570 . S
Gd335 O367 2.386 . S
Gd335 O371 2.307 . S
Gd335 O374 2.353 . S
Gd335 O375 2.468 . S
Gd335 O376 2.427 . S
Gd335 O378 2.388 . S
Gd335 C399 2.805 . S
N336 C326 1.359 . S
N336 Gd335 2.570 . S
N336 C338 1.343 . S
C337 C325 1.422 . S
C337 C339 1.321 . S
C337 H345 0.931 . S
C338 N336 1.343 . S
C338 C339 1.390 . S
C338 H340 0.931 . S
C339 C337 1.321 . S
C339 C338 1.390 . S
C339 H341 0.930 . S
H340 C338 0.931 . S
H341 C339 0.930 . S
H342 C365 0.931 . S
H343 C331 0.929 . S
H344 C366 0.930 . S
H345 C337 0.931 . S
H346 C327 0.930 . S
H347 C356 0.929 . S
H348 C332 0.931 . S
H349 C333 0.930 . S
H350 C388 0.930 . S
H351 C329 0.929 . S
H352 C357 0.931 . S
H353 C358 0.930 . S
N354 Gd334 2.622 . S
N354 C355 1.369 . S
N354 C356 1.338 . S
C355 N354 1.369 . S
C355 C359 1.415 . S
C355 C362 1.422 . S
C356 H347 0.929 . S
C356 N354 1.338 . S
C356 C358 1.378 . S
C357 H352 0.931 . S
C357 C358 1.348 . S
C357 C359 1.413 . S
C358 H353 0.930 . S
C358 C356 1.378 . S
C358 C357 1.348 . S
C359 C355 1.415 . S
C359 C357 1.413 . S
C359 C389 1.437 . S
H360 C389 0.929 . S
N361 Gd334 2.570 . S
N361 C362 1.359 . S
N361 C365 1.343 . S
C362 C355 1.422 . S
C362 N361 1.359 . S
C362 C364 1.421 . S
C363 C364 1.422 . S
C363 C366 1.321 . S
C363 H390 0.931 . S
C364 C362 1.421 . S
C364 C363 1.422 . S
C364 C388 1.417 . S
C365 H342 0.931 . S
C365 N361 1.343 . S
C365 C366 1.390 . S
C366 H344 0.930 . S
C366 C363 1.321 . S
C366 C365 1.390 . S
O367 Gd335 2.386 . S
O367 C379 1.265 . S
O368 Gd334 2.353 . S
O368 C379 1.242 . S
O369 Gd334 2.468 . S
O369 C387 1.263 . S
O370 Gd334 2.427 . S
O370 C387 1.252 . S
O371 Gd335 2.307 . S
O371 C380 1.261 . S
O372 Gd334 2.388 . S
O372 C380 1.252 . S
O373 Gd334 2.386 . S
O373 C391 1.265 . S
O374 Gd335 2.353 . S
O374 C391 1.242 . S
O375 Gd335 2.468 . S
O375 C399 1.263 . S
O376 Gd335 2.427 . S
O376 C399 1.252 . S
O377 Gd334 2.307 . S
O377 C392 1.261 . S
O378 Gd335 2.388 . S
O378 C392 1.252 . S
C379 O367 1.265 . S
C379 O368 1.242 . S
C380 O371 1.261 . S
C380 O372 1.252 . S
C381 C384 1.394 . S
C381 C386 1.370 . S
C381 C387 1.500 . S
C382 C385 1.383 . S
C382 C386 1.395 . S
C383 C384 1.396 . S
C383 C385 1.365 . S
C383 H400 0.929 . S
C384 C381 1.394 . S
C384 C383 1.396 . S
C384 H401 0.930 . S
C385 C382 1.383 . S
C385 C383 1.365 . S
C385 H402 0.931 . S
C386 C381 1.370 . S
C386 C382 1.395 . S
C386 H403 0.930 . S
C387 Gd334 2.805 . S
C387 O369 1.263 . S
C387 O370 1.252 . S
C387 C381 1.500 . S
C388 H350 0.930 . S
C388 C364 1.417 . S
C388 C389 1.329 . S
C389 C359 1.437 . S
C389 H360 0.929 . S
C389 C388 1.329 . S
H390 C363 0.931 . S
C391 O373 1.265 . S
C391 O374 1.242 . S
C392 O377 1.261 . S
C392 O378 1.252 . S
C393 C396 1.394 . S
C393 C398 1.370 . S
C393 C399 1.500 . S
C394 C397 1.383 . S
C394 C398 1.395 . S
C395 C396 1.396 . S
C395 C397 1.365 . S
C395 H404 0.929 . S
C396 C393 1.394 . S
C396 C395 1.396 . S
C396 H405 0.930 . S
C397 C394 1.383 . S
C397 C395 1.365 . S
C397 H406 0.931 . S
C398 C393 1.370 . S
C398 C394 1.395 . S
C398 H407 0.930 . S
C399 Gd335 2.805 . S
C399 O375 1.263 . S
C399 O376 1.252 . S
C399 C393 1.500 . S
H400 C383 0.929 . S
H401 C384 0.930 . S
H402 C385 0.931 . S
H403 C386 0.930 . S
H404 C395 0.929 . S
H405 C396 0.930 . S
H406 C397 0.931 . S
H407 C398 0.930 . S
H408 C414 0.930 . S
H409 C418 0.930 . S
H410 C423 0.929 . S
H411 C421 0.929 . S
H412 C416 0.929 . S
H413 C422 0.929 . S
C414 H408 0.930 . S
C414 C415 1.367 . S
C414 C422 1.378 . S
C415 C414 1.367 . S
C415 C423 1.433 . S
C416 H412 0.929 . S
C416 C418 1.378 . S
C416 C420 1.350 . S
C417 C420 1.463 1_565 S
C417 C422 1.350 . S
C417 N425 1.427 . S
C418 H409 0.930 . S
C418 C416 1.378 . S
C418 C419 1.367 . S
C419 C418 1.367 . S
C419 C421 1.433 . S
C420 C416 1.350 . S
C420 C417 1.463 1_545 S
C420 N424 1.427 . S
C421 H411 0.929 . S
C421 C419 1.433 . S
C421 N424 1.384 . S
C422 H413 0.929 . S
C422 C414 1.378 . S
C422 C417 1.350 . S
C423 H410 0.929 . S
C423 C415 1.433 . S
C423 N425 1.384 . S
N424 C420 1.427 . S
N424 C421 1.384 . S
N425 C417 1.427 . S
N425 C423 1.384 . S
H426 C432 0.930 . S
H427 C436 0.930 . S
H428 C441 0.929 . S
H429 C439 0.929 . S
H430 C434 0.929 . S
H431 C440 0.929 . S
C432 H426 0.930 . S
C432 C433 1.367 . S
C432 C440 1.378 . S
C433 C432 1.367 . S
C433 C441 1.433 . S
C434 H430 0.929 . S
C434 C436 1.378 . S
C434 C438 1.350 . S
C435 C438 1.463 . S
C435 C440 1.350 . S
C435 N443 1.427 . S
C436 H427 0.930 . S
C436 C434 1.378 . S
C436 C437 1.367 . S
C437 C436 1.367 . S
C437 C439 1.433 . S
C438 C434 1.350 . S
C438 C435 1.463 . S
C438 N442 1.427 . S
C439 H429 0.929 . S
C439 C437 1.433 . S
C439 N442 1.384 . S
C440 H431 0.929 . S
C440 C432 1.378 . S
C440 C435 1.350 . S
C441 H428 0.929 . S
C441 C433 1.433 . S
C441 N443 1.384 . S
N442 C438 1.427 . S
N442 C439 1.384 . S
N443 C435 1.427 . S
N443 C441 1.384 . S
H444 C450 0.930 . S
H445 C454 0.930 . S
H446 C459 0.929 . S
H447 C457 0.929 . S
H448 C452 0.929 . S
H449 C458 0.929 . S
C450 H444 0.930 . S
C450 C451 1.367 . S
C450 C458 1.378 . S
C451 C450 1.367 . S
C451 C459 1.433 . S
C452 H448 0.929 . S
C452 C454 1.378 . S
C452 C456 1.350 . S
C453 C456 1.463 . S
C453 C458 1.350 . S
C453 N461 1.427 . S
C454 H445 0.930 . S
C454 C452 1.378 . S
C454 C455 1.367 . S
C455 C454 1.367 . S
C455 C457 1.433 . S
C456 C452 1.350 . S
C456 C453 1.463 . S
C456 N460 1.427 . S
C457 H447 0.929 . S
C457 C455 1.433 . S
C457 N460 1.384 . S
C458 H449 0.929 . S
C458 C450 1.378 . S
C458 C453 1.350 . S
C459 H446 0.929 . S
C459 C451 1.433 . S
C459 N461 1.384 . S
N460 C456 1.427 . S
N460 C457 1.384 . S
N461 C453 1.427 . S
N461 C459 1.384 . S
H462 C468 0.930 . S
H463 C472 0.930 . S
H464 C477 0.929 . S
H465 C475 0.929 . S
H466 C470 0.929 1_565 S
H467 C476 0.908 1_545 S
C468 H462 0.930 . S
C468 C469 1.367 . S
C468 C476 1.393 . S
C469 C468 1.367 . S
C469 C477 1.433 . S
C470 H466 0.929 1_545 S
C470 C472 1.378 . S
C470 C474 1.350 . S
C471 C474 1.463 1_565 S
C471 C476 1.355 . S
C471 N479 1.427 . S
C472 H463 0.930 . S
C472 C470 1.378 . S
C472 C473 1.367 . S
C473 C472 1.367 . S
C473 C475 1.433 . S
C474 C470 1.350 . S
C474 C471 1.463 1_545 S
C474 N478 1.427 . S
C475 H465 0.929 . S
C475 C473 1.433 . S
C475 N478 1.384 . S
C476 H467 0.908 1_565 S
C476 C468 1.393 . S
C476 C471 1.355 . S
C477 H464 0.929 . S
C477 C469 1.433 . S
C477 N479 1.384 . S
N478 C474 1.427 . S
N478 C475 1.384 . S
N479 C471 1.427 . S
N479 C477 1.384 . S
H480 C486 0.930 . S
H481 C490 0.930 . S
H482 C495 0.929 . S
H483 C493 0.929 . S
H484 C488 0.929 . S
H485 C494 0.929 . S
C486 H480 0.930 . S
C486 C487 1.367 . S
C486 C494 1.378 . S
C487 C486 1.367 . S
C487 C495 1.433 . S
C488 H484 0.929 . S
C488 C490 1.378 . S
C488 C492 1.350 . S
C489 C492 1.463 1_545 S
C489 C494 1.350 . S
C489 N497 1.427 . S
C490 H481 0.930 . S
C490 C488 1.378 . S
C490 C491 1.367 . S
C491 C490 1.367 . S
C491 C493 1.433 . S
C492 C488 1.350 . S
C492 C489 1.463 1_565 S
C492 N496 1.427 . S
C493 H483 0.929 . S
C493 C491 1.433 . S
C493 N496 1.384 . S
C494 H485 0.929 . S
C494 C486 1.378 . S
C494 C489 1.350 . S
C495 H482 0.929 . S
C495 C487 1.433 . S
C495 N497 1.384 . S
N496 C492 1.427 . S
N496 C493 1.384 . S
N497 C489 1.427 . S
N497 C495 1.384 . S
H498 C504 0.930 . S
H499 C508 0.930 . S
H500 C513 0.929 . S
H501 C511 0.929 . S
H502 C506 0.929 . S
H503 C512 0.929 . S
C504 H498 0.930 . S
C504 C505 1.367 . S
C504 C512 1.378 . S
C505 C504 1.367 . S
C505 C513 1.433 . S
C506 H502 0.929 . S
C506 C508 1.378 . S
C506 C510 1.350 . S
C507 C510 1.463 . S
C507 C512 1.350 . S
C507 N515 1.427 . S
C508 H499 0.930 . S
C508 C506 1.378 . S
C508 C509 1.367 . S
C509 C508 1.367 . S
C509 C511 1.433 . S
C510 C506 1.350 . S
C510 C507 1.463 . S
C510 N514 1.427 . S
C511 H501 0.929 . S
C511 C509 1.433 . S
C511 N514 1.384 . S
C512 H503 0.929 . S
C512 C504 1.378 . S
C512 C507 1.350 . S
C513 H500 0.929 . S
C513 C505 1.433 . S
C513 N515 1.384 . S
N514 C510 1.427 . S
N514 C511 1.384 . S
N515 C507 1.427 . S
N515 C513 1.384 . S
H516 C522 0.930 . S
H517 C526 0.930 . S
H518 C531 0.929 . S
H519 C529 0.929 . S
H520 C524 0.929 . S
H521 C530 0.929 . S
C522 H516 0.930 . S
C522 C523 1.367 . S
C522 C530 1.378 . S
C523 C522 1.367 . S
C523 C531 1.433 . S
C524 H520 0.929 . S
C524 C526 1.378 . S
C524 C528 1.350 . S
C525 C528 1.463 . S
C525 C530 1.350 . S
C525 N533 1.427 . S
C526 H517 0.930 . S
C526 C524 1.378 . S
C526 C527 1.367 . S
C527 C526 1.367 . S
C527 C529 1.433 . S
C528 C524 1.350 . S
C528 C525 1.463 . S
C528 N532 1.427 . S
C529 H519 0.929 . S
C529 C527 1.433 . S
C529 N532 1.384 . S
C530 H521 0.929 . S
C530 C522 1.378 . S
C530 C525 1.350 . S
C531 H518 0.929 . S
C531 C523 1.433 . S
C531 N533 1.384 . S
N532 C528 1.427 . S
N532 C529 1.384 . S
N533 C525 1.427 . S
N533 C531 1.384 . S
H534 C540 0.930 . S
H535 C544 0.930 . S
H536 C549 0.929 . S
H537 C547 0.929 . S
H538 C542 0.929 . S
H539 C548 0.947 . S
C540 H534 0.930 . S
C540 C541 1.367 . S
C540 C548 1.378 . S
C541 C540 1.367 . S
C541 C549 1.433 . S
C542 H538 0.929 . S
C542 C544 1.378 . S
C542 C546 1.350 . S
C543 C546 1.463 1_545 S
C543 C548 1.350 . S
C543 N551 1.427 . S
C544 H535 0.930 . S
C544 C542 1.378 . S
C544 C545 1.367 . S
C545 C544 1.367 . S
C545 C547 1.433 . S
C546 C542 1.350 . S
C546 C543 1.463 1_565 S
C546 N550 1.427 . S
C547 H537 0.929 . S
C547 C545 1.433 . S
C547 N550 1.384 . S
C548 H539 0.947 . S
C548 C540 1.378 . S
C548 C543 1.350 . S
C549 H536 0.929 . S
C549 C541 1.433 . S
C549 N551 1.384 . S
N550 C546 1.427 . S
N550 C547 1.384 . S
N551 C543 1.427 . S
N551 C549 1.384 . S
H552 C558 0.930 . S
H553 C562 0.930 . S
H554 C567 0.929 . S
H555 C565 0.929 . S
H556 C560 0.929 . S
H557 C566 0.929 1_554 S
C558 H552 0.930 . S
C558 C559 1.367 . S
C558 C566 1.378 . S
C559 C558 1.367 . S
C559 C567 1.433 . S
C560 H556 0.929 . S
C560 C562 1.378 . S
C560 C564 1.350 . S
C561 C564 1.463 . S
C561 C566 1.350 1_554 S
C561 N569 1.427 1_554 S
C562 H553 0.930 . S
C562 C560 1.378 . S
C562 C563 1.367 . S
C563 C562 1.367 . S
C563 C565 1.433 . S
C564 C560 1.350 . S
C564 C561 1.463 . S
C564 N568 1.427 . S
C565 H555 0.929 . S
C565 C563 1.433 . S
C565 N568 1.384 . S
C566 H557 0.929 1_556 S
C566 C558 1.378 . S
C566 C561 1.350 1_556 S
C567 H554 0.929 . S
C567 C559 1.433 . S
C567 N569 1.384 . S
N568 C564 1.427 . S
N568 C565 1.384 . S
N569 C561 1.427 1_556 S
N569 C567 1.384 . S
H570 C576 0.930 . S
H571 C580 0.930 . S
H572 C585 0.929 . S
H573 C583 0.929 . S
H574 C578 0.929 . S
H575 C584 0.929 . S
C576 H570 0.930 . S
C576 C577 1.367 . S
C576 C584 1.378 . S
C577 C576 1.367 . S
C577 C585 1.433 . S
C578 H574 0.929 . S
C578 C580 1.378 . S
C578 C582 1.350 . S
C579 C582 1.463 . S
C579 C584 1.350 . S
C579 N587 1.427 . S
C580 H571 0.930 . S
C580 C578 1.378 . S
C580 C581 1.367 . S
C581 C580 1.367 . S
C581 C583 1.433 . S
C582 C578 1.350 . S
C582 C579 1.463 . S
C582 N586 1.427 . S
C583 H573 0.929 . S
C583 C581 1.433 . S
C583 N586 1.384 . S
C584 H575 0.929 . S
C584 C576 1.378 . S
C584 C579 1.350 . S
C585 H572 0.929 . S
C585 C577 1.433 . S
C585 N587 1.384 . S
N586 C582 1.427 . S
N586 C583 1.384 . S
N587 C579 1.427 . S
N587 C585 1.384 . S
H588 C594 0.930 . S
H589 C598 0.930 . S
H590 C603 0.929 . S
H591 C601 0.929 . S
H592 C596 0.929 . S
H593 C602 0.929 . S
C594 H588 0.930 . S
C594 C595 1.367 . S
C594 C602 1.378 . S
C595 C594 1.367 . S
C595 C603 1.433 . S
C596 H592 0.929 . S
C596 C598 1.378 . S
C596 C600 1.350 . S
C597 C600 1.467 1_554 S
C597 C602 1.348 . S
C597 N605 1.426 . S
C598 H589 0.930 . S
C598 C596 1.378 . S
C598 C599 1.367 . S
C599 C598 1.367 . S
C599 C601 1.433 . S
C600 C596 1.350 . S
C600 C597 1.467 1_556 S
C600 N604 1.427 . S
C601 H591 0.929 . S
C601 C599 1.433 . S
C601 N604 1.384 . S
C602 H593 0.929 . S
C602 C594 1.378 . S
C602 C597 1.348 . S
C603 H590 0.929 . S
C603 C595 1.433 . S
C603 N605 1.384 . S
N604 C600 1.427 . S
N604 C601 1.384 . S
N605 C597 1.426 . S
N605 C603 1.384 . S
H606 C612 0.930 . S
H607 C616 0.930 . S
H608 C621 0.929 . S
H609 C619 0.929 . S
H610 C614 0.929 . S
H611 C620 0.929 . S
C612 H606 0.930 . S
C612 C613 1.367 . S
C612 C620 1.378 . S
C613 C612 1.367 . S
C613 C621 1.433 . S
C614 H610 0.929 . S
C614 C616 1.378 . S
C614 C618 1.350 . S
C615 C618 1.463 . S
C615 C620 1.350 . S
C615 N623 1.427 . S
C616 H607 0.930 . S
C616 C614 1.378 . S
C616 C617 1.367 . S
C617 C616 1.367 . S
C617 C619 1.433 . S
C618 C614 1.350 . S
C618 C615 1.463 . S
C618 N622 1.427 . S
C619 H609 0.929 . S
C619 C617 1.433 . S
C619 N622 1.384 . S
C620 H611 0.929 . S
C620 C612 1.378 . S
C620 C615 1.350 . S
C621 H608 0.929 . S
C621 C613 1.433 . S
C621 N623 1.384 . S
N622 C618 1.427 . S
N622 C619 1.384 . S
N623 C615 1.427 . S
N623 C621 1.384 . S
H624 C630 0.930 . S
H625 C634 0.930 . S
H626 C639 0.929 . S
H627 C637 0.929 . S
H628 C632 0.929 . S
H629 C638 0.929 1_556 S
C630 H624 0.930 . S
C630 C631 1.367 . S
C630 C638 1.378 . S
C631 C630 1.367 . S
C631 C639 1.433 . S
C632 H628 0.929 . S
C632 C634 1.378 . S
C632 C636 1.350 . S
C633 C636 1.463 . S
C633 C638 1.350 1_556 S
C633 N641 1.427 1_556 S
C634 H625 0.930 . S
C634 C632 1.378 . S
C634 C635 1.367 . S
C635 C634 1.367 . S
C635 C637 1.433 . S
C636 C632 1.350 . S
C636 C633 1.463 . S
C636 N640 1.427 . S
C637 H627 0.929 . S
C637 C635 1.433 . S
C637 N640 1.384 . S
C638 H629 0.929 1_554 S
C638 C630 1.378 . S
C638 C633 1.350 1_554 S
C639 H626 0.929 . S
C639 C631 1.433 . S
C639 N641 1.384 . S
N640 C636 1.427 . S
N640 C637 1.384 . S
N641 C633 1.427 1_554 S
N641 C639 1.384 . S
H642 C648 0.930 . S
H643 C652 0.930 . S
H644 C657 0.929 . S
H645 C655 0.929 . S
H646 C650 0.929 . S
H647 C656 0.929 . S
C648 H642 0.930 . S
C648 C649 1.367 . S
C648 C656 1.378 . S
C649 C648 1.367 . S
C649 C657 1.433 . S
C650 H646 0.929 . S
C650 C652 1.378 . S
C650 C654 1.350 . S
C651 C654 1.463 . S
C651 C656 1.350 . S
C651 N659 1.427 . S
C652 H643 0.930 . S
C652 C650 1.378 . S
C652 C653 1.367 . S
C653 C652 1.367 . S
C653 C655 1.433 . S
C654 C650 1.350 . S
C654 C651 1.463 . S
C654 N658 1.427 . S
C655 H645 0.929 . S
C655 C653 1.433 . S
C655 N658 1.384 . S
C656 H647 0.929 . S
C656 C648 1.378 . S
C656 C651 1.350 . S
C657 H644 0.929 . S
C657 C649 1.433 . S
C657 N659 1.384 . S
N658 C654 1.427 . S
N658 C655 1.384 . S
N659 C651 1.427 . S
N659 C657 1.384 . S
H660 C666 0.930 . S
H661 C670 0.930 . S
H662 C675 0.929 . S
H663 C673 0.929 . S
H664 C668 0.929 . S
H665 C674 0.929 . S
C666 H660 0.930 . S
C666 C667 1.367 . S
C666 C674 1.378 . S
C667 C666 1.367 . S
C667 C675 1.433 . S
C668 H664 0.929 . S
C668 C670 1.378 . S
C668 C672 1.350 . S
C669 C672 1.462 . S
C669 C674 1.350 1_554 S
C669 N677 1.428 1_554 S
C670 H661 0.930 . S
C670 C668 1.378 . S
C670 C671 1.367 . S
C671 C670 1.367 . S
C671 C673 1.433 . S
C672 C668 1.350 . S
C672 C669 1.462 . S
C672 N676 1.427 . S
C673 H663 0.929 . S
C673 C671 1.433 . S
C673 N676 1.384 . S
C674 H665 0.929 . S
C674 C666 1.378 . S
C674 C669 1.350 1_556 S
C675 H662 0.929 . S
C675 C667 1.433 . S
C675 N677 1.384 . S
N676 C672 1.427 . S
N676 C673 1.384 . S
N677 C669 1.428 1_556 S
N677 C675 1.384 . S
H678 C684 0.930 . S
H679 C688 0.930 . S
H680 C693 0.929 . S
H681 C691 0.929 . S
H682 C686 0.929 . S
H683 C692 0.929 . S
C684 H678 0.930 . S
C684 C685 1.367 . S
C684 C692 1.378 . S
C685 C684 1.367 . S
C685 C693 1.433 . S
C686 H682 0.929 . S
C686 C688 1.378 . S
C686 C690 1.350 . S
C687 C690 1.463 . S
C687 C692 1.350 . S
C687 N695 1.427 . S
C688 H679 0.930 . S
C688 C686 1.378 . S
C688 C689 1.367 . S
C689 C688 1.367 . S
C689 C691 1.433 . S
C690 C686 1.350 . S
C690 C687 1.463 . S
C690 N694 1.427 . S
C691 H681 0.929 . S
C691 C689 1.433 . S
C691 N694 1.384 . S
C692 H683 0.929 . S
C692 C684 1.378 . S
C692 C687 1.350 . S
C693 H680 0.929 . S
C693 C685 1.433 . S
C693 N695 1.384 . S
N694 C690 1.427 . S
N694 C691 1.384 . S
N695 C687 1.427 . S
N695 C693 1.384 . S
H696 C702 0.930 . S
H697 C706 0.930 . S
H698 C711 0.929 . S
H699 C709 0.929 . S
H700 C704 0.929 . S
H701 C710 0.929 . S
C702 H696 0.930 . S
C702 C703 1.367 . S
C702 C710 1.378 . S
C703 C702 1.367 . S
C703 C711 1.433 . S
C704 H700 0.929 . S
C704 C706 1.378 . S
C704 C708 1.350 . S
C705 C708 1.463 . S
C705 C710 1.350 . S
C705 N713 1.427 . S
C706 H697 0.930 . S
C706 C704 1.378 . S
C706 C707 1.367 . S
C707 C706 1.367 . S
C707 C709 1.433 . S
C708 C704 1.350 . S
C708 C705 1.463 . S
C708 N712 1.427 . S
C709 H699 0.929 . S
C709 C707 1.433 . S
C709 N712 1.384 . S
C710 H701 0.929 . S
C710 C702 1.378 . S
C710 C705 1.350 . S
C711 H698 0.929 . S
C711 C703 1.433 . S
C711 N713 1.384 . S
N712 C708 1.427 . S
N712 C709 1.384 . S
N713 C705 1.427 . S
N713 C711 1.384 . S
H714 C720 0.930 . S
H715 C724 0.930 . S
H716 C729 0.929 . S
H717 C727 0.929 . S
H718 C722 0.929 . S
H719 C728 0.929 . S
C720 H714 0.930 . S
C720 C721 1.367 . S
C720 C728 1.378 . S
C721 C720 1.367 . S
C721 C729 1.433 . S
C722 H718 0.929 . S
C722 C724 1.378 . S
C722 C726 1.350 . S
C723 C726 1.463 . S
C723 C728 1.350 . S
C723 N731 1.427 . S
C724 H715 0.930 . S
C724 C722 1.378 . S
C724 C725 1.367 . S
C725 C724 1.367 . S
C725 C727 1.433 . S
C726 C722 1.350 . S
C726 C723 1.463 . S
C726 N730 1.427 . S
C727 H717 0.929 . S
C727 C725 1.433 . S
C727 N730 1.384 . S
C728 H719 0.929 . S
C728 C720 1.378 . S
C728 C723 1.350 . S
C729 H716 0.929 . S
C729 C721 1.433 . S
C729 N731 1.384 . S
N730 C726 1.427 . S
N730 C727 1.384 . S
N731 C723 1.427 . S
N731 C729 1.384 . S
H732 C738 0.930 . S
H733 C742 0.930 . S
H734 C747 0.929 . S
H735 C745 0.929 . S
H736 C740 0.929 . S
H737 C746 0.929 . S
C738 H732 0.930 . S
C738 C739 1.367 . S
C738 C746 1.378 . S
C739 C738 1.367 . S
C739 C747 1.433 . S
C740 H736 0.929 . S
C740 C742 1.378 . S
C740 C744 1.350 . S
C741 C744 1.463 . S
C741 C746 1.350 . S
C741 N749 1.427 . S
C742 H733 0.930 . S
C742 C740 1.378 . S
C742 C743 1.367 . S
C743 C742 1.367 . S
C743 C745 1.433 . S
C744 C740 1.350 . S
C744 C741 1.463 . S
C744 N748 1.427 . S
C745 H735 0.929 . S
C745 C743 1.433 . S
C745 N748 1.384 . S
C746 H737 0.929 . S
C746 C738 1.378 . S
C746 C741 1.350 . S
C747 H734 0.929 . S
C747 C739 1.433 . S
C747 N749 1.384 . S
N748 C744 1.427 . S
N748 C745 1.384 . S
N749 C741 1.427 . S
N749 C747 1.384 . S
H750 C756 0.930 . S
H751 C760 0.930 . S
H752 C765 0.929 . S
H753 C763 0.929 . S
H754 C758 0.929 . S
H755 C764 0.929 . S
C756 H750 0.930 . S
C756 C757 1.367 . S
C756 C764 1.378 . S
C757 C756 1.367 . S
C757 C765 1.433 . S
C758 H754 0.929 . S
C758 C760 1.378 . S
C758 C762 1.350 . S
C759 C762 1.463 . S
C759 C764 1.350 . S
C759 N767 1.427 . S
C760 H751 0.930 . S
C760 C758 1.378 . S
C760 C761 1.367 . S
C761 C760 1.367 . S
C761 C763 1.433 . S
C762 C758 1.350 . S
C762 C759 1.463 . S
C762 N766 1.427 . S
C763 H753 0.929 . S
C763 C761 1.433 . S
C763 N766 1.384 . S
C764 H755 0.929 . S
C764 C756 1.378 . S
C764 C759 1.350 . S
C765 H752 0.929 . S
C765 C757 1.433 . S
C765 N767 1.384 . S
N766 C762 1.427 . S
N766 C763 1.384 . S
N767 C759 1.427 . S
N767 C765 1.384 . S
H768 C774 0.930 . S
H769 C778 0.930 . S
H770 C783 0.929 . S
H771 C781 0.929 . S
H772 C776 0.929 . S
H773 C782 0.929 . S
C774 H768 0.930 . S
C774 C775 1.367 . S
C774 C782 1.378 . S
C775 C774 1.367 . S
C775 C783 1.433 . S
C776 H772 0.929 . S
C776 C778 1.378 . S
C776 C780 1.350 . S
C777 C780 1.463 . S
C777 C782 1.350 . S
C777 N785 1.427 . S
C778 H769 0.930 . S
C778 C776 1.378 . S
C778 C779 1.367 . S
C779 C778 1.367 . S
C779 C781 1.433 . S
C780 C776 1.350 . S
C780 C777 1.463 . S
C780 N784 1.427 . S
C781 H771 0.929 . S
C781 C779 1.433 . S
C781 N784 1.384 . S
C782 H773 0.929 . S
C782 C774 1.378 . S
C782 C777 1.350 . S
C783 H770 0.929 . S
C783 C775 1.433 . S
C783 N785 1.384 . S
N784 C780 1.427 . S
N784 C781 1.384 . S
N785 C777 1.427 . S
N785 C783 1.384 . S
H786 C792 0.930 . S
H787 C796 0.930 . S
H788 C801 0.929 . S
H789 C799 0.929 . S
H790 C794 0.929 . S
H791 C800 0.929 . S
C792 H786 0.930 . S
C792 C793 1.367 . S
C792 C800 1.378 . S
C793 C792 1.367 . S
C793 C801 1.433 . S
C794 H790 0.929 . S
C794 C796 1.378 . S
C794 C798 1.350 . S
C795 C798 1.463 . S
C795 C800 1.350 . S
C795 N803 1.427 . S
C796 H787 0.930 . S
C796 C794 1.378 . S
C796 C797 1.367 . S
C797 C796 1.367 . S
C797 C799 1.433 . S
C798 C794 1.350 . S
C798 C795 1.463 . S
C798 N802 1.427 . S
C799 H789 0.929 . S
C799 C797 1.433 . S
C799 N802 1.384 . S
C800 H791 0.929 . S
C800 C792 1.378 . S
C800 C795 1.350 . S
C801 H788 0.929 . S
C801 C793 1.433 . S
C801 N803 1.384 . S
N802 C798 1.427 . S
N802 C799 1.384 . S
N803 C795 1.427 . S
N803 C801 1.384 . S
H804 C810 0.930 . S
H805 C814 0.930 . S
H806 C819 0.929 . S
H807 C817 0.929 . S
H808 C812 0.929 . S
H809 C818 0.929 . S
C810 H804 0.930 . S
C810 C811 1.367 . S
C810 C818 1.378 . S
C811 C810 1.367 . S
C811 C819 1.433 . S
C812 H808 0.929 . S
C812 C814 1.378 . S
C812 C816 1.350 . S
C813 C816 1.463 . S
C813 C818 1.350 . S
C813 N821 1.427 . S
C814 H805 0.930 . S
C814 C812 1.378 . S
C814 C815 1.367 . S
C815 C814 1.367 . S
C815 C817 1.433 . S
C816 C812 1.350 . S
C816 C813 1.463 . S
C816 N820 1.427 . S
C817 H807 0.929 . S
C817 C815 1.433 . S
C817 N820 1.384 . S
C818 H809 0.929 . S
C818 C810 1.378 . S
C818 C813 1.350 . S
C819 H806 0.929 . S
C819 C811 1.433 . S
C819 N821 1.384 . S
N820 C816 1.427 . S
N820 C817 1.384 . S
N821 C813 1.427 . S
N821 C819 1.384 . S
H822 C828 0.930 . S
H823 C832 0.930 . S
H824 C837 0.929 . S
H825 C835 0.929 . S
H826 C830 0.929 . S
H827 C836 0.929 . S
C828 H822 0.930 . S
C828 C829 1.367 . S
C828 C836 1.378 . S
C829 C828 1.367 . S
C829 C837 1.433 . S
C830 H826 0.929 . S
C830 C832 1.378 . S
C830 C834 1.350 . S
C831 C834 1.463 . S
C831 C836 1.350 . S
C831 N839 1.427 . S
C832 H823 0.930 . S
C832 C830 1.378 . S
C832 C833 1.367 . S
C833 C832 1.367 . S
C833 C835 1.433 . S
C834 C830 1.350 . S
C834 C831 1.463 . S
C834 N838 1.427 . S
C835 H825 0.929 . S
C835 C833 1.433 . S
C835 N838 1.384 . S
C836 H827 0.929 . S
C836 C828 1.378 . S
C836 C831 1.350 . S
C837 H824 0.929 . S
C837 C829 1.433 . S
C837 N839 1.384 . S
N838 C834 1.427 . S
N838 C835 1.384 . S
N839 C831 1.427 . S
N839 C837 1.384 . S
C415 C58 1.471 . S
C419 C128 1.455 . S
C437 C212 1.455 . S
C433 C68 1.471 . S
C455 C211 1.459 . S
C451 C40 1.459 . S
C469 C50 1.462 . S
C473 C127 1.462 . S
C491 C308 1.455 . S
C487 C23 1.474 . S
C509 C392 1.457 . S
C505 C32 1.473 . S
C523 C5 1.462 . S
C527 C391 1.460 . S
C541 C14 1.462 . S
C545 C307 1.461 . S
C563 C130 1.329 . S
C559 C13 1.500 . S
C581 C214 1.341 . S
C577 C4 1.500 . S
C599 C226 1.404 . S
C595 C31 1.523 . S
C617 C142 1.400 . S
C613 C22 1.524 . S
C635 C310 1.340 . S
C631 C49 1.500 . S
C649 C41 1.500 . S
C653 C394 1.329 . S
C671 C382 1.401 . S
C667 C67 1.522 . S
C685 C59 1.524 . S
C689 C298 1.396 . S
C707 C139 1.534 . S
C703 C7 1.532 . S
C725 C223 1.532 . S
C721 C16 1.531 . S
C739 C25 1.524 . S
C743 C224 1.513 . S
C761 C140 1.503 . S
C757 C34 1.526 . S
C779 C295 1.534 . S
C775 C43 1.532 . S
C793 C52 1.531 . S
C797 C379 1.536 . S
C811 C61 1.527 . S
C815 C380 1.506 . S
C829 C70 1.526 . S
C833 C296 1.507 . S
