# Generated by pormake.
# Topology eea, (3,6)-cn, num edge types: 1
# Building blocks:
#     Node 0, Type 0, BuildingBlock: MIDCAF_clean_linker_0, # of connection points: 3
#     Node 1, Type 0, BuildingBlock: MIDCAF_clean_linker_0, # of connection points: 3
#     Node 2, Type 0, BuildingBlock: MIDCAF_clean_linker_0, # of connection points: 3
#     Node 3, Type 0, BuildingBlock: MIDCAF_clean_linker_0, # of connection points: 3
#     Node 4, Type 0, BuildingBlock: MIDCAF_clean_linker_0, # of connection points: 3
#     Node 5, Type 0, BuildingBlock: MIDCAF_clean_linker_0, # of connection points: 3
#     Node 6, Type 0, BuildingBlock: MIDCAF_clean_linker_0, # of connection points: 3
#     Node 7, Type 0, BuildingBlock: MIDCAF_clean_linker_0, # of connection points: 3
#     Node 8, Type 0, BuildingBlock: MIDCAF_clean_linker_0, # of connection points: 3
#     Node 9, Type 0, BuildingBlock: MIDCAF_clean_linker_0, # of connection points: 3
#     Node 10, Type 0, BuildingBlock: MIDCAF_clean_linker_0, # of connection points: 3
#     Node 11, Type 0, BuildingBlock: MIDCAF_clean_linker_0, # of connection points: 3
#     Node 12, Type 0, BuildingBlock: MIDCAF_clean_linker_0, # of connection points: 3
#     Node 13, Type 0, BuildingBlock: MIDCAF_clean_linker_0, # of connection points: 3
#     Node 14, Type 0, BuildingBlock: MIDCAF_clean_linker_0, # of connection points: 3
#     Node 15, Type 0, BuildingBlock: MIDCAF_clean_linker_0, # of connection points: 3
#     Node 16, Type 0, BuildingBlock: MIDCAF_clean_linker_0, # of connection points: 3
#     Node 17, Type 0, BuildingBlock: MIDCAF_clean_linker_0, # of connection points: 3
#     Node 18, Type 1, BuildingBlock: CUWYAW_clean_sbu_0, # of connection points: 6
#     Node 19, Type 1, BuildingBlock: CUWYAW_clean_sbu_0, # of connection points: 6
#     Node 20, Type 1, BuildingBlock: CUWYAW_clean_sbu_0, # of connection points: 6
#     Node 21, Type 1, BuildingBlock: CUWYAW_clean_sbu_0, # of connection points: 6
#     Node 22, Type 1, BuildingBlock: CUWYAW_clean_sbu_0, # of connection points: 6
#     Node 23, Type 1, BuildingBlock: CUWYAW_clean_sbu_0, # of connection points: 6
#     Node 24, Type 1, BuildingBlock: CUWYAW_clean_sbu_0, # of connection points: 6
#     Node 25, Type 1, BuildingBlock: CUWYAW_clean_sbu_0, # of connection points: 6
#     Node 26, Type 1, BuildingBlock: CUWYAW_clean_sbu_0, # of connection points: 6
#     Edge 27, Type (0, 1), BuildingBlock: KIFKEQ_clean_linker_1, # of connection points: 2
#     Edge 28, Type (0, 1), BuildingBlock: KIFKEQ_clean_linker_1, # of connection points: 2
#     Edge 29, Type (0, 1), BuildingBlock: KIFKEQ_clean_linker_1, # of connection points: 2
#     Edge 30, Type (0, 1), BuildingBlock: KIFKEQ_clean_linker_1, # of connection points: 2
#     Edge 31, Type (0, 1), BuildingBlock: KIFKEQ_clean_linker_1, # of connection points: 2
#     Edge 32, Type (0, 1), BuildingBlock: KIFKEQ_clean_linker_1, # of connection points: 2
#     Edge 33, Type (0, 1), BuildingBlock: KIFKEQ_clean_linker_1, # of connection points: 2
#     Edge 34, Type (0, 1), BuildingBlock: KIFKEQ_clean_linker_1, # of connection points: 2
#     Edge 35, Type (0, 1), BuildingBlock: KIFKEQ_clean_linker_1, # of connection points: 2
#     Edge 36, Type (0, 1), BuildingBlock: KIFKEQ_clean_linker_1, # of connection points: 2
#     Edge 37, Type (0, 1), BuildingBlock: KIFKEQ_clean_linker_1, # of connection points: 2
#     Edge 38, Type (0, 1), BuildingBlock: KIFKEQ_clean_linker_1, # of connection points: 2
#     Edge 39, Type (0, 1), BuildingBlock: KIFKEQ_clean_linker_1, # of connection points: 2
#     Edge 40, Type (0, 1), BuildingBlock: KIFKEQ_clean_linker_1, # of connection points: 2
#     Edge 41, Type (0, 1), BuildingBlock: KIFKEQ_clean_linker_1, # of connection points: 2
#     Edge 42, Type (0, 1), BuildingBlock: KIFKEQ_clean_linker_1, # of connection points: 2
#     Edge 43, Type (0, 1), BuildingBlock: KIFKEQ_clean_linker_1, # of connection points: 2
#     Edge 44, Type (0, 1), BuildingBlock: KIFKEQ_clean_linker_1, # of connection points: 2
#     Edge 45, Type (0, 1), BuildingBlock: KIFKEQ_clean_linker_1, # of connection points: 2
#     Edge 46, Type (0, 1), BuildingBlock: KIFKEQ_clean_linker_1, # of connection points: 2
#     Edge 47, Type (0, 1), BuildingBlock: KIFKEQ_clean_linker_1, # of connection points: 2
#     Edge 48, Type (0, 1), BuildingBlock: KIFKEQ_clean_linker_1, # of connection points: 2
#     Edge 49, Type (0, 1), BuildingBlock: KIFKEQ_clean_linker_1, # of connection points: 2
#     Edge 50, Type (0, 1), BuildingBlock: KIFKEQ_clean_linker_1, # of connection points: 2
#     Edge 51, Type (0, 1), BuildingBlock: KIFKEQ_clean_linker_1, # of connection points: 2
#     Edge 52, Type (0, 1), BuildingBlock: KIFKEQ_clean_linker_1, # of connection points: 2
#     Edge 53, Type (0, 1), BuildingBlock: KIFKEQ_clean_linker_1, # of connection points: 2
#     Edge 54, Type (0, 1), BuildingBlock: KIFKEQ_clean_linker_1, # of connection points: 2
#     Edge 55, Type (0, 1), BuildingBlock: KIFKEQ_clean_linker_1, # of connection points: 2
#     Edge 56, Type (0, 1), BuildingBlock: KIFKEQ_clean_linker_1, # of connection points: 2
#     Edge 57, Type (0, 1), BuildingBlock: KIFKEQ_clean_linker_1, # of connection points: 2
#     Edge 58, Type (0, 1), BuildingBlock: KIFKEQ_clean_linker_1, # of connection points: 2
#     Edge 59, Type (0, 1), BuildingBlock: KIFKEQ_clean_linker_1, # of connection points: 2
#     Edge 60, Type (0, 1), BuildingBlock: KIFKEQ_clean_linker_1, # of connection points: 2
#     Edge 61, Type (0, 1), BuildingBlock: KIFKEQ_clean_linker_1, # of connection points: 2
#     Edge 62, Type (0, 1), BuildingBlock: KIFKEQ_clean_linker_1, # of connection points: 2
#     Edge 63, Type (0, 1), BuildingBlock: KIFKEQ_clean_linker_1, # of connection points: 2
#     Edge 64, Type (0, 1), BuildingBlock: KIFKEQ_clean_linker_1, # of connection points: 2
#     Edge 65, Type (0, 1), BuildingBlock: KIFKEQ_clean_linker_1, # of connection points: 2
#     Edge 66, Type (0, 1), BuildingBlock: KIFKEQ_clean_linker_1, # of connection points: 2
#     Edge 67, Type (0, 1), BuildingBlock: KIFKEQ_clean_linker_1, # of connection points: 2
#     Edge 68, Type (0, 1), BuildingBlock: KIFKEQ_clean_linker_1, # of connection points: 2
#     Edge 69, Type (0, 1), BuildingBlock: KIFKEQ_clean_linker_1, # of connection points: 2
#     Edge 70, Type (0, 1), BuildingBlock: KIFKEQ_clean_linker_1, # of connection points: 2
#     Edge 71, Type (0, 1), BuildingBlock: KIFKEQ_clean_linker_1, # of connection points: 2
#     Edge 72, Type (0, 1), BuildingBlock: KIFKEQ_clean_linker_1, # of connection points: 2
#     Edge 73, Type (0, 1), BuildingBlock: KIFKEQ_clean_linker_1, # of connection points: 2
#     Edge 74, Type (0, 1), BuildingBlock: KIFKEQ_clean_linker_1, # of connection points: 2
#     Edge 75, Type (0, 1), BuildingBlock: KIFKEQ_clean_linker_1, # of connection points: 2
#     Edge 76, Type (0, 1), BuildingBlock: KIFKEQ_clean_linker_1, # of connection points: 2
#     Edge 77, Type (0, 1), BuildingBlock: KIFKEQ_clean_linker_1, # of connection points: 2
#     Edge 78, Type (0, 1), BuildingBlock: KIFKEQ_clean_linker_1, # of connection points: 2
#     Edge 79, Type (0, 1), BuildingBlock: KIFKEQ_clean_linker_1, # of connection points: 2
#     Edge 80, Type (0, 1), BuildingBlock: KIFKEQ_clean_linker_1, # of connection points: 2
# Relax obj value: 0.035
# Max RMSD: 0.133
# Mean RMSD: 0.075
data_MOF--net-eea--node1-CUWYAW_clean_sbu_0--node2-MIDCAF_clean_linker_0--edge1-KIFKEQ_clean_linker_1
_symmetry_space_group_name_H-M    P1
_symmetry_Int_Tables_number       1
_symmetry_cell_setting            triclinic
loop_
_symmetry_equiv_pos_as_xyz
'x, y, z'
_cell_length_a     63.190962
_cell_length_b     62.892541
_cell_length_c     91.507385
_cell_angle_alpha  93.489125
_cell_angle_beta   93.404694
_cell_angle_gamma 119.85873
loop_
_atom_site_label
_atom_site_type_symbol
_atom_site_fract_x
_atom_site_fract_y
_atom_site_fract_z
_atom_type_partial_charge
C0 C 0.25228 0.05333 0.39291 0.0
C1 C 0.23462 0.04385 0.38063 0.0
C2 C 0.22454 0.05794 0.37573 0.0
C3 C 0.2317 0.08094 0.38309 0.0
H4 H 0.24275 0.15093 0.37614 0.0
H5 H 0.22935 0.17655 0.36458 0.0
H6 H 0.23384 0.21281 0.40728 0.0
H7 H 0.24806 0.18764 0.41886 0.0
H8 H 0.27179 0.17572 0.44651 0.0
H9 H 0.2845 0.18203 0.47284 0.0
H10 H 0.29907 0.1219 0.46826 0.0
H11 H 0.28662 0.11563 0.44193 0.0
H12 H 0.27248 0.08287 0.41007 0.0
H13 H 0.26024 0.04272 0.39692 0.0
H14 H 0.21102 0.05108 0.3662 0.0
H15 H 0.22329 0.09116 0.37911 0.0
N16 N 0.24934 0.12959 0.3977 0.0
N17 N 0.26289 0.15563 0.41977 0.0
N18 N 0.26467 0.11917 0.4183 0.0
C19 C 0.25337 0.15059 0.40545 0.0
C20 C 0.26871 0.14006 0.42626 0.0
C21 C 0.25492 0.11379 0.40401 0.0
C22 C 0.24635 0.16711 0.39845 0.0
C23 C 0.24098 0.16441 0.38309 0.0
C24 C 0.23314 0.17903 0.37645 0.0
C25 C 0.23024 0.19657 0.385 0.0
C26 C 0.23609 0.19964 0.40034 0.0
C27 C 0.24415 0.18513 0.40699 0.0
C28 C 0.27802 0.14505 0.44208 0.0
C29 C 0.2779 0.16396 0.45106 0.0
C30 C 0.28506 0.16752 0.46617 0.0
C31 C 0.29268 0.1524 0.47261 0.0
C32 C 0.29349 0.13399 0.46358 0.0
C33 C 0.28619 0.13031 0.4485 0.0
C34 C 0.24882 0.09019 0.39567 0.0
C35 C 0.25918 0.07622 0.40046 0.0
C36 C 0.96506 0.20311 0.41113 0.0
C37 C 0.97224 0.19586 0.39836 0.0
C38 C 0.95813 0.17125 0.39208 0.0
C39 C 0.93718 0.15448 0.39818 0.0
H40 H 0.86525 0.09472 0.38458 0.0
H41 H 0.83687 0.05544 0.3701 0.0
H42 H 0.80824 0.02336 0.40987 0.0
H43 H 0.83633 0.06257 0.42437 0.0
H44 H 0.83918 0.10792 0.44871 0.0
H45 H 0.83138 0.11289 0.47396 0.0
H46 H 0.9075 0.16892 0.48492 0.0
H47 H 0.91518 0.16451 0.45937 0.0
H48 H 0.93904 0.19244 0.4271 0.0
H49 H 0.97531 0.22196 0.41618 0.0
H50 H 0.96336 0.16478 0.38247 0.0
H51 H 0.92683 0.13572 0.39298 0.0
N52 N 0.89102 0.12229 0.40893 0.0
N53 N 0.8665 0.11003 0.4284 0.0
N54 N 0.90314 0.14818 0.43108 0.0
C55 C 0.87053 0.10536 0.41449 0.0
C56 C 0.88261 0.13137 0.43676 0.0
C57 C 0.90743 0.14373 0.41713 0.0
C58 C 0.85307 0.08177 0.40563 0.0
C59 C 0.85288 0.07931 0.39024 0.0
C60 C 0.83657 0.0569 0.38194 0.0
C61 C 0.82046 0.03642 0.3889 0.0
C62 C 0.82062 0.03885 0.40426 0.0
C63 C 0.83662 0.06134 0.41254 0.0
C64 C 0.87787 0.13567 0.45202 0.0
C65 C 0.8543 0.12139 0.45646 0.0
C66 C 0.84983 0.12413 0.471 0.0
C67 C 0.86888 0.14104 0.48157 0.0
C68 C 0.89236 0.15583 0.47706 0.0
C69 C 0.89679 0.15324 0.46242 0.0
C70 C 0.92989 0.16173 0.41087 0.0
C71 C 0.94418 0.1862 0.41735 0.0
C72 C 0.8197 0.77791 0.41623 0.0
C73 C 0.81915 0.78098 0.40114 0.0
C74 C 0.83607 0.77847 0.39292 0.0
C75 C 0.85319 0.77327 0.39963 0.0
H76 H 0.92804 0.79389 0.40011 0.0
H77 H 0.96492 0.80334 0.3884 0.0
H78 H 0.9776 0.75651 0.41584 0.0
H79 H 0.9406 0.74699 0.42769 0.0
H80 H 0.91608 0.74419 0.46075 0.0
H81 H 0.90837 0.72796 0.4847 0.0
H82 H 0.83406 0.71389 0.47836 0.0
H83 H 0.84153 0.72981 0.45455 0.0
H84 H 0.83653 0.77019 0.43455 0.0
H85 H 0.80731 0.78013 0.423 0.0
H86 H 0.83592 0.78019 0.38122 0.0
H87 H 0.86587 0.7714 0.39294 0.0
N88 N 0.89214 0.76907 0.4154 0.0
N89 N 0.90465 0.75395 0.43494 0.0
N90 N 0.86773 0.7544 0.43478 0.0
C91 C 0.90879 0.76398 0.42191 0.0
C92 C 0.88409 0.74908 0.44143 0.0
C93 C 0.87158 0.76433 0.42177 0.0
C94 C 0.93131 0.76966 0.41486 0.0
C95 C 0.93861 0.78555 0.40368 0.0
C96 C 0.95984 0.79111 0.39701 0.0
C97 C 0.97413 0.7807 0.40123 0.0
C98 C 0.96682 0.76468 0.41232 0.0
C99 C 0.94572 0.75935 0.41915 0.0
C100 C 0.87947 0.73841 0.45572 0.0
C101 C 0.89805 0.73748 0.46443 0.0
C102 C 0.89369 0.7283 0.47817 0.0
C103 C 0.8706 0.71961 0.48339 0.0
C104 C 0.85195 0.72016 0.47457 0.0
C105 C 0.85634 0.72949 0.46094 0.0
C106 C 0.85358 0.77006 0.41468 0.0
C107 C 0.83659 0.77235 0.42289 0.0
C108 C 0.03414 0.23731 0.59077 0.0
C109 C 0.02725 0.2226 0.60254 0.0
C110 C 0.04153 0.2123 0.60709 0.0
C111 C 0.06245 0.21705 0.60031 0.0
H112 H 0.12249 0.20802 0.60495 0.0
H113 H 0.15171 0.19835 0.61703 0.0
H114 H 0.20748 0.24675 0.59085 0.0
H115 H 0.17837 0.25647 0.57871 0.0
H116 H 0.16276 0.2774 0.55219 0.0
H117 H 0.17118 0.29146 0.52797 0.0
H118 H 0.09437 0.26669 0.51715 0.0
H119 H 0.08602 0.25327 0.54171 0.0
H120 H 0.06 0.25362 0.57502 0.0
H121 H 0.02372 0.24574 0.58707 0.0
H122 H 0.03651 0.20042 0.61587 0.0
H123 H 0.07301 0.20888 0.60422 0.0
N124 N 0.10895 0.23295 0.58897 0.0
N125 N 0.13489 0.24895 0.57044 0.0
N126 N 0.09725 0.24806 0.56908 0.0
C127 C 0.13025 0.23854 0.58328 0.0
C128 C 0.11851 0.25368 0.56322 0.0
C129 C 0.09242 0.23777 0.58202 0.0
C130 C 0.14806 0.23301 0.59084 0.0
C131 C 0.14099 0.21668 0.60179 0.0
C132 C 0.15766 0.21101 0.60865 0.0
C133 C 0.18182 0.22178 0.60485 0.0
C134 C 0.18901 0.23832 0.59406 0.0
C135 C 0.17227 0.24376 0.58706 0.0
C136 C 0.12365 0.26397 0.54886 0.0
C137 C 0.14763 0.27505 0.5447 0.0
C138 C 0.15246 0.283 0.53075 0.0
C139 C 0.13341 0.27985 0.52049 0.0
C140 C 0.10952 0.26954 0.5248 0.0
C141 C 0.10471 0.26177 0.53887 0.0
C142 C 0.06957 0.23204 0.5887 0.0
C143 C 0.05501 0.24191 0.58389 0.0
C144 C 0.76658 0.80424 0.60216 0.0
C145 C 0.77118 0.80701 0.61759 0.0
C146 C 0.76772 0.82447 0.6258 0.0
C147 C 0.76058 0.83931 0.61876 0.0
H148 H 0.7574 0.90297 0.6266 0.0
H149 H 0.76898 0.9425 0.63994 0.0
H150 H 0.7664 0.97176 0.59875 0.0
H151 H 0.75392 0.93199 0.58546 0.0
H152 H 0.71522 0.88593 0.55918 0.0
H153 H 0.70186 0.87883 0.53295 0.0
H154 H 0.72476 0.82484 0.52763 0.0
H155 H 0.7382 0.83186 0.55396 0.0
H156 H 0.75631 0.81668 0.5832 0.0
H157 H 0.76931 0.79116 0.59548 0.0
H158 H 0.77055 0.82673 0.63771 0.0
H159 H 0.75836 0.85273 0.62546 0.0
N160 N 0.75389 0.87466 0.60351 0.0
N161 N 0.74071 0.88561 0.58229 0.0
N162 N 0.74188 0.84885 0.58139 0.0
C163 C 0.74925 0.89076 0.59678 0.0
C164 C 0.73685 0.86465 0.57453 0.0
C165 C 0.75028 0.85368 0.59592 0.0
C166 C 0.75482 0.91431 0.60495 0.0
C167 C 0.75914 0.91779 0.62039 0.0
C168 C 0.76594 0.94053 0.62804 0.0
C169 C 0.76885 0.96044 0.62044 0.0
C170 C 0.76403 0.95679 0.60501 0.0
C171 C 0.75697 0.93396 0.59736 0.0
C172 C 0.72787 0.85953 0.55868 0.0
C173 C 0.71736 0.87247 0.55247 0.0
C174 C 0.70953 0.86829 0.53745 0.0
C175 C 0.71226 0.85127 0.52828 0.0
C176 C 0.72258 0.83816 0.53446 0.0
C177 C 0.73015 0.84212 0.54954 0.0
C178 C 0.75648 0.83691 0.60333 0.0
C179 C 0.75922 0.81896 0.59511 0.0
C180 C 0.19119 0.94968 0.60489 0.0
C181 C 0.18301 0.95933 0.61603 0.0
C182 C 0.15846 0.9458 0.61902 0.0
C183 C 0.14235 0.92307 0.61103 0.0
H184 H 0.07228 0.86374 0.60883 0.0
H185 H 0.03411 0.83599 0.61871 0.0
H186 H 0.02669 0.77501 0.59009 0.0
H187 H 0.06491 0.80282 0.58003 0.0
H188 H 0.09077 0.8268 0.54757 0.0
H189 H 0.09922 0.82011 0.52254 0.0
H190 H 0.17457 0.87819 0.53292 0.0
H191 H 0.16631 0.88487 0.55791 0.0
H192 H 0.1818 0.92024 0.58815 0.0
H193 H 0.21001 0.95984 0.6023 0.0
H194 H 0.15174 0.95274 0.62763 0.0
H195 H 0.12351 0.91316 0.6136 0.0
N196 N 0.11135 0.87407 0.59595 0.0
N197 N 0.10072 0.8465 0.57474 0.0
N198 N 0.13843 0.88362 0.5778 0.0
C199 C 0.09517 0.85236 0.58796 0.0
C200 C 0.12233 0.8621 0.56956 0.0
C201 C 0.13306 0.88974 0.59099 0.0
C202 C 0.07167 0.83549 0.59365 0.0
C203 C 0.06254 0.84444 0.6046 0.0
C204 C 0.04061 0.8286 0.61021 0.0
C205 C 0.02749 0.8034 0.60515 0.0
C206 C 0.03655 0.79437 0.59422 0.0
C207 C 0.05834 0.81031 0.58842 0.0
C208 C 0.12782 0.85649 0.55476 0.0
C209 C 0.10922 0.83797 0.54459 0.0
C210 C 0.11399 0.83421 0.53022 0.0
C211 C 0.13752 0.84868 0.52576 0.0
C212 C 0.15631 0.86659 0.53606 0.0
C213 C 0.1515 0.87052 0.55037 0.0
C214 C 0.15038 0.91353 0.59972 0.0
C215 C 0.17499 0.92709 0.59674 0.0
C216 C 0.90426 0.38451 0.73167 0.0
C217 C 0.8992 0.38063 0.71626 0.0
C218 C 0.90146 0.40027 0.70859 0.0
C219 C 0.90793 0.42298 0.71619 0.0
H220 H 0.90958 0.48942 0.7114 0.0
H221 H 0.89708 0.51565 0.69949 0.0
H222 H 0.89552 0.54821 0.74203 0.0
H223 H 0.90814 0.52206 0.75404 0.0
H224 H 0.9295 0.50879 0.7829 0.0
H225 H 0.94364 0.51581 0.80913 0.0
H226 H 0.96745 0.46265 0.80302 0.0
H227 H 0.95343 0.45558 0.7769 0.0
H228 H 0.9143 0.4094 0.75114 0.0
H229 H 0.90234 0.36975 0.73799 0.0
H230 H 0.89818 0.39813 0.6967 0.0
H231 H 0.9092 0.4376 0.70996 0.0
N232 N 0.91287 0.46607 0.73318 0.0
N233 N 0.9252 0.49188 0.75535 0.0
N234 N 0.92698 0.45547 0.7542 0.0
C235 C 0.91639 0.48694 0.74088 0.0
C236 C 0.93075 0.47631 0.76204 0.0
C237 C 0.91802 0.45019 0.73978 0.0
C238 C 0.90981 0.5036 0.73368 0.0
C239 C 0.90667 0.50221 0.71824 0.0
C240 C 0.89965 0.51732 0.7114 0.0
C241 C 0.89531 0.53389 0.71985 0.0
C242 C 0.89859 0.53544 0.73527 0.0
C243 C 0.90595 0.52057 0.74213 0.0
C244 C 0.94023 0.48154 0.7778 0.0
C245 C 0.93791 0.49873 0.78712 0.0
C246 C 0.94589 0.50269 0.80215 0.0
C247 C 0.95666 0.4898 0.80808 0.0
C248 C 0.95946 0.47304 0.79871 0.0
C249 C 0.95124 0.46886 0.78376 0.0
C250 C 0.91258 0.42667 0.73161 0.0
C251 C 0.91101 0.40728 0.73924 0.0
C252 C 0.63167 0.5374 0.74302 0.0
C253 C 0.63902 0.52942 0.73063 0.0
C254 C 0.62478 0.50466 0.72465 0.0
C255 C 0.60343 0.48846 0.73065 0.0
H256 H 0.54358 0.41864 0.72297 0.0
H257 H 0.51507 0.37949 0.70884 0.0
H258 H 0.45695 0.37351 0.73408 0.0
H259 H 0.48581 0.41222 0.74865 0.0
H260 H 0.50214 0.44684 0.77931 0.0
H261 H 0.4941 0.45369 0.80434 0.0
H262 H 0.56982 0.51086 0.8147 0.0
H263 H 0.57804 0.50402 0.78962 0.0
H264 H 0.60503 0.52794 0.75852 0.0
H265 H 0.64204 0.5564 0.74782 0.0
H266 H 0.63015 0.49769 0.71532 0.0
H267 H 0.59289 0.46957 0.72565 0.0
N268 N 0.5562 0.45784 0.74075 0.0
N269 N 0.52965 0.44796 0.75922 0.0
N270 N 0.56748 0.48496 0.76225 0.0
C271 C 0.53464 0.44208 0.74583 0.0
C272 C 0.546 0.46929 0.76753 0.0
C273 C 0.57265 0.47936 0.74882 0.0
C274 C 0.51701 0.41855 0.73697 0.0
C275 C 0.52471 0.40901 0.72549 0.0
C276 C 0.50827 0.38657 0.71731 0.0
C277 C 0.48361 0.37324 0.72026 0.0
C278 C 0.47587 0.38299 0.73164 0.0
C279 C 0.4924 0.40528 0.73996 0.0
C280 C 0.54079 0.47477 0.78245 0.0
C281 C 0.51709 0.461 0.78686 0.0
C282 C 0.51241 0.46503 0.80119 0.0
C283 C 0.53134 0.48277 0.81148 0.0
C284 C 0.55493 0.49691 0.80702 0.0
C285 C 0.55958 0.49306 0.79263 0.0
C286 C 0.59585 0.4965 0.74289 0.0
C287 C 0.61037 0.5211 0.74912 0.0
C288 C 0.48278 0.1046 0.74736 0.0
C289 C 0.48262 0.10728 0.73224 0.0
C290 C 0.49946 0.10435 0.72425 0.0
C291 C 0.51647 0.09932 0.73131 0.0
H292 H 0.58028 0.09769 0.72591 0.0
H293 H 0.61722 0.10749 0.71435 0.0
H294 H 0.65451 0.11222 0.75663 0.0
H295 H 0.61709 0.10141 0.76814 0.0
H296 H 0.58319 0.08328 0.79624 0.0
H297 H 0.57579 0.0681 0.82053 0.0
H298 H 0.49834 0.04076 0.81066 0.0
H299 H 0.50558 0.05594 0.78657 0.0
H300 H 0.49925 0.09742 0.76608 0.0
H301 H 0.46984 0.10658 0.75375 0.0
H302 H 0.49981 0.10647 0.71259 0.0
H303 H 0.52941 0.09745 0.72487 0.0
N304 N 0.55577 0.09668 0.74779 0.0
N305 N 0.56988 0.08532 0.76855 0.0
N306 N 0.53199 0.08388 0.76758 0.0
C307 C 0.57323 0.0934 0.75495 0.0
C308 C 0.54915 0.08032 0.77487 0.0
C309 C 0.53518 0.09213 0.75407 0.0
C310 C 0.59573 0.09886 0.74797 0.0
C311 C 0.59633 0.10079 0.73276 0.0
C312 C 0.61763 0.10657 0.72613 0.0
C313 C 0.63902 0.11092 0.73455 0.0
C314 C 0.63834 0.10873 0.74976 0.0
C315 C 0.61689 0.10263 0.75638 0.0
C316 C 0.54499 0.07088 0.78948 0.0
C317 C 0.56459 0.07395 0.79925 0.0
C318 C 0.5604 0.06538 0.81315 0.0
C319 C 0.53649 0.05319 0.81741 0.0
C320 C 0.51692 0.04987 0.80759 0.0
C321 C 0.52113 0.05874 0.79383 0.0
C322 C 0.51673 0.09675 0.74647 0.0
C323 C 0.49953 0.09921 0.75438 0.0
C324 C 0.6991 0.56598 0.92281 0.0
C325 C 0.69279 0.55229 0.93504 0.0
C326 C 0.70754 0.54273 0.94 0.0
C327 C 0.72817 0.54697 0.93306 0.0
H328 H 0.78745 0.53631 0.93702 0.0
H329 H 0.8175 0.52784 0.94924 0.0
H330 H 0.87072 0.57206 0.92042 0.0
H331 H 0.84077 0.58049 0.90811 0.0
H332 H 0.80993 0.57291 0.87448 0.0
H333 H 0.81634 0.58596 0.84988 0.0
H334 H 0.76587 0.61294 0.85376 0.0
H335 H 0.75917 0.59967 0.87856 0.0
H336 H 0.72409 0.58078 0.90643 0.0
H337 H 0.68835 0.57388 0.91878 0.0
H338 H 0.703 0.53165 0.94917 0.0
H339 H 0.73899 0.53923 0.93722 0.0
N340 N 0.77325 0.56033 0.92045 0.0
N341 N 0.79681 0.57239 0.90055 0.0
N342 N 0.76024 0.57358 0.90013 0.0
C343 C 0.79349 0.56409 0.91403 0.0
C344 C 0.78031 0.57711 0.89349 0.0
C345 C 0.75658 0.56509 0.91363 0.0
C346 C 0.81169 0.55906 0.92157 0.0
C347 C 0.80556 0.54428 0.93329 0.0
C348 C 0.82269 0.5393 0.94025 0.0
C349 C 0.84639 0.5493 0.93576 0.0
C350 C 0.85262 0.56426 0.92416 0.0
C351 C 0.8354 0.56895 0.91706 0.0
C352 C 0.78402 0.58525 0.87852 0.0
C353 C 0.80015 0.58163 0.87016 0.0
C354 C 0.80372 0.58894 0.856 0.0
C355 C 0.79151 0.60033 0.8499 0.0
C356 C 0.77555 0.60423 0.85825 0.0
C357 C 0.77166 0.59655 0.87239 0.0
C358 C 0.73453 0.56068 0.92086 0.0
C359 C 0.71968 0.57004 0.91576 0.0
C360 C 0.4306 0.13236 0.93622 0.0
C361 C 0.43509 0.13466 0.95164 0.0
C362 C 0.43101 0.15145 0.9601 0.0
C363 C 0.42341 0.16613 0.95333 0.0
H364 H 0.44232 0.24053 0.9573 0.0
H365 H 0.45403 0.28034 0.97009 0.0
H366 H 0.40223 0.28642 0.94007 0.0
H367 H 0.39145 0.24703 0.92679 0.0
H368 H 0.37866 0.2154 0.89479 0.0
H369 H 0.36804 0.21117 0.86841 0.0
H370 H 0.38907 0.15577 0.86242 0.0
H371 H 0.39915 0.15952 0.88893 0.0
H372 H 0.41994 0.14508 0.91752 0.0
H373 H 0.43376 0.11977 0.92936 0.0
H374 H 0.43371 0.15329 0.97201 0.0
H375 H 0.42072 0.17902 0.96023 0.0
N376 N 0.41609 0.20154 0.93877 0.0
N377 N 0.40167 0.21256 0.91809 0.0
N378 N 0.40403 0.17642 0.91637 0.0
C379 C 0.41062 0.21743 0.93249 0.0
C380 C 0.39832 0.19212 0.90994 0.0
C381 C 0.41271 0.18093 0.93085 0.0
C382 C 0.41604 0.24067 0.94098 0.0
C383 C 0.43327 0.25026 0.95348 0.0
C384 C 0.4399 0.27311 0.96089 0.0
C385 C 0.42915 0.28677 0.95614 0.0
C386 C 0.4113 0.27673 0.94388 0.0
C387 C 0.40498 0.25405 0.93632 0.0
C388 C 0.39 0.18798 0.894 0.0
C389 C 0.3809 0.20219 0.88789 0.0
C390 C 0.37491 0.19985 0.87273 0.0
C391 C 0.37802 0.18338 0.86327 0.0
C392 C 0.3863 0.16852 0.8694 0.0
C393 C 0.39218 0.17075 0.88462 0.0
C394 C 0.41944 0.16425 0.93791 0.0
C395 C 0.42276 0.14694 0.92942 0.0
C396 C 0.85601 0.28239 0.93909 0.0
C397 C 0.84805 0.29136 0.95069 0.0
C398 C 0.82372 0.27732 0.954 0.0
C399 C 0.80759 0.25478 0.94581 0.0
H400 H 0.75125 0.18205 0.95047 0.0
H401 H 0.71412 0.15283 0.96062 0.0
H402 H 0.6806 0.11767 0.91691 0.0
H403 H 0.71792 0.14697 0.90661 0.0
H404 H 0.7532 0.16469 0.87959 0.0
H405 H 0.76129 0.15923 0.85424 0.0
H406 H 0.83746 0.21475 0.86526 0.0
H407 H 0.82953 0.22027 0.89051 0.0
H408 H 0.84634 0.25375 0.92171 0.0
H409 H 0.87466 0.29295 0.93628 0.0
H410 H 0.81719 0.28377 0.96296 0.0
H411 H 0.78889 0.24449 0.94858 0.0
N412 N 0.77684 0.20604 0.93007 0.0
N413 N 0.76472 0.1808 0.9077 0.0
N414 N 0.80226 0.21813 0.911 0.0
C415 C 0.76024 0.18499 0.92163 0.0
C416 C 0.78579 0.19728 0.90233 0.0
C417 C 0.79785 0.22271 0.92485 0.0
C418 C 0.73759 0.1669 0.9277 0.0
C419 C 0.73602 0.16812 0.94297 0.0
C420 C 0.7148 0.15127 0.94883 0.0
C421 C 0.69451 0.13294 0.93956 0.0
C422 C 0.69595 0.1317 0.92429 0.0
C423 C 0.71736 0.1484 0.91842 0.0
C424 C 0.79069 0.19299 0.8871 0.0
C425 C 0.77171 0.17561 0.87664 0.0
C426 C 0.77629 0.17256 0.8621 0.0
C427 C 0.8 0.18656 0.85778 0.0
C428 C 0.81905 0.20353 0.8683 0.0
C429 C 0.81443 0.2068 0.88276 0.0
C430 C 0.81534 0.246 0.93397 0.0
C431 C 0.83976 0.26003 0.93072 0.0
C432 C 0.57218 0.71379 0.06375 0.0
C433 C 0.56812 0.71046 0.04829 0.0
C434 C 0.57163 0.73061 0.04073 0.0
C435 C 0.57822 0.75325 0.04844 0.0
H436 H 0.57844 0.81832 0.04351 0.0
H437 H 0.56593 0.84412 0.03128 0.0
H438 H 0.56497 0.87804 0.07357 0.0
H439 H 0.57829 0.85276 0.08583 0.0
H440 H 0.59619 0.83776 0.11501 0.0
H441 H 0.60806 0.84389 0.14151 0.0
H442 H 0.63039 0.78939 0.13667 0.0
H443 H 0.61865 0.78322 0.11027 0.0
H444 H 0.58147 0.7382 0.08337 0.0
H445 H 0.56932 0.69864 0.06998 0.0
H446 H 0.56917 0.7289 0.02882 0.0
H447 H 0.58038 0.76826 0.04227 0.0
N448 N 0.58238 0.7959 0.06539 0.0
N449 N 0.59329 0.82111 0.08768 0.0
N450 N 0.59485 0.78456 0.08671 0.0
C451 C 0.5855 0.81661 0.07307 0.0
C452 C 0.59821 0.80525 0.09455 0.0
C453 C 0.58693 0.77975 0.07214 0.0
C454 C 0.57925 0.83335 0.06567 0.0
C455 C 0.57569 0.83135 0.05022 0.0
C456 C 0.56836 0.84607 0.0432 0.0
C457 C 0.56418 0.86299 0.05143 0.0
C458 C 0.56827 0.86539 0.06687 0.0
C459 C 0.57582 0.8508 0.07391 0.0
C460 C 0.60637 0.80992 0.11051 0.0
C461 C 0.60379 0.8272 0.11958 0.0
C462 C 0.61046 0.83064 0.13475 0.0
C463 C 0.62014 0.81712 0.14112 0.0
C464 C 0.62321 0.80025 0.13203 0.0
C465 C 0.6163 0.7966 0.11691 0.0
C466 C 0.58174 0.75637 0.0639 0.0
C467 C 0.57905 0.73651 0.07146 0.0
C468 C 0.30059 0.86549 0.07931 0.0
C469 C 0.30168 0.86411 0.06402 0.0
C470 C 0.28115 0.84582 0.05489 0.0
C471 C 0.26009 0.82901 0.06093 0.0
H472 H 0.19322 0.76319 0.05012 0.0
H473 H 0.16494 0.72375 0.03574 0.0
H474 H 0.13899 0.691 0.07578 0.0
H475 H 0.16694 0.73032 0.09018 0.0
H476 H 0.17073 0.77407 0.11566 0.0
H477 H 0.16377 0.7803 0.14102 0.0
H478 H 0.23887 0.83946 0.1502 0.0
H479 H 0.24602 0.83327 0.12471 0.0
H480 H 0.27921 0.85032 0.0972 0.0
H481 H 0.3161 0.87953 0.0866 0.0
H482 H 0.28154 0.84417 0.04307 0.0
H483 H 0.2447 0.815 0.05356 0.0
N484 N 0.22005 0.79072 0.07434 0.0
N485 N 0.19668 0.77771 0.0943 0.0
N486 N 0.23331 0.81583 0.09683 0.0
C487 C 0.2 0.77348 0.08013 0.0
C488 C 0.21313 0.79886 0.10271 0.0
C489 C 0.23683 0.81192 0.08262 0.0
C490 C 0.18237 0.74991 0.0713 0.0
C491 C 0.18143 0.74761 0.05586 0.0
C492 C 0.16518 0.7251 0.04762 0.0
C493 C 0.14989 0.70438 0.05468 0.0
C494 C 0.15073 0.70667 0.07009 0.0
C495 C 0.16665 0.72924 0.07831 0.0
C496 C 0.20897 0.80313 0.11813 0.0
C497 C 0.18582 0.78845 0.12303 0.0
C498 C 0.18174 0.79212 0.13755 0.0
C499 C 0.20075 0.81041 0.14757 0.0
C500 C 0.22392 0.82513 0.14272 0.0
C501 C 0.22796 0.82165 0.12811 0.0
C502 C 0.25898 0.83025 0.07624 0.0
C503 C 0.2794 0.84884 0.08536 0.0
C504 C 0.15438 0.44609 0.08291 0.0
C505 C 0.15204 0.44565 0.06749 0.0
C506 C 0.1673 0.44026 0.05935 0.0
C507 C 0.18467 0.43577 0.06645 0.0
H508 H 0.24487 0.42786 0.05959 0.0
H509 H 0.28001 0.43482 0.04677 0.0
H510 H 0.3218 0.44542 0.08843 0.0
H511 H 0.28624 0.43747 0.10121 0.0
H512 H 0.24323 0.40146 0.12606 0.0
H513 H 0.23736 0.38944 0.15109 0.0
H514 H 0.18849 0.41836 0.15523 0.0
H515 H 0.19421 0.43032 0.13034 0.0
H516 H 0.17297 0.44204 0.10189 0.0
H517 H 0.14325 0.45057 0.08957 0.0
H518 H 0.16572 0.43929 0.04745 0.0
H519 H 0.19612 0.43171 0.05983 0.0
N520 N 0.22437 0.43309 0.08227 0.0
N521 N 0.24015 0.42434 0.10349 0.0
N522 N 0.2043 0.42678 0.10365 0.0
C523 C 0.24178 0.42951 0.08923 0.0
C524 C 0.22136 0.42286 0.11074 0.0
C525 C 0.20561 0.43181 0.08941 0.0
C526 C 0.26277 0.43224 0.08144 0.0
C527 C 0.26151 0.43154 0.06602 0.0
C528 C 0.28176 0.4357 0.05866 0.0
C529 C 0.30392 0.44099 0.06654 0.0
C530 C 0.30499 0.44114 0.08196 0.0
C531 C 0.2846 0.43667 0.08932 0.0
C532 C 0.21911 0.41677 0.12617 0.0
C533 C 0.2314 0.40544 0.13236 0.0
C534 C 0.22796 0.39844 0.14665 0.0
C535 C 0.21249 0.40299 0.15509 0.0
C536 C 0.20072 0.41484 0.14903 0.0
C537 C 0.20388 0.42153 0.13472 0.0
C538 C 0.18701 0.43628 0.08185 0.0
C539 C 0.17155 0.44133 0.08999 0.0
C540 C 0.36804 0.90187 0.25926 0.0
C541 C 0.361 0.88537 0.27009 0.0
C542 C 0.37537 0.8748 0.27376 0.0
C543 C 0.39651 0.88081 0.26687 0.0
H544 H 0.45837 0.87454 0.27032 0.0
H545 H 0.48856 0.86528 0.28139 0.0
H546 H 0.54232 0.91459 0.25452 0.0
H547 H 0.51224 0.92395 0.2434 0.0
H548 H 0.49491 0.94501 0.21776 0.0
H549 H 0.5017 0.96071 0.19382 0.0
H550 H 0.42521 0.93914 0.18621 0.0
H551 H 0.41825 0.92323 0.21026 0.0
H552 H 0.39403 0.92051 0.24396 0.0
H553 H 0.35718 0.91015 0.25615 0.0
H554 H 0.37049 0.86217 0.28215 0.0
H555 H 0.40724 0.87243 0.27006 0.0
N556 N 0.44336 0.89913 0.25525 0.0
N557 N 0.4685 0.91669 0.23654 0.0
N558 N 0.43061 0.91514 0.23634 0.0
C559 C 0.46449 0.90548 0.24912 0.0
C560 C 0.45165 0.92149 0.23003 0.0
C561 C 0.42639 0.90402 0.249 0.0
C562 C 0.48285 0.89999 0.25596 0.0
C563 C 0.47663 0.88347 0.26677 0.0
C564 C 0.49385 0.87802 0.27305 0.0
C565 C 0.51775 0.88919 0.26879 0.0
C566 C 0.52407 0.90585 0.25808 0.0
C567 C 0.50677 0.91109 0.25167 0.0
C568 C 0.45599 0.9327 0.21592 0.0
C569 C 0.47951 0.94372 0.21107 0.0
C570 C 0.48348 0.9529 0.19737 0.0
C571 C 0.46398 0.95113 0.18813 0.0
C572 C 0.44054 0.94058 0.19307 0.0
C573 C 0.4366 0.9316 0.20687 0.0
C574 C 0.40364 0.89734 0.25603 0.0
C575 C 0.38905 0.90767 0.25223 0.0
C576 C 0.10408 0.46968 0.26755 0.0
C577 C 0.10658 0.47005 0.28294 0.0
C578 C 0.10194 0.48608 0.29171 0.0
C579 C 0.09528 0.5017 0.28526 0.0
H580 H 0.1146 0.5767 0.2909 0.0
H581 H 0.12517 0.61549 0.30463 0.0
H582 H 0.07403 0.62268 0.27468 0.0
H583 H 0.06442 0.58435 0.26049 0.0
H584 H 0.05256 0.55446 0.22797 0.0
H585 H 0.04133 0.55057 0.20168 0.0
H586 H 0.06319 0.49596 0.19468 0.0
H587 H 0.0738 0.49931 0.22108 0.0
H588 H 0.09542 0.48452 0.24918 0.0
H589 H 0.10742 0.45737 0.26055 0.0
H590 H 0.10396 0.4869 0.30361 0.0
H591 H 0.09205 0.51399 0.29237 0.0
N592 N 0.08943 0.53874 0.2715 0.0
N593 N 0.0754 0.55079 0.25112 0.0
N594 N 0.07817 0.51491 0.24867 0.0
C595 C 0.08396 0.55489 0.26557 0.0
C596 C 0.07247 0.53086 0.24258 0.0
C597 C 0.08646 0.51865 0.26317 0.0
C598 C 0.08877 0.5775 0.27455 0.0
C599 C 0.10547 0.58646 0.28729 0.0
C600 C 0.11143 0.60871 0.29524 0.0
C601 C 0.10053 0.62239 0.29079 0.0
C602 C 0.08321 0.61298 0.27828 0.0
C603 C 0.07755 0.5909 0.27018 0.0
C604 C 0.06427 0.52733 0.22666 0.0
C605 C 0.05488 0.54152 0.22086 0.0
C606 C 0.04855 0.53938 0.20575 0.0
C607 C 0.0516 0.52315 0.19603 0.0
C608 C 0.06039 0.50848 0.20185 0.0
C609 C 0.06658 0.51049 0.21701 0.0
C610 C 0.09283 0.50147 0.26987 0.0
C611 C 0.09708 0.48512 0.26106 0.0
C612 C 0.51385 0.62487 0.26637 0.0
C613 C 0.513 0.62807 0.28163 0.0
C614 C 0.49537 0.60818 0.28843 0.0
C615 C 0.47889 0.58581 0.28016 0.0
H616 H 0.4035 0.53065 0.27579 0.0
H617 H 0.36604 0.502 0.28596 0.0
H618 H 0.35696 0.44302 0.25478 0.0
H619 H 0.3945 0.47178 0.24441 0.0
H620 H 0.41799 0.50028 0.21106 0.0
H621 H 0.42609 0.49604 0.18559 0.0
H622 H 0.50261 0.55026 0.19729 0.0
H623 H 0.49441 0.55507 0.22247 0.0
H624 H 0.49871 0.60074 0.2464 0.0
H625 H 0.52681 0.63985 0.26068 0.0
H626 H 0.49441 0.60978 0.30019 0.0
H627 H 0.46556 0.57091 0.28575 0.0
N628 N 0.44136 0.54251 0.26145 0.0
N629 N 0.42956 0.51629 0.23945 0.0
N630 N 0.46663 0.55404 0.24231 0.0
C631 C 0.42493 0.52109 0.25325 0.0
C632 C 0.45047 0.53274 0.23394 0.0
C633 C 0.46225 0.55908 0.25607 0.0
C634 C 0.40202 0.50351 0.25928 0.0
C635 C 0.39358 0.51159 0.27107 0.0
C636 C 0.37204 0.49523 0.27685 0.0
C637 C 0.35861 0.47034 0.27113 0.0
C638 C 0.36706 0.46213 0.25942 0.0
C639 C 0.38845 0.47861 0.25345 0.0
C640 C 0.45547 0.52823 0.21878 0.0
C641 C 0.43656 0.51115 0.2082 0.0
C642 C 0.44123 0.50866 0.1936 0.0
C643 C 0.46495 0.52306 0.18931 0.0
C644 C 0.48399 0.53935 0.20007 0.0
C645 C 0.4793 0.54201 0.21457 0.0
C646 C 0.47983 0.58266 0.26492 0.0
C647 C 0.49759 0.60242 0.25814 0.0
C648 C 0.53351 0.01594 0.0438 0.0
Eu649 Eu 0.5138 0.00964 0.01696 0.0
C650 C 0.52464 0.00985 0.0584 0.0
C651 C 0.50918 0.0176 0.0642 0.0
C652 C 0.50092 0.01144 0.07801 0.0
C653 C 0.50773 0.9972 0.0862 0.0
C654 C 0.52305 0.98934 0.08032 0.0
C655 C 0.53149 0.99569 0.06659 0.0
C656 C 0.49728 0.03692 0.00431 0.0
C657 C 0.45432 0.97047 0.01525 0.0
C658 C 0.46306 0.98032 0.96024 0.0
Eu659 Eu 0.4831 0.98701 0.98704 0.0
C660 C 0.47183 0.98718 0.94578 0.0
C661 C 0.49328 0.98783 0.94185 0.0
C662 C 0.50135 0.99455 0.92807 0.0
C663 C 0.48823 0.00094 0.91801 0.0
C664 C 0.46697 0.00063 0.92215 0.0
C665 C 0.45884 0.99375 0.93588 0.0
C666 C 0.49981 0.95989 0.99978 0.0
C667 C 0.54242 0.02631 0.98868 0.0
O668 O 0.52877 0.99723 0.03438 0.0
O669 O 0.53061 0.03276 0.03772 0.0
O670 O 0.51857 0.04647 0.0119 0.0
O671 O 0.48534 0.01389 0.0045 0.0
O672 O 0.47609 0.98139 0.02305 0.0
O673 O 0.45186 0.97238 0.00104 0.0
O674 O 0.46688 0.99853 0.96979 0.0
O675 O 0.46737 0.9642 0.96611 0.0
O676 O 0.47841 0.95023 0.99229 0.0
O677 O 0.51162 0.98288 0.99946 0.0
O678 O 0.52059 0.01566 0.98097 0.0
O679 O 0.54496 0.02405 0.00285 0.0
H680 H 0.50339 0.02835 0.05808 0.0
H681 H 0.48894 0.01754 0.08221 0.0
H682 H 0.5288 0.97856 0.08645 0.0
H683 H 0.54338 0.9895 0.06234 0.0
H684 H 0.50376 0.98309 0.94941 0.0
H685 H 0.51766 0.99438 0.92524 0.0
H686 H 0.4567 0.00595 0.91485 0.0
H687 H 0.44243 0.99366 0.9388 0.0
C688 C 0.99677 0.52736 0.04197 0.0
Eu689 Eu 0.99446 0.50677 0.01592 0.0
C690 C 0.00329 0.52546 0.05731 0.0
C691 C 0.99971 0.50309 0.0619 0.0
C692 C 0.00578 0.5017 0.07662 0.0
C693 C 0.0158 0.52271 0.08691 0.0
C694 C 0.01966 0.54511 0.08218 0.0
C695 C 0.01341 0.54644 0.06751 0.0
C696 C 0.9632 0.45952 0.00476 0.0
C697 C 0.03172 0.48463 0.01575 0.0
C698 C 0.00537 0.4719 0.96052 0.0
Eu699 Eu 0.00644 0.49119 0.98674 0.0
C700 C 0.00111 0.47587 0.94525 0.0
C701 C 0.00467 0.49872 0.94167 0.0
C702 C 0.00093 0.50227 0.92701 0.0
C703 C 0.9934 0.48295 0.91573 0.0
C704 C 0.98945 0.45996 0.91949 0.0
C705 C 0.99334 0.4565 0.93412 0.0
C706 C 0.0375 0.53843 0.99809 0.0
C707 C 0.96844 0.5124 0.98691 0.0
O708 O 0.01483 0.53634 0.03366 0.0
O709 O 0.9767 0.50854 0.03522 0.0
O710 O 0.95635 0.473 0.01206 0.0
O711 O 0.98612 0.47084 0.00463 0.0
O712 O 0.02466 0.49855 0.02296 0.0
O713 O 0.02368 0.47594 0.00182 0.0
O714 O 0.98636 0.46341 0.96806 0.0
O715 O 0.02545 0.48935 0.9681 0.0
O716 O 0.04458 0.52492 0.9911 0.0
O717 O 0.01455 0.52702 0.99793 0.0
O718 O 0.9756 0.4985 0.97979 0.0
O719 O 0.97659 0.52139 0.00079 0.0
H720 H 0.99218 0.48674 0.05412 0.0
H721 H 0.00286 0.48427 0.07994 0.0
H722 H 0.02712 0.56154 0.08988 0.0
H723 H 0.01636 0.56386 0.06413 0.0
H724 H 0.01053 0.51386 0.95018 0.0
H725 H 0.00432 0.52024 0.92451 0.0
H726 H 0.98317 0.44454 0.91114 0.0
H727 H 0.99028 0.43867 0.93674 0.0
C728 C 0.46291 0.47345 0.95883 0.0
Eu729 Eu 0.483 0.49219 0.98556 0.0
C730 C 0.47101 0.4764 0.94394 0.0
C731 C 0.48603 0.49983 0.93938 0.0
C732 C 0.49374 0.5021 0.92525 0.0
C733 C 0.48682 0.48101 0.91553 0.0
C734 C 0.47193 0.45761 0.92017 0.0
C735 C 0.46404 0.45535 0.93423 0.0
C736 C 0.50122 0.53932 0.99699 0.0
C737 C 0.54229 0.51252 0.98709 0.0
C738 C 0.53397 0.52616 0.04206 0.0
Eu739 Eu 0.51395 0.50672 0.01541 0.0
C740 C 0.52532 0.52418 0.05676 0.0
C741 C 0.50548 0.50215 0.06034 0.0
C742 C 0.49721 0.50081 0.07429 0.0
C743 C 0.50843 0.52159 0.08479 0.0
C744 C 0.52818 0.54364 0.0811 0.0
C745 C 0.53657 0.54489 0.06721 0.0
C746 C 0.49573 0.45952 0.00404 0.0
C747 C 0.45459 0.48591 0.0139 0.0
O748 O 0.47174 0.46328 0.96748 0.0
O749 O 0.46231 0.49204 0.96564 0.0
O750 O 0.47984 0.52642 0.98951 0.0
O751 O 0.51235 0.52743 0.99728 0.0
O752 O 0.52037 0.49938 0.97954 0.0
O753 O 0.54492 0.52075 0.0011 0.0
O754 O 0.52617 0.53664 0.03295 0.0
O755 O 0.53362 0.50671 0.03576 0.0
O756 O 0.51699 0.47236 0.0117 0.0
O757 O 0.48466 0.47148 0.00368 0.0
O758 O 0.47648 0.49905 0.02148 0.0
O759 O 0.45202 0.47788 0.99986 0.0
H760 H 0.49193 0.51637 0.94673 0.0
H761 H 0.50542 0.52035 0.92202 0.0
H762 H 0.46614 0.44104 0.91286 0.0
H763 H 0.45253 0.43712 0.93756 0.0
H764 H 0.49629 0.48603 0.05233 0.0
H765 H 0.4818 0.48368 0.07678 0.0
H766 H 0.53731 0.55987 0.08901 0.0
H767 H 0.5518 0.56208 0.06461 0.0
C768 C 0.20304 0.3522 0.37678 0.0
Eu769 Eu 0.18245 0.34494 0.35008 0.0
C770 C 0.19435 0.34477 0.39122 0.0
C771 C 0.17405 0.34581 0.39589 0.0
C772 C 0.16584 0.33821 0.40952 0.0
C773 C 0.17756 0.32912 0.41862 0.0
C774 C 0.19773 0.32793 0.41386 0.0
C775 C 0.20608 0.33576 0.40031 0.0
C776 C 0.16625 0.37237 0.33722 0.0
C777 C 0.12301 0.30622 0.34916 0.0
C778 C 0.13063 0.31351 0.29368 0.0
Eu779 Eu 0.15061 0.3217 0.32061 0.0
C780 C 0.13959 0.32308 0.27962 0.0
C781 C 0.13711 0.30664 0.2677 0.0
C782 C 0.14638 0.31532 0.25447 0.0
C783 C 0.15815 0.34069 0.25283 0.0
C784 C 0.16046 0.35713 0.26479 0.0
C785 C 0.15138 0.34844 0.27807 0.0
C786 C 0.16675 0.29434 0.33366 0.0
C787 C 0.20948 0.36133 0.32147 0.0
O788 O 0.2 0.33442 0.36714 0.0
O789 O 0.19798 0.36789 0.37099 0.0
O790 O 0.18786 0.38184 0.34441 0.0
O791 O 0.15405 0.34947 0.33782 0.0
O792 O 0.14509 0.31645 0.35655 0.0
O793 O 0.11998 0.30829 0.33502 0.0
O794 O 0.12979 0.32876 0.30373 0.0
O795 O 0.13893 0.30002 0.29918 0.0
O796 O 0.145 0.28496 0.32669 0.0
O797 O 0.17905 0.31719 0.33286 0.0
O798 O 0.18726 0.3518 0.31442 0.0
O799 O 0.21279 0.35811 0.33537 0.0
H800 H 0.16443 0.35235 0.38898 0.0
H801 H 0.1501 0.33907 0.41285 0.0
H802 H 0.20724 0.32119 0.4207 0.0
H803 H 0.22167 0.33468 0.39688 0.0
H804 H 0.12825 0.28703 0.26867 0.0
H805 H 0.14462 0.30214 0.24562 0.0
H806 H 0.16907 0.37673 0.26389 0.0
H807 H 0.15371 0.36163 0.28711 0.0
C808 C 0.66276 0.86216 0.37462 0.0
Eu809 Eu 0.66131 0.84166 0.34871 0.0
C810 C 0.66748 0.85915 0.39003 0.0
C811 C 0.66426 0.83668 0.39414 0.0
C812 C 0.66833 0.83404 0.40894 0.0
C813 C 0.67584 0.8539 0.41984 0.0
C814 C 0.6795 0.87651 0.41555 0.0
C815 C 0.67529 0.87907 0.40078 0.0
C816 C 0.62916 0.79478 0.33734 0.0
C817 C 0.69757 0.81821 0.34939 0.0
C818 C 0.67199 0.80517 0.29393 0.0
Eu819 Eu 0.67353 0.82509 0.32002 0.0
C820 C 0.66624 0.8083 0.27869 0.0
C821 C 0.67289 0.83172 0.2744 0.0
C822 C 0.66756 0.83436 0.25981 0.0
C823 C 0.65522 0.81362 0.24934 0.0
C824 C 0.64821 0.79017 0.25375 0.0
C825 C 0.65375 0.78756 0.2683 0.0
C826 C 0.70568 0.87193 0.33152 0.0
C827 C 0.63755 0.84872 0.31932 0.0
O828 O 0.68159 0.8704 0.36691 0.0
O829 O 0.64262 0.84424 0.36734 0.0
O830 O 0.6226 0.80903 0.34402 0.0
O831 O 0.65213 0.80529 0.33774 0.0
O832 O 0.69038 0.8322 0.3564 0.0
O833 O 0.69017 0.80973 0.33539 0.0
O834 O 0.65356 0.79597 0.30196 0.0
O835 O 0.69204 0.82338 0.3011 0.0
O836 O 0.71227 0.8577 0.32485 0.0
O837 O 0.68271 0.86141 0.331 0.0
O838 O 0.64389 0.83385 0.31251 0.0
O839 O 0.64567 0.85781 0.33318 0.0
H840 H 0.6584 0.82113 0.38593 0.0
H841 H 0.66515 0.81632 0.41185 0.0
H842 H 0.68579 0.89234 0.42359 0.0
H843 H 0.6781 0.89662 0.39775 0.0
H844 H 0.68225 0.84796 0.2823 0.0
H845 H 0.67291 0.8526 0.25674 0.0
H846 H 0.63885 0.77389 0.24588 0.0
H847 H 0.64839 0.76935 0.27144 0.0
C848 C 0.13279 0.80372 0.29487 0.0
Eu849 Eu 0.15273 0.8244 0.32135 0.0
C850 C 0.14091 0.80647 0.27999 0.0
C851 C 0.15556 0.82984 0.27526 0.0
C852 C 0.16348 0.83199 0.2612 0.0
C853 C 0.15717 0.81082 0.25169 0.0
C854 C 0.14264 0.78747 0.25651 0.0
C855 C 0.13453 0.78534 0.27051 0.0
C856 C 0.17169 0.87247 0.33113 0.0
C857 C 0.21179 0.84427 0.32327 0.0
C858 C 0.20385 0.8614 0.37781 0.0
Eu859 Eu 0.18357 0.84092 0.35135 0.0
C860 C 0.19636 0.8582 0.39283 0.0
C861 C 0.18206 0.83465 0.39741 0.0
C862 C 0.17479 0.83209 0.41164 0.0
C863 C 0.1814 0.85302 0.42145 0.0
C864 C 0.1956 0.87654 0.41678 0.0
C865 C 0.20306 0.87909 0.40261 0.0
C866 C 0.16422 0.79274 0.34152 0.0
C867 C 0.12446 0.82119 0.3494 0.0
O868 O 0.14267 0.79491 0.30385 0.0
O869 O 0.13099 0.82188 0.30126 0.0
O870 O 0.15058 0.85939 0.32339 0.0
O871 O 0.18242 0.86027 0.33236 0.0
O872 O 0.18984 0.83013 0.31594 0.0
O873 O 0.2144 0.85426 0.33687 0.0
O874 O 0.19314 0.86983 0.36915 0.0
O875 O 0.20607 0.84371 0.37113 0.0
O876 O 0.18541 0.80565 0.34919 0.0
O877 O 0.1538 0.8052 0.34041 0.0
O878 O 0.14642 0.83517 0.35679 0.0
O879 O 0.12185 0.81131 0.33577 0.0
H880 H 0.16102 0.84645 0.28245 0.0
H881 H 0.17487 0.8502 0.25783 0.0
H882 H 0.1373 0.77084 0.24938 0.0
H883 H 0.12335 0.76715 0.27399 0.0
H884 H 0.17639 0.81823 0.38998 0.0
H885 H 0.16363 0.81374 0.41489 0.0
H886 H 0.20115 0.89299 0.42415 0.0
H887 H 0.21399 0.89741 0.39925 0.0
C888 C 0.86812 0.68868 0.71019 0.0
Eu889 Eu 0.84852 0.68103 0.68319 0.0
C890 C 0.85928 0.6787 0.72419 0.0
C891 C 0.86187 0.69485 0.73634 0.0
C892 C 0.85298 0.68579 0.74957 0.0
C893 C 0.84153 0.6604 0.75095 0.0
C894 C 0.83904 0.64423 0.73881 0.0
C895 C 0.8477 0.65326 0.72552 0.0
C896 C 0.83239 0.7085 0.67032 0.0
C897 C 0.78963 0.6414 0.68181 0.0
C898 C 0.79736 0.651 0.62666 0.0
Eu899 Eu 0.81732 0.65819 0.65354 0.0
C900 C 0.80636 0.65721 0.61208 0.0
C901 C 0.81859 0.64634 0.60529 0.0
C902 C 0.82721 0.65271 0.59159 0.0
C903 C 0.82392 0.67015 0.58442 0.0
C904 C 0.81167 0.68096 0.5912 0.0
C905 C 0.8029 0.67447 0.60485 0.0
C906 C 0.8338 0.63087 0.66634 0.0
C907 C 0.87665 0.69749 0.65486 0.0
O908 O 0.86933 0.67384 0.70002 0.0
O909 O 0.8595 0.70201 0.70484 0.0
O910 O 0.85399 0.71785 0.67748 0.0
O911 O 0.82012 0.68556 0.67083 0.0
O912 O 0.81169 0.65058 0.689 0.0
O913 O 0.78672 0.64518 0.66798 0.0
O914 O 0.80146 0.66957 0.63602 0.0
O915 O 0.80077 0.6346 0.6329 0.0
O916 O 0.81225 0.62133 0.65908 0.0
O917 O 0.84578 0.6538 0.66583 0.0
O918 O 0.85467 0.68688 0.64733 0.0
O919 O 0.87955 0.69542 0.66902 0.0
H920 H 0.87071 0.71451 0.73556 0.0
H921 H 0.85536 0.69869 0.7588 0.0
H922 H 0.83008 0.62455 0.73953 0.0
H923 H 0.84519 0.6403 0.71629 0.0
H924 H 0.82163 0.633 0.61057 0.0
H925 H 0.83676 0.64422 0.58669 0.0
H926 H 0.80855 0.6942 0.58586 0.0
H927 H 0.79343 0.68302 0.60979 0.0
C928 C 0.3307 0.1932 0.70924 0.0
Eu929 Eu 0.32817 0.17356 0.68286 0.0
C930 C 0.33636 0.19026 0.72452 0.0
C931 C 0.3313 0.16726 0.72881 0.0
C932 C 0.33667 0.16497 0.74348 0.0
C933 C 0.34745 0.1857 0.75402 0.0
C934 C 0.35274 0.20872 0.74959 0.0
C935 C 0.34719 0.21094 0.73497 0.0
C936 C 0.29748 0.12643 0.67136 0.0
C937 C 0.36623 0.15245 0.68149 0.0
C938 C 0.33762 0.14017 0.62646 0.0
Eu939 Eu 0.33973 0.15923 0.65295 0.0
C940 C 0.33293 0.14384 0.61114 0.0
C941 C 0.34369 0.16747 0.60632 0.0
C942 C 0.33941 0.17032 0.59159 0.0
C943 C 0.3241 0.14963 0.58149 0.0
C944 C 0.31309 0.12607 0.58643 0.0
C945 C 0.31754 0.12322 0.60111 0.0
C946 C 0.37013 0.20655 0.66444 0.0
C947 C 0.30124 0.17975 0.65438 0.0
O948 O 0.34909 0.2018 0.70117 0.0
O949 O 0.31035 0.17526 0.70215 0.0
O950 O 0.29048 0.13923 0.67922 0.0
O951 O 0.32033 0.13827 0.67092 0.0
O952 O 0.35872 0.16554 0.68917 0.0
O953 O 0.35835 0.14451 0.66745 0.0
O954 O 0.31888 0.13174 0.63424 0.0
O955 O 0.35801 0.15736 0.63393 0.0
O956 O 0.37731 0.19394 0.65657 0.0
O957 O 0.34731 0.1944 0.6648 0.0
O958 O 0.30837 0.1662 0.64682 0.0
O959 O 0.30979 0.18841 0.66828 0.0
H960 H 0.32318 0.15111 0.72083 0.0
H961 H 0.33263 0.14707 0.74657 0.0
H962 H 0.36078 0.22496 0.75749 0.0
H963 H 0.35128 0.22884 0.73183 0.0
H964 H 0.35547 0.18371 0.61389 0.0
H965 H 0.34791 0.18871 0.58812 0.0
H966 H 0.30142 0.10977 0.57887 0.0
H967 H 0.30907 0.10484 0.60462 0.0
C968 C 0.79847 0.14331 0.628 0.0
Eu969 Eu 0.81865 0.16241 0.65466 0.0
C970 C 0.80747 0.14451 0.61344 0.0
C971 C 0.82739 0.16631 0.60965 0.0
C972 C 0.83588 0.167 0.59582 0.0
C973 C 0.82485 0.14581 0.58565 0.0
C974 C 0.80512 0.12396 0.58956 0.0
C975 C 0.79647 0.12336 0.60332 0.0
C976 C 0.83556 0.20917 0.66631 0.0
C977 C 0.87805 0.1841 0.65557 0.0
C978 C 0.87063 0.19668 0.71081 0.0
Eu979 Eu 0.85042 0.17755 0.68416 0.0
C980 C 0.86222 0.19383 0.72563 0.0
C981 C 0.84598 0.1705 0.72988 0.0
C982 C 0.83796 0.16827 0.74393 0.0
C983 C 0.84577 0.18932 0.75388 0.0
C984 C 0.86183 0.21264 0.74952 0.0
C985 C 0.87004 0.21485 0.73554 0.0
C986 C 0.83333 0.13073 0.67248 0.0
C987 C 0.79076 0.15571 0.68318 0.0
O988 O 0.8047 0.1319 0.63731 0.0
O989 O 0.80019 0.16355 0.63413 0.0
O990 O 0.81399 0.19561 0.65913 0.0
O991 O 0.8475 0.19806 0.66627 0.0
O992 O 0.85599 0.17012 0.64833 0.0
O993 O 0.88091 0.1927 0.66952 0.0
O994 O 0.86204 0.2069 0.70201 0.0
O995 O 0.87117 0.17796 0.70413 0.0
O996 O 0.85491 0.14417 0.67969 0.0
O997 O 0.82157 0.14199 0.67259 0.0
O998 O 0.81276 0.16857 0.69069 0.0
O999 O 0.78791 0.1482 0.66903 0.0
H1000 H 0.83643 0.18277 0.61739 0.0
H1001 H 0.85129 0.18399 0.59316 0.0
H1002 H 0.79615 0.10741 0.58189 0.0
H1003 H 0.7812 0.10634 0.60608 0.0
H1004 H 0.83938 0.15401 0.72235 0.0
H1005 H 0.82536 0.1501 0.74693 0.0
H1006 H 0.8683 0.22917 0.75701 0.0
H1007 H 0.88246 0.23301 0.73244 0.0
H1008 H 0.30539 0.88962 0.04028 0.0
H1009 H 0.34897 0.8773 0.07311 0.0
H1010 H 0.3423 0.91652 0.02899 0.0
H1011 H 0.38589 0.90363 0.06161 0.0
H1012 H 0.45057 0.96884 0.04488 0.0
H1013 H 0.41388 0.94472 0.05709 0.0
H1014 H 0.37125 0.91427 0.0147 0.0
H1015 H 0.40768 0.93901 0.00255 0.0
C1016 C 0.32289 0.8926 0.04503 0.0
C1017 C 0.3243 0.88132 0.05755 0.0
C1018 C 0.34406 0.90794 0.03853 0.0
C1019 C 0.36714 0.91216 0.0443 0.0
C1020 C 0.36853 0.90112 0.05697 0.0
C1021 C 0.34737 0.88597 0.06356 0.0
C1022 C 0.43334 0.95704 0.03817 0.0
C1023 C 0.43206 0.9559 0.02273 0.0
C1024 C 0.4123 0.94309 0.04518 0.0
C1025 C 0.38952 0.9275 0.03691 0.0
C1026 C 0.38832 0.92639 0.02146 0.0
C1027 C 0.40929 0.94049 0.01446 0.0
H1028 H 0.10561 0.43235 0.07442 0.0
H1029 H 0.15747 0.47135 0.0435 0.0
H1030 H 0.07634 0.44182 0.06221 0.0
H1031 H 0.12783 0.48001 0.03108 0.0
H1032 H 0.05735 0.46493 0.0036 0.0
H1033 H 0.08608 0.45525 0.01625 0.0
H1034 H 0.07329 0.48014 0.05806 0.0
H1035 H 0.04449 0.48995 0.04543 0.0
C1036 C 0.11087 0.44305 0.06509 0.0
C1037 C 0.13396 0.45106 0.05996 0.0
C1038 C 0.09405 0.44838 0.05809 0.0
C1039 C 0.09982 0.46158 0.04569 0.0
C1040 C 0.12279 0.46951 0.0405 0.0
C1041 C 0.13972 0.46444 0.0476 0.0
C1042 C 0.06056 0.46827 0.01549 0.0
C1043 C 0.04866 0.47823 0.02351 0.0
C1044 C 0.07713 0.46285 0.02271 0.0
C1045 C 0.08193 0.46701 0.03811 0.0
C1046 C 0.06978 0.47662 0.04617 0.0
C1047 C 0.05342 0.48234 0.03894 0.0
H1048 H 0.53482 0.68874 0.02382 0.0
H1049 H 0.58139 0.67622 0.05436 0.0
H1050 H 0.51979 0.6482 0.01084 0.0
H1051 H 0.56503 0.63498 0.04201 0.0
H1052 H 0.54826 0.57095 0.00854 0.0
H1053 H 0.56524 0.61281 0.02027 0.0
H1054 H 0.49371 0.60604 0.01359 0.0
H1055 H 0.4771 0.56454 0.00132 0.0
C1056 C 0.54197 0.67742 0.02775 0.0
C1057 C 0.55938 0.68585 0.04015 0.0
C1058 C 0.53301 0.65395 0.02043 0.0
C1059 C 0.54103 0.63818 0.02542 0.0
C1060 C 0.55861 0.64668 0.03775 0.0
C1061 C 0.56776 0.67026 0.04497 0.0
C1062 C 0.53624 0.57851 0.00955 0.0
C1063 C 0.5114 0.56461 0.00402 0.0
C1064 C 0.54591 0.60243 0.01636 0.0
C1065 C 0.53087 0.61287 0.01792 0.0
C1066 C 0.50595 0.59881 0.01236 0.0
C1067 C 0.49636 0.57498 0.00541 0.0
H1068 H 0.83961 0.32924 0.95673 0.0
H1069 H 0.89441 0.30802 0.96355 0.0
H1070 H 0.8675 0.36955 0.97 0.0
H1071 H 0.92209 0.34791 0.97747 0.0
H1072 H 0.97505 0.43027 0.98816 0.0
H1073 H 0.94727 0.38977 0.97512 0.0
H1074 H 0.88597 0.39073 0.99317 0.0
H1075 H 0.91375 0.43196 0.00539 0.0
C1076 C 0.85757 0.33316 0.96127 0.0
C1077 C 0.8649 0.31558 0.95912 0.0
C1078 C 0.87355 0.35622 0.96897 0.0
C1079 C 0.89714 0.36212 0.9749 0.0
C1080 C 0.9043 0.3443 0.97285 0.0
C1081 C 0.88842 0.32137 0.96494 0.0
C1082 C 0.9556 0.42185 0.98923 0.0
C1083 C 0.94649 0.43435 0.99761 0.0
C1084 C 0.93966 0.39847 0.98189 0.0
C1085 C 0.91424 0.38684 0.983 0.0
C1086 C 0.9053 0.39923 0.99175 0.0
C1087 C 0.92123 0.42279 0.99889 0.0
H1088 H 0.64786 0.54295 0.92272 0.0
H1089 H 0.68807 0.55152 0.96462 0.0
H1090 H 0.61199 0.53489 0.93517 0.0
H1091 H 0.65181 0.54186 0.97694 0.0
H1092 H 0.59007 0.54627 0.99684 0.0
H1093 H 0.62631 0.55726 0.98409 0.0
H1094 H 0.58083 0.5039 0.94737 0.0
H1095 H 0.54452 0.4936 0.95989 0.0
C1096 C 0.64911 0.54319 0.93458 0.0
C1097 C 0.67091 0.54782 0.94263 0.0
C1098 C 0.62838 0.5382 0.94172 0.0
C1099 C 0.62887 0.53756 0.95708 0.0
C1100 C 0.65076 0.54246 0.96513 0.0
C1101 C 0.67151 0.54764 0.95801 0.0
C1102 C 0.5878 0.53688 0.98604 0.0
C1103 C 0.56439 0.51901 0.97941 0.0
C1104 C 0.60862 0.54311 0.97874 0.0
C1105 C 0.60659 0.53144 0.96468 0.0
C1106 C 0.58312 0.51358 0.95806 0.0
C1107 C 0.56228 0.50752 0.96531 0.0
H1108 H 0.46955 0.15005 0.97536 0.0
H1109 H 0.42217 0.08638 0.94444 0.0
H1110 H 0.48412 0.12615 0.98793 0.0
H1111 H 0.43789 0.0628 0.95654 0.0
H1112 H 0.45085 0.02083 0.99202 0.0
H1113 H 0.43598 0.04428 0.97893 0.0
H1114 H 0.50908 0.10801 0.98512 0.0
H1115 H 0.52365 0.08467 0.99858 0.0
C1116 C 0.46221 0.13093 0.97123 0.0
C1117 C 0.44451 0.12009 0.95895 0.0
C1118 C 0.47087 0.11731 0.97832 0.0
C1119 C 0.46223 0.09254 0.97324 0.0
C1120 C 0.44472 0.08175 0.96085 0.0
C1121 C 0.43593 0.09536 0.9538 0.0
C1122 C 0.46368 0.03986 0.99055 0.0
C1123 C 0.48835 0.05102 0.99633 0.0
C1124 C 0.45523 0.05325 0.98298 0.0
C1125 C 0.47132 0.07806 0.98097 0.0
C1126 C 0.49609 0.08908 0.98667 0.0
C1127 C 0.50448 0.07572 0.99433 0.0
H1128 H 0.69091 0.10707 0.96306 0.0
H1129 H 0.64715 0.11957 0.93048 0.0
H1130 H 0.65412 0.08008 0.9744 0.0
H1131 H 0.61031 0.09318 0.94205 0.0
H1132 H 0.54576 0.02819 0.95904 0.0
H1133 H 0.58223 0.05225 0.94666 0.0
H1134 H 0.62549 0.08233 0.9889 0.0
H1135 H 0.58924 0.05757 0.00122 0.0
C1136 C 0.67338 0.10409 0.95837 0.0
C1137 C 0.67189 0.11548 0.94592 0.0
C1138 C 0.65228 0.08872 0.9649 0.0
C1139 C 0.62918 0.08457 0.95925 0.0
C1140 C 0.62768 0.09565 0.94661 0.0
C1141 C 0.64879 0.11083 0.93998 0.0
C1142 C 0.56308 0.03988 0.96569 0.0
C1143 C 0.56459 0.0409 0.98113 0.0
C1144 C 0.584 0.05381 0.95858 0.0
C1145 C 0.6069 0.06928 0.96675 0.0
C1146 C 0.60832 0.07029 0.98221 0.0
C1147 C 0.58746 0.05619 0.9893 0.0
H1148 H 0.83982 0.50464 0.94193 0.0
H1149 H 0.89393 0.58221 0.94616 0.0
H1150 H 0.86992 0.496 0.95405 0.0
H1151 H 0.92402 0.57357 0.95828 0.0
H1152 H 0.95795 0.54831 0.99525 0.0
H1153 H 0.92871 0.55744 0.98262 0.0
H1154 H 0.91059 0.49905 0.94831 0.0
H1155 H 0.93994 0.48993 0.96086 0.0
C1156 C 0.85813 0.51982 0.94551 0.0
C1157 C 0.86458 0.54408 0.94313 0.0
C1158 C 0.87537 0.51487 0.95231 0.0
C1159 C 0.89927 0.53413 0.95707 0.0
C1160 C 0.90567 0.55841 0.95478 0.0
C1161 C 0.88854 0.56332 0.94778 0.0
C1162 C 0.94779 0.53745 0.985 0.0
C1163 C 0.95123 0.51837 0.97907 0.0
C1164 C 0.93115 0.54277 0.97775 0.0
C1165 C 0.91739 0.52891 0.96452 0.0
C1166 C 0.92085 0.50987 0.95856 0.0
C1167 C 0.93774 0.50477 0.96571 0.0
H1168 H 0.43414 0.32743 0.94364 0.0
H1169 H 0.44279 0.30295 0.98561 0.0
H1170 H 0.44893 0.36866 0.95573 0.0
H1171 H 0.45877 0.34461 0.99745 0.0
H1172 H 0.51572 0.43 0.00595 0.0
H1173 H 0.49827 0.3875 0.9948 0.0
H1174 H 0.43467 0.38893 0.97616 0.0
H1175 H 0.45171 0.43109 0.98766 0.0
C1176 C 0.43889 0.33066 0.95544 0.0
C1177 C 0.43725 0.31172 0.96361 0.0
C1178 C 0.44751 0.35435 0.96233 0.0
C1179 C 0.45507 0.35974 0.97748 0.0
C1180 C 0.4533 0.34092 0.98571 0.0
C1181 C 0.44427 0.31711 0.97888 0.0
C1182 C 0.49797 0.42117 0.99953 0.0
C1183 C 0.48515 0.43385 0.99753 0.0
C1184 C 0.48799 0.39689 0.99321 0.0
C1185 C 0.46521 0.38508 0.9846 0.0
C1186 C 0.45237 0.39775 0.98265 0.0
C1187 C 0.46213 0.42184 0.9892 0.0
H1188 H 0.14532 0.66 0.05933 0.0
H1189 H 0.11744 0.69444 0.03062 0.0
H1190 H 0.11812 0.62002 0.0452 0.0
H1191 H 0.09003 0.65432 0.01653 0.0
H1192 H 0.02533 0.57192 0.00872 0.0
H1193 H 0.05277 0.61262 0.0221 0.0
H1194 H 0.11417 0.60101 0.01848 0.0
H1195 H 0.08682 0.56048 0.00495 0.0
C1196 C 0.13329 0.65896 0.05002 0.0
C1197 C 0.13342 0.68025 0.04605 0.0
C1198 C 0.11788 0.63616 0.0419 0.0
C1199 C 0.10203 0.63415 0.02979 0.0
C1200 C 0.10201 0.65539 0.02587 0.0
C1201 C 0.11775 0.6783 0.03385 0.0
C1202 C 0.04472 0.57817 0.01073 0.0
C1203 C 0.05403 0.56316 0.00581 0.0
C1204 C 0.06038 0.60143 0.01831 0.0
C1205 C 0.08554 0.60988 0.02131 0.0
C1206 C 0.09481 0.59483 0.01638 0.0
C1207 C 0.07922 0.57175 0.00859 0.0
H1208 H 0.31881 0.46752 0.04278 0.0
H1209 H 0.33925 0.42846 0.0726 0.0
H1210 H 0.35483 0.47759 0.02999 0.0
H1211 H 0.37576 0.43931 0.05999 0.0
H1212 H 0.45177 0.48969 0.04358 0.0
H1213 H 0.41523 0.47825 0.05624 0.0
H1214 H 0.37084 0.45518 0.01438 0.0
H1215 H 0.40733 0.46655 0.00165 0.0
C1216 C 0.3308 0.46084 0.04654 0.0
C1217 C 0.32597 0.44704 0.05872 0.0
C1218 C 0.35151 0.46673 0.03922 0.0
C1219 C 0.36807 0.45923 0.04399 0.0
C1220 C 0.36341 0.44556 0.05618 0.0
C1221 C 0.34253 0.43942 0.06342 0.0
C1222 C 0.43423 0.4822 0.03705 0.0
C1223 C 0.43246 0.47907 0.02159 0.0
C1224 C 0.4133 0.4755 0.04433 0.0
C1225 C 0.39021 0.46583 0.03629 0.0
C1226 C 0.38844 0.46277 0.02084 0.0
C1227 C 0.40932 0.46919 0.01357 0.0
H1228 H 0.53032 0.84764 0.02736 0.0
H1229 H 0.57689 0.91122 0.05853 0.0
H1230 H 0.51537 0.87132 0.01485 0.0
H1231 H 0.56079 0.93451 0.04652 0.0
H1232 H 0.54647 0.97654 0.01182 0.0
H1233 H 0.56219 0.9533 0.02435 0.0
H1234 H 0.4897 0.88866 0.01796 0.0
H1235 H 0.47428 0.91181 0.00504 0.0
C1236 C 0.53743 0.8667 0.03154 0.0
C1237 C 0.55493 0.87754 0.04392 0.0
C1238 C 0.52855 0.88019 0.02449 0.0
C1239 C 0.53678 0.90481 0.0297 0.0
C1240 C 0.55424 0.91567 0.04211 0.0
C1241 C 0.56325 0.90221 0.04911 0.0
C1242 C 0.53395 0.95735 0.01312 0.0
C1243 C 0.5092 0.9459 0.00745 0.0
C1244 C 0.54289 0.94407 0.02037 0.0
C1245 C 0.52722 0.91908 0.02217 0.0
C1246 C 0.50238 0.90774 0.01656 0.0
C1247 C 0.49349 0.921 0.00922 0.0
H1248 H 0.97801 0.19918 0.36901 0.0
H1249 H 0.01638 0.23314 0.41212 0.0
H1250 H 0.01445 0.22639 0.35773 0.0
H1251 H 0.05245 0.26167 0.40074 0.0
H1252 H 0.12107 0.2886 0.37596 0.0
H1253 H 0.08472 0.26314 0.3881 0.0
H1254 H 0.03917 0.26709 0.35242 0.0
H1255 H 0.07539 0.29158 0.34003 0.0
C1256 C 0.9942 0.21251 0.37611 0.0
C1257 C 0.99424 0.21372 0.39151 0.0
C1258 C 0.01506 0.22846 0.3696 0.0
C1259 C 0.0365 0.24635 0.37828 0.0
C1260 C 0.03642 0.24792 0.39369 0.0
C1261 C 0.01558 0.23176 0.40022 0.0
C1262 C 0.10328 0.28406 0.37073 0.0
C1263 C 0.1011 0.29191 0.35695 0.0
C1264 C 0.08241 0.26958 0.37775 0.0
C1265 C 0.05889 0.26285 0.37123 0.0
C1266 C 0.05687 0.27137 0.35764 0.0
C1267 C 0.07769 0.28557 0.35054 0.0
H1268 H 0.82578 0.81106 0.37925 0.0
H1269 H 0.77138 0.7641 0.4068 0.0
H1270 H 0.79577 0.81937 0.36699 0.0
H1271 H 0.74179 0.77344 0.39487 0.0
H1272 H 0.70798 0.82132 0.37922 0.0
H1273 H 0.73718 0.81225 0.39215 0.0
H1274 H 0.75481 0.79251 0.35048 0.0
H1275 H 0.72558 0.80125 0.33754 0.0
C1276 C 0.80745 0.80239 0.38267 0.0
C1277 C 0.80104 0.78674 0.39399 0.0
C1278 C 0.79032 0.8073 0.37569 0.0
C1279 C 0.76651 0.797 0.37999 0.0
C1280 C 0.76013 0.78178 0.39146 0.0
C1281 C 0.77715 0.77654 0.39831 0.0
C1282 C 0.71802 0.81495 0.37283 0.0
C1283 C 0.71448 0.81198 0.35736 0.0
C1284 C 0.73463 0.80969 0.38023 0.0
C1285 C 0.74828 0.80181 0.37228 0.0
C1286 C 0.74466 0.79877 0.35685 0.0
C1287 C 0.72781 0.80363 0.34946 0.0
H1288 H 0.2623 0.02512 0.3703 0.0
H1289 H 0.18752 0.00662 0.37431 0.0
H1290 H 0.24778 0.98429 0.3575 0.0
H1291 H 0.17287 0.96549 0.36221 0.0
H1292 H 0.1516 0.90166 0.32821 0.0
H1293 H 0.16761 0.94359 0.33949 0.0
H1294 H 0.23001 0.94236 0.36065 0.0
H1295 H 0.21467 0.90105 0.34854 0.0
C1296 C 0.24276 0.01216 0.36855 0.0
C1297 C 0.226 0.01897 0.37319 0.0
C1298 C 0.23439 0.98873 0.36128 0.0
C1299 C 0.20909 0.97149 0.35874 0.0
C1300 C 0.19243 0.97837 0.36362 0.0
C1301 C 0.20079 0.00189 0.37065 0.0
C1302 C 0.16882 0.91048 0.33519 0.0
C1303 C 0.18178 0.89807 0.33764 0.0
C1304 C 0.17792 0.93445 0.34178 0.0
C1305 C 0.20002 0.9464 0.35115 0.0
C1306 C 0.21311 0.93396 0.35339 0.0
C1307 C 0.20419 0.91015 0.34659 0.0
H1308 H 0.56134 0.6598 0.27817 0.0
H1309 H 0.50389 0.65103 0.30489 0.0
H1310 H 0.5889 0.69989 0.29157 0.0
H1311 H 0.53204 0.69032 0.31903 0.0
H1312 H 0.57981 0.77347 0.3307 0.0
H1313 H 0.55187 0.73312 0.31738 0.0
H1314 H 0.61232 0.71966 0.31422 0.0
H1315 H 0.64028 0.76045 0.32696 0.0
C1316 C 0.55455 0.66635 0.28692 0.0
C1317 C 0.53026 0.65213 0.29035 0.0
C1318 C 0.57054 0.68925 0.29479 0.0
C1319 C 0.56278 0.69844 0.30644 0.0
C1320 C 0.5386 0.68406 0.31001 0.0
C1321 C 0.52252 0.66127 0.30203 0.0
C1322 C 0.58703 0.76179 0.32716 0.0
C1323 C 0.61214 0.77001 0.32982 0.0
C1324 C 0.57102 0.7386 0.31961 0.0
C1325 C 0.57977 0.72301 0.31469 0.0
C1326 C 0.60495 0.73126 0.31758 0.0
C1327 C 0.62097 0.75456 0.32498 0.0
H1328 H 0.34755 0.9172 0.28206 0.0
H1329 H 0.32461 0.83987 0.27532 0.0
H1330 H 0.31145 0.9072 0.29503 0.0
H1331 H 0.28863 0.82989 0.28836 0.0
H1332 H 0.21381 0.82196 0.29726 0.0
H1333 H 0.24982 0.83199 0.28436 0.0
H1334 H 0.29552 0.88978 0.31896 0.0
H1335 H 0.25951 0.87979 0.33194 0.0
C1336 C 0.33471 0.89807 0.28329 0.0
C1337 C 0.33886 0.8793 0.27768 0.0
C1338 C 0.3142 0.89237 0.29082 0.0
C1339 C 0.29728 0.86777 0.29272 0.0
C1340 C 0.30129 0.84899 0.28697 0.0
C1341 C 0.32194 0.85471 0.27961 0.0
C1342 C 0.23153 0.83678 0.30215 0.0
C1343 C 0.23379 0.85006 0.31565 0.0
C1344 C 0.25215 0.84244 0.29478 0.0
C1345 C 0.27545 0.86167 0.30065 0.0
C1346 C 0.27774 0.875 0.31412 0.0
C1347 C 0.25714 0.86916 0.32159 0.0
H1348 H 0.0862 0.44106 0.30487 0.0
H1349 H 0.1449 0.46354 0.27691 0.0
H1350 H 0.10066 0.41683 0.3175 0.0
H1351 H 0.1593 0.43912 0.28951 0.0
H1352 H 0.19315 0.41901 0.32949 0.0
H1353 H 0.17826 0.44171 0.31541 0.0
H1354 H 0.10464 0.3792 0.31184 0.0
H1355 H 0.11951 0.35658 0.32591 0.0
C1356 C 0.10214 0.44071 0.3014 0.0
C1357 C 0.11448 0.45419 0.28994 0.0
C1358 C 0.1103 0.42674 0.30856 0.0
C1359 C 0.13112 0.42617 0.3045 0.0
C1360 C 0.14332 0.43942 0.29293 0.0
C1361 C 0.13497 0.45318 0.28565 0.0
C1362 C 0.1738 0.41019 0.32569 0.0
C1363 C 0.15743 0.38615 0.3288 0.0
C1364 C 0.16533 0.42307 0.31755 0.0
C1365 C 0.14031 0.41218 0.31256 0.0
C1366 C 0.12398 0.38808 0.31566 0.0
C1367 C 0.13249 0.37514 0.32365 0.0
H1368 H 0.32011 0.47668 0.27667 0.0
H1369 H 0.3462 0.42529 0.28009 0.0
H1370 H 0.28363 0.44928 0.28833 0.0
H1371 H 0.30968 0.39786 0.29183 0.0
H1372 H 0.25749 0.37555 0.32945 0.0
H1373 H 0.29306 0.40077 0.31647 0.0
H1374 H 0.24584 0.40615 0.28264 0.0
H1375 H 0.21024 0.38085 0.2955 0.0
C1376 C 0.31797 0.45948 0.27989 0.0
C1377 C 0.33596 0.45309 0.27751 0.0
C1378 C 0.29706 0.44376 0.28647 0.0
C1379 C 0.29388 0.42149 0.291 0.0
C1380 C 0.31178 0.415 0.28853 0.0
C1381 C 0.33253 0.43057 0.28173 0.0
C1382 C 0.25468 0.38207 0.31923 0.0
C1383 C 0.23105 0.37625 0.31354 0.0
C1384 C 0.27502 0.39636 0.31176 0.0
C1385 C 0.27218 0.40541 0.29856 0.0
C1386 C 0.24856 0.39954 0.29284 0.0
C1387 C 0.22819 0.38498 0.3002 0.0
H1388 H 0.51153 0.84396 0.27317 0.0
H1389 H 0.56521 0.92168 0.27964 0.0
H1390 H 0.54144 0.83468 0.2848 0.0
H1391 H 0.59519 0.91238 0.29118 0.0
H1392 H 0.62772 0.88511 0.3276 0.0
H1393 H 0.59943 0.89518 0.31475 0.0
H1394 H 0.58194 0.83774 0.27991 0.0
H1395 H 0.61028 0.82759 0.29273 0.0
C1396 C 0.52973 0.85903 0.27709 0.0
C1397 C 0.53605 0.88354 0.27554 0.0
C1398 C 0.54689 0.85371 0.28361 0.0
C1399 C 0.57062 0.87282 0.28888 0.0
C1400 C 0.57697 0.89732 0.2873 0.0
C1401 C 0.5599 0.90261 0.28061 0.0
C1402 C 0.61793 0.87467 0.31717 0.0
C1403 C 0.6212 0.8555 0.3112 0.0
C1404 C 0.60184 0.88055 0.30978 0.0
C1405 C 0.58847 0.86721 0.29635 0.0
C1406 C 0.59187 0.84818 0.29031 0.0
C1407 C 0.60819 0.84247 0.29762 0.0
H1408 H 0.1055 0.6638 0.27934 0.0
H1409 H 0.11267 0.63652 0.32055 0.0
H1410 H 0.11926 0.70415 0.29238 0.0
H1411 H 0.12761 0.67736 0.33338 0.0
H1412 H 0.18392 0.76298 0.34373 0.0
H1413 H 0.1669 0.72083 0.33206 0.0
H1414 H 0.10388 0.72276 0.31286 0.0
H1415 H 0.12048 0.76455 0.32484 0.0
C1416 C 0.10969 0.66622 0.29117 0.0
C1417 C 0.10795 0.64676 0.29885 0.0
C1418 C 0.11772 0.68941 0.29861 0.0
C1419 C 0.12456 0.6938 0.31384 0.0
C1420 C 0.12268 0.67446 0.32159 0.0
C1421 C 0.11424 0.65112 0.3142 0.0
C1422 C 0.16635 0.7543 0.33711 0.0
C1423 C 0.15363 0.76706 0.33504 0.0
C1424 C 0.15661 0.73022 0.33049 0.0
C1425 C 0.13418 0.7187 0.32153 0.0
C1426 C 0.12132 0.73137 0.31962 0.0
C1427 C 0.13084 0.75524 0.32645 0.0
H1428 H 0.78941 0.02758 0.36433 0.0
H1429 H 0.81384 0.99136 0.39388 0.0
H1430 H 0.76153 0.98779 0.35005 0.0
H1431 H 0.78614 0.95166 0.37956 0.0
H1432 H 0.75462 0.89215 0.33922 0.0
H1433 H 0.78262 0.93229 0.353 0.0
H1434 H 0.72297 0.94698 0.35523 0.0
H1435 H 0.69489 0.90669 0.34162 0.0
C1436 C 0.78887 0.01111 0.3677 0.0
C1437 C 0.80371 0.01246 0.38019 0.0
C1438 C 0.77286 0.9884 0.35961 0.0
C1439 C 0.77176 0.96674 0.36372 0.0
C1440 C 0.78678 0.96814 0.37612 0.0
C1441 C 0.80247 0.99077 0.38435 0.0
C1442 C 0.74756 0.90402 0.34261 0.0
C1443 C 0.72266 0.89642 0.33937 0.0
C1444 C 0.76351 0.92688 0.35054 0.0
C1445 C 0.75491 0.94267 0.35515 0.0
C1446 C 0.73007 0.9352 0.3517 0.0
C1447 C 0.71403 0.91217 0.34398 0.0
H1448 H 0.01076 0.82603 0.396 0.0
H1449 H 0.98802 0.74869 0.39013 0.0
H1450 H 0.04715 0.83578 0.38345 0.0
H1451 H 0.02452 0.75846 0.37761 0.0
H1452 H 0.07686 0.78546 0.34073 0.0
H1453 H 0.04072 0.77551 0.35356 0.0
H1454 H 0.08604 0.83373 0.38802 0.0
H1455 H 0.12222 0.8437 0.37529 0.0
C1456 C 0.01357 0.81113 0.39201 0.0
C1457 C 0.99657 0.7866 0.39401 0.0
C1458 C 0.03445 0.81672 0.38493 0.0
C1459 C 0.03863 0.79787 0.37954 0.0
C1460 C 0.02165 0.77334 0.38155 0.0
C1461 C 0.0009 0.76777 0.38881 0.0
C1462 C 0.07913 0.79619 0.35103 0.0
C1463 C 0.10242 0.81539 0.35697 0.0
C1464 C 0.05845 0.79037 0.35841 0.0
C1465 C 0.06059 0.80384 0.37179 0.0
C1466 C 0.08383 0.82316 0.37767 0.0
C1467 C 0.10455 0.82879 0.3704 0.0
H1468 H 0.24462 0.24535 0.39169 0.0
H1469 H 0.19396 0.18077 0.36229 0.0
H1470 H 0.22856 0.26897 0.38003 0.0
H1471 H 0.17898 0.20468 0.35011 0.0
H1472 H 0.14018 0.24724 0.34053 0.0
H1473 H 0.15511 0.22392 0.35371 0.0
H1474 H 0.22887 0.28645 0.35744 0.0
H1475 H 0.21368 0.30991 0.34465 0.0
C1476 C 0.23006 0.23618 0.38275 0.0
C1477 C 0.22065 0.21117 0.37791 0.0
C1478 C 0.22106 0.2498 0.37594 0.0
C1479 C 0.20251 0.23876 0.3641 0.0
C1480 C 0.19305 0.21373 0.35931 0.0
C1481 C 0.20193 0.20009 0.36616 0.0
C1482 C 0.15956 0.25594 0.34419 0.0
C1483 C 0.1758 0.2803 0.34158 0.0
C1484 C 0.16816 0.24258 0.35168 0.0
C1485 C 0.19322 0.25327 0.3566 0.0
C1486 C 0.20941 0.27776 0.35401 0.0
C1487 C 0.20077 0.29115 0.3466 0.0
H1488 H 0.6832 0.56655 0.74434 0.0
H1489 H 0.64508 0.53181 0.70129 0.0
H1490 H 0.71932 0.59493 0.73292 0.0
H1491 H 0.68153 0.55906 0.68996 0.0
H1492 H 0.7418 0.62607 0.67268 0.0
H1493 H 0.70566 0.60047 0.68489 0.0
H1494 H 0.75164 0.59609 0.7201 0.0
H1495 H 0.78788 0.62245 0.70813 0.0
C1496 C 0.68249 0.56496 0.73245 0.0
C1497 C 0.6612 0.54681 0.72376 0.0
C1498 C 0.70333 0.58104 0.7259 0.0
C1499 C 0.70341 0.5793 0.7105 0.0
C1500 C 0.68208 0.5612 0.70183 0.0
C1501 C 0.66124 0.54527 0.70836 0.0
C1502 C 0.74421 0.61971 0.68305 0.0
C1503 C 0.76771 0.62623 0.6894 0.0
C1504 C 0.72346 0.60489 0.69002 0.0
C1505 C 0.72566 0.59603 0.70345 0.0
C1506 C 0.74924 0.60282 0.70988 0.0
C1507 C 0.77003 0.61783 0.70296 0.0
H1508 H 0.45289 0.08516 0.70661 0.0
H1509 H 0.47324 0.14355 0.74132 0.0
H1510 H 0.42415 0.09542 0.69454 0.0
H1511 H 0.4453 0.15458 0.72904 0.0
H1512 H 0.37636 0.1536 0.71107 0.0
H1513 H 0.40366 0.14188 0.72337 0.0
H1514 H 0.42221 0.1252 0.6811 0.0
H1515 H 0.39407 0.13588 0.66884 0.0
C1516 C 0.45133 0.10035 0.71157 0.0
C1517 C 0.46521 0.11354 0.72489 0.0
C1518 C 0.43496 0.10634 0.70463 0.0
C1519 C 0.43237 0.1259 0.71077 0.0
C1520 C 0.44641 0.13912 0.72411 0.0
C1521 C 0.46251 0.1329 0.73113 0.0
C1522 C 0.38626 0.1474 0.70442 0.0
C1523 C 0.38303 0.14562 0.68898 0.0
C1524 C 0.40205 0.1408 0.71147 0.0
C1525 C 0.41525 0.13259 0.70326 0.0
C1526 C 0.41205 0.13098 0.6878 0.0
C1527 C 0.39601 0.13726 0.68075 0.0
H1528 H 0.86477 0.35731 0.6924 0.0
H1529 H 0.91457 0.34788 0.72212 0.0
H1530 H 0.85044 0.31667 0.67976 0.0
H1531 H 0.89895 0.30654 0.71017 0.0
H1532 H 0.88265 0.24219 0.67714 0.0
H1533 H 0.89878 0.28413 0.6885 0.0
H1534 H 0.82595 0.27451 0.68303 0.0
H1535 H 0.81017 0.23295 0.67109 0.0
C1536 C 0.87276 0.34664 0.69622 0.0
C1537 C 0.89087 0.35597 0.7083 0.0
C1538 C 0.86423 0.32311 0.68911 0.0
C1539 C 0.87338 0.30817 0.69398 0.0
C1540 C 0.89164 0.31758 0.70598 0.0
C1541 C 0.90037 0.34122 0.71299 0.0
C1542 C 0.87016 0.24914 0.67834 0.0
C1543 C 0.8452 0.23444 0.67322 0.0
C1544 C 0.87935 0.27311 0.68494 0.0
C1545 C 0.8637 0.28278 0.68671 0.0
C1546 C 0.83865 0.2679 0.68161 0.0
C1547 C 0.82954 0.24402 0.67486 0.0
H1548 H 0.22924 0.97579 0.62907 0.0
H1549 H 0.1749 0.99753 0.62177 0.0
H1550 H 0.25689 0.0156 0.64309 0.0
H1551 H 0.20272 0.03766 0.63528 0.0
H1552 H 0.24807 0.09847 0.67184 0.0
H1553 H 0.22053 0.05761 0.65905 0.0
H1554 H 0.28216 0.05788 0.64067 0.0
H1555 H 0.30972 0.09812 0.65415 0.0
C1556 C 0.22334 0.98923 0.63036 0.0
C1557 C 0.19994 0.9836 0.62439 0.0
C1558 C 0.23919 0.01208 0.63835 0.0
C1559 C 0.23209 0.02993 0.64036 0.0
C1560 C 0.20867 0.02425 0.63425 0.0
C1561 C 0.19274 0.0013 0.62643 0.0
C1562 C 0.25568 0.08967 0.66513 0.0
C1563 C 0.28096 0.10148 0.66389 0.0
C1564 C 0.2399 0.06634 0.65769 0.0
C1565 C 0.24903 0.05443 0.6487 0.0
C1566 C 0.27445 0.06628 0.64761 0.0
C1567 C 0.29025 0.08946 0.65522 0.0
H1568 H 0.0224 0.22044 0.63204 0.0
H1569 H 0.98274 0.21477 0.59049 0.0
H1570 H 0.98643 0.21134 0.64453 0.0
H1571 H 0.94713 0.20713 0.60315 0.0
H1572 H 0.87956 0.16589 0.62799 0.0
H1573 H 0.91553 0.1759 0.61518 0.0
H1574 H 0.962 0.228 0.65214 0.0
H1575 H 0.92607 0.21733 0.66516 0.0
C1576 C 0.00601 0.21728 0.62555 0.0
C1577 C 0.00547 0.21814 0.61021 0.0
C1578 C 0.98545 0.21242 0.63277 0.0
C1579 C 0.96381 0.2085 0.62488 0.0
C1580 C 0.96336 0.20973 0.60957 0.0
C1581 C 0.98391 0.21444 0.60232 0.0
C1582 C 0.89745 0.17949 0.63339 0.0
C1583 C 0.89994 0.19069 0.64765 0.0
C1584 C 0.9181 0.18538 0.62599 0.0
C1585 C 0.94174 0.20276 0.6326 0.0
C1586 C 0.94415 0.21421 0.64679 0.0
C1587 C 0.92351 0.20818 0.65425 0.0
H1588 H 0.75715 0.75833 0.61088 0.0
H1589 H 0.80569 0.82232 0.64129 0.0
H1590 H 0.77254 0.73456 0.62305 0.0
H1591 H 0.81995 0.79824 0.65395 0.0
H1592 H 0.85901 0.75606 0.66425 0.0
H1593 H 0.84445 0.77955 0.65093 0.0
H1594 H 0.77099 0.71639 0.64552 0.0
H1595 H 0.78582 0.69278 0.65846 0.0
C1596 C 0.77108 0.76733 0.62016 0.0
C1597 C 0.78014 0.79224 0.62511 0.0
C1598 C 0.77969 0.75362 0.62725 0.0
C1599 C 0.79747 0.76446 0.6395 0.0
C1600 C 0.80649 0.78936 0.64444 0.0
C1601 C 0.79802 0.80309 0.63731 0.0
C1602 C 0.83977 0.74726 0.6602 0.0
C1603 C 0.82352 0.72268 0.66238 0.0
C1604 C 0.83138 0.76072 0.65263 0.0
C1605 C 0.80651 0.74991 0.64719 0.0
C1606 C 0.79031 0.72521 0.64937 0.0
C1607 C 0.79875 0.71172 0.65686 0.0
H1608 H 0.01518 0.75949 0.61574 0.0
H1609 H 0.98846 0.80972 0.60898 0.0
H1610 H 0.97826 0.73286 0.62739 0.0
H1611 H 0.95157 0.78311 0.62057 0.0
H1612 H 0.87813 0.71483 0.62807 0.0
H1613 H 0.91423 0.73948 0.61542 0.0
H1614 H 0.96064 0.73758 0.65127 0.0
H1615 H 0.92458 0.71303 0.66405 0.0
C1616 C 0.00129 0.76467 0.61663 0.0
C1617 C 0.00463 0.78664 0.61149 0.0
C1618 C 0.9803 0.74958 0.62337 0.0
C1619 C 0.96212 0.75598 0.62488 0.0
C1620 C 0.96524 0.77767 0.61946 0.0
C1621 C 0.98637 0.79294 0.61292 0.0
C1622 C 0.89601 0.71959 0.63326 0.0
C1623 C 0.89851 0.71204 0.6471 0.0
C1624 C 0.91666 0.73379 0.62603 0.0
C1625 C 0.94018 0.74041 0.63238 0.0
C1626 C 0.94268 0.73255 0.64609 0.0
C1627 C 0.92206 0.71865 0.65343 0.0
H1628 H 0.22896 0.25362 0.61656 0.0
H1629 H 0.17446 0.1762 0.60937 0.0
H1630 H 0.25814 0.24352 0.62837 0.0
H1631 H 0.20362 0.1661 0.62123 0.0
H1632 H 0.27299 0.15888 0.62808 0.0
H1633 H 0.24416 0.16913 0.61601 0.0
H1634 H 0.26172 0.22518 0.65177 0.0
H1635 H 0.29048 0.21497 0.6639 0.0
C1636 C 0.22328 0.23445 0.61747 0.0
C1637 C 0.19947 0.21568 0.61207 0.0
C1638 C 0.23989 0.2287 0.62431 0.0
C1639 C 0.23312 0.20404 0.6257 0.0
C1640 C 0.20936 0.18525 0.6202 0.0
C1641 C 0.19265 0.19103 0.61354 0.0
C1642 C 0.27074 0.17342 0.63336 0.0
C1643 C 0.28401 0.18611 0.64696 0.0
C1644 C 0.25415 0.17918 0.62648 0.0
C1645 C 0.25073 0.19794 0.63296 0.0
C1646 C 0.26415 0.21077 0.64648 0.0
C1647 C 0.28051 0.20482 0.65345 0.0
H1648 H 0.80323 0.98293 0.64436 0.0
H1649 H 0.75452 0.99404 0.61475 0.0
H1650 H 0.81793 0.02336 0.6574 0.0
H1651 H 0.77045 0.03518 0.62718 0.0
H1652 H 0.7863 0.09807 0.66142 0.0
H1653 H 0.77018 0.05657 0.64933 0.0
H1654 H 0.84287 0.06583 0.65462 0.0
H1655 H 0.85867 0.107 0.66721 0.0
C1656 C 0.79556 0.99393 0.64065 0.0
C1657 C 0.77761 0.98512 0.6285 0.0
C1658 C 0.8043 0.01734 0.648 0.0
C1659 C 0.7955 0.03265 0.64332 0.0
C1660 C 0.77747 0.02381 0.63121 0.0
C1661 C 0.76856 0.0003 0.62394 0.0
C1662 C 0.79876 0.09114 0.66002 0.0
C1663 C 0.82369 0.10564 0.66525 0.0
C1664 C 0.78958 0.06743 0.65301 0.0
C1665 C 0.8052 0.0578 0.65096 0.0
C1666 C 0.83021 0.07245 0.65622 0.0
C1667 C 0.83932 0.09608 0.66336 0.0
H1668 H 0.44638 0.33192 0.73008 0.0
H1669 H 0.48129 0.3598 0.69081 0.0
H1670 H 0.41834 0.29236 0.71599 0.0
H1671 H 0.45379 0.31983 0.67695 0.0
H1672 H 0.41964 0.23491 0.66441 0.0
H1673 H 0.4467 0.27586 0.67751 0.0
H1674 H 0.38415 0.2754 0.69444 0.0
H1675 H 0.35705 0.23471 0.68109 0.0
C1676 C 0.44798 0.32977 0.71844 0.0
C1677 C 0.46619 0.34916 0.71162 0.0
C1678 C 0.43196 0.30704 0.7104 0.0
C1679 C 0.43397 0.30306 0.69541 0.0
C1680 C 0.45205 0.32235 0.68854 0.0
C1681 C 0.46787 0.3452 0.69652 0.0
C1682 C 0.41169 0.24365 0.67085 0.0
C1683 C 0.38632 0.2316 0.67187 0.0
C1684 C 0.42714 0.26707 0.6783 0.0
C1685 C 0.41749 0.27869 0.68703 0.0
C1686 C 0.39207 0.26671 0.68792 0.0
C1687 C 0.3766 0.24347 0.68028 0.0
H1688 H 0.67344 0.09717 0.74059 0.0
H1689 H 0.6567 0.14078 0.71244 0.0
H1690 H 0.71058 0.10837 0.72858 0.0
H1691 H 0.69331 0.15116 0.70019 0.0
H1692 H 0.74384 0.13832 0.67105 0.0
H1693 H 0.70759 0.12766 0.68383 0.0
H1694 H 0.75148 0.14716 0.72567 0.0
H1695 H 0.7879 0.15795 0.71292 0.0
C1696 C 0.6777 0.10926 0.73194 0.0
C1697 C 0.66191 0.11792 0.72745 0.0
C1698 C 0.69894 0.11559 0.72504 0.0
C1699 C 0.7047 0.13049 0.7134 0.0
C1700 C 0.68909 0.13932 0.70898 0.0
C1701 C 0.66805 0.13325 0.71597 0.0
C1702 C 0.74579 0.1403 0.68297 0.0
C1703 C 0.76876 0.14901 0.69096 0.0
C1704 C 0.72505 0.13432 0.69028 0.0
C1705 C 0.72676 0.13664 0.70573 0.0
C1706 C 0.74964 0.14506 0.71375 0.0
C1707 C 0.77048 0.15136 0.70644 0.0
H1708 H 0.91444 0.56155 0.69717 0.0
H1709 H 0.85707 0.54036 0.72602 0.0
H1710 H 0.89959 0.58551 0.68452 0.0
H1711 H 0.84222 0.56437 0.71338 0.0
H1712 H 0.80728 0.58404 0.67377 0.0
H1713 H 0.82252 0.56116 0.68735 0.0
H1714 H 0.89602 0.6238 0.69076 0.0
H1715 H 0.88077 0.64669 0.67726 0.0
C1716 C 0.89868 0.56206 0.7008 0.0
C1717 C 0.88688 0.54913 0.71255 0.0
C1718 C 0.89029 0.57587 0.69364 0.0
C1719 C 0.86975 0.57673 0.69798 0.0
C1720 C 0.85799 0.56386 0.70976 0.0
C1721 C 0.86659 0.55032 0.71705 0.0
C1722 C 0.82667 0.59286 0.67743 0.0
C1723 C 0.84289 0.61704 0.67446 0.0
C1724 C 0.83535 0.57986 0.68526 0.0
C1725 C 0.86043 0.59074 0.69007 0.0
C1726 C 0.87663 0.61494 0.68707 0.0
C1727 C 0.86791 0.62803 0.67941 0.0
H1728 H 0.4358 0.9266 0.1623 0.0
H1729 H 0.50156 0.99377 0.18011 0.0
H1730 H 0.4444 0.93823 0.1374 0.0
H1731 H 0.51035 0.00523 0.15522 0.0
H1732 H 0.50714 0.02742 0.10875 0.0
H1733 H 0.49441 0.01699 0.13328 0.0
H1734 H 0.4765 0.94196 0.12134 0.0
H1735 H 0.48892 0.9523 0.09679 0.0
C1736 C 0.4519 0.944 0.1609 0.0
C1737 C 0.46805 0.95925 0.17315 0.0
C1738 C 0.45694 0.95055 0.14665 0.0
C1739 C 0.47811 0.97257 0.14436 0.0
C1740 C 0.49381 0.98822 0.15664 0.0
C1741 C 0.48889 0.98157 0.17087 0.0
C1742 C 0.50021 0.00865 0.11133 0.0
C1743 C 0.49909 0.99069 0.10088 0.0
C1744 C 0.49311 0.00273 0.12539 0.0
C1745 C 0.48448 0.97867 0.12923 0.0
C1746 C 0.48286 0.9606 0.11866 0.0
C1747 C 0.49019 0.96657 0.10466 0.0
H1748 H 0.06174 0.56172 0.17992 0.0
H1749 H 0.03 0.48258 0.17548 0.0
H1750 H 0.05308 0.56053 0.15358 0.0
H1751 H 0.02251 0.48155 0.14891 0.0
H1752 H 0.98792 0.4876 0.10451 0.0
H1753 H 0.99679 0.48694 0.13076 0.0
H1754 H 0.06656 0.55393 0.13082 0.0
H1755 H 0.0574 0.55477 0.10468 0.0
C1756 C 0.05285 0.54403 0.17333 0.0
C1757 C 0.04644 0.52222 0.17986 0.0
C1758 C 0.04823 0.54339 0.15817 0.0
C1759 C 0.03723 0.52096 0.14909 0.0
C1760 C 0.03082 0.49912 0.15559 0.0
C1761 C 0.03537 0.49974 0.17081 0.0
C1762 C 0.00525 0.50201 0.11013 0.0
C1763 C 0.02189 0.52133 0.10259 0.0
C1764 C 0.01037 0.50163 0.12516 0.0
C1765 C 0.03231 0.52049 0.13294 0.0
C1766 C 0.04925 0.5394 0.12525 0.0
C1767 C 0.04405 0.53987 0.11027 0.0
H1768 H 0.49483 0.56129 0.17415 0.0
H1769 H 0.44604 0.48236 0.16887 0.0
H1770 H 0.50411 0.55979 0.14892 0.0
H1771 H 0.45426 0.48105 0.14319 0.0
H1772 H 0.49776 0.48582 0.10334 0.0
H1773 H 0.48591 0.48532 0.1283 0.0
H1774 H 0.48689 0.55395 0.12432 0.0
H1775 H 0.49935 0.55467 0.09959 0.0
C1776 C 0.48606 0.54356 0.16761 0.0
C1777 C 0.46984 0.52191 0.17364 0.0
C1778 C 0.49109 0.54276 0.15301 0.0
C1779 C 0.47985 0.52032 0.14393 0.0
C1780 C 0.46344 0.49863 0.14989 0.0
C1781 C 0.4585 0.49942 0.16457 0.0
C1782 C 0.49522 0.50066 0.10779 0.0
C1783 C 0.4997 0.5204 0.09959 0.0
C1784 C 0.48835 0.50036 0.12208 0.0
C1785 C 0.48563 0.51971 0.12841 0.0
C1786 C 0.48937 0.53903 0.11996 0.0
C1787 C 0.49645 0.53944 0.10577 0.0
H1788 H 0.99955 0.49651 0.82154 0.0
H1789 H 0.93036 0.48981 0.83066 0.0
H1790 H 0.01026 0.49788 0.84776 0.0
H1791 H 0.94068 0.49052 0.85686 0.0
H1792 H 0.97302 0.50896 0.90449 0.0
H1793 H 0.96651 0.51429 0.87876 0.0
H1794 H 0.9979 0.46954 0.86586 0.0
H1795 H 0.00568 0.46543 0.89154 0.0
C1796 C 0.98666 0.49537 0.82919 0.0
C1797 C 0.96408 0.49291 0.82408 0.0
C1798 C 0.99273 0.49605 0.8442 0.0
C1799 C 0.97623 0.49404 0.85443 0.0
C1800 C 0.95396 0.49241 0.84933 0.0
C1801 C 0.948 0.49195 0.83432 0.0
C1802 C 0.9789 0.50061 0.89618 0.0
C1803 C 0.98978 0.48667 0.90009 0.0
C1804 C 0.97491 0.50343 0.8814 0.0
C1805 C 0.98162 0.4923 0.87021 0.0
C1806 C 0.99279 0.47865 0.87417 0.0
C1807 C 0.9969 0.47596 0.88892 0.0
H1808 H 0.49267 0.48542 0.82145 0.0
H1809 H 0.5592 0.48624 0.83646 0.0
H1810 H 0.48329 0.48677 0.8469 0.0
H1811 H 0.54998 0.48793 0.86192 0.0
H1812 H 0.50579 0.45562 0.90163 0.0
H1813 H 0.51794 0.45824 0.87666 0.0
H1814 H 0.49882 0.51442 0.8707 0.0
H1815 H 0.48638 0.51158 0.89566 0.0
C1816 C 0.50535 0.48605 0.8302 0.0
C1817 C 0.52662 0.48564 0.82697 0.0
C1818 C 0.50009 0.48703 0.84477 0.0
C1819 C 0.51586 0.48736 0.85639 0.0
C1820 C 0.53738 0.48747 0.85318 0.0
C1821 C 0.54277 0.48673 0.83862 0.0
C1822 C 0.50416 0.4685 0.89497 0.0
C1823 C 0.49505 0.48332 0.90056 0.0
C1824 C 0.51133 0.47017 0.88074 0.0
C1825 C 0.50934 0.48655 0.87174 0.0
C1826 C 0.50041 0.50152 0.87736 0.0
C1827 C 0.49347 0.50003 0.89167 0.0
H1828 H 0.5602 0.07857 0.84408 0.0
H1829 H 0.50196 0.00786 0.82394 0.0
H1830 H 0.54954 0.06529 0.86843 0.0
H1831 H 0.49175 0.99415 0.8482 0.0
H1832 H 0.45974 0.98909 0.89179 0.0
H1833 H 0.4728 0.00137 0.86781 0.0
H1834 H 0.5486 0.03906 0.88639 0.0
H1835 H 0.5354 0.0281 0.91066 0.0
C1836 C 0.54543 0.06002 0.8449 0.0
C1837 C 0.53176 0.04431 0.83216 0.0
C1838 C 0.53933 0.05235 0.85884 0.0
C1839 C 0.5196 0.0287 0.86032 0.0
C1840 C 0.50665 0.01269 0.84751 0.0
C1841 C 0.51256 0.02046 0.8336 0.0
C1842 C 0.47919 0.00026 0.89083 0.0
C1843 C 0.49647 0.00772 0.90322 0.0
C1844 C 0.48673 0.00698 0.87699 0.0
C1845 C 0.5118 0.02113 0.87509 0.0
C1846 C 0.52914 0.02837 0.88744 0.0
C1847 C 0.52156 0.0218 0.90135 0.0
H1848 H 0.16416 0.27328 0.50342 0.0
H1849 H 0.114 0.30122 0.50286 0.0
H1850 H 0.17367 0.28504 0.47887 0.0
H1851 H 0.12246 0.31172 0.4778 0.0
H1852 H 0.16599 0.35285 0.43995 0.0
H1853 H 0.15404 0.34043 0.46429 0.0
H1854 H 0.15694 0.27399 0.45394 0.0
H1855 H 0.16952 0.28683 0.42984 0.0
C1856 C 0.15514 0.28197 0.49807 0.0
C1857 C 0.13847 0.2865 0.50522 0.0
C1858 C 0.16031 0.28836 0.48385 0.0
C1859 C 0.14876 0.29924 0.47627 0.0
C1860 C 0.13189 0.3036 0.48335 0.0
C1861 C 0.12682 0.29731 0.49766 0.0
C1862 C 0.16386 0.33551 0.44288 0.0
C1863 C 0.16889 0.32091 0.43307 0.0
C1864 C 0.15693 0.32832 0.4568 0.0
C1865 C 0.1547 0.30628 0.46116 0.0
C1866 C 0.15903 0.29136 0.45112 0.0
C1867 C 0.16617 0.29866 0.43728 0.0
H1868 H 0.66975 0.84487 0.51441 0.0
H1869 H 0.73877 0.85052 0.50598 0.0
H1870 H 0.65931 0.84273 0.48807 0.0
H1871 H 0.72874 0.84908 0.47965 0.0
H1872 H 0.69645 0.82866 0.43194 0.0
H1873 H 0.70307 0.82467 0.45791 0.0
H1874 H 0.67168 0.86999 0.46945 0.0
H1875 H 0.66375 0.87271 0.44356 0.0
C1876 C 0.68267 0.84565 0.50689 0.0
C1877 C 0.70511 0.84799 0.51222 0.0
C1878 C 0.67677 0.84453 0.49181 0.0
C1879 C 0.69329 0.84599 0.48172 0.0
C1880 C 0.71544 0.8476 0.48706 0.0
C1881 C 0.72124 0.84848 0.50215 0.0
C1882 C 0.6906 0.83743 0.44002 0.0
C1883 C 0.67966 0.8511 0.43564 0.0
C1884 C 0.69467 0.83539 0.45492 0.0
C1885 C 0.68797 0.84705 0.46581 0.0
C1886 C 0.67678 0.86047 0.4614 0.0
C1887 C 0.67259 0.86237 0.44652 0.0
H1888 H 0.10922 0.84478 0.50089 0.0
H1889 H 0.17667 0.84719 0.5156 0.0
H1890 H 0.11843 0.84372 0.4754 0.0
H1891 H 0.18606 0.8465 0.4901 0.0
H1892 H 0.18318 0.82275 0.44111 0.0
H1893 H 0.17101 0.81927 0.46615 0.0
H1894 H 0.14991 0.87416 0.46076 0.0
H1895 H 0.16176 0.8774 0.43573 0.0
C1896 C 0.12586 0.84476 0.49866 0.0
C1897 C 0.14226 0.84611 0.51024 0.0
C1898 C 0.13123 0.8444 0.48408 0.0
C1899 C 0.15302 0.84517 0.48077 0.0
C1900 C 0.16906 0.84574 0.49231 0.0
C1901 C 0.16379 0.84633 0.50691 0.0
C1902 C 0.17573 0.83388 0.44525 0.0
C1903 C 0.17348 0.8504 0.4365 0.0
C1904 C 0.16894 0.83202 0.4596 0.0
C1905 C 0.15951 0.84643 0.4654 0.0
C1906 C 0.1569 0.86265 0.45655 0.0
C1907 C 0.16391 0.86468 0.44227 0.0
H1908 H 0.66152 0.82228 0.1559 0.0
H1909 H 0.5924 0.81775 0.1627 0.0
H1910 H 0.67012 0.82341 0.18241 0.0
H1911 H 0.60113 0.81915 0.18926 0.0
H1912 H 0.61225 0.78653 0.23158 0.0
H1913 H 0.60428 0.78977 0.20559 0.0
H1914 H 0.67846 0.85029 0.20606 0.0
H1915 H 0.68651 0.84688 0.23204 0.0
C1916 C 0.64826 0.8217 0.16309 0.0
C1917 C 0.62626 0.81984 0.15726 0.0
C1918 C 0.65326 0.82254 0.17825 0.0
C1919 C 0.63625 0.82129 0.18787 0.0
C1920 C 0.61447 0.81994 0.18207 0.0
C1921 C 0.60958 0.81936 0.16691 0.0
C1922 C 0.62682 0.80053 0.22612 0.0
C1923 C 0.65002 0.8164 0.23379 0.0
C1924 C 0.6222 0.80254 0.2113 0.0
C1925 C 0.64076 0.82028 0.20382 0.0
C1926 C 0.66387 0.83635 0.21154 0.0
C1927 C 0.66842 0.83452 0.22641 0.0
H1928 H 0.22951 0.81526 0.1725 0.0
H1929 H 0.16194 0.81246 0.15764 0.0
H1930 H 0.22076 0.81759 0.19805 0.0
H1931 H 0.15305 0.8145 0.18314 0.0
H1932 H 0.15613 0.84056 0.23143 0.0
H1933 H 0.16863 0.84301 0.20651 0.0
H1934 H 0.18934 0.78819 0.21334 0.0
H1935 H 0.17713 0.78596 0.23829 0.0
C1936 C 0.21295 0.81543 0.17471 0.0
C1937 C 0.19636 0.81359 0.16309 0.0
C1938 C 0.20784 0.81655 0.18931 0.0
C1939 C 0.18618 0.81613 0.19258 0.0
C1940 C 0.16997 0.81503 0.18097 0.0
C1941 C 0.17495 0.81366 0.16638 0.0
C1942 C 0.1636 0.82924 0.22765 0.0
C1943 C 0.16558 0.813 0.23677 0.0
C1944 C 0.17058 0.83052 0.21336 0.0
C1945 C 0.17993 0.81577 0.20798 0.0
C1946 C 0.1824 0.79993 0.21723 0.0
C1947 C 0.17519 0.79847 0.23145 0.0
H1948 H 0.20108 0.35787 0.16345 0.0
H1949 H 0.21277 0.42901 0.18017 0.0
H1950 H 0.18971 0.34284 0.18743 0.0
H1951 H 0.20125 0.41394 0.2041 0.0
H1952 H 0.20043 0.3832 0.24871 0.0
H1953 H 0.21556 0.39863 0.22545 0.0
H1954 H 0.1535 0.33422 0.20164 0.0
H1955 H 0.13786 0.31909 0.22479 0.0
C1956 C 0.20154 0.37038 0.17232 0.0
C1957 C 0.20773 0.39458 0.16996 0.0
C1958 C 0.19484 0.36172 0.18598 0.0
C1959 C 0.19449 0.3772 0.19759 0.0
C1960 C 0.2015 0.40166 0.19538 0.0
C1961 C 0.20792 0.41022 0.18167 0.0
C1962 C 0.18983 0.37242 0.23853 0.0
C1963 C 0.16784 0.34989 0.23868 0.0
C1964 C 0.19861 0.38122 0.22522 0.0
C1965 C 0.18576 0.36757 0.21175 0.0
C1966 C 0.16399 0.34494 0.21186 0.0
C1967 C 0.15507 0.33627 0.22515 0.0
H1968 H 0.79021 0.57339 0.82507 0.0
H1969 H 0.80274 0.64514 0.84099 0.0
H1970 H 0.80025 0.58707 0.8008 0.0
H1971 H 0.81368 0.65928 0.81684 0.0
H1972 H 0.81419 0.67189 0.76836 0.0
H1973 H 0.79976 0.65651 0.79177 0.0
H1974 H 0.83499 0.6127 0.78902 0.0
H1975 H 0.84864 0.62752 0.76546 0.0
C1976 C 0.79518 0.59214 0.82335 0.0
C1977 C 0.79582 0.60825 0.83491 0.0
C1978 C 0.80108 0.60006 0.80946 0.0
C1979 C 0.8081 0.6244 0.80685 0.0
C1980 C 0.80811 0.64033 0.81836 0.0
C1981 C 0.8019 0.63228 0.83222 0.0
C1982 C 0.8188 0.65896 0.7728 0.0
C1983 C 0.8325 0.65086 0.76509 0.0
C1984 C 0.81061 0.6502 0.78624 0.0
C1985 C 0.81615 0.63331 0.79233 0.0
C1986 C 0.82989 0.62526 0.78456 0.0
C1987 C 0.83783 0.63382 0.77107 0.0
H1988 H 0.39013 0.22222 0.84713 0.0
H1989 H 0.35633 0.14286 0.84267 0.0
H1990 H 0.38287 0.22139 0.82071 0.0
H1991 H 0.35009 0.14213 0.81599 0.0
H1992 H 0.3179 0.15059 0.77114 0.0
H1993 H 0.32563 0.14897 0.79741 0.0
H1994 H 0.39717 0.21403 0.79832 0.0
H1995 H 0.38922 0.21582 0.77218 0.0
C1996 C 0.38108 0.20456 0.84051 0.0
C1997 C 0.37366 0.18259 0.84705 0.0
C1998 C 0.37725 0.20412 0.8253 0.0
C1999 C 0.36604 0.18171 0.8162 0.0
C2000 C 0.35862 0.15969 0.8227 0.0
C2001 C 0.36241 0.16013 0.83797 0.0
C2002 C 0.33538 0.16434 0.77694 0.0
C2003 C 0.35287 0.18346 0.76966 0.0
C2004 C 0.33983 0.1634 0.79198 0.0
C2005 C 0.36192 0.18152 0.80001 0.0
C2006 C 0.37973 0.20011 0.79255 0.0
C2007 C 0.37523 0.20112 0.77757 0.0
H2008 H 0.83793 0.18269 0.84772 0.0
H2009 H 0.77321 0.1853 0.83284 0.0
H2010 H 0.84757 0.18173 0.8223 0.0
H2011 H 0.78272 0.1841 0.80739 0.0
H2012 H 0.82852 0.21619 0.76804 0.0
H2013 H 0.81597 0.2135 0.79293 0.0
H2014 H 0.83119 0.1545 0.79826 0.0
H2015 H 0.84395 0.15734 0.77338 0.0
C2016 C 0.82571 0.18292 0.839 0.0
C2017 C 0.80486 0.18415 0.84226 0.0
C2018 C 0.83111 0.18218 0.82444 0.0
C2019 C 0.81593 0.18292 0.81286 0.0
C2020 C 0.79486 0.18372 0.8161 0.0
C2021 C 0.7893 0.18419 0.83065 0.0
C2022 C 0.82919 0.20266 0.77454 0.0
C2023 C 0.83729 0.18704 0.7688 0.0
C2024 C 0.8218 0.20097 0.78873 0.0
C2025 C 0.8226 0.18378 0.79753 0.0
C2026 C 0.83053 0.16802 0.79175 0.0
C2027 C 0.83766 0.16953 0.77749 0.0
H2028 H 0.26746 0.15841 0.49415 0.0
H2029 H 0.33126 0.152 0.48756 0.0
H2030 H 0.2758 0.16017 0.52073 0.0
H2031 H 0.33932 0.15326 0.51414 0.0
H2032 H 0.35812 0.17818 0.56357 0.0
H2033 H 0.35138 0.18135 0.53739 0.0
H2034 H 0.27396 0.13015 0.53779 0.0
H2035 H 0.28062 0.12733 0.56398 0.0
C2036 C 0.28342 0.15766 0.4984 0.0
C2037 C 0.29869 0.15502 0.48878 0.0
C2038 C 0.28805 0.15843 0.51359 0.0
C2039 C 0.30814 0.15674 0.5195 0.0
C2040 C 0.3238 0.15478 0.50991 0.0
C2041 C 0.31907 0.15383 0.4947 0.0
C2042 C 0.33963 0.16787 0.55809 0.0
C2043 C 0.3199 0.15246 0.5658 0.0
C2044 C 0.33582 0.16951 0.54309 0.0
C2045 C 0.31216 0.15596 0.53555 0.0
C2046 C 0.29236 0.14098 0.54334 0.0
C2047 C 0.29621 0.13918 0.55829 0.0
H2048 H 0.84009 0.10315 0.4973 0.0
H2049 H 0.88718 0.18233 0.50146 0.0
H2050 H 0.83076 0.10536 0.52246 0.0
H2051 H 0.879 0.1844 0.52708 0.0
H2052 H 0.83497 0.18042 0.56639 0.0
H2053 H 0.84712 0.18006 0.54159 0.0
H2054 H 0.84759 0.11252 0.5472 0.0
H2055 H 0.83474 0.11261 0.57178 0.0
C2056 C 0.8485 0.12107 0.50358 0.0
C2057 C 0.8642 0.14259 0.49725 0.0
C2058 C 0.84345 0.1223 0.51814 0.0
C2059 C 0.85418 0.14505 0.52688 0.0
C2060 C 0.87019 0.16658 0.52064 0.0
C2061 C 0.87512 0.16537 0.50599 0.0
C2062 C 0.83789 0.16564 0.56233 0.0
C2063 C 0.83371 0.14643 0.57095 0.0
C2064 C 0.84494 0.16546 0.54814 0.0
C2065 C 0.84818 0.14616 0.54231 0.0
C2066 C 0.84472 0.12737 0.55117 0.0
C2067 C 0.83743 0.12744 0.56528 0.0
H2068 H 0.90011 0.7407 0.50929 0.0
H2069 H 0.83047 0.67863 0.49091 0.0
H2070 H 0.89082 0.72797 0.53393 0.0
H2071 H 0.82096 0.66622 0.51552 0.0
H2072 H 0.81994 0.63934 0.56066 0.0
H2073 H 0.83347 0.65034 0.53638 0.0
H2074 H 0.86134 0.72712 0.55089 0.0
H2075 H 0.84832 0.71618 0.57524 0.0
C2076 C 0.88297 0.72417 0.5105 0.0
C2077 C 0.86597 0.71073 0.49818 0.0
C2078 C 0.87755 0.71703 0.52461 0.0
C2079 C 0.8551 0.69618 0.52667 0.0
C2080 C 0.83848 0.68226 0.51429 0.0
C2081 C 0.84383 0.68949 0.50021 0.0
C2082 C 0.82924 0.65859 0.55871 0.0
C2083 C 0.83297 0.67689 0.56984 0.0
C2084 C 0.83681 0.66486 0.54478 0.0
C2085 C 0.84842 0.68959 0.54171 0.0
C2086 C 0.85265 0.70793 0.55295 0.0
C2087 C 0.84495 0.70165 0.56684 0.0
loop_
_geom_bond_atom_site_label_1
_geom_bond_atom_site_label_2
_geom_bond_distance
_geom_bond_site_symmetry_2
_ccdc_geom_bond_type
C0 C1 1.384 . S
C0 H13 0.947 . S
C0 C35 1.382 . S
C1 C0 1.384 . S
C1 C2 1.378 . S
C2 C1 1.378 . S
C2 C3 1.378 . S
C2 H14 0.952 . S
C3 C2 1.378 . S
C3 H15 0.950 . S
C3 C34 1.383 . S
H4 C23 0.947 . S
H5 C24 0.946 . S
H6 C26 0.953 . S
H7 C27 0.945 . S
H8 C29 0.952 . S
H9 C30 0.949 . S
H10 C32 0.950 . S
H11 C33 0.948 . S
H12 C35 0.951 . S
H13 C0 0.947 . S
H14 C2 0.952 . S
H15 C3 0.950 . S
N16 C19 1.382 . S
N16 C21 1.363 . S
N17 C19 1.371 . S
N17 C20 1.372 . S
N18 C20 1.361 . S
N18 C21 1.377 . S
C19 N16 1.382 . S
C19 N17 1.371 . S
C19 C22 1.480 . S
C20 N17 1.372 . S
C20 N18 1.361 . S
C20 C28 1.457 . S
C21 N16 1.363 . S
C21 N18 1.377 . S
C21 C34 1.479 . S
C22 C19 1.480 . S
C22 C23 1.383 . S
C22 C27 1.385 . S
C23 H4 0.947 . S
C23 C22 1.383 . S
C23 C24 1.388 . S
C24 H5 0.946 . S
C24 C23 1.388 . S
C24 C25 1.384 . S
C25 C24 1.384 . S
C25 C26 1.377 . S
C26 H6 0.953 . S
C26 C25 1.377 . S
C26 C27 1.369 . S
C27 H7 0.945 . S
C27 C22 1.385 . S
C27 C26 1.369 . S
C28 C20 1.457 . S
C28 C29 1.372 . S
C28 C33 1.364 . S
C29 H8 0.952 . S
C29 C28 1.372 . S
C29 C30 1.389 . S
C30 H9 0.949 . S
C30 C29 1.389 . S
C30 C31 1.387 . S
C31 C30 1.387 . S
C31 C32 1.372 . S
C32 H10 0.950 . S
C32 C31 1.372 . S
C32 C33 1.379 . S
C33 H11 0.948 . S
C33 C28 1.364 . S
C33 C32 1.379 . S
C34 C3 1.383 . S
C34 C21 1.479 . S
C34 C35 1.398 . S
C35 C0 1.382 . S
C35 H12 0.951 . S
C35 C34 1.398 . S
C36 C37 1.384 . S
C36 H49 0.947 . S
C36 C71 1.382 . S
C37 C36 1.384 . S
C37 C38 1.378 . S
C38 C37 1.378 . S
C38 C39 1.378 . S
C38 H50 0.952 . S
C39 C38 1.378 . S
C39 H51 0.950 . S
C39 C70 1.383 . S
H40 C59 0.947 . S
H41 C60 0.946 . S
H42 C62 0.953 . S
H43 C63 0.945 . S
H44 C65 0.952 . S
H45 C66 0.949 . S
H46 C68 0.950 . S
H47 C69 0.948 . S
H48 C71 0.951 . S
H49 C36 0.947 . S
H50 C38 0.952 . S
H51 C39 0.950 . S
N52 C55 1.382 . S
N52 C57 1.363 . S
N53 C55 1.371 . S
N53 C56 1.372 . S
N54 C56 1.361 . S
N54 C57 1.377 . S
C55 N52 1.382 . S
C55 N53 1.371 . S
C55 C58 1.480 . S
C56 N53 1.372 . S
C56 N54 1.361 . S
C56 C64 1.457 . S
C57 N52 1.363 . S
C57 N54 1.377 . S
C57 C70 1.479 . S
C58 C55 1.480 . S
C58 C59 1.383 . S
C58 C63 1.385 . S
C59 H40 0.947 . S
C59 C58 1.383 . S
C59 C60 1.388 . S
C60 H41 0.946 . S
C60 C59 1.388 . S
C60 C61 1.384 . S
C61 C60 1.384 . S
C61 C62 1.377 . S
C62 H42 0.953 . S
C62 C61 1.377 . S
C62 C63 1.369 . S
C63 H43 0.945 . S
C63 C58 1.385 . S
C63 C62 1.369 . S
C64 C56 1.457 . S
C64 C65 1.372 . S
C64 C69 1.364 . S
C65 H44 0.952 . S
C65 C64 1.372 . S
C65 C66 1.389 . S
C66 H45 0.949 . S
C66 C65 1.389 . S
C66 C67 1.387 . S
C67 C66 1.387 . S
C67 C68 1.372 . S
C68 H46 0.950 . S
C68 C67 1.372 . S
C68 C69 1.379 . S
C69 H47 0.948 . S
C69 C64 1.364 . S
C69 C68 1.379 . S
C70 C39 1.383 . S
C70 C57 1.479 . S
C70 C71 1.398 . S
C71 C36 1.382 . S
C71 H48 0.951 . S
C71 C70 1.398 . S
C72 C73 1.384 . S
C72 H85 0.947 . S
C72 C107 1.382 . S
C73 C72 1.384 . S
C73 C74 1.378 . S
C74 C73 1.378 . S
C74 C75 1.378 . S
C74 H86 0.952 . S
C75 C74 1.378 . S
C75 H87 0.950 . S
C75 C106 1.383 . S
H76 C95 0.947 . S
H77 C96 0.946 . S
H78 C98 0.953 . S
H79 C99 0.945 . S
H80 C101 0.952 . S
H81 C102 0.949 . S
H82 C104 0.950 . S
H83 C105 0.948 . S
H84 C107 0.951 . S
H85 C72 0.947 . S
H86 C74 0.952 . S
H87 C75 0.950 . S
N88 C91 1.382 . S
N88 C93 1.363 . S
N89 C91 1.371 . S
N89 C92 1.372 . S
N90 C92 1.361 . S
N90 C93 1.377 . S
C91 N88 1.382 . S
C91 N89 1.371 . S
C91 C94 1.480 . S
C92 N89 1.372 . S
C92 N90 1.361 . S
C92 C100 1.457 . S
C93 N88 1.363 . S
C93 N90 1.377 . S
C93 C106 1.479 . S
C94 C91 1.480 . S
C94 C95 1.383 . S
C94 C99 1.385 . S
C95 H76 0.947 . S
C95 C94 1.383 . S
C95 C96 1.388 . S
C96 H77 0.946 . S
C96 C95 1.388 . S
C96 C97 1.384 . S
C97 C96 1.384 . S
C97 C98 1.377 . S
C98 H78 0.953 . S
C98 C97 1.377 . S
C98 C99 1.369 . S
C99 H79 0.945 . S
C99 C94 1.385 . S
C99 C98 1.369 . S
C100 C92 1.457 . S
C100 C101 1.372 . S
C100 C105 1.364 . S
C101 H80 0.952 . S
C101 C100 1.372 . S
C101 C102 1.389 . S
C102 H81 0.949 . S
C102 C101 1.389 . S
C102 C103 1.387 . S
C103 C102 1.387 . S
C103 C104 1.372 . S
C104 H82 0.950 . S
C104 C103 1.372 . S
C104 C105 1.379 . S
C105 H83 0.948 . S
C105 C100 1.364 . S
C105 C104 1.379 . S
C106 C75 1.383 . S
C106 C93 1.479 . S
C106 C107 1.398 . S
C107 C72 1.382 . S
C107 H84 0.951 . S
C107 C106 1.398 . S
C108 C109 1.384 . S
C108 H121 0.947 . S
C108 C143 1.382 . S
C109 C108 1.384 . S
C109 C110 1.378 . S
C110 C109 1.378 . S
C110 C111 1.378 . S
C110 H122 0.952 . S
C111 C110 1.378 . S
C111 H123 0.950 . S
C111 C142 1.383 . S
H112 C131 0.947 . S
H113 C132 0.946 . S
H114 C134 0.953 . S
H115 C135 0.945 . S
H116 C137 0.952 . S
H117 C138 0.949 . S
H118 C140 0.950 . S
H119 C141 0.948 . S
H120 C143 0.951 . S
H121 C108 0.947 . S
H122 C110 0.952 . S
H123 C111 0.950 . S
N124 C127 1.382 . S
N124 C129 1.363 . S
N125 C127 1.371 . S
N125 C128 1.372 . S
N126 C128 1.361 . S
N126 C129 1.377 . S
C127 N124 1.382 . S
C127 N125 1.371 . S
C127 C130 1.480 . S
C128 N125 1.372 . S
C128 N126 1.361 . S
C128 C136 1.457 . S
C129 N124 1.363 . S
C129 N126 1.377 . S
C129 C142 1.479 . S
C130 C127 1.480 . S
C130 C131 1.383 . S
C130 C135 1.385 . S
C131 H112 0.947 . S
C131 C130 1.383 . S
C131 C132 1.388 . S
C132 H113 0.946 . S
C132 C131 1.388 . S
C132 C133 1.384 . S
C133 C132 1.384 . S
C133 C134 1.377 . S
C134 H114 0.953 . S
C134 C133 1.377 . S
C134 C135 1.369 . S
C135 H115 0.945 . S
C135 C130 1.385 . S
C135 C134 1.369 . S
C136 C128 1.457 . S
C136 C137 1.372 . S
C136 C141 1.364 . S
C137 H116 0.952 . S
C137 C136 1.372 . S
C137 C138 1.389 . S
C138 H117 0.949 . S
C138 C137 1.389 . S
C138 C139 1.387 . S
C139 C138 1.387 . S
C139 C140 1.372 . S
C140 H118 0.950 . S
C140 C139 1.372 . S
C140 C141 1.379 . S
C141 H119 0.948 . S
C141 C136 1.364 . S
C141 C140 1.379 . S
C142 C111 1.383 . S
C142 C129 1.479 . S
C142 C143 1.398 . S
C143 C108 1.382 . S
C143 H120 0.951 . S
C143 C142 1.398 . S
C144 C145 1.384 . S
C144 H157 0.947 . S
C144 C179 1.382 . S
C145 C144 1.384 . S
C145 C146 1.378 . S
C146 C145 1.378 . S
C146 C147 1.378 . S
C146 H158 0.952 . S
C147 C146 1.378 . S
C147 H159 0.950 . S
C147 C178 1.383 . S
H148 C167 0.947 . S
H149 C168 0.946 . S
H150 C170 0.953 . S
H151 C171 0.945 . S
H152 C173 0.952 . S
H153 C174 0.949 . S
H154 C176 0.950 . S
H155 C177 0.948 . S
H156 C179 0.951 . S
H157 C144 0.947 . S
H158 C146 0.952 . S
H159 C147 0.950 . S
N160 C163 1.382 . S
N160 C165 1.363 . S
N161 C163 1.371 . S
N161 C164 1.372 . S
N162 C164 1.361 . S
N162 C165 1.377 . S
C163 N160 1.382 . S
C163 N161 1.371 . S
C163 C166 1.480 . S
C164 N161 1.372 . S
C164 N162 1.361 . S
C164 C172 1.457 . S
C165 N160 1.363 . S
C165 N162 1.377 . S
C165 C178 1.479 . S
C166 C163 1.480 . S
C166 C167 1.383 . S
C166 C171 1.385 . S
C167 H148 0.947 . S
C167 C166 1.383 . S
C167 C168 1.388 . S
C168 H149 0.946 . S
C168 C167 1.388 . S
C168 C169 1.384 . S
C169 C168 1.384 . S
C169 C170 1.377 . S
C170 H150 0.953 . S
C170 C169 1.377 . S
C170 C171 1.369 . S
C171 H151 0.945 . S
C171 C166 1.385 . S
C171 C170 1.369 . S
C172 C164 1.457 . S
C172 C173 1.372 . S
C172 C177 1.364 . S
C173 H152 0.952 . S
C173 C172 1.372 . S
C173 C174 1.389 . S
C174 H153 0.949 . S
C174 C173 1.389 . S
C174 C175 1.387 . S
C175 C174 1.387 . S
C175 C176 1.372 . S
C176 H154 0.950 . S
C176 C175 1.372 . S
C176 C177 1.379 . S
C177 H155 0.948 . S
C177 C172 1.364 . S
C177 C176 1.379 . S
C178 C147 1.383 . S
C178 C165 1.479 . S
C178 C179 1.398 . S
C179 C144 1.382 . S
C179 H156 0.951 . S
C179 C178 1.398 . S
C180 C181 1.384 . S
C180 H193 0.947 . S
C180 C215 1.382 . S
C181 C180 1.384 . S
C181 C182 1.378 . S
C182 C181 1.378 . S
C182 C183 1.378 . S
C182 H194 0.952 . S
C183 C182 1.378 . S
C183 H195 0.950 . S
C183 C214 1.383 . S
H184 C203 0.947 . S
H185 C204 0.946 . S
H186 C206 0.953 . S
H187 C207 0.945 . S
H188 C209 0.952 . S
H189 C210 0.949 . S
H190 C212 0.950 . S
H191 C213 0.948 . S
H192 C215 0.951 . S
H193 C180 0.947 . S
H194 C182 0.952 . S
H195 C183 0.950 . S
N196 C199 1.382 . S
N196 C201 1.363 . S
N197 C199 1.371 . S
N197 C200 1.372 . S
N198 C200 1.361 . S
N198 C201 1.377 . S
C199 N196 1.382 . S
C199 N197 1.371 . S
C199 C202 1.480 . S
C200 N197 1.372 . S
C200 N198 1.361 . S
C200 C208 1.457 . S
C201 N196 1.363 . S
C201 N198 1.377 . S
C201 C214 1.479 . S
C202 C199 1.480 . S
C202 C203 1.383 . S
C202 C207 1.385 . S
C203 H184 0.947 . S
C203 C202 1.383 . S
C203 C204 1.388 . S
C204 H185 0.946 . S
C204 C203 1.388 . S
C204 C205 1.384 . S
C205 C204 1.384 . S
C205 C206 1.377 . S
C206 H186 0.953 . S
C206 C205 1.377 . S
C206 C207 1.369 . S
C207 H187 0.945 . S
C207 C202 1.385 . S
C207 C206 1.369 . S
C208 C200 1.457 . S
C208 C209 1.372 . S
C208 C213 1.364 . S
C209 H188 0.952 . S
C209 C208 1.372 . S
C209 C210 1.389 . S
C210 H189 0.949 . S
C210 C209 1.389 . S
C210 C211 1.387 . S
C211 C210 1.387 . S
C211 C212 1.372 . S
C212 H190 0.950 . S
C212 C211 1.372 . S
C212 C213 1.379 . S
C213 H191 0.948 . S
C213 C208 1.364 . S
C213 C212 1.379 . S
C214 C183 1.383 . S
C214 C201 1.479 . S
C214 C215 1.398 . S
C215 C180 1.382 . S
C215 H192 0.951 . S
C215 C214 1.398 . S
C216 C217 1.384 . S
C216 H229 0.947 . S
C216 C251 1.382 . S
C217 C216 1.384 . S
C217 C218 1.378 . S
C218 C217 1.378 . S
C218 C219 1.378 . S
C218 H230 0.952 . S
C219 C218 1.378 . S
C219 H231 0.950 . S
C219 C250 1.383 . S
H220 C239 0.947 . S
H221 C240 0.946 . S
H222 C242 0.953 . S
H223 C243 0.945 . S
H224 C245 0.952 . S
H225 C246 0.949 . S
H226 C248 0.950 . S
H227 C249 0.948 . S
H228 C251 0.951 . S
H229 C216 0.947 . S
H230 C218 0.952 . S
H231 C219 0.950 . S
N232 C235 1.382 . S
N232 C237 1.363 . S
N233 C235 1.371 . S
N233 C236 1.372 . S
N234 C236 1.361 . S
N234 C237 1.377 . S
C235 N232 1.382 . S
C235 N233 1.371 . S
C235 C238 1.480 . S
C236 N233 1.372 . S
C236 N234 1.361 . S
C236 C244 1.457 . S
C237 N232 1.363 . S
C237 N234 1.377 . S
C237 C250 1.479 . S
C238 C235 1.480 . S
C238 C239 1.383 . S
C238 C243 1.385 . S
C239 H220 0.947 . S
C239 C238 1.383 . S
C239 C240 1.388 . S
C240 H221 0.946 . S
C240 C239 1.388 . S
C240 C241 1.384 . S
C241 C240 1.384 . S
C241 C242 1.377 . S
C242 H222 0.953 . S
C242 C241 1.377 . S
C242 C243 1.369 . S
C243 H223 0.945 . S
C243 C238 1.385 . S
C243 C242 1.369 . S
C244 C236 1.457 . S
C244 C245 1.372 . S
C244 C249 1.364 . S
C245 H224 0.952 . S
C245 C244 1.372 . S
C245 C246 1.389 . S
C246 H225 0.949 . S
C246 C245 1.389 . S
C246 C247 1.387 . S
C247 C246 1.387 . S
C247 C248 1.372 . S
C248 H226 0.950 . S
C248 C247 1.372 . S
C248 C249 1.379 . S
C249 H227 0.948 . S
C249 C244 1.364 . S
C249 C248 1.379 . S
C250 C219 1.383 . S
C250 C237 1.479 . S
C250 C251 1.398 . S
C251 C216 1.382 . S
C251 H228 0.951 . S
C251 C250 1.398 . S
C252 C253 1.384 . S
C252 H265 0.947 . S
C252 C287 1.382 . S
C253 C252 1.384 . S
C253 C254 1.378 . S
C254 C253 1.378 . S
C254 C255 1.378 . S
C254 H266 0.952 . S
C255 C254 1.378 . S
C255 H267 0.950 . S
C255 C286 1.383 . S
H256 C275 0.947 . S
H257 C276 0.946 . S
H258 C278 0.953 . S
H259 C279 0.945 . S
H260 C281 0.952 . S
H261 C282 0.949 . S
H262 C284 0.950 . S
H263 C285 0.948 . S
H264 C287 0.951 . S
H265 C252 0.947 . S
H266 C254 0.952 . S
H267 C255 0.950 . S
N268 C271 1.382 . S
N268 C273 1.363 . S
N269 C271 1.371 . S
N269 C272 1.372 . S
N270 C272 1.361 . S
N270 C273 1.377 . S
C271 N268 1.382 . S
C271 N269 1.371 . S
C271 C274 1.480 . S
C272 N269 1.372 . S
C272 N270 1.361 . S
C272 C280 1.457 . S
C273 N268 1.363 . S
C273 N270 1.377 . S
C273 C286 1.479 . S
C274 C271 1.480 . S
C274 C275 1.383 . S
C274 C279 1.385 . S
C275 H256 0.947 . S
C275 C274 1.383 . S
C275 C276 1.388 . S
C276 H257 0.946 . S
C276 C275 1.388 . S
C276 C277 1.384 . S
C277 C276 1.384 . S
C277 C278 1.377 . S
C278 H258 0.953 . S
C278 C277 1.377 . S
C278 C279 1.369 . S
C279 H259 0.945 . S
C279 C274 1.385 . S
C279 C278 1.369 . S
C280 C272 1.457 . S
C280 C281 1.372 . S
C280 C285 1.364 . S
C281 H260 0.952 . S
C281 C280 1.372 . S
C281 C282 1.389 . S
C282 H261 0.949 . S
C282 C281 1.389 . S
C282 C283 1.387 . S
C283 C282 1.387 . S
C283 C284 1.372 . S
C284 H262 0.950 . S
C284 C283 1.372 . S
C284 C285 1.379 . S
C285 H263 0.948 . S
C285 C280 1.364 . S
C285 C284 1.379 . S
C286 C255 1.383 . S
C286 C273 1.479 . S
C286 C287 1.398 . S
C287 C252 1.382 . S
C287 H264 0.951 . S
C287 C286 1.398 . S
C288 C289 1.384 . S
C288 H301 0.947 . S
C288 C323 1.382 . S
C289 C288 1.384 . S
C289 C290 1.378 . S
C290 C289 1.378 . S
C290 C291 1.378 . S
C290 H302 0.952 . S
C291 C290 1.378 . S
C291 H303 0.950 . S
C291 C322 1.383 . S
H292 C311 0.947 . S
H293 C312 0.946 . S
H294 C314 0.953 . S
H295 C315 0.945 . S
H296 C317 0.952 . S
H297 C318 0.949 . S
H298 C320 0.950 . S
H299 C321 0.948 . S
H300 C323 0.951 . S
H301 C288 0.947 . S
H302 C290 0.952 . S
H303 C291 0.950 . S
N304 C307 1.382 . S
N304 C309 1.363 . S
N305 C307 1.371 . S
N305 C308 1.372 . S
N306 C308 1.361 . S
N306 C309 1.377 . S
C307 N304 1.382 . S
C307 N305 1.371 . S
C307 C310 1.480 . S
C308 N305 1.372 . S
C308 N306 1.361 . S
C308 C316 1.457 . S
C309 N304 1.363 . S
C309 N306 1.377 . S
C309 C322 1.479 . S
C310 C307 1.480 . S
C310 C311 1.383 . S
C310 C315 1.385 . S
C311 H292 0.947 . S
C311 C310 1.383 . S
C311 C312 1.388 . S
C312 H293 0.946 . S
C312 C311 1.388 . S
C312 C313 1.384 . S
C313 C312 1.384 . S
C313 C314 1.377 . S
C314 H294 0.953 . S
C314 C313 1.377 . S
C314 C315 1.369 . S
C315 H295 0.945 . S
C315 C310 1.385 . S
C315 C314 1.369 . S
C316 C308 1.457 . S
C316 C317 1.372 . S
C316 C321 1.364 . S
C317 H296 0.952 . S
C317 C316 1.372 . S
C317 C318 1.389 . S
C318 H297 0.949 . S
C318 C317 1.389 . S
C318 C319 1.387 . S
C319 C318 1.387 . S
C319 C320 1.372 . S
C320 H298 0.950 . S
C320 C319 1.372 . S
C320 C321 1.379 . S
C321 H299 0.948 . S
C321 C316 1.364 . S
C321 C320 1.379 . S
C322 C291 1.383 . S
C322 C309 1.479 . S
C322 C323 1.398 . S
C323 C288 1.382 . S
C323 H300 0.951 . S
C323 C322 1.398 . S
C324 C325 1.384 . S
C324 H337 0.947 . S
C324 C359 1.382 . S
C325 C324 1.384 . S
C325 C326 1.378 . S
C326 C325 1.378 . S
C326 C327 1.378 . S
C326 H338 0.952 . S
C327 C326 1.378 . S
C327 H339 0.950 . S
C327 C358 1.383 . S
H328 C347 0.947 . S
H329 C348 0.946 . S
H330 C350 0.953 . S
H331 C351 0.945 . S
H332 C353 0.952 . S
H333 C354 0.949 . S
H334 C356 0.950 . S
H335 C357 0.948 . S
H336 C359 0.951 . S
H337 C324 0.947 . S
H338 C326 0.952 . S
H339 C327 0.950 . S
N340 C343 1.382 . S
N340 C345 1.363 . S
N341 C343 1.371 . S
N341 C344 1.372 . S
N342 C344 1.361 . S
N342 C345 1.377 . S
C343 N340 1.382 . S
C343 N341 1.371 . S
C343 C346 1.480 . S
C344 N341 1.372 . S
C344 N342 1.361 . S
C344 C352 1.457 . S
C345 N340 1.363 . S
C345 N342 1.377 . S
C345 C358 1.479 . S
C346 C343 1.480 . S
C346 C347 1.383 . S
C346 C351 1.385 . S
C347 H328 0.947 . S
C347 C346 1.383 . S
C347 C348 1.388 . S
C348 H329 0.946 . S
C348 C347 1.388 . S
C348 C349 1.384 . S
C349 C348 1.384 . S
C349 C350 1.377 . S
C350 H330 0.953 . S
C350 C349 1.377 . S
C350 C351 1.369 . S
C351 H331 0.945 . S
C351 C346 1.385 . S
C351 C350 1.369 . S
C352 C344 1.457 . S
C352 C353 1.372 . S
C352 C357 1.364 . S
C353 H332 0.952 . S
C353 C352 1.372 . S
C353 C354 1.389 . S
C354 H333 0.949 . S
C354 C353 1.389 . S
C354 C355 1.387 . S
C355 C354 1.387 . S
C355 C356 1.372 . S
C356 H334 0.950 . S
C356 C355 1.372 . S
C356 C357 1.379 . S
C357 H335 0.948 . S
C357 C352 1.364 . S
C357 C356 1.379 . S
C358 C327 1.383 . S
C358 C345 1.479 . S
C358 C359 1.398 . S
C359 C324 1.382 . S
C359 H336 0.951 . S
C359 C358 1.398 . S
C360 C361 1.384 . S
C360 H373 0.947 . S
C360 C395 1.382 . S
C361 C360 1.384 . S
C361 C362 1.378 . S
C362 C361 1.378 . S
C362 C363 1.378 . S
C362 H374 0.952 . S
C363 C362 1.378 . S
C363 H375 0.950 . S
C363 C394 1.383 . S
H364 C383 0.947 . S
H365 C384 0.946 . S
H366 C386 0.953 . S
H367 C387 0.945 . S
H368 C389 0.952 . S
H369 C390 0.949 . S
H370 C392 0.950 . S
H371 C393 0.948 . S
H372 C395 0.951 . S
H373 C360 0.947 . S
H374 C362 0.952 . S
H375 C363 0.950 . S
N376 C379 1.382 . S
N376 C381 1.363 . S
N377 C379 1.371 . S
N377 C380 1.372 . S
N378 C380 1.361 . S
N378 C381 1.377 . S
C379 N376 1.382 . S
C379 N377 1.371 . S
C379 C382 1.480 . S
C380 N377 1.372 . S
C380 N378 1.361 . S
C380 C388 1.457 . S
C381 N376 1.363 . S
C381 N378 1.377 . S
C381 C394 1.479 . S
C382 C379 1.480 . S
C382 C383 1.383 . S
C382 C387 1.385 . S
C383 H364 0.947 . S
C383 C382 1.383 . S
C383 C384 1.388 . S
C384 H365 0.946 . S
C384 C383 1.388 . S
C384 C385 1.384 . S
C385 C384 1.384 . S
C385 C386 1.377 . S
C386 H366 0.953 . S
C386 C385 1.377 . S
C386 C387 1.369 . S
C387 H367 0.945 . S
C387 C382 1.385 . S
C387 C386 1.369 . S
C388 C380 1.457 . S
C388 C389 1.372 . S
C388 C393 1.364 . S
C389 H368 0.952 . S
C389 C388 1.372 . S
C389 C390 1.389 . S
C390 H369 0.949 . S
C390 C389 1.389 . S
C390 C391 1.387 . S
C391 C390 1.387 . S
C391 C392 1.372 . S
C392 H370 0.950 . S
C392 C391 1.372 . S
C392 C393 1.379 . S
C393 H371 0.948 . S
C393 C388 1.364 . S
C393 C392 1.379 . S
C394 C363 1.383 . S
C394 C381 1.479 . S
C394 C395 1.398 . S
C395 C360 1.382 . S
C395 H372 0.951 . S
C395 C394 1.398 . S
C396 C397 1.384 . S
C396 H409 0.947 . S
C396 C431 1.382 . S
C397 C396 1.384 . S
C397 C398 1.378 . S
C398 C397 1.378 . S
C398 C399 1.378 . S
C398 H410 0.952 . S
C399 C398 1.378 . S
C399 H411 0.950 . S
C399 C430 1.383 . S
H400 C419 0.947 . S
H401 C420 0.946 . S
H402 C422 0.953 . S
H403 C423 0.945 . S
H404 C425 0.952 . S
H405 C426 0.949 . S
H406 C428 0.950 . S
H407 C429 0.948 . S
H408 C431 0.951 . S
H409 C396 0.947 . S
H410 C398 0.952 . S
H411 C399 0.950 . S
N412 C415 1.382 . S
N412 C417 1.363 . S
N413 C415 1.371 . S
N413 C416 1.372 . S
N414 C416 1.361 . S
N414 C417 1.377 . S
C415 N412 1.382 . S
C415 N413 1.371 . S
C415 C418 1.480 . S
C416 N413 1.372 . S
C416 N414 1.361 . S
C416 C424 1.457 . S
C417 N412 1.363 . S
C417 N414 1.377 . S
C417 C430 1.479 . S
C418 C415 1.480 . S
C418 C419 1.383 . S
C418 C423 1.385 . S
C419 H400 0.947 . S
C419 C418 1.383 . S
C419 C420 1.388 . S
C420 H401 0.946 . S
C420 C419 1.388 . S
C420 C421 1.384 . S
C421 C420 1.384 . S
C421 C422 1.377 . S
C422 H402 0.953 . S
C422 C421 1.377 . S
C422 C423 1.369 . S
C423 H403 0.945 . S
C423 C418 1.385 . S
C423 C422 1.369 . S
C424 C416 1.457 . S
C424 C425 1.372 . S
C424 C429 1.364 . S
C425 H404 0.952 . S
C425 C424 1.372 . S
C425 C426 1.389 . S
C426 H405 0.949 . S
C426 C425 1.389 . S
C426 C427 1.387 . S
C427 C426 1.387 . S
C427 C428 1.372 . S
C428 H406 0.950 . S
C428 C427 1.372 . S
C428 C429 1.379 . S
C429 H407 0.948 . S
C429 C424 1.364 . S
C429 C428 1.379 . S
C430 C399 1.383 . S
C430 C417 1.479 . S
C430 C431 1.398 . S
C431 C396 1.382 . S
C431 H408 0.951 . S
C431 C430 1.398 . S
C432 C433 1.384 . S
C432 H445 0.947 . S
C432 C467 1.382 . S
C433 C432 1.384 . S
C433 C434 1.378 . S
C434 C433 1.378 . S
C434 C435 1.378 . S
C434 H446 0.952 . S
C435 C434 1.378 . S
C435 H447 0.950 . S
C435 C466 1.383 . S
H436 C455 0.947 . S
H437 C456 0.946 . S
H438 C458 0.953 . S
H439 C459 0.945 . S
H440 C461 0.952 . S
H441 C462 0.949 . S
H442 C464 0.950 . S
H443 C465 0.948 . S
H444 C467 0.951 . S
H445 C432 0.947 . S
H446 C434 0.952 . S
H447 C435 0.950 . S
N448 C451 1.382 . S
N448 C453 1.363 . S
N449 C451 1.371 . S
N449 C452 1.372 . S
N450 C452 1.361 . S
N450 C453 1.377 . S
C451 N448 1.382 . S
C451 N449 1.371 . S
C451 C454 1.480 . S
C452 N449 1.372 . S
C452 N450 1.361 . S
C452 C460 1.457 . S
C453 N448 1.363 . S
C453 N450 1.377 . S
C453 C466 1.479 . S
C454 C451 1.480 . S
C454 C455 1.383 . S
C454 C459 1.385 . S
C455 H436 0.947 . S
C455 C454 1.383 . S
C455 C456 1.388 . S
C456 H437 0.946 . S
C456 C455 1.388 . S
C456 C457 1.384 . S
C457 C456 1.384 . S
C457 C458 1.377 . S
C458 H438 0.953 . S
C458 C457 1.377 . S
C458 C459 1.369 . S
C459 H439 0.945 . S
C459 C454 1.385 . S
C459 C458 1.369 . S
C460 C452 1.457 . S
C460 C461 1.372 . S
C460 C465 1.364 . S
C461 H440 0.952 . S
C461 C460 1.372 . S
C461 C462 1.389 . S
C462 H441 0.949 . S
C462 C461 1.389 . S
C462 C463 1.387 . S
C463 C462 1.387 . S
C463 C464 1.372 . S
C464 H442 0.950 . S
C464 C463 1.372 . S
C464 C465 1.379 . S
C465 H443 0.948 . S
C465 C460 1.364 . S
C465 C464 1.379 . S
C466 C435 1.383 . S
C466 C453 1.479 . S
C466 C467 1.398 . S
C467 C432 1.382 . S
C467 H444 0.951 . S
C467 C466 1.398 . S
C468 C469 1.384 . S
C468 H481 0.947 . S
C468 C503 1.382 . S
C469 C468 1.384 . S
C469 C470 1.378 . S
C470 C469 1.378 . S
C470 C471 1.378 . S
C470 H482 0.952 . S
C471 C470 1.378 . S
C471 H483 0.950 . S
C471 C502 1.383 . S
H472 C491 0.947 . S
H473 C492 0.946 . S
H474 C494 0.953 . S
H475 C495 0.945 . S
H476 C497 0.952 . S
H477 C498 0.949 . S
H478 C500 0.950 . S
H479 C501 0.948 . S
H480 C503 0.951 . S
H481 C468 0.947 . S
H482 C470 0.952 . S
H483 C471 0.950 . S
N484 C487 1.382 . S
N484 C489 1.363 . S
N485 C487 1.371 . S
N485 C488 1.372 . S
N486 C488 1.361 . S
N486 C489 1.377 . S
C487 N484 1.382 . S
C487 N485 1.371 . S
C487 C490 1.480 . S
C488 N485 1.372 . S
C488 N486 1.361 . S
C488 C496 1.457 . S
C489 N484 1.363 . S
C489 N486 1.377 . S
C489 C502 1.479 . S
C490 C487 1.480 . S
C490 C491 1.383 . S
C490 C495 1.385 . S
C491 H472 0.947 . S
C491 C490 1.383 . S
C491 C492 1.388 . S
C492 H473 0.946 . S
C492 C491 1.388 . S
C492 C493 1.384 . S
C493 C492 1.384 . S
C493 C494 1.377 . S
C494 H474 0.953 . S
C494 C493 1.377 . S
C494 C495 1.369 . S
C495 H475 0.945 . S
C495 C490 1.385 . S
C495 C494 1.369 . S
C496 C488 1.457 . S
C496 C497 1.372 . S
C496 C501 1.364 . S
C497 H476 0.952 . S
C497 C496 1.372 . S
C497 C498 1.389 . S
C498 H477 0.949 . S
C498 C497 1.389 . S
C498 C499 1.387 . S
C499 C498 1.387 . S
C499 C500 1.372 . S
C500 H478 0.950 . S
C500 C499 1.372 . S
C500 C501 1.379 . S
C501 H479 0.948 . S
C501 C496 1.364 . S
C501 C500 1.379 . S
C502 C471 1.383 . S
C502 C489 1.479 . S
C502 C503 1.398 . S
C503 C468 1.382 . S
C503 H480 0.951 . S
C503 C502 1.398 . S
C504 C505 1.384 . S
C504 H517 0.947 . S
C504 C539 1.382 . S
C505 C504 1.384 . S
C505 C506 1.378 . S
C506 C505 1.378 . S
C506 C507 1.378 . S
C506 H518 0.952 . S
C507 C506 1.378 . S
C507 H519 0.950 . S
C507 C538 1.383 . S
H508 C527 0.947 . S
H509 C528 0.946 . S
H510 C530 0.953 . S
H511 C531 0.945 . S
H512 C533 0.952 . S
H513 C534 0.949 . S
H514 C536 0.950 . S
H515 C537 0.948 . S
H516 C539 0.951 . S
H517 C504 0.947 . S
H518 C506 0.952 . S
H519 C507 0.950 . S
N520 C523 1.382 . S
N520 C525 1.363 . S
N521 C523 1.371 . S
N521 C524 1.372 . S
N522 C524 1.361 . S
N522 C525 1.377 . S
C523 N520 1.382 . S
C523 N521 1.371 . S
C523 C526 1.480 . S
C524 N521 1.372 . S
C524 N522 1.361 . S
C524 C532 1.457 . S
C525 N520 1.363 . S
C525 N522 1.377 . S
C525 C538 1.479 . S
C526 C523 1.480 . S
C526 C527 1.383 . S
C526 C531 1.385 . S
C527 H508 0.947 . S
C527 C526 1.383 . S
C527 C528 1.388 . S
C528 H509 0.946 . S
C528 C527 1.388 . S
C528 C529 1.384 . S
C529 C528 1.384 . S
C529 C530 1.377 . S
C530 H510 0.953 . S
C530 C529 1.377 . S
C530 C531 1.369 . S
C531 H511 0.945 . S
C531 C526 1.385 . S
C531 C530 1.369 . S
C532 C524 1.457 . S
C532 C533 1.372 . S
C532 C537 1.364 . S
C533 H512 0.952 . S
C533 C532 1.372 . S
C533 C534 1.389 . S
C534 H513 0.949 . S
C534 C533 1.389 . S
C534 C535 1.387 . S
C535 C534 1.387 . S
C535 C536 1.372 . S
C536 H514 0.950 . S
C536 C535 1.372 . S
C536 C537 1.379 . S
C537 H515 0.948 . S
C537 C532 1.364 . S
C537 C536 1.379 . S
C538 C507 1.383 . S
C538 C525 1.479 . S
C538 C539 1.398 . S
C539 C504 1.382 . S
C539 H516 0.951 . S
C539 C538 1.398 . S
C540 C541 1.384 . S
C540 H553 0.947 . S
C540 C575 1.382 . S
C541 C540 1.384 . S
C541 C542 1.378 . S
C542 C541 1.378 . S
C542 C543 1.378 . S
C542 H554 0.952 . S
C543 C542 1.378 . S
C543 H555 0.950 . S
C543 C574 1.383 . S
H544 C563 0.947 . S
H545 C564 0.946 . S
H546 C566 0.953 . S
H547 C567 0.945 . S
H548 C569 0.952 . S
H549 C570 0.949 . S
H550 C572 0.950 . S
H551 C573 0.948 . S
H552 C575 0.951 . S
H553 C540 0.947 . S
H554 C542 0.952 . S
H555 C543 0.950 . S
N556 C559 1.382 . S
N556 C561 1.363 . S
N557 C559 1.371 . S
N557 C560 1.372 . S
N558 C560 1.361 . S
N558 C561 1.377 . S
C559 N556 1.382 . S
C559 N557 1.371 . S
C559 C562 1.480 . S
C560 N557 1.372 . S
C560 N558 1.361 . S
C560 C568 1.457 . S
C561 N556 1.363 . S
C561 N558 1.377 . S
C561 C574 1.479 . S
C562 C559 1.480 . S
C562 C563 1.383 . S
C562 C567 1.385 . S
C563 H544 0.947 . S
C563 C562 1.383 . S
C563 C564 1.388 . S
C564 H545 0.946 . S
C564 C563 1.388 . S
C564 C565 1.384 . S
C565 C564 1.384 . S
C565 C566 1.377 . S
C566 H546 0.953 . S
C566 C565 1.377 . S
C566 C567 1.369 . S
C567 H547 0.945 . S
C567 C562 1.385 . S
C567 C566 1.369 . S
C568 C560 1.457 . S
C568 C569 1.372 . S
C568 C573 1.364 . S
C569 H548 0.952 . S
C569 C568 1.372 . S
C569 C570 1.389 . S
C570 H549 0.949 . S
C570 C569 1.389 . S
C570 C571 1.387 . S
C571 C570 1.387 . S
C571 C572 1.372 . S
C572 H550 0.950 . S
C572 C571 1.372 . S
C572 C573 1.379 . S
C573 H551 0.948 . S
C573 C568 1.364 . S
C573 C572 1.379 . S
C574 C543 1.383 . S
C574 C561 1.479 . S
C574 C575 1.398 . S
C575 C540 1.382 . S
C575 H552 0.951 . S
C575 C574 1.398 . S
C576 C577 1.384 . S
C576 H589 0.947 . S
C576 C611 1.382 . S
C577 C576 1.384 . S
C577 C578 1.378 . S
C578 C577 1.378 . S
C578 C579 1.378 . S
C578 H590 0.952 . S
C579 C578 1.378 . S
C579 H591 0.950 . S
C579 C610 1.383 . S
H580 C599 0.947 . S
H581 C600 0.946 . S
H582 C602 0.953 . S
H583 C603 0.945 . S
H584 C605 0.952 . S
H585 C606 0.949 . S
H586 C608 0.950 . S
H587 C609 0.948 . S
H588 C611 0.951 . S
H589 C576 0.947 . S
H590 C578 0.952 . S
H591 C579 0.950 . S
N592 C595 1.382 . S
N592 C597 1.363 . S
N593 C595 1.371 . S
N593 C596 1.372 . S
N594 C596 1.361 . S
N594 C597 1.377 . S
C595 N592 1.382 . S
C595 N593 1.371 . S
C595 C598 1.480 . S
C596 N593 1.372 . S
C596 N594 1.361 . S
C596 C604 1.457 . S
C597 N592 1.363 . S
C597 N594 1.377 . S
C597 C610 1.479 . S
C598 C595 1.480 . S
C598 C599 1.383 . S
C598 C603 1.385 . S
C599 H580 0.947 . S
C599 C598 1.383 . S
C599 C600 1.388 . S
C600 H581 0.946 . S
C600 C599 1.388 . S
C600 C601 1.384 . S
C601 C600 1.384 . S
C601 C602 1.377 . S
C602 H582 0.953 . S
C602 C601 1.377 . S
C602 C603 1.369 . S
C603 H583 0.945 . S
C603 C598 1.385 . S
C603 C602 1.369 . S
C604 C596 1.457 . S
C604 C605 1.372 . S
C604 C609 1.364 . S
C605 H584 0.952 . S
C605 C604 1.372 . S
C605 C606 1.389 . S
C606 H585 0.949 . S
C606 C605 1.389 . S
C606 C607 1.387 . S
C607 C606 1.387 . S
C607 C608 1.372 . S
C608 H586 0.950 . S
C608 C607 1.372 . S
C608 C609 1.379 . S
C609 H587 0.948 . S
C609 C604 1.364 . S
C609 C608 1.379 . S
C610 C579 1.383 . S
C610 C597 1.479 . S
C610 C611 1.398 . S
C611 C576 1.382 . S
C611 H588 0.951 . S
C611 C610 1.398 . S
C612 C613 1.384 . S
C612 H625 0.947 . S
C612 C647 1.382 . S
C613 C612 1.384 . S
C613 C614 1.378 . S
C614 C613 1.378 . S
C614 C615 1.378 . S
C614 H626 0.952 . S
C615 C614 1.378 . S
C615 H627 0.950 . S
C615 C646 1.383 . S
H616 C635 0.947 . S
H617 C636 0.946 . S
H618 C638 0.953 . S
H619 C639 0.945 . S
H620 C641 0.952 . S
H621 C642 0.949 . S
H622 C644 0.950 . S
H623 C645 0.948 . S
H624 C647 0.951 . S
H625 C612 0.947 . S
H626 C614 0.952 . S
H627 C615 0.950 . S
N628 C631 1.382 . S
N628 C633 1.363 . S
N629 C631 1.371 . S
N629 C632 1.372 . S
N630 C632 1.361 . S
N630 C633 1.377 . S
C631 N628 1.382 . S
C631 N629 1.371 . S
C631 C634 1.480 . S
C632 N629 1.372 . S
C632 N630 1.361 . S
C632 C640 1.457 . S
C633 N628 1.363 . S
C633 N630 1.377 . S
C633 C646 1.479 . S
C634 C631 1.480 . S
C634 C635 1.383 . S
C634 C639 1.385 . S
C635 H616 0.947 . S
C635 C634 1.383 . S
C635 C636 1.388 . S
C636 H617 0.946 . S
C636 C635 1.388 . S
C636 C637 1.384 . S
C637 C636 1.384 . S
C637 C638 1.377 . S
C638 H618 0.953 . S
C638 C637 1.377 . S
C638 C639 1.369 . S
C639 H619 0.945 . S
C639 C634 1.385 . S
C639 C638 1.369 . S
C640 C632 1.457 . S
C640 C641 1.372 . S
C640 C645 1.364 . S
C641 H620 0.952 . S
C641 C640 1.372 . S
C641 C642 1.389 . S
C642 H621 0.949 . S
C642 C641 1.389 . S
C642 C643 1.387 . S
C643 C642 1.387 . S
C643 C644 1.372 . S
C644 H622 0.950 . S
C644 C643 1.372 . S
C644 C645 1.379 . S
C645 H623 0.948 . S
C645 C640 1.364 . S
C645 C644 1.379 . S
C646 C615 1.383 . S
C646 C633 1.479 . S
C646 C647 1.398 . S
C647 C612 1.382 . S
C647 H624 0.951 . S
C647 C646 1.398 . S
C648 Eu649 2.835 . S
C648 C650 1.500 . S
C648 O668 1.257 1_545 S
C648 O669 1.260 . S
Eu649 C648 2.835 . S
Eu649 O668 2.473 1_545 S
Eu649 O669 2.480 . S
Eu649 O670 2.430 . S
Eu649 O671 2.670 1_554 S
Eu649 O672 2.394 1_545 S
Eu649 O677 2.355 1_545 S
Eu649 O679 2.374 . S
C650 C648 1.500 . S
C650 C651 1.377 . S
C650 C655 1.377 1_545 S
C651 C650 1.377 . S
C651 C652 1.395 . S
C651 H680 0.931 . S
C652 C651 1.395 . S
C652 C653 1.383 1_545 S
C652 H681 0.931 . S
C653 C652 1.383 1_565 S
C653 C654 1.394 . S
C654 C653 1.394 . S
C654 C655 1.378 . S
C654 H682 0.931 . S
C655 C650 1.377 1_565 S
C655 C654 1.378 . S
C655 H683 0.931 . S
C656 O670 1.204 1_556 S
C656 O671 1.291 . S
C657 O672 1.251 . S
C657 O673 1.251 1_554 S
C658 Eu659 2.835 . S
C658 C660 1.500 . S
C658 O674 1.257 1_565 S
C658 O675 1.260 . S
Eu659 C658 2.835 . S
Eu659 O671 2.355 1_565 S
Eu659 O673 2.374 . S
Eu659 O674 2.473 1_565 S
Eu659 O675 2.480 . S
Eu659 O676 2.430 . S
Eu659 O677 2.670 1_556 S
Eu659 O678 2.394 1_565 S
C660 C658 1.500 . S
C660 C661 1.377 . S
C660 C665 1.377 1_565 S
C661 C660 1.377 . S
C661 C662 1.395 . S
C661 H684 0.931 . S
C662 C661 1.395 . S
C662 C663 1.383 1_565 S
C662 H685 0.931 . S
C663 C662 1.383 1_545 S
C663 C664 1.394 . S
C664 C663 1.394 . S
C664 C665 1.378 . S
C664 H686 0.931 . S
C665 C660 1.377 1_545 S
C665 C664 1.378 . S
C665 H687 0.931 . S
C666 O676 1.259 1_554 S
C666 O677 1.270 . S
C667 O678 1.251 . S
C667 O679 1.251 1_556 S
O668 C648 1.257 1_565 S
O668 Eu649 2.473 1_565 S
O669 C648 1.260 . S
O669 Eu649 2.480 . S
O670 Eu649 2.430 . S
O670 C656 1.204 1_554 S
O671 Eu649 2.670 1_556 S
O671 C656 1.291 . S
O671 Eu659 2.355 1_545 S
O672 Eu649 2.394 1_565 S
O672 C657 1.251 . S
O673 C657 1.251 1_556 S
O673 Eu659 2.374 . S
O674 C658 1.257 1_545 S
O674 Eu659 2.473 1_545 S
O675 C658 1.260 . S
O675 Eu659 2.480 . S
O676 Eu659 2.430 . S
O676 C666 1.259 1_556 S
O677 Eu649 2.355 1_565 S
O677 Eu659 2.670 1_554 S
O677 C666 1.270 . S
O678 Eu659 2.394 1_545 S
O678 C667 1.251 . S
O679 Eu649 2.374 . S
O679 C667 1.251 1_554 S
H680 C651 0.931 . S
H681 C652 0.931 . S
H682 C654 0.931 . S
H683 C655 0.931 . S
H684 C661 0.931 . S
H685 C662 0.931 . S
H686 C664 0.931 . S
H687 C665 0.931 . S
C688 Eu689 2.835 . S
C688 C690 1.500 1_655 S
C688 O708 1.257 1_655 S
C688 O709 1.260 . S
Eu689 C688 2.835 . S
Eu689 O708 2.473 1_655 S
Eu689 O709 2.480 . S
Eu689 O710 2.430 . S
Eu689 O711 2.670 1_554 S
Eu689 O712 2.394 1_655 S
Eu689 O717 2.355 1_655 S
Eu689 O719 2.374 . S
C690 C688 1.500 1_455 S
C690 C691 1.377 1_455 S
C690 C695 1.377 . S
C691 C690 1.377 1_655 S
C691 C692 1.395 . S
C691 H720 0.931 . S
C692 C691 1.395 . S
C692 C693 1.383 1_655 S
C692 H721 0.931 . S
C693 C692 1.383 1_455 S
C693 C694 1.394 . S
C694 C693 1.394 . S
C694 C695 1.378 . S
C694 H722 0.931 . S
C695 C690 1.377 . S
C695 C694 1.378 . S
C695 H723 0.931 . S
C696 O710 1.259 1_556 S
C696 O711 1.270 . S
C697 O712 1.251 . S
C697 O713 1.251 . S
C698 Eu699 2.835 . S
C698 C700 1.500 1_455 S
C698 O714 1.257 1_455 S
C698 O715 1.260 . S
Eu699 C698 2.835 . S
Eu699 O711 2.355 1_455 S
Eu699 O713 2.374 1_556 S
Eu699 O714 2.473 1_455 S
Eu699 O715 2.480 . S
Eu699 O716 2.430 . S
Eu699 O717 2.670 1_556 S
Eu699 O718 2.394 1_455 S
C700 C698 1.500 1_655 S
C700 C701 1.377 1_655 S
C700 C705 1.377 . S
C701 C700 1.377 1_455 S
C701 C702 1.395 . S
C701 H724 0.931 . S
C702 C701 1.395 . S
C702 C703 1.383 1_455 S
C702 H725 0.931 . S
C703 C702 1.383 1_655 S
C703 C704 1.394 . S
C704 C703 1.394 . S
C704 C705 1.378 . S
C704 H726 0.931 . S
C705 C700 1.377 . S
C705 C704 1.378 . S
C705 H727 0.931 . S
C706 O716 1.259 1_554 S
C706 O717 1.270 . S
C707 O718 1.251 . S
C707 O719 1.251 1_556 S
O708 C688 1.257 1_455 S
O708 Eu689 2.473 1_455 S
O709 C688 1.260 . S
O709 Eu689 2.480 . S
O710 Eu689 2.430 . S
O710 C696 1.259 1_554 S
O711 Eu689 2.670 1_556 S
O711 C696 1.270 . S
O711 Eu699 2.355 1_655 S
O712 Eu689 2.394 1_455 S
O712 C697 1.251 . S
O713 C697 1.251 . S
O713 Eu699 2.374 1_554 S
O714 C698 1.257 1_655 S
O714 Eu699 2.473 1_655 S
O715 C698 1.260 . S
O715 Eu699 2.480 . S
O716 Eu699 2.430 . S
O716 C706 1.259 1_556 S
O717 Eu689 2.355 1_455 S
O717 Eu699 2.670 1_554 S
O717 C706 1.270 . S
O718 Eu699 2.394 1_655 S
O718 C707 1.251 . S
O719 Eu689 2.374 . S
O719 C707 1.251 1_554 S
H720 C691 0.931 . S
H721 C692 0.931 . S
H722 C694 0.931 . S
H723 C695 0.931 . S
H724 C701 0.931 . S
H725 C702 0.931 . S
H726 C704 0.931 . S
H727 C705 0.931 . S
C728 Eu729 2.835 . S
C728 C730 1.500 . S
C728 O748 1.257 . S
C728 O749 1.260 . S
Eu729 C728 2.835 . S
Eu729 O748 2.473 . S
Eu729 O749 2.480 . S
Eu729 O750 2.430 . S
Eu729 O751 2.670 1_556 S
Eu729 O752 2.394 . S
Eu729 O757 2.355 . S
Eu729 O759 2.376 . S
C730 C728 1.500 . S
C730 C731 1.377 . S
C730 C735 1.377 . S
C731 C730 1.377 . S
C731 C732 1.395 . S
C731 H760 0.931 . S
C732 C731 1.395 . S
C732 C733 1.383 . S
C732 H761 0.931 . S
C733 C732 1.383 . S
C733 C734 1.394 . S
C734 C733 1.394 . S
C734 C735 1.378 . S
C734 H762 0.931 . S
C735 C730 1.377 . S
C735 C734 1.378 . S
C735 H763 0.931 . S
C736 O750 1.259 1_554 S
C736 O751 1.270 . S
C737 O752 1.251 . S
C737 O753 1.251 1_556 S
C738 Eu739 2.835 . S
C738 C740 1.500 . S
C738 O754 1.257 . S
C738 O755 1.260 . S
Eu739 C738 2.835 . S
Eu739 O751 2.355 . S
Eu739 O753 2.374 . S
Eu739 O754 2.473 . S
Eu739 O755 2.480 . S
Eu739 O756 2.430 . S
Eu739 O757 2.670 1_554 S
Eu739 O758 2.394 . S
C740 C738 1.500 . S
C740 C741 1.377 . S
C740 C745 1.377 . S
C741 C740 1.377 . S
C741 C742 1.395 . S
C741 H764 0.931 . S
C742 C741 1.395 . S
C742 C743 1.383 . S
C742 H765 0.931 . S
C743 C742 1.383 . S
C743 C744 1.394 . S
C744 C743 1.394 . S
C744 C745 1.378 . S
C744 H766 0.931 . S
C745 C740 1.377 . S
C745 C744 1.378 . S
C745 H767 0.931 . S
C746 O756 1.259 1_556 S
C746 O757 1.270 . S
C747 O758 1.251 . S
C747 O759 1.248 1_554 S
O748 C728 1.257 . S
O748 Eu729 2.473 . S
O749 C728 1.260 . S
O749 Eu729 2.480 . S
O750 Eu729 2.430 . S
O750 C736 1.259 1_556 S
O751 Eu729 2.670 1_554 S
O751 C736 1.270 . S
O751 Eu739 2.355 . S
O752 Eu729 2.394 . S
O752 C737 1.251 . S
O753 C737 1.251 1_554 S
O753 Eu739 2.374 . S
O754 C738 1.257 . S
O754 Eu739 2.473 . S
O755 C738 1.260 . S
O755 Eu739 2.480 . S
O756 Eu739 2.430 . S
O756 C746 1.259 1_554 S
O757 Eu729 2.355 . S
O757 Eu739 2.670 1_556 S
O757 C746 1.270 . S
O758 Eu739 2.394 . S
O758 C747 1.251 . S
O759 Eu729 2.376 . S
O759 C747 1.248 1_556 S
H760 C731 0.931 . S
H761 C732 0.931 . S
H762 C734 0.931 . S
H763 C735 0.931 . S
H764 C741 0.931 . S
H765 C742 0.931 . S
H766 C744 0.931 . S
H767 C745 0.931 . S
C768 Eu769 2.835 . S
C768 C770 1.500 . S
C768 O788 1.257 . S
C768 O789 1.260 . S
Eu769 C768 2.835 . S
Eu769 O788 2.473 . S
Eu769 O789 2.480 . S
Eu769 O790 2.430 . S
Eu769 O791 2.670 . S
Eu769 O792 2.394 . S
Eu769 O797 2.355 . S
Eu769 O799 2.374 . S
C770 C768 1.500 . S
C770 C771 1.377 . S
C770 C775 1.377 . S
C771 C770 1.377 . S
C771 C772 1.395 . S
C771 H800 0.931 . S
C772 C771 1.395 . S
C772 C773 1.383 . S
C772 H801 0.931 . S
C773 C772 1.383 . S
C773 C774 1.394 . S
C774 C773 1.394 . S
C774 C775 1.378 . S
C774 H802 0.931 . S
C775 C770 1.377 . S
C775 C774 1.378 . S
C775 H803 0.931 . S
C776 O790 1.259 . S
C776 O791 1.270 . S
C777 O792 1.251 . S
C777 O793 1.251 . S
C778 Eu779 2.835 . S
C778 C780 1.500 . S
C778 O794 1.257 . S
C778 O795 1.260 . S
Eu779 C778 2.835 . S
Eu779 O791 2.355 . S
Eu779 O793 2.374 . S
Eu779 O794 2.473 . S
Eu779 O795 2.480 . S
Eu779 O796 2.430 . S
Eu779 O797 2.670 . S
Eu779 O798 2.394 . S
C780 C778 1.500 . S
C780 C781 1.377 . S
C780 C785 1.377 . S
C781 C780 1.377 . S
C781 C782 1.395 . S
C781 H804 0.931 . S
C782 C781 1.395 . S
C782 C783 1.383 . S
C782 H805 0.931 . S
C783 C782 1.383 . S
C783 C784 1.394 . S
C784 C783 1.394 . S
C784 C785 1.378 . S
C784 H806 0.931 . S
C785 C780 1.377 . S
C785 C784 1.378 . S
C785 H807 0.931 . S
C786 O796 1.259 . S
C786 O797 1.270 . S
C787 O798 1.251 . S
C787 O799 1.251 . S
O788 C768 1.257 . S
O788 Eu769 2.473 . S
O789 C768 1.260 . S
O789 Eu769 2.480 . S
O790 Eu769 2.430 . S
O790 C776 1.259 . S
O791 Eu769 2.670 . S
O791 C776 1.270 . S
O791 Eu779 2.355 . S
O792 Eu769 2.394 . S
O792 C777 1.251 . S
O793 C777 1.251 . S
O793 Eu779 2.374 . S
O794 C778 1.257 . S
O794 Eu779 2.473 . S
O795 C778 1.260 . S
O795 Eu779 2.480 . S
O796 Eu779 2.430 . S
O796 C786 1.259 . S
O797 Eu769 2.355 . S
O797 Eu779 2.670 . S
O797 C786 1.270 . S
O798 Eu779 2.394 . S
O798 C787 1.251 . S
O799 Eu769 2.374 . S
O799 C787 1.251 . S
H800 C771 0.931 . S
H801 C772 0.931 . S
H802 C774 0.931 . S
H803 C775 0.931 . S
H804 C781 0.931 . S
H805 C782 0.931 . S
H806 C784 0.931 . S
H807 C785 0.931 . S
C808 Eu809 2.835 . S
C808 C810 1.500 . S
C808 O828 1.257 . S
C808 O829 1.260 . S
Eu809 C808 2.835 . S
Eu809 O828 2.473 . S
Eu809 O829 2.480 . S
Eu809 O830 2.430 . S
Eu809 O831 2.670 . S
Eu809 O832 2.394 . S
Eu809 O837 2.355 . S
Eu809 O839 2.374 . S
C810 C808 1.500 . S
C810 C811 1.377 . S
C810 C815 1.377 . S
C811 C810 1.377 . S
C811 C812 1.395 . S
C811 H840 0.931 . S
C812 C811 1.395 . S
C812 C813 1.383 . S
C812 H841 0.931 . S
C813 C812 1.383 . S
C813 C814 1.394 . S
C814 C813 1.394 . S
C814 C815 1.378 . S
C814 H842 0.931 . S
C815 C810 1.377 . S
C815 C814 1.378 . S
C815 H843 0.931 . S
C816 O830 1.259 . S
C816 O831 1.270 . S
C817 O832 1.251 . S
C817 O833 1.251 . S
C818 Eu819 2.835 . S
C818 C820 1.500 . S
C818 O834 1.257 . S
C818 O835 1.260 . S
Eu819 C818 2.835 . S
Eu819 O831 2.355 . S
Eu819 O833 2.374 . S
Eu819 O834 2.473 . S
Eu819 O835 2.480 . S
Eu819 O836 2.430 . S
Eu819 O837 2.670 . S
Eu819 O838 2.394 . S
C820 C818 1.500 . S
C820 C821 1.377 . S
C820 C825 1.377 . S
C821 C820 1.377 . S
C821 C822 1.395 . S
C821 H844 0.931 . S
C822 C821 1.395 . S
C822 C823 1.383 . S
C822 H845 0.931 . S
C823 C822 1.383 . S
C823 C824 1.394 . S
C824 C823 1.394 . S
C824 C825 1.378 . S
C824 H846 0.931 . S
C825 C820 1.377 . S
C825 C824 1.378 . S
C825 H847 0.931 . S
C826 O836 1.259 . S
C826 O837 1.270 . S
C827 O838 1.251 . S
C827 O839 1.251 . S
O828 C808 1.257 . S
O828 Eu809 2.473 . S
O829 C808 1.260 . S
O829 Eu809 2.480 . S
O830 Eu809 2.430 . S
O830 C816 1.259 . S
O831 Eu809 2.670 . S
O831 C816 1.270 . S
O831 Eu819 2.355 . S
O832 Eu809 2.394 . S
O832 C817 1.251 . S
O833 C817 1.251 . S
O833 Eu819 2.374 . S
O834 C818 1.257 . S
O834 Eu819 2.473 . S
O835 C818 1.260 . S
O835 Eu819 2.480 . S
O836 Eu819 2.430 . S
O836 C826 1.259 . S
O837 Eu809 2.355 . S
O837 Eu819 2.670 . S
O837 C826 1.270 . S
O838 Eu819 2.394 . S
O838 C827 1.251 . S
O839 Eu809 2.374 . S
O839 C827 1.251 . S
H840 C811 0.931 . S
H841 C812 0.931 . S
H842 C814 0.931 . S
H843 C815 0.931 . S
H844 C821 0.931 . S
H845 C822 0.931 . S
H846 C824 0.931 . S
H847 C825 0.931 . S
C848 Eu849 2.835 . S
C848 C850 1.500 . S
C848 O868 1.257 . S
C848 O869 1.260 . S
Eu849 C848 2.835 . S
Eu849 O868 2.473 . S
Eu849 O869 2.480 . S
Eu849 O870 2.430 . S
Eu849 O871 2.670 . S
Eu849 O872 2.394 . S
Eu849 O877 2.355 . S
Eu849 O879 2.374 . S
C850 C848 1.500 . S
C850 C851 1.377 . S
C850 C855 1.377 . S
C851 C850 1.377 . S
C851 C852 1.395 . S
C851 H880 0.931 . S
C852 C851 1.395 . S
C852 C853 1.383 . S
C852 H881 0.931 . S
C853 C852 1.383 . S
C853 C854 1.394 . S
C854 C853 1.394 . S
C854 C855 1.378 . S
C854 H882 0.931 . S
C855 C850 1.377 . S
C855 C854 1.378 . S
C855 H883 0.931 . S
C856 O870 1.259 . S
C856 O871 1.270 . S
C857 O872 1.251 . S
C857 O873 1.251 . S
C858 Eu859 2.835 . S
C858 C860 1.500 . S
C858 O874 1.257 . S
C858 O875 1.260 . S
Eu859 C858 2.835 . S
Eu859 O871 2.355 . S
Eu859 O873 2.374 . S
Eu859 O874 2.473 . S
Eu859 O875 2.480 . S
Eu859 O876 2.430 . S
Eu859 O877 2.670 . S
Eu859 O878 2.394 . S
C860 C858 1.500 . S
C860 C861 1.377 . S
C860 C865 1.377 . S
C861 C860 1.377 . S
C861 C862 1.395 . S
C861 H884 0.931 . S
C862 C861 1.395 . S
C862 C863 1.383 . S
C862 H885 0.931 . S
C863 C862 1.383 . S
C863 C864 1.394 . S
C864 C863 1.394 . S
C864 C865 1.378 . S
C864 H886 0.931 . S
C865 C860 1.377 . S
C865 C864 1.378 . S
C865 H887 0.931 . S
C866 O876 1.259 . S
C866 O877 1.270 . S
C867 O878 1.251 . S
C867 O879 1.251 . S
O868 C848 1.257 . S
O868 Eu849 2.473 . S
O869 C848 1.260 . S
O869 Eu849 2.480 . S
O870 Eu849 2.430 . S
O870 C856 1.259 . S
O871 Eu849 2.670 . S
O871 C856 1.270 . S
O871 Eu859 2.355 . S
O872 Eu849 2.394 . S
O872 C857 1.251 . S
O873 C857 1.251 . S
O873 Eu859 2.374 . S
O874 C858 1.257 . S
O874 Eu859 2.473 . S
O875 C858 1.260 . S
O875 Eu859 2.480 . S
O876 Eu859 2.430 . S
O876 C866 1.259 . S
O877 Eu849 2.355 . S
O877 Eu859 2.670 . S
O877 C866 1.270 . S
O878 Eu859 2.394 . S
O878 C867 1.251 . S
O879 Eu849 2.374 . S
O879 C867 1.251 . S
H880 C851 0.931 . S
H881 C852 0.931 . S
H882 C854 0.931 . S
H883 C855 0.931 . S
H884 C861 0.931 . S
H885 C862 0.931 . S
H886 C864 0.931 . S
H887 C865 0.931 . S
C888 Eu889 2.835 . S
C888 C890 1.500 . S
C888 O908 1.257 . S
C888 O909 1.260 . S
Eu889 C888 2.835 . S
Eu889 O908 2.473 . S
Eu889 O909 2.480 . S
Eu889 O910 2.430 . S
Eu889 O911 2.670 . S
Eu889 O912 2.394 . S
Eu889 O917 2.355 . S
Eu889 O919 2.374 . S
C890 C888 1.500 . S
C890 C891 1.377 . S
C890 C895 1.377 . S
C891 C890 1.377 . S
C891 C892 1.395 . S
C891 H920 0.931 . S
C892 C891 1.395 . S
C892 C893 1.383 . S
C892 H921 0.931 . S
C893 C892 1.383 . S
C893 C894 1.394 . S
C894 C893 1.394 . S
C894 C895 1.378 . S
C894 H922 0.931 . S
C895 C890 1.377 . S
C895 C894 1.378 . S
C895 H923 0.931 . S
C896 O910 1.259 . S
C896 O911 1.270 . S
C897 O912 1.251 . S
C897 O913 1.251 . S
C898 Eu899 2.835 . S
C898 C900 1.500 . S
C898 O914 1.257 . S
C898 O915 1.260 . S
Eu899 C898 2.835 . S
Eu899 O911 2.355 . S
Eu899 O913 2.374 . S
Eu899 O914 2.473 . S
Eu899 O915 2.480 . S
Eu899 O916 2.430 . S
Eu899 O917 2.670 . S
Eu899 O918 2.394 . S
C900 C898 1.500 . S
C900 C901 1.377 . S
C900 C905 1.377 . S
C901 C900 1.377 . S
C901 C902 1.395 . S
C901 H924 0.931 . S
C902 C901 1.395 . S
C902 C903 1.383 . S
C902 H925 0.931 . S
C903 C902 1.383 . S
C903 C904 1.394 . S
C904 C903 1.394 . S
C904 C905 1.378 . S
C904 H926 0.931 . S
C905 C900 1.377 . S
C905 C904 1.378 . S
C905 H927 0.931 . S
C906 O916 1.259 . S
C906 O917 1.270 . S
C907 O918 1.251 . S
C907 O919 1.251 . S
O908 C888 1.257 . S
O908 Eu889 2.473 . S
O909 C888 1.260 . S
O909 Eu889 2.480 . S
O910 Eu889 2.430 . S
O910 C896 1.259 . S
O911 Eu889 2.670 . S
O911 C896 1.270 . S
O911 Eu899 2.355 . S
O912 Eu889 2.394 . S
O912 C897 1.251 . S
O913 C897 1.251 . S
O913 Eu899 2.374 . S
O914 C898 1.257 . S
O914 Eu899 2.473 . S
O915 C898 1.260 . S
O915 Eu899 2.480 . S
O916 Eu899 2.430 . S
O916 C906 1.259 . S
O917 Eu889 2.355 . S
O917 Eu899 2.670 . S
O917 C906 1.270 . S
O918 Eu899 2.394 . S
O918 C907 1.251 . S
O919 Eu889 2.374 . S
O919 C907 1.251 . S
H920 C891 0.931 . S
H921 C892 0.931 . S
H922 C894 0.931 . S
H923 C895 0.931 . S
H924 C901 0.931 . S
H925 C902 0.931 . S
H926 C904 0.931 . S
H927 C905 0.931 . S
C928 Eu929 2.835 . S
C928 C930 1.500 . S
C928 O948 1.257 . S
C928 O949 1.260 . S
Eu929 C928 2.835 . S
Eu929 O948 2.473 . S
Eu929 O949 2.480 . S
Eu929 O950 2.430 . S
Eu929 O951 2.670 . S
Eu929 O952 2.394 . S
Eu929 O957 2.355 . S
Eu929 O959 2.374 . S
C930 C928 1.500 . S
C930 C931 1.377 . S
C930 C935 1.377 . S
C931 C930 1.377 . S
C931 C932 1.395 . S
C931 H960 0.931 . S
C932 C931 1.395 . S
C932 C933 1.383 . S
C932 H961 0.931 . S
C933 C932 1.383 . S
C933 C934 1.394 . S
C934 C933 1.394 . S
C934 C935 1.378 . S
C934 H962 0.931 . S
C935 C930 1.377 . S
C935 C934 1.378 . S
C935 H963 0.931 . S
C936 O950 1.259 . S
C936 O951 1.270 . S
C937 O952 1.251 . S
C937 O953 1.251 . S
C938 Eu939 2.835 . S
C938 C940 1.500 . S
C938 O954 1.257 . S
C938 O955 1.260 . S
Eu939 C938 2.835 . S
Eu939 O951 2.355 . S
Eu939 O953 2.374 . S
Eu939 O954 2.473 . S
Eu939 O955 2.480 . S
Eu939 O956 2.430 . S
Eu939 O957 2.670 . S
Eu939 O958 2.394 . S
C940 C938 1.500 . S
C940 C941 1.377 . S
C940 C945 1.377 . S
C941 C940 1.377 . S
C941 C942 1.395 . S
C941 H964 0.931 . S
C942 C941 1.395 . S
C942 C943 1.383 . S
C942 H965 0.931 . S
C943 C942 1.383 . S
C943 C944 1.394 . S
C944 C943 1.394 . S
C944 C945 1.378 . S
C944 H966 0.931 . S
C945 C940 1.377 . S
C945 C944 1.378 . S
C945 H967 0.931 . S
C946 O956 1.259 . S
C946 O957 1.270 . S
C947 O958 1.251 . S
C947 O959 1.251 . S
O948 C928 1.257 . S
O948 Eu929 2.473 . S
O949 C928 1.260 . S
O949 Eu929 2.480 . S
O950 Eu929 2.430 . S
O950 C936 1.259 . S
O951 Eu929 2.670 . S
O951 C936 1.270 . S
O951 Eu939 2.355 . S
O952 Eu929 2.394 . S
O952 C937 1.251 . S
O953 C937 1.251 . S
O953 Eu939 2.374 . S
O954 C938 1.257 . S
O954 Eu939 2.473 . S
O955 C938 1.260 . S
O955 Eu939 2.480 . S
O956 Eu939 2.430 . S
O956 C946 1.259 . S
O957 Eu929 2.355 . S
O957 Eu939 2.670 . S
O957 C946 1.270 . S
O958 Eu939 2.394 . S
O958 C947 1.251 . S
O959 Eu929 2.374 . S
O959 C947 1.251 . S
H960 C931 0.931 . S
H961 C932 0.931 . S
H962 C934 0.931 . S
H963 C935 0.931 . S
H964 C941 0.931 . S
H965 C942 0.931 . S
H966 C944 0.931 . S
H967 C945 0.931 . S
C968 Eu969 2.835 . S
C968 C970 1.500 . S
C968 O988 1.257 . S
C968 O989 1.260 . S
Eu969 C968 2.835 . S
Eu969 O988 2.473 . S
Eu969 O989 2.480 . S
Eu969 O990 2.430 . S
Eu969 O991 2.670 . S
Eu969 O992 2.394 . S
Eu969 O997 2.355 . S
Eu969 O999 2.374 . S
C970 C968 1.500 . S
C970 C971 1.377 . S
C970 C975 1.377 . S
C971 C970 1.377 . S
C971 C972 1.395 . S
C971 H1000 0.931 . S
C972 C971 1.395 . S
C972 C973 1.383 . S
C972 H1001 0.931 . S
C973 C972 1.383 . S
C973 C974 1.394 . S
C974 C973 1.394 . S
C974 C975 1.378 . S
C974 H1002 0.931 . S
C975 C970 1.377 . S
C975 C974 1.378 . S
C975 H1003 0.931 . S
C976 O990 1.259 . S
C976 O991 1.270 . S
C977 O992 1.251 . S
C977 O993 1.251 . S
C978 Eu979 2.835 . S
C978 C980 1.500 . S
C978 O994 1.257 . S
C978 O995 1.260 . S
Eu979 C978 2.835 . S
Eu979 O991 2.355 . S
Eu979 O993 2.374 . S
Eu979 O994 2.473 . S
Eu979 O995 2.480 . S
Eu979 O996 2.430 . S
Eu979 O997 2.670 . S
Eu979 O998 2.394 . S
C980 C978 1.500 . S
C980 C981 1.377 . S
C980 C985 1.377 . S
C981 C980 1.377 . S
C981 C982 1.395 . S
C981 H1004 0.931 . S
C982 C981 1.395 . S
C982 C983 1.383 . S
C982 H1005 0.931 . S
C983 C982 1.383 . S
C983 C984 1.394 . S
C984 C983 1.394 . S
C984 C985 1.378 . S
C984 H1006 0.931 . S
C985 C980 1.377 . S
C985 C984 1.378 . S
C985 H1007 0.931 . S
C986 O996 1.259 . S
C986 O997 1.270 . S
C987 O998 1.251 . S
C987 O999 1.251 . S
O988 C968 1.257 . S
O988 Eu969 2.473 . S
O989 C968 1.260 . S
O989 Eu969 2.480 . S
O990 Eu969 2.430 . S
O990 C976 1.259 . S
O991 Eu969 2.670 . S
O991 C976 1.270 . S
O991 Eu979 2.355 . S
O992 Eu969 2.394 . S
O992 C977 1.251 . S
O993 C977 1.251 . S
O993 Eu979 2.374 . S
O994 C978 1.257 . S
O994 Eu979 2.473 . S
O995 C978 1.260 . S
O995 Eu979 2.480 . S
O996 Eu979 2.430 . S
O996 C986 1.259 . S
O997 Eu969 2.355 . S
O997 Eu979 2.670 . S
O997 C986 1.270 . S
O998 Eu979 2.394 . S
O998 C987 1.251 . S
O999 Eu969 2.374 . S
O999 C987 1.251 . S
H1000 C971 0.931 . S
H1001 C972 0.931 . S
H1002 C974 0.931 . S
H1003 C975 0.931 . S
H1004 C981 0.931 . S
H1005 C982 0.931 . S
H1006 C984 0.931 . S
H1007 C985 0.931 . S
H1008 C1016 0.950 . S
H1009 C1021 0.950 . S
H1010 C1018 0.950 . S
H1011 C1020 0.950 . S
H1012 C1022 0.950 . S
H1013 C1024 0.950 . S
H1014 C1026 0.950 . S
H1015 C1027 0.950 1_556 S
C1016 H1008 0.950 . S
C1016 C1017 1.386 . S
C1016 C1018 1.391 . S
C1017 C1016 1.386 . S
C1017 C1021 1.393 . S
C1018 H1010 0.950 . S
C1018 C1016 1.391 . S
C1018 C1019 1.400 . S
C1019 C1018 1.400 . S
C1019 C1020 1.398 . S
C1019 C1025 1.491 . S
C1020 H1011 0.950 . S
C1020 C1019 1.398 . S
C1020 C1021 1.391 . S
C1021 H1009 0.950 . S
C1021 C1017 1.393 . S
C1021 C1020 1.391 . S
C1022 H1012 0.950 . S
C1022 C1023 1.386 . S
C1022 C1024 1.391 . S
C1023 C1022 1.386 . S
C1023 C1027 1.393 . S
C1024 H1013 0.950 . S
C1024 C1022 1.391 . S
C1024 C1025 1.400 . S
C1025 C1019 1.491 . S
C1025 C1024 1.400 . S
C1025 C1026 1.398 . S
C1026 H1014 0.950 . S
C1026 C1025 1.398 . S
C1026 C1027 1.391 . S
C1027 H1015 0.950 1_554 S
C1027 C1023 1.393 . S
C1027 C1026 1.391 . S
H1028 C1036 0.950 . S
H1029 C1041 0.950 . S
H1030 C1038 0.950 . S
H1031 C1040 0.950 . S
H1032 C1042 0.950 . S
H1033 C1044 0.950 . S
H1034 C1046 0.950 . S
H1035 C1047 0.950 . S
C1036 H1028 0.950 . S
C1036 C1037 1.386 . S
C1036 C1038 1.391 . S
C1037 C1036 1.386 . S
C1037 C1041 1.393 . S
C1038 H1030 0.950 . S
C1038 C1036 1.391 . S
C1038 C1039 1.400 . S
C1039 C1038 1.400 . S
C1039 C1040 1.398 . S
C1039 C1045 1.491 . S
C1040 H1031 0.950 . S
C1040 C1039 1.398 . S
C1040 C1041 1.391 . S
C1041 H1029 0.950 . S
C1041 C1037 1.393 . S
C1041 C1040 1.391 . S
C1042 H1032 0.950 . S
C1042 C1043 1.386 . S
C1042 C1044 1.391 . S
C1043 C1042 1.386 . S
C1043 C1047 1.393 . S
C1044 H1033 0.950 . S
C1044 C1042 1.391 . S
C1044 C1045 1.400 . S
C1045 C1039 1.491 . S
C1045 C1044 1.400 . S
C1045 C1046 1.398 . S
C1046 H1034 0.950 . S
C1046 C1045 1.398 . S
C1046 C1047 1.391 . S
C1047 H1035 0.950 . S
C1047 C1043 1.393 . S
C1047 C1046 1.391 . S
H1048 C1056 0.950 . S
H1049 C1061 0.950 . S
H1050 C1058 0.950 . S
H1051 C1060 0.950 . S
H1052 C1062 0.950 . S
H1053 C1064 0.950 . S
H1054 C1066 0.950 . S
H1055 C1067 0.950 . S
C1056 H1048 0.950 . S
C1056 C1057 1.386 . S
C1056 C1058 1.391 . S
C1057 C1056 1.386 . S
C1057 C1061 1.393 . S
C1058 H1050 0.950 . S
C1058 C1056 1.391 . S
C1058 C1059 1.400 . S
C1059 C1058 1.400 . S
C1059 C1060 1.398 . S
C1059 C1065 1.491 . S
C1060 H1051 0.950 . S
C1060 C1059 1.398 . S
C1060 C1061 1.391 . S
C1061 H1049 0.950 . S
C1061 C1057 1.393 . S
C1061 C1060 1.391 . S
C1062 H1052 0.950 . S
C1062 C1063 1.386 . S
C1062 C1064 1.391 . S
C1063 C1062 1.386 . S
C1063 C1067 1.393 . S
C1064 H1053 0.950 . S
C1064 C1062 1.391 . S
C1064 C1065 1.400 . S
C1065 C1059 1.491 . S
C1065 C1064 1.400 . S
C1065 C1066 1.398 . S
C1066 H1054 0.950 . S
C1066 C1065 1.398 . S
C1066 C1067 1.391 . S
C1067 H1055 0.950 . S
C1067 C1063 1.393 . S
C1067 C1066 1.391 . S
H1068 C1076 0.950 . S
H1069 C1081 0.950 . S
H1070 C1078 0.950 . S
H1071 C1080 0.950 . S
H1072 C1082 0.950 . S
H1073 C1084 0.950 . S
H1074 C1086 0.950 1_554 S
H1075 C1087 0.950 1_554 S
C1076 H1068 0.950 . S
C1076 C1077 1.386 . S
C1076 C1078 1.391 . S
C1077 C1076 1.386 . S
C1077 C1081 1.393 . S
C1078 H1070 0.950 . S
C1078 C1076 1.391 . S
C1078 C1079 1.400 . S
C1079 C1078 1.400 . S
C1079 C1080 1.398 . S
C1079 C1085 1.491 . S
C1080 H1071 0.950 . S
C1080 C1079 1.398 . S
C1080 C1081 1.391 . S
C1081 H1069 0.950 . S
C1081 C1077 1.393 . S
C1081 C1080 1.391 . S
C1082 H1072 0.950 . S
C1082 C1083 1.386 . S
C1082 C1084 1.391 . S
C1083 C1082 1.386 . S
C1083 C1087 1.393 . S
C1084 H1073 0.950 . S
C1084 C1082 1.391 . S
C1084 C1085 1.400 . S
C1085 C1079 1.491 . S
C1085 C1084 1.400 . S
C1085 C1086 1.398 . S
C1086 H1074 0.950 1_556 S
C1086 C1085 1.398 . S
C1086 C1087 1.391 . S
C1087 H1075 0.950 1_556 S
C1087 C1083 1.393 . S
C1087 C1086 1.391 . S
H1088 C1096 0.950 . S
H1089 C1101 0.950 . S
H1090 C1098 0.950 . S
H1091 C1100 0.950 . S
H1092 C1102 0.878 1_554 S
H1093 C1104 0.950 . S
H1094 C1106 0.950 . S
H1095 C1107 0.950 . S
C1096 H1088 0.950 . S
C1096 C1097 1.386 . S
C1096 C1098 1.391 . S
C1097 C1096 1.386 . S
C1097 C1101 1.393 . S
C1098 H1090 0.950 . S
C1098 C1096 1.391 . S
C1098 C1099 1.400 . S
C1099 C1098 1.400 . S
C1099 C1100 1.398 . S
C1099 C1105 1.491 . S
C1100 H1091 0.950 . S
C1100 C1099 1.398 . S
C1100 C1101 1.391 . S
C1101 H1089 0.950 . S
C1101 C1097 1.393 . S
C1101 C1100 1.391 . S
C1102 H1092 0.878 1_556 S
C1102 C1103 1.386 . S
C1102 C1104 1.391 . S
C1103 C1102 1.386 . S
C1103 C1107 1.393 . S
C1104 H1093 0.950 . S
C1104 C1102 1.391 . S
C1104 C1105 1.400 . S
C1105 C1099 1.491 . S
C1105 C1104 1.400 . S
C1105 C1106 1.398 . S
C1106 H1094 0.950 . S
C1106 C1105 1.398 . S
C1106 C1107 1.391 . S
C1107 H1095 0.950 . S
C1107 C1103 1.393 . S
C1107 C1106 1.391 . S
H1108 C1116 0.950 . S
H1109 C1121 0.950 . S
H1110 C1118 0.950 . S
H1111 C1120 0.950 . S
H1112 C1122 0.950 . S
H1113 C1124 0.950 . S
H1114 C1126 0.950 . S
H1115 C1127 0.959 . S
C1116 H1108 0.950 . S
C1116 C1117 1.386 . S
C1116 C1118 1.391 . S
C1117 C1116 1.386 . S
C1117 C1121 1.393 . S
C1118 H1110 0.950 . S
C1118 C1116 1.391 . S
C1118 C1119 1.400 . S
C1119 C1118 1.400 . S
C1119 C1120 1.398 . S
C1119 C1125 1.491 . S
C1120 H1111 0.950 . S
C1120 C1119 1.398 . S
C1120 C1121 1.391 . S
C1121 H1109 0.950 . S
C1121 C1117 1.393 . S
C1121 C1120 1.391 . S
C1122 H1112 0.950 . S
C1122 C1123 1.386 . S
C1122 C1124 1.391 . S
C1123 C1122 1.386 . S
C1123 C1127 1.393 . S
C1124 H1113 0.950 . S
C1124 C1122 1.391 . S
C1124 C1125 1.400 . S
C1125 C1119 1.491 . S
C1125 C1124 1.400 . S
C1125 C1126 1.398 . S
C1126 H1114 0.950 . S
C1126 C1125 1.398 . S
C1126 C1127 1.391 . S
C1127 H1115 0.959 . S
C1127 C1123 1.393 . S
C1127 C1126 1.391 . S
H1128 C1136 0.950 . S
H1129 C1141 0.950 . S
H1130 C1138 0.950 . S
H1131 C1140 0.950 . S
H1132 C1142 0.950 . S
H1133 C1144 0.950 . S
H1134 C1146 0.950 . S
H1135 C1147 0.950 . S
C1136 H1128 0.950 . S
C1136 C1137 1.386 . S
C1136 C1138 1.391 . S
C1137 C1136 1.386 . S
C1137 C1141 1.393 . S
C1138 H1130 0.950 . S
C1138 C1136 1.391 . S
C1138 C1139 1.400 . S
C1139 C1138 1.400 . S
C1139 C1140 1.398 . S
C1139 C1145 1.491 . S
C1140 H1131 0.950 . S
C1140 C1139 1.398 . S
C1140 C1141 1.391 . S
C1141 H1129 0.950 . S
C1141 C1137 1.393 . S
C1141 C1140 1.391 . S
C1142 H1132 0.950 . S
C1142 C1143 1.386 . S
C1142 C1144 1.391 . S
C1143 C1142 1.386 . S
C1143 C1147 1.393 . S
C1144 H1133 0.950 . S
C1144 C1142 1.391 . S
C1144 C1145 1.400 . S
C1145 C1139 1.491 . S
C1145 C1144 1.400 . S
C1145 C1146 1.398 . S
C1146 H1134 0.950 . S
C1146 C1145 1.398 . S
C1146 C1147 1.391 . S
C1147 H1135 0.950 . S
C1147 C1143 1.393 . S
C1147 C1146 1.391 . S
H1148 C1156 0.950 . S
H1149 C1161 0.950 . S
H1150 C1158 0.950 . S
H1151 C1160 0.950 . S
H1152 C1162 0.950 . S
H1153 C1164 0.950 . S
H1154 C1166 0.950 . S
H1155 C1167 0.950 . S
C1156 H1148 0.950 . S
C1156 C1157 1.386 . S
C1156 C1158 1.391 . S
C1157 C1156 1.386 . S
C1157 C1161 1.393 . S
C1158 H1150 0.950 . S
C1158 C1156 1.391 . S
C1158 C1159 1.400 . S
C1159 C1158 1.400 . S
C1159 C1160 1.398 . S
C1159 C1165 1.491 . S
C1160 H1151 0.950 . S
C1160 C1159 1.398 . S
C1160 C1161 1.391 . S
C1161 H1149 0.950 . S
C1161 C1157 1.393 . S
C1161 C1160 1.391 . S
C1162 H1152 0.950 . S
C1162 C1163 1.386 . S
C1162 C1164 1.391 . S
C1163 C1162 1.386 . S
C1163 C1167 1.393 . S
C1164 H1153 0.950 . S
C1164 C1162 1.391 . S
C1164 C1165 1.400 . S
C1165 C1159 1.491 . S
C1165 C1164 1.400 . S
C1165 C1166 1.398 . S
C1166 H1154 0.950 . S
C1166 C1165 1.398 . S
C1166 C1167 1.391 . S
C1167 H1155 0.950 . S
C1167 C1163 1.393 . S
C1167 C1166 1.391 . S
H1168 C1176 0.950 . S
H1169 C1181 0.950 . S
H1170 C1178 0.950 . S
H1171 C1180 0.950 1_554 S
H1172 C1182 0.994 . S
H1173 C1184 0.950 1_554 S
H1174 C1186 0.950 . S
H1175 C1187 0.950 . S
C1176 H1168 0.950 . S
C1176 C1177 1.386 . S
C1176 C1178 1.391 . S
C1177 C1176 1.386 . S
C1177 C1181 1.393 . S
C1178 H1170 0.950 . S
C1178 C1176 1.391 . S
C1178 C1179 1.400 . S
C1179 C1178 1.400 . S
C1179 C1180 1.398 . S
C1179 C1185 1.491 . S
C1180 H1171 0.950 1_556 S
C1180 C1179 1.398 . S
C1180 C1181 1.391 . S
C1181 H1169 0.950 . S
C1181 C1177 1.393 . S
C1181 C1180 1.391 . S
C1182 H1172 0.994 . S
C1182 C1183 1.346 1_554 S
C1182 C1184 1.389 1_554 S
C1183 C1182 1.346 1_556 S
C1183 C1187 1.393 . S
C1184 H1173 0.950 1_556 S
C1184 C1182 1.389 1_556 S
C1184 C1185 1.400 . S
C1185 C1179 1.491 . S
C1185 C1184 1.400 . S
C1185 C1186 1.398 . S
C1186 H1174 0.950 . S
C1186 C1185 1.398 . S
C1186 C1187 1.391 . S
C1187 H1175 0.950 . S
C1187 C1183 1.393 . S
C1187 C1186 1.391 . S
H1188 C1196 0.950 . S
H1189 C1201 0.950 . S
H1190 C1198 0.950 . S
H1191 C1200 0.950 . S
H1192 C1202 0.950 1_556 S
H1193 C1204 0.962 . S
H1194 C1206 0.950 . S
H1195 C1207 0.950 . S
C1196 H1188 0.950 . S
C1196 C1197 1.386 . S
C1196 C1198 1.391 . S
C1197 C1196 1.386 . S
C1197 C1201 1.393 . S
C1198 H1190 0.950 . S
C1198 C1196 1.391 . S
C1198 C1199 1.400 . S
C1199 C1198 1.400 . S
C1199 C1200 1.398 . S
C1199 C1205 1.491 . S
C1200 H1191 0.950 . S
C1200 C1199 1.398 . S
C1200 C1201 1.391 . S
C1201 H1189 0.950 . S
C1201 C1197 1.393 . S
C1201 C1200 1.391 . S
C1202 H1192 0.950 1_554 S
C1202 C1203 1.386 . S
C1202 C1204 1.391 . S
C1203 C1202 1.386 . S
C1203 C1207 1.393 . S
C1204 H1193 0.962 . S
C1204 C1202 1.391 . S
C1204 C1205 1.400 . S
C1205 C1199 1.491 . S
C1205 C1204 1.400 . S
C1205 C1206 1.398 . S
C1206 H1194 0.950 . S
C1206 C1205 1.398 . S
C1206 C1207 1.391 . S
C1207 H1195 0.950 . S
C1207 C1203 1.393 . S
C1207 C1206 1.391 . S
H1208 C1216 0.950 . S
H1209 C1221 0.950 . S
H1210 C1218 0.950 . S
H1211 C1220 0.950 . S
H1212 C1222 0.950 . S
H1213 C1224 0.950 . S
H1214 C1226 0.950 . S
H1215 C1227 0.950 . S
C1216 H1208 0.950 . S
C1216 C1217 1.386 . S
C1216 C1218 1.391 . S
C1217 C1216 1.386 . S
C1217 C1221 1.393 . S
C1218 H1210 0.950 . S
C1218 C1216 1.391 . S
C1218 C1219 1.400 . S
C1219 C1218 1.400 . S
C1219 C1220 1.398 . S
C1219 C1225 1.491 . S
C1220 H1211 0.950 . S
C1220 C1219 1.398 . S
C1220 C1221 1.391 . S
C1221 H1209 0.950 . S
C1221 C1217 1.393 . S
C1221 C1220 1.391 . S
C1222 H1212 0.950 . S
C1222 C1223 1.386 . S
C1222 C1224 1.391 . S
C1223 C1222 1.386 . S
C1223 C1227 1.393 . S
C1224 H1213 0.950 . S
C1224 C1222 1.391 . S
C1224 C1225 1.400 . S
C1225 C1219 1.491 . S
C1225 C1224 1.400 . S
C1225 C1226 1.398 . S
C1226 H1214 0.950 . S
C1226 C1225 1.398 . S
C1226 C1227 1.391 . S
C1227 H1215 0.950 . S
C1227 C1223 1.393 . S
C1227 C1226 1.391 . S
H1228 C1236 0.950 . S
H1229 C1241 0.950 . S
H1230 C1238 0.950 . S
H1231 C1240 0.950 . S
H1232 C1242 0.950 . S
H1233 C1244 0.950 . S
H1234 C1246 0.950 . S
H1235 C1247 0.950 . S
C1236 H1228 0.950 . S
C1236 C1237 1.386 . S
C1236 C1238 1.391 . S
C1237 C1236 1.386 . S
C1237 C1241 1.393 . S
C1238 H1230 0.950 . S
C1238 C1236 1.391 . S
C1238 C1239 1.400 . S
C1239 C1238 1.400 . S
C1239 C1240 1.398 . S
C1239 C1245 1.491 . S
C1240 H1231 0.950 . S
C1240 C1239 1.398 . S
C1240 C1241 1.391 . S
C1241 H1229 0.950 . S
C1241 C1237 1.393 . S
C1241 C1240 1.391 . S
C1242 H1232 0.950 . S
C1242 C1243 1.386 . S
C1242 C1244 1.391 . S
C1243 C1242 1.386 . S
C1243 C1247 1.393 . S
C1244 H1233 0.950 . S
C1244 C1242 1.391 . S
C1244 C1245 1.400 . S
C1245 C1239 1.491 . S
C1245 C1244 1.400 . S
C1245 C1246 1.398 . S
C1246 H1234 0.950 . S
C1246 C1245 1.398 . S
C1246 C1247 1.391 . S
C1247 H1235 0.950 . S
C1247 C1243 1.393 . S
C1247 C1246 1.391 . S
H1248 C1256 0.950 . S
H1249 C1261 0.950 . S
H1250 C1258 0.950 . S
H1251 C1260 0.950 . S
H1252 C1262 0.950 . S
H1253 C1264 0.950 . S
H1254 C1266 0.950 . S
H1255 C1267 0.950 . S
C1256 H1248 0.950 . S
C1256 C1257 1.386 . S
C1256 C1258 1.391 1_655 S
C1257 C1256 1.386 . S
C1257 C1261 1.393 . S
C1258 H1250 0.950 . S
C1258 C1256 1.391 1_455 S
C1258 C1259 1.400 . S
C1259 C1258 1.400 . S
C1259 C1260 1.398 . S
C1259 C1265 1.491 . S
C1260 H1251 0.950 . S
C1260 C1259 1.398 . S
C1260 C1261 1.391 1_455 S
C1261 H1249 0.950 . S
C1261 C1257 1.393 . S
C1261 C1260 1.391 1_655 S
C1262 H1252 0.950 . S
C1262 C1263 1.386 . S
C1262 C1264 1.391 . S
C1263 C1262 1.386 . S
C1263 C1267 1.393 . S
C1264 H1253 0.950 . S
C1264 C1262 1.391 . S
C1264 C1265 1.400 . S
C1265 C1259 1.491 . S
C1265 C1264 1.400 . S
C1265 C1266 1.398 . S
C1266 H1254 0.950 . S
C1266 C1265 1.398 . S
C1266 C1267 1.391 . S
C1267 H1255 0.950 . S
C1267 C1263 1.393 . S
C1267 C1266 1.391 . S
H1268 C1276 0.950 . S
H1269 C1281 0.950 . S
H1270 C1278 0.950 . S
H1271 C1280 0.950 . S
H1272 C1282 0.950 . S
H1273 C1284 0.950 . S
H1274 C1286 0.950 . S
H1275 C1287 0.950 . S
C1276 H1268 0.950 . S
C1276 C1277 1.386 . S
C1276 C1278 1.391 . S
C1277 C1276 1.386 . S
C1277 C1281 1.393 . S
C1278 H1270 0.950 . S
C1278 C1276 1.391 . S
C1278 C1279 1.400 . S
C1279 C1278 1.400 . S
C1279 C1280 1.398 . S
C1279 C1285 1.491 . S
C1280 H1271 0.950 . S
C1280 C1279 1.398 . S
C1280 C1281 1.391 . S
C1281 H1269 0.950 . S
C1281 C1277 1.393 . S
C1281 C1280 1.391 . S
C1282 H1272 0.950 . S
C1282 C1283 1.386 . S
C1282 C1284 1.391 . S
C1283 C1282 1.386 . S
C1283 C1287 1.393 . S
C1284 H1273 0.950 . S
C1284 C1282 1.391 . S
C1284 C1285 1.400 . S
C1285 C1279 1.491 . S
C1285 C1284 1.400 . S
C1285 C1286 1.398 . S
C1286 H1274 0.950 . S
C1286 C1285 1.398 . S
C1286 C1287 1.391 . S
C1287 H1275 0.950 . S
C1287 C1283 1.393 . S
C1287 C1286 1.391 . S
H1288 C1296 0.950 . S
H1289 C1301 0.950 . S
H1290 C1298 0.950 1_565 S
H1291 C1300 0.950 1_565 S
H1292 C1302 0.950 . S
H1293 C1304 0.950 . S
H1294 C1306 0.950 . S
H1295 C1307 0.950 . S
C1296 H1288 0.950 . S
C1296 C1297 1.386 . S
C1296 C1298 1.391 . S
C1297 C1296 1.386 . S
C1297 C1301 1.393 . S
C1298 H1290 0.950 1_545 S
C1298 C1296 1.391 . S
C1298 C1299 1.400 1_545 S
C1299 C1298 1.400 1_565 S
C1299 C1300 1.398 1_565 S
C1299 C1305 1.491 . S
C1300 H1291 0.950 1_545 S
C1300 C1299 1.398 1_545 S
C1300 C1301 1.391 . S
C1301 H1289 0.950 . S
C1301 C1297 1.393 . S
C1301 C1300 1.391 . S
C1302 H1292 0.950 . S
C1302 C1303 1.386 . S
C1302 C1304 1.391 . S
C1303 C1302 1.386 . S
C1303 C1307 1.393 . S
C1304 H1293 0.950 . S
C1304 C1302 1.391 . S
C1304 C1305 1.400 . S
C1305 C1299 1.491 . S
C1305 C1304 1.400 . S
C1305 C1306 1.398 . S
C1306 H1294 0.950 . S
C1306 C1305 1.398 . S
C1306 C1307 1.391 . S
C1307 H1295 0.950 . S
C1307 C1303 1.393 . S
C1307 C1306 1.391 . S
H1308 C1316 0.950 . S
H1309 C1321 0.950 . S
H1310 C1318 0.950 . S
H1311 C1320 0.950 . S
H1312 C1322 0.950 . S
H1313 C1324 0.950 . S
H1314 C1326 0.950 . S
H1315 C1327 0.950 . S
C1316 H1308 0.950 . S
C1316 C1317 1.386 . S
C1316 C1318 1.391 . S
C1317 C1316 1.386 . S
C1317 C1321 1.393 . S
C1318 H1310 0.950 . S
C1318 C1316 1.391 . S
C1318 C1319 1.400 . S
C1319 C1318 1.400 . S
C1319 C1320 1.398 . S
C1319 C1325 1.491 . S
C1320 H1311 0.950 . S
C1320 C1319 1.398 . S
C1320 C1321 1.391 . S
C1321 H1309 0.950 . S
C1321 C1317 1.393 . S
C1321 C1320 1.391 . S
C1322 H1312 0.950 . S
C1322 C1323 1.386 . S
C1322 C1324 1.391 . S
C1323 C1322 1.386 . S
C1323 C1327 1.393 . S
C1324 H1313 0.950 . S
C1324 C1322 1.391 . S
C1324 C1325 1.400 . S
C1325 C1319 1.491 . S
C1325 C1324 1.400 . S
C1325 C1326 1.398 . S
C1326 H1314 0.950 . S
C1326 C1325 1.398 . S
C1326 C1327 1.391 . S
C1327 H1315 0.950 . S
C1327 C1323 1.393 . S
C1327 C1326 1.391 . S
H1328 C1336 0.950 . S
H1329 C1341 0.950 . S
H1330 C1338 0.950 . S
H1331 C1340 0.950 . S
H1332 C1342 0.950 . S
H1333 C1344 0.950 . S
H1334 C1346 0.950 . S
H1335 C1347 0.950 . S
C1336 H1328 0.950 . S
C1336 C1337 1.386 . S
C1336 C1338 1.391 . S
C1337 C1336 1.386 . S
C1337 C1341 1.393 . S
C1338 H1330 0.950 . S
C1338 C1336 1.391 . S
C1338 C1339 1.400 . S
C1339 C1338 1.400 . S
C1339 C1340 1.398 . S
C1339 C1345 1.491 . S
C1340 H1331 0.950 . S
C1340 C1339 1.398 . S
C1340 C1341 1.391 . S
C1341 H1329 0.950 . S
C1341 C1337 1.393 . S
C1341 C1340 1.391 . S
C1342 H1332 0.950 . S
C1342 C1343 1.386 . S
C1342 C1344 1.391 . S
C1343 C1342 1.386 . S
C1343 C1347 1.393 . S
C1344 H1333 0.950 . S
C1344 C1342 1.391 . S
C1344 C1345 1.400 . S
C1345 C1339 1.491 . S
C1345 C1344 1.400 . S
C1345 C1346 1.398 . S
C1346 H1334 0.950 . S
C1346 C1345 1.398 . S
C1346 C1347 1.391 . S
C1347 H1335 0.950 . S
C1347 C1343 1.393 . S
C1347 C1346 1.391 . S
H1348 C1356 0.950 . S
H1349 C1361 0.950 . S
H1350 C1358 0.950 . S
H1351 C1360 0.950 . S
H1352 C1362 0.950 . S
H1353 C1364 0.950 . S
H1354 C1366 0.950 . S
H1355 C1367 0.950 . S
C1356 H1348 0.950 . S
C1356 C1357 1.386 . S
C1356 C1358 1.391 . S
C1357 C1356 1.386 . S
C1357 C1361 1.393 . S
C1358 H1350 0.950 . S
C1358 C1356 1.391 . S
C1358 C1359 1.400 . S
C1359 C1358 1.400 . S
C1359 C1360 1.398 . S
C1359 C1365 1.491 . S
C1360 H1351 0.950 . S
C1360 C1359 1.398 . S
C1360 C1361 1.391 . S
C1361 H1349 0.950 . S
C1361 C1357 1.393 . S
C1361 C1360 1.391 . S
C1362 H1352 0.950 . S
C1362 C1363 1.386 . S
C1362 C1364 1.391 . S
C1363 C1362 1.386 . S
C1363 C1367 1.393 . S
C1364 H1353 0.950 . S
C1364 C1362 1.391 . S
C1364 C1365 1.400 . S
C1365 C1359 1.491 . S
C1365 C1364 1.400 . S
C1365 C1366 1.398 . S
C1366 H1354 0.950 . S
C1366 C1365 1.398 . S
C1366 C1367 1.391 . S
C1367 H1355 0.950 . S
C1367 C1363 1.393 . S
C1367 C1366 1.391 . S
H1368 C1376 0.950 . S
H1369 C1381 0.950 . S
H1370 C1378 0.950 . S
H1371 C1380 0.950 . S
H1372 C1382 0.950 . S
H1373 C1384 0.950 . S
H1374 C1386 0.950 . S
H1375 C1387 0.950 . S
C1376 H1368 0.950 . S
C1376 C1377 1.386 . S
C1376 C1378 1.391 . S
C1377 C1376 1.386 . S
C1377 C1381 1.393 . S
C1378 H1370 0.950 . S
C1378 C1376 1.391 . S
C1378 C1379 1.400 . S
C1379 C1378 1.400 . S
C1379 C1380 1.398 . S
C1379 C1385 1.491 . S
C1380 H1371 0.950 . S
C1380 C1379 1.398 . S
C1380 C1381 1.391 . S
C1381 H1369 0.950 . S
C1381 C1377 1.393 . S
C1381 C1380 1.391 . S
C1382 H1372 0.950 . S
C1382 C1383 1.386 . S
C1382 C1384 1.391 . S
C1383 C1382 1.386 . S
C1383 C1387 1.393 . S
C1384 H1373 0.950 . S
C1384 C1382 1.391 . S
C1384 C1385 1.400 . S
C1385 C1379 1.491 . S
C1385 C1384 1.400 . S
C1385 C1386 1.398 . S
C1386 H1374 0.950 . S
C1386 C1385 1.398 . S
C1386 C1387 1.391 . S
C1387 H1375 0.950 . S
C1387 C1383 1.393 . S
C1387 C1386 1.391 . S
H1388 C1396 0.950 . S
H1389 C1401 0.950 . S
H1390 C1398 0.950 . S
H1391 C1400 0.950 . S
H1392 C1402 0.950 . S
H1393 C1404 0.950 . S
H1394 C1406 0.950 . S
H1395 C1407 0.950 . S
C1396 H1388 0.950 . S
C1396 C1397 1.386 . S
C1396 C1398 1.391 . S
C1397 C1396 1.386 . S
C1397 C1401 1.393 . S
C1398 H1390 0.950 . S
C1398 C1396 1.391 . S
C1398 C1399 1.400 . S
C1399 C1398 1.400 . S
C1399 C1400 1.398 . S
C1399 C1405 1.491 . S
C1400 H1391 0.950 . S
C1400 C1399 1.398 . S
C1400 C1401 1.391 . S
C1401 H1389 0.950 . S
C1401 C1397 1.393 . S
C1401 C1400 1.391 . S
C1402 H1392 0.950 . S
C1402 C1403 1.386 . S
C1402 C1404 1.391 . S
C1403 C1402 1.386 . S
C1403 C1407 1.393 . S
C1404 H1393 0.950 . S
C1404 C1402 1.391 . S
C1404 C1405 1.400 . S
C1405 C1399 1.491 . S
C1405 C1404 1.400 . S
C1405 C1406 1.398 . S
C1406 H1394 0.950 . S
C1406 C1405 1.398 . S
C1406 C1407 1.391 . S
C1407 H1395 0.950 . S
C1407 C1403 1.393 . S
C1407 C1406 1.391 . S
H1408 C1416 0.950 . S
H1409 C1421 0.950 . S
H1410 C1418 0.950 . S
H1411 C1420 0.950 . S
H1412 C1422 0.950 . S
H1413 C1424 0.950 . S
H1414 C1426 0.950 . S
H1415 C1427 0.950 . S
C1416 H1408 0.950 . S
C1416 C1417 1.386 . S
C1416 C1418 1.391 . S
C1417 C1416 1.386 . S
C1417 C1421 1.393 . S
C1418 H1410 0.950 . S
C1418 C1416 1.391 . S
C1418 C1419 1.400 . S
C1419 C1418 1.400 . S
C1419 C1420 1.398 . S
C1419 C1425 1.491 . S
C1420 H1411 0.950 . S
C1420 C1419 1.398 . S
C1420 C1421 1.391 . S
C1421 H1409 0.950 . S
C1421 C1417 1.393 . S
C1421 C1420 1.391 . S
C1422 H1412 0.950 . S
C1422 C1423 1.386 . S
C1422 C1424 1.391 . S
C1423 C1422 1.386 . S
C1423 C1427 1.393 . S
C1424 H1413 0.950 . S
C1424 C1422 1.391 . S
C1424 C1425 1.400 . S
C1425 C1419 1.491 . S
C1425 C1424 1.400 . S
C1425 C1426 1.398 . S
C1426 H1414 0.950 . S
C1426 C1425 1.398 . S
C1426 C1427 1.391 . S
C1427 H1415 0.950 . S
C1427 C1423 1.393 . S
C1427 C1426 1.391 . S
H1428 C1436 0.950 . S
H1429 C1441 0.950 . S
H1430 C1438 0.949 1_565 S
H1431 C1440 0.950 . S
H1432 C1442 0.950 . S
H1433 C1444 0.950 . S
H1434 C1446 0.950 . S
H1435 C1447 0.950 . S
C1436 H1428 0.950 . S
C1436 C1437 1.386 . S
C1436 C1438 1.434 . S
C1437 C1436 1.386 . S
C1437 C1441 1.393 . S
C1438 H1430 0.949 1_545 S
C1438 C1436 1.434 . S
C1438 C1439 1.360 1_545 S
C1439 C1438 1.360 1_565 S
C1439 C1440 1.398 . S
C1439 C1445 1.491 . S
C1440 H1431 0.950 . S
C1440 C1439 1.398 . S
C1440 C1441 1.391 1_565 S
C1441 H1429 0.950 . S
C1441 C1437 1.393 . S
C1441 C1440 1.391 1_545 S
C1442 H1432 0.950 . S
C1442 C1443 1.386 . S
C1442 C1444 1.391 . S
C1443 C1442 1.386 . S
C1443 C1447 1.393 . S
C1444 H1433 0.950 . S
C1444 C1442 1.391 . S
C1444 C1445 1.400 . S
C1445 C1439 1.491 . S
C1445 C1444 1.400 . S
C1445 C1446 1.398 . S
C1446 H1434 0.950 . S
C1446 C1445 1.398 . S
C1446 C1447 1.391 . S
C1447 H1435 0.950 . S
C1447 C1443 1.393 . S
C1447 C1446 1.391 . S
H1448 C1456 0.950 . S
H1449 C1461 0.950 . S
H1450 C1458 0.950 . S
H1451 C1460 0.950 . S
H1452 C1462 0.950 . S
H1453 C1464 0.950 . S
H1454 C1466 0.950 . S
H1455 C1467 0.950 . S
C1456 H1448 0.950 . S
C1456 C1457 1.386 1_455 S
C1456 C1458 1.391 . S
C1457 C1456 1.386 1_655 S
C1457 C1461 1.393 . S
C1458 H1450 0.950 . S
C1458 C1456 1.391 . S
C1458 C1459 1.400 . S
C1459 C1458 1.400 . S
C1459 C1460 1.398 . S
C1459 C1465 1.491 . S
C1460 H1451 0.950 . S
C1460 C1459 1.398 . S
C1460 C1461 1.391 1_455 S
C1461 H1449 0.950 . S
C1461 C1457 1.393 . S
C1461 C1460 1.391 1_655 S
C1462 H1452 0.950 . S
C1462 C1463 1.386 . S
C1462 C1464 1.391 . S
C1463 C1462 1.386 . S
C1463 C1467 1.393 . S
C1464 H1453 0.950 . S
C1464 C1462 1.391 . S
C1464 C1465 1.400 . S
C1465 C1459 1.491 . S
C1465 C1464 1.400 . S
C1465 C1466 1.398 . S
C1466 H1454 0.950 . S
C1466 C1465 1.398 . S
C1466 C1467 1.391 . S
C1467 H1455 0.950 . S
C1467 C1463 1.393 . S
C1467 C1466 1.391 . S
H1468 C1476 0.950 . S
H1469 C1481 0.950 . S
H1470 C1478 0.950 . S
H1471 C1480 0.950 . S
H1472 C1482 0.950 . S
H1473 C1484 0.950 . S
H1474 C1486 0.950 . S
H1475 C1487 0.950 . S
C1476 H1468 0.950 . S
C1476 C1477 1.386 . S
C1476 C1478 1.391 . S
C1477 C1476 1.386 . S
C1477 C1481 1.393 . S
C1478 H1470 0.950 . S
C1478 C1476 1.391 . S
C1478 C1479 1.400 . S
C1479 C1478 1.400 . S
C1479 C1480 1.398 . S
C1479 C1485 1.491 . S
C1480 H1471 0.950 . S
C1480 C1479 1.398 . S
C1480 C1481 1.391 . S
C1481 H1469 0.950 . S
C1481 C1477 1.393 . S
C1481 C1480 1.391 . S
C1482 H1472 0.950 . S
C1482 C1483 1.386 . S
C1482 C1484 1.391 . S
C1483 C1482 1.386 . S
C1483 C1487 1.393 . S
C1484 H1473 0.950 . S
C1484 C1482 1.391 . S
C1484 C1485 1.400 . S
C1485 C1479 1.491 . S
C1485 C1484 1.400 . S
C1485 C1486 1.398 . S
C1486 H1474 0.950 . S
C1486 C1485 1.398 . S
C1486 C1487 1.391 . S
C1487 H1475 0.950 . S
C1487 C1483 1.393 . S
C1487 C1486 1.391 . S
H1488 C1496 0.950 . S
H1489 C1501 0.950 . S
H1490 C1498 0.950 . S
H1491 C1500 0.950 . S
H1492 C1502 0.950 . S
H1493 C1504 0.950 . S
H1494 C1506 0.950 . S
H1495 C1507 0.950 . S
C1496 H1488 0.950 . S
C1496 C1497 1.386 . S
C1496 C1498 1.391 . S
C1497 C1496 1.386 . S
C1497 C1501 1.393 . S
C1498 H1490 0.950 . S
C1498 C1496 1.391 . S
C1498 C1499 1.400 . S
C1499 C1498 1.400 . S
C1499 C1500 1.398 . S
C1499 C1505 1.491 . S
C1500 H1491 0.950 . S
C1500 C1499 1.398 . S
C1500 C1501 1.391 . S
C1501 H1489 0.950 . S
C1501 C1497 1.393 . S
C1501 C1500 1.391 . S
C1502 H1492 0.950 . S
C1502 C1503 1.386 . S
C1502 C1504 1.391 . S
C1503 C1502 1.386 . S
C1503 C1507 1.393 . S
C1504 H1493 0.950 . S
C1504 C1502 1.391 . S
C1504 C1505 1.400 . S
C1505 C1499 1.491 . S
C1505 C1504 1.400 . S
C1505 C1506 1.398 . S
C1506 H1494 0.950 . S
C1506 C1505 1.398 . S
C1506 C1507 1.391 . S
C1507 H1495 0.950 . S
C1507 C1503 1.393 . S
C1507 C1506 1.391 . S
H1508 C1516 0.950 . S
H1509 C1521 0.950 . S
H1510 C1518 0.950 . S
H1511 C1520 0.950 . S
H1512 C1522 0.950 . S
H1513 C1524 0.950 . S
H1514 C1526 0.950 . S
H1515 C1527 0.950 . S
C1516 H1508 0.950 . S
C1516 C1517 1.386 . S
C1516 C1518 1.391 . S
C1517 C1516 1.386 . S
C1517 C1521 1.393 . S
C1518 H1510 0.950 . S
C1518 C1516 1.391 . S
C1518 C1519 1.400 . S
C1519 C1518 1.400 . S
C1519 C1520 1.398 . S
C1519 C1525 1.491 . S
C1520 H1511 0.950 . S
C1520 C1519 1.398 . S
C1520 C1521 1.391 . S
C1521 H1509 0.950 . S
C1521 C1517 1.393 . S
C1521 C1520 1.391 . S
C1522 H1512 0.950 . S
C1522 C1523 1.386 . S
C1522 C1524 1.391 . S
C1523 C1522 1.386 . S
C1523 C1527 1.393 . S
C1524 H1513 0.950 . S
C1524 C1522 1.391 . S
C1524 C1525 1.400 . S
C1525 C1519 1.491 . S
C1525 C1524 1.400 . S
C1525 C1526 1.398 . S
C1526 H1514 0.950 . S
C1526 C1525 1.398 . S
C1526 C1527 1.391 . S
C1527 H1515 0.950 . S
C1527 C1523 1.393 . S
C1527 C1526 1.391 . S
H1528 C1536 0.950 . S
H1529 C1541 0.950 . S
H1530 C1538 0.950 . S
H1531 C1540 0.950 . S
H1532 C1542 0.950 . S
H1533 C1544 0.950 . S
H1534 C1546 0.950 . S
H1535 C1547 0.950 . S
C1536 H1528 0.950 . S
C1536 C1537 1.386 . S
C1536 C1538 1.391 . S
C1537 C1536 1.386 . S
C1537 C1541 1.393 . S
C1538 H1530 0.950 . S
C1538 C1536 1.391 . S
C1538 C1539 1.400 . S
C1539 C1538 1.400 . S
C1539 C1540 1.398 . S
C1539 C1545 1.491 . S
C1540 H1531 0.950 . S
C1540 C1539 1.398 . S
C1540 C1541 1.391 . S
C1541 H1529 0.950 . S
C1541 C1537 1.393 . S
C1541 C1540 1.391 . S
C1542 H1532 0.950 . S
C1542 C1543 1.386 . S
C1542 C1544 1.391 . S
C1543 C1542 1.386 . S
C1543 C1547 1.393 . S
C1544 H1533 0.950 . S
C1544 C1542 1.391 . S
C1544 C1545 1.400 . S
C1545 C1539 1.491 . S
C1545 C1544 1.400 . S
C1545 C1546 1.398 . S
C1546 H1534 0.950 . S
C1546 C1545 1.398 . S
C1546 C1547 1.391 . S
C1547 H1535 0.950 . S
C1547 C1543 1.393 . S
C1547 C1546 1.391 . S
H1548 C1556 0.950 . S
H1549 C1561 0.950 . S
H1550 C1558 0.950 . S
H1551 C1560 0.935 1_545 S
H1552 C1562 0.950 . S
H1553 C1564 0.950 . S
H1554 C1566 0.950 . S
H1555 C1567 0.950 . S
C1556 H1548 0.950 . S
C1556 C1557 1.386 . S
C1556 C1558 1.391 1_565 S
C1557 C1556 1.386 . S
C1557 C1561 1.393 . S
C1558 H1550 0.950 . S
C1558 C1556 1.391 1_545 S
C1558 C1559 1.400 . S
C1559 C1558 1.400 . S
C1559 C1560 1.384 1_545 S
C1559 C1565 1.491 . S
C1560 H1551 0.935 1_565 S
C1560 C1559 1.384 1_565 S
C1560 C1561 1.421 . S
C1561 H1549 0.950 . S
C1561 C1557 1.393 . S
C1561 C1560 1.421 . S
C1562 H1552 0.950 . S
C1562 C1563 1.386 . S
C1562 C1564 1.391 . S
C1563 C1562 1.386 . S
C1563 C1567 1.393 . S
C1564 H1553 0.950 . S
C1564 C1562 1.391 . S
C1564 C1565 1.400 . S
C1565 C1559 1.491 . S
C1565 C1564 1.400 . S
C1565 C1566 1.398 . S
C1566 H1554 0.950 . S
C1566 C1565 1.398 . S
C1566 C1567 1.391 . S
C1567 H1555 0.950 . S
C1567 C1563 1.393 . S
C1567 C1566 1.391 . S
H1568 C1576 0.950 . S
H1569 C1581 0.950 . S
H1570 C1578 0.950 . S
H1571 C1580 0.950 . S
H1572 C1582 0.950 . S
H1573 C1584 0.950 . S
H1574 C1586 0.950 . S
H1575 C1587 0.950 . S
C1576 H1568 0.950 . S
C1576 C1577 1.386 . S
C1576 C1578 1.391 1_455 S
C1577 C1576 1.386 . S
C1577 C1581 1.393 1_455 S
C1578 H1570 0.950 . S
C1578 C1576 1.391 1_655 S
C1578 C1579 1.400 . S
C1579 C1578 1.400 . S
C1579 C1580 1.398 . S
C1579 C1585 1.491 . S
C1580 H1571 0.950 . S
C1580 C1579 1.398 . S
C1580 C1581 1.391 . S
C1581 H1569 0.950 . S
C1581 C1577 1.393 1_655 S
C1581 C1580 1.391 . S
C1582 H1572 0.950 . S
C1582 C1583 1.386 . S
C1582 C1584 1.391 . S
C1583 C1582 1.386 . S
C1583 C1587 1.393 . S
C1584 H1573 0.950 . S
C1584 C1582 1.391 . S
C1584 C1585 1.400 . S
C1585 C1579 1.491 . S
C1585 C1584 1.400 . S
C1585 C1586 1.398 . S
C1586 H1574 0.950 . S
C1586 C1585 1.398 . S
C1586 C1587 1.391 . S
C1587 H1575 0.950 . S
C1587 C1583 1.393 . S
C1587 C1586 1.391 . S
H1588 C1596 0.950 . S
H1589 C1601 0.950 . S
H1590 C1598 0.950 . S
H1591 C1600 0.950 . S
H1592 C1602 0.950 . S
H1593 C1604 0.950 . S
H1594 C1606 0.950 . S
H1595 C1607 0.950 . S
C1596 H1588 0.950 . S
C1596 C1597 1.386 . S
C1596 C1598 1.391 . S
C1597 C1596 1.386 . S
C1597 C1601 1.393 . S
C1598 H1590 0.950 . S
C1598 C1596 1.391 . S
C1598 C1599 1.400 . S
C1599 C1598 1.400 . S
C1599 C1600 1.398 . S
C1599 C1605 1.491 . S
C1600 H1591 0.950 . S
C1600 C1599 1.398 . S
C1600 C1601 1.391 . S
C1601 H1589 0.950 . S
C1601 C1597 1.393 . S
C1601 C1600 1.391 . S
C1602 H1592 0.950 . S
C1602 C1603 1.386 . S
C1602 C1604 1.391 . S
C1603 C1602 1.386 . S
C1603 C1607 1.393 . S
C1604 H1593 0.950 . S
C1604 C1602 1.391 . S
C1604 C1605 1.400 . S
C1605 C1599 1.491 . S
C1605 C1604 1.400 . S
C1605 C1606 1.398 . S
C1606 H1594 0.950 . S
C1606 C1605 1.398 . S
C1606 C1607 1.391 . S
C1607 H1595 0.950 . S
C1607 C1603 1.393 . S
C1607 C1606 1.391 . S
H1608 C1616 0.950 . S
H1609 C1621 0.950 . S
H1610 C1618 0.950 . S
H1611 C1620 0.950 . S
H1612 C1622 0.950 . S
H1613 C1624 0.950 . S
H1614 C1626 0.950 . S
H1615 C1627 0.950 . S
C1616 H1608 0.950 . S
C1616 C1617 1.386 . S
C1616 C1618 1.391 1_455 S
C1617 C1616 1.386 . S
C1617 C1621 1.393 . S
C1618 H1610 0.950 . S
C1618 C1616 1.391 1_655 S
C1618 C1619 1.400 . S
C1619 C1618 1.400 . S
C1619 C1620 1.398 . S
C1619 C1625 1.491 . S
C1620 H1611 0.950 . S
C1620 C1619 1.398 . S
C1620 C1621 1.391 1_655 S
C1621 H1609 0.950 . S
C1621 C1617 1.393 . S
C1621 C1620 1.391 1_455 S
C1622 H1612 0.950 . S
C1622 C1623 1.386 . S
C1622 C1624 1.391 . S
C1623 C1622 1.386 . S
C1623 C1627 1.393 . S
C1624 H1613 0.950 . S
C1624 C1622 1.391 . S
C1624 C1625 1.400 . S
C1625 C1619 1.491 . S
C1625 C1624 1.400 . S
C1625 C1626 1.398 . S
C1626 H1614 0.950 . S
C1626 C1625 1.398 . S
C1626 C1627 1.391 . S
C1627 H1615 0.950 . S
C1627 C1623 1.393 . S
C1627 C1626 1.391 . S
H1628 C1636 0.950 . S
H1629 C1641 0.950 . S
H1630 C1638 0.950 . S
H1631 C1640 0.950 . S
H1632 C1642 0.950 . S
H1633 C1644 0.950 . S
H1634 C1646 0.950 . S
H1635 C1647 0.950 . S
C1636 H1628 0.950 . S
C1636 C1637 1.386 . S
C1636 C1638 1.391 . S
C1637 C1636 1.386 . S
C1637 C1641 1.393 . S
C1638 H1630 0.950 . S
C1638 C1636 1.391 . S
C1638 C1639 1.400 . S
C1639 C1638 1.400 . S
C1639 C1640 1.398 . S
C1639 C1645 1.491 . S
C1640 H1631 0.950 . S
C1640 C1639 1.398 . S
C1640 C1641 1.391 . S
C1641 H1629 0.950 . S
C1641 C1637 1.393 . S
C1641 C1640 1.391 . S
C1642 H1632 0.950 . S
C1642 C1643 1.386 . S
C1642 C1644 1.391 . S
C1643 C1642 1.386 . S
C1643 C1647 1.393 . S
C1644 H1633 0.950 . S
C1644 C1642 1.391 . S
C1644 C1645 1.400 . S
C1645 C1639 1.491 . S
C1645 C1644 1.400 . S
C1645 C1646 1.398 . S
C1646 H1634 0.950 . S
C1646 C1645 1.398 . S
C1646 C1647 1.391 . S
C1647 H1635 0.950 . S
C1647 C1643 1.393 . S
C1647 C1646 1.391 . S
H1648 C1656 0.950 . S
H1649 C1661 0.950 . S
H1650 C1658 0.950 1_545 S
H1651 C1660 0.906 1_545 S
H1652 C1662 0.950 . S
H1653 C1664 0.950 . S
H1654 C1666 0.950 . S
H1655 C1667 0.950 . S
C1656 H1648 0.950 . S
C1656 C1657 1.386 . S
C1656 C1658 1.391 . S
C1657 C1656 1.386 . S
C1657 C1661 1.393 . S
C1658 H1650 0.950 1_565 S
C1658 C1656 1.391 . S
C1658 C1659 1.400 1_565 S
C1659 C1658 1.400 1_545 S
C1659 C1660 1.400 1_545 S
C1659 C1665 1.491 . S
C1660 H1651 0.906 1_565 S
C1660 C1659 1.400 1_565 S
C1660 C1661 1.433 . S
C1661 H1649 0.950 . S
C1661 C1657 1.393 . S
C1661 C1660 1.433 . S
C1662 H1652 0.950 . S
C1662 C1663 1.386 . S
C1662 C1664 1.391 . S
C1663 C1662 1.386 . S
C1663 C1667 1.393 . S
C1664 H1653 0.950 . S
C1664 C1662 1.391 . S
C1664 C1665 1.400 . S
C1665 C1659 1.491 . S
C1665 C1664 1.400 . S
C1665 C1666 1.398 . S
C1666 H1654 0.950 . S
C1666 C1665 1.398 . S
C1666 C1667 1.391 . S
C1667 H1655 0.950 . S
C1667 C1663 1.393 . S
C1667 C1666 1.391 . S
H1668 C1676 0.950 . S
H1669 C1681 0.950 . S
H1670 C1678 0.950 . S
H1671 C1680 0.950 . S
H1672 C1682 0.950 . S
H1673 C1684 0.950 . S
H1674 C1686 0.950 . S
H1675 C1687 0.950 . S
C1676 H1668 0.950 . S
C1676 C1677 1.386 . S
C1676 C1678 1.391 . S
C1677 C1676 1.386 . S
C1677 C1681 1.393 . S
C1678 H1670 0.950 . S
C1678 C1676 1.391 . S
C1678 C1679 1.400 . S
C1679 C1678 1.400 . S
C1679 C1680 1.398 . S
C1679 C1685 1.491 . S
C1680 H1671 0.950 . S
C1680 C1679 1.398 . S
C1680 C1681 1.391 . S
C1681 H1669 0.950 . S
C1681 C1677 1.393 . S
C1681 C1680 1.391 . S
C1682 H1672 0.950 . S
C1682 C1683 1.386 . S
C1682 C1684 1.391 . S
C1683 C1682 1.386 . S
C1683 C1687 1.393 . S
C1684 H1673 0.950 . S
C1684 C1682 1.391 . S
C1684 C1685 1.400 . S
C1685 C1679 1.491 . S
C1685 C1684 1.400 . S
C1685 C1686 1.398 . S
C1686 H1674 0.950 . S
C1686 C1685 1.398 . S
C1686 C1687 1.391 . S
C1687 H1675 0.950 . S
C1687 C1683 1.393 . S
C1687 C1686 1.391 . S
H1688 C1696 0.950 . S
H1689 C1701 0.950 . S
H1690 C1698 0.950 . S
H1691 C1700 0.950 . S
H1692 C1702 0.950 . S
H1693 C1704 0.950 . S
H1694 C1706 0.950 . S
H1695 C1707 0.950 . S
C1696 H1688 0.950 . S
C1696 C1697 1.386 . S
C1696 C1698 1.391 . S
C1697 C1696 1.386 . S
C1697 C1701 1.393 . S
C1698 H1690 0.950 . S
C1698 C1696 1.391 . S
C1698 C1699 1.400 . S
C1699 C1698 1.400 . S
C1699 C1700 1.398 . S
C1699 C1705 1.491 . S
C1700 H1691 0.950 . S
C1700 C1699 1.398 . S
C1700 C1701 1.391 . S
C1701 H1689 0.950 . S
C1701 C1697 1.393 . S
C1701 C1700 1.391 . S
C1702 H1692 0.950 . S
C1702 C1703 1.386 . S
C1702 C1704 1.391 . S
C1703 C1702 1.386 . S
C1703 C1707 1.393 . S
C1704 H1693 0.950 . S
C1704 C1702 1.391 . S
C1704 C1705 1.400 . S
C1705 C1699 1.491 . S
C1705 C1704 1.400 . S
C1705 C1706 1.398 . S
C1706 H1694 0.950 . S
C1706 C1705 1.398 . S
C1706 C1707 1.391 . S
C1707 H1695 0.950 . S
C1707 C1703 1.393 . S
C1707 C1706 1.391 . S
H1708 C1716 0.950 . S
H1709 C1721 0.950 . S
H1710 C1718 0.950 . S
H1711 C1720 0.950 . S
H1712 C1722 0.950 . S
H1713 C1724 0.950 . S
H1714 C1726 0.950 . S
H1715 C1727 0.950 . S
C1716 H1708 0.950 . S
C1716 C1717 1.386 . S
C1716 C1718 1.391 . S
C1717 C1716 1.386 . S
C1717 C1721 1.393 . S
C1718 H1710 0.950 . S
C1718 C1716 1.391 . S
C1718 C1719 1.400 . S
C1719 C1718 1.400 . S
C1719 C1720 1.398 . S
C1719 C1725 1.491 . S
C1720 H1711 0.950 . S
C1720 C1719 1.398 . S
C1720 C1721 1.391 . S
C1721 H1709 0.950 . S
C1721 C1717 1.393 . S
C1721 C1720 1.391 . S
C1722 H1712 0.950 . S
C1722 C1723 1.386 . S
C1722 C1724 1.391 . S
C1723 C1722 1.386 . S
C1723 C1727 1.393 . S
C1724 H1713 0.950 . S
C1724 C1722 1.391 . S
C1724 C1725 1.400 . S
C1725 C1719 1.491 . S
C1725 C1724 1.400 . S
C1725 C1726 1.398 . S
C1726 H1714 0.950 . S
C1726 C1725 1.398 . S
C1726 C1727 1.391 . S
C1727 H1715 0.950 . S
C1727 C1723 1.393 . S
C1727 C1726 1.391 . S
H1728 C1736 0.950 . S
H1729 C1741 0.950 1_545 S
H1730 C1738 0.950 . S
H1731 C1740 0.950 1_545 S
H1732 C1742 0.950 . S
H1733 C1744 0.950 . S
H1734 C1746 0.950 . S
H1735 C1747 0.950 . S
C1736 H1728 0.950 . S
C1736 C1737 1.386 . S
C1736 C1738 1.391 . S
C1737 C1736 1.386 . S
C1737 C1741 1.393 . S
C1738 H1730 0.950 . S
C1738 C1736 1.391 . S
C1738 C1739 1.400 . S
C1739 C1738 1.400 . S
C1739 C1740 1.398 . S
C1739 C1745 1.491 . S
C1740 H1731 0.950 1_565 S
C1740 C1739 1.398 . S
C1740 C1741 1.391 . S
C1741 H1729 0.950 1_565 S
C1741 C1737 1.393 . S
C1741 C1740 1.391 . S
C1742 H1732 0.950 . S
C1742 C1743 1.386 1_545 S
C1742 C1744 1.391 . S
C1743 C1742 1.386 1_565 S
C1743 C1747 1.393 . S
C1744 H1733 0.950 . S
C1744 C1742 1.391 . S
C1744 C1745 1.400 1_545 S
C1745 C1739 1.491 . S
C1745 C1744 1.400 1_565 S
C1745 C1746 1.398 . S
C1746 H1734 0.950 . S
C1746 C1745 1.398 . S
C1746 C1747 1.391 . S
C1747 H1735 0.950 . S
C1747 C1743 1.393 . S
C1747 C1746 1.391 . S
H1748 C1756 0.950 . S
H1749 C1761 0.950 . S
H1750 C1758 0.950 . S
H1751 C1760 0.950 . S
H1752 C1762 0.950 . S
H1753 C1764 0.950 . S
H1754 C1766 0.950 . S
H1755 C1767 0.950 . S
C1756 H1748 0.950 . S
C1756 C1757 1.386 . S
C1756 C1758 1.391 . S
C1757 C1756 1.386 . S
C1757 C1761 1.393 1_455 S
C1758 H1750 0.950 . S
C1758 C1756 1.391 . S
C1758 C1759 1.400 . S
C1759 C1758 1.400 . S
C1759 C1760 1.398 1_455 S
C1759 C1765 1.491 . S
C1760 H1751 0.950 . S
C1760 C1759 1.398 1_655 S
C1760 C1761 1.391 . S
C1761 H1749 0.950 . S
C1761 C1757 1.393 1_655 S
C1761 C1760 1.391 . S
C1762 H1752 0.950 . S
C1762 C1763 1.386 1_655 S
C1762 C1764 1.391 . S
C1763 C1762 1.386 1_455 S
C1763 C1767 1.393 . S
C1764 H1753 0.950 . S
C1764 C1762 1.391 . S
C1764 C1765 1.400 1_655 S
C1765 C1759 1.491 . S
C1765 C1764 1.400 1_455 S
C1765 C1766 1.398 . S
C1766 H1754 0.950 . S
C1766 C1765 1.398 . S
C1766 C1767 1.391 . S
C1767 H1755 0.950 . S
C1767 C1763 1.393 . S
C1767 C1766 1.391 . S
H1768 C1776 0.950 . S
H1769 C1781 0.950 . S
H1770 C1778 0.950 . S
H1771 C1780 0.950 . S
H1772 C1782 0.950 . S
H1773 C1784 0.950 . S
H1774 C1786 0.950 . S
H1775 C1787 0.950 . S
C1776 H1768 0.950 . S
C1776 C1777 1.386 . S
C1776 C1778 1.391 . S
C1777 C1776 1.386 . S
C1777 C1781 1.393 . S
C1778 H1770 0.950 . S
C1778 C1776 1.391 . S
C1778 C1779 1.400 . S
C1779 C1778 1.400 . S
C1779 C1780 1.398 . S
C1779 C1785 1.491 . S
C1780 H1771 0.950 . S
C1780 C1779 1.398 . S
C1780 C1781 1.391 . S
C1781 H1769 0.950 . S
C1781 C1777 1.393 . S
C1781 C1780 1.391 . S
C1782 H1772 0.950 . S
C1782 C1783 1.386 . S
C1782 C1784 1.391 . S
C1783 C1782 1.386 . S
C1783 C1787 1.393 . S
C1784 H1773 0.950 . S
C1784 C1782 1.391 . S
C1784 C1785 1.400 . S
C1785 C1779 1.491 . S
C1785 C1784 1.400 . S
C1785 C1786 1.398 . S
C1786 H1774 0.950 . S
C1786 C1785 1.398 . S
C1786 C1787 1.391 . S
C1787 H1775 0.950 . S
C1787 C1783 1.393 . S
C1787 C1786 1.391 . S
H1788 C1796 0.946 . S
H1789 C1801 0.950 . S
H1790 C1798 0.950 1_455 S
H1791 C1800 0.950 . S
H1792 C1802 0.950 . S
H1793 C1804 0.950 . S
H1794 C1806 0.950 . S
H1795 C1807 0.950 . S
C1796 H1788 0.946 . S
C1796 C1797 1.388 1_455 S
C1796 C1798 1.392 1_455 S
C1797 C1796 1.388 1_655 S
C1797 C1801 1.393 . S
C1798 H1790 0.950 1_655 S
C1798 C1796 1.392 1_655 S
C1798 C1799 1.400 . S
C1799 C1798 1.400 . S
C1799 C1800 1.398 . S
C1799 C1805 1.491 . S
C1800 H1791 0.950 . S
C1800 C1799 1.398 . S
C1800 C1801 1.391 . S
C1801 H1789 0.950 . S
C1801 C1797 1.393 . S
C1801 C1800 1.391 . S
C1802 H1792 0.950 . S
C1802 C1803 1.386 . S
C1802 C1804 1.391 . S
C1803 C1802 1.386 . S
C1803 C1807 1.393 . S
C1804 H1793 0.950 . S
C1804 C1802 1.391 . S
C1804 C1805 1.400 . S
C1805 C1799 1.491 . S
C1805 C1804 1.400 . S
C1805 C1806 1.398 . S
C1806 H1794 0.950 . S
C1806 C1805 1.398 . S
C1806 C1807 1.391 . S
C1807 H1795 0.950 . S
C1807 C1803 1.393 . S
C1807 C1806 1.391 . S
H1808 C1816 0.950 . S
H1809 C1821 0.950 . S
H1810 C1818 0.950 . S
H1811 C1820 0.950 . S
H1812 C1822 0.950 . S
H1813 C1824 0.950 . S
H1814 C1826 0.950 . S
H1815 C1827 0.950 . S
C1816 H1808 0.950 . S
C1816 C1817 1.386 . S
C1816 C1818 1.391 . S
C1817 C1816 1.386 . S
C1817 C1821 1.393 . S
C1818 H1810 0.950 . S
C1818 C1816 1.391 . S
C1818 C1819 1.400 . S
C1819 C1818 1.400 . S
C1819 C1820 1.398 . S
C1819 C1825 1.491 . S
C1820 H1811 0.950 . S
C1820 C1819 1.398 . S
C1820 C1821 1.391 . S
C1821 H1809 0.950 . S
C1821 C1817 1.393 . S
C1821 C1820 1.391 . S
C1822 H1812 0.950 . S
C1822 C1823 1.386 . S
C1822 C1824 1.391 . S
C1823 C1822 1.386 . S
C1823 C1827 1.393 . S
C1824 H1813 0.950 . S
C1824 C1822 1.391 . S
C1824 C1825 1.400 . S
C1825 C1819 1.491 . S
C1825 C1824 1.400 . S
C1825 C1826 1.398 . S
C1826 H1814 0.950 . S
C1826 C1825 1.398 . S
C1826 C1827 1.391 . S
C1827 H1815 0.950 . S
C1827 C1823 1.393 . S
C1827 C1826 1.391 . S
H1828 C1836 0.950 . S
H1829 C1841 0.950 . S
H1830 C1838 0.950 . S
H1831 C1840 0.950 . S
H1832 C1842 0.952 1_565 S
H1833 C1844 0.950 . S
H1834 C1846 0.950 . S
H1835 C1847 0.950 . S
C1836 H1828 0.950 . S
C1836 C1837 1.386 . S
C1836 C1838 1.391 . S
C1837 C1836 1.386 . S
C1837 C1841 1.393 . S
C1838 H1830 0.950 . S
C1838 C1836 1.391 . S
C1838 C1839 1.400 . S
C1839 C1838 1.400 . S
C1839 C1840 1.398 . S
C1839 C1845 1.491 . S
C1840 H1831 0.950 . S
C1840 C1839 1.398 . S
C1840 C1841 1.391 . S
C1841 H1829 0.950 . S
C1841 C1837 1.393 . S
C1841 C1840 1.391 . S
C1842 H1832 0.952 1_545 S
C1842 C1843 1.386 . S
C1842 C1844 1.391 . S
C1843 C1842 1.386 . S
C1843 C1847 1.393 . S
C1844 H1833 0.950 . S
C1844 C1842 1.391 . S
C1844 C1845 1.400 . S
C1845 C1839 1.491 . S
C1845 C1844 1.400 . S
C1845 C1846 1.398 . S
C1846 H1834 0.950 . S
C1846 C1845 1.398 . S
C1846 C1847 1.391 . S
C1847 H1835 0.950 . S
C1847 C1843 1.393 . S
C1847 C1846 1.391 . S
H1848 C1856 0.950 . S
H1849 C1861 0.950 . S
H1850 C1858 0.950 . S
H1851 C1860 0.950 . S
H1852 C1862 0.950 . S
H1853 C1864 0.950 . S
H1854 C1866 0.950 . S
H1855 C1867 0.950 . S
C1856 H1848 0.950 . S
C1856 C1857 1.386 . S
C1856 C1858 1.391 . S
C1857 C1856 1.386 . S
C1857 C1861 1.393 . S
C1858 H1850 0.950 . S
C1858 C1856 1.391 . S
C1858 C1859 1.400 . S
C1859 C1858 1.400 . S
C1859 C1860 1.398 . S
C1859 C1865 1.491 . S
C1860 H1851 0.950 . S
C1860 C1859 1.398 . S
C1860 C1861 1.391 . S
C1861 H1849 0.950 . S
C1861 C1857 1.393 . S
C1861 C1860 1.391 . S
C1862 H1852 0.950 . S
C1862 C1863 1.386 . S
C1862 C1864 1.391 . S
C1863 C1862 1.386 . S
C1863 C1867 1.393 . S
C1864 H1853 0.950 . S
C1864 C1862 1.391 . S
C1864 C1865 1.400 . S
C1865 C1859 1.491 . S
C1865 C1864 1.400 . S
C1865 C1866 1.398 . S
C1866 H1854 0.950 . S
C1866 C1865 1.398 . S
C1866 C1867 1.391 . S
C1867 H1855 0.950 . S
C1867 C1863 1.393 . S
C1867 C1866 1.391 . S
H1868 C1876 0.950 . S
H1869 C1881 0.950 . S
H1870 C1878 0.950 . S
H1871 C1880 0.950 . S
H1872 C1882 0.950 . S
H1873 C1884 0.950 . S
H1874 C1886 0.950 . S
H1875 C1887 0.950 . S
C1876 H1868 0.950 . S
C1876 C1877 1.386 . S
C1876 C1878 1.391 . S
C1877 C1876 1.386 . S
C1877 C1881 1.393 . S
C1878 H1870 0.950 . S
C1878 C1876 1.391 . S
C1878 C1879 1.400 . S
C1879 C1878 1.400 . S
C1879 C1880 1.398 . S
C1879 C1885 1.491 . S
C1880 H1871 0.950 . S
C1880 C1879 1.398 . S
C1880 C1881 1.391 . S
C1881 H1869 0.950 . S
C1881 C1877 1.393 . S
C1881 C1880 1.391 . S
C1882 H1872 0.950 . S
C1882 C1883 1.386 . S
C1882 C1884 1.391 . S
C1883 C1882 1.386 . S
C1883 C1887 1.393 . S
C1884 H1873 0.950 . S
C1884 C1882 1.391 . S
C1884 C1885 1.400 . S
C1885 C1879 1.491 . S
C1885 C1884 1.400 . S
C1885 C1886 1.398 . S
C1886 H1874 0.950 . S
C1886 C1885 1.398 . S
C1886 C1887 1.391 . S
C1887 H1875 0.950 . S
C1887 C1883 1.393 . S
C1887 C1886 1.391 . S
H1888 C1896 0.950 . S
H1889 C1901 0.950 . S
H1890 C1898 0.950 . S
H1891 C1900 0.950 . S
H1892 C1902 0.950 . S
H1893 C1904 0.950 . S
H1894 C1906 0.950 . S
H1895 C1907 0.950 . S
C1896 H1888 0.950 . S
C1896 C1897 1.386 . S
C1896 C1898 1.391 . S
C1897 C1896 1.386 . S
C1897 C1901 1.393 . S
C1898 H1890 0.950 . S
C1898 C1896 1.391 . S
C1898 C1899 1.400 . S
C1899 C1898 1.400 . S
C1899 C1900 1.398 . S
C1899 C1905 1.491 . S
C1900 H1891 0.950 . S
C1900 C1899 1.398 . S
C1900 C1901 1.391 . S
C1901 H1889 0.950 . S
C1901 C1897 1.393 . S
C1901 C1900 1.391 . S
C1902 H1892 0.950 . S
C1902 C1903 1.386 . S
C1902 C1904 1.391 . S
C1903 C1902 1.386 . S
C1903 C1907 1.393 . S
C1904 H1893 0.950 . S
C1904 C1902 1.391 . S
C1904 C1905 1.400 . S
C1905 C1899 1.491 . S
C1905 C1904 1.400 . S
C1905 C1906 1.398 . S
C1906 H1894 0.950 . S
C1906 C1905 1.398 . S
C1906 C1907 1.391 . S
C1907 H1895 0.950 . S
C1907 C1903 1.393 . S
C1907 C1906 1.391 . S
H1908 C1916 0.950 . S
H1909 C1921 0.950 . S
H1910 C1918 0.950 . S
H1911 C1920 0.950 . S
H1912 C1922 0.950 . S
H1913 C1924 0.950 . S
H1914 C1926 0.950 . S
H1915 C1927 0.950 . S
C1916 H1908 0.950 . S
C1916 C1917 1.386 . S
C1916 C1918 1.391 . S
C1917 C1916 1.386 . S
C1917 C1921 1.393 . S
C1918 H1910 0.950 . S
C1918 C1916 1.391 . S
C1918 C1919 1.400 . S
C1919 C1918 1.400 . S
C1919 C1920 1.398 . S
C1919 C1925 1.491 . S
C1920 H1911 0.950 . S
C1920 C1919 1.398 . S
C1920 C1921 1.391 . S
C1921 H1909 0.950 . S
C1921 C1917 1.393 . S
C1921 C1920 1.391 . S
C1922 H1912 0.950 . S
C1922 C1923 1.386 . S
C1922 C1924 1.391 . S
C1923 C1922 1.386 . S
C1923 C1927 1.393 . S
C1924 H1913 0.950 . S
C1924 C1922 1.391 . S
C1924 C1925 1.400 . S
C1925 C1919 1.491 . S
C1925 C1924 1.400 . S
C1925 C1926 1.398 . S
C1926 H1914 0.950 . S
C1926 C1925 1.398 . S
C1926 C1927 1.391 . S
C1927 H1915 0.950 . S
C1927 C1923 1.393 . S
C1927 C1926 1.391 . S
H1928 C1936 0.950 . S
H1929 C1941 0.950 . S
H1930 C1938 0.950 . S
H1931 C1940 0.950 . S
H1932 C1942 0.950 . S
H1933 C1944 0.950 . S
H1934 C1946 0.950 . S
H1935 C1947 0.950 . S
C1936 H1928 0.950 . S
C1936 C1937 1.386 . S
C1936 C1938 1.391 . S
C1937 C1936 1.386 . S
C1937 C1941 1.393 . S
C1938 H1930 0.950 . S
C1938 C1936 1.391 . S
C1938 C1939 1.400 . S
C1939 C1938 1.400 . S
C1939 C1940 1.398 . S
C1939 C1945 1.491 . S
C1940 H1931 0.950 . S
C1940 C1939 1.398 . S
C1940 C1941 1.391 . S
C1941 H1929 0.950 . S
C1941 C1937 1.393 . S
C1941 C1940 1.391 . S
C1942 H1932 0.950 . S
C1942 C1943 1.386 . S
C1942 C1944 1.391 . S
C1943 C1942 1.386 . S
C1943 C1947 1.393 . S
C1944 H1933 0.950 . S
C1944 C1942 1.391 . S
C1944 C1945 1.400 . S
C1945 C1939 1.491 . S
C1945 C1944 1.400 . S
C1945 C1946 1.398 . S
C1946 H1934 0.950 . S
C1946 C1945 1.398 . S
C1946 C1947 1.391 . S
C1947 H1935 0.950 . S
C1947 C1943 1.393 . S
C1947 C1946 1.391 . S
H1948 C1956 0.950 . S
H1949 C1961 0.950 . S
H1950 C1958 0.950 . S
H1951 C1960 0.950 . S
H1952 C1962 0.950 . S
H1953 C1964 0.950 . S
H1954 C1966 0.950 . S
H1955 C1967 0.950 . S
C1956 H1948 0.950 . S
C1956 C1957 1.386 . S
C1956 C1958 1.391 . S
C1957 C1956 1.386 . S
C1957 C1961 1.393 . S
C1958 H1950 0.950 . S
C1958 C1956 1.391 . S
C1958 C1959 1.400 . S
C1959 C1958 1.400 . S
C1959 C1960 1.398 . S
C1959 C1965 1.491 . S
C1960 H1951 0.950 . S
C1960 C1959 1.398 . S
C1960 C1961 1.391 . S
C1961 H1949 0.950 . S
C1961 C1957 1.393 . S
C1961 C1960 1.391 . S
C1962 H1952 0.950 . S
C1962 C1963 1.386 . S
C1962 C1964 1.391 . S
C1963 C1962 1.386 . S
C1963 C1967 1.393 . S
C1964 H1953 0.950 . S
C1964 C1962 1.391 . S
C1964 C1965 1.400 . S
C1965 C1959 1.491 . S
C1965 C1964 1.400 . S
C1965 C1966 1.398 . S
C1966 H1954 0.950 . S
C1966 C1965 1.398 . S
C1966 C1967 1.391 . S
C1967 H1955 0.950 . S
C1967 C1963 1.393 . S
C1967 C1966 1.391 . S
H1968 C1976 0.950 . S
H1969 C1981 0.950 . S
H1970 C1978 0.950 . S
H1971 C1980 0.950 . S
H1972 C1982 0.950 . S
H1973 C1984 0.950 . S
H1974 C1986 0.950 . S
H1975 C1987 0.950 . S
C1976 H1968 0.950 . S
C1976 C1977 1.386 . S
C1976 C1978 1.391 . S
C1977 C1976 1.386 . S
C1977 C1981 1.393 . S
C1978 H1970 0.950 . S
C1978 C1976 1.391 . S
C1978 C1979 1.400 . S
C1979 C1978 1.400 . S
C1979 C1980 1.398 . S
C1979 C1985 1.491 . S
C1980 H1971 0.950 . S
C1980 C1979 1.398 . S
C1980 C1981 1.391 . S
C1981 H1969 0.950 . S
C1981 C1977 1.393 . S
C1981 C1980 1.391 . S
C1982 H1972 0.950 . S
C1982 C1983 1.386 . S
C1982 C1984 1.391 . S
C1983 C1982 1.386 . S
C1983 C1987 1.393 . S
C1984 H1973 0.950 . S
C1984 C1982 1.391 . S
C1984 C1985 1.400 . S
C1985 C1979 1.491 . S
C1985 C1984 1.400 . S
C1985 C1986 1.398 . S
C1986 H1974 0.950 . S
C1986 C1985 1.398 . S
C1986 C1987 1.391 . S
C1987 H1975 0.950 . S
C1987 C1983 1.393 . S
C1987 C1986 1.391 . S
H1988 C1996 0.950 . S
H1989 C2001 0.950 . S
H1990 C1998 0.950 . S
H1991 C2000 0.950 . S
H1992 C2002 0.950 . S
H1993 C2004 0.950 . S
H1994 C2006 0.950 . S
H1995 C2007 0.950 . S
C1996 H1988 0.950 . S
C1996 C1997 1.386 . S
C1996 C1998 1.391 . S
C1997 C1996 1.386 . S
C1997 C2001 1.393 . S
C1998 H1990 0.950 . S
C1998 C1996 1.391 . S
C1998 C1999 1.400 . S
C1999 C1998 1.400 . S
C1999 C2000 1.398 . S
C1999 C2005 1.491 . S
C2000 H1991 0.950 . S
C2000 C1999 1.398 . S
C2000 C2001 1.391 . S
C2001 H1989 0.950 . S
C2001 C1997 1.393 . S
C2001 C2000 1.391 . S
C2002 H1992 0.950 . S
C2002 C2003 1.386 . S
C2002 C2004 1.391 . S
C2003 C2002 1.386 . S
C2003 C2007 1.393 . S
C2004 H1993 0.950 . S
C2004 C2002 1.391 . S
C2004 C2005 1.400 . S
C2005 C1999 1.491 . S
C2005 C2004 1.400 . S
C2005 C2006 1.398 . S
C2006 H1994 0.950 . S
C2006 C2005 1.398 . S
C2006 C2007 1.391 . S
C2007 H1995 0.950 . S
C2007 C2003 1.393 . S
C2007 C2006 1.391 . S
H2008 C2016 0.950 . S
H2009 C2021 0.950 . S
H2010 C2018 0.950 . S
H2011 C2020 0.950 . S
H2012 C2022 0.950 . S
H2013 C2024 0.950 . S
H2014 C2026 0.950 . S
H2015 C2027 0.950 . S
C2016 H2008 0.950 . S
C2016 C2017 1.386 . S
C2016 C2018 1.391 . S
C2017 C2016 1.386 . S
C2017 C2021 1.393 . S
C2018 H2010 0.950 . S
C2018 C2016 1.391 . S
C2018 C2019 1.400 . S
C2019 C2018 1.400 . S
C2019 C2020 1.398 . S
C2019 C2025 1.491 . S
C2020 H2011 0.950 . S
C2020 C2019 1.398 . S
C2020 C2021 1.391 . S
C2021 H2009 0.950 . S
C2021 C2017 1.393 . S
C2021 C2020 1.391 . S
C2022 H2012 0.950 . S
C2022 C2023 1.386 . S
C2022 C2024 1.391 . S
C2023 C2022 1.386 . S
C2023 C2027 1.393 . S
C2024 H2013 0.950 . S
C2024 C2022 1.391 . S
C2024 C2025 1.400 . S
C2025 C2019 1.491 . S
C2025 C2024 1.400 . S
C2025 C2026 1.398 . S
C2026 H2014 0.950 . S
C2026 C2025 1.398 . S
C2026 C2027 1.391 . S
C2027 H2015 0.950 . S
C2027 C2023 1.393 . S
C2027 C2026 1.391 . S
H2028 C2036 0.950 . S
H2029 C2041 0.950 . S
H2030 C2038 0.950 . S
H2031 C2040 0.950 . S
H2032 C2042 0.950 . S
H2033 C2044 0.950 . S
H2034 C2046 0.950 . S
H2035 C2047 0.950 . S
C2036 H2028 0.950 . S
C2036 C2037 1.386 . S
C2036 C2038 1.391 . S
C2037 C2036 1.386 . S
C2037 C2041 1.393 . S
C2038 H2030 0.950 . S
C2038 C2036 1.391 . S
C2038 C2039 1.400 . S
C2039 C2038 1.400 . S
C2039 C2040 1.398 . S
C2039 C2045 1.491 . S
C2040 H2031 0.950 . S
C2040 C2039 1.398 . S
C2040 C2041 1.391 . S
C2041 H2029 0.950 . S
C2041 C2037 1.393 . S
C2041 C2040 1.391 . S
C2042 H2032 0.950 . S
C2042 C2043 1.386 . S
C2042 C2044 1.391 . S
C2043 C2042 1.386 . S
C2043 C2047 1.393 . S
C2044 H2033 0.950 . S
C2044 C2042 1.391 . S
C2044 C2045 1.400 . S
C2045 C2039 1.491 . S
C2045 C2044 1.400 . S
C2045 C2046 1.398 . S
C2046 H2034 0.950 . S
C2046 C2045 1.398 . S
C2046 C2047 1.391 . S
C2047 H2035 0.950 . S
C2047 C2043 1.393 . S
C2047 C2046 1.391 . S
H2048 C2056 0.950 . S
H2049 C2061 0.950 . S
H2050 C2058 0.950 . S
H2051 C2060 0.950 . S
H2052 C2062 0.950 . S
H2053 C2064 0.950 . S
H2054 C2066 0.950 . S
H2055 C2067 0.950 . S
C2056 H2048 0.950 . S
C2056 C2057 1.386 . S
C2056 C2058 1.391 . S
C2057 C2056 1.386 . S
C2057 C2061 1.393 . S
C2058 H2050 0.950 . S
C2058 C2056 1.391 . S
C2058 C2059 1.400 . S
C2059 C2058 1.400 . S
C2059 C2060 1.398 . S
C2059 C2065 1.491 . S
C2060 H2051 0.950 . S
C2060 C2059 1.398 . S
C2060 C2061 1.391 . S
C2061 H2049 0.950 . S
C2061 C2057 1.393 . S
C2061 C2060 1.391 . S
C2062 H2052 0.950 . S
C2062 C2063 1.386 . S
C2062 C2064 1.391 . S
C2063 C2062 1.386 . S
C2063 C2067 1.393 . S
C2064 H2053 0.950 . S
C2064 C2062 1.391 . S
C2064 C2065 1.400 . S
C2065 C2059 1.491 . S
C2065 C2064 1.400 . S
C2065 C2066 1.398 . S
C2066 H2054 0.950 . S
C2066 C2065 1.398 . S
C2066 C2067 1.391 . S
C2067 H2055 0.950 . S
C2067 C2063 1.393 . S
C2067 C2066 1.391 . S
H2068 C2076 0.950 . S
H2069 C2081 0.950 . S
H2070 C2078 0.950 . S
H2071 C2080 0.950 . S
H2072 C2082 0.950 . S
H2073 C2084 0.950 . S
H2074 C2086 0.950 . S
H2075 C2087 0.950 . S
C2076 H2068 0.950 . S
C2076 C2077 1.386 . S
C2076 C2078 1.391 . S
C2077 C2076 1.386 . S
C2077 C2081 1.393 . S
C2078 H2070 0.950 . S
C2078 C2076 1.391 . S
C2078 C2079 1.400 . S
C2079 C2078 1.400 . S
C2079 C2080 1.398 . S
C2079 C2085 1.491 . S
C2080 H2071 0.950 . S
C2080 C2079 1.398 . S
C2080 C2081 1.391 . S
C2081 H2069 0.950 . S
C2081 C2077 1.393 . S
C2081 C2080 1.391 . S
C2082 H2072 0.950 . S
C2082 C2083 1.386 . S
C2082 C2084 1.391 . S
C2083 C2082 1.386 . S
C2083 C2087 1.393 . S
C2084 H2073 0.950 . S
C2084 C2082 1.391 . S
C2084 C2085 1.400 . S
C2085 C2079 1.491 . S
C2085 C2084 1.400 . S
C2085 C2086 1.398 . S
C2086 H2074 0.950 . S
C2086 C2085 1.398 . S
C2086 C2087 1.391 . S
C2087 H2075 0.950 . S
C2087 C2083 1.393 . S
C2087 C2086 1.391 . S
C1017 C469 1.686 . S
C1023 C657 1.656 . S
C1037 C505 1.786 . S
C1043 C697 1.747 . S
C1057 C433 1.764 . S
C1063 C736 1.748 . S
C1077 C397 1.593 . S
C1083 C696 1.560 . S
C1103 C737 1.443 . S
C1097 C325 1.464 . S
C1117 C361 1.447 . S
C1123 C656 1.480 . S
C1143 C667 1.641 . S
C1137 C421 1.684 . S
C1163 C707 1.754 . S
C1157 C349 1.785 . S
C1177 C385 1.758 . S
C1183 C746 1.745 . S
C1197 C493 1.585 . S
C1203 C706 1.556 . S
C1217 C529 1.477 . S
C1223 C747 1.444 . S
C1243 C666 1.438 . S
C1237 C457 1.434 . S
C1263 C777 1.647 . S
C1257 C37 1.682 . S
C1277 C73 1.792 . S
C1283 C817 1.764 . S
C1297 C1 1.749 . S
C1303 C856 1.740 . S
C1317 C613 1.581 . S
C1323 C816 1.552 . S
C1337 C541 1.471 . S
C1343 C857 1.444 . S
C1357 C577 1.443 . S
C1363 C776 1.437 . S
C1377 C637 1.683 . S
C1383 C787 1.643 . S
C1397 C565 1.783 . S
C1403 C827 1.749 . S
C1423 C866 1.745 . S
C1417 C601 1.758 . S
C1437 C61 1.583 . S
C1443 C826 1.570 . S
C1463 C867 1.452 . S
C1457 C97 1.479 . S
C1477 C25 1.452 . S
C1483 C786 1.455 . S
C1503 C897 1.641 . S
C1497 C253 1.674 . S
C1517 C289 1.793 . S
C1523 C937 1.762 . S
C1543 C976 1.744 . S
C1537 C217 1.765 . S
C1563 C936 1.563 . S
C1557 C181 1.580 . S
C1583 C977 1.451 . S
C1577 C109 1.475 . S
C1597 C145 1.430 . S
C1603 C896 1.437 . S
C1617 C205 1.687 . S
C1623 C907 1.645 . S
C1637 C133 1.790 . S
C1643 C947 1.758 . S
C1663 C986 1.733 . S
C1657 C169 1.742 . S
C1677 C277 1.589 . S
C1683 C946 1.563 . S
C1697 C313 1.479 . S
C1703 C987 1.453 . S
C1717 C241 1.440 . S
C1723 C906 1.452 . S
C1737 C571 1.329 . S
C1743 C653 1.321 . S
C1763 C693 1.860 . S
C1757 C607 1.861 . S
C1777 C643 1.576 . S
C1783 C743 1.583 . S
C1797 C247 1.864 . S
C1803 C703 1.863 . S
C1817 C283 1.579 . S
C1823 C733 1.583 . S
C1843 C663 1.330 . S
C1837 C319 1.331 . S
C1857 C139 1.330 . S
C1863 C773 1.323 . S
C1877 C175 1.857 . S
C1883 C813 1.859 . S
C1897 C211 1.574 . S
C1903 C863 1.582 . S
C1917 C463 1.861 . S
C1923 C823 1.858 . S
C1943 C853 1.583 . S
C1937 C499 1.583 . S
C1957 C535 1.332 . S
C1963 C783 1.324 . S
C1977 C355 1.331 . S
C1983 C893 1.326 . S
C1997 C391 1.859 . S
C2003 C933 1.858 . S
C2023 C983 1.582 . S
C2017 C427 1.581 . S
C2037 C31 1.858 . S
C2043 C943 1.862 . S
C2057 C67 1.581 . S
C2063 C973 1.583 . S
C2077 C103 1.330 . S
C2083 C903 1.330 . S
