# Generated by pormake.
# Topology tsx, (6,3)-cn, num edge types: 1
# Building blocks:
#     Node 0, Type 0, BuildingBlock: JUFBIX_clean_sbu_0, # of connection points: 6
#     Node 1, Type 0, BuildingBlock: JUFBIX_clean_sbu_0, # of connection points: 6
#     Node 2, Type 1, BuildingBlock: BETDIP_clean_linker_0, # of connection points: 3
#     Node 3, Type 1, BuildingBlock: BETDIP_clean_linker_0, # of connection points: 3
#     Node 4, Type 1, BuildingBlock: BETDIP_clean_linker_0, # of connection points: 3
#     Node 5, Type 1, BuildingBlock: BETDIP_clean_linker_0, # of connection points: 3
#     Edge 6, Type (0, 1), BuildingBlock: ZUJKAS_clean_linker_0, # of connection points: 2
#     Edge 7, Type (0, 1), BuildingBlock: ZUJKAS_clean_linker_0, # of connection points: 2
#     Edge 8, Type (0, 1), BuildingBlock: ZUJKAS_clean_linker_0, # of connection points: 2
#     Edge 9, Type (0, 1), BuildingBlock: ZUJKAS_clean_linker_0, # of connection points: 2
#     Edge 10, Type (0, 1), BuildingBlock: ZUJKAS_clean_linker_0, # of connection points: 2
#     Edge 11, Type (0, 1), BuildingBlock: ZUJKAS_clean_linker_0, # of connection points: 2
#     Edge 12, Type (0, 1), BuildingBlock: ZUJKAS_clean_linker_0, # of connection points: 2
#     Edge 13, Type (0, 1), BuildingBlock: ZUJKAS_clean_linker_0, # of connection points: 2
#     Edge 14, Type (0, 1), BuildingBlock: ZUJKAS_clean_linker_0, # of connection points: 2
#     Edge 15, Type (0, 1), BuildingBlock: ZUJKAS_clean_linker_0, # of connection points: 2
#     Edge 16, Type (0, 1), BuildingBlock: ZUJKAS_clean_linker_0, # of connection points: 2
#     Edge 17, Type (0, 1), BuildingBlock: ZUJKAS_clean_linker_0, # of connection points: 2
# Relax obj value: 0.106
# Max RMSD: 0.130
# Mean RMSD: 0.117
data_MOF--net-tsx--node1-JUFBIX_clean_sbu_0--node2-BETDIP_clean_linker_0--edge1-ZUJKAS_clean_linker_0
_symmetry_space_group_name_H-M    P1
_symmetry_Int_Tables_number       1
_symmetry_cell_setting            triclinic
loop_
_symmetry_equiv_pos_as_xyz
'x, y, z'
_cell_length_a     25.982672
_cell_length_b     30.691075
_cell_length_c     42.572224
_cell_angle_alpha  92.016693
_cell_angle_beta   99.326509
_cell_angle_gamma 97.144879
loop_
_atom_site_label
_atom_site_type_symbol
_atom_site_fract_x
_atom_site_fract_y
_atom_site_fract_z
_atom_type_partial_charge
Co0 Co 0.0553 0.98321 0.00093 0.0
C1 C 1.00601 0.00798 0.9416 0.0
Co2 Co 0.9883 0.02103 0.00234 0.0
C3 C 0.12654 0.91577 0.00707 0.0
C4 C 0.1539 0.97176 0.9828 0.0
N5 N 0.11375 0.95509 -0.00282 0.0
N6 N 0.17341 0.90782 -0.00026 0.0
C7 C 0.19057 0.94304 0.98449 0.0
H8 H 0.10223 0.89361 0.01956 0.0
H9 H 0.15622 1.00277 0.97146 0.0
C10 C 0.03747 0.99705 0.06175 0.0
N11 N 0.93015 0.04908 0.00649 0.0
C12 C 0.91792 0.08866 0.99702 0.0
C13 C 0.89146 0.03354 0.02237 0.0
N14 N 0.87303 0.09827 0.00637 0.0
C15 C 0.85641 0.06349 0.02228 0.0
C16 C 0.96185 0.92907 0.9953 0.0
O17 O 0.06755 0.97908 0.04595 0.0
O18 O 1.00119 0.01654 0.04705 0.0
O19 O 0.94484 0.96593 -0.00261 0.0
O20 O 0.01089 0.92818 0.99631 0.0
O21 O 0.97613 0.02546 0.95778 0.0
H22 H 0.88957 1.0028 0.03407 0.0
H23 H 0.94173 0.11008 0.98376 0.0
O24 O 0.04229 0.98786 0.9558 0.0
O25 O 0.0989 0.03873 0.00577 0.0
O26 O 0.03225 0.07575 0.00687 0.0
C27 C 0.08124 0.07538 0.00756 0.0
H28 H 0.22655 0.94723 0.97454 0.0
H29 H 0.82231 0.06046 0.03405 0.0
Co30 Co 0.55766 0.48233 0.49925 0.0
C31 C 0.504 0.50774 0.44114 0.0
Co32 Co 0.49324 0.52213 0.50303 0.0
C33 C 0.6316 0.41677 0.50533 0.0
C34 C 0.64833 0.46714 0.4735 0.0
N35 N 0.61415 0.4533 0.49289 0.0
N36 N 0.67568 0.40781 0.49461 0.0
C37 C 0.686 0.43946 0.47453 0.0
H38 H 0.61288 0.39763 0.52223 0.0
H39 H 0.64603 0.49574 0.45944 0.0
C40 C 0.54708 0.49769 0.56121 0.0
N41 N 0.43702 0.55122 0.50965 0.0
C42 C 0.42346 0.59031 0.4999 0.0
C43 C 0.40129 0.53674 0.52789 0.0
N44 N 0.38053 0.6006 0.51136 0.0
C45 C 0.36667 0.56681 0.52896 0.0
C46 C 0.46386 0.43017 0.49686 0.0
O47 O 0.57461 0.47853 0.54428 0.0
O48 O 0.51045 0.51774 0.54759 0.0
O49 O 0.44861 0.46769 0.49951 0.0
O50 O 0.51226 0.42795 0.49623 0.0
O51 O 0.47671 0.52663 0.45836 0.0
H52 H 0.40111 0.50658 0.5403 0.0
H53 H 0.44485 0.6108 0.48486 0.0
O54 O 0.54001 0.48665 0.45438 0.0
O55 O 0.60244 0.53715 0.50224 0.0
O56 O 0.53837 0.57611 0.5063 0.0
C57 C 0.58658 0.57444 0.50495 0.0
H58 H 0.71815 0.44211 0.46111 0.0
H59 H 0.33476 0.5645 0.54255 0.0
H60 H 0.07438 0.99256 0.49353 0.0
H61 H 0.02037 0.04763 0.40438 0.0
H62 H 0.1278 0.95145 0.40813 0.0
H63 H 0.03744 0.1113 0.44371 0.0
C64 C 0.01153 0.09547 0.45881 0.0
C65 C 0.0743 0.99456 0.46816 0.0
C66 C 0.10498 0.96897 0.45276 0.0
C67 C 0.04529 0.02425 0.45097 0.0
C68 C 0.04467 0.02625 0.41792 0.0
C69 C 0.07345 0.99934 0.40212 0.0
C70 C 0.10434 0.97159 0.41992 0.0
N71 N 0.01634 0.05152 0.46703 0.0
H72 H 0.97451 0.99015 0.51413 0.0
H73 H 0.03035 0.07348 0.59932 0.0
H74 H 0.91051 0.96359 0.59954 0.0
H75 H 0.02726 0.12492 0.55651 0.0
C76 C 0.05194 0.10748 0.54353 0.0
C77 C 0.97311 0.99842 0.53892 0.0
C78 C 0.9374 0.97338 0.55481 0.0
C79 C 1.00561 0.03528 0.55465 0.0
C80 C 1.00426 0.04571 0.58692 0.0
C81 C 0.97012 0.01996 0.6034 0.0
C82 C 0.93638 0.98425 0.58696 0.0
N83 N 0.0402 0.06115 0.53794 0.0
H84 H 0.5697 0.4918 0.99028 0.0
H85 H 0.5235 0.55173 0.90183 0.0
H86 H 0.63237 0.45686 0.90669 0.0
H87 H 0.53245 0.61185 0.94023 0.0
C88 C 0.50689 0.59558 0.95533 0.0
C89 C 0.57208 0.49543 0.9653 0.0
C90 C 0.60513 0.47142 0.95052 0.0
C91 C 0.54388 0.52564 0.94812 0.0
C92 C 0.54645 0.52958 0.91552 0.0
C93 C 0.57841 0.50495 0.90041 0.0
C94 C 0.60809 0.47647 0.91824 0.0
N95 N 0.51316 0.55188 0.96378 0.0
H96 H 0.47552 0.48902 0.01277 0.0
H97 H 0.52575 0.57234 0.09867 0.0
H98 H 0.42071 0.45284 0.09942 0.0
H99 H 0.52554 0.6249 0.05975 0.0
C100 C 0.54825 0.60879 0.04461 0.0
C101 C 0.4746 0.49605 0.03779 0.0
C102 C 0.44452 0.46673 0.05436 0.0
C103 C 0.50364 0.53449 0.05352 0.0
C104 C 0.50265 0.54323 0.08614 0.0
C105 C 0.47239 0.51414 0.10283 0.0
C106 C 0.44364 0.47593 0.0867 0.0
N107 N 0.53522 0.56299 0.03656 0.0
H108 H 0.18839 0.08653 0.02182 0.0
H109 H 0.24839 0.15481 0.02343 0.0
H110 H 0.11622 0.22587 0.99669 0.0
H111 H 0.05581 0.15792 0.99627 0.0
H112 H 0.26667 0.20944 0.97807 0.0
H113 H 0.19299 0.29983 0.07322 0.0
H114 H 0.17346 0.24181 0.06376 0.0
H115 H 0.14296 0.28155 0.03957 0.0
C116 C 0.17206 0.11678 0.01657 0.0
C117 C 0.11735 0.11695 0.00926 0.0
C118 C 0.20642 0.15576 0.01737 0.0
C119 C 0.18686 0.19564 0.01065 0.0
C120 C 0.13223 0.19576 0.0028 0.0
H121 H 0.35699 0.46054 0.00893 0.0
H122 H 0.29351 0.39408 0.99235 0.0
C123 C 0.09774 0.15686 0.00246 0.0
C124 C 0.22391 0.23683 0.01168 0.0
H125 H 0.25668 0.33997 0.04781 0.0
C126 C 0.26436 0.238 0.99327 0.0
C127 C 0.22102 0.27412 0.03159 0.0
C128 C 0.18062 0.27425 0.05339 0.0
C129 C 0.30217 0.27522 0.99451 0.0
C130 C 0.29916 0.3122 0.01441 0.0
C131 C 0.25826 0.31156 0.03226 0.0
C132 C 0.34065 0.35049 0.01946 0.0
C133 C 0.34554 0.27482 0.97493 0.0
C134 C 0.38832 0.34752 0.03957 0.0
C135 C 0.42408 0.38525 0.04921 0.0
C136 C 0.41289 0.42635 0.03858 0.0
C137 C 0.36662 0.42897 0.01696 0.0
C138 C 0.33041 0.39123 0.00765 0.0
H139 H 0.33795 0.24648 0.95709 0.0
H140 H 0.35023 0.30582 0.96237 0.0
H141 H 0.38325 0.27277 0.99098 0.0
H142 H 0.39651 0.31642 0.0492 0.0
H143 H 0.45931 0.38274 0.06621 0.0
H144 H 0.12862 0.82271 0.99678 0.0
H145 H 0.17504 0.75738 -0.00128 0.0
H146 H 0.32385 0.84135 0.01605 0.0
H147 H 0.27787 0.90613 0.0143 0.0
H148 H 0.24308 0.7409 0.95599 0.0
H149 H 0.34821 0.74639 0.08016 0.0
H150 H 0.29217 0.77532 0.06867 0.0
H151 H 0.3567 0.79864 0.0627 0.0
C152 C 0.1712 0.82701 0.00181 0.0
C153 C 0.1997 0.86943 0.00524 0.0
C154 C 0.19765 0.78977 0.00281 0.0
C155 C 0.25295 0.79446 0.00792 0.0
C156 C 0.28126 0.83682 0.0127 0.0
H157 H 0.49053 0.67811 0.94185 0.0
H158 H 0.42321 0.71973 0.95707 0.0
C159 C 0.25495 0.87385 0.01136 0.0
C160 C 0.28158 0.75602 0.00457 0.0
H161 H 0.38611 0.70808 0.04054 0.0
C162 C 0.27343 0.73295 0.97475 0.0
C163 C 0.32107 0.74545 0.02907 0.0
C164 C 0.32975 0.76747 0.06206 0.0
C165 C 0.30619 0.70194 0.96809 0.0
C166 C 0.34816 0.69389 0.99181 0.0
C167 C 0.35409 0.71459 0.02232 0.0
C168 C 0.3896 0.66833 0.984 0.0
C169 C 0.29733 0.6794 0.93525 0.0
C170 C 0.39348 0.62586 0.99461 0.0
C171 C 0.43186 0.60176 0.9857 0.0
C172 C 0.46712 0.62022 0.96643 0.0
C173 C 0.46376 0.66309 0.95662 0.0
C174 C 0.42534 0.68686 0.96525 0.0
H175 H 0.25719 0.68148 0.92212 0.0
H176 H 0.32631 0.69546 0.92136 0.0
H177 H 0.30319 0.64424 0.93672 0.0
H178 H 0.36628 0.61112 0.00921 0.0
H179 H 0.43349 0.56873 0.99357 0.0
H180 H 0.98366 0.84462 0.00452 0.0
H181 H 0.91989 0.77863 0.00552 0.0
H182 H 0.7923 0.8556 0.98238 0.0
H183 H 0.85515 0.92118 0.98136 0.0
H184 H 0.84514 0.77132 0.04727 0.0
H185 H 0.74647 0.74549 0.92145 0.0
H186 H 0.81025 0.7778 0.93326 0.0
H187 H 0.75125 0.80146 0.93657 0.0
C188 C 0.94199 0.84723 -0.0009 0.0
C189 C 0.92444 0.88812 0.99293 0.0
C190 C 0.90568 0.80957 -0.00031 0.0
C191 C 0.85139 0.81213 0.99355 0.0
C192 C 0.83395 0.85266 0.98651 0.0
H193 H 0.58167 0.69492 0.05872 0.0
H194 H 0.65889 0.73892 0.04452 0.0
C195 C 0.87002 0.89023 0.98621 0.0
C196 C 0.81256 0.77399 -0.00236 0.0
H197 H 0.69761 0.7141 0.96076 0.0
C198 C 0.81351 0.75811 0.0282 0.0
C199 C 0.77149 0.75659 0.97268 0.0
C200 C 0.76997 0.7709 0.93906 0.0
C201 C 0.77264 0.72738 0.03493 0.0
C202 C 0.72972 0.71241 0.01052 0.0
C203 C 0.73037 0.72605 0.97948 0.0
C204 C 0.68199 0.68567 0.01761 0.0
C205 C 0.77469 0.71221 0.06838 0.0
C206 C 0.66883 0.64147 0.00647 0.0
C207 C 0.62479 0.61617 0.0147 0.0
C208 C 0.59311 0.63503 0.03385 0.0
C209 C 0.60558 0.67961 0.04405 0.0
C210 C 0.64966 0.70469 0.03605 0.0
H211 H 0.81527 0.71821 0.08221 0.0
H212 H 0.74912 0.73059 0.08093 0.0
H213 H 0.75995 0.67661 0.06803 0.0
H214 H 0.69322 0.62636 0.99204 0.0
H215 H 0.61612 0.58185 0.0065 0.0
H216 H 0.77011 0.10666 0.00484 0.0
H217 H 0.72958 0.17425 0.00071 0.0
H218 H 0.87958 0.24794 0.99417 0.0
H219 H 0.92077 0.18032 -0.00133 0.0
H220 H 0.75585 0.25243 0.04146 0.0
H221 H 0.77928 0.28228 0.91615 0.0
H222 H 0.78593 0.22983 0.9332 0.0
H223 H 0.83838 0.27462 0.9426 0.0
C224 C 0.79466 0.1372 0.00268 0.0
C225 C 0.84881 0.13799 0.00215 0.0
C226 C 0.77134 0.17581 0.00025 0.0
C227 C 0.80148 0.21603 0.99699 0.0
C228 C 0.85546 0.21709 0.99624 0.0
H229 H 0.71101 0.47399 0.9596 0.0
H230 H 0.7616 0.41425 0.97639 0.0
C231 C 0.87891 0.17839 -0.00131 0.0
C232 C 0.7761 0.25673 0.99447 0.0
H233 H 0.74372 0.33613 0.9436 0.0
C234 C 0.75326 0.27089 0.02012 0.0
C235 C 0.77279 0.28061 0.9666 0.0
C236 C 0.79497 0.26602 0.93791 0.0
C237 C 0.72748 0.3086 0.01872 0.0
C238 C 0.72365 0.33222 0.99068 0.0
C239 C 0.7469 0.31815 0.96517 0.0
C240 C 0.69469 0.37098 0.98658 0.0
C241 C 0.70527 0.32308 0.0474 0.0
C242 C 0.64055 0.36719 0.98784 0.0
C243 C 0.61173 0.40167 0.97869 0.0
C244 C 0.63659 0.44005 0.96773 0.0
C245 C 0.69115 0.44472 0.96815 0.0
C246 C 0.71995 0.41057 0.97757 0.0
H247 H 0.72491 0.31005 0.0696 0.0
H248 H 0.70948 0.3595 0.05044 0.0
H249 H 0.66277 0.31028 0.0441 0.0
H250 H 0.61994 0.33668 0.99405 0.0
H251 H 0.56954 0.39713 0.97803 0.0
H252 H 0.68816 0.58182 0.49452 0.0
H253 H 0.74968 0.64896 0.49523 0.0
H254 H 0.63162 0.72636 0.51797 0.0
H255 H 0.5692 0.65931 0.51653 0.0
H256 H 0.68424 0.76181 0.4715 0.0
H257 H 0.82626 0.72018 0.57471 0.0
H258 H 0.81258 0.67948 0.54211 0.0
H259 H 0.76111 0.6903 0.56373 0.0
C260 C 0.67526 0.6131 0.4998 0.0
C261 C 0.6239 0.6152 0.50577 0.0
C262 C 0.71059 0.65144 0.5003 0.0
C263 C 0.69556 0.69259 0.50721 0.0
C264 C 0.64409 0.69489 0.51272 0.0
H265 H 0.83167 0.95785 0.55182 0.0
H266 H 0.77392 0.8894 0.53402 0.0
C267 C 0.60854 0.65655 0.512 0.0
C268 C 0.73346 0.73328 0.5088 0.0
H269 H 0.8508 0.78473 0.54924 0.0
C270 C 0.72074 0.76678 0.48843 0.0
C271 C 0.7812 0.73963 0.53081 0.0
C272 C 0.79602 0.70571 0.55429 0.0
C273 C 0.75422 0.80666 0.48973 0.0
C274 C 0.80137 0.81324 0.51213 0.0
C275 C 0.8148 0.77935 0.53188 0.0
C276 C 0.83468 0.85646 0.51792 0.0
C277 C 0.73879 0.84157 0.46732 0.0
C278 C 0.8879 0.86079 0.51443 0.0
C279 C 0.92099 0.90007 0.52449 0.0
C280 C 0.90137 0.93509 0.53872 0.0
C281 C 0.84765 0.93124 0.54093 0.0
C282 C 0.81461 0.89229 0.53061 0.0
H283 H 0.71026 0.82734 0.44604 0.0
H284 H 0.71988 0.86582 0.47992 0.0
H285 H 0.77384 0.85935 0.4593 0.0
H286 H 0.90416 0.83331 0.50493 0.0
H287 H 0.96238 0.90218 0.52281 0.0
H288 H 0.64007 0.32475 0.50851 0.0
H289 H 0.69155 0.26261 0.51538 0.0
H290 H 0.83079 0.34822 0.50315 0.0
H291 H 0.78032 0.40994 0.49723 0.0
H292 H 0.74252 0.22902 0.47068 0.0
H293 H 0.8877 0.28282 0.57868 0.0
H294 H 0.82834 0.30786 0.56826 0.0
H295 H 0.88583 0.32534 0.5509 0.0
C296 C 0.68191 0.33037 0.5081 0.0
C297 C 0.70608 0.37217 0.50214 0.0
C298 C 0.71122 0.29488 0.51188 0.0
C299 C 0.76527 0.30085 0.51027 0.0
C300 C 0.78952 0.34288 0.50526 0.0
H301 H 0.01076 0.18297 0.4567 0.0
H302 H 0.94774 0.22714 0.47468 0.0
C303 C 0.7604 0.37809 0.50141 0.0
C304 C 0.79587 0.26299 0.51051 0.0
H305 H 0.91552 0.23288 0.54076 0.0
C306 C 0.77963 0.2291 0.4866 0.0
C307 C 0.84425 0.26296 0.53135 0.0
C308 C 0.86222 0.2965 0.55894 0.0
C309 C 0.81237 0.19733 0.48139 0.0
C310 C 0.86241 0.19947 0.50067 0.0
C311 C 0.87723 0.23155 0.52587 0.0
C312 C 0.90221 0.1724 0.49242 0.0
C313 C 0.7949 0.16342 0.45398 0.0
C314 C 0.89797 0.12709 0.49702 0.0
C315 C 0.93418 0.10176 0.48686 0.0
C316 C 0.9748 0.12151 0.47181 0.0
C317 C 0.97959 0.16697 0.46804 0.0
C318 C 0.9438 0.19222 0.47838 0.0
H319 H 0.75601 0.16776 0.44007 0.0
H320 H 0.82439 0.16534 0.43772 0.0
H321 H 0.79217 0.13001 0.46326 0.0
H322 H 0.86626 0.11129 0.50799 0.0
H323 H 0.92966 0.06674 0.49013 0.0
H324 H 0.48041 0.34337 0.49201 0.0
H325 H 0.41465 0.27799 0.49026 0.0
H326 H 0.29459 0.36156 0.49662 0.0
H327 H 0.35905 0.42637 0.49788 0.0
H328 H 0.35385 0.25349 0.53554 0.0
H329 H 0.22426 0.27681 0.42286 0.0
H330 H 0.29004 0.3059 0.4334 0.0
H331 H 0.23593 0.32573 0.44863 0.0
C332 C 0.43986 0.34771 0.49269 0.0
C333 C 0.42498 0.3901 0.49493 0.0
C334 C 0.40238 0.31037 0.49166 0.0
C335 C 0.34946 0.31491 0.49257 0.0
C336 C 0.3348 0.35719 0.49492 0.0
H337 H 0.07063 0.19567 0.54246 0.0
H338 H 0.14515 0.23988 0.52535 0.0
C339 C 0.37196 0.3943 0.49592 0.0
C340 C 0.30964 0.27602 0.49337 0.0
H341 H 0.18356 0.2335 0.46116 0.0
C342 C 0.31714 0.24831 0.51881 0.0
C343 C 0.26184 0.26915 0.47142 0.0
C344 C 0.25277 0.29573 0.44236 0.0
C345 C 0.2766 0.21612 0.52421 0.0
C346 C 0.22759 0.21153 0.50356 0.0
C347 C 0.22114 0.23737 0.47705 0.0
C348 C 0.18096 0.18393 0.51129 0.0
C349 C 0.28511 0.18906 0.55304 0.0
C350 C 0.176 0.13784 0.50837 0.0
C351 C 0.13325 0.11248 0.51801 0.0
C352 C 0.09526 0.13306 0.53087 0.0
C353 C 0.09965 0.17911 0.53285 0.0
C354 C 0.142 0.20434 0.52302 0.0
H355 H 0.32445 0.19863 0.56791 0.0
H356 H 0.25442 0.19277 0.56796 0.0
H357 H 0.28147 0.15376 0.54524 0.0
H358 H 0.20557 0.12158 0.49913 0.0
H359 H 0.13068 0.07698 0.5161 0.0
H360 H 0.42465 0.68162 0.49813 0.0
H361 H 0.38223 0.74868 0.49368 0.0
H362 H 0.23761 0.67609 0.51117 0.0
H363 H 0.27911 0.60907 0.51512 0.0
H364 H 0.28982 0.76277 0.45091 0.0
H365 H 0.26339 0.78175 0.57725 0.0
H366 H 0.30841 0.74725 0.56438 0.0
H367 H 0.23907 0.72824 0.55835 0.0
C368 C 0.38373 0.67983 0.50078 0.0
C369 C 0.3555 0.63994 0.5073 0.0
C370 C 0.35968 0.71824 0.49848 0.0
C371 C 0.30717 0.71749 0.50285 0.0
C372 C 0.2786 0.67763 0.50862 0.0
H373 H 0.07245 0.89537 0.48202 0.0
H374 H 0.12487 0.83584 0.49775 0.0
C375 C 0.30246 0.6393 0.51083 0.0
C376 C 0.2813 0.75789 0.50012 0.0
H377 H 0.21837 0.82699 0.54076 0.0
C378 C 0.27469 0.77714 0.47062 0.0
C379 C 0.26123 0.77624 0.52585 0.0
C380 C 0.26869 0.7576 0.55835 0.0
C381 C 0.24727 0.81359 0.46584 0.0
C382 C 0.22708 0.83197 0.49155 0.0
C383 C 0.23404 0.81293 0.52117 0.0
C384 C 0.1977 0.8704 0.48764 0.0
C385 C 0.23863 0.83115 0.43297 0.0
C386 C 0.22194 0.91027 0.47846 0.0
C387 C 0.19214 0.94394 0.4694 0.0
C388 C 0.13784 0.93858 0.46994 0.0
C389 C 0.11438 0.90025 0.48172 0.0
C390 C 0.1442 0.86627 0.49051 0.0
H391 H 0.24462 0.80685 0.41437 0.0
H392 H 0.1983 0.84024 0.42681 0.0
H393 H 0.26717 0.86106 0.43238 0.0
H394 H 0.2634 0.91448 0.47677 0.0
H395 H 0.21091 0.9733 0.46035 0.0
H396 H 0.11113 0.95963 0.10216 0.0
H397 H 0.11972 0.95771 0.1604 0.0
H398 H 0.98745 0.03017 0.15859 0.0
H399 H 0.97819 0.03197 0.10083 0.0
H400 H 0.13492 0.02997 0.20703 0.0
H401 H 0.94813 0.92074 0.20752 0.0
H402 H 0.97876 0.92651 0.17246 0.0
H403 H 0.94077 0.96767 0.18395 0.0
C404 C 0.08383 0.97503 0.1142 0.0
C405 C 0.04381 0.99571 0.09684 0.0
C406 C 0.08884 0.97397 0.14741 0.0
C407 C 0.05371 0.99325 0.16364 0.0
C408 C 0.01432 0.0144 0.14642 0.0
H409 H 0.0762 0.06978 0.36415 0.0
H410 H 0.0728 0.06818 0.30619 0.0
C411 C 0.00929 0.01552 0.11338 0.0
C412 C 0.05813 0.99189 0.19865 0.0
H413 H 0.98958 0.95729 0.25709 0.0
C414 C 0.10339 0.01384 0.21805 0.0
C415 C 0.01706 0.97046 0.21285 0.0
C416 C 0.96862 0.94464 0.19316 0.0
C417 C 0.10809 0.01586 0.25142 0.0
C418 C 0.06609 0.9959 0.26556 0.0
C419 C 0.02143 0.97303 0.24614 0.0
C420 C 0.06807 0.99734 0.30053 0.0
C421 C 0.15811 0.03891 0.27125 0.0
C422 C 0.06499 0.95803 0.31631 0.0
C423 C 0.06631 0.95882 0.3492 0.0
C424 C 0.07061 0.99899 0.36701 0.0
C425 C 0.07275 0.03836 0.35107 0.0
C426 C 0.07144 0.03752 0.31806 0.0
H427 H 0.191 0.0428 0.25741 0.0
H428 H 0.15142 0.07218 0.27937 0.0
H429 H 0.17006 0.02057 0.29268 0.0
H430 H 0.06182 0.92667 0.30315 0.0
H431 H 0.06358 0.92787 0.36069 0.0
H432 H 0.93941 0.05528 0.90458 0.0
H433 H 0.92985 0.06203 0.84682 0.0
H434 H 0.04839 0.97655 0.84206 0.0
H435 H 0.05834 0.96952 0.89969 0.0
H436 H 0.01352 0.09202 0.81029 0.0
H437 H 0.9169 0.92123 0.77589 0.0
H438 H 0.91921 0.94702 0.81499 0.0
H439 H 0.9763 0.92613 0.80482 0.0
C440 C 0.9633 0.03776 0.89123 0.0
C441 C 0.99944 0.01166 0.90669 0.0
C442 C 0.95789 0.04179 0.8583 0.0
C443 C 0.98809 0.01948 0.84028 0.0
C444 C 0.02432 0.99359 0.85559 0.0
H445 H 0.05646 0.04125 0.64996 0.0
H446 H 0.0587 0.04648 0.70764 0.0
C447 C 0.02999 0.98971 0.88851 0.0
C448 C 0.98205 0.02337 0.80543 0.0
H449 H 0.94375 0.96374 0.73454 0.0
C450 C 0.99801 0.06411 0.79365 0.0
C451 C 0.96134 0.98694 0.78393 0.0
C452 C 0.942 0.94288 0.79541 0.0
C453 C 0.99504 0.06906 0.76077 0.0
C454 C 0.97583 0.03226 0.73934 0.0
C455 C 0.95866 0.99183 0.75111 0.0
C456 C 0.97417 0.03446 0.70457 0.0
C457 C 0.01229 0.11351 0.74914 0.0
C458 C 0.92586 0.02636 0.68383 0.0
C459 C 0.9244 0.02364 0.65088 0.0
C460 C 0.97132 0.02845 0.6381 0.0
C461 C 0.01961 0.03801 0.65899 0.0
C462 C 0.02099 0.04092 0.69195 0.0
H463 H 0.01468 0.14028 0.76778 0.0
H464 H 0.05186 0.11366 0.74246 0.0
H465 H 0.98479 0.12055 0.72767 0.0
H466 H 0.88933 0.02125 0.69318 0.0
H467 H 0.88655 0.01686 0.63542 0.0
H468 H 0.61394 0.45127 0.59968 0.0
H469 H 0.6276 0.45145 0.65824 0.0
H470 H 0.5162 0.54408 0.66043 0.0
H471 H 0.50224 0.54417 0.60249 0.0
H472 H 0.61707 0.56463 0.70435 0.0
H473 H 0.5131 0.3959 0.71102 0.0
H474 H 0.56282 0.40273 0.68597 0.0
H475 H 0.50306 0.42637 0.67549 0.0
C476 C 0.59247 0.47167 0.61269 0.0
C477 C 0.55688 0.49755 0.59643 0.0
C478 C 0.6002 0.47165 0.64605 0.0
C479 C 0.57264 0.49762 0.6635 0.0
C480 C 0.53778 0.52383 0.64734 0.0
H481 H 0.49529 0.50292 0.85177 0.0
H482 H 0.49756 0.50192 0.79441 0.0
C483 C 0.52979 0.52369 0.61418 0.0
C484 C 0.5792 0.49769 0.69865 0.0
H485 H 0.54496 0.43699 0.75951 0.0
C486 C 0.60191 0.53661 0.71653 0.0
C487 C 0.55869 0.46121 0.71423 0.0
C488 C 0.53272 0.41913 0.69585 0.0
C489 C 0.60407 0.54019 0.74968 0.0
C490 C 0.58312 0.50384 0.76523 0.0
C491 C 0.56102 0.46473 0.74741 0.0
C492 C 0.58231 0.5062 0.79989 0.0
C493 C 0.62716 0.58319 0.76777 0.0
C494 C 0.62926 0.50921 0.82181 0.0
C495 C 0.62809 0.50989 0.85452 0.0
C496 C 0.57991 0.50759 0.86583 0.0
C497 C 0.533 0.50529 0.84377 0.0
C498 C 0.5342 0.50436 0.81105 0.0
H499 H 0.63328 0.61028 0.75157 0.0
H500 H 0.60112 0.59265 0.7844 0.0
H501 H 0.66578 0.57937 0.78216 0.0
H502 H 0.66671 0.51033 0.8136 0.0
H503 H 0.66486 0.51192 0.87099 0.0
H504 H 0.5544 0.46916 0.39848 0.0
H505 H 0.54352 0.47645 0.34102 0.0
H506 H 0.42429 0.56103 0.34672 0.0
H507 H 0.43517 0.55424 0.40461 0.0
H508 H 0.45101 0.45426 0.29571 0.0
H509 H 0.52987 0.6316 0.29781 0.0
H510 H 0.54073 0.59926 0.33233 0.0
H511 H 0.47804 0.61794 0.32053 0.0
C512 C 0.52578 0.48933 0.38762 0.0
C513 C 0.49567 0.51119 0.40615 0.0
C514 C 0.51967 0.49346 0.35475 0.0
C515 C 0.4836 0.51968 0.33973 0.0
C516 C 0.45296 0.5412 0.358 0.0
H517 H 0.38713 0.50575 0.1332 0.0
H518 H 0.38694 0.51073 0.19068 0.0
C519 C 0.45898 0.53704 0.39099 0.0
C520 C 0.47778 0.52344 0.30481 0.0
H521 H 0.49904 0.5951 0.24721 0.0
C522 C 0.46115 0.48508 0.28505 0.0
C523 C 0.49165 0.56366 0.29113 0.0
C524 C 0.51148 0.6055 0.31145 0.0
C525 C 0.45839 0.4857 0.25192 0.0
C526 C 0.47191 0.52595 0.23817 0.0
C527 C 0.48832 0.56442 0.25788 0.0
C528 C 0.47123 0.52802 0.20344 0.0
C529 C 0.44255 0.44303 0.23198 0.0
C530 C 0.51847 0.53787 0.19163 0.0
C531 C 0.51872 0.53507 0.15879 0.0
C532 C 0.47167 0.5224 0.13731 0.0
C533 C 0.42411 0.51477 0.14923 0.0
C534 C 0.4239 0.51766 0.182 0.0
H535 H 0.44445 0.41396 0.24675 0.0
H536 H 0.40149 0.44199 0.2194 0.0
H537 H 0.46827 0.44045 0.21373 0.0
H538 H 0.55539 0.54602 0.20786 0.0
H539 H 0.55598 0.54092 0.15033 0.0
loop_
_geom_bond_atom_site_label_1
_geom_bond_atom_site_label_2
_geom_bond_distance
_geom_bond_site_symmetry_2
_ccdc_geom_bond_type
Co0 N5 2.057 . S
Co0 O17 2.021 . S
Co0 O20 2.062 1_455 S
Co0 O24 2.117 1_554 S
Co0 O25 2.020 1_565 S
C1 O21 1.259 1_455 S
C1 O24 1.258 1_545 S
Co2 N11 2.066 . S
Co2 O18 2.146 1_655 S
Co2 O19 2.024 1_544 S
Co2 O21 1.989 1_554 S
Co2 O26 2.059 1_655 S
C3 N5 1.316 . S
C3 N6 1.347 . S
C3 H8 0.931 . S
C4 N5 1.375 1_556 S
C4 C7 1.350 . S
C4 H9 0.930 . S
N5 Co0 2.057 . S
N5 C3 1.316 . S
N5 C4 1.375 1_554 S
N6 C3 1.347 . S
N6 C7 1.373 1_554 S
C7 C4 1.350 . S
C7 N6 1.373 1_556 S
C7 H28 0.931 . S
H8 C3 0.931 . S
H9 C4 0.930 . S
C10 O17 1.259 1_545 S
C10 O18 1.258 . S
N11 Co2 2.066 . S
N11 C12 1.316 1_554 S
N11 C13 1.375 . S
C12 N11 1.316 1_556 S
C12 N14 1.347 1_556 S
C12 H23 0.931 . S
C13 N11 1.375 . S
C13 C15 1.350 . S
C13 H22 0.930 . S
N14 C12 1.347 1_554 S
N14 C15 1.373 . S
C15 C13 1.350 . S
C15 N14 1.373 . S
C15 H29 0.931 . S
C16 O19 1.255 1_554 S
C16 O20 1.255 . S
O17 Co0 2.021 . S
O17 C10 1.259 1_565 S
O18 Co2 2.146 1_455 S
O18 C10 1.258 . S
O19 Co2 2.024 1_566 S
O19 C16 1.255 1_556 S
O20 Co0 2.062 1_655 S
O20 C16 1.255 . S
O21 C1 1.259 1_655 S
O21 Co2 1.989 1_556 S
H22 C13 0.930 . S
H23 C12 0.931 . S
O24 Co0 2.117 1_556 S
O24 C1 1.258 1_565 S
O25 Co0 2.020 1_545 S
O25 C27 1.256 . S
O26 Co2 2.059 1_455 S
O26 C27 1.255 . S
C27 O25 1.256 . S
C27 O26 1.255 . S
H28 C7 0.931 . S
H29 C15 0.931 . S
Co30 N35 2.057 . S
Co30 O47 2.021 . S
Co30 O50 2.062 . S
Co30 O54 2.117 . S
Co30 O55 2.020 . S
C31 O51 1.259 . S
C31 O54 1.258 . S
Co32 N41 2.057 . S
Co32 O48 2.117 . S
Co32 O49 2.020 . S
Co32 O51 2.021 . S
Co32 O56 2.062 . S
C33 N35 1.316 . S
C33 N36 1.347 . S
C33 H38 0.931 . S
C34 N35 1.375 . S
C34 C37 1.350 . S
C34 H39 0.930 . S
N35 Co30 2.057 . S
N35 C33 1.316 . S
N35 C34 1.375 . S
N36 C33 1.347 . S
N36 C37 1.373 . S
C37 C34 1.350 . S
C37 N36 1.373 . S
C37 H58 0.931 . S
H38 C33 0.931 . S
H39 C34 0.930 . S
C40 O47 1.259 . S
C40 O48 1.258 . S
N41 Co32 2.057 . S
N41 C42 1.316 . S
N41 C43 1.375 . S
C42 N41 1.316 . S
C42 N44 1.347 . S
C42 H53 0.931 . S
C43 N41 1.375 . S
C43 C45 1.350 . S
C43 H52 0.930 . S
N44 C42 1.347 . S
N44 C45 1.373 . S
C45 C43 1.350 . S
C45 N44 1.373 . S
C45 H59 0.931 . S
C46 O49 1.256 . S
C46 O50 1.255 . S
O47 Co30 2.021 . S
O47 C40 1.259 . S
O48 Co32 2.117 . S
O48 C40 1.258 . S
O49 Co32 2.020 . S
O49 C46 1.256 . S
O50 Co30 2.062 . S
O50 C46 1.255 . S
O51 C31 1.259 . S
O51 Co32 2.021 . S
H52 C43 0.930 . S
H53 C42 0.931 . S
O54 Co30 2.117 . S
O54 C31 1.258 . S
O55 Co30 2.020 . S
O55 C57 1.256 . S
O56 Co32 2.062 . S
O56 C57 1.255 . S
C57 O55 1.256 . S
C57 O56 1.255 . S
H58 C37 0.931 . S
H59 C45 0.931 . S
H60 C65 0.930 . S
H61 C68 0.930 1_655 S
H62 C70 0.930 . S
H63 C64 1.016 . S
C64 H63 1.016 . S
C64 N71 1.286 . S
C65 H60 0.930 . S
C65 C66 1.397 . S
C65 C67 1.361 1_565 S
C66 C65 1.397 . S
C66 C70 1.390 . S
C67 C65 1.361 1_545 S
C67 C68 1.393 . S
C67 N71 1.413 1_455 S
C68 H61 0.930 1_455 S
C68 C67 1.393 . S
C68 C69 1.399 1_545 S
C69 C68 1.399 1_565 S
C69 C70 1.381 . S
C70 H62 0.930 . S
C70 C66 1.390 . S
C70 C69 1.381 . S
N71 C64 1.286 . S
N71 C67 1.413 1_655 S
H72 C77 0.930 . S
H73 C80 0.930 . S
H74 C82 0.930 . S
H75 C76 1.016 . S
C76 H75 1.016 . S
C76 N83 1.286 . S
C77 H72 0.930 . S
C77 C78 1.397 . S
C77 C79 1.361 1_665 S
C78 C77 1.397 . S
C78 C82 1.390 . S
C79 C77 1.361 1_445 S
C79 C80 1.393 . S
C79 N83 1.413 . S
C80 H73 0.930 . S
C80 C79 1.393 . S
C80 C81 1.399 1_455 S
C81 C80 1.399 1_655 S
C81 C82 1.381 1_545 S
C82 H74 0.930 . S
C82 C78 1.390 . S
C82 C81 1.381 1_565 S
N83 C76 1.286 . S
N83 C79 1.413 . S
H84 C89 0.930 . S
H85 C92 0.930 . S
H86 C94 0.930 . S
H87 C88 1.016 . S
C88 H87 1.016 . S
C88 N95 1.286 . S
C89 H84 0.930 . S
C89 C90 1.397 . S
C89 C91 1.361 . S
C90 C89 1.397 . S
C90 C94 1.390 . S
C91 C89 1.361 . S
C91 C92 1.393 . S
C91 N95 1.413 . S
C92 H85 0.930 . S
C92 C91 1.393 . S
C92 C93 1.399 . S
C93 C92 1.399 . S
C93 C94 1.381 . S
C94 H86 0.930 . S
C94 C90 1.390 . S
C94 C93 1.381 . S
N95 C88 1.286 . S
N95 C91 1.413 . S
H96 C101 0.930 . S
H97 C104 0.930 . S
H98 C106 0.930 . S
H99 C100 1.016 . S
C100 H99 1.016 . S
C100 N107 1.286 . S
C101 H96 0.930 . S
C101 C102 1.397 . S
C101 C103 1.361 . S
C102 C101 1.397 . S
C102 C106 1.390 . S
C103 C101 1.361 . S
C103 C104 1.393 . S
C103 N107 1.413 . S
C104 H97 0.930 . S
C104 C103 1.393 . S
C104 C105 1.399 . S
C105 C104 1.399 . S
C105 C106 1.381 . S
C106 H98 0.930 . S
C106 C102 1.390 . S
C106 C105 1.381 . S
N107 C100 1.286 . S
N107 C103 1.413 . S
H108 C116 0.929 . S
H109 C118 0.930 . S
H110 C120 0.930 . S
H111 C123 0.929 . S
H112 C126 0.930 . S
H113 C128 0.960 1_556 S
H114 C128 0.960 . S
H115 C128 0.960 1_556 S
C116 H108 0.929 . S
C116 C117 1.377 . S
C116 C118 1.384 . S
C117 C116 1.377 . S
C117 C123 1.390 1_554 S
C118 H109 0.930 . S
C118 C116 1.384 . S
C118 C119 1.372 . S
C119 C118 1.372 . S
C119 C120 1.400 1_554 S
C119 C124 1.490 . S
C120 H110 0.930 . S
C120 C119 1.400 1_556 S
C120 C123 1.386 . S
H121 C137 0.930 1_556 S
H122 C138 0.931 1_556 S
C123 H111 0.929 . S
C123 C117 1.390 1_556 S
C123 C120 1.386 . S
C124 C119 1.490 . S
C124 C126 1.395 . S
C124 C127 1.403 . S
H125 C131 0.930 . S
C126 H112 0.930 . S
C126 C124 1.395 . S
C126 C129 1.403 . S
C127 C124 1.403 . S
C127 C128 1.524 . S
C127 C131 1.400 . S
C128 H113 0.960 1_554 S
C128 H114 0.960 . S
C128 H115 0.960 1_554 S
C128 C127 1.524 . S
C129 C126 1.403 . S
C129 C130 1.392 . S
C129 C133 1.495 . S
C130 C129 1.392 . S
C130 C131 1.385 . S
C130 C132 1.478 . S
C131 H125 0.930 . S
C131 C127 1.400 . S
C131 C130 1.385 . S
C132 C130 1.478 . S
C132 C134 1.381 . S
C132 C138 1.383 . S
C133 C129 1.495 . S
C133 H139 0.959 . S
C133 H140 0.961 . S
C133 H141 0.960 . S
C134 C132 1.381 . S
C134 C135 1.394 . S
C134 H142 0.930 . S
C135 C134 1.394 . S
C135 C136 1.383 . S
C135 H143 0.929 . S
C136 C135 1.383 . S
C136 C137 1.377 . S
C137 H121 0.930 1_554 S
C137 C136 1.377 . S
C137 C138 1.379 . S
C138 H122 0.931 1_554 S
C138 C132 1.383 . S
C138 C137 1.379 . S
H139 C133 0.959 . S
H140 C133 0.961 . S
H141 C133 0.960 . S
H142 C134 0.930 . S
H143 C135 0.929 . S
H144 C152 0.929 . S
H145 C154 0.930 . S
H146 C156 0.930 . S
H147 C159 0.929 . S
H148 C162 0.930 . S
H149 C164 0.960 . S
H150 C164 0.960 . S
H151 C164 0.960 . S
C152 H144 0.929 . S
C152 C153 1.377 1_556 S
C152 C154 1.384 . S
C153 C152 1.377 1_554 S
C153 C159 1.390 . S
C154 H145 0.930 . S
C154 C152 1.384 . S
C154 C155 1.372 1_556 S
C155 C154 1.372 1_554 S
C155 C156 1.400 . S
C155 C160 1.490 1_554 S
C156 H146 0.930 . S
C156 C155 1.400 . S
C156 C159 1.386 . S
H157 C173 0.930 . S
H158 C174 0.931 1_554 S
C159 H147 0.929 . S
C159 C153 1.390 . S
C159 C156 1.386 . S
C160 C155 1.490 1_556 S
C160 C162 1.396 . S
C160 C163 1.402 1_556 S
H161 C167 0.930 . S
C162 H148 0.930 . S
C162 C160 1.396 . S
C162 C165 1.403 . S
C163 C160 1.402 1_554 S
C163 C164 1.524 . S
C163 C167 1.400 . S
C164 H149 0.960 . S
C164 H150 0.960 . S
C164 H151 0.960 . S
C164 C163 1.524 . S
C165 C162 1.403 . S
C165 C166 1.392 . S
C165 C169 1.495 . S
C166 C165 1.392 . S
C166 C167 1.385 1_556 S
C166 C168 1.478 . S
C167 H161 0.930 . S
C167 C163 1.400 . S
C167 C166 1.385 1_554 S
C168 C166 1.478 . S
C168 C170 1.381 . S
C168 C174 1.383 . S
C169 C165 1.495 . S
C169 H175 0.959 . S
C169 H176 0.961 . S
C169 H177 0.960 . S
C170 C168 1.381 . S
C170 C171 1.394 . S
C170 H178 0.930 . S
C171 C170 1.394 . S
C171 C172 1.383 . S
C171 H179 0.929 . S
C172 C171 1.383 . S
C172 C173 1.377 . S
C173 H157 0.930 . S
C173 C172 1.377 . S
C173 C174 1.379 . S
C174 H158 0.931 1_556 S
C174 C168 1.383 . S
C174 C173 1.379 . S
H175 C169 0.959 . S
H176 C169 0.961 . S
H177 C169 0.960 . S
H178 C170 0.930 . S
H179 C171 0.929 . S
H180 C188 0.929 . S
H181 C190 0.930 . S
H182 C192 0.930 . S
H183 C195 0.929 . S
H184 C198 0.930 . S
H185 C200 0.960 . S
H186 C200 0.960 . S
H187 C200 0.960 . S
C188 H180 0.929 . S
C188 C189 1.377 . S
C188 C190 1.384 . S
C189 C188 1.377 . S
C189 C195 1.390 1_554 S
C190 H181 0.930 . S
C190 C188 1.384 . S
C190 C191 1.372 . S
C191 C190 1.372 . S
C191 C192 1.400 1_554 S
C191 C196 1.490 . S
C192 H182 0.930 . S
C192 C191 1.400 1_556 S
C192 C195 1.386 . S
H193 C209 0.930 1_556 S
H194 C210 0.931 1_556 S
C195 H183 0.929 . S
C195 C189 1.390 1_556 S
C195 C192 1.386 . S
C196 C191 1.490 . S
C196 C198 1.395 . S
C196 C199 1.403 1_554 S
H197 C203 0.930 . S
C198 H184 0.930 . S
C198 C196 1.395 . S
C198 C201 1.403 . S
C199 C196 1.403 1_556 S
C199 C200 1.524 . S
C199 C203 1.400 . S
C200 H185 0.960 . S
C200 H186 0.960 . S
C200 H187 0.960 . S
C200 C199 1.524 . S
C201 C198 1.403 . S
C201 C202 1.392 . S
C201 C205 1.495 . S
C202 C201 1.392 . S
C202 C203 1.385 1_554 S
C202 C204 1.478 . S
C203 H197 0.930 . S
C203 C199 1.400 . S
C203 C202 1.385 1_556 S
C204 C202 1.478 . S
C204 C206 1.381 . S
C204 C210 1.383 . S
C205 C201 1.495 . S
C205 H211 0.959 . S
C205 H212 0.961 . S
C205 H213 0.960 . S
C206 C204 1.381 . S
C206 C207 1.394 . S
C206 H214 0.930 . S
C207 C206 1.394 . S
C207 C208 1.383 . S
C207 H215 0.929 . S
C208 C207 1.383 . S
C208 C209 1.377 . S
C209 H193 0.930 1_554 S
C209 C208 1.377 . S
C209 C210 1.379 . S
C210 H194 0.931 1_554 S
C210 C204 1.383 . S
C210 C209 1.379 . S
H211 C205 0.959 . S
H212 C205 0.961 . S
H213 C205 0.960 . S
H214 C206 0.930 . S
H215 C207 0.929 . S
H216 C224 0.929 . S
H217 C226 0.930 . S
H218 C228 0.930 . S
H219 C231 0.929 1_554 S
H220 C234 0.930 . S
H221 C236 0.960 . S
H222 C236 0.960 . S
H223 C236 0.960 . S
C224 H216 0.929 . S
C224 C225 1.377 . S
C224 C226 1.384 . S
C225 C224 1.377 . S
C225 C231 1.390 . S
C226 H217 0.930 . S
C226 C224 1.384 . S
C226 C227 1.372 . S
C227 C226 1.372 . S
C227 C228 1.400 . S
C227 C232 1.490 . S
C228 H218 0.930 . S
C228 C227 1.400 . S
C228 C231 1.386 . S
H229 C245 0.930 . S
H230 C246 0.931 . S
C231 H219 0.929 1_556 S
C231 C225 1.390 . S
C231 C228 1.386 . S
C232 C227 1.490 . S
C232 C234 1.395 1_556 S
C232 C235 1.403 . S
H233 C239 0.930 . S
C234 H220 0.930 . S
C234 C232 1.395 1_554 S
C234 C237 1.403 . S
C235 C232 1.403 . S
C235 C236 1.524 . S
C235 C239 1.400 . S
C236 H221 0.960 . S
C236 H222 0.960 . S
C236 H223 0.960 . S
C236 C235 1.524 . S
C237 C234 1.403 . S
C237 C238 1.392 1_554 S
C237 C241 1.495 . S
C238 C237 1.392 1_556 S
C238 C239 1.385 . S
C238 C240 1.478 . S
C239 H233 0.930 . S
C239 C235 1.400 . S
C239 C238 1.385 . S
C240 C238 1.478 . S
C240 C242 1.381 . S
C240 C246 1.383 . S
C241 C237 1.495 . S
C241 H247 0.959 . S
C241 H248 0.961 . S
C241 H249 0.960 . S
C242 C240 1.381 . S
C242 C243 1.394 . S
C242 H250 0.930 . S
C243 C242 1.394 . S
C243 C244 1.383 . S
C243 H251 0.929 . S
C244 C243 1.383 . S
C244 C245 1.377 . S
C245 H229 0.930 . S
C245 C244 1.377 . S
C245 C246 1.379 . S
C246 H230 0.931 . S
C246 C240 1.383 . S
C246 C245 1.379 . S
H247 C241 0.959 . S
H248 C241 0.961 . S
H249 C241 0.960 . S
H250 C242 0.930 . S
H251 C243 0.929 . S
H252 C260 0.929 . S
H253 C262 0.930 . S
H254 C264 0.930 . S
H255 C267 0.929 . S
H256 C270 0.930 . S
H257 C272 0.960 . S
H258 C272 0.960 . S
H259 C272 0.960 . S
C260 H252 0.929 . S
C260 C261 1.377 . S
C260 C262 1.384 . S
C261 C260 1.377 . S
C261 C267 1.390 . S
C262 H253 0.930 . S
C262 C260 1.384 . S
C262 C263 1.372 . S
C263 C262 1.372 . S
C263 C264 1.400 . S
C263 C268 1.490 . S
C264 H254 0.930 . S
C264 C263 1.400 . S
C264 C267 1.386 . S
H265 C281 0.930 . S
H266 C282 0.931 . S
C267 H255 0.929 . S
C267 C261 1.390 . S
C267 C264 1.386 . S
C268 C263 1.490 . S
C268 C270 1.395 . S
C268 C271 1.403 . S
H269 C275 0.930 . S
C270 H256 0.930 . S
C270 C268 1.395 . S
C270 C273 1.403 . S
C271 C268 1.403 . S
C271 C272 1.524 . S
C271 C275 1.400 . S
C272 H257 0.960 . S
C272 H258 0.960 . S
C272 H259 0.960 . S
C272 C271 1.524 . S
C273 C270 1.403 . S
C273 C274 1.392 . S
C273 C277 1.495 . S
C274 C273 1.392 . S
C274 C275 1.385 . S
C274 C276 1.478 . S
C275 H269 0.930 . S
C275 C271 1.400 . S
C275 C274 1.385 . S
C276 C274 1.478 . S
C276 C278 1.381 . S
C276 C282 1.383 . S
C277 C273 1.495 . S
C277 H283 0.959 . S
C277 H284 0.961 . S
C277 H285 0.960 . S
C278 C276 1.381 . S
C278 C279 1.394 . S
C278 H286 0.930 . S
C279 C278 1.394 . S
C279 C280 1.383 . S
C279 H287 0.929 . S
C280 C279 1.383 . S
C280 C281 1.377 . S
C281 H265 0.930 . S
C281 C280 1.377 . S
C281 C282 1.379 . S
C282 H266 0.931 . S
C282 C276 1.383 . S
C282 C281 1.379 . S
H283 C277 0.959 . S
H284 C277 0.961 . S
H285 C277 0.960 . S
H286 C278 0.930 . S
H287 C279 0.929 . S
H288 C296 0.929 . S
H289 C298 0.930 . S
H290 C300 0.930 . S
H291 C303 0.929 . S
H292 C306 0.930 . S
H293 C308 0.960 . S
H294 C308 0.960 . S
H295 C308 0.960 . S
C296 H288 0.929 . S
C296 C297 1.377 . S
C296 C298 1.384 . S
C297 C296 1.377 . S
C297 C303 1.390 . S
C298 H289 0.930 . S
C298 C296 1.384 . S
C298 C299 1.372 . S
C299 C298 1.372 . S
C299 C300 1.400 . S
C299 C304 1.490 . S
C300 H290 0.930 . S
C300 C299 1.400 . S
C300 C303 1.386 . S
H301 C317 0.930 . S
H302 C318 0.931 . S
C303 H291 0.929 . S
C303 C297 1.390 . S
C303 C300 1.386 . S
C304 C299 1.490 . S
C304 C306 1.395 . S
C304 C307 1.403 . S
H305 C311 0.930 . S
C306 H292 0.930 . S
C306 C304 1.395 . S
C306 C309 1.403 . S
C307 C304 1.403 . S
C307 C308 1.524 . S
C307 C311 1.400 . S
C308 H293 0.960 . S
C308 H294 0.960 . S
C308 H295 0.960 . S
C308 C307 1.524 . S
C309 C306 1.403 . S
C309 C310 1.392 . S
C309 C313 1.495 . S
C310 C309 1.392 . S
C310 C311 1.385 . S
C310 C312 1.478 . S
C311 H305 0.930 . S
C311 C307 1.400 . S
C311 C310 1.385 . S
C312 C310 1.478 . S
C312 C314 1.381 . S
C312 C318 1.383 . S
C313 C309 1.495 . S
C313 H319 0.959 . S
C313 H320 0.961 . S
C313 H321 0.960 . S
C314 C312 1.381 . S
C314 C315 1.394 . S
C314 H322 0.930 . S
C315 C314 1.394 . S
C315 C316 1.383 . S
C315 H323 0.929 . S
C316 C315 1.383 . S
C316 C317 1.377 . S
C317 H301 0.930 . S
C317 C316 1.377 . S
C317 C318 1.379 . S
C318 H302 0.931 . S
C318 C312 1.383 . S
C318 C317 1.379 . S
H319 C313 0.959 . S
H320 C313 0.961 . S
H321 C313 0.960 . S
H322 C314 0.930 . S
H323 C315 0.929 . S
H324 C332 0.929 . S
H325 C334 0.930 . S
H326 C336 0.930 . S
H327 C339 0.929 . S
H328 C342 0.930 . S
H329 C344 0.960 . S
H330 C344 0.960 . S
H331 C344 0.960 . S
C332 H324 0.929 . S
C332 C333 1.377 . S
C332 C334 1.384 . S
C333 C332 1.377 . S
C333 C339 1.390 . S
C334 H325 0.930 . S
C334 C332 1.384 . S
C334 C335 1.372 . S
C335 C334 1.372 . S
C335 C336 1.400 . S
C335 C340 1.490 . S
C336 H326 0.930 . S
C336 C335 1.400 . S
C336 C339 1.386 . S
H337 C353 0.930 . S
H338 C354 0.931 . S
C339 H327 0.929 . S
C339 C333 1.390 . S
C339 C336 1.386 . S
C340 C335 1.490 . S
C340 C342 1.395 . S
C340 C343 1.403 . S
H341 C347 0.930 . S
C342 H328 0.930 . S
C342 C340 1.395 . S
C342 C345 1.403 . S
C343 C340 1.403 . S
C343 C344 1.524 . S
C343 C347 1.400 . S
C344 H329 0.960 . S
C344 H330 0.960 . S
C344 H331 0.960 . S
C344 C343 1.524 . S
C345 C342 1.403 . S
C345 C346 1.392 . S
C345 C349 1.495 . S
C346 C345 1.392 . S
C346 C347 1.385 . S
C346 C348 1.478 . S
C347 H341 0.930 . S
C347 C343 1.400 . S
C347 C346 1.385 . S
C348 C346 1.478 . S
C348 C350 1.381 . S
C348 C354 1.383 . S
C349 C345 1.495 . S
C349 H355 0.959 . S
C349 H356 0.961 . S
C349 H357 0.960 . S
C350 C348 1.381 . S
C350 C351 1.394 . S
C350 H358 0.930 . S
C351 C350 1.394 . S
C351 C352 1.383 . S
C351 H359 0.929 . S
C352 C351 1.383 . S
C352 C353 1.377 . S
C353 H337 0.930 . S
C353 C352 1.377 . S
C353 C354 1.379 . S
C354 H338 0.931 . S
C354 C348 1.383 . S
C354 C353 1.379 . S
H355 C349 0.959 . S
H356 C349 0.961 . S
H357 C349 0.960 . S
H358 C350 0.930 . S
H359 C351 0.929 . S
H360 C368 0.929 . S
H361 C370 0.930 . S
H362 C372 0.930 . S
H363 C375 0.929 . S
H364 C378 0.930 . S
H365 C380 0.960 . S
H366 C380 0.960 . S
H367 C380 0.960 . S
C368 H360 0.929 . S
C368 C369 1.377 . S
C368 C370 1.384 . S
C369 C368 1.377 . S
C369 C375 1.390 . S
C370 H361 0.930 . S
C370 C368 1.384 . S
C370 C371 1.372 . S
C371 C370 1.372 . S
C371 C372 1.400 . S
C371 C376 1.490 . S
C372 H362 0.930 . S
C372 C371 1.400 . S
C372 C375 1.386 . S
H373 C389 0.930 . S
H374 C390 0.931 . S
C375 H363 0.929 . S
C375 C369 1.390 . S
C375 C372 1.386 . S
C376 C371 1.490 . S
C376 C378 1.395 . S
C376 C379 1.403 . S
H377 C383 0.930 . S
C378 H364 0.930 . S
C378 C376 1.395 . S
C378 C381 1.403 . S
C379 C376 1.403 . S
C379 C380 1.524 . S
C379 C383 1.400 . S
C380 H365 0.960 . S
C380 H366 0.960 . S
C380 H367 0.960 . S
C380 C379 1.524 . S
C381 C378 1.403 . S
C381 C382 1.392 . S
C381 C385 1.495 . S
C382 C381 1.392 . S
C382 C383 1.385 . S
C382 C384 1.478 . S
C383 H377 0.930 . S
C383 C379 1.400 . S
C383 C382 1.385 . S
C384 C382 1.478 . S
C384 C386 1.381 . S
C384 C390 1.383 . S
C385 C381 1.495 . S
C385 H391 0.959 . S
C385 H392 0.961 . S
C385 H393 0.960 . S
C386 C384 1.381 . S
C386 C387 1.394 . S
C386 H394 0.930 . S
C387 C386 1.394 . S
C387 C388 1.383 . S
C387 H395 0.929 . S
C388 C387 1.383 . S
C388 C389 1.377 . S
C389 H373 0.930 . S
C389 C388 1.377 . S
C389 C390 1.379 . S
C390 H374 0.931 . S
C390 C384 1.383 . S
C390 C389 1.379 . S
H391 C385 0.959 . S
H392 C385 0.961 . S
H393 C385 0.960 . S
H394 C386 0.930 . S
H395 C387 0.929 . S
H396 C404 0.929 . S
H397 C406 0.930 . S
H398 C408 0.930 . S
H399 C411 0.929 . S
H400 C414 0.930 . S
H401 C416 0.960 . S
H402 C416 0.960 1_565 S
H403 C416 0.960 . S
C404 H396 0.929 . S
C404 C405 1.377 1_565 S
C404 C406 1.384 . S
C405 C404 1.377 1_545 S
C405 C411 1.390 . S
C406 H397 0.930 . S
C406 C404 1.384 . S
C406 C407 1.372 1_565 S
C407 C406 1.372 1_545 S
C407 C408 1.400 . S
C407 C412 1.490 1_545 S
C408 H398 0.930 . S
C408 C407 1.400 . S
C408 C411 1.386 . S
H409 C425 0.930 . S
H410 C426 0.931 . S
C411 H399 0.929 . S
C411 C405 1.390 . S
C411 C408 1.386 . S
C412 C407 1.490 1_565 S
C412 C414 1.396 . S
C412 C415 1.402 1_465 S
H413 C419 0.930 . S
C414 H400 0.930 . S
C414 C412 1.396 . S
C414 C417 1.403 . S
C415 C412 1.402 1_645 S
C415 C416 1.524 . S
C415 C419 1.400 . S
C416 H401 0.960 . S
C416 H402 0.960 1_545 S
C416 H403 0.960 . S
C416 C415 1.524 . S
C417 C414 1.403 . S
C417 C418 1.394 . S
C417 C421 1.495 . S
C418 C417 1.394 . S
C418 C419 1.383 1_465 S
C418 C420 1.478 1_565 S
C419 H413 0.930 . S
C419 C415 1.400 . S
C419 C418 1.383 1_645 S
C420 C418 1.478 1_545 S
C420 C422 1.369 1_545 S
C420 C426 1.394 . S
C421 C417 1.495 . S
C421 H427 0.959 . S
C421 H428 0.961 1_565 S
C421 H429 0.960 . S
C422 C420 1.369 1_565 S
C422 C423 1.394 . S
C422 H430 0.930 . S
C423 C422 1.394 . S
C423 C424 1.383 1_565 S
C423 H431 0.929 . S
C424 C423 1.383 1_545 S
C424 C425 1.377 . S
C425 H409 0.930 . S
C425 C424 1.377 . S
C425 C426 1.379 . S
C426 H410 0.931 . S
C426 C420 1.394 . S
C426 C425 1.379 . S
H427 C421 0.959 . S
H428 C421 0.961 1_545 S
H429 C421 0.960 . S
H430 C422 0.930 . S
H431 C423 0.929 . S
H432 C440 0.929 . S
H433 C442 0.931 1_565 S
H434 C444 0.930 . S
H435 C447 0.929 . S
H436 C450 0.930 . S
H437 C452 0.960 . S
H438 C452 0.960 . S
H439 C452 0.960 . S
C440 H432 0.929 . S
C440 C441 1.378 1_665 S
C440 C442 1.383 1_565 S
C441 C440 1.378 1_445 S
C441 C447 1.390 . S
C442 H433 0.931 1_545 S
C442 C440 1.383 1_545 S
C442 C443 1.372 1_655 S
C443 C442 1.372 1_455 S
C443 C444 1.400 . S
C443 C448 1.490 1_455 S
C444 H434 0.930 . S
C444 C443 1.400 . S
C444 C447 1.386 . S
H445 C461 0.930 . S
H446 C462 0.931 . S
C447 H435 0.929 . S
C447 C441 1.390 . S
C447 C444 1.386 . S
C448 C443 1.490 1_655 S
C448 C450 1.395 . S
C448 C451 1.403 1_645 S
H449 C455 0.930 . S
C450 H436 0.930 . S
C450 C448 1.395 . S
C450 C453 1.403 . S
C451 C448 1.403 1_465 S
C451 C452 1.524 . S
C451 C455 1.400 . S
C452 H437 0.960 . S
C452 H438 0.960 . S
C452 H439 0.960 . S
C452 C451 1.524 . S
C453 C450 1.403 . S
C453 C454 1.392 . S
C453 C457 1.495 . S
C454 C453 1.392 . S
C454 C455 1.385 1_645 S
C454 C456 1.478 . S
C455 H449 0.930 . S
C455 C451 1.400 . S
C455 C454 1.385 1_465 S
C456 C454 1.478 . S
C456 C458 1.381 . S
C456 C462 1.383 1_655 S
C457 C453 1.495 . S
C457 H463 0.959 . S
C457 H464 0.961 . S
C457 H465 0.960 . S
C458 C456 1.381 . S
C458 C459 1.394 . S
C458 H466 0.931 . S
C459 C458 1.394 . S
C459 C460 1.383 . S
C459 H467 0.929 1_545 S
C460 C459 1.383 . S
C460 C461 1.377 1_655 S
C461 H445 0.930 . S
C461 C460 1.377 1_455 S
C461 C462 1.379 . S
C462 H446 0.931 . S
C462 C456 1.383 1_455 S
C462 C461 1.379 . S
H463 C457 0.959 . S
H464 C457 0.961 . S
H465 C457 0.960 . S
H466 C458 0.931 . S
H467 C459 0.929 1_565 S
H468 C476 0.929 . S
H469 C478 0.930 . S
H470 C480 0.930 . S
H471 C483 0.929 . S
H472 C486 0.930 . S
H473 C488 0.960 . S
H474 C488 0.960 . S
H475 C488 0.960 . S
C476 H468 0.929 . S
C476 C477 1.377 . S
C476 C478 1.384 . S
C477 C476 1.377 . S
C477 C483 1.390 . S
C478 H469 0.930 . S
C478 C476 1.384 . S
C478 C479 1.372 . S
C479 C478 1.372 . S
C479 C480 1.400 . S
C479 C484 1.490 . S
C480 H470 0.930 . S
C480 C479 1.400 . S
C480 C483 1.386 . S
H481 C497 0.930 . S
H482 C498 0.931 . S
C483 H471 0.929 . S
C483 C477 1.390 . S
C483 C480 1.386 . S
C484 C479 1.490 . S
C484 C486 1.395 . S
C484 C487 1.403 . S
H485 C491 0.930 . S
C486 H472 0.930 . S
C486 C484 1.395 . S
C486 C489 1.403 . S
C487 C484 1.403 . S
C487 C488 1.524 . S
C487 C491 1.400 . S
C488 H473 0.960 . S
C488 H474 0.960 . S
C488 H475 0.960 . S
C488 C487 1.524 . S
C489 C486 1.403 . S
C489 C490 1.392 . S
C489 C493 1.495 . S
C490 C489 1.392 . S
C490 C491 1.385 . S
C490 C492 1.478 . S
C491 H485 0.930 . S
C491 C487 1.400 . S
C491 C490 1.385 . S
C492 C490 1.478 . S
C492 C494 1.381 . S
C492 C498 1.383 . S
C493 C489 1.495 . S
C493 H499 0.959 . S
C493 H500 0.961 . S
C493 H501 0.960 . S
C494 C492 1.381 . S
C494 C495 1.394 . S
C494 H502 0.930 . S
C495 C494 1.394 . S
C495 C496 1.383 . S
C495 H503 0.929 . S
C496 C495 1.383 . S
C496 C497 1.377 . S
C497 H481 0.930 . S
C497 C496 1.377 . S
C497 C498 1.379 . S
C498 H482 0.931 . S
C498 C492 1.383 . S
C498 C497 1.379 . S
H499 C493 0.959 . S
H500 C493 0.961 . S
H501 C493 0.960 . S
H502 C494 0.930 . S
H503 C495 0.929 . S
H504 C512 0.929 . S
H505 C514 0.930 . S
H506 C516 0.930 . S
H507 C519 0.929 . S
H508 C522 0.930 . S
H509 C524 0.960 . S
H510 C524 0.960 . S
H511 C524 0.960 . S
C512 H504 0.929 . S
C512 C513 1.377 . S
C512 C514 1.384 . S
C513 C512 1.377 . S
C513 C519 1.390 . S
C514 H505 0.930 . S
C514 C512 1.384 . S
C514 C515 1.372 . S
C515 C514 1.372 . S
C515 C516 1.400 . S
C515 C520 1.490 . S
C516 H506 0.930 . S
C516 C515 1.400 . S
C516 C519 1.386 . S
H517 C533 0.930 . S
H518 C534 0.931 . S
C519 H507 0.929 . S
C519 C513 1.390 . S
C519 C516 1.386 . S
C520 C515 1.490 . S
C520 C522 1.395 . S
C520 C523 1.403 . S
H521 C527 0.930 . S
C522 H508 0.930 . S
C522 C520 1.395 . S
C522 C525 1.403 . S
C523 C520 1.403 . S
C523 C524 1.524 . S
C523 C527 1.400 . S
C524 H509 0.960 . S
C524 H510 0.960 . S
C524 H511 0.960 . S
C524 C523 1.524 . S
C525 C522 1.403 . S
C525 C526 1.392 . S
C525 C529 1.495 . S
C526 C525 1.392 . S
C526 C527 1.385 . S
C526 C528 1.478 . S
C527 H521 0.930 . S
C527 C523 1.400 . S
C527 C526 1.385 . S
C528 C526 1.478 . S
C528 C530 1.381 . S
C528 C534 1.383 . S
C529 C525 1.495 . S
C529 H535 0.959 . S
C529 H536 0.961 . S
C529 H537 0.960 . S
C530 C528 1.381 . S
C530 C531 1.394 . S
C530 H538 0.930 . S
C531 C530 1.394 . S
C531 C532 1.383 . S
C531 H539 0.929 . S
C532 C531 1.383 . S
C532 C533 1.377 . S
C533 H517 0.930 . S
C533 C532 1.377 . S
C533 C534 1.379 . S
C534 H518 0.931 . S
C534 C528 1.383 . S
C534 C533 1.379 . S
H535 C529 0.959 . S
H536 C529 0.961 . S
H537 C529 0.960 . S
H538 C530 0.930 . S
H539 C531 0.929 . S
C136 C102 1.425 . S
C117 C27 1.465 . S
C153 N6 1.301 . S
C172 C88 1.278 . S
C189 C16 1.373 . S
C208 C100 1.302 . S
C225 N14 1.426 1_556 S
C244 C90 1.435 . S
C261 C57 1.466 . S
C280 C78 1.452 . S
C297 N36 1.302 . S
C316 C64 1.296 . S
C352 C76 1.328 . S
C333 C46 1.374 . S
C388 C66 1.405 . S
C369 N44 1.423 . S
C405 C10 1.475 . S
C424 C69 1.467 1_545 S
C441 C1 1.543 . S
C460 C81 1.542 . S
C496 C93 1.477 . S
C477 C40 1.474 . S
C513 C31 1.543 . S
C532 C105 1.529 . S
