# Generated by pormake.
# Topology ctn, (3,4)-cn, num edge types: 1
# Building blocks:
#     Node 0, Type 0, BuildingBlock: QEWDON_clean_linker_0, # of connection points: 3
#     Node 1, Type 0, BuildingBlock: QEWDON_clean_linker_0, # of connection points: 3
#     Node 2, Type 0, BuildingBlock: QEWDON_clean_linker_0, # of connection points: 3
#     Node 3, Type 0, BuildingBlock: QEWDON_clean_linker_0, # of connection points: 3
#     Node 4, Type 0, BuildingBlock: QEWDON_clean_linker_0, # of connection points: 3
#     Node 5, Type 0, BuildingBlock: QEWDON_clean_linker_0, # of connection points: 3
#     Node 6, Type 0, BuildingBlock: QEWDON_clean_linker_0, # of connection points: 3
#     Node 7, Type 0, BuildingBlock: QEWDON_clean_linker_0, # of connection points: 3
#     Node 8, Type 0, BuildingBlock: QEWDON_clean_linker_0, # of connection points: 3
#     Node 9, Type 0, BuildingBlock: QEWDON_clean_linker_0, # of connection points: 3
#     Node 10, Type 0, BuildingBlock: QEWDON_clean_linker_0, # of connection points: 3
#     Node 11, Type 0, BuildingBlock: QEWDON_clean_linker_0, # of connection points: 3
#     Node 12, Type 0, BuildingBlock: QEWDON_clean_linker_0, # of connection points: 3
#     Node 13, Type 0, BuildingBlock: QEWDON_clean_linker_0, # of connection points: 3
#     Node 14, Type 0, BuildingBlock: QEWDON_clean_linker_0, # of connection points: 3
#     Node 15, Type 0, BuildingBlock: QEWDON_clean_linker_0, # of connection points: 3
#     Node 16, Type 1, BuildingBlock: QUQFOY_clean_sbu_1, # of connection points: 4
#     Node 17, Type 1, BuildingBlock: QUQFOY_clean_sbu_1, # of connection points: 4
#     Node 18, Type 1, BuildingBlock: QUQFOY_clean_sbu_1, # of connection points: 4
#     Node 19, Type 1, BuildingBlock: QUQFOY_clean_sbu_1, # of connection points: 4
#     Node 20, Type 1, BuildingBlock: QUQFOY_clean_sbu_1, # of connection points: 4
#     Node 21, Type 1, BuildingBlock: QUQFOY_clean_sbu_1, # of connection points: 4
#     Node 22, Type 1, BuildingBlock: QUQFOY_clean_sbu_1, # of connection points: 4
#     Node 23, Type 1, BuildingBlock: QUQFOY_clean_sbu_1, # of connection points: 4
#     Node 24, Type 1, BuildingBlock: QUQFOY_clean_sbu_1, # of connection points: 4
#     Node 25, Type 1, BuildingBlock: QUQFOY_clean_sbu_1, # of connection points: 4
#     Node 26, Type 1, BuildingBlock: QUQFOY_clean_sbu_1, # of connection points: 4
#     Node 27, Type 1, BuildingBlock: QUQFOY_clean_sbu_1, # of connection points: 4
#     Edge 28, Type (0, 1), BuildingBlock: XUDNAN_clean_linker_2, # of connection points: 2
#     Edge 29, Type (0, 1), BuildingBlock: XUDNAN_clean_linker_2, # of connection points: 2
#     Edge 30, Type (0, 1), BuildingBlock: XUDNAN_clean_linker_2, # of connection points: 2
#     Edge 31, Type (0, 1), BuildingBlock: XUDNAN_clean_linker_2, # of connection points: 2
#     Edge 32, Type (0, 1), BuildingBlock: XUDNAN_clean_linker_2, # of connection points: 2
#     Edge 33, Type (0, 1), BuildingBlock: XUDNAN_clean_linker_2, # of connection points: 2
#     Edge 34, Type (0, 1), BuildingBlock: XUDNAN_clean_linker_2, # of connection points: 2
#     Edge 35, Type (0, 1), BuildingBlock: XUDNAN_clean_linker_2, # of connection points: 2
#     Edge 36, Type (0, 1), BuildingBlock: XUDNAN_clean_linker_2, # of connection points: 2
#     Edge 37, Type (0, 1), BuildingBlock: XUDNAN_clean_linker_2, # of connection points: 2
#     Edge 38, Type (0, 1), BuildingBlock: XUDNAN_clean_linker_2, # of connection points: 2
#     Edge 39, Type (0, 1), BuildingBlock: XUDNAN_clean_linker_2, # of connection points: 2
#     Edge 40, Type (0, 1), BuildingBlock: XUDNAN_clean_linker_2, # of connection points: 2
#     Edge 41, Type (0, 1), BuildingBlock: XUDNAN_clean_linker_2, # of connection points: 2
#     Edge 42, Type (0, 1), BuildingBlock: XUDNAN_clean_linker_2, # of connection points: 2
#     Edge 43, Type (0, 1), BuildingBlock: XUDNAN_clean_linker_2, # of connection points: 2
#     Edge 44, Type (0, 1), BuildingBlock: XUDNAN_clean_linker_2, # of connection points: 2
#     Edge 45, Type (0, 1), BuildingBlock: XUDNAN_clean_linker_2, # of connection points: 2
#     Edge 46, Type (0, 1), BuildingBlock: XUDNAN_clean_linker_2, # of connection points: 2
#     Edge 47, Type (0, 1), BuildingBlock: XUDNAN_clean_linker_2, # of connection points: 2
#     Edge 48, Type (0, 1), BuildingBlock: XUDNAN_clean_linker_2, # of connection points: 2
#     Edge 49, Type (0, 1), BuildingBlock: XUDNAN_clean_linker_2, # of connection points: 2
#     Edge 50, Type (0, 1), BuildingBlock: XUDNAN_clean_linker_2, # of connection points: 2
#     Edge 51, Type (0, 1), BuildingBlock: XUDNAN_clean_linker_2, # of connection points: 2
#     Edge 52, Type (0, 1), BuildingBlock: XUDNAN_clean_linker_2, # of connection points: 2
#     Edge 53, Type (0, 1), BuildingBlock: XUDNAN_clean_linker_2, # of connection points: 2
#     Edge 54, Type (0, 1), BuildingBlock: XUDNAN_clean_linker_2, # of connection points: 2
#     Edge 55, Type (0, 1), BuildingBlock: XUDNAN_clean_linker_2, # of connection points: 2
#     Edge 56, Type (0, 1), BuildingBlock: XUDNAN_clean_linker_2, # of connection points: 2
#     Edge 57, Type (0, 1), BuildingBlock: XUDNAN_clean_linker_2, # of connection points: 2
#     Edge 58, Type (0, 1), BuildingBlock: XUDNAN_clean_linker_2, # of connection points: 2
#     Edge 59, Type (0, 1), BuildingBlock: XUDNAN_clean_linker_2, # of connection points: 2
#     Edge 60, Type (0, 1), BuildingBlock: XUDNAN_clean_linker_2, # of connection points: 2
#     Edge 61, Type (0, 1), BuildingBlock: XUDNAN_clean_linker_2, # of connection points: 2
#     Edge 62, Type (0, 1), BuildingBlock: XUDNAN_clean_linker_2, # of connection points: 2
#     Edge 63, Type (0, 1), BuildingBlock: XUDNAN_clean_linker_2, # of connection points: 2
#     Edge 64, Type (0, 1), BuildingBlock: XUDNAN_clean_linker_2, # of connection points: 2
#     Edge 65, Type (0, 1), BuildingBlock: XUDNAN_clean_linker_2, # of connection points: 2
#     Edge 66, Type (0, 1), BuildingBlock: XUDNAN_clean_linker_2, # of connection points: 2
#     Edge 67, Type (0, 1), BuildingBlock: XUDNAN_clean_linker_2, # of connection points: 2
#     Edge 68, Type (0, 1), BuildingBlock: XUDNAN_clean_linker_2, # of connection points: 2
#     Edge 69, Type (0, 1), BuildingBlock: XUDNAN_clean_linker_2, # of connection points: 2
#     Edge 70, Type (0, 1), BuildingBlock: XUDNAN_clean_linker_2, # of connection points: 2
#     Edge 71, Type (0, 1), BuildingBlock: XUDNAN_clean_linker_2, # of connection points: 2
#     Edge 72, Type (0, 1), BuildingBlock: XUDNAN_clean_linker_2, # of connection points: 2
#     Edge 73, Type (0, 1), BuildingBlock: XUDNAN_clean_linker_2, # of connection points: 2
#     Edge 74, Type (0, 1), BuildingBlock: XUDNAN_clean_linker_2, # of connection points: 2
#     Edge 75, Type (0, 1), BuildingBlock: XUDNAN_clean_linker_2, # of connection points: 2
# Relax obj value: 0.130
# Max RMSD: 0.256
# Mean RMSD: 0.171
data_MOF--net-ctn--node1-QUQFOY_clean_sbu_1--node2-QEWDON_clean_linker_0--edge1-XUDNAN_clean_linker_2
_symmetry_space_group_name_H-M    P1
_symmetry_Int_Tables_number       1
_symmetry_cell_setting            triclinic
loop_
_symmetry_equiv_pos_as_xyz
'x, y, z'
_cell_length_a     52.285496
_cell_length_b     54.305649
_cell_length_c     59.080045
_cell_angle_alpha  101.84655
_cell_angle_beta   92.243944
_cell_angle_gamma 101.59837
loop_
_atom_site_label
_atom_site_type_symbol
_atom_site_fract_x
_atom_site_fract_y
_atom_site_fract_z
_atom_type_partial_charge
H0 H 0.12158 0.05416 0.07187 0.0
C1 C 0.1079 0.05279 0.0851 0.0
C2 C 0.1056 0.03259 0.0971 0.0
C3 C 0.0941 0.07246 0.09131 0.0
H4 H 0.0874 0.01739 0.12503 0.0
C5 C 0.08898 0.0325 0.11543 0.0
C6 C 0.07518 0.05229 0.122 0.0
C7 C 0.07751 0.07177 0.10932 0.0
C8 C 0.09983 0.09596 0.08177 0.0
H9 H 0.06691 0.08708 0.11377 0.0
C10 C 0.09223 0.09578 0.05856 0.0
C11 C 0.09604 0.11911 0.05091 0.0
C12 C 0.11191 0.11936 0.09684 0.0
H13 H 0.11789 0.11986 0.11474 0.0
C14 C 0.11617 0.14229 0.08909 0.0
H15 H 0.0826 0.0779 0.04686 0.0
C16 C 0.10812 0.14223 0.06632 0.0
H17 H 0.11122 0.16031 0.0607 0.0
H18 H 0.12545 0.16021 0.10085 0.0
H19 H 0.33654 0.75441 0.24366 0.0
C20 C 0.32507 0.73631 0.24603 0.0
C21 C 0.33687 0.71992 0.25676 0.0
C22 C 0.29809 0.72969 0.2389 0.0
H23 H 0.32909 0.68528 0.27017 0.0
C24 C 0.32102 0.69697 0.2602 0.0
C25 C 0.29457 0.68919 0.25171 0.0
C26 C 0.28336 0.70572 0.24101 0.0
C27 C 0.28447 0.74794 0.2303 0.0
H28 H 0.26299 0.70005 0.23421 0.0
C29 C 0.29422 0.76066 0.2129 0.0
C30 C 0.27962 0.77605 0.20347 0.0
C31 C 0.26063 0.75177 0.23908 0.0
H32 H 0.25289 0.74259 0.25275 0.0
C33 C 0.24636 0.76718 0.2302 0.0
H34 H 0.3128 0.75802 0.20646 0.0
C35 C 0.25549 0.77892 0.21236 0.0
H36 H 0.24315 0.78971 0.20523 0.0
H37 H 0.22784 0.76965 0.23688 0.0
H38 H 0.02592 0.47683 0.046 0.0
C39 C 0.01066 0.48773 0.04646 0.0
C40 C 0.00238 0.49824 0.06798 0.0
C41 C 0.00045 0.49229 0.02575 0.0
H42 H 0.97878 0.52333 0.08538 0.0
C43 C 0.98434 0.51441 0.06873 0.0
C44 C 0.97378 0.5193 0.0482 0.0
C45 C 0.98129 0.50722 0.02681 0.0
C46 C 0.01119 0.48324 0.00324 0.0
H47 H 0.97236 0.50955 0.01076 0.0
C48 C 0.01945 0.45963 0.99831 0.0
C49 C 0.03172 0.45252 0.97794 0.0
C50 C 0.01471 0.49911 0.987 0.0
H51 H 0.00922 0.51763 0.99034 0.0
C52 C 0.02619 0.49171 0.9665 0.0
H53 H 0.01692 0.44704 0.01048 0.0
C54 C 0.03483 0.46868 0.96204 0.0
H55 H 0.044 0.46347 0.94613 0.0
H56 H 0.02884 0.50412 0.95422 0.0
H57 H 0.77929 0.80831 0.2739 0.0
C58 C 0.7765 0.80014 0.25539 0.0
C59 C 0.78166 0.81628 0.2396 0.0
C60 C 0.76956 0.77331 0.2474 0.0
H61 H 0.78235 0.81784 0.20348 0.0
C62 C 0.7785 0.80541 0.21572 0.0
C63 C 0.77122 0.77865 0.2075 0.0
C64 C 0.76723 0.76259 0.22345 0.0
C65 C 0.76701 0.75644 0.26419 0.0
H66 H 0.76212 0.74185 0.21729 0.0
C67 C 0.74561 0.75442 0.2779 0.0
C68 C 0.74353 0.73846 0.29411 0.0
C69 C 0.78647 0.74263 0.26676 0.0
H70 H 0.80311 0.74406 0.25636 0.0
C71 C 0.78487 0.72726 0.28309 0.0
H72 H 0.73037 0.76474 0.27542 0.0
C73 C 0.76367 0.72523 0.29673 0.0
H74 H 0.76317 0.71334 0.30941 0.0
H75 H 0.80015 0.71691 0.28522 0.0
H76 H 0.14881 0.0036 0.49211 0.0
C77 C 0.13125 0.0039 0.48186 0.0
C78 C 0.13049 0.0248 0.47147 0.0
C79 C 0.10925 0.98361 0.47958 0.0
H80 H 0.10724 0.04055 0.44947 0.0
C81 C 0.10778 0.02479 0.45804 0.0
C82 C 0.08575 0.00456 0.45543 0.0
C83 C 0.0863 0.98423 0.46667 0.0
C84 C 0.11097 0.9612 0.48972 0.0
H85 H 0.0694 0.96843 0.46455 0.0
C86 C 0.09396 0.95406 0.50624 0.0
C87 C 0.09634 0.9331 0.51631 0.0
C88 C 0.13028 0.94719 0.48311 0.0
H89 H 0.14357 0.95242 0.47042 0.0
C90 C 0.13242 0.92616 0.49261 0.0
H91 H 0.0795 0.96533 0.5117 0.0
C92 C 0.1156 0.91909 0.50902 0.0
H93 H 0.11755 0.90244 0.51582 0.0
H94 H 0.14717 0.91527 0.48721 0.0
H95 H 0.29133 0.73318 0.77019 0.0
C96 C 0.28909 0.7394 0.7885 0.0
C97 C 0.29671 0.72574 0.80445 0.0
C98 C 0.27788 0.76074 0.79585 0.0
H99 H 0.29791 0.72287 0.84015 0.0
C100 C 0.29247 0.73368 0.82798 0.0
C101 C 0.28186 0.75559 0.83592 0.0
C102 C 0.27453 0.76889 0.81943 0.0
C103 C 0.26937 0.77429 0.7786 0.0
H104 H 0.26687 0.78609 0.82473 0.0
C105 C 0.24271 0.77422 0.7746 0.0
C106 C 0.23397 0.7848 0.7566 0.0
C107 C 0.28761 0.78593 0.76513 0.0
H108 H 0.30824 0.78606 0.76794 0.0
C109 C 0.27928 0.79736 0.74788 0.0
H110 H 0.22877 0.76519 0.78512 0.0
C111 C 0.25267 0.79666 0.74348 0.0
H112 H 0.24673 0.80467 0.72928 0.0
H113 H 0.29345 0.80627 0.73751 0.0
H114 H 0.95602 0.61409 0.46834 0.0
C115 C 0.94279 0.60015 0.47552 0.0
C116 C 0.93837 0.60581 0.49909 0.0
C117 C 0.92952 0.57694 0.46099 0.0
H118 H 0.91718 0.59228 0.52629 0.0
C119 C 0.92059 0.588 0.50805 0.0
C120 C 0.90766 0.56444 0.49376 0.0
C121 C 0.91228 0.55892 0.47017 0.0
C122 C 0.93238 0.57271 0.4359 0.0
H123 H 0.90185 0.54108 0.45886 0.0
C124 C 0.95168 0.5602 0.42621 0.0
C125 C 0.95647 0.55881 0.40268 0.0
C126 C 0.91708 0.58314 0.42198 0.0
H127 H 0.90223 0.59298 0.42932 0.0
C128 C 0.92129 0.5815 0.39863 0.0
H129 H 0.96306 0.55196 0.43721 0.0
C130 C 0.94098 0.56975 0.38908 0.0
H131 H 0.94439 0.56993 0.37117 0.0
H132 H 0.90964 0.58989 0.388 0.0
H133 H 0.8461 0.84169 0.81256 0.0
C134 C 0.8453 0.82794 0.82361 0.0
C135 C 0.85621 0.80617 0.817 0.0
C136 C 0.83395 0.83244 0.84482 0.0
H137 H 0.86564 0.77333 0.82765 0.0
C138 C 0.85562 0.78906 0.832 0.0
C139 C 0.84301 0.79233 0.85269 0.0
C140 C 0.83236 0.81438 0.85899 0.0
C141 C 0.82579 0.85707 0.85321 0.0
H142 H 0.82268 0.81769 0.87485 0.0
C143 C 0.80707 0.86508 0.84022 0.0
C144 C 0.80008 0.889 0.84832 0.0
C145 C 0.83752 0.87304 0.87434 0.0
H146 H 0.85205 0.86728 0.88452 0.0
C147 C 0.83118 0.89686 0.88221 0.0
H148 H 0.79765 0.8524 0.82419 0.0
C149 C 0.81281 0.9049 0.8693 0.0
H150 H 0.80886 0.92379 0.87575 0.0
H151 H 0.84069 0.90925 0.89832 0.0
H152 H 0.35809 0.35862 0.3146 0.0
C153 C 0.36249 0.34556 0.32505 0.0
C154 C 0.3819 0.33127 0.3191 0.0
C155 C 0.34921 0.34381 0.34503 0.0
H156 H 0.40284 0.30447 0.32978 0.0
C157 C 0.38714 0.31462 0.33331 0.0
C158 C 0.37294 0.31156 0.35264 0.0
C159 C 0.3541 0.32644 0.3584 0.0
C160 C 0.33204 0.36179 0.35331 0.0
H161 H 0.343 0.32456 0.37329 0.0
C162 C 0.31099 0.36425 0.33892 0.0
C163 C 0.29527 0.382 0.34705 0.0
C164 C 0.33732 0.37715 0.37587 0.0
H165 H 0.35353 0.37569 0.38716 0.0
C166 C 0.32222 0.39501 0.38386 0.0
H167 H 0.30665 0.35197 0.3217 0.0
C168 C 0.30153 0.3976 0.36959 0.0
H169 H 0.29069 0.41217 0.37623 0.0
H170 H 0.32673 0.40708 0.40114 0.0
H171 H 0.46672 0.93537 0.56806 0.0
C172 C 0.46451 0.95219 0.56159 0.0
C173 C 0.48151 0.97604 0.57076 0.0
C174 C 0.4445 0.94979 0.5443 0.0
H175 H 0.49114 0.01637 0.56934 0.0
C176 C 0.47794 0.9979 0.56272 0.0
C177 C 0.45811 0.99559 0.54518 0.0
C178 C 0.44139 0.97156 0.53618 0.0
C179 C 0.4278 0.92421 0.53394 0.0
H180 H 0.42636 0.96973 0.52239 0.0
C181 C 0.43938 0.90303 0.52667 0.0
C182 C 0.42396 0.87863 0.51654 0.0
C183 C 0.40044 0.92081 0.53106 0.0
H184 H 0.39107 0.93686 0.53658 0.0
C185 C 0.38494 0.89652 0.52129 0.0
H186 H 0.46052 0.90563 0.52874 0.0
C187 C 0.39657 0.8755 0.51407 0.0
H188 H 0.38418 0.85697 0.50612 0.0
H189 H 0.36385 0.89399 0.51917 0.0
H190 H 0.29968 0.28366 0.7695 0.0
C191 C 0.30751 0.2772 0.75321 0.0
C192 C 0.31758 0.2951 0.73975 0.0
C193 C 0.30797 0.25088 0.74597 0.0
H194 H 0.33754 0.29928 0.70882 0.0
C195 C 0.32813 0.28598 0.71884 0.0
C196 C 0.32748 0.25973 0.71078 0.0
C197 C 0.31727 0.24236 0.72435 0.0
C198 C 0.29975 0.2322 0.76107 0.0
H199 H 0.31633 0.222 0.71787 0.0
C200 C 0.2787 0.2339 0.77519 0.0
C201 C 0.27112 0.21582 0.78911 0.0
C202 C 0.31335 0.21237 0.76144 0.0
H203 H 0.33014 0.21085 0.7515 0.0
C204 C 0.30569 0.19424 0.77479 0.0
H205 H 0.26827 0.24924 0.77534 0.0
C206 C 0.28466 0.19576 0.78834 0.0
H207 H 0.27894 0.181 0.79811 0.0
H208 H 0.31613 0.1789 0.77462 0.0
H209 H 0.86502 0.26995 0.77051 0.0
C210 C 0.8497 0.25261 0.76619 0.0
C211 C 0.85505 0.22892 0.7688 0.0
C212 C 0.82418 0.25421 0.75937 0.0
H213 H 0.83882 0.18855 0.76617 0.0
C214 C 0.83471 0.20684 0.76425 0.0
C215 C 0.80919 0.20819 0.75711 0.0
C216 C 0.80414 0.23199 0.75467 0.0
C217 C 0.81715 0.27938 0.76055 0.0
H218 H 0.7843 0.23354 0.75018 0.0
C219 C 0.81768 0.29068 0.74111 0.0
C220 C 0.80773 0.31319 0.74174 0.0
C221 C 0.80731 0.29082 0.78085 0.0
H222 H 0.80657 0.28217 0.79586 0.0
C223 C 0.79757 0.31298 0.78172 0.0
H224 H 0.8256 0.28172 0.72564 0.0
C225 C 0.79741 0.32389 0.76233 0.0
H226 H 0.78857 0.34043 0.76348 0.0
H227 H 0.78955 0.32145 0.79733 0.0
H228 H 0.60271 0.51792 0.54991 0.0
C229 C 0.58638 0.52034 0.56029 0.0
C230 C 0.5782 0.5032 0.57467 0.0
C231 C 0.57464 0.54133 0.55981 0.0
H232 H 0.5522 0.49456 0.60049 0.0
C233 C 0.55781 0.50728 0.58879 0.0
C234 C 0.54517 0.52788 0.58833 0.0
C235 C 0.55362 0.54468 0.57343 0.0
C236 C 0.58637 0.56064 0.54651 0.0
H237 H 0.5445 0.5608 0.5729 0.0
C238 C 0.57122 0.56881 0.53035 0.0
C239 C 0.58344 0.58539 0.51644 0.0
C240 C 0.61365 0.56999 0.54932 0.0
H241 H 0.62572 0.56436 0.56186 0.0
C242 C 0.62578 0.58633 0.5358 0.0
H243 H 0.55016 0.56191 0.52843 0.0
C244 C 0.61095 0.59367 0.5193 0.0
H245 H 0.62131 0.60554 0.50851 0.0
H246 H 0.64686 0.59301 0.53785 0.0
H247 H 0.59078 0.47337 0.96787 0.0
C248 C 0.58064 0.48052 0.95509 0.0
C249 C 0.59367 0.50207 0.94729 0.0
C250 C 0.55494 0.46789 0.94609 0.0
H251 H 0.59128 0.52697 0.92354 0.0
C252 C 0.58103 0.51077 0.93007 0.0
C253 C 0.5556 0.49829 0.92063 0.0
C254 C 0.54244 0.47725 0.92907 0.0
C255 C 0.54179 0.44413 0.95346 0.0
H256 H 0.52272 0.46772 0.92183 0.0
C257 C 0.54525 0.44153 0.97661 0.0
C258 C 0.53349 0.41866 0.98326 0.0
C259 C 0.52625 0.42346 0.93708 0.0
H260 H 0.52367 0.42443 0.91904 0.0
C261 C 0.51437 0.40091 0.94363 0.0
H262 H 0.55678 0.45738 0.98954 0.0
C263 C 0.51796 0.39845 0.96649 0.0
H264 H 0.50901 0.38045 0.97091 0.0
H265 H 0.50261 0.3851 0.93083 0.0
H266 H 0.82007 0.234 0.29563 0.0
C267 C 0.81266 0.23957 0.31237 0.0
C268 C 0.81967 0.229 0.33094 0.0
C269 C 0.79532 0.25646 0.31489 0.0
H270 H 0.81415 0.22748 0.36673 0.0
C271 C 0.80892 0.23548 0.35228 0.0
C272 C 0.7913 0.25212 0.35505 0.0
C273 C 0.78478 0.26261 0.3363 0.0
C274 C 0.78789 0.26725 0.295 0.0
H275 H 0.77186 0.27609 0.33854 0.0
C276 C 0.76168 0.26854 0.29008 0.0
C277 C 0.75421 0.27759 0.27062 0.0
C278 C 0.80685 0.2758 0.28051 0.0
H279 H 0.82723 0.2754 0.28401 0.0
C280 C 0.79972 0.28513 0.26141 0.0
H281 H 0.74706 0.26214 0.3013 0.0
C282 C 0.77362 0.28588 0.25637 0.0
H283 H 0.76865 0.29247 0.241 0.0
H284 H 0.81446 0.29155 0.25031 0.0
H285 H 0.48951 0.13169 0.98081 0.0
C286 C 0.47919 0.1138 0.98464 0.0
C287 C 0.47893 0.1109 0.00769 0.0
C288 C 0.46663 0.09346 0.96646 0.0
H289 H 0.46432 0.08582 0.03032 0.0
C290 C 0.46545 0.0877 0.01245 0.0
C291 C 0.45222 0.06747 0.99452 0.0
C292 C 0.45314 0.07035 0.97145 0.0
C293 C 0.46693 0.09671 0.94228 0.0
H294 H 0.44302 0.05482 0.95744 0.0
C295 C 0.47799 0.08047 0.9256 0.0
C296 C 0.4781 0.08357 0.90255 0.0
C297 C 0.45612 0.11616 0.93584 0.0
H298 H 0.44757 0.12887 0.9485 0.0
C299 C 0.45593 0.11909 0.91292 0.0
H300 H 0.48656 0.06555 0.93057 0.0
C301 C 0.46677 0.10287 0.89632 0.0
H302 H 0.46676 0.10572 0.8787 0.0
H303 H 0.44744 0.13404 0.90802 0.0
O304 O 0.27912 0.85454 0.00974 0.0
Cd305 Cd 0.28907 0.88124 0.04063 0.0
Cd306 Cd 0.25792 0.90437 0.01559 0.0
O307 O 0.25193 0.87053 0.99038 0.0
O308 O 0.31068 0.86235 0.05648 0.0
O309 O 0.27548 0.87376 0.07082 0.0
C310 C 0.29465 0.86232 0.0724 0.0
C311 C 0.22452 0.92052 0.0347 0.0
C312 C 0.2643 0.85288 0.99168 0.0
C313 C 0.3144 0.93095 0.02765 0.0
O314 O 0.29308 0.92999 0.01605 0.0
O315 O 0.31602 0.9143 0.03966 0.0
O316 O 0.22872 0.9229 0.01377 0.0
O317 O 0.23871 0.90798 0.04443 0.0
O318 O 0.16702 0.52073 0.28119 0.0
Cd319 Cd 0.14009 0.48973 0.28677 0.0
Cd320 Cd 0.10752 0.51163 0.25772 0.0
O321 O 0.1421 0.53878 0.26142 0.0
O322 O 0.16158 0.47454 0.30642 0.0
O323 O 0.14529 0.45446 0.27084 0.0
C324 C 0.15932 0.45494 0.28946 0.0
C325 C 0.08555 0.50026 0.22066 0.0
C326 C 0.1642 0.53854 0.27098 0.0
C327 C 0.08973 0.50416 0.30431 0.0
O328 O 0.08495 0.51068 0.28539 0.0
O329 O 0.11029 0.4959 0.3079 0.0
O330 O 0.08576 0.52202 0.23443 0.0
O331 O 0.09763 0.48453 0.22807 0.0
O332 O 0.80844 0.69339 0.98394 0.0
Cd333 Cd 0.79119 0.6748 0.0085 0.0
Cd334 Cd 0.82314 0.64104 0.99377 0.0
O335 O 0.83213 0.66497 0.97076 0.0
O336 O 0.77214 0.69954 0.02635 0.0
O337 O 0.80364 0.68551 0.04254 0.0
C338 C 0.78608 0.69934 0.04475 0.0
C339 C 0.85607 0.62807 0.01318 0.0
C340 C 0.82414 0.68538 0.96975 0.0
C341 C 0.76551 0.61887 0.98959 0.0
O342 O 0.78825 0.61441 0.98702 0.0
O343 O 0.76254 0.64166 0.99732 0.0
O344 O 0.85057 0.62019 0.9911 0.0
O345 O 0.84352 0.64429 0.02434 0.0
O346 O 0.96759 0.0179 0.31619 0.0
Cd347 Cd 0.94741 0.0165 0.28484 0.0
Cd348 Cd 0.91621 0.04179 0.31355 0.0
O349 O 0.94171 0.0372 0.33906 0.0
O350 O 0.97052 0.0077 0.25948 0.0
O351 O 0.95795 0.04486 0.26763 0.0
C352 C 0.97093 0.03006 0.25506 0.0
C353 C 0.90589 0.08202 0.31525 0.0
C354 C 0.9614 0.02676 0.33641 0.0
C355 C 0.89046 0.99033 0.28401 0.0
O356 O 0.88773 0.00986 0.29897 0.0
O357 O 0.91252 0.98942 0.2759 0.0
O358 O 0.89643 0.06747 0.32895 0.0
O359 O 0.9217 0.07386 0.30064 0.0
O360 O 0.36031 0.21155 0.48266 0.0
Cd361 Cd 0.3433 0.19254 0.50687 0.0
Cd362 Cd 0.35751 0.15116 0.48186 0.0
O363 O 0.36897 0.17671 0.46065 0.0
O364 O 0.3402 0.21855 0.53508 0.0
O365 O 0.36326 0.18852 0.53509 0.0
C366 C 0.35425 0.20747 0.54651 0.0
C367 C 0.38678 0.12656 0.49074 0.0
C368 C 0.36879 0.20058 0.46423 0.0
C369 C 0.3003 0.14645 0.48807 0.0
O370 O 0.31811 0.13471 0.48083 0.0
O371 O 0.30618 0.17012 0.49809 0.0
O372 O 0.37484 0.12211 0.47035 0.0
O373 O 0.38234 0.14536 0.50631 0.0
O374 O 0.4438 0.52029 0.77687 0.0
Cd375 Cd 0.41522 0.51378 0.74971 0.0
Cd376 Cd 0.38979 0.53573 0.7851 0.0
O377 O 0.42349 0.53883 0.80554 0.0
O378 O 0.43353 0.50208 0.72169 0.0
O379 O 0.41905 0.53815 0.72767 0.0
C380 C 0.43117 0.52265 0.71495 0.0
C381 C 0.37403 0.57225 0.78229 0.0
C382 C 0.44335 0.5305 0.79822 0.0
C383 C 0.36631 0.48103 0.76251 0.0
O384 O 0.36519 0.50002 0.77878 0.0
O385 O 0.38375 0.48307 0.74817 0.0
O386 O 0.37014 0.56179 0.79996 0.0
O387 O 0.38691 0.56182 0.76607 0.0
O388 O 0.77844 0.33875 0.52412 0.0
Cd389 Cd 0.78907 0.3679 0.55321 0.0
Cd390 Cd 0.74409 0.38242 0.53992 0.0
O391 O 0.74225 0.35005 0.51362 0.0
O392 O 0.8081 0.35587 0.57734 0.0
O393 O 0.77054 0.36878 0.58224 0.0
C394 C 0.78962 0.36039 0.59043 0.0
C395 C 0.70457 0.39323 0.55163 0.0
C396 C 0.75845 0.33531 0.50999 0.0
C397 C 0.7974 0.41944 0.54277 0.0
O398 O 0.77255 0.41488 0.53983 0.0
O399 O 0.80911 0.40265 0.54777 0.0
O400 O 0.71211 0.39435 0.53134 0.0
O401 O 0.71896 0.38478 0.56524 0.0
O402 O 0.67707 0.04804 0.7814 0.0
Cd403 Cd 0.65498 0.01565 0.78988 0.0
Cd404 Cd 0.62077 0.01647 0.74856 0.0
O405 O 0.65216 0.04665 0.7499 0.0
O406 O 0.67799 0.00336 0.81084 0.0
O407 O 0.66299 0.98138 0.77535 0.0
C408 C 0.67699 0.98336 0.79442 0.0
C409 C 0.59853 0.00252 0.7114 0.0
C410 C 0.67243 0.05696 0.76376 0.0
C411 C 0.59871 0.01792 0.79636 0.0
O412 O 0.59577 0.01656 0.77466 0.0
O413 O 0.62096 0.01842 0.80615 0.0
O414 O 0.59742 0.02412 0.72469 0.0
O415 O 0.61234 0.98837 0.71918 0.0
O416 O 0.04126 0.26182 0.92375 0.0
Cd417 Cd 0.03356 0.22374 0.90601 0.0
Cd418 Cd 0.07004 0.24124 0.87852 0.0
O419 O 0.07329 0.27504 0.90295 0.0
O420 O 0.02278 0.20128 0.92839 0.0
O421 O 0.05906 0.2016 0.91018 0.0
C422 C 0.04408 0.19292 0.92495 0.0
C423 C 0.1093 0.2317 0.86534 0.0
C424 C 0.05903 0.27966 0.91959 0.0
C425 C 0.0138 0.22036 0.85747 0.0
O426 O 0.03737 0.23055 0.85503 0.0
O427 O 0.00761 0.21471 0.87668 0.0
O428 O 0.09923 0.24897 0.8585 0.0
O429 O 0.09696 0.21953 0.87963 0.0
O430 O 0.49798 0.73223 0.41639 0.0
Cd431 Cd 0.50726 0.70593 0.38943 0.0
Cd432 Cd 0.54195 0.74833 0.38551 0.0
O433 O 0.53208 0.76423 0.41801 0.0
O434 O 0.49359 0.67135 0.39674 0.0
O435 O 0.53577 0.68905 0.39799 0.0
C436 C 0.51766 0.67081 0.40193 0.0
C437 C 0.58359 0.74314 0.37582 0.0
C438 C 0.5113 0.75437 0.42629 0.0
C439 C 0.49711 0.72792 0.34875 0.0
O440 O 0.51511 0.74693 0.35874 0.0
O441 O 0.49261 0.70735 0.35652 0.0
O442 O 0.57748 0.76538 0.37819 0.0
O443 O 0.56638 0.72432 0.38002 0.0
O444 O 0.98761 0.78584 0.6875 0.0
Cd445 Cd 0.02043 0.78621 0.66882 0.0
Cd446 Cd 0.99006 0.81255 0.64632 0.0
O447 O 0.97074 0.81595 0.67623 0.0
O448 O 0.03868 0.7648 0.68466 0.0
O449 O 0.05666 0.80492 0.68394 0.0
C450 C 0.05834 0.78394 0.69038 0.0
C451 C 0.00563 0.84725 0.62944 0.0
C452 C 0.97117 0.80035 0.6895 0.0
C453 C 0.99762 0.76225 0.62015 0.0
O454 O 0.9818 0.77736 0.62297 0.0
O455 O 0.01655 0.76503 0.63521 0.0
O456 O 0.98091 0.83739 0.62849 0.0
O457 O 0.02154 0.8383 0.64126 0.0
O458 O 0.51667 0.3076 0.19941 0.0
Cd459 Cd 0.54747 0.29591 0.1827 0.0
Cd460 Cd 0.52276 0.32035 0.14744 0.0
O461 O 0.50111 0.32878 0.17558 0.0
O462 O 0.5609 0.2776 0.205 0.0
O463 O 0.58536 0.31113 0.19509 0.0
C464 C 0.58327 0.29316 0.20664 0.0
C465 C 0.53129 0.35038 0.12384 0.0
C466 C 0.50079 0.321 0.19448 0.0
C467 C 0.52786 0.26438 0.13394 0.0
O468 O 0.5188 0.28281 0.12893 0.0
O469 O 0.53993 0.26677 0.15358 0.0
O470 O 0.50824 0.33652 0.12392 0.0
O471 O 0.54966 0.34792 0.13793 0.0
H472 H 0.24741 0.78471 0.85717 0.0
H473 H 0.31179 0.74947 0.87332 0.0
H474 H 0.30825 0.76481 0.91461 0.0
H475 H 0.27231 0.84234 0.89885 0.0
H476 H 0.24061 0.84825 0.90615 0.0
H477 H 0.24445 0.83047 0.87769 0.0
H478 H 0.20796 0.79264 0.88318 0.0
H479 H 0.20419 0.81024 0.9118 0.0
H480 H 0.21099 0.77845 0.90793 0.0
H481 H 0.29987 0.78528 0.95407 0.0
H482 H 0.29229 0.81531 0.98893 0.0
H483 H 0.23795 0.84311 0.94796 0.0
C484 C 0.2609 0.78008 0.86916 0.0
C485 C 0.27941 0.76497 0.86135 0.0
C486 C 0.29647 0.75973 0.87825 0.0
C487 C 0.29484 0.76862 0.902 0.0
C488 C 0.27652 0.7834 0.90888 0.0
C489 C 0.26023 0.78961 0.89302 0.0
C490 C 0.24474 0.80865 0.90504 0.0
C491 C 0.25091 0.83392 0.89642 0.0
C492 C 0.21522 0.79678 0.90179 0.0
C493 C 0.25537 0.81252 0.9301 0.0
C494 C 0.2731 0.79712 0.93186 0.0
C495 C 0.28605 0.79746 0.95295 0.0
C496 C 0.28153 0.81465 0.97271 0.0
C497 C 0.26461 0.8318 0.97128 0.0
C498 C 0.25087 0.83021 0.9497 0.0
H499 H 0.95925 0.53397 0.35729 0.0
H500 H 0.00385 0.55799 0.42471 0.0
H501 H 0.04057 0.54123 0.40742 0.0
H502 H 0.98552 0.47725 0.3342 0.0
H503 H 0.98693 0.48399 0.30559 0.0
H504 H 0.96234 0.49377 0.32387 0.0
H505 H 0.97808 0.54087 0.31955 0.0
H506 H 0.00262 0.53123 0.30126 0.0
H507 H 0.01206 0.55653 0.32696 0.0
H508 H 0.0738 0.52442 0.38236 0.0
H509 H 0.10206 0.51287 0.35105 0.0
H510 H 0.03758 0.50471 0.29966 0.0
C511 C 0.97663 0.53579 0.36859 0.0
C512 C 0.97822 0.5472 0.39256 0.0
C513 C 0.0015 0.54873 0.40648 0.0
C514 C 0.02267 0.53938 0.39678 0.0
C515 C 0.02052 0.52881 0.37305 0.0
C516 C 0.99817 0.52721 0.35911 0.0
C517 C 0.0018 0.51764 0.33375 0.0
C518 C 0.98303 0.49161 0.32377 0.0
C519 C 0.99845 0.53777 0.31956 0.0
C520 C 0.02992 0.51468 0.33557 0.0
C521 C 0.04017 0.52059 0.35842 0.0
C522 C 0.06595 0.51966 0.36441 0.0
C523 C 0.08183 0.51301 0.34652 0.0
C524 C 0.072 0.50797 0.32297 0.0
C525 C 0.04561 0.50851 0.31752 0.0
H526 H 0.8403 0.79907 0.90065 0.0
H527 H 0.84039 0.74015 0.83836 0.0
H528 H 0.83991 0.70816 0.86217 0.0
H529 H 0.87782 0.77545 0.94029 0.0
H530 H 0.85767 0.78191 0.96394 0.0
H531 H 0.86057 0.80133 0.94246 0.0
H532 H 0.81011 0.79067 0.93399 0.0
H533 H 0.80703 0.77146 0.95562 0.0
H534 H 0.7928 0.75747 0.92637 0.0
H535 H 0.84052 0.68239 0.89247 0.0
H536 H 0.83471 0.66291 0.92664 0.0
H537 H 0.8278 0.73649 0.96867 0.0
C538 C 0.83999 0.77948 0.89181 0.0
C539 C 0.84123 0.77268 0.86742 0.0
C540 C 0.84072 0.74652 0.85698 0.0
C541 C 0.84019 0.72797 0.87037 0.0
C542 C 0.8394 0.73549 0.89423 0.0
C543 C 0.83862 0.76043 0.90484 0.0
C544 C 0.83556 0.76283 0.9306 0.0
C545 C 0.85933 0.78149 0.94518 0.0
C546 C 0.80984 0.77109 0.93702 0.0
C547 C 0.83473 0.7353 0.93271 0.0
C548 C 0.83758 0.72003 0.91158 0.0
C549 C 0.83808 0.69408 0.9091 0.0
C550 C 0.83493 0.68323 0.92864 0.0
C551 C 0.83075 0.69816 0.95027 0.0
C552 C 0.83087 0.72461 0.95233 0.0
H553 H 0.08428 0.00703 0.40989 0.0
H554 H 0.03554 0.0032 0.46725 0.0
H555 H 0.99803 0.00836 0.44289 0.0
H556 H 0.0595 0.05431 0.38837 0.0
H557 H 0.06064 0.03995 0.35818 0.0
H558 H 0.08315 0.03492 0.37976 0.0
H559 H 0.06748 0.98548 0.36567 0.0
H560 H 0.0451 0.99034 0.34386 0.0
H561 H 0.03306 0.97112 0.36426 0.0
H562 H 0.96733 0.01775 0.41323 0.0
H563 H 0.94383 0.02543 0.37914 0.0
H564 H 0.01212 0.02052 0.34038 0.0
C565 C 0.06558 0.00699 0.41717 0.0
C566 C 0.06261 0.00479 0.44036 0.0
C567 C 0.03798 0.00472 0.44943 0.0
C568 C 0.01671 0.00777 0.43578 0.0
C569 C 0.02042 0.01043 0.41306 0.0
C570 C 0.04412 0.00958 0.40369 0.0
C571 C 0.043 0.01274 0.37882 0.0
C572 C 0.06274 0.03692 0.37614 0.0
C573 C 0.04741 0.98847 0.36217 0.0
C574 C 0.01508 0.01593 0.37571 0.0
C575 C 0.00246 0.01477 0.39573 0.0
C576 C 0.97691 0.01836 0.39739 0.0
C577 C 0.96379 0.02288 0.37798 0.0
C578 C 0.97612 0.02346 0.35709 0.0
C579 C 0.00212 0.01995 0.35603 0.0
H580 H 0.31854 0.27433 0.67006 0.0
H581 H 0.35808 0.22397 0.69988 0.0
H582 H 0.37271 0.20757 0.66141 0.0
H583 H 0.29478 0.23074 0.61762 0.0
H584 H 0.29922 0.25461 0.60014 0.0
H585 H 0.29378 0.26366 0.6303 0.0
H586 H 0.33673 0.29869 0.6371 0.0
H587 H 0.34234 0.28969 0.60691 0.0
H588 H 0.36706 0.28974 0.62906 0.0
H589 H 0.38075 0.19493 0.61904 0.0
H590 H 0.38 0.18595 0.57622 0.0
H591 H 0.33564 0.24521 0.57478 0.0
C592 C 0.33071 0.26022 0.66862 0.0
C593 C 0.33726 0.25049 0.68797 0.0
C594 C 0.35268 0.23156 0.68523 0.0
C595 C 0.36125 0.22229 0.66351 0.0
C596 C 0.35431 0.23223 0.64475 0.0
C597 C 0.33939 0.25079 0.64713 0.0
C598 C 0.33327 0.25726 0.62409 0.0
C599 C 0.3035 0.25119 0.61766 0.0
C600 C 0.34559 0.28552 0.62431 0.0
C601 C 0.34661 0.23907 0.60825 0.0
C602 C 0.35889 0.22497 0.62048 0.0
C603 C 0.37143 0.20606 0.60932 0.0
C604 C 0.37094 0.20111 0.585 0.0
C605 C 0.35787 0.21494 0.57215 0.0
C606 C 0.34603 0.23447 0.58407 0.0
H607 H 0.5087 0.49185 0.60357 0.0
H608 H 0.53501 0.57445 0.61077 0.0
H609 H 0.50395 0.58186 0.64044 0.0
H610 H 0.44018 0.49046 0.61599 0.0
H611 H 0.43972 0.46609 0.63268 0.0
H612 H 0.46044 0.46716 0.60907 0.0
H613 H 0.50087 0.4697 0.63697 0.0
H614 H 0.48032 0.46861 0.6606 0.0
H615 H 0.50827 0.49484 0.66296 0.0
H616 H 0.47252 0.58036 0.67212 0.0
H617 H 0.44644 0.57006 0.70438 0.0
H618 H 0.44453 0.48889 0.67875 0.0
C619 C 0.50799 0.51157 0.61121 0.0
C620 C 0.52446 0.53251 0.60454 0.0
C621 C 0.52234 0.55793 0.61498 0.0
C622 C 0.50479 0.56239 0.63203 0.0
C623 C 0.48953 0.54128 0.63864 0.0
C624 C 0.49109 0.51637 0.62858 0.0
C625 C 0.47485 0.49709 0.64038 0.0
C626 C 0.45247 0.47915 0.62352 0.0
C627 C 0.49211 0.48167 0.65085 0.0
C628 C 0.46443 0.51507 0.6591 0.0
C629 C 0.47256 0.54046 0.65751 0.0
C630 C 0.46591 0.56053 0.67341 0.0
C631 C 0.45104 0.55451 0.69163 0.0
C632 C 0.4435 0.5287 0.69406 0.0
C633 C 0.44998 0.5088 0.67732 0.0
H634 H 0.8037 0.28964 0.69475 0.0
H635 H 0.81107 0.36449 0.74135 0.0
H636 H 0.80512 0.38366 0.70794 0.0
H637 H 0.84235 0.31588 0.65134 0.0
H638 H 0.82328 0.29261 0.62734 0.0
H639 H 0.82702 0.2843 0.65509 0.0
H640 H 0.77654 0.27211 0.65535 0.0
H641 H 0.77262 0.28071 0.62775 0.0
H642 H 0.75738 0.29555 0.65225 0.0
H643 H 0.79461 0.39428 0.6698 0.0
H644 H 0.78837 0.39716 0.62872 0.0
H645 H 0.79475 0.31762 0.6065 0.0
C646 C 0.80457 0.31014 0.69811 0.0
C647 C 0.80709 0.3252 0.72107 0.0
C648 C 0.80801 0.35204 0.72422 0.0
C649 C 0.8049 0.3633 0.70526 0.0
C650 C 0.80173 0.34776 0.68307 0.0
C651 C 0.80233 0.32194 0.67932 0.0
C652 C 0.79985 0.30992 0.65355 0.0
C653 C 0.8246 0.3001 0.64641 0.0
C654 C 0.77512 0.28829 0.64684 0.0
C655 C 0.7974 0.33297 0.64349 0.0
C656 C 0.79802 0.35447 0.66087 0.0
C657 C 0.79455 0.37771 0.65601 0.0
C658 C 0.79086 0.37914 0.63272 0.0
C659 C 0.79131 0.3577 0.61468 0.0
C660 C 0.79462 0.33433 0.6201 0.0
H661 H 0.49702 0.01243 0.61124 0.0
H662 H 0.51443 0.94271 0.57023 0.0
H663 H 0.54732 0.94239 0.60123 0.0
H664 H 0.56455 0.04168 0.63621 0.0
H665 H 0.55408 0.05508 0.66392 0.0
H666 H 0.53317 0.05063 0.63778 0.0
H667 H 0.49566 0.02344 0.65531 0.0
H668 H 0.51651 0.0276 0.68138 0.0
H669 H 0.50129 0.99566 0.66538 0.0
H670 H 0.57614 0.94799 0.63791 0.0
H671 H 0.60024 0.96049 0.67687 0.0
H672 H 0.56446 0.02686 0.6933 0.0
C673 C 0.50815 0.99742 0.6086 0.0
C674 C 0.50309 0.97753 0.5884 0.0
C675 C 0.51777 0.95797 0.58572 0.0
C676 C 0.53657 0.95767 0.60317 0.0
C677 C 0.54062 0.97719 0.62314 0.0
C678 C 0.52702 0.99684 0.62585 0.0
C679 C 0.53444 0.01501 0.64931 0.0
C680 C 0.54733 0.04221 0.64664 0.0
C681 C 0.51056 0.01543 0.66368 0.0
C682 C 0.55403 0.00229 0.65946 0.0
C683 C 0.55739 0.98053 0.64411 0.0
C684 C 0.57388 0.96515 0.65001 0.0
C685 C 0.5874 0.97233 0.67217 0.0
C686 C 0.58431 0.99467 0.68807 0.0
C687 C 0.56741 0.00976 0.6815 0.0
H688 H 0.86786 0.20881 0.80537 0.0
H689 H 0.90173 0.24583 0.75186 0.0
H690 H 0.94598 0.24323 0.76642 0.0
H691 H 0.91719 0.24195 0.84988 0.0
H692 H 0.91653 0.21501 0.86346 0.0
H693 H 0.88758 0.21755 0.84739 0.0
H694 H 0.88534 0.1722 0.82172 0.0
H695 H 0.91444 0.1696 0.83765 0.0
H696 H 0.91331 0.16563 0.80655 0.0
H697 H 0.98632 0.23778 0.7875 0.0
H698 H 0.0205 0.23442 0.81585 0.0
H699 H 0.96045 0.20246 0.85687 0.0
C700 C 0.88461 0.21601 0.79655 0.0
C701 C 0.88151 0.22729 0.77736 0.0
C702 C 0.90382 0.23711 0.76656 0.0
C703 C 0.92893 0.23553 0.7746 0.0
C704 C 0.93133 0.22425 0.79356 0.0
C705 C 0.9098 0.2149 0.80455 0.0
C706 C 0.91791 0.20561 0.82569 0.0
C707 C 0.9093 0.22096 0.84792 0.0
C708 C 0.90711 0.17653 0.82271 0.0
C709 C 0.94743 0.21163 0.82515 0.0
C710 C 0.95469 0.22191 0.80622 0.0
C711 C 0.98087 0.22968 0.80234 0.0
C712 C 1.00016 0.22763 0.81858 0.0
C713 C 0.99323 0.21819 0.83869 0.0
C714 C 0.96645 0.20957 0.84165 0.0
H715 H 0.46699 0.8791 0.49161 0.0
H716 H 0.40914 0.82876 0.52155 0.0
H717 H 0.42928 0.79208 0.50561 0.0
H718 H 0.4676 0.83596 0.43954 0.0
H719 H 0.50223 0.84556 0.43692 0.0
H720 H 0.48509 0.86818 0.45285 0.0
H721 H 0.5177 0.87534 0.48897 0.0
H722 H 0.53492 0.85259 0.47313 0.0
H723 H 0.5225 0.84809 0.50036 0.0
H724 H 0.45293 0.76049 0.48354 0.0
H725 H 0.47706 0.73575 0.45545 0.0
H726 H 0.52028 0.80687 0.44062 0.0
C727 C 0.45894 0.86049 0.49531 0.0
C728 C 0.4366 0.85678 0.50794 0.0
C729 C 0.42617 0.83198 0.51181 0.0
C730 C 0.43762 0.81112 0.50303 0.0
C731 C 0.45956 0.81545 0.49055 0.0
C732 C 0.47013 0.83952 0.4867 0.0
C733 C 0.49243 0.83865 0.47116 0.0
C734 C 0.48646 0.84761 0.4488 0.0
C735 C 0.51843 0.85462 0.48419 0.0
C736 C 0.49224 0.81014 0.46624 0.0
C737 C 0.47337 0.79717 0.47787 0.0
C738 C 0.46804 0.77046 0.47464 0.0
C739 C 0.48183 0.75659 0.45864 0.0
C740 C 0.50068 0.76943 0.44602 0.0
C741 C 0.50643 0.79659 0.4504 0.0
H742 H 0.2251 0.23186 0.78127 0.0
H743 H 0.26743 0.20403 0.83212 0.0
H744 H 0.2302 0.20365 0.85629 0.0
H745 H 0.19742 0.27525 0.82411 0.0
H746 H 0.16697 0.26977 0.80659 0.0
H747 H 0.19679 0.2672 0.7929 0.0
H748 H 0.17507 0.22093 0.77059 0.0
H749 H 0.14528 0.22326 0.78439 0.0
H750 H 0.16121 0.19723 0.78658 0.0
H751 H 0.18746 0.20419 0.87418 0.0
H752 H 0.14411 0.21044 0.88656 0.0
H753 H 0.13138 0.24158 0.82606 0.0
C754 C 0.22682 0.22604 0.79761 0.0
C755 C 0.2492 0.21751 0.80444 0.0
C756 C 0.25029 0.20989 0.826 0.0
C757 C 0.22928 0.20978 0.84001 0.0
C758 C 0.20741 0.21781 0.83253 0.0
C759 C 0.2062 0.22624 0.81206 0.0
C760 C 0.18069 0.23463 0.80839 0.0
C761 C 0.18578 0.26342 0.80798 0.0
C762 C 0.16462 0.21801 0.78617 0.0
C763 C 0.16772 0.22939 0.82991 0.0
C764 C 0.18333 0.21941 0.84348 0.0
C765 C 0.17515 0.21224 0.86383 0.0
C766 C 0.15049 0.21573 0.87066 0.0
C767 C 0.13454 0.22663 0.85736 0.0
C768 C 0.1433 0.23343 0.8367 0.0
H769 H 0.59407 0.63157 0.50258 0.0
H770 H 0.53824 0.55816 0.48908 0.0
H771 H 0.51529 0.5714 0.45773 0.0
H772 H 0.55081 0.67097 0.4903 0.0
H773 H 0.57472 0.69026 0.47635 0.0
H774 H 0.58526 0.6755 0.49867 0.0
H775 H 0.6146 0.6533 0.47035 0.0
H776 H 0.60397 0.6678 0.44786 0.0
H777 H 0.60016 0.63333 0.44278 0.0
H778 H 0.4981 0.59369 0.42775 0.0
H779 H 0.48921 0.62236 0.402 0.0
H780 H 0.55988 0.67796 0.43263 0.0
C781 C 0.57723 0.61797 0.49297 0.0
C782 C 0.56818 0.59367 0.49846 0.0
C783 C 0.54548 0.57704 0.48564 0.0
C784 C 0.53243 0.58428 0.46758 0.0
C785 C 0.54247 0.60807 0.4623 0.0
C786 C 0.56446 0.62455 0.47462 0.0
C787 C 0.57201 0.64868 0.46524 0.0
C788 C 0.5706 0.67277 0.48374 0.0
C789 C 0.5993 0.65089 0.45601 0.0
C790 C 0.55075 0.64336 0.44571 0.0
C791 C 0.53367 0.61999 0.44437 0.0
C792 C 0.51159 0.61184 0.42847 0.0
C793 C 0.50673 0.62817 0.41388 0.0
C794 C 0.52415 0.65208 0.415 0.0
C795 C 0.5466 0.65946 0.43091 0.0
H796 H 0.88749 0.84111 0.79599 0.0
H797 H 0.8533 0.75959 0.78752 0.0
H798 H 0.87782 0.74987 0.75331 0.0
H799 H 0.88614 0.83988 0.73276 0.0
H800 H 0.91662 0.86323 0.73594 0.0
H801 H 0.89531 0.86413 0.75922 0.0
H802 H 0.93348 0.86156 0.78734 0.0
H803 H 0.95482 0.8604 0.76413 0.0
H804 H 0.95013 0.83529 0.78029 0.0
H805 H 0.90955 0.74819 0.72333 0.0
H806 H 0.9432 0.75516 0.69581 0.0
H807 H 0.95412 0.8378 0.72042 0.0
C808 C 0.88467 0.82128 0.78664 0.0
C809 C 0.86874 0.80108 0.79477 0.0
C810 C 0.86587 0.77537 0.78207 0.0
C811 C 0.87956 0.76963 0.76248 0.0
C812 C 0.89567 0.78984 0.75539 0.0
C813 C 0.89793 0.8152 0.76672 0.0
C814 C 0.91697 0.83315 0.75551 0.0
C815 C 0.90292 0.85116 0.74525 0.0
C816 C 0.94022 0.8485 0.77286 0.0
C817 C 0.92552 0.8138 0.73654 0.0
C818 C 0.91304 0.78893 0.73696 0.0
C819 C 0.91906 0.76757 0.72247 0.0
C820 C 0.93828 0.7717 0.70702 0.0
C821 C 0.95092 0.79696 0.7059 0.0
C822 C 0.94431 0.81831 0.72069 0.0
H823 H 0.10919 0.91524 0.5547 0.0
H824 H 0.0439 0.93353 0.51853 0.0
H825 H 0.01469 0.91859 0.54702 0.0
H826 H 0.07426 0.85685 0.56442 0.0
H827 H 0.09095 0.86003 0.59249 0.0
H828 H 0.10733 0.87549 0.57128 0.0
H829 H 0.1159 0.91944 0.60067 0.0
H830 H 0.09939 0.90409 0.62197 0.0
H831 H 0.08874 0.93088 0.61384 0.0
H832 H 0.99175 0.8978 0.57707 0.0
H833 H 0.97656 0.8714 0.60525 0.0
H834 H 0.05653 0.8653 0.62099 0.0
C835 C 0.08878 0.91625 0.55274 0.0
C836 C 0.07894 0.92567 0.5343 0.0
C837 C 0.0521 0.92685 0.53267 0.0
C838 C 0.0353 0.91832 0.54876 0.0
C839 C 0.04561 0.90872 0.56643 0.0
C840 C 0.07173 0.90764 0.5685 0.0
C841 C 0.07751 0.89456 0.58786 0.0
C842 C 0.08813 0.8703 0.57844 0.0
C843 C 0.09651 0.91337 0.60723 0.0
C844 C 0.05038 0.88776 0.59595 0.0
C845 C 0.03233 0.89645 0.5836 0.0
C846 C 0.00575 0.89118 0.58704 0.0
C847 C 0.99732 0.87615 0.6031 0.0
C848 C 0.01536 0.86638 0.61544 0.0
C849 C 0.04231 0.8728 0.61212 0.0
H850 H 0.20855 0.81902 0.74099 0.0
H851 H 0.19465 0.74315 0.75722 0.0
H852 H 0.14791 0.73664 0.74494 0.0
H853 H 0.14598 0.83492 0.75745 0.0
H854 H 0.14268 0.85043 0.73361 0.0
H855 H 0.17479 0.8505 0.74594 0.0
H856 H 0.18703 0.82998 0.70535 0.0
H857 H 0.15499 0.82981 0.69291 0.0
H858 H 0.16663 0.80027 0.68914 0.0
H859 H 0.10361 0.73671 0.72861 0.0
H860 H 0.0641 0.74314 0.7087 0.0
H861 H 0.10615 0.8183 0.70136 0.0
C862 C 0.19569 0.80108 0.74209 0.0
C863 C 0.20542 0.78176 0.75042 0.0
C864 C 0.18776 0.75859 0.75156 0.0
C865 C 0.16112 0.75459 0.74445 0.0
C866 C 0.15233 0.77386 0.73611 0.0
C867 C 0.169 0.79665 0.73487 0.0
C868 C 0.15465 0.81355 0.72394 0.0
C869 C 0.15452 0.83885 0.74128 0.0
C870 C 0.16653 0.81869 0.7015 0.0
C871 C 0.12743 0.79643 0.71886 0.0
C872 C 0.12657 0.77375 0.72625 0.0
C873 C 0.10395 0.75446 0.72288 0.0
C874 C 0.08161 0.75831 0.71149 0.0
C875 C 0.08198 0.78125 0.70348 0.0
C876 C 0.10519 0.80066 0.70743 0.0
H877 H 0.91673 0.64116 0.52737 0.0
H878 H 0.99101 0.62544 0.50526 0.0
H879 H 0.01442 0.66535 0.53251 0.0
H880 H 0.93552 0.71127 0.53404 0.0
H881 H 0.9172 0.71758 0.55903 0.0
H882 H 0.90639 0.68839 0.53712 0.0
H883 H 0.90712 0.66138 0.56848 0.0
H884 H 0.91792 0.69044 0.59046 0.0
H885 H 0.9368 0.66575 0.58679 0.0
H886 H 0.02958 0.70439 0.56471 0.0
H887 H 0.03557 0.74189 0.59771 0.0
H888 H 0.9513 0.73391 0.59696 0.0
C889 C 0.93792 0.64629 0.52822 0.0
C890 C 0.95219 0.63034 0.51439 0.0
C891 C 0.97984 0.63759 0.51571 0.0
C892 C 0.99324 0.66013 0.53112 0.0
C893 C 0.97861 0.67535 0.54472 0.0
C894 C 0.95155 0.66893 0.54319 0.0
C895 C 0.9405 0.68845 0.5599 0.0
C896 C 0.92393 0.70224 0.54673 0.0
C897 C 0.92466 0.67574 0.57744 0.0
C898 C 0.9656 0.70654 0.57148 0.0
C899 C 0.98736 0.69857 0.56253 0.0
C900 C 0.01272 0.7111 0.57158 0.0
C901 C 0.01592 0.73228 0.59034 0.0
C902 C 0.9939 0.74089 0.5996 0.0
C903 C 0.96846 0.72803 0.58984 0.0
H904 H 0.82476 0.84471 0.22573 0.0
H905 H 0.76332 0.85056 0.27249 0.0
H906 H 0.78246 0.89717 0.28661 0.0
H907 H 0.8758 0.88552 0.2646 0.0
H908 H 0.89272 0.8995 0.24274 0.0
H909 H 0.87278 0.86742 0.23505 0.0
H910 H 0.84603 0.88073 0.20345 0.0
H911 H 0.86587 0.91293 0.2111 0.0
H912 H 0.83075 0.90788 0.21138 0.0
H913 H 0.80935 0.94271 0.29634 0.0
H914 H 0.84353 0.98265 0.30341 0.0
H915 H 0.88794 0.94619 0.25079 0.0
C916 C 0.81507 0.85593 0.23864 0.0
C917 C 0.7924 0.84424 0.24785 0.0
C918 C 0.78067 0.85928 0.26521 0.0
C919 C 0.7913 0.88572 0.27319 0.0
C920 C 0.8137 0.89665 0.2637 0.0
C921 C 0.82553 0.88216 0.24691 0.0
C922 C 0.85046 0.89799 0.24069 0.0
C923 C 0.87434 0.88695 0.24611 0.0
C924 C 0.84812 0.9 0.21514 0.0
C925 C 0.8511 0.92363 0.25686 0.0
C926 C 0.82954 0.9226 0.26973 0.0
C927 C 0.82624 0.94377 0.28628 0.0
C928 C 0.84577 0.9664 0.29012 0.0
C929 C 0.86847 0.96759 0.27766 0.0
C930 C 0.87082 0.94598 0.26055 0.0
H931 H 0.81619 0.18461 0.34733 0.0
H932 H 0.86377 0.23175 0.30694 0.0
H933 H 0.89181 0.19991 0.29926 0.0
H934 H 0.87043 0.16385 0.37364 0.0
H935 H 0.85122 0.13205 0.37261 0.0
H936 H 0.8355 0.15905 0.3755 0.0
H937 H 0.80418 0.13537 0.33903 0.0
H938 H 0.81987 0.10839 0.33595 0.0
H939 H 0.81771 0.12422 0.31217 0.0
H940 H 0.91322 0.16153 0.29417 0.0
H941 H 0.92722 0.12047 0.29345 0.0
H942 H 0.8667 0.09967 0.33854 0.0
C943 C 0.83279 0.18854 0.33725 0.0
C944 C 0.83766 0.2107 0.32767 0.0
C945 C 0.85936 0.21475 0.31418 0.0
C946 C 0.87552 0.19686 0.30984 0.0
C947 C 0.86991 0.17508 0.31927 0.0
C948 C 0.84921 0.17098 0.33286 0.0
C949 C 0.84706 0.14578 0.34059 0.0
C950 C 0.85132 0.15047 0.36716 0.0
C951 C 0.82064 0.12736 0.33138 0.0
C952 C 0.86958 0.13618 0.32897 0.0
C953 C 0.88254 0.15332 0.31675 0.0
C954 C 0.90338 0.14808 0.30388 0.0
C955 C 0.91116 0.1247 0.30353 0.0
C956 C 0.89818 0.10695 0.31604 0.0
C957 C 0.87723 0.11295 0.32899 0.0
H958 H 0.40153 0.04389 0.9786 0.0
H959 H 0.4666 0.03925 0.02424 0.0
H960 H 0.43838 0.00363 0.03757 0.0
H961 H 0.35265 0.03337 0.01705 0.0
H962 H 0.3276 0.01423 0.99506 0.0
H963 H 0.35328 0.03804 0.98771 0.0
H964 H 0.3656 0.00326 0.95548 0.0
H965 H 0.33969 0.97939 0.9625 0.0
H966 H 0.3728 0.97454 0.96268 0.0
H967 H 0.40269 0.97022 0.04733 0.0
H968 H 0.36237 0.93964 0.05165 0.0
H969 H 0.32026 0.96626 0.99983 0.0
C970 C 0.40996 0.03495 0.99099 0.0
C971 C 0.43624 0.04418 1.00034 0.0
C972 C 0.44647 0.03244 0.01694 0.0
C973 C 0.43062 0.01223 0.02458 0.0
C974 C 0.4046 0.00401 0.01546 0.0
C975 C 0.39437 0.01484 0.9989 0.0
C976 C 0.36553 0.00301 0.99252 0.0
C977 C 0.34879 0.02338 0.99844 0.0
C978 C 0.36063 0.98922 0.96677 0.0
C979 C 0.36112 0.984 0.00821 0.0
C980 C 0.38392 0.98486 0.02125 0.0
C981 C 0.38473 0.96926 0.03713 0.0
C982 C 0.36168 0.95201 0.03951 0.0
C983 C 0.3381 0.95053 0.0261 0.0
C984 C 0.3379 0.96695 0.0104 0.0
H985 H 0.24872 0.39332 0.36114 0.0
H986 H 0.29057 0.3778 0.29951 0.0
H987 H 0.2549 0.38717 0.27625 0.0
H988 H 0.18088 0.3721 0.33326 0.0
H989 H 0.1705 0.39846 0.35169 0.0
H990 H 0.19612 0.38493 0.36234 0.0
H991 H 0.2271 0.43012 0.37224 0.0
H992 H 0.20161 0.44374 0.36177 0.0
H993 H 0.233 0.44818 0.34984 0.0
H994 H 0.217 0.40343 0.26059 0.0
H995 H 0.18373 0.42891 0.25516 0.0
H996 H 0.17002 0.43767 0.32792 0.0
C997 C 0.25046 0.39165 0.34272 0.0
C998 C 0.27264 0.3848 0.33228 0.0
C999 C 0.27366 0.38253 0.30799 0.0
C1000 C 0.25346 0.38788 0.29459 0.0
C1001 C 0.23236 0.39549 0.3057 0.0
C1002 C 0.23087 0.39746 0.32928 0.0
C1003 C 0.20832 0.40941 0.33783 0.0
C1004 C 0.18773 0.39006 0.3468 0.0
C1005 C 0.2181 0.43434 0.3565 0.0
C1006 C 0.19795 0.41492 0.31557 0.0
C1007 C 0.21145 0.40601 0.29702 0.0
C1008 C 0.20611 0.41018 0.27493 0.0
C1009 C 0.18712 0.42454 0.27196 0.0
C1010 C 0.17435 0.43507 0.29112 0.0
C1011 C 0.17939 0.4296 0.31297 0.0
H1012 H 0.18233 0.02315 0.46767 0.0
H1013 H 0.1299 0.07599 0.4824 0.0
H1014 H 0.16756 0.11286 0.48736 0.0
H1015 H 0.2356 0.06031 0.50879 0.0
H1016 H 0.26067 0.05239 0.49025 0.0
H1017 H 0.22954 0.03019 0.48771 0.0
H1018 H 0.22367 0.03025 0.44396 0.0
H1019 H 0.25474 0.05254 0.44638 0.0
H1020 H 0.22556 0.06039 0.43513 0.0
H1021 H 0.21078 0.14382 0.49165 0.0
H1022 H 0.25684 0.16708 0.49446 0.0
H1023 H 0.28121 0.09412 0.47621 0.0
C1024 C 0.17884 0.04249 0.47208 0.0
C1025 C 0.15324 0.04677 0.47464 0.0
C1026 C 0.14936 0.07233 0.48014 0.0
C1027 C 0.1706 0.09336 0.48306 0.0
C1028 C 0.19557 0.08849 0.48032 0.0
C1029 C 0.19981 0.06372 0.4749 0.0
C1030 C 0.22862 0.06383 0.47284 0.0
C1031 C 0.23923 0.05092 0.49098 0.0
C1032 C 0.23342 0.05099 0.44811 0.0
C1033 C 0.23991 0.09254 0.47812 0.0
C1034 C 0.22051 0.1064 0.48242 0.0
C1035 C 0.22615 0.13321 0.48822 0.0
C1036 C 0.25239 0.14623 0.48979 0.0
C1037 C 0.27263 0.13244 0.48547 0.0
C1038 C 0.26618 0.10523 0.47941 0.0
H1039 H 0.79871 0.17252 0.78426 0.0
H1040 H 0.77043 0.1921 0.72159 0.0
H1041 H 0.73282 0.15516 0.71633 0.0
H1042 H 0.78005 0.10274 0.76362 0.0
H1043 H 0.77066 0.09725 0.7915 0.0
H1044 H 0.79588 0.12467 0.78984 0.0
H1045 H 0.76998 0.15493 0.81445 0.0
H1046 H 0.74461 0.12763 0.81606 0.0
H1047 H 0.73652 0.15387 0.80491 0.0
H1048 H 0.69788 0.11725 0.71847 0.0
H1049 H 0.66772 0.08015 0.72738 0.0
H1050 H 0.71866 0.08473 0.78871 0.0
C1051 C 0.78483 0.16877 0.76922 0.0
C1052 C 0.78748 0.18514 0.75329 0.0
C1053 C 0.76864 0.17991 0.73409 0.0
C1054 C 0.7473 0.15894 0.73091 0.0
C1055 C 0.74512 0.14337 0.74707 0.0
C1056 C 0.76338 0.14794 0.7658 0.0
C1057 C 0.75604 0.12859 0.78092 0.0
C1058 C 0.7769 0.11235 0.78149 0.0
C1059 C 0.75151 0.14207 0.80554 0.0
C1060 C 0.73066 0.11256 0.76783 0.0
C1061 C 0.72482 0.12142 0.74834 0.0
C1062 C 0.70228 0.11005 0.73362 0.0
C1063 C 0.68524 0.08898 0.7389 0.0
C1064 C 0.69077 0.07945 0.75877 0.0
C1065 C 0.71385 0.09149 0.7734 0.0
H1066 H 0.44247 0.03963 0.56548 0.0
H1067 H 0.46635 0.99979 0.50116 0.0
H1068 H 0.45591 0.03292 0.4814 0.0
H1069 H 0.38788 0.05404 0.54107 0.0
H1070 H 0.39052 0.0854 0.55963 0.0
H1071 H 0.40417 0.06143 0.56988 0.0
H1072 H 0.44956 0.09273 0.57863 0.0
H1073 H 0.43598 0.11693 0.56852 0.0
H1074 H 0.46416 0.10705 0.55595 0.0
H1075 H 0.43723 0.06589 0.46742 0.0
H1076 H 0.41197 0.09753 0.45993 0.0
H1077 H 0.39998 0.11702 0.53315 0.0
C1078 C 0.4463 0.03853 0.54746 0.0
C1079 C 0.45555 0.01755 0.5348 0.0
C1080 C 0.45955 0.01599 0.51107 0.0
C1081 C 0.45373 0.03471 0.49977 0.0
C1082 C 0.44394 0.05484 0.51249 0.0
C1083 C 0.44038 0.05704 0.53584 0.0
C1084 C 0.42705 0.0791 0.54477 0.0
C1085 C 0.40086 0.0694 0.55439 0.0
C1086 C 0.44528 0.10021 0.56305 0.0
C1087 C 0.42281 0.08827 0.5226 0.0
C1088 C 0.43301 0.07416 0.50429 0.0
C1089 C 0.42962 0.07743 0.48168 0.0
C1090 C 0.41514 0.09536 0.47758 0.0
C1091 C 0.40426 0.10986 0.49599 0.0
C1092 C 0.40858 0.10659 0.51885 0.0
H1093 H 0.5954 0.47217 0.53843 0.0
H1094 H 0.59363 0.48706 0.61331 0.0
H1095 H 0.62125 0.45544 0.61512 0.0
H1096 H 0.59759 0.40305 0.52893 0.0
H1097 H 0.62 0.40561 0.50668 0.0
H1098 H 0.59663 0.42609 0.51103 0.0
H1099 H 0.63441 0.4664 0.51641 0.0
H1100 H 0.65782 0.44611 0.51209 0.0
H1101 H 0.66116 0.47096 0.53812 0.0
H1102 H 0.65363 0.42596 0.60904 0.0
H1103 H 0.68821 0.40252 0.59571 0.0
H1104 H 0.66936 0.40836 0.5251 0.0
C1105 C 0.60049 0.46855 0.55521 0.0
C1106 C 0.59221 0.48206 0.57571 0.0
C1107 C 0.59929 0.47664 0.5973 0.0
C1108 C 0.61508 0.45876 0.59851 0.0
C1109 C 0.62351 0.44633 0.57798 0.0
C1110 C 0.61632 0.45096 0.55673 0.0
C1111 C 0.62983 0.43709 0.53746 0.0
C1112 C 0.60981 0.41675 0.52 0.0
C1113 C 0.64681 0.45629 0.52532 0.0
C1114 C 0.64648 0.42463 0.55124 0.0
C1115 C 0.6423 0.42976 0.57454 0.0
C1116 C 0.65676 0.42152 0.59078 0.0
C1117 C 0.67634 0.40818 0.58306 0.0
C1118 C 0.68144 0.40352 0.55936 0.0
C1119 C 0.66583 0.4114 0.5433 0.0
H1120 H 0.81647 0.26548 0.39889 0.0
H1121 H 0.74036 0.25484 0.36192 0.0
H1122 H 0.72207 0.27004 0.39885 0.0
H1123 H 0.79174 0.24677 0.45266 0.0
H1124 H 0.81707 0.27083 0.47104 0.0
H1125 H 0.82336 0.25614 0.44213 0.0
H1126 H 0.8369 0.30127 0.43266 0.0
H1127 H 0.83069 0.31605 0.46146 0.0
H1128 H 0.81444 0.32272 0.43664 0.0
H1129 H 0.71339 0.29107 0.43885 0.0
H1130 H 0.71518 0.31673 0.47881 0.0
H1131 H 0.79653 0.31236 0.49001 0.0
C1132 C 0.79579 0.26567 0.39866 0.0
C1133 C 0.77983 0.25896 0.37753 0.0
C1134 C 0.753 0.26011 0.37788 0.0
C1135 C 0.74239 0.2685 0.39879 0.0
C1136 C 0.75877 0.27545 0.41927 0.0
C1137 C 0.78487 0.27398 0.41939 0.0
C1138 C 0.79877 0.28454 0.44345 0.0
C1139 C 0.80829 0.2633 0.45287 0.0
C1140 C 0.82153 0.30751 0.44354 0.0
C1141 C 0.77664 0.29299 0.45666 0.0
C1142 C 0.75364 0.2873 0.44247 0.0
C1143 C 0.73114 0.2952 0.45026 0.0
C1144 C 0.73234 0.30978 0.47298 0.0
C1145 C 0.75589 0.31633 0.48764 0.0
C1146 C 0.77806 0.3072 0.47945 0.0
H1147 H 0.5277 0.0747 0.90582 0.0
H1148 H 0.45692 0.05673 0.8595 0.0
H1149 H 0.47905 0.03313 0.82863 0.0
H1150 H 0.57083 0.08825 0.86468 0.0
H1151 H 0.59647 0.07472 0.87529 0.0
H1152 H 0.57408 0.08675 0.89484 0.0
H1153 H 0.5618 0.04252 0.90624 0.0
H1154 H 0.58425 0.03034 0.88673 0.0
H1155 H 0.55038 0.01378 0.88393 0.0
H1156 H 0.5097 0.01575 0.80185 0.0
H1157 H 0.54721 0.00655 0.78023 0.0
H1158 H 0.59887 0.03604 0.84353 0.0
C1159 C 0.51671 0.06513 0.88937 0.0
C1160 C 0.49057 0.06725 0.88501 0.0
C1161 C 0.47696 0.05522 0.86311 0.0
C1162 C 0.48931 0.04169 0.84556 0.0
C1163 C 0.51529 0.04039 0.85021 0.0
C1164 C 0.52887 0.05174 0.87157 0.0
C1165 C 0.55735 0.04961 0.87128 0.0
C1166 C 0.57576 0.07642 0.87684 0.0
C1167 C 0.56382 0.03307 0.88804 0.0
C1168 C 0.55783 0.036 0.84623 0.0
C1169 C 0.53324 0.03054 0.83453 0.0
C1170 C 0.52898 0.0196 0.81088 0.0
C1171 C 0.55046 0.01452 0.79874 0.0
C1172 C 0.57599 0.02048 0.81019 0.0
C1173 C 0.57955 0.03087 0.83437 0.0
H1174 H 0.37169 0.31615 0.40004 0.0
H1175 H 0.38428 0.26397 0.33715 0.0
H1176 H 0.38994 0.23198 0.35999 0.0
H1177 H 0.41584 0.2979 0.44031 0.0
H1178 H 0.39391 0.29998 0.46309 0.0
H1179 H 0.3943 0.32022 0.44239 0.0
H1180 H 0.34441 0.30284 0.43202 0.0
H1181 H 0.34385 0.28268 0.45272 0.0
H1182 H 0.33184 0.26859 0.42291 0.0
H1183 H 0.39079 0.20427 0.38899 0.0
H1184 H 0.38437 0.18209 0.42145 0.0
H1185 H 0.36889 0.25141 0.46503 0.0
C1186 C 0.37569 0.29806 0.39098 0.0
C1187 C 0.3777 0.29279 0.36671 0.0
C1188 C 0.38321 0.26884 0.35575 0.0
C1189 C 0.38636 0.25044 0.36858 0.0
C1190 C 0.38387 0.25617 0.39236 0.0
C1191 C 0.37857 0.27935 0.40345 0.0
C1192 C 0.37469 0.27992 0.42882 0.0
C1193 C 0.39596 0.30074 0.44458 0.0
C1194 C 0.34706 0.28372 0.43443 0.0
C1195 C 0.37799 0.25316 0.43012 0.0
C1196 C 0.38371 0.23993 0.40901 0.0
C1197 C 0.38653 0.2145 0.40566 0.0
C1198 C 0.38285 0.20207 0.42424 0.0
C1199 C 0.37614 0.21498 0.44585 0.0
C1200 C 0.3742 0.24104 0.44884 0.0
H1201 H 0.50588 0.50687 0.91488 0.0
H1202 H 0.57835 0.50704 0.88151 0.0
H1203 H 0.55854 0.51876 0.84771 0.0
H1204 H 0.46284 0.47888 0.86437 0.0
H1205 H 0.43888 0.49807 0.87241 0.0
H1206 H 0.45928 0.49122 0.89456 0.0
H1207 H 0.4749 0.54011 0.91201 0.0
H1208 H 0.45459 0.54712 0.88982 0.0
H1209 H 0.4892 0.56117 0.89379 0.0
H1210 H 0.52988 0.52659 0.81624 0.0
H1211 H 0.49442 0.53138 0.78962 0.0
H1212 H 0.44113 0.52822 0.84393 0.0
C1213 C 0.51757 0.50954 0.90049 0.0
C1214 C 0.54367 0.5062 0.90083 0.0
C1215 C 0.55842 0.50987 0.88172 0.0
C1216 C 0.54734 0.51646 0.86243 0.0
C1217 C 0.52156 0.51957 0.8626 0.0
C1218 C 0.50689 0.51642 0.88118 0.0
C1219 C 0.47938 0.52022 0.87666 0.0
C1220 C 0.45889 0.49563 0.87701 0.0
C1221 C 0.47422 0.54355 0.89411 0.0
C1222 C 0.48071 0.5254 0.85244 0.0
C1223 C 0.50524 0.52495 0.84467 0.0
C1224 C 0.51071 0.52742 0.82225 0.0
C1225 C 0.49048 0.53009 0.80725 0.0
C1226 C 0.4652 0.53054 0.81484 0.0
C1227 C 0.46045 0.52858 0.83786 0.0
H1228 H 0.79421 0.74111 0.18348 0.0
H1229 H 0.74283 0.79256 0.17455 0.0
H1230 H 0.74098 0.77758 0.13199 0.0
H1231 H 0.83147 0.75077 0.13571 0.0
H1232 H 0.83506 0.71789 0.12722 0.0
H1233 H 0.83115 0.73132 0.15707 0.0
H1234 H 0.79102 0.69439 0.15672 0.0
H1235 H 0.79496 0.6807 0.12693 0.0
H1236 H 0.76408 0.68833 0.13491 0.0
H1237 H 0.74553 0.75817 0.09082 0.0
H1238 H 0.75566 0.73495 0.05302 0.0
H1239 H 0.80515 0.69658 0.08814 0.0
C1240 C 0.78223 0.74883 0.17251 0.0
C1241 C 0.76852 0.76787 0.18218 0.0
C1242 C 0.75346 0.77797 0.16738 0.0
C1243 C 0.75229 0.76958 0.14325 0.0
C1244 C 0.7664 0.75115 0.13421 0.0
C1245 C 0.78104 0.74082 0.14831 0.0
C1246 C 0.79506 0.72191 0.134 0.0
C1247 C 0.82496 0.73103 0.13879 0.0
C1248 C 0.78571 0.69472 0.1384 0.0
C1249 C 0.78604 0.72331 0.10969 0.0
C1250 C 0.76944 0.74025 0.11027 0.0
C1251 C 0.75847 0.74482 0.09011 0.0
C1252 C 0.76438 0.73155 0.06871 0.0
C1253 C 0.78125 0.71399 0.06761 0.0
C1254 C 0.79233 0.70999 0.08842 0.0
H1255 H 0.04644 0.01234 0.13945 0.0
H1256 H 0.06982 0.09588 0.15313 0.0
H1257 H 0.04422 0.09905 0.18712 0.0
H1258 H 0.98146 0.00771 0.15824 0.0
H1259 H 0.98286 0.98131 0.17209 0.0
H1260 H 0.00176 0.98532 0.14775 0.0
H1261 H 0.04414 0.98607 0.17237 0.0
H1262 H 0.02535 0.98195 0.19675 0.0
H1263 H 0.05272 0.00887 0.19976 0.0
H1264 H 0.01544 0.09355 0.21951 0.0
H1265 H 0.9887 0.07937 0.24996 0.0
H1266 H 0.98741 0.9997 0.21778 0.0
C1267 C 0.04639 0.03134 0.14959 0.0
C1268 C 0.05984 0.05384 0.14299 0.0
C1269 C 0.05901 0.07825 0.15702 0.0
C1270 C 0.04468 0.08033 0.17662 0.0
C1271 C 0.03156 0.05784 0.18243 0.0
C1272 C 0.03256 0.0338 0.16955 0.0
C1273 C 0.01766 0.01269 0.18029 0.0
C1274 C 0.99456 0.99576 0.16359 0.0
C1275 C 0.03607 0.99644 0.18773 0.0
C1276 C 0.00815 0.02867 0.20117 0.0
C1277 C 0.01612 0.05467 0.2019 0.0
C1278 C 0.00923 0.07324 0.21922 0.0
C1279 C 0.99397 0.06501 0.2364 0.0
C1280 C 0.98613 0.03848 0.23633 0.0
C1281 C 0.99332 0.02014 0.21842 0.0
H1282 H 0.27031 0.82117 0.19316 0.0
H1283 H 0.30836 0.75773 0.16793 0.0
H1284 H 0.31969 0.77553 0.13373 0.0
H1285 H 0.23917 0.81883 0.13859 0.0
H1286 H 0.24173 0.85312 0.14313 0.0
H1287 H 0.24021 0.83795 0.16756 0.0
H1288 H 0.2837 0.86874 0.18639 0.0
H1289 H 0.28534 0.88408 0.16202 0.0
H1290 H 0.31234 0.87082 0.17027 0.0
H1291 H 0.32486 0.79871 0.10111 0.0
H1292 H 0.3211 0.8239 0.07133 0.0
H1293 H 0.27506 0.86911 0.11538 0.0
C1294 C 0.28099 0.81083 0.18054 0.0
C1295 C 0.28848 0.78795 0.18362 0.0
C1296 C 0.30288 0.77558 0.16659 0.0
C1297 C 0.30927 0.78545 0.14689 0.0
C1298 C 0.30088 0.80754 0.14421 0.0
C1299 C 0.28689 0.81998 0.16048 0.0
C1300 C 0.2781 0.84199 0.15248 0.0
C1301 C 0.24802 0.8377 0.15031 0.0
C1302 C 0.29063 0.86795 0.16876 0.0
C1303 C 0.28896 0.83971 0.12893 0.0
C1304 C 0.30251 0.82004 0.12475 0.0
C1305 C 0.31434 0.81416 0.10421 0.0
C1306 C 0.3121 0.82862 0.08741 0.0
C1307 C 0.29771 0.8484 0.09103 0.0
C1308 C 0.28607 0.85403 0.11212 0.0
H1309 H 0.01823 0.53211 0.10999 0.0
H1310 H 0.01166 0.45231 0.07496 0.0
H1311 H 0.03171 0.44374 0.1103 0.0
H1312 H 0.0796 0.54032 0.14137 0.0
H1313 H 0.07128 0.56025 0.16718 0.0
H1314 H 0.05594 0.55992 0.13928 0.0
H1315 H 0.01012 0.54736 0.15407 0.0
H1316 H 0.02533 0.54776 0.18207 0.0
H1317 H 0.00253 0.5193 0.16644 0.0
H1318 H 0.05403 0.44435 0.14924 0.0
H1319 H 0.07564 0.45395 0.18905 0.0
H1320 H 0.06583 0.53283 0.19864 0.0
C1321 C 0.02059 0.51272 0.10982 0.0
C1322 C 0.01339 0.4929 0.08964 0.0
C1323 C 0.01733 0.46791 0.0901 0.0
C1324 C 0.02856 0.4628 0.11013 0.0
C1325 C 0.03561 0.48284 0.12964 0.0
C1326 C 0.03163 0.50726 0.12968 0.0
C1327 C 0.04119 0.52551 0.1528 0.0
C1328 C 0.06332 0.54781 0.14998 0.0
C1329 C 0.01843 0.53557 0.16453 0.0
C1330 C 0.05131 0.50759 0.16571 0.0
C1331 C 0.04799 0.48307 0.15208 0.0
C1332 C 0.05656 0.46344 0.16013 0.0
C1333 C 0.06885 0.46907 0.18273 0.0
C1334 C 0.07229 0.49407 0.19698 0.0
C1335 C 0.06328 0.51345 0.18827 0.0
H1336 H 0.37007 0.68703 0.26068 0.0
H1337 H 0.36829 0.76844 0.27373 0.0
H1338 H 0.41313 0.77895 0.29247 0.0
H1339 H 0.39603 0.69038 0.31605 0.0
H1340 H 0.41522 0.66637 0.30775 0.0
H1341 H 0.38601 0.66537 0.29021 0.0
H1342 H 0.41276 0.66639 0.25427 0.0
H1343 H 0.44216 0.66743 0.27177 0.0
H1344 H 0.44108 0.69197 0.25553 0.0
H1345 H 0.45605 0.78056 0.31364 0.0
H1346 H 0.49091 0.77342 0.3391 0.0
H1347 H 0.46173 0.69077 0.31739 0.0
C1348 C 0.37892 0.70716 0.26735 0.0
C1349 C 0.36521 0.72684 0.26559 0.0
C1350 C 0.37822 0.75288 0.27424 0.0
C1351 C 0.40378 0.75909 0.28507 0.0
C1352 C 0.41607 0.73909 0.28738 0.0
C1353 C 0.40394 0.71363 0.27894 0.0
C1354 C 0.41948 0.69564 0.28671 0.0
C1355 C 0.40322 0.67844 0.30104 0.0
C1356 C 0.42946 0.6794 0.26582 0.0
C1357 C 0.44185 0.71499 0.30159 0.0
C1358 C 0.43997 0.73992 0.30106 0.0
C1359 C 0.45781 0.76114 0.31404 0.0
C1360 C 0.47761 0.75683 0.32845 0.0
C1361 C 0.47906 0.73149 0.33029 0.0
C1362 C 0.46122 0.71032 0.31627 0.0
H1363 H 0.00588 0.40311 0.97762 0.0
H1364 H 0.08098 0.44853 0.96724 0.0
H1365 H 0.09789 0.40885 0.95589 0.0
H1366 H 0.03167 0.35177 0.99893 0.0
H1367 H 0.005 0.32669 0.98361 0.0
H1368 H 0.99987 0.35878 0.99413 0.0
H1369 H 0.983 0.35998 0.95263 0.0
H1370 H 0.98809 0.32799 0.94202 0.0
H1371 H 0.00337 0.35394 0.92905 0.0
H1372 H 0.10505 0.36483 0.94141 0.0
H1373 H 0.10192 0.31887 0.92411 0.0
H1374 H 0.02232 0.30122 0.94387 0.0
C1375 C 0.02607 0.40463 0.97354 0.0
C1376 C 0.04223 0.42878 0.97338 0.0
C1377 C 0.06834 0.43013 0.9674 0.0
C1378 C 0.07815 0.40775 0.96109 0.0
C1379 C 0.0616 0.38415 0.9609 0.0
C1380 C 0.03613 0.38237 0.96702 0.0
C1381 C 0.02177 0.35446 0.96323 0.0
C1382 C 0.01413 0.34752 0.98636 0.0
C1383 C 0.99764 0.34877 0.94569 0.0
C1384 C 0.04288 0.34093 0.95335 0.0
C1385 C 0.06579 0.35845 0.95246 0.0
C1386 C 0.08739 0.35086 0.94237 0.0
C1387 C 0.0854 0.32472 0.93253 0.0
C1388 C 0.06198 0.30645 0.93282 0.0
C1389 C 0.04067 0.31466 0.94384 0.0
H1390 H 0.71517 0.77455 0.31294 0.0
H1391 H 0.71849 0.69405 0.306 0.0
H1392 H 0.68033 0.68776 0.32884 0.0
H1393 H 0.69383 0.78516 0.37123 0.0
H1394 H 0.67196 0.80523 0.36522 0.0
H1395 H 0.70079 0.80414 0.34962 0.0
H1396 H 0.67207 0.79118 0.31056 0.0
H1397 H 0.6432 0.79241 0.32602 0.0
H1398 H 0.64532 0.76345 0.30554 0.0
H1399 H 0.64105 0.68947 0.35121 0.0
H1400 H 0.60155 0.69855 0.36977 0.0
H1401 H 0.62224 0.77745 0.36115 0.0
C1402 C 0.70788 0.75557 0.31614 0.0
C1403 C 0.72023 0.7349 0.30785 0.0
C1404 C 0.70996 0.71041 0.31261 0.0
C1405 C 0.68814 0.70657 0.32549 0.0
C1406 C 0.67658 0.72733 0.33345 0.0
C1407 C 0.68594 0.75131 0.32886 0.0
C1408 C 0.66904 0.77002 0.33853 0.0
C1409 C 0.68485 0.79246 0.35726 0.0
C1410 C 0.65667 0.77983 0.319 0.0
C1411 C 0.64855 0.75267 0.34898 0.0
C1412 C 0.65348 0.7282 0.34605 0.0
C1413 C 0.63702 0.70858 0.3537 0.0
C1414 C 0.61463 0.71395 0.36425 0.0
C1415 C 0.60878 0.73871 0.36697 0.0
C1416 C 0.62625 0.75838 0.3595 0.0
H1417 H 0.05492 0.1385 0.03885 0.0
H1418 H 0.11813 0.1046 0.01056 0.0
H1419 H 0.10862 0.11577 0.97287 0.0
H1420 H 0.0104 0.11993 0.98345 0.0
H1421 H 0.99927 0.14973 0.99015 0.0
H1422 H 0.00849 0.13529 0.01325 0.0
H1423 H 0.04147 0.17777 0.03182 0.0
H1424 H 0.03267 0.19223 0.0087 0.0
H1425 H 0.06641 0.19113 0.01486 0.0
H1426 H 0.0968 0.13729 0.94086 0.0
H1427 H 0.08156 0.1641 0.91618 0.0
H1428 H 0.02478 0.18233 0.96507 0.0
C1429 C 0.06602 0.13257 0.02437 0.0
C1430 C 0.08689 0.1203 0.02727 0.0
C1431 C 0.10168 0.11349 0.00835 0.0
C1432 C 0.09647 0.11988 0.98699 0.0
C1433 C 0.0762 0.13275 0.98486 0.0
C1434 C 0.06087 0.13855 0.00294 0.0
C1435 C 0.04159 0.15411 0.99692 0.0
C1436 C 0.01326 0.13885 0.99588 0.0
C1437 C 0.04581 0.18036 0.01409 0.0
C1438 C 0.04917 0.15717 0.97303 0.0
C1439 C 0.06905 0.1446 0.96626 0.0
C1440 C 0.08082 0.14668 0.94574 0.0
C1441 C 0.07211 0.16203 0.93188 0.0
C1442 C 0.05177 0.17505 0.93855 0.0
C1443 C 0.03998 0.17219 0.95923 0.0
H1444 H 0.40343 0.29485 0.29091 0.0
H1445 H 0.3964 0.37476 0.30097 0.0
H1446 H 0.42305 0.37976 0.26817 0.0
H1447 H 0.47099 0.30813 0.28161 0.0
H1448 H 0.4691 0.2783 0.26084 0.0
H1449 H 0.44659 0.27999 0.2831 0.0
H1450 H 0.40744 0.26368 0.25168 0.0
H1451 H 0.42984 0.26198 0.22929 0.0
H1452 H 0.40506 0.28067 0.22873 0.0
H1453 H 0.45147 0.37621 0.23425 0.0
H1454 H 0.48247 0.36548 0.20492 0.0
H1455 H 0.47526 0.29015 0.22106 0.0
C1456 C 0.40751 0.31354 0.28649 0.0
C1457 C 0.39737 0.33429 0.29869 0.0
C1458 C 0.40311 0.35821 0.29171 0.0
C1459 C 0.41849 0.36137 0.27314 0.0
C1460 C 0.42842 0.3406 0.26186 0.0
C1461 C 0.4234 0.31726 0.26849 0.0
C1462 C 0.43807 0.29859 0.25489 0.0
C1463 C 0.45733 0.29081 0.27108 0.0
C1464 C 0.41896 0.27483 0.24028 0.0
C1465 C 0.45236 0.31515 0.2397 0.0
C1466 C 0.44613 0.33914 0.24358 0.0
C1467 C 0.45659 0.35753 0.23116 0.0
C1468 C 0.47409 0.35129 0.21454 0.0
C1469 C 0.48137 0.32714 0.21098 0.0
C1470 C 0.47024 0.30889 0.22368 0.0
H1471 H 0.49738 0.39653 0.00955 0.0
H1472 H 0.57957 0.43263 0.01127 0.0
H1473 H 0.58745 0.42303 0.04979 0.0
H1474 H 0.4904 0.41611 0.07213 0.0
H1475 H 0.46883 0.38587 0.07265 0.0
H1476 H 0.46928 0.39846 0.04669 0.0
H1477 H 0.47908 0.35599 0.0232 0.0
H1478 H 0.47869 0.34331 0.04903 0.0
H1479 H 0.50703 0.34472 0.03254 0.0
H1480 H 0.58701 0.40511 0.08636 0.0
H1481 H 0.57811 0.38103 0.11756 0.0
H1482 H 0.49629 0.35677 0.09121 0.0
C1483 C 0.517 0.40268 0.01812 0.0
C1484 C 0.53785 0.41536 0.00739 0.0
C1485 C 0.56321 0.42321 0.01928 0.0
C1486 C 0.56789 0.41775 0.04113 0.0
C1487 C 0.54697 0.40463 0.05094 0.0
C1488 C 0.52198 0.39739 0.03984 0.0
C1489 C 0.50316 0.38209 0.05323 0.0
C1490 C 0.48165 0.3965 0.06168 0.0
C1491 C 0.49131 0.35493 0.03863 0.0
C1492 C 0.52156 0.38117 0.07328 0.0
C1493 C 0.54671 0.39447 0.07185 0.0
C1494 C 0.56731 0.39495 0.08781 0.0
C1495 C 0.56208 0.38122 0.10547 0.0
C1496 C 0.5365 0.36713 0.10692 0.0
C1497 C 0.51602 0.36755 0.09077 0.0
H1498 H 0.73384 0.31241 0.25101 0.0
H1499 H 0.71073 0.24197 0.27611 0.0
H1500 H 0.66454 0.241 0.26566 0.0
H1501 H 0.67756 0.34013 0.26745 0.0
H1502 H 0.67533 0.35225 0.2414 0.0
H1503 H 0.70662 0.34915 0.25302 0.0
H1504 H 0.71315 0.32076 0.21361 0.0
H1505 H 0.68195 0.32384 0.20186 0.0
H1506 H 0.68848 0.29233 0.20107 0.0
H1507 H 0.6212 0.24616 0.251 0.0
H1508 H 0.58343 0.2557 0.23098 0.0
H1509 H 0.63429 0.32129 0.21292 0.0
C1510 C 0.71914 0.29674 0.25434 0.0
C1511 C 0.72615 0.27746 0.26475 0.0
C1512 C 0.70607 0.25742 0.26883 0.0
C1513 C 0.67968 0.25657 0.26279 0.0
C1514 C 0.67358 0.27576 0.25249 0.0
C1515 C 0.69269 0.29538 0.24813 0.0
C1516 C 0.68089 0.31261 0.23544 0.0
C1517 C 0.68537 0.34017 0.25021 0.0
C1518 C 0.69176 0.31235 0.21158 0.0
C1519 C 0.65219 0.29932 0.23303 0.0
C1520 C 0.64845 0.27832 0.2433 0.0
C1521 C 0.62384 0.2626 0.24297 0.0
C1522 C 0.60249 0.26822 0.23153 0.0
C1523 C 0.60586 0.28926 0.22035 0.0
C1524 C 0.63105 0.30517 0.22139 0.0
H1525 H 0.47463 0.16139 0.01579 0.0
H1526 H 0.5117 0.10803 0.0436 0.0
H1527 H 0.52996 0.14228 0.07809 0.0
H1528 H 0.52697 0.21932 0.03753 0.0
H1529 H 0.50403 0.24 0.04408 0.0
H1530 H 0.49587 0.21195 0.02062 0.0
H1531 H 0.45334 0.19589 0.03919 0.0
H1532 H 0.46146 0.22373 0.06279 0.0
H1533 H 0.45541 0.19189 0.06871 0.0
H1534 H 0.54155 0.18094 0.11043 0.0
H1535 H 0.54672 0.22212 0.13869 0.0
H1536 H 0.50191 0.25077 0.09019 0.0
C1537 C 0.4871 0.15715 0.02891 0.0
C1538 C 0.4919 0.13217 0.02708 0.0
C1539 C 0.50778 0.12708 0.04479 0.0
C1540 C 0.51828 0.1464 0.06436 0.0
C1541 C 0.51271 0.17068 0.06591 0.0
C1542 C 0.49762 0.17621 0.04865 0.0
C1543 C 0.49346 0.20351 0.05526 0.0
C1544 C 0.50583 0.21965 0.03837 0.0
C1545 C 0.46418 0.20375 0.05657 0.0
C1546 C 0.50821 0.21229 0.07909 0.0
C1547 C 0.51928 0.19307 0.08478 0.0
C1548 C 0.53318 0.19623 0.10611 0.0
C1549 C 0.53591 0.21971 0.12208 0.0
C1550 C 0.52474 0.23976 0.1167 0.0
C1551 C 0.51077 0.23591 0.09483 0.0
H1552 H 0.31749 0.33138 0.71274 0.0
H1553 H 0.31974 0.32402 0.78477 0.0
H1554 H 0.32366 0.37062 0.79726 0.0
H1555 H 0.37006 0.3839 0.72345 0.0
H1556 H 0.35837 0.3993 0.70206 0.0
H1557 H 0.34915 0.36491 0.69834 0.0
H1558 H 0.30015 0.36724 0.69517 0.0
H1559 H 0.30925 0.40176 0.69907 0.0
H1560 H 0.2875 0.38765 0.7181 0.0
H1561 H 0.33122 0.41858 0.80241 0.0
H1562 H 0.34885 0.46363 0.80028 0.0
H1563 H 0.34948 0.44004 0.7256 0.0
C1564 C 0.31886 0.33922 0.73121 0.0
C1565 C 0.31808 0.32334 0.7476 0.0
C1566 C 0.31941 0.3351 0.77156 0.0
C1567 C 0.32181 0.36179 0.77894 0.0
C1568 C 0.32336 0.37673 0.76228 0.0
C1569 C 0.32239 0.36588 0.73893 0.0
C1570 C 0.32872 0.38633 0.72477 0.0
C1571 C 0.35302 0.38344 0.71138 0.0
C1572 C 0.30498 0.3857 0.70831 0.0
C1573 C 0.33423 0.41044 0.74393 0.0
C1574 C 0.33002 0.4045 0.76534 0.0
C1575 C 0.33445 0.42346 0.78573 0.0
C1576 C 0.34434 0.44903 0.78432 0.0
C1577 C 0.35047 0.45529 0.76276 0.0
C1578 C 0.34478 0.43579 0.74227 0.0
H1579 H 0.2919 0.68066 0.82042 0.0
H1580 H 0.33167 0.72091 0.77102 0.0
H1581 H 0.35393 0.6851 0.75859 0.0
H1582 H 0.34752 0.65828 0.83847 0.0
H1583 H 0.32851 0.62796 0.8421 0.0
H1584 H 0.3141 0.65583 0.84584 0.0
H1585 H 0.27625 0.63065 0.81496 0.0
H1586 H 0.29059 0.60271 0.81109 0.0
H1587 H 0.28379 0.61596 0.78648 0.0
H1588 H 0.37261 0.64505 0.7519 0.0
H1589 H 0.38775 0.60495 0.75299 0.0
H1590 H 0.33822 0.59262 0.80864 0.0
C1591 C 0.30537 0.68214 0.80708 0.0
C1592 C 0.30973 0.7037 0.79663 0.0
C1593 C 0.32738 0.70444 0.77899 0.0
C1594 C 0.34033 0.68424 0.77189 0.0
C1595 C 0.33568 0.66346 0.78269 0.0
C1596 C 0.31876 0.66235 0.80002 0.0
C1597 C 0.31809 0.63842 0.80959 0.0
C1598 C 0.32763 0.64556 0.83553 0.0
C1599 C 0.29054 0.6209 0.80526 0.0
C1600 C 0.3374 0.62632 0.79503 0.0
C1601 C 0.34712 0.6409 0.77943 0.0
C1602 C 0.36515 0.63349 0.76406 0.0
C1603 C 0.37361 0.61068 0.76478 0.0
C1604 C 0.36426 0.59572 0.78094 0.0
C1605 C 0.34585 0.6037 0.79616 0.0
H1606 H 0.90691 0.51347 0.492 0.0
H1607 H 0.86614 0.57437 0.51761 0.0
H1608 H 0.83456 0.54418 0.53446 0.0
H1609 H 0.85043 0.4618 0.47685 0.0
H1610 H 0.86601 0.43848 0.48633 0.0
H1611 H 0.88538 0.4649 0.47635 0.0
H1612 H 0.91462 0.47817 0.51515 0.0
H1613 H 0.89522 0.45186 0.52531 0.0
H1614 H 0.8997 0.48433 0.54216 0.0
H1615 H 0.8062 0.50714 0.5464 0.0
H1616 H 0.78352 0.46565 0.55428 0.0
H1617 H 0.84424 0.42919 0.52344 0.0
C1618 C 0.89125 0.52032 0.50111 0.0
C1619 C 0.88876 0.54612 0.5035 0.0
C1620 C 0.8683 0.55464 0.51572 0.0
C1621 C 0.85033 0.53767 0.5253 0.0
C1622 C 0.85336 0.51237 0.52278 0.0
C1623 C 0.87338 0.50372 0.51115 0.0
C1624 C 0.87227 0.4756 0.51111 0.0
C1625 C 0.86828 0.45923 0.48618 0.0
C1626 C 0.89692 0.47231 0.52422 0.0
C1627 C 0.84824 0.46971 0.52421 0.0
C1628 C 0.8376 0.4912 0.53067 0.0
C1629 C 0.81451 0.49026 0.54173 0.0
C1630 C 0.80178 0.46665 0.5461 0.0
C1631 C 0.81237 0.44443 0.53973 0.0
C1632 C 0.83608 0.44607 0.52894 0.0
H1633 H 0.76494 0.9179 0.86616 0.0
H1634 H 0.78902 0.88022 0.80074 0.0
H1635 H 0.75687 0.89681 0.77963 0.0
H1636 H 0.69623 0.91096 0.84831 0.0
H1637 H 0.69508 0.94257 0.86467 0.0
H1638 H 0.71752 0.92501 0.87448 0.0
H1639 H 0.75631 0.96326 0.87469 0.0
H1640 H 0.73401 0.98095 0.86497 0.0
H1641 H 0.76149 0.97538 0.84865 0.0
H1642 H 0.72317 0.91976 0.76566 0.0
H1643 H 0.69372 0.94904 0.76038 0.0
H1644 H 0.69538 0.97425 0.83509 0.0
C1645 C 0.76369 0.9131 0.84738 0.0
C1646 C 0.77972 0.89766 0.83523 0.0
C1647 C 0.77677 0.89159 0.8106 0.0
C1648 C 0.7586 0.90106 0.79841 0.0
C1649 C 0.74359 0.91668 0.81104 0.0
C1650 C 0.74612 0.92274 0.83501 0.0
C1651 C 0.72934 0.94147 0.84464 0.0
C1652 C 0.70829 0.92926 0.85886 0.0
C1653 C 0.7463 0.96676 0.85908 0.0
C1654 C 0.71726 0.94544 0.82234 0.0
C1655 C 0.72527 0.93063 0.80311 0.0
C1656 C 0.71675 0.93138 0.78062 0.0
C1657 C 0.69999 0.948 0.77778 0.0
C1658 C 0.69236 0.96395 0.79732 0.0
C1659 C 0.70094 0.96234 0.81982 0.0
H1660 H 0.61377 0.55374 0.96158 0.0
H1661 H 0.63523 0.4794 0.95223 0.0
H1662 H 0.68164 0.50119 0.96339 0.0
H1663 H 0.66832 0.58526 0.93782 0.0
H1664 H 0.67177 0.61573 0.95805 0.0
H1665 H 0.64012 0.59429 0.95105 0.0
H1666 H 0.63565 0.59476 0.99467 0.0
H1667 H 0.66723 0.61637 0.00184 0.0
H1668 H 0.66096 0.58638 0.01133 0.0
H1669 H 0.726 0.53123 0.97239 0.0
H1670 H 0.76475 0.56719 0.98125 0.0
H1671 H 0.71388 0.62179 0.98522 0.0
C1672 C 0.62824 0.54207 0.9621 0.0
C1673 C 0.621 0.51492 0.95609 0.0
C1674 C 0.64038 0.50024 0.95705 0.0
C1675 C 0.66676 0.51243 0.96323 0.0
C1676 C 0.6733 0.53928 0.96858 0.0
C1677 C 0.65455 0.5539 0.96834 0.0
C1678 C 0.66672 0.58242 0.97428 0.0
C1679 C 0.66142 0.59516 0.95409 0.0
C1680 C 0.65707 0.59576 0.99688 0.0
C1681 C 0.69534 0.58157 0.97749 0.0
C1682 C 0.69875 0.55653 0.97412 0.0
C1683 C 0.72356 0.55092 0.97531 0.0
C1684 C 0.74544 0.57148 0.98024 0.0
C1685 C 0.74235 0.59731 0.98401 0.0
C1686 C 0.7169 0.60229 0.98262 0.0
H1687 H 0.24185 0.67675 0.25869 0.0
H1688 H 0.31118 0.64398 0.25041 0.0
H1689 H 0.2858 0.60288 0.25641 0.0
H1690 H 0.21367 0.64384 0.30108 0.0
H1691 H 0.18049 0.63834 0.28852 0.0
H1692 H 0.20436 0.6659 0.28492 0.0
H1693 H 0.19492 0.65155 0.24025 0.0
H1694 H 0.17088 0.62405 0.2437 0.0
H1695 H 0.1975 0.61958 0.22589 0.0
H1696 H 0.25343 0.56571 0.26449 0.0
H1697 H 0.21483 0.53331 0.26963 0.0
H1698 H 0.16558 0.58856 0.26818 0.0
C1699 C 0.25176 0.66095 0.25781 0.0
C1700 C 0.27879 0.66399 0.25442 0.0
C1701 C 0.29078 0.64261 0.25369 0.0
C1702 C 0.27647 0.61903 0.2569 0.0
C1703 C 0.25003 0.61687 0.26036 0.0
C1704 C 0.23766 0.63707 0.26043 0.0
C1705 C 0.2087 0.62924 0.26334 0.0
C1706 C 0.20139 0.64529 0.2858 0.0
C1707 C 0.19202 0.63122 0.24202 0.0
C1708 C 0.20678 0.60147 0.26496 0.0
C1709 C 0.23095 0.59487 0.26357 0.0
C1710 C 0.23435 0.57055 0.2654 0.0
C1711 C 0.21237 0.55235 0.26842 0.0
C1712 C 0.18729 0.55845 0.26915 0.0
C1713 C 0.18452 0.58335 0.26744 0.0
H1714 H 0.9686 0.55074 0.01778 0.0
H1715 H 0.93748 0.52967 0.08 0.0
H1716 H 0.90803 0.55993 0.08059 0.0
H1717 H 0.96313 0.61727 0.02964 0.0
H1718 H 0.9523 0.616 1.0 0.0
H1719 H 0.97355 0.59549 0.00627 0.0
H1720 H 0.94008 0.55524 0.98346 0.0
H1721 H 0.91892 0.57563 0.9769 0.0
H1722 H 0.90666 0.54974 0.99105 0.0
H1723 H 0.88061 0.59187 0.07349 0.0
H1724 H 0.85387 0.61745 0.05642 0.0
H1725 H 0.89946 0.61268 0.99658 0.0
C1726 C 0.95553 0.55208 0.03151 0.0
C1727 C 0.95572 0.53762 0.0489 0.0
C1728 C 0.93841 0.5408 0.06671 0.0
C1729 C 0.92144 0.55793 0.06716 0.0
C1730 C 0.92168 0.57156 0.04956 0.0
C1731 C 0.93802 0.56845 0.03187 0.0
C1732 C 0.93279 0.5832 0.01369 0.0
C1733 C 0.95688 0.60424 0.01233 0.0
C1734 C 0.92408 0.56486 0.98988 0.0
C1735 C 0.91061 0.59481 0.02368 0.0
C1736 C 0.9049 0.58848 0.04469 0.0
C1737 C 0.88494 0.59693 0.05706 0.0
C1738 C 0.86997 0.61156 0.04732 0.0
C1739 C 0.87468 0.61697 0.02524 0.0
C1740 C 0.89552 0.60882 0.01352 0.0
H1741 H 0.12055 0.01093 0.05436 0.0
H1742 H 0.12895 0.00987 0.12761 0.0
H1743 H 0.15706 0.97842 0.119 0.0
H1744 H 0.12152 0.94366 0.03122 0.0
H1745 H 0.14087 0.95061 0.00781 0.0
H1746 H 0.11927 0.97124 0.0193 0.0
H1747 H 0.15816 0.01073 0.02733 0.0
H1748 H 0.17984 0.99026 0.01581 0.0
H1749 H 0.18706 0.01011 0.04471 0.0
H1750 H 0.18608 0.94841 0.10281 0.0
H1751 H 0.21538 0.92398 0.0805 0.0
H1752 H 0.19022 0.94636 0.01822 0.0
C1753 C 0.12821 0.00413 0.06865 0.0
C1754 C 0.12201 0.0128 0.09167 0.0
C1755 C 0.13258 0.00314 0.10972 0.0
C1756 C 0.14881 0.98534 0.10505 0.0
C1757 C 0.15459 0.97739 0.08224 0.0
C1758 C 0.14473 0.98657 0.06435 0.0
C1759 C 0.15522 0.97612 0.04158 0.0
C1760 C 0.13288 0.95941 0.02394 0.0
C1761 C 0.17101 0.99812 0.03179 0.0
C1762 C 0.17279 0.95992 0.04954 0.0
C1763 C 0.1719 0.96067 0.073 0.0
C1764 C 0.18685 0.94761 0.0844 0.0
C1765 C 0.20342 0.93373 0.07156 0.0
C1766 C 0.20512 0.93318 0.04759 0.0
C1767 C 0.18932 0.94628 0.03648 0.0
loop_
_geom_bond_atom_site_label_1
_geom_bond_atom_site_label_2
_geom_bond_distance
_geom_bond_site_symmetry_2
_ccdc_geom_bond_type
H0 C1 0.949 . S
C1 H0 0.949 . S
C1 C2 1.395 . S
C1 C3 1.391 . S
C2 C1 1.395 . S
C2 C5 1.390 . S
C3 C1 1.391 . S
C3 C7 1.387 . S
C3 C8 1.491 . S
H4 C5 0.950 . S
C5 C2 1.390 . S
C5 H4 0.950 . S
C5 C6 1.378 . S
C6 C5 1.378 . S
C6 C7 1.409 . S
C7 C3 1.387 . S
C7 C6 1.409 . S
C7 H9 0.951 . S
C8 C3 1.491 . S
C8 C10 1.382 . S
C8 C12 1.404 . S
H9 C7 0.951 . S
C10 C8 1.382 . S
C10 C11 1.390 . S
C10 H15 0.949 . S
C11 C10 1.390 . S
C11 C16 1.399 . S
C12 C8 1.404 . S
C12 H13 0.950 . S
C12 C14 1.375 . S
H13 C12 0.950 . S
C14 C12 1.375 . S
C14 C16 1.382 . S
C14 H18 0.950 . S
H15 C10 0.949 . S
C16 C11 1.399 . S
C16 C14 1.382 . S
C16 H17 0.952 . S
H17 C16 0.952 . S
H18 C14 0.950 . S
H19 C20 0.949 . S
C20 H19 0.949 . S
C20 C21 1.395 . S
C20 C22 1.391 . S
C21 C20 1.395 . S
C21 C24 1.390 . S
C22 C20 1.391 . S
C22 C26 1.387 . S
C22 C27 1.491 . S
H23 C24 0.950 . S
C24 C21 1.390 . S
C24 H23 0.950 . S
C24 C25 1.378 . S
C25 C24 1.378 . S
C25 C26 1.409 . S
C26 C22 1.387 . S
C26 C25 1.409 . S
C26 H28 0.951 . S
C27 C22 1.491 . S
C27 C29 1.382 . S
C27 C31 1.404 . S
H28 C26 0.951 . S
C29 C27 1.382 . S
C29 C30 1.390 . S
C29 H34 0.949 . S
C30 C29 1.390 . S
C30 C35 1.399 . S
C31 C27 1.404 . S
C31 H32 0.950 . S
C31 C33 1.375 . S
H32 C31 0.950 . S
C33 C31 1.375 . S
C33 C35 1.382 . S
C33 H37 0.950 . S
H34 C29 0.949 . S
C35 C30 1.399 . S
C35 C33 1.382 . S
C35 H36 0.952 . S
H36 C35 0.952 . S
H37 C33 0.950 . S
H38 C39 0.949 . S
C39 H38 0.949 . S
C39 C40 1.395 . S
C39 C41 1.391 . S
C40 C39 1.395 . S
C40 C43 1.390 . S
C41 C39 1.391 . S
C41 C45 1.387 . S
C41 C46 1.491 . S
H42 C43 0.950 . S
C43 C40 1.390 . S
C43 H42 0.950 . S
C43 C44 1.378 . S
C44 C43 1.378 . S
C44 C45 1.409 . S
C45 C41 1.387 . S
C45 C44 1.409 . S
C45 H47 0.951 . S
C46 C41 1.491 . S
C46 C48 1.382 . S
C46 C50 1.404 1_554 S
H47 C45 0.951 . S
C48 C46 1.382 . S
C48 C49 1.390 1_554 S
C48 H53 0.949 . S
C49 C48 1.390 1_556 S
C49 C54 1.399 . S
C50 C46 1.404 1_556 S
C50 H51 0.950 . S
C50 C52 1.375 . S
H51 C50 0.950 . S
C52 C50 1.375 . S
C52 C54 1.382 . S
C52 H56 0.950 . S
H53 C48 0.949 . S
C54 C49 1.399 . S
C54 C52 1.382 . S
C54 H55 0.952 . S
H55 C54 0.952 . S
H56 C52 0.950 . S
H57 C58 0.949 . S
C58 H57 0.949 . S
C58 C59 1.395 . S
C58 C60 1.391 . S
C59 C58 1.395 . S
C59 C62 1.390 . S
C60 C58 1.391 . S
C60 C64 1.387 . S
C60 C65 1.491 . S
H61 C62 0.950 . S
C62 C59 1.390 . S
C62 H61 0.950 . S
C62 C63 1.378 . S
C63 C62 1.378 . S
C63 C64 1.409 . S
C64 C60 1.387 . S
C64 C63 1.409 . S
C64 H66 0.951 . S
C65 C60 1.491 . S
C65 C67 1.382 . S
C65 C69 1.404 . S
H66 C64 0.951 . S
C67 C65 1.382 . S
C67 C68 1.390 . S
C67 H72 0.949 . S
C68 C67 1.390 . S
C68 C73 1.399 . S
C69 C65 1.404 . S
C69 H70 0.950 . S
C69 C71 1.375 . S
H70 C69 0.950 . S
C71 C69 1.375 . S
C71 C73 1.382 . S
C71 H75 0.950 . S
H72 C67 0.949 . S
C73 C68 1.399 . S
C73 C71 1.382 . S
C73 H74 0.952 . S
H74 C73 0.952 . S
H75 C71 0.950 . S
H76 C77 0.949 . S
C77 H76 0.949 . S
C77 C78 1.395 . S
C77 C79 1.391 . S
C78 C77 1.395 . S
C78 C81 1.390 . S
C79 C77 1.391 . S
C79 C83 1.387 . S
C79 C84 1.491 . S
H80 C81 0.950 . S
C81 C78 1.390 . S
C81 H80 0.950 . S
C81 C82 1.378 . S
C82 C81 1.378 . S
C82 C83 1.409 . S
C83 C79 1.387 . S
C83 C82 1.409 . S
C83 H85 0.951 . S
C84 C79 1.491 . S
C84 C86 1.382 . S
C84 C88 1.404 . S
H85 C83 0.951 . S
C86 C84 1.382 . S
C86 C87 1.390 . S
C86 H91 0.949 . S
C87 C86 1.390 . S
C87 C92 1.399 . S
C88 C84 1.404 . S
C88 H89 0.950 . S
C88 C90 1.375 . S
H89 C88 0.950 . S
C90 C88 1.375 . S
C90 C92 1.382 . S
C90 H94 0.950 . S
H91 C86 0.949 . S
C92 C87 1.399 . S
C92 C90 1.382 . S
C92 H93 0.952 . S
H93 C92 0.952 . S
H94 C90 0.950 . S
H95 C96 0.949 . S
C96 H95 0.949 . S
C96 C97 1.395 . S
C96 C98 1.391 . S
C97 C96 1.395 . S
C97 C100 1.390 . S
C98 C96 1.391 . S
C98 C102 1.387 . S
C98 C103 1.491 . S
H99 C100 0.950 . S
C100 C97 1.390 . S
C100 H99 0.950 . S
C100 C101 1.378 . S
C101 C100 1.378 . S
C101 C102 1.409 . S
C102 C98 1.387 . S
C102 C101 1.409 . S
C102 H104 0.951 . S
C103 C98 1.491 . S
C103 C105 1.382 . S
C103 C107 1.404 . S
H104 C102 0.951 . S
C105 C103 1.382 . S
C105 C106 1.390 . S
C105 H110 0.949 . S
C106 C105 1.390 . S
C106 C111 1.399 . S
C107 C103 1.404 . S
C107 H108 0.950 . S
C107 C109 1.375 . S
H108 C107 0.950 . S
C109 C107 1.375 . S
C109 C111 1.382 . S
C109 H113 0.950 . S
H110 C105 0.949 . S
C111 C106 1.399 . S
C111 C109 1.382 . S
C111 H112 0.952 . S
H112 C111 0.952 . S
H113 C109 0.950 . S
H114 C115 0.949 . S
C115 H114 0.949 . S
C115 C116 1.395 . S
C115 C117 1.391 . S
C116 C115 1.395 . S
C116 C119 1.390 . S
C117 C115 1.391 . S
C117 C121 1.387 . S
C117 C122 1.491 . S
H118 C119 0.950 . S
C119 C116 1.390 . S
C119 H118 0.950 . S
C119 C120 1.378 . S
C120 C119 1.378 . S
C120 C121 1.409 . S
C121 C117 1.387 . S
C121 C120 1.409 . S
C121 H123 0.951 . S
C122 C117 1.491 . S
C122 C124 1.382 . S
C122 C126 1.404 . S
H123 C121 0.951 . S
C124 C122 1.382 . S
C124 C125 1.390 . S
C124 H129 0.949 . S
C125 C124 1.390 . S
C125 C130 1.399 . S
C126 C122 1.404 . S
C126 H127 0.950 . S
C126 C128 1.375 . S
H127 C126 0.950 . S
C128 C126 1.375 . S
C128 C130 1.382 . S
C128 H132 0.950 . S
H129 C124 0.949 . S
C130 C125 1.399 . S
C130 C128 1.382 . S
C130 H131 0.952 . S
H131 C130 0.952 . S
H132 C128 0.950 . S
H133 C134 0.949 . S
C134 H133 0.949 . S
C134 C135 1.395 . S
C134 C136 1.391 . S
C135 C134 1.395 . S
C135 C138 1.390 . S
C136 C134 1.391 . S
C136 C140 1.387 . S
C136 C141 1.491 . S
H137 C138 0.950 . S
C138 C135 1.390 . S
C138 H137 0.950 . S
C138 C139 1.378 . S
C139 C138 1.378 . S
C139 C140 1.409 . S
C140 C136 1.387 . S
C140 C139 1.409 . S
C140 H142 0.951 . S
C141 C136 1.491 . S
C141 C143 1.382 . S
C141 C145 1.404 . S
H142 C140 0.951 . S
C143 C141 1.382 . S
C143 C144 1.390 . S
C143 H148 0.949 . S
C144 C143 1.390 . S
C144 C149 1.399 . S
C145 C141 1.404 . S
C145 H146 0.950 . S
C145 C147 1.375 . S
H146 C145 0.950 . S
C147 C145 1.375 . S
C147 C149 1.382 . S
C147 H151 0.950 . S
H148 C143 0.949 . S
C149 C144 1.399 . S
C149 C147 1.382 . S
C149 H150 0.952 . S
H150 C149 0.952 . S
H151 C147 0.950 . S
H152 C153 0.949 . S
C153 H152 0.949 . S
C153 C154 1.395 . S
C153 C155 1.391 . S
C154 C153 1.395 . S
C154 C157 1.390 . S
C155 C153 1.391 . S
C155 C159 1.387 . S
C155 C160 1.491 . S
H156 C157 0.950 . S
C157 C154 1.390 . S
C157 H156 0.950 . S
C157 C158 1.378 . S
C158 C157 1.378 . S
C158 C159 1.409 . S
C159 C155 1.387 . S
C159 C158 1.409 . S
C159 H161 0.951 . S
C160 C155 1.491 . S
C160 C162 1.382 . S
C160 C164 1.404 . S
H161 C159 0.951 . S
C162 C160 1.382 . S
C162 C163 1.390 . S
C162 H167 0.949 . S
C163 C162 1.390 . S
C163 C168 1.399 . S
C164 C160 1.404 . S
C164 H165 0.950 . S
C164 C166 1.375 . S
H165 C164 0.950 . S
C166 C164 1.375 . S
C166 C168 1.382 . S
C166 H170 0.950 . S
H167 C162 0.949 . S
C168 C163 1.399 . S
C168 C166 1.382 . S
C168 H169 0.952 . S
H169 C168 0.952 . S
H170 C166 0.950 . S
H171 C172 0.949 . S
C172 H171 0.949 . S
C172 C173 1.395 . S
C172 C174 1.391 . S
C173 C172 1.395 . S
C173 C176 1.390 . S
C174 C172 1.391 . S
C174 C178 1.387 . S
C174 C179 1.491 . S
H175 C176 0.950 . S
C176 C173 1.390 . S
C176 H175 0.950 . S
C176 C177 1.378 . S
C177 C176 1.378 . S
C177 C178 1.409 . S
C178 C174 1.387 . S
C178 C177 1.409 . S
C178 H180 0.951 . S
C179 C174 1.491 . S
C179 C181 1.382 . S
C179 C183 1.404 . S
H180 C178 0.951 . S
C181 C179 1.382 . S
C181 C182 1.390 . S
C181 H186 0.949 . S
C182 C181 1.390 . S
C182 C187 1.399 . S
C183 C179 1.404 . S
C183 H184 0.950 . S
C183 C185 1.375 . S
H184 C183 0.950 . S
C185 C183 1.375 . S
C185 C187 1.382 . S
C185 H189 0.950 . S
H186 C181 0.949 . S
C187 C182 1.399 . S
C187 C185 1.382 . S
C187 H188 0.952 . S
H188 C187 0.952 . S
H189 C185 0.950 . S
H190 C191 0.949 . S
C191 H190 0.949 . S
C191 C192 1.395 . S
C191 C193 1.391 . S
C192 C191 1.395 . S
C192 C195 1.390 . S
C193 C191 1.391 . S
C193 C197 1.387 . S
C193 C198 1.491 . S
H194 C195 0.950 . S
C195 C192 1.390 . S
C195 H194 0.950 . S
C195 C196 1.378 . S
C196 C195 1.378 . S
C196 C197 1.409 . S
C197 C193 1.387 . S
C197 C196 1.409 . S
C197 H199 0.951 . S
C198 C193 1.491 . S
C198 C200 1.382 . S
C198 C202 1.404 . S
H199 C197 0.951 . S
C200 C198 1.382 . S
C200 C201 1.390 . S
C200 H205 0.949 . S
C201 C200 1.390 . S
C201 C206 1.399 . S
C202 C198 1.404 . S
C202 H203 0.950 . S
C202 C204 1.375 . S
H203 C202 0.950 . S
C204 C202 1.375 . S
C204 C206 1.382 . S
C204 H208 0.950 . S
H205 C200 0.949 . S
C206 C201 1.399 . S
C206 C204 1.382 . S
C206 H207 0.952 . S
H207 C206 0.952 . S
H208 C204 0.950 . S
H209 C210 0.949 . S
C210 H209 0.949 . S
C210 C211 1.395 . S
C210 C212 1.391 . S
C211 C210 1.395 . S
C211 C214 1.390 . S
C212 C210 1.391 . S
C212 C216 1.387 . S
C212 C217 1.491 . S
H213 C214 0.950 . S
C214 C211 1.390 . S
C214 H213 0.950 . S
C214 C215 1.378 . S
C215 C214 1.378 . S
C215 C216 1.409 . S
C216 C212 1.387 . S
C216 C215 1.409 . S
C216 H218 0.951 . S
C217 C212 1.491 . S
C217 C219 1.382 . S
C217 C221 1.404 . S
H218 C216 0.951 . S
C219 C217 1.382 . S
C219 C220 1.390 . S
C219 H224 0.949 . S
C220 C219 1.390 . S
C220 C225 1.399 . S
C221 C217 1.404 . S
C221 H222 0.950 . S
C221 C223 1.375 . S
H222 C221 0.950 . S
C223 C221 1.375 . S
C223 C225 1.382 . S
C223 H227 0.950 . S
H224 C219 0.949 . S
C225 C220 1.399 . S
C225 C223 1.382 . S
C225 H226 0.952 . S
H226 C225 0.952 . S
H227 C223 0.950 . S
H228 C229 0.949 . S
C229 H228 0.949 . S
C229 C230 1.395 . S
C229 C231 1.391 . S
C230 C229 1.395 . S
C230 C233 1.390 . S
C231 C229 1.391 . S
C231 C235 1.387 . S
C231 C236 1.491 . S
H232 C233 0.950 . S
C233 C230 1.390 . S
C233 H232 0.950 . S
C233 C234 1.378 . S
C234 C233 1.378 . S
C234 C235 1.409 . S
C235 C231 1.387 . S
C235 C234 1.409 . S
C235 H237 0.951 . S
C236 C231 1.491 . S
C236 C238 1.382 . S
C236 C240 1.404 . S
H237 C235 0.951 . S
C238 C236 1.382 . S
C238 C239 1.390 . S
C238 H243 0.949 . S
C239 C238 1.390 . S
C239 C244 1.399 . S
C240 C236 1.404 . S
C240 H241 0.950 . S
C240 C242 1.375 . S
H241 C240 0.950 . S
C242 C240 1.375 . S
C242 C244 1.382 . S
C242 H246 0.950 . S
H243 C238 0.949 . S
C244 C239 1.399 . S
C244 C242 1.382 . S
C244 H245 0.952 . S
H245 C244 0.952 . S
H246 C242 0.950 . S
H247 C248 0.949 . S
C248 H247 0.949 . S
C248 C249 1.395 . S
C248 C250 1.391 . S
C249 C248 1.395 . S
C249 C252 1.390 . S
C250 C248 1.391 . S
C250 C254 1.387 . S
C250 C255 1.491 . S
H251 C252 0.950 . S
C252 C249 1.390 . S
C252 H251 0.950 . S
C252 C253 1.378 . S
C253 C252 1.378 . S
C253 C254 1.409 . S
C254 C250 1.387 . S
C254 C253 1.409 . S
C254 H256 0.951 . S
C255 C250 1.491 . S
C255 C257 1.382 . S
C255 C259 1.404 . S
H256 C254 0.951 . S
C257 C255 1.382 . S
C257 C258 1.390 . S
C257 H262 0.949 . S
C258 C257 1.390 . S
C258 C263 1.399 . S
C259 C255 1.404 . S
C259 H260 0.950 . S
C259 C261 1.375 . S
H260 C259 0.950 . S
C261 C259 1.375 . S
C261 C263 1.382 . S
C261 H265 0.950 . S
H262 C257 0.949 . S
C263 C258 1.399 . S
C263 C261 1.382 . S
C263 H264 0.952 . S
H264 C263 0.952 . S
H265 C261 0.950 . S
H266 C267 0.949 . S
C267 H266 0.949 . S
C267 C268 1.395 . S
C267 C269 1.391 . S
C268 C267 1.395 . S
C268 C271 1.390 . S
C269 C267 1.391 . S
C269 C273 1.387 . S
C269 C274 1.491 . S
H270 C271 0.950 . S
C271 C268 1.390 . S
C271 H270 0.950 . S
C271 C272 1.378 . S
C272 C271 1.378 . S
C272 C273 1.409 . S
C273 C269 1.387 . S
C273 C272 1.409 . S
C273 H275 0.951 . S
C274 C269 1.491 . S
C274 C276 1.382 . S
C274 C278 1.404 . S
H275 C273 0.951 . S
C276 C274 1.382 . S
C276 C277 1.390 . S
C276 H281 0.949 . S
C277 C276 1.390 . S
C277 C282 1.399 . S
C278 C274 1.404 . S
C278 H279 0.950 . S
C278 C280 1.375 . S
H279 C278 0.950 . S
C280 C278 1.375 . S
C280 C282 1.382 . S
C280 H284 0.950 . S
H281 C276 0.949 . S
C282 C277 1.399 . S
C282 C280 1.382 . S
C282 H283 0.952 . S
H283 C282 0.952 . S
H284 C280 0.950 . S
H285 C286 0.949 . S
C286 H285 0.949 . S
C286 C287 1.395 . S
C286 C288 1.391 . S
C287 C286 1.395 . S
C287 C290 1.390 . S
C288 C286 1.391 . S
C288 C292 1.387 . S
C288 C293 1.491 . S
H289 C290 0.950 . S
C290 C287 1.390 . S
C290 H289 0.950 . S
C290 C291 1.378 . S
C291 C290 1.378 . S
C291 C292 1.409 . S
C292 C288 1.387 . S
C292 C291 1.409 . S
C292 H294 0.951 . S
C293 C288 1.491 . S
C293 C295 1.382 . S
C293 C297 1.404 . S
H294 C292 0.951 . S
C295 C293 1.382 . S
C295 C296 1.390 . S
C295 H300 0.949 . S
C296 C295 1.390 . S
C296 C301 1.399 . S
C297 C293 1.404 . S
C297 H298 0.950 . S
C297 C299 1.375 . S
H298 C297 0.950 . S
C299 C297 1.375 . S
C299 C301 1.382 . S
C299 H303 0.950 . S
H300 C295 0.949 . S
C301 C296 1.399 . S
C301 C299 1.382 . S
C301 H302 0.952 . S
H302 C301 0.952 . S
H303 C299 0.950 . S
O304 Cd305 2.223 . S
O304 C312 1.315 . S
Cd305 O304 2.223 . S
Cd305 O308 2.297 . S
Cd305 O309 2.439 . S
Cd305 O315 2.240 . S
Cd306 O307 2.240 . S
Cd306 O314 2.223 . S
Cd306 O316 2.297 . S
Cd306 O317 2.439 . S
O307 Cd306 2.240 . S
O307 C312 1.279 . S
O308 Cd305 2.297 . S
O308 C310 1.247 . S
O309 Cd305 2.439 . S
O309 C310 1.208 . S
C310 O308 1.247 . S
C310 O309 1.208 . S
C311 O316 1.247 . S
C311 O317 1.208 . S
C312 O304 1.315 . S
C312 O307 1.279 . S
C313 O314 1.315 . S
C313 O315 1.279 . S
O314 Cd306 2.223 . S
O314 C313 1.315 . S
O315 Cd305 2.240 . S
O315 C313 1.279 . S
O316 Cd306 2.297 . S
O316 C311 1.247 . S
O317 Cd306 2.439 . S
O317 C311 1.208 . S
O318 Cd319 2.223 . S
O318 C326 1.315 . S
Cd319 O318 2.223 . S
Cd319 O322 2.297 . S
Cd319 O323 2.439 . S
Cd319 O329 2.240 . S
Cd320 O321 2.240 . S
Cd320 O328 2.223 . S
Cd320 O330 2.297 . S
Cd320 O331 2.439 . S
O321 Cd320 2.240 . S
O321 C326 1.279 . S
O322 Cd319 2.297 . S
O322 C324 1.247 . S
O323 Cd319 2.439 . S
O323 C324 1.208 . S
C324 O322 1.247 . S
C324 O323 1.208 . S
C325 O330 1.247 . S
C325 O331 1.208 . S
C326 O318 1.315 . S
C326 O321 1.279 . S
C327 O328 1.315 . S
C327 O329 1.279 . S
O328 Cd320 2.223 . S
O328 C327 1.315 . S
O329 Cd319 2.240 . S
O329 C327 1.279 . S
O330 Cd320 2.297 . S
O330 C325 1.247 . S
O331 Cd320 2.439 . S
O331 C325 1.208 . S
O332 Cd333 2.223 1_556 S
O332 C340 1.315 . S
Cd333 O332 2.223 1_554 S
Cd333 O336 2.297 . S
Cd333 O337 2.439 . S
Cd333 O343 2.236 1_554 S
Cd334 O335 2.240 . S
Cd334 O342 2.223 . S
Cd334 O344 2.297 . S
Cd334 O345 2.439 1_556 S
O335 Cd334 2.240 . S
O335 C340 1.279 . S
O336 Cd333 2.297 . S
O336 C338 1.247 . S
O337 Cd333 2.439 . S
O337 C338 1.208 . S
C338 O336 1.247 . S
C338 O337 1.208 . S
C339 O344 1.247 1_554 S
C339 O345 1.208 . S
C340 O332 1.315 . S
C340 O335 1.279 . S
C341 O342 1.315 . S
C341 O343 1.296 . S
O342 Cd334 2.223 . S
O342 C341 1.315 . S
O343 Cd333 2.236 1_556 S
O343 C341 1.296 . S
O344 Cd334 2.297 . S
O344 C339 1.247 1_556 S
O345 Cd334 2.439 1_554 S
O345 C339 1.208 . S
O346 Cd347 2.223 1_455 S
O346 C354 1.315 . S
Cd347 O346 2.223 1_655 S
Cd347 O350 2.297 1_655 S
Cd347 O351 2.439 1_655 S
Cd347 O357 2.240 . S
Cd348 O349 2.279 . S
Cd348 O356 2.223 . S
Cd348 O358 2.297 . S
Cd348 O359 2.439 . S
O349 Cd348 2.279 . S
O349 C354 1.261 1_655 S
O350 Cd347 2.297 1_455 S
O350 C352 1.247 . S
O351 Cd347 2.439 1_455 S
O351 C352 1.208 . S
C352 O350 1.247 . S
C352 O351 1.208 . S
C353 O358 1.247 . S
C353 O359 1.208 . S
C354 O346 1.315 . S
C354 O349 1.261 1_455 S
C355 O356 1.315 . S
C355 O357 1.279 . S
O356 Cd348 2.223 . S
O356 C355 1.315 . S
O357 Cd347 2.240 . S
O357 C355 1.279 . S
O358 Cd348 2.297 . S
O358 C353 1.247 . S
O359 Cd348 2.439 . S
O359 C353 1.208 . S
O360 Cd361 2.223 . S
O360 C368 1.315 . S
Cd361 O360 2.223 . S
Cd361 O364 2.297 . S
Cd361 O365 2.439 . S
Cd361 O371 2.240 . S
Cd362 O363 2.240 . S
Cd362 O370 2.223 . S
Cd362 O372 2.297 . S
Cd362 O373 2.439 . S
O363 Cd362 2.240 . S
O363 C368 1.279 . S
O364 Cd361 2.297 . S
O364 C366 1.247 . S
O365 Cd361 2.439 . S
O365 C366 1.208 . S
C366 O364 1.247 . S
C366 O365 1.208 . S
C367 O372 1.247 . S
C367 O373 1.208 . S
C368 O360 1.315 . S
C368 O363 1.279 . S
C369 O370 1.315 . S
C369 O371 1.279 . S
O370 Cd362 2.223 . S
O370 C369 1.315 . S
O371 Cd361 2.240 . S
O371 C369 1.279 . S
O372 Cd362 2.297 . S
O372 C367 1.247 . S
O373 Cd362 2.439 . S
O373 C367 1.208 . S
O374 Cd375 2.223 . S
O374 C382 1.315 . S
Cd375 O374 2.223 . S
Cd375 O378 2.297 . S
Cd375 O379 2.439 . S
Cd375 O385 2.240 . S
Cd376 O377 2.240 . S
Cd376 O384 2.223 . S
Cd376 O386 2.297 . S
Cd376 O387 2.439 . S
O377 Cd376 2.240 . S
O377 C382 1.279 . S
O378 Cd375 2.297 . S
O378 C380 1.247 . S
O379 Cd375 2.439 . S
O379 C380 1.208 . S
C380 O378 1.247 . S
C380 O379 1.208 . S
C381 O386 1.247 . S
C381 O387 1.208 . S
C382 O374 1.315 . S
C382 O377 1.279 . S
C383 O384 1.315 . S
C383 O385 1.279 . S
O384 Cd376 2.223 . S
O384 C383 1.315 . S
O385 Cd375 2.240 . S
O385 C383 1.279 . S
O386 Cd376 2.297 . S
O386 C381 1.247 . S
O387 Cd376 2.439 . S
O387 C381 1.208 . S
O388 Cd389 2.223 . S
O388 C396 1.315 . S
Cd389 O388 2.223 . S
Cd389 O392 2.297 . S
Cd389 O393 2.439 . S
Cd389 O399 2.240 . S
Cd390 O391 2.240 . S
Cd390 O398 2.223 . S
Cd390 O400 2.297 . S
Cd390 O401 2.439 . S
O391 Cd390 2.240 . S
O391 C396 1.279 . S
O392 Cd389 2.297 . S
O392 C394 1.247 . S
O393 Cd389 2.439 . S
O393 C394 1.208 . S
C394 O392 1.247 . S
C394 O393 1.208 . S
C395 O400 1.247 . S
C395 O401 1.208 . S
C396 O388 1.315 . S
C396 O391 1.279 . S
C397 O398 1.315 . S
C397 O399 1.279 . S
O398 Cd390 2.223 . S
O398 C397 1.315 . S
O399 Cd389 2.240 . S
O399 C397 1.279 . S
O400 Cd390 2.297 . S
O400 C395 1.247 . S
O401 Cd390 2.439 . S
O401 C395 1.208 . S
O402 Cd403 2.223 1_545 S
O402 C410 1.315 . S
Cd403 O402 2.223 1_565 S
Cd403 O406 2.297 . S
Cd403 O407 2.439 . S
Cd403 O413 2.240 1_565 S
Cd404 O405 2.240 . S
Cd404 O412 2.223 . S
Cd404 O414 2.293 1_545 S
Cd404 O415 2.439 1_545 S
O405 Cd404 2.240 . S
O405 C410 1.279 . S
O406 Cd403 2.297 . S
O406 C408 1.247 . S
O407 Cd403 2.439 . S
O407 C408 1.208 . S
C408 O406 1.247 . S
C408 O407 1.208 . S
C409 O414 1.273 . S
C409 O415 1.208 . S
C410 O402 1.315 . S
C410 O405 1.279 . S
C411 O412 1.315 . S
C411 O413 1.279 . S
O412 Cd404 2.223 . S
O412 C411 1.315 . S
O413 Cd403 2.240 1_545 S
O413 C411 1.279 . S
O414 Cd404 2.293 1_565 S
O414 C409 1.273 . S
O415 Cd404 2.439 1_565 S
O415 C409 1.208 . S
O416 Cd417 2.223 . S
O416 C424 1.315 . S
Cd417 O416 2.223 . S
Cd417 O420 2.297 1_655 S
Cd417 O421 2.439 1_655 S
Cd417 O427 2.240 . S
Cd418 O419 2.240 . S
Cd418 O426 2.223 1_455 S
Cd418 O428 2.297 . S
Cd418 O429 2.439 . S
O419 Cd418 2.240 . S
O419 C424 1.279 1_455 S
O420 Cd417 2.297 1_455 S
O420 C422 1.247 . S
O421 Cd417 2.439 1_455 S
O421 C422 1.208 . S
C422 O420 1.247 . S
C422 O421 1.208 . S
C423 O428 1.247 . S
C423 O429 1.208 . S
C424 O416 1.315 . S
C424 O419 1.279 1_655 S
C425 O426 1.315 . S
C425 O427 1.279 . S
O426 Cd418 2.223 1_655 S
O426 C425 1.315 . S
O427 Cd417 2.240 . S
O427 C425 1.279 . S
O428 Cd418 2.297 . S
O428 C423 1.247 . S
O429 Cd418 2.439 . S
O429 C423 1.208 . S
O430 Cd431 2.223 . S
O430 C438 1.315 . S
Cd431 O430 2.223 . S
Cd431 O434 2.297 . S
Cd431 O435 2.439 . S
Cd431 O441 2.240 . S
Cd432 O433 2.240 . S
Cd432 O440 2.223 . S
Cd432 O442 2.297 . S
Cd432 O443 2.439 . S
O433 Cd432 2.240 . S
O433 C438 1.279 . S
O434 Cd431 2.297 . S
O434 C436 1.247 . S
O435 Cd431 2.439 . S
O435 C436 1.208 . S
C436 O434 1.247 . S
C436 O435 1.208 . S
C437 O442 1.247 . S
C437 O443 1.208 . S
C438 O430 1.315 . S
C438 O433 1.279 . S
C439 O440 1.315 . S
C439 O441 1.279 . S
O440 Cd432 2.223 . S
O440 C439 1.315 . S
O441 Cd431 2.240 . S
O441 C439 1.279 . S
O442 Cd432 2.297 . S
O442 C437 1.247 . S
O443 Cd432 2.439 . S
O443 C437 1.208 . S
O444 Cd445 2.223 1_655 S
O444 C452 1.315 . S
Cd445 O444 2.223 1_455 S
Cd445 O448 2.297 . S
Cd445 O449 2.439 . S
Cd445 O455 2.240 . S
Cd446 O447 2.240 . S
Cd446 O454 2.223 1_455 S
Cd446 O456 2.297 . S
Cd446 O457 2.439 . S
O447 Cd446 2.240 . S
O447 C452 1.279 1_455 S
O448 Cd445 2.297 . S
O448 C450 1.247 . S
O449 Cd445 2.439 . S
O449 C450 1.208 . S
C450 O448 1.247 . S
C450 O449 1.208 . S
C451 O456 1.247 . S
C451 O457 1.208 . S
C452 O444 1.315 . S
C452 O447 1.279 1_655 S
C453 O454 1.315 . S
C453 O455 1.279 1_655 S
O454 Cd446 2.223 1_655 S
O454 C453 1.315 . S
O455 Cd445 2.240 . S
O455 C453 1.279 1_455 S
O456 Cd446 2.297 . S
O456 C451 1.247 . S
O457 Cd446 2.439 . S
O457 C451 1.208 . S
O458 Cd459 2.223 . S
O458 C466 1.315 . S
Cd459 O458 2.223 . S
Cd459 O462 2.297 . S
Cd459 O463 2.439 . S
Cd459 O469 2.240 . S
Cd460 O461 2.240 . S
Cd460 O468 2.223 . S
Cd460 O470 2.297 . S
Cd460 O471 2.439 . S
O461 Cd460 2.240 . S
O461 C466 1.279 . S
O462 Cd459 2.297 . S
O462 C464 1.247 . S
O463 Cd459 2.439 . S
O463 C464 1.208 . S
C464 O462 1.247 . S
C464 O463 1.208 . S
C465 O470 1.247 . S
C465 O471 1.208 . S
C466 O458 1.315 . S
C466 O461 1.279 . S
C467 O468 1.315 . S
C467 O469 1.279 . S
O468 Cd460 2.223 . S
O468 C467 1.315 . S
O469 Cd459 2.240 . S
O469 C467 1.279 . S
O470 Cd460 2.297 . S
O470 C465 1.247 . S
O471 Cd460 2.439 . S
O471 C465 1.208 . S
H472 C484 0.930 . S
H473 C486 0.930 . S
H474 C487 0.930 . S
H475 C491 0.959 . S
H476 C491 0.959 . S
H477 C491 0.961 . S
H478 C492 0.960 . S
H479 C492 0.961 . S
H480 C492 0.959 . S
H481 C495 0.929 . S
H482 C496 0.931 . S
H483 C498 0.930 . S
C484 H472 0.930 . S
C484 C485 1.399 . S
C484 C489 1.399 . S
C485 C484 1.399 . S
C485 C486 1.376 . S
C486 H473 0.930 . S
C486 C485 1.376 . S
C486 C487 1.388 . S
C487 H474 0.930 . S
C487 C486 1.388 . S
C487 C488 1.390 . S
C488 C487 1.390 . S
C488 C489 1.394 . S
C488 C494 1.465 . S
C489 C484 1.399 . S
C489 C488 1.394 . S
C489 C490 1.516 . S
C490 C489 1.516 . S
C490 C491 1.502 . S
C490 C492 1.561 . S
C490 C493 1.526 . S
C491 H475 0.959 . S
C491 H476 0.959 . S
C491 H477 0.961 . S
C491 C490 1.502 . S
C492 H478 0.960 . S
C492 H479 0.961 . S
C492 H480 0.959 . S
C492 C490 1.561 . S
C493 C490 1.526 . S
C493 C494 1.396 . S
C493 C498 1.390 1_556 S
C494 C488 1.465 . S
C494 C493 1.396 . S
C494 C495 1.399 . S
C495 H481 0.929 . S
C495 C494 1.399 . S
C495 C496 1.385 1_556 S
C496 H482 0.931 . S
C496 C495 1.385 1_554 S
C496 C497 1.389 . S
C497 C496 1.389 . S
C497 C498 1.387 . S
C498 H483 0.930 . S
C498 C493 1.390 1_554 S
C498 C497 1.387 . S
H499 C511 0.930 . S
H500 C513 0.930 . S
H501 C514 0.930 . S
H502 C518 0.959 . S
H503 C518 0.959 . S
H504 C518 0.961 1_655 S
H505 C519 0.960 . S
H506 C519 0.961 . S
H507 C519 0.959 . S
H508 C522 0.929 . S
H509 C523 0.931 . S
H510 C525 0.930 . S
C511 H499 0.930 . S
C511 C512 1.399 . S
C511 C516 1.399 . S
C512 C511 1.399 . S
C512 C513 1.376 . S
C513 H500 0.930 . S
C513 C512 1.376 . S
C513 C514 1.388 1_655 S
C514 H501 0.930 . S
C514 C513 1.388 1_455 S
C514 C515 1.390 . S
C515 C514 1.390 . S
C515 C516 1.394 1_455 S
C515 C521 1.465 . S
C516 C511 1.399 . S
C516 C515 1.394 1_655 S
C516 C517 1.516 1_655 S
C517 C516 1.516 1_455 S
C517 C518 1.502 . S
C517 C519 1.561 1_455 S
C517 C520 1.526 . S
C518 H502 0.959 . S
C518 H503 0.959 . S
C518 H504 0.961 1_455 S
C518 C517 1.502 . S
C519 H505 0.960 . S
C519 H506 0.961 . S
C519 H507 0.959 . S
C519 C517 1.561 1_655 S
C520 C517 1.526 . S
C520 C521 1.396 . S
C520 C525 1.390 . S
C521 C515 1.465 . S
C521 C520 1.396 . S
C521 C522 1.399 . S
C522 H508 0.929 . S
C522 C521 1.399 . S
C522 C523 1.385 . S
C523 H509 0.931 . S
C523 C522 1.385 . S
C523 C524 1.389 . S
C524 C523 1.389 . S
C524 C525 1.387 . S
C525 H510 0.930 . S
C525 C520 1.390 . S
C525 C524 1.387 . S
H526 C538 0.930 . S
H527 C540 0.930 . S
H528 C541 0.930 . S
H529 C545 0.959 . S
H530 C545 0.959 . S
H531 C545 0.961 . S
H532 C546 0.960 . S
H533 C546 0.961 . S
H534 C546 0.959 . S
H535 C549 0.929 . S
H536 C550 0.931 . S
H537 C552 0.930 . S
C538 H526 0.930 . S
C538 C539 1.399 . S
C538 C543 1.399 . S
C539 C538 1.399 . S
C539 C540 1.376 . S
C540 H527 0.930 . S
C540 C539 1.376 . S
C540 C541 1.388 . S
C541 H528 0.930 . S
C541 C540 1.388 . S
C541 C542 1.390 . S
C542 C541 1.390 . S
C542 C543 1.394 . S
C542 C548 1.465 . S
C543 C538 1.399 . S
C543 C542 1.394 . S
C543 C544 1.516 . S
C544 C543 1.516 . S
C544 C545 1.502 . S
C544 C546 1.561 . S
C544 C547 1.526 . S
C545 H529 0.959 . S
C545 H530 0.959 . S
C545 H531 0.961 . S
C545 C544 1.502 . S
C546 H532 0.960 . S
C546 H533 0.961 . S
C546 H534 0.959 . S
C546 C544 1.561 . S
C547 C544 1.526 . S
C547 C548 1.396 . S
C547 C552 1.390 . S
C548 C542 1.465 . S
C548 C547 1.396 . S
C548 C549 1.399 . S
C549 H535 0.929 . S
C549 C548 1.399 . S
C549 C550 1.385 . S
C550 H536 0.931 . S
C550 C549 1.385 . S
C550 C551 1.389 . S
C551 C550 1.389 . S
C551 C552 1.387 . S
C552 H537 0.930 . S
C552 C547 1.390 . S
C552 C551 1.387 . S
H553 C565 0.930 . S
H554 C567 0.930 . S
H555 C568 0.930 . S
H556 C572 0.959 . S
H557 C572 0.959 . S
H558 C572 0.961 . S
H559 C573 0.976 . S
H560 C573 0.961 . S
H561 C573 0.959 1_565 S
H562 C576 0.929 1_565 S
H563 C577 0.931 1_655 S
H564 C579 0.930 . S
C565 H553 0.930 . S
C565 C566 1.399 . S
C565 C570 1.404 . S
C566 C565 1.399 . S
C566 C567 1.376 . S
C567 H554 0.930 . S
C567 C566 1.376 . S
C567 C568 1.388 . S
C568 H555 0.930 . S
C568 C567 1.388 . S
C568 C569 1.390 . S
C569 C568 1.390 . S
C569 C570 1.396 . S
C569 C575 1.465 1_565 S
C570 C565 1.404 . S
C570 C569 1.396 . S
C570 C571 1.509 1_565 S
C571 C570 1.509 1_545 S
C571 C572 1.502 . S
C571 C573 1.561 . S
C571 C574 1.526 . S
C572 H556 0.959 . S
C572 H557 0.959 . S
C572 H558 0.961 . S
C572 C571 1.502 . S
C573 H559 0.976 . S
C573 H560 0.961 . S
C573 H561 0.959 1_545 S
C573 C571 1.561 . S
C574 C571 1.526 . S
C574 C575 1.396 . S
C574 C579 1.390 . S
C575 C569 1.465 1_545 S
C575 C574 1.396 . S
C575 C576 1.399 . S
C576 H562 0.929 1_545 S
C576 C575 1.399 . S
C576 C577 1.385 . S
C577 H563 0.931 1_455 S
C577 C576 1.385 . S
C577 C578 1.389 . S
C578 C577 1.389 . S
C578 C579 1.387 . S
C579 H564 0.930 . S
C579 C574 1.390 . S
C579 C578 1.387 . S
H580 C592 0.930 . S
H581 C594 0.930 . S
H582 C595 0.930 . S
H583 C599 0.959 . S
H584 C599 0.959 . S
H585 C599 0.961 . S
H586 C600 0.960 . S
H587 C600 0.961 . S
H588 C600 0.959 . S
H589 C603 0.929 . S
H590 C604 0.931 . S
H591 C606 0.930 . S
C592 H580 0.930 . S
C592 C593 1.399 . S
C592 C597 1.399 . S
C593 C592 1.399 . S
C593 C594 1.376 . S
C594 H581 0.930 . S
C594 C593 1.376 . S
C594 C595 1.388 . S
C595 H582 0.930 . S
C595 C594 1.388 . S
C595 C596 1.390 . S
C596 C595 1.390 . S
C596 C597 1.394 . S
C596 C602 1.465 . S
C597 C592 1.399 . S
C597 C596 1.394 . S
C597 C598 1.516 . S
C598 C597 1.516 . S
C598 C599 1.502 . S
C598 C600 1.561 . S
C598 C601 1.526 . S
C599 H583 0.959 . S
C599 H584 0.959 . S
C599 H585 0.961 . S
C599 C598 1.502 . S
C600 H586 0.960 . S
C600 H587 0.961 . S
C600 H588 0.959 . S
C600 C598 1.561 . S
C601 C598 1.526 . S
C601 C602 1.396 . S
C601 C606 1.390 . S
C602 C596 1.465 . S
C602 C601 1.396 . S
C602 C603 1.399 . S
C603 H589 0.929 . S
C603 C602 1.399 . S
C603 C604 1.385 . S
C604 H590 0.931 . S
C604 C603 1.385 . S
C604 C605 1.389 . S
C605 C604 1.389 . S
C605 C606 1.387 . S
C606 H591 0.930 . S
C606 C601 1.390 . S
C606 C605 1.387 . S
H607 C619 0.930 . S
H608 C621 0.930 . S
H609 C622 0.930 . S
H610 C626 0.959 . S
H611 C626 0.959 . S
H612 C626 0.961 . S
H613 C627 0.960 . S
H614 C627 0.961 . S
H615 C627 0.959 . S
H616 C630 0.929 . S
H617 C631 0.931 . S
H618 C633 0.930 . S
C619 H607 0.930 . S
C619 C620 1.399 . S
C619 C624 1.399 . S
C620 C619 1.399 . S
C620 C621 1.376 . S
C621 H608 0.930 . S
C621 C620 1.376 . S
C621 C622 1.388 . S
C622 H609 0.930 . S
C622 C621 1.388 . S
C622 C623 1.390 . S
C623 C622 1.390 . S
C623 C624 1.394 . S
C623 C629 1.465 . S
C624 C619 1.399 . S
C624 C623 1.394 . S
C624 C625 1.516 . S
C625 C624 1.516 . S
C625 C626 1.502 . S
C625 C627 1.561 . S
C625 C628 1.526 . S
C626 H610 0.959 . S
C626 H611 0.959 . S
C626 H612 0.961 . S
C626 C625 1.502 . S
C627 H613 0.960 . S
C627 H614 0.961 . S
C627 H615 0.959 . S
C627 C625 1.561 . S
C628 C625 1.526 . S
C628 C629 1.396 . S
C628 C633 1.390 . S
C629 C623 1.465 . S
C629 C628 1.396 . S
C629 C630 1.399 . S
C630 H616 0.929 . S
C630 C629 1.399 . S
C630 C631 1.385 . S
C631 H617 0.931 . S
C631 C630 1.385 . S
C631 C632 1.389 . S
C632 C631 1.389 . S
C632 C633 1.387 . S
C633 H618 0.930 . S
C633 C628 1.390 . S
C633 C632 1.387 . S
H634 C646 0.930 . S
H635 C648 0.930 . S
H636 C649 0.930 . S
H637 C653 0.959 . S
H638 C653 0.959 . S
H639 C653 0.961 . S
H640 C654 0.960 . S
H641 C654 0.961 . S
H642 C654 0.959 . S
H643 C657 0.929 . S
H644 C658 0.931 . S
H645 C660 0.930 . S
C646 H634 0.930 . S
C646 C647 1.399 . S
C646 C651 1.399 . S
C647 C646 1.399 . S
C647 C648 1.376 . S
C648 H635 0.930 . S
C648 C647 1.376 . S
C648 C649 1.388 . S
C649 H636 0.930 . S
C649 C648 1.388 . S
C649 C650 1.390 . S
C650 C649 1.390 . S
C650 C651 1.394 . S
C650 C656 1.465 . S
C651 C646 1.399 . S
C651 C650 1.394 . S
C651 C652 1.516 . S
C652 C651 1.516 . S
C652 C653 1.502 . S
C652 C654 1.561 . S
C652 C655 1.526 . S
C653 H637 0.959 . S
C653 H638 0.959 . S
C653 H639 0.961 . S
C653 C652 1.502 . S
C654 H640 0.960 . S
C654 H641 0.961 . S
C654 H642 0.959 . S
C654 C652 1.561 . S
C655 C652 1.526 . S
C655 C656 1.396 . S
C655 C660 1.390 . S
C656 C650 1.465 . S
C656 C655 1.396 . S
C656 C657 1.399 . S
C657 H643 0.929 . S
C657 C656 1.399 . S
C657 C658 1.385 . S
C658 H644 0.931 . S
C658 C657 1.385 . S
C658 C659 1.389 . S
C659 C658 1.389 . S
C659 C660 1.387 . S
C660 H645 0.930 . S
C660 C655 1.390 . S
C660 C659 1.387 . S
H661 C673 0.930 . S
H662 C675 0.930 . S
H663 C676 0.930 . S
H664 C680 0.959 . S
H665 C680 0.956 1_545 S
H666 C680 0.961 . S
H667 C681 0.960 . S
H668 C681 0.961 . S
H669 C681 0.959 . S
H670 C684 0.929 . S
H671 C685 0.931 . S
H672 C687 0.930 . S
C673 H661 0.930 . S
C673 C674 1.399 . S
C673 C678 1.399 . S
C674 C673 1.399 . S
C674 C675 1.376 . S
C675 H662 0.930 . S
C675 C674 1.376 . S
C675 C676 1.388 . S
C676 H663 0.930 . S
C676 C675 1.388 . S
C676 C677 1.390 . S
C677 C676 1.390 . S
C677 C678 1.394 . S
C677 C683 1.465 . S
C678 C673 1.399 . S
C678 C677 1.394 . S
C678 C679 1.516 . S
C679 C678 1.516 . S
C679 C680 1.502 . S
C679 C681 1.561 . S
C679 C682 1.526 . S
C680 H664 0.959 . S
C680 H665 0.956 1_565 S
C680 H666 0.961 . S
C680 C679 1.502 . S
C681 H667 0.960 . S
C681 H668 0.961 . S
C681 H669 0.959 . S
C681 C679 1.561 . S
C682 C679 1.526 . S
C682 C683 1.396 . S
C682 C687 1.390 . S
C683 C677 1.465 . S
C683 C682 1.396 . S
C683 C684 1.399 . S
C684 H670 0.929 . S
C684 C683 1.399 . S
C684 C685 1.385 . S
C685 H671 0.931 . S
C685 C684 1.385 . S
C685 C686 1.389 . S
C686 C685 1.389 . S
C686 C687 1.387 . S
C687 H672 0.930 . S
C687 C682 1.390 . S
C687 C686 1.387 . S
H688 C700 0.930 . S
H689 C702 0.930 . S
H690 C703 0.930 . S
H691 C707 0.959 . S
H692 C707 0.959 . S
H693 C707 0.961 . S
H694 C708 0.960 . S
H695 C708 0.961 . S
H696 C708 0.959 . S
H697 C711 0.929 . S
H698 C712 0.931 . S
H699 C714 0.930 . S
C700 H688 0.930 . S
C700 C701 1.399 . S
C700 C705 1.399 . S
C701 C700 1.399 . S
C701 C702 1.376 . S
C702 H689 0.930 . S
C702 C701 1.376 . S
C702 C703 1.388 . S
C703 H690 0.930 . S
C703 C702 1.388 . S
C703 C704 1.390 . S
C704 C703 1.390 . S
C704 C705 1.394 . S
C704 C710 1.465 . S
C705 C700 1.399 . S
C705 C704 1.394 . S
C705 C706 1.516 . S
C706 C705 1.516 . S
C706 C707 1.502 . S
C706 C708 1.561 . S
C706 C709 1.526 . S
C707 H691 0.959 . S
C707 H692 0.959 . S
C707 H693 0.961 . S
C707 C706 1.502 . S
C708 H694 0.960 . S
C708 H695 0.961 . S
C708 H696 0.959 . S
C708 C706 1.561 . S
C709 C706 1.526 . S
C709 C710 1.396 . S
C709 C714 1.390 . S
C710 C704 1.465 . S
C710 C709 1.396 . S
C710 C711 1.399 . S
C711 H697 0.929 . S
C711 C710 1.399 . S
C711 C712 1.385 . S
C712 H698 0.931 . S
C712 C711 1.385 . S
C712 C713 1.389 . S
C713 C712 1.389 . S
C713 C714 1.387 . S
C714 H699 0.930 . S
C714 C709 1.390 . S
C714 C713 1.387 . S
H715 C727 0.930 . S
H716 C729 0.930 . S
H717 C730 0.930 . S
H718 C734 0.959 . S
H719 C734 0.959 . S
H720 C734 0.961 . S
H721 C735 0.960 . S
H722 C735 0.961 . S
H723 C735 0.959 . S
H724 C738 0.929 . S
H725 C739 0.931 . S
H726 C741 0.930 . S
C727 H715 0.930 . S
C727 C728 1.399 . S
C727 C732 1.399 . S
C728 C727 1.399 . S
C728 C729 1.376 . S
C729 H716 0.930 . S
C729 C728 1.376 . S
C729 C730 1.388 . S
C730 H717 0.930 . S
C730 C729 1.388 . S
C730 C731 1.390 . S
C731 C730 1.390 . S
C731 C732 1.394 . S
C731 C737 1.465 . S
C732 C727 1.399 . S
C732 C731 1.394 . S
C732 C733 1.516 . S
C733 C732 1.516 . S
C733 C734 1.502 . S
C733 C735 1.561 . S
C733 C736 1.526 . S
C734 H718 0.959 . S
C734 H719 0.959 . S
C734 H720 0.961 . S
C734 C733 1.502 . S
C735 H721 0.960 . S
C735 H722 0.961 . S
C735 H723 0.959 . S
C735 C733 1.561 . S
C736 C733 1.526 . S
C736 C737 1.396 . S
C736 C741 1.390 . S
C737 C731 1.465 . S
C737 C736 1.396 . S
C737 C738 1.399 . S
C738 H724 0.929 . S
C738 C737 1.399 . S
C738 C739 1.385 . S
C739 H725 0.931 . S
C739 C738 1.385 . S
C739 C740 1.389 . S
C740 C739 1.389 . S
C740 C741 1.387 . S
C741 H726 0.930 . S
C741 C736 1.390 . S
C741 C740 1.387 . S
H742 C754 0.930 . S
H743 C756 0.930 . S
H744 C757 0.930 . S
H745 C761 0.959 . S
H746 C761 0.959 . S
H747 C761 0.961 . S
H748 C762 0.960 . S
H749 C762 0.961 . S
H750 C762 0.959 . S
H751 C765 0.929 . S
H752 C766 0.931 . S
H753 C768 0.930 . S
C754 H742 0.930 . S
C754 C755 1.399 . S
C754 C759 1.399 . S
C755 C754 1.399 . S
C755 C756 1.376 . S
C756 H743 0.930 . S
C756 C755 1.376 . S
C756 C757 1.388 . S
C757 H744 0.930 . S
C757 C756 1.388 . S
C757 C758 1.390 . S
C758 C757 1.390 . S
C758 C759 1.394 . S
C758 C764 1.465 . S
C759 C754 1.399 . S
C759 C758 1.394 . S
C759 C760 1.516 . S
C760 C759 1.516 . S
C760 C761 1.502 . S
C760 C762 1.561 . S
C760 C763 1.526 . S
C761 H745 0.959 . S
C761 H746 0.959 . S
C761 H747 0.961 . S
C761 C760 1.502 . S
C762 H748 0.960 . S
C762 H749 0.961 . S
C762 H750 0.959 . S
C762 C760 1.561 . S
C763 C760 1.526 . S
C763 C764 1.396 . S
C763 C768 1.390 . S
C764 C758 1.465 . S
C764 C763 1.396 . S
C764 C765 1.399 . S
C765 H751 0.929 . S
C765 C764 1.399 . S
C765 C766 1.385 . S
C766 H752 0.931 . S
C766 C765 1.385 . S
C766 C767 1.389 . S
C767 C766 1.389 . S
C767 C768 1.387 . S
C768 H753 0.930 . S
C768 C763 1.390 . S
C768 C767 1.387 . S
H769 C781 0.930 . S
H770 C783 0.930 . S
H771 C784 0.930 . S
H772 C788 0.959 . S
H773 C788 0.959 . S
H774 C788 0.961 . S
H775 C789 0.960 . S
H776 C789 0.961 . S
H777 C789 0.959 . S
H778 C792 0.929 . S
H779 C793 0.931 . S
H780 C795 0.930 . S
C781 H769 0.930 . S
C781 C782 1.399 . S
C781 C786 1.399 . S
C782 C781 1.399 . S
C782 C783 1.376 . S
C783 H770 0.930 . S
C783 C782 1.376 . S
C783 C784 1.388 . S
C784 H771 0.930 . S
C784 C783 1.388 . S
C784 C785 1.390 . S
C785 C784 1.390 . S
C785 C786 1.394 . S
C785 C791 1.465 . S
C786 C781 1.399 . S
C786 C785 1.394 . S
C786 C787 1.516 . S
C787 C786 1.516 . S
C787 C788 1.502 . S
C787 C789 1.561 . S
C787 C790 1.526 . S
C788 H772 0.959 . S
C788 H773 0.959 . S
C788 H774 0.961 . S
C788 C787 1.502 . S
C789 H775 0.960 . S
C789 H776 0.961 . S
C789 H777 0.959 . S
C789 C787 1.561 . S
C790 C787 1.526 . S
C790 C791 1.396 . S
C790 C795 1.390 . S
C791 C785 1.465 . S
C791 C790 1.396 . S
C791 C792 1.399 . S
C792 H778 0.929 . S
C792 C791 1.399 . S
C792 C793 1.385 . S
C793 H779 0.931 . S
C793 C792 1.385 . S
C793 C794 1.389 . S
C794 C793 1.389 . S
C794 C795 1.387 . S
C795 H780 0.930 . S
C795 C790 1.390 . S
C795 C794 1.387 . S
H796 C808 0.930 . S
H797 C810 0.930 . S
H798 C811 0.930 . S
H799 C815 0.959 . S
H800 C815 0.959 . S
H801 C815 0.961 . S
H802 C816 0.960 . S
H803 C816 0.961 . S
H804 C816 0.959 . S
H805 C819 0.929 . S
H806 C820 0.931 . S
H807 C822 0.930 . S
C808 H796 0.930 . S
C808 C809 1.399 . S
C808 C813 1.399 . S
C809 C808 1.399 . S
C809 C810 1.376 . S
C810 H797 0.930 . S
C810 C809 1.376 . S
C810 C811 1.388 . S
C811 H798 0.930 . S
C811 C810 1.388 . S
C811 C812 1.390 . S
C812 C811 1.390 . S
C812 C813 1.394 . S
C812 C818 1.465 . S
C813 C808 1.399 . S
C813 C812 1.394 . S
C813 C814 1.516 . S
C814 C813 1.516 . S
C814 C815 1.502 . S
C814 C816 1.561 . S
C814 C817 1.526 . S
C815 H799 0.959 . S
C815 H800 0.959 . S
C815 H801 0.961 . S
C815 C814 1.502 . S
C816 H802 0.960 . S
C816 H803 0.961 . S
C816 H804 0.959 . S
C816 C814 1.561 . S
C817 C814 1.526 . S
C817 C818 1.396 . S
C817 C822 1.390 . S
C818 C812 1.465 . S
C818 C817 1.396 . S
C818 C819 1.399 . S
C819 H805 0.929 . S
C819 C818 1.399 . S
C819 C820 1.385 . S
C820 H806 0.931 . S
C820 C819 1.385 . S
C820 C821 1.389 . S
C821 C820 1.389 . S
C821 C822 1.387 . S
C822 H807 0.930 . S
C822 C817 1.390 . S
C822 C821 1.387 . S
H823 C835 0.930 . S
H824 C837 0.930 . S
H825 C838 0.930 . S
H826 C842 0.959 . S
H827 C842 0.959 . S
H828 C842 0.961 . S
H829 C843 0.960 . S
H830 C843 0.961 . S
H831 C843 0.959 . S
H832 C846 0.929 . S
H833 C847 0.931 . S
H834 C849 0.930 . S
C835 H823 0.930 . S
C835 C836 1.399 . S
C835 C840 1.399 . S
C836 C835 1.399 . S
C836 C837 1.376 . S
C837 H824 0.930 . S
C837 C836 1.376 . S
C837 C838 1.388 . S
C838 H825 0.930 . S
C838 C837 1.388 . S
C838 C839 1.390 . S
C839 C838 1.390 . S
C839 C840 1.394 . S
C839 C845 1.465 . S
C840 C835 1.399 . S
C840 C839 1.394 . S
C840 C841 1.516 . S
C841 C840 1.516 . S
C841 C842 1.502 . S
C841 C843 1.561 . S
C841 C844 1.526 . S
C842 H826 0.959 . S
C842 H827 0.959 . S
C842 H828 0.961 . S
C842 C841 1.502 . S
C843 H829 0.960 . S
C843 H830 0.961 . S
C843 H831 0.959 . S
C843 C841 1.561 . S
C844 C841 1.526 . S
C844 C845 1.396 . S
C844 C849 1.390 . S
C845 C839 1.465 . S
C845 C844 1.396 . S
C845 C846 1.399 . S
C846 H832 0.929 . S
C846 C845 1.399 . S
C846 C847 1.385 . S
C847 H833 0.931 . S
C847 C846 1.385 . S
C847 C848 1.389 . S
C848 C847 1.389 . S
C848 C849 1.387 . S
C849 H834 0.930 . S
C849 C844 1.390 . S
C849 C848 1.387 . S
H850 C862 0.930 . S
H851 C864 0.930 . S
H852 C865 0.930 . S
H853 C869 0.959 . S
H854 C869 0.959 . S
H855 C869 0.961 . S
H856 C870 0.960 . S
H857 C870 0.961 . S
H858 C870 0.959 . S
H859 C873 0.929 . S
H860 C874 0.931 . S
H861 C876 0.930 . S
C862 H850 0.930 . S
C862 C863 1.399 . S
C862 C867 1.399 . S
C863 C862 1.399 . S
C863 C864 1.376 . S
C864 H851 0.930 . S
C864 C863 1.376 . S
C864 C865 1.388 . S
C865 H852 0.930 . S
C865 C864 1.388 . S
C865 C866 1.390 . S
C866 C865 1.390 . S
C866 C867 1.394 . S
C866 C872 1.465 . S
C867 C862 1.399 . S
C867 C866 1.394 . S
C867 C868 1.516 . S
C868 C867 1.516 . S
C868 C869 1.502 . S
C868 C870 1.561 . S
C868 C871 1.526 . S
C869 H853 0.959 . S
C869 H854 0.959 . S
C869 H855 0.961 . S
C869 C868 1.502 . S
C870 H856 0.960 . S
C870 H857 0.961 . S
C870 H858 0.959 . S
C870 C868 1.561 . S
C871 C868 1.526 . S
C871 C872 1.396 . S
C871 C876 1.390 . S
C872 C866 1.465 . S
C872 C871 1.396 . S
C872 C873 1.399 . S
C873 H859 0.929 . S
C873 C872 1.399 . S
C873 C874 1.385 . S
C874 H860 0.931 . S
C874 C873 1.385 . S
C874 C875 1.389 . S
C875 C874 1.389 . S
C875 C876 1.387 . S
C876 H861 0.930 . S
C876 C871 1.390 . S
C876 C875 1.387 . S
H877 C889 0.930 . S
H878 C891 0.930 . S
H879 C892 0.930 . S
H880 C896 0.959 1_455 S
H881 C896 0.959 1_455 S
H882 C896 0.961 . S
H883 C897 0.960 . S
H884 C897 0.961 . S
H885 C897 0.959 . S
H886 C900 0.929 . S
H887 C901 0.931 . S
H888 C903 0.930 . S
C889 H877 0.930 . S
C889 C890 1.399 . S
C889 C894 1.399 . S
C890 C889 1.399 . S
C890 C891 1.376 . S
C891 H878 0.930 . S
C891 C890 1.376 . S
C891 C892 1.388 . S
C892 H879 0.930 . S
C892 C891 1.388 . S
C892 C893 1.390 . S
C893 C892 1.390 . S
C893 C894 1.394 . S
C893 C899 1.465 . S
C894 C889 1.399 . S
C894 C893 1.394 . S
C894 C895 1.516 . S
C895 C894 1.516 . S
C895 C896 1.502 . S
C895 C897 1.561 . S
C895 C898 1.526 . S
C896 H880 0.959 1_655 S
C896 H881 0.959 1_655 S
C896 H882 0.961 . S
C896 C895 1.502 . S
C897 H883 0.960 . S
C897 H884 0.961 . S
C897 H885 0.959 . S
C897 C895 1.561 . S
C898 C895 1.526 . S
C898 C899 1.396 . S
C898 C903 1.390 . S
C899 C893 1.465 . S
C899 C898 1.396 . S
C899 C900 1.399 . S
C900 H886 0.929 . S
C900 C899 1.399 . S
C900 C901 1.385 . S
C901 H887 0.931 . S
C901 C900 1.385 . S
C901 C902 1.389 . S
C902 C901 1.389 . S
C902 C903 1.387 . S
C903 H888 0.930 . S
C903 C898 1.390 . S
C903 C902 1.387 . S
H904 C916 0.930 . S
H905 C918 0.930 . S
H906 C919 0.930 . S
H907 C923 0.959 . S
H908 C923 0.959 . S
H909 C923 0.961 . S
H910 C924 0.960 . S
H911 C924 0.961 . S
H912 C924 0.959 . S
H913 C927 0.929 . S
H914 C928 0.931 . S
H915 C930 0.930 . S
C916 H904 0.930 . S
C916 C917 1.399 . S
C916 C921 1.399 . S
C917 C916 1.399 . S
C917 C918 1.376 . S
C918 H905 0.930 . S
C918 C917 1.376 . S
C918 C919 1.388 . S
C919 H906 0.930 . S
C919 C918 1.388 . S
C919 C920 1.390 . S
C920 C919 1.390 . S
C920 C921 1.394 . S
C920 C926 1.465 . S
C921 C916 1.399 . S
C921 C920 1.394 . S
C921 C922 1.516 . S
C922 C921 1.516 . S
C922 C923 1.502 . S
C922 C924 1.561 . S
C922 C925 1.526 . S
C923 H907 0.959 . S
C923 H908 0.959 . S
C923 H909 0.961 . S
C923 C922 1.502 . S
C924 H910 0.960 . S
C924 H911 0.961 . S
C924 H912 0.959 . S
C924 C922 1.561 . S
C925 C922 1.526 . S
C925 C926 1.396 . S
C925 C930 1.390 . S
C926 C920 1.465 . S
C926 C925 1.396 . S
C926 C927 1.399 . S
C927 H913 0.929 . S
C927 C926 1.399 . S
C927 C928 1.385 . S
C928 H914 0.931 . S
C928 C927 1.385 . S
C928 C929 1.389 . S
C929 C928 1.389 . S
C929 C930 1.387 . S
C930 H915 0.930 . S
C930 C925 1.390 . S
C930 C929 1.387 . S
H931 C943 0.930 . S
H932 C945 0.930 . S
H933 C946 0.930 . S
H934 C950 0.959 . S
H935 C950 0.959 . S
H936 C950 0.961 . S
H937 C951 0.960 . S
H938 C951 0.961 . S
H939 C951 0.959 . S
H940 C954 0.929 . S
H941 C955 0.931 . S
H942 C957 0.930 . S
C943 H931 0.930 . S
C943 C944 1.399 . S
C943 C948 1.399 . S
C944 C943 1.399 . S
C944 C945 1.376 . S
C945 H932 0.930 . S
C945 C944 1.376 . S
C945 C946 1.388 . S
C946 H933 0.930 . S
C946 C945 1.388 . S
C946 C947 1.390 . S
C947 C946 1.390 . S
C947 C948 1.394 . S
C947 C953 1.465 . S
C948 C943 1.399 . S
C948 C947 1.394 . S
C948 C949 1.516 . S
C949 C948 1.516 . S
C949 C950 1.502 . S
C949 C951 1.561 . S
C949 C952 1.526 . S
C950 H934 0.959 . S
C950 H935 0.959 . S
C950 H936 0.961 . S
C950 C949 1.502 . S
C951 H937 0.960 . S
C951 H938 0.961 . S
C951 H939 0.959 . S
C951 C949 1.561 . S
C952 C949 1.526 . S
C952 C953 1.396 . S
C952 C957 1.390 . S
C953 C947 1.465 . S
C953 C952 1.396 . S
C953 C954 1.399 . S
C954 H940 0.929 . S
C954 C953 1.399 . S
C954 C955 1.385 . S
C955 H941 0.931 . S
C955 C954 1.385 . S
C955 C956 1.389 . S
C956 C955 1.389 . S
C956 C957 1.387 . S
C957 H942 0.930 . S
C957 C952 1.390 . S
C957 C956 1.387 . S
H958 C970 0.930 . S
H959 C972 0.930 . S
H960 C973 0.930 1_554 S
H961 C977 0.959 . S
H962 C977 0.959 . S
H963 C977 0.925 1_556 S
H964 C978 0.966 . S
H965 C978 0.961 . S
H966 C978 0.959 . S
H967 C981 0.929 . S
H968 C982 0.931 . S
H969 C984 0.930 . S
C970 H958 0.930 . S
C970 C971 1.399 . S
C970 C975 1.399 . S
C971 C970 1.399 . S
C971 C972 1.376 . S
C972 H959 0.930 . S
C972 C971 1.376 . S
C972 C973 1.388 . S
C973 H960 0.930 1_556 S
C973 C972 1.388 . S
C973 C974 1.390 1_556 S
C974 C973 1.390 1_554 S
C974 C975 1.394 1_554 S
C974 C980 1.465 . S
C975 C970 1.399 . S
C975 C974 1.394 1_556 S
C975 C976 1.502 1_556 S
C976 C975 1.502 1_554 S
C976 C977 1.511 . S
C976 C978 1.545 1_544 S
C976 C979 1.548 . S
C977 H961 0.959 . S
C977 H962 0.959 . S
C977 H963 0.925 1_554 S
C977 C976 1.511 . S
C978 H964 0.966 . S
C978 H965 0.961 . S
C978 H966 0.959 . S
C978 C976 1.545 1_566 S
C979 C976 1.548 . S
C979 C980 1.396 . S
C979 C984 1.390 1_545 S
C980 C974 1.465 . S
C980 C979 1.396 . S
C980 C981 1.399 . S
C981 H967 0.929 . S
C981 C980 1.399 . S
C981 C982 1.385 1_545 S
C982 H968 0.931 . S
C982 C981 1.385 1_565 S
C982 C983 1.389 . S
C983 C982 1.389 . S
C983 C984 1.387 . S
C984 H969 0.930 . S
C984 C979 1.390 1_565 S
C984 C983 1.387 . S
H985 C997 0.930 . S
H986 C999 0.930 . S
H987 C1000 0.930 . S
H988 C1004 0.959 . S
H989 C1004 0.959 . S
H990 C1004 0.961 . S
H991 C1005 0.960 . S
H992 C1005 0.961 . S
H993 C1005 0.959 . S
H994 C1008 0.929 . S
H995 C1009 0.931 . S
H996 C1011 0.930 . S
C997 H985 0.930 . S
C997 C998 1.399 . S
C997 C1002 1.399 . S
C998 C997 1.399 . S
C998 C999 1.376 . S
C999 H986 0.930 . S
C999 C998 1.376 . S
C999 C1000 1.388 . S
C1000 H987 0.930 . S
C1000 C999 1.388 . S
C1000 C1001 1.390 . S
C1001 C1000 1.390 . S
C1001 C1002 1.394 . S
C1001 C1007 1.465 . S
C1002 C997 1.399 . S
C1002 C1001 1.394 . S
C1002 C1003 1.516 . S
C1003 C1002 1.516 . S
C1003 C1004 1.502 . S
C1003 C1005 1.561 . S
C1003 C1006 1.526 . S
C1004 H988 0.959 . S
C1004 H989 0.959 . S
C1004 H990 0.961 . S
C1004 C1003 1.502 . S
C1005 H991 0.960 . S
C1005 H992 0.961 . S
C1005 H993 0.959 . S
C1005 C1003 1.561 . S
C1006 C1003 1.526 . S
C1006 C1007 1.396 . S
C1006 C1011 1.390 . S
C1007 C1001 1.465 . S
C1007 C1006 1.396 . S
C1007 C1008 1.399 . S
C1008 H994 0.929 . S
C1008 C1007 1.399 . S
C1008 C1009 1.385 . S
C1009 H995 0.931 . S
C1009 C1008 1.385 . S
C1009 C1010 1.389 . S
C1010 C1009 1.389 . S
C1010 C1011 1.387 . S
C1011 H996 0.930 . S
C1011 C1006 1.390 . S
C1011 C1010 1.387 . S
H1012 C1024 0.954 . S
H1013 C1026 0.930 . S
H1014 C1027 0.930 . S
H1015 C1031 0.959 . S
H1016 C1031 0.959 . S
H1017 C1031 0.951 1_565 S
H1018 C1032 0.960 . S
H1019 C1032 0.961 . S
H1020 C1032 0.959 . S
H1021 C1035 0.929 . S
H1022 C1036 0.931 . S
H1023 C1038 0.930 . S
C1024 H1012 0.954 . S
C1024 C1025 1.404 . S
C1024 C1029 1.371 1_565 S
C1025 C1024 1.404 . S
C1025 C1026 1.376 1_565 S
C1026 H1013 0.930 . S
C1026 C1025 1.376 1_545 S
C1026 C1027 1.388 . S
C1027 H1014 0.930 . S
C1027 C1026 1.388 . S
C1027 C1028 1.390 . S
C1028 C1027 1.390 . S
C1028 C1029 1.394 . S
C1028 C1034 1.465 . S
C1029 C1024 1.371 1_545 S
C1029 C1028 1.394 . S
C1029 C1030 1.516 . S
C1030 C1029 1.516 . S
C1030 C1031 1.502 . S
C1030 C1032 1.561 . S
C1030 C1033 1.526 . S
C1031 H1015 0.959 . S
C1031 H1016 0.959 . S
C1031 H1017 0.951 1_545 S
C1031 C1030 1.502 . S
C1032 H1018 0.960 . S
C1032 H1019 0.961 . S
C1032 H1020 0.959 . S
C1032 C1030 1.561 . S
C1033 C1030 1.526 . S
C1033 C1034 1.396 . S
C1033 C1038 1.390 . S
C1034 C1028 1.465 . S
C1034 C1033 1.396 . S
C1034 C1035 1.399 . S
C1035 H1021 0.929 . S
C1035 C1034 1.399 . S
C1035 C1036 1.385 . S
C1036 H1022 0.931 . S
C1036 C1035 1.385 . S
C1036 C1037 1.389 . S
C1037 C1036 1.389 . S
C1037 C1038 1.387 . S
C1038 H1023 0.930 . S
C1038 C1033 1.390 . S
C1038 C1037 1.387 . S
H1039 C1051 0.930 . S
H1040 C1053 0.930 . S
H1041 C1054 0.930 . S
H1042 C1058 0.959 . S
H1043 C1058 0.959 . S
H1044 C1058 0.961 . S
H1045 C1059 0.960 . S
H1046 C1059 0.961 . S
H1047 C1059 0.959 . S
H1048 C1062 0.929 . S
H1049 C1063 0.931 . S
H1050 C1065 0.930 . S
C1051 H1039 0.930 . S
C1051 C1052 1.399 . S
C1051 C1056 1.399 . S
C1052 C1051 1.399 . S
C1052 C1053 1.376 . S
C1053 H1040 0.930 . S
C1053 C1052 1.376 . S
C1053 C1054 1.388 . S
C1054 H1041 0.930 . S
C1054 C1053 1.388 . S
C1054 C1055 1.390 . S
C1055 C1054 1.390 . S
C1055 C1056 1.394 . S
C1055 C1061 1.465 . S
C1056 C1051 1.399 . S
C1056 C1055 1.394 . S
C1056 C1057 1.516 . S
C1057 C1056 1.516 . S
C1057 C1058 1.502 . S
C1057 C1059 1.561 . S
C1057 C1060 1.526 . S
C1058 H1042 0.959 . S
C1058 H1043 0.959 . S
C1058 H1044 0.961 . S
C1058 C1057 1.502 . S
C1059 H1045 0.960 . S
C1059 H1046 0.961 . S
C1059 H1047 0.959 . S
C1059 C1057 1.561 . S
C1060 C1057 1.526 . S
C1060 C1061 1.396 . S
C1060 C1065 1.390 . S
C1061 C1055 1.465 . S
C1061 C1060 1.396 . S
C1061 C1062 1.399 . S
C1062 H1048 0.929 . S
C1062 C1061 1.399 . S
C1062 C1063 1.385 . S
C1063 H1049 0.931 . S
C1063 C1062 1.385 . S
C1063 C1064 1.389 . S
C1064 C1063 1.389 . S
C1064 C1065 1.387 . S
C1065 H1050 0.930 . S
C1065 C1060 1.390 . S
C1065 C1064 1.387 . S
H1066 C1078 0.930 . S
H1067 C1080 0.930 . S
H1068 C1081 0.930 . S
H1069 C1085 0.959 . S
H1070 C1085 0.959 . S
H1071 C1085 0.961 . S
H1072 C1086 0.960 . S
H1073 C1086 0.961 . S
H1074 C1086 0.959 . S
H1075 C1089 0.929 . S
H1076 C1090 0.931 . S
H1077 C1092 0.930 . S
C1078 H1066 0.930 . S
C1078 C1079 1.399 . S
C1078 C1083 1.399 1_565 S
C1079 C1078 1.399 . S
C1079 C1080 1.376 . S
C1080 H1067 0.930 . S
C1080 C1079 1.376 . S
C1080 C1081 1.388 . S
C1081 H1068 0.930 . S
C1081 C1080 1.388 . S
C1081 C1082 1.390 1_565 S
C1082 C1081 1.390 1_545 S
C1082 C1083 1.394 . S
C1082 C1088 1.465 . S
C1083 C1078 1.399 1_545 S
C1083 C1082 1.394 . S
C1083 C1084 1.516 . S
C1084 C1083 1.516 . S
C1084 C1085 1.502 . S
C1084 C1086 1.561 . S
C1084 C1087 1.526 . S
C1085 H1069 0.959 . S
C1085 H1070 0.959 . S
C1085 H1071 0.961 . S
C1085 C1084 1.502 . S
C1086 H1072 0.960 . S
C1086 H1073 0.961 . S
C1086 H1074 0.959 . S
C1086 C1084 1.561 . S
C1087 C1084 1.526 . S
C1087 C1088 1.396 . S
C1087 C1092 1.390 . S
C1088 C1082 1.465 . S
C1088 C1087 1.396 . S
C1088 C1089 1.399 . S
C1089 H1075 0.929 . S
C1089 C1088 1.399 . S
C1089 C1090 1.385 . S
C1090 H1076 0.931 . S
C1090 C1089 1.385 . S
C1090 C1091 1.389 . S
C1091 C1090 1.389 . S
C1091 C1092 1.387 . S
C1092 H1077 0.930 . S
C1092 C1087 1.390 . S
C1092 C1091 1.387 . S
H1093 C1105 0.930 . S
H1094 C1107 0.930 . S
H1095 C1108 0.930 . S
H1096 C1112 0.959 . S
H1097 C1112 0.959 . S
H1098 C1112 0.961 . S
H1099 C1113 0.960 . S
H1100 C1113 0.961 . S
H1101 C1113 0.959 . S
H1102 C1116 0.929 . S
H1103 C1117 0.931 . S
H1104 C1119 0.930 . S
C1105 H1093 0.930 . S
C1105 C1106 1.399 . S
C1105 C1110 1.399 . S
C1106 C1105 1.399 . S
C1106 C1107 1.376 . S
C1107 H1094 0.930 . S
C1107 C1106 1.376 . S
C1107 C1108 1.388 . S
C1108 H1095 0.930 . S
C1108 C1107 1.388 . S
C1108 C1109 1.390 . S
C1109 C1108 1.390 . S
C1109 C1110 1.394 . S
C1109 C1115 1.465 . S
C1110 C1105 1.399 . S
C1110 C1109 1.394 . S
C1110 C1111 1.516 . S
C1111 C1110 1.516 . S
C1111 C1112 1.502 . S
C1111 C1113 1.561 . S
C1111 C1114 1.526 . S
C1112 H1096 0.959 . S
C1112 H1097 0.959 . S
C1112 H1098 0.961 . S
C1112 C1111 1.502 . S
C1113 H1099 0.960 . S
C1113 H1100 0.961 . S
C1113 H1101 0.959 . S
C1113 C1111 1.561 . S
C1114 C1111 1.526 . S
C1114 C1115 1.396 . S
C1114 C1119 1.390 . S
C1115 C1109 1.465 . S
C1115 C1114 1.396 . S
C1115 C1116 1.399 . S
C1116 H1102 0.929 . S
C1116 C1115 1.399 . S
C1116 C1117 1.385 . S
C1117 H1103 0.931 . S
C1117 C1116 1.385 . S
C1117 C1118 1.389 . S
C1118 C1117 1.389 . S
C1118 C1119 1.387 . S
C1119 H1104 0.930 . S
C1119 C1114 1.390 . S
C1119 C1118 1.387 . S
H1120 C1132 0.930 . S
H1121 C1134 0.930 . S
H1122 C1135 0.930 . S
H1123 C1139 0.959 . S
H1124 C1139 0.959 . S
H1125 C1139 0.961 . S
H1126 C1140 0.960 . S
H1127 C1140 0.961 . S
H1128 C1140 0.959 . S
H1129 C1143 0.929 . S
H1130 C1144 0.931 . S
H1131 C1146 0.930 . S
C1132 H1120 0.930 . S
C1132 C1133 1.399 . S
C1132 C1137 1.399 . S
C1133 C1132 1.399 . S
C1133 C1134 1.376 . S
C1134 H1121 0.930 . S
C1134 C1133 1.376 . S
C1134 C1135 1.388 . S
C1135 H1122 0.930 . S
C1135 C1134 1.388 . S
C1135 C1136 1.390 . S
C1136 C1135 1.390 . S
C1136 C1137 1.394 . S
C1136 C1142 1.465 . S
C1137 C1132 1.399 . S
C1137 C1136 1.394 . S
C1137 C1138 1.516 . S
C1138 C1137 1.516 . S
C1138 C1139 1.502 . S
C1138 C1140 1.561 . S
C1138 C1141 1.526 . S
C1139 H1123 0.959 . S
C1139 H1124 0.959 . S
C1139 H1125 0.961 . S
C1139 C1138 1.502 . S
C1140 H1126 0.960 . S
C1140 H1127 0.961 . S
C1140 H1128 0.959 . S
C1140 C1138 1.561 . S
C1141 C1138 1.526 . S
C1141 C1142 1.396 . S
C1141 C1146 1.390 . S
C1142 C1136 1.465 . S
C1142 C1141 1.396 . S
C1142 C1143 1.399 . S
C1143 H1129 0.929 . S
C1143 C1142 1.399 . S
C1143 C1144 1.385 . S
C1144 H1130 0.931 . S
C1144 C1143 1.385 . S
C1144 C1145 1.389 . S
C1145 C1144 1.389 . S
C1145 C1146 1.387 . S
C1146 H1131 0.930 . S
C1146 C1141 1.390 . S
C1146 C1145 1.387 . S
H1147 C1159 0.930 . S
H1148 C1161 0.930 . S
H1149 C1162 0.930 . S
H1150 C1166 0.959 . S
H1151 C1166 0.959 . S
H1152 C1166 0.961 . S
H1153 C1167 0.960 . S
H1154 C1167 0.961 . S
H1155 C1167 0.959 . S
H1156 C1170 0.929 . S
H1157 C1171 0.931 . S
H1158 C1173 0.930 . S
C1159 H1147 0.930 . S
C1159 C1160 1.399 . S
C1159 C1164 1.399 . S
C1160 C1159 1.399 . S
C1160 C1161 1.376 . S
C1161 H1148 0.930 . S
C1161 C1160 1.376 . S
C1161 C1162 1.388 . S
C1162 H1149 0.930 . S
C1162 C1161 1.388 . S
C1162 C1163 1.390 . S
C1163 C1162 1.390 . S
C1163 C1164 1.394 . S
C1163 C1169 1.465 . S
C1164 C1159 1.399 . S
C1164 C1163 1.394 . S
C1164 C1165 1.516 . S
C1165 C1164 1.516 . S
C1165 C1166 1.502 . S
C1165 C1167 1.561 . S
C1165 C1168 1.526 . S
C1166 H1150 0.959 . S
C1166 H1151 0.959 . S
C1166 H1152 0.961 . S
C1166 C1165 1.502 . S
C1167 H1153 0.960 . S
C1167 H1154 0.961 . S
C1167 H1155 0.959 . S
C1167 C1165 1.561 . S
C1168 C1165 1.526 . S
C1168 C1169 1.396 . S
C1168 C1173 1.390 . S
C1169 C1163 1.465 . S
C1169 C1168 1.396 . S
C1169 C1170 1.399 . S
C1170 H1156 0.929 . S
C1170 C1169 1.399 . S
C1170 C1171 1.385 . S
C1171 H1157 0.931 . S
C1171 C1170 1.385 . S
C1171 C1172 1.389 . S
C1172 C1171 1.389 . S
C1172 C1173 1.387 . S
C1173 H1158 0.930 . S
C1173 C1168 1.390 . S
C1173 C1172 1.387 . S
H1174 C1186 0.930 . S
H1175 C1188 0.930 . S
H1176 C1189 0.930 . S
H1177 C1193 0.959 . S
H1178 C1193 0.959 . S
H1179 C1193 0.961 . S
H1180 C1194 0.960 . S
H1181 C1194 0.961 . S
H1182 C1194 0.959 . S
H1183 C1197 0.929 . S
H1184 C1198 0.931 . S
H1185 C1200 0.930 . S
C1186 H1174 0.930 . S
C1186 C1187 1.399 . S
C1186 C1191 1.399 . S
C1187 C1186 1.399 . S
C1187 C1188 1.376 . S
C1188 H1175 0.930 . S
C1188 C1187 1.376 . S
C1188 C1189 1.388 . S
C1189 H1176 0.930 . S
C1189 C1188 1.388 . S
C1189 C1190 1.390 . S
C1190 C1189 1.390 . S
C1190 C1191 1.394 . S
C1190 C1196 1.465 . S
C1191 C1186 1.399 . S
C1191 C1190 1.394 . S
C1191 C1192 1.516 . S
C1192 C1191 1.516 . S
C1192 C1193 1.502 . S
C1192 C1194 1.561 . S
C1192 C1195 1.526 . S
C1193 H1177 0.959 . S
C1193 H1178 0.959 . S
C1193 H1179 0.961 . S
C1193 C1192 1.502 . S
C1194 H1180 0.960 . S
C1194 H1181 0.961 . S
C1194 H1182 0.959 . S
C1194 C1192 1.561 . S
C1195 C1192 1.526 . S
C1195 C1196 1.396 . S
C1195 C1200 1.390 . S
C1196 C1190 1.465 . S
C1196 C1195 1.396 . S
C1196 C1197 1.399 . S
C1197 H1183 0.929 . S
C1197 C1196 1.399 . S
C1197 C1198 1.385 . S
C1198 H1184 0.931 . S
C1198 C1197 1.385 . S
C1198 C1199 1.389 . S
C1199 C1198 1.389 . S
C1199 C1200 1.387 . S
C1200 H1185 0.930 . S
C1200 C1195 1.390 . S
C1200 C1199 1.387 . S
H1201 C1213 0.930 . S
H1202 C1215 0.930 . S
H1203 C1216 0.930 . S
H1204 C1220 0.959 . S
H1205 C1220 0.959 . S
H1206 C1220 0.961 . S
H1207 C1221 0.960 . S
H1208 C1221 0.961 . S
H1209 C1221 0.959 . S
H1210 C1224 0.929 . S
H1211 C1225 0.931 . S
H1212 C1227 0.930 . S
C1213 H1201 0.930 . S
C1213 C1214 1.399 . S
C1213 C1218 1.399 . S
C1214 C1213 1.399 . S
C1214 C1215 1.376 . S
C1215 H1202 0.930 . S
C1215 C1214 1.376 . S
C1215 C1216 1.388 . S
C1216 H1203 0.930 . S
C1216 C1215 1.388 . S
C1216 C1217 1.390 . S
C1217 C1216 1.390 . S
C1217 C1218 1.394 . S
C1217 C1223 1.465 . S
C1218 C1213 1.399 . S
C1218 C1217 1.394 . S
C1218 C1219 1.516 . S
C1219 C1218 1.516 . S
C1219 C1220 1.502 . S
C1219 C1221 1.561 . S
C1219 C1222 1.526 . S
C1220 H1204 0.959 . S
C1220 H1205 0.959 . S
C1220 H1206 0.961 . S
C1220 C1219 1.502 . S
C1221 H1207 0.960 . S
C1221 H1208 0.961 . S
C1221 H1209 0.959 . S
C1221 C1219 1.561 . S
C1222 C1219 1.526 . S
C1222 C1223 1.396 . S
C1222 C1227 1.390 . S
C1223 C1217 1.465 . S
C1223 C1222 1.396 . S
C1223 C1224 1.399 . S
C1224 H1210 0.929 . S
C1224 C1223 1.399 . S
C1224 C1225 1.385 . S
C1225 H1211 0.931 . S
C1225 C1224 1.385 . S
C1225 C1226 1.389 . S
C1226 C1225 1.389 . S
C1226 C1227 1.387 . S
C1227 H1212 0.930 . S
C1227 C1222 1.390 . S
C1227 C1226 1.387 . S
H1228 C1240 0.930 . S
H1229 C1242 0.930 . S
H1230 C1243 0.930 . S
H1231 C1247 0.959 . S
H1232 C1247 0.959 . S
H1233 C1247 0.961 . S
H1234 C1248 0.960 . S
H1235 C1248 0.961 . S
H1236 C1248 0.959 . S
H1237 C1251 0.929 . S
H1238 C1252 0.931 . S
H1239 C1254 0.930 . S
C1240 H1228 0.930 . S
C1240 C1241 1.399 . S
C1240 C1245 1.399 . S
C1241 C1240 1.399 . S
C1241 C1242 1.376 . S
C1242 H1229 0.930 . S
C1242 C1241 1.376 . S
C1242 C1243 1.388 . S
C1243 H1230 0.930 . S
C1243 C1242 1.388 . S
C1243 C1244 1.390 . S
C1244 C1243 1.390 . S
C1244 C1245 1.394 . S
C1244 C1250 1.465 . S
C1245 C1240 1.399 . S
C1245 C1244 1.394 . S
C1245 C1246 1.516 . S
C1246 C1245 1.516 . S
C1246 C1247 1.502 . S
C1246 C1248 1.561 . S
C1246 C1249 1.526 . S
C1247 H1231 0.959 . S
C1247 H1232 0.959 . S
C1247 H1233 0.961 . S
C1247 C1246 1.502 . S
C1248 H1234 0.960 . S
C1248 H1235 0.961 . S
C1248 H1236 0.959 . S
C1248 C1246 1.561 . S
C1249 C1246 1.526 . S
C1249 C1250 1.396 . S
C1249 C1254 1.390 . S
C1250 C1244 1.465 . S
C1250 C1249 1.396 . S
C1250 C1251 1.399 . S
C1251 H1237 0.929 . S
C1251 C1250 1.399 . S
C1251 C1252 1.385 . S
C1252 H1238 0.931 . S
C1252 C1251 1.385 . S
C1252 C1253 1.389 . S
C1253 C1252 1.389 . S
C1253 C1254 1.387 . S
C1254 H1239 0.930 . S
C1254 C1249 1.390 . S
C1254 C1253 1.387 . S
H1255 C1267 0.930 . S
H1256 C1269 0.930 . S
H1257 C1270 0.930 . S
H1258 C1274 0.959 . S
H1259 C1274 0.959 . S
H1260 C1274 0.961 . S
H1261 C1275 0.960 . S
H1262 C1275 0.961 . S
H1263 C1275 0.959 . S
H1264 C1278 0.929 . S
H1265 C1279 0.931 . S
H1266 C1281 0.930 . S
C1267 H1255 0.930 . S
C1267 C1268 1.399 . S
C1267 C1272 1.399 . S
C1268 C1267 1.399 . S
C1268 C1269 1.376 . S
C1269 H1256 0.930 . S
C1269 C1268 1.376 . S
C1269 C1270 1.388 . S
C1270 H1257 0.930 . S
C1270 C1269 1.388 . S
C1270 C1271 1.390 . S
C1271 C1270 1.390 . S
C1271 C1272 1.394 . S
C1271 C1277 1.465 . S
C1272 C1267 1.399 . S
C1272 C1271 1.394 . S
C1272 C1273 1.516 . S
C1273 C1272 1.516 . S
C1273 C1274 1.502 . S
C1273 C1275 1.561 . S
C1273 C1276 1.526 . S
C1274 H1258 0.959 . S
C1274 H1259 0.959 . S
C1274 H1260 0.961 . S
C1274 C1273 1.502 . S
C1275 H1261 0.960 . S
C1275 H1262 0.961 . S
C1275 H1263 0.959 . S
C1275 C1273 1.561 . S
C1276 C1273 1.526 . S
C1276 C1277 1.396 . S
C1276 C1281 1.390 . S
C1277 C1271 1.465 . S
C1277 C1276 1.396 . S
C1277 C1278 1.399 . S
C1278 H1264 0.929 . S
C1278 C1277 1.399 . S
C1278 C1279 1.385 . S
C1279 H1265 0.931 . S
C1279 C1278 1.385 . S
C1279 C1280 1.389 . S
C1280 C1279 1.389 . S
C1280 C1281 1.387 . S
C1281 H1266 0.930 . S
C1281 C1276 1.390 . S
C1281 C1280 1.387 . S
H1282 C1294 0.930 . S
H1283 C1296 0.930 . S
H1284 C1297 0.930 . S
H1285 C1301 0.959 . S
H1286 C1301 0.959 . S
H1287 C1301 0.961 . S
H1288 C1302 0.960 . S
H1289 C1302 0.961 . S
H1290 C1302 0.959 . S
H1291 C1305 0.929 . S
H1292 C1306 0.931 . S
H1293 C1308 0.930 . S
C1294 H1282 0.930 . S
C1294 C1295 1.399 . S
C1294 C1299 1.399 . S
C1295 C1294 1.399 . S
C1295 C1296 1.376 . S
C1296 H1283 0.930 . S
C1296 C1295 1.376 . S
C1296 C1297 1.388 . S
C1297 H1284 0.930 . S
C1297 C1296 1.388 . S
C1297 C1298 1.390 . S
C1298 C1297 1.390 . S
C1298 C1299 1.394 . S
C1298 C1304 1.465 . S
C1299 C1294 1.399 . S
C1299 C1298 1.394 . S
C1299 C1300 1.516 . S
C1300 C1299 1.516 . S
C1300 C1301 1.502 . S
C1300 C1302 1.561 . S
C1300 C1303 1.526 . S
C1301 H1285 0.959 . S
C1301 H1286 0.959 . S
C1301 H1287 0.961 . S
C1301 C1300 1.502 . S
C1302 H1288 0.960 . S
C1302 H1289 0.961 . S
C1302 H1290 0.959 . S
C1302 C1300 1.561 . S
C1303 C1300 1.526 . S
C1303 C1304 1.396 . S
C1303 C1308 1.390 . S
C1304 C1298 1.465 . S
C1304 C1303 1.396 . S
C1304 C1305 1.399 . S
C1305 H1291 0.929 . S
C1305 C1304 1.399 . S
C1305 C1306 1.385 . S
C1306 H1292 0.931 . S
C1306 C1305 1.385 . S
C1306 C1307 1.389 . S
C1307 C1306 1.389 . S
C1307 C1308 1.387 . S
C1308 H1293 0.930 . S
C1308 C1303 1.390 . S
C1308 C1307 1.387 . S
H1309 C1321 0.930 . S
H1310 C1323 0.930 . S
H1311 C1324 0.930 . S
H1312 C1328 0.959 . S
H1313 C1328 0.959 . S
H1314 C1328 0.961 1_655 S
H1315 C1329 0.960 . S
H1316 C1329 0.961 . S
H1317 C1329 0.959 . S
H1318 C1332 0.930 . S
H1319 C1333 0.931 . S
H1320 C1335 0.930 . S
C1321 H1309 0.930 . S
C1321 C1322 1.399 . S
C1321 C1326 1.399 . S
C1322 C1321 1.399 . S
C1322 C1323 1.376 . S
C1323 H1310 0.930 . S
C1323 C1322 1.376 . S
C1323 C1324 1.388 . S
C1324 H1311 0.930 . S
C1324 C1323 1.388 . S
C1324 C1325 1.390 . S
C1325 C1324 1.390 . S
C1325 C1326 1.394 . S
C1325 C1331 1.465 . S
C1326 C1321 1.399 . S
C1326 C1325 1.394 . S
C1326 C1327 1.516 . S
C1327 C1326 1.516 . S
C1327 C1328 1.502 1_655 S
C1327 C1329 1.561 . S
C1327 C1330 1.526 1_655 S
C1328 H1312 0.959 . S
C1328 H1313 0.959 . S
C1328 H1314 0.961 1_455 S
C1328 C1327 1.502 1_455 S
C1329 H1315 0.960 . S
C1329 H1316 0.961 . S
C1329 H1317 0.959 . S
C1329 C1327 1.561 . S
C1330 C1327 1.526 1_455 S
C1330 C1331 1.396 1_455 S
C1330 C1335 1.390 . S
C1331 C1325 1.465 . S
C1331 C1330 1.396 1_655 S
C1331 C1332 1.399 1_655 S
C1332 H1318 0.930 . S
C1332 C1331 1.399 1_455 S
C1332 C1333 1.385 . S
C1333 H1319 0.931 . S
C1333 C1332 1.385 . S
C1333 C1334 1.389 . S
C1334 C1333 1.389 . S
C1334 C1335 1.387 . S
C1335 H1320 0.930 . S
C1335 C1330 1.390 . S
C1335 C1334 1.387 . S
H1336 C1348 0.930 . S
H1337 C1350 0.930 . S
H1338 C1351 0.930 . S
H1339 C1355 0.959 . S
H1340 C1355 0.959 . S
H1341 C1355 0.961 . S
H1342 C1356 0.960 . S
H1343 C1356 0.961 . S
H1344 C1356 0.959 . S
H1345 C1359 0.929 . S
H1346 C1360 0.931 . S
H1347 C1362 0.930 . S
C1348 H1336 0.930 . S
C1348 C1349 1.399 . S
C1348 C1353 1.399 . S
C1349 C1348 1.399 . S
C1349 C1350 1.376 . S
C1350 H1337 0.930 . S
C1350 C1349 1.376 . S
C1350 C1351 1.388 . S
C1351 H1338 0.930 . S
C1351 C1350 1.388 . S
C1351 C1352 1.390 . S
C1352 C1351 1.390 . S
C1352 C1353 1.394 . S
C1352 C1358 1.465 . S
C1353 C1348 1.399 . S
C1353 C1352 1.394 . S
C1353 C1354 1.516 . S
C1354 C1353 1.516 . S
C1354 C1355 1.502 . S
C1354 C1356 1.561 . S
C1354 C1357 1.526 . S
C1355 H1339 0.959 . S
C1355 H1340 0.959 . S
C1355 H1341 0.961 . S
C1355 C1354 1.502 . S
C1356 H1342 0.960 . S
C1356 H1343 0.961 . S
C1356 H1344 0.959 . S
C1356 C1354 1.561 . S
C1357 C1354 1.526 . S
C1357 C1358 1.396 . S
C1357 C1362 1.390 . S
C1358 C1352 1.465 . S
C1358 C1357 1.396 . S
C1358 C1359 1.399 . S
C1359 H1345 0.929 . S
C1359 C1358 1.399 . S
C1359 C1360 1.385 . S
C1360 H1346 0.931 . S
C1360 C1359 1.385 . S
C1360 C1361 1.389 . S
C1361 C1360 1.389 . S
C1361 C1362 1.387 . S
C1362 H1347 0.930 . S
C1362 C1357 1.390 . S
C1362 C1361 1.387 . S
H1363 C1375 0.930 . S
H1364 C1377 0.930 . S
H1365 C1378 0.930 1_554 S
H1366 C1382 0.959 . S
H1367 C1382 0.959 . S
H1368 C1382 0.961 . S
H1369 C1383 0.960 . S
H1370 C1383 0.961 . S
H1371 C1383 0.959 . S
H1372 C1386 0.929 . S
H1373 C1387 0.931 . S
H1374 C1389 0.930 . S
C1375 H1363 0.930 . S
C1375 C1376 1.399 . S
C1375 C1380 1.399 . S
C1376 C1375 1.399 . S
C1376 C1377 1.376 1_556 S
C1377 H1364 0.930 . S
C1377 C1376 1.376 1_554 S
C1377 C1378 1.388 1_554 S
C1378 H1365 0.930 1_556 S
C1378 C1377 1.388 1_556 S
C1378 C1379 1.390 . S
C1379 C1378 1.390 . S
C1379 C1380 1.394 . S
C1379 C1385 1.465 . S
C1380 C1375 1.399 . S
C1380 C1379 1.394 . S
C1380 C1381 1.516 . S
C1381 C1380 1.516 . S
C1381 C1382 1.502 . S
C1381 C1383 1.561 . S
C1381 C1384 1.526 . S
C1382 H1366 0.959 . S
C1382 H1367 0.959 . S
C1382 H1368 0.961 . S
C1382 C1381 1.502 . S
C1383 H1369 0.960 . S
C1383 H1370 0.961 . S
C1383 H1371 0.959 . S
C1383 C1381 1.561 . S
C1384 C1381 1.526 . S
C1384 C1385 1.396 . S
C1384 C1389 1.390 . S
C1385 C1379 1.465 . S
C1385 C1384 1.396 . S
C1385 C1386 1.399 . S
C1386 H1372 0.929 . S
C1386 C1385 1.399 . S
C1386 C1387 1.385 . S
C1387 H1373 0.931 . S
C1387 C1386 1.385 . S
C1387 C1388 1.389 . S
C1388 C1387 1.389 . S
C1388 C1389 1.387 . S
C1389 H1374 0.930 . S
C1389 C1384 1.390 . S
C1389 C1388 1.387 . S
H1390 C1402 0.930 . S
H1391 C1404 0.930 . S
H1392 C1405 0.930 . S
H1393 C1409 0.959 . S
H1394 C1409 0.959 . S
H1395 C1409 0.961 . S
H1396 C1410 0.960 . S
H1397 C1410 0.961 . S
H1398 C1410 0.959 . S
H1399 C1413 0.929 . S
H1400 C1414 0.931 . S
H1401 C1416 0.930 . S
C1402 H1390 0.930 . S
C1402 C1403 1.399 . S
C1402 C1407 1.399 . S
C1403 C1402 1.399 . S
C1403 C1404 1.376 . S
C1404 H1391 0.930 . S
C1404 C1403 1.376 . S
C1404 C1405 1.388 . S
C1405 H1392 0.930 . S
C1405 C1404 1.388 . S
C1405 C1406 1.390 . S
C1406 C1405 1.390 . S
C1406 C1407 1.394 . S
C1406 C1412 1.465 . S
C1407 C1402 1.399 . S
C1407 C1406 1.394 . S
C1407 C1408 1.516 . S
C1408 C1407 1.516 . S
C1408 C1409 1.502 . S
C1408 C1410 1.561 . S
C1408 C1411 1.526 . S
C1409 H1393 0.959 . S
C1409 H1394 0.959 . S
C1409 H1395 0.961 . S
C1409 C1408 1.502 . S
C1410 H1396 0.960 . S
C1410 H1397 0.961 . S
C1410 H1398 0.959 . S
C1410 C1408 1.561 . S
C1411 C1408 1.526 . S
C1411 C1412 1.396 . S
C1411 C1416 1.390 . S
C1412 C1406 1.465 . S
C1412 C1411 1.396 . S
C1412 C1413 1.399 . S
C1413 H1399 0.929 . S
C1413 C1412 1.399 . S
C1413 C1414 1.385 . S
C1414 H1400 0.931 . S
C1414 C1413 1.385 . S
C1414 C1415 1.389 . S
C1415 C1414 1.389 . S
C1415 C1416 1.387 . S
C1416 H1401 0.930 . S
C1416 C1411 1.390 . S
C1416 C1415 1.387 . S
H1417 C1429 0.930 . S
H1418 C1431 0.930 . S
H1419 C1432 0.930 . S
H1420 C1436 0.959 . S
H1421 C1436 0.959 . S
H1422 C1436 0.961 . S
H1423 C1437 0.960 1_554 S
H1424 C1437 0.961 . S
H1425 C1437 0.974 . S
H1426 C1440 0.929 . S
H1427 C1441 0.931 . S
H1428 C1443 0.930 . S
C1429 H1417 0.930 . S
C1429 C1430 1.399 . S
C1429 C1434 1.399 . S
C1430 C1429 1.399 . S
C1430 C1431 1.376 . S
C1431 H1418 0.930 . S
C1431 C1430 1.376 . S
C1431 C1432 1.388 . S
C1432 H1419 0.930 . S
C1432 C1431 1.388 . S
C1432 C1433 1.390 . S
C1433 C1432 1.390 . S
C1433 C1434 1.394 . S
C1433 C1439 1.465 1_554 S
C1434 C1429 1.399 . S
C1434 C1433 1.394 . S
C1434 C1435 1.516 1_554 S
C1435 C1434 1.516 1_556 S
C1435 C1436 1.502 . S
C1435 C1437 1.561 . S
C1435 C1438 1.526 . S
C1436 H1420 0.959 . S
C1436 H1421 0.959 . S
C1436 H1422 0.961 . S
C1436 C1435 1.502 . S
C1437 H1423 0.960 1_556 S
C1437 H1424 0.961 . S
C1437 H1425 0.974 . S
C1437 C1435 1.561 . S
C1438 C1435 1.526 . S
C1438 C1439 1.396 . S
C1438 C1443 1.390 . S
C1439 C1433 1.465 1_556 S
C1439 C1438 1.396 . S
C1439 C1440 1.399 . S
C1440 H1426 0.929 . S
C1440 C1439 1.399 . S
C1440 C1441 1.385 . S
C1441 H1427 0.931 . S
C1441 C1440 1.385 . S
C1441 C1442 1.389 . S
C1442 C1441 1.389 . S
C1442 C1443 1.387 . S
C1443 H1428 0.930 . S
C1443 C1438 1.390 . S
C1443 C1442 1.387 . S
H1444 C1456 0.930 . S
H1445 C1458 0.930 . S
H1446 C1459 0.930 . S
H1447 C1463 0.959 . S
H1448 C1463 0.959 . S
H1449 C1463 0.961 . S
H1450 C1464 0.960 . S
H1451 C1464 0.961 . S
H1452 C1464 0.959 . S
H1453 C1467 0.929 . S
H1454 C1468 0.931 . S
H1455 C1470 0.930 . S
C1456 H1444 0.930 . S
C1456 C1457 1.399 . S
C1456 C1461 1.399 . S
C1457 C1456 1.399 . S
C1457 C1458 1.376 . S
C1458 H1445 0.930 . S
C1458 C1457 1.376 . S
C1458 C1459 1.388 . S
C1459 H1446 0.930 . S
C1459 C1458 1.388 . S
C1459 C1460 1.390 . S
C1460 C1459 1.390 . S
C1460 C1461 1.394 . S
C1460 C1466 1.465 . S
C1461 C1456 1.399 . S
C1461 C1460 1.394 . S
C1461 C1462 1.516 . S
C1462 C1461 1.516 . S
C1462 C1463 1.502 . S
C1462 C1464 1.561 . S
C1462 C1465 1.526 . S
C1463 H1447 0.959 . S
C1463 H1448 0.959 . S
C1463 H1449 0.961 . S
C1463 C1462 1.502 . S
C1464 H1450 0.960 . S
C1464 H1451 0.961 . S
C1464 H1452 0.959 . S
C1464 C1462 1.561 . S
C1465 C1462 1.526 . S
C1465 C1466 1.396 . S
C1465 C1470 1.390 . S
C1466 C1460 1.465 . S
C1466 C1465 1.396 . S
C1466 C1467 1.399 . S
C1467 H1453 0.929 . S
C1467 C1466 1.399 . S
C1467 C1468 1.385 . S
C1468 H1454 0.931 . S
C1468 C1467 1.385 . S
C1468 C1469 1.389 . S
C1469 C1468 1.389 . S
C1469 C1470 1.387 . S
C1470 H1455 0.930 . S
C1470 C1465 1.390 . S
C1470 C1469 1.387 . S
H1471 C1483 0.930 . S
H1472 C1485 0.930 . S
H1473 C1486 0.931 . S
H1474 C1490 0.959 . S
H1475 C1490 0.959 . S
H1476 C1490 0.961 . S
H1477 C1491 0.960 . S
H1478 C1491 0.961 . S
H1479 C1491 0.959 . S
H1480 C1494 0.929 . S
H1481 C1495 0.931 . S
H1482 C1497 0.930 . S
C1483 H1471 0.930 . S
C1483 C1484 1.399 1_554 S
C1483 C1488 1.399 . S
C1484 C1483 1.399 1_556 S
C1484 C1485 1.376 . S
C1485 H1472 0.930 . S
C1485 C1484 1.376 . S
C1485 C1486 1.388 1_556 S
C1486 H1473 0.931 . S
C1486 C1485 1.388 1_554 S
C1486 C1487 1.390 . S
C1487 C1486 1.390 . S
C1487 C1488 1.394 . S
C1487 C1493 1.465 . S
C1488 C1483 1.399 . S
C1488 C1487 1.394 . S
C1488 C1489 1.516 . S
C1489 C1488 1.516 . S
C1489 C1490 1.502 . S
C1489 C1491 1.561 . S
C1489 C1492 1.526 . S
C1490 H1474 0.959 . S
C1490 H1475 0.959 . S
C1490 H1476 0.961 . S
C1490 C1489 1.502 . S
C1491 H1477 0.960 . S
C1491 H1478 0.961 . S
C1491 H1479 0.959 . S
C1491 C1489 1.561 . S
C1492 C1489 1.526 . S
C1492 C1493 1.396 . S
C1492 C1497 1.390 . S
C1493 C1487 1.465 . S
C1493 C1492 1.396 . S
C1493 C1494 1.399 . S
C1494 H1480 0.929 . S
C1494 C1493 1.399 . S
C1494 C1495 1.385 . S
C1495 H1481 0.931 . S
C1495 C1494 1.385 . S
C1495 C1496 1.389 . S
C1496 C1495 1.389 . S
C1496 C1497 1.387 . S
C1497 H1482 0.930 . S
C1497 C1492 1.390 . S
C1497 C1496 1.387 . S
H1498 C1510 0.930 . S
H1499 C1512 0.930 . S
H1500 C1513 0.930 . S
H1501 C1517 0.959 . S
H1502 C1517 0.959 . S
H1503 C1517 0.961 . S
H1504 C1518 0.960 . S
H1505 C1518 0.961 . S
H1506 C1518 0.959 . S
H1507 C1521 0.929 . S
H1508 C1522 0.931 . S
H1509 C1524 0.930 . S
C1510 H1498 0.930 . S
C1510 C1511 1.399 . S
C1510 C1515 1.399 . S
C1511 C1510 1.399 . S
C1511 C1512 1.376 . S
C1512 H1499 0.930 . S
C1512 C1511 1.376 . S
C1512 C1513 1.388 . S
C1513 H1500 0.930 . S
C1513 C1512 1.388 . S
C1513 C1514 1.390 . S
C1514 C1513 1.390 . S
C1514 C1515 1.394 . S
C1514 C1520 1.465 . S
C1515 C1510 1.399 . S
C1515 C1514 1.394 . S
C1515 C1516 1.516 . S
C1516 C1515 1.516 . S
C1516 C1517 1.502 . S
C1516 C1518 1.561 . S
C1516 C1519 1.526 . S
C1517 H1501 0.959 . S
C1517 H1502 0.959 . S
C1517 H1503 0.961 . S
C1517 C1516 1.502 . S
C1518 H1504 0.960 . S
C1518 H1505 0.961 . S
C1518 H1506 0.959 . S
C1518 C1516 1.561 . S
C1519 C1516 1.526 . S
C1519 C1520 1.396 . S
C1519 C1524 1.390 . S
C1520 C1514 1.465 . S
C1520 C1519 1.396 . S
C1520 C1521 1.399 . S
C1521 H1507 0.929 . S
C1521 C1520 1.399 . S
C1521 C1522 1.385 . S
C1522 H1508 0.931 . S
C1522 C1521 1.385 . S
C1522 C1523 1.389 . S
C1523 C1522 1.389 . S
C1523 C1524 1.387 . S
C1524 H1509 0.930 . S
C1524 C1519 1.390 . S
C1524 C1523 1.387 . S
H1525 C1537 0.930 . S
H1526 C1539 0.930 . S
H1527 C1540 0.930 . S
H1528 C1544 0.959 . S
H1529 C1544 0.959 . S
H1530 C1544 0.961 . S
H1531 C1545 0.960 . S
H1532 C1545 0.961 . S
H1533 C1545 0.959 . S
H1534 C1548 0.929 . S
H1535 C1549 0.931 . S
H1536 C1551 0.930 . S
C1537 H1525 0.930 . S
C1537 C1538 1.399 . S
C1537 C1542 1.399 1_556 S
C1538 C1537 1.399 . S
C1538 C1539 1.376 . S
C1539 H1526 0.930 . S
C1539 C1538 1.376 . S
C1539 C1540 1.388 1_556 S
C1540 H1527 0.930 . S
C1540 C1539 1.388 1_554 S
C1540 C1541 1.390 . S
C1541 C1540 1.390 . S
C1541 C1542 1.394 . S
C1541 C1547 1.465 . S
C1542 C1537 1.399 1_554 S
C1542 C1541 1.394 . S
C1542 C1543 1.516 . S
C1543 C1542 1.516 . S
C1543 C1544 1.502 . S
C1543 C1545 1.561 . S
C1543 C1546 1.526 . S
C1544 H1528 0.959 . S
C1544 H1529 0.959 . S
C1544 H1530 0.961 . S
C1544 C1543 1.502 . S
C1545 H1531 0.960 . S
C1545 H1532 0.961 . S
C1545 H1533 0.959 . S
C1545 C1543 1.561 . S
C1546 C1543 1.526 . S
C1546 C1547 1.396 . S
C1546 C1551 1.390 . S
C1547 C1541 1.465 . S
C1547 C1546 1.396 . S
C1547 C1548 1.399 . S
C1548 H1534 0.929 . S
C1548 C1547 1.399 . S
C1548 C1549 1.385 . S
C1549 H1535 0.931 . S
C1549 C1548 1.385 . S
C1549 C1550 1.389 . S
C1550 C1549 1.389 . S
C1550 C1551 1.387 . S
C1551 H1536 0.930 . S
C1551 C1546 1.390 . S
C1551 C1550 1.387 . S
H1552 C1564 0.930 . S
H1553 C1566 0.930 . S
H1554 C1567 0.930 . S
H1555 C1571 0.959 . S
H1556 C1571 0.959 . S
H1557 C1571 0.961 . S
H1558 C1572 0.960 . S
H1559 C1572 0.961 . S
H1560 C1572 0.959 . S
H1561 C1575 0.929 . S
H1562 C1576 0.931 . S
H1563 C1578 0.930 . S
C1564 H1552 0.930 . S
C1564 C1565 1.399 . S
C1564 C1569 1.399 . S
C1565 C1564 1.399 . S
C1565 C1566 1.376 . S
C1566 H1553 0.930 . S
C1566 C1565 1.376 . S
C1566 C1567 1.388 . S
C1567 H1554 0.930 . S
C1567 C1566 1.388 . S
C1567 C1568 1.390 . S
C1568 C1567 1.390 . S
C1568 C1569 1.394 . S
C1568 C1574 1.465 . S
C1569 C1564 1.399 . S
C1569 C1568 1.394 . S
C1569 C1570 1.516 . S
C1570 C1569 1.516 . S
C1570 C1571 1.502 . S
C1570 C1572 1.561 . S
C1570 C1573 1.526 . S
C1571 H1555 0.959 . S
C1571 H1556 0.959 . S
C1571 H1557 0.961 . S
C1571 C1570 1.502 . S
C1572 H1558 0.960 . S
C1572 H1559 0.961 . S
C1572 H1560 0.959 . S
C1572 C1570 1.561 . S
C1573 C1570 1.526 . S
C1573 C1574 1.396 . S
C1573 C1578 1.390 . S
C1574 C1568 1.465 . S
C1574 C1573 1.396 . S
C1574 C1575 1.399 . S
C1575 H1561 0.929 . S
C1575 C1574 1.399 . S
C1575 C1576 1.385 . S
C1576 H1562 0.931 . S
C1576 C1575 1.385 . S
C1576 C1577 1.389 . S
C1577 C1576 1.389 . S
C1577 C1578 1.387 . S
C1578 H1563 0.930 . S
C1578 C1573 1.390 . S
C1578 C1577 1.387 . S
H1579 C1591 0.930 . S
H1580 C1593 0.930 . S
H1581 C1594 0.930 . S
H1582 C1598 0.959 . S
H1583 C1598 0.959 . S
H1584 C1598 0.961 . S
H1585 C1599 0.960 . S
H1586 C1599 0.961 . S
H1587 C1599 0.959 . S
H1588 C1602 0.929 . S
H1589 C1603 0.931 . S
H1590 C1605 0.930 . S
C1591 H1579 0.930 . S
C1591 C1592 1.399 . S
C1591 C1596 1.399 . S
C1592 C1591 1.399 . S
C1592 C1593 1.376 . S
C1593 H1580 0.930 . S
C1593 C1592 1.376 . S
C1593 C1594 1.388 . S
C1594 H1581 0.930 . S
C1594 C1593 1.388 . S
C1594 C1595 1.390 . S
C1595 C1594 1.390 . S
C1595 C1596 1.394 . S
C1595 C1601 1.465 . S
C1596 C1591 1.399 . S
C1596 C1595 1.394 . S
C1596 C1597 1.516 . S
C1597 C1596 1.516 . S
C1597 C1598 1.502 . S
C1597 C1599 1.561 . S
C1597 C1600 1.526 . S
C1598 H1582 0.959 . S
C1598 H1583 0.959 . S
C1598 H1584 0.961 . S
C1598 C1597 1.502 . S
C1599 H1585 0.960 . S
C1599 H1586 0.961 . S
C1599 H1587 0.959 . S
C1599 C1597 1.561 . S
C1600 C1597 1.526 . S
C1600 C1601 1.396 . S
C1600 C1605 1.390 . S
C1601 C1595 1.465 . S
C1601 C1600 1.396 . S
C1601 C1602 1.399 . S
C1602 H1588 0.929 . S
C1602 C1601 1.399 . S
C1602 C1603 1.385 . S
C1603 H1589 0.931 . S
C1603 C1602 1.385 . S
C1603 C1604 1.389 . S
C1604 C1603 1.389 . S
C1604 C1605 1.387 . S
C1605 H1590 0.930 . S
C1605 C1600 1.390 . S
C1605 C1604 1.387 . S
H1606 C1618 0.930 . S
H1607 C1620 0.930 . S
H1608 C1621 0.930 . S
H1609 C1625 0.959 . S
H1610 C1625 0.959 . S
H1611 C1625 0.961 . S
H1612 C1626 0.960 . S
H1613 C1626 0.961 . S
H1614 C1626 0.959 . S
H1615 C1629 0.929 . S
H1616 C1630 0.931 . S
H1617 C1632 0.930 . S
C1618 H1606 0.930 . S
C1618 C1619 1.399 . S
C1618 C1623 1.399 . S
C1619 C1618 1.399 . S
C1619 C1620 1.376 . S
C1620 H1607 0.930 . S
C1620 C1619 1.376 . S
C1620 C1621 1.388 . S
C1621 H1608 0.930 . S
C1621 C1620 1.388 . S
C1621 C1622 1.390 . S
C1622 C1621 1.390 . S
C1622 C1623 1.394 . S
C1622 C1628 1.465 . S
C1623 C1618 1.399 . S
C1623 C1622 1.394 . S
C1623 C1624 1.516 . S
C1624 C1623 1.516 . S
C1624 C1625 1.502 . S
C1624 C1626 1.561 . S
C1624 C1627 1.526 . S
C1625 H1609 0.959 . S
C1625 H1610 0.959 . S
C1625 H1611 0.961 . S
C1625 C1624 1.502 . S
C1626 H1612 0.960 . S
C1626 H1613 0.961 . S
C1626 H1614 0.959 . S
C1626 C1624 1.561 . S
C1627 C1624 1.526 . S
C1627 C1628 1.396 . S
C1627 C1632 1.390 . S
C1628 C1622 1.465 . S
C1628 C1627 1.396 . S
C1628 C1629 1.399 . S
C1629 H1615 0.929 . S
C1629 C1628 1.399 . S
C1629 C1630 1.385 . S
C1630 H1616 0.931 . S
C1630 C1629 1.385 . S
C1630 C1631 1.389 . S
C1631 C1630 1.389 . S
C1631 C1632 1.387 . S
C1632 H1617 0.930 . S
C1632 C1627 1.390 . S
C1632 C1631 1.387 . S
H1633 C1645 0.930 . S
H1634 C1647 0.930 . S
H1635 C1648 0.930 . S
H1636 C1652 0.959 . S
H1637 C1652 0.959 . S
H1638 C1652 0.961 . S
H1639 C1653 0.960 . S
H1640 C1653 0.961 . S
H1641 C1653 0.959 . S
H1642 C1656 0.929 . S
H1643 C1657 0.931 . S
H1644 C1659 0.930 . S
C1645 H1633 0.930 . S
C1645 C1646 1.399 . S
C1645 C1650 1.399 . S
C1646 C1645 1.399 . S
C1646 C1647 1.376 . S
C1647 H1634 0.930 . S
C1647 C1646 1.376 . S
C1647 C1648 1.388 . S
C1648 H1635 0.930 . S
C1648 C1647 1.388 . S
C1648 C1649 1.390 . S
C1649 C1648 1.390 . S
C1649 C1650 1.394 . S
C1649 C1655 1.465 . S
C1650 C1645 1.399 . S
C1650 C1649 1.394 . S
C1650 C1651 1.516 . S
C1651 C1650 1.516 . S
C1651 C1652 1.502 . S
C1651 C1653 1.561 . S
C1651 C1654 1.526 . S
C1652 H1636 0.959 . S
C1652 H1637 0.959 . S
C1652 H1638 0.961 . S
C1652 C1651 1.502 . S
C1653 H1639 0.960 . S
C1653 H1640 0.961 . S
C1653 H1641 0.959 . S
C1653 C1651 1.561 . S
C1654 C1651 1.526 . S
C1654 C1655 1.396 . S
C1654 C1659 1.390 . S
C1655 C1649 1.465 . S
C1655 C1654 1.396 . S
C1655 C1656 1.399 . S
C1656 H1642 0.929 . S
C1656 C1655 1.399 . S
C1656 C1657 1.385 . S
C1657 H1643 0.931 . S
C1657 C1656 1.385 . S
C1657 C1658 1.389 . S
C1658 C1657 1.389 . S
C1658 C1659 1.387 . S
C1659 H1644 0.930 . S
C1659 C1654 1.390 . S
C1659 C1658 1.387 . S
H1660 C1672 0.930 . S
H1661 C1674 0.930 . S
H1662 C1675 0.930 . S
H1663 C1679 0.959 . S
H1664 C1679 0.959 1_554 S
H1665 C1679 0.961 . S
H1666 C1680 0.960 . S
H1667 C1680 0.961 . S
H1668 C1680 0.959 . S
H1669 C1683 0.929 . S
H1670 C1684 0.931 . S
H1671 C1686 0.930 . S
C1672 H1660 0.930 . S
C1672 C1673 1.399 . S
C1672 C1677 1.399 . S
C1673 C1672 1.399 . S
C1673 C1674 1.376 . S
C1674 H1661 0.930 . S
C1674 C1673 1.376 . S
C1674 C1675 1.388 . S
C1675 H1662 0.930 . S
C1675 C1674 1.388 . S
C1675 C1676 1.390 . S
C1676 C1675 1.390 . S
C1676 C1677 1.394 . S
C1676 C1682 1.465 . S
C1677 C1672 1.399 . S
C1677 C1676 1.394 . S
C1677 C1678 1.516 . S
C1678 C1677 1.516 . S
C1678 C1679 1.502 . S
C1678 C1680 1.561 1_556 S
C1678 C1681 1.526 . S
C1679 H1663 0.959 . S
C1679 H1664 0.959 1_556 S
C1679 H1665 0.961 . S
C1679 C1678 1.502 . S
C1680 H1666 0.960 . S
C1680 H1667 0.961 . S
C1680 H1668 0.959 . S
C1680 C1678 1.561 1_554 S
C1681 C1678 1.526 . S
C1681 C1682 1.396 . S
C1681 C1686 1.390 . S
C1682 C1676 1.465 . S
C1682 C1681 1.396 . S
C1682 C1683 1.399 . S
C1683 H1669 0.929 . S
C1683 C1682 1.399 . S
C1683 C1684 1.385 . S
C1684 H1670 0.931 . S
C1684 C1683 1.385 . S
C1684 C1685 1.389 . S
C1685 C1684 1.389 . S
C1685 C1686 1.387 . S
C1686 H1671 0.930 . S
C1686 C1681 1.390 . S
C1686 C1685 1.387 . S
H1687 C1699 0.930 . S
H1688 C1701 0.930 . S
H1689 C1702 0.930 . S
H1690 C1706 0.959 . S
H1691 C1706 0.959 . S
H1692 C1706 0.961 . S
H1693 C1707 0.960 . S
H1694 C1707 0.961 . S
H1695 C1707 0.959 . S
H1696 C1710 0.929 . S
H1697 C1711 0.931 . S
H1698 C1713 0.930 . S
C1699 H1687 0.930 . S
C1699 C1700 1.399 . S
C1699 C1704 1.399 . S
C1700 C1699 1.399 . S
C1700 C1701 1.376 . S
C1701 H1688 0.930 . S
C1701 C1700 1.376 . S
C1701 C1702 1.388 . S
C1702 H1689 0.930 . S
C1702 C1701 1.388 . S
C1702 C1703 1.390 . S
C1703 C1702 1.390 . S
C1703 C1704 1.394 . S
C1703 C1709 1.465 . S
C1704 C1699 1.399 . S
C1704 C1703 1.394 . S
C1704 C1705 1.516 . S
C1705 C1704 1.516 . S
C1705 C1706 1.502 . S
C1705 C1707 1.561 . S
C1705 C1708 1.526 . S
C1706 H1690 0.959 . S
C1706 H1691 0.959 . S
C1706 H1692 0.961 . S
C1706 C1705 1.502 . S
C1707 H1693 0.960 . S
C1707 H1694 0.961 . S
C1707 H1695 0.959 . S
C1707 C1705 1.561 . S
C1708 C1705 1.526 . S
C1708 C1709 1.396 . S
C1708 C1713 1.390 . S
C1709 C1703 1.465 . S
C1709 C1708 1.396 . S
C1709 C1710 1.399 . S
C1710 H1696 0.929 . S
C1710 C1709 1.399 . S
C1710 C1711 1.385 . S
C1711 H1697 0.931 . S
C1711 C1710 1.385 . S
C1711 C1712 1.389 . S
C1712 C1711 1.389 . S
C1712 C1713 1.387 . S
C1713 H1698 0.930 . S
C1713 C1708 1.390 . S
C1713 C1712 1.387 . S
H1714 C1726 0.930 . S
H1715 C1728 0.930 . S
H1716 C1729 0.930 . S
H1717 C1733 0.959 . S
H1718 C1733 0.959 . S
H1719 C1733 0.961 . S
H1720 C1734 0.960 . S
H1721 C1734 0.961 . S
H1722 C1734 0.959 . S
H1723 C1737 0.929 . S
H1724 C1738 0.931 . S
H1725 C1740 0.930 . S
C1726 H1714 0.930 . S
C1726 C1727 1.399 . S
C1726 C1731 1.399 . S
C1727 C1726 1.399 . S
C1727 C1728 1.376 . S
C1728 H1715 0.930 . S
C1728 C1727 1.376 . S
C1728 C1729 1.388 . S
C1729 H1716 0.930 . S
C1729 C1728 1.388 . S
C1729 C1730 1.390 . S
C1730 C1729 1.390 . S
C1730 C1731 1.394 . S
C1730 C1736 1.465 . S
C1731 C1726 1.399 . S
C1731 C1730 1.394 . S
C1731 C1732 1.516 . S
C1732 C1731 1.516 . S
C1732 C1733 1.502 . S
C1732 C1734 1.561 1_554 S
C1732 C1735 1.526 . S
C1733 H1717 0.959 . S
C1733 H1718 0.959 . S
C1733 H1719 0.961 . S
C1733 C1732 1.502 . S
C1734 H1720 0.960 . S
C1734 H1721 0.961 . S
C1734 H1722 0.959 . S
C1734 C1732 1.561 1_556 S
C1735 C1732 1.526 . S
C1735 C1736 1.396 . S
C1735 C1740 1.390 . S
C1736 C1730 1.465 . S
C1736 C1735 1.396 . S
C1736 C1737 1.399 . S
C1737 H1723 0.929 . S
C1737 C1736 1.399 . S
C1737 C1738 1.385 . S
C1738 H1724 0.931 . S
C1738 C1737 1.385 . S
C1738 C1739 1.389 . S
C1739 C1738 1.389 . S
C1739 C1740 1.387 . S
C1740 H1725 0.930 . S
C1740 C1735 1.390 . S
C1740 C1739 1.387 . S
H1741 C1753 0.930 . S
H1742 C1755 0.930 . S
H1743 C1756 0.930 . S
H1744 C1760 0.959 . S
H1745 C1760 0.959 . S
H1746 C1760 0.961 . S
H1747 C1761 0.960 . S
H1748 C1761 0.961 . S
H1749 C1761 0.959 . S
H1750 C1764 0.929 . S
H1751 C1765 0.931 . S
H1752 C1767 0.930 . S
C1753 H1741 0.930 . S
C1753 C1754 1.399 . S
C1753 C1758 1.399 . S
C1754 C1753 1.399 . S
C1754 C1755 1.376 . S
C1755 H1742 0.930 . S
C1755 C1754 1.376 . S
C1755 C1756 1.388 . S
C1756 H1743 0.930 . S
C1756 C1755 1.388 . S
C1756 C1757 1.390 . S
C1757 C1756 1.390 . S
C1757 C1758 1.394 . S
C1757 C1763 1.465 . S
C1758 C1753 1.399 . S
C1758 C1757 1.394 . S
C1758 C1759 1.516 . S
C1759 C1758 1.516 . S
C1759 C1760 1.502 . S
C1759 C1761 1.561 . S
C1759 C1762 1.526 . S
C1760 H1744 0.959 . S
C1760 H1745 0.959 . S
C1760 H1746 0.961 . S
C1760 C1759 1.502 . S
C1761 H1747 0.960 . S
C1761 H1748 0.961 . S
C1761 H1749 0.959 . S
C1761 C1759 1.561 . S
C1762 C1759 1.526 . S
C1762 C1763 1.396 . S
C1762 C1767 1.390 . S
C1763 C1757 1.465 . S
C1763 C1762 1.396 . S
C1763 C1764 1.399 . S
C1764 H1750 0.929 . S
C1764 C1763 1.399 . S
C1764 C1765 1.385 . S
C1765 H1751 0.931 . S
C1765 C1764 1.385 . S
C1765 C1766 1.389 . S
C1766 C1765 1.389 . S
C1766 C1767 1.387 . S
C1767 H1752 0.930 . S
C1767 C1762 1.390 . S
C1767 C1766 1.387 . S
C497 C312 2.031 . S
C485 C101 2.054 . S
C524 C327 1.486 . S
C512 C125 1.484 . S
C539 C139 2.233 . S
C551 C340 2.187 . S
C578 C354 1.703 . S
C566 C82 1.712 . S
C605 C366 1.802 . S
C593 C196 1.926 . S
C632 C380 1.618 . S
C620 C234 1.654 . S
C647 C220 1.070 . S
C659 C394 1.187 . S
C686 C409 1.543 . S
C674 C173 1.551 . S
C701 C211 1.414 . S
C713 C425 1.294 . S
C740 C438 1.144 . S
C728 C182 1.111 . S
C755 C201 1.456 . S
C767 C423 1.576 . S
C794 C436 1.681 . S
C782 C239 1.670 . S
C809 C135 2.025 . S
C821 C452 2.020 . S
C836 C87 1.798 . S
C848 C451 1.852 . S
C863 C106 1.362 . S
C875 C450 1.446 . S
C890 C116 1.282 . S
C902 C453 1.376 . S
C917 C59 2.102 . S
C929 C355 2.095 1_565 S
C944 C268 2.061 . S
C956 C353 2.047 . S
C983 C313 1.252 . S
C971 C291 1.193 . S
C1010 C324 1.724 . S
C998 C163 1.618 . S
C1025 C78 1.820 . S
C1037 C369 1.853 . S
C1064 C410 1.656 . S
C1052 C215 1.648 . S
C1091 C367 1.900 . S
C1079 C177 1.896 . S
C1118 C395 1.675 . S
C1106 C230 1.671 . S
C1145 C396 2.053 . S
C1133 C272 2.040 . S
C1160 C296 1.425 . S
C1172 C411 1.464 . S
C1187 C158 2.231 . S
C1199 C368 2.178 . S
C1226 C382 1.662 . S
C1214 C253 1.729 . S
C1241 C63 1.941 . S
C1253 C338 1.760 . S
C1280 C352 1.620 . S
C1268 C6 1.654 . S
C1307 C310 1.167 . S
C1295 C30 1.123 . S
C1334 C325 1.551 . S
C1322 C40 1.565 . S
C1349 C21 1.428 . S
C1361 C439 1.281 . S
C1376 C49 1.073 . S
C1388 C424 1.152 . S
C1403 C68 1.433 . S
C1415 C437 1.626 . S
C1430 C11 1.612 . S
C1442 C422 1.626 . S
C1469 C466 2.034 . S
C1457 C154 2.043 . S
C1496 C465 1.872 . S
C1484 C258 1.808 . S
C1523 C464 1.437 . S
C1511 C277 1.384 . S
C1538 C287 1.269 . S
C1550 C467 1.380 . S
C1565 C192 2.090 . S
C1577 C383 2.105 . S
C1604 C381 2.042 . S
C1592 C97 2.064 . S
C1631 C397 1.203 . S
C1619 C120 1.203 . S
C1658 C408 1.725 . S
C1646 C144 1.625 . S
C1673 C249 1.856 . S
C1685 C341 1.840 . S
C1712 C326 1.636 . S
C1700 C25 1.640 . S
C1727 C44 1.956 . S
C1739 C339 1.895 . S
C1766 C311 1.676 1_545 S
C1754 C2 1.679 . S
