# Generated by pormake.
# Topology zzz, (3,6)-cn, num edge types: 1
# Building blocks:
#     Node 0, Type 0, BuildingBlock: KAKCAD_clean_linker_0, # of connection points: 3
#     Node 1, Type 0, BuildingBlock: KAKCAD_clean_linker_0, # of connection points: 3
#     Node 2, Type 0, BuildingBlock: KAKCAD_clean_linker_0, # of connection points: 3
#     Node 3, Type 0, BuildingBlock: KAKCAD_clean_linker_0, # of connection points: 3
#     Node 4, Type 0, BuildingBlock: KAKCAD_clean_linker_0, # of connection points: 3
#     Node 5, Type 0, BuildingBlock: KAKCAD_clean_linker_0, # of connection points: 3
#     Node 6, Type 0, BuildingBlock: KAKCAD_clean_linker_0, # of connection points: 3
#     Node 7, Type 0, BuildingBlock: KAKCAD_clean_linker_0, # of connection points: 3
#     Node 8, Type 1, BuildingBlock: KUMBOL_clean_sbu_1, # of connection points: 6
#     Node 9, Type 1, BuildingBlock: KUMBOL_clean_sbu_1, # of connection points: 6
#     Node 10, Type 1, BuildingBlock: KUMBOL_clean_sbu_1, # of connection points: 6
#     Node 11, Type 1, BuildingBlock: KUMBOL_clean_sbu_1, # of connection points: 6
#     Edge 12, Type (0, 1), BuildingBlock: TEMPAE_clean_linker_10, # of connection points: 2
#     Edge 13, Type (0, 1), BuildingBlock: TEMPAE_clean_linker_10, # of connection points: 2
#     Edge 14, Type (0, 1), BuildingBlock: TEMPAE_clean_linker_10, # of connection points: 2
#     Edge 15, Type (0, 1), BuildingBlock: TEMPAE_clean_linker_10, # of connection points: 2
#     Edge 16, Type (0, 1), BuildingBlock: TEMPAE_clean_linker_10, # of connection points: 2
#     Edge 17, Type (0, 1), BuildingBlock: TEMPAE_clean_linker_10, # of connection points: 2
#     Edge 18, Type (0, 1), BuildingBlock: TEMPAE_clean_linker_10, # of connection points: 2
#     Edge 19, Type (0, 1), BuildingBlock: TEMPAE_clean_linker_10, # of connection points: 2
#     Edge 20, Type (0, 1), BuildingBlock: TEMPAE_clean_linker_10, # of connection points: 2
#     Edge 21, Type (0, 1), BuildingBlock: TEMPAE_clean_linker_10, # of connection points: 2
#     Edge 22, Type (0, 1), BuildingBlock: TEMPAE_clean_linker_10, # of connection points: 2
#     Edge 23, Type (0, 1), BuildingBlock: TEMPAE_clean_linker_10, # of connection points: 2
#     Edge 24, Type (0, 1), BuildingBlock: TEMPAE_clean_linker_10, # of connection points: 2
#     Edge 25, Type (0, 1), BuildingBlock: TEMPAE_clean_linker_10, # of connection points: 2
#     Edge 26, Type (0, 1), BuildingBlock: TEMPAE_clean_linker_10, # of connection points: 2
#     Edge 27, Type (0, 1), BuildingBlock: TEMPAE_clean_linker_10, # of connection points: 2
#     Edge 28, Type (0, 1), BuildingBlock: TEMPAE_clean_linker_10, # of connection points: 2
#     Edge 29, Type (0, 1), BuildingBlock: TEMPAE_clean_linker_10, # of connection points: 2
#     Edge 30, Type (0, 1), BuildingBlock: TEMPAE_clean_linker_10, # of connection points: 2
#     Edge 31, Type (0, 1), BuildingBlock: TEMPAE_clean_linker_10, # of connection points: 2
#     Edge 32, Type (0, 1), BuildingBlock: TEMPAE_clean_linker_10, # of connection points: 2
#     Edge 33, Type (0, 1), BuildingBlock: TEMPAE_clean_linker_10, # of connection points: 2
#     Edge 34, Type (0, 1), BuildingBlock: TEMPAE_clean_linker_10, # of connection points: 2
#     Edge 35, Type (0, 1), BuildingBlock: TEMPAE_clean_linker_10, # of connection points: 2
# Relax obj value: 0.310
# Max RMSD: 0.208
# Mean RMSD: 0.181
data_MOF--net-zzz--node1-KUMBOL_clean_sbu_1--node2-KAKCAD_clean_linker_0--edge1-TEMPAE_clean_linker_10
_symmetry_space_group_name_H-M    P1
_symmetry_Int_Tables_number       1
_symmetry_cell_setting            triclinic
loop_
_symmetry_equiv_pos_as_xyz
'x, y, z'
_cell_length_a     57.303383
_cell_length_b     57.284573
_cell_length_c     21.119546
_cell_angle_alpha  90.022394
_cell_angle_beta   89.690316
_cell_angle_gamma 90.490599
loop_
_atom_site_label
_atom_site_type_symbol
_atom_site_fract_x
_atom_site_fract_y
_atom_site_fract_z
_atom_type_partial_charge
C0 C 0.79772 0.59614 0.9802 0.0
C1 C 0.82002 0.58609 0.97775 0.0
C2 C 0.783 0.59212 0.03239 0.0
C3 C 0.79033 0.57794 0.08288 0.0
C4 C 0.81323 0.56945 0.0822 0.0
C5 C 0.82781 0.57345 0.03059 0.0
C6 C 0.77361 0.5688 0.13114 0.0
C7 C 0.7515 0.56088 0.11249 0.0
C8 C 0.73763 0.54696 0.15272 0.0
C9 C 0.74623 0.54074 0.21307 0.0
C10 C 0.76826 0.54924 0.23298 0.0
C11 C 0.78125 0.56383 0.19258 0.0
C12 C 0.78043 0.54072 0.29039 0.0
C13 C 0.78404 0.55583 0.34195 0.0
C14 C 0.79415 0.52058 0.28557 0.0
C15 C 0.81212 0.51643 0.32889 0.0
C16 C 0.81665 0.53224 0.37845 0.0
C17 C 0.7154 0.53768 0.12635 0.0
C18 C 0.69393 0.54766 0.14318 0.0
C19 C 0.71627 0.52276 0.07357 0.0
C20 C 0.69652 0.51901 0.0361 0.0
C21 C 0.67534 0.53016 0.05023 0.0
C22 C 0.67403 0.54384 0.10565 0.0
C23 C 0.80178 0.55148 0.386 0.0
H24 H 0.79125 0.60618 0.94069 0.0
H25 H 0.76553 0.59919 0.03188 0.0
H26 H 0.81944 0.55802 0.11918 0.0
H27 H 0.84456 0.56485 0.03037 0.0
H28 H 0.74554 0.56422 0.06472 0.0
H29 H 0.79835 0.56987 0.20753 0.0
H30 H 0.73632 0.52891 0.24306 0.0
H31 H 0.77422 0.57186 0.34564 0.0
H32 H 0.79221 0.50901 0.24529 0.0
H33 H 0.82317 0.50139 0.32196 0.0
H34 H 0.69291 0.55963 0.18278 0.0
H35 H 0.73268 0.51511 0.05906 0.0
H36 H 0.80491 0.56408 0.42333 0.0
H37 H 0.65804 0.55276 0.11785 0.0
H38 H 0.69809 0.50804 0.99454 0.0
C39 C 0.94587 0.81803 0.9988 0.0
C40 C 0.96061 0.83779 0.99908 0.0
C41 C 0.94664 0.80186 0.04852 0.0
C42 C 0.96225 0.80514 0.09903 0.0
C43 C 0.97623 0.8254 0.10012 0.0
C44 C 0.97537 0.84149 0.05108 0.0
C45 C 0.96591 0.78684 0.14774 0.0
C46 C 0.96713 0.76325 0.13068 0.0
C47 C 0.97481 0.74624 0.17378 0.0
C48 C 0.98206 0.75341 0.235 0.0
C49 C 0.98015 0.77713 0.25298 0.0
C50 C 0.97139 0.7933 0.20976 0.0
C51 C 0.98909 0.78703 0.31323 0.0
C52 C 0.97329 0.79234 0.36223 0.0
C53 C 0.01079 0.79865 0.31188 0.0
C54 C 0.01572 0.81668 0.35479 0.0
C55 C 0.99914 0.82333 0.40056 0.0
C56 C 0.97613 0.7216 0.15074 0.0
C57 C 0.95723 0.71211 0.1167 0.0
C58 C 0.99703 0.70892 0.15289 0.0
C59 C 0.99941 0.68808 0.11806 0.0
C60 C 0.98098 0.67963 0.08021 0.0
C61 C 0.95965 0.69152 0.08182 0.0
C62 C 0.97838 0.81017 0.40595 0.0
H63 H 0.93431 0.81474 0.95935 0.0
H64 H 0.93547 0.78653 0.04659 0.0
H65 H 0.98895 0.82829 0.13712 0.0
H66 H 0.98748 0.85611 0.05215 0.0
H67 H 0.96337 0.75821 0.08229 0.0
H68 H 0.97011 0.81147 0.22379 0.0
H69 H 0.98905 0.74081 0.26792 0.0
H70 H 0.95615 0.78423 0.36315 0.0
H71 H 0.023 0.79542 0.27356 0.0
H72 H 0.03191 0.82641 0.34966 0.0
H73 H 0.94082 0.72131 0.11454 0.0
H74 H 0.01196 0.71585 0.17815 0.0
H75 H 0.9652 0.81497 0.44044 0.0
H76 H 0.94496 0.68527 0.05432 0.0
H77 H 0.01609 0.67932 0.11787 0.0
C78 C 0.71285 0.94025 0.05671 0.0
C79 C 0.70951 0.9571 1.00898 0.0
C80 C 0.73082 0.94294 0.10074 0.0
C81 C 0.74627 0.96199 0.09628 0.0
C82 C 0.7447 0.97716 0.04449 0.0
C83 C 0.72646 0.97489 1.00166 0.0
C84 C 0.76158 0.96854 0.14953 0.0
C85 C 0.78475 0.975 0.13797 0.0
C86 C 0.79807 0.9863 0.18445 0.0
C87 C 0.7878 0.99121 0.24417 0.0
C88 C 0.76446 0.98407 0.25683 0.0
C89 C 0.75179 0.97249 0.20939 0.0
C90 C 0.75152 0.99004 0.31599 0.0
C91 C 0.74371 0.97205 0.35624 0.0
C92 C 0.74184 0.01234 0.32337 0.0
C93 C 0.72379 0.01621 0.36749 0.0
C94 C 0.71492 0.99782 0.40536 0.0
C95 C 0.82182 0.99417 0.16497 0.0
C96 C 0.84095 0.97923 0.17244 0.0
C97 C 0.8239 0.0129 0.12231 0.0
C98 C 0.84395 0.01568 0.08474 0.0
C99 C 0.8625 0.99982 0.08888 0.0
C100 C 0.86119 0.98215 0.13517 0.0
C101 C 0.72586 0.97592 0.40067 0.0
H102 H 0.70071 0.92584 0.06274 0.0
H103 H 0.73195 0.93085 0.14002 0.0
H104 H 0.75634 0.99209 0.04023 0.0
H105 H 0.72465 0.98847 0.9665 0.0
H106 H 0.79219 0.97215 0.09125 0.0
H107 H 0.73356 0.96811 0.21767 0.0
H108 H 0.79761 1.00072 0.27964 0.0
H109 H 0.75053 0.95457 0.35078 0.0
H110 H 0.74702 0.02637 0.29174 0.0
H111 H 0.71581 0.03326 0.3689 0.0
H112 H 0.83954 0.96424 0.20352 0.0
H113 H 0.80921 0.02431 0.11441 0.0
H114 H 0.72001 0.96141 0.42969 0.0
H115 H 0.8751 0.96957 0.1394 0.0
H116 H 0.84448 0.02964 0.05015 0.0
C117 C 0.51341 0.72307 0.32063 0.0
C118 C 0.52365 0.71964 0.38033 0.0
C119 C 0.5185 0.74314 0.28499 0.0
C120 C 0.53398 0.76025 0.30804 0.0
C121 C 0.54297 0.75765 0.36938 0.0
C122 C 0.53769 0.73766 0.40543 0.0
C123 C 0.54637 0.77556 0.26189 0.0
C124 C 0.53857 0.7979 0.24379 0.0
C125 C 0.55052 0.81032 0.19537 0.0
C126 C 0.56953 0.7999 0.16432 0.0
C127 C 0.57653 0.77724 0.17976 0.0
C128 C 0.56538 0.76569 0.23017 0.0
C129 C 0.59093 0.76326 0.13527 0.0
C130 C 0.58516 0.76331 0.07064 0.0
C131 C 0.60492 0.74513 0.15848 0.0
C132 C 0.60851 0.72516 0.12186 0.0
C133 C 0.5985 0.72341 0.06148 0.0
C134 C 0.54244 0.83309 0.17045 0.0
C135 C 0.52275 0.834 0.13127 0.0
C136 C 0.5573 0.85266 0.17347 0.0
C137 C 0.5533 0.87227 0.1356 0.0
C138 C 0.53455 0.87265 0.09269 0.0
C139 C 0.51884 0.85356 0.09274 0.0
C140 C 0.58903 0.74348 0.03383 0.0
H141 H 0.50233 0.70968 0.30014 0.0
H142 H 0.51188 0.74436 0.23716 0.0
H143 H 0.55555 0.77018 0.38743 0.0
H144 H 0.54599 0.73556 0.45099 0.0
H145 H 0.52331 0.80534 0.26625 0.0
H146 H 0.57006 0.74787 0.24152 0.0
H147 H 0.57787 0.80887 0.12493 0.0
H148 H 0.57464 0.77707 0.05074 0.0
H149 H 0.6103 0.74498 0.20758 0.0
H150 H 0.61632 0.71003 0.14373 0.0
H151 H 0.51133 0.81892 0.12697 0.0
H152 H 0.57278 0.85226 0.2027 0.0
H153 H 0.58133 0.74273 0.9871 0.0
H154 H 0.50433 0.85301 0.06015 0.0
H155 H 0.56548 0.88679 0.13822 0.0
C156 C 0.25587 0.45653 0.34444 0.0
C157 C 0.23196 0.4511 0.34586 0.0
C158 C 0.26759 0.45898 0.28692 0.0
C159 C 0.25605 0.45482 0.22908 0.0
C160 C 0.23317 0.44564 0.23156 0.0
C161 C 0.22111 0.4442 0.28918 0.0
C162 C 0.26675 0.46288 0.16787 0.0
C163 C 0.29095 0.4658 0.16241 0.0
C164 C 0.30107 0.47854 0.11254 0.0
C165 C 0.28674 0.48658 0.06277 0.0
C166 C 0.2625 0.48142 0.0637 0.0
C167 C 0.25279 0.47044 0.11748 0.0
C168 C 0.24627 0.48711 1.01066 0.0
C169 C 0.24331 0.51007 0.98852 0.0
C170 C 0.23082 0.46966 0.98901 0.0
C171 C 0.212 0.47514 0.95008 0.0
C172 C 0.20801 0.49826 0.93107 0.0
C173 C 0.32626 0.48457 0.1198 0.0
C174 C 0.33266 0.50722 0.13921 0.0
C175 C 0.34217 0.46633 0.12961 0.0
C176 C 0.36253 0.47006 0.16468 0.0
C177 C 0.36776 0.49222 0.18949 0.0
C178 C 0.35332 0.51104 0.17355 0.0
C179 C 0.22438 0.51558 0.94887 0.0
H180 H 0.26506 0.46104 0.38749 0.0
H181 H 0.28513 0.46601 0.28875 0.0
H182 H 0.22392 0.44095 0.18883 0.0
H183 H 0.20276 0.43958 0.28824 0.0
H184 H 0.30221 0.45924 0.19922 0.0
H185 H 0.234 0.4687 0.12045 0.0
H186 H 0.29439 0.49618 0.02355 0.0
H187 H 0.25477 0.52393 1.00476 0.0
H188 H 0.2327 0.45178 1.00476 0.0
H189 H 0.20008 0.46128 0.93627 0.0
H190 H 0.32055 0.5215 0.13372 0.0
H191 H 0.33755 0.44863 0.11619 0.0
H192 H 0.22184 0.53357 0.93495 0.0
H193 H 0.35692 0.52829 0.19236 0.0
H194 H 0.3734 0.45528 0.17612 0.0
C195 C 0.10038 0.25169 0.28786 0.0
C196 C 0.11223 0.23203 0.26464 0.0
C197 C 0.0928 0.26891 0.24642 0.0
C198 C 0.09703 0.26684 0.18108 0.0
C199 C 0.11227 0.2494 0.15963 0.0
C200 C 0.11997 0.23217 0.20129 0.0
C201 C 0.08149 0.27911 0.13625 0.0
C202 C 0.07455 0.30206 0.14802 0.0
C203 C 0.05547 0.3119 0.11633 0.0
C204 C 0.04344 0.29832 0.07049 0.0
C205 C 0.05101 0.2754 0.05638 0.0
C206 C 0.07004 0.26623 0.0892 0.0
C207 C 0.03867 0.25924 1.01236 0.0
C208 C 0.02622 0.24015 0.03781 0.0
C209 C 0.04449 0.25891 0.94764 0.0
C210 C 0.03905 0.23933 0.91002 0.0
C211 C 0.028 0.21952 0.93664 0.0
C212 C 0.04764 0.33541 0.13808 0.0
C213 C 0.02505 0.33869 0.16282 0.0
C214 C 0.06439 0.35323 0.14703 0.0
C215 C 0.05943 0.3727 0.18457 0.0
C216 C 0.03747 0.37513 0.21356 0.0
C217 C 0.01998 0.35844 0.20004 0.0
C218 C 0.02093 0.22058 1.00052 0.0
H219 H 0.09414 0.25234 0.33632 0.0
H220 H 0.08121 0.28215 0.2648 0.0
H221 H 0.11638 0.24778 0.1097 0.0
H222 H 0.1297 0.21759 0.18236 0.0
H223 H 0.08319 0.31185 0.18522 0.0
H224 H 0.07485 0.2482 0.08088 0.0
H225 H 0.02827 0.3053 0.04699 0.0
H226 H 0.02198 0.23971 0.08787 0.0
H227 H 0.05468 0.27305 0.92723 0.0
H228 H 0.04487 0.2391 0.86116 0.0
H229 H 0.01186 0.32519 0.1575 0.0
H230 H 0.08193 0.35129 0.12842 0.0
H231 H 0.01211 0.20585 0.02245 0.0
H232 H 1.00288 0.35984 0.22172 0.0
H233 H 0.07315 0.38542 0.19323 0.0
C234 C 0.27748 0.10098 0.28934 0.0
C235 C 0.29812 0.11216 0.26966 0.0
C236 C 0.26159 0.09284 0.2446 0.0
C237 C 0.26585 0.09625 0.17944 0.0
C238 C 0.28427 0.11131 0.16131 0.0
C239 C 0.30051 0.11893 0.20608 0.0
C240 C 0.25463 0.08033 0.1324 0.0
C241 C 0.23235 0.07093 0.14388 0.0
C242 C 0.22426 0.05125 0.11086 0.0
C243 C 0.23823 0.04155 0.06212 0.0
C244 C 0.25994 0.05211 0.04632 0.0
C245 C 0.2679 0.07118 0.08219 0.0
C246 C 0.2759 0.04329 0.99572 0.0
C247 C 0.2881 0.02232 1.00359 0.0
C248 C 0.28294 0.05847 0.94677 0.0
C249 C 0.30235 0.05344 0.90859 0.0
C250 C 0.31551 0.03313 0.91854 0.0
C251 C 0.20213 0.04051 0.13429 0.0
C252 C 0.20297 0.02386 0.18302 0.0
C253 C 0.18087 0.0517 0.12257 0.0
C254 C 0.16126 0.04734 0.16103 0.0
C255 C 0.16251 0.03198 0.21308 0.0
C256 C 0.18342 0.01961 0.22189 0.0
C257 C 0.30769 0.01731 0.96551 0.0
H258 H 0.27527 0.0955 0.33814 0.0
H259 H 0.24766 0.08151 0.26123 0.0
H260 H 0.28753 0.11522 0.11189 0.0
H261 H 0.31626 0.12775 0.19 0.0
H262 H 0.22165 0.07805 0.1816 0.0
H263 H 0.28537 0.07781 0.07316 0.0
H264 H 0.2323 0.02615 0.03692 0.0
H265 H 0.28341 1.01052 0.04173 0.0
H266 H 0.27418 0.07499 0.94044 0.0
H267 H 0.30783 0.06623 0.87368 0.0
H268 H 0.21933 0.01555 0.19441 0.0
H269 H 0.17989 0.06503 0.08633 0.0
H270 H 0.31715 1.00135 0.97419 0.0
H271 H 0.1853 1.00783 0.26157 0.0
H272 H 0.14541 0.05685 0.15162 0.0
C273 C 0.48433 0.30677 0.89955 0.0
C274 C 0.50425 0.32111 0.90605 0.0
C275 C 0.47914 0.28942 0.94462 0.0
C276 C 0.494 0.28571 0.99632 0.0
C277 C 0.51476 0.29883 1.00017 0.0
C278 C 0.51982 0.31635 0.95566 0.0
C279 C 0.48482 0.27412 0.05436 0.0
C280 C 0.49058 0.25112 0.07241 0.0
C281 C 0.48255 0.24217 0.13117 0.0
C282 C 0.4701 0.25681 0.17245 0.0
C283 C 0.46518 0.27995 0.15603 0.0
C284 C 0.47166 0.28797 0.09566 0.0
C285 C 0.45683 0.2967 0.20494 0.0
C286 C 0.44134 0.28983 0.25368 0.0
C287 C 0.4667 0.31922 0.20714 0.0
C288 C 0.46233 0.33394 0.258 0.0
C289 C 0.44806 0.32663 0.30874 0.0
C290 C 0.48793 0.21822 0.15396 0.0
C291 C 0.46953 0.20335 0.17281 0.0
C292 C 0.51089 0.21192 0.16884 0.0
C293 C 0.51521 0.19181 0.20499 0.0
C294 C 0.49665 0.17751 0.22658 0.0
C295 C 0.47382 0.18322 0.20829 0.0
C296 C 0.4371 0.30462 0.30534 0.0
H297 H 0.47187 0.31008 0.8623 0.0
H298 H 0.46267 0.28006 0.94162 0.0
H299 H 0.52619 0.29678 0.04047 0.0
H300 H 0.5354 0.32694 0.9618 0.0
H301 H 0.5011 0.24039 0.04135 0.0
H302 H 0.46758 0.30569 0.08176 0.0
H303 H 0.46556 0.25045 0.2193 0.0
H304 H 0.43318 0.27271 0.25309 0.0
H305 H 0.47919 0.32506 0.17179 0.0
H306 H 0.47167 0.35045 0.2595 0.0
H307 H 0.45163 0.20799 0.16281 0.0
H308 H 0.52536 0.22327 0.15588 0.0
H309 H 0.42597 0.29852 0.3436 0.0
H310 H 0.45906 0.17285 0.22443 0.0
H311 H 0.53302 0.18783 0.21761 0.0
C312 C 0.0499 0.04699 0.83011 0.0
C313 C 0.02935 0.03023 0.91955 0.0
C314 C 0.03572 0.02978 0.855 0.0
C315 C 0.03597 0.04943 0.95706 0.0
C316 C 0.0584 0.06521 0.86867 0.0
C317 C 0.05055 0.06691 0.93165 0.0
N318 N 0.05741 0.04442 0.76974 0.0
C319 C 0.07517 0.05798 0.74648 0.0
C320 C 0.07547 0.0803 0.84374 0.0
C321 C 0.08431 0.0763 0.78287 0.0
Gd322 Gd 0.98419 0.03421 0.60026 0.0
Gd323 Gd 0.03927 0.0154 0.70831 0.0
N324 N 0.03051 1.01124 0.81769 0.0
C325 C 0.01777 1.01076 0.94514 0.0
C326 C 0.02164 0.99122 0.8442 0.0
C327 C 0.01447 0.99092 0.90767 0.0
H328 H 0.01909 0.97574 0.81567 0.0
H329 H 1.00643 0.97538 0.92758 0.0
H330 H 0.98534 1.00606 0.46206 0.0
H331 H 0.08161 0.05511 0.69888 0.0
H332 H 0.96216 0.97598 0.40527 0.0
H333 H 0.01244 1.01042 0.99443 0.0
H334 H 0.03092 0.05033 1.00651 0.0
H335 H 0.94666 0.06051 0.69942 0.0
H336 H 0.08258 0.09446 0.87184 0.0
H337 H 0.09793 0.08748 0.76371 0.0
H338 H 0.89386 0.96546 0.53603 0.0
H339 H 0.05652 0.08101 0.96185 0.0
H340 H 0.88391 0.01936 0.70814 0.0
H341 H 0.90763 0.05286 0.74593 0.0
N342 N 0.94555 0.03083 0.63892 0.0
C343 C 0.93227 0.01328 0.6152 0.0
C344 C 0.93648 0.04574 0.68301 0.0
C345 C 0.9011 0.02251 0.68811 0.0
C346 C 0.91439 0.04149 0.70936 0.0
C347 C 0.90973 1.0085 0.63912 0.0
H348 H 0.87902 0.9864 0.62978 0.0
N349 N 0.96159 1.0081 0.53943 0.0
C350 C 0.94058 1.00152 0.56316 0.0
C351 C 0.93483 0.97494 0.47579 0.0
C352 C 0.92665 0.98462 0.53253 0.0
C353 C 0.96895 0.99996 0.48193 0.0
C354 C 0.95592 0.98294 0.44983 0.0
O355 O 0.03343 0.0537 0.68317 0.0
O356 O 0.99377 0.0568 0.68465 0.0
O357 O 1.00072 0.06458 0.55815 0.0
O358 O 0.96403 0.05648 0.53738 0.0
O359 O 1.00292 1.00122 0.73233 0.0
O360 O 0.98089 0.0325 0.70659 0.0
O361 O 0.99877 0.99816 0.5808 0.0
O362 O 0.01784 0.98495 0.67069 0.0
O363 O 0.0702 0.99917 0.74722 0.0
O364 O 0.06323 0.99647 0.6475 0.0
O365 O 0.01719 0.0224 0.55025 0.0
O366 O 0.04458 0.03642 0.61865 0.0
C367 C 0.01452 0.06555 0.69709 0.0
C368 C 0.98442 0.01411 0.74163 0.0
C369 C 0.9811 0.09101 0.48696 0.0
C370 C 1.0016 0.12367 0.43661 0.0
C371 C 0.96134 0.11448 0.40864 0.0
C372 C 0.96115 0.0959 0.45133 0.0
C373 C 0.98146 0.12811 0.40064 0.0
C374 C 1.00101 0.10526 0.48048 0.0
C375 C 0.98188 0.07029 0.5279 0.0
C376 C 0.90472 0.97866 0.55826 0.0
C377 C 0.89628 0.99058 0.61163 0.0
H378 H 0.92471 0.96183 0.4508 0.0
C379 C 1.00805 0.98145 0.61506 0.0
C380 C 0.03877 0.02899 0.56202 0.0
C381 C 0.0787 0.96378 0.69668 0.0
C382 C 0.06188 0.92547 0.71917 0.0
C383 C 0.10044 0.92889 0.67127 0.0
C384 C 0.09871 0.95324 0.67183 0.0
C385 C 0.08215 0.91502 0.69484 0.0
C386 C 0.06047 0.94987 0.72055 0.0
C387 C 0.07587 0.98915 0.69414 0.0
H388 H 0.94601 0.11801 0.38063 0.0
H389 H 0.94558 0.08515 0.45556 0.0
H390 H 0.98132 0.14176 0.36523 0.0
H391 H 0.01618 0.10179 0.50927 0.0
H392 H 0.11591 0.92075 0.652 0.0
H393 H 0.11282 0.96378 0.65249 0.0
H394 H 0.08369 0.8962 0.69326 0.0
H395 H 0.04509 0.9581 0.74001 0.0
C396 C 0.53231 0.95213 0.54211 0.0
C397 C 0.51798 0.9188 0.60121 0.0
C398 C 0.51748 0.9428 0.58688 0.0
C399 C 0.53486 0.90463 0.57218 0.0
C400 C 0.54841 0.93785 0.50998 0.0
C401 C 0.5501 0.91417 0.52664 0.0
N402 N 0.5296 0.97484 0.5264 0.0
C403 C 0.54102 0.98393 0.47494 0.0
C404 C 0.56162 0.94763 0.46056 0.0
C405 C 0.5576 0.97068 0.44226 0.0
Gd406 Gd 0.52418 0.04944 0.70658 0.0
Gd407 Gd 0.50429 0.9971 0.59062 0.0
N408 N 0.5013 0.95698 0.61283 0.0
C409 C 0.50099 0.90969 0.64243 0.0
C410 C 0.48389 0.94804 0.6502 0.0
C411 C 0.48364 0.92434 0.6663 0.0
H412 H 0.47054 0.95938 0.66891 0.0
H413 H 0.47014 0.91741 0.6972 0.0
H414 H 0.58191 0.04315 0.73897 0.0
H415 H 0.53781 1.00168 0.46014 0.0
H416 H 0.6195 0.05909 0.70023 0.0
H417 H 0.50075 0.89133 0.65477 0.0
H418 H 0.53577 0.88618 0.58312 0.0
H419 H 0.48609 0.09233 0.69262 0.0
H420 H 0.57429 0.93732 0.43485 0.0
H421 H 0.5672 0.97824 0.40291 0.0
H422 H 0.59773 0.12402 0.57025 0.0
H423 H 0.56255 0.90294 0.50309 0.0
H424 H 0.51773 0.1476 0.58437 0.0
H425 H 0.48342 0.13111 0.64087 0.0
N426 N 0.52126 0.08715 0.66428 0.0
C427 C 0.54059 0.09646 0.63692 0.0
C428 C 0.50114 0.09965 0.66838 0.0
C429 C 0.51895 0.13065 0.60674 0.0
C430 C 0.49958 0.12148 0.63904 0.0
C431 C 0.53996 0.11832 0.60646 0.0
H432 H 0.5604 0.14426 0.55541 0.0
N433 N 0.56136 0.06565 0.68192 0.0
C434 C 0.56144 0.08515 0.64555 0.0
C435 C 0.60356 0.08514 0.64136 0.0
C436 C 0.58247 0.09534 0.62368 0.0
C437 C 0.58192 0.05738 0.70536 0.0
C438 C 0.60329 0.06645 0.68383 0.0
O439 O 0.50917 0.98643 0.69312 0.0
O440 O 0.53312 0.01349 0.74445 0.0
O441 O 0.50662 0.04619 0.79764 0.0
O442 O 0.53174 0.07384 0.78238 0.0
O443 O 0.48231 1.00419 0.67811 0.0
O444 O 0.48563 0.04384 0.68776 0.0
O445 O 0.50274 0.05514 0.61801 0.0
O446 O 0.51912 0.03034 0.54767 0.0
O447 O 0.47514 0.01725 0.55779 0.0
O448 O 0.48125 0.9828 0.51861 0.0
O449 O 0.55194 0.02312 0.67594 0.0
O450 O 0.53999 0.0132 0.57635 0.0
C451 C 0.52254 0.99294 0.74076 0.0
C452 C 0.47387 0.02431 0.69689 0.0
C453 C 0.53066 0.05645 0.88227 0.0
C454 C 0.5625 0.03662 0.93506 0.0
C455 C 0.53247 0.05619 0.99676 0.0
C456 C 0.52126 0.06279 0.94105 0.0
C457 C 0.55299 0.04318 0.99394 0.0
C458 C 0.55125 0.04348 0.87945 0.0
C459 C 0.51887 0.06279 0.82359 0.0
C460 C 0.5818 0.11612 0.58835 0.0
C461 C 0.56054 0.12765 0.57992 0.0
H462 H 0.62012 0.09232 0.62536 0.0
C463 C 0.51116 0.05114 0.56125 0.0
C464 C 0.55666 0.0165 0.61764 0.0
C465 C 0.44209 0.99698 0.52065 0.0
C466 C 0.40386 0.01463 0.50428 0.0
C467 C 0.40821 0.97221 0.50518 0.0
C468 C 0.43214 0.97465 0.51515 0.0
C469 C 0.39424 0.99193 0.49823 0.0
C470 C 0.42773 0.01664 0.51855 0.0
C471 C 0.4675 1.00081 0.5207 0.0
H472 H 0.52518 0.06104 0.04223 0.0
H473 H 0.50529 0.07273 0.94381 0.0
H474 H 0.56118 0.03792 0.03771 0.0
H475 H 0.55845 0.03868 0.83381 0.0
H476 H 0.40059 0.95496 0.49998 0.0
H477 H 0.44285 0.95918 0.51692 0.0
H478 H 0.37618 0.98912 0.48568 0.0
H479 H 0.43567 0.03363 0.52558 0.0
C480 C 0.44666 0.49637 0.73715 0.0
C481 C 0.45915 0.47276 0.82599 0.0
C482 C 0.46397 0.48961 0.77893 0.0
C483 C 0.43678 0.46265 0.82997 0.0
C484 C 0.42414 0.48633 0.74119 0.0
C485 C 0.41934 0.46937 0.7876 0.0
N486 N 0.45178 0.51285 0.69283 0.0
C487 C 0.4351 0.52052 0.65217 0.0
C488 C 0.40709 0.49372 0.69857 0.0
C489 C 0.41257 0.51097 0.65406 0.0
Gd490 Gd 0.5417 0.51093 0.57418 0.0
Gd491 Gd 0.49021 0.52713 0.69199 0.0
N492 N 0.48569 0.49915 0.7726 0.0
C493 C 0.47701 0.46646 0.86739 0.0
C494 C 0.50287 0.4938 0.8145 0.0
C495 C 0.49892 0.47714 0.86184 0.0
H496 H 0.51963 0.50227 0.81169 0.0
H497 H 0.51275 0.47263 0.89422 0.0
H498 H 0.51036 0.51844 0.44027 0.0
H499 H 0.43903 0.53442 0.61931 0.0
H500 H 0.50915 0.54563 0.35061 0.0
H501 H 0.47401 0.45354 0.90405 0.0
H502 H 0.4328 0.44957 0.86556 0.0
H503 H 0.58933 0.52552 0.65767 0.0
H504 H 0.38959 0.4864 0.70009 0.0
H505 H 0.39941 0.51706 0.62157 0.0
H506 H 0.57637 0.59474 0.37994 0.0
H507 H 0.40216 0.46142 0.79129 0.0
H508 H 0.62387 0.58197 0.56227 0.0
H509 H 0.62149 0.5543 0.65204 0.0
N510 N 0.573 0.53748 0.57369 0.0
C511 C 0.57423 0.55216 0.52314 0.0
C512 C 0.58981 0.53788 0.6192 0.0
C513 C 0.60958 0.56949 0.56479 0.0
C514 C 0.60824 0.55398 0.6157 0.0
C515 C 0.59253 0.56867 0.51759 0.0
H516 H 0.60702 0.59678 0.46067 0.0
N517 N 0.53904 0.53525 0.48484 0.0
C518 C 0.55669 0.55115 0.47782 0.0
C519 C 0.53961 0.56488 0.3804 0.0
C520 C 0.55729 0.56653 0.42563 0.0
C521 C 0.52271 0.53258 0.43864 0.0
C522 C 0.5224 0.54764 0.38658 0.0
O523 O 0.49477 0.48818 0.67596 0.0
O524 O 0.53318 0.48289 0.64625 0.0
O525 O 0.54588 0.48665 0.49625 0.0
O526 O 0.57493 0.49383 0.55838 0.0
O527 O 0.52779 0.53352 0.72405 0.0
O528 O 0.55072 0.50573 0.6764 0.0
O529 O 0.5358 0.54885 0.60404 0.0
O530 O 0.49622 0.55149 0.60985 0.0
O531 O 0.49993 0.55331 0.76052 0.0
O532 O 0.4632 0.54966 0.73214 0.0
O533 O 0.50482 0.49992 0.54538 0.0
O534 O 0.48097 0.52815 0.58802 0.0
C535 C 0.51325 0.47494 0.66908 0.0
C536 C 0.54638 0.52019 0.72301 0.0
C537 C 0.56855 0.45467 0.53028 0.0
C538 C 0.55083 0.41622 0.54658 0.0
C539 C 0.59222 0.42217 0.56521 0.0
C540 C 0.59026 0.44563 0.54799 0.0
C541 C 0.57266 0.40745 0.56414 0.0
C542 C 0.54885 0.43986 0.53045 0.0
C543 C 0.56622 0.47979 0.51617 0.0
C544 C 0.57558 0.58289 0.41985 0.0
C545 C 0.59312 0.58397 0.46568 0.0
H546 H 0.53942 0.57642 0.33977 0.0
C547 C 0.51655 0.56075 0.59535 0.0
C548 C 0.48518 0.51183 0.54553 0.0
C549 C 0.47268 0.57974 0.81034 0.0
C550 C 0.48574 0.61087 0.88108 0.0
C551 C 0.44429 0.60261 0.86845 0.0
C552 C 0.44941 0.58474 0.82567 0.0
C553 C 0.4623 0.61559 0.8962 0.0
C554 C 0.49069 0.59296 0.83781 0.0
C555 C 0.47851 0.56049 0.76711 0.0
H556 H 0.609 0.41533 0.57892 0.0
H557 H 0.60562 0.45678 0.5491 0.0
H558 H 0.57457 0.38921 0.57639 0.0
H559 H 0.53198 0.44651 0.51657 0.0
H560 H 0.42632 0.60633 0.88047 0.0
H561 H 0.43522 0.57473 0.80515 0.0
H562 H 0.45789 0.62911 0.92994 0.0
H563 H 0.50866 0.58948 0.82488 0.0
C564 C 0.04424 0.46825 0.78092 0.0
C565 C 0.05071 0.48469 0.88528 0.0
C566 C 0.03917 0.48507 0.82639 0.0
C567 C 0.06746 0.46754 0.89723 0.0
C568 C 0.06136 0.45124 0.79244 0.0
C569 C 0.07293 0.45101 0.85078 0.0
N570 N 0.03251 0.4686 0.72517 0.0
C571 C 0.03666 0.45225 0.67955 0.0
C572 C 0.06618 0.43482 0.74514 0.0
C573 C 0.05374 0.43531 0.68849 0.0
Gd574 Gd 0.02167 0.5507 0.60673 0.0
Gd575 Gd 1.00359 0.49698 0.71579 0.0
N576 N 0.02232 0.50107 0.8143 0.0
C577 C 0.04448 0.50105 0.9314 0.0
C578 C 0.01481 0.51556 0.8614 0.0
C579 C 0.02623 0.51635 0.91966 0.0
H580 H 0.99933 0.52577 0.85586 0.0
H581 H 0.02042 0.52824 0.95623 0.0
H582 H 1.00065 0.52331 0.47715 0.0
H583 H 0.02676 0.45224 0.63636 0.0
H584 H 0.97273 0.53082 0.39182 0.0
H585 H 0.053 0.50136 0.97708 0.0
H586 H 0.07617 0.4668 0.94257 0.0
H587 H 0.0236 0.59957 0.69379 0.0
H588 H 0.0793 0.42157 0.75213 0.0
H589 H 0.05714 0.42251 0.65194 0.0
H590 H 0.94537 0.60822 0.434 0.0
H591 H 0.08601 0.43797 0.86068 0.0
H592 H 0.97505 0.64807 0.6166 0.0
H593 H 1.0039 0.63769 0.69848 0.0
N594 N 1.00497 0.58789 0.61304 0.0
C595 C 0.98962 0.59344 0.56672 0.0
C596 C 0.01043 0.60359 0.65937 0.0
C597 C 0.98339 0.63117 0.61499 0.0
C598 C 0.99959 0.62535 0.66142 0.0
C599 C 0.97834 0.61523 0.56657 0.0
H600 H 0.95353 0.63703 0.51756 0.0
N601 N 0.99556 0.55601 0.52238 0.0
C602 C 0.98504 0.57719 0.51949 0.0
C603 C 0.96449 0.56535 0.42495 0.0
C604 C 0.96903 0.58233 0.47103 0.0
C605 C 0.99172 0.53969 0.47646 0.0
C606 C 0.97597 0.54399 0.42756 0.0
O607 O 0.04183 0.5022 0.68744 0.0
O608 O 0.04527 0.54172 0.68883 0.0
O609 O 0.04882 0.54682 0.5361 0.0
O610 O 0.04405 0.58017 0.58239 0.0
O611 O 0.99185 0.53355 0.74579 0.0
O612 O 0.02248 0.55633 0.71205 0.0
O613 O 0.9825 0.54533 0.61919 0.0
O614 O 0.97723 0.5062 0.64091 0.0
O615 O 0.97776 0.48838 0.78752 0.0
O616 O 0.98675 0.46275 0.71686 0.0
O617 O 0.02801 0.51438 0.56542 0.0
O618 O 1.00199 0.48841 0.61212 0.0
C619 C 0.05423 0.52107 0.69904 0.0
C620 C 1.00485 0.55259 0.75071 0.0
C621 C 0.08271 0.56689 0.56904 0.0
C622 C 0.11967 0.54627 0.57342 0.0
C623 C 0.11418 0.58143 0.63553 0.0
C624 C 0.09153 0.58347 0.61215 0.0
C625 C 0.12822 0.56291 0.61634 0.0
C626 C 0.09708 0.54852 0.5494 0.0
C627 C 0.05804 0.56718 0.54916 0.0
C628 C 0.9578 0.60402 0.47068 0.0
C629 C 0.96241 0.6204 0.51836 0.0
H630 H 0.95221 0.56858 0.38719 0.0
C631 C 0.96956 0.52625 0.61965 0.0
C632 C 0.01622 0.49445 0.56583 0.0
C633 C 0.94694 0.46662 0.74197 0.0
C634 C 0.90866 0.4841 0.72682 0.0
C635 C 0.91488 0.44339 0.70011 0.0
C636 C 0.93817 0.4453 0.71913 0.0
C637 C 0.9001 0.46263 0.70444 0.0
C638 C 0.93212 0.48604 0.74471 0.0
C639 C 0.97172 0.46896 0.75981 0.0
H640 H 0.12086 0.59423 0.66868 0.0
H641 H 0.08085 0.59778 0.62859 0.0
H642 H 0.14592 0.56188 0.63368 0.0
H643 H 0.09052 0.53554 0.51643 0.0
H644 H 0.90822 0.42689 0.68258 0.0
H645 H 0.94935 0.43019 0.71574 0.0
H646 H 0.88198 0.46073 0.6908 0.0
H647 H 0.93858 0.50263 0.76241 0.0
C648 C 0.13059 0.05064 0.27822 0.0
C649 C 0.143 0.03051 0.261 0.0
C650 C 0.11321 0.05007 0.32563 0.0
C651 C 0.10808 0.02893 0.35777 0.0
C652 C 0.12029 1.00845 0.34027 0.0
C653 C 0.13749 1.00947 0.29221 0.0
C654 C 0.1008 0.07236 0.3426 0.0
C655 C 0.11538 0.9855 0.37298 0.0
C656 C 0.08016 0.03347 0.52238 0.0
C657 C 0.05651 0.02883 0.50985 0.0
C658 C 0.09708 0.03324 0.47368 0.0
C659 C 0.09032 0.02843 0.41046 0.0
C660 C 0.06649 0.02372 0.39753 0.0
C661 C 0.04995 0.02389 0.44721 0.0
C662 C 0.12225 0.03824 0.48994 0.0
C663 C 0.05838 0.01877 0.33094 0.0
H664 H 0.13489 0.06716 0.25592 0.0
H665 H 0.14667 0.99371 0.27916 0.0
H666 H 0.08161 0.06958 0.34281 0.0
H667 H 0.10589 0.07777 0.39104 0.0
H668 H 0.10511 0.08681 0.30935 0.0
H669 H 0.12601 0.97106 0.35328 0.0
H670 H 0.11911 0.98714 0.4243 0.0
H671 H 0.09664 0.98079 0.36842 0.0
H672 H 0.08552 0.03721 0.5705 0.0
H673 H 0.03178 0.0203 0.43673 0.0
H674 H 0.12839 0.0541 0.46451 0.0
H675 H 0.13338 0.02356 0.47419 0.0
H676 H 0.12482 0.04094 0.54154 0.0
H677 H 0.06236 0.034 0.30014 0.0
H678 H 0.03935 0.01502 0.32875 0.0
H679 H 0.06792 1.00363 0.31117 0.0
C680 C 0.5159 0.16055 0.32315 0.0
C681 C 0.50066 0.15777 0.27173 0.0
C682 C 0.51831 0.14296 0.36922 0.0
C683 C 0.50524 0.12194 0.36402 0.0
C684 C 0.49028 0.11876 0.31142 0.0
C685 C 0.48813 0.13668 0.26616 0.0
C686 C 0.53421 0.1473 0.4248 0.0
C687 C 0.47619 0.09657 0.30349 0.0
C688 C 0.5249 0.06878 0.45875 0.0
C689 C 0.50944 0.06901 0.51045 0.0
C690 C 0.52371 0.0858 0.41076 0.0
C691 C 0.50668 0.10357 0.41448 0.0
C692 C 0.4909 0.10372 0.46644 0.0
C693 C 0.49233 0.08633 0.51329 0.0
C694 C 0.54076 0.08482 0.35614 0.0
C695 C 0.47258 0.12236 0.47287 0.0
H696 H 0.52536 0.17688 0.3287 0.0
H697 H 0.47649 0.1342 0.22641 0.0
H698 H 0.52351 0.14933 0.4683 0.0
H699 H 0.54589 0.13222 0.4323 0.0
H700 H 0.54508 0.16329 0.41856 0.0
H701 H 0.46637 0.09623 0.25829 0.0
H702 H 0.48784 0.0812 0.30493 0.0
H703 H 0.46357 0.09472 0.34323 0.0
H704 H 0.53813 0.05539 0.45611 0.0
H705 H 0.47989 0.08622 0.5521 0.0
H706 H 0.55139 0.10109 0.35461 0.0
H707 H 0.53115 0.08364 0.31076 0.0
H708 H 0.5527 0.0697 0.35958 0.0
H709 H 0.48111 0.1398 0.47511 0.0
H710 H 0.4616 0.11998 0.51593 0.0
H711 H 0.46109 0.12224 0.43078 0.0
C712 C 0.40564 0.50907 0.23051 0.0
C713 C 0.38594 0.49476 0.2393 0.0
C714 C 0.42263 0.51138 0.27838 0.0
C715 C 0.41944 0.49969 0.33714 0.0
C716 C 0.39938 0.48541 0.34617 0.0
C717 C 0.38309 0.4829 0.29696 0.0
C718 C 0.44401 0.5263 0.26608 0.0
C719 C 0.39483 0.47316 0.40837 0.0
C720 C 0.4704 0.48961 0.45019 0.0
C721 C 0.46823 0.5084 0.49258 0.0
C722 C 0.45505 0.48684 0.39869 0.0
C723 C 0.43662 0.50288 0.38998 0.0
C724 C 0.43421 0.52173 0.43294 0.0
C725 C 0.45022 0.52447 0.48276 0.0
C726 C 0.45862 0.46678 0.35344 0.0
C727 C 0.41458 0.53898 0.42664 0.0
H728 H 0.40788 0.51822 0.18594 0.0
H729 H 0.36773 0.472 0.30405 0.0
H730 H 0.44432 0.5413 0.29927 0.0
H731 H 0.46001 0.51602 0.27475 0.0
H732 H 0.4446 0.53311 0.21685 0.0
H733 H 0.37825 0.46298 0.40817 0.0
H734 H 0.40935 0.46113 0.41913 0.0
H735 H 0.39406 0.48616 0.44729 0.0
H736 H 0.48431 0.47714 0.45681 0.0
H737 H 0.44869 0.53945 0.51366 0.0
H738 H 0.45982 0.47338 0.30412 0.0
H739 H 0.44343 0.45468 0.35579 0.0
H740 H 0.47466 0.4568 0.36412 0.0
H741 H 0.41601 0.54823 0.38065 0.0
H742 H 0.4146 0.55215 0.46526 0.0
H743 H 0.39754 0.52962 0.42722 0.0
C744 C 0.04983 0.39617 0.31211 0.0
C745 C 0.03383 0.39367 0.26237 0.0
C746 C 0.04675 0.41304 0.35978 0.0
C747 C 0.02741 0.42827 0.35732 0.0
C748 C 0.01135 0.42607 0.30665 0.0
C749 C 0.01458 0.4086 0.26028 0.0
C750 C 0.06399 0.41425 0.41355 0.0
C751 C 0.99078 0.44221 0.3014 0.0
C752 C 1.00733 0.45608 0.51242 0.0
C753 C 0.0187 0.47794 0.51124 0.0
C754 C 0.00991 0.43992 0.46274 0.0
C755 C 0.02368 0.44584 0.40912 0.0
C756 C 0.03466 0.46812 0.40658 0.0
C757 C 0.03228 0.48375 0.45783 0.0
C758 C 0.99829 0.41625 0.46842 0.0
C759 C 0.04909 0.47539 0.34983 0.0
H760 H 0.06458 0.38448 0.3145 0.0
H761 H 1.00222 0.40682 0.22187 0.0
H762 H 0.07218 0.43184 0.41554 0.0
H763 H 0.05478 0.41138 0.4593 0.0
H764 H 0.078 0.40107 0.40883 0.0
H765 H 0.98058 0.43907 0.25758 0.0
H766 H 0.97903 0.43984 0.34284 0.0
H767 H 0.99688 0.46065 0.30176 0.0
H768 H 0.99659 0.45132 0.55287 0.0
H769 H 0.04101 0.50059 0.45583 0.0
H770 H 0.0117 0.40238 0.46678 0.0
H771 H 0.9864 0.41326 0.42791 0.0
H772 H 0.98811 0.41433 0.51306 0.0
H773 H 0.06461 0.46404 0.34557 0.0
H774 H 0.05511 0.49384 0.353 0.0
H775 H 0.03878 0.47316 0.30588 0.0
C776 C 0.87666 1.00254 0.97634 0.0
C777 C 0.88187 1.00046 0.041 0.0
C778 C 0.89437 1.00314 0.92997 0.0
C779 C 0.91808 1.00199 0.94835 0.0
C780 C 0.92351 0.99963 1.0135 0.0
C781 C 0.90535 0.99866 0.05896 0.0
C782 C 0.88768 1.00529 0.86114 0.0
C783 C 0.94853 0.99876 0.03526 0.0
C784 C 0.96263 0.98802 0.81804 0.0
C785 C 0.96923 1.01045 0.798 0.0
C786 C 0.94639 0.98488 0.86791 0.0
C787 C 0.937 1.00464 0.89938 0.0
C788 C 0.94453 0.02727 0.88084 0.0
C789 C 0.96031 0.02987 0.83018 0.0
C790 C 0.93877 0.96046 0.88565 0.0
C791 C 0.9354 0.04885 0.91332 0.0
H792 H 0.85858 1.00348 0.96182 0.0
H793 H 0.90954 0.99704 0.10874 0.0
H794 H 0.89383 0.02236 0.84234 0.0
H795 H 0.89625 0.99147 0.8327 0.0
H796 H 0.86852 1.00399 0.85411 0.0
H797 H 0.94991 0.99628 0.08727 0.0
H798 H 0.95781 0.98433 1.01112 0.0
H799 H 0.95768 0.01523 0.02213 0.0
H800 H 0.96952 0.97298 0.79328 0.0
H801 H 0.96559 0.04725 0.81538 0.0
H802 H 0.91946 0.95895 0.88424 0.0
H803 H 0.94425 0.95658 0.93479 0.0
H804 H 0.94629 0.94708 0.85362 0.0
H805 H 0.91655 0.05079 0.90309 0.0
H806 H 0.94467 0.06496 0.89749 0.0
H807 H 0.93723 0.04724 0.96541 0.0
C808 C 0.51082 0.90015 0.02503 0.0
C809 C 0.53264 0.89185 0.04465 0.0
C810 C 0.50902 0.91721 0.97718 0.0
C811 C 0.5295 0.92636 0.94815 0.0
C812 C 0.55153 0.91836 0.96846 0.0
C813 C 0.55284 0.90124 0.01597 0.0
C814 C 0.48517 0.92524 0.95706 0.0
C815 C 0.57378 0.92755 0.93895 0.0
C816 C 0.52567 0.95204 0.78172 0.0
C817 C 0.5252 0.9761 0.79375 0.0
C818 C 0.52697 0.93574 0.83137 0.0
C819 C 0.52793 0.94363 0.89496 0.0
C820 C 0.52765 0.96797 0.90733 0.0
C821 C 0.52606 0.98385 0.85664 0.0
C822 C 0.52709 0.91002 0.81567 0.0
C823 C 0.52927 0.9773 0.974 0.0
H824 H 0.49507 0.8933 0.04706 0.0
H825 H 0.56981 0.89473 0.02935 0.0
H826 H 0.48386 0.94445 0.96258 0.0
H827 H 0.48249 0.92121 0.9062 0.0
H828 H 0.47094 0.9168 0.98495 0.0
H829 H 0.5896 0.92083 0.96278 0.0
H830 H 0.57453 0.92251 0.88827 0.0
H831 H 0.57405 0.94688 0.94108 0.0
H832 H 0.52518 0.94593 0.73324 0.0
H833 H 0.5252 1.00237 0.86631 0.0
H834 H 0.51108 0.90159 0.83509 0.0
H835 H 0.54225 0.90145 0.83796 0.0
H836 H 0.5278 0.90678 0.76385 0.0
H837 H 0.51638 0.9684 1.00528 0.0
H838 H 0.52627 0.99642 0.97619 0.0
H839 H 0.54689 0.97373 0.9931 0.0
C840 C 0.63234 0.52557 0.02561 0.0
C841 C 0.65543 0.52885 1.0046 0.0
C842 C 0.61368 0.52426 0.98238 0.0
C843 C 0.61809 0.52658 0.9165 0.0
C844 C 0.64131 0.53028 0.89519 0.0
C845 C 0.65961 0.53127 0.93928 0.0
C846 C 0.58922 0.52021 1.00713 0.0
C847 C 0.64686 0.53321 0.82563 0.0
C848 C 0.57589 0.50184 0.79382 0.0
C849 C 0.5636 0.52175 0.77521 0.0
C850 C 0.59304 0.50303 0.84117 0.0
C851 C 0.59858 0.52479 0.86956 0.0
C852 C 0.58614 0.54495 0.85094 0.0
C853 C 0.56855 0.54312 0.80474 0.0
C854 C 0.6055 0.48101 0.86009 0.0
C855 C 0.59201 0.56862 0.87794 0.0
H856 H 0.62891 0.52364 0.07586 0.0
H857 H 0.67729 0.53429 0.92252 0.0
H858 H 0.57785 0.53485 0.99283 0.0
H859 H 0.58181 0.50404 0.98604 0.0
H860 H 0.58865 0.51859 0.05953 0.0
H861 H 0.66569 0.53672 0.81685 0.0
H862 H 0.64175 0.5172 0.79941 0.0
H863 H 0.63665 0.54783 0.80576 0.0
H864 H 0.572 0.48523 0.77141 0.0
H865 H 0.55927 0.55859 0.79001 0.0
H866 H 0.60438 0.47857 0.91214 0.0
H867 H 0.62427 0.48249 0.84745 0.0
H868 H 0.59812 0.46526 0.83658 0.0
H869 H 0.59252 0.56787 0.93037 0.0
H870 H 0.57931 0.58209 0.86321 0.0
H871 H 0.60964 0.5741 0.86144 0.0
C872 C 0.97685 0.66166 0.97231 0.0
C873 C 0.98424 0.65965 0.03539 0.0
C874 C 0.97987 0.64337 0.92862 0.0
C875 C 0.9903 0.62228 0.94829 0.0
C876 C 0.99752 0.61997 1.01216 0.0
C877 C 0.99465 0.63875 0.05473 0.0
C878 C 0.97217 0.64677 0.86099 0.0
C879 C 1.00812 0.59757 0.03553 0.0
C880 C 0.98022 0.56997 0.8384 0.0
C881 C 1.00116 0.56949 0.8037 0.0
C882 C 0.97682 0.58631 0.88758 0.0
C883 C 0.99444 0.60313 0.90111 0.0
C884 C 0.01572 0.60244 0.86682 0.0
C885 C 0.01895 0.58545 0.81965 0.0
C886 C 0.95407 0.58582 0.92374 0.0
C887 C 0.03493 0.6201 0.87871 0.0
H888 H 0.96907 0.67783 0.95666 0.0
H889 H 1.00022 0.63698 0.10344 0.0
H890 H 0.98724 0.64451 0.82836 0.0
H891 H 0.95892 0.63335 0.84842 0.0
H892 H 0.96461 0.66431 0.85293 0.0
H893 H 0.01199 0.59815 0.087 0.0
H894 H 0.99603 0.58273 0.02625 0.0
H895 H 0.02454 0.59402 1.00935 0.0
H896 H 0.9664 0.55765 0.82699 0.0
H897 H 0.03549 0.58489 0.79459 0.0
H898 H 0.94197 0.59859 0.90245 0.0
H899 H 0.95656 0.59062 0.97416 0.0
H900 H 0.94575 0.56826 0.92163 0.0
H901 H 0.02848 0.63792 0.86858 0.0
H902 H 0.05062 0.61691 0.84891 0.0
H903 H 0.04014 0.61972 0.92918 0.0
C904 C 0.10963 0.20937 0.36616 0.0
C905 C 0.10964 0.20965 0.29968 0.0
C906 C 0.09724 0.19204 0.39961 0.0
C907 C 0.0847 0.17483 0.36545 0.0
C908 C 0.08796 0.17287 0.29922 0.0
C909 C 0.10056 0.19025 0.26713 0.0
C910 C 0.09522 0.19402 0.47063 0.0
C911 C 0.07522 0.15456 0.26082 0.0
C912 C 0.04547 0.12701 0.43054 0.0
C913 C 0.02342 0.13755 0.42646 0.0
C914 C 0.06597 0.13957 0.41632 0.0
C915 C 0.06432 0.16282 0.39481 0.0
C916 C 0.04231 0.17389 0.39342 0.0
C917 C 0.02222 0.16123 0.41031 0.0
C918 C 0.08926 0.12769 0.42182 0.0
C919 C 0.03975 0.19877 0.37086 0.0
H920 H 0.11724 0.22393 0.3918 0.0
H921 H 0.10056 0.19005 0.21582 0.0
H922 H 0.07984 0.2048 0.48279 0.0
H923 H 0.09282 0.17666 0.49311 0.0
H924 H 0.11091 0.20266 0.49095 0.0
H925 H 0.08235 0.15316 0.21195 0.0
H926 H 0.07623 0.1372 0.28371 0.0
H927 H 0.0565 0.15924 0.25767 0.0
H928 H 0.0468 0.1087 0.44261 0.0
H929 H 1.00546 0.16983 0.40927 0.0
H930 H 0.1021 0.13934 0.44543 0.0
H931 H 0.09621 0.1238 0.37392 0.0
H932 H 0.08791 0.11111 0.44894 0.0
H933 H 0.051 0.21062 0.39915 0.0
H934 H 0.02147 0.20497 0.37435 0.0
H935 H 0.0455 0.20018 0.32072 0.0
C936 C 0.33568 0.09294 0.2857 0.0
C937 C 0.31906 0.10864 0.3086 0.0
C938 C 0.35116 0.08199 0.32673 0.0
C939 C 0.35075 0.08779 0.39194 0.0
C940 C 0.33595 0.10579 0.41393 0.0
C941 C 0.31971 0.11558 0.37219 0.0
C942 C 0.36618 0.06252 0.30111 0.0
C943 C 0.33607 0.11372 0.48202 0.0
C944 C 0.36538 0.03529 0.49123 0.0
C945 C 0.38989 0.03593 0.48885 0.0
C946 C 0.35212 0.05299 0.46348 0.0
C947 C 0.36356 0.07268 0.43673 0.0
C948 C 0.38795 0.07515 0.44262 0.0
C949 C 0.40089 0.05647 0.4662 0.0
C950 C 0.32603 0.0496 0.45811 0.0
C951 C 0.4007 0.09675 0.41962 0.0
H952 H 0.33491 0.08731 0.2367 0.0
H953 H 0.30677 0.12768 0.3899 0.0
H954 H 0.38485 0.0663 0.31022 0.0
H955 H 0.36169 0.0459 0.32548 0.0
H956 H 0.36396 0.05992 0.24935 0.0
H957 H 0.33174 0.13254 0.48542 0.0
H958 H 0.32254 0.1039 0.509 0.0
H959 H 0.35323 0.11082 0.50471 0.0
H960 H 0.35638 0.02042 0.51178 0.0
H961 H 0.41967 0.05787 0.46305 0.0
H962 H 0.32097 0.04913 0.40744 0.0
H963 H 0.31686 0.06446 0.48042 0.0
H964 H 0.31985 0.03321 0.48099 0.0
H965 H 0.40515 0.0948 0.36874 0.0
H966 H 0.41728 0.09943 0.44581 0.0
H967 H 0.38979 0.11255 0.42516 0.0
C968 C 0.44994 0.36503 0.36406 0.0
C969 C 0.44834 0.34063 0.36799 0.0
C970 C 0.46115 0.37788 0.41155 0.0
C971 C 0.46976 0.36602 0.46525 0.0
C972 C 0.46316 0.34251 0.47581 0.0
C973 C 0.45296 0.32977 0.42617 0.0
C974 C 0.46661 0.40336 0.39988 0.0
C975 C 0.46953 0.33018 0.53626 0.0
C976 C 0.53278 0.38157 0.49607 0.0
C977 C 0.5306 0.40045 0.53741 0.0
C978 C 0.51304 0.36943 0.47481 0.0
C979 C 0.4906 0.37573 0.49778 0.0
C980 C 0.48858 0.39343 0.54422 0.0
C981 C 0.50859 0.40599 0.56224 0.0
C982 C 0.5162 0.35117 0.42373 0.0
C983 C 0.46543 0.40017 0.57283 0.0
H984 H 0.44513 0.37366 0.3204 0.0
H985 H 0.45104 0.31102 0.43083 0.0
H986 H 0.46037 0.41401 0.44027 0.0
H987 H 0.48578 0.40603 0.39574 0.0
H988 H 0.45835 0.40995 0.35599 0.0
H989 H 0.45802 0.31478 0.54474 0.0
H990 H 0.4878 0.324 0.53316 0.0
H991 H 0.46827 0.34224 0.5773 0.0
H992 H 0.54979 0.37749 0.4764 0.0
H993 H 0.50687 0.42065 0.59403 0.0
H994 H 0.5058 0.35576 0.38139 0.0
H995 H 0.50992 0.33394 0.4409 0.0
H996 H 0.53472 0.34935 0.40889 0.0
H997 H 0.45989 0.41713 0.55279 0.0
H998 H 0.46729 0.40279 0.62463 0.0
H999 H 0.45155 0.38692 0.56449 0.0
C1000 C 0.1968 0.44567 0.41681 0.0
C1001 C 0.21761 0.45762 0.40193 0.0
C1002 C 0.1802 0.45568 0.45759 0.0
C1003 C 0.18461 0.47806 0.48339 0.0
C1004 C 0.20669 0.48878 0.47478 0.0
C1005 C 0.22286 0.4785 0.43399 0.0
C1006 C 0.15719 0.44331 0.46843 0.0
C1007 C 0.21229 0.51246 0.50273 0.0
C1008 C 0.13778 0.5237 0.48625 0.0
C1009 C 0.13453 0.52703 0.55124 0.0
C1010 C 0.15298 0.50663 0.46366 0.0
C1011 C 0.16519 0.49255 0.50734 0.0
C1012 C 0.16107 0.49504 0.57312 0.0
C1013 C 0.14562 0.51229 0.59434 0.0
C1014 C 0.15703 0.50472 0.39306 0.0
C1015 C 0.17319 0.47984 0.62092 0.0
H1016 H 0.19286 0.42921 0.39376 0.0
H1017 H 0.23872 0.48812 0.42302 0.0
H1018 H 0.15156 0.44505 0.51855 0.0
H1019 H 0.14362 0.45141 0.43854 0.0
H1020 H 0.15818 0.42448 0.45615 0.0
H1021 H 0.23112 0.51698 0.49832 0.0
H1022 H 0.20211 0.52602 0.4778 0.0
H1023 H 0.20732 0.51305 0.55353 0.0
H1024 H 0.12906 0.53508 0.45305 0.0
H1025 H 0.14232 0.51439 0.6445 0.0
H1026 H 0.15467 0.48639 0.37727 0.0
H1027 H 0.17524 0.51002 0.38155 0.0
H1028 H 0.14501 0.51591 0.36558 0.0
H1029 H 0.16515 0.46216 0.62019 0.0
H1030 H 0.17167 0.48694 0.66965 0.0
H1031 H 0.19197 0.47791 0.60925 0.0
C1032 C 0.96671 0.8426 0.8826 0.0
C1033 C 0.96366 0.85282 0.94242 0.0
C1034 C 0.97759 0.85511 0.83341 0.0
C1035 C 0.98598 0.87797 0.84525 0.0
C1036 C 0.97986 0.8894 0.90228 0.0
C1037 C 0.96844 0.87671 0.95002 0.0
C1038 C 0.98202 0.84326 0.7708 0.0
C1039 C 0.9879 0.91405 0.91615 0.0
C1040 C 0.0468 0.89339 0.78818 0.0
C1041 C 0.04235 0.91124 0.74492 0.0
C1042 C 0.02843 0.88185 0.81943 0.0
C1043 C 1.00503 0.88786 0.80549 0.0
C1044 C 1.00043 0.90476 0.75861 0.0
C1045 C 0.01917 0.91665 0.73013 0.0
C1046 C 0.03415 0.86411 0.86986 0.0
C1047 C 0.97593 0.9113 0.74017 0.0
H1048 H 0.96266 0.82426 0.8758 0.0
H1049 H 0.96528 0.8849 0.99553 0.0
H1050 H 0.97683 0.85495 0.73157 0.0
H1051 H 1.00093 0.83972 0.76516 0.0
H1052 H 0.97226 0.8265 0.76658 0.0
H1053 H 0.97884 0.92151 0.95807 0.0
H1054 H 1.00694 0.91408 0.92553 0.0
H1055 H 0.98489 0.92558 0.87494 0.0
H1056 H 0.06468 0.88935 0.80024 0.0
H1057 H 0.01558 0.93056 0.69727 0.0
H1058 H 0.02587 0.84706 0.85843 0.0
H1059 H 0.02705 0.86989 0.91624 0.0
H1060 H 0.05323 0.86146 0.8748 0.0
H1061 H 0.96319 0.89699 0.74936 0.0
H1062 H 0.97521 0.91603 0.6892 0.0
H1063 H 0.97054 0.92687 0.76762 0.0
C1064 C 0.68517 0.97107 0.91782 0.0
C1065 C 0.68665 0.95925 0.976 0.0
C1066 C 0.66413 0.98108 0.89833 0.0
C1067 C 0.64394 0.97812 0.93635 0.0
C1068 C 0.64449 0.96289 0.98902 0.0
C1069 C 0.66588 0.95392 1.0088 0.0
C1070 C 0.66441 0.99721 0.84185 0.0
C1071 C 0.62321 0.95834 0.02981 0.0
C1072 C 0.60304 0.02802 0.9699 0.0
C1073 C 0.58398 0.02246 0.93152 0.0
C1074 C 0.62318 0.01437 0.96884 0.0
C1075 C 0.62398 0.99425 0.92978 0.0
C1076 C 0.60505 0.98892 0.8894 0.0
C1077 C 0.58544 1.00339 0.88998 0.0
C1078 C 0.6434 0.02125 1.01073 0.0
C1079 C 0.60519 0.96793 0.84608 0.0
H1080 H 0.70085 0.97433 0.89021 0.0
H1081 H 0.66635 0.94467 0.05346 0.0
H1082 H 0.64813 0.99553 0.81418 0.0
H1083 H 0.66567 0.01553 0.85873 0.0
H1084 H 0.67952 0.99381 0.81009 0.0
H1085 H 0.62361 0.94045 0.05004 0.0
H1086 H 0.62314 0.97088 0.06988 0.0
H1087 H 0.60678 0.96046 1.00314 0.0
H1088 H 0.60225 0.04315 1.00067 0.0
H1089 H 0.571 0.99935 0.85903 0.0
H1090 H 0.66002 0.02091 0.98351 0.0
H1091 H 0.6449 1.00857 0.05016 0.0
H1092 H 0.64125 0.03895 0.03136 0.0
H1093 H 0.58723 0.96272 0.832 0.0
H1094 H 0.61378 0.95278 0.86861 0.0
H1095 H 0.61499 0.97229 0.80219 0.0
C1096 C 0.5916 0.69517 0.97284 0.0
C1097 C 0.59056 0.70043 0.03756 0.0
C1098 C 0.57751 0.67736 0.94733 0.0
C1099 C 0.56164 0.66521 0.98735 0.0
C1100 C 0.56207 0.6691 0.05344 0.0
C1101 C 0.57676 0.68648 0.07782 0.0
C1102 C 0.57822 0.67287 0.87696 0.0
C1103 C 0.5453 0.65668 0.09774 0.0
C1104 C 0.50314 0.64888 0.91655 0.0
C1105 C 0.5051 0.62466 0.9095 0.0
C1106 C 0.52148 0.66222 0.94175 0.0
C1107 C 0.54242 0.65109 0.9597 0.0
C1108 C 0.54449 0.62664 0.95324 0.0
C1109 C 0.52581 0.6137 0.92817 0.0
C1110 C 0.51837 0.68823 0.94954 0.0
C1111 C 0.56648 0.61416 0.97203 0.0
H1112 H 0.60226 0.70594 0.94173 0.0
H1113 H 0.57561 0.6907 0.12779 0.0
H1114 H 0.57816 0.65383 0.86725 0.0
H1115 H 0.56244 0.68029 0.85468 0.0
H1116 H 0.59387 0.68092 0.85427 0.0
H1117 H 0.5498 0.65957 0.14827 0.0
H1118 H 0.52738 0.66324 0.08972 0.0
H1119 H 0.54504 0.63764 0.08832 0.0
H1120 H 0.48735 0.65751 0.90148 0.0
H1121 H 0.52738 0.59493 0.92364 0.0
H1122 H 0.53162 0.69776 0.92081 0.0
H1123 H 0.52108 0.69325 0.99975 0.0
H1124 H 0.50076 0.69406 0.9349 0.0
H1125 H 0.58024 0.61766 0.93601 0.0
H1126 H 0.56364 0.59501 0.97565 0.0
H1127 H 0.57315 0.6206 0.01808 0.0
C1128 C 0.82268 0.57992 0.86022 0.0
C1129 C 0.8338 0.58487 0.9179 0.0
C1130 C 0.83508 0.56957 0.81016 0.0
C1131 C 0.85846 0.56287 0.81994 0.0
C1132 C 0.87055 0.5713 0.87366 0.0
C1133 C 0.85817 0.58309 0.92094 0.0
C1134 C 0.82256 0.56358 0.74958 0.0
C1135 C 0.89584 0.56552 0.88511 0.0
C1136 C 0.87377 0.50066 0.77927 0.0
C1137 C 0.89289 0.50389 0.73888 0.0
C1138 C 0.86166 0.51983 0.80361 0.0
C1139 C 0.86818 0.54277 0.78442 0.0
C1140 C 0.88621 0.54592 0.73913 0.0
C1141 C 0.89876 0.52645 0.71822 0.0
C1142 C 0.84333 0.51549 0.85418 0.0
C1143 C 0.89339 0.56971 0.7149 0.0
H1144 H 0.80398 0.58196 0.85593 0.0
H1145 H 0.86711 0.58836 0.96379 0.0
H1146 H 0.83465 0.56486 0.70841 0.0
H1147 H 0.81582 0.5454 0.75188 0.0
H1148 H 0.80752 0.57533 0.74181 0.0
H1149 H 0.90197 0.57183 0.93193 0.0
H1150 H 0.8985 0.54636 0.8828 0.0
H1151 H 0.90687 0.57371 0.84791 0.0
H1152 H 0.86949 0.48323 0.79594 0.0
H1153 H 0.91366 0.52899 0.68743 0.0
H1154 H 0.82611 0.52161 0.83777 0.0
H1155 H 0.84776 0.52538 0.89778 0.0
H1156 H 0.84162 0.49672 0.8667 0.0
H1157 H 0.88026 0.58333 0.72526 0.0
H1158 H 0.89631 0.56902 0.66298 0.0
H1159 H 0.9103 0.57487 0.73631 0.0
C1160 C 0.01794 0.19718 0.83668 0.0
C1161 C 0.02547 0.19721 0.89986 0.0
C1162 C 0.01586 0.1762 0.80195 0.0
C1163 C 0.02177 0.15464 0.83055 0.0
C1164 C 0.02954 0.1546 0.89414 0.0
C1165 C 0.0312 0.17576 0.92791 0.0
C1166 C 1.0072 0.17708 0.73464 0.0
C1167 C 0.03645 0.13219 0.92636 0.0
C1168 C 0.99743 0.09712 0.76524 0.0
C1169 C 0.01628 0.08865 0.7295 0.0
C1170 C 0.99886 0.11862 0.79748 0.0
C1171 C 0.01971 0.13211 0.79438 0.0
C1172 C 0.0387 0.12376 0.75768 0.0
C1173 C 0.03664 0.10233 0.72516 0.0
C1174 C 0.97809 0.1268 0.83547 0.0
C1175 C 0.06136 0.13729 0.75348 0.0
H1176 H 0.01337 0.21358 0.81459 0.0
H1177 H 0.03748 0.17556 0.97622 0.0
H1178 H 0.02054 0.1698 0.70207 0.0
H1179 H 0.99125 0.16612 0.72993 0.0
H1180 H 1.00313 0.19513 0.71929 0.0
H1181 H 0.04146 0.13494 0.97656 0.0
H1182 H 0.02187 0.11934 0.92472 0.0
H1183 H 0.05142 0.12437 0.9008 0.0
H1184 H 0.98155 0.08678 0.76873 0.0
H1185 H 0.05099 0.09634 0.69601 0.0
H1186 H 0.97277 0.14438 0.81927 0.0
H1187 H 0.98287 0.12833 0.88615 0.0
H1188 H 0.96291 0.11471 0.83147 0.0
H1189 H 0.05814 0.15522 0.736 0.0
H1190 H 0.07424 0.12879 0.72163 0.0
H1191 H 0.06913 0.1389 0.80131 0.0
C1192 C 0.3404 0.03583 0.81907 0.0
C1193 C 0.3381 0.02954 0.88322 0.0
C1194 C 0.362 0.03437 0.78692 0.0
C1195 C 0.38203 0.02646 0.81942 0.0
C1196 C 0.37975 0.01958 0.88368 0.0
C1197 C 0.35793 0.02118 0.91463 0.0
C1198 C 0.36347 0.04169 0.71833 0.0
C1199 C 0.40054 1.01104 0.92035 0.0
C1200 C 0.43526 1.00544 0.72531 0.0
C1201 C 0.45022 0.025 0.72725 0.0
C1202 C 0.41304 1.00573 0.7544 0.0
C1203 C 0.40547 0.026 0.78686 0.0
C1204 C 0.42046 0.04584 0.78868 0.0
C1205 C 0.44252 0.04513 0.75876 0.0
C1206 C 0.39767 0.98425 0.75054 0.0
C1207 C 0.41326 0.06782 0.82275 0.0
H1208 H 0.32525 0.04203 0.79384 0.0
H1209 H 0.35661 0.01658 0.96428 0.0
H1210 H 0.3755 0.05687 0.71339 0.0
H1211 H 0.37073 0.02734 0.68917 0.0
H1212 H 0.34619 0.04656 0.69896 0.0
H1213 H 0.39578 1.00548 0.96917 0.0
H1214 H 0.40868 0.9961 0.89543 0.0
H1215 H 0.41391 0.02512 0.92332 0.0
H1216 H 0.44083 0.98985 0.70067 0.0
H1217 H 0.45388 0.06034 0.76078 0.0
H1218 H 0.38077 0.98869 0.72839 0.0
H1219 H 0.39378 0.97766 0.79887 0.0
H1220 H 0.40589 0.97003 0.72269 0.0
H1221 H 0.3968 0.0745 0.80244 0.0
H1222 H 0.42679 0.08178 0.81963 0.0
H1223 H 0.40984 0.06393 0.87343 0.0
C1224 C 0.51237 0.36406 0.89437 0.0
C1225 C 0.50744 0.34244 0.86583 0.0
C1226 C 0.51382 0.38474 0.85856 0.0
C1227 C 0.51063 0.38391 0.7921 0.0
C1228 C 0.50626 0.36205 0.76263 0.0
C1229 C 0.50441 0.34165 0.7999 0.0
C1230 C 0.51815 0.40762 0.89224 0.0
C1231 C 0.50303 0.36023 0.69191 0.0
C1232 C 0.4911 0.4407 0.715 0.0
C1233 C 0.51238 0.45075 0.69542 0.0
C1234 C 0.49021 0.41881 0.74514 0.0
C1235 C 0.51105 0.40613 0.75442 0.0
C1236 C 0.53243 0.41554 0.73142 0.0
C1237 C 0.53289 0.43777 0.70288 0.0
C1238 C 0.46701 0.40969 0.76914 0.0
C1239 C 0.55494 0.40232 0.73817 0.0
H1240 H 0.51435 0.36494 0.94534 0.0
H1241 H 0.50064 0.32504 0.77742 0.0
H1242 H 0.53376 0.41652 0.87202 0.0
H1243 H 0.50308 0.41934 0.88508 0.0
H1244 H 0.52079 0.40529 0.94392 0.0
H1245 H 0.50312 0.34183 0.67526 0.0
H1246 H 0.48611 0.36805 0.67876 0.0
H1247 H 0.51697 0.37008 0.66654 0.0
H1248 H 0.47504 0.45008 0.70748 0.0
H1249 H 0.54943 0.44508 0.68714 0.0
H1250 H 0.46684 0.41016 0.82168 0.0
H1251 H 0.4643 0.39128 0.75452 0.0
H1252 H 0.45217 0.42019 0.75166 0.0
H1253 H 0.55898 0.39991 0.78905 0.0
H1254 H 0.56989 0.41148 0.7151 0.0
H1255 H 0.55309 0.3847 0.71685 0.0
C1256 C 0.16456 0.49503 0.91826 0.0
C1257 C 0.18599 0.50406 0.8966 0.0
C1258 C 0.14361 0.49928 0.88595 0.0
C1259 C 0.14383 0.51243 0.82907 0.0
C1260 C 0.16542 0.52226 0.80799 0.0
C1261 C 0.18614 0.51802 0.84205 0.0
C1262 C 0.12131 0.48916 0.9126 0.0
C1263 C 0.16735 0.53698 0.74909 0.0
C1264 C 0.09116 0.49907 0.72263 0.0
C1265 C 0.07767 0.51924 0.72945 0.0
C1266 C 0.11295 0.49689 0.75281 0.0
C1267 C 0.12154 0.51522 0.79196 0.0
C1268 C 0.10794 0.53569 0.79869 0.0
C1269 C 0.08646 0.53758 0.76674 0.0
C1270 C 0.12618 0.4745 0.74321 0.0
C1271 C 0.11576 0.55539 0.84121 0.0
H1272 H 0.16412 0.4846 0.9611 0.0
H1273 H 0.20256 0.52518 0.82488 0.0
H1274 H 0.10657 0.50142 0.9068 0.0
H1275 H 0.11717 0.47285 0.88664 0.0
H1276 H 0.12292 0.48479 0.96363 0.0
H1277 H 0.17705 0.5272 0.71218 0.0
H1278 H 0.15021 0.54208 0.73002 0.0
H1279 H 0.17761 0.55308 0.7592 0.0
H1280 H 0.08472 0.48487 0.69344 0.0
H1281 H 0.07618 0.55323 0.77261 0.0
H1282 H 0.11824 0.46068 0.77341 0.0
H1283 H 0.14492 0.47613 0.75526 0.0
H1284 H 0.12469 0.46855 0.6933 0.0
H1285 H 0.11934 0.54861 0.88941 0.0
H1286 H 0.10253 0.5694 0.8449 0.0
H1287 H 0.13223 0.56315 0.82267 0.0
C1288 C 1.00684 0.86643 0.40292 0.0
C1289 C 1.00211 0.8457 0.43617 0.0
C1290 C 1.00818 0.88809 0.43417 0.0
C1291 C 1.0052 0.88915 0.50076 0.0
C1292 C 1.00106 0.86817 0.53491 0.0
C1293 C 0.99917 0.84676 0.50211 0.0
C1294 C 0.01238 0.90995 0.39564 0.0
C1295 C 0.99837 0.86839 0.606 0.0
C1296 C 0.0278 0.94478 0.58048 0.0
C1297 C 1.00724 0.95749 0.58889 0.0
C1298 C 0.02734 0.92223 0.55385 0.0
C1299 C 1.00582 0.91233 0.53389 0.0
C1300 C 0.98501 0.92525 0.54225 0.0
C1301 C 0.986 0.94763 0.56964 0.0
C1302 C 0.0499 0.90904 0.54716 0.0
C1303 C 0.96174 0.91568 0.52086 0.0
H1304 H 1.00882 0.8658 0.35186 0.0
H1305 H 0.99553 0.8308 0.52805 0.0
H1306 H 0.99762 0.92214 0.40225 0.0
H1307 H 0.02839 0.91904 0.41227 0.0
H1308 H 0.01435 0.9062 0.34429 0.0
H1309 H 0.99766 0.85048 0.62607 0.0
H1310 H 0.0131 0.87804 0.62803 0.0
H1311 H 0.98209 0.87757 0.61921 0.0
H1312 H 0.04428 0.95261 0.59411 0.0
H1313 H 0.97011 0.95747 0.57616 0.0
H1314 H 0.05209 0.90249 0.49808 0.0
H1315 H 0.04947 0.89365 0.57903 0.0
H1316 H 0.06533 0.91999 0.5593 0.0
H1317 H 0.96179 0.91387 0.46854 0.0
H1318 H 0.94703 0.92712 0.53488 0.0
H1319 H 0.95865 0.89805 0.54112 0.0
C1320 C 0.67649 0.98284 0.44951 0.0
C1321 C 0.69327 1.00087 0.44531 0.0
C1322 C 0.65537 0.98573 0.48302 0.0
C1323 C 0.65055 1.00727 0.51318 0.0
C1324 C 0.66753 0.02541 0.51045 0.0
C1325 C 0.68861 0.02201 0.47675 0.0
C1326 C 0.63782 0.96591 0.48426 0.0
C1327 C 0.66311 0.04871 0.5415 0.0
C1328 C 0.58593 0.0215 0.53058 0.0
C1329 C 0.58119 0.01565 0.59392 0.0
C1330 C 0.60845 0.0195 0.50459 0.0
C1331 C 0.62696 1.01132 0.54261 0.0
C1332 C 0.62244 1.00594 0.60725 0.0
C1333 C 0.59962 1.00824 0.6322 0.0
C1334 C 0.61225 0.02563 0.43574 0.0
C1335 C 0.64158 0.99721 0.64961 0.0
H1336 H 0.67943 0.96658 0.42466 0.0
H1337 H 0.70139 0.03604 0.47473 0.0
H1338 H 0.63242 0.96205 0.53373 0.0
H1339 H 0.62192 0.97102 0.45809 0.0
H1340 H 0.6448 0.94971 0.46261 0.0
H1341 H 0.67862 0.06046 0.53916 0.0
H1342 H 0.64832 0.05745 0.51778 0.0
H1343 H 0.65807 0.04623 0.59185 0.0
H1344 H 0.57189 0.02761 0.50084 0.0
H1345 H 0.59609 1.00367 0.68115 0.0
H1346 H 0.61723 1.00977 0.40891 0.0
H1347 H 0.62678 0.03843 0.43086 0.0
H1348 H 0.5964 0.03309 0.4137 0.0
H1349 H 0.64883 0.98079 0.63009 0.0
H1350 H 0.63531 0.99387 0.69865 0.0
H1351 H 0.65606 1.01017 0.65127 0.0
C1352 C 0.51739 0.69519 0.47875 0.0
C1353 C 0.52155 0.69656 0.41327 0.0
C1354 C 0.51627 0.67347 0.51012 0.0
C1355 C 0.51982 0.65254 0.47555 0.0
C1356 C 0.52408 0.65385 0.40949 0.0
C1357 C 0.52477 0.67574 0.37923 0.0
C1358 C 0.51125 0.6729 0.58033 0.0
C1359 C 0.52833 0.63211 0.37084 0.0
C1360 C 0.53826 0.59758 0.56462 0.0
C1361 C 0.51744 0.58453 0.56654 0.0
C1362 C 0.53933 0.61964 0.53516 0.0
C1363 C 0.51893 0.62926 0.50818 0.0
C1364 C 0.49772 0.6164 0.51146 0.0
C1365 C 0.49726 0.59423 0.54019 0.0
C1366 C 0.56239 0.63252 0.53213 0.0
C1367 C 0.47549 0.62599 0.48412 0.0
H1368 H 0.51479 0.71114 0.5054 0.0
H1369 H 0.52844 0.6766 0.32887 0.0
H1370 H 0.49545 0.66209 0.58983 0.0
H1371 H 0.52596 0.66466 0.60565 0.0
H1372 H 0.50849 0.69061 0.60026 0.0
H1373 H 0.53115 0.636 0.31983 0.0
H1374 H 0.54391 0.62302 0.38909 0.0
H1375 H 0.51333 0.61986 0.37552 0.0
H1376 H 0.55378 0.59056 0.58624 0.0
H1377 H 0.48104 0.58436 0.5414 0.0
H1378 H 0.56067 0.65015 0.55328 0.0
H1379 H 0.56772 0.63491 0.48195 0.0
H1380 H 0.57645 0.62307 0.55721 0.0
H1381 H 0.47176 0.64335 0.50502 0.0
H1382 H 0.46024 0.6143 0.4928 0.0
H1383 H 0.47754 0.62847 0.4323 0.0
C1384 C 0.85994 0.52684 0.38857 0.0
C1385 C 0.83814 0.52996 0.41789 0.0
C1386 C 0.88065 0.52606 0.42408 0.0
C1387 C 0.87965 0.52798 0.49097 0.0
C1388 C 0.8576 0.53059 0.52101 0.0
C1389 C 0.83719 0.5319 0.4841 0.0
C1390 C 0.9037 0.52361 0.38981 0.0
C1391 C 0.85556 0.53237 0.59207 0.0
C1392 C 0.93347 0.50604 0.57834 0.0
C1393 C 0.94586 0.52685 0.59038 0.0
C1394 C 0.91154 0.50622 0.54848 0.0
C1395 C 0.9018 0.52767 0.52876 0.0
C1396 C 0.91396 0.54875 0.54206 0.0
C1397 C 0.93559 0.54809 0.57342 0.0
C1398 C 0.89892 0.48337 0.53727 0.0
C1399 C 0.90452 0.57205 0.52151 0.0
H1400 H 0.86088 0.52567 0.33739 0.0
H1401 H 0.82042 0.53429 0.50709 0.0
H1402 H 0.91505 0.53891 0.40022 0.0
H1403 H 0.91291 0.50787 0.40682 0.0
H1404 H 0.90156 0.52223 0.33769 0.0
H1405 H 0.83713 0.53163 0.60858 0.0
H1406 H 0.8653 0.51806 0.61503 0.0
H1407 H 0.86335 0.54912 0.60803 0.0
H1408 H 0.94095 0.48947 0.59188 0.0
H1409 H 0.94447 0.56432 0.5844 0.0
H1410 H 0.8964 0.48061 0.48575 0.0
H1411 H 0.88135 0.48387 0.55957 0.0
H1412 H 0.90853 0.46825 0.55673 0.0
H1413 H 0.90565 0.57342 0.46917 0.0
H1414 H 0.91438 0.5869 0.54251 0.0
H1415 H 0.88587 0.57366 0.53502 0.0
loop_
_geom_bond_atom_site_label_1
_geom_bond_atom_site_label_2
_geom_bond_distance
_geom_bond_site_symmetry_2
_ccdc_geom_bond_type
C0 C1 1.386 . S
C0 C2 1.397 . S
C0 H24 0.931 . S
C1 C0 1.386 . S
C1 C5 1.397 . S
C2 C0 1.397 . S
C2 C3 1.384 . S
C2 H25 0.930 . S
C3 C2 1.384 . S
C3 C4 1.377 . S
C3 C6 1.481 . S
C4 C3 1.377 . S
C4 C5 1.389 . S
C4 H26 0.929 . S
C5 C1 1.397 . S
C5 C4 1.389 . S
C5 H27 0.931 . S
C6 C3 1.481 . S
C6 C7 1.387 . S
C6 C11 1.390 . S
C7 C6 1.387 . S
C7 C8 1.401 . S
C7 H28 0.930 . S
C8 C7 1.401 . S
C8 C9 1.376 . S
C8 C17 1.511 . S
C9 C8 1.376 . S
C9 C10 1.392 . S
C9 H30 0.931 . S
C10 C9 1.392 . S
C10 C11 1.361 . S
C10 C12 1.500 . S
C11 C6 1.390 . S
C11 C10 1.361 . S
C11 H29 0.931 . S
C12 C10 1.500 . S
C12 C13 1.371 . S
C12 C14 1.365 . S
C13 C12 1.371 . S
C13 C23 1.386 . S
C13 H31 0.931 . S
C14 C12 1.365 . S
C14 C15 1.409 . S
C14 H32 0.929 . S
C15 C14 1.409 . S
C15 C16 1.380 . S
C15 H33 0.930 . S
C16 C15 1.380 . S
C16 C23 1.357 . S
C17 C8 1.511 . S
C17 C18 1.341 . S
C17 C19 1.371 . S
C18 C17 1.341 . S
C18 C22 1.394 . S
C18 H34 0.930 . S
C19 C17 1.371 . S
C19 C20 1.392 . S
C19 H35 0.931 . S
C20 C19 1.392 . S
C20 C21 1.331 . S
C20 H38 0.932 . S
C21 C20 1.331 . S
C21 C22 1.336 . S
C22 C18 1.394 . S
C22 C21 1.336 . S
C22 H37 0.929 . S
C23 C13 1.386 . S
C23 C16 1.357 . S
C23 H36 0.928 . S
H24 C0 0.931 . S
H25 C2 0.930 . S
H26 C4 0.929 . S
H27 C5 0.931 . S
H28 C7 0.930 . S
H29 C11 0.931 . S
H30 C9 0.931 . S
H31 C13 0.931 . S
H32 C14 0.929 . S
H33 C15 0.930 . S
H34 C18 0.930 . S
H35 C19 0.931 . S
H36 C23 0.928 . S
H37 C22 0.929 . S
H38 C20 0.932 . S
C39 C40 1.386 . S
C39 C41 1.397 . S
C39 H63 0.931 . S
C40 C39 1.386 . S
C40 C44 1.397 . S
C41 C39 1.397 . S
C41 C42 1.384 . S
C41 H64 0.930 . S
C42 C41 1.384 . S
C42 C43 1.377 . S
C42 C45 1.481 . S
C43 C42 1.377 . S
C43 C44 1.389 . S
C43 H65 0.929 . S
C44 C40 1.397 . S
C44 C43 1.389 . S
C44 H66 0.931 . S
C45 C42 1.481 . S
C45 C46 1.387 . S
C45 C50 1.390 . S
C46 C45 1.387 . S
C46 C47 1.401 . S
C46 H67 0.930 . S
C47 C46 1.401 . S
C47 C48 1.376 . S
C47 C56 1.511 . S
C48 C47 1.376 . S
C48 C49 1.392 . S
C48 H69 0.931 . S
C49 C48 1.392 . S
C49 C50 1.361 . S
C49 C51 1.500 . S
C50 C45 1.390 . S
C50 C49 1.361 . S
C50 H68 0.931 . S
C51 C49 1.500 . S
C51 C52 1.371 . S
C51 C53 1.365 . S
C52 C51 1.371 . S
C52 C62 1.386 . S
C52 H70 0.931 . S
C53 C51 1.365 . S
C53 C54 1.409 . S
C53 H71 0.929 . S
C54 C53 1.409 . S
C54 C55 1.380 . S
C54 H72 0.930 . S
C55 C54 1.380 . S
C55 C62 1.357 . S
C56 C47 1.511 . S
C56 C57 1.341 . S
C56 C58 1.371 . S
C57 C56 1.341 . S
C57 C61 1.394 . S
C57 H73 0.930 . S
C58 C56 1.371 . S
C58 C59 1.392 . S
C58 H74 0.931 . S
C59 C58 1.392 . S
C59 C60 1.331 . S
C59 H77 0.932 . S
C60 C59 1.331 . S
C60 C61 1.336 . S
C61 C57 1.394 . S
C61 C60 1.336 . S
C61 H76 0.929 . S
C62 C52 1.386 . S
C62 C55 1.357 . S
C62 H75 0.928 . S
H63 C39 0.931 . S
H64 C41 0.930 . S
H65 C43 0.929 . S
H66 C44 0.931 . S
H67 C46 0.930 . S
H68 C50 0.931 . S
H69 C48 0.931 . S
H70 C52 0.931 . S
H71 C53 0.929 . S
H72 C54 0.930 . S
H73 C57 0.930 . S
H74 C58 0.931 . S
H75 C62 0.928 . S
H76 C61 0.929 . S
H77 C59 0.932 . S
C78 C79 1.386 . S
C78 C80 1.397 . S
C78 H102 0.931 . S
C79 C78 1.386 . S
C79 C83 1.397 . S
C80 C78 1.397 . S
C80 C81 1.384 . S
C80 H103 0.930 . S
C81 C80 1.384 . S
C81 C82 1.377 . S
C81 C84 1.481 . S
C82 C81 1.377 . S
C82 C83 1.389 . S
C82 H104 0.929 . S
C83 C79 1.397 . S
C83 C82 1.389 . S
C83 H105 0.931 . S
C84 C81 1.481 . S
C84 C85 1.387 . S
C84 C89 1.390 . S
C85 C84 1.387 . S
C85 C86 1.401 . S
C85 H106 0.930 . S
C86 C85 1.401 . S
C86 C87 1.376 . S
C86 C95 1.511 . S
C87 C86 1.376 . S
C87 C88 1.392 . S
C87 H108 0.931 . S
C88 C87 1.392 . S
C88 C89 1.361 . S
C88 C90 1.500 . S
C89 C84 1.390 . S
C89 C88 1.361 . S
C89 H107 0.931 . S
C90 C88 1.500 . S
C90 C91 1.371 . S
C90 C92 1.365 . S
C91 C90 1.371 . S
C91 C101 1.386 . S
C91 H109 0.931 . S
C92 C90 1.365 . S
C92 C93 1.409 . S
C92 H110 0.929 . S
C93 C92 1.409 . S
C93 C94 1.380 . S
C93 H111 0.930 . S
C94 C93 1.380 . S
C94 C101 1.357 . S
C95 C86 1.511 . S
C95 C96 1.341 . S
C95 C97 1.371 . S
C96 C95 1.341 . S
C96 C100 1.394 . S
C96 H112 0.930 . S
C97 C95 1.371 . S
C97 C98 1.392 . S
C97 H113 0.931 . S
C98 C97 1.392 . S
C98 C99 1.331 . S
C98 H116 0.932 . S
C99 C98 1.331 . S
C99 C100 1.336 . S
C100 C96 1.394 . S
C100 C99 1.336 . S
C100 H115 0.929 . S
C101 C91 1.386 . S
C101 C94 1.357 . S
C101 H114 0.928 . S
H102 C78 0.931 . S
H103 C80 0.930 . S
H104 C82 0.929 . S
H105 C83 0.931 . S
H106 C85 0.930 . S
H107 C89 0.931 . S
H108 C87 0.931 . S
H109 C91 0.931 . S
H110 C92 0.929 . S
H111 C93 0.930 . S
H112 C96 0.930 . S
H113 C97 0.931 . S
H114 C101 0.928 . S
H115 C100 0.929 . S
H116 C98 0.932 . S
C117 C118 1.386 . S
C117 C119 1.397 . S
C117 H141 0.931 . S
C118 C117 1.386 . S
C118 C122 1.397 . S
C119 C117 1.397 . S
C119 C120 1.384 . S
C119 H142 0.930 . S
C120 C119 1.384 . S
C120 C121 1.377 . S
C120 C123 1.481 . S
C121 C120 1.377 . S
C121 C122 1.389 . S
C121 H143 0.929 . S
C122 C118 1.397 . S
C122 C121 1.389 . S
C122 H144 0.931 . S
C123 C120 1.481 . S
C123 C124 1.387 . S
C123 C128 1.390 . S
C124 C123 1.387 . S
C124 C125 1.401 . S
C124 H145 0.930 . S
C125 C124 1.401 . S
C125 C126 1.376 . S
C125 C134 1.511 . S
C126 C125 1.376 . S
C126 C127 1.392 . S
C126 H147 0.931 . S
C127 C126 1.392 . S
C127 C128 1.361 . S
C127 C129 1.500 . S
C128 C123 1.390 . S
C128 C127 1.361 . S
C128 H146 0.931 . S
C129 C127 1.500 . S
C129 C130 1.371 . S
C129 C131 1.365 . S
C130 C129 1.371 . S
C130 C140 1.386 . S
C130 H148 0.931 . S
C131 C129 1.365 . S
C131 C132 1.409 . S
C131 H149 0.929 . S
C132 C131 1.409 . S
C132 C133 1.380 . S
C132 H150 0.930 . S
C133 C132 1.380 . S
C133 C140 1.357 . S
C134 C125 1.511 . S
C134 C135 1.341 . S
C134 C136 1.371 . S
C135 C134 1.341 . S
C135 C139 1.394 . S
C135 H151 0.930 . S
C136 C134 1.371 . S
C136 C137 1.392 . S
C136 H152 0.931 . S
C137 C136 1.392 . S
C137 C138 1.331 . S
C137 H155 0.932 . S
C138 C137 1.331 . S
C138 C139 1.336 . S
C139 C135 1.394 . S
C139 C138 1.336 . S
C139 H154 0.929 . S
C140 C130 1.386 . S
C140 C133 1.357 . S
C140 H153 0.928 . S
H141 C117 0.931 . S
H142 C119 0.930 . S
H143 C121 0.929 . S
H144 C122 0.931 . S
H145 C124 0.930 . S
H146 C128 0.931 . S
H147 C126 0.931 . S
H148 C130 0.931 . S
H149 C131 0.929 . S
H150 C132 0.930 . S
H151 C135 0.930 . S
H152 C136 0.931 . S
H153 C140 0.928 . S
H154 C139 0.929 . S
H155 C137 0.932 . S
C156 C157 1.386 . S
C156 C158 1.397 . S
C156 H180 0.931 . S
C157 C156 1.386 . S
C157 C161 1.397 . S
C158 C156 1.397 . S
C158 C159 1.384 . S
C158 H181 0.930 . S
C159 C158 1.384 . S
C159 C160 1.377 . S
C159 C162 1.481 . S
C160 C159 1.377 . S
C160 C161 1.389 . S
C160 H182 0.929 . S
C161 C157 1.397 . S
C161 C160 1.389 . S
C161 H183 0.931 . S
C162 C159 1.481 . S
C162 C163 1.387 . S
C162 C167 1.390 . S
C163 C162 1.387 . S
C163 C164 1.401 . S
C163 H184 0.930 . S
C164 C163 1.401 . S
C164 C165 1.376 1_554 S
C164 C173 1.511 . S
C165 C164 1.376 1_556 S
C165 C166 1.392 . S
C165 H186 0.931 . S
C166 C165 1.392 . S
C166 C167 1.361 1_556 S
C166 C168 1.500 . S
C167 C162 1.390 . S
C167 C166 1.361 1_554 S
C167 H185 0.931 . S
C168 C166 1.500 . S
C168 C169 1.371 . S
C168 C170 1.365 . S
C169 C168 1.371 . S
C169 C179 1.386 . S
C169 H187 0.931 . S
C170 C168 1.365 . S
C170 C171 1.409 . S
C170 H188 0.929 . S
C171 C170 1.409 . S
C171 C172 1.380 . S
C171 H189 0.930 . S
C172 C171 1.380 . S
C172 C179 1.357 . S
C173 C164 1.511 . S
C173 C174 1.341 . S
C173 C175 1.371 . S
C174 C173 1.341 . S
C174 C178 1.394 . S
C174 H190 0.930 . S
C175 C173 1.371 . S
C175 C176 1.392 . S
C175 H191 0.931 1_554 S
C176 C175 1.392 . S
C176 C177 1.331 . S
C176 H194 0.932 . S
C177 C176 1.331 . S
C177 C178 1.336 . S
C178 C174 1.394 . S
C178 C177 1.336 . S
C178 H193 0.929 . S
C179 C169 1.386 . S
C179 C172 1.357 . S
C179 H192 0.928 . S
H180 C156 0.931 . S
H181 C158 0.930 . S
H182 C160 0.929 . S
H183 C161 0.931 . S
H184 C163 0.930 . S
H185 C167 0.931 . S
H186 C165 0.931 . S
H187 C169 0.931 . S
H188 C170 0.929 . S
H189 C171 0.930 . S
H190 C174 0.930 . S
H191 C175 0.931 1_556 S
H192 C179 0.928 . S
H193 C178 0.929 . S
H194 C176 0.932 . S
C195 C196 1.386 . S
C195 C197 1.397 . S
C195 H219 0.931 . S
C196 C195 1.386 . S
C196 C200 1.397 . S
C197 C195 1.397 . S
C197 C198 1.384 . S
C197 H220 0.930 . S
C198 C197 1.384 . S
C198 C199 1.377 . S
C198 C201 1.481 . S
C199 C198 1.377 . S
C199 C200 1.389 . S
C199 H221 0.929 . S
C200 C196 1.397 . S
C200 C199 1.389 . S
C200 H222 0.931 . S
C201 C198 1.481 . S
C201 C202 1.387 . S
C201 C206 1.390 . S
C202 C201 1.387 . S
C202 C203 1.401 . S
C202 H223 0.930 . S
C203 C202 1.401 . S
C203 C204 1.376 1_554 S
C203 C212 1.511 . S
C204 C203 1.376 1_556 S
C204 C205 1.392 . S
C204 H225 0.931 . S
C205 C204 1.392 . S
C205 C206 1.361 1_556 S
C205 C207 1.500 . S
C206 C201 1.390 . S
C206 C205 1.361 1_554 S
C206 H224 0.931 . S
C207 C205 1.500 . S
C207 C208 1.371 . S
C207 C209 1.365 . S
C208 C207 1.371 . S
C208 C218 1.386 . S
C208 H226 0.931 . S
C209 C207 1.365 . S
C209 C210 1.409 . S
C209 H227 0.929 . S
C210 C209 1.409 . S
C210 C211 1.380 . S
C210 H228 0.930 . S
C211 C210 1.380 . S
C211 C218 1.357 . S
C212 C203 1.511 . S
C212 C213 1.341 . S
C212 C214 1.371 . S
C213 C212 1.341 . S
C213 C217 1.394 . S
C213 H229 0.930 . S
C214 C212 1.371 . S
C214 C215 1.392 . S
C214 H230 0.931 1_554 S
C215 C214 1.392 . S
C215 C216 1.331 . S
C215 H233 0.932 . S
C216 C215 1.331 . S
C216 C217 1.336 . S
C217 C213 1.394 . S
C217 C216 1.336 . S
C217 H232 0.929 . S
C218 C208 1.386 . S
C218 C211 1.357 . S
C218 H231 0.928 . S
H219 C195 0.931 . S
H220 C197 0.930 . S
H221 C199 0.929 . S
H222 C200 0.931 . S
H223 C202 0.930 . S
H224 C206 0.931 . S
H225 C204 0.931 . S
H226 C208 0.931 . S
H227 C209 0.929 . S
H228 C210 0.930 . S
H229 C213 0.930 . S
H230 C214 0.931 1_556 S
H231 C218 0.928 . S
H232 C217 0.929 . S
H233 C215 0.932 . S
C234 C235 1.386 . S
C234 C236 1.397 . S
C234 H258 0.931 . S
C235 C234 1.386 . S
C235 C239 1.397 . S
C236 C234 1.397 . S
C236 C237 1.384 . S
C236 H259 0.930 . S
C237 C236 1.384 . S
C237 C238 1.377 . S
C237 C240 1.481 . S
C238 C237 1.377 . S
C238 C239 1.389 . S
C238 H260 0.929 . S
C239 C235 1.397 . S
C239 C238 1.389 . S
C239 H261 0.931 . S
C240 C237 1.481 . S
C240 C241 1.387 . S
C240 C245 1.390 . S
C241 C240 1.387 . S
C241 C242 1.401 . S
C241 H262 0.930 . S
C242 C241 1.401 . S
C242 C243 1.376 1_554 S
C242 C251 1.511 . S
C243 C242 1.376 1_556 S
C243 C244 1.392 . S
C243 H264 0.931 . S
C244 C243 1.392 . S
C244 C245 1.361 1_556 S
C244 C246 1.500 . S
C245 C240 1.390 . S
C245 C244 1.361 1_554 S
C245 H263 0.931 . S
C246 C244 1.500 . S
C246 C247 1.371 . S
C246 C248 1.365 . S
C247 C246 1.371 . S
C247 C257 1.386 . S
C247 H265 0.931 . S
C248 C246 1.365 . S
C248 C249 1.409 . S
C248 H266 0.929 . S
C249 C248 1.409 . S
C249 C250 1.380 . S
C249 H267 0.930 . S
C250 C249 1.380 . S
C250 C257 1.357 . S
C251 C242 1.511 . S
C251 C252 1.341 . S
C251 C253 1.371 . S
C252 C251 1.341 . S
C252 C256 1.394 . S
C252 H268 0.930 . S
C253 C251 1.371 . S
C253 C254 1.392 . S
C253 H269 0.931 1_554 S
C254 C253 1.392 . S
C254 C255 1.331 . S
C254 H272 0.932 . S
C255 C254 1.331 . S
C255 C256 1.336 . S
C256 C252 1.394 . S
C256 C255 1.336 . S
C256 H271 0.929 . S
C257 C247 1.386 . S
C257 C250 1.357 . S
C257 H270 0.928 . S
H258 C234 0.931 . S
H259 C236 0.930 . S
H260 C238 0.929 . S
H261 C239 0.931 . S
H262 C241 0.930 . S
H263 C245 0.931 . S
H264 C243 0.931 . S
H265 C247 0.931 . S
H266 C248 0.929 . S
H267 C249 0.930 . S
H268 C252 0.930 . S
H269 C253 0.931 1_556 S
H270 C257 0.928 . S
H271 C256 0.929 . S
H272 C254 0.932 . S
C273 C274 1.386 . S
C273 C275 1.397 . S
C273 H297 0.931 . S
C274 C273 1.386 . S
C274 C278 1.397 . S
C275 C273 1.397 . S
C275 C276 1.384 . S
C275 H298 0.930 . S
C276 C275 1.384 . S
C276 C277 1.377 . S
C276 C279 1.481 . S
C277 C276 1.377 . S
C277 C278 1.389 . S
C277 H299 0.929 . S
C278 C274 1.397 . S
C278 C277 1.389 . S
C278 H300 0.931 . S
C279 C276 1.481 . S
C279 C280 1.387 . S
C279 C284 1.390 1_556 S
C280 C279 1.387 . S
C280 C281 1.401 1_556 S
C280 H301 0.930 . S
C281 C280 1.401 1_554 S
C281 C282 1.376 . S
C281 C290 1.511 . S
C282 C281 1.376 . S
C282 C283 1.392 . S
C282 H303 0.931 . S
C283 C282 1.392 . S
C283 C284 1.361 . S
C283 C285 1.500 . S
C284 C279 1.390 1_554 S
C284 C283 1.361 . S
C284 H302 0.931 . S
C285 C283 1.500 . S
C285 C286 1.371 . S
C285 C287 1.365 . S
C286 C285 1.371 . S
C286 C296 1.386 . S
C286 H304 0.931 . S
C287 C285 1.365 . S
C287 C288 1.409 . S
C287 H305 0.929 . S
C288 C287 1.409 . S
C288 C289 1.380 . S
C288 H306 0.930 . S
C289 C288 1.380 . S
C289 C296 1.357 . S
C290 C281 1.511 . S
C290 C291 1.341 . S
C290 C292 1.371 . S
C291 C290 1.341 . S
C291 C295 1.394 . S
C291 H307 0.930 1_554 S
C292 C290 1.371 . S
C292 C293 1.392 . S
C292 H308 0.931 . S
C293 C292 1.392 . S
C293 C294 1.331 . S
C293 H311 0.932 . S
C294 C293 1.331 . S
C294 C295 1.336 . S
C295 C291 1.394 . S
C295 C294 1.336 . S
C295 H310 0.929 . S
C296 C286 1.386 . S
C296 C289 1.357 . S
C296 H309 0.928 . S
H297 C273 0.931 . S
H298 C275 0.930 . S
H299 C277 0.929 . S
H300 C278 0.931 . S
H301 C280 0.930 . S
H302 C284 0.931 . S
H303 C282 0.931 . S
H304 C286 0.931 . S
H305 C287 0.929 . S
H306 C288 0.930 . S
H307 C291 0.930 1_556 S
H308 C292 0.931 . S
H309 C296 0.928 . S
H310 C295 0.929 . S
H311 C293 0.932 . S
C312 C314 1.422 . S
C312 C316 1.415 . S
C312 N318 1.369 . S
C313 C314 1.421 . S
C313 C315 1.417 . S
C313 C325 1.422 . S
C314 C312 1.422 . S
C314 C313 1.421 . S
C314 N324 1.359 . S
C315 C313 1.417 . S
C315 C317 1.329 . S
C315 H334 0.930 . S
C316 C312 1.415 . S
C316 C317 1.437 . S
C316 C320 1.413 . S
C317 C315 1.329 . S
C317 C316 1.437 . S
C317 H339 0.929 . S
N318 C312 1.369 . S
N318 C319 1.339 . S
N318 Gd323 2.622 1_545 S
C319 N318 1.339 . S
C319 C321 1.383 . S
C319 H331 0.922 1_545 S
C320 C316 1.413 . S
C320 C321 1.348 . S
C320 H336 0.931 . S
C321 C319 1.383 . S
C321 C320 1.348 . S
C321 H337 0.930 . S
Gd322 N342 2.622 . S
Gd322 N349 2.570 . S
Gd322 O356 2.353 1_655 S
Gd322 O357 2.468 . S
Gd322 O358 2.427 . S
Gd322 O360 2.388 . S
Gd322 O361 2.386 1_545 S
Gd322 O365 2.307 1_655 S
Gd322 C375 2.805 . S
Gd323 N318 2.622 1_565 S
Gd323 N324 2.570 1_565 S
Gd323 O355 2.386 1_565 S
Gd323 O359 2.307 1_465 S
Gd323 O362 2.353 . S
Gd323 O363 2.468 . S
Gd323 O364 2.427 . S
Gd323 O366 2.388 . S
Gd323 C387 2.805 . S
N324 C314 1.359 . S
N324 Gd323 2.570 1_545 S
N324 C326 1.343 . S
C325 C313 1.422 . S
C325 C327 1.321 . S
C325 H333 0.931 . S
C326 N324 1.343 . S
C326 C327 1.390 . S
C326 H328 0.898 1_455 S
C327 C325 1.321 . S
C327 C326 1.390 . S
C327 H329 0.930 . S
H328 C326 0.898 1_655 S
H329 C327 0.930 . S
H330 C353 0.931 1_455 S
H331 C319 0.922 1_565 S
H332 C354 0.930 1_455 S
H333 C325 0.931 . S
H334 C315 0.930 . S
H335 C344 0.929 . S
H336 C320 0.931 . S
H337 C321 0.930 . S
H338 C376 0.930 . S
H339 C317 0.929 . S
H340 C345 0.941 . S
H341 C346 0.930 . S
N342 Gd322 2.622 . S
N342 C343 1.369 . S
N342 C344 1.338 . S
C343 N342 1.369 . S
C343 C347 1.415 1_545 S
C343 C350 1.422 . S
C344 H335 0.929 . S
C344 N342 1.338 . S
C344 C346 1.378 . S
C345 H340 0.941 . S
C345 C346 1.336 1_565 S
C345 C347 1.415 . S
C346 H341 0.930 . S
C346 C344 1.378 . S
C346 C345 1.336 1_545 S
C347 C343 1.415 1_565 S
C347 C345 1.415 . S
C347 C377 1.437 . S
H348 C377 0.929 . S
N349 Gd322 2.570 . S
N349 C350 1.359 . S
N349 C353 1.343 . S
C350 C343 1.422 . S
C350 N349 1.359 . S
C350 C352 1.421 1_545 S
C351 C352 1.422 . S
C351 C354 1.321 . S
C351 H378 0.931 . S
C352 C350 1.421 1_565 S
C352 C351 1.422 . S
C352 C376 1.417 . S
C353 H330 0.931 1_655 S
C353 N349 1.343 . S
C353 C354 1.390 1_545 S
C354 H332 0.930 1_655 S
C354 C351 1.321 . S
C354 C353 1.390 1_565 S
O355 Gd323 2.386 1_545 S
O355 C367 1.265 . S
O356 Gd322 2.353 1_455 S
O356 C367 1.242 . S
O357 Gd322 2.468 . S
O357 C375 1.263 . S
O358 Gd322 2.427 . S
O358 C375 1.252 . S
O359 Gd323 2.307 1_645 S
O359 C368 1.261 . S
O360 Gd322 2.388 . S
O360 C368 1.252 . S
O361 Gd322 2.386 1_565 S
O361 C379 1.265 . S
O362 Gd323 2.353 . S
O362 C379 1.242 1_455 S
O363 Gd323 2.468 . S
O363 C387 1.263 . S
O364 Gd323 2.427 . S
O364 C387 1.252 . S
O365 Gd322 2.307 1_455 S
O365 C380 1.261 . S
O366 Gd323 2.388 . S
O366 C380 1.252 1_565 S
C367 O355 1.265 . S
C367 O356 1.242 . S
C368 O359 1.261 . S
C368 O360 1.252 . S
C369 C372 1.394 . S
C369 C374 1.370 . S
C369 C375 1.500 . S
C370 C373 1.383 . S
C370 C374 1.395 . S
C371 C372 1.396 . S
C371 C373 1.365 . S
C371 H388 0.929 . S
C372 C369 1.394 . S
C372 C371 1.396 . S
C372 H389 0.930 . S
C373 C370 1.383 . S
C373 C371 1.365 . S
C373 H390 0.931 . S
C374 C369 1.370 . S
C374 C370 1.395 . S
C374 H391 0.930 1_655 S
C375 Gd322 2.805 . S
C375 O357 1.263 . S
C375 O358 1.252 . S
C375 C369 1.500 . S
C376 H338 0.930 . S
C376 C352 1.417 . S
C376 C377 1.329 . S
C377 C347 1.437 . S
C377 H348 0.929 . S
C377 C376 1.329 . S
H378 C351 0.931 . S
C379 O361 1.265 . S
C379 O362 1.242 1_655 S
C380 O365 1.261 . S
C380 O366 1.252 1_545 S
C381 C384 1.394 . S
C381 C386 1.370 . S
C381 C387 1.500 . S
C382 C385 1.383 . S
C382 C386 1.395 . S
C383 C384 1.396 . S
C383 C385 1.365 . S
C383 H392 0.929 . S
C384 C381 1.394 . S
C384 C383 1.396 . S
C384 H393 0.930 . S
C385 C382 1.383 . S
C385 C383 1.365 . S
C385 H394 0.931 . S
C386 C381 1.370 . S
C386 C382 1.395 . S
C386 H395 0.930 . S
C387 Gd323 2.805 . S
C387 O363 1.263 . S
C387 O364 1.252 . S
C387 C381 1.500 . S
H388 C371 0.929 . S
H389 C372 0.930 . S
H390 C373 0.931 . S
H391 C374 0.930 1_455 S
H392 C383 0.929 . S
H393 C384 0.930 . S
H394 C385 0.931 . S
H395 C386 0.930 . S
C396 C398 1.422 . S
C396 C400 1.415 . S
C396 N402 1.369 . S
C397 C398 1.421 . S
C397 C399 1.417 . S
C397 C409 1.422 . S
C398 C396 1.422 . S
C398 C397 1.421 . S
C398 N408 1.359 . S
C399 C397 1.417 . S
C399 C401 1.329 . S
C399 H418 0.930 . S
C400 C396 1.415 . S
C400 C401 1.437 . S
C400 C404 1.413 . S
C401 C399 1.329 . S
C401 C400 1.437 . S
C401 H423 0.929 . S
N402 C396 1.369 . S
N402 C403 1.338 . S
N402 Gd407 2.622 . S
C403 N402 1.338 . S
C403 C405 1.378 . S
C403 H415 0.929 . S
C404 C400 1.413 . S
C404 C405 1.348 . S
C404 H420 0.931 . S
C405 C403 1.378 . S
C405 C404 1.348 . S
C405 H421 0.930 . S
Gd406 N426 2.622 . S
Gd406 N433 2.570 . S
Gd406 O440 2.353 1_545 S
Gd406 O441 2.468 . S
Gd406 O442 2.427 . S
Gd406 O444 2.388 . S
Gd406 O445 2.386 . S
Gd406 O449 2.307 . S
Gd406 C459 2.805 . S
Gd407 N402 2.622 . S
Gd407 N408 2.570 . S
Gd407 O439 2.386 . S
Gd407 O443 2.307 1_565 S
Gd407 O446 2.353 1_565 S
Gd407 O447 2.468 . S
Gd407 O448 2.427 . S
Gd407 O450 2.388 . S
Gd407 C471 2.805 . S
N408 C398 1.359 . S
N408 Gd407 2.570 . S
N408 C410 1.343 . S
C409 C397 1.422 . S
C409 C411 1.321 . S
C409 H417 0.931 . S
C410 N408 1.343 . S
C410 C411 1.390 . S
C410 H412 0.931 . S
C411 C409 1.321 . S
C411 C410 1.390 . S
C411 H413 0.930 . S
H412 C410 0.931 . S
H413 C411 0.930 . S
H414 C437 0.931 . S
H415 C403 0.929 . S
H416 C438 0.930 . S
H417 C409 0.931 . S
H418 C399 0.930 . S
H419 C428 0.929 . S
H420 C404 0.931 . S
H421 C405 0.930 . S
H422 C460 0.930 . S
H423 C401 0.929 . S
H424 C429 0.931 . S
H425 C430 0.930 . S
N426 Gd406 2.622 . S
N426 C427 1.369 . S
N426 C428 1.338 . S
C427 N426 1.369 . S
C427 C431 1.415 . S
C427 C434 1.422 . S
C428 H419 0.929 . S
C428 N426 1.338 . S
C428 C430 1.378 . S
C429 H424 0.931 . S
C429 C430 1.348 . S
C429 C431 1.413 . S
C430 H425 0.930 . S
C430 C428 1.378 . S
C430 C429 1.348 . S
C431 C427 1.415 . S
C431 C429 1.413 . S
C431 C461 1.437 . S
H432 C461 0.929 . S
N433 Gd406 2.570 . S
N433 C434 1.359 . S
N433 C437 1.343 . S
C434 C427 1.422 . S
C434 N433 1.359 . S
C434 C436 1.421 . S
C435 C436 1.422 . S
C435 C438 1.321 . S
C435 H462 0.931 . S
C436 C434 1.421 . S
C436 C435 1.422 . S
C436 C460 1.417 . S
C437 H414 0.931 . S
C437 N433 1.343 . S
C437 C438 1.390 . S
C438 H416 0.930 . S
C438 C435 1.321 . S
C438 C437 1.390 . S
O439 Gd407 2.386 . S
O439 C451 1.265 . S
O440 Gd406 2.353 1_565 S
O440 C451 1.242 . S
O441 Gd406 2.468 . S
O441 C459 1.263 . S
O442 Gd406 2.427 . S
O442 C459 1.252 . S
O443 Gd407 2.307 1_545 S
O443 C452 1.261 . S
O444 Gd406 2.388 . S
O444 C452 1.252 . S
O445 Gd406 2.386 . S
O445 C463 1.265 . S
O446 Gd407 2.353 1_545 S
O446 C463 1.242 . S
O447 Gd407 2.468 . S
O447 C471 1.263 . S
O448 Gd407 2.427 . S
O448 C471 1.252 . S
O449 Gd406 2.307 . S
O449 C464 1.259 1_545 S
O450 Gd407 2.388 . S
O450 C464 1.253 . S
C451 O439 1.265 . S
C451 O440 1.242 . S
C452 O443 1.261 . S
C452 O444 1.252 . S
C453 C456 1.394 . S
C453 C458 1.370 . S
C453 C459 1.500 . S
C454 C457 1.383 . S
C454 C458 1.395 . S
C455 C456 1.396 . S
C455 C457 1.365 . S
C455 H472 0.929 . S
C456 C453 1.394 . S
C456 C455 1.396 . S
C456 H473 0.930 . S
C457 C454 1.383 . S
C457 C455 1.365 . S
C457 H474 0.931 . S
C458 C453 1.370 . S
C458 C454 1.395 . S
C458 H475 0.930 . S
C459 Gd406 2.805 . S
C459 O441 1.263 . S
C459 O442 1.252 . S
C459 C453 1.500 . S
C460 H422 0.930 . S
C460 C436 1.417 . S
C460 C461 1.329 . S
C461 C431 1.437 . S
C461 H432 0.929 . S
C461 C460 1.329 . S
H462 C435 0.931 . S
C463 O445 1.265 . S
C463 O446 1.242 . S
C464 O449 1.259 1_565 S
C464 O450 1.253 . S
C465 C468 1.394 . S
C465 C470 1.370 1_565 S
C465 C471 1.500 . S
C466 C469 1.383 1_545 S
C466 C470 1.395 . S
C467 C468 1.396 . S
C467 C469 1.365 . S
C467 H476 0.929 . S
C468 C465 1.394 . S
C468 C467 1.396 . S
C468 H477 0.930 . S
C469 C466 1.383 1_565 S
C469 C467 1.365 . S
C469 H478 0.931 . S
C470 C465 1.370 1_545 S
C470 C466 1.395 . S
C470 H479 0.930 . S
C471 Gd407 2.805 . S
C471 O447 1.263 . S
C471 O448 1.252 . S
C471 C465 1.500 . S
H472 C455 0.929 . S
H473 C456 0.930 . S
H474 C457 0.931 . S
H475 C458 0.930 . S
H476 C467 0.929 . S
H477 C468 0.930 . S
H478 C469 0.931 . S
H479 C470 0.930 . S
C480 C482 1.422 . S
C480 C484 1.415 . S
C480 N486 1.369 . S
C481 C482 1.421 . S
C481 C483 1.417 . S
C481 C493 1.422 . S
C482 C480 1.422 . S
C482 C481 1.421 . S
C482 N492 1.359 . S
C483 C481 1.417 . S
C483 C485 1.329 . S
C483 H502 0.930 . S
C484 C480 1.415 . S
C484 C485 1.437 . S
C484 C488 1.413 . S
C485 C483 1.329 . S
C485 C484 1.437 . S
C485 H507 0.929 . S
N486 C480 1.369 . S
N486 C487 1.338 . S
N486 Gd491 2.622 . S
C487 N486 1.338 . S
C487 C489 1.378 . S
C487 H499 0.929 . S
C488 C484 1.413 . S
C488 C489 1.348 . S
C488 H504 0.931 . S
C489 C487 1.378 . S
C489 C488 1.348 . S
C489 H505 0.930 . S
Gd490 N510 2.622 . S
Gd490 N517 2.570 . S
Gd490 O524 2.353 . S
Gd490 O525 2.468 . S
Gd490 O526 2.427 . S
Gd490 O528 2.388 . S
Gd490 O529 2.386 . S
Gd490 O533 2.307 . S
Gd490 C543 2.805 . S
Gd491 N486 2.622 . S
Gd491 N492 2.570 . S
Gd491 O523 2.386 . S
Gd491 O527 2.307 . S
Gd491 O530 2.353 . S
Gd491 O531 2.468 . S
Gd491 O532 2.427 . S
Gd491 O534 2.388 . S
Gd491 C555 2.805 . S
N492 C482 1.359 . S
N492 Gd491 2.570 . S
N492 C494 1.343 . S
C493 C481 1.422 . S
C493 C495 1.321 . S
C493 H501 0.931 . S
C494 N492 1.343 . S
C494 C495 1.390 . S
C494 H496 0.931 . S
C495 C493 1.321 . S
C495 C494 1.390 . S
C495 H497 0.930 . S
H496 C494 0.931 . S
H497 C495 0.930 . S
H498 C521 0.931 . S
H499 C487 0.929 . S
H500 C522 0.930 . S
H501 C493 0.931 . S
H502 C483 0.930 . S
H503 C512 0.929 . S
H504 C488 0.931 . S
H505 C489 0.930 . S
H506 C544 0.930 . S
H507 C485 0.929 . S
H508 C513 0.931 . S
H509 C514 0.930 . S
N510 Gd490 2.622 . S
N510 C511 1.369 . S
N510 C512 1.338 . S
C511 N510 1.369 . S
C511 C515 1.415 . S
C511 C518 1.422 . S
C512 H503 0.929 . S
C512 N510 1.338 . S
C512 C514 1.378 . S
C513 H508 0.931 . S
C513 C514 1.348 . S
C513 C515 1.413 . S
C514 H509 0.930 . S
C514 C512 1.378 . S
C514 C513 1.348 . S
C515 C511 1.415 . S
C515 C513 1.413 . S
C515 C545 1.437 . S
H516 C545 0.929 . S
N517 Gd490 2.570 . S
N517 C518 1.359 . S
N517 C521 1.343 . S
C518 C511 1.422 . S
C518 N517 1.359 . S
C518 C520 1.421 . S
C519 C520 1.422 . S
C519 C522 1.321 . S
C519 H546 0.931 . S
C520 C518 1.421 . S
C520 C519 1.422 . S
C520 C544 1.417 . S
C521 H498 0.931 . S
C521 N517 1.343 . S
C521 C522 1.390 . S
C522 H500 0.930 . S
C522 C519 1.321 . S
C522 C521 1.390 . S
O523 Gd491 2.386 . S
O523 C535 1.265 . S
O524 Gd490 2.353 . S
O524 C535 1.242 . S
O525 Gd490 2.468 . S
O525 C543 1.263 . S
O526 Gd490 2.427 . S
O526 C543 1.252 . S
O527 Gd491 2.307 . S
O527 C536 1.261 . S
O528 Gd490 2.388 . S
O528 C536 1.252 . S
O529 Gd490 2.386 . S
O529 C547 1.265 . S
O530 Gd491 2.353 . S
O530 C547 1.242 . S
O531 Gd491 2.468 . S
O531 C555 1.263 . S
O532 Gd491 2.427 . S
O532 C555 1.252 . S
O533 Gd490 2.307 . S
O533 C548 1.261 . S
O534 Gd491 2.388 . S
O534 C548 1.252 . S
C535 O523 1.265 . S
C535 O524 1.242 . S
C536 O527 1.261 . S
C536 O528 1.252 . S
C537 C540 1.394 . S
C537 C542 1.370 . S
C537 C543 1.500 . S
C538 C541 1.383 . S
C538 C542 1.395 . S
C539 C540 1.396 . S
C539 C541 1.365 . S
C539 H556 0.929 . S
C540 C537 1.394 . S
C540 C539 1.396 . S
C540 H557 0.930 . S
C541 C538 1.383 . S
C541 C539 1.365 . S
C541 H558 0.931 . S
C542 C537 1.370 . S
C542 C538 1.395 . S
C542 H559 0.930 . S
C543 Gd490 2.805 . S
C543 O525 1.263 . S
C543 O526 1.252 . S
C543 C537 1.500 . S
C544 H506 0.930 . S
C544 C520 1.417 . S
C544 C545 1.329 . S
C545 C515 1.437 . S
C545 H516 0.929 . S
C545 C544 1.329 . S
H546 C519 0.931 . S
C547 O529 1.265 . S
C547 O530 1.242 . S
C548 O533 1.261 . S
C548 O534 1.252 . S
C549 C552 1.394 . S
C549 C554 1.370 . S
C549 C555 1.500 . S
C550 C553 1.383 . S
C550 C554 1.395 . S
C551 C552 1.396 . S
C551 C553 1.365 . S
C551 H560 0.929 . S
C552 C549 1.394 . S
C552 C551 1.396 . S
C552 H561 0.930 . S
C553 C550 1.383 . S
C553 C551 1.365 . S
C553 H562 0.931 . S
C554 C549 1.370 . S
C554 C550 1.395 . S
C554 H563 0.930 . S
C555 Gd491 2.805 . S
C555 O531 1.263 . S
C555 O532 1.252 . S
C555 C549 1.500 . S
H556 C539 0.929 . S
H557 C540 0.930 . S
H558 C541 0.931 . S
H559 C542 0.930 . S
H560 C551 0.929 . S
H561 C552 0.930 . S
H562 C553 0.931 . S
H563 C554 0.930 . S
C564 C566 1.422 . S
C564 C568 1.415 . S
C564 N570 1.369 1_455 S
C565 C566 1.421 . S
C565 C567 1.417 . S
C565 C577 1.422 . S
C566 C564 1.422 . S
C566 C565 1.421 . S
C566 N576 1.359 . S
C567 C565 1.417 . S
C567 C569 1.329 . S
C567 H586 0.930 . S
C568 C564 1.415 . S
C568 C569 1.437 . S
C568 C572 1.413 . S
C569 C567 1.329 . S
C569 C568 1.437 . S
C569 H591 0.929 . S
N570 C564 1.369 1_655 S
N570 C571 1.338 . S
N570 Gd575 2.622 . S
C571 N570 1.338 . S
C571 C573 1.378 1_655 S
C571 H583 0.929 . S
C572 C568 1.413 . S
C572 C573 1.348 . S
C572 H588 0.931 . S
C573 C571 1.378 1_455 S
C573 C572 1.348 . S
C573 H589 0.929 1_455 S
Gd574 N594 2.622 . S
Gd574 N601 2.570 . S
Gd574 O608 2.353 . S
Gd574 O609 2.468 . S
Gd574 O610 2.427 . S
Gd574 O612 2.388 . S
Gd574 O613 2.386 1_455 S
Gd574 O617 2.307 . S
Gd574 C627 2.805 . S
Gd575 N570 2.622 . S
Gd575 N576 2.570 1_655 S
Gd575 O607 2.386 1_655 S
Gd575 O611 2.317 . S
Gd575 O614 2.353 . S
Gd575 O615 2.468 . S
Gd575 O616 2.427 . S
Gd575 O618 2.388 . S
Gd575 C639 2.805 . S
N576 C566 1.359 . S
N576 Gd575 2.570 1_455 S
N576 C578 1.343 . S
C577 C565 1.422 . S
C577 C579 1.321 . S
C577 H585 0.931 . S
C578 N576 1.343 . S
C578 C579 1.390 . S
C578 H580 0.931 1_455 S
C579 C577 1.321 . S
C579 C578 1.390 . S
C579 H581 0.930 . S
H580 C578 0.931 1_655 S
H581 C579 0.930 . S
H582 C605 0.931 . S
H583 C571 0.929 . S
H584 C606 0.930 . S
H585 C577 0.931 . S
H586 C567 0.930 . S
H587 C596 0.929 . S
H588 C572 0.931 . S
H589 C573 0.929 1_655 S
H590 C628 0.930 . S
H591 C569 0.929 . S
H592 C597 0.931 . S
H593 C598 0.930 . S
N594 Gd574 2.622 . S
N594 C595 1.369 . S
N594 C596 1.338 . S
C595 N594 1.369 . S
C595 C599 1.415 1_455 S
C595 C602 1.427 . S
C596 H587 0.929 . S
C596 N594 1.338 . S
C596 C598 1.378 . S
C597 H592 0.931 . S
C597 C598 1.348 1_655 S
C597 C599 1.413 . S
C598 H593 0.930 . S
C598 C596 1.378 . S
C598 C597 1.348 1_455 S
C599 C595 1.415 1_655 S
C599 C597 1.413 . S
C599 C629 1.437 . S
H600 C629 0.929 . S
N601 Gd574 2.570 . S
N601 C602 1.374 . S
N601 C605 1.343 . S
C602 C595 1.427 . S
C602 N601 1.374 . S
C602 C604 1.403 1_455 S
C603 C604 1.422 . S
C603 C606 1.321 . S
C603 H630 0.931 . S
C604 C602 1.403 1_655 S
C604 C603 1.422 . S
C604 C628 1.417 . S
C605 H582 0.931 . S
C605 N601 1.343 . S
C605 C606 1.390 1_455 S
C606 H584 0.930 . S
C606 C603 1.321 . S
C606 C605 1.390 1_655 S
O607 Gd575 2.386 1_455 S
O607 C619 1.265 . S
O608 Gd574 2.353 . S
O608 C619 1.242 . S
O609 Gd574 2.468 . S
O609 C627 1.263 . S
O610 Gd574 2.427 . S
O610 C627 1.252 . S
O611 Gd575 2.317 . S
O611 C620 1.254 1_655 S
O612 Gd574 2.388 . S
O612 C620 1.252 . S
O613 Gd574 2.386 1_655 S
O613 C631 1.265 . S
O614 Gd575 2.353 . S
O614 C631 1.242 . S
O615 Gd575 2.468 . S
O615 C639 1.263 . S
O616 Gd575 2.427 . S
O616 C639 1.252 . S
O617 Gd574 2.307 . S
O617 C632 1.261 . S
O618 Gd575 2.388 . S
O618 C632 1.252 1_655 S
C619 O607 1.265 . S
C619 O608 1.242 . S
C620 O611 1.254 1_455 S
C620 O612 1.252 . S
C621 C624 1.394 . S
C621 C626 1.370 . S
C621 C627 1.500 . S
C622 C625 1.383 . S
C622 C626 1.395 . S
C623 C624 1.396 . S
C623 C625 1.365 . S
C623 H640 0.929 . S
C624 C621 1.394 . S
C624 C623 1.396 . S
C624 H641 0.930 . S
C625 C622 1.383 . S
C625 C623 1.365 . S
C625 H642 0.931 . S
C626 C621 1.370 . S
C626 C622 1.395 . S
C626 H643 0.930 . S
C627 Gd574 2.805 . S
C627 O609 1.263 . S
C627 O610 1.252 . S
C627 C621 1.500 . S
C628 H590 0.930 . S
C628 C604 1.417 . S
C628 C629 1.329 . S
C629 C599 1.437 . S
C629 H600 0.929 . S
C629 C628 1.329 . S
H630 C603 0.931 . S
C631 O613 1.265 . S
C631 O614 1.242 . S
C632 O617 1.261 . S
C632 O618 1.252 1_455 S
C633 C636 1.394 . S
C633 C638 1.370 . S
C633 C639 1.500 . S
C634 C637 1.383 . S
C634 C638 1.395 . S
C635 C636 1.396 . S
C635 C637 1.365 . S
C635 H644 0.929 . S
C636 C633 1.394 . S
C636 C635 1.396 . S
C636 H645 0.930 . S
C637 C634 1.383 . S
C637 C635 1.365 . S
C637 H646 0.931 . S
C638 C633 1.370 . S
C638 C634 1.395 . S
C638 H647 0.930 . S
C639 Gd575 2.805 . S
C639 O615 1.263 . S
C639 O616 1.252 . S
C639 C633 1.500 . S
H640 C623 0.929 . S
H641 C624 0.930 . S
H642 C625 0.931 . S
H643 C626 0.930 . S
H644 C635 0.929 . S
H645 C636 0.930 . S
H646 C637 0.931 . S
H647 C638 0.930 . S
C648 C649 1.391 . S
C648 C650 1.394 . S
C648 H664 0.931 . S
C649 C648 1.391 . S
C649 C653 1.376 . S
C650 C648 1.394 . S
C650 C651 1.369 . S
C650 C654 1.531 . S
C651 C650 1.369 . S
C651 C652 1.410 . S
C651 C659 1.503 . S
C652 C651 1.410 . S
C652 C653 1.392 . S
C652 C655 1.511 1_545 S
C653 C649 1.376 . S
C653 C652 1.392 . S
C653 H665 0.929 . S
C654 C650 1.531 . S
C654 H666 0.960 . S
C654 H667 0.962 . S
C654 H668 0.960 . S
C655 C652 1.511 1_565 S
C655 H669 0.961 . S
C655 H670 0.961 . S
C655 H671 0.961 . S
C656 C657 1.370 . S
C656 C658 1.363 . S
C656 H672 0.931 . S
C657 C656 1.370 . S
C657 C661 1.408 . S
C658 C656 1.363 . S
C658 C659 1.370 . S
C658 C662 1.524 . S
C659 C651 1.503 . S
C659 C658 1.370 . S
C659 C660 1.403 . S
C660 C659 1.403 . S
C660 C661 1.404 . S
C660 C663 1.539 . S
C661 C657 1.408 . S
C661 C660 1.404 . S
C661 H673 0.930 . S
C662 C658 1.524 . S
C662 H674 0.956 . S
C662 H675 0.961 . S
C662 H676 0.961 . S
C663 C660 1.539 . S
C663 H677 0.958 . S
C663 H678 0.961 . S
C663 H679 0.960 . S
H664 C648 0.931 . S
H665 C653 0.929 . S
H666 C654 0.960 . S
H667 C654 0.962 . S
H668 C654 0.960 . S
H669 C655 0.961 . S
H670 C655 0.961 . S
H671 C655 0.961 . S
H672 C656 0.931 . S
H673 C661 0.930 . S
H674 C662 0.956 . S
H675 C662 0.961 . S
H676 C662 0.961 . S
H677 C663 0.958 . S
H678 C663 0.961 . S
H679 C663 0.960 . S
C680 C681 1.391 . S
C680 C682 1.394 . S
C680 H696 0.931 . S
C681 C680 1.391 . S
C681 C685 1.376 . S
C682 C680 1.394 . S
C682 C683 1.369 . S
C682 C686 1.531 . S
C683 C682 1.369 . S
C683 C684 1.410 . S
C683 C691 1.503 . S
C684 C683 1.410 . S
C684 C685 1.392 . S
C684 C687 1.511 . S
C685 C681 1.376 . S
C685 C684 1.392 . S
C685 H697 0.929 . S
C686 C682 1.531 . S
C686 H698 0.960 . S
C686 H699 0.962 . S
C686 H700 0.960 . S
C687 C684 1.511 . S
C687 H701 0.961 . S
C687 H702 0.961 . S
C687 H703 0.961 . S
C688 C689 1.370 . S
C688 C690 1.363 . S
C688 H704 0.931 . S
C689 C688 1.370 . S
C689 C693 1.408 . S
C690 C688 1.363 . S
C690 C691 1.370 . S
C690 C694 1.524 . S
C691 C683 1.503 . S
C691 C690 1.370 . S
C691 C692 1.403 . S
C692 C691 1.403 . S
C692 C693 1.404 . S
C692 C695 1.539 . S
C693 C689 1.408 . S
C693 C692 1.404 . S
C693 H705 0.930 . S
C694 C690 1.524 . S
C694 H706 0.956 . S
C694 H707 0.961 . S
C694 H708 0.961 . S
C695 C692 1.539 . S
C695 H709 0.958 . S
C695 H710 0.961 . S
C695 H711 0.960 . S
H696 C680 0.931 . S
H697 C685 0.929 . S
H698 C686 0.960 . S
H699 C686 0.962 . S
H700 C686 0.960 . S
H701 C687 0.961 . S
H702 C687 0.961 . S
H703 C687 0.961 . S
H704 C688 0.931 . S
H705 C693 0.930 . S
H706 C694 0.956 . S
H707 C694 0.961 . S
H708 C694 0.961 . S
H709 C695 0.958 . S
H710 C695 0.961 . S
H711 C695 0.960 . S
C712 C713 1.391 . S
C712 C714 1.394 . S
C712 H728 0.931 . S
C713 C712 1.391 . S
C713 C717 1.376 . S
C714 C712 1.394 . S
C714 C715 1.369 . S
C714 C718 1.531 . S
C715 C714 1.369 . S
C715 C716 1.410 . S
C715 C723 1.503 . S
C716 C715 1.410 . S
C716 C717 1.392 . S
C716 C719 1.511 . S
C717 C713 1.376 . S
C717 C716 1.392 . S
C717 H729 0.929 . S
C718 C714 1.531 . S
C718 H730 0.960 . S
C718 H731 0.962 . S
C718 H732 0.960 . S
C719 C716 1.511 . S
C719 H733 0.961 . S
C719 H734 0.961 . S
C719 H735 0.961 . S
C720 C721 1.370 . S
C720 C722 1.363 . S
C720 H736 0.931 . S
C721 C720 1.370 . S
C721 C725 1.408 . S
C722 C720 1.363 . S
C722 C723 1.370 . S
C722 C726 1.524 . S
C723 C715 1.503 . S
C723 C722 1.370 . S
C723 C724 1.403 . S
C724 C723 1.403 . S
C724 C725 1.404 . S
C724 C727 1.539 . S
C725 C721 1.408 . S
C725 C724 1.404 . S
C725 H737 0.930 . S
C726 C722 1.524 . S
C726 H738 0.956 . S
C726 H739 0.961 . S
C726 H740 0.961 . S
C727 C724 1.539 . S
C727 H741 0.958 . S
C727 H742 0.961 . S
C727 H743 0.960 . S
H728 C712 0.931 . S
H729 C717 0.929 . S
H730 C718 0.960 . S
H731 C718 0.962 . S
H732 C718 0.960 . S
H733 C719 0.961 . S
H734 C719 0.961 . S
H735 C719 0.961 . S
H736 C720 0.931 . S
H737 C725 0.930 . S
H738 C726 0.956 . S
H739 C726 0.961 . S
H740 C726 0.961 . S
H741 C727 0.958 . S
H742 C727 0.961 . S
H743 C727 0.960 . S
C744 C745 1.391 . S
C744 C746 1.394 . S
C744 H760 0.931 . S
C745 C744 1.391 . S
C745 C749 1.376 . S
C746 C744 1.394 . S
C746 C747 1.369 . S
C746 C750 1.531 . S
C747 C746 1.369 . S
C747 C748 1.410 . S
C747 C755 1.503 . S
C748 C747 1.410 . S
C748 C749 1.392 . S
C748 C751 1.511 . S
C749 C745 1.376 . S
C749 C748 1.392 . S
C749 H761 0.929 . S
C750 C746 1.531 . S
C750 H762 0.960 . S
C750 H763 0.962 . S
C750 H764 0.960 . S
C751 C748 1.511 . S
C751 H765 0.961 1_455 S
C751 H766 0.961 1_455 S
C751 H767 0.961 . S
C752 C753 1.370 . S
C752 C754 1.363 . S
C752 H768 0.931 1_455 S
C753 C752 1.370 . S
C753 C757 1.408 . S
C754 C752 1.363 . S
C754 C755 1.370 . S
C754 C758 1.524 1_455 S
C755 C747 1.503 . S
C755 C754 1.370 . S
C755 C756 1.403 . S
C756 C755 1.403 . S
C756 C757 1.404 . S
C756 C759 1.539 . S
C757 C753 1.408 . S
C757 C756 1.404 . S
C757 H769 0.930 . S
C758 C754 1.524 1_655 S
C758 H770 0.956 1_655 S
C758 H771 0.961 . S
C758 H772 0.961 . S
C759 C756 1.539 . S
C759 H773 0.958 . S
C759 H774 0.961 . S
C759 H775 0.960 . S
H760 C744 0.931 . S
H761 C749 0.929 . S
H762 C750 0.960 . S
H763 C750 0.962 . S
H764 C750 0.960 . S
H765 C751 0.961 1_655 S
H766 C751 0.961 1_655 S
H767 C751 0.961 . S
H768 C752 0.931 1_655 S
H769 C757 0.930 . S
H770 C758 0.956 1_455 S
H771 C758 0.961 . S
H772 C758 0.961 . S
H773 C759 0.958 . S
H774 C759 0.961 . S
H775 C759 0.960 . S
C776 C777 1.391 . S
C776 C778 1.394 1_554 S
C776 H792 0.931 . S
C777 C776 1.391 . S
C777 C781 1.376 . S
C778 C776 1.394 1_556 S
C778 C779 1.369 . S
C778 C782 1.531 1_565 S
C779 C778 1.369 . S
C779 C780 1.410 1_556 S
C779 C787 1.503 . S
C780 C779 1.410 1_554 S
C780 C781 1.392 . S
C780 C783 1.511 . S
C781 C777 1.376 . S
C781 C780 1.392 . S
C781 H793 0.929 . S
C782 C778 1.531 1_545 S
C782 H794 0.960 . S
C782 H795 0.962 1_545 S
C782 H796 0.960 . S
C783 C780 1.511 . S
C783 H797 0.961 . S
C783 H798 0.961 1_554 S
C783 H799 0.961 . S
C784 C785 1.370 . S
C784 C786 1.363 . S
C784 H800 0.931 . S
C785 C784 1.370 . S
C785 C789 1.408 1_565 S
C786 C784 1.363 . S
C786 C787 1.370 . S
C786 C790 1.524 . S
C787 C779 1.503 . S
C787 C786 1.370 . S
C787 C788 1.403 1_565 S
C788 C787 1.403 1_545 S
C788 C789 1.404 . S
C788 C791 1.539 . S
C789 C785 1.408 1_545 S
C789 C788 1.404 . S
C789 H801 0.930 . S
C790 C786 1.524 . S
C790 H802 0.956 . S
C790 H803 0.961 . S
C790 H804 0.961 . S
C791 C788 1.539 . S
C791 H805 0.958 . S
C791 H806 0.961 . S
C791 H807 0.960 . S
H792 C776 0.931 . S
H793 C781 0.929 . S
H794 C782 0.960 . S
H795 C782 0.962 1_565 S
H796 C782 0.960 . S
H797 C783 0.961 . S
H798 C783 0.961 1_556 S
H799 C783 0.961 . S
H800 C784 0.931 . S
H801 C789 0.930 . S
H802 C790 0.956 . S
H803 C790 0.961 . S
H804 C790 0.961 . S
H805 C791 0.958 . S
H806 C791 0.961 . S
H807 C791 0.960 . S
C808 C809 1.391 . S
C808 C810 1.394 . S
C808 H824 0.931 . S
C809 C808 1.391 . S
C809 C813 1.376 . S
C810 C808 1.394 . S
C810 C811 1.369 1_554 S
C810 C814 1.531 . S
C811 C810 1.369 1_556 S
C811 C812 1.410 1_556 S
C811 C819 1.503 . S
C812 C811 1.410 1_554 S
C812 C813 1.392 . S
C812 C815 1.511 1_554 S
C813 C809 1.376 . S
C813 C812 1.392 . S
C813 H825 0.929 . S
C814 C810 1.531 . S
C814 H826 0.960 1_554 S
C814 H827 0.962 1_554 S
C814 H828 0.960 . S
C815 C812 1.511 1_556 S
C815 H829 0.961 . S
C815 H830 0.961 . S
C815 H831 0.961 . S
C816 C817 1.370 . S
C816 C818 1.363 . S
C816 H832 0.931 . S
C817 C816 1.370 . S
C817 C821 1.408 . S
C818 C816 1.363 . S
C818 C819 1.370 . S
C818 C822 1.524 . S
C819 C811 1.503 . S
C819 C818 1.370 . S
C819 C820 1.403 . S
C820 C819 1.403 . S
C820 C821 1.404 . S
C820 C823 1.539 . S
C821 C817 1.408 . S
C821 C820 1.404 . S
C821 H833 0.930 . S
C822 C818 1.524 . S
C822 H834 0.956 . S
C822 H835 0.961 . S
C822 H836 0.961 . S
C823 C820 1.539 . S
C823 H837 0.958 . S
C823 H838 0.961 . S
C823 H839 0.960 . S
H824 C808 0.931 . S
H825 C813 0.929 . S
H826 C814 0.960 1_556 S
H827 C814 0.962 1_556 S
H828 C814 0.960 . S
H829 C815 0.961 . S
H830 C815 0.961 . S
H831 C815 0.961 . S
H832 C816 0.931 . S
H833 C821 0.930 . S
H834 C822 0.956 . S
H835 C822 0.961 . S
H836 C822 0.961 . S
H837 C823 0.958 . S
H838 C823 0.961 . S
H839 C823 0.960 . S
C840 C841 1.391 . S
C840 C842 1.394 . S
C840 H856 0.931 . S
C841 C840 1.391 . S
C841 C845 1.376 . S
C842 C840 1.394 . S
C842 C843 1.369 1_554 S
C842 C846 1.531 . S
C843 C842 1.369 1_556 S
C843 C844 1.410 . S
C843 C851 1.503 . S
C844 C843 1.410 . S
C844 C845 1.392 1_556 S
C844 C847 1.511 . S
C845 C841 1.376 . S
C845 C844 1.392 1_554 S
C845 H857 0.929 . S
C846 C842 1.531 . S
C846 H858 0.960 1_554 S
C846 H859 0.962 . S
C846 H860 0.960 . S
C847 C844 1.511 . S
C847 H861 0.961 . S
C847 H862 0.961 . S
C847 H863 0.961 . S
C848 C849 1.370 . S
C848 C850 1.363 . S
C848 H864 0.931 . S
C849 C848 1.370 . S
C849 C853 1.408 . S
C850 C848 1.363 . S
C850 C851 1.370 . S
C850 C854 1.524 . S
C851 C843 1.503 . S
C851 C850 1.370 . S
C851 C852 1.403 . S
C852 C851 1.403 . S
C852 C853 1.404 . S
C852 C855 1.539 . S
C853 C849 1.408 . S
C853 C852 1.404 . S
C853 H865 0.930 . S
C854 C850 1.524 . S
C854 H866 0.956 . S
C854 H867 0.961 . S
C854 H868 0.961 . S
C855 C852 1.539 . S
C855 H869 0.958 . S
C855 H870 0.961 . S
C855 H871 0.960 . S
H856 C840 0.931 . S
H857 C845 0.929 . S
H858 C846 0.960 1_556 S
H859 C846 0.962 . S
H860 C846 0.960 . S
H861 C847 0.961 . S
H862 C847 0.961 . S
H863 C847 0.961 . S
H864 C848 0.931 . S
H865 C853 0.930 . S
H866 C854 0.956 . S
H867 C854 0.961 . S
H868 C854 0.961 . S
H869 C855 0.958 . S
H870 C855 0.961 . S
H871 C855 0.960 . S
C872 C873 1.391 . S
C872 C874 1.394 1_554 S
C872 H888 0.931 . S
C873 C872 1.391 . S
C873 C877 1.376 . S
C874 C872 1.394 1_556 S
C874 C875 1.369 . S
C874 C878 1.531 . S
C875 C874 1.369 . S
C875 C876 1.410 1_556 S
C875 C883 1.503 . S
C876 C875 1.410 1_554 S
C876 C877 1.392 . S
C876 C879 1.511 1_655 S
C877 C873 1.376 . S
C877 C876 1.392 . S
C877 H889 0.929 . S
C878 C874 1.531 . S
C878 H890 0.960 . S
C878 H891 0.962 . S
C878 H892 0.960 . S
C879 C876 1.511 1_455 S
C879 H893 0.961 . S
C879 H894 0.961 1_554 S
C879 H895 0.961 . S
C880 C881 1.370 . S
C880 C882 1.363 . S
C880 H896 0.931 . S
C881 C880 1.370 . S
C881 C885 1.408 1_655 S
C882 C880 1.363 . S
C882 C883 1.370 . S
C882 C886 1.524 . S
C883 C875 1.503 . S
C883 C882 1.370 . S
C883 C884 1.403 1_655 S
C884 C883 1.403 1_455 S
C884 C885 1.404 . S
C884 C887 1.539 . S
C885 C881 1.408 1_455 S
C885 C884 1.404 . S
C885 H897 0.930 . S
C886 C882 1.524 . S
C886 H898 0.956 . S
C886 H899 0.961 . S
C886 H900 0.961 . S
C887 C884 1.539 . S
C887 H901 0.958 . S
C887 H902 0.961 . S
C887 H903 0.960 . S
H888 C872 0.931 . S
H889 C877 0.929 . S
H890 C878 0.960 . S
H891 C878 0.962 . S
H892 C878 0.960 . S
H893 C879 0.961 . S
H894 C879 0.961 1_556 S
H895 C879 0.961 . S
H896 C880 0.931 . S
H897 C885 0.930 . S
H898 C886 0.956 . S
H899 C886 0.961 . S
H900 C886 0.961 . S
H901 C887 0.958 . S
H902 C887 0.961 . S
H903 C887 0.960 . S
C904 C905 1.391 . S
C904 C906 1.394 . S
C904 H920 0.931 . S
C905 C904 1.391 . S
C905 C909 1.376 . S
C906 C904 1.394 . S
C906 C907 1.369 . S
C906 C910 1.531 . S
C907 C906 1.369 . S
C907 C908 1.410 . S
C907 C915 1.503 . S
C908 C907 1.410 . S
C908 C909 1.392 . S
C908 C911 1.511 1_455 S
C909 C905 1.376 . S
C909 C908 1.392 . S
C909 H921 0.929 . S
C910 C906 1.531 . S
C910 H922 0.960 . S
C910 H923 0.962 . S
C910 H924 0.960 . S
C911 C908 1.511 1_655 S
C911 H925 0.961 . S
C911 H926 0.961 . S
C911 H927 0.961 . S
C912 C913 1.370 1_455 S
C912 C914 1.363 . S
C912 H928 0.931 . S
C913 C912 1.370 1_655 S
C913 C917 1.408 . S
C914 C912 1.363 . S
C914 C915 1.370 . S
C914 C918 1.524 . S
C915 C907 1.503 . S
C915 C914 1.370 . S
C915 C916 1.403 1_455 S
C916 C915 1.403 1_655 S
C916 C917 1.404 . S
C916 C919 1.539 . S
C917 C913 1.408 . S
C917 C916 1.404 . S
C917 H929 0.930 . S
C918 C914 1.524 . S
C918 H930 0.956 . S
C918 H931 0.961 . S
C918 H932 0.961 . S
C919 C916 1.539 . S
C919 H933 0.958 . S
C919 H934 0.961 . S
C919 H935 0.960 . S
H920 C904 0.931 . S
H921 C909 0.929 . S
H922 C910 0.960 . S
H923 C910 0.962 . S
H924 C910 0.960 . S
H925 C911 0.961 . S
H926 C911 0.961 . S
H927 C911 0.961 . S
H928 C912 0.931 . S
H929 C917 0.930 . S
H930 C918 0.956 . S
H931 C918 0.961 . S
H932 C918 0.961 . S
H933 C919 0.958 . S
H934 C919 0.961 . S
H935 C919 0.960 . S
C936 C937 1.391 . S
C936 C938 1.394 . S
C936 H952 0.931 . S
C937 C936 1.391 . S
C937 C941 1.376 . S
C938 C936 1.394 . S
C938 C939 1.369 . S
C938 C942 1.554 . S
C939 C938 1.369 . S
C939 C940 1.410 . S
C939 C947 1.503 . S
C940 C939 1.410 . S
C940 C941 1.392 . S
C940 C943 1.511 . S
C941 C937 1.376 . S
C941 C940 1.392 . S
C941 H953 0.929 . S
C942 C938 1.554 . S
C942 H954 0.960 . S
C942 H955 0.942 1_545 S
C942 H956 0.958 1_545 S
C943 C940 1.511 . S
C943 H957 0.961 . S
C943 H958 0.961 . S
C943 H959 0.961 . S
C944 C945 1.373 . S
C944 C946 1.371 . S
C944 H960 0.920 1_545 S
C945 C944 1.373 . S
C945 C949 1.408 . S
C946 C944 1.371 . S
C946 C947 1.370 . S
C946 C950 1.524 . S
C947 C939 1.503 . S
C947 C946 1.370 . S
C947 C948 1.403 . S
C948 C947 1.403 . S
C948 C949 1.404 . S
C948 C951 1.539 . S
C949 C945 1.408 . S
C949 C948 1.404 . S
C949 H961 0.930 . S
C950 C946 1.524 . S
C950 H962 0.956 1_545 S
C950 H963 0.961 . S
C950 H964 0.961 1_545 S
C951 C948 1.539 . S
C951 H965 0.958 . S
C951 H966 0.961 . S
C951 H967 0.960 . S
H952 C936 0.931 . S
H953 C941 0.929 . S
H954 C942 0.960 . S
H955 C942 0.942 1_565 S
H956 C942 0.958 1_565 S
H957 C943 0.961 . S
H958 C943 0.961 . S
H959 C943 0.961 . S
H960 C944 0.920 1_565 S
H961 C949 0.930 . S
H962 C950 0.956 1_565 S
H963 C950 0.961 . S
H964 C950 0.961 1_565 S
H965 C951 0.958 . S
H966 C951 0.961 . S
H967 C951 0.960 . S
C968 C969 1.391 . S
C968 C970 1.394 . S
C968 H984 0.931 . S
C969 C968 1.391 . S
C969 C973 1.376 . S
C970 C968 1.394 . S
C970 C971 1.369 . S
C970 C974 1.531 . S
C971 C970 1.369 . S
C971 C972 1.410 . S
C971 C979 1.503 . S
C972 C971 1.410 . S
C972 C973 1.392 . S
C972 C975 1.511 . S
C973 C969 1.376 . S
C973 C972 1.392 . S
C973 H985 0.929 . S
C974 C970 1.531 . S
C974 H986 0.960 . S
C974 H987 0.962 . S
C974 H988 0.960 . S
C975 C972 1.511 . S
C975 H989 0.961 . S
C975 H990 0.961 . S
C975 H991 0.961 . S
C976 C977 1.370 . S
C976 C978 1.363 . S
C976 H992 0.931 . S
C977 C976 1.370 . S
C977 C981 1.408 . S
C978 C976 1.363 . S
C978 C979 1.370 . S
C978 C982 1.524 . S
C979 C971 1.503 . S
C979 C978 1.370 . S
C979 C980 1.403 . S
C980 C979 1.403 . S
C980 C981 1.404 . S
C980 C983 1.539 . S
C981 C977 1.408 . S
C981 C980 1.404 . S
C981 H993 0.930 . S
C982 C978 1.524 . S
C982 H994 0.956 . S
C982 H995 0.961 . S
C982 H996 0.961 . S
C983 C980 1.539 . S
C983 H997 0.958 . S
C983 H998 0.961 . S
C983 H999 0.960 . S
H984 C968 0.931 . S
H985 C973 0.929 . S
H986 C974 0.960 . S
H987 C974 0.962 . S
H988 C974 0.960 . S
H989 C975 0.961 . S
H990 C975 0.961 . S
H991 C975 0.961 . S
H992 C976 0.931 . S
H993 C981 0.930 . S
H994 C982 0.956 . S
H995 C982 0.961 . S
H996 C982 0.961 . S
H997 C983 0.958 . S
H998 C983 0.961 . S
H999 C983 0.960 . S
C1000 C1001 1.391 . S
C1000 C1002 1.394 . S
C1000 H1016 0.931 . S
C1001 C1000 1.391 . S
C1001 C1005 1.376 . S
C1002 C1000 1.394 . S
C1002 C1003 1.369 . S
C1002 C1006 1.531 . S
C1003 C1002 1.369 . S
C1003 C1004 1.410 . S
C1003 C1011 1.503 . S
C1004 C1003 1.410 . S
C1004 C1005 1.392 . S
C1004 C1007 1.511 . S
C1005 C1001 1.376 . S
C1005 C1004 1.392 . S
C1005 H1017 0.929 . S
C1006 C1002 1.531 . S
C1006 H1018 0.960 . S
C1006 H1019 0.962 . S
C1006 H1020 0.960 . S
C1007 C1004 1.511 . S
C1007 H1021 0.961 . S
C1007 H1022 0.961 . S
C1007 H1023 0.961 . S
C1008 C1009 1.370 . S
C1008 C1010 1.363 . S
C1008 H1024 0.931 . S
C1009 C1008 1.370 . S
C1009 C1013 1.408 . S
C1010 C1008 1.363 . S
C1010 C1011 1.370 . S
C1010 C1014 1.524 . S
C1011 C1003 1.503 . S
C1011 C1010 1.370 . S
C1011 C1012 1.403 . S
C1012 C1011 1.403 . S
C1012 C1013 1.404 . S
C1012 C1015 1.539 . S
C1013 C1009 1.408 . S
C1013 C1012 1.404 . S
C1013 H1025 0.930 . S
C1014 C1010 1.524 . S
C1014 H1026 0.956 . S
C1014 H1027 0.961 . S
C1014 H1028 0.961 . S
C1015 C1012 1.539 . S
C1015 H1029 0.958 . S
C1015 H1030 0.961 . S
C1015 H1031 0.960 . S
H1016 C1000 0.931 . S
H1017 C1005 0.929 . S
H1018 C1006 0.960 . S
H1019 C1006 0.962 . S
H1020 C1006 0.960 . S
H1021 C1007 0.961 . S
H1022 C1007 0.961 . S
H1023 C1007 0.961 . S
H1024 C1008 0.931 . S
H1025 C1013 0.930 . S
H1026 C1014 0.956 . S
H1027 C1014 0.961 . S
H1028 C1014 0.961 . S
H1029 C1015 0.958 . S
H1030 C1015 0.961 . S
H1031 C1015 0.960 . S
C1032 C1033 1.391 1_556 S
C1032 C1034 1.394 . S
C1032 H1048 0.931 . S
C1033 C1032 1.391 1_554 S
C1033 C1037 1.376 . S
C1034 C1032 1.394 . S
C1034 C1035 1.369 . S
C1034 C1038 1.531 1_655 S
C1035 C1034 1.369 . S
C1035 C1036 1.410 1_556 S
C1035 C1043 1.503 . S
C1036 C1035 1.410 1_554 S
C1036 C1037 1.392 . S
C1036 C1039 1.511 . S
C1037 C1033 1.376 . S
C1037 C1036 1.392 . S
C1037 H1049 0.929 . S
C1038 C1034 1.531 1_455 S
C1038 H1050 0.960 . S
C1038 H1051 0.962 . S
C1038 H1052 0.960 . S
C1039 C1036 1.511 . S
C1039 H1053 0.961 . S
C1039 H1054 0.961 . S
C1039 H1055 0.961 1_554 S
C1040 C1041 1.370 . S
C1040 C1042 1.363 . S
C1040 H1056 0.931 . S
C1041 C1040 1.370 . S
C1041 C1045 1.408 1_455 S
C1042 C1040 1.363 . S
C1042 C1043 1.370 1_455 S
C1042 C1046 1.524 1_556 S
C1043 C1035 1.503 . S
C1043 C1042 1.370 1_655 S
C1043 C1044 1.403 . S
C1044 C1043 1.403 . S
C1044 C1045 1.404 . S
C1044 C1047 1.539 . S
C1045 C1041 1.408 1_655 S
C1045 C1044 1.404 . S
C1045 H1057 0.930 . S
C1046 C1042 1.524 1_554 S
C1046 H1058 0.956 1_554 S
C1046 H1059 0.961 . S
C1046 H1060 0.961 . S
C1047 C1044 1.539 . S
C1047 H1061 0.958 . S
C1047 H1062 0.961 . S
C1047 H1063 0.960 . S
H1048 C1032 0.931 . S
H1049 C1037 0.929 . S
H1050 C1038 0.960 . S
H1051 C1038 0.962 . S
H1052 C1038 0.960 . S
H1053 C1039 0.961 . S
H1054 C1039 0.961 . S
H1055 C1039 0.961 1_556 S
H1056 C1040 0.931 . S
H1057 C1045 0.930 . S
H1058 C1046 0.956 1_556 S
H1059 C1046 0.961 . S
H1060 C1046 0.961 . S
H1061 C1047 0.958 . S
H1062 C1047 0.961 . S
H1063 C1047 0.960 . S
C1064 C1065 1.391 1_556 S
C1064 C1066 1.394 . S
C1064 H1080 0.931 . S
C1065 C1064 1.391 1_554 S
C1065 C1069 1.376 . S
C1066 C1064 1.394 . S
C1066 C1067 1.369 . S
C1066 C1070 1.531 . S
C1067 C1066 1.369 . S
C1067 C1068 1.410 1_556 S
C1067 C1075 1.503 . S
C1068 C1067 1.410 1_554 S
C1068 C1069 1.392 . S
C1068 C1071 1.511 1_565 S
C1069 C1065 1.376 . S
C1069 C1068 1.392 . S
C1069 H1081 0.929 . S
C1070 C1066 1.531 . S
C1070 H1082 0.960 . S
C1070 H1083 0.962 . S
C1070 H1084 0.960 . S
C1071 C1068 1.511 1_545 S
C1071 H1085 0.961 . S
C1071 H1086 0.961 . S
C1071 H1087 0.961 . S
C1072 C1073 1.370 . S
C1072 C1074 1.363 . S
C1072 H1088 0.931 . S
C1073 C1072 1.370 . S
C1073 C1077 1.408 1_545 S
C1074 C1072 1.363 . S
C1074 C1075 1.370 1_545 S
C1074 C1078 1.524 . S
C1075 C1067 1.503 . S
C1075 C1074 1.370 1_565 S
C1075 C1076 1.403 . S
C1076 C1075 1.403 . S
C1076 C1077 1.404 . S
C1076 C1079 1.539 . S
C1077 C1073 1.408 1_565 S
C1077 C1076 1.404 . S
C1077 H1089 0.930 . S
C1078 C1074 1.524 . S
C1078 H1090 0.956 . S
C1078 H1091 0.961 . S
C1078 H1092 0.961 . S
C1079 C1076 1.539 . S
C1079 H1093 0.958 . S
C1079 H1094 0.961 1_556 S
C1079 H1095 0.960 1_556 S
H1080 C1064 0.931 . S
H1081 C1069 0.929 . S
H1082 C1070 0.960 . S
H1083 C1070 0.962 . S
H1084 C1070 0.960 . S
H1085 C1071 0.961 . S
H1086 C1071 0.961 . S
H1087 C1071 0.961 . S
H1088 C1072 0.931 . S
H1089 C1077 0.930 . S
H1090 C1078 0.956 . S
H1091 C1078 0.961 . S
H1092 C1078 0.961 . S
H1093 C1079 0.958 . S
H1094 C1079 0.961 1_554 S
H1095 C1079 0.960 1_554 S
C1096 C1097 1.391 1_556 S
C1096 C1098 1.394 . S
C1096 H1112 0.931 . S
C1097 C1096 1.391 1_554 S
C1097 C1101 1.376 . S
C1098 C1096 1.394 . S
C1098 C1099 1.369 . S
C1098 C1102 1.531 . S
C1099 C1098 1.369 . S
C1099 C1100 1.410 1_556 S
C1099 C1107 1.503 . S
C1100 C1099 1.410 1_554 S
C1100 C1101 1.392 . S
C1100 C1103 1.511 . S
C1101 C1097 1.376 . S
C1101 C1100 1.392 . S
C1101 H1113 0.929 . S
C1102 C1098 1.531 . S
C1102 H1114 0.960 . S
C1102 H1115 0.962 . S
C1102 H1116 0.960 . S
C1103 C1100 1.511 . S
C1103 H1117 0.961 . S
C1103 H1118 0.961 . S
C1103 H1119 0.961 . S
C1104 C1105 1.370 . S
C1104 C1106 1.363 . S
C1104 H1120 0.931 . S
C1105 C1104 1.370 . S
C1105 C1109 1.408 . S
C1106 C1104 1.363 . S
C1106 C1107 1.370 . S
C1106 C1110 1.524 . S
C1107 C1099 1.503 . S
C1107 C1106 1.370 . S
C1107 C1108 1.403 . S
C1108 C1107 1.403 . S
C1108 C1109 1.404 . S
C1108 C1111 1.539 1_556 S
C1109 C1105 1.408 . S
C1109 C1108 1.404 . S
C1109 H1121 0.930 . S
C1110 C1106 1.524 . S
C1110 H1122 0.956 . S
C1110 H1123 0.961 . S
C1110 H1124 0.961 . S
C1111 C1108 1.539 1_554 S
C1111 H1125 0.958 1_554 S
C1111 H1126 0.961 . S
C1111 H1127 0.960 . S
H1112 C1096 0.931 . S
H1113 C1101 0.929 . S
H1114 C1102 0.960 . S
H1115 C1102 0.962 . S
H1116 C1102 0.960 . S
H1117 C1103 0.961 . S
H1118 C1103 0.961 . S
H1119 C1103 0.961 . S
H1120 C1104 0.931 . S
H1121 C1109 0.930 . S
H1122 C1110 0.956 . S
H1123 C1110 0.961 . S
H1124 C1110 0.961 . S
H1125 C1111 0.958 1_556 S
H1126 C1111 0.961 . S
H1127 C1111 0.960 . S
C1128 C1129 1.391 1_556 S
C1128 C1130 1.394 . S
C1128 H1144 0.931 . S
C1129 C1128 1.391 1_554 S
C1129 C1133 1.376 . S
C1130 C1128 1.394 . S
C1130 C1131 1.369 . S
C1130 C1134 1.531 . S
C1131 C1130 1.369 . S
C1131 C1132 1.410 1_556 S
C1131 C1139 1.503 . S
C1132 C1131 1.410 1_554 S
C1132 C1133 1.392 . S
C1132 C1135 1.511 . S
C1133 C1129 1.376 . S
C1133 C1132 1.392 . S
C1133 H1145 0.929 . S
C1134 C1130 1.531 . S
C1134 H1146 0.960 . S
C1134 H1147 0.962 . S
C1134 H1148 0.960 . S
C1135 C1132 1.511 . S
C1135 H1149 0.961 . S
C1135 H1150 0.961 . S
C1135 H1151 0.961 . S
C1136 C1137 1.370 . S
C1136 C1138 1.363 . S
C1136 H1152 0.931 . S
C1137 C1136 1.370 . S
C1137 C1141 1.408 . S
C1138 C1136 1.363 . S
C1138 C1139 1.370 . S
C1138 C1142 1.524 . S
C1139 C1131 1.503 . S
C1139 C1138 1.370 . S
C1139 C1140 1.403 . S
C1140 C1139 1.403 . S
C1140 C1141 1.404 . S
C1140 C1143 1.539 . S
C1141 C1137 1.408 . S
C1141 C1140 1.404 . S
C1141 H1153 0.930 . S
C1142 C1138 1.524 . S
C1142 H1154 0.956 . S
C1142 H1155 0.961 1_556 S
C1142 H1156 0.961 . S
C1143 C1140 1.539 . S
C1143 H1157 0.958 . S
C1143 H1158 0.961 . S
C1143 H1159 0.960 . S
H1144 C1128 0.931 . S
H1145 C1133 0.929 . S
H1146 C1134 0.960 . S
H1147 C1134 0.962 . S
H1148 C1134 0.960 . S
H1149 C1135 0.961 . S
H1150 C1135 0.961 . S
H1151 C1135 0.961 . S
H1152 C1136 0.931 . S
H1153 C1141 0.930 . S
H1154 C1142 0.956 . S
H1155 C1142 0.961 1_554 S
H1156 C1142 0.961 . S
H1157 C1143 0.958 . S
H1158 C1143 0.961 . S
H1159 C1143 0.960 . S
C1160 C1161 1.391 . S
C1160 C1162 1.394 . S
C1160 H1176 0.931 . S
C1161 C1160 1.391 . S
C1161 C1165 1.376 . S
C1162 C1160 1.394 . S
C1162 C1163 1.369 . S
C1162 C1166 1.531 1_455 S
C1163 C1162 1.369 . S
C1163 C1164 1.410 . S
C1163 C1171 1.503 . S
C1164 C1163 1.410 . S
C1164 C1165 1.392 . S
C1164 C1167 1.511 . S
C1165 C1161 1.376 . S
C1165 C1164 1.392 . S
C1165 H1177 0.929 . S
C1166 C1162 1.531 1_655 S
C1166 H1178 0.953 1_655 S
C1166 H1179 0.962 . S
C1166 H1180 0.960 . S
C1167 C1164 1.511 . S
C1167 H1181 0.961 . S
C1167 H1182 0.961 . S
C1167 H1183 0.961 . S
C1168 C1169 1.370 . S
C1168 C1170 1.363 . S
C1168 H1184 0.931 . S
C1169 C1168 1.370 . S
C1169 C1173 1.408 . S
C1170 C1168 1.363 . S
C1170 C1171 1.370 . S
C1170 C1174 1.524 . S
C1171 C1163 1.503 . S
C1171 C1170 1.370 . S
C1171 C1172 1.403 . S
C1172 C1171 1.403 . S
C1172 C1173 1.404 . S
C1172 C1175 1.539 . S
C1173 C1169 1.408 . S
C1173 C1172 1.404 . S
C1173 H1185 0.930 . S
C1174 C1170 1.524 . S
C1174 H1186 0.919 1_455 S
C1174 H1187 0.961 . S
C1174 H1188 0.961 . S
C1175 C1172 1.539 . S
C1175 H1189 0.958 . S
C1175 H1190 0.961 . S
C1175 H1191 0.960 . S
H1176 C1160 0.931 . S
H1177 C1165 0.929 . S
H1178 C1166 0.953 1_455 S
H1179 C1166 0.962 . S
H1180 C1166 0.960 . S
H1181 C1167 0.961 . S
H1182 C1167 0.961 . S
H1183 C1167 0.961 . S
H1184 C1168 0.931 . S
H1185 C1173 0.930 . S
H1186 C1174 0.919 1_655 S
H1187 C1174 0.961 . S
H1188 C1174 0.961 . S
H1189 C1175 0.958 . S
H1190 C1175 0.961 . S
H1191 C1175 0.960 . S
C1192 C1193 1.391 . S
C1192 C1194 1.394 . S
C1192 H1208 0.931 . S
C1193 C1192 1.391 . S
C1193 C1197 1.376 . S
C1194 C1192 1.394 . S
C1194 C1195 1.369 . S
C1194 C1198 1.531 . S
C1195 C1194 1.369 . S
C1195 C1196 1.410 . S
C1195 C1203 1.503 . S
C1196 C1195 1.410 . S
C1196 C1197 1.392 . S
C1196 C1199 1.511 . S
C1197 C1193 1.376 . S
C1197 C1196 1.392 . S
C1197 H1209 0.929 . S
C1198 C1194 1.531 . S
C1198 H1210 0.960 . S
C1198 H1211 0.962 . S
C1198 H1212 0.960 . S
C1199 C1196 1.511 . S
C1199 H1213 0.961 1_545 S
C1199 H1214 0.961 1_545 S
C1199 H1215 0.961 . S
C1200 C1201 1.370 . S
C1200 C1202 1.363 . S
C1200 H1216 0.931 . S
C1201 C1200 1.370 . S
C1201 C1205 1.408 . S
C1202 C1200 1.363 . S
C1202 C1203 1.370 . S
C1202 C1206 1.524 . S
C1203 C1195 1.503 . S
C1203 C1202 1.370 . S
C1203 C1204 1.403 . S
C1204 C1203 1.403 . S
C1204 C1205 1.404 . S
C1204 C1207 1.539 . S
C1205 C1201 1.408 . S
C1205 C1204 1.404 . S
C1205 H1217 0.930 . S
C1206 C1202 1.524 . S
C1206 H1218 0.956 . S
C1206 H1219 0.961 . S
C1206 H1220 0.961 . S
C1207 C1204 1.539 . S
C1207 H1221 0.958 . S
C1207 H1222 0.961 . S
C1207 H1223 0.960 . S
H1208 C1192 0.931 . S
H1209 C1197 0.929 . S
H1210 C1198 0.960 . S
H1211 C1198 0.962 . S
H1212 C1198 0.960 . S
H1213 C1199 0.961 1_565 S
H1214 C1199 0.961 1_565 S
H1215 C1199 0.961 . S
H1216 C1200 0.931 . S
H1217 C1205 0.930 . S
H1218 C1206 0.956 . S
H1219 C1206 0.961 . S
H1220 C1206 0.961 . S
H1221 C1207 0.958 . S
H1222 C1207 0.961 . S
H1223 C1207 0.960 . S
C1224 C1225 1.391 . S
C1224 C1226 1.394 . S
C1224 H1240 0.931 . S
C1225 C1224 1.391 . S
C1225 C1229 1.376 . S
C1226 C1224 1.394 . S
C1226 C1227 1.369 . S
C1226 C1230 1.531 . S
C1227 C1226 1.369 . S
C1227 C1228 1.410 . S
C1227 C1235 1.503 . S
C1228 C1227 1.410 . S
C1228 C1229 1.392 . S
C1228 C1231 1.511 . S
C1229 C1225 1.376 . S
C1229 C1228 1.392 . S
C1229 H1241 0.929 . S
C1230 C1226 1.531 . S
C1230 H1242 0.960 . S
C1230 H1243 0.962 . S
C1230 H1244 0.960 . S
C1231 C1228 1.511 . S
C1231 H1245 0.961 . S
C1231 H1246 0.961 . S
C1231 H1247 0.961 . S
C1232 C1233 1.370 . S
C1232 C1234 1.363 . S
C1232 H1248 0.931 . S
C1233 C1232 1.370 . S
C1233 C1237 1.408 . S
C1234 C1232 1.363 . S
C1234 C1235 1.370 . S
C1234 C1238 1.524 . S
C1235 C1227 1.503 . S
C1235 C1234 1.370 . S
C1235 C1236 1.403 . S
C1236 C1235 1.403 . S
C1236 C1237 1.404 . S
C1236 C1239 1.539 . S
C1237 C1233 1.408 . S
C1237 C1236 1.404 . S
C1237 H1249 0.930 . S
C1238 C1234 1.524 . S
C1238 H1250 0.956 . S
C1238 H1251 0.961 . S
C1238 H1252 0.961 . S
C1239 C1236 1.539 . S
C1239 H1253 0.958 . S
C1239 H1254 0.961 . S
C1239 H1255 0.960 . S
H1240 C1224 0.931 . S
H1241 C1229 0.929 . S
H1242 C1230 0.960 . S
H1243 C1230 0.962 . S
H1244 C1230 0.960 . S
H1245 C1231 0.961 . S
H1246 C1231 0.961 . S
H1247 C1231 0.961 . S
H1248 C1232 0.931 . S
H1249 C1237 0.930 . S
H1250 C1238 0.956 . S
H1251 C1238 0.961 . S
H1252 C1238 0.961 . S
H1253 C1239 0.958 . S
H1254 C1239 0.961 . S
H1255 C1239 0.960 . S
C1256 C1257 1.391 . S
C1256 C1258 1.394 . S
C1256 H1272 0.931 . S
C1257 C1256 1.391 . S
C1257 C1261 1.376 . S
C1258 C1256 1.394 . S
C1258 C1259 1.369 . S
C1258 C1262 1.531 . S
C1259 C1258 1.369 . S
C1259 C1260 1.410 . S
C1259 C1267 1.503 . S
C1260 C1259 1.410 . S
C1260 C1261 1.392 . S
C1260 C1263 1.511 . S
C1261 C1257 1.376 . S
C1261 C1260 1.392 . S
C1261 H1273 0.929 . S
C1262 C1258 1.531 . S
C1262 H1274 0.960 . S
C1262 H1275 0.962 . S
C1262 H1276 0.960 . S
C1263 C1260 1.511 . S
C1263 H1277 0.961 . S
C1263 H1278 0.961 . S
C1263 H1279 0.961 . S
C1264 C1265 1.370 . S
C1264 C1266 1.363 . S
C1264 H1280 0.931 . S
C1265 C1264 1.370 . S
C1265 C1269 1.408 . S
C1266 C1264 1.363 . S
C1266 C1267 1.370 . S
C1266 C1270 1.524 . S
C1267 C1259 1.503 . S
C1267 C1266 1.370 . S
C1267 C1268 1.403 . S
C1268 C1267 1.403 . S
C1268 C1269 1.404 . S
C1268 C1271 1.539 . S
C1269 C1265 1.408 . S
C1269 C1268 1.404 . S
C1269 H1281 0.930 . S
C1270 C1266 1.524 . S
C1270 H1282 0.956 . S
C1270 H1283 0.961 . S
C1270 H1284 0.961 . S
C1271 C1268 1.539 . S
C1271 H1285 0.958 . S
C1271 H1286 0.961 . S
C1271 H1287 0.960 . S
H1272 C1256 0.931 . S
H1273 C1261 0.929 . S
H1274 C1262 0.960 . S
H1275 C1262 0.962 . S
H1276 C1262 0.960 . S
H1277 C1263 0.961 . S
H1278 C1263 0.961 . S
H1279 C1263 0.961 . S
H1280 C1264 0.931 . S
H1281 C1269 0.930 . S
H1282 C1270 0.956 . S
H1283 C1270 0.961 . S
H1284 C1270 0.961 . S
H1285 C1271 0.958 . S
H1286 C1271 0.961 . S
H1287 C1271 0.960 . S
C1288 C1289 1.391 . S
C1288 C1290 1.394 . S
C1288 H1304 0.931 . S
C1289 C1288 1.391 . S
C1289 C1293 1.376 . S
C1290 C1288 1.394 . S
C1290 C1291 1.369 . S
C1290 C1294 1.531 . S
C1291 C1290 1.369 . S
C1291 C1292 1.410 . S
C1291 C1299 1.503 . S
C1292 C1291 1.410 . S
C1292 C1293 1.392 . S
C1292 C1295 1.511 . S
C1293 C1289 1.376 . S
C1293 C1292 1.392 . S
C1293 H1305 0.929 . S
C1294 C1290 1.531 . S
C1294 H1306 0.960 . S
C1294 H1307 0.962 1_655 S
C1294 H1308 0.960 . S
C1295 C1292 1.511 . S
C1295 H1309 0.961 . S
C1295 H1310 0.961 . S
C1295 H1311 0.961 . S
C1296 C1297 1.370 1_455 S
C1296 C1298 1.363 1_455 S
C1296 H1312 0.931 . S
C1297 C1296 1.370 1_655 S
C1297 C1301 1.408 . S
C1298 C1296 1.363 1_655 S
C1298 C1299 1.370 . S
C1298 C1302 1.524 1_655 S
C1299 C1291 1.503 . S
C1299 C1298 1.370 . S
C1299 C1300 1.403 . S
C1300 C1299 1.403 . S
C1300 C1301 1.404 . S
C1300 C1303 1.539 . S
C1301 C1297 1.408 . S
C1301 C1300 1.404 . S
C1301 H1313 0.930 . S
C1302 C1298 1.524 1_455 S
C1302 H1314 0.956 . S
C1302 H1315 0.961 . S
C1302 H1316 0.961 . S
C1303 C1300 1.539 . S
C1303 H1317 0.958 . S
C1303 H1318 0.961 . S
C1303 H1319 0.960 . S
H1304 C1288 0.931 . S
H1305 C1293 0.929 . S
H1306 C1294 0.960 . S
H1307 C1294 0.962 1_455 S
H1308 C1294 0.960 . S
H1309 C1295 0.961 . S
H1310 C1295 0.961 . S
H1311 C1295 0.961 . S
H1312 C1296 0.931 . S
H1313 C1301 0.930 . S
H1314 C1302 0.956 . S
H1315 C1302 0.961 . S
H1316 C1302 0.961 . S
H1317 C1303 0.958 . S
H1318 C1303 0.961 . S
H1319 C1303 0.960 . S
C1320 C1321 1.391 . S
C1320 C1322 1.394 . S
C1320 H1336 0.931 . S
C1321 C1320 1.391 . S
C1321 C1325 1.376 . S
C1322 C1320 1.394 . S
C1322 C1323 1.369 . S
C1322 C1326 1.531 . S
C1323 C1322 1.369 . S
C1323 C1324 1.414 . S
C1323 C1331 1.503 . S
C1324 C1323 1.414 . S
C1324 C1325 1.393 . S
C1324 C1327 1.506 1_565 S
C1325 C1321 1.376 . S
C1325 C1324 1.393 . S
C1325 H1337 0.929 1_565 S
C1326 C1322 1.531 . S
C1326 H1338 0.960 . S
C1326 H1339 0.962 . S
C1326 H1340 0.960 . S
C1327 C1324 1.506 1_545 S
C1327 H1341 0.961 . S
C1327 H1342 0.961 . S
C1327 H1343 0.961 . S
C1328 C1329 1.370 . S
C1328 C1330 1.363 . S
C1328 H1344 0.931 . S
C1329 C1328 1.370 . S
C1329 C1333 1.408 . S
C1330 C1328 1.363 . S
C1330 C1331 1.370 . S
C1330 C1334 1.524 . S
C1331 C1323 1.503 . S
C1331 C1330 1.370 . S
C1331 C1332 1.403 . S
C1332 C1331 1.403 . S
C1332 C1333 1.404 . S
C1332 C1335 1.539 . S
C1333 C1329 1.408 . S
C1333 C1332 1.404 . S
C1333 H1345 0.930 . S
C1334 C1330 1.524 . S
C1334 H1346 0.956 . S
C1334 H1347 0.961 . S
C1334 H1348 0.961 . S
C1335 C1332 1.539 . S
C1335 H1349 0.958 . S
C1335 H1350 0.961 . S
C1335 H1351 0.960 . S
H1336 C1320 0.931 . S
H1337 C1325 0.929 1_545 S
H1338 C1326 0.960 . S
H1339 C1326 0.962 . S
H1340 C1326 0.960 . S
H1341 C1327 0.961 . S
H1342 C1327 0.961 . S
H1343 C1327 0.961 . S
H1344 C1328 0.931 . S
H1345 C1333 0.930 . S
H1346 C1334 0.956 . S
H1347 C1334 0.961 . S
H1348 C1334 0.961 . S
H1349 C1335 0.958 . S
H1350 C1335 0.961 . S
H1351 C1335 0.960 . S
C1352 C1353 1.391 . S
C1352 C1354 1.394 . S
C1352 H1368 0.931 . S
C1353 C1352 1.391 . S
C1353 C1357 1.376 . S
C1354 C1352 1.394 . S
C1354 C1355 1.369 . S
C1354 C1358 1.531 . S
C1355 C1354 1.369 . S
C1355 C1356 1.410 . S
C1355 C1363 1.503 . S
C1356 C1355 1.410 . S
C1356 C1357 1.392 . S
C1356 C1359 1.511 . S
C1357 C1353 1.376 . S
C1357 C1356 1.392 . S
C1357 H1369 0.929 . S
C1358 C1354 1.531 . S
C1358 H1370 0.960 . S
C1358 H1371 0.962 . S
C1358 H1372 0.960 . S
C1359 C1356 1.511 . S
C1359 H1373 0.961 . S
C1359 H1374 0.961 . S
C1359 H1375 0.961 . S
C1360 C1361 1.370 . S
C1360 C1362 1.363 . S
C1360 H1376 0.931 . S
C1361 C1360 1.370 . S
C1361 C1365 1.408 . S
C1362 C1360 1.363 . S
C1362 C1363 1.370 . S
C1362 C1366 1.524 . S
C1363 C1355 1.503 . S
C1363 C1362 1.370 . S
C1363 C1364 1.403 . S
C1364 C1363 1.403 . S
C1364 C1365 1.404 . S
C1364 C1367 1.539 . S
C1365 C1361 1.408 . S
C1365 C1364 1.404 . S
C1365 H1377 0.930 . S
C1366 C1362 1.524 . S
C1366 H1378 0.956 . S
C1366 H1379 0.961 . S
C1366 H1380 0.961 . S
C1367 C1364 1.539 . S
C1367 H1381 0.958 . S
C1367 H1382 0.961 . S
C1367 H1383 0.960 . S
H1368 C1352 0.931 . S
H1369 C1357 0.929 . S
H1370 C1358 0.960 . S
H1371 C1358 0.962 . S
H1372 C1358 0.960 . S
H1373 C1359 0.961 . S
H1374 C1359 0.961 . S
H1375 C1359 0.961 . S
H1376 C1360 0.931 . S
H1377 C1365 0.930 . S
H1378 C1366 0.956 . S
H1379 C1366 0.961 . S
H1380 C1366 0.961 . S
H1381 C1367 0.958 . S
H1382 C1367 0.961 . S
H1383 C1367 0.960 . S
C1384 C1385 1.391 . S
C1384 C1386 1.394 . S
C1384 H1400 0.931 . S
C1385 C1384 1.391 . S
C1385 C1389 1.376 . S
C1386 C1384 1.394 . S
C1386 C1387 1.369 . S
C1386 C1390 1.531 . S
C1387 C1386 1.369 . S
C1387 C1388 1.410 . S
C1387 C1395 1.503 . S
C1388 C1387 1.410 . S
C1388 C1389 1.392 . S
C1388 C1391 1.511 . S
C1389 C1385 1.376 . S
C1389 C1388 1.392 . S
C1389 H1401 0.929 . S
C1390 C1386 1.531 . S
C1390 H1402 0.960 . S
C1390 H1403 0.962 . S
C1390 H1404 0.960 . S
C1391 C1388 1.511 . S
C1391 H1405 0.961 . S
C1391 H1406 0.961 . S
C1391 H1407 0.961 . S
C1392 C1393 1.370 . S
C1392 C1394 1.363 . S
C1392 H1408 0.931 . S
C1393 C1392 1.370 . S
C1393 C1397 1.408 . S
C1394 C1392 1.363 . S
C1394 C1395 1.370 . S
C1394 C1398 1.524 . S
C1395 C1387 1.503 . S
C1395 C1394 1.370 . S
C1395 C1396 1.403 . S
C1396 C1395 1.403 . S
C1396 C1397 1.404 . S
C1396 C1399 1.539 . S
C1397 C1393 1.408 . S
C1397 C1396 1.404 . S
C1397 H1409 0.930 . S
C1398 C1394 1.524 . S
C1398 H1410 0.956 . S
C1398 H1411 0.961 . S
C1398 H1412 0.961 . S
C1399 C1396 1.539 . S
C1399 H1413 0.958 . S
C1399 H1414 0.961 . S
C1399 H1415 0.960 . S
H1400 C1384 0.931 . S
H1401 C1389 0.929 . S
H1402 C1390 0.960 . S
H1403 C1390 0.962 . S
H1404 C1390 0.960 . S
H1405 C1391 0.961 . S
H1406 C1391 0.961 . S
H1407 C1391 0.961 . S
H1408 C1392 0.931 . S
H1409 C1397 0.930 . S
H1410 C1398 0.956 . S
H1411 C1398 0.961 . S
H1412 C1398 0.961 . S
H1413 C1399 0.958 . S
H1414 C1399 0.961 . S
H1415 C1399 0.960 . S
C649 C255 2.304 . S
C657 C380 2.429 . S
C689 C463 2.454 . S
C681 C294 2.275 . S
C721 C548 2.436 . S
C713 C177 2.241 . S
C753 C632 2.414 . S
C745 C216 2.280 . S
C785 C368 2.428 1_565 S
C777 C99 2.292 . S
C809 C138 2.302 . S
C817 C451 2.450 . S
C841 C21 2.277 . S
C849 C536 2.438 . S
C873 C60 2.241 . S
C881 C620 2.415 1_655 S
C913 C370 0.454 . S
C905 C196 0.457 . S
C945 C466 0.496 . S
C937 C235 0.474 . S
C977 C538 0.498 . S
C969 C289 0.567 . S
C1001 C157 0.476 . S
C1009 C622 0.446 . S
C1033 C40 0.547 . S
C1041 C382 0.511 . S
C1073 C454 0.492 . S
C1065 C79 0.476 . S
C1105 C550 0.525 . S
C1097 C133 0.498 . S
C1129 C1 0.534 . S
C1137 C634 0.515 . S
C1161 C211 2.631 . S
C1169 C367 2.906 . S
C1193 C250 2.562 . S
C1201 C452 2.948 . S
C1233 C535 2.936 . S
C1225 C274 2.629 . S
C1265 C619 2.937 . S
C1257 C172 2.594 . S
C1289 C55 2.590 . S
C1297 C379 2.911 . S
C1329 C464 2.947 . S
C1321 C94 2.619 . S
C1361 C547 2.939 . S
C1353 C118 2.618 . S
C1385 C16 2.602 . S
C1393 C631 2.935 . S
