# Generated by pormake.
# Topology pth, (4,4)-cn, num edge types: 1
# Building blocks:
#     Node 0, Type 0, BuildingBlock: GALJAG_clean_sbu_0, # of connection points: 4
#     Node 1, Type 0, BuildingBlock: GALJAG_clean_sbu_0, # of connection points: 4
#     Node 2, Type 0, BuildingBlock: GALJAG_clean_sbu_0, # of connection points: 4
#     Node 3, Type 1, BuildingBlock: AZAVOO_clean_linker_0, # of connection points: 4
#     Node 4, Type 1, BuildingBlock: AZAVOO_clean_linker_0, # of connection points: 4
#     Node 5, Type 1, BuildingBlock: AZAVOO_clean_linker_0, # of connection points: 4
#     Edge 6, Type (0, 1), BuildingBlock: ZUJKAS_clean_linker_0, # of connection points: 2
#     Edge 7, Type (0, 1), BuildingBlock: ZUJKAS_clean_linker_0, # of connection points: 2
#     Edge 8, Type (0, 1), BuildingBlock: ZUJKAS_clean_linker_0, # of connection points: 2
#     Edge 9, Type (0, 1), BuildingBlock: ZUJKAS_clean_linker_0, # of connection points: 2
#     Edge 10, Type (0, 1), BuildingBlock: ZUJKAS_clean_linker_0, # of connection points: 2
#     Edge 11, Type (0, 1), BuildingBlock: ZUJKAS_clean_linker_0, # of connection points: 2
#     Edge 12, Type (0, 1), BuildingBlock: ZUJKAS_clean_linker_0, # of connection points: 2
#     Edge 13, Type (0, 1), BuildingBlock: ZUJKAS_clean_linker_0, # of connection points: 2
#     Edge 14, Type (0, 1), BuildingBlock: ZUJKAS_clean_linker_0, # of connection points: 2
#     Edge 15, Type (0, 1), BuildingBlock: ZUJKAS_clean_linker_0, # of connection points: 2
#     Edge 16, Type (0, 1), BuildingBlock: ZUJKAS_clean_linker_0, # of connection points: 2
#     Edge 17, Type (0, 1), BuildingBlock: ZUJKAS_clean_linker_0, # of connection points: 2
# Relax obj value: 0.120
# Max RMSD: 0.232
# Mean RMSD: 0.161
data_MOF--net-pth--node1-GALJAG_clean_sbu_0--node2-AZAVOO_clean_linker_0--edge1-ZUJKAS_clean_linker_0
_symmetry_space_group_name_H-M    P1
_symmetry_Int_Tables_number       1
_symmetry_cell_setting            triclinic
loop_
_symmetry_equiv_pos_as_xyz
'x, y, z'
_cell_length_a     33.622771
_cell_length_b     33.963627
_cell_length_c     86.883683
_cell_angle_alpha  92.826872
_cell_angle_beta   89.193319
_cell_angle_gamma 119.98442
loop_
_atom_site_label
_atom_site_type_symbol
_atom_site_fract_x
_atom_site_fract_y
_atom_site_fract_z
_atom_type_partial_charge
In0 In 0.0621 0.04718 0.06224 0.0
O1 O 0.0206 0.07501 0.07488 0.0
O2 O 0.07864 0.08046 0.08639 0.0
C3 C 0.00458 0.00475 0.03802 0.0
C4 C 0.13235 0.11805 0.04888 0.0
C5 C 0.06941 0.98041 0.07506 0.0
O6 O 0.99087 0.01237 0.05082 0.0
O7 O 0.04691 0.01824 0.03753 0.0
O8 O 0.10387 0.01663 0.07095 0.0
O9 O 0.03123 0.97765 0.07254 0.0
C10 C 0.04556 0.08806 0.08687 0.0
O11 O 0.13289 0.08211 0.0515 0.0
O12 O 0.0965 0.11842 0.05315 0.0
In13 In 0.01277 0.03883 0.39246 0.0
O14 O 0.04791 0.09947 0.37717 0.0
O15 O 0.97508 0.0647 0.37811 0.0
C16 C 0.08766 0.05168 0.40777 0.0
C17 C 0.96247 0.04237 0.4163 0.0
C18 C 0.9937 0.96328 0.37512 0.0
O19 O 0.08727 0.08309 0.40069 0.0
O20 O 0.05054 0.01419 0.40703 0.0
O21 O 0.97031 0.96234 0.38672 0.0
O22 O 0.02556 0.0024 0.37202 0.0
C23 C 0.01107 0.0968 0.3727 0.0
O24 O 0.94563 0.0118 0.40561 0.0
O25 O 0.00431 0.0714 0.41481 0.0
In26 In 0.04079 0.06183 0.72883 0.0
O27 O 0.00113 0.98881 0.73648 0.0
O28 O 0.99289 0.03885 0.74943 0.0
C29 C 0.10254 0.04599 0.71391 0.0
C30 C 0.9851 0.06988 0.70854 0.0
C31 C 0.1022 0.13411 0.74629 0.0
O32 O 0.06615 0.01438 0.71934 0.0
O33 O 0.10718 0.08513 0.71573 0.0
O34 O 0.08379 0.13822 0.73436 0.0
O35 O 0.08865 0.09357 0.74959 0.0
C36 C 0.98218 -0.00237 0.74769 0.0
O37 O 0.99157 0.08651 0.72216 0.0
O38 O 0.00703 0.04967 0.70511 0.0
H39 H 0.01601 0.47502 0.12696 0.0
H40 H 0.10797 0.83277 0.25667 0.0
H41 H 0.95838 0.43596 0.20777 0.0
H42 H 0.95551 0.36816 0.19565 0.0
H43 H 0.08791 0.40818 0.21591 0.0
H44 H 0.09096 0.47677 0.22763 0.0
H45 H 0.9761 0.52021 0.18897 0.0
H46 H 0.98074 0.50049 0.16178 0.0
H47 H 0.11069 0.50839 0.17099 0.0
H48 H 0.10589 0.52869 0.1981 0.0
H49 H 0.98293 0.60632 0.20678 0.0
H50 H 0.99509 0.65962 0.18687 0.0
H51 H 0.13195 0.68121 0.17967 0.0
H52 H 0.11925 0.62753 0.19957 0.0
H53 H 0.97264 0.60959 0.24177 0.0
H54 H 0.98183 0.683 0.25096 0.0
H55 H 0.12732 0.74742 0.24184 0.0
H56 H 0.1177 0.67363 0.2329 0.0
H57 H 0.95451 0.53135 0.25991 0.0
H58 H 0.94616 0.56823 0.28365 0.0
H59 H 0.09375 0.6539 0.2869 0.0
H60 H 0.10148 0.61771 0.2629 0.0
H61 H 0.95425 0.43421 0.24407 0.0
H62 H 0.94915 0.37907 0.26223 0.0
H63 H 0.08603 0.47543 0.27912 0.0
H64 H 0.0914 0.52943 0.26049 0.0
O65 O 0.01496 0.48305 0.13775 0.0
O66 O 0.08147 0.48718 0.14312 0.0
O67 O 0.02842 0.76848 0.25767 0.0
O68 O 0.10329 0.8034 0.25296 0.0
C69 C 0.03012 0.50605 0.22331 0.0
C70 C 0.03754 0.53751 0.212 0.0
C71 C 0.04229 0.58019 0.21641 0.0
C72 C 0.03932 0.59133 0.23206 0.0
C73 C 0.03235 0.56002 0.24337 0.0
C74 C 0.02808 0.51751 0.23904 0.0
C75 C 0.025 0.4613 0.21845 0.0
C76 C 0.9863 0.42953 0.20982 0.0
C77 C 0.98463 0.3907 0.203 0.0
C78 C 0.02166 0.38297 0.20473 0.0
C79 C 0.05915 0.41355 0.2142 0.0
C80 C 0.06082 0.45248 0.221 0.0
C81 C 0.04063 0.52582 0.19548 0.0
C82 C 0.00562 0.51786 0.18506 0.0
C83 C 0.00832 0.5065 0.16956 0.0
C84 C 0.04607 0.50281 0.16421 0.0
C85 C 0.08113 0.5109 0.17472 0.0
C86 C 0.07845 0.52241 0.19021 0.0
C87 C 0.05023 0.61323 0.20458 0.0
C88 C 0.01559 0.62281 0.20095 0.0
C89 C 0.02267 0.6533 0.18962 0.0
C90 C 0.06452 0.67462 0.18172 0.0
C91 C 0.09919 0.66492 0.18544 0.0
C92 C 0.09211 0.63451 0.19681 0.0
C93 C 0.04453 0.63636 0.23673 0.0
C94 C 0.00644 0.63963 0.24176 0.0
C95 C 0.01179 0.68159 0.24699 0.0
C96 C 0.05536 0.72109 0.24717 0.0
C97 C 0.09332 0.7177 0.24187 0.0
C98 C 0.08792 0.67566 0.23671 0.0
C99 C 0.02853 0.57222 0.25969 0.0
C100 C 0.98504 0.55695 0.26608 0.0
C101 C 0.98038 0.57811 0.27963 0.0
C102 C 0.01927 0.61461 0.28698 0.0
C103 C 0.06309 0.62656 0.28131 0.0
C104 C 0.06766 0.60564 0.26772 0.0
C105 C 0.02321 0.4857 0.25096 0.0
C106 C 0.98298 0.44337 0.25176 0.0
C107 C 0.98006 0.41208 0.26221 0.0
C108 C 0.01729 0.42277 0.27208 0.0
C109 C 0.05704 0.46583 0.27151 0.0
C110 C 0.06 0.49693 0.261 0.0
C111 C 0.04874 0.49056 0.14775 0.0
C112 C 0.06134 0.76564 0.25292 0.0
H113 H 0.55797 0.00867 0.46251 0.0
H114 H 0.29384 0.10703 0.58947 0.0
H115 H 0.55985 0.97704 0.54791 0.0
H116 H 0.62133 0.96993 0.53514 0.0
H117 H 0.71236 0.11499 0.54248 0.0
H118 H 0.65102 0.12113 0.55587 0.0
H119 H 0.489 0.98693 0.52553 0.0
H120 H 0.50712 0.98314 0.49829 0.0
H121 H 0.62077 0.12121 0.50318 0.0
H122 H 0.60192 0.12462 0.53035 0.0
H123 H 0.40854 -0.00295 0.54163 0.0
H124 H 0.36158 0.00283 0.52155 0.0
H125 H 0.47046 0.13951 0.51356 0.0
H126 H 0.51721 0.13322 0.5336 0.0
H127 H 0.40485 0.99126 0.57809 0.0
H128 H 0.33687 0.99395 0.587 0.0
H129 H 0.39976 0.13399 0.57432 0.0
H130 H 0.46788 0.13105 0.56568 0.0
H131 H 0.48225 0.98477 0.59582 0.0
H132 H 0.44234 0.97371 0.62037 0.0
H133 H 0.46875 0.11215 0.62065 0.0
H134 H 0.51026 0.12331 0.59656 0.0
H135 H 0.56574 0.98588 0.58024 0.0
H136 H 0.62152 0.9882 0.59863 0.0
H137 H 0.66341 0.12826 0.61152 0.0
H138 H 0.60743 0.12549 0.59314 0.0
O139 O 0.5512 0.01101 0.47327 0.0
O140 O 0.60928 0.08202 0.4764 0.0
O141 O 0.28985 0.03322 0.59257 0.0
O142 O 0.32013 0.10491 0.58589 0.0
C143 C 0.56172 0.05465 0.55774 0.0
C144 C 0.53367 0.05764 0.54647 0.0
C145 C 0.49492 0.06087 0.55093 0.0
C146 C 0.48347 0.05989 0.56665 0.0
C147 C 0.51197 0.05743 0.57796 0.0
C148 C 0.55142 0.05537 0.57351 0.0
C149 C 0.60118 0.04957 0.55274 0.0
C150 C 0.59353 0.00697 0.54713 0.0
C151 C 0.62853 0.00313 0.5397 0.0
C152 C 0.67155 0.04202 0.53754 0.0
C153 C 0.67982 0.08429 0.54404 0.0
C154 C 0.64486 0.08797 0.55166 0.0
C155 C 0.54423 0.05598 0.52987 0.0
C156 C 0.51765 0.01635 0.52065 0.0
C157 C 0.52816 0.01427 0.50512 0.0
C158 C 0.56547 0.05184 0.49856 0.0
C159 C 0.59186 0.09164 0.50787 0.0
C160 C 0.58124 0.09368 0.52339 0.0
C161 C 0.4661 0.06475 0.53905 0.0
C162 C 0.42202 0.02828 0.53559 0.0
C163 C 0.3953 0.03171 0.52416 0.0
C164 C 0.41237 0.07166 0.51599 0.0
C165 C 0.45662 0.10814 0.51953 0.0
C166 C 0.48323 0.10472 0.53099 0.0
C167 C 0.44129 0.06099 0.57128 0.0
C168 C 0.40384 0.02246 0.57724 0.0
C169 C 0.36506 0.02409 0.58231 0.0
C170 C 0.36292 0.06424 0.5814 0.0
C171 C 0.4003 0.10257 0.5752 0.0
C172 C 0.43917 0.10095 0.5702 0.0
C173 C 0.49862 0.05467 0.59437 0.0
C174 C 0.48089 0.01317 0.60152 0.0
C175 C 0.45763 0.00677 0.61544 0.0
C176 C 0.45154 0.04174 0.62233 0.0
C177 C 0.47298 0.08454 0.61576 0.0
C178 C 0.49658 0.091 0.60194 0.0
C179 C 0.58288 0.05562 0.58531 0.0
C180 C 0.58695 0.01698 0.58707 0.0
C181 C 0.61887 0.01843 0.59752 0.0
C182 C 0.64703 0.05851 0.60645 0.0
C183 C 0.64193 0.09679 0.60491 0.0
C184 C 0.61013 0.09534 0.59441 0.0
C185 C 0.57677 0.04939 0.4821 0.0
C186 C 0.32203 0.06633 0.58696 0.0
H187 H 0.58803 0.6473 0.99372 0.0
H188 H 0.35131 0.25392 0.87178 0.0
H189 H 0.57961 0.6609 0.90906 0.0
H190 H 0.63777 0.73259 0.92163 0.0
H191 H 0.74017 0.69286 0.91305 0.0
H192 H 0.68187 0.62185 0.90015 0.0
H193 H 0.51529 0.58277 0.93109 0.0
H194 H 0.53412 0.61061 0.95802 0.0
H195 H 0.65758 0.60116 0.95466 0.0
H196 H 0.63801 0.57285 0.92781 0.0
H197 H 0.43979 0.49027 0.91405 0.0
H198 H 0.39376 0.44291 0.93487 0.0
H199 H 0.50852 0.42869 0.94908 0.0
H200 H 0.55378 0.47495 0.92785 0.0
H201 H 0.43421 0.47822 0.87902 0.0
H202 H 0.37245 0.40225 0.87078 0.0
H203 H 0.45246 0.3443 0.88676 0.0
H204 H 0.51429 0.4206 0.89471 0.0
H205 H 0.50033 0.55899 0.86085 0.0
H206 H 0.45857 0.51956 0.83706 0.0
H207 H 0.51311 0.42842 0.83866 0.0
H208 H 0.55417 0.46773 0.86263 0.0
H209 H 0.57797 0.64883 0.87411 0.0
H210 H 0.62654 0.70112 0.85467 0.0
H211 H 0.69388 0.6217 0.84718 0.0
H212 H 0.64413 0.569 0.86631 0.0
O213 O 0.58104 0.63591 0.9831 0.0
O214 O 0.64423 0.63072 0.98073 0.0
O215 O 0.33567 0.31592 0.86677 0.0
O216 O 0.37504 0.28431 0.87505 0.0
C217 C 0.58992 0.58959 0.89939 0.0
C218 C 0.56436 0.56004 0.91109 0.0
C219 C 0.52804 0.51589 0.90716 0.0
C220 C 0.51732 0.50126 0.89153 0.0
C221 C 0.54329 0.53078 0.87982 0.0
C222 C 0.57973 0.57484 0.88376 0.0
C223 C 0.62668 0.63635 0.90379 0.0
C224 C 0.61494 0.66845 0.9095 0.0
C225 C 0.64807 0.70909 0.9168 0.0
C226 C 0.69342 0.71809 0.91855 0.0
C227 C 0.70567 0.68716 0.91179 0.0
C228 C 0.67247 0.64657 0.90443 0.0
C229 C 0.5753 0.57584 0.92754 0.0
C230 C 0.54622 0.5865 0.93624 0.0
C231 C 0.55715 0.60251 0.95159 0.0
C232 C 0.59741 0.6082 0.95849 0.0
C233 C 0.62634 0.59724 0.94971 0.0
C234 C 0.6153 0.58111 0.93437 0.0
C235 C 0.49995 0.48582 0.91945 0.0
C236 C 0.45475 0.47651 0.92158 0.0
C237 C 0.42875 0.44991 0.93357 0.0
C238 C 0.44764 0.43234 0.94369 0.0
C239 C 0.4929 0.44142 0.9414 0.0
C240 C 0.51884 0.46794 0.92936 0.0
C241 C 0.47876 0.45487 0.88738 0.0
C242 C 0.4383 0.44906 0.88072 0.0
C243 C 0.40308 0.40564 0.87605 0.0
C244 C 0.40758 0.36718 0.87808 0.0
C245 C 0.44792 0.37316 0.885 0.0
C246 C 0.48321 0.41665 0.88961 0.0
C247 C 0.52984 0.51588 0.86349 0.0
C248 C 0.5046 0.53161 0.85573 0.0
C249 C 0.48073 0.50898 0.84215 0.0
C250 C 0.48191 0.47036 0.83614 0.0
C251 C 0.51087 0.45753 0.84319 0.0
C252 C 0.53467 0.48015 0.85677 0.0
C253 C 0.60772 0.60533 0.87157 0.0
C254 C 0.60307 0.64272 0.86817 0.0
C255 C 0.63103 0.67263 0.85714 0.0
C256 C 0.66429 0.66574 0.84941 0.0
C257 C 0.66825 0.6277 0.85275 0.0
C258 C 0.64008 0.59769 0.86372 0.0
C259 C 0.60912 0.62559 0.97476 0.0
C260 C 0.3705 0.32103 0.87295 0.0
H261 H 0.97871 0.1111 0.09027 0.0
H262 H 0.96941 0.15481 0.11191 0.0
H263 H 0.08593 0.1627 0.1351 0.0
H264 H 0.09518 0.11871 0.11364 0.0
H265 H 0.00941 0.14309 0.15459 0.0
H266 H 0.0602 0.29274 0.11915 0.0
H267 H 0.01336 0.23985 0.11153 0.0
H268 H 0.06967 0.24656 0.11302 0.0
C269 C 0.00212 0.1219 0.10004 0.0
C270 C 0.03792 0.11189 0.10023 0.0
C271 C -0.00316 0.14691 0.11235 0.0
C272 C 0.02736 0.16238 0.12498 0.0
C273 C 0.06211 0.15109 0.12543 0.0
H274 H 0.09462 0.3877 0.18911 0.0
H275 H 0.09504 0.3306 0.17104 0.0
C276 C 0.06743 0.12612 0.11314 0.0
C277 C 0.0246 0.19215 0.13742 0.0
H278 H 0.03839 0.29786 0.14474 0.0
C279 C 0.01556 0.17689 0.15248 0.0
C280 C 0.03325 0.23636 0.13458 0.0
C281 C 0.04505 0.25518 0.11873 0.0
C282 C 0.01486 0.20482 0.16482 0.0
C283 C 0.02307 0.24883 0.16193 0.0
C284 C 0.032 0.26398 0.14687 0.0
C285 C 0.02371 0.28051 0.17435 0.0
C286 C 0.00648 0.18755 0.18088 0.0
C287 C 0.98362 0.27083 0.18239 0.0
C288 C 0.98336 0.3033 0.19286 0.0
C289 C 0.02315 0.34603 0.19537 0.0
C290 C 0.06362 0.35488 0.18765 0.0
C291 C 0.06384 0.32245 0.17722 0.0
H292 H 0.01077 0.15732 0.18163 0.0
H293 H 0.03026 0.21454 0.18931 0.0
H294 H 0.97084 0.17764 0.18424 0.0
H295 H 0.95213 0.23887 0.18017 0.0
H296 H 0.95173 0.29544 0.1987 0.0
H297 H 0.87071 0.98798 0.42101 0.0
H298 H 0.82691 0.98943 0.44356 0.0
H299 H 0.9505 0.09938 0.4647 0.0
H300 H 0.99429 0.09886 0.44205 0.0
H301 H 0.83799 0.97588 0.4739 0.0
H302 H 0.86279 0.14892 0.46786 0.0
H303 H 0.87598 0.11936 0.45262 0.0
H304 H 0.91502 0.14683 0.46864 0.0
C305 C 0.88845 0.01266 0.43042 0.0
C306 C 0.93579 0.04353 0.42974 0.0
C307 C 0.86346 0.01337 0.4433 0.0
C308 C 0.88539 0.04492 0.45569 0.0
C309 C 0.93276 0.07544 0.45511 0.0
H310 H 0.76564 0.08739 0.54086 0.0
H311 H 0.82142 0.08753 0.52232 0.0
C312 C 0.95773 0.07496 0.4422 0.0
C313 C 0.8586 0.04524 0.4693 0.0
H314 H 0.82388 0.11055 0.48999 0.0
C315 C 0.83501 0.00536 0.47745 0.0
C316 C 0.85503 0.08387 0.47393 0.0
C317 C 0.87819 0.12707 0.46525 0.0
C318 C 0.80735 0.00286 0.49001 0.0
C319 C 0.80305 0.04112 0.49442 0.0
C320 C 0.82763 0.08142 0.48658 0.0
C321 C 0.76997 0.03875 0.50619 0.0
C322 C 0.78257 0.95925 0.4984 0.0
C323 C 0.72283 0.01142 0.50315 0.0
C324 C 0.69103 0.01169 0.51355 0.0
C325 C 0.70577 0.03923 0.52725 0.0
C326 C 0.75318 0.06604 0.53038 0.0
C327 C 0.78505 0.066 0.51987 0.0
H328 H 0.79828 0.93749 0.49622 0.0
H329 H 0.78266 0.96645 0.51101 0.0
H330 H 0.74631 0.93978 0.49434 0.0
H331 H 0.71062 0.99094 0.49248 0.0
H332 H 0.65491 0.99155 0.51054 0.0
H333 H 0.93962 0.0094 0.77299 0.0
H334 H 0.88558 0.95092 0.78982 0.0
H335 H 0.89666 0.84804 0.76206 0.0
H336 H 0.95137 0.90643 0.74534 0.0
H337 H 0.8014 0.87568 0.78214 0.0
H338 H 0.92004 0.82339 0.8055 0.0
H339 H 0.9401 0.8749 0.7953 0.0
H340 H 0.91679 0.8208 0.78484 0.0
C341 C 0.93074 0.97435 0.77053 0.0
C342 C 0.94983 0.96246 0.7579 0.0
C343 C 0.89986 0.94101 0.78013 0.0
C344 C 0.88766 0.89529 0.77731 0.0
C345 C 0.90639 0.88327 0.76463 0.0
H346 H 0.69468 0.64768 0.82194 0.0
H347 H 0.74808 0.70262 0.80399 0.0
C348 C 0.9374 0.91661 0.75505 0.0
C349 C 0.85431 0.86011 0.7874 0.0
H350 H 0.84137 0.77887 0.81183 0.0
C351 C 0.81015 0.85459 0.78866 0.0
C352 C 0.86587 0.83261 0.79586 0.0
C353 C 0.91338 0.83838 0.79545 0.0
C354 C 0.77711 0.82208 0.79812 0.0
C355 C 0.78876 0.79478 0.8066 0.0
C356 C 0.83268 0.79989 0.80524 0.0
C357 C 0.75618 0.76165 0.81735 0.0
C358 C 0.72984 0.81681 0.79889 0.0
C359 C 0.74358 0.77689 0.83082 0.0
C360 C 0.71356 0.74575 0.84117 0.0
C361 C 0.69552 0.69872 0.83822 0.0
C362 C 0.70831 0.68364 0.82465 0.0
C363 C 0.73858 0.7149 0.81435 0.0
H364 H 0.72335 0.83333 0.78927 0.0
H365 H 0.703 0.78027 0.79858 0.0
H366 H 0.72655 0.83287 0.8099 0.0
H367 H 0.75749 0.81296 0.83343 0.0
H368 H 0.70522 0.7586 0.85164 0.0
H369 H 0.14789 0.97948 0.08187 0.0
H370 H 0.15505 0.92475 0.09723 0.0
H371 H 0.00788 0.84887 0.10218 0.0
H372 H 0.00041 0.90287 0.08664 0.0
H373 H 0.12934 0.90866 0.12708 0.0
H374 H 0.03698 0.74844 0.09135 0.0
H375 H 0.0559 0.80355 0.08377 0.0
H376 H 0.00336 0.77569 0.09441 0.0
C377 C 0.11703 0.95068 0.08602 0.0
C378 C 0.07358 0.94539 0.08308 0.0
C379 C 0.12118 0.91949 0.09478 0.0
C380 C 0.08197 0.88245 0.10066 0.0
C381 C 0.0385 0.8766 0.09744 0.0
H382 H 0.04117 0.74095 0.18256 0.0
H383 H 0.05056 0.79211 0.16227 0.0
C384 C 0.0343 0.90767 0.08866 0.0
C385 C 0.08655 0.85235 0.11134 0.0
H386 H 0.04642 0.74077 0.11828 0.0
C387 C 0.1118 0.872 0.12506 0.0
C388 C 0.06419 0.80462 0.10858 0.0
C389 C 0.03899 0.78186 0.09365 0.0
C390 C 0.11337 0.84497 0.13644 0.0
C391 C 0.08835 0.7971 0.13413 0.0
C392 C 0.06507 0.77752 0.12009 0.0
C393 C 0.08385 0.76673 0.14646 0.0
C394 C 0.14138 0.86792 0.15091 0.0
C395 C 0.09856 0.73487 0.14414 0.0
C396 C 0.09276 0.70522 0.15566 0.0
C397 C 0.0718 0.70675 0.16963 0.0
C398 C 0.0571 0.73872 0.17188 0.0
C399 C 0.06292 0.76831 0.16038 0.0
H400 H 0.16891 0.90331 0.14894 0.0
H401 H 0.11863 0.86953 0.15999 0.0
H402 H 0.15731 0.8487 0.15523 0.0
H403 H 0.1144 0.7329 0.1334 0.0
H404 H 0.10387 0.68052 0.15352 0.0
H405 H 0.09511 0.98819 0.42332 0.0
H406 H 0.1587 -0.00029 0.43975 0.0
H407 H 0.23399 0.14131 0.42906 0.0
H408 H 0.16999 0.13016 0.41265 0.0
H409 H 0.25255 0.03265 0.4329 0.0
H410 H 0.22699 0.14316 0.47668 0.0
H411 H 0.18439 0.10897 0.46206 0.0
H412 H 0.23492 0.16064 0.45714 0.0
C413 C 0.12527 0.02176 0.4244 0.0
C414 C 0.12751 0.05839 0.41682 0.0
C415 C 0.16158 0.02823 0.43375 0.0
C416 C 0.20069 0.07143 0.43573 0.0
C417 C 0.20373 0.10786 0.42782 0.0
H418 H 0.43981 0.10685 0.4876 0.0
H419 H 0.39243 0.11149 0.46739 0.0
C420 C 0.16731 0.1014 0.41843 0.0
C421 C 0.23731 0.07804 0.44652 0.0
H422 H 0.28511 0.1261 0.48176 0.0
C423 C 0.26016 0.05348 0.44351 0.0
C424 C 0.24659 0.1049 0.46039 0.0
C425 C 0.22181 0.13074 0.4644 0.0
C426 C 0.2914 0.05421 0.4542 0.0
C427 C 0.30028 0.08066 0.46815 0.0
C428 C 0.27826 0.10608 0.47099 0.0
C429 C 0.32965 0.0797 0.48043 0.0
C430 C 0.31314 0.02518 0.45082 0.0
C431 C 0.31012 0.06127 0.49453 0.0
C432 C 0.33706 0.0589 0.50611 0.0
C433 C 0.38408 0.07513 0.5038 0.0
C434 C 0.40373 0.09433 0.48974 0.0
C435 C 0.3767 0.09665 0.47815 0.0
H436 H 0.29615 0.00041 0.44093 0.0
H437 H 0.34981 0.04742 0.44797 0.0
H438 H 0.31164 0.0062 0.46106 0.0
H439 H 0.27385 0.04822 0.49651 0.0
H440 H 0.32112 0.04458 0.5169 0.0
H441 H 0.14235 0.2241 0.74001 0.0
H442 H 0.21034 0.28793 0.7527 0.0
H443 H 0.21494 0.19649 0.78441 0.0
H444 H 0.14744 0.13266 0.77179 0.0
H445 H 0.2269 0.32065 0.78465 0.0
H446 H 0.34314 0.25797 0.76404 0.0
H447 H 0.28696 0.23774 0.75565 0.0
H448 H 0.29278 0.21603 0.77343 0.0
C449 C 0.15764 0.21773 0.74978 0.0
C450 C 0.13986 0.17338 0.75485 0.0
C451 C 0.19644 0.25415 0.75697 0.0
C452 C 0.21804 0.24662 0.76925 0.0
C453 C 0.19921 0.20273 0.77473 0.0
H454 H 0.43058 0.378 0.83539 0.0
H455 H 0.36971 0.32817 0.81712 0.0
C456 C 0.16052 0.16639 0.76757 0.0
C457 C 0.26067 0.28426 0.77634 0.0
H458 H 0.37193 0.31564 0.7844 0.0
C459 C 0.25888 0.3201 0.78442 0.0
C460 C 0.30229 0.28342 0.77586 0.0
C461 C 0.3067 0.24697 0.76666 0.0
C462 C 0.29708 0.3538 0.79286 0.0
C463 C 0.33807 0.35173 0.79296 0.0
C464 C 0.34038 0.31699 0.78431 0.0
C465 C 0.37736 0.3825 0.80316 0.0
C466 C 0.29263 0.38999 0.80224 0.0
C467 C 0.40253 0.42949 0.80112 0.0
C468 C 0.43779 0.4582 0.81151 0.0
C469 C 0.44849 0.4402 0.82401 0.0
C470 C 0.42396 0.3929 0.8257 0.0
C471 C 0.38888 0.36437 0.81534 0.0
H472 H 0.25649 0.38246 0.80286 0.0
H473 H 0.30599 0.39343 0.81414 0.0
H474 H 0.31332 0.42321 0.79689 0.0
H475 H 0.39454 0.44397 0.79163 0.0
H476 H 0.4563 0.49446 0.80987 0.0
H477 H 0.93011 0.10678 0.71405 0.0
H478 H 0.87362 0.10635 0.69643 0.0
H479 H 0.91168 0.03837 0.66097 0.0
H480 H 0.96772 0.03808 0.67856 0.0
H481 H 0.88525 0.14274 0.66701 0.0
H482 H 0.77219 0.95483 0.66446 0.0
H483 H 0.81673 0.98462 0.67893 0.0
H484 H 0.83108 0.97406 0.65974 0.0
C485 C 0.92651 0.09186 0.70248 0.0
C486 C 0.95301 0.07213 0.6977 0.0
C487 C 0.89429 0.09168 0.69245 0.0
C488 C 0.888 0.07163 0.67752 0.0
C489 C 0.91539 0.05315 0.67256 0.0
H490 H 0.70565 0.02579 0.60095 0.0
H491 H 0.76476 0.03043 0.61826 0.0
C492 C 0.94753 0.05323 0.68259 0.0
C493 C 0.85251 0.06973 0.66715 0.0
H494 H 0.75385 0.99596 0.64744 0.0
C495 C 0.8564 0.1107 0.66276 0.0
C496 C 0.81498 0.02783 0.66167 0.0
C497 C 0.80809 0.98279 0.66653 0.0
C498 C 0.82411 0.11088 0.65274 0.0
C499 C 0.78662 0.06895 0.64724 0.0
C500 C 0.78271 0.02801 0.65167 0.0
C501 C 0.75103 0.06668 0.63682 0.0
C502 C 0.83095 0.15587 0.64787 0.0
C503 C 0.72335 0.08497 0.64164 0.0
C504 C 0.68946 0.08225 0.6318 0.0
C505 C 0.68242 0.0608 0.61703 0.0
C506 C 0.70989 0.04204 0.61233 0.0
C507 C 0.74382 0.04489 0.62215 0.0
H508 H 0.8669 0.1838 0.64986 0.0
H509 H 0.82209 0.15395 0.63548 0.0
H510 H 0.80812 0.16471 0.6547 0.0
H511 H 0.72767 0.10098 0.65306 0.0
H512 H 0.66837 0.0964 0.63582 0.0
H513 H 0.9109 0.96334 0.03706 0.0
H514 H 0.85998 0.92109 0.01505 0.0
H515 H 0.97776 0.95218 0.98684 0.0
H516 H 0.02871 0.99349 0.00881 0.0
H517 H 0.85359 0.94772 0.98565 0.0
H518 H 0.90267 0.81378 0.98262 0.0
H519 H 0.91731 0.85382 -0.0011 0.0
H520 H 0.95024 0.87063 0.98154 0.0
C521 C 0.92587 0.96118 0.02615 0.0
C522 C 0.97369 0.98121 0.02467 0.0
C523 C 0.89681 0.93716 0.01361 0.0
C524 C 0.91514 0.93289 -0.00058 0.0
C525 C 0.96292 0.95423 -0.00221 0.0
H526 H 0.78558 0.77554 0.91428 0.0
H527 H 0.84079 0.8328 0.93289 0.0
C528 C 0.99195 0.97793 0.01033 0.0
C529 C 0.88429 0.90533 0.98641 0.0
H530 H 0.8541 0.81123 0.96273 0.0
C531 C 0.85367 0.91789 0.98062 0.0
C532 C 0.88454 0.86644 0.9799 0.0
C533 C 0.91512 0.85002 0.98613 0.0
C534 C 0.82334 0.89261 0.9684 0.0
C535 C 0.82348 0.85364 0.96196 0.0
C536 C 0.85446 0.84143 0.96763 0.0
C537 C 0.78979 0.82312 0.95004 0.0
C538 C 0.79155 0.90786 0.96242 0.0
C539 C 0.74298 0.799 0.95354 0.0
C540 C 0.71153 0.76616 0.94302 0.0
C541 C 0.72634 0.75673 0.9288 0.0
C542 C 0.77318 0.78185 0.92516 0.0
C543 C 0.80468 0.81467 0.93573 0.0
H544 H 0.8041 0.94433 0.96556 0.0
H545 H 0.78764 0.90255 0.94969 0.0
H546 H 0.75715 0.8875 0.96755 0.0
H547 H 0.73098 0.80421 0.96468 0.0
H548 H 0.67591 0.74669 0.94636 0.0
H549 H 0.93144 0.87472 0.3808 0.0
H550 H 0.92822 0.80617 0.36879 0.0
H551 H 0.03939 0.88963 0.33895 0.0
H552 H 0.04291 0.95802 0.35082 0.0
H553 H 0.91881 0.77512 0.33574 0.0
H554 H 0.08339 0.81363 0.363 0.0
H555 H 0.0499 0.83882 0.37004 0.0
H556 H 0.08585 0.86063 0.35352 0.0
C557 C 0.95479 0.87835 0.37155 0.0
C558 C 0.98765 0.92169 0.3668 0.0
C559 C 0.95294 0.83924 0.36475 0.0
C560 C 0.98412 0.84311 0.35322 0.0
C561 C 0.01557 0.88616 0.34803 0.0
H562 H 0.06596 0.70707 0.28961 0.0
H563 H 0.05372 0.75633 0.30799 0.0
C564 C 0.01737 0.92513 0.35476 0.0
C565 C 0.98501 0.80259 0.3467 0.0
H566 H 0.05672 0.75926 0.34159 0.0
C567 C 0.94845 0.77095 0.33722 0.0
C568 C 0.02364 0.79729 0.34883 0.0
C569 C 0.06279 0.82913 0.35951 0.0
C570 C 0.951 0.73575 0.32892 0.0
C571 C 0.99089 0.73213 0.33035 0.0
C572 C 0.02625 0.76229 0.34051 0.0
C573 C -0.00085 0.70114 0.32003 0.0
C574 C 0.9124 0.70439 0.31797 0.0
C575 C 0.97297 0.65373 0.32094 0.0
C576 C 0.98025 0.62526 0.31051 0.0
C577 C 0.01393 0.64392 0.29909 0.0
C578 C 0.04056 0.69152 0.29849 0.0
C579 C 0.03335 0.71978 0.30889 0.0
H580 H 0.88628 0.71505 0.31692 0.0
H581 H 0.92612 0.70326 0.30636 0.0
H582 H 0.89519 0.66938 0.32218 0.0
H583 H 0.94675 0.63883 0.3296 0.0
H584 H 0.95937 0.58874 0.31129 0.0
H585 H 0.09331 0.96537 0.70246 0.0
H586 H 0.15191 0.95374 0.68914 0.0
H587 H 0.24918 0.09723 0.69516 0.0
H588 H 0.19087 0.10929 0.70819 0.0
H589 H 0.20533 0.01209 0.66104 0.0
H590 H 0.31106 0.01995 0.71105 0.0
H591 H 0.25065 0.00173 0.7126 0.0
H592 H 0.29191 0.06094 0.71116 0.0
C593 C 0.12728 0.99432 0.701 0.0
C594 C 0.13759 0.03825 0.70626 0.0
C595 C 0.1606 0.98762 0.69344 0.0
C596 C 0.20476 0.0246 0.69137 0.0
C597 C 0.21531 0.0683 0.69683 0.0
H598 H 0.45836 0.09737 0.64742 0.0
H599 H 0.39684 0.08709 0.66502 0.0
C600 C 0.18193 0.07512 0.70416 0.0
C601 C 0.23929 0.01858 0.68257 0.0
H602 H 0.34263 0.02359 0.68619 0.0
C603 C 0.23505 0.01384 0.66649 0.0
C604 C 0.27801 0.02145 0.68982 0.0
C605 C 0.28337 0.02604 0.70712 0.0
C606 C 0.26967 0.01375 0.65733 0.0
C607 C 0.30887 0.01717 0.66456 0.0
C608 C 0.31245 0.02073 0.68071 0.0
C609 C 0.34771 0.02019 0.65545 0.0
C610 C 0.265 0.01236 0.64002 0.0
C611 C 0.34104 0.98518 0.64471 0.0
C612 C 0.37581 0.99124 0.63448 0.0
C613 C 0.41819 0.03221 0.63497 0.0
C614 C 0.42588 0.06579 0.64655 0.0
C615 C 0.39088 0.05983 0.65669 0.0
H616 H 0.23856 0.02076 0.6365 0.0
H617 H 0.29815 0.03655 0.63476 0.0
H618 H 0.25455 0.97759 0.63525 0.0
H619 H 0.30823 0.95394 0.64379 0.0
H620 H 0.36842 0.96479 0.62564 0.0
H621 H 0.14157 0.20075 0.04371 0.0
H622 H 0.19982 0.26025 0.02812 0.0
H623 H 0.26413 0.17885 0.01946 0.0
H624 H 0.20669 0.1197 0.03532 0.0
H625 H 0.32699 0.27054 0.02542 0.0
H626 H 0.1977 0.24633 0.98125 0.0
H627 H 0.18573 0.25967 0.00039 0.0
H628 H 0.18501 0.20692 0.99623 0.0
C629 C 0.16836 0.19573 0.03858 0.0
C630 C 0.16941 0.15547 0.04058 0.0
C631 C 0.20143 0.22961 0.02963 0.0
C632 C 0.23564 0.22344 0.0224 0.0
C633 C 0.23782 0.18408 0.02489 0.0
H634 H 0.44186 0.35442 0.95359 0.0
H635 H 0.39331 0.30684 0.974 0.0
C636 C 0.20497 0.15034 0.03392 0.0
C637 C 0.26816 0.25713 0.01177 0.0
H638 H 0.27362 0.30588 0.97781 0.0
C639 C 0.3154 0.27837 0.01502 0.0
C640 C 0.2528 0.26701 -0.00182 0.0
C641 C 0.2026 0.24353 0.99369 0.0
C642 C 0.34779 0.30956 0.00505 0.0
C643 C 0.33236 0.31925 0.99147 0.0
C644 C 0.28517 0.29842 0.9883 0.0
C645 C 0.3645 0.3499 0.98007 0.0
C646 C 0.39816 0.33215 0.00915 0.0
C647 C 0.36402 0.38959 0.97671 0.0
C648 C 0.39171 0.41684 0.96509 0.0
C649 C 0.42004 0.4046 0.95654 0.0
C650 C 0.42089 0.36508 0.96011 0.0
C651 C 0.39324 0.3379 0.97176 0.0
H652 H 0.4037 0.32953 0.02155 0.0
H653 H 0.41396 0.31525 0.00226 0.0
H654 H 0.41617 0.36864 0.00643 0.0
H655 H 0.34188 0.39924 0.98299 0.0
H656 H 0.39082 0.44743 0.96278 0.0
H657 H 0.08342 0.16396 0.35786 0.0
H658 H 0.08199 0.21834 0.34069 0.0
H659 H 0.9357 0.1571 0.34657 0.0
H660 H 0.93674 0.1025 0.36374 0.0
H661 H 0.02488 0.19567 0.31241 0.0
H662 H 0.99124 0.29713 0.35758 0.0
H663 H 0.01439 0.26108 0.36205 0.0
H664 H 0.95455 0.23632 0.35737 0.0
C665 C 0.05096 0.16209 0.3555 0.0
C666 C 0.0102 0.12911 0.36216 0.0
C667 C 0.05022 0.1931 0.3457 0.0
C668 C 0.00884 0.19189 0.34254 0.0
C669 C 0.96803 0.15881 0.34906 0.0
H670 H 0.94465 0.36376 0.28931 0.0
H671 H 0.94127 0.306 0.30591 0.0
C672 C 0.96868 0.1276 0.35879 0.0
C673 C 0.00835 0.22498 0.33225 0.0
H674 H 0.99275 0.31676 0.33181 0.0
C675 C 0.0179 0.2222 0.31661 0.0
C676 C -0.00106 0.25923 0.33783 0.0
C677 C 0.98947 0.26407 0.35464 0.0
C678 C 0.01797 0.25274 0.3063 0.0
C679 C 0.00936 0.28758 0.31192 0.0
C680 C -0.00062 0.29004 0.32756 0.0
C681 C 0.01138 0.32232 0.3018 0.0
C682 C 0.02647 0.24689 0.28946 0.0
C683 C 0.0521 0.35099 0.29418 0.0
C684 C 0.054 0.38363 0.28458 0.0
C685 C 0.01534 0.38862 0.28256 0.0
C686 C 0.9748 0.36033 0.29044 0.0
C687 C 0.97289 0.32754 0.3 0.0
H688 H 0.01904 0.21169 0.28639 0.0
H689 H 0.0051 0.25482 0.282 0.0
H690 H 0.06312 0.27048 0.28695 0.0
H691 H 0.0825 0.34817 0.29567 0.0
H692 H 0.08562 0.4045 0.27857 0.0
loop_
_geom_bond_atom_site_label_1
_geom_bond_atom_site_label_2
_geom_bond_distance
_geom_bond_site_symmetry_2
_ccdc_geom_bond_type
In0 O1 2.294 . S
In0 O2 2.326 . S
In0 O6 2.266 1_455 S
In0 O7 2.326 1_545 S
In0 O8 2.266 . S
In0 O9 2.326 1_545 S
In0 O11 2.294 . S
In0 O12 2.326 . S
O1 In0 2.294 . S
O1 C10 1.240 . S
O2 In0 2.326 . S
O2 C10 1.252 . S
C3 O6 1.252 1_465 S
C3 O7 1.260 . S
C4 O11 1.240 . S
C4 O12 1.252 . S
C5 O8 1.252 1_565 S
C5 O9 1.260 . S
O6 In0 2.266 1_655 S
O6 C3 1.252 1_645 S
O7 In0 2.326 1_565 S
O7 C3 1.260 . S
O8 In0 2.266 . S
O8 C5 1.252 1_545 S
O9 In0 2.326 1_565 S
O9 C5 1.260 . S
C10 O1 1.240 . S
C10 O2 1.252 . S
O11 In0 2.294 . S
O11 C4 1.240 . S
O12 In0 2.326 . S
O12 C4 1.252 . S
In13 O14 2.294 . S
In13 O15 2.326 1_455 S
In13 O19 2.266 . S
In13 O20 2.326 1_545 S
In13 O21 2.266 1_445 S
In13 O22 2.326 . S
In13 O24 2.294 1_455 S
In13 O25 2.326 . S
O14 In13 2.294 . S
O14 C23 1.240 . S
O15 In13 2.326 1_655 S
O15 C23 1.252 1_655 S
C16 O19 1.252 . S
C16 O20 1.260 1_545 S
C17 O24 1.240 . S
C17 O25 1.252 1_655 S
C18 O21 1.252 1_455 S
C18 O22 1.260 1_565 S
O19 In13 2.266 . S
O19 C16 1.252 . S
O20 In13 2.326 1_565 S
O20 C16 1.260 1_565 S
O21 In13 2.266 1_665 S
O21 C18 1.252 1_655 S
O22 In13 2.326 . S
O22 C18 1.260 1_545 S
C23 O14 1.240 . S
C23 O15 1.252 1_455 S
O24 In13 2.294 1_655 S
O24 C17 1.240 . S
O25 In13 2.326 . S
O25 C17 1.252 1_455 S
In26 O27 2.294 1_545 S
In26 O28 2.326 . S
In26 O32 2.266 . S
In26 O33 2.326 . S
In26 O34 2.266 . S
In26 O35 2.326 . S
In26 O37 2.294 . S
In26 O38 2.326 . S
O27 In26 2.294 1_565 S
O27 C36 1.240 1_565 S
O28 In26 2.326 . S
O28 C36 1.252 . S
C29 O32 1.252 . S
C29 O33 1.260 . S
C30 O37 1.240 . S
C30 O38 1.252 . S
C31 O34 1.252 . S
C31 O35 1.260 . S
O32 In26 2.266 . S
O32 C29 1.252 . S
O33 In26 2.326 . S
O33 C29 1.260 . S
O34 In26 2.266 . S
O34 C31 1.252 . S
O35 In26 2.326 . S
O35 C31 1.260 . S
C36 O27 1.240 1_545 S
C36 O28 1.252 . S
O37 In26 2.294 . S
O37 C30 1.240 . S
O38 In26 2.326 . S
O38 C30 1.252 . S
H39 O65 0.856 . S
H40 O68 0.854 . S
H41 C76 0.930 . S
H42 C77 0.930 . S
H43 C79 0.930 . S
H44 C80 0.930 . S
H45 C82 0.931 1_655 S
H46 C83 0.930 1_655 S
H47 C85 0.930 . S
H48 C86 0.929 . S
H49 C88 0.930 1_655 S
H50 C89 0.931 1_655 S
H51 C91 0.930 . S
H52 C92 0.929 . S
H53 C94 0.931 1_655 S
H54 C95 0.930 1_655 S
H55 C97 0.930 . S
H56 C98 0.932 . S
H57 C100 0.930 . S
H58 C101 0.929 . S
H59 C103 0.931 . S
H60 C104 0.930 . S
H61 C106 0.908 1_655 S
H62 C107 0.931 1_655 S
H63 C109 0.930 . S
H64 C110 0.929 . S
O65 H39 0.856 . S
O65 C111 1.300 . S
O66 C111 1.209 . S
O67 C112 1.199 . S
O68 H40 0.854 . S
O68 C112 1.297 . S
C69 C70 1.404 . S
C69 C74 1.397 . S
C69 C75 1.492 . S
C70 C69 1.404 . S
C70 C71 1.396 . S
C70 C81 1.492 . S
C71 C70 1.396 . S
C71 C72 1.397 . S
C71 C87 1.509 . S
C72 C71 1.397 . S
C72 C73 1.412 . S
C72 C93 1.485 . S
C73 C72 1.412 . S
C73 C74 1.388 . S
C73 C99 1.490 . S
C74 C69 1.397 . S
C74 C73 1.388 . S
C74 C105 1.519 . S
C75 C69 1.492 . S
C75 C76 1.363 1_455 S
C75 C80 1.390 . S
C76 H41 0.930 . S
C76 C75 1.363 1_655 S
C76 C77 1.372 . S
C77 H42 0.930 . S
C77 C76 1.372 . S
C77 C78 1.383 1_655 S
C78 C77 1.383 1_455 S
C78 C79 1.395 . S
C79 H43 0.930 . S
C79 C78 1.395 . S
C79 C80 1.362 . S
C80 H44 0.930 . S
C80 C75 1.390 . S
C80 C79 1.362 . S
C81 C70 1.492 . S
C81 C82 1.377 . S
C81 C86 1.397 . S
C82 H45 0.931 1_455 S
C82 C81 1.377 . S
C82 C83 1.376 . S
C83 H46 0.930 1_455 S
C83 C82 1.376 . S
C83 C84 1.376 . S
C84 C83 1.376 . S
C84 C85 1.378 . S
C84 C111 1.486 . S
C85 H47 0.930 . S
C85 C84 1.378 . S
C85 C86 1.376 . S
C86 H48 0.929 . S
C86 C81 1.397 . S
C86 C85 1.376 . S
C87 C71 1.509 . S
C87 C88 1.391 . S
C87 C92 1.386 . S
C88 H49 0.930 1_455 S
C88 C87 1.391 . S
C88 C89 1.375 . S
C89 H50 0.931 1_455 S
C89 C88 1.375 . S
C89 C90 1.375 . S
C90 C89 1.375 . S
C90 C91 1.361 . S
C91 H51 0.930 . S
C91 C90 1.361 . S
C91 C92 1.399 . S
C92 H52 0.929 . S
C92 C87 1.386 . S
C92 C91 1.399 . S
C93 C72 1.485 . S
C93 C94 1.394 . S
C93 C98 1.360 . S
C94 H53 0.931 1_455 S
C94 C93 1.394 . S
C94 C95 1.372 . S
C95 H54 0.930 1_455 S
C95 C94 1.372 . S
C95 C96 1.397 . S
C96 C95 1.397 . S
C96 C97 1.390 . S
C96 C112 1.476 . S
C97 H55 0.930 . S
C97 C96 1.390 . S
C97 C98 1.366 . S
C98 H56 0.932 . S
C98 C93 1.360 . S
C98 C97 1.366 . S
C99 C73 1.490 . S
C99 C100 1.380 1_455 S
C99 C104 1.386 . S
C100 H57 0.930 . S
C100 C99 1.380 1_655 S
C100 C101 1.381 . S
C101 H58 0.929 . S
C101 C100 1.381 . S
C101 C102 1.371 1_655 S
C102 C101 1.371 1_455 S
C102 C103 1.380 . S
C103 H59 0.931 . S
C103 C102 1.380 . S
C103 C104 1.387 . S
C104 H60 0.930 . S
C104 C99 1.386 . S
C104 C103 1.387 . S
C105 C74 1.519 . S
C105 C106 1.387 . S
C105 C110 1.361 . S
C106 H61 0.908 1_455 S
C106 C105 1.387 . S
C106 C107 1.398 . S
C107 H62 0.931 1_455 S
C107 C106 1.398 . S
C107 C108 1.363 . S
C108 C107 1.363 . S
C108 C109 1.385 . S
C109 H63 0.930 . S
C109 C108 1.385 . S
C109 C110 1.396 . S
C110 H64 0.929 . S
C110 C105 1.361 . S
C110 C109 1.396 . S
C111 O65 1.300 . S
C111 O66 1.209 . S
C111 C84 1.486 . S
C112 O67 1.199 . S
C112 O68 1.297 . S
C112 C96 1.476 . S
H113 O139 0.856 . S
H114 O142 0.854 . S
H115 C150 0.930 1_565 S
H116 C151 0.930 1_565 S
H117 C153 0.930 . S
H118 C154 0.930 . S
H119 C156 0.931 . S
H120 C157 0.930 . S
H121 C159 0.930 . S
H122 C160 0.929 . S
H123 C162 0.930 . S
H124 C163 0.931 . S
H125 C165 0.930 . S
H126 C166 0.929 . S
H127 C168 0.931 . S
H128 C169 0.930 . S
H129 C171 0.930 . S
H130 C172 0.932 . S
H131 C174 0.930 1_565 S
H132 C175 0.929 1_565 S
H133 C177 0.931 . S
H134 C178 0.930 . S
H135 C180 0.929 1_565 S
H136 C181 0.931 . S
H137 C183 0.930 . S
H138 C184 0.929 . S
O139 H113 0.856 . S
O139 C185 1.300 . S
O140 C185 1.209 . S
O141 C186 1.199 . S
O142 H114 0.854 . S
O142 C186 1.297 . S
C143 C144 1.404 . S
C143 C148 1.397 . S
C143 C149 1.492 . S
C144 C143 1.404 . S
C144 C145 1.396 . S
C144 C155 1.492 . S
C145 C144 1.396 . S
C145 C146 1.397 . S
C145 C161 1.509 . S
C146 C145 1.397 . S
C146 C147 1.412 . S
C146 C167 1.485 . S
C147 C146 1.412 . S
C147 C148 1.388 . S
C147 C173 1.490 . S
C148 C143 1.397 . S
C148 C147 1.388 . S
C148 C179 1.519 . S
C149 C143 1.492 . S
C149 C150 1.363 . S
C149 C154 1.390 . S
C150 H115 0.930 1_545 S
C150 C149 1.363 . S
C150 C151 1.372 . S
C151 H116 0.930 1_545 S
C151 C150 1.372 . S
C151 C152 1.383 . S
C152 C151 1.383 . S
C152 C153 1.395 . S
C153 H117 0.930 . S
C153 C152 1.395 . S
C153 C154 1.362 . S
C154 H118 0.930 . S
C154 C149 1.390 . S
C154 C153 1.362 . S
C155 C144 1.492 . S
C155 C156 1.377 . S
C155 C160 1.397 . S
C156 H119 0.931 . S
C156 C155 1.377 . S
C156 C157 1.376 . S
C157 H120 0.930 . S
C157 C156 1.376 . S
C157 C158 1.376 . S
C158 C157 1.376 . S
C158 C159 1.378 . S
C158 C185 1.486 . S
C159 H121 0.930 . S
C159 C158 1.378 . S
C159 C160 1.376 . S
C160 H122 0.929 . S
C160 C155 1.397 . S
C160 C159 1.376 . S
C161 C145 1.509 . S
C161 C162 1.391 . S
C161 C166 1.386 . S
C162 H123 0.930 . S
C162 C161 1.391 . S
C162 C163 1.375 . S
C163 H124 0.931 . S
C163 C162 1.375 . S
C163 C164 1.375 . S
C164 C163 1.375 . S
C164 C165 1.361 . S
C165 H125 0.930 . S
C165 C164 1.361 . S
C165 C166 1.399 . S
C166 H126 0.929 . S
C166 C161 1.386 . S
C166 C165 1.399 . S
C167 C146 1.485 . S
C167 C168 1.394 . S
C167 C172 1.360 . S
C168 H127 0.931 . S
C168 C167 1.394 . S
C168 C169 1.372 . S
C169 H128 0.930 . S
C169 C168 1.372 . S
C169 C170 1.397 . S
C170 C169 1.397 . S
C170 C171 1.390 . S
C170 C186 1.476 . S
C171 H129 0.930 . S
C171 C170 1.390 . S
C171 C172 1.366 . S
C172 H130 0.932 . S
C172 C167 1.360 . S
C172 C171 1.366 . S
C173 C147 1.490 . S
C173 C174 1.380 . S
C173 C178 1.386 . S
C174 H131 0.930 1_545 S
C174 C173 1.380 . S
C174 C175 1.381 . S
C175 H132 0.929 1_545 S
C175 C174 1.381 . S
C175 C176 1.371 . S
C176 C175 1.371 . S
C176 C177 1.380 . S
C177 H133 0.931 . S
C177 C176 1.380 . S
C177 C178 1.387 . S
C178 H134 0.930 . S
C178 C173 1.386 . S
C178 C177 1.387 . S
C179 C148 1.519 . S
C179 C180 1.377 . S
C179 C184 1.361 . S
C180 H135 0.929 1_545 S
C180 C179 1.377 . S
C180 C181 1.386 . S
C181 H136 0.931 . S
C181 C180 1.386 . S
C181 C182 1.363 . S
C182 C181 1.363 . S
C182 C183 1.385 . S
C183 H137 0.930 . S
C183 C182 1.385 . S
C183 C184 1.396 . S
C184 H138 0.929 . S
C184 C179 1.361 . S
C184 C183 1.396 . S
C185 O139 1.300 . S
C185 O140 1.209 . S
C185 C158 1.486 . S
C186 O141 1.199 . S
C186 O142 1.297 . S
C186 C170 1.476 . S
H187 O213 0.903 . S
H188 O216 0.854 . S
H189 C224 0.930 . S
H190 C225 0.930 . S
H191 C227 0.930 . S
H192 C228 0.930 . S
H193 C230 0.931 . S
H194 C231 0.930 . S
H195 C233 0.930 . S
H196 C234 0.929 . S
H197 C236 0.930 . S
H198 C237 0.931 . S
H199 C239 0.930 . S
H200 C240 0.929 . S
H201 C242 0.931 . S
H202 C243 0.930 . S
H203 C245 0.930 . S
H204 C246 0.932 . S
H205 C248 0.930 . S
H206 C249 0.929 . S
H207 C251 0.931 . S
H208 C252 0.930 . S
H209 C254 0.929 . S
H210 C255 0.931 . S
H211 C257 0.930 . S
H212 C258 0.929 . S
O213 H187 0.903 . S
O213 C259 1.270 1_554 S
O214 C259 1.209 . S
O215 C260 1.199 . S
O216 H188 0.854 . S
O216 C260 1.297 . S
C217 C218 1.404 . S
C217 C222 1.397 . S
C217 C223 1.492 . S
C218 C217 1.404 . S
C218 C219 1.396 . S
C218 C229 1.492 . S
C219 C218 1.396 . S
C219 C220 1.397 . S
C219 C235 1.509 . S
C220 C219 1.397 . S
C220 C221 1.412 . S
C220 C241 1.485 . S
C221 C220 1.412 . S
C221 C222 1.388 . S
C221 C247 1.490 . S
C222 C217 1.397 . S
C222 C221 1.388 . S
C222 C253 1.519 . S
C223 C217 1.492 . S
C223 C224 1.363 . S
C223 C228 1.390 . S
C224 H189 0.930 . S
C224 C223 1.363 . S
C224 C225 1.372 . S
C225 H190 0.930 . S
C225 C224 1.372 . S
C225 C226 1.383 . S
C226 C225 1.383 . S
C226 C227 1.395 . S
C227 H191 0.930 . S
C227 C226 1.395 . S
C227 C228 1.362 . S
C228 H192 0.930 . S
C228 C223 1.390 . S
C228 C227 1.362 . S
C229 C218 1.492 . S
C229 C230 1.377 . S
C229 C234 1.397 . S
C230 H193 0.931 . S
C230 C229 1.377 . S
C230 C231 1.376 . S
C231 H194 0.930 . S
C231 C230 1.376 . S
C231 C232 1.376 . S
C232 C231 1.376 . S
C232 C233 1.378 . S
C232 C259 1.486 . S
C233 H195 0.930 . S
C233 C232 1.378 . S
C233 C234 1.376 . S
C234 H196 0.929 . S
C234 C229 1.397 . S
C234 C233 1.376 . S
C235 C219 1.509 . S
C235 C236 1.391 . S
C235 C240 1.386 . S
C236 H197 0.930 . S
C236 C235 1.391 . S
C236 C237 1.375 . S
C237 H198 0.931 . S
C237 C236 1.375 . S
C237 C238 1.375 . S
C238 C237 1.375 . S
C238 C239 1.361 . S
C239 H199 0.930 . S
C239 C238 1.361 . S
C239 C240 1.399 . S
C240 H200 0.929 . S
C240 C235 1.386 . S
C240 C239 1.399 . S
C241 C220 1.485 . S
C241 C242 1.394 . S
C241 C246 1.360 . S
C242 H201 0.931 . S
C242 C241 1.394 . S
C242 C243 1.372 . S
C243 H202 0.930 . S
C243 C242 1.372 . S
C243 C244 1.397 . S
C244 C243 1.397 . S
C244 C245 1.390 . S
C244 C260 1.476 . S
C245 H203 0.930 . S
C245 C244 1.390 . S
C245 C246 1.366 . S
C246 H204 0.932 . S
C246 C241 1.360 . S
C246 C245 1.366 . S
C247 C221 1.490 . S
C247 C248 1.380 . S
C247 C252 1.386 . S
C248 H205 0.930 . S
C248 C247 1.380 . S
C248 C249 1.381 . S
C249 H206 0.929 . S
C249 C248 1.381 . S
C249 C250 1.371 . S
C250 C249 1.371 . S
C250 C251 1.380 . S
C251 H207 0.931 . S
C251 C250 1.380 . S
C251 C252 1.387 . S
C252 H208 0.930 . S
C252 C247 1.386 . S
C252 C251 1.387 . S
C253 C222 1.519 . S
C253 C254 1.377 . S
C253 C258 1.361 . S
C254 H209 0.929 . S
C254 C253 1.377 . S
C254 C255 1.386 . S
C255 H210 0.931 . S
C255 C254 1.386 . S
C255 C256 1.363 . S
C256 C255 1.363 . S
C256 C257 1.385 . S
C257 H211 0.930 . S
C257 C256 1.385 . S
C257 C258 1.396 . S
C258 H212 0.929 . S
C258 C253 1.361 . S
C258 C257 1.396 . S
C259 O213 1.270 1_556 S
C259 O214 1.209 . S
C259 C232 1.486 . S
C260 O215 1.199 . S
C260 O216 1.297 . S
C260 C244 1.476 . S
H261 C269 0.929 . S
H262 C271 0.930 . S
H263 C273 0.930 . S
H264 C276 0.929 . S
H265 C279 0.930 . S
H266 C281 0.960 . S
H267 C281 0.960 . S
H268 C281 0.960 . S
C269 H261 0.929 . S
C269 C270 1.377 . S
C269 C271 1.384 . S
C270 C269 1.377 . S
C270 C276 1.390 . S
C271 H262 0.930 . S
C271 C269 1.384 . S
C271 C272 1.372 . S
C272 C271 1.372 . S
C272 C273 1.400 . S
C272 C277 1.490 . S
C273 H263 0.930 . S
C273 C272 1.400 . S
C273 C276 1.386 . S
H274 C290 0.930 . S
H275 C291 0.931 . S
C276 H264 0.929 . S
C276 C270 1.390 . S
C276 C273 1.386 . S
C277 C272 1.490 . S
C277 C279 1.395 . S
C277 C280 1.403 . S
H278 C284 0.930 . S
C279 H265 0.930 . S
C279 C277 1.395 . S
C279 C282 1.403 . S
C280 C277 1.403 . S
C280 C281 1.524 . S
C280 C284 1.400 . S
C281 H266 0.960 . S
C281 H267 0.960 . S
C281 H268 0.960 . S
C281 C280 1.524 . S
C282 C279 1.403 . S
C282 C283 1.392 . S
C282 C286 1.495 . S
C283 C282 1.392 . S
C283 C284 1.385 . S
C283 C285 1.478 . S
C284 H278 0.930 . S
C284 C280 1.400 . S
C284 C283 1.385 . S
C285 C283 1.478 . S
C285 C287 1.370 1_455 S
C285 C291 1.383 . S
C286 C282 1.495 . S
C286 H292 0.959 . S
C286 H293 0.961 . S
C286 H294 0.960 . S
C287 C285 1.370 1_655 S
C287 C288 1.402 . S
C287 H295 0.933 . S
C288 C287 1.402 . S
C288 C289 1.383 1_655 S
C288 H296 0.929 . S
C289 C288 1.383 1_455 S
C289 C290 1.377 . S
C290 H274 0.930 . S
C290 C289 1.377 . S
C290 C291 1.379 . S
C291 H275 0.931 . S
C291 C285 1.383 . S
C291 C290 1.379 . S
H292 C286 0.959 . S
H293 C286 0.961 . S
H294 C286 0.960 . S
H295 C287 0.933 . S
H296 C288 0.929 . S
H297 C305 0.917 1_565 S
H298 C307 0.942 . S
H299 C309 0.930 . S
H300 C312 0.929 . S
H301 C315 0.930 1_565 S
H302 C317 0.960 . S
H303 C317 0.960 . S
H304 C317 0.960 . S
C305 H297 0.917 1_545 S
C305 C306 1.385 . S
C305 C307 1.396 1_545 S
C306 C305 1.385 . S
C306 C312 1.390 . S
C307 H298 0.942 . S
C307 C305 1.396 1_565 S
C307 C308 1.353 1_565 S
C308 C307 1.353 1_545 S
C308 C309 1.400 . S
C308 C313 1.490 . S
C309 H299 0.930 . S
C309 C308 1.400 . S
C309 C312 1.386 . S
H310 C326 0.930 . S
H311 C327 0.931 . S
C312 H300 0.929 . S
C312 C306 1.390 . S
C312 C309 1.386 . S
C313 C308 1.490 . S
C313 C315 1.394 . S
C313 C316 1.403 . S
H314 C320 0.930 . S
C315 H301 0.930 1_545 S
C315 C313 1.394 . S
C315 C318 1.403 1_545 S
C316 C313 1.403 . S
C316 C317 1.524 . S
C316 C320 1.400 . S
C317 H302 0.960 . S
C317 H303 0.960 . S
C317 H304 0.960 . S
C317 C316 1.524 . S
C318 C315 1.403 1_565 S
C318 C319 1.392 1_565 S
C318 C322 1.495 . S
C319 C318 1.392 1_545 S
C319 C320 1.385 . S
C319 C321 1.478 . S
C320 H314 0.930 . S
C320 C316 1.400 . S
C320 C319 1.385 . S
C321 C319 1.478 . S
C321 C323 1.381 1_545 S
C321 C327 1.383 . S
C322 C318 1.495 . S
C322 H328 0.959 . S
C322 H329 0.961 . S
C322 H330 0.960 . S
C323 C321 1.381 1_565 S
C323 C324 1.394 . S
C323 H331 0.930 . S
C324 C323 1.394 . S
C324 C325 1.383 1_565 S
C324 H332 0.929 . S
C325 C324 1.383 1_545 S
C325 C326 1.377 . S
C326 H310 0.930 . S
C326 C325 1.377 . S
C326 C327 1.379 . S
C327 H311 0.931 . S
C327 C321 1.383 . S
C327 C326 1.379 . S
H328 C322 0.959 . S
H329 C322 0.961 . S
H330 C322 0.960 . S
H331 C323 0.930 . S
H332 C324 0.929 . S
H333 C341 0.954 . S
H334 C343 0.930 . S
H335 C345 0.930 . S
H336 C348 0.929 . S
H337 C351 0.930 . S
H338 C353 0.960 . S
H339 C353 0.960 . S
H340 C353 0.960 . S
C341 H333 0.954 . S
C341 C342 1.377 . S
C341 C343 1.384 . S
C342 C341 1.377 . S
C342 C348 1.390 . S
C343 H334 0.930 . S
C343 C341 1.384 . S
C343 C344 1.372 . S
C344 C343 1.372 . S
C344 C345 1.400 . S
C344 C349 1.490 . S
C345 H335 0.930 . S
C345 C344 1.400 . S
C345 C348 1.386 . S
H346 C362 0.930 . S
H347 C363 0.931 . S
C348 H336 0.929 . S
C348 C342 1.390 . S
C348 C345 1.386 . S
C349 C344 1.490 . S
C349 C351 1.395 . S
C349 C352 1.403 . S
H350 C356 0.930 . S
C351 H337 0.930 . S
C351 C349 1.395 . S
C351 C354 1.403 . S
C352 C349 1.403 . S
C352 C353 1.524 . S
C352 C356 1.400 . S
C353 H338 0.960 . S
C353 H339 0.960 . S
C353 H340 0.960 . S
C353 C352 1.524 . S
C354 C351 1.403 . S
C354 C355 1.392 . S
C354 C358 1.495 . S
C355 C354 1.392 . S
C355 C356 1.385 . S
C355 C357 1.478 . S
C356 H350 0.930 . S
C356 C352 1.400 . S
C356 C355 1.385 . S
C357 C355 1.478 . S
C357 C359 1.381 . S
C357 C363 1.383 . S
C358 C354 1.495 . S
C358 H364 0.959 . S
C358 H365 0.961 . S
C358 H366 0.960 . S
C359 C357 1.381 . S
C359 C360 1.394 . S
C359 H367 0.930 . S
C360 C359 1.394 . S
C360 C361 1.383 . S
C360 H368 0.929 . S
C361 C360 1.383 . S
C361 C362 1.377 . S
C362 H346 0.930 . S
C362 C361 1.377 . S
C362 C363 1.379 . S
C363 H347 0.931 . S
C363 C357 1.383 . S
C363 C362 1.379 . S
H364 C358 0.959 . S
H365 C358 0.961 . S
H366 C358 0.960 . S
H367 C359 0.930 . S
H368 C360 0.929 . S
H369 C377 0.929 . S
H370 C379 0.930 . S
H371 C381 0.930 1_655 S
H372 C384 0.929 1_655 S
H373 C387 0.930 . S
H374 C389 0.960 . S
H375 C389 0.960 . S
H376 C389 0.960 1_655 S
C377 H369 0.929 . S
C377 C378 1.377 . S
C377 C379 1.384 . S
C378 C377 1.377 . S
C378 C384 1.390 . S
C379 H370 0.930 . S
C379 C377 1.384 . S
C379 C380 1.372 . S
C380 C379 1.372 . S
C380 C381 1.400 . S
C380 C385 1.490 . S
C381 H371 0.930 1_455 S
C381 C380 1.400 . S
C381 C384 1.386 . S
H382 C398 0.930 . S
H383 C399 0.931 . S
C384 H372 0.929 1_455 S
C384 C378 1.390 . S
C384 C381 1.386 . S
C385 C380 1.490 . S
C385 C387 1.395 . S
C385 C388 1.403 . S
H386 C392 0.930 . S
C387 H373 0.930 . S
C387 C385 1.395 . S
C387 C390 1.403 . S
C388 C385 1.403 . S
C388 C389 1.524 . S
C388 C392 1.400 . S
C389 H374 0.960 . S
C389 H375 0.960 . S
C389 H376 0.960 1_455 S
C389 C388 1.524 . S
C390 C387 1.403 . S
C390 C391 1.392 . S
C390 C394 1.495 . S
C391 C390 1.392 . S
C391 C392 1.385 . S
C391 C393 1.478 . S
C392 H386 0.930 . S
C392 C388 1.400 . S
C392 C391 1.385 . S
C393 C391 1.478 . S
C393 C395 1.381 . S
C393 C399 1.383 . S
C394 C390 1.495 . S
C394 H400 0.959 . S
C394 H401 0.961 . S
C394 H402 0.960 . S
C395 C393 1.381 . S
C395 C396 1.394 . S
C395 H403 0.930 . S
C396 C395 1.394 . S
C396 C397 1.383 . S
C396 H404 0.929 . S
C397 C396 1.383 . S
C397 C398 1.377 . S
C398 H382 0.930 . S
C398 C397 1.377 . S
C398 C399 1.379 . S
C399 H383 0.931 . S
C399 C393 1.383 . S
C399 C398 1.379 . S
H400 C394 0.959 . S
H401 C394 0.961 . S
H402 C394 0.960 . S
H403 C395 0.930 . S
H404 C396 0.929 . S
H405 C413 0.929 . S
H406 C415 0.930 1_565 S
H407 C417 0.930 . S
H408 C420 0.929 . S
H409 C423 0.930 1_565 S
H410 C425 0.960 . S
H411 C425 0.960 . S
H412 C425 0.960 . S
C413 H405 0.929 . S
C413 C414 1.377 1_565 S
C413 C415 1.384 1_565 S
C414 C413 1.377 1_545 S
C414 C420 1.390 . S
C415 H406 0.930 1_545 S
C415 C413 1.384 1_545 S
C415 C416 1.372 . S
C416 C415 1.372 . S
C416 C417 1.400 . S
C416 C421 1.490 . S
C417 H407 0.930 . S
C417 C416 1.400 . S
C417 C420 1.386 . S
H418 C434 0.930 . S
H419 C435 0.931 . S
C420 H408 0.929 . S
C420 C414 1.390 . S
C420 C417 1.386 . S
C421 C416 1.490 . S
C421 C423 1.395 . S
C421 C424 1.403 . S
H422 C428 0.930 . S
C423 H409 0.930 1_545 S
C423 C421 1.395 . S
C423 C426 1.403 . S
C424 C421 1.403 . S
C424 C425 1.524 . S
C424 C428 1.400 . S
C425 H410 0.960 . S
C425 H411 0.960 . S
C425 H412 0.960 . S
C425 C424 1.524 . S
C426 C423 1.403 . S
C426 C427 1.392 . S
C426 C430 1.495 1_545 S
C427 C426 1.392 . S
C427 C428 1.385 . S
C427 C429 1.478 . S
C428 H422 0.930 . S
C428 C424 1.400 . S
C428 C427 1.385 . S
C429 C427 1.478 . S
C429 C431 1.381 . S
C429 C435 1.383 . S
C430 C426 1.495 1_565 S
C430 H436 0.959 . S
C430 H437 0.961 . S
C430 H438 0.960 . S
C431 C429 1.381 . S
C431 C432 1.394 . S
C431 H439 0.930 . S
C432 C431 1.394 . S
C432 C433 1.383 . S
C432 H440 0.929 . S
C433 C432 1.383 . S
C433 C434 1.377 . S
C434 H418 0.930 . S
C434 C433 1.377 . S
C434 C435 1.379 . S
C435 H419 0.931 . S
C435 C429 1.383 . S
C435 C434 1.379 . S
H436 C430 0.959 . S
H437 C430 0.961 . S
H438 C430 0.960 . S
H439 C431 0.930 . S
H440 C432 0.929 . S
H441 C449 0.929 . S
H442 C451 0.930 . S
H443 C453 0.930 . S
H444 C456 0.929 . S
H445 C459 0.930 . S
H446 C461 0.960 . S
H447 C461 0.960 . S
H448 C461 0.960 . S
C449 H441 0.929 . S
C449 C450 1.377 . S
C449 C451 1.384 . S
C450 C449 1.377 . S
C450 C456 1.390 . S
C451 H442 0.930 . S
C451 C449 1.384 . S
C451 C452 1.372 . S
C452 C451 1.372 . S
C452 C453 1.400 . S
C452 C457 1.490 . S
C453 H443 0.930 . S
C453 C452 1.400 . S
C453 C456 1.386 . S
H454 C470 0.930 . S
H455 C471 0.931 . S
C456 H444 0.929 . S
C456 C450 1.390 . S
C456 C453 1.386 . S
C457 C452 1.490 . S
C457 C459 1.395 . S
C457 C460 1.403 . S
H458 C464 0.930 . S
C459 H445 0.930 . S
C459 C457 1.395 . S
C459 C462 1.403 . S
C460 C457 1.403 . S
C460 C461 1.524 . S
C460 C464 1.400 . S
C461 H446 0.960 . S
C461 H447 0.960 . S
C461 H448 0.960 . S
C461 C460 1.524 . S
C462 C459 1.403 . S
C462 C463 1.392 . S
C462 C466 1.495 . S
C463 C462 1.392 . S
C463 C464 1.385 . S
C463 C465 1.478 . S
C464 H458 0.930 . S
C464 C460 1.400 . S
C464 C463 1.385 . S
C465 C463 1.478 . S
C465 C467 1.381 . S
C465 C471 1.383 . S
C466 C462 1.495 . S
C466 H472 0.959 . S
C466 H473 0.961 . S
C466 H474 0.960 . S
C467 C465 1.381 . S
C467 C468 1.394 . S
C467 H475 0.930 . S
C468 C467 1.394 . S
C468 C469 1.383 . S
C468 H476 0.929 . S
C469 C468 1.383 . S
C469 C470 1.377 . S
C470 H454 0.930 . S
C470 C469 1.377 . S
C470 C471 1.379 . S
C471 H455 0.931 . S
C471 C465 1.383 . S
C471 C470 1.379 . S
H472 C466 0.959 . S
H473 C466 0.961 . S
H474 C466 0.960 . S
H475 C467 0.930 . S
H476 C468 0.929 . S
H477 C485 0.929 . S
H478 C487 0.930 . S
H479 C489 0.930 . S
H480 C492 0.929 . S
H481 C495 0.930 . S
H482 C497 0.960 . S
H483 C497 0.960 . S
H484 C497 0.960 1_545 S
C485 H477 0.929 . S
C485 C486 1.377 . S
C485 C487 1.384 . S
C486 C485 1.377 . S
C486 C492 1.390 . S
C487 H478 0.930 . S
C487 C485 1.384 . S
C487 C488 1.372 . S
C488 C487 1.372 . S
C488 C489 1.400 . S
C488 C493 1.490 . S
C489 H479 0.930 . S
C489 C488 1.400 . S
C489 C492 1.386 . S
H490 C506 0.930 . S
H491 C507 0.931 . S
C492 H480 0.929 . S
C492 C486 1.390 . S
C492 C489 1.386 . S
C493 C488 1.490 . S
C493 C495 1.395 . S
C493 C496 1.403 . S
H494 C500 0.930 . S
C495 H481 0.930 . S
C495 C493 1.395 . S
C495 C498 1.403 . S
C496 C493 1.403 . S
C496 C497 1.524 1_545 S
C496 C500 1.400 . S
C497 H482 0.960 . S
C497 H483 0.960 . S
C497 H484 0.960 1_565 S
C497 C496 1.524 1_565 S
C498 C495 1.403 . S
C498 C499 1.392 . S
C498 C502 1.495 . S
C499 C498 1.392 . S
C499 C500 1.385 . S
C499 C501 1.478 . S
C500 H494 0.930 . S
C500 C496 1.400 . S
C500 C499 1.385 . S
C501 C499 1.478 . S
C501 C503 1.381 . S
C501 C507 1.383 . S
C502 C498 1.495 . S
C502 H508 0.959 . S
C502 H509 0.961 . S
C502 H510 0.960 . S
C503 C501 1.381 . S
C503 C504 1.394 . S
C503 H511 0.930 . S
C504 C503 1.394 . S
C504 C505 1.383 . S
C504 H512 0.929 . S
C505 C504 1.383 . S
C505 C506 1.377 . S
C506 H490 0.930 . S
C506 C505 1.377 . S
C506 C507 1.379 . S
C507 H491 0.931 . S
C507 C501 1.383 . S
C507 C506 1.379 . S
H508 C502 0.959 . S
H509 C502 0.961 . S
H510 C502 0.960 . S
H511 C503 0.930 . S
H512 C504 0.929 . S
H513 C521 0.929 . S
H514 C523 0.930 . S
H515 C525 0.883 1_556 S
H516 C528 0.929 1_455 S
H517 C531 0.932 1_554 S
H518 C533 0.960 . S
H519 C533 0.960 . S
H520 C533 0.960 . S
C521 H513 0.929 . S
C521 C522 1.377 . S
C521 C523 1.384 . S
C522 C521 1.377 . S
C522 C528 1.390 . S
C523 H514 0.930 . S
C523 C521 1.384 . S
C523 C524 1.372 . S
C524 C523 1.372 . S
C524 C525 1.400 . S
C524 C529 1.508 . S
C525 H515 0.883 1_554 S
C525 C524 1.400 . S
C525 C528 1.386 . S
H526 C542 0.930 . S
H527 C543 0.931 . S
C528 H516 0.929 1_655 S
C528 C522 1.390 . S
C528 C525 1.386 . S
C529 C524 1.508 . S
C529 C531 1.394 1_554 S
C529 C532 1.386 1_554 S
H530 C536 0.930 . S
C531 H517 0.932 1_556 S
C531 C529 1.394 1_556 S
C531 C534 1.401 . S
C532 C529 1.386 1_556 S
C532 C533 1.524 . S
C532 C536 1.400 . S
C533 H518 0.960 . S
C533 H519 0.960 . S
C533 H520 0.960 . S
C533 C532 1.524 . S
C534 C531 1.401 . S
C534 C535 1.392 . S
C534 C538 1.495 . S
C535 C534 1.392 . S
C535 C536 1.385 . S
C535 C537 1.478 . S
C536 H530 0.930 . S
C536 C532 1.400 . S
C536 C535 1.385 . S
C537 C535 1.478 . S
C537 C539 1.381 . S
C537 C543 1.383 . S
C538 C534 1.495 . S
C538 H544 0.959 . S
C538 H545 0.961 . S
C538 H546 0.960 . S
C539 C537 1.381 . S
C539 C540 1.394 . S
C539 H547 0.930 . S
C540 C539 1.394 . S
C540 C541 1.383 . S
C540 H548 0.929 . S
C541 C540 1.383 . S
C541 C542 1.377 . S
C542 H526 0.930 . S
C542 C541 1.377 . S
C542 C543 1.379 . S
C543 H527 0.931 . S
C543 C537 1.383 . S
C543 C542 1.379 . S
H544 C538 0.959 . S
H545 C538 0.961 . S
H546 C538 0.960 . S
H547 C539 0.930 . S
H548 C540 0.929 . S
H549 C557 0.929 1_655 S
H550 C559 0.930 1_655 S
H551 C561 0.930 . S
H552 C564 0.929 . S
H553 C567 0.930 . S
H554 C569 0.960 . S
H555 C569 0.960 . S
H556 C569 0.960 . S
C557 H549 0.929 1_455 S
C557 C558 1.377 . S
C557 C559 1.384 . S
C558 C557 1.377 . S
C558 C564 1.390 . S
C559 H550 0.930 1_455 S
C559 C557 1.384 . S
C559 C560 1.372 . S
C560 C559 1.372 . S
C560 C561 1.400 . S
C560 C565 1.490 . S
C561 H551 0.930 . S
C561 C560 1.400 . S
C561 C564 1.386 . S
H562 C578 0.930 . S
H563 C579 0.931 . S
C564 H552 0.929 . S
C564 C558 1.390 . S
C564 C561 1.386 . S
C565 C560 1.490 . S
C565 C567 1.395 1_455 S
C565 C568 1.403 . S
H566 C572 0.930 . S
C567 H553 0.930 . S
C567 C565 1.395 1_655 S
C567 C570 1.403 . S
C568 C565 1.403 . S
C568 C569 1.524 . S
C568 C572 1.400 . S
C569 H554 0.960 . S
C569 H555 0.960 . S
C569 H556 0.960 . S
C569 C568 1.524 . S
C570 C567 1.403 . S
C570 C571 1.392 1_655 S
C570 C574 1.495 . S
C571 C570 1.392 1_455 S
C571 C572 1.385 . S
C571 C573 1.478 . S
C572 H566 0.930 . S
C572 C568 1.400 . S
C572 C571 1.385 . S
C573 C571 1.478 . S
C573 C575 1.381 1_455 S
C573 C579 1.383 . S
C574 C570 1.495 . S
C574 H580 0.959 . S
C574 H581 0.961 . S
C574 H582 0.960 . S
C575 C573 1.381 1_655 S
C575 C576 1.394 . S
C575 H583 0.930 . S
C576 C575 1.394 . S
C576 C577 1.383 1_655 S
C576 H584 0.929 . S
C577 C576 1.383 1_455 S
C577 C578 1.377 . S
C578 H562 0.930 . S
C578 C577 1.377 . S
C578 C579 1.379 . S
C579 H563 0.931 . S
C579 C573 1.383 . S
C579 C578 1.379 . S
H580 C574 0.959 . S
H581 C574 0.961 . S
H582 C574 0.960 . S
H583 C575 0.930 . S
H584 C576 0.929 . S
H585 C593 0.929 . S
H586 C595 0.930 . S
H587 C597 0.930 . S
H588 C600 0.929 . S
H589 C603 0.930 . S
H590 C605 0.960 . S
H591 C605 0.960 1_565 S
H592 C605 0.960 . S
C593 H585 0.929 . S
C593 C594 1.377 . S
C593 C595 1.384 . S
C594 C593 1.377 . S
C594 C600 1.390 . S
C595 H586 0.930 . S
C595 C593 1.384 . S
C595 C596 1.372 . S
C596 C595 1.372 . S
C596 C597 1.400 . S
C596 C601 1.490 . S
C597 H587 0.930 . S
C597 C596 1.400 . S
C597 C600 1.386 . S
H598 C614 0.930 . S
H599 C615 0.931 . S
C600 H588 0.929 . S
C600 C594 1.390 . S
C600 C597 1.386 . S
C601 C596 1.490 . S
C601 C603 1.395 . S
C601 C604 1.403 . S
H602 C608 0.930 . S
C603 H589 0.930 . S
C603 C601 1.395 . S
C603 C606 1.403 . S
C604 C601 1.403 . S
C604 C605 1.524 . S
C604 C608 1.400 . S
C605 H590 0.960 . S
C605 H591 0.960 1_545 S
C605 H592 0.960 . S
C605 C604 1.524 . S
C606 C603 1.403 . S
C606 C607 1.392 . S
C606 C610 1.495 . S
C607 C606 1.392 . S
C607 C608 1.385 . S
C607 C609 1.478 . S
C608 H602 0.930 . S
C608 C604 1.400 . S
C608 C607 1.385 . S
C609 C607 1.478 . S
C609 C611 1.381 . S
C609 C615 1.383 . S
C610 C606 1.495 . S
C610 H616 0.959 . S
C610 H617 0.961 . S
C610 H618 0.960 . S
C611 C609 1.381 . S
C611 C612 1.394 . S
C611 H619 0.930 . S
C612 C611 1.394 . S
C612 C613 1.383 . S
C612 H620 0.929 . S
C613 C612 1.383 . S
C613 C614 1.377 . S
C614 H598 0.930 . S
C614 C613 1.377 . S
C614 C615 1.379 . S
C615 H599 0.931 . S
C615 C609 1.383 . S
C615 C614 1.379 . S
H616 C610 0.959 . S
H617 C610 0.961 . S
H618 C610 0.960 . S
H619 C611 0.930 . S
H620 C612 0.929 . S
H621 C629 0.929 . S
H622 C631 0.930 . S
H623 C633 0.930 . S
H624 C636 0.929 . S
H625 C639 0.930 . S
H626 C641 0.960 . S
H627 C641 0.960 1_554 S
H628 C641 0.960 . S
C629 H621 0.929 . S
C629 C630 1.377 . S
C629 C631 1.384 . S
C630 C629 1.377 . S
C630 C636 1.390 . S
C631 H622 0.930 . S
C631 C629 1.384 . S
C631 C632 1.372 . S
C632 C631 1.372 . S
C632 C633 1.400 . S
C632 C637 1.490 . S
C633 H623 0.930 . S
C633 C632 1.400 . S
C633 C636 1.386 . S
H634 C650 0.930 . S
H635 C651 0.931 . S
C636 H624 0.929 . S
C636 C630 1.390 . S
C636 C633 1.386 . S
C637 C632 1.490 . S
C637 C639 1.395 . S
C637 C640 1.403 . S
H638 C644 0.930 . S
C639 H625 0.930 . S
C639 C637 1.395 . S
C639 C642 1.403 . S
C640 C637 1.403 . S
C640 C641 1.524 1_554 S
C640 C644 1.400 1_554 S
C641 H626 0.960 . S
C641 H627 0.960 1_556 S
C641 H628 0.960 . S
C641 C640 1.524 1_556 S
C642 C639 1.403 . S
C642 C643 1.392 1_554 S
C642 C646 1.495 . S
C643 C642 1.392 1_556 S
C643 C644 1.385 . S
C643 C645 1.478 . S
C644 H638 0.930 . S
C644 C640 1.400 1_556 S
C644 C643 1.385 . S
C645 C643 1.478 . S
C645 C647 1.381 . S
C645 C651 1.383 . S
C646 C642 1.495 . S
C646 H652 0.959 . S
C646 H653 0.961 . S
C646 H654 0.960 . S
C647 C645 1.381 . S
C647 C648 1.394 . S
C647 H655 0.982 . S
C648 C647 1.394 . S
C648 C649 1.383 . S
C648 H656 0.929 . S
C649 C648 1.383 . S
C649 C650 1.377 . S
C650 H634 0.930 . S
C650 C649 1.377 . S
C650 C651 1.379 . S
C651 H635 0.931 . S
C651 C645 1.383 . S
C651 C650 1.379 . S
H652 C646 0.959 . S
H653 C646 0.961 . S
H654 C646 0.960 . S
H655 C647 0.982 . S
H656 C648 0.929 . S
H657 C665 0.929 . S
H658 C667 0.930 . S
H659 C669 0.930 . S
H660 C672 0.929 . S
H661 C675 0.930 . S
H662 C677 0.960 . S
H663 C677 0.960 . S
H664 C677 0.960 . S
C665 H657 0.929 . S
C665 C666 1.377 . S
C665 C667 1.384 . S
C666 C665 1.377 . S
C666 C672 1.390 1_455 S
C667 H658 0.930 . S
C667 C665 1.384 . S
C667 C668 1.372 . S
C668 C667 1.372 . S
C668 C669 1.400 1_455 S
C668 C673 1.490 . S
C669 H659 0.930 . S
C669 C668 1.400 1_655 S
C669 C672 1.386 . S
H670 C686 0.930 1_655 S
H671 C687 0.931 1_655 S
C672 H660 0.929 . S
C672 C666 1.390 1_655 S
C672 C669 1.386 . S
C673 C668 1.490 . S
C673 C675 1.395 . S
C673 C676 1.403 . S
H674 C680 0.930 . S
C675 H661 0.930 . S
C675 C673 1.395 . S
C675 C678 1.403 . S
C676 C673 1.403 . S
C676 C677 1.524 . S
C676 C680 1.400 . S
C677 H662 0.960 . S
C677 H663 0.960 . S
C677 H664 0.960 . S
C677 C676 1.524 . S
C678 C675 1.403 . S
C678 C679 1.392 . S
C678 C682 1.495 . S
C679 C678 1.392 . S
C679 C680 1.385 . S
C679 C681 1.478 . S
C680 H674 0.930 . S
C680 C676 1.400 . S
C680 C679 1.385 . S
C681 C679 1.478 . S
C681 C683 1.381 . S
C681 C687 1.383 . S
C682 C678 1.495 . S
C682 H688 0.959 . S
C682 H689 0.961 . S
C682 H690 0.960 . S
C683 C681 1.381 . S
C683 C684 1.394 . S
C683 H691 0.930 . S
C684 C683 1.394 . S
C684 C685 1.383 . S
C684 H692 0.929 . S
C685 C684 1.383 . S
C685 C686 1.377 . S
C686 H670 0.930 1_455 S
C686 C685 1.377 . S
C686 C687 1.379 . S
C687 H671 0.931 1_455 S
C687 C681 1.383 . S
C687 C686 1.379 . S
H688 C682 0.959 . S
H689 C682 0.961 . S
H690 C682 0.960 . S
H691 C683 0.930 . S
H692 C684 0.929 . S
C289 C78 1.437 . S
C270 C10 1.479 . S
C306 C17 1.386 . S
C325 C152 1.353 . S
C342 C36 2.268 1_665 S
C361 C256 2.255 . S
C378 C5 0.772 . S
C397 C90 0.767 . S
C433 C164 0.725 . S
C414 C16 0.731 . S
C450 C31 1.518 . S
C469 C250 1.436 . S
C505 C182 2.243 . S
C486 C30 2.249 1_655 S
C522 C3 1.466 1_655 S
C541 C226 1.405 . S
C577 C102 1.471 . S
C558 C18 1.568 . S
C613 C176 1.362 . S
C594 C29 1.495 . S
C649 C238 0.774 . S
C630 C4 0.755 . S
C666 C23 2.322 . S
C685 C108 2.312 . S
