# Generated by pormake.
# Topology anh, (6,3)-cn, num edge types: 1
# Building blocks:
#     Node 0, Type 0, BuildingBlock: BETFAJ_clean_sbu_0, # of connection points: 6
#     Node 1, Type 0, BuildingBlock: BETFAJ_clean_sbu_0, # of connection points: 6
#     Node 2, Type 0, BuildingBlock: BETFAJ_clean_sbu_0, # of connection points: 6
#     Node 3, Type 1, BuildingBlock: KAKCAD_clean_linker_0, # of connection points: 3
#     Node 4, Type 1, BuildingBlock: KAKCAD_clean_linker_0, # of connection points: 3
#     Node 5, Type 1, BuildingBlock: KAKCAD_clean_linker_0, # of connection points: 3
#     Node 6, Type 1, BuildingBlock: KAKCAD_clean_linker_0, # of connection points: 3
#     Node 7, Type 1, BuildingBlock: KAKCAD_clean_linker_0, # of connection points: 3
#     Node 8, Type 1, BuildingBlock: KAKCAD_clean_linker_0, # of connection points: 3
#     Edge 9, Type (0, 1), BuildingBlock: KIFKEQ_clean_linker_1, # of connection points: 2
#     Edge 10, Type (0, 1), BuildingBlock: KIFKEQ_clean_linker_1, # of connection points: 2
#     Edge 11, Type (0, 1), BuildingBlock: KIFKEQ_clean_linker_1, # of connection points: 2
#     Edge 12, Type (0, 1), BuildingBlock: KIFKEQ_clean_linker_1, # of connection points: 2
#     Edge 13, Type (0, 1), BuildingBlock: KIFKEQ_clean_linker_1, # of connection points: 2
#     Edge 14, Type (0, 1), BuildingBlock: KIFKEQ_clean_linker_1, # of connection points: 2
#     Edge 15, Type (0, 1), BuildingBlock: KIFKEQ_clean_linker_1, # of connection points: 2
#     Edge 16, Type (0, 1), BuildingBlock: KIFKEQ_clean_linker_1, # of connection points: 2
#     Edge 17, Type (0, 1), BuildingBlock: KIFKEQ_clean_linker_1, # of connection points: 2
#     Edge 18, Type (0, 1), BuildingBlock: KIFKEQ_clean_linker_1, # of connection points: 2
#     Edge 19, Type (0, 1), BuildingBlock: KIFKEQ_clean_linker_1, # of connection points: 2
#     Edge 20, Type (0, 1), BuildingBlock: KIFKEQ_clean_linker_1, # of connection points: 2
#     Edge 21, Type (0, 1), BuildingBlock: KIFKEQ_clean_linker_1, # of connection points: 2
#     Edge 22, Type (0, 1), BuildingBlock: KIFKEQ_clean_linker_1, # of connection points: 2
#     Edge 23, Type (0, 1), BuildingBlock: KIFKEQ_clean_linker_1, # of connection points: 2
#     Edge 24, Type (0, 1), BuildingBlock: KIFKEQ_clean_linker_1, # of connection points: 2
#     Edge 25, Type (0, 1), BuildingBlock: KIFKEQ_clean_linker_1, # of connection points: 2
#     Edge 26, Type (0, 1), BuildingBlock: KIFKEQ_clean_linker_1, # of connection points: 2
# Relax obj value: 0.180
# Max RMSD: 0.208
# Mean RMSD: 0.155
data_MOF--net-anh--node1-BETFAJ_clean_sbu_0--node2-KAKCAD_clean_linker_0--edge1-KIFKEQ_clean_linker_1
_symmetry_space_group_name_H-M    P1
_symmetry_Int_Tables_number       1
_symmetry_cell_setting            triclinic
loop_
_symmetry_equiv_pos_as_xyz
'x, y, z'
_cell_length_a     36.731726
_cell_length_b     44.164591
_cell_length_c     67.915314
_cell_angle_alpha  92.801512
_cell_angle_beta   88.635467
_cell_angle_gamma 128.31747
loop_
_atom_site_label
_atom_site_type_symbol
_atom_site_fract_x
_atom_site_fract_y
_atom_site_fract_z
_atom_type_partial_charge
Sm0 Sm 0.11176 0.533 0.14486 0.0
Sm1 Sm 1.05914 0.56072 0.16064 0.0
C2 C 0.16623 0.52024 0.12715 0.0
C3 C 0.20682 0.52347 0.13329 0.0
C4 C 0.25046 0.55952 0.137 0.0
C5 C 0.28741 0.56143 0.14403 0.0
C6 C 0.28099 0.52739 0.14769 0.0
C7 C 0.23764 0.49152 0.14367 0.0
C8 C 0.20109 0.48958 0.13643 0.0
C9 C 0.10234 0.53097 0.18516 0.0
C10 C 0.16709 0.62693 0.15439 0.0
C11 C 0.99962 0.56445 0.18069 0.0
C12 C 0.95037 0.53252 0.18483 0.0
C13 C 0.93823 0.50409 0.19815 0.0
C14 C 0.89351 0.46866 0.19785 0.0
C15 C 0.86069 0.46114 0.18409 0.0
C16 C 0.87132 0.49092 0.17231 0.0
C17 C 0.91564 0.5264 0.17279 0.0
C18 C 1.07024 0.56313 0.12035 0.0
C19 C 1.00307 0.46839 0.14944 0.0
O20 O 0.17165 0.55221 0.12544 0.0
O21 O 0.12713 0.49338 0.1355 0.0
O22 O 0.11142 0.55765 0.17479 0.0
O23 O 0.10166 0.50552 0.17454 0.0
O24 O 0.16573 0.60006 0.14396 0.0
O25 O 0.1311 0.6183 0.16467 0.0
O26 O 1.0304 0.56343 0.18922 0.0
O27 O 1.00932 0.5734 0.16219 0.0
O28 O 1.06001 0.53614 0.13079 0.0
O29 O 1.07221 0.58952 0.13089 0.0
O30 O 1.00669 0.49416 0.16177 0.0
O31 O 1.03761 0.47856 0.1376 0.0
H32 H 0.25598 0.58618 0.13469 0.0
H33 H 0.32071 0.5894 0.14685 0.0
H34 H 0.23213 0.46482 0.14589 0.0
H35 H 0.16803 0.46145 0.13351 0.0
H36 H 0.96402 0.508 0.2078 0.0
H37 H 0.88586 0.44615 0.20716 0.0
H38 H 0.84604 0.48594 0.16189 0.0
H39 H 0.92368 0.5479 0.16261 0.0
Sm40 Sm 0.64458 0.03117 0.47675 0.0
Sm41 Sm 0.57901 0.0549 0.46987 0.0
C42 C 0.68301 0.9992 0.48626 0.0
C43 C 0.66918 0.96141 0.49196 0.0
C44 C 0.65722 0.94953 0.51146 0.0
C45 C 0.64602 0.91435 0.51663 0.0
C46 C 0.64668 0.89038 0.50244 0.0
C47 C 0.65822 0.90221 0.48292 0.0
C48 C 0.66956 0.93734 0.47778 0.0
C49 C 0.64049 0.04962 0.43926 0.0
C50 C 0.53079 0.96367 0.47066 0.0
C51 C 0.53998 0.08273 0.45502 0.0
C52 C 0.5393 0.11449 0.46187 0.0
C53 C 0.52932 0.13206 0.44876 0.0
C54 C 0.53101 0.16354 0.45524 0.0
C55 C 0.54254 0.17774 0.47496 0.0
C56 C 0.55244 0.15989 0.488 0.0
C57 C 0.55102 0.12872 0.4815 0.0
C58 C 0.59048 0.05252 0.50985 0.0
C59 C 0.69251 0.12189 0.47834 0.0
O60 O 0.67689 0.01892 0.49903 0.0
O61 O 0.67356 1.00108 0.46811 0.0
O62 O 0.60645 0.03014 0.45069 0.0
O63 O 0.67818 0.05891 0.44722 0.0
O64 O 0.57 0.97346 0.4781 0.0
O65 O 0.52715 0.98939 0.46403 0.0
O66 O 0.58062 0.0933 0.44935 0.0
O67 O 0.51748 0.05247 0.466 0.0
O68 O 0.60737 0.04605 0.4956 0.0
O69 O 0.56508 0.06081 0.50302 0.0
O70 O 0.65391 0.11218 0.47021 0.0
O71 O 0.69603 0.09598 0.48479 0.0
H72 H 0.657 0.96755 0.52279 0.0
H73 H 0.63789 0.90638 0.53186 0.0
H74 H 0.65843 0.88426 0.47155 0.0
H75 H 0.67892 0.94577 0.46266 0.0
H76 H 0.52061 0.12165 0.4335 0.0
H77 H 0.52305 0.17662 0.44488 0.0
H78 H 0.56229 0.17056 0.50317 0.0
H79 H 0.55964 0.116 0.49177 0.0
Sm80 Sm 0.63332 0.5628 0.83963 0.0
Sm81 Sm 0.56674 0.47606 0.84314 0.0
C82 C 0.67659 0.63504 0.82972 0.0
C83 C 0.66574 0.6612 0.82523 0.0
C84 C 0.66457 0.66911 0.80556 0.0
C85 C 0.65606 0.69479 0.80111 0.0
C86 C 0.64889 0.71346 0.81624 0.0
C87 C 0.65 0.70553 0.83592 0.0
C88 C 0.65835 0.67971 0.84038 0.0
C89 C 0.6215 0.53788 0.87714 0.0
C90 C 0.52033 0.51824 0.84435 0.0
C91 C 0.52354 0.40292 0.8513 0.0
C92 C 0.53225 0.37495 0.84693 0.0
C93 C 0.57666 0.3877 0.84153 0.0
C94 C 0.58449 0.36114 0.83646 0.0
C95 C 0.54784 0.32116 0.83639 0.0
C96 C 0.50336 0.30852 0.84198 0.0
C97 C 0.49569 0.33522 0.84722 0.0
C98 C 0.57965 0.50042 0.80539 0.0
C99 C 0.68133 0.52187 0.84037 0.0
O100 O 0.66276 0.60668 0.81686 0.0
O101 O 0.67206 0.62499 0.84797 0.0
O102 O 0.58962 0.52478 0.86466 0.0
O103 O 0.66157 0.56632 0.87035 0.0
O104 O 0.56016 0.54733 0.83671 0.0
O105 O 0.51587 0.48859 0.85122 0.0
O106 O 0.55279 0.43205 0.86344 0.0
O107 O 0.51305 0.41329 0.83611 0.0
O108 O 0.6113 0.51384 0.81804 0.0
O109 O 0.53963 0.47222 0.81219 0.0
O110 O 0.63968 0.4908 0.84543 0.0
O111 O 0.68769 0.55322 0.83506 0.0
H112 H 0.67076 0.65574 0.79358 0.0
H113 H 0.65616 0.70071 0.78581 0.0
H114 H 0.64423 0.71918 0.8479 0.0
H115 H 0.65929 0.6745 0.8557 0.0
H116 H 0.60523 0.4182 0.841 0.0
H117 H 0.61933 0.37203 0.83255 0.0
H118 H 0.47417 0.27802 0.84184 0.0
H119 H 0.46105 0.32484 0.85118 0.0
C120 C 0.61015 0.08373 0.28345 0.0
C121 C 0.61063 0.0562 0.29272 0.0
C122 C 0.60649 0.0825 0.26292 0.0
C123 C 0.60297 0.05359 0.25123 0.0
C124 C 0.60307 0.02591 0.26054 0.0
C125 C 0.60687 0.02721 0.28103 0.0
C126 C 0.59949 0.0523 0.2294 0.0
C127 C 0.62756 0.08624 0.21894 0.0
C128 C 0.62531 0.08514 0.19825 0.0
C129 C 0.59434 0.04931 0.18795 0.0
C130 C 0.56572 0.01496 0.19823 0.0
C131 C 0.56854 0.01692 0.21892 0.0
C132 C 0.53182 0.97683 0.18776 0.0
C133 C 0.503 0.97233 0.17272 0.0
C134 C 0.5255 0.94393 0.19393 0.0
C135 C 0.48963 0.90721 0.18609 0.0
C136 C 0.4592 0.90236 0.17175 0.0
C137 C 0.65652 0.12165 0.18768 0.0
C138 C 0.66245 0.15499 0.19459 0.0
C139 C 0.68312 0.1243 0.17164 0.0
C140 C 0.71649 0.15996 0.1633 0.0
C141 C 0.7236 0.19361 0.17071 0.0
C142 C 0.69547 0.19049 0.18619 0.0
C143 C 0.46704 0.93549 0.16481 0.0
H144 H 0.61335 0.10661 0.29203 0.0
H145 H 0.60609 0.10403 0.25619 0.0
H146 H 0.60086 1.00348 0.25196 0.0
H147 H 0.60659 1.0053 0.28772 0.0
H148 H 0.65237 0.11356 0.22691 0.0
H149 H 0.54571 0.9908 0.227 0.0
H150 H 0.59253 0.04819 0.172 0.0
H151 H 0.5069 0.99708 0.16766 0.0
H152 H 0.54757 0.94646 0.20529 0.0
H153 H 0.48457 0.88249 0.19195 0.0
H154 H 0.64215 0.15377 0.20682 0.0
H155 H 0.67946 0.09913 0.16606 0.0
H156 H 0.44473 0.9329 0.15357 0.0
H157 H 0.70025 0.21581 0.1924 0.0
H158 H 0.73728 0.16132 0.15126 0.0
C159 C 0.57128 0.53357 0.64999 0.0
C160 C 0.60749 0.53707 0.65948 0.0
C161 C 0.56946 0.53322 0.62946 0.0
C162 C 0.60327 0.53564 0.61791 0.0
C163 C 0.63926 0.53881 0.62722 0.0
C164 C 0.6416 0.53987 0.6478 0.0
C165 C 0.60089 0.53496 0.59616 0.0
C166 C 0.59639 0.5603 0.58707 0.0
C167 C 0.59359 0.55979 0.56645 0.0
C168 C 0.59451 0.53295 0.5549 0.0
C169 C 0.59852 0.50703 0.56384 0.0
C170 C 0.60227 0.50862 0.58449 0.0
C171 C 0.59705 0.4772 0.55187 0.0
C172 C 0.56334 0.45488 0.53698 0.0
C173 C 0.62753 0.46922 0.55609 0.0
C174 C 0.62336 0.43874 0.54615 0.0
C175 C 0.58843 0.41534 0.53182 0.0
C176 C 0.59096 0.58818 0.55723 0.0
C177 C 0.56154 0.59588 0.56504 0.0
C178 C 0.62008 0.60967 0.5415 0.0
C179 C 0.62121 0.63939 0.5343 0.0
C180 C 0.59305 0.6481 0.54262 0.0
C181 C 0.56249 0.62541 0.5578 0.0
C182 C 0.55902 0.42422 0.52708 0.0
H183 H 0.54372 0.53038 0.65836 0.0
H184 H 0.54108 0.53034 0.62258 0.0
H185 H 0.66598 0.54108 0.61858 0.0
H186 H 0.67045 0.54327 0.6545 0.0
H187 H 0.59633 0.5812 0.59611 0.0
H188 H 0.60454 0.48837 0.59159 0.0
H189 H 0.59197 0.53216 0.53899 0.0
H190 H 0.53906 0.46009 0.53353 0.0
H191 H 0.65435 0.48633 0.56726 0.0
H192 H 0.64728 0.43328 0.54986 0.0
H193 H 0.53818 0.57935 0.57697 0.0
H194 H 0.64343 0.60462 0.53531 0.0
H195 H 0.53146 0.40659 0.51627 0.0
H196 H 0.53959 0.63074 0.56425 0.0
H197 H 0.6455 0.65651 0.52273 0.0
C198 C 0.14126 0.56921 0.96284 0.0
C199 C 0.09859 0.5481 0.97271 0.0
C200 C 0.14276 0.56495 0.94235 0.0
C201 C 0.10162 0.53916 0.93128 0.0
C202 C 1.05901 0.51764 0.94127 0.0
C203 C 1.05751 0.52222 0.96171 0.0
C204 C 0.103 0.53518 0.90938 0.0
C205 C 0.13841 0.53625 0.90021 0.0
C206 C 0.14067 0.53327 0.87954 0.0
C207 C 0.10568 0.52841 0.86787 0.0
C208 C 1.0695 0.52691 0.87697 0.0
C209 C 1.06893 0.53056 0.89759 0.0
C210 C 1.03146 0.52192 0.86582 0.0
C211 C 1.04 0.55217 0.85513 0.0
C212 C 0.98515 0.49011 0.86943 0.0
C213 C 0.94832 0.48924 0.86331 0.0
C214 C 0.95665 0.52039 0.85354 0.0
C215 C 0.18 0.53511 0.87092 0.0
C216 C 0.22527 0.56289 0.87848 0.0
C217 C 0.17242 0.50703 0.85699 0.0
C218 C 0.20875 0.50573 0.85156 0.0
C219 C 0.25368 0.53264 0.85982 0.0
C220 C 0.26137 0.56165 0.87308 0.0
C221 C 1.00304 0.55146 0.84909 0.0
H222 H 0.17346 0.58962 0.97092 0.0
H223 H 0.17615 0.58245 0.93516 0.0
H224 H 1.02669 0.49693 0.93333 0.0
H225 H 1.02417 0.5051 0.96896 0.0
H226 H 0.16402 0.53862 0.90929 0.0
H227 H 1.04197 0.53056 0.90446 0.0
H228 H 0.10663 0.52594 0.85195 0.0
H229 H 0.07533 0.57739 0.85248 0.0
H230 H 0.97756 0.46673 0.87797 0.0
H231 H 0.9134 0.46501 0.86726 0.0
H232 H 0.23255 0.58512 0.88914 0.0
H233 H 0.138 0.48507 0.85095 0.0
H234 H 1.01094 0.57577 0.84139 0.0
H235 H 0.29499 0.5827 0.88 0.0
H236 H 0.20141 0.48327 0.84108 0.0
C237 C 1.05418 0.51285 0.34506 0.0
C238 C 0.09397 0.52936 0.33338 0.0
C239 C 1.05722 0.51313 0.36558 0.0
C240 C 0.10009 0.52979 0.37481 0.0
C241 C 0.1396 0.54553 0.36303 0.0
C242 C 0.1366 0.54541 0.34259 0.0
C243 C 0.10418 0.53165 0.39664 0.0
C244 C 1.07039 0.50028 0.40787 0.0
C245 C 0.07498 0.50189 0.42848 0.0
C246 C 0.1141 0.5355 0.43793 0.0
C247 C 0.14812 0.56731 0.42686 0.0
C248 C 0.1425 0.56506 0.40632 0.0
C249 C 0.18937 0.60371 0.43623 0.0
C250 C 0.1848 0.62197 0.45254 0.0
C251 C 0.23305 0.62269 0.42734 0.0
C252 C 0.27035 0.66018 0.43358 0.0
C253 C 0.26507 0.67953 0.44898 0.0
C254 C 1.03881 0.4678 0.43974 0.0
C255 C 0.99176 0.45014 0.43654 0.0
C256 C 1.05058 0.45083 0.45243 0.0
C257 C 1.0158 0.41587 0.46105 0.0
C258 C 0.96866 0.39764 0.45738 0.0
C259 C 0.9571 0.41559 0.44533 0.0
C260 C 0.22244 0.65962 0.4589 0.0
H261 H 1.0209 0.50047 0.33837 0.0
H262 H 1.02623 0.5011 0.37424 0.0
H263 H 0.17296 0.55783 0.36961 0.0
H264 H 0.16767 0.55761 0.33396 0.0
H265 H 1.04099 0.47405 0.40051 0.0
H266 H 0.16776 0.58995 0.3978 0.0
H267 H 0.11795 0.53688 0.4538 0.0
H268 H 0.15153 0.60811 0.45964 0.0
H269 H 0.2379 0.60906 0.415 0.0
H270 H 0.30308 0.67453 0.42593 0.0
H271 H 0.98176 0.46269 0.42686 0.0
H272 H 0.08662 0.46376 0.45503 0.0
H273 H 0.21746 0.67389 0.47082 0.0
H274 H 0.92117 0.40213 0.44205 0.0
H275 H 1.02572 0.4028 0.47036 0.0
C276 C 0.59222 1.00025 0.66422 0.0
C277 C 0.62092 0.03648 0.65565 0.0
C278 C 0.59133 0.99752 0.68468 0.0
C279 C 0.61899 0.03096 0.69703 0.0
C280 C 0.6485 0.06706 0.68845 0.0
C281 C 0.64954 0.06979 0.66802 0.0
C282 C 0.61611 0.0284 0.71882 0.0
C283 C 0.61523 1.00011 0.72793 0.0
C284 C 0.61226 0.99749 0.74855 0.0
C285 C 0.61022 0.02378 0.76008 0.0
C286 C 0.61103 0.05232 0.7512 0.0
C287 C 0.61384 0.05422 0.73056 0.0
C288 C 0.60829 0.07995 0.76321 0.0
C289 C 0.5773 0.06746 0.77905 0.0
C290 C 0.63539 0.1189 0.75832 0.0
C291 C 0.63064 0.14444 0.76857 0.0
C292 C 0.59885 0.13183 0.7841 0.0
C293 C 0.61194 0.96755 0.7579 0.0
C294 C 0.5861 0.92984 0.74943 0.0
C295 C 0.63852 0.97664 0.77495 0.0
C296 C 0.64 0.9489 0.78307 0.0
C297 C 0.61486 0.9114 0.77436 0.0
C298 C 0.58756 0.90214 0.75754 0.0
C299 C 0.57262 0.09311 0.78937 0.0
H300 H 0.56931 0.97405 0.65516 0.0
H301 H 0.56792 0.96932 0.69087 0.0
H302 H 0.67083 0.09329 0.69757 0.0
H303 H 0.67273 0.09807 0.6619 0.0
H304 H 0.61803 0.98069 0.71894 0.0
H305 H 0.61299 0.07528 0.72352 0.0
H306 H 0.60797 0.02202 0.77598 0.0
H307 H 0.55568 0.03761 0.78313 0.0
H308 H 0.66008 0.12964 0.74639 0.0
H309 H 0.65106 0.17389 0.76392 0.0
H310 H 0.56483 0.92174 0.73643 0.0
H311 H 0.65909 1.00549 0.78176 0.0
H312 H 0.54822 0.08251 0.8014 0.0
H313 H 0.56813 0.87369 0.75032 0.0
H314 H 0.66097 0.95689 0.79616 0.0
C315 C 0.54329 0.38293 0.01284 0.0
C316 C 0.56658 0.4222 0.0094 0.0
C317 C 0.53178 0.36967 0.03205 0.0
C318 C 0.54336 0.39541 0.04819 0.0
C319 C 0.5675 0.43473 0.04472 0.0
C320 C 0.57857 0.44785 0.02563 0.0
C321 C 0.53056 0.38202 0.06869 0.0
C322 C 0.53538 0.3552 0.07566 0.0
C323 C 0.52829 0.34628 0.09571 0.0
C324 C 0.51627 0.36459 0.1087 0.0
C325 C 0.5105 0.39085 0.10191 0.0
C326 C 0.51647 0.39848 0.08181 0.0
C327 C 0.49988 0.4115 0.11581 0.0
C328 C 0.46936 0.39258 0.13162 0.0
C329 C 0.51929 0.45017 0.11299 0.0
C330 C 0.50589 0.46852 0.12469 0.0
C331 C 0.47334 0.44892 0.1398 0.0
C332 C 0.53937 0.32216 0.1039 0.0
C333 C 0.57939 0.32696 0.09775 0.0
C334 C 0.51432 0.29881 0.11995 0.0
C335 C 0.5321 0.28477 0.13108 0.0
C336 C 0.5749 0.29339 0.12619 0.0
C337 C 0.59682 0.31255 0.10872 0.0
C338 C 0.45657 0.4112 0.14358 0.0
H339 H 0.53397 0.36242 0.00071 0.0
H340 H 0.51315 0.33921 0.03421 0.0
H341 H 0.57792 0.45559 0.05681 0.0
H342 H 0.5958 0.47814 0.02362 0.0
H343 H 0.54634 0.34243 0.06566 0.0
H344 H 0.51062 0.41777 0.07631 0.0
H345 H 0.51384 0.35999 0.12435 0.0
H346 H 0.45387 0.36286 0.13431 0.0
H347 H 0.54409 0.46612 0.10137 0.0
H348 H 0.51941 0.49742 0.12116 0.0
H349 H 0.59977 0.34487 0.08555 0.0
H350 H 0.48263 0.29366 0.12473 0.0
H351 H 0.43222 0.39547 0.15536 0.0
H352 H 0.63012 0.32006 0.10462 0.0
H353 H 0.51423 0.26973 0.14435 0.0
H354 H 0.27997 0.489 0.17809 0.0
H355 H 0.36825 0.56728 0.13271 0.0
H356 H 0.3354 0.47714 0.18398 0.0
H357 H 0.42345 0.55512 0.13838 0.0
H358 H 0.38325 0.4111 0.15084 0.0
H359 H 0.3457 0.43898 0.16026 0.0
H360 H 0.47741 0.55342 0.15945 0.0
H361 H 0.51598 0.5253 0.15061 0.0
C362 C 0.31187 0.5044 0.16974 0.0
C363 C 0.31951 0.52835 0.15466 0.0
C364 C 0.34355 0.49768 0.17313 0.0
C365 C 0.38324 0.51459 0.16138 0.0
C366 C 0.39326 0.54178 0.14774 0.0
C367 C 0.3616 0.54865 0.14442 0.0
C368 C 0.40484 0.44211 0.15345 0.0
C369 C 0.4527 0.46589 0.14965 0.0
C370 C 0.38312 0.45818 0.15886 0.0
C371 C 0.40857 0.49844 0.16045 0.0
C372 C 0.45691 0.52229 0.1581 0.0
C373 C 0.47886 0.50613 0.15292 0.0
H374 H 0.78124 0.15519 0.491 0.0
H375 H 0.69764 0.18274 0.46677 0.0
H376 H 0.84973 0.22296 0.48952 0.0
H377 H 0.76573 0.24962 0.4648 0.0
H378 H 0.88712 0.37341 0.47466 0.0
H379 H 0.82188 0.3079 0.48316 0.0
H380 H 0.90015 0.26842 0.46489 0.0
H381 H 0.9657 0.33418 0.45683 0.0
C382 C 0.77734 0.17564 0.48548 0.0
C383 C 0.73385 0.16335 0.47894 0.0
C384 C 0.81669 0.21447 0.48451 0.0
C385 C 0.8134 0.24188 0.47702 0.0
C386 C 0.76963 0.22961 0.47096 0.0
C387 C 0.73046 0.19099 0.47195 0.0
C388 C 0.8905 0.35077 0.47267 0.0
C389 C 0.9314 0.3589 0.46493 0.0
C390 C 0.85307 0.31317 0.47746 0.0
C391 C 0.8554 0.28266 0.47447 0.0
C392 C 0.89718 0.29118 0.46759 0.0
C393 C 0.93479 0.3289 0.46293 0.0
H394 H 0.68638 0.78371 0.8347 0.0
H395 H 0.59459 0.70726 0.78686 0.0
H396 H 0.67605 0.83101 0.82614 0.0
H397 H 0.58541 0.75501 0.77792 0.0
H398 H 0.54511 0.834 0.77841 0.0
H399 H 0.55154 0.78585 0.78964 0.0
H400 H 0.69857 0.87484 0.7995 0.0
H401 H 0.69223 0.92294 0.78819 0.0
C402 C 0.66374 0.77688 0.82245 0.0
C403 C 0.64136 0.74173 0.81144 0.0
C404 C 0.65821 0.80416 0.81741 0.0
C405 C 0.63002 0.79686 0.80131 0.0
C406 C 0.60703 0.76142 0.79052 0.0
C407 C 0.61269 0.73422 0.79551 0.0
C408 C 0.57884 0.84329 0.78292 0.0
C409 C 0.61818 0.88235 0.78232 0.0
C410 C 0.58251 0.81568 0.78936 0.0
C411 C 0.62559 0.82646 0.7954 0.0
C412 C 0.66475 0.86563 0.7952 0.0
C413 C 0.66109 0.89323 0.78873 0.0
H414 H 0.83258 0.422 0.14899 0.0
H415 H 0.79299 0.41087 0.21009 0.0
H416 H 0.75747 0.36193 0.14035 0.0
H417 H 0.71681 0.34936 0.20156 0.0
H418 H 0.58591 0.31602 0.1649 0.0
H419 H 0.65428 0.34133 0.18429 0.0
H420 H 0.69621 0.29358 0.141 0.0
H421 H 0.62769 0.26899 0.12113 0.0
C422 C 0.80777 0.40612 0.16063 0.0
C423 C 0.81772 0.4215 0.18006 0.0
C424 C 0.76489 0.3712 0.15578 0.0
C425 C 0.73074 0.35076 0.17025 0.0
C426 C 0.74224 0.36457 0.19005 0.0
C427 C 0.78563 0.3997 0.19494 0.0
C428 C 0.60828 0.30905 0.15995 0.0
C429 C 0.60237 0.29176 0.14113 0.0
C430 C 0.64777 0.32363 0.17117 0.0
C431 C 0.68176 0.32093 0.16376 0.0
C432 C 0.67135 0.29728 0.14673 0.0
C433 C 0.63208 0.28308 0.13537 0.0
H434 H 0.51861 0.90302 0.48781 0.0
H435 H 0.45028 0.9302 0.44996 0.0
H436 H 0.45263 0.83437 0.48385 0.0
H437 H 0.38465 0.86168 0.44603 0.0
H438 H 0.31265 0.73624 0.42275 0.0
H439 H 0.37522 0.80484 0.42926 0.0
H440 H 0.36534 0.78618 0.49161 0.0
H441 H 0.30223 0.71698 0.48503 0.0
C442 C 0.48949 0.89444 0.47873 0.0
C443 C 0.4899 0.92217 0.46911 0.0
C444 C 0.4516 0.85513 0.47659 0.0
C445 C 0.41361 0.84269 0.46458 0.0
C446 C 0.41366 0.87042 0.45524 0.0
C447 C 0.45123 0.90971 0.45756 0.0
C448 C 0.32393 0.74672 0.43785 0.0
C449 C 0.30282 0.72124 0.45338 0.0
C450 C 0.35946 0.78605 0.44158 0.0
C451 C 0.37508 0.80087 0.46094 0.0
C452 C 0.35409 0.77546 0.47654 0.0
C453 C 0.31791 0.73601 0.4728 0.0
H454 H 0.60353 0.32766 0.80655 0.0
H455 H 0.51002 0.25052 0.85141 0.0
H456 H 0.61672 0.28185 0.79582 0.0
H457 H 0.52261 0.20422 0.84028 0.0
H458 H 0.5172 0.11618 0.79639 0.0
H459 H 0.50552 0.16147 0.81042 0.0
H460 H 0.65301 0.2539 0.80809 0.0
H461 H 0.66495 0.20862 0.79442 0.0
C462 C 0.58616 0.30116 0.81431 0.0
C463 C 0.55585 0.29297 0.82994 0.0
C464 C 0.5937 0.27484 0.8081 0.0
C465 C 0.57086 0.23949 0.81725 0.0
C466 C 0.5404 0.2311 0.83283 0.0
C467 C 0.5331 0.2576 0.83915 0.0
C468 C 0.54728 0.14599 0.79922 0.0
C469 C 0.59202 0.15874 0.79412 0.0
C470 C 0.54053 0.17196 0.80723 0.0
C471 C 0.5783 0.21131 0.8102 0.0
C472 C 0.62312 0.22387 0.80564 0.0
C473 C 0.62992 0.1979 0.79777 0.0
H474 H 0.57994 0.83685 0.52765 0.0
H475 H 0.69055 0.86071 0.48982 0.0
H476 H 0.56419 0.777 0.53688 0.0
H477 H 0.67444 0.80084 0.49888 0.0
H478 H 0.60398 0.67293 0.50508 0.0
H479 H 0.61466 0.73027 0.49501 0.0
H480 H 0.60224 0.75704 0.55561 0.0
H481 H 0.59206 0.70011 0.56572 0.0
C482 C 0.60103 0.82946 0.52137 0.0
C483 C 0.63648 0.85362 0.50797 0.0
C484 C 0.59193 0.79513 0.52663 0.0
C485 C 0.61797 0.78411 0.51856 0.0
C486 C 0.65321 0.80814 0.50509 0.0
C487 C 0.66242 0.84249 0.4999 0.0
C488 C 0.60369 0.69111 0.51626 0.0
C489 C 0.59717 0.68186 0.53621 0.0
C490 C 0.60977 0.72395 0.51049 0.0
C491 C 0.60935 0.74823 0.52452 0.0
C492 C 0.60206 0.73863 0.5444 0.0
C493 C 0.59614 0.70592 0.55018 0.0
H494 H 0.68402 0.46558 0.85387 0.0
H495 H 0.77118 0.57775 0.82862 0.0
H496 H 0.75013 0.46561 0.8557 0.0
H497 H 0.83738 0.57759 0.8302 0.0
H498 H 0.95574 0.58235 0.85686 0.0
H499 H 0.89031 0.58278 0.85278 0.0
H500 H 0.80222 0.46081 0.83682 0.0
H501 H 0.86764 0.46039 0.84095 0.0
C502 C 0.71712 0.49012 0.84848 0.0
C503 C 0.72186 0.52157 0.841 0.0
C504 C 0.75525 0.49009 0.84947 0.0
C505 C 0.79949 0.52156 0.84306 0.0
C506 C 0.80418 0.55299 0.83552 0.0
C507 C 0.76599 0.55299 0.8345 0.0
C508 C 0.92266 0.55571 0.85215 0.0
C509 C 0.91731 0.52131 0.84932 0.0
C510 C 0.8849 0.55593 0.84983 0.0
C511 C 0.84049 0.52177 0.84459 0.0
C512 C 0.83545 0.48758 0.84127 0.0
C513 C 0.87317 0.48735 0.8436 0.0
H514 H 0.18292 0.68875 0.17502 0.0
H515 H 0.2488 0.65745 0.13483 0.0
H516 H 0.25355 0.7551 0.1767 0.0
H517 H 0.31955 0.72449 0.13615 0.0
H518 H 0.45235 0.83714 0.16453 0.0
H519 H 0.38199 0.77102 0.15873 0.0
H520 H 0.30137 0.81187 0.15802 0.0
H521 H 0.3712 0.8776 0.16484 0.0
C522 C 0.21234 0.69605 0.16638 0.0
C523 C 0.21008 0.66764 0.15481 0.0
C524 C 0.25286 0.7343 0.16722 0.0
C525 C 0.29228 0.74532 0.15647 0.0
C526 C 0.28999 0.71697 0.14476 0.0
C527 C 0.24934 0.67856 0.14394 0.0
C528 C 0.41962 0.83204 0.16313 0.0
C529 C 0.41752 0.86278 0.16538 0.0
C530 C 0.37928 0.79411 0.15957 0.0
C531 C 0.33584 0.78598 0.15812 0.0
C532 C 0.3341 0.81695 0.15942 0.0
C533 C 0.37435 0.85481 0.16305 0.0
H534 H 0.50929 0.18629 0.50937 0.0
H535 H 0.58218 0.24554 0.45658 0.0
H536 H 0.51887 0.24328 0.52231 0.0
H537 H 0.59225 0.30291 0.46961 0.0
H538 H 0.56655 0.38785 0.49322 0.0
H539 H 0.55223 0.32954 0.47873 0.0
H540 H 0.58145 0.30702 0.53506 0.0
H541 H 0.5937 0.36404 0.54967 0.0
C542 C 0.52746 0.21157 0.50055 0.0
C543 C 0.54531 0.21152 0.48203 0.0
C544 C 0.53307 0.24428 0.50798 0.0
C545 C 0.55684 0.27787 0.49711 0.0
C546 C 0.57345 0.27744 0.4783 0.0
C547 C 0.56769 0.24458 0.47083 0.0
C548 C 0.56955 0.37026 0.50253 0.0
C549 C 0.58135 0.38071 0.52261 0.0
C550 C 0.56178 0.33705 0.49418 0.0
C551 C 0.56547 0.31347 0.50574 0.0
C552 C 0.5776 0.32415 0.52577 0.0
C553 C 0.58533 0.35723 0.5341 0.0
H554 H 0.43618 0.46829 0.86256 0.0
H555 H 0.51376 0.57101 0.8288 0.0
H556 H 0.37221 0.47135 0.86518 0.0
H557 H 0.4493 0.57342 0.83082 0.0
H558 H 0.3474 0.59181 0.85596 0.0
H559 H 0.41014 0.5877 0.85208 0.0
H560 H 0.31043 0.46315 0.84885 0.0
H561 H 0.2477 0.46731 0.85389 0.0
C562 C 0.43952 0.49139 0.85553 0.0
C563 C 0.48047 0.51946 0.84552 0.0
C564 C 0.40251 0.49302 0.85692 0.0
C565 C 0.40507 0.52267 0.84824 0.0
C566 C 0.44594 0.55048 0.83803 0.0
C567 C 0.48303 0.54897 0.83675 0.0
C568 C 0.33865 0.56345 0.85458 0.0
C569 C 0.29203 0.52992 0.85544 0.0
C570 C 0.37488 0.56107 0.85207 0.0
C571 C 0.3659 0.52505 0.85019 0.0
C572 C 0.31917 0.49148 0.85055 0.0
C573 C 0.28289 0.49387 0.85315 0.0
H574 H 0.92436 0.43966 0.17028 0.0
H575 H 0.98419 0.405 0.12861 0.0
H576 H 0.85572 0.37284 0.17254 0.0
H577 H 0.9145 0.33771 0.13044 0.0
H578 H 0.81247 0.22169 0.16224 0.0
H579 H 0.87807 0.28738 0.1543 0.0
H580 H 0.78788 0.31901 0.15491 0.0
H581 H 0.72228 0.25334 0.16299 0.0
C582 C 0.92265 0.41781 0.16141 0.0
C583 C 0.95998 0.42775 0.14939 0.0
C584 C 0.88298 0.37941 0.16255 0.0
C585 C 0.87941 0.34979 0.15163 0.0
C586 C 0.91629 0.35976 0.13921 0.0
C587 C 0.95614 0.39835 0.13807 0.0
C588 C 0.80641 0.24243 0.16027 0.0
C589 C 0.76215 0.23228 0.16341 0.0
C590 C 0.84408 0.28016 0.15571 0.0
C591 C 0.83841 0.30866 0.15415 0.0
C592 C 0.79369 0.29802 0.1564 0.0
C593 C 0.75605 0.26034 0.161 0.0
H594 H 0.07918 0.51538 0.09808 0.0
H595 H 0.07603 0.61101 0.09411 0.0
H596 H 0.08828 0.51397 0.06242 0.0
H597 H 0.08498 0.6095 0.05825 0.0
H598 H 1.04132 0.55732 0.99359 0.0
H599 H 1.03664 0.56311 0.0294 0.0
H600 H 0.14733 0.55569 0.03662 0.0
H601 H 0.15179 0.54962 0.00082 0.0
C602 C 0.08049 0.53614 0.08956 0.0
C603 C 0.07671 0.56322 0.09882 0.0
C604 C 0.086 0.53548 0.06916 0.0
C605 C 0.08735 0.56162 0.05755 0.0
C606 C 0.08371 0.58883 0.06683 0.0
C607 C 0.07877 0.5898 0.08731 0.0
C608 C 1.06461 0.5569 0.00285 0.0
C609 C 0.09681 0.55288 0.99442 0.0
C610 C 1.06221 0.56057 0.02332 0.0
C611 C 0.09159 0.55982 0.0358 0.0
C612 C 0.12404 0.55609 0.02737 0.0
C613 C 0.12681 0.5529 0.00689 0.0
H614 H 0.5624 0.02445 0.41882 0.0
H615 H 0.71008 0.08722 0.41264 0.0
H616 H 0.55564 0.02843 0.38345 0.0
H617 H 0.70358 0.09184 0.37745 0.0
H618 H 0.66453 0.04572 0.31346 0.0
H619 H 0.67154 0.04663 0.34906 0.0
H620 H 0.57641 0.0727 0.35698 0.0
H621 H 0.56821 0.07053 0.3212 0.0
C622 C 0.59345 0.0395 0.40993 0.0
C623 C 0.63668 0.05518 0.41839 0.0
C624 C 0.58965 0.04195 0.3897 0.0
C625 C 0.62902 0.0601 0.3776 0.0
C626 C 0.67247 0.07702 0.38629 0.0
C627 C 0.67624 0.07457 0.40646 0.0
C628 C 0.64484 0.05138 0.32278 0.0
C629 C 0.61566 0.05789 0.31449 0.0
C630 C 0.6493 0.05238 0.3432 0.0
C631 C 0.6247 0.05992 0.35587 0.0
C632 C 0.5956 0.06657 0.34762 0.0
C633 C 0.59125 0.06569 0.32713 0.0
H634 H 0.51584 0.48584 0.779 0.0
H635 H 0.66108 0.53876 0.78511 0.0
H636 H 0.52715 0.49978 0.74399 0.0
H637 H 0.67212 0.55184 0.74985 0.0
H638 H 0.63698 0.50579 0.68205 0.0
H639 H 0.63531 0.50271 0.71784 0.0
H640 H 0.57728 0.56281 0.72257 0.0
H641 H 0.58118 0.56804 0.68687 0.0
C642 C 0.55019 0.5006 0.77283 0.0
C643 C 0.58755 0.51109 0.78465 0.0
C644 C 0.55668 0.50871 0.75288 0.0
C645 C 0.60046 0.52678 0.74431 0.0
C646 C 0.63802 0.53775 0.75617 0.0
C647 C 0.63174 0.53038 0.77627 0.0
C648 C 0.62495 0.51928 0.69065 0.0
C649 C 0.6089 0.53694 0.68141 0.0
C650 C 0.62386 0.51734 0.71116 0.0
C651 C 0.60601 0.5324 0.72285 0.0
C652 C 0.59083 0.55069 0.71379 0.0
C653 C 0.59272 0.55332 0.69333 0.0
H654 H 0.55166 0.064 0.54065 0.0
H655 H 0.64271 0.03558 0.52666 0.0
H656 H 0.56047 0.06011 0.57562 0.0
H657 H 0.65248 0.03233 0.56183 0.0
H658 H 0.6156 0.98967 0.6257 0.0
H659 H 0.60922 0.99342 0.59032 0.0
H660 H 0.61848 0.09519 0.60134 0.0
H661 H 0.62281 0.0905 0.63659 0.0
C662 C 0.57378 0.05706 0.54509 0.0
C663 C 0.59658 0.0501 0.53096 0.0
C664 C 0.57908 0.05507 0.56514 0.0
C665 C 0.60744 0.04617 0.57156 0.0
C666 C 0.63008 0.03896 0.55738 0.0
C667 C 0.62471 0.04097 0.53725 0.0
C668 C 0.61601 0.0127 0.62056 0.0
C669 C 0.61958 0.03971 0.63401 0.0
C670 C 0.61288 0.01511 0.60027 0.0
C671 C 0.61312 0.0445 0.593 0.0
C672 C 0.61754 0.07186 0.60644 0.0
C673 C 0.62063 0.06946 0.62667 0.0
H674 H 0.53991 0.48675 0.89572 0.0
H675 H 0.68751 0.54841 0.90089 0.0
H676 H 0.52809 0.45722 0.92701 0.0
H677 H 0.67582 0.51746 0.93173 0.0
H678 H 0.64402 0.49129 -0.00322 0.0
H679 H 0.65727 0.51825 0.96475 0.0
H680 H 0.52847 0.41176 0.94325 0.0
H681 H 0.51344 0.38591 0.97585 0.0
C682 C 0.56979 0.49373 0.90354 0.0
C683 C 0.61464 0.52011 0.89605 0.0
C684 C 0.56304 0.47649 0.92138 0.0
C685 C 0.60097 0.4848 0.93198 0.0
C686 C 0.64584 0.51086 0.92422 0.0
C687 C 0.65261 0.52854 0.90652 0.0
C688 C 0.61825 0.47367 0.98529 0.0
C689 C 0.57727 0.43659 0.98906 0.0
C690 C 0.62624 0.48897 0.96675 0.0
C691 C 0.59382 0.46737 0.95134 0.0
C692 C 0.55379 0.4296 0.95485 0.0
C693 C 0.5455 0.41448 0.9735 0.0
H694 H 0.11419 0.58689 0.21011 0.0
H695 H 0.07978 0.47391 0.20886 0.0
H696 H 0.10812 0.58637 0.24606 0.0
H697 H 0.07428 0.47352 0.24473 0.0
H698 H 1.02866 0.47084 0.30792 0.0
H699 H 1.02697 0.47125 0.27197 0.0
H700 H 0.15256 0.58951 0.27388 0.0
H701 H 0.15359 0.58939 0.30976 0.0
C702 C 0.10523 0.56194 0.21754 0.0
C703 C 0.09768 0.53053 0.20677 0.0
C704 C 0.10193 0.56169 0.23809 0.0
C705 C 0.09078 0.52992 0.24823 0.0
C706 C 0.0824 0.49822 0.23735 0.0
C707 C 0.08591 0.49857 0.21683 0.0
C708 C 1.05551 0.49705 0.30066 0.0
C709 C 0.09141 0.53 0.31164 0.0
C710 C 1.05478 0.49719 0.28008 0.0
C711 C 0.08974 0.53037 0.2701 0.0
C712 C 0.12492 0.56361 0.28114 0.0
C713 C 0.1258 0.5634 0.30167 0.0
loop_
_geom_bond_atom_site_label_1
_geom_bond_atom_site_label_2
_geom_bond_distance
_geom_bond_site_symmetry_2
_ccdc_geom_bond_type
Sm0 C2 2.846 . S
Sm0 O20 2.543 . S
Sm0 O21 2.450 . S
Sm0 O22 2.681 . S
Sm0 O23 2.464 . S
Sm0 O24 2.396 . S
Sm0 O28 2.386 . S
Sm0 O31 2.408 1_455 S
Sm1 C11 2.846 . S
Sm1 O22 2.386 1_655 S
Sm1 O25 2.408 1_655 S
Sm1 O26 2.543 . S
Sm1 O27 2.450 . S
Sm1 O28 2.681 1_655 S
Sm1 O29 2.464 1_655 S
Sm1 O30 2.396 . S
C2 Sm0 2.846 . S
C2 C3 1.506 . S
C2 O20 1.261 . S
C2 O21 1.242 . S
C3 C2 1.506 . S
C3 C4 1.358 . S
C3 C8 1.382 . S
C4 C3 1.358 . S
C4 C5 1.385 . S
C4 H32 0.930 . S
C5 C4 1.385 . S
C5 C6 1.395 . S
C5 H33 0.929 . S
C6 C5 1.395 . S
C6 C7 1.335 . S
C7 C6 1.335 . S
C7 C8 1.398 . S
C7 H34 0.930 . S
C8 C3 1.382 . S
C8 C7 1.398 . S
C8 H35 0.929 . S
C9 O22 1.271 . S
C9 O23 1.251 . S
C10 O24 1.252 . S
C10 O25 1.272 . S
C11 Sm1 2.846 . S
C11 C12 1.506 . S
C11 O26 1.261 . S
C11 O27 1.242 . S
C12 C11 1.506 . S
C12 C13 1.358 . S
C12 C17 1.382 . S
C13 C12 1.358 . S
C13 C14 1.385 . S
C13 H36 0.930 . S
C14 C13 1.385 . S
C14 C15 1.395 . S
C14 H37 0.929 . S
C15 C14 1.395 . S
C15 C16 1.335 . S
C16 C15 1.335 . S
C16 C17 1.398 . S
C16 H38 0.930 . S
C17 C12 1.382 . S
C17 C16 1.398 . S
C17 H39 0.929 . S
C18 O28 1.271 . S
C18 O29 1.248 . S
C19 O30 1.252 . S
C19 O31 1.272 . S
O20 Sm0 2.543 . S
O20 C2 1.261 . S
O21 Sm0 2.450 . S
O21 C2 1.242 . S
O22 Sm0 2.681 . S
O22 Sm1 2.386 1_455 S
O22 C9 1.271 . S
O23 Sm0 2.464 . S
O23 C9 1.251 . S
O24 Sm0 2.396 . S
O24 C10 1.252 . S
O25 Sm1 2.408 1_455 S
O25 C10 1.272 . S
O26 Sm1 2.543 . S
O26 C11 1.261 . S
O27 Sm1 2.450 . S
O27 C11 1.242 . S
O28 Sm0 2.386 . S
O28 Sm1 2.681 1_455 S
O28 C18 1.271 . S
O29 Sm1 2.464 1_455 S
O29 C18 1.248 . S
O30 Sm1 2.396 . S
O30 C19 1.252 . S
O31 Sm0 2.408 1_655 S
O31 C19 1.272 . S
H32 C4 0.930 . S
H33 C5 0.929 . S
H34 C7 0.930 . S
H35 C8 0.929 . S
H36 C13 0.930 . S
H37 C14 0.929 . S
H38 C16 0.930 . S
H39 C17 0.929 . S
Sm40 C42 2.846 . S
Sm40 O60 2.543 . S
Sm40 O61 2.450 . S
Sm40 O62 2.681 1_565 S
Sm40 O63 2.464 . S
Sm40 O64 2.396 . S
Sm40 O68 2.385 . S
Sm40 O71 2.408 1_565 S
Sm41 C51 2.846 . S
Sm41 O62 2.386 . S
Sm41 O65 2.408 1_545 S
Sm41 O66 2.543 . S
Sm41 O67 2.450 . S
Sm41 O68 2.684 1_545 S
Sm41 O69 2.464 . S
Sm41 O70 2.396 . S
C42 Sm40 2.846 . S
C42 C43 1.506 . S
C42 O60 1.261 . S
C42 O61 1.242 . S
C43 C42 1.506 . S
C43 C44 1.358 . S
C43 C48 1.382 . S
C44 C43 1.358 . S
C44 C45 1.385 . S
C44 H72 0.930 . S
C45 C44 1.385 . S
C45 C46 1.395 . S
C45 H73 0.929 . S
C46 C45 1.395 . S
C46 C47 1.335 . S
C47 C46 1.335 . S
C47 C48 1.398 . S
C47 H74 0.930 . S
C48 C43 1.382 . S
C48 C47 1.398 . S
C48 H75 0.929 . S
C49 O62 1.271 . S
C49 O63 1.251 1_545 S
C50 O64 1.252 . S
C50 O65 1.272 . S
C51 Sm41 2.846 . S
C51 C52 1.506 . S
C51 O66 1.261 . S
C51 O67 1.242 . S
C52 C51 1.506 . S
C52 C53 1.358 . S
C52 C57 1.382 . S
C53 C52 1.358 . S
C53 C54 1.385 . S
C53 H76 0.930 . S
C54 C53 1.385 . S
C54 C55 1.395 . S
C54 H77 0.929 . S
C55 C54 1.395 . S
C55 C56 1.335 . S
C56 C55 1.335 . S
C56 C57 1.398 . S
C56 H78 0.930 . S
C57 C52 1.382 . S
C57 C56 1.398 . S
C57 H79 0.929 . S
C58 O68 1.273 1_545 S
C58 O69 1.251 . S
C59 O70 1.252 . S
C59 O71 1.272 . S
O60 Sm40 2.543 . S
O60 C42 1.261 . S
O61 Sm40 2.450 . S
O61 C42 1.242 . S
O62 Sm40 2.681 1_545 S
O62 Sm41 2.386 . S
O62 C49 1.271 . S
O63 Sm40 2.464 . S
O63 C49 1.251 1_565 S
O64 Sm40 2.396 . S
O64 C50 1.252 . S
O65 Sm41 2.408 1_565 S
O65 C50 1.272 . S
O66 Sm41 2.543 . S
O66 C51 1.261 . S
O67 Sm41 2.450 . S
O67 C51 1.242 . S
O68 Sm40 2.385 . S
O68 Sm41 2.684 1_565 S
O68 C58 1.273 1_565 S
O69 Sm41 2.464 . S
O69 C58 1.251 . S
O70 Sm41 2.396 . S
O70 C59 1.252 . S
O71 Sm40 2.408 1_545 S
O71 C59 1.272 . S
H72 C44 0.930 . S
H73 C45 0.929 . S
H74 C47 0.930 . S
H75 C48 0.929 . S
H76 C53 0.930 . S
H77 C54 0.929 . S
H78 C56 0.930 . S
H79 C57 0.929 . S
Sm80 C82 2.846 . S
Sm80 O100 2.543 . S
Sm80 O101 2.450 . S
Sm80 O102 2.681 . S
Sm80 O103 2.464 . S
Sm80 O104 2.396 . S
Sm80 O108 2.386 . S
Sm80 O111 2.408 . S
Sm81 C91 2.846 . S
Sm81 O102 2.386 . S
Sm81 O105 2.408 . S
Sm81 O106 2.543 . S
Sm81 O107 2.450 . S
Sm81 O108 2.681 . S
Sm81 O109 2.464 . S
Sm81 O110 2.396 . S
C82 Sm80 2.846 . S
C82 C83 1.506 . S
C82 O100 1.261 . S
C82 O101 1.242 . S
C83 C82 1.506 . S
C83 C84 1.358 . S
C83 C88 1.382 . S
C84 C83 1.358 . S
C84 C85 1.385 . S
C84 H112 0.930 . S
C85 C84 1.385 . S
C85 C86 1.395 . S
C85 H113 0.929 . S
C86 C85 1.395 . S
C86 C87 1.335 . S
C87 C86 1.335 . S
C87 C88 1.398 . S
C87 H114 0.930 . S
C88 C83 1.382 . S
C88 C87 1.398 . S
C88 H115 0.929 . S
C89 O102 1.271 . S
C89 O103 1.251 . S
C90 O104 1.252 . S
C90 O105 1.272 . S
C91 Sm81 2.846 . S
C91 C92 1.506 . S
C91 O106 1.261 . S
C91 O107 1.242 . S
C92 C91 1.506 . S
C92 C93 1.358 . S
C92 C97 1.382 . S
C93 C92 1.358 . S
C93 C94 1.385 . S
C93 H116 0.930 . S
C94 C93 1.385 . S
C94 C95 1.395 . S
C94 H117 0.929 . S
C95 C94 1.395 . S
C95 C96 1.335 . S
C96 C95 1.335 . S
C96 C97 1.398 . S
C96 H118 0.930 . S
C97 C92 1.382 . S
C97 C96 1.398 . S
C97 H119 0.929 . S
C98 O108 1.271 . S
C98 O109 1.251 . S
C99 O110 1.252 . S
C99 O111 1.272 . S
O100 Sm80 2.543 . S
O100 C82 1.261 . S
O101 Sm80 2.450 . S
O101 C82 1.242 . S
O102 Sm80 2.681 . S
O102 Sm81 2.386 . S
O102 C89 1.271 . S
O103 Sm80 2.464 . S
O103 C89 1.251 . S
O104 Sm80 2.396 . S
O104 C90 1.252 . S
O105 Sm81 2.408 . S
O105 C90 1.272 . S
O106 Sm81 2.543 . S
O106 C91 1.261 . S
O107 Sm81 2.450 . S
O107 C91 1.242 . S
O108 Sm80 2.386 . S
O108 Sm81 2.681 . S
O108 C98 1.271 . S
O109 Sm81 2.464 . S
O109 C98 1.251 . S
O110 Sm81 2.396 . S
O110 C99 1.252 . S
O111 Sm80 2.408 . S
O111 C99 1.272 . S
H112 C84 0.930 . S
H113 C85 0.929 . S
H114 C87 0.930 . S
H115 C88 0.929 . S
H116 C93 0.930 . S
H117 C94 0.929 . S
H118 C96 0.930 . S
H119 C97 0.929 . S
C120 C121 1.386 . S
C120 C122 1.397 . S
C120 H144 0.931 . S
C121 C120 1.386 . S
C121 C125 1.397 1_545 S
C122 C120 1.397 . S
C122 C123 1.384 . S
C122 H145 0.930 . S
C123 C122 1.384 . S
C123 C124 1.377 1_545 S
C123 C126 1.481 . S
C124 C123 1.377 1_565 S
C124 C125 1.389 . S
C124 H146 0.929 . S
C125 C121 1.397 1_565 S
C125 C124 1.389 . S
C125 H147 0.931 . S
C126 C123 1.481 . S
C126 C127 1.387 . S
C126 C131 1.390 1_545 S
C127 C126 1.387 . S
C127 C128 1.401 . S
C127 H148 0.930 . S
C128 C127 1.401 . S
C128 C129 1.376 . S
C128 C137 1.511 . S
C129 C128 1.376 . S
C129 C130 1.392 1_545 S
C129 H150 0.931 . S
C130 C129 1.392 1_565 S
C130 C131 1.361 . S
C130 C132 1.500 . S
C131 C126 1.390 1_565 S
C131 C130 1.361 . S
C131 H149 0.931 . S
C132 C130 1.500 . S
C132 C133 1.371 . S
C132 C134 1.365 . S
C133 C132 1.371 . S
C133 C143 1.386 . S
C133 H151 0.931 . S
C134 C132 1.365 . S
C134 C135 1.409 . S
C134 H152 0.929 . S
C135 C134 1.409 . S
C135 C136 1.380 . S
C135 H153 0.930 . S
C136 C135 1.380 . S
C136 C143 1.357 . S
C137 C128 1.511 . S
C137 C138 1.341 . S
C137 C139 1.371 . S
C138 C137 1.341 . S
C138 C142 1.394 . S
C138 H154 0.930 . S
C139 C137 1.371 . S
C139 C140 1.392 . S
C139 H155 0.931 . S
C140 C139 1.392 . S
C140 C141 1.331 . S
C140 H158 0.932 . S
C141 C140 1.331 . S
C141 C142 1.336 . S
C142 C138 1.394 . S
C142 C141 1.336 . S
C142 H157 0.929 . S
C143 C133 1.386 . S
C143 C136 1.357 . S
C143 H156 0.928 . S
H144 C120 0.931 . S
H145 C122 0.930 . S
H146 C124 0.929 . S
H147 C125 0.931 . S
H148 C127 0.930 . S
H149 C131 0.931 . S
H150 C129 0.931 . S
H151 C133 0.931 . S
H152 C134 0.929 . S
H153 C135 0.930 . S
H154 C138 0.930 . S
H155 C139 0.931 . S
H156 C143 0.928 . S
H157 C142 0.929 . S
H158 C140 0.932 . S
C159 C160 1.386 . S
C159 C161 1.397 . S
C159 H183 0.931 . S
C160 C159 1.386 . S
C160 C164 1.397 . S
C161 C159 1.397 . S
C161 C162 1.384 . S
C161 H184 0.930 . S
C162 C161 1.384 . S
C162 C163 1.377 . S
C162 C165 1.481 . S
C163 C162 1.377 . S
C163 C164 1.389 . S
C163 H185 0.929 . S
C164 C160 1.397 . S
C164 C163 1.389 . S
C164 H186 0.931 . S
C165 C162 1.481 . S
C165 C166 1.387 . S
C165 C170 1.390 . S
C166 C165 1.387 . S
C166 C167 1.401 . S
C166 H187 0.930 . S
C167 C166 1.401 . S
C167 C168 1.376 . S
C167 C176 1.511 . S
C168 C167 1.376 . S
C168 C169 1.392 . S
C168 H189 0.931 . S
C169 C168 1.392 . S
C169 C170 1.361 . S
C169 C171 1.500 . S
C170 C165 1.390 . S
C170 C169 1.361 . S
C170 H188 0.931 . S
C171 C169 1.500 . S
C171 C172 1.371 . S
C171 C173 1.365 . S
C172 C171 1.371 . S
C172 C182 1.386 . S
C172 H190 0.931 . S
C173 C171 1.365 . S
C173 C174 1.409 . S
C173 H191 0.929 . S
C174 C173 1.409 . S
C174 C175 1.380 . S
C174 H192 0.930 . S
C175 C174 1.380 . S
C175 C182 1.357 . S
C176 C167 1.511 . S
C176 C177 1.341 . S
C176 C178 1.371 . S
C177 C176 1.341 . S
C177 C181 1.394 . S
C177 H193 0.930 . S
C178 C176 1.371 . S
C178 C179 1.392 . S
C178 H194 0.931 . S
C179 C178 1.392 . S
C179 C180 1.331 . S
C179 H197 0.932 . S
C180 C179 1.331 . S
C180 C181 1.336 . S
C181 C177 1.394 . S
C181 C180 1.336 . S
C181 H196 0.929 . S
C182 C172 1.386 . S
C182 C175 1.357 . S
C182 H195 0.928 . S
H183 C159 0.931 . S
H184 C161 0.930 . S
H185 C163 0.929 . S
H186 C164 0.931 . S
H187 C166 0.930 . S
H188 C170 0.931 . S
H189 C168 0.931 . S
H190 C172 0.931 . S
H191 C173 0.929 . S
H192 C174 0.930 . S
H193 C177 0.930 . S
H194 C178 0.931 . S
H195 C182 0.928 . S
H196 C181 0.929 . S
H197 C179 0.932 . S
C198 C199 1.386 . S
C198 C200 1.397 . S
C198 H222 0.931 . S
C199 C198 1.386 . S
C199 C203 1.397 . S
C200 C198 1.397 . S
C200 C201 1.384 . S
C200 H223 0.930 . S
C201 C200 1.384 . S
C201 C202 1.377 . S
C201 C204 1.481 . S
C202 C201 1.377 . S
C202 C203 1.389 . S
C202 H224 0.929 1_455 S
C203 C199 1.397 . S
C203 C202 1.389 . S
C203 H225 0.931 1_455 S
C204 C201 1.481 . S
C204 C205 1.387 . S
C204 C209 1.390 . S
C205 C204 1.387 . S
C205 C206 1.401 . S
C205 H226 0.930 . S
C206 C205 1.401 . S
C206 C207 1.376 . S
C206 C215 1.511 . S
C207 C206 1.376 . S
C207 C208 1.392 . S
C207 H228 0.931 . S
C208 C207 1.392 . S
C208 C209 1.361 . S
C208 C210 1.500 1_455 S
C209 C204 1.390 . S
C209 C208 1.361 . S
C209 H227 0.931 1_455 S
C210 C208 1.500 1_655 S
C210 C211 1.371 . S
C210 C212 1.365 . S
C211 C210 1.371 . S
C211 C221 1.386 . S
C211 H229 0.931 1_655 S
C212 C210 1.365 . S
C212 C213 1.409 . S
C212 H230 0.929 . S
C213 C212 1.409 . S
C213 C214 1.380 . S
C213 H231 0.930 . S
C214 C213 1.380 . S
C214 C221 1.357 . S
C215 C206 1.511 . S
C215 C216 1.341 . S
C215 C217 1.371 . S
C216 C215 1.341 . S
C216 C220 1.394 . S
C216 H232 0.930 . S
C217 C215 1.371 . S
C217 C218 1.392 . S
C217 H233 0.931 . S
C218 C217 1.392 . S
C218 C219 1.331 . S
C218 H236 0.932 . S
C219 C218 1.331 . S
C219 C220 1.336 . S
C220 C216 1.394 . S
C220 C219 1.336 . S
C220 H235 0.929 . S
C221 C211 1.386 . S
C221 C214 1.357 . S
C221 H234 0.928 . S
H222 C198 0.931 . S
H223 C200 0.930 . S
H224 C202 0.929 1_655 S
H225 C203 0.931 1_655 S
H226 C205 0.930 . S
H227 C209 0.931 1_655 S
H228 C207 0.931 . S
H229 C211 0.931 1_455 S
H230 C212 0.929 . S
H231 C213 0.930 . S
H232 C216 0.930 . S
H233 C217 0.931 . S
H234 C221 0.928 . S
H235 C220 0.929 . S
H236 C218 0.932 . S
C237 C238 1.399 . S
C237 C239 1.397 . S
C237 H261 0.931 . S
C238 C237 1.399 . S
C238 C242 1.385 1_655 S
C239 C237 1.397 . S
C239 C240 1.384 . S
C239 H262 0.930 . S
C240 C239 1.384 . S
C240 C241 1.377 1_655 S
C240 C243 1.481 . S
C241 C240 1.377 1_455 S
C241 C242 1.389 . S
C241 H263 0.929 . S
C242 C238 1.385 1_455 S
C242 C241 1.389 . S
C242 H264 0.931 . S
C243 C240 1.481 . S
C243 C244 1.387 . S
C243 C248 1.390 1_655 S
C244 C243 1.387 . S
C244 C245 1.401 . S
C244 H265 0.930 . S
C245 C244 1.401 . S
C245 C246 1.376 . S
C245 C254 1.511 . S
C246 C245 1.376 . S
C246 C247 1.392 1_655 S
C246 H267 0.931 . S
C247 C246 1.392 1_455 S
C247 C248 1.361 . S
C247 C249 1.500 . S
C248 C243 1.390 1_455 S
C248 C247 1.361 . S
C248 H266 0.931 . S
C249 C247 1.500 . S
C249 C250 1.371 . S
C249 C251 1.365 . S
C250 C249 1.371 . S
C250 C260 1.386 . S
C250 H268 0.931 . S
C251 C249 1.365 . S
C251 C252 1.409 . S
C251 H269 0.929 . S
C252 C251 1.409 . S
C252 C253 1.380 . S
C252 H270 0.930 . S
C253 C252 1.380 . S
C253 C260 1.357 . S
C254 C245 1.511 . S
C254 C255 1.341 . S
C254 C256 1.371 . S
C255 C254 1.341 . S
C255 C259 1.394 . S
C255 H271 0.930 . S
C256 C254 1.371 . S
C256 C257 1.392 . S
C256 H272 0.931 . S
C257 C256 1.392 . S
C257 C258 1.331 . S
C257 H275 0.932 . S
C258 C257 1.331 . S
C258 C259 1.336 . S
C259 C255 1.394 . S
C259 C258 1.336 . S
C259 H274 0.929 . S
C260 C250 1.386 . S
C260 C253 1.357 . S
C260 H273 0.928 . S
H261 C237 0.931 . S
H262 C239 0.930 . S
H263 C241 0.929 . S
H264 C242 0.931 . S
H265 C244 0.930 . S
H266 C248 0.931 . S
H267 C246 0.931 . S
H268 C250 0.931 . S
H269 C251 0.929 . S
H270 C252 0.930 . S
H271 C255 0.930 . S
H272 C256 0.931 . S
H273 C260 0.928 . S
H274 C259 0.929 . S
H275 C257 0.932 . S
C276 C277 1.386 . S
C276 C278 1.397 . S
C276 H300 0.931 . S
C277 C276 1.386 . S
C277 C281 1.397 1_565 S
C278 C276 1.397 . S
C278 C279 1.384 . S
C278 H301 0.930 . S
C279 C278 1.384 . S
C279 C280 1.377 1_565 S
C279 C282 1.481 1_565 S
C280 C279 1.377 1_545 S
C280 C281 1.389 . S
C280 H302 0.929 . S
C281 C277 1.397 1_545 S
C281 C280 1.389 . S
C281 H303 0.931 . S
C282 C279 1.481 1_545 S
C282 C283 1.383 1_545 S
C282 C287 1.395 . S
C283 C282 1.383 1_565 S
C283 C284 1.401 . S
C283 H304 0.930 . S
C284 C283 1.401 . S
C284 C285 1.376 1_565 S
C284 C293 1.511 . S
C285 C284 1.376 1_545 S
C285 C286 1.392 . S
C285 H306 0.931 . S
C286 C285 1.392 . S
C286 C287 1.361 . S
C286 C288 1.500 . S
C287 C282 1.395 . S
C287 C286 1.361 . S
C287 H305 0.931 . S
C288 C286 1.500 . S
C288 C289 1.371 . S
C288 C290 1.365 . S
C289 C288 1.371 . S
C289 C299 1.386 . S
C289 H307 0.931 . S
C290 C288 1.365 . S
C290 C291 1.409 . S
C290 H308 0.929 . S
C291 C290 1.409 . S
C291 C292 1.380 . S
C291 H309 0.930 . S
C292 C291 1.380 . S
C292 C299 1.357 . S
C293 C284 1.511 . S
C293 C294 1.341 . S
C293 C295 1.371 . S
C294 C293 1.341 . S
C294 C298 1.394 . S
C294 H310 0.930 . S
C295 C293 1.371 . S
C295 C296 1.392 . S
C295 H311 0.931 . S
C296 C295 1.392 . S
C296 C297 1.331 . S
C296 H314 0.932 . S
C297 C296 1.331 . S
C297 C298 1.336 . S
C298 C294 1.394 . S
C298 C297 1.336 . S
C298 H313 0.929 . S
C299 C289 1.386 . S
C299 C292 1.357 . S
C299 H312 0.928 . S
H300 C276 0.931 . S
H301 C278 0.930 . S
H302 C280 0.929 . S
H303 C281 0.931 . S
H304 C283 0.930 . S
H305 C287 0.931 . S
H306 C285 0.931 . S
H307 C289 0.931 . S
H308 C290 0.929 . S
H309 C291 0.930 . S
H310 C294 0.930 . S
H311 C295 0.931 . S
H312 C299 0.928 . S
H313 C298 0.929 . S
H314 C296 0.932 . S
C315 C316 1.386 . S
C315 C317 1.397 . S
C315 H339 0.931 . S
C316 C315 1.386 . S
C316 C320 1.397 . S
C317 C315 1.397 . S
C317 C318 1.384 . S
C317 H340 0.930 . S
C318 C317 1.384 . S
C318 C319 1.377 . S
C318 C321 1.481 . S
C319 C318 1.377 . S
C319 C320 1.389 . S
C319 H341 0.929 . S
C320 C316 1.397 . S
C320 C319 1.389 . S
C320 H342 0.931 . S
C321 C318 1.481 . S
C321 C322 1.387 . S
C321 C326 1.390 . S
C322 C321 1.387 . S
C322 C323 1.401 . S
C322 H343 0.930 . S
C323 C322 1.401 . S
C323 C324 1.376 . S
C323 C332 1.511 . S
C324 C323 1.376 . S
C324 C325 1.392 . S
C324 H345 0.931 . S
C325 C324 1.392 . S
C325 C326 1.361 . S
C325 C327 1.500 . S
C326 C321 1.390 . S
C326 C325 1.361 . S
C326 H344 0.931 . S
C327 C325 1.500 . S
C327 C328 1.371 . S
C327 C329 1.365 . S
C328 C327 1.371 . S
C328 C338 1.386 . S
C328 H346 0.931 . S
C329 C327 1.365 . S
C329 C330 1.409 . S
C329 H347 0.929 . S
C330 C329 1.409 . S
C330 C331 1.380 . S
C330 H348 0.930 . S
C331 C330 1.380 . S
C331 C338 1.357 . S
C332 C323 1.511 . S
C332 C333 1.341 . S
C332 C334 1.371 . S
C333 C332 1.341 . S
C333 C337 1.394 . S
C333 H349 0.930 . S
C334 C332 1.371 . S
C334 C335 1.392 . S
C334 H350 0.931 . S
C335 C334 1.392 . S
C335 C336 1.331 . S
C335 H353 0.932 . S
C336 C335 1.331 . S
C336 C337 1.336 . S
C337 C333 1.394 . S
C337 C336 1.336 . S
C337 H352 0.929 . S
C338 C328 1.386 . S
C338 C331 1.357 . S
C338 H351 0.928 . S
H339 C315 0.931 . S
H340 C317 0.930 . S
H341 C319 0.929 . S
H342 C320 0.931 . S
H343 C322 0.930 . S
H344 C326 0.931 . S
H345 C324 0.931 . S
H346 C328 0.931 . S
H347 C329 0.929 . S
H348 C330 0.930 . S
H349 C333 0.930 . S
H350 C334 0.931 . S
H351 C338 0.928 . S
H352 C337 0.929 . S
H353 C335 0.932 . S
H354 C362 0.950 . S
H355 C367 0.950 . S
H356 C364 0.950 . S
H357 C366 0.950 . S
H358 C368 0.950 . S
H359 C370 0.950 . S
H360 C372 0.950 . S
H361 C373 0.950 . S
C362 H354 0.950 . S
C362 C363 1.386 . S
C362 C364 1.391 . S
C363 C362 1.386 . S
C363 C367 1.393 . S
C364 H356 0.950 . S
C364 C362 1.391 . S
C364 C365 1.400 . S
C365 C364 1.400 . S
C365 C366 1.398 . S
C365 C371 1.491 . S
C366 H357 0.950 . S
C366 C365 1.398 . S
C366 C367 1.391 . S
C367 H355 0.950 . S
C367 C363 1.393 . S
C367 C366 1.391 . S
C368 H358 0.950 . S
C368 C369 1.386 . S
C368 C370 1.391 . S
C369 C368 1.386 . S
C369 C373 1.393 . S
C370 H359 0.950 . S
C370 C368 1.391 . S
C370 C371 1.400 . S
C371 C365 1.491 . S
C371 C370 1.400 . S
C371 C372 1.398 . S
C372 H360 0.950 . S
C372 C371 1.398 . S
C372 C373 1.391 . S
C373 H361 0.950 . S
C373 C369 1.393 . S
C373 C372 1.391 . S
H374 C382 0.950 . S
H375 C387 0.950 . S
H376 C384 0.950 . S
H377 C386 0.950 . S
H378 C388 0.950 . S
H379 C390 0.950 . S
H380 C392 0.950 . S
H381 C393 0.950 . S
C382 H374 0.950 . S
C382 C383 1.386 . S
C382 C384 1.391 . S
C383 C382 1.386 . S
C383 C387 1.393 . S
C384 H376 0.950 . S
C384 C382 1.391 . S
C384 C385 1.400 . S
C385 C384 1.400 . S
C385 C386 1.398 . S
C385 C391 1.491 . S
C386 H377 0.950 . S
C386 C385 1.398 . S
C386 C387 1.391 . S
C387 H375 0.950 . S
C387 C383 1.393 . S
C387 C386 1.391 . S
C388 H378 0.950 . S
C388 C389 1.386 . S
C388 C390 1.391 . S
C389 C388 1.386 . S
C389 C393 1.393 . S
C390 H379 0.950 . S
C390 C388 1.391 . S
C390 C391 1.400 . S
C391 C385 1.491 . S
C391 C390 1.400 . S
C391 C392 1.398 . S
C392 H380 0.950 . S
C392 C391 1.398 . S
C392 C393 1.391 . S
C393 H381 0.950 . S
C393 C389 1.393 . S
C393 C392 1.391 . S
H394 C402 0.950 . S
H395 C407 0.950 . S
H396 C404 0.950 . S
H397 C406 0.950 . S
H398 C408 0.950 . S
H399 C410 0.950 . S
H400 C412 0.950 . S
H401 C413 0.950 . S
C402 H394 0.950 . S
C402 C403 1.386 . S
C402 C404 1.391 . S
C403 C402 1.386 . S
C403 C407 1.393 . S
C404 H396 0.950 . S
C404 C402 1.391 . S
C404 C405 1.400 . S
C405 C404 1.400 . S
C405 C406 1.398 . S
C405 C411 1.491 . S
C406 H397 0.950 . S
C406 C405 1.398 . S
C406 C407 1.391 . S
C407 H395 0.950 . S
C407 C403 1.393 . S
C407 C406 1.391 . S
C408 H398 0.950 . S
C408 C409 1.386 . S
C408 C410 1.391 . S
C409 C408 1.386 . S
C409 C413 1.393 . S
C410 H399 0.950 . S
C410 C408 1.391 . S
C410 C411 1.400 . S
C411 C405 1.491 . S
C411 C410 1.400 . S
C411 C412 1.398 . S
C412 H400 0.950 . S
C412 C411 1.398 . S
C412 C413 1.391 . S
C413 H401 0.950 . S
C413 C409 1.393 . S
C413 C412 1.391 . S
H414 C422 0.950 . S
H415 C427 0.950 . S
H416 C424 0.950 . S
H417 C426 0.950 . S
H418 C428 0.950 . S
H419 C430 0.950 . S
H420 C432 0.950 . S
H421 C433 0.950 . S
C422 H414 0.950 . S
C422 C423 1.386 . S
C422 C424 1.391 . S
C423 C422 1.386 . S
C423 C427 1.393 . S
C424 H416 0.950 . S
C424 C422 1.391 . S
C424 C425 1.400 . S
C425 C424 1.400 . S
C425 C426 1.398 . S
C425 C431 1.491 . S
C426 H417 0.950 . S
C426 C425 1.398 . S
C426 C427 1.391 . S
C427 H415 0.950 . S
C427 C423 1.393 . S
C427 C426 1.391 . S
C428 H418 0.950 . S
C428 C429 1.386 . S
C428 C430 1.391 . S
C429 C428 1.386 . S
C429 C433 1.393 . S
C430 H419 0.950 . S
C430 C428 1.391 . S
C430 C431 1.400 . S
C431 C425 1.491 . S
C431 C430 1.400 . S
C431 C432 1.398 . S
C432 H420 0.950 . S
C432 C431 1.398 . S
C432 C433 1.391 . S
C433 H421 0.950 . S
C433 C429 1.393 . S
C433 C432 1.391 . S
H434 C442 0.950 . S
H435 C447 0.950 . S
H436 C444 0.950 . S
H437 C446 0.950 . S
H438 C448 0.950 . S
H439 C450 0.950 . S
H440 C452 0.950 . S
H441 C453 0.950 . S
C442 H434 0.950 . S
C442 C443 1.386 . S
C442 C444 1.391 . S
C443 C442 1.386 . S
C443 C447 1.393 . S
C444 H436 0.950 . S
C444 C442 1.391 . S
C444 C445 1.400 . S
C445 C444 1.400 . S
C445 C446 1.398 . S
C445 C451 1.491 . S
C446 H437 0.950 . S
C446 C445 1.398 . S
C446 C447 1.391 . S
C447 H435 0.950 . S
C447 C443 1.393 . S
C447 C446 1.391 . S
C448 H438 0.950 . S
C448 C449 1.386 . S
C448 C450 1.391 . S
C449 C448 1.386 . S
C449 C453 1.393 . S
C450 H439 0.950 . S
C450 C448 1.391 . S
C450 C451 1.400 . S
C451 C445 1.491 . S
C451 C450 1.400 . S
C451 C452 1.398 . S
C452 H440 0.950 . S
C452 C451 1.398 . S
C452 C453 1.391 . S
C453 H441 0.950 . S
C453 C449 1.393 . S
C453 C452 1.391 . S
H454 C462 0.950 . S
H455 C467 0.950 . S
H456 C464 0.950 . S
H457 C466 0.950 . S
H458 C468 0.950 . S
H459 C470 0.950 . S
H460 C472 0.950 . S
H461 C473 0.950 . S
C462 H454 0.950 . S
C462 C463 1.386 . S
C462 C464 1.391 . S
C463 C462 1.386 . S
C463 C467 1.393 . S
C464 H456 0.950 . S
C464 C462 1.391 . S
C464 C465 1.400 . S
C465 C464 1.400 . S
C465 C466 1.398 . S
C465 C471 1.491 . S
C466 H457 0.950 . S
C466 C465 1.398 . S
C466 C467 1.391 . S
C467 H455 0.950 . S
C467 C463 1.393 . S
C467 C466 1.391 . S
C468 H458 0.950 . S
C468 C469 1.386 . S
C468 C470 1.391 . S
C469 C468 1.386 . S
C469 C473 1.393 . S
C470 H459 0.950 . S
C470 C468 1.391 . S
C470 C471 1.400 . S
C471 C465 1.491 . S
C471 C470 1.400 . S
C471 C472 1.398 . S
C472 H460 0.950 . S
C472 C471 1.398 . S
C472 C473 1.391 . S
C473 H461 0.950 . S
C473 C469 1.393 . S
C473 C472 1.391 . S
H474 C482 0.950 . S
H475 C487 0.950 . S
H476 C484 0.950 . S
H477 C486 0.950 . S
H478 C488 0.950 . S
H479 C490 0.950 . S
H480 C492 0.950 . S
H481 C493 0.950 . S
C482 H474 0.950 . S
C482 C483 1.386 . S
C482 C484 1.391 . S
C483 C482 1.386 . S
C483 C487 1.393 . S
C484 H476 0.950 . S
C484 C482 1.391 . S
C484 C485 1.400 . S
C485 C484 1.400 . S
C485 C486 1.398 . S
C485 C491 1.491 . S
C486 H477 0.950 . S
C486 C485 1.398 . S
C486 C487 1.391 . S
C487 H475 0.950 . S
C487 C483 1.393 . S
C487 C486 1.391 . S
C488 H478 0.950 . S
C488 C489 1.386 . S
C488 C490 1.391 . S
C489 C488 1.386 . S
C489 C493 1.393 . S
C490 H479 0.950 . S
C490 C488 1.391 . S
C490 C491 1.400 . S
C491 C485 1.491 . S
C491 C490 1.400 . S
C491 C492 1.398 . S
C492 H480 0.950 . S
C492 C491 1.398 . S
C492 C493 1.391 . S
C493 H481 0.950 . S
C493 C489 1.393 . S
C493 C492 1.391 . S
H494 C502 0.950 . S
H495 C507 0.950 . S
H496 C504 0.950 . S
H497 C506 0.950 . S
H498 C508 0.950 . S
H499 C510 0.950 . S
H500 C512 0.950 . S
H501 C513 0.950 . S
C502 H494 0.950 . S
C502 C503 1.386 . S
C502 C504 1.391 . S
C503 C502 1.386 . S
C503 C507 1.393 . S
C504 H496 0.950 . S
C504 C502 1.391 . S
C504 C505 1.400 . S
C505 C504 1.400 . S
C505 C506 1.398 . S
C505 C511 1.491 . S
C506 H497 0.950 . S
C506 C505 1.398 . S
C506 C507 1.391 . S
C507 H495 0.950 . S
C507 C503 1.393 . S
C507 C506 1.391 . S
C508 H498 0.950 . S
C508 C509 1.386 . S
C508 C510 1.391 . S
C509 C508 1.386 . S
C509 C513 1.393 . S
C510 H499 0.950 . S
C510 C508 1.391 . S
C510 C511 1.400 . S
C511 C505 1.491 . S
C511 C510 1.400 . S
C511 C512 1.398 . S
C512 H500 0.950 . S
C512 C511 1.398 . S
C512 C513 1.391 . S
C513 H501 0.950 . S
C513 C509 1.393 . S
C513 C512 1.391 . S
H514 C522 0.950 . S
H515 C527 0.950 . S
H516 C524 0.950 . S
H517 C526 0.950 . S
H518 C528 0.950 . S
H519 C530 0.950 . S
H520 C532 0.950 . S
H521 C533 0.950 . S
C522 H514 0.950 . S
C522 C523 1.386 . S
C522 C524 1.391 . S
C523 C522 1.386 . S
C523 C527 1.393 . S
C524 H516 0.950 . S
C524 C522 1.391 . S
C524 C525 1.400 . S
C525 C524 1.400 . S
C525 C526 1.398 . S
C525 C531 1.491 . S
C526 H517 0.950 . S
C526 C525 1.398 . S
C526 C527 1.391 . S
C527 H515 0.950 . S
C527 C523 1.393 . S
C527 C526 1.391 . S
C528 H518 0.950 . S
C528 C529 1.386 . S
C528 C530 1.391 . S
C529 C528 1.386 . S
C529 C533 1.393 . S
C530 H519 0.950 . S
C530 C528 1.391 . S
C530 C531 1.400 . S
C531 C525 1.491 . S
C531 C530 1.400 . S
C531 C532 1.398 . S
C532 H520 0.950 . S
C532 C531 1.398 . S
C532 C533 1.391 . S
C533 H521 0.950 . S
C533 C529 1.393 . S
C533 C532 1.391 . S
H534 C542 0.950 . S
H535 C547 0.950 . S
H536 C544 0.950 . S
H537 C546 0.950 . S
H538 C548 0.950 . S
H539 C550 0.950 . S
H540 C552 0.950 . S
H541 C553 0.950 . S
C542 H534 0.950 . S
C542 C543 1.386 . S
C542 C544 1.391 . S
C543 C542 1.386 . S
C543 C547 1.393 . S
C544 H536 0.950 . S
C544 C542 1.391 . S
C544 C545 1.400 . S
C545 C544 1.400 . S
C545 C546 1.398 . S
C545 C551 1.491 . S
C546 H537 0.950 . S
C546 C545 1.398 . S
C546 C547 1.391 . S
C547 H535 0.950 . S
C547 C543 1.393 . S
C547 C546 1.391 . S
C548 H538 0.950 . S
C548 C549 1.386 . S
C548 C550 1.391 . S
C549 C548 1.386 . S
C549 C553 1.393 . S
C550 H539 0.950 . S
C550 C548 1.391 . S
C550 C551 1.400 . S
C551 C545 1.491 . S
C551 C550 1.400 . S
C551 C552 1.398 . S
C552 H540 0.950 . S
C552 C551 1.398 . S
C552 C553 1.391 . S
C553 H541 0.950 . S
C553 C549 1.393 . S
C553 C552 1.391 . S
H554 C562 0.950 . S
H555 C567 0.950 . S
H556 C564 0.950 . S
H557 C566 0.950 . S
H558 C568 0.950 . S
H559 C570 0.950 . S
H560 C572 0.950 . S
H561 C573 0.950 . S
C562 H554 0.950 . S
C562 C563 1.386 . S
C562 C564 1.391 . S
C563 C562 1.386 . S
C563 C567 1.393 . S
C564 H556 0.950 . S
C564 C562 1.391 . S
C564 C565 1.400 . S
C565 C564 1.400 . S
C565 C566 1.398 . S
C565 C571 1.491 . S
C566 H557 0.950 . S
C566 C565 1.398 . S
C566 C567 1.391 . S
C567 H555 0.950 . S
C567 C563 1.393 . S
C567 C566 1.391 . S
C568 H558 0.950 . S
C568 C569 1.386 . S
C568 C570 1.391 . S
C569 C568 1.386 . S
C569 C573 1.393 . S
C570 H559 0.950 . S
C570 C568 1.391 . S
C570 C571 1.400 . S
C571 C565 1.491 . S
C571 C570 1.400 . S
C571 C572 1.398 . S
C572 H560 0.950 . S
C572 C571 1.398 . S
C572 C573 1.391 . S
C573 H561 0.950 . S
C573 C569 1.393 . S
C573 C572 1.391 . S
H574 C582 0.950 . S
H575 C587 0.950 . S
H576 C584 0.950 . S
H577 C586 0.950 . S
H578 C588 0.950 . S
H579 C590 0.950 . S
H580 C592 0.950 . S
H581 C593 0.950 . S
C582 H574 0.950 . S
C582 C583 1.386 . S
C582 C584 1.391 . S
C583 C582 1.386 . S
C583 C587 1.393 . S
C584 H576 0.950 . S
C584 C582 1.391 . S
C584 C585 1.400 . S
C585 C584 1.400 . S
C585 C586 1.398 . S
C585 C591 1.491 . S
C586 H577 0.950 . S
C586 C585 1.398 . S
C586 C587 1.391 . S
C587 H575 0.950 . S
C587 C583 1.393 . S
C587 C586 1.391 . S
C588 H578 0.950 . S
C588 C589 1.386 . S
C588 C590 1.391 . S
C589 C588 1.386 . S
C589 C593 1.393 . S
C590 H579 0.950 . S
C590 C588 1.391 . S
C590 C591 1.400 . S
C591 C585 1.491 . S
C591 C590 1.400 . S
C591 C592 1.398 . S
C592 H580 0.950 . S
C592 C591 1.398 . S
C592 C593 1.391 . S
C593 H581 0.950 . S
C593 C589 1.393 . S
C593 C592 1.391 . S
H594 C602 0.950 . S
H595 C607 0.950 . S
H596 C604 0.950 . S
H597 C606 0.950 . S
H598 C608 0.950 . S
H599 C610 0.950 . S
H600 C612 0.950 . S
H601 C613 0.950 . S
C602 H594 0.950 . S
C602 C603 1.386 . S
C602 C604 1.391 . S
C603 C602 1.386 . S
C603 C607 1.393 . S
C604 H596 0.950 . S
C604 C602 1.391 . S
C604 C605 1.400 . S
C605 C604 1.400 . S
C605 C606 1.398 . S
C605 C611 1.491 . S
C606 H597 0.950 . S
C606 C605 1.398 . S
C606 C607 1.391 . S
C607 H595 0.950 . S
C607 C603 1.393 . S
C607 C606 1.391 . S
C608 H598 0.950 . S
C608 C609 1.382 1_554 S
C608 C610 1.391 . S
C609 C608 1.382 1_556 S
C609 C613 1.390 1_556 S
C610 H599 0.950 . S
C610 C608 1.391 . S
C610 C611 1.400 . S
C611 C605 1.491 . S
C611 C610 1.400 . S
C611 C612 1.398 . S
C612 H600 0.950 . S
C612 C611 1.398 . S
C612 C613 1.391 . S
C613 H601 0.950 . S
C613 C609 1.390 1_554 S
C613 C612 1.391 . S
H614 C622 0.950 . S
H615 C627 0.950 . S
H616 C624 0.950 . S
H617 C626 0.950 . S
H618 C628 0.950 . S
H619 C630 0.950 . S
H620 C632 0.950 . S
H621 C633 0.950 . S
C622 H614 0.950 . S
C622 C623 1.386 1_565 S
C622 C624 1.391 . S
C623 C622 1.386 1_545 S
C623 C627 1.393 . S
C624 H616 0.950 . S
C624 C622 1.391 . S
C624 C625 1.400 1_565 S
C625 C624 1.400 1_545 S
C625 C626 1.398 . S
C625 C631 1.491 . S
C626 H617 0.950 . S
C626 C625 1.398 . S
C626 C627 1.391 . S
C627 H615 0.950 . S
C627 C623 1.393 . S
C627 C626 1.391 . S
C628 H618 0.950 . S
C628 C629 1.386 . S
C628 C630 1.391 . S
C629 C628 1.386 . S
C629 C633 1.393 1_545 S
C630 H619 0.950 . S
C630 C628 1.391 . S
C630 C631 1.400 . S
C631 C625 1.491 . S
C631 C630 1.400 . S
C631 C632 1.398 1_545 S
C632 H620 0.950 . S
C632 C631 1.398 1_565 S
C632 C633 1.391 . S
C633 H621 0.950 . S
C633 C629 1.393 1_565 S
C633 C632 1.391 . S
H634 C642 0.950 . S
H635 C647 0.950 . S
H636 C644 0.950 . S
H637 C646 0.950 . S
H638 C648 0.950 . S
H639 C650 0.950 . S
H640 C652 0.950 . S
H641 C653 0.950 . S
C642 H634 0.950 . S
C642 C643 1.386 . S
C642 C644 1.391 . S
C643 C642 1.386 . S
C643 C647 1.393 . S
C644 H636 0.950 . S
C644 C642 1.391 . S
C644 C645 1.400 . S
C645 C644 1.400 . S
C645 C646 1.398 . S
C645 C651 1.491 . S
C646 H637 0.950 . S
C646 C645 1.398 . S
C646 C647 1.391 . S
C647 H635 0.950 . S
C647 C643 1.393 . S
C647 C646 1.391 . S
C648 H638 0.950 . S
C648 C649 1.386 . S
C648 C650 1.391 . S
C649 C648 1.386 . S
C649 C653 1.393 . S
C650 H639 0.950 . S
C650 C648 1.391 . S
C650 C651 1.400 . S
C651 C645 1.491 . S
C651 C650 1.400 . S
C651 C652 1.398 . S
C652 H640 0.950 . S
C652 C651 1.398 . S
C652 C653 1.391 . S
C653 H641 0.950 . S
C653 C649 1.393 . S
C653 C652 1.391 . S
H654 C662 0.950 . S
H655 C667 0.950 . S
H656 C664 0.950 . S
H657 C666 0.950 . S
H658 C668 0.950 . S
H659 C670 0.950 . S
H660 C672 0.950 . S
H661 C673 0.950 . S
C662 H654 0.950 . S
C662 C663 1.386 . S
C662 C664 1.391 . S
C663 C662 1.386 . S
C663 C667 1.393 1_545 S
C664 H656 0.950 . S
C664 C662 1.391 . S
C664 C665 1.400 . S
C665 C664 1.400 . S
C665 C666 1.398 1_545 S
C665 C671 1.491 . S
C666 H657 0.950 . S
C666 C665 1.398 1_565 S
C666 C667 1.391 . S
C667 H655 0.950 . S
C667 C663 1.393 1_565 S
C667 C666 1.391 . S
C668 H658 0.950 . S
C668 C669 1.386 . S
C668 C670 1.391 . S
C669 C668 1.386 . S
C669 C673 1.393 1_565 S
C670 H659 0.950 . S
C670 C668 1.391 . S
C670 C671 1.400 1_565 S
C671 C665 1.491 . S
C671 C670 1.400 1_545 S
C671 C672 1.398 . S
C672 H660 0.950 . S
C672 C671 1.398 . S
C672 C673 1.391 . S
C673 H661 0.950 . S
C673 C669 1.393 1_545 S
C673 C672 1.391 . S
H674 C682 0.950 . S
H675 C687 0.950 . S
H676 C684 0.950 . S
H677 C686 0.950 . S
H678 C688 0.950 . S
H679 C690 0.950 . S
H680 C692 0.950 . S
H681 C693 0.950 . S
C682 H674 0.950 . S
C682 C683 1.386 . S
C682 C684 1.391 . S
C683 C682 1.386 . S
C683 C687 1.393 . S
C684 H676 0.950 . S
C684 C682 1.391 . S
C684 C685 1.400 . S
C685 C684 1.400 . S
C685 C686 1.398 . S
C685 C691 1.491 . S
C686 H677 0.950 . S
C686 C685 1.398 . S
C686 C687 1.391 . S
C687 H675 0.950 . S
C687 C683 1.393 . S
C687 C686 1.391 . S
C688 H678 0.950 . S
C688 C689 1.386 . S
C688 C690 1.391 . S
C689 C688 1.386 . S
C689 C693 1.393 . S
C690 H679 0.950 . S
C690 C688 1.391 . S
C690 C691 1.400 . S
C691 C685 1.491 . S
C691 C690 1.400 . S
C691 C692 1.398 . S
C692 H680 0.950 . S
C692 C691 1.398 . S
C692 C693 1.391 . S
C693 H681 0.950 . S
C693 C689 1.393 . S
C693 C692 1.391 . S
H694 C702 0.950 . S
H695 C707 0.950 . S
H696 C704 0.950 . S
H697 C706 0.950 . S
H698 C708 0.950 . S
H699 C710 0.950 . S
H700 C712 0.950 . S
H701 C713 0.950 . S
C702 H694 0.950 . S
C702 C703 1.386 . S
C702 C704 1.391 . S
C703 C702 1.386 . S
C703 C707 1.393 1_455 S
C704 H696 0.950 . S
C704 C702 1.391 . S
C704 C705 1.400 . S
C705 C704 1.400 . S
C705 C706 1.398 1_455 S
C705 C711 1.491 . S
C706 H697 0.950 . S
C706 C705 1.398 1_655 S
C706 C707 1.391 . S
C707 H695 0.950 . S
C707 C703 1.393 1_655 S
C707 C706 1.391 . S
C708 H698 0.950 . S
C708 C709 1.386 1_655 S
C708 C710 1.391 . S
C709 C708 1.386 1_455 S
C709 C713 1.393 . S
C710 H699 0.950 . S
C710 C708 1.391 . S
C710 C711 1.400 1_655 S
C711 C705 1.491 . S
C711 C710 1.400 1_455 S
C711 C712 1.398 . S
C712 H700 0.950 . S
C712 C711 1.398 . S
C712 C713 1.391 . S
C713 H701 0.950 . S
C713 C709 1.393 . S
C713 C712 1.391 . S
C363 C6 0.580 . S
C369 C331 0.549 . S
C383 C59 1.939 . S
C389 C258 1.902 . S
C403 C86 1.220 . S
C409 C297 1.240 . S
C423 C15 0.455 . S
C429 C336 0.297 . S
C449 C253 1.973 . S
C443 C50 2.026 . S
C469 C292 1.297 . S
C463 C95 1.302 . S
C483 C46 1.225 . S
C489 C180 1.222 . S
C503 C99 3.118 . S
C509 C214 3.064 . S
C523 C10 2.056 . S
C529 C136 2.024 . S
C549 C175 1.299 . S
C543 C55 1.280 . S
C569 C219 2.976 . S
C563 C90 2.999 . S
C583 C19 1.926 . S
C589 C141 1.895 . S
C609 C199 1.778 . S
C603 C18 1.700 . S
C623 C49 1.345 . S
C629 C121 1.379 . S
C643 C98 1.456 . S
C649 C160 1.508 . S
C669 C277 1.488 . S
C663 C58 1.443 . S
C689 C316 1.095 1_556 S
C683 C89 1.093 . S
C703 C9 1.338 . S
C709 C238 1.365 1_455 S
