# Generated by pormake.
# Topology eea, (3,6)-cn, num edge types: 1
# Building blocks:
#     Node 0, Type 0, BuildingBlock: ESEHIV_clean_linker_0, # of connection points: 3
#     Node 1, Type 0, BuildingBlock: ESEHIV_clean_linker_0, # of connection points: 3
#     Node 2, Type 0, BuildingBlock: ESEHIV_clean_linker_0, # of connection points: 3
#     Node 3, Type 0, BuildingBlock: ESEHIV_clean_linker_0, # of connection points: 3
#     Node 4, Type 0, BuildingBlock: ESEHIV_clean_linker_0, # of connection points: 3
#     Node 5, Type 0, BuildingBlock: ESEHIV_clean_linker_0, # of connection points: 3
#     Node 6, Type 0, BuildingBlock: ESEHIV_clean_linker_0, # of connection points: 3
#     Node 7, Type 0, BuildingBlock: ESEHIV_clean_linker_0, # of connection points: 3
#     Node 8, Type 0, BuildingBlock: ESEHIV_clean_linker_0, # of connection points: 3
#     Node 9, Type 0, BuildingBlock: ESEHIV_clean_linker_0, # of connection points: 3
#     Node 10, Type 0, BuildingBlock: ESEHIV_clean_linker_0, # of connection points: 3
#     Node 11, Type 0, BuildingBlock: ESEHIV_clean_linker_0, # of connection points: 3
#     Node 12, Type 0, BuildingBlock: ESEHIV_clean_linker_0, # of connection points: 3
#     Node 13, Type 0, BuildingBlock: ESEHIV_clean_linker_0, # of connection points: 3
#     Node 14, Type 0, BuildingBlock: ESEHIV_clean_linker_0, # of connection points: 3
#     Node 15, Type 0, BuildingBlock: ESEHIV_clean_linker_0, # of connection points: 3
#     Node 16, Type 0, BuildingBlock: ESEHIV_clean_linker_0, # of connection points: 3
#     Node 17, Type 0, BuildingBlock: ESEHIV_clean_linker_0, # of connection points: 3
#     Node 18, Type 1, BuildingBlock: KUMJIN_clean_sbu_0, # of connection points: 6
#     Node 19, Type 1, BuildingBlock: KUMJIN_clean_sbu_0, # of connection points: 6
#     Node 20, Type 1, BuildingBlock: KUMJIN_clean_sbu_0, # of connection points: 6
#     Node 21, Type 1, BuildingBlock: KUMJIN_clean_sbu_0, # of connection points: 6
#     Node 22, Type 1, BuildingBlock: KUMJIN_clean_sbu_0, # of connection points: 6
#     Node 23, Type 1, BuildingBlock: KUMJIN_clean_sbu_0, # of connection points: 6
#     Node 24, Type 1, BuildingBlock: KUMJIN_clean_sbu_0, # of connection points: 6
#     Node 25, Type 1, BuildingBlock: KUMJIN_clean_sbu_0, # of connection points: 6
#     Node 26, Type 1, BuildingBlock: KUMJIN_clean_sbu_0, # of connection points: 6
#     Edge 27, Type (0, 1), BuildingBlock: CIFDUS_clean_linker_0, # of connection points: 2
#     Edge 28, Type (0, 1), BuildingBlock: CIFDUS_clean_linker_0, # of connection points: 2
#     Edge 29, Type (0, 1), BuildingBlock: CIFDUS_clean_linker_0, # of connection points: 2
#     Edge 30, Type (0, 1), BuildingBlock: CIFDUS_clean_linker_0, # of connection points: 2
#     Edge 31, Type (0, 1), BuildingBlock: CIFDUS_clean_linker_0, # of connection points: 2
#     Edge 32, Type (0, 1), BuildingBlock: CIFDUS_clean_linker_0, # of connection points: 2
#     Edge 33, Type (0, 1), BuildingBlock: CIFDUS_clean_linker_0, # of connection points: 2
#     Edge 34, Type (0, 1), BuildingBlock: CIFDUS_clean_linker_0, # of connection points: 2
#     Edge 35, Type (0, 1), BuildingBlock: CIFDUS_clean_linker_0, # of connection points: 2
#     Edge 36, Type (0, 1), BuildingBlock: CIFDUS_clean_linker_0, # of connection points: 2
#     Edge 37, Type (0, 1), BuildingBlock: CIFDUS_clean_linker_0, # of connection points: 2
#     Edge 38, Type (0, 1), BuildingBlock: CIFDUS_clean_linker_0, # of connection points: 2
#     Edge 39, Type (0, 1), BuildingBlock: CIFDUS_clean_linker_0, # of connection points: 2
#     Edge 40, Type (0, 1), BuildingBlock: CIFDUS_clean_linker_0, # of connection points: 2
#     Edge 41, Type (0, 1), BuildingBlock: CIFDUS_clean_linker_0, # of connection points: 2
#     Edge 42, Type (0, 1), BuildingBlock: CIFDUS_clean_linker_0, # of connection points: 2
#     Edge 43, Type (0, 1), BuildingBlock: CIFDUS_clean_linker_0, # of connection points: 2
#     Edge 44, Type (0, 1), BuildingBlock: CIFDUS_clean_linker_0, # of connection points: 2
#     Edge 45, Type (0, 1), BuildingBlock: CIFDUS_clean_linker_0, # of connection points: 2
#     Edge 46, Type (0, 1), BuildingBlock: CIFDUS_clean_linker_0, # of connection points: 2
#     Edge 47, Type (0, 1), BuildingBlock: CIFDUS_clean_linker_0, # of connection points: 2
#     Edge 48, Type (0, 1), BuildingBlock: CIFDUS_clean_linker_0, # of connection points: 2
#     Edge 49, Type (0, 1), BuildingBlock: CIFDUS_clean_linker_0, # of connection points: 2
#     Edge 50, Type (0, 1), BuildingBlock: CIFDUS_clean_linker_0, # of connection points: 2
#     Edge 51, Type (0, 1), BuildingBlock: CIFDUS_clean_linker_0, # of connection points: 2
#     Edge 52, Type (0, 1), BuildingBlock: CIFDUS_clean_linker_0, # of connection points: 2
#     Edge 53, Type (0, 1), BuildingBlock: CIFDUS_clean_linker_0, # of connection points: 2
#     Edge 54, Type (0, 1), BuildingBlock: CIFDUS_clean_linker_0, # of connection points: 2
#     Edge 55, Type (0, 1), BuildingBlock: CIFDUS_clean_linker_0, # of connection points: 2
#     Edge 56, Type (0, 1), BuildingBlock: CIFDUS_clean_linker_0, # of connection points: 2
#     Edge 57, Type (0, 1), BuildingBlock: CIFDUS_clean_linker_0, # of connection points: 2
#     Edge 58, Type (0, 1), BuildingBlock: CIFDUS_clean_linker_0, # of connection points: 2
#     Edge 59, Type (0, 1), BuildingBlock: CIFDUS_clean_linker_0, # of connection points: 2
#     Edge 60, Type (0, 1), BuildingBlock: CIFDUS_clean_linker_0, # of connection points: 2
#     Edge 61, Type (0, 1), BuildingBlock: CIFDUS_clean_linker_0, # of connection points: 2
#     Edge 62, Type (0, 1), BuildingBlock: CIFDUS_clean_linker_0, # of connection points: 2
#     Edge 63, Type (0, 1), BuildingBlock: CIFDUS_clean_linker_0, # of connection points: 2
#     Edge 64, Type (0, 1), BuildingBlock: CIFDUS_clean_linker_0, # of connection points: 2
#     Edge 65, Type (0, 1), BuildingBlock: CIFDUS_clean_linker_0, # of connection points: 2
#     Edge 66, Type (0, 1), BuildingBlock: CIFDUS_clean_linker_0, # of connection points: 2
#     Edge 67, Type (0, 1), BuildingBlock: CIFDUS_clean_linker_0, # of connection points: 2
#     Edge 68, Type (0, 1), BuildingBlock: CIFDUS_clean_linker_0, # of connection points: 2
#     Edge 69, Type (0, 1), BuildingBlock: CIFDUS_clean_linker_0, # of connection points: 2
#     Edge 70, Type (0, 1), BuildingBlock: CIFDUS_clean_linker_0, # of connection points: 2
#     Edge 71, Type (0, 1), BuildingBlock: CIFDUS_clean_linker_0, # of connection points: 2
#     Edge 72, Type (0, 1), BuildingBlock: CIFDUS_clean_linker_0, # of connection points: 2
#     Edge 73, Type (0, 1), BuildingBlock: CIFDUS_clean_linker_0, # of connection points: 2
#     Edge 74, Type (0, 1), BuildingBlock: CIFDUS_clean_linker_0, # of connection points: 2
#     Edge 75, Type (0, 1), BuildingBlock: CIFDUS_clean_linker_0, # of connection points: 2
#     Edge 76, Type (0, 1), BuildingBlock: CIFDUS_clean_linker_0, # of connection points: 2
#     Edge 77, Type (0, 1), BuildingBlock: CIFDUS_clean_linker_0, # of connection points: 2
#     Edge 78, Type (0, 1), BuildingBlock: CIFDUS_clean_linker_0, # of connection points: 2
#     Edge 79, Type (0, 1), BuildingBlock: CIFDUS_clean_linker_0, # of connection points: 2
#     Edge 80, Type (0, 1), BuildingBlock: CIFDUS_clean_linker_0, # of connection points: 2
# Relax obj value: 0.008
# Max RMSD: 0.089
# Mean RMSD: 0.080
data_MOF--net-eea--node1-KUMJIN_clean_sbu_0--node2-ESEHIV_clean_linker_0--edge1-CIFDUS_clean_linker_0
_symmetry_space_group_name_H-M    P1
_symmetry_Int_Tables_number       1
_symmetry_cell_setting            triclinic
loop_
_symmetry_equiv_pos_as_xyz
'x, y, z'
_cell_length_a     41.081112
_cell_length_b     42.445015
_cell_length_c     63.699073
_cell_angle_alpha  90.354575
_cell_angle_beta   89.895355
_cell_angle_gamma 119.9392
loop_
_atom_site_label
_atom_site_type_symbol
_atom_site_fract_x
_atom_site_fract_y
_atom_site_fract_z
_atom_type_partial_charge
H0 H 0.27044 0.18303 0.4365 0.0
H1 H 0.24283 0.07138 0.44527 0.0
H2 H 0.23001 0.10811 0.38488 0.0
C3 C 0.26102 0.15586 0.43055 0.0
C4 C 0.25003 0.1484 0.40952 0.0
C5 C 0.25804 0.12827 0.44397 0.0
C6 C 0.2461 0.09345 0.43539 0.0
C7 C 0.23735 0.08665 0.41394 0.0
C8 C 0.23885 0.11399 0.40116 0.0
H9 H 0.83576 0.07938 0.43937 0.0
H10 H 0.94826 0.17179 0.44426 0.0
H11 H 0.90835 0.11438 0.38576 0.0
C12 C 0.86292 0.09795 0.43269 0.0
C13 C 0.86931 0.09318 0.41155 0.0
C14 C 0.89102 0.12625 0.445 0.0
C15 C 0.92572 0.15019 0.4353 0.0
C16 C 0.93177 0.14651 0.41387 0.0
C17 C 0.90352 0.11781 0.40214 0.0
H18 H 0.83511 0.76199 0.44619 0.0
H19 H 0.94497 0.77354 0.44064 0.0
H20 H 0.89181 0.79006 0.38679 0.0
C21 C 0.85952 0.768 0.4368 0.0
C22 C 0.85978 0.77639 0.41543 0.0
C23 C 0.88981 0.76657 0.44616 0.0
C24 C 0.92116 0.77387 0.43359 0.0
C25 C 0.92256 0.78308 0.41217 0.0
C26 C 0.89158 0.78413 0.40333 0.0
H27 H 0.06844 0.2302 0.58843 0.0
H28 H 0.17412 0.23182 0.58287 0.0
H29 H 0.11166 0.19798 0.64041 0.0
C30 C 0.09035 0.22625 0.59514 0.0
C31 C 0.08627 0.21339 0.61586 0.0
C32 C 0.12187 0.23293 0.58287 0.0
C33 C 0.15 0.22747 0.59204 0.0
C34 C 0.14635 0.21495 0.61282 0.0
C35 C 0.11456 0.20803 0.62451 0.0
H36 H 0.73534 0.90811 0.58299 0.0
H37 H 0.75552 0.81837 0.58787 0.0
H38 H 0.79641 0.90016 0.63587 0.0
C39 C 0.74715 0.89409 0.59147 0.0
C40 C 0.76631 0.90847 0.61052 0.0
C41 C 0.74315 0.86159 0.58326 0.0
C42 C 0.75766 0.84306 0.59432 0.0
C43 C 0.77617 0.85676 0.61333 0.0
C44 C 0.78054 0.88926 0.62149 0.0
H45 H 0.06234 0.82116 0.58861 0.0
H46 H 0.17411 0.91405 0.58425 0.0
H47 H 0.11085 0.89303 0.64132 0.0
C48 C 0.08548 0.84551 0.5954 0.0
C49 C 0.08282 0.85454 0.61627 0.0
C50 C 0.11851 0.86617 0.5837 0.0
C51 C 0.14826 0.89783 0.59285 0.0
C52 C 0.14534 0.90744 0.61367 0.0
C53 C 0.11277 0.88569 0.62521 0.0
H54 H 0.92936 0.51227 0.77643 0.0
H55 H 0.90997 0.40306 0.77478 0.0
H56 H 0.91589 0.4595 0.71734 0.0
C57 C 0.92496 0.48853 0.76762 0.0
C58 C 0.92092 0.48807 0.74586 0.0
C59 C 0.92187 0.45825 0.7782 0.0
C60 C 0.91447 0.42704 0.76646 0.0
C61 C 0.91118 0.42658 0.74425 0.0
C62 C 0.91648 0.45818 0.73428 0.0
H63 H 0.50219 0.40896 0.76952 0.0
H64 H 0.6105 0.50569 0.77766 0.0
H65 H 0.57674 0.45535 0.7174 0.0
C66 C 0.52931 0.4294 0.76379 0.0
C67 C 0.53772 0.42737 0.74256 0.0
C68 C 0.55498 0.45741 0.77714 0.0
C69 C 0.58891 0.48436 0.76819 0.0
C70 C 0.5958 0.48487 0.74659 0.0
C71 C 0.57068 0.45576 0.73393 0.0
H72 H 0.50487 0.10699 0.77426 0.0
H73 H 0.60191 0.09342 0.77596 0.0
H74 H 0.57072 0.12334 0.71831 0.0
C75 C 0.52826 0.10696 0.76638 0.0
C76 C 0.53475 0.11603 0.74486 0.0
C77 C 0.55311 0.09974 0.77793 0.0
C78 C 0.58322 0.09984 0.76737 0.0
C79 C 0.58966 0.10781 0.74591 0.0
C80 C 0.56578 0.11673 0.73485 0.0
H81 H 0.73637 0.56724 0.91603 0.0
H82 H 0.83781 0.56073 0.91743 0.0
H83 H 0.76608 0.53245 0.97193 0.0
C84 C 0.75555 0.56085 0.92409 0.0
C85 C 0.74699 0.54804 0.94466 0.0
C86 C 0.78767 0.56493 0.91373 0.0
C87 C 0.81324 0.55843 0.92519 0.0
C88 C 0.80592 0.54686 0.94639 0.0
C89 C 0.77265 0.54199 0.9559 0.0
H90 H 0.4309 0.26146 0.9175 0.0
H91 H 0.41113 0.15191 0.91572 0.0
H92 H 0.44692 0.21262 0.97294 0.0
C93 C 0.42919 0.2382 0.92545 0.0
C94 C 0.43849 0.24056 0.94706 0.0
C95 C 0.42 0.20641 0.91385 0.0
C96 C 0.41875 0.17684 0.92425 0.0
C97 C 0.43032 0.17978 0.94508 0.0
C98 C 0.43858 0.2109 0.95666 0.0
H99 H 0.73455 0.14461 0.92136 0.0
H100 H 0.82121 0.25728 0.91773 0.0
H101 H 0.76806 0.21012 0.97681 0.0
C102 C 0.75217 0.17098 0.92858 0.0
C103 C 0.74809 0.17502 0.95003 0.0
C104 C 0.77876 0.20042 0.91662 0.0
C105 C 0.80145 0.23412 0.92684 0.0
C106 C 0.79787 0.23819 0.94868 0.0
C107 C 0.77115 0.20811 0.96004 0.0
H108 H 0.59432 0.84117 0.11087 0.0
H109 H 0.59375 0.73999 0.1093 0.0
H110 H 0.54884 0.7702 0.05731 0.0
C111 C 0.58812 0.81637 0.10274 0.0
C112 C 0.5714 0.80938 0.08279 0.0
C113 C 0.59502 0.79106 0.11279 0.0
C114 C 0.58742 0.75932 0.10201 0.0
C115 C 0.57075 0.75162 0.08206 0.0
C116 C 0.56314 0.77689 0.07233 0.0
H117 H 0.16816 0.74006 0.1037 0.0
H118 H 0.2786 0.8349 0.11174 0.0
H119 H 0.24785 0.77582 0.05368 0.0
C120 C 0.19586 0.75951 0.09811 0.0
C121 C 0.20566 0.75438 0.07782 0.0
C122 C 0.22175 0.78835 0.11104 0.0
C123 C 0.25732 0.81291 0.10244 0.0
C124 C 0.26615 0.8094 0.08154 0.0
C125 C 0.24037 0.77979 0.06941 0.0
H126 H 0.1697 0.4303 0.1103 0.0
H127 H 0.27764 0.43546 0.10591 0.0
H128 H 0.23264 0.46221 0.05296 0.0
C129 C 0.19458 0.43552 0.10166 0.0
C130 C 0.19735 0.44545 0.08035 0.0
C131 C 0.22353 0.43182 0.11148 0.0
C132 C 0.25536 0.43886 0.0993 0.0
C133 C 0.25922 0.45091 0.07848 0.0
C134 C 0.23002 0.45372 0.0692 0.0
H135 H 0.39213 0.88817 0.25477 0.0
H136 H 0.50521 0.9083 0.25035 0.0
H137 H 0.44125 0.86359 0.30717 0.0
C138 C 0.41561 0.88687 0.26158 0.0
C139 C 0.41243 0.87342 0.28197 0.0
C140 C 0.44911 0.89992 0.25019 0.0
C141 C 0.47939 0.89822 0.2592 0.0
C142 C 0.47726 0.88536 0.27987 0.0
C143 C 0.44334 0.87284 0.29115 0.0
H144 H 0.07963 0.58411 0.24911 0.0
H145 H 0.082 0.48472 0.25834 0.0
H146 H 0.11808 0.56449 0.30756 0.0
C147 C 0.08528 0.56644 0.25874 0.0
C148 C 0.09933 0.57781 0.2792 0.0
C149 C 0.07811 0.53235 0.251 0.0
C150 C 0.08612 0.51047 0.26412 0.0
C151 C 0.10011 0.5215 0.28459 0.0
C152 C 0.10605 0.55503 0.29209 0.0
H153 H 0.39992 0.48205 0.2534 0.0
H154 H 0.50171 0.58448 0.24797 0.0
H155 H 0.43974 0.55604 0.30605 0.0
C156 C 0.41957 0.5084 0.26004 0.0
C157 C 0.41504 0.51679 0.2809 0.0
C158 C 0.45116 0.53276 0.24835 0.0
C159 C 0.47755 0.56603 0.25725 0.0
C160 C 0.47403 0.5749 0.2781 0.0
C161 C 0.44247 0.55008 0.28979 0.0
Eu162 Eu 0.49063 0.97518 0.98535 0.0
C163 C 0.57597 0.09861 0.04912 0.0
C164 C 0.63694 0.10285 0.04782 0.0
C165 C 0.63281 0.15721 0.05401 0.0
C166 C 0.59738 0.08216 0.04626 0.0
C167 C 0.59343 0.13616 0.05372 0.0
C168 C 0.65453 0.14057 0.05106 0.0
C169 C 0.532 0.12851 0.06024 0.0
N170 N 0.53804 0.0774 0.04916 0.0
C171 C 0.51606 0.09139 0.05583 0.0
C172 C 0.57083 0.15114 0.0588 0.0
Eu173 Eu 0.51269 0.01505 0.03965 0.0
N174 N 0.57948 0.04557 0.04353 0.0
C175 C 0.5996 0.02778 0.04379 0.0
C176 C 0.65761 0.08485 0.04699 0.0
C177 C 0.63876 0.04708 0.0454 0.0
H178 H 0.48596 0.07387 0.05705 0.0
H179 H 0.65439 0.03276 0.04523 0.0
H180 H 0.68486 0.15689 0.05206 0.0
H181 H 0.51434 0.13959 0.06482 0.0
H182 H 0.58612 -0.00131 0.04251 0.0
H183 H 0.35423 0.96307 0.96633 0.0
H184 H 0.68797 0.09973 0.0482 0.0
H185 H 0.51613 0.91543 0.96825 0.0
H186 H 0.42154 0.99509 0.9731 0.0
H187 H 0.48686 0.84918 0.96172 0.0
H188 H 0.6467 0.18614 0.05726 0.0
H189 H 0.31798 0.89592 0.96659 0.0
H190 H 0.31815 0.83703 0.96822 0.0
H191 H 0.58318 0.17984 0.06241 0.0
H192 H 0.35468 0.80552 0.9672 0.0
N193 N 0.42492 0.94687 0.97795 0.0
C194 C 0.40684 0.96588 0.97364 0.0
C195 C 0.34791 0.90989 0.96968 0.0
C196 C 0.36684 0.89054 0.97259 0.0
C197 C 0.36827 0.94775 0.96945 0.0
C198 C 0.406 0.9101 0.9762 0.0
H199 H 0.41782 0.80996 0.96404 0.0
N200 N 0.46447 0.91296 0.9757 0.0
C201 C 0.46954 0.8609 0.96576 0.0
C202 C 0.42652 0.89248 0.97527 0.0
C203 C 0.48598 0.89828 0.96946 0.0
C204 C 0.4306 0.83884 0.96719 0.0
C205 C 0.40846 0.85475 0.97121 0.0
O206 O 0.529 0.98597 0.9592 0.0
O207 O 0.53114 0.01913 1.00647 0.0
O208 O 0.5001 0.05258 0.02143 0.0
O209 O 0.47926 0.022 0.98926 0.0
O210 O 0.55252 0.99401 0.98774 0.0
O211 O 0.48507 -0.00082 0.95592 0.0
O212 O 0.47748 0.00516 0.06726 0.0
O213 O 0.47091 0.97091 0.01863 0.0
O214 O 0.50072 0.93625 1.00428 0.0
O215 O 0.52211 0.96691 0.03638 0.0
O216 O 0.4509 0.99645 0.03806 0.0
O217 O 0.52288 0.9936 0.06862 0.0
C218 C 0.5612 0.02078 1.00052 0.0
C219 C 0.50846 0.98649 0.92458 0.0
C220 C 0.50767 -0.00076 0.88722 0.0
C221 C 0.50959 0.00972 0.90843 0.0
C222 C 0.50515 0.96581 0.88233 0.0
C223 C 0.50569 0.95308 0.91921 0.0
C224 C 0.50424 0.94297 0.89823 0.0
C225 C 0.48488 0.04808 1.00273 0.0
C226 C 0.51297 -0.00163 0.94677 0.0
C227 C 0.3691 0.83462 0.96991 0.0
C228 C 0.3483 0.85255 0.97052 0.0
C229 C 0.44126 0.97042 0.02458 0.0
C230 C 0.50407 0.00878 0.10051 0.0
C231 C 0.49351 0.98469 0.11754 0.0
C232 C 0.4988 -0.00208 0.13834 0.0
C233 C 0.51496 0.03563 0.14172 0.0
C234 C 0.52054 0.04621 0.10431 0.0
C235 C 0.52573 0.05949 0.12481 0.0
C236 C 0.51561 0.94025 0.02312 0.0
C237 C 0.49589 0.99434 0.07894 0.0
H238 H 0.51205 0.03572 0.91234 0.0
H239 H 0.50405 0.95745 0.86612 0.0
H240 H 0.50526 0.93498 0.93121 0.0
H241 H 0.50254 0.91735 0.89427 0.0
H242 H 0.48046 0.95571 0.11458 0.0
H243 H 0.51984 0.04683 0.15747 0.0
H244 H 0.52915 0.06517 0.09149 0.0
H245 H 0.53819 0.08842 0.12762 0.0
Eu246 Eu 0.03043 0.51004 0.98572 0.0
C247 C 0.8963 0.46391 0.04414 0.0
C248 C 0.88917 0.51723 0.04253 0.0
C249 C 0.83533 0.45848 0.05079 0.0
C250 C 0.9117 0.50083 0.04084 0.0
C251 C 0.85804 0.44244 0.04954 0.0
C252 C 0.85085 0.49578 0.04727 0.0
C253 C 0.86821 0.39153 0.05407 0.0
N254 N 0.91908 0.44932 0.04314 0.0
C255 C 0.90604 0.41403 0.04894 0.0
C256 C 0.844 0.40571 0.05417 0.0
Eu257 Eu 0.98336 0.48975 0.03578 0.0
N258 N 0.94892 0.52094 0.03663 0.0
C259 C 0.96559 0.55779 0.03463 0.0
C260 C 0.90596 0.55483 0.0398 0.0
C261 C 0.94442 0.57522 0.03593 0.0
H262 H 0.92497 0.40325 0.04934 0.0
H263 H 0.95787 0.60441 0.0341 0.0
H264 H 0.83314 0.50791 0.04861 0.0
H265 H 0.85786 0.36341 0.05818 0.0
H266 H 0.99516 0.574 0.03198 0.0
H267 H 0.047 0.38885 0.97747 0.0
H268 H 0.88963 0.56843 0.04098 0.0
H269 H 0.09833 0.5992 0.98138 0.0
H270 H 0.01393 0.4202 0.98685 0.0
H271 H 0.16602 0.63544 0.97738 0.0
H272 H 0.80588 0.4424 0.05487 0.0
H273 H 0.11537 0.42303 0.97178 0.0
H274 H 0.17458 0.4822 0.97062 0.0
H275 H 0.8148 0.38834 0.0584 0.0
H276 H 0.20703 0.54875 0.97172 0.0
N277 N 0.06103 0.47423 0.9836 0.0
C278 C 0.04282 0.43688 0.98279 0.0
C279 C 0.10052 0.43761 0.97509 0.0
C280 C 0.11958 0.47545 0.97671 0.0
C281 C 0.06195 0.41828 0.97805 0.0
C282 C 0.09894 0.49341 0.98084 0.0
H283 H 0.20425 0.60568 0.97444 0.0
N284 N 0.097 0.54817 0.98411 0.0
C285 C 0.15289 0.60623 0.97893 0.0
C286 C 0.11737 0.53117 0.98145 0.0
C287 C 0.11418 0.58522 0.98185 0.0
C288 C 0.1743 0.58933 0.9772 0.0
C289 C 0.15663 0.55146 0.97797 0.0
O290 O 0.04065 0.54945 0.96103 0.0
O291 O 0.98847 0.51718 1.00505 0.0
O292 O 0.94683 0.44042 0.0144 0.0
O293 O 0.98422 0.45216 0.98465 0.0
O294 O 0.97213 0.4956 0.97536 0.0
O295 O 0.02746 0.49382 0.9528 0.0
O296 O 0.99225 0.46725 0.06441 0.0
O297 O 0.03514 0.49765 0.01935 0.0
O298 O 0.04789 0.56341 1.00264 0.0
O299 O 0.03639 0.54539 0.03739 0.0
O300 O 1.00339 0.449 0.03463 0.0
O301 O 0.99412 0.51883 0.06591 0.0
C302 C 0.96202 0.5064 0.99172 0.0
C303 C 0.03772 0.53481 0.92391 0.0
C304 C 0.01715 0.5181 0.8877 0.0
C305 C 0.01478 0.50846 0.90893 0.0
C306 C 0.0429 0.55376 0.88155 0.0
C307 C 0.06318 0.57032 0.91749 0.0
C308 C 0.06588 0.57963 0.89637 0.0
C309 C 0.9545 0.43072 0.99598 0.0
C310 C 0.03507 0.52584 0.94626 0.0
C311 C 0.17701 0.53352 0.97446 0.0
C312 C 0.15853 0.49565 0.97378 0.0
C313 C 0.03545 0.46958 0.02576 0.0
C314 C 0.98099 0.48491 0.09743 0.0
C315 C 0.00468 0.49983 0.11498 0.0
C316 C 0.9907 0.48812 0.13534 0.0
C317 C 0.95261 0.46166 0.13782 0.0
C318 C 0.94308 0.45891 0.10029 0.0
C319 C 0.92903 0.44729 0.12042 0.0
C320 C 0.05398 0.57032 0.02289 0.0
C321 C 0.99726 0.49423 0.07633 0.0
H322 H 0.99472 0.48103 0.91378 0.0
H323 H 0.04511 0.56157 0.86522 0.0
H324 H 0.08115 0.59081 0.9288 0.0
H325 H 0.0857 0.60704 0.89148 0.0
H326 H 0.03416 0.51955 0.11274 0.0
H327 H 0.9409 0.45225 0.15329 0.0
H328 H 0.9245 0.44719 0.08702 0.0
H329 H 0.89982 0.4269 0.12254 0.0
Eu330 Eu 0.51698 0.49135 0.03858 0.0
C331 C 0.43067 0.53272 0.9766 0.0
C332 C 0.3687 0.47975 0.98035 0.0
C333 C 0.37488 0.53738 0.96992 0.0
C334 C 0.40824 0.49628 0.98125 0.0
C335 C 0.41419 0.55356 0.97058 0.0
C336 C 0.35219 0.50054 0.97479 0.0
C337 C 0.47655 0.6041 0.96452 0.0
N338 N 0.46857 0.54747 0.97715 0.0
C339 C 0.49154 0.58216 0.97023 0.0
C340 C 0.43771 0.58984 0.96488 0.0
Eu341 Eu 0.49179 0.50807 0.98614 0.0
N342 N 0.425 0.47688 0.98652 0.0
C343 C 0.4037 0.44082 0.99127 0.0
C344 C 0.34689 0.44275 0.98501 0.0
C345 C 0.36453 0.42323 0.99055 0.0
H346 H 0.52156 0.59294 0.96945 0.0
H347 H 0.348 0.39478 0.99463 0.0
H348 H 0.32191 0.48832 0.97405 0.0
H349 H 0.49493 0.63184 0.95961 0.0
H350 H 0.41658 0.42589 0.99689 0.0
H351 H 0.64924 0.60702 0.06778 0.0
H352 H 0.31649 0.42911 0.98454 0.0
H353 H 0.49237 0.40312 0.04811 0.0
H354 H 0.58218 0.5737 0.05998 0.0
H355 H 0.52265 0.3663 0.05188 0.0
H356 H 0.36174 0.55298 0.96538 0.0
H357 H 0.68712 0.57686 0.06423 0.0
H358 H 0.6887 0.5194 0.05861 0.0
H359 H 0.42612 0.60676 0.96023 0.0
H360 H 0.6538 0.45305 0.05434 0.0
N361 N 0.58175 0.5257 0.04875 0.0
C362 C 0.59817 0.56032 0.05689 0.0
C363 C 0.65762 0.56221 0.06 0.0
C364 C 0.63988 0.52556 0.05416 0.0
C365 C 0.63637 0.57932 0.06201 0.0
C366 C 0.60127 0.5076 0.04885 0.0
H367 H 0.59183 0.3957 0.05251 0.0
N368 N 0.54381 0.45336 0.04418 0.0
C369 C 0.53969 0.39543 0.04993 0.0
C370 C 0.58166 0.47024 0.04641 0.0
C371 C 0.52268 0.4166 0.04748 0.0
C372 C 0.57869 0.41211 0.05023 0.0
C373 C 0.60017 0.45 0.04921 0.0
O374 O 0.47753 0.45246 0.06124 0.0
O375 O 0.46958 0.48295 0.01748 0.0
O376 O 0.50573 0.5579 1.00531 0.0
O377 O 0.53899 0.55196 0.03334 0.0
O378 O 0.47632 0.51073 0.04536 0.0
O379 O 0.51666 0.50789 0.07098 0.0
O380 O 0.52568 0.52679 0.95779 0.0
O381 O 0.53502 0.5032 1.00521 0.0
O382 O 0.4901 0.43743 0.01949 0.0
O383 O 0.48394 0.45241 0.98518 0.0
O384 O 0.55418 0.54816 0.9861 0.0
O385 O 0.47176 0.47764 0.95662 0.0
C386 C 0.4547 0.49613 0.02948 0.0
C387 C 0.4909 0.46432 0.09792 0.0
C388 C 0.48523 0.47105 0.13571 0.0
C389 C 0.48637 0.48299 0.11501 0.0
C390 C 0.48897 0.44015 0.13888 0.0
C391 C 0.4951 0.43404 0.10152 0.0
C392 C 0.49417 0.42211 0.12195 0.0
C393 C 0.52802 0.57087 0.02177 0.0
C394 C 0.4893 0.47622 0.07657 0.0
C395 C 0.63914 0.46814 0.05247 0.0
C396 C 0.659 0.50592 0.05491 0.0
C397 C 0.56443 0.53112 0.99883 0.0
C398 C 0.496 0.51011 0.92508 0.0
C399 C 0.51087 0.50049 0.90803 0.0
C400 C 0.5102 0.51334 0.88796 0.0
C401 C 0.49428 0.53553 0.88496 0.0
C402 C 0.47936 0.53162 0.92191 0.0
C403 C 0.47864 0.54436 0.90188 0.0
C404 C 0.48217 0.42925 0.99926 0.0
C405 C 0.50145 0.50022 0.94614 0.0
H406 H 0.48354 0.50665 0.1121 0.0
H407 H 0.48707 0.42928 0.15445 0.0
H408 H 0.49855 0.41931 0.08861 0.0
H409 H 0.49689 0.39838 0.12468 0.0
H410 H 0.52412 0.48417 0.91046 0.0
H411 H 0.49404 0.54601 0.86953 0.0
H412 H 0.46747 0.53896 0.93486 0.0
H413 H 0.46636 0.56146 0.8995 0.0
Eu414 Eu 0.15722 0.30667 0.32032 0.0
C415 C 0.24409 0.43521 0.3834 0.0
C416 C 0.3054 0.44017 0.3852 0.0
C417 C 0.29966 0.49383 0.39058 0.0
C418 C 0.26625 0.41927 0.38164 0.0
C419 C 0.26049 0.47251 0.38842 0.0
C420 C 0.32206 0.47766 0.38901 0.0
C421 C 0.19802 0.4641 0.3914 0.0
N422 N 0.20627 0.41375 0.3818 0.0
C423 C 0.18308 0.42721 0.38666 0.0
C424 C 0.23692 0.48698 0.39198 0.0
Eu425 Eu 0.18282 0.3519 0.37257 0.0
N426 N 0.24923 0.38286 0.37821 0.0
C427 C 0.26962 0.36545 0.3799 0.0
C428 C 0.32643 0.42256 0.3859 0.0
C429 C 0.30826 0.3849 0.38377 0.0
H430 H 0.15294 0.40945 0.38626 0.0
H431 H 0.32405 0.3708 0.38484 0.0
H432 H 0.35209 0.49414 0.39152 0.0
H433 H 0.17953 0.47484 0.39467 0.0
H434 H 0.25682 0.33652 0.37848 0.0
H435 H 0.01633 0.28862 0.30934 0.0
H436 H 0.35644 0.43759 0.38875 0.0
H437 H 0.18669 0.24821 0.30785 0.0
H438 H 0.08421 0.32309 0.31448 0.0
H439 H 0.15936 0.18243 0.30019 0.0
H440 H 0.31276 0.52258 0.39424 0.0
H441 H 0.98349 0.22167 0.30636 0.0
H442 H 0.98739 0.16477 0.30388 0.0
H443 H 0.24844 0.51549 0.39586 0.0
H444 H 0.02625 0.1358 0.30127 0.0
N445 N 0.09115 0.27639 0.31474 0.0
C446 C 0.07099 0.294 0.31317 0.0
C447 C 0.01366 0.23671 0.3086 0.0
C448 C 0.03456 0.21892 0.30908 0.0
C449 C 0.0321 0.27448 0.31019 0.0
C450 C 0.07385 0.2398 0.31196 0.0
H451 H 0.09034 0.14226 0.29942 0.0
N452 N 0.1336 0.2446 0.31195 0.0
C453 C 0.14116 0.19357 0.3032 0.0
C454 C 0.09572 0.22344 0.31048 0.0
C455 C 0.15651 0.23068 0.30746 0.0
C456 C 0.10218 0.17097 0.30284 0.0
C457 C 0.07893 0.1859 0.30611 0.0
O458 O 0.1931 0.31427 0.29346 0.0
O459 O 0.20057 0.3525 0.33945 0.0
O460 O 0.17776 0.39189 0.35102 0.0
O461 O 0.14789 0.35485 0.32176 0.0
O462 O 0.21952 0.32478 0.32209 0.0
O463 O 0.14704 0.32496 0.28996 0.0
O464 O 0.14396 0.3372 0.39887 0.0
O465 O 0.13858 0.30696 0.35323 0.0
O466 O 0.15737 0.2659 0.34254 0.0
O467 O 0.19508 0.30505 0.36913 0.0
O468 O 0.12187 0.33744 0.37077 0.0
O469 O 0.19446 0.33463 0.40298 0.0
C470 C 0.23047 0.354 0.33321 0.0
C471 C 0.17213 0.3133 0.25864 0.0
C472 C 0.17703 0.32865 0.22134 0.0
C473 C 0.17531 0.33746 0.24254 0.0
C474 C 0.17555 0.2957 0.21643 0.0
C475 C 0.17019 0.28027 0.25328 0.0
C476 C 0.17201 0.27165 0.23229 0.0
C477 C 0.16001 0.38523 0.33275 0.0
C478 C 0.17539 0.32472 0.28084 0.0
C479 C 0.03967 0.16474 0.3044 0.0
C480 C 0.01754 0.18123 0.30589 0.0
C481 C 0.11021 0.30928 0.35865 0.0
C482 C 0.16581 0.34301 0.43377 0.0
C483 C 0.16452 0.32126 0.45089 0.0
C484 C 0.16286 0.3321 0.47171 0.0
C485 C 0.16217 0.36444 0.47516 0.0
C486 C 0.16539 0.37538 0.4378 0.0
C487 C 0.16342 0.38586 0.45833 0.0
C488 C 0.17935 0.27348 0.35903 0.0
C489 C 0.1639 0.33027 0.41184 0.0
H490 H 0.17719 0.3632 0.2465 0.0
H491 H 0.17704 0.28854 0.20024 0.0
H492 H 0.16816 0.26149 0.26532 0.0
H493 H 0.171 0.24636 0.22831 0.0
H494 H 0.16457 0.29609 0.44803 0.0
H495 H 0.16071 0.37316 0.49098 0.0
H496 H 0.16578 0.39225 0.42505 0.0
H497 H 0.16267 0.41065 0.46121 0.0
Eu498 Eu 0.69459 0.84146 0.32117 0.0
C499 C 0.56173 0.80139 0.38249 0.0
C500 C 0.55558 0.85532 0.38174 0.0
C501 C 0.50147 0.79683 0.39014 0.0
C502 C 0.57771 0.83856 0.37955 0.0
C503 C 0.52359 0.78028 0.3882 0.0
C504 C 0.5174 0.83422 0.38686 0.0
C505 C 0.53241 0.72827 0.39116 0.0
N506 N 0.58365 0.78599 0.38047 0.0
C507 C 0.57007 0.75029 0.38559 0.0
C508 C 0.50895 0.74325 0.39225 0.0
Eu509 Eu 0.6473 0.8252 0.37166 0.0
N510 N 0.61478 0.85837 0.37467 0.0
C511 C 0.63146 0.89529 0.3723 0.0
C512 C 0.57245 0.89286 0.37886 0.0
C513 C 0.61058 0.91291 0.37418 0.0
H514 H 0.58839 0.73881 0.38495 0.0
H515 H 0.62395 0.94201 0.37194 0.0
H516 H 0.50003 0.84666 0.38856 0.0
H517 H 0.52156 0.69985 0.39469 0.0
H518 H 0.66064 0.91171 0.36833 0.0
H519 H 0.71567 0.72325 0.32049 0.0
H520 H 0.55636 0.90666 0.38034 0.0
H521 H 0.75421 0.92749 0.30802 0.0
H522 H 0.68048 0.75477 0.32561 0.0
H523 H 0.8206 0.96547 0.2972 0.0
H524 H 0.47209 0.78101 0.39441 0.0
H525 H 0.78247 0.75734 0.31022 0.0
H526 H 0.83886 0.81667 0.30101 0.0
H527 H 0.4798 0.72618 0.39667 0.0
H528 H 0.86765 0.88243 0.29531 0.0
N529 N 0.7263 0.80749 0.3181 0.0
C530 C 0.70928 0.77061 0.32078 0.0
C531 C 0.76704 0.77167 0.31238 0.0
C532 C 0.78438 0.80924 0.30947 0.0
C533 C 0.72935 0.75233 0.3181 0.0
C534 C 0.76309 0.8267 0.31253 0.0
H535 H 0.86123 0.93806 0.29404 0.0
N536 N 0.75832 0.87996 0.31231 0.0
C537 C 0.80954 0.93706 0.30085 0.0
C538 C 0.77962 0.86397 0.30976 0.0
C539 C 0.77214 0.91562 0.30706 0.0
C540 C 0.83237 0.92148 0.2991 0.0
C541 C 0.81738 0.88442 0.30321 0.0
O542 O 0.68715 0.86635 0.29328 0.0
O543 O 0.64553 0.83754 0.3382 0.0
O544 O 0.60676 0.7796 0.35047 0.0
O545 O 0.64526 0.78294 0.32265 0.0
O546 O 0.67428 0.88251 0.31958 0.0
O547 O 0.67781 0.81135 0.29149 0.0
O548 O 0.65562 0.80026 0.39918 0.0
O549 O 0.69661 0.82909 0.35473 0.0
O550 O 0.73524 0.88717 0.34255 0.0
O551 O 0.69619 0.8839 0.37013 0.0
O552 O 0.66646 0.7835 0.37278 0.0
O553 O 0.66357 0.85477 0.40152 0.0
C554 C 0.64457 0.86461 0.33095 0.0
C555 C 0.69723 0.84713 0.26083 0.0
C556 C 0.69314 0.85453 0.22349 0.0
C557 C 0.67555 0.84229 0.24293 0.0
C558 C 0.7324 0.87128 0.22198 0.0
C559 C 0.73633 0.86315 0.25908 0.0
C560 C 0.75385 0.87533 0.23974 0.0
C561 C 0.61353 0.7658 0.33349 0.0
C562 C 0.67889 0.83842 0.28127 0.0
C563 C 0.83862 0.86714 0.30031 0.0
C564 C 0.82219 0.82968 0.30348 0.0
C565 C 0.69674 0.80147 0.36188 0.0
C566 C 0.64615 0.81862 0.43203 0.0
C567 C 0.66966 0.82962 0.44953 0.0
C568 C 0.65448 0.81858 0.46959 0.0
C569 C 0.61544 0.79594 0.47193 0.0
C570 C 0.60722 0.7967 0.43452 0.0
C571 C 0.59197 0.78511 0.45442 0.0
C572 C 0.72792 0.90102 0.35935 0.0
C573 C 0.66343 0.82783 0.41138 0.0
H574 H 0.64526 0.82991 0.24419 0.0
H575 H 0.74634 0.88064 0.20698 0.0
H576 H 0.75341 0.86667 0.27257 0.0
H577 H 0.78409 0.88803 0.23853 0.0
H578 H 0.69983 0.8462 0.44748 0.0
H579 H 0.60298 0.78724 0.48732 0.0
H580 H 0.58862 0.78828 0.42124 0.0
H581 H 0.56194 0.76786 0.45628 0.0
Eu582 Eu 0.18368 0.82702 0.37331 0.0
C583 C 0.09742 0.86227 0.3114 0.0
C584 C 0.03663 0.80746 0.31445 0.0
C585 C 0.04009 0.8647 0.30586 0.0
C586 C 0.07624 0.82532 0.31534 0.0
C587 C 0.0795 0.88214 0.30611 0.0
C588 C 0.01871 0.82746 0.31004 0.0
C589 C 0.14065 0.93416 0.29943 0.0
N590 N 0.13549 0.87838 0.31156 0.0
C591 C 0.15712 0.91325 0.3045 0.0
C592 C 0.10169 0.9187 0.30053 0.0
Eu593 Eu 0.16074 0.84062 0.32042 0.0
N594 N 0.09427 0.80655 0.31939 0.0
C595 C 0.07442 0.7697 0.32183 0.0
C596 C 0.01616 0.7699 0.31774 0.0
C597 C 0.03519 0.75091 0.32128 0.0
H598 H 0.18727 0.92507 0.30336 0.0
H599 H 0.01968 0.72176 0.32348 0.0
H600 H 0.98834 0.81424 0.30943 0.0
H601 H 0.15797 0.96209 0.29451 0.0
H602 H 0.08854 0.75451 0.3242 0.0
H603 H 0.32361 0.94244 0.39313 0.0
H604 H 0.98574 0.75524 0.31722 0.0
H605 H 0.15771 0.73857 0.38375 0.0
H606 H 0.25542 0.91069 0.39036 0.0
H607 H 0.18648 0.70018 0.38536 0.0
H608 H 0.02586 0.8796 0.30198 0.0
H609 H 0.35818 0.90947 0.38727 0.0
H610 H 0.35595 0.85013 0.38188 0.0
H611 H 0.08896 0.93486 0.2964 0.0
H612 H 0.31831 0.78355 0.38007 0.0
N613 N 0.25013 0.86016 0.37986 0.0
C614 C 0.26951 0.8958 0.38637 0.0
C615 C 0.32795 0.89534 0.38531 0.0
C616 C 0.30781 0.85808 0.381 0.0
C617 C 0.30856 0.91404 0.3886 0.0
C618 C 0.26835 0.84089 0.37859 0.0
H619 H 0.25524 0.72749 0.38209 0.0
N620 N 0.20921 0.78761 0.37743 0.0
C621 C 0.2039 0.72907 0.38267 0.0
C622 C 0.2472 0.80342 0.37735 0.0
C623 C 0.18768 0.75112 0.38142 0.0
C624 C 0.24267 0.74458 0.38079 0.0
C625 C 0.26494 0.78225 0.37872 0.0
O626 O 0.15011 0.7912 0.39871 0.0
O627 O 0.13571 0.81638 0.3517 0.0
O628 O 0.17256 0.89083 0.33925 0.0
O629 O 0.20587 0.88694 0.36769 0.0
O630 O 0.14144 0.84519 0.37886 0.0
O631 O 0.18742 0.8486 0.40487 0.0
O632 O 0.19404 0.86017 0.29191 0.0
O633 O 0.20394 0.83738 0.3402 0.0
O634 O 0.14903 0.772 0.35686 0.0
O635 O 0.16187 0.78816 0.32199 0.0
O636 O 0.22274 0.88233 0.32086 0.0
O637 O 0.14158 0.80955 0.29095 0.0
C638 C 0.11984 0.82947 0.36308 0.0
C639 C 0.17096 0.8094 0.43374 0.0
C640 C 0.16846 0.81723 0.47146 0.0
C641 C 0.16345 0.82566 0.45091 0.0
C642 C 0.18174 0.79279 0.47459 0.0
C643 C 0.1845 0.78538 0.43707 0.0
C644 C 0.18983 0.77714 0.45748 0.0
C645 C 0.19475 0.90494 0.35569 0.0
C646 C 0.16314 0.81728 0.41266 0.0
C647 C 0.30427 0.79939 0.37933 0.0
C648 C 0.3257 0.83729 0.38038 0.0
C649 C 0.23306 0.86555 0.33377 0.0
C650 C 0.16408 0.84266 0.25928 0.0
C651 C 0.17937 0.83419 0.24187 0.0
C652 C 0.1781 0.84745 0.22196 0.0
C653 C 0.16121 0.86892 0.21953 0.0
C654 C 0.14636 0.8633 0.25654 0.0
C655 C 0.14512 0.87651 0.23673 0.0
C656 C 0.15183 0.76404 0.33707 0.0
C657 C 0.17055 0.83308 0.2803 0.0
H658 H 0.15267 0.84401 0.44827 0.0
H659 H 0.186 0.7859 0.4903 0.0
H660 H 0.19063 0.77282 0.42398 0.0
H661 H 0.20003 0.75839 0.46007 0.0
H662 H 0.19331 0.81842 0.2439 0.0
H663 H 0.16034 0.87964 0.20427 0.0
H664 H 0.13404 0.86967 0.26967 0.0
H665 H 0.13202 0.89297 0.23475 0.0
Eu666 Eu 0.82447 0.64374 0.65278 0.0
C667 C 0.91418 0.77061 0.71822 0.0
C668 C 0.97518 0.77495 0.72033 0.0
C669 C 0.9695 0.82816 0.72763 0.0
C670 C 0.93626 0.75469 0.71593 0.0
C671 C 0.93052 0.80741 0.72445 0.0
C672 C 0.99175 0.81189 0.72569 0.0
C673 C 0.86819 0.79953 0.72642 0.0
N674 N 0.87648 0.74963 0.71564 0.0
C675 C 0.85327 0.76304 0.72064 0.0
C676 C 0.90704 0.82195 0.72807 0.0
Eu677 Eu 0.85303 0.68801 0.70555 0.0
N678 N 0.91951 0.719 0.71051 0.0
C679 C 0.94017 0.70179 0.71008 0.0
C680 C 0.99615 0.75724 0.71993 0.0
C681 C 0.97839 0.72032 0.71512 0.0
H682 H 0.82312 0.74558 0.71965 0.0
H683 H 0.99437 0.70636 0.71449 0.0
H684 H 0.02162 0.82788 0.72886 0.0
H685 H 0.84971 0.81024 0.72976 0.0
H686 H 0.92839 0.67439 0.70474 0.0
H687 H 0.68052 0.62155 0.65214 0.0
H688 H 0.02595 0.77175 0.72341 0.0
H689 H 0.85463 0.58702 0.63797 0.0
H690 H 0.74843 0.65692 0.65574 0.0
H691 H 0.82821 0.52247 0.62756 0.0
H692 H 0.98254 0.8565 0.73226 0.0
H693 H 0.64944 0.55618 0.6433 0.0
H694 H 0.65508 0.50164 0.63447 0.0
H695 H 0.91854 0.85011 0.73278 0.0
H696 H 0.69495 0.47455 0.62813 0.0
N697 N 0.75767 0.61243 0.64918 0.0
C698 C 0.73623 0.62866 0.65167 0.0
C699 C 0.67975 0.57167 0.6448 0.0
C700 C 0.70163 0.5553 0.64164 0.0
C701 C 0.69717 0.60854 0.64975 0.0
C702 C 0.74104 0.57663 0.6439 0.0
H703 H 0.75933 0.48201 0.62559 0.0
N704 N 0.80119 0.58236 0.64275 0.0
C705 C 0.80967 0.53294 0.63132 0.0
C706 C 0.76342 0.56117 0.64066 0.0
C707 C 0.8245 0.56935 0.63721 0.0
C708 C 0.77078 0.51019 0.63024 0.0
C709 C 0.74714 0.52431 0.6346 0.0
O710 O 0.85915 0.65258 0.62503 0.0
O711 O 0.86793 0.68965 0.67182 0.0
O712 O 0.84504 0.72679 0.6853 0.0
O713 O 0.81282 0.69064 0.65607 0.0
O714 O 0.88695 0.66336 0.65303 0.0
O715 O 0.81276 0.66282 0.62325 0.0
O716 O 0.81632 0.6758 0.73258 0.0
O717 O 0.80922 0.64263 0.68641 0.0
O718 O 0.83043 0.60385 0.67341 0.0
O719 O 0.86439 0.6411 0.7017 0.0
O720 O 0.79139 0.67045 0.70561 0.0
O721 O 0.86454 0.6685 0.73507 0.0
C722 C 0.89757 0.69182 0.66475 0.0
C723 C 0.83354 0.64856 0.5914 0.0
C724 C 0.84812 0.65874 0.55386 0.0
C725 C 0.85095 0.67251 0.57442 0.0
C726 C 0.82714 0.62091 0.55058 0.0
C727 C 0.81251 0.61104 0.58761 0.0
C728 C 0.80935 0.59736 0.5673 0.0
C729 C 0.82437 0.71974 0.66822 0.0
C730 C 0.84034 0.66269 0.61311 0.0
C731 C 0.70795 0.50294 0.63265 0.0
C732 C 0.68526 0.51838 0.63621 0.0
C733 C 0.78042 0.64249 0.6934 0.0
C734 C 0.84007 0.67927 0.76672 0.0
C735 C 0.83848 0.65632 0.78311 0.0
C736 C 0.8387 0.66661 0.80419 0.0
C737 C 0.84023 0.69971 0.80873 0.0
C738 C 0.842 0.71246 0.77168 0.0
C739 C 0.84194 0.72249 0.79256 0.0
C740 C 0.85099 0.61068 0.69057 0.0
C741 C 0.83562 0.66665 0.74472 0.0
H742 H 0.86762 0.70153 0.5773 0.0
H743 H 0.82429 0.60953 0.53497 0.0
H744 H 0.79901 0.59227 0.60036 0.0
H745 H 0.79332 0.56833 0.56451 0.0
H746 H 0.8364 0.63038 0.77949 0.0
H747 H 0.83986 0.7078 0.82486 0.0
H748 H 0.84265 0.73027 0.75943 0.0
H749 H 0.84282 0.74783 0.79622 0.0
Eu750 Eu 0.36018 0.17651 0.65558 0.0
C751 C 0.22606 0.13474 0.70907 0.0
C752 C 0.22369 0.19072 0.71112 0.0
C753 C 0.166 0.13274 0.71325 0.0
C754 C 0.24457 0.17257 0.70903 0.0
C755 C 0.18664 0.11465 0.71191 0.0
C756 C 0.18445 0.17064 0.71272 0.0
C757 C 0.19081 0.06022 0.7149 0.0
N758 N 0.24654 0.11763 0.7082 0.0
C759 C 0.22959 0.08106 0.71223 0.0
C760 C 0.16913 0.07698 0.71442 0.0
Eu761 Eu 0.31285 0.15574 0.70577 0.0
N762 N 0.28282 0.19161 0.70841 0.0
C763 C 0.30146 0.22872 0.71095 0.0
C764 C 0.24282 0.22861 0.71248 0.0
C765 C 0.28184 0.24761 0.71268 0.0
H766 H 0.2459 0.06757 0.71362 0.0
H767 H 0.29695 0.27694 0.71418 0.0
H768 H 0.16817 0.18423 0.71434 0.0
H769 H 0.17778 0.03131 0.71773 0.0
H770 H 0.33152 0.2448 0.71137 0.0
H771 H 0.3746 0.05541 0.65656 0.0
H772 H 0.22774 0.2434 0.71403 0.0
H773 H 0.42339 0.2619 0.64221 0.0
H774 H 0.34085 0.08973 0.65773 0.0
H775 H 0.49149 0.29841 0.63472 0.0
H776 H 0.13581 0.11767 0.71537 0.0
H777 H 0.44359 0.08795 0.65198 0.0
H778 H 0.50337 0.14687 0.6461 0.0
H779 H 0.13907 0.0608 0.71685 0.0
H780 H 0.53515 0.21289 0.64029 0.0
N781 N 0.39016 0.14132 0.65446 0.0
C782 C 0.37088 0.10428 0.65581 0.0
C783 C 0.42888 0.10319 0.65256 0.0
C784 C 0.44827 0.14102 0.65032 0.0
C785 C 0.38995 0.08471 0.65512 0.0
C786 C 0.42782 0.1596 0.65128 0.0
H787 H 0.53096 0.26952 0.63588 0.0
N788 N 0.42504 0.21362 0.64858 0.0
C789 C 0.47908 0.26996 0.63869 0.0
C790 C 0.44579 0.19683 0.64827 0.0
C791 C 0.44068 0.24933 0.64299 0.0
C792 C 0.50125 0.25355 0.63938 0.0
C793 C 0.48459 0.21643 0.64388 0.0
O794 O 0.35006 0.19953 0.62769 0.0
O795 O 0.31126 0.1735 0.67298 0.0
O796 O 0.2878 0.10311 0.68632 0.0
O797 O 0.30423 0.12554 0.65257 0.0
O798 O 0.34698 0.22198 0.65768 0.0
O799 O 0.35059 0.14907 0.62495 0.0
O800 O 0.30494 0.11732 0.73056 0.0
O801 O 0.3526 0.14634 0.68571 0.0
O802 O 0.39864 0.22323 0.67706 0.0
O803 O 0.36184 0.21318 0.70709 0.0
O804 O 0.36957 0.1655 0.71597 0.0
O805 O 0.31417 0.17184 0.73864 0.0
C806 C 0.31554 0.20411 0.66767 0.0
C807 C 0.36177 0.18429 0.59412 0.0
C808 C 0.3511 0.17686 0.55652 0.0
C809 C 0.33962 0.16423 0.57696 0.0
C810 C 0.38503 0.20928 0.55326 0.0
C811 C 0.39591 0.21643 0.59069 0.0
C812 C 0.4075 0.22879 0.5703 0.0
C813 C 0.28323 0.09957 0.66573 0.0
C814 C 0.34626 0.17359 0.61524 0.0
C815 C 0.50528 0.19824 0.64351 0.0
C816 C 0.48717 0.16064 0.64677 0.0
C817 C 0.37879 0.15524 0.69909 0.0
C818 C 0.30528 0.13119 0.76758 0.0
C819 C 0.32783 0.15739 0.78271 0.0
C820 C 0.32453 0.14765 0.80397 0.0
C821 C 0.29826 0.11206 0.80997 0.0
C822 C 0.27932 0.09574 0.77385 0.0
C823 C 0.2757 0.08634 0.79499 0.0
C824 C 0.39211 0.23299 0.69562 0.0
C825 C 0.30825 0.14036 0.74526 0.0
H826 H 0.31286 0.13972 0.57951 0.0
H827 H 0.39399 0.21951 0.53752 0.0
H828 H 0.41303 0.23251 0.60371 0.0
H829 H 0.43357 0.25387 0.56773 0.0
H830 H 0.34827 0.18477 0.77797 0.0
H831 H 0.2954 0.10417 0.82631 0.0
H832 H 0.26156 0.07539 0.76241 0.0
H833 H 0.25547 0.05899 0.79976 0.0
Eu834 Eu 0.85056 0.15546 0.70661 0.0
C835 C 0.76351 0.19535 0.64365 0.0
C836 C 0.70224 0.14072 0.64274 0.0
C837 C 0.70768 0.19889 0.63474 0.0
C838 C 0.74161 0.1579 0.6458 0.0
C839 C 0.74664 0.21604 0.63778 0.0
C840 C 0.68554 0.16138 0.6373 0.0
C841 C 0.80822 0.26927 0.6368 0.0
N842 N 0.80122 0.21156 0.64668 0.0
C843 C 0.82372 0.24781 0.64244 0.0
C844 C 0.76947 0.2534 0.63465 0.0
Eu845 Eu 0.82588 0.17277 0.65439 0.0
N846 N 0.75843 0.1383 0.65097 0.0
C847 C 0.73675 0.10115 0.65295 0.0
C848 C 0.68051 0.10315 0.64518 0.0
C849 C 0.69787 0.08336 0.65033 0.0
H850 H 0.85396 0.26044 0.643 0.0
H851 H 0.68126 0.0542 0.65233 0.0
H852 H 0.65547 0.14851 0.63486 0.0
H853 H 0.82626 0.29797 0.63378 0.0
H854 H 0.74804 0.08417 0.65728 0.0
H855 H 0.99186 0.27384 0.70183 0.0
H856 H 0.6503 0.08914 0.64309 0.0
H857 H 0.82451 0.07138 0.72339 0.0
H858 H 0.92304 0.24101 0.70091 0.0
H859 H 0.85356 0.03373 0.73116 0.0
H860 H 0.6944 0.2144 0.63025 0.0
H861 H 0.02577 0.2402 0.70768 0.0
H862 H 0.02311 0.18093 0.71474 0.0
H863 H 0.75753 0.27005 0.63006 0.0
H864 H 0.98555 0.1155 0.72209 0.0
N865 N 0.91716 0.18929 0.70687 0.0
C866 C 0.9371 0.22607 0.70411 0.0
C867 C 0.99534 0.22567 0.70757 0.0
C868 C 0.97484 0.1881 0.71081 0.0
C869 C 0.97634 0.24477 0.70436 0.0
C870 C 0.93522 0.17043 0.71048 0.0
H871 H 0.92243 0.06045 0.72828 0.0
N872 N 0.87604 0.11766 0.71463 0.0
C873 C 0.87088 0.06162 0.7262 0.0
C874 C 0.91404 0.13351 0.71433 0.0
C875 C 0.85451 0.08281 0.72162 0.0
C876 C 0.90975 0.07681 0.72456 0.0
C877 C 0.93194 0.11338 0.71902 0.0
O878 O 0.81621 0.13653 0.73477 0.0
O879 O 0.80743 0.1601 0.68771 0.0
O880 O 0.8552 0.22733 0.67289 0.0
O881 O 0.84944 0.20742 0.70731 0.0
O882 O 0.7889 0.11365 0.70587 0.0
O883 O 0.87104 0.18414 0.73685 0.0
O884 O 0.86099 0.20704 0.62861 0.0
O885 O 0.87403 0.18259 0.6757 0.0
O886 O 0.83624 0.10529 0.68729 0.0
O887 O 0.81071 0.11392 0.65649 0.0
O888 O 0.86999 0.15797 0.64704 0.0
O889 O 0.81719 0.15131 0.62252 0.0
C890 C 0.77843 0.1321 0.69437 0.0
C891 C 0.84332 0.1517 0.76839 0.0
C892 C 0.83677 0.15831 0.80592 0.0
C893 C 0.83927 0.1709 0.78532 0.0
C894 C 0.83861 0.12666 0.8095 0.0
C895 C 0.84557 0.12035 0.77228 0.0
C896 C 0.84322 0.10792 0.79275 0.0
C897 C 0.85723 0.2331 0.69355 0.0
C898 C 0.84044 0.16222 0.74687 0.0
C899 C 0.97134 0.1306 0.7187 0.0
C900 C 0.99273 0.16787 0.71459 0.0
C901 C 0.89033 0.17111 0.66348 0.0
C902 C 0.83926 0.19031 0.59322 0.0
C903 C 0.85425 0.18046 0.5761 0.0
C904 C 0.84953 0.1892 0.55547 0.0
C905 C 0.82931 0.20739 0.55218 0.0
C906 C 0.81872 0.20796 0.58955 0.0
C907 C 0.81386 0.21649 0.5691 0.0
C908 C 0.81865 0.09401 0.6691 0.0
C909 C 0.84467 0.18102 0.61463 0.0
H910 H 0.83688 0.19483 0.78245 0.0
H911 H 0.83634 0.11641 0.82529 0.0
H912 H 0.84814 0.10496 0.75952 0.0
H913 H 0.84442 0.08341 0.79561 0.0
H914 H 0.87004 0.16664 0.57883 0.0
H915 H 0.82551 0.21456 0.53644 0.0
H916 H 0.80638 0.21507 0.60241 0.0
H917 H 0.79817 0.23033 0.56634 0.0
H918 H 0.27678 0.85041 0.04729 0.0
H919 H 0.33669 0.82944 0.09555 0.0
H920 H 0.39683 0.87348 0.07965 0.0
H921 H 0.43218 0.91951 0.05248 0.0
H922 H 0.37158 0.95125 0.01101 0.0
H923 H 0.31196 0.90001 0.02237 0.0
C924 C 0.30308 0.85531 0.05415 0.0
C925 C 0.30254 0.83642 0.07228 0.0
C926 C 0.33732 0.88158 0.04543 0.0
C927 C 0.33663 0.84357 0.08146 0.0
C928 C 0.3709 0.86856 0.07232 0.0
C929 C 0.40582 0.91422 0.04549 0.0
C930 C 0.40617 0.93657 0.02915 0.0
C931 C 0.37158 0.8877 0.05425 0.0
C932 C 0.37201 0.9318 0.02163 0.0
C933 C 0.3379 0.90335 0.02882 0.0
H934 H 0.15918 0.4817 0.09008 0.0
H935 H 0.16665 0.41092 0.04382 0.0
H936 H 0.11908 0.41363 0.0224 0.0
H937 H 0.07214 0.43221 0.01821 0.0
H938 H 0.07 0.51016 0.06061 0.0
H939 H 0.11641 0.50654 0.08309 0.0
C940 C 0.14998 0.4666 0.07543 0.0
C941 C 0.16602 0.44566 0.06873 0.0
C942 C 0.12319 0.46915 0.06272 0.0
C943 C 0.15445 0.42687 0.04946 0.0
C944 C 0.12729 0.42846 0.03716 0.0
C945 C 0.08334 0.45017 0.03148 0.0
C946 C 0.06864 0.47258 0.03698 0.0
C947 C 0.11138 0.44935 0.04365 0.0
C948 C 0.08153 0.49333 0.05559 0.0
C949 C 0.10799 0.49115 0.06853 0.0
H950 H 0.58194 0.73528 0.04207 0.0
H951 H 0.53083 0.68683 0.1013 0.0
H952 H 0.51404 0.62684 0.08783 0.0
H953 H 0.51562 0.5883 0.05986 0.0
H954 H 0.56268 0.63427 0.99971 0.0
H955 H 0.57969 0.69525 0.0128 0.0
C956 C 0.5668 0.71146 0.05185 0.0
C957 C 0.55817 0.71541 0.07272 0.0
C958 C 0.55695 0.67682 0.04395 0.0
C959 C 0.53846 0.68445 0.08532 0.0
C960 C 0.52878 0.65016 0.07765 0.0
C961 C 0.52971 0.6118 0.0497 0.0
C962 C 0.53842 0.60739 0.02908 0.0
C963 C 0.53837 0.64613 0.05715 0.0
C964 C 0.55591 0.63749 0.01573 0.0
C965 C 0.56556 0.67218 0.0232 0.0
H966 H 0.87108 0.28802 0.941 0.0
H967 H 0.77887 0.26795 0.9819 0.0
H968 H 0.81938 0.32342 1.00154 0.0
H969 H 0.88132 0.37942 1.00657 0.0
H970 H 0.96928 0.4013 0.96174 0.0
H971 H 0.93027 0.3442 0.94452 0.0
C972 C 0.85946 0.29592 0.95395 0.0
C973 C 0.82192 0.27338 0.95989 0.0
C974 C 0.88245 0.32849 0.96479 0.0
C975 C 0.8079 0.28414 0.9771 0.0
C976 C 0.831 0.31614 0.98833 0.0
C977 C 0.89201 0.37153 0.99319 0.0
C978 C 0.92893 0.39467 0.98615 0.0
C979 C 0.86847 0.3387 0.98233 0.0
C980 C 0.9417 0.38408 0.96829 0.0
C981 C 0.91915 0.35128 0.95807 0.0
H982 H 0.73114 0.56738 0.98278 0.0
H983 H 0.67904 0.50781 0.92593 0.0
H984 H 0.61735 0.49354 0.93901 0.0
H985 H 0.57817 0.49973 0.96607 0.0
H986 H 0.63145 0.57004 0.01886 0.0
H987 H 0.69199 0.57637 1.00903 0.0
C988 C 0.70617 0.55084 0.97345 0.0
C989 C 0.70964 0.53847 0.9535 0.0
C990 C 0.67074 0.54362 0.98081 0.0
C991 C 0.67712 0.51769 0.94134 0.0
C992 C 0.64179 0.50937 0.94884 0.0
C993 C 0.60299 0.51561 0.97567 0.0
C994 C 0.59996 0.53176 0.99433 0.0
C995 C 0.63825 0.52228 0.96851 0.0
C996 C 0.63257 0.55452 1.00574 0.0
C997 C 0.66739 0.55906 0.99964 0.0
H998 H 0.41427 0.14638 0.98332 0.0
H999 H 0.4723 0.15673 0.92493 0.0
H1000 H 0.49488 0.11748 0.93796 0.0
H1001 H 0.49874 0.08063 0.96572 0.0
H1002 H 0.44369 0.07096 0.02487 0.0
H1003 H 0.41937 0.1097 0.01193 0.0
C1004 C 0.4317 0.13978 0.97352 0.0
C1005 C 0.44105 0.15377 0.95311 0.0
C1006 C 0.44528 0.11764 0.98126 0.0
C1007 C 0.46384 0.14537 0.9405 0.0
C1008 C 0.47713 0.12328 0.94798 0.0
C1009 C 0.48158 0.08728 0.97575 0.0
C1010 C 0.47302 0.07354 0.99608 0.0
C1011 C 0.46809 0.10938 0.96828 0.0
C1012 C 0.45097 0.08206 1.00918 0.0
C1013 C 0.43689 0.10384 1.00175 0.0
H1014 H 0.6782 0.16295 0.95526 0.0
H1015 H 0.7517 0.12187 0.9716 0.0
H1016 H 0.70061 0.07167 0.99106 0.0
H1017 H 0.63345 0.03684 1.00041 0.0
H1018 H 0.56154 0.08079 0.9861 0.0
H1019 H 0.61327 0.1323 0.96843 0.0
C1020 C 0.68281 0.14295 0.9632 0.0
C1021 C 0.71795 0.14524 0.96189 0.0
C1022 C 0.6537 0.11485 0.97455 0.0
C1023 C 0.72436 0.11984 0.97227 0.0
C1024 C 0.69533 0.0914 0.98339 0.0
C1025 C 0.62969 0.05855 0.99419 0.0
C1026 C 0.59421 0.05565 0.99502 0.0
C1027 C 0.65973 0.08835 0.98434 0.0
C1028 C 0.58901 0.08312 0.98624 0.0
C1029 C 0.61843 0.11233 0.9759 0.0
H1030 H 0.88331 0.58308 0.94823 0.0
H1031 H 0.78489 0.48795 0.97162 0.0
H1032 H 0.82433 0.46989 0.99055 0.0
H1033 H 0.8868 0.47699 0.99723 0.0
H1034 H 0.98547 0.57269 0.97525 0.0
H1035 H 0.9463 0.59415 0.95878 0.0
C1036 C 0.8705 0.55841 0.95746 0.0
C1037 C 0.83099 0.53689 0.95827 0.0
C1038 C 0.8935 0.54807 0.96853 0.0
C1039 C 0.81508 0.50528 0.97068 0.0
C1040 C 0.83765 0.49474 0.9815 0.0
C1041 C 0.89967 0.50329 0.98963 0.0
C1042 C 0.93897 0.52372 0.98797 0.0
C1043 C 0.87688 0.51549 0.98025 0.0
C1044 C 0.95528 0.55706 0.9773 0.0
C1045 C 0.93284 0.56909 0.96764 0.0
H1046 H 0.40937 0.28551 0.94556 0.0
H1047 H 0.4948 0.27203 0.97664 0.0
H1048 H 0.5124 0.32604 0.99802 0.0
H1049 H 0.50605 0.37996 1.00652 0.0
H1050 H 0.42575 0.39574 0.97126 0.0
H1051 H 0.40376 0.3386 0.95343 0.0
C1052 C 0.43204 0.29448 0.95687 0.0
C1053 C 0.45032 0.2744 0.95952 0.0
C1054 C 0.44277 0.3261 0.96877 0.0
C1055 C 0.4795 0.28642 0.97449 0.0
C1056 C 0.48983 0.31753 0.98671 0.0
C1057 C 0.48305 0.37028 0.99542 0.0
C1058 C 0.46658 0.39166 0.99111 0.0
C1059 C 0.47175 0.3378 0.98396 0.0
C1060 C 0.43795 0.37942 0.97582 0.0
C1061 C 0.42564 0.3468 0.96517 0.0
H1062 H 0.14239 0.73352 0.05436 0.0
H1063 H 0.21686 0.69744 0.07725 0.0
H1064 H 0.1768 0.63713 0.06193 0.0
H1065 H 0.11894 0.59373 0.04349 0.0
H1066 H 0.04661 0.63023 0.01788 0.0
H1067 H 0.08699 0.69114 0.03278 0.0
C1068 C 0.14978 0.7124 0.05574 0.0
C1069 C 0.18222 0.71946 0.06689 0.0
C1070 C 0.12685 0.67791 0.04658 0.0
C1071 C 0.19189 0.69224 0.06867 0.0
C1072 C 0.169 0.65785 0.05998 0.0
C1073 C 0.11235 0.61524 0.04108 0.0
C1074 C 0.07987 0.60774 0.02994 0.0
C1075 C 0.1362 0.65023 0.04914 0.0
C1076 C 0.07153 0.63559 0.02656 0.0
C1077 C 0.09456 0.67033 0.03508 0.0
H1078 H 0.29769 0.41414 0.073 0.0
H1079 H 0.29903 0.51323 0.05658 0.0
H1080 H 0.35724 0.53386 0.03706 0.0
H1081 H 0.41111 0.52661 0.02758 0.0
H1082 H 0.40968 0.42733 0.04288 0.0
H1083 H 0.34845 0.40385 0.0599 0.0
C1084 C 0.31081 0.44021 0.06514 0.0
C1085 C 0.2943 0.4623 0.06641 0.0
C1086 C 0.34425 0.45185 0.05373 0.0
C1087 C 0.31122 0.49576 0.05584 0.0
C1088 C 0.34452 0.50761 0.04469 0.0
C1089 C 0.39666 0.49939 0.03406 0.0
C1090 C 0.41431 0.47848 0.03382 0.0
C1091 C 0.36161 0.48621 0.04381 0.0
C1092 C 0.39605 0.44356 0.04263 0.0
C1093 C 0.36128 0.43031 0.05252 0.0
H1094 H 0.57022 0.82797 0.04161 0.0
H1095 H 0.54468 0.84731 0.10472 0.0
H1096 H 0.5282 0.89078 0.09177 0.0
H1097 H 0.51818 0.92164 0.06292 0.0
H1098 H 0.53763 0.89991 0.99932 0.0
H1099 H 0.55735 0.8577 0.012 0.0
C1100 C 0.56058 0.84129 0.0525 0.0
C1101 C 0.55971 0.83474 0.07419 0.0
C1102 C 0.54917 0.86529 0.04486 0.0
C1103 C 0.54726 0.8526 0.08802 0.0
C1104 C 0.53717 0.87721 0.08064 0.0
C1105 C 0.5267 0.90767 0.05179 0.0
C1106 C 0.52603 0.91354 0.03023 0.0
C1107 C 0.5378 0.88357 0.05915 0.0
C1108 C 0.53703 0.89517 0.01599 0.0
C1109 C 0.5487 0.87133 0.02326 0.0
H1110 H 0.94434 0.20147 0.38769 0.0
H1111 H 0.99946 0.14988 0.4174 0.0
H1112 H 0.05885 0.19244 0.40015 0.0
H1113 H 0.09578 0.24649 0.3778 0.0
H1114 H 0.04234 0.30357 0.35312 0.0
H1115 H 0.98155 0.25638 0.36636 0.0
C1116 C 0.96941 0.19957 0.39025 0.0
C1117 C 0.9677 0.17259 0.40363 0.0
C1118 C 1.00357 0.22477 0.38075 0.0
C1119 C 1.00029 0.17049 0.4071 0.0
C1120 C 0.03413 0.19472 0.39719 0.0
C1121 C 0.07054 0.24788 0.37481 0.0
C1122 C 0.07306 0.2774 0.36343 0.0
C1123 C 0.03618 0.22211 0.384 0.0
C1124 C 0.04068 0.28017 0.36088 0.0
C1125 C 0.00605 0.25351 0.36877 0.0
H1126 H 0.85709 0.8241 0.38712 0.0
H1127 H 0.78597 0.72687 0.42229 0.0
H1128 H 0.73034 0.72544 0.40809 0.0
H1129 H 0.7012 0.75122 0.38577 0.0
H1130 H 0.77094 0.85195 0.35364 0.0
H1131 H 0.8273 0.85144 0.36542 0.0
C1132 C 0.82942 0.80236 0.39147 0.0
C1133 C 0.82603 0.77563 0.40585 0.0
C1134 C 0.79709 0.80178 0.38331 0.0
C1135 C 0.78975 0.74807 0.41152 0.0
C1136 C 0.75775 0.74703 0.40325 0.0
C1137 C 0.7287 0.77294 0.38114 0.0
C1138 C 0.73155 0.80075 0.36796 0.0
C1139 C 0.76102 0.77366 0.38914 0.0
C1140 C 0.76762 0.82924 0.36283 0.0
C1141 C 0.79999 0.82928 0.36992 0.0
H1142 H 0.27621 0.06588 0.38884 0.0
H1143 H 0.16857 0.02737 0.41829 0.0
H1144 H 0.14416 0.96829 0.40064 0.0
H1145 H 0.15414 0.92733 0.37736 0.0
H1146 H 0.26301 0.96414 0.34996 0.0
H1147 H 0.28653 0.02447 0.36594 0.0
C1148 C 0.24754 0.0443 0.39142 0.0
C1149 C 0.2241 0.05036 0.40484 0.0
C1150 C 0.23397 0.01053 0.38135 0.0
C1151 C 0.18698 0.02271 0.40816 0.0
C1152 C 0.17305 0.98921 0.39797 0.0
C1153 C 0.18272 0.94898 0.3746 0.0
C1154 C 0.2067 0.94219 0.36215 0.0
C1155 C 0.19625 0.98285 0.38451 0.0
C1156 C 0.24404 0.96956 0.3591 0.0
C1157 C 0.25749 0.00374 0.3684 0.0
H1158 H 0.46736 0.62077 0.30604 0.0
H1159 H 0.55002 0.6059 0.27226 0.0
H1160 H 0.5999 0.66348 0.28592 0.0
H1161 H 0.62037 0.71884 0.30693 0.0
H1162 H 0.53853 0.73245 0.34236 0.0
H1163 H 0.48843 0.67438 0.329 0.0
C1164 C 0.49629 0.62983 0.30186 0.0
C1165 C 0.50455 0.60912 0.28774 0.0
C1166 C 0.5252 0.66283 0.31014 0.0
C1167 C 0.54242 0.62161 0.28253 0.0
C1168 C 0.57116 0.6545 0.29049 0.0
C1169 C 0.59162 0.70911 0.31178 0.0
C1170 C 0.58336 0.73007 0.32567 0.0
C1171 C 0.56287 0.67553 0.30414 0.0
C1172 C 0.54586 0.71681 0.33185 0.0
C1173 C 0.51708 0.68363 0.32413 0.0
H1174 H 0.40065 0.91173 0.31218 0.0
H1175 H 0.34473 0.81235 0.27633 0.0
H1176 H 0.28417 0.79837 0.29167 0.0
H1177 H 0.24646 0.81704 0.3133 0.0
H1178 H 0.30151 0.92158 0.34394 0.0
H1179 H 0.36296 0.93055 0.3335 0.0
C1180 C 0.37527 0.88656 0.30826 0.0
C1181 C 0.37715 0.86248 0.29371 0.0
C1182 C 0.3404 0.8796 0.31645 0.0
C1183 C 0.34396 0.83069 0.28797 0.0
C1184 C 0.30936 0.82287 0.29664 0.0
C1185 C 0.27208 0.84123 0.31818 0.0
C1186 C 0.26978 0.86785 0.33035 0.0
C1187 C 0.30713 0.84734 0.31071 0.0
C1188 C 0.30286 0.90008 0.33545 0.0
C1189 C 0.33792 0.9054 0.32921 0.0
H1190 H 0.13409 0.48454 0.27114 0.0
H1191 H 0.09112 0.50852 0.32717 0.0
H1192 H 0.10958 0.47151 0.34791 0.0
H1193 H 0.13525 0.42928 0.34956 0.0
H1194 H 0.17276 0.40296 0.29219 0.0
H1195 H 0.1584 0.44327 0.27252 0.0
C1196 C 0.12807 0.48129 0.28782 0.0
C1197 C 0.11085 0.499 0.29749 0.0
C1198 C 0.13788 0.45947 0.29946 0.0
C1199 C 0.10454 0.49533 0.3193 0.0
C1200 C 0.11494 0.47404 0.33116 0.0
C1201 C 0.14088 0.43309 0.33285 0.0
C1202 C 0.15541 0.41356 0.32235 0.0
C1203 C 0.13149 0.45575 0.32138 0.0
C1204 C 0.16184 0.41793 0.30062 0.0
C1205 C 0.1535 0.44085 0.28932 0.0
H1206 H 0.33956 0.48049 0.27263 0.0
H1207 H 0.42097 0.49147 0.31898 0.0
H1208 H 0.37135 0.44322 0.3399 0.0
H1209 H 0.30561 0.39337 0.34286 0.0
H1210 H 0.22273 0.38959 0.30031 0.0
H1211 H 0.27194 0.43788 0.27933 0.0
C1212 C 0.34631 0.47241 0.28738 0.0
C1213 C 0.38398 0.48921 0.2941 0.0
C1214 C 0.31742 0.44535 0.29972 0.0
C1215 C 0.39225 0.47886 0.31341 0.0
C1216 C 0.3639 0.45116 0.32535 0.0
C1217 C 0.29805 0.40431 0.32977 0.0
C1218 C 0.26033 0.38804 0.32348 0.0
C1219 C 0.32645 0.43374 0.31849 0.0
C1220 C 0.25149 0.40156 0.30556 0.0
C1221 C 0.27968 0.42928 0.29354 0.0
H1222 H 0.48215 0.83523 0.30514 0.0
H1223 H 0.54979 0.94083 0.27717 0.0
H1224 H 0.60643 0.94445 0.29149 0.0
H1225 H 0.63767 0.91734 0.31107 0.0
H1226 H 0.57124 0.8104 0.33728 0.0
H1227 H 0.51377 0.80833 0.32547 0.0
C1228 C 0.50923 0.85921 0.30238 0.0
C1229 C 0.51143 0.88752 0.28982 0.0
C1230 C 0.54215 0.86118 0.31067 0.0
C1231 C 0.54701 0.91823 0.28635 0.0
C1232 C 0.57957 0.92051 0.2947 0.0
C1233 C 0.6106 0.89372 0.31441 0.0
C1234 C 0.60904 0.86448 0.32558 0.0
C1235 C 0.57759 0.89208 0.30673 0.0
C1236 C 0.57358 0.83381 0.32932 0.0
C1237 C 0.54053 0.83242 0.3223 0.0
H1238 H 0.07571 0.59679 0.31449 0.0
H1239 H 0.14949 0.64131 0.26125 0.0
H1240 H 0.1743 0.70274 0.27549 0.0
H1241 H 0.17507 0.74346 0.30291 0.0
H1242 H 0.10049 0.7003 0.35597 0.0
H1243 H 0.07599 0.6384 0.34212 0.0
C1244 C 0.09692 0.62011 0.30598 0.0
C1245 C 0.11055 0.61483 0.28677 0.0
C1246 C 0.11104 0.65531 0.31431 0.0
C1247 C 0.13814 0.64497 0.27584 0.0
C1248 C 0.15255 0.67996 0.28408 0.0
C1249 C 0.15351 0.7205 0.31151 0.0
C1250 C 0.13963 0.72634 0.33045 0.0
C1251 C 0.13926 0.68538 0.30329 0.0
C1252 C 0.11198 0.69638 0.34151 0.0
C1253 C 0.09775 0.66109 0.33348 0.0
H1254 H 0.86701 0.02919 0.40576 0.0
H1255 H 0.80767 0.08593 0.39106 0.0
H1256 H 0.75864 0.03166 0.3729 0.0
H1257 H 0.7314 0.96671 0.36249 0.0
H1258 H 0.79223 0.91109 0.37662 0.0
H1259 H 0.84163 0.96576 0.39394 0.0
C1260 C 0.8434 0.02957 0.39842 0.0
C1261 C 0.8407 0.06122 0.39966 0.0
C1262 C 0.81548 -0.00167 0.3881 0.0
C1263 C 0.81008 0.06167 0.39026 0.0
C1264 C 0.78211 0.03068 0.37993 0.0
C1265 C 0.7557 0.96687 0.36924 0.0
C1266 C 0.75845 0.93515 0.36831 0.0
C1267 C 0.78428 -0.00133 0.37894 0.0
C1268 C 0.7899 0.93541 0.37703 0.0
C1269 C 0.81802 0.96659 0.38698 0.0
H1270 H 0.96583 0.7501 0.41056 0.0
H1271 H 0.95637 0.83852 0.38404 0.0
H1272 H 0.01378 0.85773 0.36398 0.0
H1273 H 0.07107 0.85421 0.35728 0.0
H1274 H 0.07915 0.76405 0.38167 0.0
H1275 H 0.0188 0.74136 0.39958 0.0
C1276 C 0.97629 0.77354 0.40038 0.0
C1277 C 0.9568 0.79305 0.39912 0.0
C1278 C 0.0094 0.7844 0.3886 0.0
C1279 C 0.97055 0.8229 0.38542 0.0
C1280 C 1.00358 0.83408 0.37396 0.0
C1281 C 0.05876 0.82873 0.36574 0.0
C1282 C 0.07911 0.81038 0.36772 0.0
C1283 C 0.02371 0.81557 0.37576 0.0
C1284 C 0.0635 0.7781 0.37943 0.0
C1285 C 0.02917 0.76537 0.38989 0.0
H1286 H 0.18413 0.13975 0.397 0.0
H1287 H 0.30304 0.21577 0.39612 0.0
H1288 H 0.29165 0.26129 0.37921 0.0
H1289 H 0.24711 0.27999 0.36654 0.0
H1290 H 0.12814 0.20402 0.36831 0.0
H1291 H 0.13999 0.15758 0.38319 0.0
C1292 C 0.20746 0.16614 0.39275 0.0
C1293 C 0.24429 0.17462 0.39746 0.0
C1294 C 0.20056 0.19208 0.38355 0.0
C1295 C 0.27451 0.20893 0.39242 0.0
C1296 C 0.26796 0.23483 0.38288 0.0
C1297 C 0.22391 0.2533 0.37031 0.0
C1298 C 0.18684 0.24528 0.36673 0.0
C1299 C 0.23103 0.22688 0.37873 0.0
C1300 C 0.15686 0.21047 0.37102 0.0
C1301 C 0.16364 0.18407 0.37952 0.0
H1302 H 0.64808 0.48736 0.71901 0.0
H1303 H 0.61574 0.55518 0.75355 0.0
H1304 H 0.66783 0.60947 0.73826 0.0
H1305 H 0.72246 0.63775 0.7154 0.0
H1306 H 0.76115 0.57144 0.68508 0.0
H1307 H 0.70559 0.51646 0.69722 0.0
C1308 C 0.65238 0.51405 0.72299 0.0
C1309 C 0.62808 0.51731 0.73727 0.0
C1310 C 0.68286 0.54532 0.71441 0.0
C1311 C 0.63423 0.55203 0.74266 0.0
C1312 C 0.66382 0.58306 0.73383 0.0
C1313 C 0.71854 0.61125 0.71122 0.0
C1314 C 0.74516 0.60875 0.69855 0.0
C1315 C 0.6882 0.58001 0.71967 0.0
C1316 C 0.74026 0.57422 0.6939 0.0
C1317 C 0.7088 0.54273 0.70121 0.0
H1318 H 0.45915 0.0757 0.73674 0.0
H1319 H 0.55658 0.1806 0.72595 0.0
H1320 H 0.51771 0.20088 0.70795 0.0
H1321 H 0.45483 0.19081 0.69848 0.0
H1322 H 0.35775 0.08516 0.70738 0.0
H1323 H 0.39731 0.06291 0.72253 0.0
C1324 C 0.47177 0.1029 0.73032 0.0
C1325 C 0.51061 0.12688 0.73299 0.0
C1326 C 0.44928 0.11414 0.71951 0.0
C1327 C 0.52674 0.16181 0.72427 0.0
C1328 C 0.50452 0.1734 0.71395 0.0
C1329 C 0.44265 0.16254 0.703 0.0
C1330 C 0.40357 0.13938 0.70133 0.0
C1331 C 0.46565 0.15006 0.71179 0.0
C1332 C 0.38791 0.10314 0.7079 0.0
C1333 C 0.41048 0.0906 0.71686 0.0
H1334 H 0.92399 0.37045 0.75254 0.0
H1335 H 0.87241 0.40604 0.70634 0.0
H1336 H 0.85657 0.35302 0.68492 0.0
H1337 H 0.8526 0.29303 0.68021 0.0
H1338 H 0.89607 0.2552 0.72979 0.0
H1339 H 0.9178 0.31112 0.74886 0.0
C1340 C 0.90877 0.36666 0.73801 0.0
C1341 C 0.90033 0.39316 0.73126 0.0
C1342 C 0.89757 0.33493 0.72615 0.0
C1343 C 0.88096 0.38727 0.71197 0.0
C1344 C 0.87118 0.35642 0.69965 0.0
C1345 C 0.86739 0.29737 0.69496 0.0
C1346 C 0.87296 0.26981 0.70318 0.0
C1347 C 0.87899 0.32972 0.70664 0.0
C1348 C 0.89147 0.27577 0.72272 0.0
C1349 C 0.904 0.30791 0.73386 0.0
H1350 H 0.16545 0.97706 0.60632 0.0
H1351 H 0.19094 0.9096 0.64515 0.0
H1352 H 0.2344 0.96274 0.66625 0.0
H1353 H 0.26444 0.02904 0.67392 0.0
H1354 H 0.23713 0.09522 0.63481 0.0
H1355 H 0.19458 0.04221 0.61397 0.0
C1356 C 0.18115 0.97431 0.61917 0.0
C1357 C 0.17584 0.93996 0.62402 0.0
C1358 C 0.20505 0.00466 0.63151 0.0
C1359 C 0.19537 0.93618 0.64101 0.0
C1360 C 0.21981 0.96642 0.65318 0.0
C1361 C 0.24854 0.03151 0.66109 0.0
C1362 C 0.25353 0.06581 0.656 0.0
C1363 C 0.22454 0.00083 0.64876 0.0
C1364 C 0.23348 0.06896 0.63907 0.0
C1365 C 0.20937 0.03875 0.62702 0.0
H1366 H 0.05016 0.25233 0.62275 0.0
H1367 H 0.04368 0.14993 0.63637 0.0
H1368 H 0.9849 0.12972 0.65525 0.0
H1369 H 0.93199 0.13849 0.66484 0.0
H1370 H 0.93817 0.24082 0.65235 0.0
H1371 H 1.0002 0.26385 0.63624 0.0
C1372 C 0.0359 0.22569 0.62995 0.0
C1373 C 0.05122 0.20258 0.62802 0.0
C1374 C 1.00209 0.21428 0.64106 0.0
C1375 C 0.03262 0.16829 0.63765 0.0
C1376 C 0.99893 0.15665 0.64843 0.0
C1377 C 0.94767 0.16629 0.6593 0.0
C1378 C 0.9312 0.18831 0.66026 0.0
C1379 C 0.98308 0.17913 0.64995 0.0
C1380 C 0.95101 0.22387 0.65238 0.0
C1381 C 0.9862 0.23681 0.6429 0.0
H1382 H 0.74866 0.81214 0.64648 0.0
H1383 H 0.83983 0.858 0.60215 0.0
H1384 H 0.86431 0.82026 0.61609 0.0
H1385 H 0.8573 0.77157 0.63944 0.0
H1386 H 0.76566 0.72443 0.68338 0.0
H1387 H 0.7433 0.76511 0.67116 0.0
C1388 C 0.77428 0.81419 0.64031 0.0
C1389 C 0.79302 0.83779 0.62369 0.0
C1390 C 0.78766 0.79204 0.64817 0.0
C1391 C 0.82561 0.84009 0.61521 0.0
C1392 C 0.83936 0.81848 0.62306 0.0
C1393 C 0.83277 0.77078 0.64642 0.0
C1394 C 0.81307 0.74578 0.6622 0.0
C1395 C 0.82032 0.79402 0.63931 0.0
C1396 C 0.78115 0.7441 0.67125 0.0
C1397 C 0.76843 0.76716 0.66426 0.0
H1398 H 0.00802 0.82033 0.60659 0.0
H1399 H 0.08592 0.83172 0.65548 0.0
H1400 H 0.03495 0.78399 0.67562 0.0
H1401 H 0.97104 0.7327 0.67597 0.0
H1402 H 0.89 0.72706 0.63145 0.0
H1403 H 0.94011 0.7767 0.61152 0.0
C1404 C 0.01366 0.81255 0.62175 0.0
C1405 C 0.05073 0.82915 0.62941 0.0
C1406 C 0.98411 0.7853 0.63345 0.0
C1407 C 0.05765 0.81935 0.64924 0.0
C1408 C 0.0286 0.79184 0.66069 0.0
C1409 C 0.96362 0.74372 0.66299 0.0
C1410 C 0.92668 0.72644 0.65563 0.0
C1411 C 0.99202 0.77392 0.65263 0.0
C1412 C 0.9184 0.73974 0.63743 0.0
C1413 C 0.94698 0.7683 0.6261 0.0
H1414 H 0.21059 0.26173 0.6334 0.0
H1415 H 0.14385 0.14989 0.61408 0.0
H1416 H 0.18783 0.13515 0.63152 0.0
H1417 H 0.24663 0.15475 0.65165 0.0
H1418 H 0.31582 0.26782 0.66814 0.0
H1419 H 0.26927 0.28128 0.65327 0.0
C1420 C 0.20596 0.23424 0.63294 0.0
C1421 C 0.17444 0.20698 0.62229 0.0
C1422 C 0.23145 0.22608 0.64296 0.0
C1423 C 0.16826 0.17132 0.62201 0.0
C1424 C 0.19325 0.16288 0.6321 0.0
C1425 C 0.25106 0.18215 0.65232 0.0
C1426 C 0.28418 0.21015 0.66153 0.0
C1427 C 0.22502 0.19005 0.64265 0.0
C1428 C 0.29019 0.24574 0.66157 0.0
C1429 C 0.26375 0.2535 0.65288 0.0
H1430 H 0.76695 0.92964 0.65108 0.0
H1431 H 0.78284 0.96864 0.58727 0.0
H1432 H 0.79882 0.02886 0.59994 0.0
H1433 H 0.8116 0.07122 0.62899 0.0
H1434 H 0.79978 0.03374 0.69282 0.0
H1435 H 0.78039 0.97236 0.68026 0.0
C1436 C 0.77423 0.95135 0.63992 0.0
C1437 C 0.77367 0.94448 0.61825 0.0
C1438 C 0.78477 0.98632 0.64731 0.0
C1439 C 0.78235 0.97283 0.60403 0.0
C1440 C 0.79194 0.00746 0.61124 0.0
C1441 C 0.80466 0.04959 0.64017 0.0
C1442 C 0.80745 0.05701 0.6618 0.0
C1443 C 0.79367 0.01456 0.63283 0.0
C1444 C 0.79863 0.02885 0.6761 0.0
C1445 C 0.78718 0.9937 0.66892 0.0
H1446 H 0.50439 0.35771 0.75505 0.0
H1447 H 0.51464 0.42373 0.70149 0.0
H1448 H 0.47263 0.36892 0.68125 0.0
H1449 H 0.43071 0.30164 0.67948 0.0
H1450 H 0.41851 0.23798 0.73452 0.0
H1451 H 0.46341 0.29243 0.75354 0.0
C1452 C 0.49715 0.36025 0.73901 0.0
C1453 C 0.51238 0.39474 0.72987 0.0
C1454 C 0.47268 0.32894 0.72772 0.0
C1455 C 0.50345 0.39743 0.70888 0.0
C1456 C 0.47932 0.36612 0.69734 0.0
C1457 C 0.43839 0.29993 0.69554 0.0
C1458 C 0.42163 0.26611 0.70568 0.0
C1459 C 0.46359 0.33166 0.70664 0.0
C1460 C 0.43114 0.2639 0.72653 0.0
C1461 C 0.45672 0.29495 0.7374 0.0
H1462 H 0.64322 0.15697 0.71911 0.0
H1463 H 0.60715 0.05425 0.7496 0.0
H1464 H 0.66068 0.05176 0.73506 0.0
H1465 H 0.7185 0.07904 0.71451 0.0
H1466 H 0.7598 0.18515 0.68764 0.0
H1467 H 0.70273 0.18516 0.69876 0.0
C1468 C 0.6468 0.1338 0.72224 0.0
C1469 C 0.62106 0.10579 0.7354 0.0
C1470 C 0.67824 0.13278 0.71407 0.0
C1471 C 0.62655 0.07626 0.73963 0.0
C1472 C 0.65711 0.07472 0.73125 0.0
C1473 C 0.71484 0.10202 0.71086 0.0
C1474 C 0.74272 0.13138 0.69945 0.0
C1475 C 0.68322 0.10286 0.71856 0.0
C1476 C 0.73801 0.16143 0.69549 0.0
C1477 C 0.70563 0.1617 0.7022 0.0
H1478 H 0.86758 0.47709 0.71753 0.0
H1479 H 0.96172 0.56186 0.7516 0.0
H1480 H 0.9473 0.60703 0.73762 0.0
H1481 H 0.90596 0.62095 0.71781 0.0
H1482 H 0.8148 0.53784 0.68126 0.0
H1483 H 0.8296 0.49255 0.69476 0.0
C1484 C 0.88554 0.50559 0.72149 0.0
C1485 C 0.91572 0.51625 0.73552 0.0
C1486 C 0.87726 0.53124 0.71331 0.0
C1487 C 0.93819 0.55308 0.74094 0.0
C1488 C 0.92994 0.57879 0.73299 0.0
C1489 C 0.88986 0.59334 0.71219 0.0
C1490 C 0.85988 0.5831 0.69811 0.0
C1491 C 0.89923 0.56799 0.71944 0.0
C1492 C 0.83848 0.54658 0.69178 0.0
C1493 C 0.84689 0.52072 0.69952 0.0
H1494 H 0.47616 0.8901 0.21271 0.0
H1495 H 0.43249 0.95295 0.2424 0.0
H1496 H 0.44157 0.98684 0.21011 0.0
H1497 H 0.46391 0.0004 0.174 0.0
H1498 H 0.5088 0.93909 0.14378 0.0
H1499 H 0.49622 0.90216 0.17538 0.0
C1500 C 0.46859 0.91116 0.21202 0.0
C1501 C 0.45358 0.91893 0.22993 0.0
C1502 C 0.47386 0.93067 0.19327 0.0
C1503 C 0.44364 0.94613 0.22879 0.0
C1504 C 0.44897 0.96565 0.21035 0.0
C1505 C 0.47114 0.97908 0.17433 0.0
C1506 C 0.48786 0.97298 0.15665 0.0
C1507 C 0.46435 0.9584 0.19259 0.0
C1508 C 0.49592 0.94443 0.15715 0.0
C1509 C 0.48899 0.92347 0.17529 0.0
H1510 H 0.08751 0.57221 0.21493 0.0
H1511 H 0.0318 0.46177 0.2381 0.0
H1512 H 0.00668 0.43908 0.20361 0.0
H1513 H 0.99473 0.44972 0.16779 0.0
H1514 H 0.042 0.55929 0.14498 0.0
H1515 H 0.07564 0.58297 0.1783 0.0
C1516 C 0.06949 0.54321 0.21263 0.0
C1517 C 0.06222 0.51903 0.22947 0.0
C1518 C 0.05314 0.53001 0.19273 0.0
C1519 C 0.03924 0.48141 0.22566 0.0
C1520 C 0.02426 0.46818 0.20586 0.0
C1521 C 0.01237 0.47882 0.17011 0.0
C1522 C 0.01529 0.5027 0.15413 0.0
C1523 C 0.03035 0.49217 0.18944 0.0
C1524 C 0.03922 0.54029 0.15709 0.0
C1525 C 0.0582 0.55384 0.1762 0.0
H1526 H 0.42663 0.53324 0.2084 0.0
H1527 H 0.49954 0.50831 0.24439 0.0
H1528 H 0.52012 0.49147 0.21237 0.0
H1529 H 0.5159 0.48178 0.17466 0.0
H1530 H 0.44031 0.5025 0.13806 0.0
H1531 H 0.4239 0.52495 0.16948 0.0
C1532 C 0.44674 0.52379 0.20908 0.0
C1533 C 0.46112 0.52122 0.22861 0.0
C1534 C 0.45845 0.51406 0.19052 0.0
C1535 C 0.48779 0.50984 0.22947 0.0
C1536 C 0.4997 0.50046 0.2112 0.0
C1537 C 0.49544 0.49073 0.1735 0.0
C1538 C 0.47868 0.48936 0.15403 0.0
C1539 C 0.48493 0.50208 0.1917 0.0
C1540 C 0.45365 0.50293 0.15278 0.0
C1541 C 0.44386 0.51543 0.17083 0.0
H1542 H 0.9613 0.43586 0.80267 0.0
H1543 H 0.89143 0.48507 0.80624 0.0
H1544 H 0.91076 0.50332 0.84243 0.0
H1545 H 0.95575 0.51458 0.87073 0.0
H1546 H 0.02528 0.46536 0.86799 0.0
H1547 H 0.99678 0.43645 0.83428 0.0
C1548 C 0.94939 0.44952 0.81158 0.0
C1549 C 0.92596 0.46016 0.80149 0.0
C1550 C 0.96066 0.46001 0.83257 0.0
C1551 C 0.91053 0.47762 0.81338 0.0
C1552 C 0.92144 0.48798 0.83413 0.0
C1553 C 0.96362 0.49648 0.86302 0.0
C1554 C 0.99257 0.49216 0.87153 0.0
C1555 C 0.94778 0.48079 0.84354 0.0
C1556 C 1.00292 0.4689 0.86157 0.0
C1557 C 0.9869 0.45273 0.84224 0.0
H1558 H 0.58804 0.51656 0.80435 0.0
H1559 H 0.50079 0.40301 0.80281 0.0
H1560 H 0.48031 0.40983 0.83724 0.0
H1561 H 0.48413 0.44943 0.86704 0.0
H1562 H 0.57548 0.56004 0.8694 0.0
H1563 H 0.59948 0.55153 0.83597 0.0
C1564 C 0.56542 0.49243 0.81132 0.0
C1565 C 0.54567 0.45957 0.79985 0.0
C1566 C 0.55479 0.49576 0.83172 0.0
C1567 C 0.51589 0.4295 0.81014 0.0
C1568 C 0.5043 0.43303 0.83024 0.0
C1569 C 0.50965 0.4713 0.8603 0.0
C1570 C 0.5278 0.50551 0.87016 0.0
C1571 C 0.523 0.46631 0.84096 0.0
C1572 C 0.56095 0.53374 0.86167 0.0
C1573 C 0.57448 0.52889 0.8426 0.0
H1574 H 0.48861 0.05483 0.79965 0.0
H1575 H 0.60772 0.12626 0.80809 0.0
H1576 H 0.60364 0.10473 0.84391 0.0
H1577 H 0.56758 0.05985 0.87142 0.0
H1578 H 0.44882 0.98813 0.86303 0.0
H1579 H 0.45106 0.01607 0.82913 0.0
C1580 C 0.51347 0.06636 0.8095 0.0
C1581 C 0.54852 0.09158 0.80093 0.0
C1582 C 0.51099 0.05368 0.83022 0.0
C1583 C 0.58047 0.10616 0.81403 0.0
C1584 C 0.57819 0.09394 0.8346 0.0
C1585 C 0.54209 0.05122 0.86241 0.0
C1586 C 0.50802 0.02218 0.86966 0.0
C1587 C 0.54383 0.06685 0.84266 0.0
C1588 C 0.47526 0.01066 0.85773 0.0
C1589 C 0.47662 0.02644 0.83829 0.0
H1590 H 0.18396 0.28354 0.56141 0.0
H1591 H 0.0657 0.20766 0.55334 0.0
H1592 H 0.06858 0.2284 0.51736 0.0
H1593 H 0.10378 0.27174 0.4888 0.0
H1594 H 0.22158 0.34791 0.49718 0.0
H1595 H 0.22008 0.32303 0.53197 0.0
C1596 C 0.1589 0.27114 0.55171 0.0
C1597 C 0.12455 0.24438 0.56036 0.0
C1598 C 0.16073 0.28322 0.53091 0.0
C1599 C 0.09238 0.22891 0.54743 0.0
C1600 C 0.09404 0.24057 0.52672 0.0
C1601 C 0.12925 0.28209 0.49807 0.0
C1602 C 0.16292 0.31124 0.49036 0.0
C1603 C 0.12791 0.26817 0.51836 0.0
C1604 C 0.19555 0.32508 0.50269 0.0
C1605 C 0.19458 0.31108 0.52266 0.0
H1606 H 0.75548 0.89967 0.54743 0.0
H1607 H 0.69195 0.79171 0.57316 0.0
H1608 H 0.66295 0.76795 0.53902 0.0
H1609 H 0.65221 0.77867 0.50284 0.0
H1610 H 0.71215 0.88718 0.47759 0.0
H1611 H 0.74695 0.90988 0.51046 0.0
C1612 C 0.73501 0.87103 0.54555 0.0
C1613 C 0.72534 0.84751 0.56272 0.0
C1614 C 0.71814 0.85768 0.52602 0.0
C1615 C 0.69965 0.81027 0.56008 0.0
C1616 C 0.68309 0.79669 0.54063 0.0
C1617 C 0.67284 0.80729 0.5046 0.0
C1618 C 0.67906 0.83137 0.48815 0.0
C1619 C 0.69163 0.82027 0.52364 0.0
C1620 C 0.70682 0.86816 0.49018 0.0
C1621 C 0.72644 0.8812 0.50899 0.0
H1622 H 0.15223 0.90459 0.54775 0.0
H1623 H 0.09459 0.79575 0.573 0.0
H1624 H 0.10094 0.77134 0.5398 0.0
H1625 H 0.1265 0.78043 0.50459 0.0
H1626 H 0.18786 0.88839 0.479 0.0
H1627 H 0.17632 0.91351 0.51116 0.0
C1628 C 0.14122 0.87558 0.54599 0.0
C1629 C 0.12264 0.85216 0.56293 0.0
C1630 C 0.1458 0.86149 0.52682 0.0
C1631 C 0.10823 0.81453 0.56023 0.0
C1632 C 0.11212 0.80042 0.54125 0.0
C1633 C 0.13745 0.80949 0.5061 0.0
C1634 C 0.15866 0.83259 0.48975 0.0
C1635 C 0.13133 0.82362 0.52461 0.0
C1636 C 0.17164 0.87007 0.49152 0.0
C1637 C 0.16523 0.88443 0.50993 0.0
H1638 H 0.6418 0.85532 0.13236 0.0
H1639 H 0.5759 0.73969 0.14364 0.0
H1640 H 0.59729 0.74942 0.17997 0.0
H1641 H 0.63807 0.79086 0.20789 0.0
H1642 H 0.69943 0.90632 0.19674 0.0
H1643 H 0.67353 0.89671 0.16126 0.0
C1644 C 0.63106 0.83215 0.14276 0.0
C1645 C 0.60763 0.79679 0.13502 0.0
C1646 C 0.64197 0.83799 0.16379 0.0
C1647 C 0.59502 0.7672 0.14886 0.0
C1648 C 0.6067 0.77273 0.16978 0.0
C1649 C 0.64496 0.81382 0.19776 0.0
C1650 C 0.67103 0.84913 0.20445 0.0
C1651 C 0.63061 0.80801 0.17731 0.0
C1652 C 0.67984 0.87891 0.19151 0.0
C1653 C 0.66528 0.8734 0.17129 0.0
H1654 H 0.25299 0.84987 0.13641 0.0
H1655 H 0.168 0.73567 0.13731 0.0
H1656 H 0.14806 0.74363 0.17162 0.0
H1657 H 0.15263 0.78352 0.20125 0.0
H1658 H 0.24128 0.89536 0.20168 0.0
H1659 H 0.26392 0.88669 0.16774 0.0
C1660 C 0.23087 0.82609 0.14402 0.0
C1661 C 0.21176 0.79237 0.13332 0.0
C1662 C 0.22056 0.83018 0.16446 0.0
C1663 C 0.18258 0.76262 0.14412 0.0
C1664 C 0.17136 0.76684 0.16416 0.0
C1665 C 0.17728 0.80568 0.19398 0.0
C1666 C 0.19514 0.84011 0.20359 0.0
C1667 C 0.18979 0.8006 0.17437 0.0
C1668 C 0.22702 0.86877 0.19426 0.0
C1669 C 0.23977 0.86385 0.17488 0.0
H1670 H 0.15992 0.38985 0.13546 0.0
H1671 H 0.28126 0.4483 0.13969 0.0
H1672 H 0.2777 0.4236 0.17433 0.0
H1673 H 0.24032 0.38151 0.20279 0.0
H1674 H 0.11965 0.32779 0.20006 0.0
H1675 H 0.12292 0.35626 0.16616 0.0
C1676 C 0.18578 0.39816 0.14395 0.0
C1677 C 0.22084 0.42018 0.13411 0.0
C1678 C 0.18371 0.385 0.16451 0.0
C1679 C 0.25367 0.43005 0.14595 0.0
C1680 C 0.25179 0.41635 0.16611 0.0
C1681 C 0.21486 0.37692 0.19498 0.0
C1682 C 0.17976 0.35273 0.20384 0.0
C1683 C 0.217 0.39319 0.17539 0.0
C1684 C 0.14692 0.34655 0.19354 0.0
C1685 C 0.14882 0.36255 0.17407 0.0
H1686 H 0.85328 0.60701 0.89145 0.0
H1687 H 0.7328 0.54378 0.88365 0.0
H1688 H 0.73803 0.56764 0.84861 0.0
H1689 H 0.77604 0.61111 0.82112 0.0
H1690 H 0.89636 0.67145 0.82733 0.0
H1691 H 0.89214 0.64278 0.86134 0.0
C1692 C 0.82821 0.59776 0.88198 0.0
C1693 C 0.79259 0.57478 0.89084 0.0
C1694 C 0.83136 0.61084 0.86129 0.0
C1695 C 0.76059 0.56288 0.87792 0.0
C1696 C 0.76346 0.57617 0.85763 0.0
C1697 C 0.8013 0.61713 0.82972 0.0
C1698 C 0.83645 0.6432 0.82188 0.0
C1699 C 0.79857 0.60093 0.84934 0.0
C1700 C 0.86904 0.65127 0.83316 0.0
C1701 C 0.86657 0.63511 0.85265 0.0
H1702 H 0.38021 0.22902 0.88944 0.0
H1703 H 0.44855 0.17811 0.88581 0.0
H1704 H 0.42876 0.15961 0.84982 0.0
H1705 H 0.38461 0.14949 0.8214 0.0
H1706 H 0.31741 0.20119 0.82359 0.0
H1707 H 0.34552 0.22939 0.85754 0.0
C1708 C 0.39155 0.21482 0.88056 0.0
C1709 C 0.41454 0.20366 0.89065 0.0
C1710 C 0.38039 0.2045 0.85953 0.0
C1711 C 0.42952 0.18575 0.87875 0.0
C1712 C 0.41847 0.17532 0.85807 0.0
C1713 C 0.37715 0.16794 0.82904 0.0
C1714 C 0.34899 0.17321 0.82031 0.0
C1715 C 0.39274 0.18322 0.84861 0.0
C1716 C 0.33917 0.19692 0.83019 0.0
C1717 C 0.35494 0.21267 0.84966 0.0
H1718 H 0.84311 0.23066 0.89281 0.0
H1719 H 0.72316 0.15846 0.88836 0.0
H1720 H 0.73024 0.14129 0.85289 0.0
H1721 H 0.77117 0.14175 0.82444 0.0
H1722 H 0.89032 0.21569 0.82786 0.0
H1723 H 0.88277 0.23836 0.86201 0.0
C1724 C 0.81834 0.21189 0.88397 0.0
C1725 C 0.78278 0.19511 0.8937 0.0
C1726 C 0.82246 0.20248 0.86328 0.0
C1727 C 0.75113 0.17083 0.88175 0.0
C1728 C 0.75504 0.16116 0.86131 0.0
C1729 C 0.79524 0.16343 0.83253 0.0
C1730 C 0.83122 0.17706 0.82393 0.0
C1731 C 0.79066 0.17596 0.85216 0.0
C1732 C 0.8624 0.20499 0.83436 0.0
C1733 C 0.85807 0.21771 0.85389 0.0
H1734 H 0.28679 0.09802 0.47106 0.0
H1735 H 0.24737 0.17535 0.46906 0.0
H1736 H 0.2705 0.19548 0.5044 0.0
H1737 H 0.30776 0.19562 0.53457 0.0
H1738 H 0.34199 0.11509 0.53824 0.0
H1739 H 0.31299 0.0902 0.50396 0.0
C1740 C 0.28226 0.1186 0.4784 0.0
C1741 C 0.26675 0.13613 0.4668 0.0
C1742 C 0.29442 0.12931 0.49916 0.0
C1743 C 0.26106 0.16261 0.47697 0.0
C1744 C 0.27379 0.17389 0.49739 0.0
C1745 C 0.30812 0.17217 0.52794 0.0
C1746 C 0.32732 0.15742 0.53842 0.0
C1747 C 0.29156 0.15824 0.50836 0.0
C1748 C 0.3275 0.12687 0.53011 0.0
C1749 C 0.31116 0.11287 0.51054 0.0
H1750 H 0.92028 0.18951 0.46831 0.0
H1751 H 0.84516 0.07364 0.47356 0.0
H1752 H 0.82755 0.0822 0.50871 0.0
H1753 H 0.82987 0.12342 0.53733 0.0
H1754 H 0.90747 0.23833 0.53235 0.0
H1755 H 0.92919 0.22895 0.49836 0.0
C1756 C 0.90078 0.1658 0.47715 0.0
C1757 C 0.8836 0.13103 0.46766 0.0
C1758 C 0.89138 0.17071 0.49772 0.0
C1759 C 0.85802 0.10104 0.47979 0.0
C1760 C 0.84815 0.10579 0.50015 0.0
C1761 C 0.85209 0.14618 0.52894 0.0
C1762 C 0.86697 0.18159 0.53717 0.0
C1763 C 0.86404 0.14061 0.50915 0.0
C1764 C 0.89557 0.21093 0.52618 0.0
C1765 C 0.90781 0.20557 0.50672 0.0
H1766 H 0.91317 0.72296 0.46481 0.0
H1767 H 0.86111 0.78721 0.47909 0.0
H1768 H 0.84693 0.76253 0.51452 0.0
H1769 H 0.84272 0.71715 0.54031 0.0
H1770 H 0.89551 0.65373 0.52603 0.0
H1771 H 0.91697 0.68439 0.4923 0.0
C1772 C 0.89949 0.73226 0.47576 0.0
C1773 C 0.88738 0.75625 0.46889 0.0
C1774 C 0.89136 0.71793 0.49628 0.0
C1775 C 0.86974 0.76788 0.48356 0.0
C1776 C 0.86175 0.75392 0.50396 0.0
C1777 C 0.85963 0.71068 0.52999 0.0
C1778 C 0.867 0.68278 0.53553 0.0
C1779 C 0.87134 0.72802 0.51032 0.0
C1780 C 0.88895 0.6747 0.52197 0.0
C1781 C 0.90117 0.69217 0.50264 0.0
loop_
_geom_bond_atom_site_label_1
_geom_bond_atom_site_label_2
_geom_bond_distance
_geom_bond_site_symmetry_2
_ccdc_geom_bond_type
H0 C3 0.931 . S
H1 C6 0.928 . S
H2 C8 0.930 . S
C3 H0 0.931 . S
C3 C4 1.413 . S
C3 C5 1.360 . S
C4 C3 1.413 . S
C4 C8 1.429 . S
C5 C3 1.360 . S
C5 C6 1.372 . S
C6 H1 0.928 . S
C6 C5 1.372 . S
C6 C7 1.404 . S
C7 C6 1.404 . S
C7 C8 1.391 . S
C8 H2 0.930 . S
C8 C4 1.429 . S
C8 C7 1.391 . S
H9 C12 0.931 . S
H10 C15 0.928 . S
H11 C17 0.930 . S
C12 H9 0.931 . S
C12 C13 1.413 . S
C12 C14 1.360 . S
C13 C12 1.413 . S
C13 C17 1.429 . S
C14 C12 1.360 . S
C14 C15 1.372 . S
C15 H10 0.928 . S
C15 C14 1.372 . S
C15 C16 1.404 . S
C16 C15 1.404 . S
C16 C17 1.391 . S
C17 H11 0.930 . S
C17 C13 1.429 . S
C17 C16 1.391 . S
H18 C21 0.931 . S
H19 C24 0.928 . S
H20 C26 0.930 . S
C21 H18 0.931 . S
C21 C22 1.413 . S
C21 C23 1.360 . S
C22 C21 1.413 . S
C22 C26 1.429 . S
C23 C21 1.360 . S
C23 C24 1.372 . S
C24 H19 0.928 . S
C24 C23 1.372 . S
C24 C25 1.404 . S
C25 C24 1.404 . S
C25 C26 1.391 . S
C26 H20 0.930 . S
C26 C22 1.429 . S
C26 C25 1.391 . S
H27 C30 0.931 . S
H28 C33 0.928 . S
H29 C35 0.930 . S
C30 H27 0.931 . S
C30 C31 1.413 . S
C30 C32 1.360 . S
C31 C30 1.413 . S
C31 C35 1.429 . S
C32 C30 1.360 . S
C32 C33 1.372 . S
C33 H28 0.928 . S
C33 C32 1.372 . S
C33 C34 1.404 . S
C34 C33 1.404 . S
C34 C35 1.391 . S
C35 H29 0.930 . S
C35 C31 1.429 . S
C35 C34 1.391 . S
H36 C39 0.931 . S
H37 C42 0.928 . S
H38 C44 0.930 . S
C39 H36 0.931 . S
C39 C40 1.413 . S
C39 C41 1.360 . S
C40 C39 1.413 . S
C40 C44 1.429 . S
C41 C39 1.360 . S
C41 C42 1.372 . S
C42 H37 0.928 . S
C42 C41 1.372 . S
C42 C43 1.404 . S
C43 C42 1.404 . S
C43 C44 1.391 . S
C44 H38 0.930 . S
C44 C40 1.429 . S
C44 C43 1.391 . S
H45 C48 0.931 . S
H46 C51 0.928 . S
H47 C53 0.930 . S
C48 H45 0.931 . S
C48 C49 1.413 . S
C48 C50 1.360 . S
C49 C48 1.413 . S
C49 C53 1.429 . S
C50 C48 1.360 . S
C50 C51 1.372 . S
C51 H46 0.928 . S
C51 C50 1.372 . S
C51 C52 1.404 . S
C52 C51 1.404 . S
C52 C53 1.391 . S
C53 H47 0.930 . S
C53 C49 1.429 . S
C53 C52 1.391 . S
H54 C57 0.931 . S
H55 C60 0.928 . S
H56 C62 0.930 . S
C57 H54 0.931 . S
C57 C58 1.413 . S
C57 C59 1.360 . S
C58 C57 1.413 . S
C58 C62 1.429 . S
C59 C57 1.360 . S
C59 C60 1.372 . S
C60 H55 0.928 . S
C60 C59 1.372 . S
C60 C61 1.404 . S
C61 C60 1.404 . S
C61 C62 1.391 . S
C62 H56 0.930 . S
C62 C58 1.429 . S
C62 C61 1.391 . S
H63 C66 0.931 . S
H64 C69 0.928 . S
H65 C71 0.930 . S
C66 H63 0.931 . S
C66 C67 1.413 . S
C66 C68 1.360 . S
C67 C66 1.413 . S
C67 C71 1.429 . S
C68 C66 1.360 . S
C68 C69 1.372 . S
C69 H64 0.928 . S
C69 C68 1.372 . S
C69 C70 1.404 . S
C70 C69 1.404 . S
C70 C71 1.391 . S
C71 H65 0.930 . S
C71 C67 1.429 . S
C71 C70 1.391 . S
H72 C75 0.931 . S
H73 C78 0.928 . S
H74 C80 0.930 . S
C75 H72 0.931 . S
C75 C76 1.413 . S
C75 C77 1.360 . S
C76 C75 1.413 . S
C76 C80 1.429 . S
C77 C75 1.360 . S
C77 C78 1.372 . S
C78 H73 0.928 . S
C78 C77 1.372 . S
C78 C79 1.404 . S
C79 C78 1.404 . S
C79 C80 1.391 . S
C80 H74 0.930 . S
C80 C76 1.429 . S
C80 C79 1.391 . S
H81 C84 0.931 . S
H82 C87 0.928 . S
H83 C89 0.930 . S
C84 H81 0.931 . S
C84 C85 1.413 . S
C84 C86 1.360 . S
C85 C84 1.413 . S
C85 C89 1.429 . S
C86 C84 1.360 . S
C86 C87 1.372 . S
C87 H82 0.928 . S
C87 C86 1.372 . S
C87 C88 1.404 . S
C88 C87 1.404 . S
C88 C89 1.391 . S
C89 H83 0.930 . S
C89 C85 1.429 . S
C89 C88 1.391 . S
H90 C93 0.931 . S
H91 C96 0.928 . S
H92 C98 0.930 . S
C93 H90 0.931 . S
C93 C94 1.413 . S
C93 C95 1.360 . S
C94 C93 1.413 . S
C94 C98 1.429 . S
C95 C93 1.360 . S
C95 C96 1.372 . S
C96 H91 0.928 . S
C96 C95 1.372 . S
C96 C97 1.404 . S
C97 C96 1.404 . S
C97 C98 1.391 . S
C98 H92 0.930 . S
C98 C94 1.429 . S
C98 C97 1.391 . S
H99 C102 0.931 . S
H100 C105 0.928 . S
H101 C107 0.930 . S
C102 H99 0.931 . S
C102 C103 1.413 . S
C102 C104 1.360 . S
C103 C102 1.413 . S
C103 C107 1.429 . S
C104 C102 1.360 . S
C104 C105 1.372 . S
C105 H100 0.928 . S
C105 C104 1.372 . S
C105 C106 1.404 . S
C106 C105 1.404 . S
C106 C107 1.391 . S
C107 H101 0.930 . S
C107 C103 1.429 . S
C107 C106 1.391 . S
H108 C111 0.931 . S
H109 C114 0.928 . S
H110 C116 0.930 . S
C111 H108 0.931 . S
C111 C112 1.413 . S
C111 C113 1.360 . S
C112 C111 1.413 . S
C112 C116 1.429 . S
C113 C111 1.360 . S
C113 C114 1.372 . S
C114 H109 0.928 . S
C114 C113 1.372 . S
C114 C115 1.404 . S
C115 C114 1.404 . S
C115 C116 1.391 . S
C116 H110 0.930 . S
C116 C112 1.429 . S
C116 C115 1.391 . S
H117 C120 0.931 . S
H118 C123 0.928 . S
H119 C125 0.930 . S
C120 H117 0.931 . S
C120 C121 1.413 . S
C120 C122 1.360 . S
C121 C120 1.413 . S
C121 C125 1.429 . S
C122 C120 1.360 . S
C122 C123 1.372 . S
C123 H118 0.928 . S
C123 C122 1.372 . S
C123 C124 1.404 . S
C124 C123 1.404 . S
C124 C125 1.391 . S
C125 H119 0.930 . S
C125 C121 1.429 . S
C125 C124 1.391 . S
H126 C129 0.931 . S
H127 C132 0.928 . S
H128 C134 0.930 . S
C129 H126 0.931 . S
C129 C130 1.413 . S
C129 C131 1.360 . S
C130 C129 1.413 . S
C130 C134 1.429 . S
C131 C129 1.360 . S
C131 C132 1.372 . S
C132 H127 0.928 . S
C132 C131 1.372 . S
C132 C133 1.404 . S
C133 C132 1.404 . S
C133 C134 1.391 . S
C134 H128 0.930 . S
C134 C130 1.429 . S
C134 C133 1.391 . S
H135 C138 0.931 . S
H136 C141 0.928 . S
H137 C143 0.930 . S
C138 H135 0.931 . S
C138 C139 1.413 . S
C138 C140 1.360 . S
C139 C138 1.413 . S
C139 C143 1.429 . S
C140 C138 1.360 . S
C140 C141 1.372 . S
C141 H136 0.928 . S
C141 C140 1.372 . S
C141 C142 1.404 . S
C142 C141 1.404 . S
C142 C143 1.391 . S
C143 H137 0.930 . S
C143 C139 1.429 . S
C143 C142 1.391 . S
H144 C147 0.931 . S
H145 C150 0.928 . S
H146 C152 0.930 . S
C147 H144 0.931 . S
C147 C148 1.413 . S
C147 C149 1.360 . S
C148 C147 1.413 . S
C148 C152 1.429 . S
C149 C147 1.360 . S
C149 C150 1.372 . S
C150 H145 0.928 . S
C150 C149 1.372 . S
C150 C151 1.404 . S
C151 C150 1.404 . S
C151 C152 1.391 . S
C152 H146 0.930 . S
C152 C148 1.429 . S
C152 C151 1.391 . S
H153 C156 0.931 . S
H154 C159 0.928 . S
H155 C161 0.930 . S
C156 H153 0.931 . S
C156 C157 1.413 . S
C156 C158 1.360 . S
C157 C156 1.413 . S
C157 C161 1.429 . S
C158 C156 1.360 . S
C158 C159 1.372 . S
C159 H154 0.928 . S
C159 C158 1.372 . S
C159 C160 1.404 . S
C160 C159 1.404 . S
C160 C161 1.391 . S
C161 H155 0.930 . S
C161 C157 1.429 . S
C161 C160 1.391 . S
Eu162 N193 2.657 . S
Eu162 N200 2.609 . S
Eu162 O206 2.558 . S
Eu162 O207 2.612 1_565 S
Eu162 O209 2.339 1_565 S
Eu162 O210 2.563 1_565 S
Eu162 O211 2.419 . S
Eu162 O213 2.380 1_556 S
Eu162 O214 2.432 . S
Eu162 C226 2.848 . S
C163 C166 1.429 . S
C163 C167 1.411 . S
C163 N170 1.377 . S
C164 C166 1.420 . S
C164 C168 1.423 . S
C164 C176 1.392 . S
C165 C167 1.420 . S
C165 C168 1.351 . S
C165 H188 0.931 . S
C166 C163 1.429 . S
C166 C164 1.420 . S
C166 N174 1.362 . S
C167 C163 1.411 . S
C167 C165 1.420 . S
C167 C172 1.395 . S
C168 C164 1.423 . S
C168 C165 1.351 . S
C168 H180 0.930 . S
C169 C171 1.400 . S
C169 C172 1.386 . S
C169 H181 0.930 . S
N170 C163 1.377 . S
N170 C171 1.321 . S
N170 Eu173 2.609 . S
C171 C169 1.400 . S
C171 N170 1.321 . S
C171 H178 0.930 . S
C172 C167 1.395 . S
C172 C169 1.386 . S
C172 H191 0.930 . S
Eu173 N170 2.609 . S
Eu173 N174 2.657 . S
Eu173 O207 2.380 1_554 S
Eu173 O208 2.432 . S
Eu173 O212 2.558 . S
Eu173 O213 2.612 1_545 S
Eu173 O215 2.339 1_545 S
Eu173 O216 2.563 1_545 S
Eu173 O217 2.419 . S
Eu173 C237 2.848 . S
N174 C166 1.362 . S
N174 Eu173 2.657 . S
N174 C175 1.334 . S
C175 N174 1.334 . S
C175 C177 1.413 . S
C175 H182 0.929 . S
C176 C164 1.392 . S
C176 C177 1.367 . S
C176 H184 0.930 . S
C177 C175 1.413 . S
C177 C176 1.367 . S
C177 H179 0.930 . S
H178 C171 0.930 . S
H179 C177 0.930 . S
H180 C168 0.930 . S
H181 C169 0.930 . S
H182 C175 0.929 . S
H183 C197 0.930 . S
H184 C176 0.930 . S
H185 C203 0.930 . S
H186 C194 0.929 . S
H187 C201 0.930 . S
H188 C165 0.931 . S
H189 C195 0.930 . S
H190 C228 0.930 . S
H191 C172 0.930 . S
H192 C227 0.931 . S
N193 Eu162 2.657 . S
N193 C194 1.334 . S
N193 C198 1.362 . S
C194 H186 0.929 . S
C194 N193 1.334 . S
C194 C197 1.413 . S
C195 H189 0.930 . S
C195 C196 1.392 . S
C195 C197 1.367 . S
C196 C195 1.392 . S
C196 C198 1.420 . S
C196 C228 1.423 . S
C197 H183 0.930 . S
C197 C194 1.413 . S
C197 C195 1.367 . S
C198 N193 1.362 . S
C198 C196 1.420 . S
C198 C202 1.429 . S
H199 C204 0.930 . S
N200 Eu162 2.609 . S
N200 C202 1.377 . S
N200 C203 1.321 . S
C201 H187 0.930 . S
C201 C203 1.400 . S
C201 C204 1.386 . S
C202 C198 1.429 . S
C202 N200 1.377 . S
C202 C205 1.411 . S
C203 H185 0.930 . S
C203 N200 1.321 . S
C203 C201 1.400 . S
C204 H199 0.930 . S
C204 C201 1.386 . S
C204 C205 1.395 . S
C205 C202 1.411 . S
C205 C204 1.395 . S
C205 C227 1.420 . S
O206 Eu162 2.558 . S
O206 C226 1.257 . S
O207 Eu162 2.612 1_545 S
O207 Eu173 2.380 1_556 S
O207 C218 1.276 . S
O208 Eu173 2.432 . S
O208 C225 1.264 1_554 S
O209 Eu162 2.339 1_545 S
O209 C225 1.254 . S
O210 Eu162 2.563 1_545 S
O210 C218 1.235 . S
O211 Eu162 2.419 . S
O211 C226 1.249 . S
O212 Eu173 2.558 . S
O212 C237 1.257 . S
O213 Eu162 2.380 1_554 S
O213 Eu173 2.612 1_565 S
O213 C229 1.276 . S
O214 Eu162 2.432 . S
O214 C236 1.264 1_556 S
O215 Eu173 2.339 1_565 S
O215 C236 1.254 . S
O216 Eu173 2.563 1_565 S
O216 C229 1.235 . S
O217 Eu173 2.419 . S
O217 C237 1.249 . S
C218 O207 1.276 . S
C218 O210 1.235 . S
C219 C221 1.393 1_565 S
C219 C223 1.395 . S
C219 C226 1.492 . S
C220 C221 1.392 . S
C220 C222 1.386 1_545 S
C221 C219 1.393 1_545 S
C221 C220 1.392 . S
C221 H238 0.930 . S
C222 C220 1.386 1_565 S
C222 C224 1.395 . S
C222 H239 0.930 . S
C223 C219 1.395 . S
C223 C224 1.379 . S
C223 H240 0.930 . S
C224 C222 1.395 . S
C224 C223 1.379 . S
C224 H241 0.930 . S
C225 O208 1.264 1_556 S
C225 O209 1.254 . S
C226 Eu162 2.848 . S
C226 O206 1.257 . S
C226 O211 1.249 . S
C226 C219 1.492 . S
C227 H192 0.931 . S
C227 C205 1.420 . S
C227 C228 1.351 . S
C228 H190 0.930 . S
C228 C196 1.423 . S
C228 C227 1.351 . S
C229 O213 1.276 . S
C229 O216 1.235 . S
C230 C231 1.393 1_545 S
C230 C234 1.395 . S
C230 C237 1.492 . S
C231 C230 1.393 1_565 S
C231 C232 1.392 . S
C231 H242 0.930 . S
C232 C231 1.392 . S
C232 C233 1.386 1_565 S
C233 C232 1.386 1_545 S
C233 C235 1.395 . S
C233 H243 0.930 . S
C234 C230 1.395 . S
C234 C235 1.379 . S
C234 H244 0.930 . S
C235 C233 1.395 . S
C235 C234 1.379 . S
C235 H245 0.930 . S
C236 O214 1.264 1_554 S
C236 O215 1.254 . S
C237 Eu173 2.848 . S
C237 O212 1.257 . S
C237 O217 1.249 . S
C237 C230 1.492 . S
H238 C221 0.930 . S
H239 C222 0.930 . S
H240 C223 0.930 . S
H241 C224 0.930 . S
H242 C231 0.930 . S
H243 C233 0.930 . S
H244 C234 0.930 . S
H245 C235 0.930 . S
Eu246 N277 2.657 . S
Eu246 N284 2.609 . S
Eu246 O290 2.558 . S
Eu246 O291 2.612 1_455 S
Eu246 O293 2.339 1_455 S
Eu246 O294 2.563 1_455 S
Eu246 O295 2.419 . S
Eu246 O297 2.380 1_556 S
Eu246 O298 2.432 . S
Eu246 C310 2.848 . S
C247 C250 1.429 . S
C247 C251 1.411 . S
C247 N254 1.377 . S
C248 C250 1.420 . S
C248 C252 1.423 . S
C248 C260 1.392 . S
C249 C251 1.420 . S
C249 C252 1.351 . S
C249 H272 0.931 . S
C250 C247 1.429 . S
C250 C248 1.420 . S
C250 N258 1.362 . S
C251 C247 1.411 . S
C251 C249 1.420 . S
C251 C256 1.395 . S
C252 C248 1.423 . S
C252 C249 1.351 . S
C252 H264 0.930 . S
C253 C255 1.400 . S
C253 C256 1.386 . S
C253 H265 0.930 . S
N254 C247 1.377 . S
N254 C255 1.321 . S
N254 Eu257 2.609 . S
C255 C253 1.400 . S
C255 N254 1.321 . S
C255 H262 0.930 . S
C256 C251 1.395 . S
C256 C253 1.386 . S
C256 H275 0.930 . S
Eu257 N254 2.609 . S
Eu257 N258 2.657 . S
Eu257 O291 2.380 1_554 S
Eu257 O292 2.432 . S
Eu257 O296 2.558 . S
Eu257 O297 2.612 1_655 S
Eu257 O299 2.339 1_655 S
Eu257 O300 2.563 1_655 S
Eu257 O301 2.419 . S
Eu257 C321 2.848 . S
N258 C250 1.362 . S
N258 Eu257 2.657 . S
N258 C259 1.334 . S
C259 N258 1.334 . S
C259 C261 1.413 . S
C259 H266 0.929 . S
C260 C248 1.392 . S
C260 C261 1.367 . S
C260 H268 0.930 . S
C261 C259 1.413 . S
C261 C260 1.367 . S
C261 H263 0.930 . S
H262 C255 0.930 . S
H263 C261 0.930 . S
H264 C252 0.930 . S
H265 C253 0.930 . S
H266 C259 0.929 . S
H267 C281 0.930 . S
H268 C260 0.930 . S
H269 C287 0.930 . S
H270 C278 0.929 . S
H271 C285 0.930 . S
H272 C249 0.931 . S
H273 C279 0.930 . S
H274 C312 0.930 . S
H275 C256 0.930 . S
H276 C311 0.931 . S
N277 Eu246 2.657 . S
N277 C278 1.334 . S
N277 C282 1.362 . S
C278 H270 0.929 . S
C278 N277 1.334 . S
C278 C281 1.413 . S
C279 H273 0.930 . S
C279 C280 1.392 . S
C279 C281 1.367 . S
C280 C279 1.392 . S
C280 C282 1.420 . S
C280 C312 1.423 . S
C281 H267 0.930 . S
C281 C278 1.413 . S
C281 C279 1.367 . S
C282 N277 1.362 . S
C282 C280 1.420 . S
C282 C286 1.429 . S
H283 C288 0.930 . S
N284 Eu246 2.609 . S
N284 C286 1.377 . S
N284 C287 1.321 . S
C285 H271 0.930 . S
C285 C287 1.400 . S
C285 C288 1.386 . S
C286 C282 1.429 . S
C286 N284 1.377 . S
C286 C289 1.411 . S
C287 H269 0.930 . S
C287 N284 1.321 . S
C287 C285 1.400 . S
C288 H283 0.930 . S
C288 C285 1.386 . S
C288 C289 1.395 . S
C289 C286 1.411 . S
C289 C288 1.395 . S
C289 C311 1.420 . S
O290 Eu246 2.558 . S
O290 C310 1.257 . S
O291 Eu246 2.612 1_655 S
O291 Eu257 2.380 1_556 S
O291 C302 1.276 . S
O292 Eu257 2.432 . S
O292 C309 1.264 1_554 S
O293 Eu246 2.339 1_655 S
O293 C309 1.254 . S
O294 Eu246 2.563 1_655 S
O294 C302 1.235 . S
O295 Eu246 2.419 . S
O295 C310 1.249 . S
O296 Eu257 2.558 . S
O296 C321 1.257 . S
O297 Eu246 2.380 1_554 S
O297 Eu257 2.612 1_455 S
O297 C313 1.276 . S
O298 Eu246 2.432 . S
O298 C320 1.264 1_556 S
O299 Eu257 2.339 1_455 S
O299 C320 1.254 . S
O300 Eu257 2.563 1_455 S
O300 C313 1.235 . S
O301 Eu257 2.419 . S
O301 C321 1.249 . S
C302 O291 1.276 . S
C302 O294 1.235 . S
C303 C305 1.393 1_455 S
C303 C307 1.395 . S
C303 C310 1.492 . S
C304 C305 1.392 . S
C304 C306 1.386 1_655 S
C305 C303 1.393 1_655 S
C305 C304 1.392 . S
C305 H322 0.930 . S
C306 C304 1.386 1_455 S
C306 C308 1.395 . S
C306 H323 0.930 . S
C307 C303 1.395 . S
C307 C308 1.379 . S
C307 H324 0.930 . S
C308 C306 1.395 . S
C308 C307 1.379 . S
C308 H325 0.930 . S
C309 O292 1.264 1_556 S
C309 O293 1.254 . S
C310 Eu246 2.848 . S
C310 O290 1.257 . S
C310 O295 1.249 . S
C310 C303 1.492 . S
C311 H276 0.931 . S
C311 C289 1.420 . S
C311 C312 1.351 . S
C312 H274 0.930 . S
C312 C280 1.423 . S
C312 C311 1.351 . S
C313 O297 1.276 . S
C313 O300 1.235 . S
C314 C315 1.393 1_655 S
C314 C318 1.395 . S
C314 C321 1.492 . S
C315 C314 1.393 1_455 S
C315 C316 1.392 . S
C315 H326 0.930 . S
C316 C315 1.392 . S
C316 C317 1.386 1_455 S
C317 C316 1.386 1_655 S
C317 C319 1.395 . S
C317 H327 0.930 . S
C318 C314 1.395 . S
C318 C319 1.379 . S
C318 H328 0.930 . S
C319 C317 1.395 . S
C319 C318 1.379 . S
C319 H329 0.930 . S
C320 O298 1.264 1_554 S
C320 O299 1.254 . S
C321 Eu257 2.848 . S
C321 O296 1.257 . S
C321 O301 1.249 . S
C321 C314 1.492 . S
H322 C305 0.930 . S
H323 C306 0.930 . S
H324 C307 0.930 . S
H325 C308 0.930 . S
H326 C315 0.930 . S
H327 C317 0.930 . S
H328 C318 0.930 . S
H329 C319 0.930 . S
Eu330 N361 2.657 . S
Eu330 N368 2.609 . S
Eu330 O374 2.558 . S
Eu330 O375 2.612 . S
Eu330 O377 2.339 . S
Eu330 O378 2.563 . S
Eu330 O379 2.419 . S
Eu330 O381 2.380 1_554 S
Eu330 O382 2.432 . S
Eu330 C394 2.848 . S
C331 C334 1.429 . S
C331 C335 1.411 . S
C331 N338 1.377 . S
C332 C334 1.420 . S
C332 C336 1.423 . S
C332 C344 1.392 . S
C333 C335 1.420 . S
C333 C336 1.351 . S
C333 H356 0.931 . S
C334 C331 1.429 . S
C334 C332 1.420 . S
C334 N342 1.362 . S
C335 C331 1.411 . S
C335 C333 1.420 . S
C335 C340 1.395 . S
C336 C332 1.423 . S
C336 C333 1.351 . S
C336 H348 0.930 . S
C337 C339 1.400 . S
C337 C340 1.386 . S
C337 H349 0.930 . S
N338 C331 1.377 . S
N338 C339 1.321 . S
N338 Eu341 2.609 . S
C339 C337 1.400 . S
C339 N338 1.321 . S
C339 H346 0.930 . S
C340 C335 1.395 . S
C340 C337 1.386 . S
C340 H359 0.930 . S
Eu341 N338 2.609 . S
Eu341 N342 2.657 . S
Eu341 O375 2.380 1_556 S
Eu341 O376 2.432 . S
Eu341 O380 2.558 . S
Eu341 O381 2.612 . S
Eu341 O383 2.339 . S
Eu341 O384 2.563 . S
Eu341 O385 2.419 . S
Eu341 C405 2.848 . S
N342 C334 1.362 . S
N342 Eu341 2.657 . S
N342 C343 1.334 . S
C343 N342 1.334 . S
C343 C345 1.413 . S
C343 H350 0.929 . S
C344 C332 1.392 . S
C344 C345 1.367 . S
C344 H352 0.930 . S
C345 C343 1.413 . S
C345 C344 1.367 . S
C345 H347 0.930 . S
H346 C339 0.930 . S
H347 C345 0.930 . S
H348 C336 0.930 . S
H349 C337 0.930 . S
H350 C343 0.929 . S
H351 C365 0.930 . S
H352 C344 0.930 . S
H353 C371 0.930 . S
H354 C362 0.929 . S
H355 C369 0.930 . S
H356 C333 0.931 . S
H357 C363 0.930 . S
H358 C396 0.930 . S
H359 C340 0.930 . S
H360 C395 0.931 . S
N361 Eu330 2.657 . S
N361 C362 1.334 . S
N361 C366 1.362 . S
C362 H354 0.929 . S
C362 N361 1.334 . S
C362 C365 1.413 . S
C363 H357 0.930 . S
C363 C364 1.392 . S
C363 C365 1.367 . S
C364 C363 1.392 . S
C364 C366 1.420 . S
C364 C396 1.423 . S
C365 H351 0.930 . S
C365 C362 1.413 . S
C365 C363 1.367 . S
C366 N361 1.362 . S
C366 C364 1.420 . S
C366 C370 1.429 . S
H367 C372 0.930 . S
N368 Eu330 2.609 . S
N368 C370 1.377 . S
N368 C371 1.321 . S
C369 H355 0.930 . S
C369 C371 1.400 . S
C369 C372 1.386 . S
C370 C366 1.429 . S
C370 N368 1.377 . S
C370 C373 1.411 . S
C371 H353 0.930 . S
C371 N368 1.321 . S
C371 C369 1.400 . S
C372 H367 0.930 . S
C372 C369 1.386 . S
C372 C373 1.395 . S
C373 C370 1.411 . S
C373 C372 1.395 . S
C373 C395 1.420 . S
O374 Eu330 2.558 . S
O374 C394 1.257 . S
O375 Eu330 2.612 . S
O375 Eu341 2.380 1_554 S
O375 C386 1.276 . S
O376 Eu341 2.432 . S
O376 C393 1.264 1_556 S
O377 Eu330 2.339 . S
O377 C393 1.254 . S
O378 Eu330 2.563 . S
O378 C386 1.235 . S
O379 Eu330 2.419 . S
O379 C394 1.249 . S
O380 Eu341 2.558 . S
O380 C405 1.257 . S
O381 Eu330 2.380 1_556 S
O381 Eu341 2.612 . S
O381 C397 1.276 . S
O382 Eu330 2.432 . S
O382 C404 1.264 1_554 S
O383 Eu341 2.339 . S
O383 C404 1.254 . S
O384 Eu341 2.563 . S
O384 C397 1.235 . S
O385 Eu341 2.419 . S
O385 C405 1.249 . S
C386 O375 1.276 . S
C386 O378 1.235 . S
C387 C389 1.393 . S
C387 C391 1.395 . S
C387 C394 1.492 . S
C388 C389 1.392 . S
C388 C390 1.386 . S
C389 C387 1.393 . S
C389 C388 1.392 . S
C389 H406 0.930 . S
C390 C388 1.386 . S
C390 C392 1.395 . S
C390 H407 0.930 . S
C391 C387 1.395 . S
C391 C392 1.379 . S
C391 H408 0.930 . S
C392 C390 1.395 . S
C392 C391 1.379 . S
C392 H409 0.930 . S
C393 O376 1.264 1_554 S
C393 O377 1.254 . S
C394 Eu330 2.848 . S
C394 O374 1.257 . S
C394 O379 1.249 . S
C394 C387 1.492 . S
C395 H360 0.931 . S
C395 C373 1.420 . S
C395 C396 1.351 . S
C396 H358 0.930 . S
C396 C364 1.423 . S
C396 C395 1.351 . S
C397 O381 1.276 . S
C397 O384 1.235 . S
C398 C399 1.393 . S
C398 C402 1.395 . S
C398 C405 1.492 . S
C399 C398 1.393 . S
C399 C400 1.392 . S
C399 H410 0.930 . S
C400 C399 1.392 . S
C400 C401 1.386 . S
C401 C400 1.386 . S
C401 C403 1.395 . S
C401 H411 0.930 . S
C402 C398 1.395 . S
C402 C403 1.379 . S
C402 H412 0.930 . S
C403 C401 1.395 . S
C403 C402 1.379 . S
C403 H413 0.930 . S
C404 O382 1.264 1_556 S
C404 O383 1.254 . S
C405 Eu341 2.848 . S
C405 O380 1.257 . S
C405 O385 1.249 . S
C405 C398 1.492 . S
H406 C389 0.930 . S
H407 C390 0.930 . S
H408 C391 0.930 . S
H409 C392 0.930 . S
H410 C399 0.930 . S
H411 C401 0.930 . S
H412 C402 0.930 . S
H413 C403 0.930 . S
Eu414 N445 2.657 . S
Eu414 N452 2.609 . S
Eu414 O458 2.558 . S
Eu414 O459 2.612 . S
Eu414 O461 2.339 . S
Eu414 O462 2.563 . S
Eu414 O463 2.419 . S
Eu414 O465 2.380 . S
Eu414 O466 2.432 . S
Eu414 C478 2.848 . S
C415 C418 1.429 . S
C415 C419 1.411 . S
C415 N422 1.377 . S
C416 C418 1.420 . S
C416 C420 1.423 . S
C416 C428 1.392 . S
C417 C419 1.420 . S
C417 C420 1.351 . S
C417 H440 0.931 . S
C418 C415 1.429 . S
C418 C416 1.420 . S
C418 N426 1.362 . S
C419 C415 1.411 . S
C419 C417 1.420 . S
C419 C424 1.395 . S
C420 C416 1.423 . S
C420 C417 1.351 . S
C420 H432 0.930 . S
C421 C423 1.400 . S
C421 C424 1.386 . S
C421 H433 0.930 . S
N422 C415 1.377 . S
N422 C423 1.321 . S
N422 Eu425 2.609 . S
C423 C421 1.400 . S
C423 N422 1.321 . S
C423 H430 0.930 . S
C424 C419 1.395 . S
C424 C421 1.386 . S
C424 H443 0.930 . S
Eu425 N422 2.609 . S
Eu425 N426 2.657 . S
Eu425 O459 2.380 . S
Eu425 O460 2.432 . S
Eu425 O464 2.558 . S
Eu425 O465 2.612 . S
Eu425 O467 2.339 . S
Eu425 O468 2.563 . S
Eu425 O469 2.419 . S
Eu425 C489 2.848 . S
N426 C418 1.362 . S
N426 Eu425 2.657 . S
N426 C427 1.334 . S
C427 N426 1.334 . S
C427 C429 1.413 . S
C427 H434 0.929 . S
C428 C416 1.392 . S
C428 C429 1.367 . S
C428 H436 0.930 . S
C429 C427 1.413 . S
C429 C428 1.367 . S
C429 H431 0.930 . S
H430 C423 0.930 . S
H431 C429 0.930 . S
H432 C420 0.930 . S
H433 C421 0.930 . S
H434 C427 0.929 . S
H435 C449 0.930 . S
H436 C428 0.930 . S
H437 C455 0.930 . S
H438 C446 0.929 . S
H439 C453 0.930 . S
H440 C417 0.931 . S
H441 C447 0.930 1_655 S
H442 C480 0.930 1_655 S
H443 C424 0.930 . S
H444 C479 0.931 . S
N445 Eu414 2.657 . S
N445 C446 1.334 . S
N445 C450 1.362 . S
C446 H438 0.929 . S
C446 N445 1.334 . S
C446 C449 1.413 . S
C447 H441 0.930 1_455 S
C447 C448 1.392 . S
C447 C449 1.367 . S
C448 C447 1.392 . S
C448 C450 1.420 . S
C448 C480 1.423 . S
C449 H435 0.930 . S
C449 C446 1.413 . S
C449 C447 1.367 . S
C450 N445 1.362 . S
C450 C448 1.420 . S
C450 C454 1.429 . S
H451 C456 0.930 . S
N452 Eu414 2.609 . S
N452 C454 1.377 . S
N452 C455 1.321 . S
C453 H439 0.930 . S
C453 C455 1.400 . S
C453 C456 1.386 . S
C454 C450 1.429 . S
C454 N452 1.377 . S
C454 C457 1.411 . S
C455 H437 0.930 . S
C455 N452 1.321 . S
C455 C453 1.400 . S
C456 H451 0.930 . S
C456 C453 1.386 . S
C456 C457 1.395 . S
C457 C454 1.411 . S
C457 C456 1.395 . S
C457 C479 1.420 . S
O458 Eu414 2.558 . S
O458 C478 1.257 . S
O459 Eu414 2.612 . S
O459 Eu425 2.380 . S
O459 C470 1.276 . S
O460 Eu425 2.432 . S
O460 C477 1.264 . S
O461 Eu414 2.339 . S
O461 C477 1.254 . S
O462 Eu414 2.563 . S
O462 C470 1.235 . S
O463 Eu414 2.419 . S
O463 C478 1.249 . S
O464 Eu425 2.558 . S
O464 C489 1.257 . S
O465 Eu414 2.380 . S
O465 Eu425 2.612 . S
O465 C481 1.276 . S
O466 Eu414 2.432 . S
O466 C488 1.264 . S
O467 Eu425 2.339 . S
O467 C488 1.254 . S
O468 Eu425 2.563 . S
O468 C481 1.235 . S
O469 Eu425 2.419 . S
O469 C489 1.249 . S
C470 O459 1.276 . S
C470 O462 1.235 . S
C471 C473 1.393 . S
C471 C475 1.395 . S
C471 C478 1.492 . S
C472 C473 1.392 . S
C472 C474 1.386 . S
C473 C471 1.393 . S
C473 C472 1.392 . S
C473 H490 0.930 . S
C474 C472 1.386 . S
C474 C476 1.395 . S
C474 H491 0.930 . S
C475 C471 1.395 . S
C475 C476 1.379 . S
C475 H492 0.930 . S
C476 C474 1.395 . S
C476 C475 1.379 . S
C476 H493 0.930 . S
C477 O460 1.264 . S
C477 O461 1.254 . S
C478 Eu414 2.848 . S
C478 O458 1.257 . S
C478 O463 1.249 . S
C478 C471 1.492 . S
C479 H444 0.931 . S
C479 C457 1.420 . S
C479 C480 1.351 . S
C480 H442 0.930 1_455 S
C480 C448 1.423 . S
C480 C479 1.351 . S
C481 O465 1.276 . S
C481 O468 1.235 . S
C482 C483 1.393 . S
C482 C486 1.395 . S
C482 C489 1.492 . S
C483 C482 1.393 . S
C483 C484 1.392 . S
C483 H494 0.930 . S
C484 C483 1.392 . S
C484 C485 1.386 . S
C485 C484 1.386 . S
C485 C487 1.395 . S
C485 H495 0.930 . S
C486 C482 1.395 . S
C486 C487 1.379 . S
C486 H496 0.930 . S
C487 C485 1.395 . S
C487 C486 1.379 . S
C487 H497 0.930 . S
C488 O466 1.264 . S
C488 O467 1.254 . S
C489 Eu425 2.848 . S
C489 O464 1.257 . S
C489 O469 1.249 . S
C489 C482 1.492 . S
H490 C473 0.930 . S
H491 C474 0.930 . S
H492 C475 0.930 . S
H493 C476 0.930 . S
H494 C483 0.930 . S
H495 C485 0.930 . S
H496 C486 0.930 . S
H497 C487 0.930 . S
Eu498 N529 2.657 . S
Eu498 N536 2.609 . S
Eu498 O542 2.558 . S
Eu498 O543 2.612 . S
Eu498 O545 2.339 . S
Eu498 O546 2.563 . S
Eu498 O547 2.419 . S
Eu498 O549 2.380 . S
Eu498 O550 2.432 . S
Eu498 C562 2.848 . S
C499 C502 1.429 . S
C499 C503 1.411 . S
C499 N506 1.377 . S
C500 C502 1.420 . S
C500 C504 1.423 . S
C500 C512 1.392 . S
C501 C503 1.420 . S
C501 C504 1.351 . S
C501 H524 0.931 . S
C502 C499 1.429 . S
C502 C500 1.420 . S
C502 N510 1.362 . S
C503 C499 1.411 . S
C503 C501 1.420 . S
C503 C508 1.395 . S
C504 C500 1.423 . S
C504 C501 1.351 . S
C504 H516 0.930 . S
C505 C507 1.400 . S
C505 C508 1.386 . S
C505 H517 0.930 . S
N506 C499 1.377 . S
N506 C507 1.321 . S
N506 Eu509 2.609 . S
C507 C505 1.400 . S
C507 N506 1.321 . S
C507 H514 0.930 . S
C508 C503 1.395 . S
C508 C505 1.386 . S
C508 H527 0.930 . S
Eu509 N506 2.609 . S
Eu509 N510 2.657 . S
Eu509 O543 2.380 . S
Eu509 O544 2.432 . S
Eu509 O548 2.558 . S
Eu509 O549 2.612 . S
Eu509 O551 2.339 . S
Eu509 O552 2.563 . S
Eu509 O553 2.419 . S
Eu509 C573 2.848 . S
N510 C502 1.362 . S
N510 Eu509 2.657 . S
N510 C511 1.334 . S
C511 N510 1.334 . S
C511 C513 1.413 . S
C511 H518 0.929 . S
C512 C500 1.392 . S
C512 C513 1.367 . S
C512 H520 0.930 . S
C513 C511 1.413 . S
C513 C512 1.367 . S
C513 H515 0.930 . S
H514 C507 0.930 . S
H515 C513 0.930 . S
H516 C504 0.930 . S
H517 C505 0.930 . S
H518 C511 0.929 . S
H519 C533 0.930 . S
H520 C512 0.930 . S
H521 C539 0.930 . S
H522 C530 0.929 . S
H523 C537 0.930 . S
H524 C501 0.931 . S
H525 C531 0.930 . S
H526 C564 0.930 . S
H527 C508 0.930 . S
H528 C563 0.931 . S
N529 Eu498 2.657 . S
N529 C530 1.334 . S
N529 C534 1.362 . S
C530 H522 0.929 . S
C530 N529 1.334 . S
C530 C533 1.413 . S
C531 H525 0.930 . S
C531 C532 1.392 . S
C531 C533 1.367 . S
C532 C531 1.392 . S
C532 C534 1.420 . S
C532 C564 1.423 . S
C533 H519 0.930 . S
C533 C530 1.413 . S
C533 C531 1.367 . S
C534 N529 1.362 . S
C534 C532 1.420 . S
C534 C538 1.429 . S
H535 C540 0.930 . S
N536 Eu498 2.609 . S
N536 C538 1.377 . S
N536 C539 1.321 . S
C537 H523 0.930 . S
C537 C539 1.400 . S
C537 C540 1.386 . S
C538 C534 1.429 . S
C538 N536 1.377 . S
C538 C541 1.411 . S
C539 H521 0.930 . S
C539 N536 1.321 . S
C539 C537 1.400 . S
C540 H535 0.930 . S
C540 C537 1.386 . S
C540 C541 1.395 . S
C541 C538 1.411 . S
C541 C540 1.395 . S
C541 C563 1.420 . S
O542 Eu498 2.558 . S
O542 C562 1.257 . S
O543 Eu498 2.612 . S
O543 Eu509 2.380 . S
O543 C554 1.276 . S
O544 Eu509 2.432 . S
O544 C561 1.264 . S
O545 Eu498 2.339 . S
O545 C561 1.254 . S
O546 Eu498 2.563 . S
O546 C554 1.235 . S
O547 Eu498 2.419 . S
O547 C562 1.249 . S
O548 Eu509 2.558 . S
O548 C573 1.257 . S
O549 Eu498 2.380 . S
O549 Eu509 2.612 . S
O549 C565 1.276 . S
O550 Eu498 2.432 . S
O550 C572 1.264 . S
O551 Eu509 2.339 . S
O551 C572 1.254 . S
O552 Eu509 2.563 . S
O552 C565 1.235 . S
O553 Eu509 2.419 . S
O553 C573 1.249 . S
C554 O543 1.276 . S
C554 O546 1.235 . S
C555 C557 1.393 . S
C555 C559 1.395 . S
C555 C562 1.492 . S
C556 C557 1.392 . S
C556 C558 1.386 . S
C557 C555 1.393 . S
C557 C556 1.392 . S
C557 H574 0.930 . S
C558 C556 1.386 . S
C558 C560 1.395 . S
C558 H575 0.930 . S
C559 C555 1.395 . S
C559 C560 1.379 . S
C559 H576 0.930 . S
C560 C558 1.395 . S
C560 C559 1.379 . S
C560 H577 0.930 . S
C561 O544 1.264 . S
C561 O545 1.254 . S
C562 Eu498 2.848 . S
C562 O542 1.257 . S
C562 O547 1.249 . S
C562 C555 1.492 . S
C563 H528 0.931 . S
C563 C541 1.420 . S
C563 C564 1.351 . S
C564 H526 0.930 . S
C564 C532 1.423 . S
C564 C563 1.351 . S
C565 O549 1.276 . S
C565 O552 1.235 . S
C566 C567 1.393 . S
C566 C570 1.395 . S
C566 C573 1.492 . S
C567 C566 1.393 . S
C567 C568 1.392 . S
C567 H578 0.930 . S
C568 C567 1.392 . S
C568 C569 1.386 . S
C569 C568 1.386 . S
C569 C571 1.395 . S
C569 H579 0.930 . S
C570 C566 1.395 . S
C570 C571 1.379 . S
C570 H580 0.930 . S
C571 C569 1.395 . S
C571 C570 1.379 . S
C571 H581 0.930 . S
C572 O550 1.264 . S
C572 O551 1.254 . S
C573 Eu509 2.848 . S
C573 O548 1.257 . S
C573 O553 1.249 . S
C573 C566 1.492 . S
H574 C557 0.930 . S
H575 C558 0.930 . S
H576 C559 0.930 . S
H577 C560 0.930 . S
H578 C567 0.930 . S
H579 C569 0.930 . S
H580 C570 0.930 . S
H581 C571 0.930 . S
Eu582 N613 2.657 . S
Eu582 N620 2.609 . S
Eu582 O626 2.558 . S
Eu582 O627 2.612 . S
Eu582 O629 2.339 . S
Eu582 O630 2.563 . S
Eu582 O631 2.419 . S
Eu582 O633 2.380 . S
Eu582 O634 2.432 . S
Eu582 C646 2.848 . S
C583 C586 1.429 . S
C583 C587 1.411 . S
C583 N590 1.377 . S
C584 C586 1.420 . S
C584 C588 1.423 . S
C584 C596 1.392 . S
C585 C587 1.420 . S
C585 C588 1.351 . S
C585 H608 0.931 . S
C586 C583 1.429 . S
C586 C584 1.420 . S
C586 N594 1.362 . S
C587 C583 1.411 . S
C587 C585 1.420 . S
C587 C592 1.395 . S
C588 C584 1.423 . S
C588 C585 1.351 . S
C588 H600 0.930 1_455 S
C589 C591 1.400 . S
C589 C592 1.386 . S
C589 H601 0.930 . S
N590 C583 1.377 . S
N590 C591 1.321 . S
N590 Eu593 2.609 . S
C591 C589 1.400 . S
C591 N590 1.321 . S
C591 H598 0.930 . S
C592 C587 1.395 . S
C592 C589 1.386 . S
C592 H611 0.930 . S
Eu593 N590 2.609 . S
Eu593 N594 2.657 . S
Eu593 O627 2.380 . S
Eu593 O628 2.432 . S
Eu593 O632 2.558 . S
Eu593 O633 2.612 . S
Eu593 O635 2.339 . S
Eu593 O636 2.563 . S
Eu593 O637 2.419 . S
Eu593 C657 2.848 . S
N594 C586 1.362 . S
N594 Eu593 2.657 . S
N594 C595 1.334 . S
C595 N594 1.334 . S
C595 C597 1.413 . S
C595 H602 0.929 . S
C596 C584 1.392 . S
C596 C597 1.367 . S
C596 H604 0.930 1_455 S
C597 C595 1.413 . S
C597 C596 1.367 . S
C597 H599 0.930 . S
H598 C591 0.930 . S
H599 C597 0.930 . S
H600 C588 0.930 1_655 S
H601 C589 0.930 . S
H602 C595 0.929 . S
H603 C617 0.930 . S
H604 C596 0.930 1_655 S
H605 C623 0.930 . S
H606 C614 0.929 . S
H607 C621 0.930 . S
H608 C585 0.931 . S
H609 C615 0.930 . S
H610 C648 0.930 . S
H611 C592 0.930 . S
H612 C647 0.931 . S
N613 Eu582 2.657 . S
N613 C614 1.334 . S
N613 C618 1.362 . S
C614 H606 0.929 . S
C614 N613 1.334 . S
C614 C617 1.413 . S
C615 H609 0.930 . S
C615 C616 1.392 . S
C615 C617 1.367 . S
C616 C615 1.392 . S
C616 C618 1.420 . S
C616 C648 1.423 . S
C617 H603 0.930 . S
C617 C614 1.413 . S
C617 C615 1.367 . S
C618 N613 1.362 . S
C618 C616 1.420 . S
C618 C622 1.429 . S
H619 C624 0.930 . S
N620 Eu582 2.609 . S
N620 C622 1.377 . S
N620 C623 1.321 . S
C621 H607 0.930 . S
C621 C623 1.400 . S
C621 C624 1.386 . S
C622 C618 1.429 . S
C622 N620 1.377 . S
C622 C625 1.411 . S
C623 H605 0.930 . S
C623 N620 1.321 . S
C623 C621 1.400 . S
C624 H619 0.930 . S
C624 C621 1.386 . S
C624 C625 1.395 . S
C625 C622 1.411 . S
C625 C624 1.395 . S
C625 C647 1.420 . S
O626 Eu582 2.558 . S
O626 C646 1.257 . S
O627 Eu582 2.612 . S
O627 Eu593 2.380 . S
O627 C638 1.276 . S
O628 Eu593 2.432 . S
O628 C645 1.264 . S
O629 Eu582 2.339 . S
O629 C645 1.254 . S
O630 Eu582 2.563 . S
O630 C638 1.235 . S
O631 Eu582 2.419 . S
O631 C646 1.249 . S
O632 Eu593 2.558 . S
O632 C657 1.257 . S
O633 Eu582 2.380 . S
O633 Eu593 2.612 . S
O633 C649 1.276 . S
O634 Eu582 2.432 . S
O634 C656 1.264 . S
O635 Eu593 2.339 . S
O635 C656 1.254 . S
O636 Eu593 2.563 . S
O636 C649 1.235 . S
O637 Eu593 2.419 . S
O637 C657 1.249 . S
C638 O627 1.276 . S
C638 O630 1.235 . S
C639 C641 1.393 . S
C639 C643 1.395 . S
C639 C646 1.492 . S
C640 C641 1.392 . S
C640 C642 1.386 . S
C641 C639 1.393 . S
C641 C640 1.392 . S
C641 H658 0.930 . S
C642 C640 1.386 . S
C642 C644 1.395 . S
C642 H659 0.930 . S
C643 C639 1.395 . S
C643 C644 1.379 . S
C643 H660 0.930 . S
C644 C642 1.395 . S
C644 C643 1.379 . S
C644 H661 0.930 . S
C645 O628 1.264 . S
C645 O629 1.254 . S
C646 Eu582 2.848 . S
C646 O626 1.257 . S
C646 O631 1.249 . S
C646 C639 1.492 . S
C647 H612 0.931 . S
C647 C625 1.420 . S
C647 C648 1.351 . S
C648 H610 0.930 . S
C648 C616 1.423 . S
C648 C647 1.351 . S
C649 O633 1.276 . S
C649 O636 1.235 . S
C650 C651 1.393 . S
C650 C654 1.395 . S
C650 C657 1.492 . S
C651 C650 1.393 . S
C651 C652 1.392 . S
C651 H662 0.930 . S
C652 C651 1.392 . S
C652 C653 1.386 . S
C653 C652 1.386 . S
C653 C655 1.395 . S
C653 H663 0.930 . S
C654 C650 1.395 . S
C654 C655 1.379 . S
C654 H664 0.930 . S
C655 C653 1.395 . S
C655 C654 1.379 . S
C655 H665 0.930 . S
C656 O634 1.264 . S
C656 O635 1.254 . S
C657 Eu593 2.848 . S
C657 O632 1.257 . S
C657 O637 1.249 . S
C657 C650 1.492 . S
H658 C641 0.930 . S
H659 C642 0.930 . S
H660 C643 0.930 . S
H661 C644 0.930 . S
H662 C651 0.930 . S
H663 C653 0.930 . S
H664 C654 0.930 . S
H665 C655 0.930 . S
Eu666 N697 2.657 . S
Eu666 N704 2.609 . S
Eu666 O710 2.558 . S
Eu666 O711 2.612 . S
Eu666 O713 2.339 . S
Eu666 O714 2.563 . S
Eu666 O715 2.419 . S
Eu666 O717 2.380 . S
Eu666 O718 2.432 . S
Eu666 C730 2.848 . S
C667 C670 1.429 . S
C667 C671 1.411 . S
C667 N674 1.377 . S
C668 C670 1.420 . S
C668 C672 1.423 . S
C668 C680 1.392 . S
C669 C671 1.420 . S
C669 C672 1.351 . S
C669 H692 0.931 . S
C670 C667 1.429 . S
C670 C668 1.420 . S
C670 N678 1.362 . S
C671 C667 1.411 . S
C671 C669 1.420 . S
C671 C676 1.395 . S
C672 C668 1.423 . S
C672 C669 1.351 . S
C672 H684 0.930 1_655 S
C673 C675 1.400 . S
C673 C676 1.386 . S
C673 H685 0.930 . S
N674 C667 1.377 . S
N674 C675 1.321 . S
N674 Eu677 2.609 . S
C675 C673 1.400 . S
C675 N674 1.321 . S
C675 H682 0.930 . S
C676 C671 1.395 . S
C676 C673 1.386 . S
C676 H695 0.930 . S
Eu677 N674 2.609 . S
Eu677 N678 2.657 . S
Eu677 O711 2.380 . S
Eu677 O712 2.432 . S
Eu677 O716 2.558 . S
Eu677 O717 2.612 . S
Eu677 O719 2.339 . S
Eu677 O720 2.563 . S
Eu677 O721 2.419 . S
Eu677 C741 2.848 . S
N678 C670 1.362 . S
N678 Eu677 2.657 . S
N678 C679 1.334 . S
C679 N678 1.334 . S
C679 C681 1.413 . S
C679 H686 0.929 . S
C680 C668 1.392 . S
C680 C681 1.367 . S
C680 H688 0.930 1_655 S
C681 C679 1.413 . S
C681 C680 1.367 . S
C681 H683 0.930 . S
H682 C675 0.930 . S
H683 C681 0.930 . S
H684 C672 0.930 1_455 S
H685 C673 0.930 . S
H686 C679 0.929 . S
H687 C701 0.930 . S
H688 C680 0.930 1_455 S
H689 C707 0.930 . S
H690 C698 0.929 . S
H691 C705 0.930 . S
H692 C669 0.931 . S
H693 C699 0.930 . S
H694 C732 0.930 . S
H695 C676 0.930 . S
H696 C731 0.931 . S
N697 Eu666 2.657 . S
N697 C698 1.334 . S
N697 C702 1.362 . S
C698 H690 0.929 . S
C698 N697 1.334 . S
C698 C701 1.413 . S
C699 H693 0.930 . S
C699 C700 1.392 . S
C699 C701 1.367 . S
C700 C699 1.392 . S
C700 C702 1.420 . S
C700 C732 1.423 . S
C701 H687 0.930 . S
C701 C698 1.413 . S
C701 C699 1.367 . S
C702 N697 1.362 . S
C702 C700 1.420 . S
C702 C706 1.429 . S
H703 C708 0.930 . S
N704 Eu666 2.609 . S
N704 C706 1.377 . S
N704 C707 1.321 . S
C705 H691 0.930 . S
C705 C707 1.400 . S
C705 C708 1.386 . S
C706 C702 1.429 . S
C706 N704 1.377 . S
C706 C709 1.411 . S
C707 H689 0.930 . S
C707 N704 1.321 . S
C707 C705 1.400 . S
C708 H703 0.930 . S
C708 C705 1.386 . S
C708 C709 1.395 . S
C709 C706 1.411 . S
C709 C708 1.395 . S
C709 C731 1.420 . S
O710 Eu666 2.558 . S
O710 C730 1.257 . S
O711 Eu666 2.612 . S
O711 Eu677 2.380 . S
O711 C722 1.276 . S
O712 Eu677 2.432 . S
O712 C729 1.264 . S
O713 Eu666 2.339 . S
O713 C729 1.254 . S
O714 Eu666 2.563 . S
O714 C722 1.235 . S
O715 Eu666 2.419 . S
O715 C730 1.249 . S
O716 Eu677 2.558 . S
O716 C741 1.257 . S
O717 Eu666 2.380 . S
O717 Eu677 2.612 . S
O717 C733 1.276 . S
O718 Eu666 2.432 . S
O718 C740 1.264 . S
O719 Eu677 2.339 . S
O719 C740 1.254 . S
O720 Eu677 2.563 . S
O720 C733 1.235 . S
O721 Eu677 2.419 . S
O721 C741 1.249 . S
C722 O711 1.276 . S
C722 O714 1.235 . S
C723 C725 1.393 . S
C723 C727 1.395 . S
C723 C730 1.492 . S
C724 C725 1.392 . S
C724 C726 1.386 . S
C725 C723 1.393 . S
C725 C724 1.392 . S
C725 H742 0.930 . S
C726 C724 1.386 . S
C726 C728 1.395 . S
C726 H743 0.930 . S
C727 C723 1.395 . S
C727 C728 1.379 . S
C727 H744 0.930 . S
C728 C726 1.395 . S
C728 C727 1.379 . S
C728 H745 0.930 . S
C729 O712 1.264 . S
C729 O713 1.254 . S
C730 Eu666 2.848 . S
C730 O710 1.257 . S
C730 O715 1.249 . S
C730 C723 1.492 . S
C731 H696 0.931 . S
C731 C709 1.420 . S
C731 C732 1.351 . S
C732 H694 0.930 . S
C732 C700 1.423 . S
C732 C731 1.351 . S
C733 O717 1.276 . S
C733 O720 1.235 . S
C734 C735 1.393 . S
C734 C738 1.395 . S
C734 C741 1.492 . S
C735 C734 1.393 . S
C735 C736 1.392 . S
C735 H746 0.930 . S
C736 C735 1.392 . S
C736 C737 1.386 . S
C737 C736 1.386 . S
C737 C739 1.395 . S
C737 H747 0.930 . S
C738 C734 1.395 . S
C738 C739 1.379 . S
C738 H748 0.930 . S
C739 C737 1.395 . S
C739 C738 1.379 . S
C739 H749 0.930 . S
C740 O718 1.264 . S
C740 O719 1.254 . S
C741 Eu677 2.848 . S
C741 O716 1.257 . S
C741 O721 1.249 . S
C741 C734 1.492 . S
H742 C725 0.930 . S
H743 C726 0.930 . S
H744 C727 0.930 . S
H745 C728 0.930 . S
H746 C735 0.930 . S
H747 C737 0.930 . S
H748 C738 0.930 . S
H749 C739 0.930 . S
Eu750 N781 2.657 . S
Eu750 N788 2.609 . S
Eu750 O794 2.558 . S
Eu750 O795 2.612 . S
Eu750 O797 2.339 . S
Eu750 O798 2.563 . S
Eu750 O799 2.419 . S
Eu750 O801 2.380 . S
Eu750 O802 2.432 . S
Eu750 C814 2.848 . S
C751 C754 1.429 . S
C751 C755 1.411 . S
C751 N758 1.377 . S
C752 C754 1.420 . S
C752 C756 1.423 . S
C752 C764 1.392 . S
C753 C755 1.420 . S
C753 C756 1.351 . S
C753 H776 0.931 . S
C754 C751 1.429 . S
C754 C752 1.420 . S
C754 N762 1.362 . S
C755 C751 1.411 . S
C755 C753 1.420 . S
C755 C760 1.395 . S
C756 C752 1.423 . S
C756 C753 1.351 . S
C756 H768 0.930 . S
C757 C759 1.400 . S
C757 C760 1.386 . S
C757 H769 0.930 . S
N758 C751 1.377 . S
N758 C759 1.321 . S
N758 Eu761 2.609 . S
C759 C757 1.400 . S
C759 N758 1.321 . S
C759 H766 0.930 . S
C760 C755 1.395 . S
C760 C757 1.386 . S
C760 H779 0.930 . S
Eu761 N758 2.609 . S
Eu761 N762 2.657 . S
Eu761 O795 2.380 . S
Eu761 O796 2.432 . S
Eu761 O800 2.558 . S
Eu761 O801 2.612 . S
Eu761 O803 2.339 . S
Eu761 O804 2.563 . S
Eu761 O805 2.419 . S
Eu761 C825 2.848 . S
N762 C754 1.362 . S
N762 Eu761 2.657 . S
N762 C763 1.334 . S
C763 N762 1.334 . S
C763 C765 1.413 . S
C763 H770 0.929 . S
C764 C752 1.392 . S
C764 C765 1.367 . S
C764 H772 0.930 . S
C765 C763 1.413 . S
C765 C764 1.367 . S
C765 H767 0.930 . S
H766 C759 0.930 . S
H767 C765 0.930 . S
H768 C756 0.930 . S
H769 C757 0.930 . S
H770 C763 0.929 . S
H771 C785 0.930 . S
H772 C764 0.930 . S
H773 C791 0.930 . S
H774 C782 0.929 . S
H775 C789 0.930 . S
H776 C753 0.931 . S
H777 C783 0.930 . S
H778 C816 0.930 . S
H779 C760 0.930 . S
H780 C815 0.931 . S
N781 Eu750 2.657 . S
N781 C782 1.334 . S
N781 C786 1.362 . S
C782 H774 0.929 . S
C782 N781 1.334 . S
C782 C785 1.413 . S
C783 H777 0.930 . S
C783 C784 1.392 . S
C783 C785 1.367 . S
C784 C783 1.392 . S
C784 C786 1.420 . S
C784 C816 1.423 . S
C785 H771 0.930 . S
C785 C782 1.413 . S
C785 C783 1.367 . S
C786 N781 1.362 . S
C786 C784 1.420 . S
C786 C790 1.429 . S
H787 C792 0.930 . S
N788 Eu750 2.609 . S
N788 C790 1.377 . S
N788 C791 1.321 . S
C789 H775 0.930 . S
C789 C791 1.400 . S
C789 C792 1.386 . S
C790 C786 1.429 . S
C790 N788 1.377 . S
C790 C793 1.411 . S
C791 H773 0.930 . S
C791 N788 1.321 . S
C791 C789 1.400 . S
C792 H787 0.930 . S
C792 C789 1.386 . S
C792 C793 1.395 . S
C793 C790 1.411 . S
C793 C792 1.395 . S
C793 C815 1.420 . S
O794 Eu750 2.558 . S
O794 C814 1.257 . S
O795 Eu750 2.612 . S
O795 Eu761 2.380 . S
O795 C806 1.276 . S
O796 Eu761 2.432 . S
O796 C813 1.264 . S
O797 Eu750 2.339 . S
O797 C813 1.254 . S
O798 Eu750 2.563 . S
O798 C806 1.235 . S
O799 Eu750 2.419 . S
O799 C814 1.249 . S
O800 Eu761 2.558 . S
O800 C825 1.257 . S
O801 Eu750 2.380 . S
O801 Eu761 2.612 . S
O801 C817 1.276 . S
O802 Eu750 2.432 . S
O802 C824 1.264 . S
O803 Eu761 2.339 . S
O803 C824 1.254 . S
O804 Eu761 2.563 . S
O804 C817 1.235 . S
O805 Eu761 2.419 . S
O805 C825 1.249 . S
C806 O795 1.276 . S
C806 O798 1.235 . S
C807 C809 1.393 . S
C807 C811 1.395 . S
C807 C814 1.492 . S
C808 C809 1.392 . S
C808 C810 1.386 . S
C809 C807 1.393 . S
C809 C808 1.392 . S
C809 H826 0.930 . S
C810 C808 1.386 . S
C810 C812 1.395 . S
C810 H827 0.930 . S
C811 C807 1.395 . S
C811 C812 1.379 . S
C811 H828 0.930 . S
C812 C810 1.395 . S
C812 C811 1.379 . S
C812 H829 0.930 . S
C813 O796 1.264 . S
C813 O797 1.254 . S
C814 Eu750 2.848 . S
C814 O794 1.257 . S
C814 O799 1.249 . S
C814 C807 1.492 . S
C815 H780 0.931 . S
C815 C793 1.420 . S
C815 C816 1.351 . S
C816 H778 0.930 . S
C816 C784 1.423 . S
C816 C815 1.351 . S
C817 O801 1.276 . S
C817 O804 1.235 . S
C818 C819 1.393 . S
C818 C822 1.395 . S
C818 C825 1.492 . S
C819 C818 1.393 . S
C819 C820 1.392 . S
C819 H830 0.930 . S
C820 C819 1.392 . S
C820 C821 1.386 . S
C821 C820 1.386 . S
C821 C823 1.395 . S
C821 H831 0.930 . S
C822 C818 1.395 . S
C822 C823 1.379 . S
C822 H832 0.930 . S
C823 C821 1.395 . S
C823 C822 1.379 . S
C823 H833 0.930 . S
C824 O802 1.264 . S
C824 O803 1.254 . S
C825 Eu761 2.848 . S
C825 O800 1.257 . S
C825 O805 1.249 . S
C825 C818 1.492 . S
H826 C809 0.930 . S
H827 C810 0.930 . S
H828 C811 0.930 . S
H829 C812 0.930 . S
H830 C819 0.930 . S
H831 C821 0.930 . S
H832 C822 0.930 . S
H833 C823 0.930 . S
Eu834 N865 2.657 . S
Eu834 N872 2.609 . S
Eu834 O878 2.558 . S
Eu834 O879 2.612 . S
Eu834 O881 2.339 . S
Eu834 O882 2.563 . S
Eu834 O883 2.419 . S
Eu834 O885 2.380 . S
Eu834 O886 2.432 . S
Eu834 C898 2.848 . S
C835 C838 1.429 . S
C835 C839 1.411 . S
C835 N842 1.377 . S
C836 C838 1.420 . S
C836 C840 1.423 . S
C836 C848 1.392 . S
C837 C839 1.420 . S
C837 C840 1.351 . S
C837 H860 0.931 . S
C838 C835 1.429 . S
C838 C836 1.420 . S
C838 N846 1.362 . S
C839 C835 1.411 . S
C839 C837 1.420 . S
C839 C844 1.395 . S
C840 C836 1.423 . S
C840 C837 1.351 . S
C840 H852 0.930 . S
C841 C843 1.400 . S
C841 C844 1.386 . S
C841 H853 0.930 . S
N842 C835 1.377 . S
N842 C843 1.321 . S
N842 Eu845 2.609 . S
C843 C841 1.400 . S
C843 N842 1.321 . S
C843 H850 0.930 . S
C844 C839 1.395 . S
C844 C841 1.386 . S
C844 H863 0.930 . S
Eu845 N842 2.609 . S
Eu845 N846 2.657 . S
Eu845 O879 2.380 . S
Eu845 O880 2.432 . S
Eu845 O884 2.558 . S
Eu845 O885 2.612 . S
Eu845 O887 2.339 . S
Eu845 O888 2.563 . S
Eu845 O889 2.419 . S
Eu845 C909 2.848 . S
N846 C838 1.362 . S
N846 Eu845 2.657 . S
N846 C847 1.334 . S
C847 N846 1.334 . S
C847 C849 1.413 . S
C847 H854 0.929 . S
C848 C836 1.392 . S
C848 C849 1.367 . S
C848 H856 0.930 . S
C849 C847 1.413 . S
C849 C848 1.367 . S
C849 H851 0.930 . S
H850 C843 0.930 . S
H851 C849 0.930 . S
H852 C840 0.930 . S
H853 C841 0.930 . S
H854 C847 0.929 . S
H855 C869 0.930 . S
H856 C848 0.930 . S
H857 C875 0.930 . S
H858 C866 0.929 . S
H859 C873 0.930 . S
H860 C837 0.931 . S
H861 C867 0.930 1_455 S
H862 C900 0.930 1_455 S
H863 C844 0.930 . S
H864 C899 0.931 . S
N865 Eu834 2.657 . S
N865 C866 1.334 . S
N865 C870 1.362 . S
C866 H858 0.929 . S
C866 N865 1.334 . S
C866 C869 1.413 . S
C867 H861 0.930 1_655 S
C867 C868 1.392 . S
C867 C869 1.367 . S
C868 C867 1.392 . S
C868 C870 1.420 . S
C868 C900 1.423 . S
C869 H855 0.930 . S
C869 C866 1.413 . S
C869 C867 1.367 . S
C870 N865 1.362 . S
C870 C868 1.420 . S
C870 C874 1.429 . S
H871 C876 0.930 . S
N872 Eu834 2.609 . S
N872 C874 1.377 . S
N872 C875 1.321 . S
C873 H859 0.930 . S
C873 C875 1.400 . S
C873 C876 1.386 . S
C874 C870 1.429 . S
C874 N872 1.377 . S
C874 C877 1.411 . S
C875 H857 0.930 . S
C875 N872 1.321 . S
C875 C873 1.400 . S
C876 H871 0.930 . S
C876 C873 1.386 . S
C876 C877 1.395 . S
C877 C874 1.411 . S
C877 C876 1.395 . S
C877 C899 1.420 . S
O878 Eu834 2.558 . S
O878 C898 1.257 . S
O879 Eu834 2.612 . S
O879 Eu845 2.380 . S
O879 C890 1.276 . S
O880 Eu845 2.432 . S
O880 C897 1.264 . S
O881 Eu834 2.339 . S
O881 C897 1.254 . S
O882 Eu834 2.563 . S
O882 C890 1.235 . S
O883 Eu834 2.419 . S
O883 C898 1.249 . S
O884 Eu845 2.558 . S
O884 C909 1.257 . S
O885 Eu834 2.380 . S
O885 Eu845 2.612 . S
O885 C901 1.276 . S
O886 Eu834 2.432 . S
O886 C908 1.264 . S
O887 Eu845 2.339 . S
O887 C908 1.254 . S
O888 Eu845 2.563 . S
O888 C901 1.235 . S
O889 Eu845 2.419 . S
O889 C909 1.249 . S
C890 O879 1.276 . S
C890 O882 1.235 . S
C891 C893 1.393 . S
C891 C895 1.395 . S
C891 C898 1.492 . S
C892 C893 1.392 . S
C892 C894 1.386 . S
C893 C891 1.393 . S
C893 C892 1.392 . S
C893 H910 0.930 . S
C894 C892 1.386 . S
C894 C896 1.395 . S
C894 H911 0.930 . S
C895 C891 1.395 . S
C895 C896 1.379 . S
C895 H912 0.930 . S
C896 C894 1.395 . S
C896 C895 1.379 . S
C896 H913 0.930 . S
C897 O880 1.264 . S
C897 O881 1.254 . S
C898 Eu834 2.848 . S
C898 O878 1.257 . S
C898 O883 1.249 . S
C898 C891 1.492 . S
C899 H864 0.931 . S
C899 C877 1.420 . S
C899 C900 1.351 . S
C900 H862 0.930 1_655 S
C900 C868 1.423 . S
C900 C899 1.351 . S
C901 O885 1.276 . S
C901 O888 1.235 . S
C902 C903 1.393 . S
C902 C906 1.395 . S
C902 C909 1.492 . S
C903 C902 1.393 . S
C903 C904 1.392 . S
C903 H914 0.930 . S
C904 C903 1.392 . S
C904 C905 1.386 . S
C905 C904 1.386 . S
C905 C907 1.395 . S
C905 H915 0.930 . S
C906 C902 1.395 . S
C906 C907 1.379 . S
C906 H916 0.930 . S
C907 C905 1.395 . S
C907 C906 1.379 . S
C907 H917 0.930 . S
C908 O886 1.264 . S
C908 O887 1.254 . S
C909 Eu845 2.848 . S
C909 O884 1.257 . S
C909 O889 1.249 . S
C909 C902 1.492 . S
H910 C893 0.930 . S
H911 C894 0.930 . S
H912 C895 0.930 . S
H913 C896 0.930 . S
H914 C903 0.930 . S
H915 C905 0.930 . S
H916 C906 0.930 . S
H917 C907 0.930 . S
H918 C924 0.930 . S
H919 C927 0.930 . S
H920 C928 0.930 . S
H921 C929 0.930 . S
H922 C932 0.930 1_556 S
H923 C933 0.930 . S
C924 H918 0.930 . S
C924 C925 1.355 . S
C924 C926 1.415 . S
C925 C924 1.355 . S
C925 C927 1.419 . S
C926 C924 1.415 . S
C926 C931 1.425 . S
C926 C933 1.409 . S
C927 H919 0.930 . S
C927 C925 1.419 . S
C927 C928 1.362 . S
C928 H920 0.930 . S
C928 C927 1.362 . S
C928 C931 1.409 . S
C929 H921 0.930 . S
C929 C930 1.355 . S
C929 C931 1.415 . S
C930 C929 1.355 . S
C930 C932 1.419 . S
C931 C926 1.425 . S
C931 C928 1.409 . S
C931 C929 1.415 . S
C932 H922 0.930 1_554 S
C932 C930 1.419 . S
C932 C933 1.362 . S
C933 H923 0.930 . S
C933 C926 1.409 . S
C933 C932 1.362 . S
H934 C940 0.930 . S
H935 C943 0.930 . S
H936 C944 0.930 . S
H937 C945 0.930 . S
H938 C948 0.930 . S
H939 C949 0.930 . S
C940 H934 0.930 . S
C940 C941 1.355 . S
C940 C942 1.415 . S
C941 C940 1.355 . S
C941 C943 1.419 . S
C942 C940 1.415 . S
C942 C947 1.425 . S
C942 C949 1.409 . S
C943 H935 0.930 . S
C943 C941 1.419 . S
C943 C944 1.362 . S
C944 H936 0.930 . S
C944 C943 1.362 . S
C944 C947 1.409 . S
C945 H937 0.930 . S
C945 C946 1.355 . S
C945 C947 1.415 . S
C946 C945 1.355 . S
C946 C948 1.419 . S
C947 C942 1.425 . S
C947 C944 1.409 . S
C947 C945 1.415 . S
C948 H938 0.930 . S
C948 C946 1.419 . S
C948 C949 1.362 . S
C949 H939 0.930 . S
C949 C942 1.409 . S
C949 C948 1.362 . S
H950 C956 0.930 . S
H951 C959 0.930 . S
H952 C960 0.930 . S
H953 C961 0.930 . S
H954 C964 0.930 1_556 S
H955 C965 0.930 . S
C956 H950 0.930 . S
C956 C957 1.355 . S
C956 C958 1.415 . S
C957 C956 1.355 . S
C957 C959 1.419 . S
C958 C956 1.415 . S
C958 C963 1.425 . S
C958 C965 1.409 . S
C959 H951 0.930 . S
C959 C957 1.419 . S
C959 C960 1.362 . S
C960 H952 0.930 . S
C960 C959 1.362 . S
C960 C963 1.409 . S
C961 H953 0.930 . S
C961 C962 1.355 . S
C961 C963 1.415 . S
C962 C961 1.355 . S
C962 C964 1.419 . S
C963 C958 1.425 . S
C963 C960 1.409 . S
C963 C961 1.415 . S
C964 H954 0.930 1_554 S
C964 C962 1.419 . S
C964 C965 1.362 . S
C965 H955 0.930 . S
C965 C958 1.409 . S
C965 C964 1.362 . S
H966 C972 0.930 . S
H967 C975 0.930 . S
H968 C976 0.930 . S
H969 C977 0.930 . S
H970 C980 0.930 . S
H971 C981 0.930 . S
C972 H966 0.930 . S
C972 C973 1.355 . S
C972 C974 1.415 . S
C973 C972 1.355 . S
C973 C975 1.419 . S
C974 C972 1.415 . S
C974 C979 1.425 . S
C974 C981 1.409 . S
C975 H967 0.930 . S
C975 C973 1.419 . S
C975 C976 1.362 . S
C976 H968 0.930 . S
C976 C975 1.362 . S
C976 C979 1.409 . S
C977 H969 0.930 . S
C977 C978 1.355 . S
C977 C979 1.415 . S
C978 C977 1.355 . S
C978 C980 1.419 . S
C979 C974 1.425 . S
C979 C976 1.409 . S
C979 C977 1.415 . S
C980 H970 0.930 . S
C980 C978 1.419 . S
C980 C981 1.362 . S
C981 H971 0.930 . S
C981 C974 1.409 . S
C981 C980 1.362 . S
H982 C988 0.930 . S
H983 C991 0.930 . S
H984 C992 0.930 . S
H985 C993 0.930 . S
H986 C996 0.930 1_554 S
H987 C997 0.930 1_554 S
C988 H982 0.930 . S
C988 C989 1.355 . S
C988 C990 1.415 . S
C989 C988 1.355 . S
C989 C991 1.419 . S
C990 C988 1.415 . S
C990 C995 1.425 . S
C990 C997 1.409 . S
C991 H983 0.930 . S
C991 C989 1.419 . S
C991 C992 1.362 . S
C992 H984 0.930 . S
C992 C991 1.362 . S
C992 C995 1.409 . S
C993 H985 0.930 . S
C993 C994 1.355 . S
C993 C995 1.415 . S
C994 C993 1.355 . S
C994 C996 1.419 . S
C995 C990 1.425 . S
C995 C992 1.409 . S
C995 C993 1.415 . S
C996 H986 0.930 1_556 S
C996 C994 1.419 . S
C996 C997 1.362 . S
C997 H987 0.930 1_556 S
C997 C990 1.409 . S
C997 C996 1.362 . S
H998 C1004 0.930 . S
H999 C1007 0.930 . S
H1000 C1008 0.930 . S
H1001 C1009 0.930 . S
H1002 C1012 0.930 1_554 S
H1003 C1013 0.930 . S
C1004 H998 0.930 . S
C1004 C1005 1.355 . S
C1004 C1006 1.415 . S
C1005 C1004 1.355 . S
C1005 C1007 1.419 . S
C1006 C1004 1.415 . S
C1006 C1011 1.425 . S
C1006 C1013 1.409 . S
C1007 H999 0.930 . S
C1007 C1005 1.419 . S
C1007 C1008 1.362 . S
C1008 H1000 0.930 . S
C1008 C1007 1.362 . S
C1008 C1011 1.409 . S
C1009 H1001 0.930 . S
C1009 C1010 1.355 . S
C1009 C1011 1.415 . S
C1010 C1009 1.355 . S
C1010 C1012 1.419 . S
C1011 C1006 1.425 . S
C1011 C1008 1.409 . S
C1011 C1009 1.415 . S
C1012 H1002 0.930 1_556 S
C1012 C1010 1.419 . S
C1012 C1013 1.362 . S
C1013 H1003 0.930 . S
C1013 C1006 1.409 . S
C1013 C1012 1.362 . S
H1014 C1020 0.930 . S
H1015 C1023 0.930 . S
H1016 C1024 0.930 . S
H1017 C1025 0.930 . S
H1018 C1028 0.930 . S
H1019 C1029 0.930 . S
C1020 H1014 0.930 . S
C1020 C1021 1.355 . S
C1020 C1022 1.415 . S
C1021 C1020 1.355 . S
C1021 C1023 1.419 . S
C1022 C1020 1.415 . S
C1022 C1027 1.425 . S
C1022 C1029 1.409 . S
C1023 H1015 0.930 . S
C1023 C1021 1.419 . S
C1023 C1024 1.362 . S
C1024 H1016 0.930 . S
C1024 C1023 1.362 . S
C1024 C1027 1.409 . S
C1025 H1017 0.930 . S
C1025 C1026 1.355 . S
C1025 C1027 1.415 . S
C1026 C1025 1.355 . S
C1026 C1028 1.419 . S
C1027 C1022 1.425 . S
C1027 C1024 1.409 . S
C1027 C1025 1.415 . S
C1028 H1018 0.930 . S
C1028 C1026 1.419 . S
C1028 C1029 1.362 . S
C1029 H1019 0.930 . S
C1029 C1022 1.409 . S
C1029 C1028 1.362 . S
H1030 C1036 0.930 . S
H1031 C1039 0.930 . S
H1032 C1040 0.930 . S
H1033 C1041 0.930 . S
H1034 C1044 0.930 . S
H1035 C1045 0.930 . S
C1036 H1030 0.930 . S
C1036 C1037 1.355 . S
C1036 C1038 1.415 . S
C1037 C1036 1.355 . S
C1037 C1039 1.419 . S
C1038 C1036 1.415 . S
C1038 C1043 1.425 . S
C1038 C1045 1.409 . S
C1039 H1031 0.930 . S
C1039 C1037 1.419 . S
C1039 C1040 1.362 . S
C1040 H1032 0.930 . S
C1040 C1039 1.362 . S
C1040 C1043 1.409 . S
C1041 H1033 0.930 . S
C1041 C1042 1.355 . S
C1041 C1043 1.415 . S
C1042 C1041 1.355 . S
C1042 C1044 1.419 . S
C1043 C1038 1.425 . S
C1043 C1040 1.409 . S
C1043 C1041 1.415 . S
C1044 H1034 0.930 . S
C1044 C1042 1.419 . S
C1044 C1045 1.362 . S
C1045 H1035 0.930 . S
C1045 C1038 1.409 . S
C1045 C1044 1.362 . S
H1046 C1052 0.930 . S
H1047 C1055 0.930 . S
H1048 C1056 0.930 . S
H1049 C1057 0.930 . S
H1050 C1060 0.930 . S
H1051 C1061 0.930 . S
C1052 H1046 0.930 . S
C1052 C1053 1.355 . S
C1052 C1054 1.415 . S
C1053 C1052 1.355 . S
C1053 C1055 1.419 . S
C1054 C1052 1.415 . S
C1054 C1059 1.425 . S
C1054 C1061 1.409 . S
C1055 H1047 0.930 . S
C1055 C1053 1.419 . S
C1055 C1056 1.362 . S
C1056 H1048 0.930 . S
C1056 C1055 1.362 . S
C1056 C1059 1.409 . S
C1057 H1049 0.930 . S
C1057 C1058 1.355 . S
C1057 C1059 1.415 . S
C1058 C1057 1.355 . S
C1058 C1060 1.419 . S
C1059 C1054 1.425 . S
C1059 C1056 1.409 . S
C1059 C1057 1.415 . S
C1060 H1050 0.930 . S
C1060 C1058 1.419 . S
C1060 C1061 1.362 . S
C1061 H1051 0.930 . S
C1061 C1054 1.409 . S
C1061 C1060 1.362 . S
H1062 C1068 0.930 . S
H1063 C1071 0.930 . S
H1064 C1072 0.930 . S
H1065 C1073 0.930 . S
H1066 C1076 0.930 . S
H1067 C1077 0.930 . S
C1068 H1062 0.930 . S
C1068 C1069 1.355 . S
C1068 C1070 1.415 . S
C1069 C1068 1.355 . S
C1069 C1071 1.419 . S
C1070 C1068 1.415 . S
C1070 C1075 1.425 . S
C1070 C1077 1.409 . S
C1071 H1063 0.930 . S
C1071 C1069 1.419 . S
C1071 C1072 1.362 . S
C1072 H1064 0.930 . S
C1072 C1071 1.362 . S
C1072 C1075 1.409 . S
C1073 H1065 0.930 . S
C1073 C1074 1.355 . S
C1073 C1075 1.415 . S
C1074 C1073 1.355 . S
C1074 C1076 1.419 . S
C1075 C1070 1.425 . S
C1075 C1072 1.409 . S
C1075 C1073 1.415 . S
C1076 H1066 0.930 . S
C1076 C1074 1.419 . S
C1076 C1077 1.362 . S
C1077 H1067 0.930 . S
C1077 C1070 1.409 . S
C1077 C1076 1.362 . S
H1078 C1084 0.930 . S
H1079 C1087 0.930 . S
H1080 C1088 0.930 . S
H1081 C1089 0.930 . S
H1082 C1092 0.930 . S
H1083 C1093 0.930 . S
C1084 H1078 0.930 . S
C1084 C1085 1.355 . S
C1084 C1086 1.415 . S
C1085 C1084 1.355 . S
C1085 C1087 1.419 . S
C1086 C1084 1.415 . S
C1086 C1091 1.425 . S
C1086 C1093 1.409 . S
C1087 H1079 0.930 . S
C1087 C1085 1.419 . S
C1087 C1088 1.362 . S
C1088 H1080 0.930 . S
C1088 C1087 1.362 . S
C1088 C1091 1.409 . S
C1089 H1081 0.930 . S
C1089 C1090 1.355 . S
C1089 C1091 1.415 . S
C1090 C1089 1.355 . S
C1090 C1092 1.419 . S
C1091 C1086 1.425 . S
C1091 C1088 1.409 . S
C1091 C1089 1.415 . S
C1092 H1082 0.930 . S
C1092 C1090 1.419 . S
C1092 C1093 1.362 . S
C1093 H1083 0.930 . S
C1093 C1086 1.409 . S
C1093 C1092 1.362 . S
H1094 C1100 0.930 . S
H1095 C1103 0.930 . S
H1096 C1104 0.930 . S
H1097 C1105 0.930 . S
H1098 C1108 0.930 1_556 S
H1099 C1109 0.930 . S
C1100 H1094 0.930 . S
C1100 C1101 1.355 . S
C1100 C1102 1.415 . S
C1101 C1100 1.355 . S
C1101 C1103 1.419 . S
C1102 C1100 1.415 . S
C1102 C1107 1.425 . S
C1102 C1109 1.409 . S
C1103 H1095 0.930 . S
C1103 C1101 1.419 . S
C1103 C1104 1.362 . S
C1104 H1096 0.930 . S
C1104 C1103 1.362 . S
C1104 C1107 1.409 . S
C1105 H1097 0.930 . S
C1105 C1106 1.355 . S
C1105 C1107 1.415 . S
C1106 C1105 1.355 . S
C1106 C1108 1.419 . S
C1107 C1102 1.425 . S
C1107 C1104 1.409 . S
C1107 C1105 1.415 . S
C1108 H1098 0.930 1_554 S
C1108 C1106 1.419 . S
C1108 C1109 1.362 . S
C1109 H1099 0.930 . S
C1109 C1102 1.409 . S
C1109 C1108 1.362 . S
H1110 C1116 0.930 . S
H1111 C1119 0.930 . S
H1112 C1120 0.930 . S
H1113 C1121 0.930 . S
H1114 C1124 0.930 . S
H1115 C1125 0.930 1_655 S
C1116 H1110 0.930 . S
C1116 C1117 1.355 . S
C1116 C1118 1.415 . S
C1117 C1116 1.355 . S
C1117 C1119 1.419 . S
C1118 C1116 1.415 . S
C1118 C1123 1.425 1_655 S
C1118 C1125 1.409 1_655 S
C1119 H1111 0.930 . S
C1119 C1117 1.419 . S
C1119 C1120 1.362 1_655 S
C1120 H1112 0.930 . S
C1120 C1119 1.362 1_455 S
C1120 C1123 1.409 . S
C1121 H1113 0.930 . S
C1121 C1122 1.355 . S
C1121 C1123 1.415 . S
C1122 C1121 1.355 . S
C1122 C1124 1.419 . S
C1123 C1118 1.425 1_455 S
C1123 C1120 1.409 . S
C1123 C1121 1.415 . S
C1124 H1114 0.930 . S
C1124 C1122 1.419 . S
C1124 C1125 1.362 . S
C1125 H1115 0.930 1_455 S
C1125 C1118 1.409 1_455 S
C1125 C1124 1.362 . S
H1126 C1132 0.930 . S
H1127 C1135 0.930 . S
H1128 C1136 0.930 . S
H1129 C1137 0.930 . S
H1130 C1140 0.930 . S
H1131 C1141 0.930 . S
C1132 H1126 0.930 . S
C1132 C1133 1.355 . S
C1132 C1134 1.415 . S
C1133 C1132 1.355 . S
C1133 C1135 1.419 . S
C1134 C1132 1.415 . S
C1134 C1139 1.425 . S
C1134 C1141 1.409 . S
C1135 H1127 0.930 . S
C1135 C1133 1.419 . S
C1135 C1136 1.362 . S
C1136 H1128 0.930 . S
C1136 C1135 1.362 . S
C1136 C1139 1.409 . S
C1137 H1129 0.930 . S
C1137 C1138 1.355 . S
C1137 C1139 1.415 . S
C1138 C1137 1.355 . S
C1138 C1140 1.419 . S
C1139 C1134 1.425 . S
C1139 C1136 1.409 . S
C1139 C1137 1.415 . S
C1140 H1130 0.930 . S
C1140 C1138 1.419 . S
C1140 C1141 1.362 . S
C1141 H1131 0.930 . S
C1141 C1134 1.409 . S
C1141 C1140 1.362 . S
H1142 C1148 0.930 . S
H1143 C1151 0.930 . S
H1144 C1152 0.931 . S
H1145 C1153 0.930 . S
H1146 C1156 0.930 . S
H1147 C1157 0.930 1_545 S
C1148 H1142 0.930 . S
C1148 C1149 1.355 . S
C1148 C1150 1.415 . S
C1149 C1148 1.355 . S
C1149 C1151 1.419 . S
C1150 C1148 1.415 . S
C1150 C1155 1.425 1_545 S
C1150 C1157 1.409 1_545 S
C1151 H1143 0.930 . S
C1151 C1149 1.419 . S
C1151 C1152 1.360 1_545 S
C1152 H1144 0.931 . S
C1152 C1151 1.360 1_565 S
C1152 C1155 1.411 . S
C1153 H1145 0.930 . S
C1153 C1154 1.355 . S
C1153 C1155 1.415 . S
C1154 C1153 1.355 . S
C1154 C1156 1.419 . S
C1155 C1150 1.425 1_565 S
C1155 C1152 1.411 . S
C1155 C1153 1.415 . S
C1156 H1146 0.930 . S
C1156 C1154 1.419 . S
C1156 C1157 1.362 . S
C1157 H1147 0.930 1_565 S
C1157 C1150 1.409 1_565 S
C1157 C1156 1.362 . S
H1158 C1164 0.930 . S
H1159 C1167 0.930 . S
H1160 C1168 0.930 . S
H1161 C1169 0.930 . S
H1162 C1172 0.930 . S
H1163 C1173 0.930 . S
C1164 H1158 0.930 . S
C1164 C1165 1.355 . S
C1164 C1166 1.415 . S
C1165 C1164 1.355 . S
C1165 C1167 1.419 . S
C1166 C1164 1.415 . S
C1166 C1171 1.425 . S
C1166 C1173 1.409 . S
C1167 H1159 0.930 . S
C1167 C1165 1.419 . S
C1167 C1168 1.362 . S
C1168 H1160 0.930 . S
C1168 C1167 1.362 . S
C1168 C1171 1.409 . S
C1169 H1161 0.930 . S
C1169 C1170 1.355 . S
C1169 C1171 1.415 . S
C1170 C1169 1.355 . S
C1170 C1172 1.419 . S
C1171 C1166 1.425 . S
C1171 C1168 1.409 . S
C1171 C1169 1.415 . S
C1172 H1162 0.930 . S
C1172 C1170 1.419 . S
C1172 C1173 1.362 . S
C1173 H1163 0.930 . S
C1173 C1166 1.409 . S
C1173 C1172 1.362 . S
H1174 C1180 0.930 . S
H1175 C1183 0.930 . S
H1176 C1184 0.930 . S
H1177 C1185 0.930 . S
H1178 C1188 0.930 . S
H1179 C1189 0.930 . S
C1180 H1174 0.930 . S
C1180 C1181 1.355 . S
C1180 C1182 1.415 . S
C1181 C1180 1.355 . S
C1181 C1183 1.419 . S
C1182 C1180 1.415 . S
C1182 C1187 1.425 . S
C1182 C1189 1.409 . S
C1183 H1175 0.930 . S
C1183 C1181 1.419 . S
C1183 C1184 1.362 . S
C1184 H1176 0.930 . S
C1184 C1183 1.362 . S
C1184 C1187 1.409 . S
C1185 H1177 0.930 . S
C1185 C1186 1.355 . S
C1185 C1187 1.415 . S
C1186 C1185 1.355 . S
C1186 C1188 1.419 . S
C1187 C1182 1.425 . S
C1187 C1184 1.409 . S
C1187 C1185 1.415 . S
C1188 H1178 0.930 . S
C1188 C1186 1.419 . S
C1188 C1189 1.362 . S
C1189 H1179 0.930 . S
C1189 C1182 1.409 . S
C1189 C1188 1.362 . S
H1190 C1196 0.930 . S
H1191 C1199 0.930 . S
H1192 C1200 0.930 . S
H1193 C1201 0.930 . S
H1194 C1204 0.930 . S
H1195 C1205 0.930 . S
C1196 H1190 0.930 . S
C1196 C1197 1.355 . S
C1196 C1198 1.415 . S
C1197 C1196 1.355 . S
C1197 C1199 1.419 . S
C1198 C1196 1.415 . S
C1198 C1203 1.425 . S
C1198 C1205 1.409 . S
C1199 H1191 0.930 . S
C1199 C1197 1.419 . S
C1199 C1200 1.362 . S
C1200 H1192 0.930 . S
C1200 C1199 1.362 . S
C1200 C1203 1.409 . S
C1201 H1193 0.930 . S
C1201 C1202 1.355 . S
C1201 C1203 1.415 . S
C1202 C1201 1.355 . S
C1202 C1204 1.419 . S
C1203 C1198 1.425 . S
C1203 C1200 1.409 . S
C1203 C1201 1.415 . S
C1204 H1194 0.930 . S
C1204 C1202 1.419 . S
C1204 C1205 1.362 . S
C1205 H1195 0.930 . S
C1205 C1198 1.409 . S
C1205 C1204 1.362 . S
H1206 C1212 0.930 . S
H1207 C1215 0.930 . S
H1208 C1216 0.930 . S
H1209 C1217 0.930 . S
H1210 C1220 0.930 . S
H1211 C1221 0.930 . S
C1212 H1206 0.930 . S
C1212 C1213 1.355 . S
C1212 C1214 1.415 . S
C1213 C1212 1.355 . S
C1213 C1215 1.419 . S
C1214 C1212 1.415 . S
C1214 C1219 1.425 . S
C1214 C1221 1.409 . S
C1215 H1207 0.930 . S
C1215 C1213 1.419 . S
C1215 C1216 1.362 . S
C1216 H1208 0.930 . S
C1216 C1215 1.362 . S
C1216 C1219 1.409 . S
C1217 H1209 0.930 . S
C1217 C1218 1.355 . S
C1217 C1219 1.415 . S
C1218 C1217 1.355 . S
C1218 C1220 1.419 . S
C1219 C1214 1.425 . S
C1219 C1216 1.409 . S
C1219 C1217 1.415 . S
C1220 H1210 0.930 . S
C1220 C1218 1.419 . S
C1220 C1221 1.362 . S
C1221 H1211 0.930 . S
C1221 C1214 1.409 . S
C1221 C1220 1.362 . S
H1222 C1228 0.930 . S
H1223 C1231 0.930 . S
H1224 C1232 0.930 . S
H1225 C1233 0.930 . S
H1226 C1236 0.930 . S
H1227 C1237 0.930 . S
C1228 H1222 0.930 . S
C1228 C1229 1.355 . S
C1228 C1230 1.415 . S
C1229 C1228 1.355 . S
C1229 C1231 1.419 . S
C1230 C1228 1.415 . S
C1230 C1235 1.425 . S
C1230 C1237 1.409 . S
C1231 H1223 0.930 . S
C1231 C1229 1.419 . S
C1231 C1232 1.362 . S
C1232 H1224 0.930 . S
C1232 C1231 1.362 . S
C1232 C1235 1.409 . S
C1233 H1225 0.930 . S
C1233 C1234 1.355 . S
C1233 C1235 1.415 . S
C1234 C1233 1.355 . S
C1234 C1236 1.419 . S
C1235 C1230 1.425 . S
C1235 C1232 1.409 . S
C1235 C1233 1.415 . S
C1236 H1226 0.930 . S
C1236 C1234 1.419 . S
C1236 C1237 1.362 . S
C1237 H1227 0.930 . S
C1237 C1230 1.409 . S
C1237 C1236 1.362 . S
H1238 C1244 0.930 . S
H1239 C1247 0.930 . S
H1240 C1248 0.930 . S
H1241 C1249 0.930 . S
H1242 C1252 0.930 . S
H1243 C1253 0.930 . S
C1244 H1238 0.930 . S
C1244 C1245 1.355 . S
C1244 C1246 1.415 . S
C1245 C1244 1.355 . S
C1245 C1247 1.419 . S
C1246 C1244 1.415 . S
C1246 C1251 1.425 . S
C1246 C1253 1.409 . S
C1247 H1239 0.930 . S
C1247 C1245 1.419 . S
C1247 C1248 1.362 . S
C1248 H1240 0.930 . S
C1248 C1247 1.362 . S
C1248 C1251 1.409 . S
C1249 H1241 0.930 . S
C1249 C1250 1.355 . S
C1249 C1251 1.415 . S
C1250 C1249 1.355 . S
C1250 C1252 1.419 . S
C1251 C1246 1.425 . S
C1251 C1248 1.409 . S
C1251 C1249 1.415 . S
C1252 H1242 0.930 . S
C1252 C1250 1.419 . S
C1252 C1253 1.362 . S
C1253 H1243 0.930 . S
C1253 C1246 1.409 . S
C1253 C1252 1.362 . S
H1254 C1260 0.930 . S
H1255 C1263 0.930 . S
H1256 C1264 0.930 . S
H1257 C1265 0.930 . S
H1258 C1268 0.930 . S
H1259 C1269 0.930 . S
C1260 H1254 0.930 . S
C1260 C1261 1.355 . S
C1260 C1262 1.415 1_545 S
C1261 C1260 1.355 . S
C1261 C1263 1.419 . S
C1262 C1260 1.415 1_565 S
C1262 C1267 1.425 . S
C1262 C1269 1.409 . S
C1263 H1255 0.930 . S
C1263 C1261 1.419 . S
C1263 C1264 1.362 . S
C1264 H1256 0.930 . S
C1264 C1263 1.362 . S
C1264 C1267 1.409 1_545 S
C1265 H1257 0.930 . S
C1265 C1266 1.355 . S
C1265 C1267 1.415 . S
C1266 C1265 1.355 . S
C1266 C1268 1.419 . S
C1267 C1262 1.425 . S
C1267 C1264 1.409 1_565 S
C1267 C1265 1.415 . S
C1268 H1258 0.930 . S
C1268 C1266 1.419 . S
C1268 C1269 1.362 . S
C1269 H1259 0.930 . S
C1269 C1262 1.409 . S
C1269 C1268 1.362 . S
H1270 C1276 0.930 . S
H1271 C1279 0.930 . S
H1272 C1280 0.930 . S
H1273 C1281 0.930 . S
H1274 C1284 0.930 . S
H1275 C1285 0.930 . S
C1276 H1270 0.930 . S
C1276 C1277 1.355 . S
C1276 C1278 1.415 1_655 S
C1277 C1276 1.355 . S
C1277 C1279 1.419 . S
C1278 C1276 1.415 1_455 S
C1278 C1283 1.425 . S
C1278 C1285 1.409 . S
C1279 H1271 0.930 . S
C1279 C1277 1.419 . S
C1279 C1280 1.362 . S
C1280 H1272 0.930 . S
C1280 C1279 1.362 . S
C1280 C1283 1.409 1_655 S
C1281 H1273 0.930 . S
C1281 C1282 1.355 . S
C1281 C1283 1.415 . S
C1282 C1281 1.355 . S
C1282 C1284 1.419 . S
C1283 C1278 1.425 . S
C1283 C1280 1.409 1_455 S
C1283 C1281 1.415 . S
C1284 H1274 0.930 . S
C1284 C1282 1.419 . S
C1284 C1285 1.362 . S
C1285 H1275 0.930 . S
C1285 C1278 1.409 . S
C1285 C1284 1.362 . S
H1286 C1292 0.930 . S
H1287 C1295 0.930 . S
H1288 C1296 0.930 . S
H1289 C1297 0.930 . S
H1290 C1300 0.930 . S
H1291 C1301 0.930 . S
C1292 H1286 0.930 . S
C1292 C1293 1.355 . S
C1292 C1294 1.415 . S
C1293 C1292 1.355 . S
C1293 C1295 1.419 . S
C1294 C1292 1.415 . S
C1294 C1299 1.425 . S
C1294 C1301 1.409 . S
C1295 H1287 0.930 . S
C1295 C1293 1.419 . S
C1295 C1296 1.362 . S
C1296 H1288 0.930 . S
C1296 C1295 1.362 . S
C1296 C1299 1.409 . S
C1297 H1289 0.930 . S
C1297 C1298 1.355 . S
C1297 C1299 1.415 . S
C1298 C1297 1.355 . S
C1298 C1300 1.419 . S
C1299 C1294 1.425 . S
C1299 C1296 1.409 . S
C1299 C1297 1.415 . S
C1300 H1290 0.930 . S
C1300 C1298 1.419 . S
C1300 C1301 1.362 . S
C1301 H1291 0.930 . S
C1301 C1294 1.409 . S
C1301 C1300 1.362 . S
H1302 C1308 0.930 . S
H1303 C1311 0.930 . S
H1304 C1312 0.930 . S
H1305 C1313 0.930 . S
H1306 C1316 0.930 . S
H1307 C1317 0.930 . S
C1308 H1302 0.930 . S
C1308 C1309 1.355 . S
C1308 C1310 1.415 . S
C1309 C1308 1.355 . S
C1309 C1311 1.419 . S
C1310 C1308 1.415 . S
C1310 C1315 1.425 . S
C1310 C1317 1.409 . S
C1311 H1303 0.930 . S
C1311 C1309 1.419 . S
C1311 C1312 1.362 . S
C1312 H1304 0.930 . S
C1312 C1311 1.362 . S
C1312 C1315 1.409 . S
C1313 H1305 0.930 . S
C1313 C1314 1.355 . S
C1313 C1315 1.415 . S
C1314 C1313 1.355 . S
C1314 C1316 1.419 . S
C1315 C1310 1.425 . S
C1315 C1312 1.409 . S
C1315 C1313 1.415 . S
C1316 H1306 0.930 . S
C1316 C1314 1.419 . S
C1316 C1317 1.362 . S
C1317 H1307 0.930 . S
C1317 C1310 1.409 . S
C1317 C1316 1.362 . S
H1318 C1324 0.930 . S
H1319 C1327 0.930 . S
H1320 C1328 0.930 . S
H1321 C1329 0.930 . S
H1322 C1332 0.930 . S
H1323 C1333 0.930 . S
C1324 H1318 0.930 . S
C1324 C1325 1.355 . S
C1324 C1326 1.415 . S
C1325 C1324 1.355 . S
C1325 C1327 1.419 . S
C1326 C1324 1.415 . S
C1326 C1331 1.425 . S
C1326 C1333 1.409 . S
C1327 H1319 0.930 . S
C1327 C1325 1.419 . S
C1327 C1328 1.362 . S
C1328 H1320 0.930 . S
C1328 C1327 1.362 . S
C1328 C1331 1.409 . S
C1329 H1321 0.930 . S
C1329 C1330 1.355 . S
C1329 C1331 1.415 . S
C1330 C1329 1.355 . S
C1330 C1332 1.419 . S
C1331 C1326 1.425 . S
C1331 C1328 1.409 . S
C1331 C1329 1.415 . S
C1332 H1322 0.930 . S
C1332 C1330 1.419 . S
C1332 C1333 1.362 . S
C1333 H1323 0.930 . S
C1333 C1326 1.409 . S
C1333 C1332 1.362 . S
H1334 C1340 0.930 . S
H1335 C1343 0.930 . S
H1336 C1344 0.930 . S
H1337 C1345 0.930 . S
H1338 C1348 0.930 . S
H1339 C1349 0.930 . S
C1340 H1334 0.930 . S
C1340 C1341 1.355 . S
C1340 C1342 1.415 . S
C1341 C1340 1.355 . S
C1341 C1343 1.419 . S
C1342 C1340 1.415 . S
C1342 C1347 1.425 . S
C1342 C1349 1.409 . S
C1343 H1335 0.930 . S
C1343 C1341 1.419 . S
C1343 C1344 1.362 . S
C1344 H1336 0.930 . S
C1344 C1343 1.362 . S
C1344 C1347 1.409 . S
C1345 H1337 0.930 . S
C1345 C1346 1.355 . S
C1345 C1347 1.415 . S
C1346 C1345 1.355 . S
C1346 C1348 1.419 . S
C1347 C1342 1.425 . S
C1347 C1344 1.409 . S
C1347 C1345 1.415 . S
C1348 H1338 0.930 . S
C1348 C1346 1.419 . S
C1348 C1349 1.362 . S
C1349 H1339 0.930 . S
C1349 C1342 1.409 . S
C1349 C1348 1.362 . S
H1350 C1356 0.930 . S
H1351 C1359 0.930 . S
H1352 C1360 0.930 . S
H1353 C1361 0.930 . S
H1354 C1364 0.930 . S
H1355 C1365 0.930 . S
C1356 H1350 0.930 . S
C1356 C1357 1.355 . S
C1356 C1358 1.415 1_565 S
C1357 C1356 1.355 . S
C1357 C1359 1.419 . S
C1358 C1356 1.415 1_545 S
C1358 C1363 1.425 . S
C1358 C1365 1.409 . S
C1359 H1351 0.930 . S
C1359 C1357 1.419 . S
C1359 C1360 1.362 . S
C1360 H1352 0.930 . S
C1360 C1359 1.362 . S
C1360 C1363 1.409 1_565 S
C1361 H1353 0.930 . S
C1361 C1362 1.355 . S
C1361 C1363 1.415 . S
C1362 C1361 1.355 . S
C1362 C1364 1.419 . S
C1363 C1358 1.425 . S
C1363 C1360 1.409 1_545 S
C1363 C1361 1.415 . S
C1364 H1354 0.930 . S
C1364 C1362 1.419 . S
C1364 C1365 1.362 . S
C1365 H1355 0.930 . S
C1365 C1358 1.409 . S
C1365 C1364 1.362 . S
H1366 C1372 0.930 . S
H1367 C1375 0.930 . S
H1368 C1376 0.930 1_655 S
H1369 C1377 0.930 . S
H1370 C1380 0.930 . S
H1371 C1381 0.930 . S
C1372 H1366 0.930 . S
C1372 C1373 1.355 . S
C1372 C1374 1.415 1_455 S
C1373 C1372 1.355 . S
C1373 C1375 1.419 . S
C1374 C1372 1.415 1_655 S
C1374 C1379 1.425 . S
C1374 C1381 1.409 . S
C1375 H1367 0.930 . S
C1375 C1373 1.419 . S
C1375 C1376 1.362 . S
C1376 H1368 0.930 1_455 S
C1376 C1375 1.362 . S
C1376 C1379 1.409 1_455 S
C1377 H1369 0.930 . S
C1377 C1378 1.355 . S
C1377 C1379 1.415 . S
C1378 C1377 1.355 . S
C1378 C1380 1.419 . S
C1379 C1374 1.425 . S
C1379 C1376 1.409 1_655 S
C1379 C1377 1.415 . S
C1380 H1370 0.930 . S
C1380 C1378 1.419 . S
C1380 C1381 1.362 . S
C1381 H1371 0.930 . S
C1381 C1374 1.409 . S
C1381 C1380 1.362 . S
H1382 C1388 0.930 . S
H1383 C1391 0.930 . S
H1384 C1392 0.930 . S
H1385 C1393 0.930 . S
H1386 C1396 0.930 . S
H1387 C1397 0.930 . S
C1388 H1382 0.930 . S
C1388 C1389 1.355 . S
C1388 C1390 1.415 . S
C1389 C1388 1.355 . S
C1389 C1391 1.419 . S
C1390 C1388 1.415 . S
C1390 C1395 1.425 . S
C1390 C1397 1.409 . S
C1391 H1383 0.930 . S
C1391 C1389 1.419 . S
C1391 C1392 1.362 . S
C1392 H1384 0.930 . S
C1392 C1391 1.362 . S
C1392 C1395 1.409 . S
C1393 H1385 0.930 . S
C1393 C1394 1.355 . S
C1393 C1395 1.415 . S
C1394 C1393 1.355 . S
C1394 C1396 1.419 . S
C1395 C1390 1.425 . S
C1395 C1392 1.409 . S
C1395 C1393 1.415 . S
C1396 H1386 0.930 . S
C1396 C1394 1.419 . S
C1396 C1397 1.362 . S
C1397 H1387 0.930 . S
C1397 C1390 1.409 . S
C1397 C1396 1.362 . S
H1398 C1404 0.930 . S
H1399 C1407 0.930 . S
H1400 C1408 0.930 . S
H1401 C1409 0.930 . S
H1402 C1412 0.930 . S
H1403 C1413 0.930 . S
C1404 H1398 0.930 . S
C1404 C1405 1.355 . S
C1404 C1406 1.415 1_455 S
C1405 C1404 1.355 . S
C1405 C1407 1.419 . S
C1406 C1404 1.415 1_655 S
C1406 C1411 1.425 . S
C1406 C1413 1.409 . S
C1407 H1399 0.930 . S
C1407 C1405 1.419 . S
C1407 C1408 1.362 . S
C1408 H1400 0.930 . S
C1408 C1407 1.362 . S
C1408 C1411 1.409 1_455 S
C1409 H1401 0.930 . S
C1409 C1410 1.355 . S
C1409 C1411 1.415 . S
C1410 C1409 1.355 . S
C1410 C1412 1.419 . S
C1411 C1406 1.425 . S
C1411 C1408 1.409 1_655 S
C1411 C1409 1.415 . S
C1412 H1402 0.930 . S
C1412 C1410 1.419 . S
C1412 C1413 1.362 . S
C1413 H1403 0.930 . S
C1413 C1406 1.409 . S
C1413 C1412 1.362 . S
H1414 C1420 0.930 . S
H1415 C1423 0.930 . S
H1416 C1424 0.930 . S
H1417 C1425 0.930 . S
H1418 C1428 0.930 . S
H1419 C1429 0.930 . S
C1420 H1414 0.930 . S
C1420 C1421 1.355 . S
C1420 C1422 1.415 . S
C1421 C1420 1.355 . S
C1421 C1423 1.419 . S
C1422 C1420 1.415 . S
C1422 C1427 1.425 . S
C1422 C1429 1.409 . S
C1423 H1415 0.930 . S
C1423 C1421 1.419 . S
C1423 C1424 1.362 . S
C1424 H1416 0.930 . S
C1424 C1423 1.362 . S
C1424 C1427 1.409 . S
C1425 H1417 0.930 . S
C1425 C1426 1.355 . S
C1425 C1427 1.415 . S
C1426 C1425 1.355 . S
C1426 C1428 1.419 . S
C1427 C1422 1.425 . S
C1427 C1424 1.409 . S
C1427 C1425 1.415 . S
C1428 H1418 0.930 . S
C1428 C1426 1.419 . S
C1428 C1429 1.362 . S
C1429 H1419 0.930 . S
C1429 C1422 1.409 . S
C1429 C1428 1.362 . S
H1430 C1436 0.930 . S
H1431 C1439 0.930 . S
H1432 C1440 0.930 . S
H1433 C1441 0.930 . S
H1434 C1444 0.930 . S
H1435 C1445 0.930 1_565 S
C1436 H1430 0.930 . S
C1436 C1437 1.355 . S
C1436 C1438 1.415 . S
C1437 C1436 1.355 . S
C1437 C1439 1.419 . S
C1438 C1436 1.415 . S
C1438 C1443 1.425 1_565 S
C1438 C1445 1.409 1_565 S
C1439 H1431 0.930 . S
C1439 C1437 1.419 . S
C1439 C1440 1.362 1_565 S
C1440 H1432 0.930 . S
C1440 C1439 1.362 1_545 S
C1440 C1443 1.409 . S
C1441 H1433 0.930 . S
C1441 C1442 1.355 . S
C1441 C1443 1.415 . S
C1442 C1441 1.355 . S
C1442 C1444 1.419 . S
C1443 C1438 1.425 1_545 S
C1443 C1440 1.409 . S
C1443 C1441 1.415 . S
C1444 H1434 0.930 . S
C1444 C1442 1.419 . S
C1444 C1445 1.362 . S
C1445 H1435 0.930 1_545 S
C1445 C1438 1.409 1_545 S
C1445 C1444 1.362 . S
H1446 C1452 0.930 . S
H1447 C1455 0.930 . S
H1448 C1456 0.930 . S
H1449 C1457 0.930 . S
H1450 C1460 0.930 . S
H1451 C1461 0.930 . S
C1452 H1446 0.930 . S
C1452 C1453 1.355 . S
C1452 C1454 1.415 . S
C1453 C1452 1.355 . S
C1453 C1455 1.419 . S
C1454 C1452 1.415 . S
C1454 C1459 1.425 . S
C1454 C1461 1.409 . S
C1455 H1447 0.930 . S
C1455 C1453 1.419 . S
C1455 C1456 1.362 . S
C1456 H1448 0.930 . S
C1456 C1455 1.362 . S
C1456 C1459 1.409 . S
C1457 H1449 0.930 . S
C1457 C1458 1.355 . S
C1457 C1459 1.415 . S
C1458 C1457 1.355 . S
C1458 C1460 1.419 . S
C1459 C1454 1.425 . S
C1459 C1456 1.409 . S
C1459 C1457 1.415 . S
C1460 H1450 0.930 . S
C1460 C1458 1.419 . S
C1460 C1461 1.362 . S
C1461 H1451 0.930 . S
C1461 C1454 1.409 . S
C1461 C1460 1.362 . S
H1462 C1468 0.930 . S
H1463 C1471 0.930 . S
H1464 C1472 0.930 . S
H1465 C1473 0.930 . S
H1466 C1476 0.930 . S
H1467 C1477 0.930 . S
C1468 H1462 0.930 . S
C1468 C1469 1.355 . S
C1468 C1470 1.415 . S
C1469 C1468 1.355 . S
C1469 C1471 1.419 . S
C1470 C1468 1.415 . S
C1470 C1475 1.425 . S
C1470 C1477 1.409 . S
C1471 H1463 0.930 . S
C1471 C1469 1.419 . S
C1471 C1472 1.362 . S
C1472 H1464 0.930 . S
C1472 C1471 1.362 . S
C1472 C1475 1.409 . S
C1473 H1465 0.930 . S
C1473 C1474 1.355 . S
C1473 C1475 1.415 . S
C1474 C1473 1.355 . S
C1474 C1476 1.419 . S
C1475 C1470 1.425 . S
C1475 C1472 1.409 . S
C1475 C1473 1.415 . S
C1476 H1466 0.930 . S
C1476 C1474 1.419 . S
C1476 C1477 1.362 . S
C1477 H1467 0.930 . S
C1477 C1470 1.409 . S
C1477 C1476 1.362 . S
H1478 C1484 0.930 . S
H1479 C1487 0.930 . S
H1480 C1488 0.930 . S
H1481 C1489 0.930 . S
H1482 C1492 0.930 . S
H1483 C1493 0.930 . S
C1484 H1478 0.930 . S
C1484 C1485 1.355 . S
C1484 C1486 1.415 . S
C1485 C1484 1.355 . S
C1485 C1487 1.419 . S
C1486 C1484 1.415 . S
C1486 C1491 1.425 . S
C1486 C1493 1.409 . S
C1487 H1479 0.930 . S
C1487 C1485 1.419 . S
C1487 C1488 1.362 . S
C1488 H1480 0.930 . S
C1488 C1487 1.362 . S
C1488 C1491 1.409 . S
C1489 H1481 0.930 . S
C1489 C1490 1.355 . S
C1489 C1491 1.415 . S
C1490 C1489 1.355 . S
C1490 C1492 1.419 . S
C1491 C1486 1.425 . S
C1491 C1488 1.409 . S
C1491 C1489 1.415 . S
C1492 H1482 0.930 . S
C1492 C1490 1.419 . S
C1492 C1493 1.362 . S
C1493 H1483 0.930 . S
C1493 C1486 1.409 . S
C1493 C1492 1.362 . S
H1494 C1500 0.930 . S
H1495 C1503 0.930 . S
H1496 C1504 0.930 . S
H1497 C1505 0.930 . S
H1498 C1508 0.930 . S
H1499 C1509 0.930 . S
C1500 H1494 0.930 . S
C1500 C1501 1.355 . S
C1500 C1502 1.415 . S
C1501 C1500 1.355 . S
C1501 C1503 1.419 . S
C1502 C1500 1.415 . S
C1502 C1507 1.425 . S
C1502 C1509 1.409 . S
C1503 H1495 0.930 . S
C1503 C1501 1.419 . S
C1503 C1504 1.362 . S
C1504 H1496 0.930 . S
C1504 C1503 1.362 . S
C1504 C1507 1.409 . S
C1505 H1497 0.930 . S
C1505 C1506 1.355 . S
C1505 C1507 1.415 . S
C1506 C1505 1.355 . S
C1506 C1508 1.419 . S
C1507 C1502 1.425 . S
C1507 C1504 1.409 . S
C1507 C1505 1.415 . S
C1508 H1498 0.930 . S
C1508 C1506 1.419 . S
C1508 C1509 1.362 . S
C1509 H1499 0.930 . S
C1509 C1502 1.409 . S
C1509 C1508 1.362 . S
H1510 C1516 0.930 . S
H1511 C1519 0.930 . S
H1512 C1520 0.930 . S
H1513 C1521 0.930 . S
H1514 C1524 0.930 . S
H1515 C1525 0.930 . S
C1516 H1510 0.930 . S
C1516 C1517 1.355 . S
C1516 C1518 1.415 . S
C1517 C1516 1.355 . S
C1517 C1519 1.419 . S
C1518 C1516 1.415 . S
C1518 C1523 1.425 . S
C1518 C1525 1.409 . S
C1519 H1511 0.930 . S
C1519 C1517 1.419 . S
C1519 C1520 1.362 . S
C1520 H1512 0.930 . S
C1520 C1519 1.362 . S
C1520 C1523 1.409 . S
C1521 H1513 0.930 . S
C1521 C1522 1.355 . S
C1521 C1523 1.415 . S
C1522 C1521 1.355 . S
C1522 C1524 1.419 . S
C1523 C1518 1.425 . S
C1523 C1520 1.409 . S
C1523 C1521 1.415 . S
C1524 H1514 0.930 . S
C1524 C1522 1.419 . S
C1524 C1525 1.362 . S
C1525 H1515 0.930 . S
C1525 C1518 1.409 . S
C1525 C1524 1.362 . S
H1526 C1532 0.930 . S
H1527 C1535 0.930 . S
H1528 C1536 0.930 . S
H1529 C1537 0.930 . S
H1530 C1540 0.930 . S
H1531 C1541 0.930 . S
C1532 H1526 0.930 . S
C1532 C1533 1.355 . S
C1532 C1534 1.415 . S
C1533 C1532 1.355 . S
C1533 C1535 1.419 . S
C1534 C1532 1.415 . S
C1534 C1539 1.425 . S
C1534 C1541 1.409 . S
C1535 H1527 0.930 . S
C1535 C1533 1.419 . S
C1535 C1536 1.362 . S
C1536 H1528 0.930 . S
C1536 C1535 1.362 . S
C1536 C1539 1.409 . S
C1537 H1529 0.930 . S
C1537 C1538 1.355 . S
C1537 C1539 1.415 . S
C1538 C1537 1.355 . S
C1538 C1540 1.419 . S
C1539 C1534 1.425 . S
C1539 C1536 1.409 . S
C1539 C1537 1.415 . S
C1540 H1530 0.930 . S
C1540 C1538 1.419 . S
C1540 C1541 1.362 . S
C1541 H1531 0.930 . S
C1541 C1534 1.409 . S
C1541 C1540 1.362 . S
H1542 C1548 0.930 . S
H1543 C1551 0.930 . S
H1544 C1552 0.930 . S
H1545 C1553 0.930 . S
H1546 C1556 0.930 . S
H1547 C1557 0.930 . S
C1548 H1542 0.930 . S
C1548 C1549 1.355 . S
C1548 C1550 1.415 . S
C1549 C1548 1.355 . S
C1549 C1551 1.419 . S
C1550 C1548 1.415 . S
C1550 C1555 1.425 . S
C1550 C1557 1.409 . S
C1551 H1543 0.930 . S
C1551 C1549 1.419 . S
C1551 C1552 1.362 . S
C1552 H1544 0.930 . S
C1552 C1551 1.362 . S
C1552 C1555 1.409 . S
C1553 H1545 0.930 . S
C1553 C1554 1.355 . S
C1553 C1555 1.415 . S
C1554 C1553 1.355 . S
C1554 C1556 1.419 . S
C1555 C1550 1.425 . S
C1555 C1552 1.409 . S
C1555 C1553 1.415 . S
C1556 H1546 0.930 . S
C1556 C1554 1.419 . S
C1556 C1557 1.362 . S
C1557 H1547 0.930 . S
C1557 C1550 1.409 . S
C1557 C1556 1.362 . S
H1558 C1564 0.930 . S
H1559 C1567 0.930 . S
H1560 C1568 0.930 . S
H1561 C1569 0.930 . S
H1562 C1572 0.930 . S
H1563 C1573 0.930 . S
C1564 H1558 0.930 . S
C1564 C1565 1.355 . S
C1564 C1566 1.415 . S
C1565 C1564 1.355 . S
C1565 C1567 1.419 . S
C1566 C1564 1.415 . S
C1566 C1571 1.425 . S
C1566 C1573 1.409 . S
C1567 H1559 0.930 . S
C1567 C1565 1.419 . S
C1567 C1568 1.362 . S
C1568 H1560 0.930 . S
C1568 C1567 1.362 . S
C1568 C1571 1.409 . S
C1569 H1561 0.930 . S
C1569 C1570 1.355 . S
C1569 C1571 1.415 . S
C1570 C1569 1.355 . S
C1570 C1572 1.419 . S
C1571 C1566 1.425 . S
C1571 C1568 1.409 . S
C1571 C1569 1.415 . S
C1572 H1562 0.930 . S
C1572 C1570 1.419 . S
C1572 C1573 1.362 . S
C1573 H1563 0.930 . S
C1573 C1566 1.409 . S
C1573 C1572 1.362 . S
H1574 C1580 0.930 . S
H1575 C1583 0.930 . S
H1576 C1584 0.930 . S
H1577 C1585 0.930 . S
H1578 C1588 0.930 . S
H1579 C1589 0.930 . S
C1580 H1574 0.930 . S
C1580 C1581 1.355 . S
C1580 C1582 1.415 . S
C1581 C1580 1.355 . S
C1581 C1583 1.419 . S
C1582 C1580 1.415 . S
C1582 C1587 1.425 . S
C1582 C1589 1.409 . S
C1583 H1575 0.930 . S
C1583 C1581 1.419 . S
C1583 C1584 1.362 . S
C1584 H1576 0.930 . S
C1584 C1583 1.362 . S
C1584 C1587 1.409 . S
C1585 H1577 0.930 . S
C1585 C1586 1.355 . S
C1585 C1587 1.415 . S
C1586 C1585 1.355 . S
C1586 C1588 1.419 . S
C1587 C1582 1.425 . S
C1587 C1584 1.409 . S
C1587 C1585 1.415 . S
C1588 H1578 0.930 . S
C1588 C1586 1.419 . S
C1588 C1589 1.362 . S
C1589 H1579 0.930 . S
C1589 C1582 1.409 . S
C1589 C1588 1.362 . S
H1590 C1596 0.930 . S
H1591 C1599 0.930 . S
H1592 C1600 0.930 . S
H1593 C1601 0.930 . S
H1594 C1604 0.930 . S
H1595 C1605 0.930 . S
C1596 H1590 0.930 . S
C1596 C1597 1.355 . S
C1596 C1598 1.415 . S
C1597 C1596 1.355 . S
C1597 C1599 1.419 . S
C1598 C1596 1.415 . S
C1598 C1603 1.425 . S
C1598 C1605 1.409 . S
C1599 H1591 0.930 . S
C1599 C1597 1.419 . S
C1599 C1600 1.362 . S
C1600 H1592 0.930 . S
C1600 C1599 1.362 . S
C1600 C1603 1.409 . S
C1601 H1593 0.930 . S
C1601 C1602 1.355 . S
C1601 C1603 1.415 . S
C1602 C1601 1.355 . S
C1602 C1604 1.419 . S
C1603 C1598 1.425 . S
C1603 C1600 1.409 . S
C1603 C1601 1.415 . S
C1604 H1594 0.930 . S
C1604 C1602 1.419 . S
C1604 C1605 1.362 . S
C1605 H1595 0.930 . S
C1605 C1598 1.409 . S
C1605 C1604 1.362 . S
H1606 C1612 0.930 . S
H1607 C1615 0.930 . S
H1608 C1616 0.930 . S
H1609 C1617 0.930 . S
H1610 C1620 0.930 . S
H1611 C1621 0.930 . S
C1612 H1606 0.930 . S
C1612 C1613 1.355 . S
C1612 C1614 1.415 . S
C1613 C1612 1.355 . S
C1613 C1615 1.419 . S
C1614 C1612 1.415 . S
C1614 C1619 1.425 . S
C1614 C1621 1.409 . S
C1615 H1607 0.930 . S
C1615 C1613 1.419 . S
C1615 C1616 1.362 . S
C1616 H1608 0.930 . S
C1616 C1615 1.362 . S
C1616 C1619 1.409 . S
C1617 H1609 0.930 . S
C1617 C1618 1.355 . S
C1617 C1619 1.415 . S
C1618 C1617 1.355 . S
C1618 C1620 1.419 . S
C1619 C1614 1.425 . S
C1619 C1616 1.409 . S
C1619 C1617 1.415 . S
C1620 H1610 0.930 . S
C1620 C1618 1.419 . S
C1620 C1621 1.362 . S
C1621 H1611 0.930 . S
C1621 C1614 1.409 . S
C1621 C1620 1.362 . S
H1622 C1628 0.930 . S
H1623 C1631 0.930 . S
H1624 C1632 0.930 . S
H1625 C1633 0.930 . S
H1626 C1636 0.930 . S
H1627 C1637 0.930 . S
C1628 H1622 0.930 . S
C1628 C1629 1.355 . S
C1628 C1630 1.415 . S
C1629 C1628 1.355 . S
C1629 C1631 1.419 . S
C1630 C1628 1.415 . S
C1630 C1635 1.425 . S
C1630 C1637 1.409 . S
C1631 H1623 0.930 . S
C1631 C1629 1.419 . S
C1631 C1632 1.362 . S
C1632 H1624 0.930 . S
C1632 C1631 1.362 . S
C1632 C1635 1.409 . S
C1633 H1625 0.930 . S
C1633 C1634 1.355 . S
C1633 C1635 1.415 . S
C1634 C1633 1.355 . S
C1634 C1636 1.419 . S
C1635 C1630 1.425 . S
C1635 C1632 1.409 . S
C1635 C1633 1.415 . S
C1636 H1626 0.930 . S
C1636 C1634 1.419 . S
C1636 C1637 1.362 . S
C1637 H1627 0.930 . S
C1637 C1630 1.409 . S
C1637 C1636 1.362 . S
H1638 C1644 0.930 . S
H1639 C1647 0.930 . S
H1640 C1648 0.930 . S
H1641 C1649 0.930 . S
H1642 C1652 0.930 . S
H1643 C1653 0.930 . S
C1644 H1638 0.930 . S
C1644 C1645 1.355 . S
C1644 C1646 1.415 . S
C1645 C1644 1.355 . S
C1645 C1647 1.419 . S
C1646 C1644 1.415 . S
C1646 C1651 1.425 . S
C1646 C1653 1.409 . S
C1647 H1639 0.930 . S
C1647 C1645 1.419 . S
C1647 C1648 1.362 . S
C1648 H1640 0.930 . S
C1648 C1647 1.362 . S
C1648 C1651 1.409 . S
C1649 H1641 0.930 . S
C1649 C1650 1.355 . S
C1649 C1651 1.415 . S
C1650 C1649 1.355 . S
C1650 C1652 1.419 . S
C1651 C1646 1.425 . S
C1651 C1648 1.409 . S
C1651 C1649 1.415 . S
C1652 H1642 0.930 . S
C1652 C1650 1.419 . S
C1652 C1653 1.362 . S
C1653 H1643 0.930 . S
C1653 C1646 1.409 . S
C1653 C1652 1.362 . S
H1654 C1660 0.930 . S
H1655 C1663 0.930 . S
H1656 C1664 0.930 . S
H1657 C1665 0.930 . S
H1658 C1668 0.930 . S
H1659 C1669 0.930 . S
C1660 H1654 0.930 . S
C1660 C1661 1.355 . S
C1660 C1662 1.415 . S
C1661 C1660 1.355 . S
C1661 C1663 1.419 . S
C1662 C1660 1.415 . S
C1662 C1667 1.425 . S
C1662 C1669 1.409 . S
C1663 H1655 0.930 . S
C1663 C1661 1.419 . S
C1663 C1664 1.362 . S
C1664 H1656 0.930 . S
C1664 C1663 1.362 . S
C1664 C1667 1.409 . S
C1665 H1657 0.930 . S
C1665 C1666 1.355 . S
C1665 C1667 1.415 . S
C1666 C1665 1.355 . S
C1666 C1668 1.419 . S
C1667 C1662 1.425 . S
C1667 C1664 1.409 . S
C1667 C1665 1.415 . S
C1668 H1658 0.930 . S
C1668 C1666 1.419 . S
C1668 C1669 1.362 . S
C1669 H1659 0.930 . S
C1669 C1662 1.409 . S
C1669 C1668 1.362 . S
H1670 C1676 0.930 . S
H1671 C1679 0.930 . S
H1672 C1680 0.930 . S
H1673 C1681 0.930 . S
H1674 C1684 0.930 . S
H1675 C1685 0.930 . S
C1676 H1670 0.930 . S
C1676 C1677 1.355 . S
C1676 C1678 1.415 . S
C1677 C1676 1.355 . S
C1677 C1679 1.419 . S
C1678 C1676 1.415 . S
C1678 C1683 1.425 . S
C1678 C1685 1.409 . S
C1679 H1671 0.930 . S
C1679 C1677 1.419 . S
C1679 C1680 1.362 . S
C1680 H1672 0.930 . S
C1680 C1679 1.362 . S
C1680 C1683 1.409 . S
C1681 H1673 0.930 . S
C1681 C1682 1.355 . S
C1681 C1683 1.415 . S
C1682 C1681 1.355 . S
C1682 C1684 1.419 . S
C1683 C1678 1.425 . S
C1683 C1680 1.409 . S
C1683 C1681 1.415 . S
C1684 H1674 0.930 . S
C1684 C1682 1.419 . S
C1684 C1685 1.362 . S
C1685 H1675 0.930 . S
C1685 C1678 1.409 . S
C1685 C1684 1.362 . S
H1686 C1692 0.930 . S
H1687 C1695 0.930 . S
H1688 C1696 0.930 . S
H1689 C1697 0.930 . S
H1690 C1700 0.930 . S
H1691 C1701 0.930 . S
C1692 H1686 0.930 . S
C1692 C1693 1.355 . S
C1692 C1694 1.415 . S
C1693 C1692 1.355 . S
C1693 C1695 1.419 . S
C1694 C1692 1.415 . S
C1694 C1699 1.425 . S
C1694 C1701 1.409 . S
C1695 H1687 0.930 . S
C1695 C1693 1.419 . S
C1695 C1696 1.362 . S
C1696 H1688 0.930 . S
C1696 C1695 1.362 . S
C1696 C1699 1.409 . S
C1697 H1689 0.930 . S
C1697 C1698 1.355 . S
C1697 C1699 1.415 . S
C1698 C1697 1.355 . S
C1698 C1700 1.419 . S
C1699 C1694 1.425 . S
C1699 C1696 1.409 . S
C1699 C1697 1.415 . S
C1700 H1690 0.930 . S
C1700 C1698 1.419 . S
C1700 C1701 1.362 . S
C1701 H1691 0.930 . S
C1701 C1694 1.409 . S
C1701 C1700 1.362 . S
H1702 C1708 0.930 . S
H1703 C1711 0.930 . S
H1704 C1712 0.930 . S
H1705 C1713 0.930 . S
H1706 C1716 0.930 . S
H1707 C1717 0.930 . S
C1708 H1702 0.930 . S
C1708 C1709 1.355 . S
C1708 C1710 1.415 . S
C1709 C1708 1.355 . S
C1709 C1711 1.419 . S
C1710 C1708 1.415 . S
C1710 C1715 1.425 . S
C1710 C1717 1.409 . S
C1711 H1703 0.930 . S
C1711 C1709 1.419 . S
C1711 C1712 1.362 . S
C1712 H1704 0.930 . S
C1712 C1711 1.362 . S
C1712 C1715 1.409 . S
C1713 H1705 0.930 . S
C1713 C1714 1.355 . S
C1713 C1715 1.415 . S
C1714 C1713 1.355 . S
C1714 C1716 1.419 . S
C1715 C1710 1.425 . S
C1715 C1712 1.409 . S
C1715 C1713 1.415 . S
C1716 H1706 0.930 . S
C1716 C1714 1.419 . S
C1716 C1717 1.362 . S
C1717 H1707 0.930 . S
C1717 C1710 1.409 . S
C1717 C1716 1.362 . S
H1718 C1724 0.930 . S
H1719 C1727 0.930 . S
H1720 C1728 0.930 . S
H1721 C1729 0.930 . S
H1722 C1732 0.930 . S
H1723 C1733 0.930 . S
C1724 H1718 0.930 . S
C1724 C1725 1.355 . S
C1724 C1726 1.415 . S
C1725 C1724 1.355 . S
C1725 C1727 1.419 . S
C1726 C1724 1.415 . S
C1726 C1731 1.425 . S
C1726 C1733 1.409 . S
C1727 H1719 0.930 . S
C1727 C1725 1.419 . S
C1727 C1728 1.362 . S
C1728 H1720 0.930 . S
C1728 C1727 1.362 . S
C1728 C1731 1.409 . S
C1729 H1721 0.930 . S
C1729 C1730 1.355 . S
C1729 C1731 1.415 . S
C1730 C1729 1.355 . S
C1730 C1732 1.419 . S
C1731 C1726 1.425 . S
C1731 C1728 1.409 . S
C1731 C1729 1.415 . S
C1732 H1722 0.930 . S
C1732 C1730 1.419 . S
C1732 C1733 1.362 . S
C1733 H1723 0.930 . S
C1733 C1726 1.409 . S
C1733 C1732 1.362 . S
H1734 C1740 0.930 . S
H1735 C1743 0.930 . S
H1736 C1744 0.930 . S
H1737 C1745 0.930 . S
H1738 C1748 0.930 . S
H1739 C1749 0.930 . S
C1740 H1734 0.930 . S
C1740 C1741 1.355 . S
C1740 C1742 1.415 . S
C1741 C1740 1.355 . S
C1741 C1743 1.419 . S
C1742 C1740 1.415 . S
C1742 C1747 1.425 . S
C1742 C1749 1.409 . S
C1743 H1735 0.930 . S
C1743 C1741 1.419 . S
C1743 C1744 1.362 . S
C1744 H1736 0.930 . S
C1744 C1743 1.362 . S
C1744 C1747 1.409 . S
C1745 H1737 0.930 . S
C1745 C1746 1.355 . S
C1745 C1747 1.415 . S
C1746 C1745 1.355 . S
C1746 C1748 1.419 . S
C1747 C1742 1.425 . S
C1747 C1744 1.409 . S
C1747 C1745 1.415 . S
C1748 H1738 0.930 . S
C1748 C1746 1.419 . S
C1748 C1749 1.362 . S
C1749 H1739 0.930 . S
C1749 C1742 1.409 . S
C1749 C1748 1.362 . S
H1750 C1756 0.930 . S
H1751 C1759 0.930 . S
H1752 C1760 0.930 . S
H1753 C1761 0.930 . S
H1754 C1764 0.930 . S
H1755 C1765 0.930 . S
C1756 H1750 0.930 . S
C1756 C1757 1.355 . S
C1756 C1758 1.415 . S
C1757 C1756 1.355 . S
C1757 C1759 1.419 . S
C1758 C1756 1.415 . S
C1758 C1763 1.425 . S
C1758 C1765 1.409 . S
C1759 H1751 0.930 . S
C1759 C1757 1.419 . S
C1759 C1760 1.362 . S
C1760 H1752 0.930 . S
C1760 C1759 1.362 . S
C1760 C1763 1.409 . S
C1761 H1753 0.930 . S
C1761 C1762 1.355 . S
C1761 C1763 1.415 . S
C1762 C1761 1.355 . S
C1762 C1764 1.419 . S
C1763 C1758 1.425 . S
C1763 C1760 1.409 . S
C1763 C1761 1.415 . S
C1764 H1754 0.930 . S
C1764 C1762 1.419 . S
C1764 C1765 1.362 . S
C1765 H1755 0.930 . S
C1765 C1758 1.409 . S
C1765 C1764 1.362 . S
H1766 C1772 0.930 . S
H1767 C1775 0.930 . S
H1768 C1776 0.930 . S
H1769 C1777 0.930 . S
H1770 C1780 0.930 . S
H1771 C1781 0.930 . S
C1772 H1766 0.930 . S
C1772 C1773 1.355 . S
C1772 C1774 1.415 . S
C1773 C1772 1.355 . S
C1773 C1775 1.419 . S
C1774 C1772 1.415 . S
C1774 C1779 1.425 . S
C1774 C1781 1.409 . S
C1775 H1767 0.930 . S
C1775 C1773 1.419 . S
C1775 C1776 1.362 . S
C1776 H1768 0.930 . S
C1776 C1775 1.362 . S
C1776 C1779 1.409 . S
C1777 H1769 0.930 . S
C1777 C1778 1.355 . S
C1777 C1779 1.415 . S
C1778 C1777 1.355 . S
C1778 C1780 1.419 . S
C1779 C1774 1.425 . S
C1779 C1776 1.409 . S
C1779 C1777 1.415 . S
C1780 H1770 0.930 . S
C1780 C1778 1.419 . S
C1780 C1781 1.362 . S
C1781 H1771 0.930 . S
C1781 C1774 1.409 . S
C1781 C1780 1.362 . S
C925 C124 1.430 . S
C930 C229 1.372 . S
C941 C130 1.492 . S
C946 C313 1.393 . S
C957 C115 1.455 . S
C962 C393 1.400 . S
C973 C106 1.449 . S
C978 C309 1.411 . S
C994 C397 1.385 . S
C989 C85 1.431 . S
C1005 C97 1.397 . S
C1010 C225 1.339 . S
C1026 C218 1.370 . S
C1021 C103 1.471 . S
C1042 C302 1.353 . S
C1037 C88 1.459 . S
C1053 C94 1.458 . S
C1058 C404 1.403 . S
C1069 C121 1.432 . S
C1074 C320 1.374 . S
C1085 C133 1.409 . S
C1090 C386 1.304 . S
C1106 C236 1.399 . S
C1101 C112 1.432 . S
C1122 C481 1.346 . S
C1117 C16 1.430 . S
C1133 C22 1.482 . S
C1138 C565 1.450 . S
C1149 C7 1.458 . S
C1154 C645 1.398 . S
C1165 C160 1.443 . S
C1170 C561 1.416 . S
C1181 C139 1.428 . S
C1186 C649 1.357 . S
C1197 C151 1.421 . S
C1202 C477 1.391 . S
C1213 C157 1.464 . S
C1218 C470 1.343 . S
C1229 C142 1.468 . S
C1234 C554 1.430 . S
C1250 C656 1.402 . S
C1245 C148 1.455 . S
C1261 C13 1.452 . S
C1266 C572 1.437 . S
C1282 C638 1.298 . S
C1277 C25 1.411 . S
C1293 C4 1.445 . S
C1298 C488 1.428 . S
C1314 C733 1.409 . S
C1309 C70 1.437 . S
C1325 C76 1.482 . S
C1330 C817 1.374 . S
C1346 C897 1.441 . S
C1341 C61 1.477 . S
C1362 C813 1.441 . S
C1357 C52 1.454 . S
C1378 C901 1.318 . S
C1373 C31 1.434 . S
C1389 C43 1.397 . S
C1394 C729 1.337 . S
C1405 C49 1.462 . S
C1410 C722 1.341 . S
C1421 C34 1.452 . S
C1426 C806 1.398 . S
C1442 C908 1.431 . S
C1437 C40 1.465 . S
C1453 C67 1.448 . S
C1458 C824 1.420 . S
C1469 C79 1.418 . S
C1474 C890 1.388 . S
C1485 C58 1.444 . S
C1490 C740 1.426 . S
C1501 C140 1.485 . S
C1506 C232 1.427 . S
C1522 C316 1.422 . S
C1517 C149 1.504 . S
C1533 C158 1.503 . S
C1538 C388 1.432 . S
C1549 C59 1.520 . S
C1554 C304 1.362 . S
C1565 C68 1.491 . S
C1570 C400 1.323 . S
C1586 C220 1.355 . S
C1581 C77 1.487 . S
C1597 C32 1.488 . S
C1602 C484 1.362 . S
C1613 C41 1.505 . S
C1618 C568 1.426 . S
C1629 C50 1.505 . S
C1634 C640 1.415 . S
C1645 C113 1.520 . S
C1650 C556 1.339 . S
C1666 C652 1.321 . S
C1661 C122 1.491 . S
C1677 C131 1.486 . S
C1682 C472 1.361 . S
C1693 C86 1.487 . S
C1698 C736 1.396 . S
C1709 C95 1.503 . S
C1714 C820 1.388 . S
C1730 C892 1.370 . S
C1725 C104 1.507 . S
C1741 C5 1.520 . S
C1746 C808 1.382 . S
C1757 C14 1.492 . S
C1762 C904 1.312 . S
C1773 C23 1.490 . S
C1778 C724 1.337 . S
