# Generated by pormake.
# Topology rtl, (3,6)-cn, num edge types: 1
# Building blocks:
#     Node 0, Type 0, BuildingBlock: KAKCAD_clean_linker_0, # of connection points: 3
#     Node 1, Type 0, BuildingBlock: KAKCAD_clean_linker_0, # of connection points: 3
#     Node 2, Type 0, BuildingBlock: KAKCAD_clean_linker_0, # of connection points: 3
#     Node 3, Type 0, BuildingBlock: KAKCAD_clean_linker_0, # of connection points: 3
#     Node 4, Type 1, BuildingBlock: KUMBUR_clean_sbu_1, # of connection points: 6
#     Node 5, Type 1, BuildingBlock: KUMBUR_clean_sbu_1, # of connection points: 6
#     Edge 6, Type (0, 1), BuildingBlock: EZIPEK_clean_linker_0, # of connection points: 2
#     Edge 7, Type (0, 1), BuildingBlock: EZIPEK_clean_linker_0, # of connection points: 2
#     Edge 8, Type (0, 1), BuildingBlock: EZIPEK_clean_linker_0, # of connection points: 2
#     Edge 9, Type (0, 1), BuildingBlock: EZIPEK_clean_linker_0, # of connection points: 2
#     Edge 10, Type (0, 1), BuildingBlock: EZIPEK_clean_linker_0, # of connection points: 2
#     Edge 11, Type (0, 1), BuildingBlock: EZIPEK_clean_linker_0, # of connection points: 2
#     Edge 12, Type (0, 1), BuildingBlock: EZIPEK_clean_linker_0, # of connection points: 2
#     Edge 13, Type (0, 1), BuildingBlock: EZIPEK_clean_linker_0, # of connection points: 2
#     Edge 14, Type (0, 1), BuildingBlock: EZIPEK_clean_linker_0, # of connection points: 2
#     Edge 15, Type (0, 1), BuildingBlock: EZIPEK_clean_linker_0, # of connection points: 2
#     Edge 16, Type (0, 1), BuildingBlock: EZIPEK_clean_linker_0, # of connection points: 2
#     Edge 17, Type (0, 1), BuildingBlock: EZIPEK_clean_linker_0, # of connection points: 2
# Relax obj value: 0.018
# Max RMSD: 0.113
# Mean RMSD: 0.068
data_MOF--net-rtl--node1-KUMBUR_clean_sbu_1--node2-KAKCAD_clean_linker_0--edge1-EZIPEK_clean_linker_0
_symmetry_space_group_name_H-M    P1
_symmetry_Int_Tables_number       1
_symmetry_cell_setting            triclinic
loop_
_symmetry_equiv_pos_as_xyz
'x, y, z'
_cell_length_a     31.181118
_cell_length_b     31.862644
_cell_length_c     28.216781
_cell_angle_alpha  77.170536
_cell_angle_beta   98.893929
_cell_angle_gamma 91.301308
loop_
_atom_site_label
_atom_site_type_symbol
_atom_site_fract_x
_atom_site_fract_y
_atom_site_fract_z
_atom_type_partial_charge
C0 C 0.13043 0.92032 0.86913 0.0
C1 C 0.153 0.93416 0.82928 0.0
C2 C 0.15297 0.90544 0.91639 0.0
C3 C 0.19855 0.90376 0.9246 0.0
C4 C 0.22122 0.91933 0.88492 0.0
C5 C 0.19854 0.9349 0.83756 0.0
C6 C 0.22172 0.88242 0.97364 0.0
C7 C 0.25239 0.84972 0.9778 0.0
C8 C 0.26985 0.8251 0.02407 0.0
C9 C 0.25739 0.83383 0.06665 0.0
C10 C 0.22768 0.86736 0.06326 0.0
C11 C 0.20994 0.89138 0.01651 0.0
C12 C 0.2139 0.87636 0.10822 0.0
C13 C 0.20314 0.84268 0.14545 0.0
C14 C 0.20905 0.91875 0.11304 0.0
C15 C 0.19535 0.92716 0.15495 0.0
C16 C 0.1878 0.89353 0.19493 0.0
C17 C 0.29916 0.78853 0.02756 0.0
C18 C 0.34269 0.7956 0.0213 0.0
C19 C 0.28339 0.74637 0.0365 0.0
C20 C 0.31094 0.71156 0.03949 0.0
C21 C 0.35479 0.71845 0.03432 0.0
C22 C 0.37047 0.76073 0.02514 0.0
C23 C 0.1892 0.85111 0.18724 0.0
H24 H 0.09527 0.91958 0.8633 0.0
H25 H 0.13467 0.89326 0.94613 0.0
H26 H 0.25637 0.91857 0.89041 0.0
H27 H 0.21637 0.94563 0.8071 0.0
H28 H 0.261 0.84182 0.94498 0.0
H29 H 0.18589 0.91629 0.01331 0.0
H30 H 0.27103 0.81462 0.10234 0.0
H31 H 0.20403 0.80966 0.14152 0.0
H32 H 0.21559 0.94565 0.08417 0.0
H33 H 0.18959 0.96052 0.15445 0.0
H34 H 0.35527 0.82799 0.01421 0.0
H35 H 0.24977 0.74045 0.04111 0.0
H36 H 0.17812 0.82369 0.21191 0.0
H37 H 0.40428 0.76663 0.02147 0.0
H38 H 0.29836 0.67917 0.04686 0.0
C39 C 0.63077 0.66277 0.79814 0.0
C40 C 0.62443 0.61819 0.8123 0.0
C41 C 0.64909 0.68008 0.75567 0.0
C42 C 0.66125 0.65309 0.72658 0.0
C43 C 0.65616 0.60832 0.74206 0.0
C44 C 0.63783 0.59112 0.78429 0.0
C45 C 0.6765 0.67122 0.67862 0.0
C46 C 0.70654 0.7051 0.67328 0.0
C47 C 0.72096 0.72134 0.62764 0.0
C48 C 0.70432 0.70332 0.58735 0.0
C49 C 0.67487 0.66924 0.59217 0.0
C50 C 0.66081 0.65388 0.63768 0.0
C51 C 0.66005 0.64849 0.55021 0.0
C52 C 0.64999 0.67325 0.50186 0.0
C53 C 0.65701 0.60339 0.55823 0.0
C54 C 0.64448 0.58353 0.51892 0.0
C55 C 0.63492 0.60832 0.47082 0.0
C56 C 0.75393 0.75635 0.62164 0.0
C57 C 0.7547 0.78994 0.64687 0.0
C58 C 0.78463 0.75686 0.58961 0.0
C59 C 0.81439 0.79027 0.58222 0.0
C60 C 0.81511 0.82346 0.60762 0.0
C61 C 0.78516 0.82295 0.64018 0.0
C62 C 0.63763 0.6533 0.46248 0.0
H63 H 0.62065 0.68418 0.81936 0.0
H64 H 0.65231 0.71466 0.74467 0.0
H65 H 0.66586 0.58648 0.72109 0.0
H66 H 0.63339 0.55665 0.79468 0.0
H67 H 0.71963 0.71776 0.70505 0.0
H68 H 0.63694 0.62856 0.64104 0.0
H69 H 0.71472 0.71545 0.55202 0.0
H70 H 0.6515 0.70804 0.49446 0.0
H71 H 0.6652 0.5833 0.59481 0.0
H72 H 0.64272 0.54875 0.52591 0.0
H73 H 0.73141 0.79114 0.6713 0.0
H74 H 0.78613 0.73116 0.57044 0.0
H75 H 0.6303 0.67286 0.4255 0.0
H76 H 0.78525 0.84829 0.66021 0.0
H77 H 0.83748 0.78985 0.5573 0.0
C78 C 0.84085 0.09252 0.25252 0.0
C79 C 0.88589 0.08542 0.2616 0.0
C80 C 0.82009 0.11115 0.20517 0.0
C81 C 0.84402 0.12356 0.16595 0.0
C82 C 0.88904 0.11513 0.17501 0.0
C83 C 0.90973 0.09611 0.22236 0.0
C84 C 0.82245 0.14735 0.11665 0.0
C85 C 0.79048 0.17881 0.11325 0.0
C86 C 0.77087 0.20282 0.06742 0.0
C87 C 0.78349 0.1952 0.02443 0.0
C88 C 0.81549 0.16411 0.02669 0.0
C89 C 0.83465 0.14014 0.07302 0.0
C90 C 0.82879 0.15718 0.98045 0.0
C91 C 0.83604 0.11543 0.97421 0.0
C92 C 0.83323 0.19252 0.94154 0.0
C93 C 0.84359 0.18624 0.89716 0.0
C94 C 0.84995 0.14456 0.89078 0.0
C95 C 0.73791 0.23662 0.06454 0.0
C96 C 0.7045 0.22855 0.09354 0.0
C97 C 0.7401 0.27747 0.03335 0.0
C98 C 0.70992 0.30973 0.03175 0.0
C99 C 0.67683 0.30163 0.06098 0.0
C100 C 0.67409 0.26072 0.09158 0.0
C101 C 0.84659 0.10919 0.92975 0.0
H102 H 0.82191 0.08443 0.28235 0.0
H103 H 0.7853 0.11636 0.19945 0.0
H104 H 0.90862 0.12465 0.14597 0.0
H105 H 0.94456 0.09095 0.22874 0.0
H106 H 0.78183 0.18582 0.14646 0.0
H107 H 0.85935 0.11616 0.07512 0.0
H108 H 0.76771 0.21311 0.989 0.0
H109 H 0.83254 0.08751 1.0032 0.0
H110 H 0.82868 0.22514 0.94535 0.0
H111 H 0.8463 0.21392 0.86755 0.0
H112 H 0.70178 0.19728 0.11755 0.0
H113 H 0.76571 0.28476 0.01096 0.0
H114 H 0.85144 0.07678 0.92541 0.0
H115 H 0.64867 0.25391 0.1143 0.0
H116 H 0.71259 0.34118 0.00805 0.0
C117 C 0.36528 0.35764 0.29432 0.0
C118 C 0.40897 0.36992 0.29682 0.0
C119 C 0.34814 0.33969 0.33734 0.0
C120 C 0.37436 0.33375 0.38371 0.0
C121 C 0.41847 0.34505 0.38574 0.0
C122 C 0.43556 0.36297 0.34275 0.0
C123 C 0.35548 0.31787 0.42991 0.0
C124 C 0.32464 0.28461 0.43357 0.0
C125 C 0.30695 0.27022 0.47726 0.0
C126 C 0.31923 0.29003 0.51693 0.0
C127 C 0.3493 0.32352 0.51366 0.0
C128 C 0.36768 0.3369 0.47049 0.0
C129 C 0.36033 0.3456 0.55481 0.0
C130 C 0.32784 0.36717 0.56979 0.0
C131 C 0.40321 0.34551 0.57906 0.0
C132 C 0.41331 0.36622 0.61821 0.0
C133 C 0.38089 0.38833 0.63278 0.0
C134 C 0.27566 0.23438 0.48226 0.0
C135 C 0.234 0.23926 0.45431 0.0
C136 C 0.2865 0.196 0.51748 0.0
C137 C 0.25616 0.16305 0.5248 0.0
C138 C 0.214 0.16835 0.49798 0.0
C139 C 0.20327 0.20667 0.46244 0.0
C140 C 0.33811 0.38877 0.60805 0.0
H141 H 0.34426 0.36286 0.25913 0.0
H142 H 0.31401 0.3318 0.33435 0.0
H143 H 0.4398 0.34033 0.42069 0.0
H144 H 0.46937 0.37212 0.34539 0.0
H145 H 0.31513 0.26919 0.40302 0.0
H146 H 0.39034 0.36333 0.468 0.0
H147 H 0.30518 0.27948 0.55039 0.0
H148 H 0.29461 0.36778 0.55139 0.0
H149 H 0.42871 0.32896 0.56809 0.0
H150 H 0.44646 0.36533 0.63692 0.0
H151 H 0.22489 0.26875 0.42724 0.0
H152 H 0.31844 0.19164 0.53949 0.0
H153 H 0.31264 0.40565 0.61864 0.0
H154 H 0.17099 0.21143 0.44128 0.0
H155 H 0.26527 0.1337 0.55212 0.0
Tb156 Tb 0.03541 0.9487 0.52696 0.0
C157 C 0.97901 0.14359 0.50525 0.0
N158 N 0.00707 0.11923 0.54225 0.0
C159 C 0.05514 0.17924 0.54209 0.0
C160 C 0.98818 0.18675 0.48478 0.0
C161 C 0.04445 0.13669 0.56149 0.0
C162 C 0.02699 0.20435 0.50342 0.0
C163 C 0.91073 0.14923 0.44965 0.0
C164 C 0.94088 0.12512 0.48782 0.0
C165 C 0.91973 0.19221 0.42903 0.0
C166 C 0.9584 0.2109 0.44648 0.0
Tb167 Tb 0.98702 0.04948 0.56921 0.0
N168 N 0.93405 0.08293 0.50743 0.0
C169 C 0.87265 0.12927 0.43309 0.0
C170 C 0.89662 0.06356 0.49186 0.0
C171 C 0.86555 0.08626 0.45439 0.0
H172 H 0.06577 0.11804 0.59247 0.0
H173 H 0.83661 0.07027 0.44121 0.0
H174 H 0.96003 0.87351 0.51799 0.0
H175 H 0.19923 0.94221 0.62389 0.0
H176 H 0.8926 0.02977 0.5053 0.0
H177 H 0.84877 0.14661 0.40364 0.0
H178 H 0.13342 0.97791 0.57255 0.0
H179 H 0.08495 0.19272 0.55724 0.0
H180 H 0.89707 0.21122 0.39948 0.0
H181 H 0.96493 0.24409 0.43019 0.0
H182 H 0.95421 0.79535 0.54985 0.0
H183 H 0.0353 0.23735 0.48857 0.0
H184 H 0.20053 0.86334 0.65613 0.0
N185 N 0.02483 0.87687 0.55437 0.0
C186 C 0.05987 0.85453 0.58241 0.0
C187 C 0.98406 0.81164 0.55942 0.0
C188 C 0.05832 0.80966 0.60035 0.0
C189 C 0.98729 0.85608 0.54204 0.0
C190 C 0.01968 0.78833 0.5888 0.0
N191 N 0.09671 0.9205 0.57792 0.0
C192 C 0.13308 0.9438 0.58726 0.0
C193 C 0.13451 0.85502 0.62257 0.0
C194 C 0.09736 0.87694 0.59364 0.0
C195 C 0.17139 0.87894 0.6338 0.0
C196 C 0.17069 0.92351 0.61594 0.0
H197 H 0.0171 0.75388 0.60204 0.0
H198 H 0.09472 0.75312 0.64326 0.0
H199 H 0.16146 0.7928 0.66254 0.0
O200 O 0.0759 0.96439 0.47261 0.0
O201 O 0.0445 0.94378 0.60724 0.0
O202 O 0.04205 0.01316 0.61779 0.0
O203 O 0.03699 0.90742 0.4785 0.0
O204 O 0.06772 0.01134 0.51134 0.0
O205 O 0.05706 0.04713 0.571 0.0
O206 O 0.93932 0.04057 0.6157 0.0
O207 O 0.98264 0.05092 0.49037 0.0
O208 O 0.97853 0.9813 0.48027 0.0
O209 O 0.98686 0.09013 0.61875 0.0
O210 O 0.95526 0.98686 0.58921 0.0
O211 O 0.96547 0.94615 0.53288 0.0
C212 C 0.0474 0.97141 0.63617 0.0
C213 C 0.05446 0.93909 0.40018 0.0
C214 C 0.0783 0.93574 0.32287 0.0
C215 C 0.03751 0.95135 0.29739 0.0
C216 C 0.01368 0.95435 0.37445 0.0
C217 C 1.00539 0.96075 0.32318 0.0
C218 C 0.08672 0.93008 0.37423 0.0
C219 C 0.07729 0.04253 0.53477 0.0
C220 C 0.06408 0.93124 0.45403 0.0
C221 C 0.09525 0.78762 0.62918 0.0
C222 C 0.1333 0.81021 0.64009 0.0
C223 C 0.97372 0.02287 0.46249 0.0
C224 C 0.91943 0.10191 0.64207 0.0
C225 C 0.88203 0.13111 0.69761 0.0
C226 C 0.85745 0.15822 0.65688 0.0
C227 C 0.89447 0.12897 0.60172 0.0
C228 C 0.91297 0.10292 0.68997 0.0
C229 C 0.86365 0.15703 0.60919 0.0
C230 C 0.94511 0.95455 0.56765 0.0
C231 C 0.95268 0.07265 0.63555 0.0
H232 H 0.03056 0.95601 0.25774 0.0
H233 H 0.98829 0.96081 0.394 0.0
H234 H 0.97388 0.97262 0.30347 0.0
H235 H 0.11824 0.91803 0.39399 0.0
H236 H 0.83346 0.18016 0.6621 0.0
H237 H 0.89874 0.12851 0.56464 0.0
H238 H 0.93208 0.08197 0.72133 0.0
H239 H 0.84453 0.17792 0.57792 0.0
Tb240 Tb 0.46058 0.48466 0.01078 0.0
C241 C 0.61079 0.60625 0.04864 0.0
N242 N 0.61394 0.5631 0.06564 0.0
C243 C 0.68242 0.56246 0.03708 0.0
C244 C 0.64209 0.62921 0.02256 0.0
C245 C 0.65032 0.54123 0.06279 0.0
C246 C 0.67773 0.60648 0.01575 0.0
C247 C 0.57624 0.67276 0.05036 0.0
C248 C 0.57842 0.62745 0.06209 0.0
C249 C 0.60492 0.69599 0.02061 0.0
C250 C 0.6379 0.67418 0.00671 0.0
Tb251 Tb 0.55779 0.53018 0.10215 0.0
N252 N 0.55269 0.60364 0.09211 0.0
C253 C 0.5474 0.69317 0.07163 0.0
C254 C 0.52886 0.62349 0.11779 0.0
C255 C 0.52456 0.66841 0.10669 0.0
H256 H 0.65359 0.50709 0.07872 0.0
H257 H 0.50401 0.68387 0.12552 0.0
H258 H 0.39738 0.57077 0.95476 0.0
H259 H 0.41035 0.3272 0.09942 0.0
H260 H 0.51245 0.60463 0.14624 0.0
H261 H 0.54456 0.72794 0.06358 0.0
H262 H 0.45587 0.37901 0.05025 0.0
H263 H 0.71052 0.54482 0.03341 0.0
H264 H 0.60333 0.73083 0.01039 0.0
H265 H 0.66117 0.69251 0.98584 0.0
H266 H 0.32807 0.60124 0.96451 0.0
H267 H 0.70261 0.62285 0.9959 0.0
H268 H 0.34519 0.35316 0.12514 0.0
N269 N 0.39395 0.51425 0.011 0.0
C270 C 0.368 0.48969 0.04019 0.0
C271 C 0.33912 0.56996 0.98649 0.0
C272 C 0.32771 0.50525 0.04625 0.0
C273 C 0.37851 0.55262 0.98127 0.0
C274 C 0.31404 0.54658 0.02003 0.0
N275 N 0.41783 0.43349 0.05054 0.0
C276 C 0.42728 0.39035 0.06121 0.0
C277 C 0.35327 0.41948 0.08826 0.0
C278 C 0.38046 0.44762 0.06079 0.0
C279 C 0.36505 0.37587 0.1037 0.0
C280 C 0.40171 0.36107 0.0891 0.0
H281 H 0.28337 0.55987 0.02374 0.0
H282 H 0.27097 0.48993 0.08236 0.0
H283 H 0.29348 0.41462 0.11932 0.0
O284 O 0.48234 0.47041 0.94909 0.0
O285 O 0.48261 0.44847 0.08612 0.0
O286 O 0.50021 0.49945 0.13139 0.0
O287 O 0.41527 0.46631 0.9557 0.0
O288 O 0.51814 0.44166 0.03484 0.0
O289 O 0.57605 0.47196 0.08002 0.0
O290 O 0.59214 0.55017 0.16388 0.0
O291 O 0.56591 0.53246 0.02519 0.0
O292 O 0.49737 0.54082 0.98147 0.0
O293 O 0.5916 0.48413 0.15968 0.0
O294 O 0.49024 0.54938 0.09762 0.0
O295 O 0.4621 0.5527 0.01743 0.0
C296 C 0.48384 0.46174 0.12701 0.0
C297 C 0.43254 0.48573 0.87576 0.0
C298 C 0.41429 0.48189 0.78958 0.0
C299 C 0.40627 0.52652 0.77697 0.0
C300 C 0.42471 0.53027 0.8625 0.0
C301 C 0.41188 0.55057 0.81325 0.0
C302 C 0.42798 0.46172 0.83917 0.0
C303 C 0.5589 0.44197 0.05722 0.0
C304 C 0.44384 0.46371 0.92768 0.0
C305 C 0.30174 0.47839 0.07654 0.0
C306 C 0.31453 0.4355 0.09757 0.0
C307 C 0.5396 0.54289 0.98292 0.0
C308 C 0.58746 0.4988 0.23729 0.0
C309 C 0.58632 0.51366 0.31821 0.0
C310 C 0.55976 0.47787 0.32979 0.0
C311 C 0.56095 0.46285 0.24966 0.0
C312 C 0.60007 0.52408 0.27191 0.0
C313 C 0.54715 0.45263 0.29557 0.0
C314 C 0.46436 0.56767 0.0577 0.0
C315 C 0.60087 0.51095 0.18809 0.0
H316 H 0.3956 0.54266 0.73905 0.0
H317 H 0.42801 0.54912 0.89029 0.0
H318 H 0.40576 0.58495 0.80326 0.0
H319 H 0.43404 0.42726 0.84928 0.0
H320 H 0.54886 0.46954 0.36531 0.0
H321 H 0.55067 0.44268 0.22388 0.0
H322 H 0.62035 0.55193 0.26288 0.0
H323 H 0.52659 0.42509 0.30458 0.0
C324 C 0.16836 0.12098 0.55452 0.0
C325 C 0.18104 0.13384 0.50737 0.0
C326 C 0.12713 0.08492 0.47647 0.0
C327 C 0.1163 0.07005 0.52488 0.0
N328 N 0.14207 0.06218 0.61195 0.0
N329 N 0.18137 0.11839 0.42762 0.0
C330 C 0.14161 0.08449 0.56455 0.0
C331 C 0.16311 0.11287 0.46959 0.0
N332 N 0.18054 0.14424 0.58952 0.0
N333 N 0.10283 0.07414 0.4364 0.0
H334 H 0.20827 0.13779 0.42164 0.0
H335 H 0.17279 0.10022 0.40119 0.0
H336 H 0.0774 0.05262 0.43784 0.0
H337 H 0.1061 0.08929 0.40042 0.0
H338 H 0.16845 0.13821 0.62281 0.0
H339 H 0.19888 0.17216 0.58329 0.0
H340 H 0.16252 0.06995 0.64159 0.0
H341 H 0.1268 0.03267 0.62084 0.0
C342 C 0.40601 0.67463 1.0032 0.0
C343 C 0.38495 0.68119 0.04198 0.0
C344 C 0.41963 0.61541 0.09542 0.0
C345 C 0.44081 0.60888 0.05606 0.0
N346 N 0.47017 0.64548 0.98419 0.0
N347 N 0.38227 0.66536 0.12902 0.0
C348 C 0.43857 0.64226 0.01314 0.0
C349 C 0.39468 0.65366 0.08926 0.0
N350 N 0.39461 0.69866 0.95658 0.0
N351 N 0.42326 0.58593 0.13903 0.0
H352 H 0.36498 0.69364 0.12635 0.0
H353 H 0.39279 0.64946 0.16527 0.0
H354 H 0.44711 0.56221 0.15046 0.0
H355 H 0.40217 0.58519 0.16445 0.0
H356 H 0.40662 0.6921 0.92644 0.0
H357 H 0.37032 0.72234 0.94746 0.0
H358 H 0.47222 0.67154 0.95486 0.0
H359 H 0.49742 0.62525 0.99387 0.0
C360 C 0.89249 0.84858 0.62044 0.0
C361 C 0.84808 0.85816 0.60115 0.0
C362 C 0.8662 0.93429 0.57435 0.0
C363 C 0.91095 0.92351 0.58589 0.0
N364 N 0.96413 0.87663 0.64091 0.0
N365 N 0.79296 0.90968 0.55493 0.0
C366 C 0.92352 0.88209 0.61456 0.0
C367 C 0.83496 0.90096 0.57694 0.0
N368 N 0.90505 0.8075 0.64427 0.0
N369 N 0.85334 0.9761 0.5667 0.0
H370 H 0.76906 0.88621 0.5556 0.0
H371 H 0.78286 0.93941 0.53233 0.0
H372 H 0.8752 0.99953 0.57494 0.0
H373 H 0.82097 0.98591 0.56121 0.0
H374 H 0.93729 0.79713 0.65338 0.0
H375 H 0.88308 0.78292 0.65318 0.0
H376 H 0.97573 0.84841 0.66557 0.0
H377 H 0.98379 0.90312 0.64274 0.0
C378 C 0.61511 0.35219 0.01771 0.0
C379 C 0.64564 0.33646 0.06036 0.0
C380 C 0.61426 0.38431 0.10311 0.0
C381 C 0.58781 0.40464 0.05839 0.0
N382 N 0.57127 0.41278 0.97 0.0
N383 N 0.68008 0.34374 0.14074 0.0
C384 C 0.59024 0.38976 0.0148 0.0
C385 C 0.64695 0.35436 0.10221 0.0
N386 N 0.60932 0.33093 0.98017 0.0
N387 N 0.6069 0.39165 0.14702 0.0
H388 H 0.705 0.32222 0.14143 0.0
H389 H 0.68507 0.35948 0.16977 0.0
H390 H 0.58155 0.41096 0.15001 0.0
H391 H 0.62248 0.37444 0.18089 0.0
H392 H 0.58427 0.33842 0.95048 0.0
H393 H 0.62684 0.30318 0.98106 0.0
H394 H 0.57576 0.40552 0.93686 0.0
H395 H 0.55562 0.44212 0.96542 0.0
C396 C 0.17104 0.94592 0.24741 0.0
C397 C 0.17298 0.90324 0.24057 0.0
C398 C 0.1226 0.88078 0.29943 0.0
C399 C 0.11241 0.92462 0.29619 0.0
N400 N 0.1299 0.9997 0.27056 0.0
N401 N 0.17981 0.83308 0.2948 0.0
C402 C 0.13775 0.95752 0.27149 0.0
C403 C 0.15714 0.87073 0.27644 0.0
N404 N 0.20462 0.97305 0.2378 0.0
N405 N 0.09901 0.84862 0.32349 0.0
H406 H 0.21023 0.82868 0.28533 0.0
H407 H 0.17177 0.80972 0.32421 0.0
H408 H 0.07324 0.85443 0.34086 0.0
H409 H 0.10317 0.81641 0.32268 0.0
H410 H 0.20728 1.00329 0.24628 0.0
H411 H 0.23251 0.96255 0.22735 0.0
H412 H 0.14427 0.02503 0.24849 0.0
H413 H 0.10718 0.00938 0.28964 0.0
C414 C 0.62536 0.57225 0.89741 0.0
C415 C 0.6022 0.59957 0.85536 0.0
C416 C 0.53691 0.59164 0.89529 0.0
C417 C 0.55916 0.56086 0.93654 0.0
N418 N 0.62081 0.51134 0.96387 0.0
N419 N 0.53294 0.62545 0.80881 0.0
C420 C 0.60236 0.54819 0.93394 0.0
C421 C 0.55714 0.60633 0.85269 0.0
N422 N 0.66957 0.56926 0.90285 0.0
N423 N 0.49734 0.60873 0.8961 0.0
H424 H 0.54631 0.6367 0.77672 0.0
H425 H 0.4991 0.62615 0.80311 0.0
H426 H 0.47824 0.59895 0.92323 0.0
H427 H 0.48408 0.63563 0.87011 0.0
H428 H 0.6884 0.5527 0.93509 0.0
H429 H 0.68765 0.58668 0.87706 0.0
H430 H 0.65029 0.49884 0.95978 0.0
H431 H 0.60474 0.49039 0.98872 0.0
C432 C 0.9362 0.09694 0.33614 0.0
C433 C 0.90838 0.06935 0.31282 0.0
C434 C 0.91663 0.01519 0.39019 0.0
C435 C 0.95068 0.03933 0.41102 0.0
N436 N 0.99707 0.10216 0.39811 0.0
N437 N 0.87834 0.99864 0.31535 0.0
C438 C 0.96166 0.07996 0.38246 0.0
C439 C 0.90062 0.0273 0.33909 0.0
N440 N 0.93724 0.13988 0.31504 0.0
N441 N 0.89706 0.9827 0.41928 0.0
H442 H 0.86632 0.00626 0.2778 0.0
H443 H 0.87565 0.96624 0.33204 0.0
H444 H 0.90357 0.97582 0.4575 0.0
H445 H 0.86991 0.96674 0.40583 0.0
H446 H 0.95307 0.16224 0.33335 0.0
H447 H 0.91858 0.15387 0.28148 0.0
H448 H 0.0087 0.12919 0.37577 0.0
H449 H 0.01745 0.09202 0.43126 0.0
C450 C 0.42034 0.44613 0.6704 0.0
C451 C 0.39138 0.41089 0.67413 0.0
C452 C 0.37516 0.42402 0.75197 0.0
C453 C 0.40739 0.45631 0.75072 0.0
N454 N 0.46779 0.49086 0.71411 0.0
N455 N 0.34947 0.35985 0.72459 0.0
C456 C 0.43218 0.46519 0.71151 0.0
C457 C 0.37127 0.39786 0.71682 0.0
N458 N 0.43507 0.46277 0.62697 0.0
N459 N 0.34686 0.41952 0.78519 0.0
H460 H 0.34695 0.33914 0.70041 0.0
H461 H 0.33786 0.34685 0.75739 0.0
H462 H 0.34749 0.43894 0.81054 0.0
H463 H 0.32004 0.39943 0.78426 0.0
H464 H 0.45264 0.49116 0.62088 0.0
H465 H 0.42618 0.45071 0.59544 0.0
H466 H 0.48943 0.49498 0.6888 0.0
H467 H 0.4782 0.5045 0.74423 0.0
C468 C 0.65524 0.56384 0.4145 0.0
C469 C 0.62294 0.58672 0.42917 0.0
C470 C 0.56845 0.56747 0.36528 0.0
C471 C 0.59955 0.54032 0.35489 0.0
N472 N 0.67112 0.50792 0.37374 0.0
N473 N 0.54766 0.60619 0.42321 0.0
C474 C 0.64267 0.53733 0.38047 0.0
C475 C 0.5792 0.58761 0.40569 0.0
N476 N 0.69806 0.56832 0.43223 0.0
N477 N 0.52902 0.5748 0.33577 0.0
H478 H 0.55424 0.62139 0.45265 0.0
H479 H 0.51461 0.6036 0.4112 0.0
H480 H 0.52011 0.56069 0.30573 0.0
H481 H 0.50671 0.59772 0.33831 0.0
H482 H 0.7234 0.5561 0.41901 0.0
H483 H 0.70851 0.58763 0.45708 0.0
H484 H 0.70136 0.50084 0.39542 0.0
H485 H 0.66321 0.48791 0.34909 0.0
C486 C 0.9003 0.15004 0.8282 0.0
C487 C 0.85928 0.13828 0.84264 0.0
C488 C 0.83611 0.11559 0.76512 0.0
C489 C 0.87503 0.1322 0.74833 0.0
N490 N 0.9419 0.17063 0.76102 0.0
N491 N 0.78563 0.11562 0.82232 0.0
C492 C 0.90665 0.15076 0.77917 0.0
C493 C 0.8265 0.12244 0.81048 0.0
N494 N 0.93349 0.15957 0.86174 0.0
N495 N 0.80887 0.09227 0.73829 0.0
H496 H 0.77719 0.12026 0.85516 0.0
H497 H 0.75918 0.10882 0.7979 0.0
H498 H 0.81497 0.08635 0.70502 0.0
H499 H 0.78239 0.07549 0.7511 0.0
H500 H 0.96537 0.16398 0.855 0.0
H501 H 0.93 0.15923 0.89801 0.0
H502 H 0.96351 0.18886 0.77991 0.0
H503 H 0.94767 0.17197 0.72528 0.0
C504 C 0.45351 0.36925 0.22944 0.0
C505 C 0.42643 0.39195 0.2515 0.0
C506 C 0.42863 0.45529 0.18462 0.0
C507 C 0.46157 0.4357 0.16719 0.0
N508 N 0.50368 0.37187 0.1713 0.0
N509 N 0.39204 0.45858 0.25313 0.0
C510 C 0.4733 0.39187 0.18887 0.0
C511 C 0.415 0.43549 0.22988 0.0
N512 N 0.45903 0.32574 0.24625 0.0
N513 N 0.40768 0.49124 0.15591 0.0
H514 H 0.38126 0.44542 0.28643 0.0
H515 H 0.38701 0.49175 0.24138 0.0
H516 H 0.4155 0.50547 0.12146 0.0
H517 H 0.37969 0.50381 0.16376 0.0
H518 H 0.47427 0.30625 0.22861 0.0
H519 H 0.44526 0.30838 0.27597 0.0
H520 H 0.51848 0.34261 0.18976 0.0
H521 H 0.51514 0.38504 0.13861 0.0
C522 C 0.10254 0.98247 0.76301 0.0
C523 C 0.128 0.94434 0.77885 0.0
C524 C 0.09108 0.91718 0.70875 0.0
C525 C 0.0692 0.95757 0.68926 0.0
N526 N 0.03707 0.01587 0.71347 0.0
N527 N 0.15041 0.87693 0.76425 0.0
C528 C 0.07035 0.98702 0.72065 0.0
C529 C 0.12362 0.91235 0.75079 0.0
N530 N 0.10964 0.01471 0.78804 0.0
N531 N 0.07666 0.88144 0.69255 0.0
H532 H 0.17312 0.87053 0.79625 0.0
H533 H 0.15244 0.85562 0.74146 0.0
H534 H 0.04924 0.8814 0.66691 0.0
H535 H 0.08782 0.85039 0.70976 0.0
H536 H 0.09525 0.04513 0.77522 0.0
H537 H 0.13307 0.01232 0.81926 0.0
H538 H 0.03392 0.03631 0.73689 0.0
H539 H 0.00904 0.01385 0.68879 0.0
loop_
_geom_bond_atom_site_label_1
_geom_bond_atom_site_label_2
_geom_bond_distance
_geom_bond_site_symmetry_2
_ccdc_geom_bond_type
C0 C1 1.386 . S
C0 C2 1.397 . S
C0 H24 0.931 . S
C1 C0 1.386 . S
C1 C5 1.397 . S
C2 C0 1.397 . S
C2 C3 1.384 . S
C2 H25 0.930 . S
C3 C2 1.384 . S
C3 C4 1.377 . S
C3 C6 1.481 . S
C4 C3 1.377 . S
C4 C5 1.389 . S
C4 H26 0.929 . S
C5 C1 1.397 . S
C5 C4 1.389 . S
C5 H27 0.931 1_565 S
C6 C3 1.481 . S
C6 C7 1.387 . S
C6 C11 1.390 1_556 S
C7 C6 1.387 . S
C7 C8 1.401 1_556 S
C7 H28 0.930 . S
C8 C7 1.401 1_554 S
C8 C9 1.376 . S
C8 C17 1.511 . S
C9 C8 1.376 . S
C9 C10 1.392 . S
C9 H30 0.931 . S
C10 C9 1.392 . S
C10 C11 1.361 . S
C10 C12 1.500 . S
C11 C6 1.390 1_554 S
C11 C10 1.361 . S
C11 H29 0.931 . S
C12 C10 1.500 . S
C12 C13 1.371 . S
C12 C14 1.365 . S
C13 C12 1.371 . S
C13 C23 1.386 . S
C13 H31 0.931 . S
C14 C12 1.365 . S
C14 C15 1.409 . S
C14 H32 0.929 . S
C15 C14 1.409 . S
C15 C16 1.380 . S
C15 H33 0.930 . S
C16 C15 1.380 . S
C16 C23 1.357 . S
C17 C8 1.511 . S
C17 C18 1.341 1_554 S
C17 C19 1.371 . S
C18 C17 1.341 1_556 S
C18 C22 1.394 1_556 S
C18 H34 0.930 . S
C19 C17 1.371 . S
C19 C20 1.392 . S
C19 H35 0.931 . S
C20 C19 1.392 . S
C20 C21 1.331 . S
C20 H38 0.932 . S
C21 C20 1.331 . S
C21 C22 1.336 . S
C22 C18 1.394 1_554 S
C22 C21 1.336 . S
C22 H37 0.929 1_554 S
C23 C13 1.386 . S
C23 C16 1.357 . S
C23 H36 0.928 . S
H24 C0 0.931 . S
H25 C2 0.930 . S
H26 C4 0.929 . S
H27 C5 0.931 1_545 S
H28 C7 0.930 . S
H29 C11 0.931 . S
H30 C9 0.931 . S
H31 C13 0.931 . S
H32 C14 0.929 . S
H33 C15 0.930 . S
H34 C18 0.930 . S
H35 C19 0.931 . S
H36 C23 0.928 . S
H37 C22 0.929 1_556 S
H38 C20 0.932 . S
C39 C40 1.386 . S
C39 C41 1.397 . S
C39 H63 0.931 . S
C40 C39 1.386 . S
C40 C44 1.397 . S
C41 C39 1.397 . S
C41 C42 1.384 . S
C41 H64 0.930 . S
C42 C41 1.384 . S
C42 C43 1.377 . S
C42 C45 1.481 . S
C43 C42 1.377 . S
C43 C44 1.389 . S
C43 H65 0.929 . S
C44 C40 1.397 . S
C44 C43 1.389 . S
C44 H66 0.931 . S
C45 C42 1.481 . S
C45 C46 1.387 . S
C45 C50 1.390 . S
C46 C45 1.387 . S
C46 C47 1.401 . S
C46 H67 0.930 . S
C47 C46 1.401 . S
C47 C48 1.376 . S
C47 C56 1.511 . S
C48 C47 1.376 . S
C48 C49 1.392 . S
C48 H69 0.931 . S
C49 C48 1.392 . S
C49 C50 1.361 . S
C49 C51 1.500 . S
C50 C45 1.390 . S
C50 C49 1.361 . S
C50 H68 0.931 . S
C51 C49 1.500 . S
C51 C52 1.371 . S
C51 C53 1.365 . S
C52 C51 1.371 . S
C52 C62 1.386 . S
C52 H70 0.931 . S
C53 C51 1.365 . S
C53 C54 1.409 . S
C53 H71 0.929 . S
C54 C53 1.409 . S
C54 C55 1.380 . S
C54 H72 0.930 . S
C55 C54 1.380 . S
C55 C62 1.357 . S
C56 C47 1.511 . S
C56 C57 1.341 . S
C56 C58 1.371 . S
C57 C56 1.341 . S
C57 C61 1.394 . S
C57 H73 0.930 . S
C58 C56 1.371 . S
C58 C59 1.392 . S
C58 H74 0.931 . S
C59 C58 1.392 . S
C59 C60 1.331 . S
C59 H77 0.932 . S
C60 C59 1.331 . S
C60 C61 1.336 . S
C61 C57 1.394 . S
C61 C60 1.336 . S
C61 H76 0.929 . S
C62 C52 1.386 . S
C62 C55 1.357 . S
C62 H75 0.928 . S
H63 C39 0.931 . S
H64 C41 0.930 . S
H65 C43 0.929 . S
H66 C44 0.931 . S
H67 C46 0.930 . S
H68 C50 0.931 . S
H69 C48 0.931 . S
H70 C52 0.931 . S
H71 C53 0.929 . S
H72 C54 0.930 . S
H73 C57 0.930 . S
H74 C58 0.931 . S
H75 C62 0.928 . S
H76 C61 0.929 . S
H77 C59 0.932 . S
C78 C79 1.386 . S
C78 C80 1.397 . S
C78 H102 0.931 . S
C79 C78 1.386 . S
C79 C83 1.397 . S
C80 C78 1.397 . S
C80 C81 1.384 . S
C80 H103 0.930 . S
C81 C80 1.384 . S
C81 C82 1.377 . S
C81 C84 1.481 . S
C82 C81 1.377 . S
C82 C83 1.389 . S
C82 H104 0.929 . S
C83 C79 1.397 . S
C83 C82 1.389 . S
C83 H105 0.931 . S
C84 C81 1.481 . S
C84 C85 1.387 . S
C84 C89 1.390 . S
C85 C84 1.387 . S
C85 C86 1.401 . S
C85 H106 0.930 . S
C86 C85 1.401 . S
C86 C87 1.376 . S
C86 C95 1.511 . S
C87 C86 1.376 . S
C87 C88 1.392 . S
C87 H108 0.931 1_554 S
C88 C87 1.392 . S
C88 C89 1.361 . S
C88 C90 1.500 1_554 S
C89 C84 1.390 . S
C89 C88 1.361 . S
C89 H107 0.931 . S
C90 C88 1.500 1_556 S
C90 C91 1.371 . S
C90 C92 1.365 . S
C91 C90 1.371 . S
C91 C101 1.386 . S
C91 H109 0.931 . S
C92 C90 1.365 . S
C92 C93 1.409 . S
C92 H110 0.929 1_556 S
C93 C92 1.409 . S
C93 C94 1.380 . S
C93 H111 0.930 . S
C94 C93 1.380 . S
C94 C101 1.357 . S
C95 C86 1.511 . S
C95 C96 1.341 . S
C95 C97 1.371 . S
C96 C95 1.341 . S
C96 C100 1.394 . S
C96 H112 0.930 . S
C97 C95 1.371 . S
C97 C98 1.392 . S
C97 H113 0.931 1_554 S
C98 C97 1.392 . S
C98 C99 1.331 . S
C98 H116 0.932 1_554 S
C99 C98 1.331 . S
C99 C100 1.336 . S
C100 C96 1.394 . S
C100 C99 1.336 . S
C100 H115 0.929 . S
C101 C91 1.386 . S
C101 C94 1.357 . S
C101 H114 0.928 . S
H102 C78 0.931 . S
H103 C80 0.930 . S
H104 C82 0.929 . S
H105 C83 0.931 . S
H106 C85 0.930 . S
H107 C89 0.931 . S
H108 C87 0.931 1_556 S
H109 C91 0.931 . S
H110 C92 0.929 1_554 S
H111 C93 0.930 . S
H112 C96 0.930 . S
H113 C97 0.931 1_556 S
H114 C101 0.928 . S
H115 C100 0.929 . S
H116 C98 0.932 1_556 S
C117 C118 1.386 . S
C117 C119 1.397 . S
C117 H141 0.931 . S
C118 C117 1.386 . S
C118 C122 1.397 . S
C119 C117 1.397 . S
C119 C120 1.384 . S
C119 H142 0.930 . S
C120 C119 1.384 . S
C120 C121 1.377 . S
C120 C123 1.481 . S
C121 C120 1.377 . S
C121 C122 1.389 . S
C121 H143 0.929 . S
C122 C118 1.397 . S
C122 C121 1.389 . S
C122 H144 0.931 . S
C123 C120 1.481 . S
C123 C124 1.387 . S
C123 C128 1.390 . S
C124 C123 1.387 . S
C124 C125 1.401 . S
C124 H145 0.930 . S
C125 C124 1.401 . S
C125 C126 1.376 . S
C125 C134 1.511 . S
C126 C125 1.376 . S
C126 C127 1.392 . S
C126 H147 0.931 . S
C127 C126 1.392 . S
C127 C128 1.361 . S
C127 C129 1.500 . S
C128 C123 1.390 . S
C128 C127 1.361 . S
C128 H146 0.931 . S
C129 C127 1.500 . S
C129 C130 1.371 . S
C129 C131 1.365 . S
C130 C129 1.371 . S
C130 C140 1.386 . S
C130 H148 0.931 . S
C131 C129 1.365 . S
C131 C132 1.409 . S
C131 H149 0.929 . S
C132 C131 1.409 . S
C132 C133 1.380 . S
C132 H150 0.930 . S
C133 C132 1.380 . S
C133 C140 1.357 . S
C134 C125 1.511 . S
C134 C135 1.341 . S
C134 C136 1.371 . S
C135 C134 1.341 . S
C135 C139 1.394 . S
C135 H151 0.930 . S
C136 C134 1.371 . S
C136 C137 1.392 . S
C136 H152 0.931 . S
C137 C136 1.392 . S
C137 C138 1.331 . S
C137 H155 0.932 . S
C138 C137 1.331 . S
C138 C139 1.336 . S
C139 C135 1.394 . S
C139 C138 1.336 . S
C139 H154 0.929 . S
C140 C130 1.386 . S
C140 C133 1.357 . S
C140 H153 0.928 . S
H141 C117 0.931 . S
H142 C119 0.930 . S
H143 C121 0.929 . S
H144 C122 0.931 . S
H145 C124 0.930 . S
H146 C128 0.931 . S
H147 C126 0.931 . S
H148 C130 0.931 . S
H149 C131 0.929 . S
H150 C132 0.930 . S
H151 C135 0.930 . S
H152 C136 0.931 . S
H153 C140 0.928 . S
H154 C139 0.929 . S
H155 C137 0.932 . S
Tb156 N185 2.617 . S
Tb156 N191 2.572 . S
Tb156 O200 2.465 . S
Tb156 O201 2.387 . S
Tb156 O203 2.428 . S
Tb156 O204 2.308 1_565 S
Tb156 O208 2.345 1_465 S
Tb156 O211 2.393 1_455 S
Tb156 C220 2.802 . S
C157 N158 1.379 . S
C157 C160 1.416 . S
C157 C164 1.424 . S
N158 C157 1.379 . S
N158 C161 1.355 . S
N158 Tb167 2.617 . S
C159 C161 1.390 . S
C159 C162 1.339 . S
C159 H179 0.930 1_655 S
C160 C157 1.416 . S
C160 C162 1.416 . S
C160 C166 1.448 . S
C161 N158 1.355 . S
C161 C159 1.390 . S
C161 H172 0.909 1_655 S
C162 C159 1.339 . S
C162 C160 1.416 . S
C162 H183 0.930 . S
C163 C164 1.413 . S
C163 C165 1.427 . S
C163 C169 1.416 . S
C164 C157 1.424 . S
C164 C163 1.413 . S
C164 N168 1.361 . S
C165 C163 1.427 . S
C165 C166 1.328 . S
C165 H180 0.929 . S
C166 C160 1.448 . S
C166 C165 1.328 . S
C166 H181 0.930 . S
Tb167 N158 2.617 . S
Tb167 N168 2.572 . S
Tb167 O202 2.349 1_655 S
Tb167 O205 2.393 1_655 S
Tb167 O206 2.465 . S
Tb167 O207 2.387 . S
Tb167 O209 2.428 . S
Tb167 O210 2.308 1_545 S
Tb167 C231 2.802 . S
N168 C164 1.361 . S
N168 Tb167 2.572 . S
N168 C170 1.340 . S
C169 C163 1.416 . S
C169 C171 1.332 . S
C169 H177 0.931 . S
C170 N168 1.340 . S
C170 C171 1.407 . S
C170 H176 0.930 . S
C171 C169 1.332 . S
C171 C170 1.407 . S
C171 H173 0.929 . S
H172 C161 0.909 1_455 S
H173 C171 0.929 . S
H174 C189 0.930 1_655 S
H175 C196 0.929 . S
H176 C170 0.930 . S
H177 C169 0.931 . S
H178 C192 0.930 . S
H179 C159 0.930 1_455 S
H180 C165 0.929 . S
H181 C166 0.930 . S
H182 C187 0.930 1_655 S
H183 C162 0.930 . S
H184 C195 0.931 . S
N185 Tb156 2.617 . S
N185 C186 1.379 . S
N185 C189 1.334 . S
C186 N185 1.379 . S
C186 C188 1.416 . S
C186 C194 1.424 . S
C187 H182 0.930 1_455 S
C187 C189 1.390 . S
C187 C190 1.339 . S
C188 C186 1.416 . S
C188 C190 1.416 . S
C188 C221 1.448 . S
C189 H174 0.930 1_455 S
C189 N185 1.334 . S
C189 C187 1.390 . S
C190 C187 1.339 . S
C190 C188 1.416 . S
C190 H197 0.930 . S
N191 Tb156 2.572 . S
N191 C192 1.340 . S
N191 C194 1.361 . S
C192 H178 0.930 . S
C192 N191 1.340 . S
C192 C196 1.407 . S
C193 C194 1.413 . S
C193 C195 1.416 . S
C193 C222 1.427 . S
C194 C186 1.424 . S
C194 N191 1.361 . S
C194 C193 1.413 . S
C195 H184 0.931 . S
C195 C193 1.416 . S
C195 C196 1.332 . S
C196 H175 0.929 . S
C196 C192 1.407 . S
C196 C195 1.332 . S
H197 C190 0.930 . S
H198 C221 0.930 . S
H199 C222 0.929 . S
O200 Tb156 2.465 . S
O200 C220 1.264 . S
O201 Tb156 2.387 . S
O201 C212 1.264 . S
O202 Tb167 2.349 1_455 S
O202 C212 1.243 1_545 S
O203 Tb156 2.428 . S
O203 C220 1.256 . S
O204 Tb156 2.308 1_545 S
O204 C219 1.266 . S
O205 Tb167 2.393 1_455 S
O205 C219 1.248 . S
O206 Tb167 2.465 . S
O206 C231 1.264 . S
O207 Tb167 2.387 . S
O207 C223 1.264 . S
O208 Tb156 2.345 1_645 S
O208 C223 1.250 . S
O209 Tb167 2.428 . S
O209 C231 1.256 . S
O210 Tb167 2.308 1_565 S
O210 C230 1.266 . S
O211 Tb156 2.393 1_655 S
O211 C230 1.248 . S
C212 O201 1.264 . S
C212 O202 1.243 1_565 S
C213 C216 1.399 . S
C213 C218 1.383 . S
C213 C220 1.496 . S
C214 C215 1.399 . S
C214 C218 1.389 . S
C215 C214 1.399 . S
C215 C217 1.380 . S
C215 H232 0.929 . S
C216 C213 1.399 . S
C216 C217 1.392 . S
C216 H233 0.929 . S
C217 C215 1.380 . S
C217 C216 1.392 . S
C217 H234 0.929 . S
C218 C213 1.383 . S
C218 C214 1.389 . S
C218 H235 0.931 . S
C219 O204 1.266 . S
C219 O205 1.248 . S
C220 Tb156 2.802 . S
C220 O200 1.264 . S
C220 O203 1.256 . S
C220 C213 1.496 . S
C221 C188 1.448 . S
C221 H198 0.930 . S
C221 C222 1.328 . S
C222 C193 1.427 . S
C222 H199 0.929 . S
C222 C221 1.328 . S
C223 O207 1.264 . S
C223 O208 1.250 . S
C224 C227 1.399 . S
C224 C228 1.383 . S
C224 C231 1.496 . S
C225 C226 1.399 . S
C225 C228 1.389 . S
C226 C225 1.399 . S
C226 C229 1.380 . S
C226 H236 0.929 . S
C227 C224 1.399 . S
C227 C229 1.392 . S
C227 H237 0.929 . S
C228 C224 1.383 . S
C228 C225 1.389 . S
C228 H238 0.931 . S
C229 C226 1.380 . S
C229 C227 1.392 . S
C229 H239 0.929 . S
C230 O210 1.266 . S
C230 O211 1.248 . S
C231 Tb167 2.802 . S
C231 O206 1.264 . S
C231 O209 1.256 . S
C231 C224 1.496 . S
H232 C215 0.929 . S
H233 C216 0.929 . S
H234 C217 0.929 . S
H235 C218 0.931 . S
H236 C226 0.929 . S
H237 C227 0.929 . S
H238 C228 0.931 . S
H239 C229 0.929 . S
Tb240 N269 2.617 . S
Tb240 N275 2.572 1_556 S
Tb240 O284 2.465 . S
Tb240 O285 2.387 1_556 S
Tb240 O287 2.428 . S
Tb240 O288 2.308 1_556 S
Tb240 O292 2.349 . S
Tb240 O295 2.393 1_556 S
Tb240 C304 2.802 . S
C241 N242 1.379 . S
C241 C244 1.416 . S
C241 C248 1.424 . S
N242 C241 1.379 . S
N242 C245 1.334 . S
N242 Tb251 2.617 . S
C243 C245 1.390 . S
C243 C246 1.339 . S
C243 H263 0.930 . S
C244 C241 1.416 . S
C244 C246 1.416 . S
C244 C250 1.448 . S
C245 N242 1.334 . S
C245 C243 1.390 . S
C245 H256 0.930 . S
C246 C243 1.339 . S
C246 C244 1.416 . S
C246 H267 0.930 . S
C247 C248 1.413 . S
C247 C249 1.427 . S
C247 C253 1.416 . S
C248 C241 1.424 . S
C248 C247 1.413 . S
C248 N252 1.361 . S
C249 C247 1.427 . S
C249 C250 1.328 . S
C249 H264 0.929 . S
C250 C244 1.448 . S
C250 C249 1.328 . S
C250 H265 0.930 . S
Tb251 N242 2.617 . S
Tb251 N252 2.572 . S
Tb251 O286 2.349 . S
Tb251 O289 2.393 . S
Tb251 O290 2.465 . S
Tb251 O291 2.387 . S
Tb251 O293 2.428 . S
Tb251 O294 2.308 . S
Tb251 C315 2.802 . S
N252 C248 1.361 . S
N252 Tb251 2.572 . S
N252 C254 1.340 . S
C253 C247 1.416 . S
C253 C255 1.332 . S
C253 H261 0.931 . S
C254 N252 1.340 . S
C254 C255 1.407 . S
C254 H260 0.930 . S
C255 C253 1.332 . S
C255 C254 1.407 . S
C255 H257 0.929 . S
H256 C245 0.930 . S
H257 C255 0.929 . S
H258 C273 0.930 . S
H259 C280 0.929 . S
H260 C254 0.930 . S
H261 C253 0.931 . S
H262 C276 0.930 . S
H263 C243 0.930 . S
H264 C249 0.929 . S
H265 C250 0.930 . S
H266 C271 0.930 . S
H267 C246 0.930 . S
H268 C279 0.931 . S
N269 Tb240 2.617 . S
N269 C270 1.380 1_556 S
N269 C273 1.335 . S
C270 N269 1.380 1_554 S
C270 C272 1.416 . S
C270 C278 1.424 . S
C271 H266 0.930 . S
C271 C273 1.390 . S
C271 C274 1.339 1_556 S
C272 C270 1.416 . S
C272 C274 1.416 . S
C272 C305 1.448 . S
C273 H258 0.930 . S
C273 N269 1.335 . S
C273 C271 1.390 . S
C274 C271 1.339 1_554 S
C274 C272 1.416 . S
C274 H281 0.930 . S
N275 Tb240 2.572 1_554 S
N275 C276 1.340 . S
N275 C278 1.361 . S
C276 H262 0.930 . S
C276 N275 1.340 . S
C276 C280 1.407 . S
C277 C278 1.413 . S
C277 C279 1.416 . S
C277 C306 1.427 . S
C278 C270 1.424 . S
C278 N275 1.361 . S
C278 C277 1.413 . S
C279 H268 0.931 . S
C279 C277 1.416 . S
C279 C280 1.332 . S
C280 H259 0.929 . S
C280 C276 1.407 . S
C280 C279 1.332 . S
H281 C274 0.930 . S
H282 C305 0.930 . S
H283 C306 0.929 . S
O284 Tb240 2.465 . S
O284 C304 1.264 . S
O285 Tb240 2.387 1_554 S
O285 C296 1.264 . S
O286 Tb251 2.349 . S
O286 C296 1.243 . S
O287 Tb240 2.428 . S
O287 C304 1.256 . S
O288 Tb240 2.308 1_554 S
O288 C303 1.266 . S
O289 Tb251 2.393 . S
O289 C303 1.248 . S
O290 Tb251 2.465 . S
O290 C315 1.264 . S
O291 Tb251 2.387 . S
O291 C307 1.264 1_554 S
O292 Tb240 2.349 . S
O292 C307 1.243 . S
O293 Tb251 2.428 . S
O293 C315 1.256 . S
O294 Tb251 2.308 . S
O294 C314 1.266 . S
O295 Tb240 2.393 1_554 S
O295 C314 1.248 . S
C296 O285 1.264 . S
C296 O286 1.243 . S
C297 C300 1.399 . S
C297 C302 1.383 . S
C297 C304 1.496 . S
C298 C299 1.399 . S
C298 C302 1.389 . S
C299 C298 1.399 . S
C299 C301 1.380 . S
C299 H316 0.929 . S
C300 C297 1.399 . S
C300 C301 1.392 . S
C300 H317 0.929 . S
C301 C299 1.380 . S
C301 C300 1.392 . S
C301 H318 0.929 . S
C302 C297 1.383 . S
C302 C298 1.389 . S
C302 H319 0.931 . S
C303 O288 1.266 . S
C303 O289 1.248 . S
C304 Tb240 2.802 . S
C304 O284 1.264 . S
C304 O287 1.256 . S
C304 C297 1.496 . S
C305 C272 1.448 . S
C305 H282 0.930 . S
C305 C306 1.328 . S
C306 C277 1.427 . S
C306 H283 0.929 . S
C306 C305 1.328 . S
C307 O291 1.264 1_556 S
C307 O292 1.243 . S
C308 C311 1.399 . S
C308 C312 1.383 . S
C308 C315 1.496 . S
C309 C310 1.399 . S
C309 C312 1.389 . S
C310 C309 1.399 . S
C310 C313 1.380 . S
C310 H320 0.929 . S
C311 C308 1.399 . S
C311 C313 1.392 . S
C311 H321 0.929 . S
C312 C308 1.383 . S
C312 C309 1.389 . S
C312 H322 0.931 . S
C313 C310 1.380 . S
C313 C311 1.392 . S
C313 H323 0.929 . S
C314 O294 1.266 . S
C314 O295 1.248 . S
C315 Tb251 2.802 . S
C315 O290 1.264 . S
C315 O293 1.256 . S
C315 C308 1.496 . S
H316 C299 0.929 . S
H317 C300 0.929 . S
H318 C301 0.929 . S
H319 C302 0.931 . S
H320 C310 0.929 . S
H321 C311 0.929 . S
H322 C312 0.931 . S
H323 C313 0.929 . S
C324 C325 1.363 . S
C324 C330 1.379 . S
C324 N332 1.356 . S
C325 C324 1.363 . S
C325 C331 1.363 . S
C326 C327 1.363 . S
C326 C331 1.379 . S
C326 N333 1.356 . S
C327 C326 1.363 . S
C327 C330 1.363 . S
N328 C330 1.356 . S
N328 H340 0.984 . S
N328 H341 0.985 . S
N329 C331 1.356 . S
N329 H334 0.984 . S
N329 H335 0.985 . S
C330 C324 1.379 . S
C330 C327 1.363 . S
C330 N328 1.356 . S
C331 C325 1.363 . S
C331 C326 1.379 . S
C331 N329 1.356 . S
N332 C324 1.356 . S
N332 H338 0.984 . S
N332 H339 0.984 . S
N333 C326 1.356 . S
N333 H336 0.984 . S
N333 H337 0.985 . S
H334 N329 0.984 . S
H335 N329 0.985 . S
H336 N333 0.984 . S
H337 N333 0.985 . S
H338 N332 0.984 . S
H339 N332 0.984 . S
H340 N328 0.984 . S
H341 N328 0.985 . S
C342 C343 1.363 . S
C342 C348 1.379 . S
C342 N350 1.356 1_554 S
C343 C342 1.363 . S
C343 C349 1.363 . S
C344 C345 1.363 . S
C344 C349 1.379 . S
C344 N351 1.356 . S
C345 C344 1.363 . S
C345 C348 1.363 . S
N346 C348 1.356 1_556 S
N346 H358 0.984 . S
N346 H359 0.985 . S
N347 C349 1.356 . S
N347 H352 0.984 . S
N347 H353 0.985 . S
C348 C342 1.379 . S
C348 C345 1.363 . S
C348 N346 1.356 1_554 S
C349 C343 1.363 . S
C349 C344 1.379 . S
C349 N347 1.356 . S
N350 C342 1.356 1_556 S
N350 H356 0.984 . S
N350 H357 0.984 . S
N351 C344 1.356 . S
N351 H354 0.984 . S
N351 H355 0.985 . S
H352 N347 0.984 . S
H353 N347 0.985 . S
H354 N351 0.984 . S
H355 N351 0.985 . S
H356 N350 0.984 . S
H357 N350 0.984 . S
H358 N346 0.984 . S
H359 N346 0.985 . S
C360 C361 1.363 . S
C360 C366 1.379 . S
C360 N368 1.356 . S
C361 C360 1.363 . S
C361 C367 1.363 . S
C362 C363 1.363 . S
C362 C367 1.379 . S
C362 N369 1.356 . S
C363 C362 1.363 . S
C363 C366 1.363 . S
N364 C366 1.356 . S
N364 H376 0.984 . S
N364 H377 0.985 . S
N365 C367 1.356 . S
N365 H370 0.984 . S
N365 H371 0.985 . S
C366 C360 1.379 . S
C366 C363 1.363 . S
C366 N364 1.356 . S
C367 C361 1.363 . S
C367 C362 1.379 . S
C367 N365 1.356 . S
N368 C360 1.356 . S
N368 H374 0.984 . S
N368 H375 0.984 . S
N369 C362 1.356 . S
N369 H372 0.984 . S
N369 H373 0.985 1_565 S
H370 N365 0.984 . S
H371 N365 0.985 . S
H372 N369 0.984 . S
H373 N369 0.985 1_545 S
H374 N368 0.984 . S
H375 N368 0.984 . S
H376 N364 0.984 . S
H377 N364 0.985 . S
C378 C379 1.363 1_556 S
C378 C384 1.385 . S
C378 N386 1.356 . S
C379 C378 1.363 1_554 S
C379 C385 1.363 . S
C380 C381 1.363 . S
C380 C385 1.379 . S
C380 N387 1.356 . S
C381 C380 1.363 . S
C381 C384 1.345 1_554 S
N382 C384 1.364 . S
N382 H394 0.984 . S
N382 H395 0.985 . S
N383 C385 1.356 . S
N383 H388 0.984 . S
N383 H389 0.985 . S
C384 C378 1.385 . S
C384 C381 1.345 1_556 S
C384 N382 1.364 . S
C385 C379 1.363 . S
C385 C380 1.379 . S
C385 N383 1.356 . S
N386 C378 1.356 . S
N386 H392 0.984 . S
N386 H393 0.984 . S
N387 C380 1.356 . S
N387 H390 0.984 . S
N387 H391 0.985 . S
H388 N383 0.984 . S
H389 N383 0.985 . S
H390 N387 0.984 . S
H391 N387 0.985 . S
H392 N386 0.984 . S
H393 N386 0.984 . S
H394 N382 0.984 . S
H395 N382 0.985 . S
C396 C397 1.363 . S
C396 C402 1.379 . S
C396 N404 1.356 . S
C397 C396 1.363 . S
C397 C403 1.363 . S
C398 C399 1.363 . S
C398 C403 1.379 . S
C398 N405 1.356 . S
C399 C398 1.363 . S
C399 C402 1.363 . S
N400 C402 1.356 1_545 S
N400 H412 0.984 . S
N400 H413 0.985 . S
N401 C403 1.356 . S
N401 H406 0.984 . S
N401 H407 0.985 . S
C402 C396 1.379 . S
C402 C399 1.363 . S
C402 N400 1.356 1_565 S
C403 C397 1.363 . S
C403 C398 1.379 . S
C403 N401 1.356 . S
N404 C396 1.356 . S
N404 H410 0.984 1_565 S
N404 H411 0.984 . S
N405 C398 1.356 . S
N405 H408 0.984 . S
N405 H409 0.985 . S
H406 N401 0.984 . S
H407 N401 0.985 . S
H408 N405 0.984 . S
H409 N405 0.985 . S
H410 N404 0.984 1_545 S
H411 N404 0.984 . S
H412 N400 0.984 . S
H413 N400 0.985 . S
C414 C415 1.363 . S
C414 C420 1.379 . S
C414 N422 1.356 . S
C415 C414 1.363 . S
C415 C421 1.363 . S
C416 C417 1.363 . S
C416 C421 1.379 . S
C416 N423 1.356 . S
C417 C416 1.363 . S
C417 C420 1.363 . S
N418 C420 1.356 . S
N418 H430 0.984 . S
N418 H431 0.985 . S
N419 C421 1.356 . S
N419 H424 0.984 . S
N419 H425 0.985 . S
C420 C414 1.379 . S
C420 C417 1.363 . S
C420 N418 1.356 . S
C421 C415 1.363 . S
C421 C416 1.379 . S
C421 N419 1.356 . S
N422 C414 1.356 . S
N422 H428 0.984 . S
N422 H429 0.984 . S
N423 C416 1.356 . S
N423 H426 0.984 . S
N423 H427 0.985 . S
H424 N419 0.984 . S
H425 N419 0.985 . S
H426 N423 0.984 . S
H427 N423 0.985 . S
H428 N422 0.984 . S
H429 N422 0.984 . S
H430 N418 0.984 . S
H431 N418 0.985 . S
C432 C433 1.363 . S
C432 C438 1.379 . S
C432 N440 1.356 . S
C433 C432 1.363 . S
C433 C439 1.363 . S
C434 C435 1.363 . S
C434 C439 1.379 . S
C434 N441 1.356 1_545 S
C435 C434 1.363 . S
C435 C438 1.363 . S
N436 C438 1.356 . S
N436 H448 0.984 . S
N436 H449 0.985 . S
N437 C439 1.356 1_565 S
N437 H442 0.984 . S
N437 H443 0.985 . S
C438 C432 1.379 . S
C438 C435 1.363 . S
C438 N436 1.356 . S
C439 C433 1.363 . S
C439 C434 1.379 . S
C439 N437 1.356 1_545 S
N440 C432 1.356 . S
N440 H446 0.984 . S
N440 H447 0.984 . S
N441 C434 1.356 1_565 S
N441 H444 0.984 . S
N441 H445 0.985 . S
H442 N437 0.984 . S
H443 N437 0.985 . S
H444 N441 0.984 . S
H445 N441 0.985 . S
H446 N440 0.984 . S
H447 N440 0.984 . S
H448 N436 0.984 . S
H449 N436 0.985 . S
C450 C451 1.363 . S
C450 C456 1.379 . S
C450 N458 1.356 . S
C451 C450 1.363 . S
C451 C457 1.363 . S
C452 C453 1.363 . S
C452 C457 1.379 . S
C452 N459 1.356 . S
C453 C452 1.363 . S
C453 C456 1.363 . S
N454 C456 1.356 . S
N454 H466 0.984 . S
N454 H467 0.985 . S
N455 C457 1.356 . S
N455 H460 0.984 . S
N455 H461 0.985 . S
C456 C450 1.379 . S
C456 C453 1.363 . S
C456 N454 1.356 . S
C457 C451 1.363 . S
C457 C452 1.379 . S
C457 N455 1.356 . S
N458 C450 1.356 . S
N458 H464 0.984 . S
N458 H465 0.984 . S
N459 C452 1.356 . S
N459 H462 0.984 . S
N459 H463 0.985 . S
H460 N455 0.984 . S
H461 N455 0.985 . S
H462 N459 0.984 . S
H463 N459 0.985 . S
H464 N458 0.984 . S
H465 N458 0.984 . S
H466 N454 0.984 . S
H467 N454 0.985 . S
C468 C469 1.363 . S
C468 C474 1.379 . S
C468 N476 1.356 . S
C469 C468 1.363 . S
C469 C475 1.363 . S
C470 C471 1.363 . S
C470 C475 1.379 . S
C470 N477 1.356 . S
C471 C470 1.363 . S
C471 C474 1.363 . S
N472 C474 1.356 . S
N472 H484 0.984 . S
N472 H485 0.985 . S
N473 C475 1.356 . S
N473 H478 0.984 . S
N473 H479 0.985 . S
C474 C468 1.379 . S
C474 C471 1.363 . S
C474 N472 1.356 . S
C475 C469 1.363 . S
C475 C470 1.379 . S
C475 N473 1.356 . S
N476 C468 1.356 . S
N476 H482 0.984 . S
N476 H483 0.984 . S
N477 C470 1.356 . S
N477 H480 0.984 . S
N477 H481 0.985 . S
H478 N473 0.984 . S
H479 N473 0.985 . S
H480 N477 0.984 . S
H481 N477 0.985 . S
H482 N476 0.984 . S
H483 N476 0.984 . S
H484 N472 0.984 . S
H485 N472 0.985 . S
C486 C487 1.363 . S
C486 C492 1.379 . S
C486 N494 1.356 . S
C487 C486 1.363 . S
C487 C493 1.363 . S
C488 C489 1.363 . S
C488 C493 1.379 . S
C488 N495 1.356 . S
C489 C488 1.363 . S
C489 C492 1.363 . S
N490 C492 1.356 . S
N490 H502 0.984 1_545 S
N490 H503 0.985 . S
N491 C493 1.356 . S
N491 H496 0.984 . S
N491 H497 0.985 . S
C492 C486 1.379 . S
C492 C489 1.363 . S
C492 N490 1.356 . S
C493 C487 1.363 . S
C493 C488 1.379 . S
C493 N491 1.356 . S
N494 C486 1.356 . S
N494 H500 0.984 . S
N494 H501 0.984 . S
N495 C488 1.356 . S
N495 H498 0.984 . S
N495 H499 0.985 . S
H496 N491 0.984 . S
H497 N491 0.985 . S
H498 N495 0.984 . S
H499 N495 0.985 . S
H500 N494 0.984 . S
H501 N494 0.984 . S
H502 N490 0.984 1_565 S
H503 N490 0.985 . S
C504 C505 1.363 . S
C504 C510 1.379 . S
C504 N512 1.356 . S
C505 C504 1.363 . S
C505 C511 1.363 . S
C506 C507 1.363 . S
C506 C511 1.379 . S
C506 N513 1.356 . S
C507 C506 1.363 . S
C507 C510 1.363 . S
N508 C510 1.356 . S
N508 H520 0.984 . S
N508 H521 0.985 . S
N509 C511 1.356 . S
N509 H514 0.984 . S
N509 H515 0.985 . S
C510 C504 1.379 . S
C510 C507 1.363 . S
C510 N508 1.356 . S
C511 C505 1.363 . S
C511 C506 1.379 . S
C511 N509 1.356 . S
N512 C504 1.356 . S
N512 H518 0.984 . S
N512 H519 0.984 . S
N513 C506 1.356 . S
N513 H516 0.984 . S
N513 H517 0.985 . S
H514 N509 0.984 . S
H515 N509 0.985 . S
H516 N513 0.984 . S
H517 N513 0.985 . S
H518 N512 0.984 . S
H519 N512 0.984 . S
H520 N508 0.984 . S
H521 N508 0.985 . S
C522 C523 1.363 . S
C522 C528 1.379 . S
C522 N530 1.356 1_565 S
C523 C522 1.363 . S
C523 C529 1.363 . S
C524 C525 1.363 . S
C524 C529 1.379 . S
C524 N531 1.356 . S
C525 C524 1.363 . S
C525 C528 1.363 . S
N526 C528 1.356 1_545 S
N526 H538 0.984 . S
N526 H539 0.985 . S
N527 C529 1.356 . S
N527 H532 0.984 . S
N527 H533 0.985 . S
C528 C522 1.379 . S
C528 C525 1.363 . S
C528 N526 1.356 1_565 S
C529 C523 1.363 . S
C529 C524 1.379 . S
C529 N527 1.356 . S
N530 C522 1.356 1_545 S
N530 H536 0.984 . S
N530 H537 0.984 1_545 S
N531 C524 1.356 . S
N531 H534 0.984 . S
N531 H535 0.985 . S
H532 N527 0.984 . S
H533 N527 0.985 . S
H534 N531 0.984 . S
H535 N531 0.985 . S
H536 N530 0.984 . S
H537 N530 0.984 1_565 S
H538 N526 0.984 . S
H539 N526 0.985 . S
C327 C219 1.681 . S
C325 C138 1.642 . S
C343 C21 1.637 . S
C345 C314 1.669 . S
C361 C60 1.651 . S
C363 C230 1.681 . S
C379 C99 1.651 . S
C381 C303 1.669 . S
C399 C214 1.431 . S
C397 C16 1.552 . S
C417 C307 1.635 . S
C415 C40 1.615 . S
C433 C79 1.635 . S
C435 C223 1.671 . S
C451 C133 1.537 . S
C453 C298 1.415 . S
C471 C309 1.415 . S
C469 C55 1.536 . S
C489 C225 1.431 . S
C487 C94 1.549 . S
C507 C296 1.635 . S
C505 C118 1.611 . S
C523 C1 1.627 . S
C525 C212 1.671 . S
