# Generated by pormake.
# Topology zzz, (3,6)-cn, num edge types: 1
# Building blocks:
#     Node 0, Type 0, BuildingBlock: BELTOD_clean_linker_0, # of connection points: 3
#     Node 1, Type 0, BuildingBlock: BELTOD_clean_linker_0, # of connection points: 3
#     Node 2, Type 0, BuildingBlock: BELTOD_clean_linker_0, # of connection points: 3
#     Node 3, Type 0, BuildingBlock: BELTOD_clean_linker_0, # of connection points: 3
#     Node 4, Type 0, BuildingBlock: BELTOD_clean_linker_0, # of connection points: 3
#     Node 5, Type 0, BuildingBlock: BELTOD_clean_linker_0, # of connection points: 3
#     Node 6, Type 0, BuildingBlock: BELTOD_clean_linker_0, # of connection points: 3
#     Node 7, Type 0, BuildingBlock: BELTOD_clean_linker_0, # of connection points: 3
#     Node 8, Type 1, BuildingBlock: NUHQIS_clean_sbu_0, # of connection points: 6
#     Node 9, Type 1, BuildingBlock: NUHQIS_clean_sbu_0, # of connection points: 6
#     Node 10, Type 1, BuildingBlock: NUHQIS_clean_sbu_0, # of connection points: 6
#     Node 11, Type 1, BuildingBlock: NUHQIS_clean_sbu_0, # of connection points: 6
#     Edge 12, Type (0, 1), BuildingBlock: CIFDUS_clean_linker_0, # of connection points: 2
#     Edge 13, Type (0, 1), BuildingBlock: CIFDUS_clean_linker_0, # of connection points: 2
#     Edge 14, Type (0, 1), BuildingBlock: CIFDUS_clean_linker_0, # of connection points: 2
#     Edge 15, Type (0, 1), BuildingBlock: CIFDUS_clean_linker_0, # of connection points: 2
#     Edge 16, Type (0, 1), BuildingBlock: CIFDUS_clean_linker_0, # of connection points: 2
#     Edge 17, Type (0, 1), BuildingBlock: CIFDUS_clean_linker_0, # of connection points: 2
#     Edge 18, Type (0, 1), BuildingBlock: CIFDUS_clean_linker_0, # of connection points: 2
#     Edge 19, Type (0, 1), BuildingBlock: CIFDUS_clean_linker_0, # of connection points: 2
#     Edge 20, Type (0, 1), BuildingBlock: CIFDUS_clean_linker_0, # of connection points: 2
#     Edge 21, Type (0, 1), BuildingBlock: CIFDUS_clean_linker_0, # of connection points: 2
#     Edge 22, Type (0, 1), BuildingBlock: CIFDUS_clean_linker_0, # of connection points: 2
#     Edge 23, Type (0, 1), BuildingBlock: CIFDUS_clean_linker_0, # of connection points: 2
#     Edge 24, Type (0, 1), BuildingBlock: CIFDUS_clean_linker_0, # of connection points: 2
#     Edge 25, Type (0, 1), BuildingBlock: CIFDUS_clean_linker_0, # of connection points: 2
#     Edge 26, Type (0, 1), BuildingBlock: CIFDUS_clean_linker_0, # of connection points: 2
#     Edge 27, Type (0, 1), BuildingBlock: CIFDUS_clean_linker_0, # of connection points: 2
#     Edge 28, Type (0, 1), BuildingBlock: CIFDUS_clean_linker_0, # of connection points: 2
#     Edge 29, Type (0, 1), BuildingBlock: CIFDUS_clean_linker_0, # of connection points: 2
#     Edge 30, Type (0, 1), BuildingBlock: CIFDUS_clean_linker_0, # of connection points: 2
#     Edge 31, Type (0, 1), BuildingBlock: CIFDUS_clean_linker_0, # of connection points: 2
#     Edge 32, Type (0, 1), BuildingBlock: CIFDUS_clean_linker_0, # of connection points: 2
#     Edge 33, Type (0, 1), BuildingBlock: CIFDUS_clean_linker_0, # of connection points: 2
#     Edge 34, Type (0, 1), BuildingBlock: CIFDUS_clean_linker_0, # of connection points: 2
#     Edge 35, Type (0, 1), BuildingBlock: CIFDUS_clean_linker_0, # of connection points: 2
# Relax obj value: 0.433
# Max RMSD: 0.239
# Mean RMSD: 0.224
data_MOF--net-zzz--node1-NUHQIS_clean_sbu_0--node2-BELTOD_clean_linker_0--edge1-CIFDUS_clean_linker_0
_symmetry_space_group_name_H-M    P1
_symmetry_Int_Tables_number       1
_symmetry_cell_setting            triclinic
loop_
_symmetry_equiv_pos_as_xyz
'x, y, z'
_cell_length_a     49.351602
_cell_length_b     49.447866
_cell_length_c     15.87629
_cell_angle_alpha  89.440758
_cell_angle_beta   89.898669
_cell_angle_gamma 90.055453
loop_
_atom_site_label
_atom_site_type_symbol
_atom_site_fract_x
_atom_site_fract_y
_atom_site_fract_z
_atom_type_partial_charge
P0 P 0.7268 0.47705 0.40422 0.0
H1 H 0.74129 0.48749 0.58007 0.0
H2 H 0.78504 0.49729 0.64381 0.0
H3 H 0.818 0.51638 0.3984 0.0
H4 H 0.77391 0.5067 0.3347 0.0
H5 H 0.67091 0.46261 0.37145 0.0
H6 H 0.638 0.47732 0.26742 0.0
H7 H 0.69245 0.54106 0.18684 0.0
H8 H 0.72581 0.52561 0.29142 0.0
H9 H 0.76119 0.43165 0.44859 0.0
H10 H 0.73422 0.47147 0.22072 0.0
O11 O 0.71107 0.45955 0.48038 0.0
H12 H 0.79708 0.4092 0.3693 0.0
H13 H 0.7699 0.44931 0.14188 0.0
C14 C 0.75402 0.49635 0.45221 0.0
C15 C 0.75751 0.4948 0.5399 0.0
C16 C 0.7828 0.50003 0.57642 0.0
C17 C 0.80534 0.50702 0.52622 0.0
C18 C 0.80118 0.51107 0.43919 0.0
C19 C 0.77578 0.50576 0.40261 0.0
C20 C 0.70076 0.49326 0.34068 0.0
C21 C 0.67558 0.48027 0.33324 0.0
C22 C 0.65661 0.48877 0.27323 0.0
C23 C 0.66234 0.51044 0.21793 0.0
C24 C 0.68732 0.52411 0.22751 0.0
C25 C 0.70636 0.51555 0.28811 0.0
C26 C 0.74498 0.45322 0.34078 0.0
C27 C 0.7622 0.43465 0.38098 0.0
C28 C 0.78282 0.42199 0.3358 0.0
C29 C 0.78643 0.42774 0.24968 0.0
C30 C 0.76747 0.44428 0.20803 0.0
C31 C 0.74701 0.45709 0.25339 0.0
P32 P 0.03631 0.72536 0.38709 0.0
H33 H 0.03484 0.74949 0.55344 0.0
H34 H 0.02337 0.79471 0.59639 0.0
H35 H 0.98171 0.80775 0.35999 0.0
H36 H 0.99558 0.76318 0.31469 0.0
H37 H 0.04389 0.66696 0.38517 0.0
H38 H 0.0313 0.63179 0.28698 0.0
H39 H 0.98505 0.6898 0.14224 0.0
H40 H 0.99745 0.72512 0.24166 0.0
H41 H 0.08244 0.75637 0.44411 0.0
H42 H 0.04362 0.73955 0.20704 0.0
O43 O 0.0521 0.7099 0.46705 0.0
H44 H 0.10459 0.79577 0.38076 0.0
H45 H 0.06538 0.77881 0.14412 0.0
C46 C 0.01576 0.75224 0.43094 0.0
C47 C 0.02234 0.76157 0.51168 0.0
C48 C 0.01575 0.78786 0.53641 0.0
C49 C 1.00194 0.80561 0.48147 0.0
C50 C 0.99309 0.79525 0.4036 0.0
C51 C 1.00034 0.76913 0.37815 0.0
C52 C 0.02158 0.69899 0.32207 0.0
C53 C 0.03046 0.67222 0.33378 0.0
C54 C 0.02323 0.65194 0.27725 0.0
C55 C 1.00723 0.65793 0.20639 0.0
C56 C 0.99757 0.68454 0.1959 0.0
C57 C 1.0045 0.7048 0.2535 0.0
C58 C 0.06127 0.74491 0.33061 0.0
C59 C 0.07963 0.76034 0.37748 0.0
C60 C 0.09207 0.78305 0.34153 0.0
C61 C 0.08637 0.7906 0.25794 0.0
C62 C 0.07029 0.77345 0.20862 0.0
C63 C 0.05771 0.75087 0.24486 0.0
P64 P 0.80295 0.03919 0.41798 0.0
H65 H 0.77883 0.0305 0.58337 0.0
H66 H 0.73261 0.02037 0.62137 0.0
H67 H 0.71808 0.9909 0.36973 0.0
H68 H 0.76419 1.00345 0.33054 0.0
H69 H 0.85278 0.06476 0.36783 0.0
H70 H 0.88801 0.05441 0.26603 0.0
H71 H 0.84698 0.98003 0.20449 0.0
H72 H 0.81112 0.99087 0.30702 0.0
H73 H 0.77067 0.08276 0.48651 0.0
H74 H 0.7898 0.0508 0.24171 0.0
O75 O 0.8184 0.05221 0.50185 0.0
H76 H 0.72976 0.10362 0.42896 0.0
H77 H 0.74933 0.07192 0.18388 0.0
C78 C 0.77555 0.01741 0.45415 0.0
C79 C 0.76617 0.02079 0.53696 0.0
C80 C 0.73925 0.01503 0.55876 0.0
C81 C 0.7208 1.00521 0.49862 0.0
C82 C 0.7311 0.99922 0.41773 0.0
C83 C 0.75798 1.00558 0.39555 0.0
C84 C 0.82944 0.02845 0.34629 0.0
C85 C 0.85144 0.04599 0.33347 0.0
C86 C 0.87174 0.03997 0.27525 0.0
C87 C 0.8707 0.01616 0.2277 0.0
C88 C 0.84846 0.99855 0.24001 0.0
C89 C 0.82799 1.00464 0.29895 0.0
C90 C 0.78338 0.06536 0.36835 0.0
C91 C 0.76696 0.08155 0.41942 0.0
C92 C 0.74343 0.09321 0.38679 0.0
C93 C 0.73627 0.08907 0.30237 0.0
C94 C 0.75447 0.07561 0.24908 0.0
C95 C 0.77778 0.06363 0.28207 0.0
P96 P 0.48443 0.79696 0.40935 0.0
H97 H 0.50395 0.77991 0.57624 0.0
H98 H 0.51884 0.73575 0.62686 0.0
H99 H 0.52705 0.70915 0.3696 0.0
H100 H 0.51343 0.75383 0.31974 0.0
H101 H 0.46098 0.84912 0.37573 0.0
H102 H 0.47158 0.88617 0.27952 0.0
H103 H 0.54188 0.84277 0.19164 0.0
H104 H 0.53064 0.80504 0.2886 0.0
H105 H 0.43958 0.76495 0.47451 0.0
H106 H 0.47418 0.78472 0.23206 0.0
O107 O 0.47071 0.81092 0.49473 0.0
H108 H 0.41576 0.72668 0.41284 0.0
H109 H 0.45097 0.74631 0.17044 0.0
C110 C 0.50744 0.77044 0.44385 0.0
C111 C 0.51005 0.76501 0.53046 0.0
C112 C 0.51807 0.73938 0.55955 0.0
C113 C 0.52341 0.71832 0.50274 0.0
C114 C 0.52318 0.72462 0.41583 0.0
C115 C 0.51549 0.75042 0.38688 0.0
C116 C 0.49537 0.82457 0.34123 0.0
C117 C 0.47899 0.84767 0.33698 0.0
C118 C 0.48514 0.86899 0.28186 0.0
C119 C 0.50788 0.86787 0.22859 0.0
C120 C 0.52423 0.84443 0.23188 0.0
C121 C 0.518 0.82292 0.28774 0.0
C122 C 0.45846 0.77783 0.35777 0.0
C123 C 0.44104 0.76184 0.40722 0.0
C124 C 0.42771 0.73975 0.37211 0.0
C125 C 0.43183 0.7332 0.2871 0.0
C126 C 0.44715 0.7509 0.23595 0.0
C127 C 0.46044 0.77301 0.27117 0.0
P128 P 0.29703 0.46458 0.05294 0.0
H129 H 0.27509 0.46395 0.88165 0.0
H130 H 0.23097 0.47787 0.82949 0.0
H131 H 0.21862 0.52499 0.05389 0.0
H132 H 0.26266 0.51025 0.10681 0.0
H133 H 0.3439 0.43773 0.12232 0.0
H134 H 0.3781 0.45028 0.22454 0.0
H135 H 0.34658 0.5318 0.2262 0.0
H136 H 0.31165 0.5186 0.12448 0.0
H137 H 0.25761 0.42133 0.02953 0.0
H138 H 0.28489 0.4724 0.23094 0.0
O139 O 0.30935 0.44203 0.98535 0.0
H140 H 0.21396 0.41581 0.09986 0.0
H141 H 0.24164 0.46835 0.29864 0.0
C142 C 0.27278 0.48624 0.9981 0.0
C143 C 0.26357 0.4783 0.91826 0.0
C144 C 0.23796 0.48617 0.88844 0.0
C145 C 0.22066 0.50221 0.9378 0.0
C146 C 0.23095 0.51215 0.01449 0.0
C147 C 0.25662 0.50424 0.0442 0.0
C148 C 0.32534 0.47726 0.11438 0.0
C149 C 0.34469 0.45853 0.14298 0.0
C150 C 0.36441 0.4658 0.20182 0.0
C151 C 0.36541 0.49214 0.23445 0.0
C152 C 0.3464 0.51122 0.20367 0.0
C153 C 0.32649 0.50381 0.14457 0.0
C154 C 0.2744 0.44756 0.12434 0.0
C155 C 0.25477 0.43018 0.09105 0.0
C156 C 0.22959 0.42747 0.13068 0.0
C157 C 0.2237 0.44252 0.20325 0.0
C158 C 0.24503 0.45642 0.24286 0.0
C159 C 0.27018 0.45881 0.20378 0.0
P160 P 0.04521 0.27034 0.15962 0.0
H161 H 0.07576 0.25916 1.0056 0.0
H162 H 0.07109 0.22269 0.90394 0.0
H163 H 0.99122 0.20499 1.00142 0.0
H164 H 0.99558 0.24185 0.10004 0.0
H165 H 0.08434 0.30627 0.23677 0.0
H166 H 0.07971 0.35069 0.29768 0.0
H167 H 1.00135 0.35962 0.18029 0.0
H168 H 1.00671 0.31498 0.11531 0.0
H169 H 0.05331 0.22996 0.29327 0.0
H170 H 0.98884 0.28223 0.20705 0.0
O171 O 0.07653 0.25955 0.18118 0.0
H172 H 0.02237 0.20885 0.39388 0.0
H173 H 0.95792 0.26124 0.3081 0.0
C174 C 0.0363 0.2533 0.06219 0.0
C175 C 0.05676 0.24822 1.00286 0.0
C176 C 0.05422 0.22692 0.94547 0.0
C177 C 0.0311 0.21012 0.94588 0.0
C178 C 0.00942 0.21722 0.99904 0.0
C179 C 0.01197 0.23856 0.05622 0.0
C180 C 0.04577 0.30686 0.17162 0.0
C181 C 0.0665 0.31796 0.22098 0.0
C182 C 0.06365 0.3434 0.25738 0.0
C183 C 0.03976 0.35845 0.24655 0.0
C184 C 0.01996 0.3485 0.19076 0.0
C185 C 0.023 0.32292 0.15341 0.0
C186 C 0.02352 0.25782 0.24264 0.0
C187 C 0.03275 0.23744 0.29728 0.0
C188 C 0.01507 0.22551 0.35538 0.0
C189 C 0.98779 0.23356 0.359 0.0
C190 C 0.97888 0.25478 0.30677 0.0
C191 C 0.99665 0.26688 0.24926 0.0
P192 P 0.24058 0.04476 0.11295 0.0
H193 H 0.26234 0.07404 0.96553 0.0
H194 H 0.30085 0.06336 0.87571 0.0
H195 H 0.299 0.98082 0.96709 0.0
H196 H 0.2597 0.99148 0.05411 0.0
H197 H 0.19969 0.08065 0.1822 0.0
H198 H 0.15704 0.0715 0.25272 0.0
H199 H 0.15887 0.98945 0.16251 0.0
H200 H 0.2021 0.99893 0.09061 0.0
H201 H 0.29715 0.04434 0.1581 0.0
H202 H 0.22392 1.00633 0.25081 0.0
O203 O 0.24758 0.07758 0.12383 0.0
H204 H 0.32401 0.01305 0.24314 0.0
H205 H 0.25078 0.97481 0.33415 0.0
C206 C 0.25802 0.03371 0.01783 0.0
C207 C 0.26938 0.05333 0.96374 0.0
C208 C 0.29196 0.04727 0.91338 0.0
C209 C 0.30398 0.02141 0.91594 0.0
C210 C 0.29065 1.00102 0.96315 0.0
C211 C 0.26782 1.00706 0.01282 0.0
C212 C 0.20434 0.04053 0.13046 0.0
C213 C 0.19053 0.06096 0.174 0.0
C214 C 0.16594 0.05566 0.21502 0.0
C215 C 0.15456 0.02961 0.21475 0.0
C216 C 0.16721 0.00969 0.16502 0.0
C217 C 0.19174 0.01519 0.12257 0.0
C218 C 0.25853 0.02734 0.19583 0.0
C219 C 0.28679 0.02967 0.1978 0.0
C220 C 0.30211 0.01157 0.24547 0.0
C221 C 0.28936 0.99102 0.2927 0.0
C222 C 0.26102 0.99022 0.29695 0.0
C223 C 0.24566 0.00826 0.24862 0.0
P224 P 0.46383 0.23536 0.0765 0.0
H225 H 0.44887 0.25506 0.9078 0.0
H226 H 0.46404 0.29556 0.83314 0.0
H227 H 0.53396 0.29981 0.99546 0.0
H228 H 0.51888 0.2588 0.06895 0.0
H229 H 0.43186 0.19384 0.15779 0.0
H230 H 0.44321 0.15403 0.24164 0.0
H231 H 0.52743 0.16364 0.1746 0.0
H232 H 0.51588 0.20438 0.09062 0.0
H233 H 0.44774 0.29124 0.09149 0.0
H234 H 0.48655 0.23124 0.24929 0.0
O235 O 0.43136 0.23413 0.04745 0.0
H236 H 0.4676 0.3268 0.17458 0.0
H237 H 0.50458 0.26664 0.3375 0.0
C238 C 0.48259 0.25358 0.99468 0.0
C239 C 0.46815 0.26383 0.92516 0.0
C240 C 0.47659 0.28753 0.88333 0.0
C241 C 0.4998 0.30169 0.90972 0.0
C242 C 0.51593 0.28968 0.97314 0.0
C243 C 0.50749 0.26582 0.01475 0.0
C244 C 0.47287 0.20191 0.11589 0.0
C245 C 0.45272 0.18709 0.15861 0.0
C246 C 0.45926 0.16442 0.20768 0.0
C247 C 0.48622 0.15576 0.21547 0.0
C248 C 0.50642 0.16976 0.16949 0.0
C249 C 0.49984 0.19291 0.1209 0.0
C250 C 0.46624 0.25862 0.16237 0.0
C251 C 0.45936 0.28567 0.14683 0.0
C252 C 0.47083 0.3061 0.19489 0.0
C253 C 0.48862 0.29969 0.26135 0.0
C254 C 0.49202 0.27236 0.28441 0.0
C255 C 0.48128 0.25195 0.23446 0.0
Tb256 Tb 0.02762 1.0059 0.75387 0.0
Eu257 Eu 0.97564 0.01661 0.63292 0.0
C258 C 0.03554 0.02243 0.56174 0.0
C259 C 1.00458 0.06487 0.73422 0.0
C260 C 0.07661 0.97316 0.90103 0.0
C261 C 0.10966 0.93855 0.93685 0.0
C262 C 0.10241 0.96172 0.89119 0.0
C263 C 0.05845 0.96173 0.95955 0.0
C264 C 0.06582 0.93877 1.00595 0.0
C265 C 0.09128 0.92667 0.99379 0.0
C266 C 0.06842 0.99554 0.84494 0.0
O267 O 0.99278 0.00895 0.83961 0.0
O268 O 0.96031 0.99476 0.74836 0.0
O269 O 0.99116 0.97494 0.60249 0.0
O270 O 0.0098 0.96601 0.73169 0.0
C271 C 0.96809 1.00008 0.82524 0.0
O272 O 0.93179 0.02008 0.6228 0.0
O273 O 0.95636 0.02313 0.51043 0.0
O274 O 0.01152 0.03382 0.56174 0.0
O275 O 0.04301 1.00651 0.62423 0.0
O276 O 0.0266 0.04986 0.73705 0.0
O277 O 0.98135 0.0547 0.70894 0.0
C278 C 1.00047 0.95766 0.6587 0.0
O279 O 0.06658 0.98936 0.76577 0.0
O280 O 0.04818 0.01053 0.86884 0.0
C281 C 0.9188 0.05235 0.52014 0.0
C282 C 0.90614 0.10621 0.47862 0.0
C283 C 0.91227 0.08759 0.41497 0.0
C284 C 0.91856 0.06084 0.43569 0.0
C285 C 0.90951 0.07012 0.58258 0.0
C286 C 0.90315 0.09683 0.56183 0.0
C287 C 0.93241 0.02683 0.54333 0.0
H288 H 0.12943 0.92965 0.92665 0.0
H289 H 0.11666 0.97023 0.84617 0.0
H290 H 0.03831 0.97001 0.96768 0.0
H291 H 0.05115 0.92978 0.04868 0.0
H292 H 0.91486 0.0942 0.35021 0.0
H293 H 0.92539 0.04741 0.38653 0.0
H294 H 0.90907 0.0641 0.64834 0.0
H295 H 0.89812 0.1107 0.61189 0.0
Tb296 Tb 0.52103 0.03464 0.78493 0.0
Eu297 Eu 0.50695 0.98574 0.65583 0.0
C298 C 0.50369 0.04775 0.59343 0.0
C299 C 0.4601 0.01772 0.75871 0.0
C300 C 0.55468 0.07907 0.94401 0.0
C301 C 0.58635 0.11245 0.99641 0.0
C302 C 0.56379 0.10589 0.94786 0.0
C303 C 0.56772 0.05896 0.99185 0.0
C304 C 0.59011 0.06559 0.04129 0.0
C305 C 0.59995 0.09229 0.04247 0.0
C306 C 0.53308 0.07243 0.88439 0.0
O307 O 0.51516 0.99818 0.86322 0.0
O308 O 0.5297 0.96816 0.76591 0.0
O309 O 0.54974 0.99866 0.62397 0.0
O310 O 0.56024 0.01659 0.75256 0.0
C311 C 0.52395 0.9739 0.84417 0.0
O312 O 0.4973 0.9429 0.64676 0.0
O313 O 0.50196 0.96681 0.53304 0.0
O314 O 0.49506 0.02296 0.58113 0.0
O315 O 0.51633 0.05491 0.66268 0.0
O316 O 0.47741 0.03768 0.76767 0.0
O317 O 0.46802 0.99423 0.72903 0.0
C318 C 0.5677 1.00731 0.67848 0.0
O319 O 0.54059 0.07157 0.80591 0.0
O320 O 0.51689 0.05249 0.90403 0.0
C321 C 0.46746 0.93445 0.53679 0.0
C322 C 0.41635 0.92226 0.46958 0.0
C323 C 0.43959 0.90852 0.44142 0.0
C324 C 0.4651 0.91468 0.47464 0.0
C325 C 0.44419 0.94682 0.56883 0.0
C326 C 0.41893 0.94082 0.53572 0.0
C327 C 0.49393 0.94382 0.56545 0.0
H328 H 0.5935 0.13318 0.99668 0.0
H329 H 0.55396 0.12163 0.91108 0.0
H330 H 0.56114 0.03808 0.98902 0.0
H331 H 0.60047 0.04964 0.07559 0.0
H332 H 0.43814 0.89399 0.39116 0.0
H333 H 0.48296 0.90484 0.44974 0.0
H334 H 0.44568 0.96215 0.61679 0.0
H335 H 0.40176 0.95235 0.55809 0.0
Tb336 Tb 0.48559 0.5194 0.7867 0.0
Eu337 Eu 0.53948 0.50691 0.67521 0.0
C338 C 0.48044 0.50377 0.59369 0.0
C339 C 0.50479 0.45895 0.7648 0.0
C340 C 0.43614 0.55288 0.92853 0.0
C341 C 0.40409 0.58822 0.96445 0.0
C342 C 0.41071 0.56515 0.91869 0.0
C343 C 0.45457 0.5634 0.98695 0.0
C344 C 0.44784 0.58628 0.03342 0.0
C345 C 0.42274 0.59919 0.02141 0.0
C346 C 0.44386 0.53081 0.87196 0.0
O347 O 0.51876 0.51422 0.87774 0.0
O348 O 0.55511 0.52525 0.7946 0.0
O349 O 0.52749 0.55011 0.64636 0.0
O350 O 0.50446 0.559 0.76796 0.0
C351 C 0.5445 0.52094 0.86928 0.0
O352 O 0.57922 0.48825 0.65903 0.0
O353 O 0.5629 0.51386 0.56065 0.0
O354 O 0.50437 0.49219 0.59673 0.0
O355 O 0.47211 0.5193 0.65527 0.0
O356 O 0.48414 0.47576 0.76721 0.0
O357 O 0.52917 0.46751 0.74357 0.0
C358 C 0.51649 0.56739 0.69845 0.0
O359 O 0.44751 0.53804 0.79382 0.0
O360 O 0.46271 0.51426 0.89768 0.0
C361 C 0.58363 0.47351 0.51827 0.0
C362 C 0.56776 0.43046 0.41614 0.0
C363 C 0.56832 0.45689 0.38315 0.0
C364 C 0.57646 0.4783 0.43373 0.0
C365 C 0.58703 0.4467 0.5465 0.0
C366 C 0.57906 0.4253 0.49577 0.0
C367 C 0.5809 0.49552 0.57987 0.0
H368 H 0.38459 0.59775 0.95432 0.0
H369 H 0.39629 0.55737 0.87355 0.0
H370 H 0.47447 0.5545 0.99486 0.0
H371 H 0.46274 0.59455 0.07607 0.0
H372 H 0.56033 0.46123 0.32095 0.0
H373 H 0.57437 0.49875 0.40949 0.0
H374 H 0.59313 0.44227 0.61067 0.0
H375 H 0.5791 0.40506 0.52248 0.0
Tb376 Tb 0.00929 0.49535 0.77501 0.0
Eu377 Eu 0.02284 0.53809 0.62433 0.0
C378 C 0.02456 0.47472 0.59528 0.0
C379 C 0.06993 0.51315 0.74051 0.0
C380 C 0.97587 0.45336 0.94418 0.0
C381 C 0.94233 0.42082 0.99346 0.0
C382 C 0.96391 0.42764 0.9403 0.0
C383 C 0.9663 0.47203 1.00332 0.0
C384 C 0.94491 0.46512 0.05699 0.0
C385 C 0.93259 0.43954 0.05211 0.0
C386 C 0.9983 0.46011 0.88637 0.0
O387 O 0.9969 0.53398 0.82866 0.0
O388 O 0.02118 0.56286 0.74254 0.0
O389 O 0.97817 0.54255 0.64516 0.0
O390 O 0.97088 0.50091 0.70575 0.0
C391 C 1.00749 0.55793 0.8122 0.0
O392 O 0.04752 0.57079 0.57193 0.0
O393 O 0.01504 0.55395 0.49781 0.0
O394 O 0.01575 0.4976 0.56376 0.0
O395 O 0.02981 0.47265 0.67614 0.0
O396 O 0.05133 0.50773 0.79768 0.0
O397 O 0.06294 0.5195 0.66299 0.0
C398 C 0.96179 0.52267 0.66599 0.0
O399 O 0.99344 0.45709 0.80641 0.0
O400 O 0.01183 0.48223 0.90078 0.0
C401 C 0.058 0.55864 0.43323 0.0
C402 C 0.10055 0.52766 0.36745 0.0
C403 C 0.10606 0.55199 0.40898 0.0
C404 C 0.08491 0.56754 0.44091 0.0
C405 C 0.05247 0.53618 0.38199 0.0
C406 C 0.07364 0.52077 0.34944 0.0
C407 C 0.03784 0.56737 0.49625 0.0
H408 H 0.93327 0.40093 0.98878 0.0
H409 H 0.97113 0.41288 0.89555 0.0
H410 H 0.9751 0.49204 0.0077 0.0
H411 H 0.93752 0.48006 0.10086 0.0
H412 H 0.12675 0.55802 0.42166 0.0
H413 H 0.08976 0.58491 0.47916 0.0
H414 H 0.03195 0.52888 0.37381 0.0
H415 H 0.06892 0.50223 0.31675 0.0
H416 H 0.10886 0.05926 0.25149 0.0
H417 H 0.14973 0.98478 0.31563 0.0
H418 H 0.11665 0.97588 0.42695 0.0
H419 H 0.07762 0.99041 0.51231 0.0
H420 H 0.0358 0.06419 0.44683 0.0
H421 H 0.06775 0.07226 0.33107 0.0
C422 C 0.11043 0.04097 0.2894 0.0
C423 C 0.13193 0.02274 0.27463 0.0
C424 C 0.09129 0.03599 0.35411 0.0
C425 C 0.13332 0.99902 0.32421 0.0
C426 C 0.11452 0.99404 0.38875 0.0
C427 C 0.07545 0.00827 0.47273 0.0
C428 C 0.05442 0.02682 0.48918 0.0
C429 C 0.09368 0.01258 0.40527 0.0
C430 C 0.05176 0.0496 0.43607 0.0
C431 C 0.07008 0.05424 0.36974 0.0
H432 H 0.47177 0.1515 0.3799 0.0
H433 H 0.51562 0.1095 0.18629 0.0
H434 H 0.52376 0.0715 0.28396 0.0
H435 H 0.51788 0.04993 0.42594 0.0
H436 H 0.47699 0.09435 0.62062 0.0
H437 H 0.4679 0.13138 0.52144 0.0
C438 C 0.4831 0.134 0.35905 0.0
C439 C 0.49286 0.13325 0.27562 0.0
C440 C 0.48802 0.11251 0.4159 0.0
C441 C 0.50792 0.11062 0.2501 0.0
C442 C 0.51244 0.08883 0.30591 0.0
C443 C 0.50681 0.06767 0.44607 0.0
C444 C 0.49775 0.06929 0.53022 0.0
C445 C 0.50245 0.08944 0.38901 0.0
C446 C 0.48398 0.09261 0.55615 0.0
C447 C 0.47884 0.11381 0.49948 0.0
H448 H 0.41778 0.47397 0.25745 0.0
H449 H 0.35721 0.52519 0.3704 0.0
H450 H 0.38736 0.53376 0.48859 0.0
H451 H 0.43015 0.52535 0.56399 0.0
H452 H 0.49023 0.47301 0.45376 0.0
H453 H 0.46087 0.4659 0.3322 0.0
C454 C 0.411 0.48691 0.30797 0.0
C455 C 0.38497 0.49885 0.30399 0.0
C456 C 0.42835 0.4914 0.37723 0.0
C457 C 0.3771 0.51599 0.37004 0.0
C458 C 0.3943 0.52072 0.43853 0.0
C459 C 0.43692 0.51239 0.51345 0.0
C460 C 0.4625 0.49968 0.51885 0.0
C461 C 0.41986 0.50833 0.44333 0.0
C462 C 0.47074 0.48304 0.45206 0.0
C463 C 0.45391 0.47897 0.38218 0.0
H464 H 0.05121 0.36471 0.41264 0.0
H465 H 0.01688 0.40733 0.19996 0.0
H466 H 0.00941 0.44714 0.28808 0.0
H467 H 0.0129 0.46992 0.42648 0.0
H468 H 0.04703 0.42613 0.63773 0.0
H469 H 0.05468 0.38702 0.54881 0.0
C470 C 0.04242 0.3828 0.38492 0.0
C471 C 0.03495 0.38301 0.29917 0.0
C472 C 0.03816 0.40552 0.43592 0.0
C473 C 0.02282 0.40648 0.26557 0.0
C474 C 0.01864 0.42931 0.31598 0.0
C475 C 0.02204 0.45184 0.45309 0.0
C476 C 0.02935 0.45114 0.53918 0.0
C477 C 0.02625 0.42909 0.40139 0.0
C478 C 0.04113 0.42741 0.57213 0.0
C479 C 0.04554 0.40494 0.5212 0.0
H480 H 0.8657 0.99664 0.06709 0.0
H481 H 0.92537 0.0233 0.24635 0.0
H482 H 0.96088 0.01951 0.14009 0.0
H483 H 0.97482 0.01138 0.99314 0.0
H484 H 0.91507 0.98442 0.8142 0.0
H485 H 0.88026 0.98521 0.92305 0.0
C486 C 0.88653 1.00117 0.08341 0.0
C487 C 0.89264 0.01058 0.16473 0.0
C488 C 0.90702 0.99903 0.02156 0.0
C489 C 0.91985 0.01652 0.18405 0.0
C490 C 0.94028 0.01427 0.12324 0.0
C491 C 0.95426 1.0054 0.97805 0.0
C492 C 0.94775 0.99801 0.89494 0.0
C493 C 0.93407 1.00604 0.04121 0.0
C494 C 0.92088 0.99029 0.87719 0.0
C495 C 0.90081 0.99077 0.93957 0.0
H496 H 0.52497 0.86604 0.0638 0.0
H497 H 0.50345 0.92213 0.25932 0.0
H498 H 0.50733 0.95981 0.15977 0.0
H499 H 0.5143 0.97693 0.01462 0.0
H500 H 0.53662 0.92077 0.81998 0.0
H501 H 0.53533 0.88355 0.92141 0.0
C502 C 0.52159 0.88653 0.08513 0.0
C503 C 0.51357 0.89099 0.16913 0.0
C504 C 0.52386 0.90831 0.02726 0.0
C505 C 0.50911 0.91784 0.19487 0.0
C506 C 0.51141 0.93952 0.13791 0.0
C507 C 0.51912 0.9566 0.99447 0.0
C508 C 0.52539 0.95187 0.9092 0.0
C509 C 0.5183 0.93501 0.05347 0.0
C510 C 0.53166 0.92525 0.88484 0.0
C511 C 0.53089 0.9038 0.94295 0.0
H512 H 0.60648 0.50961 0.21789 0.0
H513 H 0.67515 0.5256 0.05589 0.0
H514 H 0.64487 0.5321 0.93634 0.0
H515 H 0.59922 0.53015 0.87471 0.0
H516 H 0.53057 0.51253 0.035 0.0
H517 H 0.5605 0.50948 0.15716 0.0
C518 C 0.61492 0.51449 0.15651 0.0
C519 C 0.6433 0.51702 0.14676 0.0
C520 C 0.59733 0.51771 0.08703 0.0
C521 C 0.65354 0.52388 0.06646 0.0
C522 C 0.63618 0.52736 0.99747 0.0
C523 C 0.59068 0.52588 0.93639 0.0
C524 C 0.56252 0.52146 0.94494 0.0
C525 C 0.60809 0.52391 1.00663 0.0
C526 C 0.55206 0.51596 0.02587 0.0
C527 C 0.56922 0.51418 0.09603 0.0
H528 H 0.01164 0.66309 0.03581 0.0
H529 H 0.99257 0.60498 0.23135 0.0
H530 H 0.98915 0.56921 0.12648 0.0
H531 H 0.99431 0.55383 0.97972 0.0
H532 H 0.01516 0.61199 0.78566 0.0
H533 H 0.0148 0.64818 0.88886 0.0
C534 C 1.00625 0.64271 0.05533 0.0
C535 C 1.00236 0.6368 0.14148 0.0
C536 C 1.00478 0.62211 0.99477 0.0
C537 C 0.99586 0.6101 0.16562 0.0
C538 C 0.99388 0.58961 0.10561 0.0
C539 C 0.99845 0.57446 0.95979 0.0
C540 C 1.00482 0.58005 0.87476 0.0
C541 C 0.99872 0.59527 0.02005 0.0
C542 C 0.01034 0.60696 0.85053 0.0
C543 C 0.01014 0.62775 0.90962 0.0
H544 H 0.94042 0.21324 0.3032 0.0
H545 H 0.99194 0.21609 0.52212 0.0
H546 H 0.96585 0.17955 0.58821 0.0
H547 H 0.93519 0.14145 0.56992 0.0
H548 H 0.88617 0.13603 0.34594 0.0
H549 H 0.90403 0.17953 0.29613 0.0
C550 C 0.9453 0.20651 0.36663 0.0
C551 C 0.9682 0.21701 0.40755 0.0
C552 C 0.93087 0.18488 0.40262 0.0
C553 C 0.97455 0.20798 0.48925 0.0
C554 C 0.9597 0.1871 0.52683 0.0
C555 C 0.92751 0.15027 0.51186 0.0
C556 C 0.9096 0.13546 0.46112 0.0
C557 C 0.93874 0.17454 0.48219 0.0
C558 C 0.90018 0.14699 0.38549 0.0
C559 C 0.9105 0.17174 0.35689 0.0
H560 H 0.32939 0.96222 0.22201 0.0
H561 H 0.28602 0.97263 0.45538 0.0
H562 H 0.31908 0.94401 0.5288 0.0
H563 H 0.36465 0.92424 0.53049 0.0
H564 H 0.41036 0.91983 0.29873 0.0
H565 H 0.37147 0.93623 0.2201 0.0
C566 C 0.32706 0.95788 0.28879 0.0
C567 C 0.30596 0.97003 0.33411 0.0
C568 C 0.3465 0.94227 0.33061 0.0
C569 C 0.30243 0.9637 0.41977 0.0
C570 C 0.32132 0.94743 0.46161 0.0
C571 C 0.3659 0.92639 0.46253 0.0
C572 C 0.39069 0.92174 0.42116 0.0
C573 C 0.34414 0.93779 0.41836 0.0
C574 C 0.39168 0.92344 0.3327 0.0
C575 C 0.36954 0.93329 0.2876 0.0
H576 H 0.47645 0.35288 0.28828 0.0
H577 H 0.54129 0.29463 0.31363 0.0
H578 H 0.57171 0.32995 0.36076 0.0
H579 H 0.58052 0.3777 0.39133 0.0
H580 H 0.51669 0.43627 0.3561 0.0
H581 H 0.48585 0.40072 0.31111 0.0
C582 C 0.49728 0.34784 0.30316 0.0
C583 C 0.50628 0.32093 0.29783 0.0
C584 C 0.51517 0.36846 0.32628 0.0
C585 C 0.53333 0.31492 0.31927 0.0
C586 C 0.55101 0.33522 0.3449 0.0
C587 C 0.55994 0.38263 0.37284 0.0
C588 C 0.55096 0.4095 0.37624 0.0
C589 C 0.54222 0.36208 0.34787 0.0
C590 C 0.52425 0.41576 0.35224 0.0
C591 C 0.50648 0.39541 0.32771 0.0
H592 H 0.20297 0.4526 0.35975 0.0
H593 H 0.18003 0.44835 0.09757 0.0
H594 H 0.13801 0.47172 0.12796 0.0
H595 H 0.11174 0.5008 0.22286 0.0
H596 H 0.13782 0.51004 0.48011 0.0
H597 H 0.17525 0.47876 0.45666 0.0
C598 C 0.18879 0.45667 0.30911 0.0
C599 C 0.19521 0.44912 0.22626 0.0
C600 C 0.16561 0.47209 0.32539 0.0
C601 C 0.17588 0.45362 0.16232 0.0
C602 C 0.15194 0.46757 0.17916 0.0
C603 C 0.12555 0.49573 0.2737 0.0
C604 C 0.12253 0.50808 0.35235 0.0
C605 C 0.1473 0.47812 0.2594 0.0
C606 C 0.14031 0.50129 0.41827 0.0
C607 C 0.1615 0.48322 0.40518 0.0
H608 H 0.10657 0.80527 0.10426 0.0
H609 H 0.07956 0.83786 0.34111 0.0
H610 H 0.08143 0.88355 0.28249 0.0
H611 H 0.08529 0.91363 0.15909 0.0
H612 H 0.11106 0.88116 0.92101 0.0
H613 H 0.11532 0.83617 0.98477 0.0
C614 C 0.10156 0.82246 0.14325 0.0
C615 C 0.09289 0.81818 0.22668 0.0
C616 C 0.10215 0.84868 0.10865 0.0
C617 C 0.08664 0.84061 0.27696 0.0
C618 C 0.0874 0.86675 0.24323 0.0
C619 C 0.09213 0.89671 0.12162 0.0
C620 C 0.09759 0.90055 0.03552 0.0
C621 C 0.09428 0.87092 0.15846 0.0
C622 C 0.10683 0.87865 0.98761 0.0
C623 C 0.1091 0.85291 0.02387 0.0
H624 H 0.71974 0.11383 0.1578 0.0
H625 H 0.69007 0.07353 0.38182 0.0
H626 H 0.64434 0.07286 0.32386 0.0
H627 H 0.61385 0.07925 0.20296 0.0
H628 H 0.64352 0.11904 0.9782 0.0
H629 H 0.68805 0.12463 0.04287 0.0
C630 C 0.7031 0.10542 0.19434 0.0
C631 C 0.70818 0.09383 0.27377 0.0
C632 C 0.67692 0.10475 0.16013 0.0
C633 C 0.68654 0.08297 0.32094 0.0
C634 C 0.66044 0.0823 0.28749 0.0
C635 C 0.63005 0.08938 0.16875 0.0
C636 C 0.62561 0.09852 0.08597 0.0
C637 C 0.65557 0.09243 0.20619 0.0
C638 C 0.64653 0.11194 0.04227 0.0
C639 C 0.672 0.11501 0.07899 0.0
H640 H 0.41055 0.72011 0.13405 0.0
H641 H 0.43789 0.68499 0.36892 0.0
H642 H 0.43452 0.63989 0.30991 0.0
H643 H 0.42943 0.61087 0.18655 0.0
H644 H 0.40381 0.64576 0.94988 0.0
H645 H 0.40078 0.69034 0.01442 0.0
C646 C 0.41539 0.70254 0.17255 0.0
C647 C 0.42454 0.70598 0.25559 0.0
C648 C 0.41404 0.67659 0.13758 0.0
C649 C 0.43044 0.68298 0.30515 0.0
C650 C 0.42884 0.65714 0.27117 0.0
C651 C 0.42291 0.62823 0.14952 0.0
C652 C 0.41713 0.62516 0.0636 0.0
C653 C 0.42153 0.65379 0.18673 0.0
C654 C 0.40828 0.64765 0.01635 0.0
C655 C 0.40671 0.67316 0.05305 0.0
H656 H 0.83669 0.43503 0.31126 0.0
H657 H 0.794 0.40714 0.09173 0.0
H658 H 0.83669 0.40548 0.01299 0.0
H659 H 0.88498 0.41753 1.0023 0.0
H660 H 0.92681 0.44758 0.22066 0.0
H661 H 0.88555 0.44263 0.30478 0.0
C662 C 0.83682 0.42776 0.247 0.0
C663 C 0.81229 0.42114 0.20729 0.0
C664 C 0.8612 0.42768 0.20173 0.0
C665 C 0.81268 0.41238 0.12339 0.0
C666 C 0.83703 0.41154 0.0784 0.0
C667 C 0.88516 0.42241 0.06876 0.0
C668 C 0.90875 0.43312 0.10524 0.0
C669 C 0.86125 0.42 0.11618 0.0
C670 C 0.90873 0.43966 0.19112 0.0
C671 C 0.8852 0.43677 0.23918 0.0
H672 H 0.98855 0.18509 0.86425 0.0
H673 H 0.07323 0.1749 0.92449 0.0
H674 H 0.0729 0.1303 0.86113 0.0
H675 H 0.04822 0.09269 0.79606 0.0
H676 H 0.96337 0.10213 0.73738 0.0
H677 H 0.96423 0.14804 0.7927 0.0
C678 C 1.00697 0.17319 0.86342 0.0
C679 C 0.03091 0.18375 0.89928 0.0
C680 C 1.00663 0.1471 0.82754 0.0
C681 C 0.05458 0.16785 0.89634 0.0
C682 C 0.05438 0.14206 0.86071 0.0
C683 C 0.02991 0.10479 0.79475 0.0
C684 C 1.00573 0.09363 0.76284 0.0
C685 C 0.03047 0.13129 0.8271 0.0
C686 C 0.9823 0.1099 0.76176 0.0
C687 C 0.98274 0.13627 0.79357 0.0
H688 H 0.34698 0.05636 0.90414 0.0
H689 H 0.32348 0.97511 0.83945 0.0
H690 H 0.36901 0.96665 0.7843 0.0
H691 H 0.41644 0.98209 0.75714 0.0
H692 H 0.4383 0.064 0.82101 0.0
H693 H 0.39266 0.07228 0.87156 0.0
C694 C 0.35144 0.0369 0.87652 0.0
C695 C 0.33136 0.01651 0.8762 0.0
C696 C 0.3777 0.03216 0.84455 0.0
C697 C 0.3383 0.99124 0.84179 0.0
C698 C 0.36444 0.98638 0.80975 0.0
C699 C 0.4112 1.0018 0.78168 0.0
C700 C 0.43121 0.02229 0.78515 0.0
C701 C 0.38448 1.00662 0.81136 0.0
C702 C 0.42371 0.04768 0.81732 0.0
C703 C 0.39744 0.05252 0.84656 0.0
H704 H 0.46359 0.34213 0.87452 0.0
H705 H 0.54931 0.32522 0.87249 0.0
H706 H 0.55857 0.37171 0.82603 0.0
H707 H 0.54228 0.4179 0.78827 0.0
H708 H 0.45627 0.43386 0.79231 0.0
H709 H 0.4474 0.38722 0.83401 0.0
C710 C 0.48433 0.34834 0.8626 0.0
C711 C 0.50566 0.3298 0.87674 0.0
C712 C 0.48954 0.3752 0.83616 0.0
C713 C 0.5324 0.33883 0.86283 0.0
C714 C 0.53773 0.3655 0.83589 0.0
C715 C 0.52158 0.41116 0.79777 0.0
C716 C 0.50003 0.42973 0.78694 0.0
C717 C 0.51647 0.384 0.82276 0.0
C718 C 0.47337 0.42036 0.80012 0.0
C719 C 0.4682 0.39354 0.82411 0.0
H720 H 0.1983 0.5094 0.7793 0.0
H721 H 0.17628 0.50321 0.04208 0.0
H722 H 0.12851 0.50615 1.0051 0.0
H723 H 0.09238 0.50893 0.89825 0.0
H724 H 0.11408 0.51525 0.63536 0.0
H725 H 0.16209 0.51334 0.67229 0.0
C726 C 0.18312 0.50862 0.82868 0.0
C727 C 0.19133 0.5061 0.91376 0.0
C728 C 0.15534 0.51009 0.80687 0.0
C729 C 0.171 0.50554 0.97629 0.0
C730 C 0.14348 0.50696 0.95511 0.0
C731 C 0.10757 0.50986 0.84886 0.0
C732 C 0.09935 0.51208 0.76388 0.0
C733 C 0.13534 0.509 0.87062 0.0
C734 C 0.11956 0.5135 0.70123 0.0
C735 C 0.14715 0.51241 0.72235 0.0
H736 H 0.99738 0.82984 0.63739 0.0
H737 H 1.00144 0.84901 0.37125 0.0
H738 H 0.99971 0.89689 0.40248 0.0
H739 H 0.99923 0.9339 0.50473 0.0
H740 H 1.00031 0.9152 0.77061 0.0
H741 H 0.99877 0.86682 0.7398 0.0
C742 C 0.99817 0.84432 0.58581 0.0
C743 C 0.99925 0.8352 0.50168 0.0
C744 C 0.99842 0.87218 0.60419 0.0
C745 C 0.99975 0.85483 0.43655 0.0
C746 C 0.99916 0.88247 0.45433 0.0
C747 C 0.99902 0.91925 0.55601 0.0
C748 C 0.99977 0.92824 0.63992 0.0
C749 C 0.99872 0.89141 0.53783 0.0
C750 C 0.99984 0.9089 0.70546 0.0
C751 C 0.99887 0.8812 0.68785 0.0
H752 H 0.69532 0.9963 0.65222 0.0
H753 H 0.67769 0.01176 0.38938 0.0
H754 H 0.62951 0.01194 0.42063 0.0
H755 H 0.59181 0.0099 0.5233 0.0
H756 H 0.60984 1.0003 0.78754 0.0
H757 H 0.65814 0.99656 0.75509 0.0
C758 C 0.68118 1.00004 0.60137 0.0
C759 C 0.69082 1.00372 0.51799 0.0
C760 C 0.65324 1.00148 0.62024 0.0
C761 C 0.67148 1.00798 0.4538 0.0
C762 C 0.64366 0.0085 0.47176 0.0
C763 C 0.60632 1.00689 0.57374 0.0
C764 C 0.59711 1.00527 0.65781 0.0
C765 C 0.63427 1.00549 0.5548 0.0
C766 C 0.61628 1.00173 0.72238 0.0
C767 C 0.64396 0.9995 0.70379 0.0
H768 H 0.4986 0.69295 0.63699 0.0
H769 H 0.55618 0.67848 0.43733 0.0
H770 H 0.55923 0.63106 0.48022 0.0
H771 H 0.54472 0.59315 0.5721 0.0
H772 H 0.48848 0.60821 0.77482 0.0
H773 H 0.48635 0.65589 0.73407 0.0
C774 C 0.5123 0.67969 0.60361 0.0
C775 C 0.52706 0.68966 0.53345 0.0
C776 C 0.51423 0.65235 0.62922 0.0
C777 C 0.54418 0.67161 0.49054 0.0
C778 C 0.54608 0.64439 0.51538 0.0
C779 C 0.53209 0.60685 0.60779 0.0
C780 C 0.51672 0.59686 0.67649 0.0
C781 C 0.531 0.63444 0.58412 0.0
C782 C 0.5006 0.61513 0.7219 0.0
C783 C 0.4993 0.64249 0.69842 0.0
H784 H 0.84673 0.54337 0.4974 0.0
H785 H 0.82724 0.47085 0.63801 0.0
H786 H 0.87305 0.46947 0.69539 0.0
H787 H 0.91952 0.48801 0.70299 0.0
H788 H 0.93868 0.56101 0.5638 0.0
H789 H 0.89264 0.56289 0.50933 0.0
C790 C 0.85249 0.52728 0.54064 0.0
C791 C 0.83331 0.50734 0.56338 0.0
C792 C 0.87905 0.5266 0.57393 0.0
C793 C 0.84127 0.48676 0.62014 0.0
C794 C 0.86763 0.48582 0.65272 0.0
C795 C 0.91362 0.50443 0.66114 0.0
C796 C 0.93286 0.52427 0.63779 0.0
C797 C 0.8868 0.50555 0.62984 0.0
C798 C 0.92456 0.5454 0.58345 0.0
C799 C 0.8981 0.5465 0.5518 0.0
loop_
_geom_bond_atom_site_label_1
_geom_bond_atom_site_label_2
_geom_bond_distance
_geom_bond_site_symmetry_2
_ccdc_geom_bond_type
P0 O11 1.490 . S
P0 C14 1.812 . S
P0 C20 1.803 . S
P0 C26 1.819 . S
H1 C15 0.941 . S
H2 C16 0.939 . S
H3 C18 0.940 . S
H4 C19 0.940 . S
H5 C21 0.939 . S
H6 C22 0.942 . S
H7 C24 0.940 . S
H8 C25 0.939 . S
H9 C27 0.941 . S
H10 C31 0.939 . S
O11 P0 1.490 . S
H12 C28 0.939 . S
H13 C30 0.940 . S
C14 P0 1.812 . S
C14 C15 1.389 . S
C14 C19 1.391 . S
C15 H1 0.941 . S
C15 C14 1.389 . S
C15 C16 1.397 . S
C16 H2 0.939 . S
C16 C15 1.397 . S
C16 C17 1.378 . S
C17 C16 1.378 . S
C17 C18 1.378 . S
C18 H3 0.940 . S
C18 C17 1.378 . S
C18 C19 1.396 . S
C19 H4 0.940 . S
C19 C14 1.391 . S
C19 C18 1.396 . S
C20 P0 1.803 . S
C20 C21 1.378 . S
C20 C25 1.400 . S
C21 H5 0.939 . S
C21 C20 1.378 . S
C21 C22 1.361 . S
C22 H6 0.942 . S
C22 C21 1.361 . S
C22 C23 1.369 . S
C23 C22 1.369 . S
C23 C24 1.404 . S
C24 H7 0.940 . S
C24 C23 1.404 . S
C24 C25 1.389 . S
C25 H8 0.939 . S
C25 C20 1.400 . S
C25 C24 1.389 . S
C26 P0 1.819 . S
C26 C27 1.391 . S
C26 C31 1.391 . S
C27 H9 0.941 . S
C27 C26 1.391 . S
C27 C28 1.396 . S
C28 H12 0.939 . S
C28 C27 1.396 . S
C28 C29 1.397 . S
C29 C28 1.397 . S
C29 C30 1.385 . S
C30 H13 0.940 . S
C30 C29 1.385 . S
C30 C31 1.388 . S
C31 H10 0.939 . S
C31 C26 1.391 . S
C31 C30 1.388 . S
P32 O43 1.490 . S
P32 C46 1.812 . S
P32 C52 1.803 . S
P32 C58 1.819 . S
H33 C47 0.941 . S
H34 C48 0.939 . S
H35 C50 0.940 . S
H36 C51 0.950 . S
H37 C53 0.939 . S
H38 C54 0.942 . S
H39 C56 0.940 . S
H40 C57 0.959 . S
H41 C59 0.941 . S
H42 C63 0.929 1_655 S
O43 P32 1.490 . S
H44 C60 0.939 . S
H45 C62 0.940 . S
C46 P32 1.812 . S
C46 C47 1.389 . S
C46 C51 1.375 1_455 S
C47 H33 0.941 . S
C47 C46 1.389 . S
C47 C48 1.397 . S
C48 H34 0.939 . S
C48 C47 1.397 . S
C48 C49 1.378 . S
C49 C48 1.378 . S
C49 C50 1.378 1_455 S
C50 H35 0.940 . S
C50 C49 1.378 1_655 S
C50 C51 1.403 . S
C51 H36 0.950 . S
C51 C46 1.375 1_655 S
C51 C50 1.403 . S
C52 P32 1.803 . S
C52 C53 1.378 . S
C52 C57 1.368 1_455 S
C53 H37 0.939 . S
C53 C52 1.378 . S
C53 C54 1.361 . S
C54 H38 0.942 . S
C54 C53 1.361 . S
C54 C55 1.369 . S
C55 C54 1.369 . S
C55 C56 1.404 1_455 S
C56 H39 0.940 . S
C56 C55 1.404 1_655 S
C56 C57 1.402 . S
C57 H40 0.959 . S
C57 C52 1.368 1_655 S
C57 C56 1.402 . S
C58 P32 1.819 . S
C58 C59 1.391 . S
C58 C63 1.391 . S
C59 H41 0.941 . S
C59 C58 1.391 . S
C59 C60 1.396 . S
C60 H44 0.939 . S
C60 C59 1.396 . S
C60 C61 1.397 . S
C61 C60 1.397 . S
C61 C62 1.385 1_455 S
C62 H45 0.940 . S
C62 C61 1.385 1_655 S
C62 C63 1.388 1_655 S
C63 H42 0.929 1_455 S
C63 C58 1.391 . S
C63 C62 1.388 1_455 S
P64 O75 1.490 . S
P64 C78 1.812 . S
P64 C84 1.803 . S
P64 C90 1.819 . S
H65 C79 0.941 . S
H66 C80 0.939 . S
H67 C82 0.940 . S
H68 C83 0.950 . S
H69 C85 0.939 . S
H70 C86 0.942 . S
H71 C88 0.940 . S
H72 C89 0.959 . S
H73 C91 0.941 . S
H74 C95 0.929 1_565 S
O75 P64 1.490 . S
H76 C92 0.939 . S
H77 C94 0.940 . S
C78 P64 1.812 . S
C78 C79 1.389 . S
C78 C83 1.375 1_545 S
C79 H65 0.941 . S
C79 C78 1.389 . S
C79 C80 1.397 . S
C80 H66 0.939 . S
C80 C79 1.397 . S
C80 C81 1.378 . S
C81 C80 1.378 . S
C81 C82 1.378 1_545 S
C82 H67 0.940 . S
C82 C81 1.378 1_565 S
C82 C83 1.402 . S
C83 H68 0.950 . S
C83 C78 1.375 1_565 S
C83 C82 1.402 . S
C84 P64 1.803 . S
C84 C85 1.378 . S
C84 C89 1.368 1_545 S
C85 H69 0.939 . S
C85 C84 1.378 . S
C85 C86 1.361 . S
C86 H70 0.942 . S
C86 C85 1.361 . S
C86 C87 1.369 . S
C87 C86 1.369 . S
C87 C88 1.404 1_545 S
C88 H71 0.940 . S
C88 C87 1.404 1_565 S
C88 C89 1.402 . S
C89 H72 0.959 . S
C89 C84 1.368 1_565 S
C89 C88 1.402 . S
C90 P64 1.819 . S
C90 C91 1.391 . S
C90 C95 1.391 . S
C91 H73 0.941 . S
C91 C90 1.391 . S
C91 C92 1.396 . S
C92 H76 0.939 . S
C92 C91 1.396 . S
C92 C93 1.397 . S
C93 C92 1.397 . S
C93 C94 1.385 1_545 S
C94 H77 0.940 . S
C94 C93 1.385 1_565 S
C94 C95 1.388 1_565 S
C95 H74 0.929 1_545 S
C95 C90 1.391 . S
C95 C94 1.388 1_545 S
P96 O107 1.490 . S
P96 C110 1.812 . S
P96 C116 1.803 . S
P96 C122 1.819 . S
H97 C111 0.941 . S
H98 C112 0.939 . S
H99 C114 0.940 . S
H100 C115 0.940 . S
H101 C117 0.939 . S
H102 C118 0.942 . S
H103 C120 0.940 . S
H104 C121 0.939 . S
H105 C123 0.941 . S
H106 C127 0.939 . S
O107 P96 1.490 . S
H108 C124 0.939 . S
H109 C126 0.940 . S
C110 P96 1.812 . S
C110 C111 1.389 . S
C110 C115 1.391 . S
C111 H97 0.941 . S
C111 C110 1.389 . S
C111 C112 1.397 . S
C112 H98 0.939 . S
C112 C111 1.397 . S
C112 C113 1.378 . S
C113 C112 1.378 . S
C113 C114 1.378 . S
C114 H99 0.940 . S
C114 C113 1.378 . S
C114 C115 1.396 . S
C115 H100 0.940 . S
C115 C110 1.391 . S
C115 C114 1.396 . S
C116 P96 1.803 . S
C116 C117 1.378 . S
C116 C121 1.400 . S
C117 H101 0.939 . S
C117 C116 1.378 . S
C117 C118 1.361 . S
C118 H102 0.942 . S
C118 C117 1.361 . S
C118 C119 1.369 . S
C119 C118 1.369 . S
C119 C120 1.404 . S
C120 H103 0.940 . S
C120 C119 1.404 . S
C120 C121 1.389 . S
C121 H104 0.939 . S
C121 C116 1.400 . S
C121 C120 1.389 . S
C122 P96 1.819 . S
C122 C123 1.391 . S
C122 C127 1.391 . S
C123 H105 0.941 . S
C123 C122 1.391 . S
C123 C124 1.396 . S
C124 H108 0.939 . S
C124 C123 1.396 . S
C124 C125 1.397 . S
C125 C124 1.397 . S
C125 C126 1.385 . S
C126 H109 0.940 . S
C126 C125 1.385 . S
C126 C127 1.388 . S
C127 H106 0.939 . S
C127 C122 1.391 . S
C127 C126 1.388 . S
P128 O139 1.490 . S
P128 C142 1.812 1_554 S
P128 C148 1.803 . S
P128 C154 1.819 . S
H129 C143 0.941 . S
H130 C144 0.939 . S
H131 C146 0.940 . S
H132 C147 0.940 . S
H133 C149 0.939 . S
H134 C150 0.942 . S
H135 C152 0.940 . S
H136 C153 0.939 . S
H137 C155 0.941 . S
H138 C159 0.939 . S
O139 P128 1.490 . S
H140 C156 0.939 . S
H141 C158 0.940 . S
C142 P128 1.812 1_556 S
C142 C143 1.389 . S
C142 C147 1.391 . S
C143 H129 0.941 . S
C143 C142 1.389 . S
C143 C144 1.397 . S
C144 H130 0.939 . S
C144 C143 1.397 . S
C144 C145 1.378 . S
C145 C144 1.378 . S
C145 C146 1.378 . S
C146 H131 0.940 . S
C146 C145 1.378 . S
C146 C147 1.396 . S
C147 H132 0.940 . S
C147 C142 1.391 . S
C147 C146 1.396 . S
C148 P128 1.803 . S
C148 C149 1.378 . S
C148 C153 1.400 . S
C149 H133 0.939 . S
C149 C148 1.378 . S
C149 C150 1.361 . S
C150 H134 0.942 . S
C150 C149 1.361 . S
C150 C151 1.369 . S
C151 C150 1.369 . S
C151 C152 1.404 . S
C152 H135 0.940 . S
C152 C151 1.404 . S
C152 C153 1.389 . S
C153 H136 0.939 . S
C153 C148 1.400 . S
C153 C152 1.389 . S
C154 P128 1.819 . S
C154 C155 1.391 . S
C154 C159 1.391 . S
C155 H137 0.941 . S
C155 C154 1.391 . S
C155 C156 1.396 . S
C156 H140 0.939 . S
C156 C155 1.396 . S
C156 C157 1.397 . S
C157 C156 1.397 . S
C157 C158 1.385 . S
C158 H141 0.940 . S
C158 C157 1.385 . S
C158 C159 1.388 . S
C159 H138 0.939 . S
C159 C154 1.391 . S
C159 C158 1.388 . S
P160 O171 1.490 . S
P160 C174 1.812 1_554 S
P160 C180 1.803 . S
P160 C186 1.819 . S
H161 C175 0.941 . S
H162 C176 0.939 . S
H163 C178 0.940 . S
H164 C179 0.944 . S
H165 C181 0.939 . S
H166 C182 0.942 . S
H167 C184 0.940 . S
H168 C185 0.953 . S
H169 C187 0.941 . S
H170 C191 0.932 1_655 S
O171 P160 1.490 . S
H172 C188 0.939 . S
H173 C190 0.940 . S
C174 P160 1.812 1_556 S
C174 C175 1.389 . S
C174 C179 1.384 1_455 S
C175 H161 0.941 . S
C175 C174 1.389 . S
C175 C176 1.397 . S
C176 H162 0.939 . S
C176 C175 1.397 . S
C176 C177 1.378 . S
C177 C176 1.378 . S
C177 C178 1.378 1_455 S
C178 H163 0.940 . S
C178 C177 1.378 1_655 S
C178 C179 1.399 . S
C179 H164 0.944 . S
C179 C174 1.384 1_655 S
C179 C178 1.399 . S
C180 P160 1.803 . S
C180 C181 1.378 . S
C180 C185 1.378 1_455 S
C181 H165 0.939 . S
C181 C180 1.378 . S
C181 C182 1.361 . S
C182 H166 0.942 . S
C182 C181 1.361 . S
C182 C183 1.369 . S
C183 C182 1.369 . S
C183 C184 1.404 1_455 S
C184 H167 0.940 . S
C184 C183 1.404 1_655 S
C184 C185 1.398 . S
C185 H168 0.953 . S
C185 C180 1.378 1_655 S
C185 C184 1.398 . S
C186 P160 1.819 . S
C186 C187 1.391 . S
C186 C191 1.391 . S
C187 H169 0.941 . S
C187 C186 1.391 . S
C187 C188 1.396 . S
C188 H172 0.939 . S
C188 C187 1.396 . S
C188 C189 1.397 . S
C189 C188 1.397 . S
C189 C190 1.385 1_455 S
C190 H173 0.940 . S
C190 C189 1.385 1_655 S
C190 C191 1.388 1_655 S
C191 H170 0.932 1_455 S
C191 C186 1.391 . S
C191 C190 1.388 1_455 S
P192 O203 1.490 . S
P192 C206 1.812 1_554 S
P192 C212 1.803 . S
P192 C218 1.819 . S
H193 C207 0.941 . S
H194 C208 0.939 . S
H195 C210 0.940 . S
H196 C211 0.944 . S
H197 C213 0.939 . S
H198 C214 0.942 . S
H199 C216 0.940 . S
H200 C217 0.953 . S
H201 C219 0.941 . S
H202 C223 0.932 1_565 S
O203 P192 1.490 . S
H204 C220 0.939 . S
H205 C222 0.940 . S
C206 P192 1.812 1_556 S
C206 C207 1.389 . S
C206 C211 1.384 1_545 S
C207 H193 0.941 . S
C207 C206 1.389 . S
C207 C208 1.397 . S
C208 H194 0.939 . S
C208 C207 1.397 . S
C208 C209 1.378 . S
C209 C208 1.378 . S
C209 C210 1.378 1_545 S
C210 H195 0.940 . S
C210 C209 1.378 1_565 S
C210 C211 1.399 . S
C211 H196 0.944 . S
C211 C206 1.384 1_565 S
C211 C210 1.399 . S
C212 P192 1.803 . S
C212 C213 1.378 . S
C212 C217 1.378 1_545 S
C213 H197 0.939 . S
C213 C212 1.378 . S
C213 C214 1.361 . S
C214 H198 0.942 . S
C214 C213 1.361 . S
C214 C215 1.369 . S
C215 C214 1.369 . S
C215 C216 1.404 1_545 S
C216 H199 0.940 . S
C216 C215 1.404 1_565 S
C216 C217 1.398 . S
C217 H200 0.953 . S
C217 C212 1.378 1_565 S
C217 C216 1.398 . S
C218 P192 1.819 . S
C218 C219 1.391 . S
C218 C223 1.391 . S
C219 H201 0.941 . S
C219 C218 1.391 . S
C219 C220 1.396 . S
C220 H204 0.939 . S
C220 C219 1.396 . S
C220 C221 1.397 . S
C221 C220 1.397 . S
C221 C222 1.385 1_545 S
C222 H205 0.940 . S
C222 C221 1.385 1_565 S
C222 C223 1.388 1_565 S
C223 H202 0.932 1_545 S
C223 C218 1.391 . S
C223 C222 1.388 1_545 S
P224 O235 1.490 . S
P224 C238 1.812 1_554 S
P224 C244 1.803 . S
P224 C250 1.819 . S
H225 C239 0.941 . S
H226 C240 0.939 . S
H227 C242 0.940 . S
H228 C243 0.940 . S
H229 C245 0.939 . S
H230 C246 0.942 . S
H231 C248 0.940 . S
H232 C249 0.939 . S
H233 C251 0.941 . S
H234 C255 0.939 . S
O235 P224 1.490 . S
H236 C252 0.939 . S
H237 C254 0.940 . S
C238 P224 1.812 1_556 S
C238 C239 1.389 . S
C238 C243 1.391 . S
C239 H225 0.941 . S
C239 C238 1.389 . S
C239 C240 1.397 . S
C240 H226 0.939 . S
C240 C239 1.397 . S
C240 C241 1.378 . S
C241 C240 1.378 . S
C241 C242 1.378 . S
C242 H227 0.940 . S
C242 C241 1.378 . S
C242 C243 1.396 . S
C243 H228 0.940 . S
C243 C238 1.391 . S
C243 C242 1.396 . S
C244 P224 1.803 . S
C244 C245 1.378 . S
C244 C249 1.400 . S
C245 H229 0.939 . S
C245 C244 1.378 . S
C245 C246 1.361 . S
C246 H230 0.942 . S
C246 C245 1.361 . S
C246 C247 1.369 . S
C247 C246 1.369 . S
C247 C248 1.404 . S
C248 H231 0.940 . S
C248 C247 1.404 . S
C248 C249 1.389 . S
C249 H232 0.939 . S
C249 C244 1.400 . S
C249 C248 1.389 . S
C250 P224 1.819 . S
C250 C251 1.391 . S
C250 C255 1.391 . S
C251 H233 0.941 . S
C251 C250 1.391 . S
C251 C252 1.396 . S
C252 H236 0.939 . S
C252 C251 1.396 . S
C252 C253 1.397 . S
C253 C252 1.397 . S
C253 C254 1.385 . S
C254 H237 0.940 . S
C254 C253 1.385 . S
C254 C255 1.388 . S
C255 H234 0.939 . S
C255 C250 1.391 . S
C255 C254 1.388 . S
Tb256 C266 2.825 . S
Tb256 O267 2.347 1_455 S
Tb256 O270 2.366 . S
Tb256 O275 2.418 . S
Tb256 O276 2.384 1_565 S
Tb256 O279 2.479 . S
Tb256 O280 2.471 . S
Eu257 O268 2.418 . S
Eu257 O269 2.384 1_545 S
Eu257 O272 2.479 . S
Eu257 O273 2.471 . S
Eu257 O274 2.347 1_655 S
Eu257 O277 2.366 . S
Eu257 C287 2.825 . S
C258 O274 1.259 1_565 S
C258 O275 1.265 . S
C259 O276 1.255 . S
C259 O277 1.265 1_455 S
C260 C262 1.380 . S
C260 C263 1.374 . S
C260 C266 1.507 . S
C261 C262 1.384 . S
C261 C265 1.387 1_556 S
C261 H288 0.931 . S
C262 C260 1.380 . S
C262 C261 1.384 . S
C262 H289 0.931 . S
C263 C260 1.374 . S
C263 C264 1.390 1_556 S
C263 H290 0.930 1_455 S
C264 C263 1.390 1_554 S
C264 C265 1.391 . S
C264 H291 0.930 1_455 S
C265 C261 1.387 1_554 S
C265 C264 1.391 . S
C266 Tb256 2.825 . S
C266 C260 1.507 . S
C266 O279 1.238 . S
C266 O280 1.247 . S
O267 Tb256 2.347 1_655 S
O267 C271 1.259 1_565 S
O268 Eu257 2.418 . S
O268 C271 1.265 . S
O269 Eu257 2.384 1_565 S
O269 C278 1.255 . S
O270 Tb256 2.366 . S
O270 C278 1.265 1_455 S
C271 O267 1.259 1_545 S
C271 O268 1.265 . S
O272 Eu257 2.479 . S
O272 C287 1.238 . S
O273 Eu257 2.471 . S
O273 C287 1.247 . S
O274 Eu257 2.347 1_455 S
O274 C258 1.259 1_545 S
O275 Tb256 2.418 . S
O275 C258 1.265 . S
O276 Tb256 2.384 1_545 S
O276 C259 1.255 . S
O277 Eu257 2.366 . S
O277 C259 1.265 1_655 S
C278 O269 1.255 . S
C278 O270 1.265 1_655 S
O279 Tb256 2.479 . S
O279 C266 1.238 . S
O280 Tb256 2.471 . S
O280 C266 1.247 . S
C281 C284 1.380 . S
C281 C285 1.374 . S
C281 C287 1.507 . S
C282 C283 1.387 . S
C282 C286 1.391 . S
C283 C282 1.387 . S
C283 C284 1.384 . S
C283 H292 0.930 . S
C284 C281 1.380 . S
C284 C283 1.384 . S
C284 H293 0.931 . S
C285 C281 1.374 . S
C285 C286 1.390 . S
C285 H294 0.930 1_655 S
C286 C282 1.391 . S
C286 C285 1.390 . S
C286 H295 0.930 1_655 S
C287 Eu257 2.825 . S
C287 O272 1.238 . S
C287 O273 1.247 . S
C287 C281 1.507 . S
H288 C261 0.931 . S
H289 C262 0.931 . S
H290 C263 0.930 1_655 S
H291 C264 0.930 1_655 S
H292 C283 0.930 . S
H293 C284 0.931 . S
H294 C285 0.930 1_455 S
H295 C286 0.930 1_455 S
Tb296 C306 2.825 . S
Tb296 O307 2.347 1_545 S
Tb296 O310 2.366 . S
Tb296 O315 2.418 . S
Tb296 O316 2.384 . S
Tb296 O319 2.479 . S
Tb296 O320 2.471 . S
Eu297 O308 2.418 . S
Eu297 O309 2.384 . S
Eu297 O312 2.479 . S
Eu297 O313 2.471 . S
Eu297 O314 2.347 1_565 S
Eu297 O317 2.366 . S
Eu297 C327 2.825 . S
C298 O314 1.259 . S
C298 O315 1.265 . S
C299 O316 1.255 . S
C299 O317 1.265 1_545 S
C300 C302 1.380 . S
C300 C303 1.374 . S
C300 C306 1.507 . S
C301 C302 1.384 . S
C301 C305 1.387 1_556 S
C301 H328 0.929 1_556 S
C302 C300 1.380 . S
C302 C301 1.384 . S
C302 H329 0.931 . S
C303 C300 1.374 . S
C303 C304 1.390 1_556 S
C303 H330 0.930 1_545 S
C304 C303 1.390 1_554 S
C304 C305 1.391 . S
C304 H331 0.930 1_545 S
C305 C301 1.387 1_554 S
C305 C304 1.391 . S
C306 Tb296 2.825 . S
C306 C300 1.507 . S
C306 O319 1.238 . S
C306 O320 1.247 . S
O307 Tb296 2.347 1_565 S
O307 C311 1.259 . S
O308 Eu297 2.418 . S
O308 C311 1.265 . S
O309 Eu297 2.384 . S
O309 C318 1.255 . S
O310 Tb296 2.366 . S
O310 C318 1.265 1_545 S
C311 O307 1.259 . S
C311 O308 1.265 . S
O312 Eu297 2.479 . S
O312 C327 1.238 . S
O313 Eu297 2.471 . S
O313 C327 1.247 . S
O314 Eu297 2.347 1_545 S
O314 C298 1.259 . S
O315 Tb296 2.418 . S
O315 C298 1.265 . S
O316 Tb296 2.384 . S
O316 C299 1.255 . S
O317 Eu297 2.366 . S
O317 C299 1.265 1_565 S
C318 O309 1.255 . S
C318 O310 1.265 1_565 S
O319 Tb296 2.479 . S
O319 C306 1.238 . S
O320 Tb296 2.471 . S
O320 C306 1.247 . S
C321 C324 1.380 . S
C321 C325 1.374 . S
C321 C327 1.507 . S
C322 C323 1.387 . S
C322 C326 1.391 . S
C323 C322 1.387 . S
C323 C324 1.384 . S
C323 H332 0.930 . S
C324 C321 1.380 . S
C324 C323 1.384 . S
C324 H333 0.931 . S
C325 C321 1.374 . S
C325 C326 1.390 . S
C325 H334 0.930 1_565 S
C326 C322 1.391 . S
C326 C325 1.390 . S
C326 H335 0.930 1_565 S
C327 Eu297 2.825 . S
C327 O312 1.238 . S
C327 O313 1.247 . S
C327 C321 1.507 . S
H328 C301 0.929 1_554 S
H329 C302 0.931 . S
H330 C303 0.930 1_565 S
H331 C304 0.930 1_565 S
H332 C323 0.930 . S
H333 C324 0.931 . S
H334 C325 0.930 1_545 S
H335 C326 0.930 1_545 S
Tb336 C346 2.825 . S
Tb336 O347 2.347 . S
Tb336 O350 2.366 . S
Tb336 O355 2.418 . S
Tb336 O356 2.384 . S
Tb336 O359 2.479 . S
Tb336 O360 2.471 . S
Eu337 O348 2.418 . S
Eu337 O349 2.384 . S
Eu337 O352 2.479 . S
Eu337 O353 2.471 . S
Eu337 O354 2.347 . S
Eu337 O357 2.366 . S
Eu337 C367 2.825 . S
C338 O354 1.259 . S
C338 O355 1.265 . S
C339 O356 1.255 . S
C339 O357 1.265 . S
C340 C342 1.380 . S
C340 C343 1.374 . S
C340 C346 1.507 . S
C341 C342 1.384 . S
C341 C345 1.387 1_556 S
C341 H368 0.930 1_556 S
C342 C340 1.380 . S
C342 C341 1.384 . S
C342 H369 0.931 . S
C343 C340 1.374 . S
C343 C344 1.390 1_556 S
C343 H370 0.930 . S
C344 C343 1.390 1_554 S
C344 C345 1.391 . S
C344 H371 0.930 . S
C345 C341 1.387 1_554 S
C345 C344 1.391 . S
C346 Tb336 2.825 . S
C346 C340 1.507 . S
C346 O359 1.238 . S
C346 O360 1.247 . S
O347 Tb336 2.347 . S
O347 C351 1.259 . S
O348 Eu337 2.418 . S
O348 C351 1.265 . S
O349 Eu337 2.384 . S
O349 C358 1.255 . S
O350 Tb336 2.366 . S
O350 C358 1.265 . S
C351 O347 1.259 . S
C351 O348 1.265 . S
O352 Eu337 2.479 . S
O352 C367 1.238 . S
O353 Eu337 2.471 . S
O353 C367 1.247 . S
O354 Eu337 2.347 . S
O354 C338 1.259 . S
O355 Tb336 2.418 . S
O355 C338 1.265 . S
O356 Tb336 2.384 . S
O356 C339 1.255 . S
O357 Eu337 2.366 . S
O357 C339 1.265 . S
C358 O349 1.255 . S
C358 O350 1.265 . S
O359 Tb336 2.479 . S
O359 C346 1.238 . S
O360 Tb336 2.471 . S
O360 C346 1.247 . S
C361 C364 1.380 . S
C361 C365 1.374 . S
C361 C367 1.507 . S
C362 C363 1.387 . S
C362 C366 1.391 . S
C363 C362 1.387 . S
C363 C364 1.384 . S
C363 H372 0.930 . S
C364 C361 1.380 . S
C364 C363 1.384 . S
C364 H373 0.931 . S
C365 C361 1.374 . S
C365 C366 1.390 . S
C365 H374 0.930 . S
C366 C362 1.391 . S
C366 C365 1.390 . S
C366 H375 0.930 . S
C367 Eu337 2.825 . S
C367 O352 1.238 . S
C367 O353 1.247 . S
C367 C361 1.507 . S
H368 C341 0.930 1_554 S
H369 C342 0.931 . S
H370 C343 0.930 . S
H371 C344 0.930 . S
H372 C363 0.930 . S
H373 C364 0.931 . S
H374 C365 0.930 . S
H375 C366 0.930 . S
Tb376 C386 2.825 . S
Tb376 O387 2.347 . S
Tb376 O390 2.366 . S
Tb376 O395 2.418 . S
Tb376 O396 2.384 1_655 S
Tb376 O399 2.479 . S
Tb376 O400 2.471 . S
Eu377 O388 2.418 . S
Eu377 O389 2.384 1_455 S
Eu377 O392 2.479 . S
Eu377 O393 2.471 . S
Eu377 O394 2.347 . S
Eu377 O397 2.366 . S
Eu377 C407 2.825 . S
C378 O394 1.259 1_655 S
C378 O395 1.265 . S
C379 O396 1.255 . S
C379 O397 1.265 . S
C380 C382 1.380 . S
C380 C383 1.374 . S
C380 C386 1.507 . S
C381 C382 1.384 . S
C381 C385 1.387 1_556 S
C381 H408 0.930 1_556 S
C382 C380 1.380 . S
C382 C381 1.384 . S
C382 H409 0.931 . S
C383 C380 1.374 . S
C383 C384 1.390 1_556 S
C383 H410 0.930 . S
C384 C383 1.390 1_554 S
C384 C385 1.391 . S
C384 H411 0.930 . S
C385 C381 1.387 1_554 S
C385 C384 1.391 . S
C386 Tb376 2.825 . S
C386 C380 1.507 . S
C386 O399 1.238 . S
C386 O400 1.247 . S
O387 Tb376 2.347 . S
O387 C391 1.259 1_655 S
O388 Eu377 2.418 . S
O388 C391 1.265 . S
O389 Eu377 2.384 1_655 S
O389 C398 1.255 . S
O390 Tb376 2.366 . S
O390 C398 1.265 . S
C391 O387 1.259 1_455 S
C391 O388 1.265 . S
O392 Eu377 2.479 . S
O392 C407 1.238 . S
O393 Eu377 2.471 . S
O393 C407 1.247 . S
O394 Eu377 2.347 . S
O394 C378 1.259 1_455 S
O395 Tb376 2.418 . S
O395 C378 1.265 . S
O396 Tb376 2.384 1_455 S
O396 C379 1.255 . S
O397 Eu377 2.366 . S
O397 C379 1.265 . S
C398 O389 1.255 . S
C398 O390 1.265 . S
O399 Tb376 2.479 . S
O399 C386 1.238 . S
O400 Tb376 2.471 . S
O400 C386 1.247 . S
C401 C404 1.380 . S
C401 C405 1.374 . S
C401 C407 1.507 . S
C402 C403 1.387 . S
C402 C406 1.391 . S
C403 C402 1.387 . S
C403 C404 1.384 . S
C403 H412 0.930 . S
C404 C401 1.380 . S
C404 C403 1.384 . S
C404 H413 0.931 . S
C405 C401 1.374 . S
C405 C406 1.390 . S
C405 H414 0.930 . S
C406 C402 1.391 . S
C406 C405 1.390 . S
C406 H415 0.930 . S
C407 Eu377 2.825 . S
C407 O392 1.238 . S
C407 O393 1.247 . S
C407 C401 1.507 . S
H408 C381 0.930 1_554 S
H409 C382 0.931 . S
H410 C383 0.930 . S
H411 C384 0.930 . S
H412 C403 0.930 . S
H413 C404 0.931 . S
H414 C405 0.930 . S
H415 C406 0.930 . S
H416 C422 0.930 . S
H417 C425 0.930 . S
H418 C426 0.930 . S
H419 C427 0.930 . S
H420 C430 0.930 . S
H421 C431 0.930 . S
C422 H416 0.930 . S
C422 C423 1.358 . S
C422 C424 1.415 . S
C423 C422 1.358 . S
C423 C425 1.416 1_545 S
C424 C422 1.415 . S
C424 C429 1.425 1_545 S
C424 C431 1.409 . S
C425 H417 0.930 . S
C425 C423 1.416 1_565 S
C425 C426 1.362 . S
C426 H418 0.930 . S
C426 C425 1.362 . S
C426 C429 1.409 . S
C427 H419 0.930 . S
C427 C428 1.354 . S
C427 C429 1.415 . S
C428 C427 1.354 . S
C428 C430 1.420 1_565 S
C429 C424 1.425 1_565 S
C429 C426 1.409 . S
C429 C427 1.415 . S
C430 H420 0.930 . S
C430 C428 1.420 1_545 S
C430 C431 1.362 . S
C431 H421 0.930 . S
C431 C424 1.409 . S
C431 C430 1.362 . S
H432 C438 0.930 . S
H433 C441 0.930 . S
H434 C442 0.930 . S
H435 C443 0.930 . S
H436 C446 0.930 . S
H437 C447 0.930 . S
C438 H432 0.930 . S
C438 C439 1.355 . S
C438 C440 1.415 . S
C439 C438 1.355 . S
C439 C441 1.419 . S
C440 C438 1.415 . S
C440 C445 1.425 . S
C440 C447 1.409 . S
C441 H433 0.930 . S
C441 C439 1.419 . S
C441 C442 1.362 . S
C442 H434 0.930 . S
C442 C441 1.362 . S
C442 C445 1.409 . S
C443 H435 0.930 . S
C443 C444 1.355 . S
C443 C445 1.415 . S
C444 C443 1.355 . S
C444 C446 1.419 . S
C445 C440 1.425 . S
C445 C442 1.409 . S
C445 C443 1.415 . S
C446 H436 0.930 . S
C446 C444 1.419 . S
C446 C447 1.362 . S
C447 H437 0.930 . S
C447 C440 1.409 . S
C447 C446 1.362 . S
H448 C454 0.930 . S
H449 C457 0.930 . S
H450 C458 0.930 . S
H451 C459 0.930 . S
H452 C462 0.930 . S
H453 C463 0.930 . S
C454 H448 0.930 . S
C454 C455 1.355 . S
C454 C456 1.415 . S
C455 C454 1.355 . S
C455 C457 1.419 . S
C456 C454 1.415 . S
C456 C461 1.425 . S
C456 C463 1.409 . S
C457 H449 0.930 . S
C457 C455 1.419 . S
C457 C458 1.362 . S
C458 H450 0.930 . S
C458 C457 1.362 . S
C458 C461 1.409 . S
C459 H451 0.930 . S
C459 C460 1.355 . S
C459 C461 1.415 . S
C460 C459 1.355 . S
C460 C462 1.419 . S
C461 C456 1.425 . S
C461 C458 1.409 . S
C461 C459 1.415 . S
C462 H452 0.930 . S
C462 C460 1.419 . S
C462 C463 1.362 . S
C463 H453 0.930 . S
C463 C456 1.409 . S
C463 C462 1.362 . S
H464 C470 0.930 . S
H465 C473 0.930 . S
H466 C474 0.930 . S
H467 C475 0.932 . S
H468 C478 0.930 . S
H469 C479 0.930 . S
C470 H464 0.930 . S
C470 C471 1.351 1_455 S
C470 C472 1.415 . S
C471 C470 1.351 1_655 S
C471 C473 1.425 . S
C472 C470 1.415 . S
C472 C477 1.425 1_455 S
C472 C479 1.409 . S
C473 H465 0.930 . S
C473 C471 1.425 . S
C473 C474 1.362 . S
C474 H466 0.930 . S
C474 C473 1.362 . S
C474 C477 1.409 . S
C475 H467 0.932 . S
C475 C476 1.352 1_655 S
C475 C477 1.415 . S
C476 C475 1.352 1_455 S
C476 C478 1.419 . S
C477 C472 1.425 1_655 S
C477 C474 1.409 . S
C477 C475 1.415 . S
C478 H468 0.930 . S
C478 C476 1.419 . S
C478 C479 1.362 . S
C479 H469 0.930 . S
C479 C472 1.409 . S
C479 C478 1.362 . S
H480 C486 0.930 . S
H481 C489 0.930 . S
H482 C490 0.930 . S
H483 C491 0.930 . S
H484 C494 0.930 . S
H485 C495 0.930 . S
C486 H480 0.930 . S
C486 C487 1.350 1_565 S
C486 C488 1.415 . S
C487 C486 1.350 1_545 S
C487 C489 1.425 . S
C488 C486 1.415 . S
C488 C493 1.425 1_565 S
C488 C495 1.409 . S
C489 H481 0.930 . S
C489 C487 1.425 . S
C489 C490 1.362 . S
C490 H482 0.930 . S
C490 C489 1.362 . S
C490 C493 1.409 . S
C491 H483 0.930 . S
C491 C492 1.350 1_544 S
C491 C493 1.415 . S
C492 C491 1.350 1_566 S
C492 C494 1.424 . S
C493 C488 1.425 1_545 S
C493 C490 1.409 . S
C493 C491 1.415 . S
C494 H484 0.930 . S
C494 C492 1.424 . S
C494 C495 1.362 1_556 S
C495 H485 0.930 . S
C495 C488 1.409 . S
C495 C494 1.362 1_554 S
H496 C502 0.930 . S
H497 C505 0.930 . S
H498 C506 0.930 . S
H499 C507 0.930 . S
H500 C510 0.930 . S
H501 C511 0.930 . S
C502 H496 0.930 . S
C502 C503 1.355 . S
C502 C504 1.415 . S
C503 C502 1.355 . S
C503 C505 1.419 . S
C504 C502 1.415 . S
C504 C509 1.425 . S
C504 C511 1.409 . S
C505 H497 0.930 . S
C505 C503 1.419 . S
C505 C506 1.362 . S
C506 H498 0.930 . S
C506 C505 1.362 . S
C506 C509 1.409 . S
C507 H499 0.930 . S
C507 C508 1.355 1_554 S
C507 C509 1.415 . S
C508 C507 1.355 1_556 S
C508 C510 1.419 . S
C509 C504 1.425 . S
C509 C506 1.409 . S
C509 C507 1.415 . S
C510 H500 0.930 . S
C510 C508 1.419 . S
C510 C511 1.362 1_556 S
C511 H501 0.930 . S
C511 C504 1.409 . S
C511 C510 1.362 1_554 S
H512 C518 0.930 . S
H513 C521 0.930 . S
H514 C522 0.930 . S
H515 C523 0.930 . S
H516 C526 0.930 . S
H517 C527 0.930 . S
C518 H512 0.930 . S
C518 C519 1.355 . S
C518 C520 1.415 . S
C519 C518 1.355 . S
C519 C521 1.419 . S
C520 C518 1.415 . S
C520 C525 1.425 . S
C520 C527 1.409 . S
C521 H513 0.930 . S
C521 C519 1.419 . S
C521 C522 1.362 . S
C522 H514 0.930 . S
C522 C521 1.362 . S
C522 C525 1.409 . S
C523 H515 0.930 . S
C523 C524 1.355 . S
C523 C525 1.415 1_556 S
C524 C523 1.355 . S
C524 C526 1.419 . S
C525 C520 1.425 . S
C525 C522 1.409 . S
C525 C523 1.415 1_554 S
C526 H516 0.930 . S
C526 C524 1.419 . S
C526 C527 1.362 1_556 S
C527 H517 0.930 . S
C527 C520 1.409 . S
C527 C526 1.362 1_554 S
H528 C534 0.930 . S
H529 C537 0.930 . S
H530 C538 0.930 . S
H531 C539 0.930 . S
H532 C542 0.930 . S
H533 C543 0.930 . S
C534 H528 0.930 . S
C534 C535 1.355 1_655 S
C534 C536 1.415 . S
C535 C534 1.355 1_455 S
C535 C537 1.419 . S
C536 C534 1.415 . S
C536 C541 1.425 1_655 S
C536 C543 1.409 . S
C537 H529 0.930 . S
C537 C535 1.419 . S
C537 C538 1.362 . S
C538 H530 0.930 . S
C538 C537 1.362 . S
C538 C541 1.409 . S
C539 H531 0.930 . S
C539 C540 1.355 1_455 S
C539 C541 1.415 1_556 S
C540 C539 1.355 1_655 S
C540 C542 1.419 . S
C541 C536 1.425 1_455 S
C541 C538 1.409 . S
C541 C539 1.415 1_554 S
C542 H532 0.930 . S
C542 C540 1.419 . S
C542 C543 1.362 1_556 S
C543 H533 0.930 . S
C543 C536 1.409 . S
C543 C542 1.362 1_554 S
H544 C550 0.930 . S
H545 C553 0.930 . S
H546 C554 0.930 . S
H547 C555 0.930 . S
H548 C558 0.930 . S
H549 C559 0.930 . S
C550 H544 0.930 . S
C550 C551 1.355 1_655 S
C550 C552 1.415 . S
C551 C550 1.355 1_455 S
C551 C553 1.419 . S
C552 C550 1.415 . S
C552 C557 1.425 . S
C552 C559 1.409 . S
C553 H545 0.930 . S
C553 C551 1.419 . S
C553 C554 1.362 . S
C554 H546 0.930 . S
C554 C553 1.362 . S
C554 C557 1.409 1_455 S
C555 H547 0.930 . S
C555 C556 1.355 . S
C555 C557 1.415 . S
C556 C555 1.355 . S
C556 C558 1.419 . S
C557 C552 1.425 . S
C557 C554 1.409 1_655 S
C557 C555 1.415 . S
C558 H548 0.930 . S
C558 C556 1.419 . S
C558 C559 1.362 . S
C559 H549 0.930 . S
C559 C552 1.409 . S
C559 C558 1.362 . S
H560 C566 0.930 . S
H561 C569 0.930 . S
H562 C570 0.930 . S
H563 C571 0.930 . S
H564 C574 0.930 . S
H565 C575 0.930 1_545 S
C566 H560 0.930 . S
C566 C567 1.355 . S
C566 C568 1.415 1_545 S
C567 C566 1.355 . S
C567 C569 1.416 1_545 S
C568 C566 1.415 1_565 S
C568 C573 1.425 . S
C568 C575 1.409 . S
C569 H561 0.930 . S
C569 C567 1.416 1_565 S
C569 C570 1.362 . S
C570 H562 0.930 . S
C570 C569 1.362 . S
C570 C573 1.409 . S
C571 H563 0.930 . S
C571 C572 1.355 . S
C571 C573 1.415 . S
C572 C571 1.355 . S
C572 C574 1.419 . S
C573 C568 1.425 . S
C573 C570 1.409 . S
C573 C571 1.415 . S
C574 H564 0.930 . S
C574 C572 1.419 . S
C574 C575 1.362 . S
C575 H565 0.930 1_565 S
C575 C568 1.409 . S
C575 C574 1.362 . S
H576 C582 0.930 . S
H577 C585 0.930 . S
H578 C586 0.930 . S
H579 C587 0.930 . S
H580 C590 0.930 . S
H581 C591 0.930 . S
C582 H576 0.930 . S
C582 C583 1.355 . S
C582 C584 1.415 . S
C583 C582 1.355 . S
C583 C585 1.419 . S
C584 C582 1.415 . S
C584 C589 1.425 . S
C584 C591 1.409 . S
C585 H577 0.930 . S
C585 C583 1.419 . S
C585 C586 1.362 . S
C586 H578 0.930 . S
C586 C585 1.362 . S
C586 C589 1.409 . S
C587 H579 0.930 . S
C587 C588 1.355 . S
C587 C589 1.415 . S
C588 C587 1.355 . S
C588 C590 1.419 . S
C589 C584 1.425 . S
C589 C586 1.409 . S
C589 C587 1.415 . S
C590 H580 0.930 . S
C590 C588 1.419 . S
C590 C591 1.362 . S
C591 H581 0.930 . S
C591 C584 1.409 . S
C591 C590 1.362 . S
H592 C598 0.930 . S
H593 C601 0.930 . S
H594 C602 0.930 . S
H595 C603 0.930 . S
H596 C606 0.930 . S
H597 C607 0.930 . S
C598 H592 0.930 . S
C598 C599 1.355 . S
C598 C600 1.415 . S
C599 C598 1.355 . S
C599 C601 1.419 . S
C600 C598 1.415 . S
C600 C605 1.425 . S
C600 C607 1.409 . S
C601 H593 0.930 . S
C601 C599 1.419 . S
C601 C602 1.362 . S
C602 H594 0.930 . S
C602 C601 1.362 . S
C602 C605 1.409 . S
C603 H595 0.930 . S
C603 C604 1.355 . S
C603 C605 1.415 . S
C604 C603 1.355 . S
C604 C606 1.419 . S
C605 C600 1.425 . S
C605 C602 1.409 . S
C605 C603 1.415 . S
C606 H596 0.930 . S
C606 C604 1.419 . S
C606 C607 1.362 . S
C607 H597 0.930 . S
C607 C600 1.409 . S
C607 C606 1.362 . S
H608 C614 0.930 . S
H609 C617 0.930 . S
H610 C618 0.930 . S
H611 C619 0.930 . S
H612 C622 0.930 1_556 S
H613 C623 0.930 . S
C614 H608 0.930 . S
C614 C615 1.355 1_455 S
C614 C616 1.415 . S
C615 C614 1.355 1_655 S
C615 C617 1.419 . S
C616 C614 1.415 . S
C616 C621 1.425 . S
C616 C623 1.409 . S
C617 H609 0.930 . S
C617 C615 1.419 . S
C617 C618 1.362 . S
C618 H610 0.930 . S
C618 C617 1.362 . S
C618 C621 1.409 1_655 S
C619 H611 0.930 . S
C619 C620 1.355 . S
C619 C621 1.415 . S
C620 C619 1.355 . S
C620 C622 1.419 . S
C621 C616 1.425 . S
C621 C618 1.409 1_455 S
C621 C619 1.415 . S
C622 H612 0.930 1_554 S
C622 C620 1.419 . S
C622 C623 1.362 . S
C623 H613 0.930 . S
C623 C616 1.409 . S
C623 C622 1.362 . S
H624 C630 0.930 . S
H625 C633 0.930 . S
H626 C634 0.930 . S
H627 C635 0.930 . S
H628 C638 0.930 1_556 S
H629 C639 0.930 . S
C630 H624 0.930 . S
C630 C631 1.355 1_545 S
C630 C632 1.415 . S
C631 C630 1.355 1_565 S
C631 C633 1.419 . S
C632 C630 1.415 . S
C632 C637 1.425 . S
C632 C639 1.409 . S
C633 H625 0.930 . S
C633 C631 1.419 . S
C633 C634 1.362 . S
C634 H626 0.930 . S
C634 C633 1.362 . S
C634 C637 1.409 1_565 S
C635 H627 0.930 . S
C635 C636 1.355 . S
C635 C637 1.415 . S
C636 C635 1.355 . S
C636 C638 1.419 . S
C637 C632 1.425 . S
C637 C634 1.409 1_545 S
C637 C635 1.415 . S
C638 H628 0.930 1_554 S
C638 C636 1.419 . S
C638 C639 1.362 . S
C639 H629 0.930 . S
C639 C632 1.409 . S
C639 C638 1.362 . S
H640 C646 0.930 . S
H641 C649 0.930 . S
H642 C650 0.930 . S
H643 C651 0.930 . S
H644 C654 0.930 . S
H645 C655 0.935 . S
C646 H640 0.930 . S
C646 C647 1.355 . S
C646 C648 1.415 . S
C647 C646 1.355 . S
C647 C649 1.419 . S
C648 C646 1.415 . S
C648 C653 1.425 . S
C648 C655 1.402 1_554 S
C649 H641 0.930 . S
C649 C647 1.419 . S
C649 C650 1.362 . S
C650 H642 0.930 . S
C650 C649 1.362 . S
C650 C653 1.409 . S
C651 H643 0.930 . S
C651 C652 1.355 . S
C651 C653 1.415 . S
C652 C651 1.355 . S
C652 C654 1.419 1_554 S
C653 C648 1.425 . S
C653 C650 1.409 . S
C653 C651 1.415 . S
C654 H644 0.930 . S
C654 C652 1.419 1_556 S
C654 C655 1.365 . S
C655 H645 0.935 . S
C655 C648 1.402 1_556 S
C655 C654 1.365 . S
H656 C662 0.930 . S
H657 C665 0.930 . S
H658 C666 0.930 . S
H659 C667 0.930 . S
H660 C670 0.930 . S
H661 C671 0.930 . S
C662 H656 0.930 . S
C662 C663 1.355 . S
C662 C664 1.415 . S
C663 C662 1.355 . S
C663 C665 1.419 . S
C664 C662 1.415 . S
C664 C669 1.425 . S
C664 C671 1.409 . S
C665 H657 0.930 . S
C665 C663 1.419 . S
C665 C666 1.362 . S
C666 H658 0.930 . S
C666 C665 1.362 . S
C666 C669 1.409 . S
C667 H659 0.930 . S
C667 C668 1.355 . S
C667 C669 1.415 . S
C668 C667 1.355 . S
C668 C670 1.419 . S
C669 C664 1.425 . S
C669 C666 1.409 . S
C669 C667 1.415 . S
C670 H660 0.930 . S
C670 C668 1.419 . S
C670 C671 1.362 . S
C671 H661 0.930 . S
C671 C664 1.409 . S
C671 C670 1.362 . S
H672 C678 0.930 . S
H673 C681 0.930 . S
H674 C682 0.930 . S
H675 C683 0.930 . S
H676 C686 0.930 . S
H677 C687 0.930 . S
C678 H672 0.930 . S
C678 C679 1.355 1_655 S
C678 C680 1.415 . S
C679 C678 1.355 1_455 S
C679 C681 1.419 . S
C680 C678 1.415 . S
C680 C685 1.425 1_655 S
C680 C687 1.409 . S
C681 H673 0.930 . S
C681 C679 1.419 . S
C681 C682 1.362 . S
C682 H674 0.930 . S
C682 C681 1.362 . S
C682 C685 1.409 . S
C683 H675 0.930 . S
C683 C684 1.355 . S
C683 C685 1.415 . S
C684 C683 1.355 . S
C684 C686 1.419 1_455 S
C685 C680 1.425 1_455 S
C685 C682 1.409 . S
C685 C683 1.415 . S
C686 H676 0.930 . S
C686 C684 1.419 1_655 S
C686 C687 1.362 . S
C687 H677 0.930 . S
C687 C680 1.409 . S
C687 C686 1.362 . S
H688 C694 0.930 . S
H689 C697 0.930 . S
H690 C698 0.930 . S
H691 C699 0.930 . S
H692 C702 0.930 . S
H693 C703 0.930 . S
C694 H688 0.930 . S
C694 C695 1.355 . S
C694 C696 1.415 . S
C695 C694 1.355 . S
C695 C697 1.419 1_545 S
C696 C694 1.415 . S
C696 C701 1.425 1_545 S
C696 C703 1.409 . S
C697 H689 0.930 . S
C697 C695 1.419 1_565 S
C697 C698 1.362 . S
C698 H690 0.930 . S
C698 C697 1.362 . S
C698 C701 1.409 . S
C699 H691 0.930 . S
C699 C700 1.355 1_565 S
C699 C701 1.415 . S
C700 C699 1.355 1_545 S
C700 C702 1.419 . S
C701 C696 1.425 1_565 S
C701 C698 1.409 . S
C701 C699 1.415 . S
C702 H692 0.930 . S
C702 C700 1.419 . S
C702 C703 1.362 . S
C703 H693 0.930 . S
C703 C696 1.409 . S
C703 C702 1.362 . S
H704 C710 0.930 . S
H705 C713 0.930 . S
H706 C714 0.930 . S
H707 C715 0.930 . S
H708 C718 0.930 . S
H709 C719 0.930 . S
C710 H704 0.930 . S
C710 C711 1.355 . S
C710 C712 1.415 . S
C711 C710 1.355 . S
C711 C713 1.419 . S
C712 C710 1.415 . S
C712 C717 1.425 . S
C712 C719 1.409 . S
C713 H705 0.930 . S
C713 C711 1.419 . S
C713 C714 1.362 . S
C714 H706 0.930 . S
C714 C713 1.362 . S
C714 C717 1.409 . S
C715 H707 0.930 . S
C715 C716 1.355 . S
C715 C717 1.415 . S
C716 C715 1.355 . S
C716 C718 1.419 . S
C717 C712 1.425 . S
C717 C714 1.409 . S
C717 C715 1.415 . S
C718 H708 0.930 . S
C718 C716 1.419 . S
C718 C719 1.362 . S
C719 H709 0.930 . S
C719 C712 1.409 . S
C719 C718 1.362 . S
H720 C726 0.930 . S
H721 C729 0.930 . S
H722 C730 0.930 . S
H723 C731 0.930 . S
H724 C734 0.930 . S
H725 C735 0.930 . S
C726 H720 0.930 . S
C726 C727 1.355 . S
C726 C728 1.415 . S
C727 C726 1.355 . S
C727 C729 1.419 . S
C728 C726 1.415 . S
C728 C733 1.425 . S
C728 C735 1.409 . S
C729 H721 0.930 . S
C729 C727 1.419 . S
C729 C730 1.362 . S
C730 H722 0.930 . S
C730 C729 1.362 . S
C730 C733 1.409 . S
C731 H723 0.930 . S
C731 C732 1.355 . S
C731 C733 1.415 . S
C732 C731 1.355 . S
C732 C734 1.419 . S
C733 C728 1.425 . S
C733 C730 1.409 . S
C733 C731 1.415 . S
C734 H724 0.930 . S
C734 C732 1.419 . S
C734 C735 1.362 . S
C735 H725 0.930 . S
C735 C728 1.409 . S
C735 C734 1.362 . S
H736 C742 0.930 . S
H737 C745 0.930 . S
H738 C746 0.930 . S
H739 C747 0.930 . S
H740 C750 0.930 . S
H741 C751 0.930 . S
C742 H736 0.930 . S
C742 C743 1.355 1_455 S
C742 C744 1.415 . S
C743 C742 1.355 1_655 S
C743 C745 1.419 . S
C744 C742 1.415 . S
C744 C749 1.425 1_455 S
C744 C751 1.409 . S
C745 H737 0.930 . S
C745 C743 1.419 . S
C745 C746 1.362 . S
C746 H738 0.930 . S
C746 C745 1.362 . S
C746 C749 1.409 . S
C747 H739 0.930 . S
C747 C748 1.355 . S
C747 C749 1.415 . S
C748 C747 1.355 . S
C748 C750 1.419 1_655 S
C749 C744 1.425 1_655 S
C749 C746 1.409 . S
C749 C747 1.415 . S
C750 H740 0.930 . S
C750 C748 1.419 1_455 S
C750 C751 1.362 . S
C751 H741 0.930 . S
C751 C744 1.409 . S
C751 C750 1.362 . S
H752 C758 0.930 . S
H753 C761 0.930 . S
H754 C762 0.930 . S
H755 C763 0.930 1_545 S
H756 C766 0.930 . S
H757 C767 0.930 . S
C758 H752 0.930 . S
C758 C759 1.355 . S
C758 C760 1.415 . S
C759 C758 1.355 . S
C759 C761 1.419 1_565 S
C760 C758 1.415 . S
C760 C765 1.425 . S
C760 C767 1.409 . S
C761 H753 0.930 . S
C761 C759 1.419 1_545 S
C761 C762 1.362 . S
C762 H754 0.930 . S
C762 C761 1.362 . S
C762 C765 1.409 1_545 S
C763 H755 0.930 1_565 S
C763 C764 1.355 . S
C763 C765 1.415 . S
C764 C763 1.355 . S
C764 C766 1.419 . S
C765 C760 1.425 . S
C765 C762 1.409 1_565 S
C765 C763 1.415 . S
C766 H756 0.930 . S
C766 C764 1.419 . S
C766 C767 1.362 . S
C767 H757 0.930 . S
C767 C760 1.409 . S
C767 C766 1.362 . S
H768 C774 0.930 . S
H769 C777 0.930 . S
H770 C778 0.930 . S
H771 C779 0.930 . S
H772 C782 0.930 . S
H773 C783 0.930 . S
C774 H768 0.930 . S
C774 C775 1.355 . S
C774 C776 1.415 . S
C775 C774 1.355 . S
C775 C777 1.419 . S
C776 C774 1.415 . S
C776 C781 1.425 . S
C776 C783 1.409 . S
C777 H769 0.930 . S
C777 C775 1.419 . S
C777 C778 1.362 . S
C778 H770 0.930 . S
C778 C777 1.362 . S
C778 C781 1.409 . S
C779 H771 0.930 . S
C779 C780 1.355 . S
C779 C781 1.415 . S
C780 C779 1.355 . S
C780 C782 1.419 . S
C781 C776 1.425 . S
C781 C778 1.409 . S
C781 C779 1.415 . S
C782 H772 0.930 . S
C782 C780 1.419 . S
C782 C783 1.362 . S
C783 H773 0.930 . S
C783 C776 1.409 . S
C783 C782 1.362 . S
H784 C790 0.930 . S
H785 C793 0.930 . S
H786 C794 0.930 . S
H787 C795 0.930 . S
H788 C798 0.930 . S
H789 C799 0.930 . S
C790 H784 0.930 . S
C790 C791 1.355 . S
C790 C792 1.415 . S
C791 C790 1.355 . S
C791 C793 1.419 . S
C792 C790 1.415 . S
C792 C797 1.425 . S
C792 C799 1.409 . S
C793 H785 0.930 . S
C793 C791 1.419 . S
C793 C794 1.362 . S
C794 H786 0.930 . S
C794 C793 1.362 . S
C794 C797 1.409 . S
C795 H787 0.930 . S
C795 C796 1.355 . S
C795 C797 1.415 . S
C796 C795 1.355 . S
C796 C798 1.419 . S
C797 C792 1.425 . S
C797 C794 1.409 . S
C797 C795 1.415 . S
C798 H788 0.930 . S
C798 C796 1.419 . S
C798 C799 1.362 . S
C799 H789 0.930 . S
C799 C792 1.409 . S
C799 C798 1.362 . S
C423 C215 2.102 . S
C428 C258 2.334 . S
C444 C298 2.371 . S
C439 C247 2.158 . S
C460 C338 2.371 . S
C455 C151 2.143 . S
C476 C378 2.365 1_455 S
C471 C183 2.177 1_655 S
C492 C271 2.356 1_565 S
C487 C87 2.174 . S
C503 C119 2.205 . S
C508 C311 2.369 . S
C519 C23 2.172 . S
C524 C351 2.356 . S
C535 C55 2.153 . S
C540 C391 2.365 1_655 S
C556 C282 0.631 . S
C551 C189 0.490 . S
C572 C322 0.460 . S
C567 C221 0.528 . S
C588 C362 0.446 . S
C583 C253 0.510 . S
C599 C157 0.458 . S
C604 C402 0.596 . S
C615 C61 0.650 1_655 S
C620 C265 0.599 . S
C636 C305 0.605 . S
C631 C93 0.656 1_565 S
C652 C345 0.520 . S
C647 C125 0.534 . S
C663 C29 0.502 . S
C668 C385 0.441 . S
C679 C177 2.618 . S
C684 C259 2.985 . S
C695 C209 2.632 . S
C700 C299 2.975 . S
C716 C339 2.951 . S
C711 C241 2.568 . S
C732 C379 2.974 . S
C727 C145 2.570 . S
C743 C49 2.661 1_655 S
C748 C278 2.991 . S
C764 C318 2.953 . S
C759 C81 2.593 1_565 S
C780 C358 2.943 . S
C775 C113 2.645 . S
C791 C17 2.639 . S
C796 C398 2.994 . S
