# Generated by pormake.
# Topology ssb, (4,4)-cn, num edge types: 1
# Building blocks:
#     Node 0, Type 0, BuildingBlock: GIZVER_clean_linker_0, # of connection points: 4
#     Node 1, Type 0, BuildingBlock: GIZVER_clean_linker_0, # of connection points: 4
#     Node 2, Type 0, BuildingBlock: GIZVER_clean_linker_0, # of connection points: 4
#     Node 3, Type 0, BuildingBlock: GIZVER_clean_linker_0, # of connection points: 4
#     Node 4, Type 0, BuildingBlock: GIZVER_clean_linker_0, # of connection points: 4
#     Node 5, Type 0, BuildingBlock: GIZVER_clean_linker_0, # of connection points: 4
#     Node 6, Type 0, BuildingBlock: GIZVER_clean_linker_0, # of connection points: 4
#     Node 7, Type 0, BuildingBlock: GIZVER_clean_linker_0, # of connection points: 4
#     Node 8, Type 1, BuildingBlock: NAWXER_clean_sbu_0, # of connection points: 4
#     Node 9, Type 1, BuildingBlock: NAWXER_clean_sbu_0, # of connection points: 4
#     Node 10, Type 1, BuildingBlock: NAWXER_clean_sbu_0, # of connection points: 4
#     Node 11, Type 1, BuildingBlock: NAWXER_clean_sbu_0, # of connection points: 4
#     Node 12, Type 1, BuildingBlock: NAWXER_clean_sbu_0, # of connection points: 4
#     Node 13, Type 1, BuildingBlock: NAWXER_clean_sbu_0, # of connection points: 4
#     Node 14, Type 1, BuildingBlock: NAWXER_clean_sbu_0, # of connection points: 4
#     Node 15, Type 1, BuildingBlock: NAWXER_clean_sbu_0, # of connection points: 4
#     Edge 16, Type (0, 1), BuildingBlock: TEMPAE_clean_linker_10, # of connection points: 2
#     Edge 17, Type (0, 1), BuildingBlock: TEMPAE_clean_linker_10, # of connection points: 2
#     Edge 18, Type (0, 1), BuildingBlock: TEMPAE_clean_linker_10, # of connection points: 2
#     Edge 19, Type (0, 1), BuildingBlock: TEMPAE_clean_linker_10, # of connection points: 2
#     Edge 20, Type (0, 1), BuildingBlock: TEMPAE_clean_linker_10, # of connection points: 2
#     Edge 21, Type (0, 1), BuildingBlock: TEMPAE_clean_linker_10, # of connection points: 2
#     Edge 22, Type (0, 1), BuildingBlock: TEMPAE_clean_linker_10, # of connection points: 2
#     Edge 23, Type (0, 1), BuildingBlock: TEMPAE_clean_linker_10, # of connection points: 2
#     Edge 24, Type (0, 1), BuildingBlock: TEMPAE_clean_linker_10, # of connection points: 2
#     Edge 25, Type (0, 1), BuildingBlock: TEMPAE_clean_linker_10, # of connection points: 2
#     Edge 26, Type (0, 1), BuildingBlock: TEMPAE_clean_linker_10, # of connection points: 2
#     Edge 27, Type (0, 1), BuildingBlock: TEMPAE_clean_linker_10, # of connection points: 2
#     Edge 28, Type (0, 1), BuildingBlock: TEMPAE_clean_linker_10, # of connection points: 2
#     Edge 29, Type (0, 1), BuildingBlock: TEMPAE_clean_linker_10, # of connection points: 2
#     Edge 30, Type (0, 1), BuildingBlock: TEMPAE_clean_linker_10, # of connection points: 2
#     Edge 31, Type (0, 1), BuildingBlock: TEMPAE_clean_linker_10, # of connection points: 2
#     Edge 32, Type (0, 1), BuildingBlock: TEMPAE_clean_linker_10, # of connection points: 2
#     Edge 33, Type (0, 1), BuildingBlock: TEMPAE_clean_linker_10, # of connection points: 2
#     Edge 34, Type (0, 1), BuildingBlock: TEMPAE_clean_linker_10, # of connection points: 2
#     Edge 35, Type (0, 1), BuildingBlock: TEMPAE_clean_linker_10, # of connection points: 2
#     Edge 36, Type (0, 1), BuildingBlock: TEMPAE_clean_linker_10, # of connection points: 2
#     Edge 37, Type (0, 1), BuildingBlock: TEMPAE_clean_linker_10, # of connection points: 2
#     Edge 38, Type (0, 1), BuildingBlock: TEMPAE_clean_linker_10, # of connection points: 2
#     Edge 39, Type (0, 1), BuildingBlock: TEMPAE_clean_linker_10, # of connection points: 2
#     Edge 40, Type (0, 1), BuildingBlock: TEMPAE_clean_linker_10, # of connection points: 2
#     Edge 41, Type (0, 1), BuildingBlock: TEMPAE_clean_linker_10, # of connection points: 2
#     Edge 42, Type (0, 1), BuildingBlock: TEMPAE_clean_linker_10, # of connection points: 2
#     Edge 43, Type (0, 1), BuildingBlock: TEMPAE_clean_linker_10, # of connection points: 2
#     Edge 44, Type (0, 1), BuildingBlock: TEMPAE_clean_linker_10, # of connection points: 2
#     Edge 45, Type (0, 1), BuildingBlock: TEMPAE_clean_linker_10, # of connection points: 2
#     Edge 46, Type (0, 1), BuildingBlock: TEMPAE_clean_linker_10, # of connection points: 2
#     Edge 47, Type (0, 1), BuildingBlock: TEMPAE_clean_linker_10, # of connection points: 2
# Relax obj value: 0.000
# Max RMSD: 0.030
# Mean RMSD: 0.015
data_MOF--net-ssb--node1-NAWXER_clean_sbu_0--node2-GIZVER_clean_linker_0--edge1-TEMPAE_clean_linker_10
_symmetry_space_group_name_H-M    P1
_symmetry_Int_Tables_number       1
_symmetry_cell_setting            triclinic
loop_
_symmetry_equiv_pos_as_xyz
'x, y, z'
_cell_length_a     46.853245
_cell_length_b     46.613388
_cell_length_c     40.350083
_cell_angle_alpha  89.89675
_cell_angle_beta   89.797477
_cell_angle_gamma 90.029036
loop_
_atom_site_label
_atom_site_type_symbol
_atom_site_fract_x
_atom_site_fract_y
_atom_site_fract_z
_atom_type_partial_charge
H0 H 0.23423 0.19359 0.26962 0.0
H1 H 0.17838 0.26672 0.26416 0.0
H2 H 0.19947 0.23014 0.35873 0.0
H3 H 0.21115 0.20481 0.21833 0.0
H4 H 0.18379 0.23119 0.21703 0.0
H5 H 0.26018 0.21684 0.20297 0.0
H6 H 0.2727 0.29686 0.15144 0.0
H7 H 0.19489 0.28189 0.20524 0.0
C8 C 0.22186 0.2101 0.28194 0.0
C9 C 0.2193 0.20981 0.31668 0.0
C10 C 0.20725 0.2306 0.26279 0.0
C11 C 0.19047 0.25151 0.27882 0.0
C12 C 0.18812 0.2519 0.31359 0.0
C13 C 0.20277 0.23109 0.33215 0.0
C14 C 0.20602 0.22727 0.22552 0.0
C15 C 0.22585 0.24758 0.2074 0.0
C16 C 0.25301 0.23828 0.19673 0.0
C17 C 0.26992 0.25572 0.17596 0.0
C18 C 0.25993 0.28321 0.16748 0.0
C19 C 0.23299 0.29278 0.17794 0.0
C20 C 0.21606 0.27491 0.19794 0.0
H21 H 0.81235 0.24855 0.26665 0.0
H22 H 0.73613 0.19723 0.26019 0.0
H23 H 0.77578 0.21135 0.35454 0.0
H24 H 0.79909 0.22422 0.21479 0.0
H25 H 0.76638 0.2051 0.21147 0.0
H26 H 0.80161 0.27429 0.19959 0.0
H27 H 0.7276 0.31058 0.15287 0.0
H28 H 0.71992 0.23191 0.20754 0.0
C29 C 0.79538 0.23663 0.27873 0.0
C30 C 0.79619 0.23222 0.31318 0.0
C31 C 0.77368 0.22426 0.25943 0.0
C32 C 0.75225 0.20777 0.27504 0.0
C33 C 0.75254 0.20358 0.30957 0.0
C34 C 0.7744 0.21615 0.32829 0.0
C35 C 0.77616 0.22479 0.22209 0.0
C36 C 0.76212 0.25075 0.20667 0.0
C37 C 0.77882 0.27396 0.19507 0.0
C38 C 0.76649 0.29548 0.17531 0.0
C39 C 0.73721 0.29422 0.16841 0.0
C40 C 0.72031 0.27156 0.18001 0.0
C41 C 0.73269 0.25011 0.19968 0.0
H42 H 0.77847 0.70712 0.31283 0.0
H43 H 0.73754 0.79002 0.31221 0.0
H44 H 0.81663 0.77809 0.36394 0.0
H45 H 0.72735 0.7117 0.30086 0.0
H46 H 0.71005 0.74557 0.30345 0.0
H47 H 0.75529 0.69872 0.25023 0.0
H48 H 0.71981 0.73368 0.16073 0.0
H49 H 0.70207 0.7739 0.25415 0.0
C50 C 0.77863 0.72975 0.31892 0.0
C51 C 0.80058 0.74082 0.33876 0.0
C52 C 0.75576 0.74752 0.30907 0.0
C53 C 0.75562 0.77659 0.31852 0.0
C54 C 0.77739 0.78763 0.33862 0.0
C55 C 0.79993 0.76973 0.34806 0.0
C56 C 0.7294 0.73465 0.29357 0.0
C57 C 0.72959 0.73668 0.25621 0.0
C58 C 0.74325 0.71525 0.23754 0.0
C59 C 0.7399 0.71398 0.20298 0.0
C60 C 0.72382 0.73535 0.18711 0.0
C61 C 0.71028 0.75718 0.20519 0.0
C62 C 0.71333 0.7578 0.23984 0.0
H63 H 0.21501 0.754 0.27431 0.0
H64 H 0.28794 0.81027 0.27327 0.0
H65 H 0.23844 0.79995 0.36233 0.0
H66 H 0.23393 0.7723 0.22201 0.0
H67 H 0.26365 0.79617 0.2212 0.0
H68 H 0.24092 0.72064 0.21921 0.0
H69 H 0.32497 0.69076 0.19425 0.0
H70 H 0.31284 0.77796 0.2251 0.0
C71 C 0.22943 0.76827 0.28728 0.0
C72 C 0.2244 0.77486 0.32073 0.0
C73 C 0.25234 0.78088 0.27002 0.0
C74 C 0.27067 0.79996 0.28669 0.0
C75 C 0.26613 0.80644 0.32031 0.0
C76 C 0.24305 0.79366 0.33701 0.0
C77 C 0.25525 0.77634 0.23315 0.0
C78 C 0.27491 0.75161 0.22526 0.0
C79 C 0.26376 0.72424 0.21809 0.0
C80 C 0.28188 0.70207 0.2073 0.0
C81 C 0.31124 0.70723 0.20465 0.0
C82 C 0.32246 0.73458 0.21052 0.0
C83 C 0.30434 0.75656 0.22152 0.0
H84 H 0.30931 0.77486 0.78682 0.0
H85 H 0.24564 0.70874 0.79113 0.0
H86 H 0.28301 0.74064 0.88111 0.0
H87 H 0.29759 0.74876 0.73784 0.0
H88 H 0.27697 0.71687 0.74109 0.0
H89 H 0.2751 0.79481 0.7242 0.0
H90 H 0.19354 0.78939 0.67622 0.0
H91 H 0.2255 0.71704 0.73065 0.0
C92 C 0.29556 0.76099 0.80139 0.0
C93 C 0.29851 0.76012 0.83608 0.0
C94 C 0.27619 0.74279 0.78512 0.0
C95 C 0.25922 0.7239 0.80393 0.0
C96 C 0.2615 0.72282 0.83869 0.0
C97 C 0.2807 0.74162 0.85445 0.0
C98 C 0.27717 0.74001 0.7478 0.0
C99 C 0.25246 0.75479 0.73089 0.0
C100 C 0.2555 0.7832 0.7194 0.0
C101 C 0.23449 0.79562 0.69916 0.0
C102 C 0.2096 0.78005 0.69226 0.0
C103 C 0.2061 0.75183 0.70363 0.0
C104 C 0.2276 0.73923 0.72294 0.0
H105 H 0.296 0.23187 0.79892 0.0
H106 H 0.2245 0.28968 0.79366 0.0
H107 H 0.30692 0.32092 0.82248 0.0
H108 H 0.24741 0.21365 0.79911 0.0
H109 H 0.21771 0.23739 0.79815 0.0
H110 H 0.27099 0.19792 0.74721 0.0
H111 H 0.2191 0.20337 0.65984 0.0
H112 H 0.19723 0.25315 0.74579 0.0
C113 C 0.28756 0.25351 0.79965 0.0
C114 C 0.30512 0.27611 0.81023 0.0
C115 C 0.25854 0.25834 0.79266 0.0
C116 C 0.24721 0.28613 0.79664 0.0
C117 C 0.26478 0.30887 0.80688 0.0
C118 C 0.29382 0.30382 0.81244 0.0
C119 C 0.23892 0.23317 0.78666 0.0
C120 C 0.23507 0.22697 0.75022 0.0
C121 C 0.25331 0.20748 0.73391 0.0
C122 C 0.2474 0.19866 0.70137 0.0
C123 C 0.22392 0.21052 0.68477 0.0
C124 C 0.20567 0.23013 0.70044 0.0
C125 C 0.2115 0.23845 0.73318 0.0
H126 H 0.68527 0.23824 0.7704 0.0
H127 H 0.73936 0.31286 0.77454 0.0
H128 H 0.69947 0.2808 0.86323 0.0
H129 H 0.69704 0.2648 0.71992 0.0
H130 H 0.71561 0.29809 0.72225 0.0
H131 H 0.7228 0.21973 0.71336 0.0
H132 H 0.80923 0.22503 0.67845 0.0
H133 H 0.76816 0.30008 0.71812 0.0
C134 C 0.69599 0.25466 0.7847 0.0
C135 C 0.69136 0.25629 0.81913 0.0
C136 C 0.71359 0.27492 0.76852 0.0
C137 C 0.72642 0.29688 0.78708 0.0
C138 C 0.72154 0.29908 0.82134 0.0
C139 C 0.70442 0.27843 0.8371 0.0
C140 C 0.71592 0.27548 0.73115 0.0
C141 C 0.74289 0.26116 0.71887 0.0
C142 C 0.74233 0.23196 0.71031 0.0
C143 C 0.76627 0.21891 0.69587 0.0
C144 C 0.79124 0.23489 0.69103 0.0
C145 C 0.79213 0.26423 0.69875 0.0
C146 C 0.76791 0.27728 0.71292 0.0
H147 H 0.77566 0.69008 0.75249 0.0
H148 H 0.69968 0.74182 0.75752 0.0
H149 H 0.73374 0.7037 0.84598 0.0
H150 H 0.7465 0.69902 0.70272 0.0
H151 H 0.71447 0.71948 0.70531 0.0
H152 H 0.79367 0.72313 0.69981 0.0
H153 H 0.7926 0.807 0.65586 0.0
H154 H 0.715 0.77102 0.69514 0.0
C155 C 0.75909 0.70037 0.76702 0.0
C156 C 0.75802 0.69606 0.80152 0.0
C157 C 0.73812 0.71705 0.75106 0.0
C158 C 0.7161 0.72947 0.76989 0.0
C159 C 0.71442 0.72488 0.80425 0.0
C160 C 0.73569 0.70853 0.81977 0.0
C161 C 0.73705 0.71875 0.71371 0.0
C162 C 0.7528 0.74464 0.70048 0.0
C163 C 0.78225 0.74272 0.694 0.0
C164 C 0.79666 0.76535 0.67831 0.0
C165 C 0.78164 0.79006 0.66931 0.0
C166 C 0.75219 0.7922 0.67503 0.0
C167 C 0.73788 0.76974 0.69139 0.0
C168 C 0.95666 0.30295 0.55464 0.0
C169 C 0.03511 0.29866 0.47284 0.0
O170 O 0.96996 0.32458 0.54297 0.0
Zn171 Zn 0.99656 0.30297 0.51443 0.0
O172 O 0.96441 0.27765 0.54627 0.0
Zn173 Zn 0.99498 0.25676 0.51598 0.0
O174 O 0.01874 0.23642 0.54743 0.0
O175 O 0.0243 0.28335 0.54993 0.0
O176 O 0.02576 0.27438 0.48304 0.0
O177 O 0.0241 0.32163 0.48424 0.0
O178 O 0.96809 0.28306 0.47964 0.0
O179 O 0.9704 0.23603 0.48595 0.0
C180 C 0.03093 0.25816 0.56012 0.0
C181 C 0.96002 0.2578 0.47121 0.0
C182 C 0.76008 0.04466 0.55186 0.0
C183 C 0.75904 0.97207 0.46481 0.0
O184 O 0.78151 0.03408 0.53681 0.0
Zn185 Zn 0.76045 0.00901 0.50779 0.0
O186 O 0.73474 0.03696 0.54377 0.0
Zn187 Zn 0.71463 0.00882 0.50861 0.0
O188 O 0.69434 0.98209 0.53778 0.0
O189 O 0.74125 0.97922 0.54151 0.0
O190 O 0.734 0.97957 0.47435 0.0
O191 O 0.78078 0.98405 0.47755 0.0
O192 O 0.74102 0.03888 0.47533 0.0
O193 O 0.69424 0.03551 0.47917 0.0
C194 C 0.71641 0.97079 0.55074 0.0
C195 C 0.71621 0.04726 0.46637 0.0
C196 C 0.97792 0.75304 0.54935 0.0
C197 C 0.05001 0.74736 0.4623 0.0
O198 O 0.98934 0.77373 0.53361 0.0
Zn199 Zn 0.01362 0.75086 0.50533 0.0
O200 O 0.98483 0.72714 0.54234 0.0
Zn201 Zn 0.01243 0.70499 0.50849 0.0
O202 O 0.03785 0.68508 0.53932 0.0
O203 O 0.04344 0.73215 0.53882 0.0
O204 O 0.04209 0.72252 0.47268 0.0
O205 O 0.03861 0.76976 0.47446 0.0
O206 O 0.98347 0.73088 0.47377 0.0
O207 O 0.98508 0.68403 0.48067 0.0
C208 C 0.05073 0.70738 0.54967 0.0
C209 C 0.97428 0.70583 0.46639 0.0
C210 C 0.31166 0.04529 0.55432 0.0
C211 C 0.30289 0.97028 0.47012 0.0
O212 O 0.33211 0.03243 0.53987 0.0
Zn213 Zn 0.30832 0.00767 0.51235 0.0
O214 O 0.2858 0.03875 0.5476 0.0
Zn215 Zn 0.26307 0.00979 0.51656 0.0
O216 O 0.24306 0.98591 0.54813 0.0
O217 O 0.28957 0.9787 0.54818 0.0
O218 O 0.27889 0.97926 0.48142 0.0
O219 O 0.32591 0.98113 0.48108 0.0
O220 O 0.28774 0.03812 0.4797 0.0
O221 O 0.24141 0.03574 0.48923 0.0
C222 C 0.26461 0.97259 0.55942 0.0
C223 C 0.26228 0.04672 0.47347 0.0
C224 C 0.48611 0.74801 0.05655 0.0
C225 C 0.54941 0.75152 0.96066 0.0
O226 O 0.49188 0.77369 0.04722 0.0
Zn227 Zn 0.51546 0.79496 0.00857 0.0
O228 O 0.49569 0.72676 0.04024 0.0
Zn229 Zn 0.5166 0.74889 1.00784 0.0
O230 O 0.54824 0.76902 0.03764 0.0
O231 O 0.54345 0.81607 0.03533 0.0
O232 O 0.53933 0.72943 0.97506 0.0
O233 O 0.54203 0.77656 0.97069 0.0
O234 O 0.48513 0.81433 0.98319 0.0
O235 O 0.48288 0.76723 0.98014 0.0
C236 C 0.5565 0.79408 0.04642 0.0
C237 C 0.47273 0.79185 0.97257 0.0
C238 C 0.24722 0.54052 0.05087 0.0
C239 C 0.2413 0.47567 0.95598 0.0
O240 O 0.26779 0.53009 0.03419 0.0
Zn241 Zn 0.2452 0.50817 1.00285 0.0
O242 O 0.22151 0.53455 0.04274 0.0
Zn243 Zn 0.19958 0.51035 1.00594 0.0
O244 O 0.17901 0.4825 0.03352 0.0
O245 O 0.22567 0.47567 0.03237 0.0
O246 O 0.21669 0.48363 0.96668 0.0
O247 O 0.26381 0.48486 0.97 0.0
O248 O 0.2262 0.54059 0.97305 0.0
O249 O 0.17959 0.54067 0.9816 0.0
C250 C 0.20078 0.46803 0.04219 0.0
C251 C 0.20148 0.55105 0.96717 0.0
C252 C 0.53549 0.22045 0.97769 0.0
C253 C 0.45534 0.22245 0.0578 0.0
O254 O 0.52762 0.24542 0.98732 0.0
Zn255 Zn 0.49718 0.2655 0.01919 0.0
O256 O 0.52273 0.19835 0.98912 0.0
Zn257 Zn 0.49573 0.21924 0.01777 0.0
O258 O 0.47109 0.24057 0.98084 0.0
O259 O 0.47443 0.28746 0.98792 0.0
O260 O 0.46614 0.20005 0.0448 0.0
O261 O 0.46546 0.24705 0.04999 0.0
O262 O 0.52181 0.2845 0.0507 0.0
O263 O 0.52418 0.23727 0.05372 0.0
C264 C 0.46469 0.26614 0.97189 0.0
C265 C 0.53238 0.26204 0.06376 0.0
C266 C 0.76597 0.54522 0.05098 0.0
C267 C 0.76052 0.46913 0.96825 0.0
O268 O 0.79063 0.53722 0.04056 0.0
Zn269 Zn 0.80811 0.50704 1.00551 0.0
O270 O 0.74365 0.53343 0.03941 0.0
Zn271 Zn 0.7624 0.50728 0.00964 0.0
O272 O 0.78362 0.47892 0.04258 0.0
O273 O 0.8301 0.48094 0.03405 0.0
O274 O 0.7399 0.48116 0.98335 0.0
O275 O 0.78619 0.47701 0.97436 0.0
O276 O 0.82637 0.53247 0.97266 0.0
O277 O 0.77946 0.53562 0.97347 0.0
C278 C 0.80886 0.47048 0.04975 0.0
C279 C 0.80352 0.5436 0.96146 0.0
C280 C 0.13899 0.27245 0.32039 0.0
C281 C 0.16743 0.27095 0.331 0.0
C282 C 0.11759 0.28374 0.34111 0.0
C283 C 0.12482 0.29368 0.37319 0.0
C284 C 0.15392 0.29511 0.38245 0.0
C285 C 0.17485 0.28371 0.36125 0.0
C286 C 0.08692 0.28206 0.33003 0.0
C287 C 0.16273 0.30577 0.41619 0.0
C288 C 0.06666 0.32358 0.43048 0.0
C289 C 0.05866 0.29878 0.44802 0.0
C290 C 0.08828 0.32253 0.40602 0.0
C291 C 0.10218 0.29616 0.39916 0.0
C292 C 0.09443 0.2713 0.41726 0.0
C293 C 0.07291 0.27293 0.44127 0.0
C294 C 0.09598 0.34946 0.38723 0.0
C295 C 0.10876 0.2427 0.41113 0.0
H296 H 0.13303 0.26262 0.29708 0.0
H297 H 0.19689 0.28304 0.36935 0.0
H298 H 0.07647 0.26339 0.34213 0.0
H299 H 0.07499 0.30158 0.33746 0.0
H300 H 0.08523 0.27939 0.30275 0.0
H301 H 0.18586 0.31096 0.41707 0.0
H302 H 0.15037 0.32511 0.4233 0.0
H303 H 0.15827 0.28889 0.43494 0.0
H304 H 0.05576 0.34361 0.43548 0.0
H305 H 0.06718 0.25365 0.45481 0.0
H306 H 0.09086 0.34669 0.36061 0.0
H307 H 0.11926 0.35354 0.38889 0.0
H308 H 0.08437 0.36855 0.39669 0.0
H309 H 0.10554 0.23605 0.38502 0.0
H310 H 0.10037 0.22548 0.42757 0.0
H311 H 0.13209 0.24459 0.4152 0.0
C312 C 0.72162 0.189 0.35741 0.0
C313 C 0.73334 0.18256 0.32625 0.0
C314 C 0.71142 0.16719 0.37837 0.0
C315 C 0.713 0.13826 0.36788 0.0
C316 C 0.72144 0.13209 0.33488 0.0
C317 C 0.73158 0.15435 0.31442 0.0
C318 C 0.70232 0.17491 0.41314 0.0
C319 C 0.72308 0.10163 0.32245 0.0
C320 C 0.7391 0.08567 0.43263 0.0
C321 C 0.71419 0.07072 0.44147 0.0
C322 C 0.73873 0.10755 0.40889 0.0
C323 C 0.71276 0.11487 0.39318 0.0
C324 C 0.68738 0.10007 0.40198 0.0
C325 C 0.68836 0.07815 0.42616 0.0
C326 C 0.76635 0.12285 0.40063 0.0
C327 C 0.65935 0.10723 0.38567 0.0
H328 H 0.72257 0.21087 0.36645 0.0
H329 H 0.74059 0.14918 0.29038 0.0
H330 H 0.6839 0.16168 0.42129 0.0
H331 H 0.72022 0.17064 0.4304 0.0
H332 H 0.69648 0.19794 0.41517 0.0
H333 H 0.72393 0.10078 0.29495 0.0
H334 H 0.74268 0.09135 0.33225 0.0
H335 H 0.70453 0.08889 0.33123 0.0
H336 H 0.75918 0.08033 0.44439 0.0
H337 H 0.66903 0.06668 0.43278 0.0
H338 H 0.76414 0.14616 0.40552 0.0
H339 H 0.77142 0.12026 0.37392 0.0
H340 H 0.78467 0.11463 0.41525 0.0
H341 H 0.64137 0.09444 0.396 0.0
H342 H 0.66085 0.10311 0.35865 0.0
H343 H 0.65447 0.13035 0.38882 0.0
C344 C 0.84614 0.71301 0.33467 0.0
C345 C 0.82285 0.72238 0.35356 0.0
C346 C 0.87108 0.70296 0.35025 0.0
C347 C 0.87264 0.70273 0.38536 0.0
C348 C 0.84799 0.70946 0.40423 0.0
C349 C 0.82342 0.71922 0.38806 0.0
C350 C 0.89661 0.69533 0.32919 0.0
C351 C 0.84852 0.70958 0.44165 0.0
C352 C 0.93636 0.67729 0.43639 0.0
C353 C 0.95024 0.70343 0.44257 0.0
C354 C 0.91184 0.67622 0.4162 0.0
C355 C 0.90089 0.7019 0.4023 0.0
C356 C 0.91562 0.72804 0.40734 0.0
C357 C 0.94006 0.72842 0.42714 0.0
C358 C 0.89706 0.64786 0.41088 0.0
C359 C 0.90478 0.75604 0.39318 0.0
H360 H 0.84568 0.71557 0.30796 0.0
H361 H 0.8053 0.72653 0.40258 0.0
H362 H 0.91161 0.71376 0.32854 0.0
H363 H 0.90819 0.67671 0.33977 0.0
H364 H 0.89034 0.69028 0.30332 0.0
H365 H 0.82672 0.71103 0.45245 0.0
H366 H 0.859 0.68996 0.45129 0.0
H367 H 0.86106 0.72831 0.45033 0.0
H368 H 0.94413 0.65784 0.44801 0.0
H369 H 0.95072 0.74873 0.43134 0.0
H370 H 0.89054 0.64546 0.38462 0.0
H371 H 0.87741 0.64697 0.42627 0.0
H372 H 0.91088 0.62947 0.41782 0.0
H373 H 0.90202 0.75422 0.36598 0.0
H374 H 0.91942 0.77427 0.39824 0.0
H375 H 0.88359 0.76115 0.40404 0.0
C376 C 0.29119 0.82473 0.37067 0.0
C377 C 0.28283 0.82898 0.33767 0.0
C378 C 0.30016 0.84778 0.39037 0.0
C379 C 0.30092 0.87576 0.37669 0.0
C380 C 0.29535 0.87966 0.34247 0.0
C381 C 0.2863 0.85619 0.32333 0.0
C382 C 0.30604 0.84252 0.42664 0.0
C383 C 0.29629 0.90905 0.32677 0.0
C384 C 0.27713 0.93453 0.43534 0.0
C385 C 0.30308 0.94692 0.4451 0.0
C386 C 0.27631 0.91178 0.41276 0.0
C387 C 0.30208 0.90104 0.39925 0.0
C388 C 0.32839 0.91372 0.40837 0.0
C389 C 0.32861 0.93649 0.43133 0.0
C390 C 0.24773 0.89887 0.40388 0.0
C391 C 0.35626 0.90297 0.39428 0.0
H392 H 0.28895 0.80361 0.38169 0.0
H393 H 0.27984 0.85966 0.29787 0.0
H394 H 0.3253 0.85442 0.4347 0.0
H395 H 0.28775 0.85044 0.44159 0.0
H396 H 0.30908 0.81937 0.43215 0.0
H397 H 0.29696 0.90781 0.29928 0.0
H398 H 0.27693 0.92122 0.3341 0.0
H399 H 0.31512 0.9213 0.33547 0.0
H400 H 0.25725 0.94237 0.44572 0.0
H401 H 0.34875 0.94596 0.43863 0.0
H402 H 0.24716 0.87594 0.41129 0.0
H403 H 0.24451 0.8998 0.37668 0.0
H404 H 0.22963 0.91006 0.41614 0.0
H405 H 0.36005 0.88062 0.40265 0.0
H406 H 0.37466 0.9164 0.402 0.0
H407 H 0.35533 0.90262 0.36681 0.0
C408 C 0.18683 0.71179 0.66947 0.0
C409 C 0.18175 0.73496 0.69077 0.0
C410 C 0.16494 0.70092 0.6493 0.0
C411 C 0.1374 0.71341 0.65081 0.0
C412 C 0.13157 0.7347 0.67494 0.0
C413 C 0.15391 0.74543 0.69439 0.0
C414 C 0.17214 0.67825 0.62398 0.0
C415 C 0.10242 0.74824 0.67791 0.0
C416 C 0.09632 0.7262 0.5716 0.0
C417 C 0.07445 0.70577 0.57368 0.0
C418 C 0.11757 0.72787 0.59578 0.0
C419 C 0.11676 0.70891 0.62324 0.0
C420 C 0.09533 0.68745 0.62493 0.0
C421 C 0.07445 0.68596 0.59987 0.0
C422 C 0.1403 0.75075 0.5925 0.0
C423 C 0.0936 0.66705 0.65392 0.0
H424 H 0.20843 0.70384 0.66646 0.0
H425 H 0.15002 0.76333 0.71094 0.0
H426 H 0.15465 0.66232 0.62186 0.0
H427 H 0.17486 0.68856 0.59935 0.0
H428 H 0.19224 0.66685 0.6302 0.0
H429 H 0.10002 0.76048 0.70136 0.0
H430 H 0.09911 0.76323 0.65687 0.0
H431 H 0.08544 0.73168 0.67678 0.0
H432 H 0.09654 0.74134 0.55115 0.0
H433 H 0.05745 0.67025 0.6016 0.0
H434 H 0.16184 0.74107 0.59476 0.0
H435 H 0.13792 0.76662 0.61278 0.0
H436 H 0.13911 0.76233 0.56846 0.0
H437 H 0.1149 0.6579 0.65949 0.0
H438 H 0.07839 0.64921 0.64934 0.0
H439 H 0.08643 0.67892 0.67625 0.0
C440 C 0.24851 0.15253 0.67046 0.0
C441 C 0.2636 0.17508 0.68523 0.0
C442 C 0.26251 0.13156 0.65173 0.0
C443 C 0.29253 0.13291 0.64778 0.0
C444 C 0.30815 0.15474 0.66411 0.0
C445 C 0.29346 0.17566 0.68273 0.0
C446 C 0.24489 0.1086 0.63503 0.0
C447 C 0.34016 0.1567 0.66079 0.0
C448 C 0.31882 0.0629 0.61167 0.0
C449 C 0.31657 0.0688 0.57777 0.0
C450 C 0.31411 0.08459 0.63526 0.0
C451 C 0.30661 0.11254 0.62445 0.0
C452 C 0.307 0.11901 0.59012 0.0
C453 C 0.3118 0.09695 0.56716 0.0
C454 C 0.31424 0.07683 0.67156 0.0
C455 C 0.2992 0.14845 0.57741 0.0
H456 H 0.22547 0.15168 0.67297 0.0
H457 H 0.30517 0.19303 0.69423 0.0
H458 H 0.24681 0.11075 0.60771 0.0
H459 H 0.25291 0.08701 0.64184 0.0
H460 H 0.22193 0.10988 0.64182 0.0
H461 H 0.34949 0.1721 0.67873 0.0
H462 H 0.3501 0.13535 0.6646 0.0
H463 H 0.34578 0.16387 0.63536 0.0
H464 H 0.32203 0.04095 0.61976 0.0
H465 H 0.30963 0.10127 0.54086 0.0
H466 H 0.29195 0.07384 0.68028 0.0
H467 H 0.32388 0.09424 0.68653 0.0
H468 H 0.32613 0.0566 0.67619 0.0
H469 H 0.27584 0.15168 0.58011 0.0
H470 H 0.30495 0.15122 0.55086 0.0
H471 H 0.31 0.16536 0.59204 0.0
C472 C 0.81297 0.30295 0.66324 0.0
C473 C 0.81695 0.28126 0.68689 0.0
C474 C 0.83604 0.31333 0.64428 0.0
C475 C 0.86369 0.30182 0.64933 0.0
C476 C 0.8682 0.28229 0.67576 0.0
C477 C 0.84473 0.27206 0.69403 0.0
C478 C 0.83021 0.33421 0.61652 0.0
C479 C 0.89733 0.26983 0.68251 0.0
C480 C 0.91007 0.28486 0.57491 0.0
C481 C 0.93152 0.30577 0.57676 0.0
C482 C 0.88736 0.28429 0.59751 0.0
C483 C 0.8861 0.30497 0.62314 0.0
C484 C 0.90708 0.32691 0.62446 0.0
C485 C 0.92954 0.32718 0.60102 0.0
C486 C 0.86528 0.26076 0.59461 0.0
C487 C 0.90657 0.34922 0.65147 0.0
H488 H 0.79148 0.30999 0.65751 0.0
H489 H 0.84786 0.25537 0.71243 0.0
H490 H 0.8475 0.35039 0.61449 0.0
H491 H 0.82939 0.32237 0.5927 0.0
H492 H 0.80953 0.34547 0.62004 0.0
H493 H 0.8983 0.25923 0.70716 0.0
H494 H 0.90247 0.25362 0.66328 0.0
H495 H 0.91396 0.28675 0.6813 0.0
H496 H 0.91131 0.26847 0.55591 0.0
H497 H 0.94616 0.3433 0.60259 0.0
H498 H 0.84351 0.27009 0.59404 0.0
H499 H 0.86647 0.24642 0.61654 0.0
H500 H 0.86833 0.24755 0.57198 0.0
H501 H 0.88475 0.35805 0.6547 0.0
H502 H 0.92156 0.36716 0.64624 0.0
H503 H 0.91274 0.33912 0.6753 0.0
C504 C 0.73794 0.81967 0.62516 0.0
C505 C 0.7366 0.81635 0.65962 0.0
C506 C 0.72861 0.84495 0.60984 0.0
C507 C 0.71776 0.8676 0.62954 0.0
C508 C 0.71424 0.86344 0.66417 0.0
C509 C 0.72378 0.83775 0.67889 0.0
C510 C 0.7327 0.84826 0.57288 0.0
C511 C 0.70244 0.88688 0.68597 0.0
C512 C 0.73876 0.93938 0.59328 0.0
C513 C 0.71441 0.94697 0.57511 0.0
C514 C 0.73936 0.91456 0.61284 0.0
C515 C 0.71495 0.8967 0.61446 0.0
C516 C 0.68961 0.9052 0.59805 0.0
C517 C 0.68962 0.9303 0.57848 0.0
C518 C 0.76686 0.9065 0.62998 0.0
C519 C 0.66304 0.88696 0.59955 0.0
H520 H 0.74772 0.80294 0.61031 0.0
H521 H 0.72278 0.83512 0.70557 0.0
H522 H 0.71309 0.85694 0.56127 0.0
H523 H 0.75023 0.86373 0.56796 0.0
H524 H 0.73816 0.8276 0.56072 0.0
H525 H 0.6958 0.87854 0.71063 0.0
H526 H 0.71907 0.9035 0.68976 0.0
H527 H 0.6839 0.89745 0.67406 0.0
H528 H 0.7579 0.95237 0.5913 0.0
H529 H 0.67068 0.93608 0.56466 0.0
H530 H 0.77596 0.88701 0.61823 0.0
H531 H 0.76278 0.90137 0.65642 0.0
H532 H 0.78305 0.92388 0.62863 0.0
H533 H 0.66593 0.86781 0.5836 0.0
H534 H 0.64393 0.89885 0.59083 0.0
H535 H 0.65909 0.87923 0.62519 0.0
C536 C 0.83132 0.74273 0.64002 0.0
C537 C 0.82612 0.76176 0.6661 0.0
C538 C 0.85784 0.7423 0.62387 0.0
C539 C 0.87985 0.76089 0.63469 0.0
C540 C 0.87508 0.77916 0.66217 0.0
C541 C 0.84799 0.77975 0.67723 0.0
C542 C 0.86182 0.72293 0.59424 0.0
C543 C 0.89826 0.79863 0.67502 0.0
C544 C 0.95251 0.73971 0.60139 0.0
C545 C 0.9553 0.75814 0.5741 0.0
C546 C 0.92896 0.74172 0.62282 0.0
C547 C 0.90725 0.76196 0.61602 0.0
C548 C 0.91053 0.78136 0.58917 0.0
C549 C 0.93481 0.77949 0.56879 0.0
C550 C 0.92671 0.72133 0.65182 0.0
C551 C 0.88756 0.80282 0.58063 0.0
H552 H 0.8141 0.72923 0.63118 0.0
H553 H 0.84371 0.79462 0.69727 0.0
H554 H 0.86652 0.73605 0.57189 0.0
H555 H 0.88029 0.70846 0.59817 0.0
H556 H 0.84265 0.70961 0.58925 0.0
H557 H 0.89217 0.80901 0.69877 0.0
H558 H 0.91829 0.78636 0.67877 0.0
H559 H 0.90286 0.81566 0.65653 0.0
H560 H 0.96852 0.72333 0.60562 0.0
H561 H 0.93689 0.79358 0.5475 0.0
H562 H 0.90983 0.7052 0.64693 0.0
H563 H 0.92053 0.73309 0.67464 0.0
H564 H 0.94707 0.70982 0.65643 0.0
H565 H 0.86799 0.79125 0.57284 0.0
H566 H 0.89416 0.81752 0.5603 0.0
H567 H 0.88188 0.81582 0.60267 0.0
C568 C 0.23617 0.82427 0.647 0.0
C569 C 0.23982 0.82308 0.68146 0.0
C570 C 0.24072 0.84976 0.6293 0.0
C571 C 0.24894 0.87488 0.64646 0.0
C572 C 0.25279 0.87385 0.68129 0.0
C573 C 0.24842 0.84783 0.69839 0.0
C574 C 0.23683 0.84972 0.59214 0.0
C575 C 0.26128 0.90026 0.70045 0.0
C576 C 0.28428 0.93164 0.59251 0.0
C577 C 0.26106 0.94926 0.58422 0.0
C578 C 0.28089 0.90804 0.61384 0.0
C579 C 0.25368 0.90198 0.62752 0.0
C580 C 0.23043 0.92038 0.62041 0.0
C581 C 0.23436 0.94371 0.59873 0.0
C582 C 0.30618 0.88882 0.6205 0.0
C583 C 0.20113 0.91481 0.63473 0.0
H584 H 0.23001 0.80503 0.63375 0.0
H585 H 0.25122 0.84692 0.72503 0.0
H586 H 0.22008 0.86537 0.58506 0.0
H587 H 0.25692 0.85649 0.57975 0.0
H588 H 0.23068 0.82828 0.58253 0.0
H589 H 0.26328 0.89594 0.72743 0.0
H590 H 0.28196 0.9086 0.69106 0.0
H591 H 0.24518 0.91741 0.69674 0.0
H592 H 0.30503 0.93574 0.58151 0.0
H593 H 0.21634 0.95731 0.5927 0.0
H594 H 0.30244 0.86746 0.60922 0.0
H595 H 0.30885 0.88547 0.64754 0.0
H596 H 0.32635 0.89774 0.61022 0.0
H597 H 0.19229 0.89479 0.62404 0.0
H598 H 0.18605 0.93262 0.62954 0.0
H599 H 0.20246 0.91167 0.66195 0.0
C600 C 0.18002 0.2466 0.64951 0.0
C601 C 0.17915 0.23926 0.68323 0.0
C602 C 0.15485 0.25085 0.63144 0.0
C603 C 0.12809 0.24787 0.6475 0.0
C604 C 0.12706 0.24184 0.6819 0.0
C605 C 0.15263 0.23757 0.69937 0.0
C606 C 0.15692 0.25747 0.59485 0.0
C607 C 0.09896 0.23874 0.69995 0.0
C608 C 0.06477 0.27909 0.60135 0.0
C609 C 0.05389 0.25484 0.58506 0.0
C610 C 0.08824 0.27697 0.62274 0.0
C611 C 0.10133 0.24999 0.62783 0.0
C612 C 0.08987 0.22527 0.61237 0.0
C613 C 0.06622 0.22797 0.59126 0.0
C614 C 0.09962 0.30378 0.63898 0.0
C615 C 0.10329 0.19611 0.61714 0.0
H616 H 0.20048 0.24826 0.63702 0.0
H617 H 0.15178 0.23158 0.72533 0.0
H618 H 0.14716 0.23977 0.58043 0.0
H619 H 0.14485 0.2773 0.58901 0.0
H620 H 0.17934 0.2603 0.58643 0.0
H621 H 0.10181 0.23647 0.72715 0.0
H622 H 0.08516 0.25761 0.69508 0.0
H623 H 0.08752 0.21954 0.69067 0.0
H624 H 0.05528 0.29994 0.59693 0.0
H625 H 0.05798 0.20915 0.57879 0.0
H626 H 0.12119 0.30871 0.62904 0.0
H627 H 0.10183 0.30044 0.66608 0.0
H628 H 0.08564 0.32266 0.63468 0.0
H629 H 0.12523 0.19617 0.60668 0.0
H630 H 0.09088 0.17879 0.60495 0.0
H631 H 0.10508 0.19109 0.64393 0.0
C632 C 0.74566 0.18682 0.65329 0.0
C633 C 0.76395 0.19036 0.68031 0.0
C634 C 0.74602 0.16151 0.6346 0.0
C635 C 0.76463 0.13892 0.64374 0.0
C636 C 0.78229 0.14195 0.67196 0.0
C637 C 0.78212 0.16793 0.68961 0.0
C638 C 0.72733 0.15945 0.60427 0.0
C639 C 0.80175 0.11803 0.68305 0.0
C640 C 0.74482 0.06783 0.60455 0.0
C641 C 0.76379 0.0667 0.57766 0.0
C642 C 0.74609 0.0903 0.62758 0.0
C643 C 0.76613 0.11268 0.62286 0.0
C644 C 0.7859 0.11117 0.59623 0.0
C645 C 0.78477 0.08789 0.57421 0.0
C646 C 0.72529 0.09062 0.65624 0.0
C647 C 0.80712 0.13496 0.58985 0.0
H648 H 0.73202 0.20447 0.64584 0.0
H649 H 0.7964 0.17089 0.71042 0.0
H650 H 0.74081 0.15625 0.5819 0.0
H651 H 0.71292 0.14064 0.60632 0.0
H652 H 0.71411 0.17897 0.60058 0.0
H653 H 0.81198 0.12272 0.70724 0.0
H654 H 0.78961 0.09766 0.68525 0.0
H655 H 0.81876 0.11461 0.66428 0.0
H656 H 0.72874 0.05124 0.60736 0.0
H657 H 0.7993 0.08709 0.55326 0.0
H658 H 0.70937 0.10792 0.65249 0.0
H659 H 0.73661 0.09523 0.67976 0.0
H660 H 0.71372 0.06993 0.65886 0.0
H661 H 0.79552 0.15499 0.58357 0.0
H662 H 0.82199 0.12981 0.5692 0.0
H663 H 0.81979 0.1393 0.61244 0.0
C664 C 0.81773 0.25121 0.36554 0.0
C665 C 0.8214 0.24084 0.33318 0.0
C666 C 0.84112 0.25494 0.38672 0.0
C667 C 0.86894 0.24845 0.37517 0.0
C668 C 0.87297 0.23937 0.34202 0.0
C669 C 0.84914 0.23557 0.32144 0.0
C670 C 0.83592 0.26478 0.42187 0.0
C671 C 0.90233 0.23255 0.32868 0.0
C672 C 0.93048 0.27828 0.42546 0.0
C673 C 0.93804 0.25461 0.44514 0.0
C674 C 0.90857 0.27637 0.40197 0.0
C675 C 0.89361 0.25023 0.39823 0.0
C676 C 0.90148 0.22606 0.41751 0.0
C677 C 0.92372 0.2285 0.44063 0.0
C678 C 0.90104 0.30251 0.38163 0.0
C679 C 0.8859 0.19784 0.41433 0.0
H680 H 0.79638 0.25564 0.37463 0.0
H681 H 0.85218 0.22717 0.29665 0.0
H682 H 0.84252 0.24771 0.43943 0.0
H683 H 0.84901 0.28403 0.42731 0.0
H684 H 0.81313 0.27001 0.42659 0.0
H685 H 0.90211 0.22805 0.30166 0.0
H686 H 0.91713 0.25067 0.33338 0.0
H687 H 0.91102 0.2135 0.34172 0.0
H688 H 0.94157 0.29851 0.42858 0.0
H689 H 0.92938 0.21014 0.45576 0.0
H690 H 0.879 0.30952 0.38765 0.0
H691 H 0.90156 0.29722 0.35484 0.0
H692 H 0.91581 0.32073 0.38617 0.0
H693 H 0.86315 0.20071 0.42129 0.0
H694 H 0.89522 0.18085 0.43031 0.0
H695 H 0.88644 0.19043 0.38823 0.0
C696 C 0.77049 0.84097 0.33409 0.0
C697 C 0.77502 0.81652 0.35361 0.0
C698 C 0.76876 0.86832 0.34869 0.0
C699 C 0.77107 0.87101 0.38357 0.0
C700 C 0.77541 0.84626 0.40329 0.0
C701 C 0.77745 0.8194 0.38806 0.0
C702 C 0.76444 0.89429 0.3269 0.0
C703 C 0.77746 0.84806 0.44061 0.0
C704 C 0.78906 0.94008 0.42871 0.0
C705 C 0.76214 0.94831 0.44067 0.0
C706 C 0.79214 0.91585 0.4083 0.0
C707 C 0.76778 0.89935 0.40004 0.0
C708 C 0.74046 0.90829 0.41086 0.0
C709 C 0.73796 0.93271 0.43087 0.0
C710 C 0.82159 0.90717 0.39684 0.0
C711 C 0.71398 0.89115 0.40293 0.0
H712 H 0.76871 0.83871 0.30744 0.0
H713 H 0.78053 0.80042 0.40321 0.0
H714 H 0.744 0.90495 0.33335 0.0
H715 H 0.78174 0.9101 0.33122 0.0
H716 H 0.76412 0.88869 0.30016 0.0
H717 H 0.7811 0.82677 0.45227 0.0
H718 H 0.7952 0.86254 0.44772 0.0
H719 H 0.7575 0.85727 0.45093 0.0
H720 H 0.80781 0.95213 0.43592 0.0
H721 H 0.71703 0.93893 0.43984 0.0
H722 H 0.82153 0.90242 0.36991 0.0
H723 H 0.82816 0.88728 0.40989 0.0
H724 H 0.83774 0.92407 0.40179 0.0
H725 H 0.71283 0.88669 0.37599 0.0
H726 H 0.69412 0.90236 0.41063 0.0
H727 H 0.71488 0.87016 0.41591 0.0
C728 C 0.1994 0.75665 0.37154 0.0
C729 C 0.19818 0.76488 0.33812 0.0
C730 C 0.17442 0.75178 0.38994 0.0
C731 C 0.14754 0.75493 0.37446 0.0
C732 C 0.14616 0.76157 0.34025 0.0
C733 C 0.17152 0.76658 0.3225 0.0
C734 C 0.1768 0.74466 0.42636 0.0
C735 C 0.11789 0.7648 0.3228 0.0
C736 C 0.08379 0.72508 0.42162 0.0
C737 C 0.07341 0.74969 0.43766 0.0
C738 C 0.10734 0.72658 0.40008 0.0
C739 C 0.121 0.75326 0.39472 0.0
C740 C 0.11018 0.7783 0.41013 0.0
C741 C 0.08643 0.77623 0.43129 0.0
C742 C 0.11805 0.6995 0.38376 0.0
C743 C 0.12427 0.80715 0.40514 0.0
H744 H 0.21996 0.7549 0.38361 0.0
H745 H 0.17035 0.77322 0.29678 0.0
H746 H 0.1677 0.76243 0.44128 0.0
H747 H 0.16433 0.72506 0.43225 0.0
H748 H 0.19927 0.74122 0.43413 0.0
H749 H 0.1205 0.7668 0.29552 0.0
H750 H 0.1039 0.74615 0.3282 0.0
H751 H 0.10681 0.78424 0.33208 0.0
H752 H 0.07374 0.7045 0.42623 0.0
H753 H 0.07858 0.79533 0.44359 0.0
H754 H 0.13964 0.69425 0.3932 0.0
H755 H 0.11999 0.70271 0.35659 0.0
H756 H 0.10378 0.6809 0.38851 0.0
H757 H 0.1464 0.80649 0.41482 0.0
H758 H 0.11256 0.82471 0.41786 0.0
H759 H 0.12565 0.81229 0.37833 0.0
C760 C 0.22762 0.15715 0.32597 0.0
C761 C 0.23073 0.18558 0.33685 0.0
C762 C 0.23455 0.13391 0.34666 0.0
C763 C 0.24458 0.13916 0.37915 0.0
C764 C 0.24888 0.16776 0.3898 0.0
C765 C 0.24206 0.19058 0.36848 0.0
C766 C 0.22995 0.10373 0.33424 0.0
C767 C 0.25957 0.17431 0.42424 0.0
C768 C 0.23062 0.08266 0.44543 0.0
C769 C 0.25752 0.06975 0.44862 0.0
C770 C 0.22614 0.10517 0.42283 0.0
C771 C 0.24902 0.11486 0.40266 0.0
C772 C 0.2761 0.10165 0.40539 0.0
C773 C 0.28006 0.07936 0.42842 0.0
C774 C 0.19697 0.11883 0.42084 0.0
C775 C 0.30095 0.11117 0.38411 0.0
H776 H 0.21853 0.15297 0.3018 0.0
H777 H 0.24491 0.21246 0.37693 0.0
H778 H 0.24934 0.09057 0.33835 0.0
H779 H 0.21227 0.09354 0.34833 0.0
H780 H 0.22458 0.10321 0.30745 0.0
H781 H 0.26328 0.19761 0.42807 0.0
H782 H 0.24374 0.16678 0.44284 0.0
H783 H 0.27978 0.16266 0.42903 0.0
H784 H 0.2131 0.07547 0.46097 0.0
H785 H 0.3009 0.06947 0.43059 0.0
H786 H 0.18862 0.1172 0.39523 0.0
H787 H 0.19853 0.14199 0.4269 0.0
H788 H 0.18139 0.10868 0.43805 0.0
H789 H 0.29523 0.1096 0.35752 0.0
H790 H 0.32042 0.09815 0.38856 0.0
H791 H 0.30599 0.134 0.38919 0.0
C792 C 0.69213 0.74417 0.85621 0.0
C793 C 0.68899 0.73409 0.82368 0.0
C794 C 0.66832 0.74858 0.87672 0.0
C795 C 0.64063 0.74315 0.86428 0.0
C796 C 0.63718 0.73456 0.83091 0.0
C797 C 0.66141 0.72998 0.81104 0.0
C798 C 0.6729 0.75781 0.91217 0.0
C799 C 0.60797 0.72891 0.81664 0.0
C800 C 0.58467 0.72244 0.92828 0.0
C801 C 0.57091 0.7487 0.93387 0.0
C802 C 0.60699 0.72022 0.90514 0.0
C803 C 0.61553 0.74478 0.88689 0.0
C804 C 0.601 0.77107 0.89148 0.0
C805 C 0.57897 0.77276 0.91506 0.0
C806 C 0.6221 0.69183 0.90107 0.0
C807 C 0.60922 0.79759 0.87213 0.0
H808 H 0.71335 0.7478 0.86597 0.0
H809 H 0.65874 0.72188 0.78609 0.0
H810 H 0.66001 0.77716 0.91777 0.0
H811 H 0.66565 0.74055 0.92922 0.0
H812 H 0.69566 0.76259 0.91748 0.0
H813 H 0.60873 0.72536 0.78944 0.0
H814 H 0.59858 0.70961 0.82855 0.0
H815 H 0.59346 0.74717 0.82188 0.0
H816 H 0.57862 0.70378 0.94276 0.0
H817 H 0.56831 0.7931 0.91906 0.0
H818 H 0.64477 0.69406 0.90854 0.0
H819 H 0.62192 0.6852 0.87468 0.0
H820 H 0.61217 0.67453 0.91619 0.0
H821 H 0.6311 0.80437 0.87904 0.0
H822 H 0.59441 0.81577 0.87678 0.0
H823 H 0.60946 0.79291 0.84519 0.0
C824 C 0.21921 0.69018 0.8493 0.0
C825 C 0.24661 0.69981 0.8581 0.0
C826 C 0.20635 0.66678 0.86571 0.0
C827 C 0.221 0.65292 0.89186 0.0
C828 C 0.24809 0.66326 0.90172 0.0
C829 C 0.26065 0.68619 0.88451 0.0
C830 C 0.1776 0.65619 0.85422 0.0
C831 C 0.26445 0.64932 0.92966 0.0
C832 C 0.18802 0.60178 0.95482 0.0
C833 C 0.19967 0.57567 0.94433 0.0
C834 C 0.19305 0.62716 0.9367 0.0
C835 C 0.20966 0.62608 0.90726 0.0
C836 C 0.21918 0.59921 0.89519 0.0
C837 C 0.21443 0.57442 0.91414 0.0
C838 C 0.18281 0.65535 0.95066 0.0
C839 C 0.2364 0.59688 0.86361 0.0
H840 H 0.20795 0.70065 0.82924 0.0
H841 H 0.28208 0.69269 0.89115 0.0
H842 H 0.18002 0.63467 0.84284 0.0
H843 H 0.1628 0.65385 0.87556 0.0
H844 H 0.16781 0.67081 0.8357 0.0
H845 H 0.28389 0.66162 0.93639 0.0
H846 H 0.25071 0.6473 0.952 0.0
H847 H 0.271 0.62737 0.92229 0.0
H848 H 0.17694 0.60276 0.97843 0.0
H849 H 0.22347 0.55416 0.90612 0.0
H850 H 0.17383 0.66914 0.93085 0.0
H851 H 0.20117 0.66699 0.96159 0.0
H852 H 0.16639 0.65225 0.97027 0.0
H853 H 0.22653 0.60978 0.84356 0.0
H854 H 0.23838 0.57431 0.85509 0.0
H855 H 0.25817 0.6055 0.86781 0.0
C856 C 0.33368 0.25227 0.85397 0.0
C857 C 0.33288 0.27046 0.82634 0.0
C858 C 0.35743 0.25185 0.875 0.0
C859 C 0.38117 0.26966 0.86779 0.0
C860 C 0.38127 0.28659 0.83861 0.0
C861 C 0.35691 0.28709 0.81842 0.0
C862 C 0.35631 0.23373 0.90605 0.0
C863 C 0.40651 0.30518 0.82957 0.0
C864 C 0.42484 0.29135 0.94286 0.0
C865 C 0.44577 0.26996 0.9431 0.0
C866 C 0.40415 0.29216 0.91773 0.0
C867 C 0.40504 0.27155 0.8919 0.0
C868 C 0.42734 0.25114 0.89096 0.0
C869 C 0.44718 0.25032 0.91685 0.0
C870 C 0.38042 0.31399 0.91986 0.0
C871 C 0.42954 0.22939 0.86339 0.0
H872 H 0.31489 0.23986 0.86047 0.0
H873 H 0.35615 0.30132 0.79715 0.0
H874 H 0.37519 0.21943 0.90729 0.0
H875 H 0.35691 0.24782 0.92818 0.0
H876 H 0.33673 0.22031 0.90738 0.0
H877 H 0.40477 0.31399 0.80406 0.0
H878 H 0.40799 0.32337 0.84717 0.0
H879 H 0.42665 0.29278 0.83153 0.0
H880 H 0.42369 0.30643 0.96326 0.0
H881 H 0.46362 0.23394 0.91687 0.0
H882 H 0.35976 0.30282 0.92387 0.0
H883 H 0.37872 0.32607 0.89626 0.0
H884 H 0.38368 0.32949 0.94038 0.0
H885 H 0.4119 0.21363 0.86564 0.0
H886 H 0.45011 0.21755 0.86396 0.0
H887 H 0.4274 0.24006 0.83892 0.0
C888 C 0.74145 0.32133 0.87286 0.0
C889 C 0.7314 0.32451 0.84035 0.0
C890 C 0.74712 0.34531 0.89273 0.0
C891 C 0.74286 0.37319 0.87968 0.0
C892 C 0.73388 0.37659 0.84645 0.0
C893 C 0.72816 0.35221 0.82721 0.0
C894 C 0.75679 0.3408 0.92802 0.0
C895 C 0.72934 0.40598 0.83159 0.0
C896 C 0.72839 0.43294 0.94148 0.0
C897 C 0.75543 0.44556 0.94438 0.0
C898 C 0.72392 0.40956 0.9202 0.0
C899 C 0.747 0.39872 0.9012 0.0
C900 C 0.77417 0.41178 0.90346 0.0
C901 C 0.77808 0.43496 0.92509 0.0
C902 C 0.69465 0.39609 0.91853 0.0
C903 C 0.79922 0.401 0.88338 0.0
H904 H 0.74431 0.29998 0.88303 0.0
H905 H 0.72002 0.35489 0.80229 0.0
H906 H 0.77705 0.35246 0.93247 0.0
H907 H 0.74063 0.34967 0.94537 0.0
H908 H 0.76005 0.31776 0.93401 0.0
H909 H 0.72423 0.40498 0.80475 0.0
H910 H 0.71153 0.41692 0.84462 0.0
H911 H 0.74868 0.41939 0.83489 0.0
H912 H 0.71081 0.44096 0.95633 0.0
H913 H 0.79903 0.44467 0.92701 0.0
H914 H 0.69579 0.37339 0.92675 0.0
H915 H 0.6869 0.39609 0.89258 0.0
H916 H 0.67881 0.40748 0.93426 0.0
H917 H 0.80418 0.37856 0.89052 0.0
H918 H 0.81866 0.41427 0.88698 0.0
H919 H 0.79381 0.40092 0.85664 0.0
C920 C 0.66731 0.26857 0.18888 0.0
C921 C 0.69085 0.26874 0.16741 0.0
C922 C 0.63932 0.26798 0.17626 0.0
C923 C 0.63506 0.26703 0.1415 0.0
C924 C 0.65894 0.26651 0.1199 0.0
C925 C 0.68649 0.26756 0.13313 0.0
C926 C 0.61438 0.26888 0.19998 0.0
C927 C 0.65543 0.26495 0.08273 0.0
C928 C 0.56805 0.23867 0.10096 0.0
C929 C 0.55586 0.26391 0.08826 0.0
C930 C 0.59289 0.2395 0.12021 0.0
C931 C 0.60584 0.26623 0.12716 0.0
C932 C 0.59258 0.29191 0.11638 0.0
C933 C 0.56777 0.29045 0.09695 0.0
C934 C 0.60635 0.21161 0.13109 0.0
C935 C 0.60557 0.32086 0.12363 0.0
H936 H 0.67081 0.26965 0.2154 0.0
H937 H 0.7048 0.2675 0.11661 0.0
H938 H 0.60137 0.28832 0.19515 0.0
H939 H 0.60033 0.25004 0.19603 0.0
H940 H 0.62129 0.26912 0.22629 0.0
H941 H 0.67625 0.26415 0.06948 0.0
H942 H 0.64293 0.24561 0.07602 0.0
H943 H 0.6434 0.28392 0.07377 0.0
H944 H 0.5589 0.21803 0.09469 0.0
H945 H 0.55841 0.31007 0.08749 0.0
H946 H 0.61234 0.21254 0.15763 0.0
H947 H 0.62621 0.20793 0.11665 0.0
H948 H 0.59192 0.193 0.12731 0.0
H949 H 0.61163 0.32239 0.15012 0.0
H950 H 0.59077 0.33873 0.11762 0.0
H951 H 0.62532 0.32361 0.10871 0.0
C952 C 0.75984 0.69185 0.15115 0.0
C953 C 0.7496 0.68856 0.18368 0.0
C954 C 0.76432 0.668 0.13063 0.0
C955 C 0.75891 0.64011 0.14308 0.0
C956 C 0.75028 0.63649 0.17647 0.0
C957 C 0.74554 0.66076 0.19631 0.0
C958 C 0.77349 0.67277 0.09512 0.0
C959 C 0.74471 0.60707 0.19081 0.0
C960 C 0.73784 0.5829 0.08082 0.0
C961 C 0.76379 0.5686 0.07566 0.0
C962 C 0.73596 0.6061 0.10286 0.0
C963 C 0.76051 0.61493 0.12053 0.0
C964 C 0.7866 0.60014 0.11604 0.0
C965 C 0.78798 0.57729 0.09348 0.0
C966 C 0.70781 0.62153 0.10674 0.0
C967 C 0.81309 0.60863 0.13483 0.0
H968 H 0.76345 0.71322 0.14136 0.0
H969 H 0.73729 0.65791 0.22122 0.0
H970 H 0.79264 0.6597 0.08932 0.0
H971 H 0.75624 0.66572 0.07821 0.0
H972 H 0.77841 0.69564 0.08983 0.0
H973 H 0.74118 0.60772 0.21804 0.0
H974 H 0.72552 0.59765 0.17903 0.0
H975 H 0.7629 0.59254 0.18548 0.0
H976 H 0.71911 0.57639 0.06705 0.0
H977 H 0.80807 0.56621 0.0898 0.0
H978 H 0.71031 0.64437 0.09947 0.0
H979 H 0.70093 0.62114 0.13307 0.0
H980 H 0.69068 0.61184 0.09142 0.0
H981 H 0.81935 0.63085 0.12812 0.0
H982 H 0.83138 0.59415 0.12959 0.0
H983 H 0.80874 0.60837 0.16187 0.0
C984 C 0.35365 0.76059 0.17107 0.0
C985 C 0.35118 0.74114 0.1974 0.0
C986 C 0.37855 0.76181 0.15184 0.0
C987 C 0.40175 0.74358 0.15971 0.0
C988 C 0.40023 0.72564 0.18801 0.0
C989 C 0.3747 0.72427 0.20627 0.0
C990 C 0.37909 0.78092 0.12156 0.0
C991 C 0.42489 0.70667 0.19784 0.0
C992 C 0.4463 0.72252 0.0851 0.0
C993 C 0.46736 0.74379 0.08546 0.0
C994 C 0.42538 0.72143 0.11005 0.0
C995 C 0.42622 0.74155 0.13635 0.0
C996 C 0.44878 0.76165 0.13804 0.0
C997 C 0.46882 0.76288 0.1122 0.0
C998 C 0.40133 0.70002 0.10702 0.0
C999 C 0.45099 0.78273 0.16628 0.0
H1000 H 0.33525 0.77324 0.16387 0.0
H1001 H 0.37264 0.70912 0.22656 0.0
H1002 H 0.39832 0.79479 0.12172 0.0
H1003 H 0.3802 0.7675 0.0989 0.0
H1004 H 0.35989 0.79483 0.11994 0.0
H1005 H 0.42226 0.69804 0.22335 0.0
H1006 H 0.42641 0.68832 0.18046 0.0
H1007 H 0.44533 0.71866 0.19637 0.0
H1008 H 0.44515 0.7079 0.06428 0.0
H1009 H 0.48537 0.77915 0.11257 0.0
H1010 H 0.38091 0.71158 0.10306 0.0
H1011 H 0.39907 0.68746 0.13024 0.0
H1012 H 0.40464 0.68489 0.08611 0.0
H1013 H 0.43413 0.79929 0.16381 0.0
H1014 H 0.47205 0.79369 0.16669 0.0
H1015 H 0.4476 0.77172 0.19038 0.0
C1016 C 0.19694 0.32024 0.14526 0.0
C1017 C 0.22169 0.32018 0.16468 0.0
C1018 C 0.18886 0.34481 0.12736 0.0
C1019 C 0.20571 0.36999 0.12943 0.0
C1020 C 0.22949 0.37059 0.15104 0.0
C1021 C 0.23741 0.34555 0.16807 0.0
C1022 C 0.16365 0.34306 0.10428 0.0
C1023 C 0.24771 0.39713 0.15453 0.0
C1024 C 0.21555 0.41825 0.05465 0.0
C1025 C 0.19838 0.44185 0.06262 0.0
C1026 C 0.21692 0.39422 0.07545 0.0
C1027 C 0.20129 0.39404 0.10555 0.0
C1028 C 0.18315 0.41747 0.1133 0.0
C1029 C 0.18165 0.44107 0.09145 0.0
C1030 C 0.236 0.36947 0.06572 0.0
C1031 C 0.16655 0.41828 0.14538 0.0
H1032 H 0.18493 0.30051 0.14241 0.0
H1033 H 0.25649 0.34549 0.18321 0.0
H1034 H 0.14996 0.36236 0.1067 0.0
H1035 H 0.17143 0.34229 0.07829 0.0
H1036 H 0.15044 0.32368 0.10903 0.0
H1037 H 0.26267 0.39549 0.17575 0.0
H1038 H 0.2604 0.40037 0.13155 0.0
H1039 H 0.23412 0.41638 0.15796 0.0
H1040 H 0.22838 0.41882 0.03222 0.0
H1041 H 0.1686 0.45949 0.09775 0.0
H1042 H 0.22406 0.34895 0.06721 0.0
H1043 H 0.25417 0.36797 0.0832 0.0
H1044 H 0.24469 0.37189 0.04021 0.0
H1045 H 0.15464 0.39796 0.14911 0.0
H1046 H 0.15124 0.43646 0.14617 0.0
H1047 H 0.18159 0.42049 0.1664 0.0
C1048 C 0.31757 0.23053 0.17961 0.0
C1049 C 0.29686 0.24481 0.1607 0.0
C1050 C 0.34388 0.22229 0.16546 0.0
C1051 C 0.34954 0.22841 0.13162 0.0
C1052 C 0.32811 0.24154 0.11213 0.0
C1053 C 0.30213 0.24948 0.12685 0.0
C1054 C 0.36606 0.20822 0.18706 0.0
C1055 C 0.33307 0.24842 0.07596 0.0
C1056 C 0.42385 0.2455 0.09991 0.0
C1057 C 0.43036 0.22131 0.08061 0.0
C1058 C 0.3984 0.24727 0.11815 0.0
C1059 C 0.37869 0.22427 0.11719 0.0
C1060 C 0.38582 0.19903 0.09938 0.0
C1061 C 0.41164 0.19781 0.08129 0.0
C1062 C 0.39189 0.27455 0.13688 0.0
C1063 C 0.36551 0.17396 0.09793 0.0
H1064 H 0.31362 0.22675 0.20574 0.0
H1065 H 0.28596 0.25981 0.11183 0.0
H1066 H 0.37523 0.18917 0.17448 0.0
H1067 H 0.38382 0.22348 0.19148 0.0
H1068 H 0.35716 0.20149 0.21142 0.0
H1069 H 0.31352 0.25662 0.06365 0.0
H1070 H 0.35005 0.26491 0.07362 0.0
H1071 H 0.34049 0.22905 0.06253 0.0
H1072 H 0.43834 0.26365 0.09996 0.0
H1073 H 0.4165 0.17903 0.06651 0.0
H1074 H 0.38526 0.26956 0.16266 0.0
H1075 H 0.37387 0.28589 0.12481 0.0
H1076 H 0.41049 0.28932 0.13767 0.0
H1077 H 0.35724 0.16874 0.12303 0.0
H1078 H 0.37576 0.15454 0.0873 0.0
H1079 H 0.34692 0.17971 0.08231 0.0
C1080 C 0.78084 0.32254 0.12476 0.0
C1081 C 0.78382 0.31817 0.15895 0.0
C1082 C 0.7918 0.34711 0.1093 0.0
C1083 C 0.80638 0.36787 0.12847 0.0
C1084 C 0.81187 0.36223 0.16242 0.0
C1085 C 0.8004 0.33738 0.17737 0.0
C1086 C 0.78545 0.35202 0.07305 0.0
C1087 C 0.82792 0.38341 0.18353 0.0
C1088 C 0.83538 0.42864 0.07481 0.0
C1089 C 0.81193 0.44733 0.07478 0.0
C1090 C 0.83513 0.40354 0.09443 0.0
C1091 C 0.81083 0.39709 0.11415 0.0
C1092 C 0.78824 0.41716 0.11614 0.0
C1093 C 0.78914 0.44198 0.09659 0.0
C1094 C 0.85996 0.38306 0.09225 0.0
C1095 C 0.7619 0.41139 0.13685 0.0
H1096 H 0.76846 0.30737 0.11036 0.0
H1097 H 0.8029 0.33393 0.20378 0.0
H1098 H 0.76961 0.36959 0.07055 0.0
H1099 H 0.80502 0.35868 0.05956 0.0
H1100 H 0.77666 0.33255 0.06094 0.0
H1101 H 0.83602 0.37329 0.2066 0.0
H1102 H 0.84616 0.3928 0.16962 0.0
H1103 H 0.81347 0.40124 0.19058 0.0
H1104 H 0.85316 0.43271 0.05819 0.0
H1105 H 0.77114 0.45659 0.09721 0.0
H1106 H 0.85442 0.36514 0.07541 0.0
H1107 H 0.86483 0.3737 0.1169 0.0
H1108 H 0.87942 0.39377 0.0824 0.0
H1109 H 0.74988 0.39313 0.1261 0.0
H1110 H 0.74746 0.43026 0.13803 0.0
H1111 H 0.76792 0.40532 0.16247 0.0
C1112 C 0.69693 0.78833 0.15709 0.0
C1113 C 0.68955 0.77595 0.18767 0.0
C1114 C 0.67586 0.79871 0.13549 0.0
C1115 C 0.64674 0.79641 0.14461 0.0
C1116 C 0.63948 0.78696 0.17698 0.0
C1117 C 0.66102 0.77686 0.19818 0.0
C1118 C 0.68468 0.80908 0.10152 0.0
C1119 C 0.60875 0.78432 0.18787 0.0
C1120 C 0.58736 0.82185 0.08658 0.0
C1121 C 0.58065 0.79624 0.07009 0.0
C1122 C 0.60913 0.8226 0.11069 0.0
C1123 C 0.62436 0.79717 0.11838 0.0
C1124 C 0.61803 0.77153 0.10117 0.0
C1125 C 0.59642 0.77143 0.07735 0.0
C1126 C 0.6154 0.85036 0.12837 0.0
C1127 C 0.63377 0.74387 0.10826 0.0
H1128 H 0.71903 0.78797 0.14905 0.0
H1129 H 0.65516 0.76727 0.22174 0.0
H1130 H 0.68134 0.79162 0.08328 0.0
H1131 H 0.67153 0.82765 0.09365 0.0
H1132 H 0.70755 0.81535 0.10076 0.0
H1133 H 0.60682 0.78209 0.21521 0.0
H1134 H 0.59619 0.80322 0.17978 0.0
H1135 H 0.59917 0.76504 0.17624 0.0
H1136 H 0.57526 0.8411 0.08118 0.0
H1137 H 0.59168 0.75155 0.0646 0.0
H1138 H 0.63864 0.85493 0.12789 0.0
H1139 H 0.60894 0.84847 0.15476 0.0
H1140 H 0.60388 0.86881 0.11721 0.0
H1141 H 0.65699 0.74686 0.10407 0.0
H1142 H 0.62636 0.72586 0.09247 0.0
H1143 H 0.63074 0.73768 0.13461 0.0
C1144 C 0.28157 0.64873 0.20092 0.0
C1145 C 0.27045 0.67558 0.19208 0.0
C1146 C 0.27636 0.62439 0.18137 0.0
C1147 C 0.26029 0.62721 0.15189 0.0
C1148 C 0.24774 0.65399 0.14388 0.0
C1149 C 0.25278 0.6778 0.16428 0.0
C1150 C 0.28943 0.59607 0.19127 0.0
C1151 C 0.23073 0.65802 0.1125 0.0
C1152 C 0.27648 0.57818 0.07899 0.0
C1153 C 0.25228 0.56054 0.07864 0.0
C1154 C 0.27963 0.59961 0.10316 0.0
C1155 C 0.2584 0.60295 0.12801 0.0
C1156 C 0.23467 0.58419 0.12872 0.0
C1157 C 0.23171 0.56346 0.10377 0.0
C1158 C 0.30506 0.61947 0.10126 0.0
C1159 C 0.21202 0.58652 0.15528 0.0
H1160 H 0.29541 0.64709 0.22233 0.0
H1161 H 0.24462 0.69867 0.15709 0.0
H1162 H 0.27352 0.57853 0.18919 0.0
H1163 H 0.30735 0.5909 0.17427 0.0
H1164 H 0.29774 0.59649 0.21702 0.0
H1165 H 0.22087 0.67965 0.11099 0.0
H1166 H 0.24492 0.65509 0.09068 0.0
H1167 H 0.21361 0.64166 0.11085 0.0
H1168 H 0.29232 0.57609 0.05949 0.0
H1169 H 0.21307 0.54966 0.10376 0.0
H1170 H 0.31686 0.61921 0.12504 0.0
H1171 H 0.29769 0.64181 0.09707 0.0
H1172 H 0.32003 0.61354 0.08099 0.0
H1173 H 0.222 0.58683 0.18018 0.0
H1174 H 0.19649 0.56852 0.15429 0.0
H1175 H 0.20019 0.60696 0.15233 0.0
C1176 C 0.31954 0.78634 0.88489 0.0
C1177 C 0.3228 0.77491 0.85291 0.0
C1178 C 0.34335 0.79467 0.90372 0.0
C1179 C 0.37114 0.79173 0.8902 0.0
C1180 C 0.37436 0.78268 0.85691 0.0
C1181 C 0.35023 0.77426 0.83875 0.0
C1182 C 0.33885 0.80432 0.93903 0.0
C1183 C 0.40352 0.77943 0.84133 0.0
C1184 C 0.4369 0.81848 0.93709 0.0
C1185 C 0.4463 0.79307 0.95226 0.0
C1186 C 0.41227 0.81866 0.91701 0.0
C1187 C 0.39664 0.79291 0.91231 0.0
C1188 C 0.40577 0.76745 0.92819 0.0
C1189 C 0.43039 0.76784 0.94775 0.0
C1190 C 0.40326 0.84618 0.90037 0.0
C1191 C 0.38971 0.73952 0.92423 0.0
H1192 H 0.29842 0.78752 0.89585 0.0
H1193 H 0.3532 0.76529 0.81423 0.0
H1194 H 0.3449 0.78668 0.95613 0.0
H1195 H 0.35259 0.82301 0.94483 0.0
H1196 H 0.31624 0.81014 0.944 0.0
H1197 H 0.40228 0.77696 0.81399 0.0
H1198 H 0.41716 0.79822 0.84705 0.0
H1199 H 0.41413 0.76014 0.85171 0.0
H1200 H 0.44903 0.83805 0.94043 0.0
H1201 H 0.43718 0.74811 0.95959 0.0
H1202 H 0.38069 0.8511 0.9065 0.0
H1203 H 0.40462 0.84369 0.87307 0.0
H1204 H 0.41677 0.86466 0.90781 0.0
H1205 H 0.36713 0.7423 0.93197 0.0
H1206 H 0.39915 0.72183 0.93906 0.0
H1207 H 0.3897 0.73303 0.89779 0.0
C1208 C 0.26374 0.36239 0.80851 0.0
C1209 C 0.25268 0.33607 0.81943 0.0
C1210 C 0.25902 0.38764 0.82666 0.0
C1211 C 0.24362 0.38624 0.8569 0.0
C1212 C 0.23072 0.36005 0.86671 0.0
C1213 C 0.23518 0.33531 0.84762 0.0
C1214 C 0.27237 0.41529 0.81479 0.0
C1215 C 0.2145 0.35747 0.89899 0.0
C1216 C 0.2662 0.43559 0.92687 0.0
C1217 C 0.24311 0.4546 0.9287 0.0
C1218 C 0.26678 0.41353 0.90324 0.0
C1219 C 0.24406 0.41091 0.88031 0.0
C1220 C 0.22133 0.43088 0.88108 0.0
C1221 C 0.22091 0.45224 0.90561 0.0
C1222 C 0.29119 0.39237 0.90367 0.0
C1223 C 0.19721 0.42932 0.85645 0.0
H1224 H 0.27748 0.36287 0.78683 0.0
H1225 H 0.22708 0.31485 0.85639 0.0
H1226 H 0.25729 0.43345 0.81781 0.0
H1227 H 0.29152 0.42007 0.8299 0.0
H1228 H 0.27901 0.41401 0.78838 0.0
H1229 H 0.20336 0.33651 0.90134 0.0
H1230 H 0.22959 0.35965 0.91998 0.0
H1231 H 0.19853 0.37489 0.90131 0.0
H1232 H 0.28328 0.43722 0.94482 0.0
H1233 H 0.20312 0.46707 0.9068 0.0
H1234 H 0.30201 0.39202 0.87919 0.0
H1235 H 0.28286 0.37044 0.90842 0.0
H1236 H 0.30726 0.39753 0.92294 0.0
H1237 H 0.20582 0.42818 0.83083 0.0
H1238 H 0.18269 0.44809 0.85829 0.0
H1239 H 0.18457 0.40954 0.86076 0.0
C1240 C 0.67658 0.22614 0.86759 0.0
C1241 C 0.67007 0.23788 0.83648 0.0
C1242 C 0.65495 0.21616 0.88886 0.0
C1243 C 0.62607 0.21813 0.87883 0.0
C1244 C 0.61972 0.22693 0.84602 0.0
C1245 C 0.64184 0.23671 0.82518 0.0
C1246 C 0.66285 0.20661 0.92338 0.0
C1247 C 0.58931 0.22916 0.83413 0.0
C1248 C 0.56628 0.19279 0.93699 0.0
C1249 C 0.55916 0.21851 0.95308 0.0
C1250 C 0.58806 0.19205 0.91271 0.0
C1251 C 0.60298 0.2176 0.90446 0.0
C1252 C 0.59604 0.24343 0.92099 0.0
C1253 C 0.57437 0.24354 0.94493 0.0
C1254 C 0.59493 0.16412 0.89565 0.0
C1255 C 0.61142 0.27122 0.91331 0.0
H1256 H 0.69846 0.2267 0.87626 0.0
H1257 H 0.63665 0.2458 0.8012 0.0
H1258 H 0.65877 0.22441 0.941 0.0
H1259 H 0.64969 0.18804 0.93135 0.0
H1260 H 0.68576 0.20065 0.92506 0.0
H1261 H 0.58817 0.23063 0.80668 0.0
H1262 H 0.57655 0.21046 0.84254 0.0
H1263 H 0.57938 0.24873 0.84474 0.0
H1264 H 0.55463 0.17338 0.94305 0.0
H1265 H 0.56929 0.26354 0.95726 0.0
H1266 H 0.61798 0.15917 0.89816 0.0
H1267 H 0.5904 0.16602 0.86877 0.0
H1268 H 0.58235 0.14591 0.90588 0.0
H1269 H 0.6346 0.26875 0.91802 0.0
H1270 H 0.6034 0.28943 0.92841 0.0
H1271 H 0.60882 0.27675 0.88674 0.0
C1272 C 0.78845 0.6826 0.84995 0.0
C1273 C 0.77743 0.67564 0.81869 0.0
C1274 C 0.79963 0.66134 0.87087 0.0
C1275 C 0.79981 0.6324 0.86025 0.0
C1276 C 0.79184 0.62584 0.82726 0.0
C1277 C 0.78066 0.64757 0.80684 0.0
C1278 C 0.8081 0.66947 0.90567 0.0
C1279 C 0.79204 0.59537 0.81471 0.0
C1280 C 0.82878 0.5748 0.91899 0.0
C1281 C 0.80363 0.56594 0.93507 0.0
C1282 C 0.82807 0.59617 0.89414 0.0
C1283 C 0.80169 0.60899 0.88545 0.0
C1284 C 0.77635 0.59999 0.90159 0.0
C1285 C 0.77765 0.57867 0.92597 0.0
C1286 C 0.85548 0.60514 0.87735 0.0
C1287 C 0.74768 0.61308 0.89338 0.0
H1288 H 0.7864 0.7044 0.859 0.0
H1289 H 0.77221 0.64201 0.78272 0.0
H1290 H 0.79059 0.66362 0.92302 0.0
H1291 H 0.82748 0.65767 0.91351 0.0
H1292 H 0.81214 0.69287 0.90796 0.0
H1293 H 0.79129 0.59456 0.78721 0.0
H1294 H 0.81131 0.58377 0.82333 0.0
H1295 H 0.77308 0.58387 0.82459 0.0
H1296 H 0.84893 0.56507 0.92578 0.0
H1297 H 0.75803 0.57214 0.93814 0.0
H1298 H 0.85993 0.62804 0.88274 0.0
H1299 H 0.85339 0.60313 0.85008 0.0
H1300 H 0.87398 0.59211 0.88563 0.0
H1301 H 0.74813 0.6365 0.89822 0.0
H1302 H 0.72999 0.60349 0.90808 0.0
H1303 H 0.74292 0.61009 0.8667 0.0
loop_
_geom_bond_atom_site_label_1
_geom_bond_atom_site_label_2
_geom_bond_distance
_geom_bond_site_symmetry_2
_ccdc_geom_bond_type
H0 C8 0.930 . S
H1 C11 0.930 . S
H2 C13 0.930 . S
H3 C14 0.970 . S
H4 C14 0.970 . S
H5 C16 0.930 . S
H6 C18 0.930 . S
H7 C20 0.930 . S
C8 H0 0.930 . S
C8 C9 1.382 . S
C8 C10 1.426 . S
C9 C8 1.382 . S
C9 C13 1.389 . S
C10 C8 1.426 . S
C10 C11 1.375 . S
C10 C14 1.532 . S
C11 H1 0.930 . S
C11 C10 1.375 . S
C11 C12 1.416 . S
C12 C11 1.416 . S
C12 C13 1.371 . S
C13 H2 0.930 . S
C13 C9 1.389 . S
C13 C12 1.371 . S
C14 H3 0.970 . S
C14 H4 0.970 . S
C14 C10 1.532 . S
C14 C15 1.499 . S
C15 C14 1.499 . S
C15 C16 1.370 . S
C15 C20 1.415 . S
C16 H5 0.930 . S
C16 C15 1.370 . S
C16 C17 1.407 . S
C17 C16 1.407 . S
C17 C18 1.365 . S
C18 H6 0.930 . S
C18 C17 1.365 . S
C18 C19 1.393 . S
C19 C18 1.393 . S
C19 C20 1.387 . S
C20 H7 0.930 . S
C20 C15 1.415 . S
C20 C19 1.387 . S
H21 C29 0.930 . S
H22 C32 0.930 . S
H23 C34 0.930 . S
H24 C35 0.970 . S
H25 C35 0.970 . S
H26 C37 0.930 . S
H27 C39 0.930 . S
H28 C41 0.930 . S
C29 H21 0.930 . S
C29 C30 1.382 . S
C29 C31 1.426 . S
C30 C29 1.382 . S
C30 C34 1.389 . S
C31 C29 1.426 . S
C31 C32 1.375 . S
C31 C35 1.532 . S
C32 H22 0.930 . S
C32 C31 1.375 . S
C32 C33 1.416 . S
C33 C32 1.416 . S
C33 C34 1.371 . S
C34 H23 0.930 . S
C34 C30 1.389 . S
C34 C33 1.371 . S
C35 H24 0.970 . S
C35 H25 0.970 . S
C35 C31 1.532 . S
C35 C36 1.499 . S
C36 C35 1.499 . S
C36 C37 1.370 . S
C36 C41 1.415 . S
C37 H26 0.930 . S
C37 C36 1.370 . S
C37 C38 1.407 . S
C38 C37 1.407 . S
C38 C39 1.365 . S
C39 H27 0.930 . S
C39 C38 1.365 . S
C39 C40 1.393 . S
C40 C39 1.393 . S
C40 C41 1.387 . S
C41 H28 0.930 . S
C41 C36 1.415 . S
C41 C40 1.387 . S
H42 C50 0.930 . S
H43 C53 0.930 . S
H44 C55 0.930 . S
H45 C56 0.970 . S
H46 C56 0.970 . S
H47 C58 0.930 . S
H48 C60 0.930 . S
H49 C62 0.930 . S
C50 H42 0.930 . S
C50 C51 1.382 . S
C50 C52 1.426 . S
C51 C50 1.382 . S
C51 C55 1.389 . S
C52 C50 1.426 . S
C52 C53 1.375 . S
C52 C56 1.532 . S
C53 H43 0.930 . S
C53 C52 1.375 . S
C53 C54 1.416 . S
C54 C53 1.416 . S
C54 C55 1.371 . S
C55 H44 0.930 . S
C55 C51 1.389 . S
C55 C54 1.371 . S
C56 H45 0.970 . S
C56 H46 0.970 . S
C56 C52 1.532 . S
C56 C57 1.499 . S
C57 C56 1.499 . S
C57 C58 1.370 . S
C57 C62 1.415 . S
C58 H47 0.930 . S
C58 C57 1.370 . S
C58 C59 1.407 . S
C59 C58 1.407 . S
C59 C60 1.365 . S
C60 H48 0.930 . S
C60 C59 1.365 . S
C60 C61 1.393 . S
C61 C60 1.393 . S
C61 C62 1.387 . S
C62 H49 0.930 . S
C62 C57 1.415 . S
C62 C61 1.387 . S
H63 C71 0.930 . S
H64 C74 0.930 . S
H65 C76 0.930 . S
H66 C77 0.970 . S
H67 C77 0.970 . S
H68 C79 0.930 . S
H69 C81 0.930 . S
H70 C83 0.930 . S
C71 H63 0.930 . S
C71 C72 1.382 . S
C71 C73 1.426 . S
C72 C71 1.382 . S
C72 C76 1.389 . S
C73 C71 1.426 . S
C73 C74 1.375 . S
C73 C77 1.532 . S
C74 H64 0.930 . S
C74 C73 1.375 . S
C74 C75 1.416 . S
C75 C74 1.416 . S
C75 C76 1.371 . S
C76 H65 0.930 . S
C76 C72 1.389 . S
C76 C75 1.371 . S
C77 H66 0.970 . S
C77 H67 0.970 . S
C77 C73 1.532 . S
C77 C78 1.499 . S
C78 C77 1.499 . S
C78 C79 1.370 . S
C78 C83 1.415 . S
C79 H68 0.930 . S
C79 C78 1.370 . S
C79 C80 1.407 . S
C80 C79 1.407 . S
C80 C81 1.365 . S
C81 H69 0.930 . S
C81 C80 1.365 . S
C81 C82 1.393 . S
C82 C81 1.393 . S
C82 C83 1.387 . S
C83 H70 0.930 . S
C83 C78 1.415 . S
C83 C82 1.387 . S
H84 C92 0.930 . S
H85 C95 0.930 . S
H86 C97 0.930 . S
H87 C98 0.970 . S
H88 C98 0.970 . S
H89 C100 0.930 . S
H90 C102 0.930 . S
H91 C104 0.930 . S
C92 H84 0.930 . S
C92 C93 1.382 . S
C92 C94 1.426 . S
C93 C92 1.382 . S
C93 C97 1.389 . S
C94 C92 1.426 . S
C94 C95 1.375 . S
C94 C98 1.532 . S
C95 H85 0.930 . S
C95 C94 1.375 . S
C95 C96 1.416 . S
C96 C95 1.416 . S
C96 C97 1.371 . S
C97 H86 0.930 . S
C97 C93 1.389 . S
C97 C96 1.371 . S
C98 H87 0.970 . S
C98 H88 0.970 . S
C98 C94 1.532 . S
C98 C99 1.499 . S
C99 C98 1.499 . S
C99 C100 1.370 . S
C99 C104 1.415 . S
C100 H89 0.930 . S
C100 C99 1.370 . S
C100 C101 1.407 . S
C101 C100 1.407 . S
C101 C102 1.365 . S
C102 H90 0.930 . S
C102 C101 1.365 . S
C102 C103 1.393 . S
C103 C102 1.393 . S
C103 C104 1.387 . S
C104 H91 0.930 . S
C104 C99 1.415 . S
C104 C103 1.387 . S
H105 C113 0.930 . S
H106 C116 0.930 . S
H107 C118 0.930 . S
H108 C119 0.970 . S
H109 C119 0.970 . S
H110 C121 0.930 . S
H111 C123 0.930 . S
H112 C125 0.930 . S
C113 H105 0.930 . S
C113 C114 1.382 . S
C113 C115 1.426 . S
C114 C113 1.382 . S
C114 C118 1.389 . S
C115 C113 1.426 . S
C115 C116 1.375 . S
C115 C119 1.532 . S
C116 H106 0.930 . S
C116 C115 1.375 . S
C116 C117 1.416 . S
C117 C116 1.416 . S
C117 C118 1.371 . S
C118 H107 0.930 . S
C118 C114 1.389 . S
C118 C117 1.371 . S
C119 H108 0.970 . S
C119 H109 0.970 . S
C119 C115 1.532 . S
C119 C120 1.499 . S
C120 C119 1.499 . S
C120 C121 1.370 . S
C120 C125 1.415 . S
C121 H110 0.930 . S
C121 C120 1.370 . S
C121 C122 1.407 . S
C122 C121 1.407 . S
C122 C123 1.365 . S
C123 H111 0.930 . S
C123 C122 1.365 . S
C123 C124 1.393 . S
C124 C123 1.393 . S
C124 C125 1.387 . S
C125 H112 0.930 . S
C125 C120 1.415 . S
C125 C124 1.387 . S
H126 C134 0.930 . S
H127 C137 0.930 . S
H128 C139 0.930 . S
H129 C140 0.970 . S
H130 C140 0.970 . S
H131 C142 0.930 . S
H132 C144 0.930 . S
H133 C146 0.930 . S
C134 H126 0.930 . S
C134 C135 1.382 . S
C134 C136 1.426 . S
C135 C134 1.382 . S
C135 C139 1.389 . S
C136 C134 1.426 . S
C136 C137 1.375 . S
C136 C140 1.532 . S
C137 H127 0.930 . S
C137 C136 1.375 . S
C137 C138 1.416 . S
C138 C137 1.416 . S
C138 C139 1.371 . S
C139 H128 0.930 . S
C139 C135 1.389 . S
C139 C138 1.371 . S
C140 H129 0.970 . S
C140 H130 0.970 . S
C140 C136 1.532 . S
C140 C141 1.499 . S
C141 C140 1.499 . S
C141 C142 1.370 . S
C141 C146 1.415 . S
C142 H131 0.930 . S
C142 C141 1.370 . S
C142 C143 1.407 . S
C143 C142 1.407 . S
C143 C144 1.365 . S
C144 H132 0.930 . S
C144 C143 1.365 . S
C144 C145 1.393 . S
C145 C144 1.393 . S
C145 C146 1.387 . S
C146 H133 0.930 . S
C146 C141 1.415 . S
C146 C145 1.387 . S
H147 C155 0.930 . S
H148 C158 0.930 . S
H149 C160 0.930 . S
H150 C161 0.970 . S
H151 C161 0.970 . S
H152 C163 0.930 . S
H153 C165 0.930 . S
H154 C167 0.930 . S
C155 H147 0.930 . S
C155 C156 1.382 . S
C155 C157 1.426 . S
C156 C155 1.382 . S
C156 C160 1.389 . S
C157 C155 1.426 . S
C157 C158 1.375 . S
C157 C161 1.532 . S
C158 H148 0.930 . S
C158 C157 1.375 . S
C158 C159 1.416 . S
C159 C158 1.416 . S
C159 C160 1.371 . S
C160 H149 0.930 . S
C160 C156 1.389 . S
C160 C159 1.371 . S
C161 H150 0.970 . S
C161 H151 0.970 . S
C161 C157 1.532 . S
C161 C162 1.499 . S
C162 C161 1.499 . S
C162 C163 1.370 . S
C162 C167 1.415 . S
C163 H152 0.930 . S
C163 C162 1.370 . S
C163 C164 1.407 . S
C164 C163 1.407 . S
C164 C165 1.365 . S
C165 H153 0.930 . S
C165 C164 1.365 . S
C165 C166 1.393 . S
C166 C165 1.393 . S
C166 C167 1.387 . S
C167 H154 0.930 . S
C167 C162 1.415 . S
C167 C166 1.387 . S
C168 O170 1.247 . S
C168 O172 1.258 . S
C169 O176 1.247 . S
C169 O177 1.258 . S
O170 C168 1.247 . S
O170 Zn171 2.028 1_655 S
Zn171 O170 2.028 1_455 S
Zn171 O175 2.035 . S
Zn171 O177 2.035 . S
Zn171 O178 2.028 1_455 S
O172 C168 1.258 . S
O172 Zn173 2.035 1_655 S
Zn173 O172 2.035 1_455 S
Zn173 O174 2.028 . S
Zn173 O176 2.028 . S
Zn173 O179 2.035 1_455 S
O174 Zn173 2.028 . S
O174 C180 1.247 . S
O175 Zn171 2.035 . S
O175 C180 1.258 . S
O176 C169 1.247 . S
O176 Zn173 2.028 . S
O177 C169 1.258 . S
O177 Zn171 2.035 . S
O178 Zn171 2.028 1_655 S
O178 C181 1.247 . S
O179 Zn173 2.035 1_655 S
O179 C181 1.258 . S
C180 O174 1.247 . S
C180 O175 1.258 . S
C181 O178 1.247 . S
C181 O179 1.258 . S
C182 O184 1.247 . S
C182 O186 1.258 . S
C183 O190 1.247 . S
C183 O191 1.258 . S
O184 C182 1.247 . S
O184 Zn185 2.028 . S
Zn185 O184 2.028 . S
Zn185 O189 2.035 1_545 S
Zn185 O191 2.035 1_545 S
Zn185 O192 2.028 . S
O186 C182 1.258 . S
O186 Zn187 2.035 . S
Zn187 O186 2.035 . S
Zn187 O188 2.028 1_545 S
Zn187 O190 2.028 1_545 S
Zn187 O193 2.035 . S
O188 Zn187 2.028 1_565 S
O188 C194 1.247 . S
O189 Zn185 2.035 1_565 S
O189 C194 1.258 . S
O190 C183 1.247 . S
O190 Zn187 2.028 1_565 S
O191 C183 1.258 . S
O191 Zn185 2.035 1_565 S
O192 Zn185 2.028 . S
O192 C195 1.247 . S
O193 Zn187 2.035 . S
O193 C195 1.258 . S
C194 O188 1.247 . S
C194 O189 1.258 . S
C195 O192 1.247 . S
C195 O193 1.258 . S
C196 O198 1.247 . S
C196 O200 1.258 . S
C197 O204 1.247 . S
C197 O205 1.258 . S
O198 C196 1.247 . S
O198 Zn199 2.028 1_655 S
Zn199 O198 2.028 1_455 S
Zn199 O203 2.035 . S
Zn199 O205 2.035 . S
Zn199 O206 2.028 1_455 S
O200 C196 1.258 . S
O200 Zn201 2.035 1_655 S
Zn201 O200 2.035 1_455 S
Zn201 O202 2.028 . S
Zn201 O204 2.028 . S
Zn201 O207 2.035 1_455 S
O202 Zn201 2.028 . S
O202 C208 1.247 . S
O203 Zn199 2.035 . S
O203 C208 1.258 . S
O204 C197 1.247 . S
O204 Zn201 2.028 . S
O205 C197 1.258 . S
O205 Zn199 2.035 . S
O206 Zn199 2.028 1_655 S
O206 C209 1.247 . S
O207 Zn201 2.035 1_655 S
O207 C209 1.258 . S
C208 O202 1.247 . S
C208 O203 1.258 . S
C209 O206 1.247 . S
C209 O207 1.258 . S
C210 O212 1.247 . S
C210 O214 1.258 . S
C211 O218 1.247 . S
C211 O219 1.258 . S
O212 C210 1.247 . S
O212 Zn213 2.028 . S
Zn213 O212 2.028 . S
Zn213 O217 2.035 1_545 S
Zn213 O219 2.035 1_545 S
Zn213 O220 2.028 . S
O214 C210 1.258 . S
O214 Zn215 2.035 . S
Zn215 O214 2.035 . S
Zn215 O216 2.028 1_545 S
Zn215 O218 2.028 1_545 S
Zn215 O221 2.035 . S
O216 Zn215 2.028 1_565 S
O216 C222 1.247 . S
O217 Zn213 2.035 1_565 S
O217 C222 1.258 . S
O218 C211 1.247 . S
O218 Zn215 2.028 1_565 S
O219 C211 1.258 . S
O219 Zn213 2.035 1_565 S
O220 Zn213 2.028 . S
O220 C223 1.247 . S
O221 Zn215 2.035 . S
O221 C223 1.258 . S
C222 O216 1.247 . S
C222 O217 1.258 . S
C223 O220 1.247 . S
C223 O221 1.258 . S
C224 O226 1.247 . S
C224 O228 1.258 . S
C225 O232 1.247 . S
C225 O233 1.258 . S
O226 C224 1.247 . S
O226 Zn227 2.038 . S
Zn227 O226 2.038 . S
Zn227 O231 2.045 . S
Zn227 O233 2.025 1_554 S
Zn227 O234 2.018 1_554 S
O228 C224 1.258 . S
O228 Zn229 2.036 . S
Zn229 O228 2.036 . S
Zn229 O230 2.029 . S
Zn229 O232 2.027 1_554 S
Zn229 O235 2.034 1_554 S
O230 Zn229 2.029 . S
O230 C236 1.247 . S
O231 Zn227 2.045 . S
O231 C236 1.258 . S
O232 C225 1.247 . S
O232 Zn229 2.027 1_556 S
O233 C225 1.258 . S
O233 Zn227 2.025 1_556 S
O234 Zn227 2.018 1_556 S
O234 C237 1.247 . S
O235 Zn229 2.034 1_556 S
O235 C237 1.258 . S
C236 O230 1.247 . S
C236 O231 1.258 . S
C237 O234 1.247 . S
C237 O235 1.258 . S
C238 O240 1.247 . S
C238 O242 1.258 . S
C239 O246 1.247 . S
C239 O247 1.258 . S
O240 C238 1.247 . S
O240 Zn241 2.044 . S
Zn241 O240 2.044 . S
Zn241 O245 2.051 . S
Zn241 O247 2.020 1_554 S
Zn241 O248 2.012 1_554 S
O242 C238 1.258 . S
O242 Zn243 2.060 . S
Zn243 O242 2.060 . S
Zn243 O244 2.053 . S
Zn243 O246 2.003 1_554 S
Zn243 O249 2.011 1_554 S
O244 Zn243 2.053 . S
O244 C250 1.247 . S
O245 Zn241 2.051 . S
O245 C250 1.258 . S
O246 C239 1.247 . S
O246 Zn243 2.003 1_556 S
O247 C239 1.258 . S
O247 Zn241 2.020 1_556 S
O248 Zn241 2.012 1_556 S
O248 C251 1.247 . S
O249 Zn243 2.011 1_556 S
O249 C251 1.258 . S
C250 O244 1.247 . S
C250 O245 1.258 . S
C251 O248 1.247 . S
C251 O249 1.258 . S
C252 O254 1.247 . S
C252 O256 1.258 . S
C253 O260 1.247 . S
C253 O261 1.258 . S
O254 C252 1.247 . S
O254 Zn255 2.028 1_556 S
Zn255 O254 2.028 1_554 S
Zn255 O259 2.035 1_554 S
Zn255 O261 2.035 . S
Zn255 O262 2.028 . S
O256 C252 1.258 . S
O256 Zn257 2.035 1_556 S
Zn257 O256 2.035 1_554 S
Zn257 O258 2.028 1_554 S
Zn257 O260 2.028 . S
Zn257 O263 2.035 . S
O258 Zn257 2.028 1_556 S
O258 C264 1.247 . S
O259 Zn255 2.035 1_556 S
O259 C264 1.258 . S
O260 C253 1.247 . S
O260 Zn257 2.028 . S
O261 C253 1.258 . S
O261 Zn255 2.035 . S
O262 Zn255 2.028 . S
O262 C265 1.247 . S
O263 Zn257 2.035 . S
O263 C265 1.258 . S
C264 O258 1.247 . S
C264 O259 1.258 . S
C265 O262 1.247 . S
C265 O263 1.258 . S
C266 O268 1.247 . S
C266 O270 1.258 . S
C267 O274 1.247 . S
C267 O275 1.258 . S
O268 C266 1.247 . S
O268 Zn269 2.028 . S
Zn269 O268 2.028 . S
Zn269 O273 2.035 . S
Zn269 O275 2.035 1_554 S
Zn269 O276 2.028 1_554 S
O270 C266 1.258 . S
O270 Zn271 2.035 . S
Zn271 O270 2.035 . S
Zn271 O272 2.028 . S
Zn271 O274 2.028 1_554 S
Zn271 O277 2.035 1_554 S
O272 Zn271 2.028 . S
O272 C278 1.247 . S
O273 Zn269 2.035 . S
O273 C278 1.258 . S
O274 C267 1.247 . S
O274 Zn271 2.028 1_556 S
O275 C267 1.258 . S
O275 Zn269 2.035 1_556 S
O276 Zn269 2.028 1_556 S
O276 C279 1.247 . S
O277 Zn271 2.035 1_556 S
O277 C279 1.258 . S
C278 O272 1.247 . S
C278 O273 1.258 . S
C279 O276 1.247 . S
C279 O277 1.258 . S
C280 C281 1.391 . S
C280 C282 1.394 . S
C280 H296 0.931 . S
C281 C280 1.391 . S
C281 C285 1.376 . S
C282 C280 1.394 . S
C282 C283 1.369 . S
C282 C286 1.531 . S
C283 C282 1.369 . S
C283 C284 1.410 . S
C283 C291 1.503 . S
C284 C283 1.410 . S
C284 C285 1.392 . S
C284 C287 1.511 . S
C285 C281 1.376 . S
C285 C284 1.392 . S
C285 H297 0.929 . S
C286 C282 1.531 . S
C286 H298 0.960 . S
C286 H299 0.962 . S
C286 H300 0.960 . S
C287 C284 1.511 . S
C287 H301 0.961 . S
C287 H302 0.961 . S
C287 H303 0.961 . S
C288 C289 1.370 . S
C288 C290 1.363 . S
C288 H304 0.931 . S
C289 C288 1.370 . S
C289 C293 1.408 . S
C290 C288 1.363 . S
C290 C291 1.370 . S
C290 C294 1.524 . S
C291 C283 1.503 . S
C291 C290 1.370 . S
C291 C292 1.403 . S
C292 C291 1.403 . S
C292 C293 1.404 . S
C292 C295 1.539 . S
C293 C289 1.408 . S
C293 C292 1.404 . S
C293 H305 0.930 . S
C294 C290 1.524 . S
C294 H306 0.956 . S
C294 H307 0.961 . S
C294 H308 0.961 . S
C295 C292 1.539 . S
C295 H309 0.958 . S
C295 H310 0.961 . S
C295 H311 0.960 . S
H296 C280 0.931 . S
H297 C285 0.929 . S
H298 C286 0.960 . S
H299 C286 0.962 . S
H300 C286 0.960 . S
H301 C287 0.961 . S
H302 C287 0.961 . S
H303 C287 0.961 . S
H304 C288 0.931 . S
H305 C293 0.930 . S
H306 C294 0.956 . S
H307 C294 0.961 . S
H308 C294 0.961 . S
H309 C295 0.958 . S
H310 C295 0.961 . S
H311 C295 0.960 . S
C312 C313 1.391 . S
C312 C314 1.394 . S
C312 H328 0.931 . S
C313 C312 1.391 . S
C313 C317 1.376 . S
C314 C312 1.394 . S
C314 C315 1.369 . S
C314 C318 1.531 . S
C315 C314 1.369 . S
C315 C316 1.410 . S
C315 C323 1.503 . S
C316 C315 1.410 . S
C316 C317 1.392 . S
C316 C319 1.511 . S
C317 C313 1.376 . S
C317 C316 1.392 . S
C317 H329 0.929 . S
C318 C314 1.531 . S
C318 H330 0.960 . S
C318 H331 0.962 . S
C318 H332 0.960 . S
C319 C316 1.511 . S
C319 H333 0.961 . S
C319 H334 0.961 . S
C319 H335 0.961 . S
C320 C321 1.370 . S
C320 C322 1.363 . S
C320 H336 0.931 . S
C321 C320 1.370 . S
C321 C325 1.408 . S
C322 C320 1.363 . S
C322 C323 1.370 . S
C322 C326 1.524 . S
C323 C315 1.503 . S
C323 C322 1.370 . S
C323 C324 1.403 . S
C324 C323 1.403 . S
C324 C325 1.404 . S
C324 C327 1.539 . S
C325 C321 1.408 . S
C325 C324 1.404 . S
C325 H337 0.930 . S
C326 C322 1.524 . S
C326 H338 0.956 . S
C326 H339 0.961 . S
C326 H340 0.961 . S
C327 C324 1.539 . S
C327 H341 0.958 . S
C327 H342 0.961 . S
C327 H343 0.960 . S
H328 C312 0.931 . S
H329 C317 0.929 . S
H330 C318 0.960 . S
H331 C318 0.962 . S
H332 C318 0.960 . S
H333 C319 0.961 . S
H334 C319 0.961 . S
H335 C319 0.961 . S
H336 C320 0.931 . S
H337 C325 0.930 . S
H338 C326 0.956 . S
H339 C326 0.961 . S
H340 C326 0.961 . S
H341 C327 0.958 . S
H342 C327 0.961 . S
H343 C327 0.960 . S
C344 C345 1.391 . S
C344 C346 1.394 . S
C344 H360 0.931 . S
C345 C344 1.391 . S
C345 C349 1.376 . S
C346 C344 1.394 . S
C346 C347 1.369 . S
C346 C350 1.531 . S
C347 C346 1.369 . S
C347 C348 1.410 . S
C347 C355 1.503 . S
C348 C347 1.410 . S
C348 C349 1.392 . S
C348 C351 1.511 . S
C349 C345 1.376 . S
C349 C348 1.392 . S
C349 H361 0.929 . S
C350 C346 1.531 . S
C350 H362 0.960 . S
C350 H363 0.962 . S
C350 H364 0.960 . S
C351 C348 1.511 . S
C351 H365 0.961 . S
C351 H366 0.961 . S
C351 H367 0.961 . S
C352 C353 1.370 . S
C352 C354 1.363 . S
C352 H368 0.931 . S
C353 C352 1.370 . S
C353 C357 1.408 . S
C354 C352 1.363 . S
C354 C355 1.370 . S
C354 C358 1.524 . S
C355 C347 1.503 . S
C355 C354 1.370 . S
C355 C356 1.403 . S
C356 C355 1.403 . S
C356 C357 1.404 . S
C356 C359 1.539 . S
C357 C353 1.408 . S
C357 C356 1.404 . S
C357 H369 0.930 . S
C358 C354 1.524 . S
C358 H370 0.956 . S
C358 H371 0.961 . S
C358 H372 0.961 . S
C359 C356 1.539 . S
C359 H373 0.958 . S
C359 H374 0.961 . S
C359 H375 0.960 . S
H360 C344 0.931 . S
H361 C349 0.929 . S
H362 C350 0.960 . S
H363 C350 0.962 . S
H364 C350 0.960 . S
H365 C351 0.961 . S
H366 C351 0.961 . S
H367 C351 0.961 . S
H368 C352 0.931 . S
H369 C357 0.930 . S
H370 C358 0.956 . S
H371 C358 0.961 . S
H372 C358 0.961 . S
H373 C359 0.958 . S
H374 C359 0.961 . S
H375 C359 0.960 . S
C376 C377 1.391 . S
C376 C378 1.394 . S
C376 H392 0.931 . S
C377 C376 1.391 . S
C377 C381 1.376 . S
C378 C376 1.394 . S
C378 C379 1.369 . S
C378 C382 1.531 . S
C379 C378 1.369 . S
C379 C380 1.410 . S
C379 C387 1.503 . S
C380 C379 1.410 . S
C380 C381 1.392 . S
C380 C383 1.511 . S
C381 C377 1.376 . S
C381 C380 1.392 . S
C381 H393 0.929 . S
C382 C378 1.531 . S
C382 H394 0.960 . S
C382 H395 0.962 . S
C382 H396 0.960 . S
C383 C380 1.511 . S
C383 H397 0.961 . S
C383 H398 0.961 . S
C383 H399 0.961 . S
C384 C385 1.370 . S
C384 C386 1.363 . S
C384 H400 0.931 . S
C385 C384 1.370 . S
C385 C389 1.408 . S
C386 C384 1.363 . S
C386 C387 1.370 . S
C386 C390 1.524 . S
C387 C379 1.503 . S
C387 C386 1.370 . S
C387 C388 1.403 . S
C388 C387 1.403 . S
C388 C389 1.404 . S
C388 C391 1.539 . S
C389 C385 1.408 . S
C389 C388 1.404 . S
C389 H401 0.930 . S
C390 C386 1.524 . S
C390 H402 0.956 . S
C390 H403 0.961 . S
C390 H404 0.961 . S
C391 C388 1.539 . S
C391 H405 0.958 . S
C391 H406 0.961 . S
C391 H407 0.960 . S
H392 C376 0.931 . S
H393 C381 0.929 . S
H394 C382 0.960 . S
H395 C382 0.962 . S
H396 C382 0.960 . S
H397 C383 0.961 . S
H398 C383 0.961 . S
H399 C383 0.961 . S
H400 C384 0.931 . S
H401 C389 0.930 . S
H402 C390 0.956 . S
H403 C390 0.961 . S
H404 C390 0.961 . S
H405 C391 0.958 . S
H406 C391 0.961 . S
H407 C391 0.960 . S
C408 C409 1.391 . S
C408 C410 1.394 . S
C408 H424 0.931 . S
C409 C408 1.391 . S
C409 C413 1.376 . S
C410 C408 1.394 . S
C410 C411 1.369 . S
C410 C414 1.531 . S
C411 C410 1.369 . S
C411 C412 1.410 . S
C411 C419 1.503 . S
C412 C411 1.410 . S
C412 C413 1.392 . S
C412 C415 1.511 . S
C413 C409 1.376 . S
C413 C412 1.392 . S
C413 H425 0.929 . S
C414 C410 1.531 . S
C414 H426 0.960 . S
C414 H427 0.962 . S
C414 H428 0.960 . S
C415 C412 1.511 . S
C415 H429 0.961 . S
C415 H430 0.961 . S
C415 H431 0.961 . S
C416 C417 1.370 . S
C416 C418 1.363 . S
C416 H432 0.931 . S
C417 C416 1.370 . S
C417 C421 1.408 . S
C418 C416 1.363 . S
C418 C419 1.370 . S
C418 C422 1.524 . S
C419 C411 1.503 . S
C419 C418 1.370 . S
C419 C420 1.403 . S
C420 C419 1.403 . S
C420 C421 1.404 . S
C420 C423 1.539 . S
C421 C417 1.408 . S
C421 C420 1.404 . S
C421 H433 0.930 . S
C422 C418 1.524 . S
C422 H434 0.956 . S
C422 H435 0.961 . S
C422 H436 0.961 . S
C423 C420 1.539 . S
C423 H437 0.958 . S
C423 H438 0.961 . S
C423 H439 0.960 . S
H424 C408 0.931 . S
H425 C413 0.929 . S
H426 C414 0.960 . S
H427 C414 0.962 . S
H428 C414 0.960 . S
H429 C415 0.961 . S
H430 C415 0.961 . S
H431 C415 0.961 . S
H432 C416 0.931 . S
H433 C421 0.930 . S
H434 C422 0.956 . S
H435 C422 0.961 . S
H436 C422 0.961 . S
H437 C423 0.958 . S
H438 C423 0.961 . S
H439 C423 0.960 . S
C440 C441 1.391 . S
C440 C442 1.394 . S
C440 H456 0.931 . S
C441 C440 1.391 . S
C441 C445 1.376 . S
C442 C440 1.394 . S
C442 C443 1.369 . S
C442 C446 1.531 . S
C443 C442 1.369 . S
C443 C444 1.410 . S
C443 C451 1.503 . S
C444 C443 1.410 . S
C444 C445 1.392 . S
C444 C447 1.511 . S
C445 C441 1.376 . S
C445 C444 1.392 . S
C445 H457 0.929 . S
C446 C442 1.531 . S
C446 H458 0.960 . S
C446 H459 0.962 . S
C446 H460 0.960 . S
C447 C444 1.511 . S
C447 H461 0.961 . S
C447 H462 0.961 . S
C447 H463 0.961 . S
C448 C449 1.370 . S
C448 C450 1.363 . S
C448 H464 0.931 . S
C449 C448 1.370 . S
C449 C453 1.408 . S
C450 C448 1.363 . S
C450 C451 1.370 . S
C450 C454 1.524 . S
C451 C443 1.503 . S
C451 C450 1.370 . S
C451 C452 1.403 . S
C452 C451 1.403 . S
C452 C453 1.404 . S
C452 C455 1.539 . S
C453 C449 1.408 . S
C453 C452 1.404 . S
C453 H465 0.930 . S
C454 C450 1.524 . S
C454 H466 0.956 . S
C454 H467 0.961 . S
C454 H468 0.961 . S
C455 C452 1.539 . S
C455 H469 0.958 . S
C455 H470 0.961 . S
C455 H471 0.960 . S
H456 C440 0.931 . S
H457 C445 0.929 . S
H458 C446 0.960 . S
H459 C446 0.962 . S
H460 C446 0.960 . S
H461 C447 0.961 . S
H462 C447 0.961 . S
H463 C447 0.961 . S
H464 C448 0.931 . S
H465 C453 0.930 . S
H466 C454 0.956 . S
H467 C454 0.961 . S
H468 C454 0.961 . S
H469 C455 0.958 . S
H470 C455 0.961 . S
H471 C455 0.960 . S
C472 C473 1.391 . S
C472 C474 1.394 . S
C472 H488 0.931 . S
C473 C472 1.391 . S
C473 C477 1.376 . S
C474 C472 1.394 . S
C474 C475 1.369 . S
C474 C478 1.531 . S
C475 C474 1.369 . S
C475 C476 1.410 . S
C475 C483 1.503 . S
C476 C475 1.410 . S
C476 C477 1.392 . S
C476 C479 1.511 . S
C477 C473 1.376 . S
C477 C476 1.392 . S
C477 H489 0.929 . S
C478 C474 1.531 . S
C478 H490 0.960 . S
C478 H491 0.962 . S
C478 H492 0.960 . S
C479 C476 1.511 . S
C479 H493 0.961 . S
C479 H494 0.961 . S
C479 H495 0.961 . S
C480 C481 1.370 . S
C480 C482 1.363 . S
C480 H496 0.931 . S
C481 C480 1.370 . S
C481 C485 1.408 . S
C482 C480 1.363 . S
C482 C483 1.370 . S
C482 C486 1.524 . S
C483 C475 1.503 . S
C483 C482 1.370 . S
C483 C484 1.403 . S
C484 C483 1.403 . S
C484 C485 1.404 . S
C484 C487 1.539 . S
C485 C481 1.408 . S
C485 C484 1.404 . S
C485 H497 0.930 . S
C486 C482 1.524 . S
C486 H498 0.956 . S
C486 H499 0.961 . S
C486 H500 0.961 . S
C487 C484 1.539 . S
C487 H501 0.958 . S
C487 H502 0.961 . S
C487 H503 0.960 . S
H488 C472 0.931 . S
H489 C477 0.929 . S
H490 C478 0.960 . S
H491 C478 0.962 . S
H492 C478 0.960 . S
H493 C479 0.961 . S
H494 C479 0.961 . S
H495 C479 0.961 . S
H496 C480 0.931 . S
H497 C485 0.930 . S
H498 C486 0.956 . S
H499 C486 0.961 . S
H500 C486 0.961 . S
H501 C487 0.958 . S
H502 C487 0.961 . S
H503 C487 0.960 . S
C504 C505 1.391 . S
C504 C506 1.394 . S
C504 H520 0.931 . S
C505 C504 1.391 . S
C505 C509 1.376 . S
C506 C504 1.394 . S
C506 C507 1.369 . S
C506 C510 1.531 . S
C507 C506 1.369 . S
C507 C508 1.410 . S
C507 C515 1.503 . S
C508 C507 1.410 . S
C508 C509 1.392 . S
C508 C511 1.511 . S
C509 C505 1.376 . S
C509 C508 1.392 . S
C509 H521 0.929 . S
C510 C506 1.531 . S
C510 H522 0.960 . S
C510 H523 0.962 . S
C510 H524 0.960 . S
C511 C508 1.511 . S
C511 H525 0.961 . S
C511 H526 0.961 . S
C511 H527 0.961 . S
C512 C513 1.370 . S
C512 C514 1.363 . S
C512 H528 0.931 . S
C513 C512 1.370 . S
C513 C517 1.408 . S
C514 C512 1.363 . S
C514 C515 1.370 . S
C514 C518 1.524 . S
C515 C507 1.503 . S
C515 C514 1.370 . S
C515 C516 1.403 . S
C516 C515 1.403 . S
C516 C517 1.404 . S
C516 C519 1.539 . S
C517 C513 1.408 . S
C517 C516 1.404 . S
C517 H529 0.930 . S
C518 C514 1.524 . S
C518 H530 0.956 . S
C518 H531 0.961 . S
C518 H532 0.961 . S
C519 C516 1.539 . S
C519 H533 0.958 . S
C519 H534 0.961 . S
C519 H535 0.960 . S
H520 C504 0.931 . S
H521 C509 0.929 . S
H522 C510 0.960 . S
H523 C510 0.962 . S
H524 C510 0.960 . S
H525 C511 0.961 . S
H526 C511 0.961 . S
H527 C511 0.961 . S
H528 C512 0.931 . S
H529 C517 0.930 . S
H530 C518 0.956 . S
H531 C518 0.961 . S
H532 C518 0.961 . S
H533 C519 0.958 . S
H534 C519 0.961 . S
H535 C519 0.960 . S
C536 C537 1.391 . S
C536 C538 1.394 . S
C536 H552 0.931 . S
C537 C536 1.391 . S
C537 C541 1.376 . S
C538 C536 1.394 . S
C538 C539 1.369 . S
C538 C542 1.531 . S
C539 C538 1.369 . S
C539 C540 1.410 . S
C539 C547 1.503 . S
C540 C539 1.410 . S
C540 C541 1.392 . S
C540 C543 1.511 . S
C541 C537 1.376 . S
C541 C540 1.392 . S
C541 H553 0.929 . S
C542 C538 1.531 . S
C542 H554 0.960 . S
C542 H555 0.962 . S
C542 H556 0.960 . S
C543 C540 1.511 . S
C543 H557 0.961 . S
C543 H558 0.961 . S
C543 H559 0.961 . S
C544 C545 1.370 . S
C544 C546 1.363 . S
C544 H560 0.931 . S
C545 C544 1.370 . S
C545 C549 1.408 . S
C546 C544 1.363 . S
C546 C547 1.370 . S
C546 C550 1.524 . S
C547 C539 1.503 . S
C547 C546 1.370 . S
C547 C548 1.403 . S
C548 C547 1.403 . S
C548 C549 1.404 . S
C548 C551 1.539 . S
C549 C545 1.408 . S
C549 C548 1.404 . S
C549 H561 0.930 . S
C550 C546 1.524 . S
C550 H562 0.956 . S
C550 H563 0.961 . S
C550 H564 0.961 . S
C551 C548 1.539 . S
C551 H565 0.958 . S
C551 H566 0.961 . S
C551 H567 0.960 . S
H552 C536 0.931 . S
H553 C541 0.929 . S
H554 C542 0.960 . S
H555 C542 0.962 . S
H556 C542 0.960 . S
H557 C543 0.961 . S
H558 C543 0.961 . S
H559 C543 0.961 . S
H560 C544 0.931 . S
H561 C549 0.930 . S
H562 C550 0.956 . S
H563 C550 0.961 . S
H564 C550 0.961 . S
H565 C551 0.958 . S
H566 C551 0.961 . S
H567 C551 0.960 . S
C568 C569 1.391 . S
C568 C570 1.394 . S
C568 H584 0.931 . S
C569 C568 1.391 . S
C569 C573 1.376 . S
C570 C568 1.394 . S
C570 C571 1.369 . S
C570 C574 1.531 . S
C571 C570 1.369 . S
C571 C572 1.410 . S
C571 C579 1.503 . S
C572 C571 1.410 . S
C572 C573 1.392 . S
C572 C575 1.511 . S
C573 C569 1.376 . S
C573 C572 1.392 . S
C573 H585 0.929 . S
C574 C570 1.531 . S
C574 H586 0.960 . S
C574 H587 0.962 . S
C574 H588 0.960 . S
C575 C572 1.511 . S
C575 H589 0.961 . S
C575 H590 0.961 . S
C575 H591 0.961 . S
C576 C577 1.370 . S
C576 C578 1.363 . S
C576 H592 0.931 . S
C577 C576 1.370 . S
C577 C581 1.408 . S
C578 C576 1.363 . S
C578 C579 1.370 . S
C578 C582 1.524 . S
C579 C571 1.503 . S
C579 C578 1.370 . S
C579 C580 1.403 . S
C580 C579 1.403 . S
C580 C581 1.404 . S
C580 C583 1.539 . S
C581 C577 1.408 . S
C581 C580 1.404 . S
C581 H593 0.930 . S
C582 C578 1.524 . S
C582 H594 0.956 . S
C582 H595 0.961 . S
C582 H596 0.961 . S
C583 C580 1.539 . S
C583 H597 0.958 . S
C583 H598 0.961 . S
C583 H599 0.960 . S
H584 C568 0.931 . S
H585 C573 0.929 . S
H586 C574 0.960 . S
H587 C574 0.962 . S
H588 C574 0.960 . S
H589 C575 0.961 . S
H590 C575 0.961 . S
H591 C575 0.961 . S
H592 C576 0.931 . S
H593 C581 0.930 . S
H594 C582 0.956 . S
H595 C582 0.961 . S
H596 C582 0.961 . S
H597 C583 0.958 . S
H598 C583 0.961 . S
H599 C583 0.960 . S
C600 C601 1.391 . S
C600 C602 1.394 . S
C600 H616 0.931 . S
C601 C600 1.391 . S
C601 C605 1.376 . S
C602 C600 1.394 . S
C602 C603 1.369 . S
C602 C606 1.531 . S
C603 C602 1.369 . S
C603 C604 1.410 . S
C603 C611 1.503 . S
C604 C603 1.410 . S
C604 C605 1.392 . S
C604 C607 1.511 . S
C605 C601 1.376 . S
C605 C604 1.392 . S
C605 H617 0.929 . S
C606 C602 1.531 . S
C606 H618 0.960 . S
C606 H619 0.962 . S
C606 H620 0.960 . S
C607 C604 1.511 . S
C607 H621 0.961 . S
C607 H622 0.961 . S
C607 H623 0.961 . S
C608 C609 1.370 . S
C608 C610 1.363 . S
C608 H624 0.931 . S
C609 C608 1.370 . S
C609 C613 1.408 . S
C610 C608 1.363 . S
C610 C611 1.370 . S
C610 C614 1.524 . S
C611 C603 1.503 . S
C611 C610 1.370 . S
C611 C612 1.403 . S
C612 C611 1.403 . S
C612 C613 1.404 . S
C612 C615 1.539 . S
C613 C609 1.408 . S
C613 C612 1.404 . S
C613 H625 0.930 . S
C614 C610 1.524 . S
C614 H626 0.956 . S
C614 H627 0.961 . S
C614 H628 0.961 . S
C615 C612 1.539 . S
C615 H629 0.958 . S
C615 H630 0.961 . S
C615 H631 0.960 . S
H616 C600 0.931 . S
H617 C605 0.929 . S
H618 C606 0.960 . S
H619 C606 0.962 . S
H620 C606 0.960 . S
H621 C607 0.961 . S
H622 C607 0.961 . S
H623 C607 0.961 . S
H624 C608 0.931 . S
H625 C613 0.930 . S
H626 C614 0.956 . S
H627 C614 0.961 . S
H628 C614 0.961 . S
H629 C615 0.958 . S
H630 C615 0.961 . S
H631 C615 0.960 . S
C632 C633 1.391 . S
C632 C634 1.394 . S
C632 H648 0.931 . S
C633 C632 1.391 . S
C633 C637 1.376 . S
C634 C632 1.394 . S
C634 C635 1.369 . S
C634 C638 1.531 . S
C635 C634 1.369 . S
C635 C636 1.410 . S
C635 C643 1.503 . S
C636 C635 1.410 . S
C636 C637 1.392 . S
C636 C639 1.511 . S
C637 C633 1.376 . S
C637 C636 1.392 . S
C637 H649 0.929 . S
C638 C634 1.531 . S
C638 H650 0.960 . S
C638 H651 0.962 . S
C638 H652 0.960 . S
C639 C636 1.511 . S
C639 H653 0.961 . S
C639 H654 0.961 . S
C639 H655 0.961 . S
C640 C641 1.370 . S
C640 C642 1.363 . S
C640 H656 0.931 . S
C641 C640 1.370 . S
C641 C645 1.408 . S
C642 C640 1.363 . S
C642 C643 1.370 . S
C642 C646 1.524 . S
C643 C635 1.503 . S
C643 C642 1.370 . S
C643 C644 1.403 . S
C644 C643 1.403 . S
C644 C645 1.404 . S
C644 C647 1.539 . S
C645 C641 1.408 . S
C645 C644 1.404 . S
C645 H657 0.930 . S
C646 C642 1.524 . S
C646 H658 0.956 . S
C646 H659 0.961 . S
C646 H660 0.961 . S
C647 C644 1.539 . S
C647 H661 0.958 . S
C647 H662 0.961 . S
C647 H663 0.960 . S
H648 C632 0.931 . S
H649 C637 0.929 . S
H650 C638 0.960 . S
H651 C638 0.962 . S
H652 C638 0.960 . S
H653 C639 0.961 . S
H654 C639 0.961 . S
H655 C639 0.961 . S
H656 C640 0.931 . S
H657 C645 0.930 . S
H658 C646 0.956 . S
H659 C646 0.961 . S
H660 C646 0.961 . S
H661 C647 0.958 . S
H662 C647 0.961 . S
H663 C647 0.960 . S
C664 C665 1.391 . S
C664 C666 1.394 . S
C664 H680 0.931 . S
C665 C664 1.391 . S
C665 C669 1.376 . S
C666 C664 1.394 . S
C666 C667 1.369 . S
C666 C670 1.531 . S
C667 C666 1.369 . S
C667 C668 1.410 . S
C667 C675 1.503 . S
C668 C667 1.410 . S
C668 C669 1.392 . S
C668 C671 1.511 . S
C669 C665 1.376 . S
C669 C668 1.392 . S
C669 H681 0.929 . S
C670 C666 1.531 . S
C670 H682 0.960 . S
C670 H683 0.962 . S
C670 H684 0.960 . S
C671 C668 1.511 . S
C671 H685 0.961 . S
C671 H686 0.961 . S
C671 H687 0.961 . S
C672 C673 1.370 . S
C672 C674 1.363 . S
C672 H688 0.931 . S
C673 C672 1.370 . S
C673 C677 1.408 . S
C674 C672 1.363 . S
C674 C675 1.370 . S
C674 C678 1.524 . S
C675 C667 1.503 . S
C675 C674 1.370 . S
C675 C676 1.403 . S
C676 C675 1.403 . S
C676 C677 1.404 . S
C676 C679 1.539 . S
C677 C673 1.408 . S
C677 C676 1.404 . S
C677 H689 0.930 . S
C678 C674 1.524 . S
C678 H690 0.956 . S
C678 H691 0.961 . S
C678 H692 0.961 . S
C679 C676 1.539 . S
C679 H693 0.958 . S
C679 H694 0.961 . S
C679 H695 0.960 . S
H680 C664 0.931 . S
H681 C669 0.929 . S
H682 C670 0.960 . S
H683 C670 0.962 . S
H684 C670 0.960 . S
H685 C671 0.961 . S
H686 C671 0.961 . S
H687 C671 0.961 . S
H688 C672 0.931 . S
H689 C677 0.930 . S
H690 C678 0.956 . S
H691 C678 0.961 . S
H692 C678 0.961 . S
H693 C679 0.958 . S
H694 C679 0.961 . S
H695 C679 0.960 . S
C696 C697 1.391 . S
C696 C698 1.394 . S
C696 H712 0.931 . S
C697 C696 1.391 . S
C697 C701 1.376 . S
C698 C696 1.394 . S
C698 C699 1.369 . S
C698 C702 1.531 . S
C699 C698 1.369 . S
C699 C700 1.410 . S
C699 C707 1.503 . S
C700 C699 1.410 . S
C700 C701 1.392 . S
C700 C703 1.511 . S
C701 C697 1.376 . S
C701 C700 1.392 . S
C701 H713 0.929 . S
C702 C698 1.531 . S
C702 H714 0.960 . S
C702 H715 0.962 . S
C702 H716 0.960 . S
C703 C700 1.511 . S
C703 H717 0.961 . S
C703 H718 0.961 . S
C703 H719 0.961 . S
C704 C705 1.370 . S
C704 C706 1.363 . S
C704 H720 0.931 . S
C705 C704 1.370 . S
C705 C709 1.408 . S
C706 C704 1.363 . S
C706 C707 1.370 . S
C706 C710 1.524 . S
C707 C699 1.503 . S
C707 C706 1.370 . S
C707 C708 1.403 . S
C708 C707 1.403 . S
C708 C709 1.404 . S
C708 C711 1.539 . S
C709 C705 1.408 . S
C709 C708 1.404 . S
C709 H721 0.930 . S
C710 C706 1.524 . S
C710 H722 0.956 . S
C710 H723 0.961 . S
C710 H724 0.961 . S
C711 C708 1.539 . S
C711 H725 0.958 . S
C711 H726 0.961 . S
C711 H727 0.960 . S
H712 C696 0.931 . S
H713 C701 0.929 . S
H714 C702 0.960 . S
H715 C702 0.962 . S
H716 C702 0.960 . S
H717 C703 0.961 . S
H718 C703 0.961 . S
H719 C703 0.961 . S
H720 C704 0.931 . S
H721 C709 0.930 . S
H722 C710 0.956 . S
H723 C710 0.961 . S
H724 C710 0.961 . S
H725 C711 0.958 . S
H726 C711 0.961 . S
H727 C711 0.960 . S
C728 C729 1.391 . S
C728 C730 1.394 . S
C728 H744 0.931 . S
C729 C728 1.391 . S
C729 C733 1.376 . S
C730 C728 1.394 . S
C730 C731 1.369 . S
C730 C734 1.531 . S
C731 C730 1.369 . S
C731 C732 1.410 . S
C731 C739 1.503 . S
C732 C731 1.410 . S
C732 C733 1.392 . S
C732 C735 1.511 . S
C733 C729 1.376 . S
C733 C732 1.392 . S
C733 H745 0.929 . S
C734 C730 1.531 . S
C734 H746 0.960 . S
C734 H747 0.962 . S
C734 H748 0.960 . S
C735 C732 1.511 . S
C735 H749 0.961 . S
C735 H750 0.961 . S
C735 H751 0.961 . S
C736 C737 1.370 . S
C736 C738 1.363 . S
C736 H752 0.931 . S
C737 C736 1.370 . S
C737 C741 1.408 . S
C738 C736 1.363 . S
C738 C739 1.370 . S
C738 C742 1.524 . S
C739 C731 1.503 . S
C739 C738 1.370 . S
C739 C740 1.403 . S
C740 C739 1.403 . S
C740 C741 1.404 . S
C740 C743 1.539 . S
C741 C737 1.408 . S
C741 C740 1.404 . S
C741 H753 0.930 . S
C742 C738 1.524 . S
C742 H754 0.956 . S
C742 H755 0.961 . S
C742 H756 0.961 . S
C743 C740 1.539 . S
C743 H757 0.958 . S
C743 H758 0.961 . S
C743 H759 0.960 . S
H744 C728 0.931 . S
H745 C733 0.929 . S
H746 C734 0.960 . S
H747 C734 0.962 . S
H748 C734 0.960 . S
H749 C735 0.961 . S
H750 C735 0.961 . S
H751 C735 0.961 . S
H752 C736 0.931 . S
H753 C741 0.930 . S
H754 C742 0.956 . S
H755 C742 0.961 . S
H756 C742 0.961 . S
H757 C743 0.958 . S
H758 C743 0.961 . S
H759 C743 0.960 . S
C760 C761 1.391 . S
C760 C762 1.394 . S
C760 H776 0.931 . S
C761 C760 1.391 . S
C761 C765 1.376 . S
C762 C760 1.394 . S
C762 C763 1.369 . S
C762 C766 1.531 . S
C763 C762 1.369 . S
C763 C764 1.410 . S
C763 C771 1.503 . S
C764 C763 1.410 . S
C764 C765 1.392 . S
C764 C767 1.511 . S
C765 C761 1.376 . S
C765 C764 1.392 . S
C765 H777 0.929 . S
C766 C762 1.531 . S
C766 H778 0.960 . S
C766 H779 0.962 . S
C766 H780 0.960 . S
C767 C764 1.511 . S
C767 H781 0.961 . S
C767 H782 0.961 . S
C767 H783 0.961 . S
C768 C769 1.370 . S
C768 C770 1.363 . S
C768 H784 0.931 . S
C769 C768 1.370 . S
C769 C773 1.408 . S
C770 C768 1.363 . S
C770 C771 1.370 . S
C770 C774 1.524 . S
C771 C763 1.503 . S
C771 C770 1.370 . S
C771 C772 1.403 . S
C772 C771 1.403 . S
C772 C773 1.404 . S
C772 C775 1.539 . S
C773 C769 1.408 . S
C773 C772 1.404 . S
C773 H785 0.930 . S
C774 C770 1.524 . S
C774 H786 0.956 . S
C774 H787 0.961 . S
C774 H788 0.961 . S
C775 C772 1.539 . S
C775 H789 0.958 . S
C775 H790 0.961 . S
C775 H791 0.960 . S
H776 C760 0.931 . S
H777 C765 0.929 . S
H778 C766 0.960 . S
H779 C766 0.962 . S
H780 C766 0.960 . S
H781 C767 0.961 . S
H782 C767 0.961 . S
H783 C767 0.961 . S
H784 C768 0.931 . S
H785 C773 0.930 . S
H786 C774 0.956 . S
H787 C774 0.961 . S
H788 C774 0.961 . S
H789 C775 0.958 . S
H790 C775 0.961 . S
H791 C775 0.960 . S
C792 C793 1.391 . S
C792 C794 1.394 . S
C792 H808 0.931 . S
C793 C792 1.391 . S
C793 C797 1.376 . S
C794 C792 1.394 . S
C794 C795 1.369 . S
C794 C798 1.531 . S
C795 C794 1.369 . S
C795 C796 1.410 . S
C795 C803 1.503 . S
C796 C795 1.410 . S
C796 C797 1.392 . S
C796 C799 1.511 . S
C797 C793 1.376 . S
C797 C796 1.392 . S
C797 H809 0.929 . S
C798 C794 1.531 . S
C798 H810 0.960 . S
C798 H811 0.962 . S
C798 H812 0.960 . S
C799 C796 1.511 . S
C799 H813 0.961 . S
C799 H814 0.961 . S
C799 H815 0.961 . S
C800 C801 1.370 . S
C800 C802 1.363 . S
C800 H816 0.931 . S
C801 C800 1.370 . S
C801 C805 1.408 . S
C802 C800 1.363 . S
C802 C803 1.370 . S
C802 C806 1.524 . S
C803 C795 1.503 . S
C803 C802 1.370 . S
C803 C804 1.403 . S
C804 C803 1.403 . S
C804 C805 1.404 . S
C804 C807 1.539 . S
C805 C801 1.408 . S
C805 C804 1.404 . S
C805 H817 0.930 . S
C806 C802 1.524 . S
C806 H818 0.956 . S
C806 H819 0.961 . S
C806 H820 0.961 . S
C807 C804 1.539 . S
C807 H821 0.958 . S
C807 H822 0.961 . S
C807 H823 0.960 . S
H808 C792 0.931 . S
H809 C797 0.929 . S
H810 C798 0.960 . S
H811 C798 0.962 . S
H812 C798 0.960 . S
H813 C799 0.961 . S
H814 C799 0.961 . S
H815 C799 0.961 . S
H816 C800 0.931 . S
H817 C805 0.930 . S
H818 C806 0.956 . S
H819 C806 0.961 . S
H820 C806 0.961 . S
H821 C807 0.958 . S
H822 C807 0.961 . S
H823 C807 0.960 . S
C824 C825 1.391 . S
C824 C826 1.394 . S
C824 H840 0.931 . S
C825 C824 1.391 . S
C825 C829 1.376 . S
C826 C824 1.394 . S
C826 C827 1.369 . S
C826 C830 1.531 . S
C827 C826 1.369 . S
C827 C828 1.410 . S
C827 C835 1.503 . S
C828 C827 1.410 . S
C828 C829 1.392 . S
C828 C831 1.511 . S
C829 C825 1.376 . S
C829 C828 1.392 . S
C829 H841 0.929 . S
C830 C826 1.531 . S
C830 H842 0.960 . S
C830 H843 0.962 . S
C830 H844 0.960 . S
C831 C828 1.511 . S
C831 H845 0.961 . S
C831 H846 0.961 . S
C831 H847 0.961 . S
C832 C833 1.370 . S
C832 C834 1.363 . S
C832 H848 0.931 . S
C833 C832 1.370 . S
C833 C837 1.408 . S
C834 C832 1.363 . S
C834 C835 1.370 . S
C834 C838 1.524 . S
C835 C827 1.503 . S
C835 C834 1.370 . S
C835 C836 1.403 . S
C836 C835 1.403 . S
C836 C837 1.404 . S
C836 C839 1.539 . S
C837 C833 1.408 . S
C837 C836 1.404 . S
C837 H849 0.930 . S
C838 C834 1.524 . S
C838 H850 0.956 . S
C838 H851 0.961 . S
C838 H852 0.961 . S
C839 C836 1.539 . S
C839 H853 0.958 . S
C839 H854 0.961 . S
C839 H855 0.960 . S
H840 C824 0.931 . S
H841 C829 0.929 . S
H842 C830 0.960 . S
H843 C830 0.962 . S
H844 C830 0.960 . S
H845 C831 0.961 . S
H846 C831 0.961 . S
H847 C831 0.961 . S
H848 C832 0.931 . S
H849 C837 0.930 . S
H850 C838 0.956 . S
H851 C838 0.961 . S
H852 C838 0.961 . S
H853 C839 0.958 . S
H854 C839 0.961 . S
H855 C839 0.960 . S
C856 C857 1.391 . S
C856 C858 1.394 . S
C856 H872 0.931 . S
C857 C856 1.391 . S
C857 C861 1.376 . S
C858 C856 1.394 . S
C858 C859 1.369 . S
C858 C862 1.531 . S
C859 C858 1.369 . S
C859 C860 1.410 . S
C859 C867 1.503 . S
C860 C859 1.410 . S
C860 C861 1.392 . S
C860 C863 1.511 . S
C861 C857 1.376 . S
C861 C860 1.392 . S
C861 H873 0.929 . S
C862 C858 1.531 . S
C862 H874 0.960 . S
C862 H875 0.962 . S
C862 H876 0.960 . S
C863 C860 1.511 . S
C863 H877 0.961 . S
C863 H878 0.961 . S
C863 H879 0.961 . S
C864 C865 1.370 . S
C864 C866 1.363 . S
C864 H880 0.931 . S
C865 C864 1.370 . S
C865 C869 1.408 . S
C866 C864 1.363 . S
C866 C867 1.370 . S
C866 C870 1.524 . S
C867 C859 1.503 . S
C867 C866 1.370 . S
C867 C868 1.403 . S
C868 C867 1.403 . S
C868 C869 1.404 . S
C868 C871 1.539 . S
C869 C865 1.408 . S
C869 C868 1.404 . S
C869 H881 0.930 . S
C870 C866 1.524 . S
C870 H882 0.956 . S
C870 H883 0.961 . S
C870 H884 0.961 . S
C871 C868 1.539 . S
C871 H885 0.958 . S
C871 H886 0.961 . S
C871 H887 0.960 . S
H872 C856 0.931 . S
H873 C861 0.929 . S
H874 C862 0.960 . S
H875 C862 0.962 . S
H876 C862 0.960 . S
H877 C863 0.961 . S
H878 C863 0.961 . S
H879 C863 0.961 . S
H880 C864 0.931 . S
H881 C869 0.930 . S
H882 C870 0.956 . S
H883 C870 0.961 . S
H884 C870 0.961 . S
H885 C871 0.958 . S
H886 C871 0.961 . S
H887 C871 0.960 . S
C888 C889 1.391 . S
C888 C890 1.394 . S
C888 H904 0.931 . S
C889 C888 1.391 . S
C889 C893 1.376 . S
C890 C888 1.394 . S
C890 C891 1.369 . S
C890 C894 1.531 . S
C891 C890 1.369 . S
C891 C892 1.410 . S
C891 C899 1.503 . S
C892 C891 1.410 . S
C892 C893 1.392 . S
C892 C895 1.511 . S
C893 C889 1.376 . S
C893 C892 1.392 . S
C893 H905 0.929 . S
C894 C890 1.531 . S
C894 H906 0.960 . S
C894 H907 0.962 . S
C894 H908 0.960 . S
C895 C892 1.511 . S
C895 H909 0.961 . S
C895 H910 0.961 . S
C895 H911 0.961 . S
C896 C897 1.370 . S
C896 C898 1.363 . S
C896 H912 0.931 . S
C897 C896 1.370 . S
C897 C901 1.408 . S
C898 C896 1.363 . S
C898 C899 1.370 . S
C898 C902 1.524 . S
C899 C891 1.503 . S
C899 C898 1.370 . S
C899 C900 1.403 . S
C900 C899 1.403 . S
C900 C901 1.404 . S
C900 C903 1.539 . S
C901 C897 1.408 . S
C901 C900 1.404 . S
C901 H913 0.930 . S
C902 C898 1.524 . S
C902 H914 0.956 . S
C902 H915 0.961 . S
C902 H916 0.961 . S
C903 C900 1.539 . S
C903 H917 0.958 . S
C903 H918 0.961 . S
C903 H919 0.960 . S
H904 C888 0.931 . S
H905 C893 0.929 . S
H906 C894 0.960 . S
H907 C894 0.962 . S
H908 C894 0.960 . S
H909 C895 0.961 . S
H910 C895 0.961 . S
H911 C895 0.961 . S
H912 C896 0.931 . S
H913 C901 0.930 . S
H914 C902 0.956 . S
H915 C902 0.961 . S
H916 C902 0.961 . S
H917 C903 0.958 . S
H918 C903 0.961 . S
H919 C903 0.960 . S
C920 C921 1.391 . S
C920 C922 1.394 . S
C920 H936 0.931 . S
C921 C920 1.391 . S
C921 C925 1.376 . S
C922 C920 1.394 . S
C922 C923 1.369 . S
C922 C926 1.531 . S
C923 C922 1.369 . S
C923 C924 1.410 . S
C923 C931 1.503 . S
C924 C923 1.410 . S
C924 C925 1.392 . S
C924 C927 1.511 . S
C925 C921 1.376 . S
C925 C924 1.392 . S
C925 H937 0.929 . S
C926 C922 1.531 . S
C926 H938 0.960 . S
C926 H939 0.962 . S
C926 H940 0.960 . S
C927 C924 1.511 . S
C927 H941 0.961 . S
C927 H942 0.961 . S
C927 H943 0.961 . S
C928 C929 1.370 . S
C928 C930 1.363 . S
C928 H944 0.931 . S
C929 C928 1.370 . S
C929 C933 1.408 . S
C930 C928 1.363 . S
C930 C931 1.370 . S
C930 C934 1.524 . S
C931 C923 1.503 . S
C931 C930 1.370 . S
C931 C932 1.403 . S
C932 C931 1.403 . S
C932 C933 1.404 . S
C932 C935 1.539 . S
C933 C929 1.408 . S
C933 C932 1.404 . S
C933 H945 0.930 . S
C934 C930 1.524 . S
C934 H946 0.956 . S
C934 H947 0.961 . S
C934 H948 0.961 . S
C935 C932 1.539 . S
C935 H949 0.958 . S
C935 H950 0.961 . S
C935 H951 0.960 . S
H936 C920 0.931 . S
H937 C925 0.929 . S
H938 C926 0.960 . S
H939 C926 0.962 . S
H940 C926 0.960 . S
H941 C927 0.961 . S
H942 C927 0.961 . S
H943 C927 0.961 . S
H944 C928 0.931 . S
H945 C933 0.930 . S
H946 C934 0.956 . S
H947 C934 0.961 . S
H948 C934 0.961 . S
H949 C935 0.958 . S
H950 C935 0.961 . S
H951 C935 0.960 . S
C952 C953 1.391 . S
C952 C954 1.394 . S
C952 H968 0.931 . S
C953 C952 1.391 . S
C953 C957 1.376 . S
C954 C952 1.394 . S
C954 C955 1.369 . S
C954 C958 1.531 . S
C955 C954 1.369 . S
C955 C956 1.410 . S
C955 C963 1.503 . S
C956 C955 1.410 . S
C956 C957 1.392 . S
C956 C959 1.511 . S
C957 C953 1.376 . S
C957 C956 1.392 . S
C957 H969 0.929 . S
C958 C954 1.531 . S
C958 H970 0.960 . S
C958 H971 0.962 . S
C958 H972 0.960 . S
C959 C956 1.511 . S
C959 H973 0.961 . S
C959 H974 0.961 . S
C959 H975 0.961 . S
C960 C961 1.370 . S
C960 C962 1.363 . S
C960 H976 0.931 . S
C961 C960 1.370 . S
C961 C965 1.408 . S
C962 C960 1.363 . S
C962 C963 1.370 . S
C962 C966 1.524 . S
C963 C955 1.503 . S
C963 C962 1.370 . S
C963 C964 1.403 . S
C964 C963 1.403 . S
C964 C965 1.404 . S
C964 C967 1.539 . S
C965 C961 1.408 . S
C965 C964 1.404 . S
C965 H977 0.930 . S
C966 C962 1.524 . S
C966 H978 0.956 . S
C966 H979 0.961 . S
C966 H980 0.961 . S
C967 C964 1.539 . S
C967 H981 0.958 . S
C967 H982 0.961 . S
C967 H983 0.960 . S
H968 C952 0.931 . S
H969 C957 0.929 . S
H970 C958 0.960 . S
H971 C958 0.962 . S
H972 C958 0.960 . S
H973 C959 0.961 . S
H974 C959 0.961 . S
H975 C959 0.961 . S
H976 C960 0.931 . S
H977 C965 0.930 . S
H978 C966 0.956 . S
H979 C966 0.961 . S
H980 C966 0.961 . S
H981 C967 0.958 . S
H982 C967 0.961 . S
H983 C967 0.960 . S
C984 C985 1.391 . S
C984 C986 1.394 . S
C984 H1000 0.931 . S
C985 C984 1.391 . S
C985 C989 1.376 . S
C986 C984 1.394 . S
C986 C987 1.369 . S
C986 C990 1.531 . S
C987 C986 1.369 . S
C987 C988 1.410 . S
C987 C995 1.503 . S
C988 C987 1.410 . S
C988 C989 1.392 . S
C988 C991 1.511 . S
C989 C985 1.376 . S
C989 C988 1.392 . S
C989 H1001 0.929 . S
C990 C986 1.531 . S
C990 H1002 0.960 . S
C990 H1003 0.962 . S
C990 H1004 0.960 . S
C991 C988 1.511 . S
C991 H1005 0.961 . S
C991 H1006 0.961 . S
C991 H1007 0.961 . S
C992 C993 1.370 . S
C992 C994 1.363 . S
C992 H1008 0.931 . S
C993 C992 1.370 . S
C993 C997 1.408 . S
C994 C992 1.363 . S
C994 C995 1.370 . S
C994 C998 1.524 . S
C995 C987 1.503 . S
C995 C994 1.370 . S
C995 C996 1.403 . S
C996 C995 1.403 . S
C996 C997 1.404 . S
C996 C999 1.539 . S
C997 C993 1.408 . S
C997 C996 1.404 . S
C997 H1009 0.930 . S
C998 C994 1.524 . S
C998 H1010 0.956 . S
C998 H1011 0.961 . S
C998 H1012 0.961 . S
C999 C996 1.539 . S
C999 H1013 0.958 . S
C999 H1014 0.961 . S
C999 H1015 0.960 . S
H1000 C984 0.931 . S
H1001 C989 0.929 . S
H1002 C990 0.960 . S
H1003 C990 0.962 . S
H1004 C990 0.960 . S
H1005 C991 0.961 . S
H1006 C991 0.961 . S
H1007 C991 0.961 . S
H1008 C992 0.931 . S
H1009 C997 0.930 . S
H1010 C998 0.956 . S
H1011 C998 0.961 . S
H1012 C998 0.961 . S
H1013 C999 0.958 . S
H1014 C999 0.961 . S
H1015 C999 0.960 . S
C1016 C1017 1.391 . S
C1016 C1018 1.394 . S
C1016 H1032 0.931 . S
C1017 C1016 1.391 . S
C1017 C1021 1.376 . S
C1018 C1016 1.394 . S
C1018 C1019 1.369 . S
C1018 C1022 1.531 . S
C1019 C1018 1.369 . S
C1019 C1020 1.410 . S
C1019 C1027 1.503 . S
C1020 C1019 1.410 . S
C1020 C1021 1.392 . S
C1020 C1023 1.511 . S
C1021 C1017 1.376 . S
C1021 C1020 1.392 . S
C1021 H1033 0.929 . S
C1022 C1018 1.531 . S
C1022 H1034 0.960 . S
C1022 H1035 0.962 . S
C1022 H1036 0.960 . S
C1023 C1020 1.511 . S
C1023 H1037 0.961 . S
C1023 H1038 0.961 . S
C1023 H1039 0.961 . S
C1024 C1025 1.370 . S
C1024 C1026 1.363 . S
C1024 H1040 0.931 . S
C1025 C1024 1.370 . S
C1025 C1029 1.408 . S
C1026 C1024 1.363 . S
C1026 C1027 1.370 . S
C1026 C1030 1.524 . S
C1027 C1019 1.503 . S
C1027 C1026 1.370 . S
C1027 C1028 1.403 . S
C1028 C1027 1.403 . S
C1028 C1029 1.404 . S
C1028 C1031 1.539 . S
C1029 C1025 1.408 . S
C1029 C1028 1.404 . S
C1029 H1041 0.930 . S
C1030 C1026 1.524 . S
C1030 H1042 0.956 . S
C1030 H1043 0.961 . S
C1030 H1044 0.961 . S
C1031 C1028 1.539 . S
C1031 H1045 0.958 . S
C1031 H1046 0.961 . S
C1031 H1047 0.960 . S
H1032 C1016 0.931 . S
H1033 C1021 0.929 . S
H1034 C1022 0.960 . S
H1035 C1022 0.962 . S
H1036 C1022 0.960 . S
H1037 C1023 0.961 . S
H1038 C1023 0.961 . S
H1039 C1023 0.961 . S
H1040 C1024 0.931 . S
H1041 C1029 0.930 . S
H1042 C1030 0.956 . S
H1043 C1030 0.961 . S
H1044 C1030 0.961 . S
H1045 C1031 0.958 . S
H1046 C1031 0.961 . S
H1047 C1031 0.960 . S
C1048 C1049 1.391 . S
C1048 C1050 1.394 . S
C1048 H1064 0.931 . S
C1049 C1048 1.391 . S
C1049 C1053 1.376 . S
C1050 C1048 1.394 . S
C1050 C1051 1.369 . S
C1050 C1054 1.531 . S
C1051 C1050 1.369 . S
C1051 C1052 1.410 . S
C1051 C1059 1.503 . S
C1052 C1051 1.410 . S
C1052 C1053 1.392 . S
C1052 C1055 1.511 . S
C1053 C1049 1.376 . S
C1053 C1052 1.392 . S
C1053 H1065 0.929 . S
C1054 C1050 1.531 . S
C1054 H1066 0.960 . S
C1054 H1067 0.962 . S
C1054 H1068 0.960 . S
C1055 C1052 1.511 . S
C1055 H1069 0.961 . S
C1055 H1070 0.961 . S
C1055 H1071 0.961 . S
C1056 C1057 1.370 . S
C1056 C1058 1.363 . S
C1056 H1072 0.931 . S
C1057 C1056 1.370 . S
C1057 C1061 1.408 . S
C1058 C1056 1.363 . S
C1058 C1059 1.370 . S
C1058 C1062 1.524 . S
C1059 C1051 1.503 . S
C1059 C1058 1.370 . S
C1059 C1060 1.403 . S
C1060 C1059 1.403 . S
C1060 C1061 1.404 . S
C1060 C1063 1.539 . S
C1061 C1057 1.408 . S
C1061 C1060 1.404 . S
C1061 H1073 0.930 . S
C1062 C1058 1.524 . S
C1062 H1074 0.956 . S
C1062 H1075 0.961 . S
C1062 H1076 0.961 . S
C1063 C1060 1.539 . S
C1063 H1077 0.958 . S
C1063 H1078 0.961 . S
C1063 H1079 0.960 . S
H1064 C1048 0.931 . S
H1065 C1053 0.929 . S
H1066 C1054 0.960 . S
H1067 C1054 0.962 . S
H1068 C1054 0.960 . S
H1069 C1055 0.961 . S
H1070 C1055 0.961 . S
H1071 C1055 0.961 . S
H1072 C1056 0.931 . S
H1073 C1061 0.930 . S
H1074 C1062 0.956 . S
H1075 C1062 0.961 . S
H1076 C1062 0.961 . S
H1077 C1063 0.958 . S
H1078 C1063 0.961 . S
H1079 C1063 0.960 . S
C1080 C1081 1.391 . S
C1080 C1082 1.394 . S
C1080 H1096 0.931 . S
C1081 C1080 1.391 . S
C1081 C1085 1.376 . S
C1082 C1080 1.394 . S
C1082 C1083 1.369 . S
C1082 C1086 1.531 . S
C1083 C1082 1.369 . S
C1083 C1084 1.410 . S
C1083 C1091 1.503 . S
C1084 C1083 1.410 . S
C1084 C1085 1.392 . S
C1084 C1087 1.511 . S
C1085 C1081 1.376 . S
C1085 C1084 1.392 . S
C1085 H1097 0.929 . S
C1086 C1082 1.531 . S
C1086 H1098 0.960 . S
C1086 H1099 0.962 . S
C1086 H1100 0.960 . S
C1087 C1084 1.511 . S
C1087 H1101 0.961 . S
C1087 H1102 0.961 . S
C1087 H1103 0.961 . S
C1088 C1089 1.370 . S
C1088 C1090 1.363 . S
C1088 H1104 0.931 . S
C1089 C1088 1.370 . S
C1089 C1093 1.408 . S
C1090 C1088 1.363 . S
C1090 C1091 1.370 . S
C1090 C1094 1.524 . S
C1091 C1083 1.503 . S
C1091 C1090 1.370 . S
C1091 C1092 1.403 . S
C1092 C1091 1.403 . S
C1092 C1093 1.404 . S
C1092 C1095 1.539 . S
C1093 C1089 1.408 . S
C1093 C1092 1.404 . S
C1093 H1105 0.930 . S
C1094 C1090 1.524 . S
C1094 H1106 0.956 . S
C1094 H1107 0.961 . S
C1094 H1108 0.961 . S
C1095 C1092 1.539 . S
C1095 H1109 0.958 . S
C1095 H1110 0.961 . S
C1095 H1111 0.960 . S
H1096 C1080 0.931 . S
H1097 C1085 0.929 . S
H1098 C1086 0.960 . S
H1099 C1086 0.962 . S
H1100 C1086 0.960 . S
H1101 C1087 0.961 . S
H1102 C1087 0.961 . S
H1103 C1087 0.961 . S
H1104 C1088 0.931 . S
H1105 C1093 0.930 . S
H1106 C1094 0.956 . S
H1107 C1094 0.961 . S
H1108 C1094 0.961 . S
H1109 C1095 0.958 . S
H1110 C1095 0.961 . S
H1111 C1095 0.960 . S
C1112 C1113 1.391 . S
C1112 C1114 1.394 . S
C1112 H1128 0.931 . S
C1113 C1112 1.391 . S
C1113 C1117 1.376 . S
C1114 C1112 1.394 . S
C1114 C1115 1.369 . S
C1114 C1118 1.531 . S
C1115 C1114 1.369 . S
C1115 C1116 1.410 . S
C1115 C1123 1.503 . S
C1116 C1115 1.410 . S
C1116 C1117 1.392 . S
C1116 C1119 1.511 . S
C1117 C1113 1.376 . S
C1117 C1116 1.392 . S
C1117 H1129 0.929 . S
C1118 C1114 1.531 . S
C1118 H1130 0.960 . S
C1118 H1131 0.962 . S
C1118 H1132 0.960 . S
C1119 C1116 1.511 . S
C1119 H1133 0.961 . S
C1119 H1134 0.961 . S
C1119 H1135 0.961 . S
C1120 C1121 1.370 . S
C1120 C1122 1.363 . S
C1120 H1136 0.931 . S
C1121 C1120 1.370 . S
C1121 C1125 1.408 . S
C1122 C1120 1.363 . S
C1122 C1123 1.370 . S
C1122 C1126 1.524 . S
C1123 C1115 1.503 . S
C1123 C1122 1.370 . S
C1123 C1124 1.403 . S
C1124 C1123 1.403 . S
C1124 C1125 1.404 . S
C1124 C1127 1.539 . S
C1125 C1121 1.408 . S
C1125 C1124 1.404 . S
C1125 H1137 0.930 . S
C1126 C1122 1.524 . S
C1126 H1138 0.956 . S
C1126 H1139 0.961 . S
C1126 H1140 0.961 . S
C1127 C1124 1.539 . S
C1127 H1141 0.958 . S
C1127 H1142 0.961 . S
C1127 H1143 0.960 . S
H1128 C1112 0.931 . S
H1129 C1117 0.929 . S
H1130 C1118 0.960 . S
H1131 C1118 0.962 . S
H1132 C1118 0.960 . S
H1133 C1119 0.961 . S
H1134 C1119 0.961 . S
H1135 C1119 0.961 . S
H1136 C1120 0.931 . S
H1137 C1125 0.930 . S
H1138 C1126 0.956 . S
H1139 C1126 0.961 . S
H1140 C1126 0.961 . S
H1141 C1127 0.958 . S
H1142 C1127 0.961 . S
H1143 C1127 0.960 . S
C1144 C1145 1.391 . S
C1144 C1146 1.394 . S
C1144 H1160 0.931 . S
C1145 C1144 1.391 . S
C1145 C1149 1.376 . S
C1146 C1144 1.394 . S
C1146 C1147 1.369 . S
C1146 C1150 1.531 . S
C1147 C1146 1.369 . S
C1147 C1148 1.410 . S
C1147 C1155 1.503 . S
C1148 C1147 1.410 . S
C1148 C1149 1.392 . S
C1148 C1151 1.511 . S
C1149 C1145 1.376 . S
C1149 C1148 1.392 . S
C1149 H1161 0.929 . S
C1150 C1146 1.531 . S
C1150 H1162 0.960 . S
C1150 H1163 0.962 . S
C1150 H1164 0.960 . S
C1151 C1148 1.511 . S
C1151 H1165 0.961 . S
C1151 H1166 0.961 . S
C1151 H1167 0.961 . S
C1152 C1153 1.370 . S
C1152 C1154 1.363 . S
C1152 H1168 0.931 . S
C1153 C1152 1.370 . S
C1153 C1157 1.408 . S
C1154 C1152 1.363 . S
C1154 C1155 1.370 . S
C1154 C1158 1.524 . S
C1155 C1147 1.503 . S
C1155 C1154 1.370 . S
C1155 C1156 1.403 . S
C1156 C1155 1.403 . S
C1156 C1157 1.404 . S
C1156 C1159 1.539 . S
C1157 C1153 1.408 . S
C1157 C1156 1.404 . S
C1157 H1169 0.930 . S
C1158 C1154 1.524 . S
C1158 H1170 0.956 . S
C1158 H1171 0.961 . S
C1158 H1172 0.961 . S
C1159 C1156 1.539 . S
C1159 H1173 0.958 . S
C1159 H1174 0.961 . S
C1159 H1175 0.960 . S
H1160 C1144 0.931 . S
H1161 C1149 0.929 . S
H1162 C1150 0.960 . S
H1163 C1150 0.962 . S
H1164 C1150 0.960 . S
H1165 C1151 0.961 . S
H1166 C1151 0.961 . S
H1167 C1151 0.961 . S
H1168 C1152 0.931 . S
H1169 C1157 0.930 . S
H1170 C1158 0.956 . S
H1171 C1158 0.961 . S
H1172 C1158 0.961 . S
H1173 C1159 0.958 . S
H1174 C1159 0.961 . S
H1175 C1159 0.960 . S
C1176 C1177 1.391 . S
C1176 C1178 1.394 . S
C1176 H1192 0.931 . S
C1177 C1176 1.391 . S
C1177 C1181 1.376 . S
C1178 C1176 1.394 . S
C1178 C1179 1.369 . S
C1178 C1182 1.531 . S
C1179 C1178 1.369 . S
C1179 C1180 1.410 . S
C1179 C1187 1.503 . S
C1180 C1179 1.410 . S
C1180 C1181 1.392 . S
C1180 C1183 1.511 . S
C1181 C1177 1.376 . S
C1181 C1180 1.392 . S
C1181 H1193 0.929 . S
C1182 C1178 1.531 . S
C1182 H1194 0.960 . S
C1182 H1195 0.962 . S
C1182 H1196 0.960 . S
C1183 C1180 1.511 . S
C1183 H1197 0.961 . S
C1183 H1198 0.961 . S
C1183 H1199 0.961 . S
C1184 C1185 1.370 . S
C1184 C1186 1.363 . S
C1184 H1200 0.931 . S
C1185 C1184 1.370 . S
C1185 C1189 1.408 . S
C1186 C1184 1.363 . S
C1186 C1187 1.370 . S
C1186 C1190 1.524 . S
C1187 C1179 1.503 . S
C1187 C1186 1.370 . S
C1187 C1188 1.403 . S
C1188 C1187 1.403 . S
C1188 C1189 1.404 . S
C1188 C1191 1.539 . S
C1189 C1185 1.408 . S
C1189 C1188 1.404 . S
C1189 H1201 0.930 . S
C1190 C1186 1.524 . S
C1190 H1202 0.956 . S
C1190 H1203 0.961 . S
C1190 H1204 0.961 . S
C1191 C1188 1.539 . S
C1191 H1205 0.958 . S
C1191 H1206 0.961 . S
C1191 H1207 0.960 . S
H1192 C1176 0.931 . S
H1193 C1181 0.929 . S
H1194 C1182 0.960 . S
H1195 C1182 0.962 . S
H1196 C1182 0.960 . S
H1197 C1183 0.961 . S
H1198 C1183 0.961 . S
H1199 C1183 0.961 . S
H1200 C1184 0.931 . S
H1201 C1189 0.930 . S
H1202 C1190 0.956 . S
H1203 C1190 0.961 . S
H1204 C1190 0.961 . S
H1205 C1191 0.958 . S
H1206 C1191 0.961 . S
H1207 C1191 0.960 . S
C1208 C1209 1.391 . S
C1208 C1210 1.394 . S
C1208 H1224 0.931 . S
C1209 C1208 1.391 . S
C1209 C1213 1.376 . S
C1210 C1208 1.394 . S
C1210 C1211 1.369 . S
C1210 C1214 1.531 . S
C1211 C1210 1.369 . S
C1211 C1212 1.410 . S
C1211 C1219 1.503 . S
C1212 C1211 1.410 . S
C1212 C1213 1.392 . S
C1212 C1215 1.511 . S
C1213 C1209 1.376 . S
C1213 C1212 1.392 . S
C1213 H1225 0.929 . S
C1214 C1210 1.531 . S
C1214 H1226 0.960 . S
C1214 H1227 0.962 . S
C1214 H1228 0.960 . S
C1215 C1212 1.511 . S
C1215 H1229 0.961 . S
C1215 H1230 0.961 . S
C1215 H1231 0.961 . S
C1216 C1217 1.370 . S
C1216 C1218 1.363 . S
C1216 H1232 0.931 . S
C1217 C1216 1.370 . S
C1217 C1221 1.408 . S
C1218 C1216 1.363 . S
C1218 C1219 1.370 . S
C1218 C1222 1.524 . S
C1219 C1211 1.503 . S
C1219 C1218 1.370 . S
C1219 C1220 1.403 . S
C1220 C1219 1.403 . S
C1220 C1221 1.404 . S
C1220 C1223 1.539 . S
C1221 C1217 1.408 . S
C1221 C1220 1.404 . S
C1221 H1233 0.930 . S
C1222 C1218 1.524 . S
C1222 H1234 0.956 . S
C1222 H1235 0.961 . S
C1222 H1236 0.961 . S
C1223 C1220 1.539 . S
C1223 H1237 0.958 . S
C1223 H1238 0.961 . S
C1223 H1239 0.960 . S
H1224 C1208 0.931 . S
H1225 C1213 0.929 . S
H1226 C1214 0.960 . S
H1227 C1214 0.962 . S
H1228 C1214 0.960 . S
H1229 C1215 0.961 . S
H1230 C1215 0.961 . S
H1231 C1215 0.961 . S
H1232 C1216 0.931 . S
H1233 C1221 0.930 . S
H1234 C1222 0.956 . S
H1235 C1222 0.961 . S
H1236 C1222 0.961 . S
H1237 C1223 0.958 . S
H1238 C1223 0.961 . S
H1239 C1223 0.960 . S
C1240 C1241 1.391 . S
C1240 C1242 1.394 . S
C1240 H1256 0.931 . S
C1241 C1240 1.391 . S
C1241 C1245 1.376 . S
C1242 C1240 1.394 . S
C1242 C1243 1.369 . S
C1242 C1246 1.531 . S
C1243 C1242 1.369 . S
C1243 C1244 1.410 . S
C1243 C1251 1.503 . S
C1244 C1243 1.410 . S
C1244 C1245 1.392 . S
C1244 C1247 1.511 . S
C1245 C1241 1.376 . S
C1245 C1244 1.392 . S
C1245 H1257 0.929 . S
C1246 C1242 1.531 . S
C1246 H1258 0.960 . S
C1246 H1259 0.962 . S
C1246 H1260 0.960 . S
C1247 C1244 1.511 . S
C1247 H1261 0.961 . S
C1247 H1262 0.961 . S
C1247 H1263 0.961 . S
C1248 C1249 1.370 . S
C1248 C1250 1.363 . S
C1248 H1264 0.931 . S
C1249 C1248 1.370 . S
C1249 C1253 1.408 . S
C1250 C1248 1.363 . S
C1250 C1251 1.370 . S
C1250 C1254 1.524 . S
C1251 C1243 1.503 . S
C1251 C1250 1.370 . S
C1251 C1252 1.403 . S
C1252 C1251 1.403 . S
C1252 C1253 1.404 . S
C1252 C1255 1.539 . S
C1253 C1249 1.408 . S
C1253 C1252 1.404 . S
C1253 H1265 0.930 . S
C1254 C1250 1.524 . S
C1254 H1266 0.956 . S
C1254 H1267 0.961 . S
C1254 H1268 0.961 . S
C1255 C1252 1.539 . S
C1255 H1269 0.958 . S
C1255 H1270 0.961 . S
C1255 H1271 0.960 . S
H1256 C1240 0.931 . S
H1257 C1245 0.929 . S
H1258 C1246 0.960 . S
H1259 C1246 0.962 . S
H1260 C1246 0.960 . S
H1261 C1247 0.961 . S
H1262 C1247 0.961 . S
H1263 C1247 0.961 . S
H1264 C1248 0.931 . S
H1265 C1253 0.930 . S
H1266 C1254 0.956 . S
H1267 C1254 0.961 . S
H1268 C1254 0.961 . S
H1269 C1255 0.958 . S
H1270 C1255 0.961 . S
H1271 C1255 0.960 . S
C1272 C1273 1.391 . S
C1272 C1274 1.394 . S
C1272 H1288 0.931 . S
C1273 C1272 1.391 . S
C1273 C1277 1.376 . S
C1274 C1272 1.394 . S
C1274 C1275 1.369 . S
C1274 C1278 1.531 . S
C1275 C1274 1.369 . S
C1275 C1276 1.410 . S
C1275 C1283 1.503 . S
C1276 C1275 1.410 . S
C1276 C1277 1.392 . S
C1276 C1279 1.511 . S
C1277 C1273 1.376 . S
C1277 C1276 1.392 . S
C1277 H1289 0.929 . S
C1278 C1274 1.531 . S
C1278 H1290 0.960 . S
C1278 H1291 0.962 . S
C1278 H1292 0.960 . S
C1279 C1276 1.511 . S
C1279 H1293 0.961 . S
C1279 H1294 0.961 . S
C1279 H1295 0.961 . S
C1280 C1281 1.370 . S
C1280 C1282 1.363 . S
C1280 H1296 0.931 . S
C1281 C1280 1.370 . S
C1281 C1285 1.408 . S
C1282 C1280 1.363 . S
C1282 C1283 1.370 . S
C1282 C1286 1.524 . S
C1283 C1275 1.503 . S
C1283 C1282 1.370 . S
C1283 C1284 1.403 . S
C1284 C1283 1.403 . S
C1284 C1285 1.404 . S
C1284 C1287 1.539 . S
C1285 C1281 1.408 . S
C1285 C1284 1.404 . S
C1285 H1297 0.930 . S
C1286 C1282 1.524 . S
C1286 H1298 0.956 . S
C1286 H1299 0.961 . S
C1286 H1300 0.961 . S
C1287 C1284 1.539 . S
C1287 H1301 0.958 . S
C1287 H1302 0.961 . S
C1287 H1303 0.960 . S
H1288 C1272 0.931 . S
H1289 C1277 0.929 . S
H1290 C1278 0.960 . S
H1291 C1278 0.962 . S
H1292 C1278 0.960 . S
H1293 C1279 0.961 . S
H1294 C1279 0.961 . S
H1295 C1279 0.961 . S
H1296 C1280 0.931 . S
H1297 C1285 0.930 . S
H1298 C1286 0.956 . S
H1299 C1286 0.961 . S
H1300 C1286 0.961 . S
H1301 C1287 0.958 . S
H1302 C1287 0.961 . S
H1303 C1287 0.960 . S
C289 C169 1.510 . S
C281 C12 1.379 . S
C321 C195 1.512 . S
C313 C33 1.372 . S
C353 C209 1.506 . S
C345 C51 1.405 . S
C385 C211 1.508 . S
C377 C75 1.385 . S
C409 C103 1.447 . S
C417 C208 1.499 . S
C449 C210 1.508 . S
C441 C122 1.431 . S
C481 C168 1.492 . S
C473 C145 1.438 . S
C513 C194 1.498 . S
C505 C166 1.405 . S
C545 C196 1.512 . S
C537 C164 1.390 . S
C577 C222 1.517 . S
C569 C101 1.368 . S
C609 C180 1.503 . S
C601 C124 1.385 . S
C641 C182 1.509 . S
C633 C143 1.364 . S
C673 C181 1.504 . S
C665 C30 1.380 . S
C705 C183 1.507 . S
C697 C54 1.432 . S
C737 C197 1.502 . S
C729 C72 1.372 . S
C769 C223 1.504 . S
C761 C9 1.452 . S
C801 C225 1.505 . S
C793 C159 1.434 . S
C825 C96 1.363 . S
C833 C251 1.513 . S
C857 C114 1.417 . S
C865 C264 1.502 . S
C889 C138 1.413 . S
C897 C267 1.507 . S
C921 C40 1.410 . S
C929 C265 1.504 . S
C953 C59 1.436 . S
C961 C266 1.507 . S
C985 C82 1.424 . S
C993 C224 1.493 . S
C1025 C250 1.496 . S
C1017 C19 1.454 . S
C1057 C253 1.512 . S
C1049 C17 1.375 . S
C1081 C38 1.440 . S
C1089 C278 1.512 . S
C1113 C61 1.387 . S
C1121 C236 1.501 . S
C1145 C80 1.444 . S
C1153 C238 1.503 . S
C1185 C237 1.507 . S
C1177 C93 1.406 . S
C1217 C239 1.506 . S
C1209 C117 1.442 . S
C1241 C135 1.389 . S
C1249 C252 1.505 . S
C1281 C279 1.509 . S
C1273 C156 1.420 . S
