# Generated by pormake.
# Topology pyr, (3,6)-cn, num edge types: 1
# Building blocks:
#     Node 0, Type 0, BuildingBlock: BELTOD_clean_linker_0, # of connection points: 3
#     Node 1, Type 0, BuildingBlock: BELTOD_clean_linker_0, # of connection points: 3
#     Node 2, Type 0, BuildingBlock: BELTOD_clean_linker_0, # of connection points: 3
#     Node 3, Type 0, BuildingBlock: BELTOD_clean_linker_0, # of connection points: 3
#     Node 4, Type 0, BuildingBlock: BELTOD_clean_linker_0, # of connection points: 3
#     Node 5, Type 0, BuildingBlock: BELTOD_clean_linker_0, # of connection points: 3
#     Node 6, Type 0, BuildingBlock: BELTOD_clean_linker_0, # of connection points: 3
#     Node 7, Type 0, BuildingBlock: BELTOD_clean_linker_0, # of connection points: 3
#     Node 8, Type 1, BuildingBlock: BETFEN_clean_sbu_0, # of connection points: 6
#     Node 9, Type 1, BuildingBlock: BETFEN_clean_sbu_0, # of connection points: 6
#     Node 10, Type 1, BuildingBlock: BETFEN_clean_sbu_0, # of connection points: 6
#     Node 11, Type 1, BuildingBlock: BETFEN_clean_sbu_0, # of connection points: 6
#     Edge 12, Type (0, 1), BuildingBlock: XUDNAN_clean_linker_2, # of connection points: 2
#     Edge 13, Type (0, 1), BuildingBlock: XUDNAN_clean_linker_2, # of connection points: 2
#     Edge 14, Type (0, 1), BuildingBlock: XUDNAN_clean_linker_2, # of connection points: 2
#     Edge 15, Type (0, 1), BuildingBlock: XUDNAN_clean_linker_2, # of connection points: 2
#     Edge 16, Type (0, 1), BuildingBlock: XUDNAN_clean_linker_2, # of connection points: 2
#     Edge 17, Type (0, 1), BuildingBlock: XUDNAN_clean_linker_2, # of connection points: 2
#     Edge 18, Type (0, 1), BuildingBlock: XUDNAN_clean_linker_2, # of connection points: 2
#     Edge 19, Type (0, 1), BuildingBlock: XUDNAN_clean_linker_2, # of connection points: 2
#     Edge 20, Type (0, 1), BuildingBlock: XUDNAN_clean_linker_2, # of connection points: 2
#     Edge 21, Type (0, 1), BuildingBlock: XUDNAN_clean_linker_2, # of connection points: 2
#     Edge 22, Type (0, 1), BuildingBlock: XUDNAN_clean_linker_2, # of connection points: 2
#     Edge 23, Type (0, 1), BuildingBlock: XUDNAN_clean_linker_2, # of connection points: 2
#     Edge 24, Type (0, 1), BuildingBlock: XUDNAN_clean_linker_2, # of connection points: 2
#     Edge 25, Type (0, 1), BuildingBlock: XUDNAN_clean_linker_2, # of connection points: 2
#     Edge 26, Type (0, 1), BuildingBlock: XUDNAN_clean_linker_2, # of connection points: 2
#     Edge 27, Type (0, 1), BuildingBlock: XUDNAN_clean_linker_2, # of connection points: 2
#     Edge 28, Type (0, 1), BuildingBlock: XUDNAN_clean_linker_2, # of connection points: 2
#     Edge 29, Type (0, 1), BuildingBlock: XUDNAN_clean_linker_2, # of connection points: 2
#     Edge 30, Type (0, 1), BuildingBlock: XUDNAN_clean_linker_2, # of connection points: 2
#     Edge 31, Type (0, 1), BuildingBlock: XUDNAN_clean_linker_2, # of connection points: 2
#     Edge 32, Type (0, 1), BuildingBlock: XUDNAN_clean_linker_2, # of connection points: 2
#     Edge 33, Type (0, 1), BuildingBlock: XUDNAN_clean_linker_2, # of connection points: 2
#     Edge 34, Type (0, 1), BuildingBlock: XUDNAN_clean_linker_2, # of connection points: 2
#     Edge 35, Type (0, 1), BuildingBlock: XUDNAN_clean_linker_2, # of connection points: 2
# Relax obj value: 0.142
# Max RMSD: 0.243
# Mean RMSD: 0.116
data_MOF--net-pyr--node1-BETFEN_clean_sbu_0--node2-BELTOD_clean_linker_0--edge1-XUDNAN_clean_linker_2
_symmetry_space_group_name_H-M    P1
_symmetry_Int_Tables_number       1
_symmetry_cell_setting            triclinic
loop_
_symmetry_equiv_pos_as_xyz
'x, y, z'
_cell_length_a     41.41461
_cell_length_b     45.895412
_cell_length_c     42.960101
_cell_angle_alpha  91.148814
_cell_angle_beta   99.299587
_cell_angle_gamma 108.17204
loop_
_atom_site_label
_atom_site_type_symbol
_atom_site_fract_x
_atom_site_fract_y
_atom_site_fract_z
_atom_type_partial_charge
P0 P 0.41882 0.37577 0.32897 0.0
H1 H 0.48013 0.37733 0.30253 0.0
H2 H 0.49492 0.3382 0.2734 0.0
H3 H 0.39816 0.27099 0.28374 0.0
H4 H 0.3832 0.31015 0.31164 0.0
H5 H 0.40423 0.43371 0.33338 0.0
H6 H 0.37132 0.45812 0.29613 0.0
H7 H 0.35883 0.38689 0.22358 0.0
H8 H 0.39075 0.36232 0.26098 0.0
H9 H 0.42542 0.34795 0.38905 0.0
H10 H 0.34344 0.36112 0.32084 0.0
O11 O 0.45356 0.40023 0.3518 0.0
H12 H 0.38259 0.31599 0.418 0.0
H13 H 0.30083 0.32932 0.34938 0.0
C14 C 0.43097 0.34652 0.30984 0.0
C15 C 0.46234 0.35407 0.29873 0.0
C16 C 0.47075 0.33167 0.28216 0.0
C17 C 0.44772 0.30144 0.27625 0.0
C18 C 0.41631 0.2941 0.28751 0.0
C19 C 0.40791 0.31647 0.3039 0.0
C20 C 0.40029 0.39643 0.29991 0.0
C21 C 0.39498 0.42376 0.30925 0.0
C22 C 0.37623 0.4377 0.28791 0.0
C23 C 0.36232 0.42436 0.25691 0.0
C24 C 0.3688 0.39753 0.2474 0.0
C25 C 0.3874 0.38358 0.26875 0.0
C26 C 0.38772 0.3574 0.35316 0.0
C27 C 0.3983 0.34458 0.38074 0.0
C28 C 0.37381 0.32612 0.39707 0.0
C29 C 0.33833 0.32019 0.38599 0.0
C30 C 0.32795 0.33388 0.35885 0.0
C31 C 0.3524 0.35213 0.34247 0.0
P32 P 0.33512 0.87336 0.67658 0.0
H33 H 0.40432 0.88732 0.71302 0.0
H34 H 0.427 0.89362 0.76966 0.0
H35 H 0.32291 0.87314 0.78855 0.0
H36 H 0.30066 0.86408 0.73223 0.0
H37 H 0.37324 0.85957 0.62974 0.0
H38 H 0.38633 0.81332 0.6161 0.0
H39 H 0.31762 0.76246 0.67623 0.0
H40 H 0.30519 0.8094 0.69034 0.0
H41 H 0.3043 0.91516 0.70234 0.0
H42 H 0.27283 0.84014 0.63029 0.0
O43 O 0.36098 0.9027 0.66089 0.0
H44 H 0.24814 0.9229 0.68871 0.0
H45 H 0.21667 0.84842 0.61592 0.0
C46 C 0.35098 0.87659 0.71845 0.0
C47 C 0.38648 0.88404 0.72951 0.0
C48 C 0.3994 0.88782 0.76197 0.0
C49 C 0.377 0.88463 0.78403 0.0
C50 C 0.34117 0.87568 0.77261 0.0
C51 C 0.32831 0.87111 0.74017 0.0
C52 C 0.33834 0.83788 0.66113 0.0
C53 C 0.36039 0.83837 0.63949 0.0
C54 C 0.36773 0.81176 0.63156 0.0
C55 C 0.35318 0.78416 0.64521 0.0
C56 C 0.32959 0.78343 0.66563 0.0
C57 C 0.32226 0.81013 0.67353 0.0
C58 C 0.29234 0.87645 0.66802 0.0
C59 C 0.285 0.89989 0.68405 0.0
C60 C 0.25291 0.9043 0.67627 0.0
C61 C 0.22794 0.88597 0.65158 0.0
C62 C 0.23541 0.86266 0.63527 0.0
C63 C 0.26741 0.85787 0.64351 0.0
P64 P 0.65272 0.30945 0.7938 0.0
H65 H 0.69248 0.29093 0.84691 0.0
H66 H 0.74069 0.31907 0.88824 0.0
H67 H 0.7418 0.40433 0.84699 0.0
H68 H 0.69314 0.37603 0.8057 0.0
H69 H 0.60792 0.24498 0.78605 0.0
H70 H 0.58144 0.21154 0.8248 0.0
H71 H 0.60051 0.29112 0.88884 0.0
H72 H 0.62709 0.32448 0.84998 0.0
H73 H 0.68411 0.33321 0.74057 0.0
H74 H 0.59837 0.34033 0.78173 0.0
O75 O 0.6662 0.28422 0.7754 0.0
H76 H 0.67497 0.36913 0.70193 0.0
H77 H 0.58893 0.37689 0.74248 0.0
C78 C 0.68912 0.33128 0.82322 0.0
C79 C 0.70307 0.31569 0.84671 0.0
C80 C 0.73053 0.33181 0.87041 0.0
C81 C 0.74491 0.36394 0.87097 0.0
C82 C 0.73133 0.37956 0.84705 0.0
C83 C 0.70346 0.36337 0.82347 0.0
C84 C 0.62003 0.28731 0.81521 0.0
C85 C 0.60523 0.25542 0.8079 0.0
C86 C 0.59008 0.23621 0.83018 0.0
C87 C 0.58958 0.24855 0.86027 0.0
C88 C 0.6011 0.28079 0.86613 0.0
C89 C 0.61598 0.29998 0.84374 0.0
C90 C 0.64167 0.33369 0.76383 0.0
C91 C 0.66288 0.34217 0.741 0.0
C92 C 0.65778 0.36295 0.71897 0.0
C93 C 0.63132 0.37603 0.71914 0.0
C94 C 0.60938 0.36702 0.74159 0.0
C95 C 0.61476 0.3462 0.76403 0.0
P96 P 0.85157 0.67018 0.29188 0.0
H97 H 0.87104 0.73541 0.27825 0.0
H98 H 0.89636 0.78318 0.31189 0.0
H99 H 0.91522 0.73135 0.39181 0.0
H100 H 0.88862 0.68348 0.35801 0.0
H101 H 0.82966 0.61731 0.2452 0.0
H102 H 0.86048 0.59444 0.21282 0.0
H103 H 0.9575 0.6563 0.26251 0.0
H104 H 0.92641 0.6791 0.29464 0.0
H105 H 0.78608 0.6741 0.30478 0.0
H106 H 0.84998 0.61745 0.33179 0.0
O107 O 0.82765 0.68046 0.26169 0.0
H108 H 0.74452 0.64587 0.33643 0.0
H109 H 0.80886 0.5894 0.36469 0.0
C110 C 0.87743 0.70562 0.31557 0.0
C111 C 0.88099 0.73425 0.30293 0.0
C112 C 0.89573 0.76178 0.32231 0.0
C113 C 0.90753 0.76148 0.35493 0.0
C114 C 0.9057 0.73272 0.36707 0.0
C115 C 0.89081 0.70518 0.34765 0.0
C116 C 0.87555 0.6497 0.27286 0.0
C117 C 0.85762 0.62562 0.24954 0.0
C118 C 0.87533 0.61279 0.23065 0.0
C119 C 0.91166 0.62348 0.23468 0.0
C120 C 0.92959 0.64713 0.25871 0.0
C121 C 0.91179 0.6602 0.27734 0.0
C122 C 0.82085 0.64747 0.31514 0.0
C123 C 0.79114 0.65539 0.31746 0.0
C124 C 0.76745 0.63938 0.33606 0.0
C125 C 0.77292 0.61509 0.35339 0.0
C126 C 0.80317 0.60751 0.35137 0.0
C127 C 0.82689 0.62359 0.33257 0.0
P128 P 0.71388 0.74587 0.81457 0.0
H129 H 0.70848 0.78209 0.86841 0.0
H130 H 0.66682 0.80714 0.8778 0.0
H131 H 0.60246 0.76606 0.78847 0.0
H132 H 0.64424 0.73991 0.77956 0.0
H133 H 0.71483 0.72046 0.87549 0.0
H134 H 0.71606 0.67044 0.89222 0.0
H135 H 0.69451 0.63524 0.79438 0.0
H136 H 0.6932 0.68569 0.77779 0.0
H137 H 0.69256 0.78088 0.76247 0.0
H138 H 0.75894 0.72474 0.78103 0.0
O139 O 0.75037 0.76661 0.83817 0.0
H140 H 0.71154 0.79252 0.71217 0.0
H141 H 0.77906 0.73745 0.73087 0.0
C142 C 0.68011 0.76022 0.82268 0.0
C143 C 0.68528 0.77808 0.85094 0.0
C144 C 0.66124 0.79217 0.85644 0.0
C145 C 0.63157 0.78871 0.83371 0.0
C146 C 0.62532 0.76926 0.80619 0.0
C147 C 0.64916 0.75451 0.80106 0.0
C148 C 0.70515 0.70698 0.82548 0.0
C149 C 0.70947 0.70176 0.85764 0.0
C150 C 0.70983 0.67299 0.86716 0.0
C151 C 0.70584 0.64894 0.84459 0.0
C152 C 0.69816 0.65349 0.81229 0.0
C153 C 0.69759 0.68234 0.80279 0.0
C154 C 0.72304 0.75067 0.77503 0.0
C155 C 0.71011 0.76998 0.75532 0.0
C156 C 0.72121 0.77688 0.72655 0.0
C157 C 0.74637 0.76551 0.71752 0.0
C158 C 0.75933 0.74618 0.73719 0.0
C159 C 0.74769 0.7388 0.7657 0.0
P160 P 0.81457 0.2626 0.35799 0.0
H161 H 0.83338 0.31573 0.40389 0.0
H162 H 0.80099 0.33245 0.43955 0.0
H163 H 0.71676 0.24758 0.41416 0.0
H164 H 0.74943 0.23085 0.37877 0.0
H165 H 0.88874 0.27213 0.37155 0.0
H166 H 0.9222 0.23789 0.38682 0.0
H167 H 0.82797 0.1643 0.39111 0.0
H168 H 0.79474 0.19936 0.37702 0.0
H169 H 0.75443 0.27688 0.32607 0.0
H170 H 0.80513 0.20954 0.3133 0.0
O171 O 0.84084 0.29488 0.34706 0.0
H172 H 0.70864 0.25126 0.28172 0.0
H173 H 0.75889 0.18322 0.26968 0.0
C174 C 0.79343 0.27241 0.38817 0.0
C175 C 0.80817 0.30053 0.40637 0.0
C176 C 0.78971 0.31 0.42684 0.0
C177 C 0.75618 0.29147 0.42929 0.0
C178 C 0.74235 0.2625 0.41235 0.0
C179 C 0.76101 0.25291 0.3922 0.0
C180 C 0.83924 0.23812 0.37269 0.0
C181 C 0.87527 0.24873 0.37606 0.0
C182 C 0.89438 0.22898 0.38455 0.0
C183 C 0.87778 0.19808 0.38958 0.0
C184 C 0.84166 0.18793 0.38752 0.0
C185 C 0.82259 0.20788 0.37934 0.0
C186 C 0.78249 0.24448 0.32379 0.0
C187 C 0.75558 0.25645 0.31386 0.0
C188 C 0.72936 0.24171 0.28856 0.0
C189 C 0.72976 0.21486 0.2725 0.0
C190 C 0.75776 0.20384 0.28152 0.0
C191 C 0.78405 0.21868 0.30681 0.0
P192 P 0.42759 0.70117 0.20382 0.0
H193 H 0.40644 0.65123 0.15377 0.0
H194 H 0.35146 0.6246 0.11966 0.0
H195 H 0.30107 0.67468 0.17034 0.0
H196 H 0.35652 0.70174 0.20437 0.0
H197 H 0.48308 0.75573 0.23432 0.0
H198 H 0.50067 0.80944 0.22171 0.0
H199 H 0.40728 0.79036 0.15215 0.0
H200 H 0.39147 0.73679 0.1632 0.0
H201 H 0.38107 0.68355 0.25081 0.0
H202 H 0.48605 0.6903 0.24485 0.0
O203 O 0.45733 0.69325 0.18626 0.0
H204 H 0.38469 0.65589 0.29846 0.0
H205 H 0.48973 0.66237 0.29246 0.0
C206 C 0.3858 0.67879 0.18151 0.0
C207 C 0.38365 0.65643 0.15784 0.0
C208 C 0.35215 0.6412 0.13826 0.0
C209 C 0.32201 0.64777 0.14211 0.0
C210 C 0.32381 0.66899 0.16692 0.0
C211 C 0.35549 0.68443 0.18641 0.0
C212 C 0.43538 0.74208 0.20058 0.0
C213 C 0.46601 0.76331 0.21691 0.0
C214 C 0.47604 0.79419 0.20956 0.0
C215 C 0.45555 0.80466 0.18568 0.0
C216 C 0.42423 0.7834 0.17022 0.0
C217 C 0.41462 0.75252 0.17718 0.0
C218 C 0.43296 0.68846 0.24357 0.0
C219 C 0.40511 0.67958 0.25988 0.0
C220 C 0.40718 0.66357 0.28721 0.0
C221 C 0.43728 0.65626 0.29901 0.0
C222 C 0.46614 0.66751 0.28412 0.0
C223 C 0.46397 0.68344 0.25671 0.0
P224 P 0.20216 0.36732 0.72655 0.0
H225 H 0.23125 0.33191 0.68976 0.0
H226 H 0.20904 0.28277 0.65922 0.0
H227 H 0.10808 0.27035 0.68242 0.0
H228 H 0.13058 0.32134 0.71184 0.0
H229 H 0.26324 0.42185 0.74469 0.0
H230 H 0.30611 0.45263 0.71511 0.0
H231 H 0.24427 0.40354 0.62796 0.0
H232 H 0.20091 0.37348 0.65755 0.0
H233 H 0.16328 0.34408 0.7771 0.0
H234 H 0.18161 0.42395 0.72327 0.0
O235 O 0.23008 0.3602 0.75557 0.0
H236 H 0.13352 0.36658 0.81095 0.0
H237 H 0.152 0.44668 0.75698 0.0
C238 C 0.18263 0.33076 0.70284 0.0
C239 C 0.20415 0.31896 0.68798 0.0
C240 C 0.19138 0.29037 0.67075 0.0
C241 C 0.15671 0.27188 0.66856 0.0
C242 C 0.13485 0.28383 0.68329 0.0
C243 C 0.14772 0.313 0.70031 0.0
C244 C 0.22893 0.39492 0.70359 0.0
C245 C 0.25844 0.41814 0.71916 0.0
C246 C 0.28309 0.43566 0.70217 0.0
C247 C 0.27902 0.4302 0.66914 0.0
C248 C 0.2486 0.40794 0.65341 0.0
C249 C 0.22362 0.39084 0.67038 0.0
C250 C 0.17439 0.38199 0.74718 0.0
C251 C 0.1604 0.36627 0.77217 0.0
C252 C 0.14374 0.37941 0.79189 0.0
C253 C 0.14032 0.40867 0.78708 0.0
C254 C 0.15368 0.42402 0.76144 0.0
C255 C 0.17062 0.41095 0.74191 0.0
Pr256 Pr 0.99895 1.0098 0.52761 0.0
Pr257 Pr 0.05659 0.02425 0.49284 0.0
C258 C 0.94223 0.98569 0.55339 0.0
C259 C 0.92097 0.95687 0.56378 0.0
C260 C 0.88576 0.95232 0.56261 0.0
C261 C 0.86451 0.92507 0.57183 0.0
C262 C 0.87811 0.90181 0.58242 0.0
C263 C 0.91351 0.90638 0.58348 0.0
C264 C 0.9348 0.9337 0.57403 0.0
C265 C 0.04355 0.07043 0.5446 0.0
C266 C 0.0606 0.97898 0.55061 0.0
C267 C 0.11749 0.0465 0.47282 0.0
C268 C 0.13951 0.07746 0.46808 0.0
C269 C 0.16243 0.08131 0.4467 0.0
C270 C 0.18225 0.11082 0.44095 0.0
C271 C 0.17946 0.13699 0.45654 0.0
C272 C 0.15663 0.1329 0.47825 0.0
C273 C 0.13673 0.10341 0.48387 0.0
C274 C 1.00296 0.97048 0.46589 0.0
C275 C 0.99619 0.05256 0.4692 0.0
O276 O 0.94148 0.98674 0.52289 0.0
O277 O 0.97287 0.99918 0.57031 0.0
O278 O 0.05293 0.04715 0.54026 0.0
O279 O 1.01022 0.06257 0.54056 0.0
O280 O 0.07431 0.99101 0.52636 0.0
O281 O 0.03228 0.98327 0.55723 0.0
O282 O 0.11496 0.04053 0.50209 0.0
O283 O 0.08792 0.03636 0.45355 0.0
O284 O 1.014 0.9777 0.49503 0.0
O285 O 1.02002 0.99134 0.44943 0.0
O286 O 0.97696 0.02856 0.48136 0.0
O287 O 0.02995 0.06005 0.47555 0.0
H288 H 0.8747 0.96997 0.55466 0.0
H289 H 0.83752 0.92249 0.57129 0.0
H290 H 0.92463 0.88878 0.59142 0.0
H291 H 0.96194 0.93676 0.57474 0.0
H292 H 0.16462 0.06151 0.43411 0.0
H293 H 0.19913 0.11312 0.42371 0.0
H294 H 0.15415 0.15249 0.49096 0.0
H295 H 0.11897 0.10086 0.50036 0.0
Pr296 Pr 0.49224 0.04273 0.04847 0.0
Pr297 Pr 0.55623 0.03698 0.03489 0.0
C298 C 0.44247 0.05143 0.07707 0.0
C299 C 0.44321 0.07534 0.10104 0.0
C300 C 0.42662 0.09719 0.0927 0.0
C301 C 0.43088 0.12218 0.1139 0.0
C302 C 0.45175 0.12573 0.14391 0.0
C303 C 0.46714 0.10314 0.15269 0.0
C304 C 0.46293 0.07823 0.13152 0.0
C305 C 0.52116 0.08446 1.00562 0.0
C306 C 0.56683 0.08325 0.09452 0.0
C307 C 0.60379 0.02805 1.00364 0.0
C308 C 0.59911 1.00312 0.97967 0.0
C309 C 0.57214 0.97534 0.97901 0.0
C310 C 0.56608 0.95198 0.95546 0.0
C311 C 0.58672 0.95603 0.93199 0.0
C312 C 0.61322 0.98413 0.93222 0.0
C313 C 0.61937 1.00754 0.95595 0.0
C314 C 0.53022 0.99715 0.07971 0.0
C315 C 0.48169 0.99512 0.99048 0.0
O316 O 0.45915 0.03231 0.08637 0.0
O317 O 0.44699 0.06054 0.049 0.0
O318 O 0.53728 0.07874 0.03099 0.0
O319 O 0.48882 0.06776 1.00096 0.0
O320 O 0.58296 0.07842 0.07194 0.0
O321 O 0.53345 0.06907 0.0927 0.0
O322 O 0.58686 0.04711 0.99503 0.0
O323 O 0.60143 1.01981 0.03238 0.0
O324 O 0.51222 1.00112 0.05437 0.0
O325 O 0.56234 1.01392 0.08245 0.0
O326 O 0.46609 0.99973 1.01345 0.0
O327 O 0.51444 1.01062 0.9911 0.0
H328 H 0.41129 0.09551 0.06937 0.0
H329 H 0.41881 0.13927 0.10634 0.0
H330 H 0.48283 0.10488 0.17584 0.0
H331 H 0.47603 0.06178 0.13884 0.0
H332 H 0.55565 0.97172 0.99671 0.0
H333 H 0.54525 0.93071 0.9556 0.0
H334 H 0.62968 0.9877 0.91451 0.0
H335 H 0.63987 0.02904 0.95579 0.0
Pr336 Pr 0.54394 0.55411 0.52948 0.0
Pr337 Pr 0.51668 0.48433 0.50186 0.0
C338 C 0.54974 0.61148 0.55016 0.0
C339 C 0.52667 0.62646 0.56163 0.0
C340 C 0.53717 0.64325 0.59116 0.0
C341 C 0.51496 0.65603 0.60347 0.0
C342 C 0.48188 0.65246 0.58632 0.0
C343 C 0.47154 0.63604 0.55651 0.0
C344 C 0.49364 0.62296 0.54434 0.0
C345 C 0.57617 0.51507 0.5611 0.0
C346 C 0.469 0.50539 0.54676 0.0
C347 C 0.5133 0.42502 0.49422 0.0
C348 C 0.53926 0.40913 0.49746 0.0
C349 C 0.53008 0.37837 0.48593 0.0
C350 C 0.55538 0.36403 0.48635 0.0
C351 C 0.59034 0.38031 0.49817 0.0
C352 C 0.59916 0.41095 0.5106 0.0
C353 C 0.57384 0.42522 0.51023 0.0
C354 C 0.48611 0.51874 0.46038 0.0
C355 C 0.58729 0.53465 0.48043 0.0
O356 O 0.54302 0.60217 0.52007 0.0
O357 O 0.5588 0.592 0.56864 0.0
O358 O 0.54434 0.50859 0.55052 0.0
O359 O 0.59279 0.54323 0.55604 0.0
O360 O 0.473 0.48185 0.53131 0.0
O361 O 0.49083 0.53375 0.54768 0.0
O362 O 0.50912 0.4373 0.52042 0.0
O363 O 0.5141 0.44298 0.4709 0.0
O364 O 0.50717 0.52852 0.48577 0.0
O365 O 0.47812 0.48901 0.45652 0.0
O366 O 0.57819 0.5578 0.4906 0.0
O367 O 0.57168 0.50592 0.48676 0.0
H368 H 0.56248 0.64617 0.60492 0.0
H369 H 0.52376 0.66891 0.62633 0.0
H370 H 0.44609 0.63278 0.54291 0.0
H371 H 0.48468 0.60982 0.52162 0.0
H372 H 0.50347 0.36565 0.47601 0.0
H373 H 0.54761 0.34028 0.47705 0.0
H374 H 0.62581 0.42433 0.5195 0.0
H375 H 0.58137 0.4491 0.5191 0.0
Pr376 Pr 1.01635 0.53633 0.9947 0.0
Pr377 Pr 0.03784 0.4922 0.03216 0.0
C378 C 0.98346 0.57265 0.96423 0.0
C379 C 0.94743 0.57007 0.95231 0.0
C380 C 0.94007 0.59121 0.93167 0.0
C381 C 0.90589 0.58881 0.91971 0.0
C382 C 0.87844 0.56512 0.92815 0.0
C383 C 0.88602 0.54398 0.94902 0.0
C384 C 0.92031 0.5463 0.96085 0.0
C385 C 0.08759 0.55737 1.01848 0.0
C386 C 1.00793 0.53684 0.06949 0.0
C387 C 0.07075 0.45614 0.06324 0.0
C388 C 0.10418 0.45939 0.08327 0.0
C389 C 0.10567 0.4397 0.10755 0.0
C390 C 0.13732 0.4415 0.12605 0.0
C391 C 0.16813 0.46294 0.12045 0.0
C392 C 0.16649 0.48292 0.09629 0.0
C393 C 0.13474 0.48132 0.07798 0.0
C394 C 0.96671 0.47076 1.0076 0.0
C395 C 0.04619 0.49188 0.95627 0.0
O396 O 0.99562 0.55428 0.94973 0.0
O397 O 0.99268 0.5746 0.99491 0.0
O398 O 0.06471 0.54423 0.03415 0.0
O399 O 0.07407 0.56125 0.9902 0.0
O400 O 0.03362 0.52527 0.07276 0.0
O401 O 0.99142 0.53765 0.0407 0.0
O402 O 0.04959 0.46704 0.0754 0.0
O403 O 0.07127 0.46156 0.03359 0.0
O404 O 0.98988 0.48432 0.99243 0.0
O405 O 0.98 0.46629 0.03574 0.0
O406 O 1.02301 0.5063 0.953 0.0
O407 O 0.06006 0.48752 0.98501 0.0
H408 H 0.96076 0.60966 0.92489 0.0
H409 H 0.90101 0.60594 0.90431 0.0
H410 H 0.86549 0.52555 0.95601 0.0
H411 H 0.92568 0.52963 0.97665 0.0
H412 H 0.08233 0.42275 0.11206 0.0
H413 H 0.13765 0.4261 0.14479 0.0
H414 H 0.1898 0.49931 0.09107 0.0
H415 H 0.13415 0.49688 0.05941 0.0
H416 H 0.33909 0.26408 0.40587 0.0
H417 H 0.27778 0.32578 0.39914 0.0
H418 H 0.23153 0.28653 0.41933 0.0
H419 H 0.27102 0.19665 0.37946 0.0
H420 H 0.28722 0.17229 0.40574 0.0
H421 H 0.31677 0.20614 0.39357 0.0
H422 H 0.34166 0.22596 0.45219 0.0
H423 H 0.31238 0.19199 0.46459 0.0
H424 H 0.31288 0.22954 0.47829 0.0
H425 H 0.19044 0.23921 0.43652 0.0
H426 H 0.15771 0.18759 0.44995 0.0
H427 H 0.24664 0.15736 0.44668 0.0
C428 C 0.31633 0.26966 0.40942 0.0
C429 C 0.31209 0.29805 0.40112 0.0
C430 C 0.28148 0.30412 0.40525 0.0
C431 C 0.25517 0.28204 0.41682 0.0
C432 C 0.25993 0.25407 0.42423 0.0
C433 C 0.28983 0.2479 0.42087 0.0
C434 C 0.2878 0.21547 0.4289 0.0
C435 C 0.29088 0.19653 0.4002 0.0
C436 C 0.31531 0.21577 0.45771 0.0
C437 C 0.25184 0.20418 0.43677 0.0
C438 C 0.23627 0.22683 0.43414 0.0
C439 C 0.20254 0.22142 0.43909 0.0
C440 C 0.18421 0.19204 0.44686 0.0
C441 C 0.19962 0.16839 0.44957 0.0
C442 C 0.234 0.1748 0.44462 0.0
H443 H 0.43783 0.92845 0.812 0.0
H444 H 0.34761 0.85923 0.83472 0.0
H445 H 0.36633 0.87813 0.89083 0.0
H446 H 0.49732 0.92305 0.88639 0.0
H447 H 0.5205 0.96359 0.88819 0.0
H448 H 0.50158 0.94234 0.85041 0.0
H449 H 0.46845 0.98125 0.83624 0.0
H450 H 0.48667 1.00204 0.87421 0.0
H451 H 0.44046 0.9875 0.86193 0.0
H452 H 0.39045 0.90943 0.94299 0.0
H453 H 0.42196 0.9471 0.98835 0.0
H454 H 0.49892 0.99212 0.93216 0.0
C455 C 0.42248 0.91636 0.82869 0.0
C456 C 0.39085 0.89253 0.81851 0.0
C457 C 0.37141 0.87809 0.84152 0.0
C458 C 0.38203 0.88842 0.87361 0.0
C459 C 0.41268 0.91262 0.88253 0.0
C460 C 0.43311 0.92584 0.86086 0.0
C461 C 0.4643 0.95223 0.87635 0.0
C462 C 0.49789 0.94484 0.87527 0.0
C463 C 0.46497 0.98253 0.86128 0.0
C464 C 0.45723 0.95277 0.90975 0.0
C465 C 0.42744 0.92967 0.91293 0.0
C466 C 0.41423 0.92719 0.94099 0.0
C467 C 0.4321 0.94881 0.9665 0.0
C468 C 0.46287 0.97239 0.96373 0.0
C469 C 0.47567 0.9741 0.93508 0.0
H470 H 0.57331 0.38104 0.6797 0.0
H471 H 0.68358 0.42579 0.7084 0.0
H472 H 0.6816 0.46467 0.67002 0.0
H473 H 0.57101 0.39334 0.59615 0.0
H474 H 0.5301 0.40037 0.59062 0.0
H475 H 0.53963 0.37579 0.6205 0.0
H476 H 0.52742 0.4097 0.66322 0.0
H477 H 0.51759 0.43417 0.63338 0.0
H478 H 0.55021 0.45045 0.66779 0.0
H479 H 0.66827 0.49884 0.62867 0.0
H480 H 0.64369 0.52728 0.58824 0.0
H481 H 0.54202 0.46091 0.5851 0.0
C482 C 0.59692 0.3992 0.67804 0.0
C483 C 0.62867 0.40026 0.69704 0.0
C484 C 0.65905 0.42427 0.69392 0.0
C485 C 0.6582 0.44651 0.67219 0.0
C486 C 0.62675 0.44456 0.65344 0.0
C487 C 0.59659 0.4216 0.6561 0.0
C488 C 0.56631 0.42495 0.63285 0.0
C489 C 0.55086 0.39694 0.6086 0.0
C490 C 0.53876 0.43013 0.65036 0.0
C491 C 0.58413 0.45358 0.6172 0.0
C492 C 0.61905 0.46434 0.62934 0.0
C493 C 0.64096 0.49061 0.61897 0.0
C494 C 0.62678 0.50661 0.59594 0.0
C495 C 0.591 0.49638 0.58347 0.0
C496 C 0.56953 0.46924 0.59405 0.0
H497 H 0.89522 0.60651 0.16975 0.0
H498 H 0.97171 0.60969 0.25283 0.0
H499 H 1.00374 0.58812 0.22005 0.0
H500 H 0.89548 0.53494 0.13225 0.0
H501 H 0.89103 0.54743 0.09273 0.0
H502 H 0.87372 0.56289 0.12264 0.0
H503 H 0.90923 0.61808 0.11249 0.0
H504 H 0.92666 0.60278 0.08257 0.0
H505 H 0.95533 0.62793 0.11519 0.0
H506 H 0.02757 0.56533 0.17824 0.0
H507 H 0.0422 0.54487 0.13078 0.0
H508 H 0.95144 0.5569 0.07356 0.0
C509 C 0.91858 0.60248 0.18115 0.0
C510 C 0.93077 0.61001 0.2142 0.0
C511 C 0.96181 0.60462 0.22774 0.0
C512 C 0.98018 0.59215 0.20924 0.0
C513 C 0.96755 0.58514 0.1769 0.0
C514 C 0.93752 0.59023 0.16288 0.0
C515 C 0.93001 0.58114 0.12743 0.0
C516 C 0.89551 0.55505 0.11822 0.0
C517 C 0.93033 0.60915 0.10829 0.0
C518 C 0.96039 0.57006 0.12374 0.0
C519 C 0.98162 0.57247 0.15267 0.0
C520 C 1.01111 0.56344 0.1555 0.0
C521 C 1.01921 0.55174 0.12826 0.0
C522 C 0.99816 0.54915 0.09813 0.0
C523 C 0.96827 0.55856 0.09606 0.0
H524 H 0.40383 0.2575 0.2313 0.0
H525 H 0.51022 0.29132 0.28021 0.0
H526 H 0.52325 0.25066 0.25089 0.0
H527 H 0.39503 0.17758 0.23272 0.0
H528 H 0.36813 0.16739 0.19418 0.0
H529 H 0.36771 0.19994 0.21803 0.0
H530 H 0.38313 0.23498 0.17244 0.0
H531 H 0.38362 0.20254 0.14844 0.0
H532 H 0.42098 0.23658 0.15598 0.0
H533 H 0.52414 0.20546 0.21704 0.0
H534 H 0.51307 0.1596 0.18084 0.0
H535 H 0.40547 0.15447 0.15593 0.0
C536 C 0.42985 0.25631 0.23604 0.0
C537 C 0.45601 0.2776 0.25812 0.0
C538 C 0.48986 0.2755 0.26315 0.0
C539 C 0.49745 0.25239 0.24675 0.0
C540 C 0.47092 0.23161 0.22541 0.0
C541 C 0.43782 0.2334 0.22001 0.0
C542 C 0.4138 0.20802 0.19625 0.0
C543 C 0.38444 0.18699 0.2112 0.0
C544 C 0.39955 0.22133 0.16652 0.0
C545 C 0.43851 0.19152 0.1892 0.0
C546 C 0.47135 0.2055 0.2062 0.0
C547 C 0.4985 0.19428 0.20368 0.0
C548 C 0.49189 0.16809 0.18324 0.0
C549 C 0.45835 0.15333 0.16565 0.0
C550 C 0.43143 0.16536 0.16877 0.0
H551 H 0.20154 0.89565 0.59195 0.0
H552 H 0.18286 0.89441 0.68835 0.0
H553 H 0.13302 0.91299 0.67184 0.0
H554 H 0.18746 0.96464 0.57723 0.0
H555 H 0.16731 0.95418 0.53638 0.0
H556 H 0.19754 0.93608 0.55467 0.0
H557 H 0.15164 0.88238 0.53958 0.0
H558 H 0.12126 0.90034 0.52099 0.0
H559 H 0.11006 0.87438 0.55135 0.0
H560 H 0.08825 0.93611 0.64524 0.0
H561 H 0.05481 0.96386 0.61163 0.0
H562 H 0.10525 0.95147 0.53368 0.0
C563 C 0.18623 0.89833 0.60934 0.0
C564 C 0.19558 0.89318 0.64128 0.0
C565 C 0.17581 0.89803 0.66369 0.0
C566 C 0.14745 0.90846 0.6545 0.0
C567 C 0.13936 0.91402 0.62287 0.0
C568 C 0.15823 0.90909 0.60065 0.0
C569 C 0.14673 0.91979 0.56896 0.0
C570 C 0.17653 0.94518 0.55874 0.0
C571 C 0.13151 0.8926 0.54373 0.0
C572 C 0.1191 0.93227 0.57696 0.0
C573 C 0.11465 0.92827 0.60795 0.0
C574 C 0.09132 0.93911 0.62084 0.0
C575 C 0.07244 0.95482 0.60163 0.0
C576 C 0.07758 0.95994 0.57015 0.0
C577 C 0.10082 0.94804 0.5577 0.0
H578 H 0.80579 0.40881 0.86596 0.0
H579 H 0.74917 0.35668 0.93421 0.0
H580 H 0.79832 0.38149 0.97708 0.0
H581 H 0.88694 0.40342 0.89901 0.0
H582 H 0.91148 0.44176 0.89142 0.0
H583 H 0.87071 0.42215 0.86646 0.0
H584 H 0.84933 0.46769 0.87774 0.0
H585 H 0.8894 0.48754 0.90378 0.0
H586 H 0.849 0.47944 0.91788 0.0
H587 H 0.85464 0.40876 1.01187 0.0
H588 H 0.91505 0.43651 0.03639 0.0
H589 H 0.93581 0.47134 0.94604 0.0
C590 C 0.80354 0.40312 0.89003 0.0
C591 C 0.77366 0.38081 0.89678 0.0
C592 C 0.77191 0.37352 0.92849 0.0
C593 C 0.7996 0.38763 0.95301 0.0
C594 C 0.82891 0.40908 0.94553 0.0
C595 C 0.83111 0.4169 0.91485 0.0
C596 C 0.8664 0.43937 0.91308 0.0
C597 C 0.88497 0.42585 0.8912 0.0
C598 C 0.86337 0.47036 0.9025 0.0
C599 C 0.88393 0.44225 0.94738 0.0
C600 C 0.86166 0.42484 0.96572 0.0
C601 C 0.87225 0.42269 0.99783 0.0
C602 C 0.90662 0.43845 1.01153 0.0
C603 C 0.93008 0.45594 0.99311 0.0
C604 C 0.91838 0.45818 0.96071 0.0
H605 H 0.73236 0.63693 0.38759 0.0
H606 H 0.75354 0.5532 0.36333 0.0
H607 H 0.70999 0.52416 0.39386 0.0
H608 H 0.71764 0.61998 0.46688 0.0
H609 H 0.6831 0.63635 0.4647 0.0
H610 H 0.71677 0.65084 0.44179 0.0
H611 H 0.67089 0.64031 0.39065 0.0
H612 H 0.63709 0.62578 0.41339 0.0
H613 H 0.64039 0.60223 0.38074 0.0
H614 H 0.66239 0.50354 0.42629 0.0
H615 H 0.6157 0.49351 0.45781 0.0
H616 H 0.62432 0.5903 0.46021 0.0
C617 C 0.72783 0.61245 0.38844 0.0
C618 C 0.74689 0.5976 0.37285 0.0
C619 C 0.74008 0.5655 0.3753 0.0
C620 C 0.71506 0.54865 0.39247 0.0
C621 C 0.69673 0.56401 0.40727 0.0
C622 C 0.70283 0.59522 0.40543 0.0
C623 C 0.67927 0.60616 0.4232 0.0
C624 C 0.70047 0.62972 0.45078 0.0
C625 C 0.6555 0.6194 0.40065 0.0
C626 C 0.65885 0.57622 0.4352 0.0
C627 C 0.66935 0.55217 0.42578 0.0
C628 C 0.65407 0.52227 0.43379 0.0
C629 C 0.62745 0.51679 0.45177 0.0
C630 C 0.61607 0.54102 0.46173 0.0
C631 C 0.63227 0.57116 0.45321 0.0
H632 H 0.30194 0.39202 0.21816 0.0
H633 H 0.36935 0.48508 0.24755 0.0
H634 H 0.32815 0.50546 0.21389 0.0
H635 H 0.2737 0.40603 0.13625 0.0
H636 H 0.23049 0.38032 0.13507 0.0
H637 H 0.26636 0.37343 0.16 0.0
H638 H 0.23638 0.37334 0.20852 0.0
H639 H 0.20057 0.38045 0.18383 0.0
H640 H 0.22364 0.4061 0.21818 0.0
H641 H 0.27784 0.51539 0.17866 0.0
H642 H 0.22267 0.51401 0.14545 0.0
H643 H 0.18964 0.41425 0.13873 0.0
C644 C 0.30851 0.41669 0.21702 0.0
C645 C 0.339 0.43696 0.23533 0.0
C646 C 0.34605 0.46912 0.23384 0.0
C647 C 0.32292 0.48088 0.21466 0.0
C648 C 0.29295 0.46018 0.19713 0.0
C649 C 0.28582 0.42876 0.19808 0.0
C650 C 0.25127 0.41133 0.17808 0.0
C651 C 0.25574 0.39162 0.15073 0.0
C652 C 0.22652 0.39166 0.19838 0.0
C653 C 0.23971 0.43784 0.16611 0.0
C654 C 0.26415 0.46585 0.1771 0.0
C655 C 0.25867 0.49357 0.16971 0.0
C656 C 0.22731 0.49256 0.15074 0.0
C657 C 0.2018 0.46404 0.13953 0.0
C658 C 0.20842 0.43643 0.1472 0.0
H659 H 0.53625 0.19356 0.86019 0.0
H660 H 0.62684 0.25658 0.91989 0.0
H661 H 0.61869 0.22173 0.96283 0.0
H662 H 0.48611 0.17062 0.92377 0.0
H663 H 0.46689 0.1312 0.90788 0.0
H664 H 0.47918 0.16137 0.88172 0.0
H665 H 0.51683 0.13341 0.85916 0.0
H666 H 0.50483 0.10327 0.8854 0.0
H667 H 0.54977 0.12382 0.88574 0.0
H668 H 0.60374 0.17887 0.99809 0.0
H669 H 0.57934 0.13269 0.02572 0.0
H670 H 0.49619 0.09748 0.94544 0.0
C671 C 0.55416 0.20009 0.88241 0.0
C672 C 0.58205 0.22809 0.88667 0.0
C673 C 0.60492 0.23569 0.91614 0.0
C674 C 0.60069 0.21587 0.94066 0.0
C675 C 0.57323 0.18847 0.93565 0.0
C676 C 0.55002 0.18066 0.90747 0.0
C677 C 0.52257 0.1498 0.90865 0.0
C678 C 0.48655 0.15348 0.90531 0.0
C679 C 0.52357 0.12618 0.88322 0.0
C680 C 0.53427 0.14142 0.94171 0.0
C681 C 0.56378 0.16402 0.95665 0.0
C682 C 0.58042 0.1612 0.98678 0.0
C683 C 0.5664 0.13478 1.00226 0.0
C684 C 0.53571 0.11157 0.98789 0.0
C685 C 0.51947 0.115 0.95715 0.0
H686 H 0.94452 0.82108 0.34275 0.0
H687 H 0.89731 0.76863 0.41598 0.0
H688 H 0.91531 0.816 0.45114 0.0
H689 H 1.01765 0.87375 0.39446 0.0
H690 H 1.01766 0.90649 0.37198 0.0
H691 H 1.00147 0.86834 0.35249 0.0
H692 H 0.94342 0.87715 0.33087 0.0
H693 H 0.95939 0.91529 0.35043 0.0
H694 H 0.91978 0.88839 0.35806 0.0
H695 H 0.93844 0.8693 0.47892 0.0
H696 H 0.96625 0.92414 0.49736 0.0
H697 H 0.9971 0.94313 0.40611 0.0
C698 C 0.93774 0.81946 0.3661 0.0
C699 C 0.9196 0.79063 0.37642 0.0
C700 C 0.91177 0.78996 0.40744 0.0
C701 C 0.92161 0.81694 0.42762 0.0
C702 C 0.93926 0.84479 0.41664 0.0
C703 C 0.94732 0.84629 0.38662 0.0
C704 C 0.96665 0.87927 0.38078 0.0
C705 C 1.00301 0.88212 0.37457 0.0
C706 C 0.94608 0.89069 0.35341 0.0
C707 C 0.96825 0.89602 0.41221 0.0
C708 C 0.95223 0.87564 0.43253 0.0
C709 C 0.95095 0.88543 0.46314 0.0
C710 C 0.96679 0.9167 0.47341 0.0
C711 C 0.98374 0.93808 0.45322 0.0
C712 C 0.98407 0.9275 0.42205 0.0
H713 H 0.36703 0.76233 0.59038 0.0
H714 H 0.36846 0.74643 0.68979 0.0
H715 H 0.39638 0.7069 0.68405 0.0
H716 H 0.35406 0.68166 0.56178 0.0
H717 H 0.38222 0.6939 0.53333 0.0
H718 H 0.35766 0.71758 0.54409 0.0
H719 H 0.4141 0.76351 0.55947 0.0
H720 H 0.43882 0.73998 0.549 0.0
H721 H 0.44894 0.75911 0.58809 0.0
H722 H 0.43097 0.67437 0.66947 0.0
H723 H 0.46733 0.64927 0.64625 0.0
H724 H 0.44408 0.6866 0.55653 0.0
C725 C 0.37266 0.75015 0.61082 0.0
C726 C 0.36532 0.75739 0.6405 0.0
C727 C 0.37315 0.74091 0.66666 0.0
C728 C 0.38922 0.71851 0.66368 0.0
C729 C 0.39706 0.71265 0.63434 0.0
C730 C 0.3887 0.72774 0.60826 0.0
C731 C 0.40218 0.7188 0.58 0.0
C732 C 0.37224 0.70198 0.55322 0.0
C733 C 0.42751 0.74703 0.56848 0.0
C734 C 0.42048 0.69718 0.59458 0.0
C735 C 0.41696 0.69373 0.62587 0.0
C736 C 0.43348 0.67651 0.64486 0.0
C737 C 0.45426 0.66255 0.63156 0.0
C738 C 0.45836 0.66593 0.5996 0.0
C739 C 0.44087 0.68318 0.58086 0.0
H740 H 0.81432 0.79256 0.71522 0.0
H741 H 0.71229 0.76541 0.65745 0.0
H742 H 0.73727 0.79116 0.61274 0.0
H743 H 0.84025 0.86557 0.69221 0.0
H744 H 0.88475 0.86859 0.69253 0.0
H745 H 0.86028 0.8428 0.71744 0.0
H746 H 0.87426 0.79733 0.69236 0.0
H747 H 0.89902 0.8231 0.66738 0.0
H748 H 0.86431 0.78927 0.65002 0.0
H749 H 0.77173 0.82548 0.57743 0.0
H750 H 0.81259 0.86731 0.55462 0.0
H751 H 0.89198 0.87366 0.6362 0.0
C752 C 0.79751 0.79105 0.69272 0.0
C753 C 0.76154 0.77663 0.68942 0.0
C754 C 0.73998 0.77612 0.66017 0.0
C755 C 0.75397 0.79054 0.63469 0.0
C756 C 0.7895 0.80535 0.63896 0.0
C757 C 0.81102 0.80565 0.66724 0.0
C758 C 0.84745 0.82651 0.66718 0.0
C759 C 0.85882 0.85239 0.69391 0.0
C760 C 0.87275 0.80793 0.66936 0.0
C761 C 0.84278 0.83888 0.63496 0.0
C762 C 0.80935 0.8259 0.6188 0.0
C763 C 0.79811 0.83546 0.58963 0.0
C764 C 0.82141 0.85936 0.57698 0.0
C765 C 0.85544 0.87366 0.59364 0.0
C766 C 0.86639 0.8627 0.62262 0.0
H767 H 0.73209 0.18663 0.21605 0.0
H768 H 0.66091 0.20382 0.27243 0.0
H769 H 0.61179 0.17395 0.23186 0.0
H770 H 0.68249 0.19 0.13906 0.0
H771 H 0.69307 0.15929 0.12075 0.0
H772 H 0.72284 0.18346 0.15342 0.0
H773 H 0.72274 0.13531 0.18396 0.0
H774 H 0.69298 0.11101 0.1514 0.0
H775 H 0.6823 0.10895 0.19052 0.0
H776 H 0.57044 0.1403 0.18681 0.0
H777 H 0.53938 0.10552 0.13961 0.0
H778 H 0.63714 0.10953 0.11242 0.0
C779 C 0.70618 0.18413 0.21987 0.0
C780 C 0.7004 0.19777 0.24737 0.0
C781 C 0.66605 0.1941 0.25132 0.0
C782 C 0.63795 0.17702 0.2285 0.0
C783 C 0.64459 0.16374 0.20183 0.0
C784 C 0.67781 0.16713 0.19732 0.0
C785 C 0.67773 0.14979 0.1669 0.0
C786 C 0.69506 0.17197 0.14366 0.0
C787 C 0.69495 0.12478 0.17361 0.0
C788 C 0.63925 0.13584 0.15523 0.0
C789 C 0.62064 0.14426 0.17572 0.0
C790 C 0.58471 0.13366 0.1705 0.0
C791 C 0.56731 0.11381 0.14365 0.0
C792 C 0.58581 0.10477 0.12231 0.0
C793 C 0.62227 0.11616 0.12817 0.0
H794 H 0.48885 0.65856 0.35035 0.0
H795 H 0.38591 0.60332 0.30426 0.0
H796 H 0.38609 0.56441 0.3428 0.0
H797 H 0.52158 0.59668 0.3669 0.0
H798 H 0.54657 0.61294 0.40516 0.0
H799 H 0.53787 0.63782 0.37532 0.0
H800 H 0.51092 0.66345 0.41387 0.0
H801 H 0.51953 0.63859 0.44384 0.0
H802 H 0.47626 0.63986 0.43184 0.0
H803 H 0.39915 0.52893 0.38229 0.0
H804 H 0.42315 0.50039 0.42292 0.0
H805 H 0.51647 0.57866 0.44658 0.0
C806 C 0.46622 0.63843 0.34861 0.0
C807 C 0.43717 0.63427 0.32431 0.0
C808 C 0.40817 0.60748 0.3229 0.0
C809 C 0.40809 0.58508 0.34462 0.0
C810 C 0.43708 0.58974 0.36802 0.0
C811 C 0.46552 0.61586 0.37048 0.0
C812 C 0.49358 0.61462 0.39762 0.0
C813 C 0.52686 0.61557 0.38552 0.0
C814 C 0.50047 0.64068 0.42331 0.0
C815 C 0.47673 0.58343 0.40944 0.0
C816 C 0.44415 0.56953 0.39188 0.0
C817 C 0.42434 0.53981 0.3966 0.0
C818 C 0.4382 0.52375 0.4197 0.0
C819 C 0.47133 0.53749 0.43821 0.0
C820 C 0.49069 0.56791 0.43328 0.0
H821 H 0.1442 0.40815 0.8527 0.0
H822 H 0.09618 0.44191 0.76999 0.0
H823 H 0.06761 0.46615 0.80394 0.0
H824 H 0.07132 0.3913 0.89428 0.0
H825 H 0.09765 0.40374 0.93284 0.0
H826 H 0.11439 0.38871 0.90218 0.0
H827 H 0.16683 0.4385 0.90905 0.0
H828 H 0.15023 0.45369 0.93969 0.0
H829 H 0.15966 0.47519 0.90579 0.0
H830 H 0.04338 0.48656 0.84666 0.0
H831 H 1.0265 0.50273 0.89486 0.0
H832 H 0.09013 0.45692 0.95138 0.0
C833 C 0.12747 0.42043 0.84164 0.0
C834 C 0.12272 0.42303 0.80833 0.0
C835 C 0.10084 0.43977 0.79524 0.0
C836 C 0.08424 0.45354 0.81441 0.0
C837 C 0.08961 0.45065 0.84696 0.0
C838 C 0.11077 0.4346 0.86058 0.0
C839 C 0.11241 0.43547 0.89637 0.0
C840 C 0.09809 0.40286 0.90704 0.0
C841 C 0.14949 0.45168 0.91375 0.0
C842 C 0.08885 0.45445 0.9007 0.0
C843 C 0.07592 0.46281 0.87178 0.0
C844 C 0.05344 0.48015 0.8694 0.0
C845 C 0.04393 0.48924 0.8971 0.0
C846 C 0.05684 0.48127 0.92727 0.0
C847 C 0.07973 0.46355 0.92888 0.0
H848 H 0.60466 0.79646 0.88585 0.0
H849 H 0.61229 0.82645 0.79162 0.0
H850 H 0.59079 0.86913 0.8039 0.0
H851 H 0.52733 0.82291 0.89634 0.0
H852 H 0.54555 0.83428 0.93745 0.0
H853 H 0.55223 0.80177 0.91842 0.0
H854 H 0.61833 0.82693 0.93564 0.0
H855 H 0.61201 0.85963 0.95416 0.0
H856 H 0.63887 0.86497 0.92427 0.0
H857 H 0.58283 0.91488 0.83046 0.0
H858 H 0.58396 0.95722 0.86773 0.0
H859 H 0.58085 0.89701 0.94437 0.0
C860 C 0.60027 0.81125 0.86742 0.0
C861 C 0.60983 0.80817 0.83778 0.0
C862 C 0.60448 0.82816 0.81429 0.0
C863 C 0.59241 0.85252 0.82112 0.0
C864 C 0.58521 0.85611 0.85132 0.0
C865 C 0.58815 0.83552 0.87386 0.0
C866 C 0.58324 0.84649 0.90567 0.0
C867 C 0.55011 0.82509 0.91501 0.0
C868 C 0.615 0.84971 0.93141 0.0
C869 C 0.57959 0.87745 0.89813 0.0
C870 C 0.58013 0.88243 0.86655 0.0
C871 C 0.58134 0.9109 0.85501 0.0
C872 C 0.58233 0.93488 0.87633 0.0
C873 C 0.58214 0.93018 0.90877 0.0
C874 C 0.58003 0.90092 0.91951 0.0
H875 H 0.86877 0.15123 0.43007 0.0
H876 H 0.93268 0.19572 0.36276 0.0
H877 H 0.96787 0.16149 0.37394 0.0
H878 H 0.93555 0.14036 0.48651 0.0
H879 H 0.91028 0.10306 0.49616 0.0
H880 H 0.8893 0.13048 0.48227 0.0
H881 H 0.85018 0.09072 0.4371 0.0
H882 H 0.87112 0.06316 0.45086 0.0
H883 H 0.86967 0.07342 0.41049 0.0
H884 H 0.99859 0.12522 0.39482 0.0
H885 H 1.02175 0.08768 0.42308 0.0
H886 H 0.93598 0.06396 0.47415 0.0
C887 C 0.88982 0.1535 0.41731 0.0
C888 C 0.8981 0.17649 0.39576 0.0
C889 C 0.92622 0.17884 0.37992 0.0
C890 C 0.9462 0.15928 0.38585 0.0
C891 C 0.93755 0.13714 0.4074 0.0
C892 C 0.90991 0.13394 0.42274 0.0
C893 C 0.90668 0.10859 0.44529 0.0
C894 C 0.9107 0.1214 0.47958 0.0
C895 C 0.87237 0.08242 0.43533 0.0
C896 C 0.93713 0.09841 0.44054 0.0
C897 C 0.9546 0.11525 0.41859 0.0
C898 C 0.98486 0.11153 0.41168 0.0
C899 C 0.99783 0.09022 0.42785 0.0
C900 C 0.98035 0.07268 0.45038 0.0
C901 C 0.94937 0.07656 0.45646 0.0
H902 H 0.25569 0.62135 0.15361 0.0
H903 H 0.31513 0.6439 0.07793 0.0
H904 H 0.26186 0.62242 0.03848 0.0
H905 H 0.19668 0.54952 0.11561 0.0
H906 H 0.15927 0.55348 0.12933 0.0
H907 H 0.20171 0.57102 0.15257 0.0
H908 H 0.19319 0.62441 0.15218 0.0
H909 H 0.15034 0.60736 0.12969 0.0
H910 H 0.18084 0.63896 0.115 0.0
H911 H 0.2024 0.60073 1.00716 0.0
H912 H 0.14016 0.57779 0.98574 0.0
H913 H 0.11871 0.56693 0.08117 0.0
C914 C 0.2574 0.62177 0.12872 0.0
C915 C 0.2896 0.63418 0.11882 0.0
C916 C 0.29084 0.63414 0.08605 0.0
C917 C 0.2607 0.62214 0.06346 0.0
C918 C 0.22944 0.61005 0.07394 0.0
C919 C 0.22749 0.60957 0.10576 0.0
C920 C 0.1905 0.59485 0.11051 0.0
C921 C 0.1868 0.56546 0.12807 0.0
C922 C 0.17799 0.61777 0.12787 0.0
C923 C 0.17203 0.58748 0.0764 0.0
C924 C 0.19503 0.59661 0.05574 0.0
C925 C 0.18414 0.59327 0.02306 0.0
C926 C 0.14877 0.5803 1.01113 0.0
C927 C 0.12474 0.57058 0.03178 0.0
C928 C 0.13659 0.574 0.06484 0.0
H929 H 0.30726 0.40705 0.62403 0.0
H930 H 0.31412 0.49207 0.67468 0.0
H931 H 0.36142 0.52042 0.64744 0.0
H932 H 0.39836 0.42366 0.62785 0.0
H933 H 0.39468 0.40594 0.58905 0.0
H934 H 0.36009 0.39249 0.61114 0.0
H935 H 0.31714 0.40178 0.56458 0.0
H936 H 0.35162 0.41525 0.54234 0.0
H937 H 0.32603 0.43927 0.54939 0.0
H938 H 0.40872 0.53964 0.61523 0.0
H939 H 0.45394 0.54807 0.58244 0.0
H940 H 0.41824 0.45048 0.5532 0.0
C941 C 0.31841 0.4317 0.62905 0.0
C942 C 0.30671 0.44733 0.65147 0.0
C943 C 0.32259 0.47953 0.65778 0.0
C944 C 0.34943 0.49587 0.64229 0.0
C945 C 0.3605 0.47977 0.62057 0.0
C946 C 0.34561 0.44837 0.61403 0.0
C947 C 0.36344 0.43648 0.59067 0.0
C948 C 0.38013 0.41327 0.60558 0.0
C949 C 0.33804 0.42236 0.55992 0.0
C950 C 0.39068 0.46605 0.58515 0.0
C951 C 0.38831 0.49076 0.60249 0.0
C952 C 0.41076 0.52042 0.60156 0.0
C953 C 0.43646 0.52497 0.58274 0.0
C954 C 0.43996 0.50002 0.56502 0.0
C955 C 0.41641 0.47016 0.56625 0.0
H956 H 0.74743 0.62396 0.81839 0.0
H957 H 0.68993 0.61502 0.89539 0.0
H958 H 0.72117 0.58133 0.92053 0.0
H959 H 0.75974 0.5437 0.82092 0.0
H960 H 0.80254 0.56003 0.81206 0.0
H961 H 0.7686 0.57506 0.79562 0.0
H962 H 0.80682 0.62953 0.81941 0.0
H963 H 0.84044 0.61478 0.83643 0.0
H964 H 0.82293 0.63576 0.86141 0.0
H965 H 0.76803 0.56068 0.94343 0.0
H966 H 0.82471 0.55371 0.96101 0.0
H967 H 0.85098 0.57466 0.8685 0.0
C968 C 0.73991 0.61344 0.83956 0.0
C969 C 0.7161 0.62191 0.85481 0.0
C970 C 0.70806 0.60875 0.88327 0.0
C971 C 0.72557 0.58945 0.89762 0.0
C972 C 0.75064 0.58319 0.88299 0.0
C973 C 0.75729 0.59431 0.85418 0.0
C974 C 0.7891 0.58869 0.84583 0.0
C975 C 0.7794 0.56548 0.81689 0.0
C976 C 0.8164 0.61898 0.8405 0.0
C977 C 0.80089 0.57497 0.87553 0.0
C978 C 0.77792 0.57114 0.89634 0.0
C979 C 0.78564 0.56261 0.92694 0.0
C980 C 0.81794 0.55868 0.93674 0.0
C981 C 0.84226 0.56366 0.91611 0.0
C982 C 0.83291 0.57073 0.88479 0.0
H983 H 0.44402 0.82586 0.12604 0.0
H984 H 0.49421 0.85762 0.22312 0.0
H985 H 0.51646 0.91021 0.20671 0.0
H986 H 0.50822 0.87323 0.08807 0.0
H987 H 0.47859 0.88085 0.05617 0.0
H988 H 0.46589 0.84564 0.07547 0.0
H989 H 0.41228 0.85806 0.08796 0.0
H990 H 0.42478 0.89332 0.06861 0.0
H991 H 0.41787 0.89421 0.10893 0.0
H992 H 0.53712 0.9587 0.17915 0.0
H993 H 0.55179 1.00011 0.14288 0.0
H994 H 0.48384 0.93861 0.06467 0.0
C995 C 0.45903 0.84383 0.14416 0.0
C996 C 0.46737 0.83709 0.17604 0.0
C997 C 0.48788 0.86164 0.19848 0.0
C998 C 0.50044 0.89179 0.18944 0.0
C999 C 0.49192 0.89741 0.1579 0.0
C1000 C 0.47133 0.8742 0.13565 0.0
C1001 C 0.46626 0.88641 0.10319 0.0
C1002 C 0.4806 0.87059 0.07933 0.0
C1003 C 0.42802 0.88278 0.09149 0.0
C1004 C 0.4877 0.92004 0.11056 0.0
C1005 C 0.50242 0.92581 0.14227 0.0
C1006 C 0.52525 0.95456 0.15442 0.0
C1007 C 0.53346 0.97793 0.13366 0.0
C1008 C 0.5185 0.97269 0.10119 0.0
C1009 C 0.49495 0.94344 0.08958 0.0
H1010 H 0.09224 0.23946 0.63225 0.0
H1011 H 0.19323 0.23124 0.66741 0.0
H1012 H 0.17624 0.18105 0.63764 0.0
H1013 H 0.04488 0.15872 0.63765 0.0
H1014 H 1.01367 0.1563 0.60238 0.0
H1015 H 0.03395 0.19239 0.62568 0.0
H1016 H 0.05437 0.21818 0.57614 0.0
H1017 H 0.0344 0.18209 0.55276 0.0
H1018 H 0.07964 0.20239 0.55444 0.0
H1019 H 0.14943 0.13199 0.60282 0.0
H1020 H 0.11219 0.08515 0.56985 0.0
H1021 H 1.027 0.12228 0.55939 0.0
C1022 C 0.11073 0.22706 0.63394 0.0
C1023 C 0.14455 0.24013 0.65183 0.0
C1024 C 0.16765 0.22268 0.6532 0.0
C1025 C 0.15816 0.19385 0.63647 0.0
C1026 C 0.12513 0.18207 0.61859 0.0
C1027 C 0.10152 0.19784 0.61754 0.0
C1028 C 0.06726 0.17925 0.5972 0.0
C1029 C 0.03822 0.17118 0.61691 0.0
C1030 C 0.05841 0.19651 0.56843 0.0
C1031 C 0.07541 0.15068 0.58712 0.0
C1032 C 0.10911 0.15301 0.59948 0.0
C1033 C 0.12291 0.12982 0.59321 0.0
C1034 C 0.10157 0.10328 0.57436 0.0
C1035 C 0.0666 0.09984 0.56218 0.0
C1036 C 0.05358 0.12412 0.56845 0.0
H1037 H 0.68992 0.29066 0.40955 0.0
H1038 H 0.77457 0.32021 0.48917 0.0
H1039 H 0.73978 0.34338 0.51734 0.0
H1040 H 0.66631 0.35773 0.41151 0.0
H1041 H 0.6206 0.33822 0.40023 0.0
H1042 H 0.65091 0.32161 0.38785 0.0
H1043 H 0.62301 0.2714 0.41356 0.0
H1044 H 0.59253 0.28787 0.426 0.0
H1045 H 0.61917 0.27319 0.45471 0.0
H1046 H 0.69643 0.36544 0.53551 0.0
H1047 H 0.64901 0.38586 0.54164 0.0
H1048 H 0.59404 0.34313 0.44897 0.0
C1049 C 0.70082 0.30137 0.43323 0.0
C1050 C 0.73474 0.30335 0.4474 0.0
C1051 C 0.74857 0.31841 0.47798 0.0
C1052 C 0.72896 0.3315 0.49416 0.0
C1053 C 0.69569 0.32942 0.47934 0.0
C1054 C 0.68178 0.31476 0.44952 0.0
C1055 C 0.6464 0.31743 0.43786 0.0
C1056 C 0.64606 0.33479 0.40758 0.0
C1057 C 0.61864 0.28558 0.43275 0.0
C1058 C 0.64263 0.33613 0.46565 0.0
C1059 C 0.67116 0.34262 0.48946 0.0
C1060 C 0.67391 0.36039 0.51705 0.0
C1061 C 0.64694 0.37205 0.52022 0.0
C1062 C 0.61769 0.36608 0.49584 0.0
C1063 C 0.61561 0.34763 0.46837 0.0
loop_
_geom_bond_atom_site_label_1
_geom_bond_atom_site_label_2
_geom_bond_distance
_geom_bond_site_symmetry_2
_ccdc_geom_bond_type
P0 O11 1.490 . S
P0 C14 1.812 . S
P0 C20 1.803 . S
P0 C26 1.819 . S
H1 C15 0.941 . S
H2 C16 0.939 . S
H3 C18 0.940 . S
H4 C19 0.940 . S
H5 C21 0.939 . S
H6 C22 0.942 . S
H7 C24 0.940 . S
H8 C25 0.939 . S
H9 C27 0.941 . S
H10 C31 0.939 . S
O11 P0 1.490 . S
H12 C28 0.939 . S
H13 C30 0.940 . S
C14 P0 1.812 . S
C14 C15 1.389 . S
C14 C19 1.391 . S
C15 H1 0.941 . S
C15 C14 1.389 . S
C15 C16 1.397 . S
C16 H2 0.939 . S
C16 C15 1.397 . S
C16 C17 1.378 . S
C17 C16 1.378 . S
C17 C18 1.378 . S
C18 H3 0.940 . S
C18 C17 1.378 . S
C18 C19 1.396 . S
C19 H4 0.940 . S
C19 C14 1.391 . S
C19 C18 1.396 . S
C20 P0 1.803 . S
C20 C21 1.378 . S
C20 C25 1.400 . S
C21 H5 0.939 . S
C21 C20 1.378 . S
C21 C22 1.361 . S
C22 H6 0.942 . S
C22 C21 1.361 . S
C22 C23 1.369 . S
C23 C22 1.369 . S
C23 C24 1.404 . S
C24 H7 0.940 . S
C24 C23 1.404 . S
C24 C25 1.389 . S
C25 H8 0.939 . S
C25 C20 1.400 . S
C25 C24 1.389 . S
C26 P0 1.819 . S
C26 C27 1.391 . S
C26 C31 1.391 . S
C27 H9 0.941 . S
C27 C26 1.391 . S
C27 C28 1.396 . S
C28 H12 0.939 . S
C28 C27 1.396 . S
C28 C29 1.397 . S
C29 C28 1.397 . S
C29 C30 1.385 . S
C30 H13 0.940 . S
C30 C29 1.385 . S
C30 C31 1.388 . S
C31 H10 0.939 . S
C31 C26 1.391 . S
C31 C30 1.388 . S
P32 O43 1.490 . S
P32 C46 1.812 . S
P32 C52 1.803 . S
P32 C58 1.819 . S
H33 C47 0.941 . S
H34 C48 0.939 . S
H35 C50 0.940 . S
H36 C51 0.940 . S
H37 C53 0.939 . S
H38 C54 0.942 . S
H39 C56 0.940 . S
H40 C57 0.939 . S
H41 C59 0.941 . S
H42 C63 0.939 . S
O43 P32 1.490 . S
H44 C60 0.939 . S
H45 C62 0.940 . S
C46 P32 1.812 . S
C46 C47 1.389 . S
C46 C51 1.391 . S
C47 H33 0.941 . S
C47 C46 1.389 . S
C47 C48 1.397 . S
C48 H34 0.939 . S
C48 C47 1.397 . S
C48 C49 1.378 . S
C49 C48 1.378 . S
C49 C50 1.378 . S
C50 H35 0.940 . S
C50 C49 1.378 . S
C50 C51 1.396 . S
C51 H36 0.940 . S
C51 C46 1.391 . S
C51 C50 1.396 . S
C52 P32 1.803 . S
C52 C53 1.378 . S
C52 C57 1.400 . S
C53 H37 0.939 . S
C53 C52 1.378 . S
C53 C54 1.361 . S
C54 H38 0.942 . S
C54 C53 1.361 . S
C54 C55 1.369 . S
C55 C54 1.369 . S
C55 C56 1.404 . S
C56 H39 0.940 . S
C56 C55 1.404 . S
C56 C57 1.389 . S
C57 H40 0.939 . S
C57 C52 1.400 . S
C57 C56 1.389 . S
C58 P32 1.819 . S
C58 C59 1.391 . S
C58 C63 1.391 . S
C59 H41 0.941 . S
C59 C58 1.391 . S
C59 C60 1.396 . S
C60 H44 0.939 . S
C60 C59 1.396 . S
C60 C61 1.397 . S
C61 C60 1.397 . S
C61 C62 1.385 . S
C62 H45 0.940 . S
C62 C61 1.385 . S
C62 C63 1.388 . S
C63 H42 0.939 . S
C63 C58 1.391 . S
C63 C62 1.388 . S
P64 O75 1.490 . S
P64 C78 1.812 . S
P64 C84 1.803 . S
P64 C90 1.819 . S
H65 C79 0.941 . S
H66 C80 0.939 . S
H67 C82 0.940 . S
H68 C83 0.940 . S
H69 C85 0.939 . S
H70 C86 0.942 . S
H71 C88 0.940 . S
H72 C89 0.939 . S
H73 C91 0.941 . S
H74 C95 0.939 . S
O75 P64 1.490 . S
H76 C92 0.939 . S
H77 C94 0.940 . S
C78 P64 1.812 . S
C78 C79 1.389 . S
C78 C83 1.391 . S
C79 H65 0.941 . S
C79 C78 1.389 . S
C79 C80 1.397 . S
C80 H66 0.939 . S
C80 C79 1.397 . S
C80 C81 1.378 . S
C81 C80 1.378 . S
C81 C82 1.378 . S
C82 H67 0.940 . S
C82 C81 1.378 . S
C82 C83 1.396 . S
C83 H68 0.940 . S
C83 C78 1.391 . S
C83 C82 1.396 . S
C84 P64 1.803 . S
C84 C85 1.378 . S
C84 C89 1.400 . S
C85 H69 0.939 . S
C85 C84 1.378 . S
C85 C86 1.361 . S
C86 H70 0.942 . S
C86 C85 1.361 . S
C86 C87 1.369 . S
C87 C86 1.369 . S
C87 C88 1.404 . S
C88 H71 0.940 . S
C88 C87 1.404 . S
C88 C89 1.389 . S
C89 H72 0.939 . S
C89 C84 1.400 . S
C89 C88 1.389 . S
C90 P64 1.819 . S
C90 C91 1.391 . S
C90 C95 1.391 . S
C91 H73 0.941 . S
C91 C90 1.391 . S
C91 C92 1.396 . S
C92 H76 0.939 . S
C92 C91 1.396 . S
C92 C93 1.397 . S
C93 C92 1.397 . S
C93 C94 1.385 . S
C94 H77 0.940 . S
C94 C93 1.385 . S
C94 C95 1.388 . S
C95 H74 0.939 . S
C95 C90 1.391 . S
C95 C94 1.388 . S
P96 O107 1.490 . S
P96 C110 1.812 . S
P96 C116 1.803 . S
P96 C122 1.819 . S
H97 C111 0.941 . S
H98 C112 0.939 . S
H99 C114 0.940 . S
H100 C115 0.940 . S
H101 C117 0.939 . S
H102 C118 0.942 . S
H103 C120 0.940 . S
H104 C121 0.939 . S
H105 C123 0.941 . S
H106 C127 0.939 . S
O107 P96 1.490 . S
H108 C124 0.939 . S
H109 C126 0.940 . S
C110 P96 1.812 . S
C110 C111 1.389 . S
C110 C115 1.391 . S
C111 H97 0.941 . S
C111 C110 1.389 . S
C111 C112 1.397 . S
C112 H98 0.939 . S
C112 C111 1.397 . S
C112 C113 1.378 . S
C113 C112 1.378 . S
C113 C114 1.378 . S
C114 H99 0.940 . S
C114 C113 1.378 . S
C114 C115 1.396 . S
C115 H100 0.940 . S
C115 C110 1.391 . S
C115 C114 1.396 . S
C116 P96 1.803 . S
C116 C117 1.378 . S
C116 C121 1.400 . S
C117 H101 0.939 . S
C117 C116 1.378 . S
C117 C118 1.361 . S
C118 H102 0.942 . S
C118 C117 1.361 . S
C118 C119 1.369 . S
C119 C118 1.369 . S
C119 C120 1.404 . S
C120 H103 0.940 . S
C120 C119 1.404 . S
C120 C121 1.389 . S
C121 H104 0.939 . S
C121 C116 1.400 . S
C121 C120 1.389 . S
C122 P96 1.819 . S
C122 C123 1.391 . S
C122 C127 1.391 . S
C123 H105 0.941 . S
C123 C122 1.391 . S
C123 C124 1.396 . S
C124 H108 0.939 . S
C124 C123 1.396 . S
C124 C125 1.397 . S
C125 C124 1.397 . S
C125 C126 1.385 . S
C126 H109 0.940 . S
C126 C125 1.385 . S
C126 C127 1.388 . S
C127 H106 0.939 . S
C127 C122 1.391 . S
C127 C126 1.388 . S
P128 O139 1.490 . S
P128 C142 1.812 . S
P128 C148 1.803 . S
P128 C154 1.819 . S
H129 C143 0.941 . S
H130 C144 0.939 . S
H131 C146 0.940 . S
H132 C147 0.940 . S
H133 C149 0.939 . S
H134 C150 0.942 . S
H135 C152 0.940 . S
H136 C153 0.939 . S
H137 C155 0.941 . S
H138 C159 0.939 . S
O139 P128 1.490 . S
H140 C156 0.939 . S
H141 C158 0.940 . S
C142 P128 1.812 . S
C142 C143 1.389 . S
C142 C147 1.391 . S
C143 H129 0.941 . S
C143 C142 1.389 . S
C143 C144 1.397 . S
C144 H130 0.939 . S
C144 C143 1.397 . S
C144 C145 1.378 . S
C145 C144 1.378 . S
C145 C146 1.378 . S
C146 H131 0.940 . S
C146 C145 1.378 . S
C146 C147 1.396 . S
C147 H132 0.940 . S
C147 C142 1.391 . S
C147 C146 1.396 . S
C148 P128 1.803 . S
C148 C149 1.378 . S
C148 C153 1.400 . S
C149 H133 0.939 . S
C149 C148 1.378 . S
C149 C150 1.361 . S
C150 H134 0.942 . S
C150 C149 1.361 . S
C150 C151 1.369 . S
C151 C150 1.369 . S
C151 C152 1.404 . S
C152 H135 0.940 . S
C152 C151 1.404 . S
C152 C153 1.389 . S
C153 H136 0.939 . S
C153 C148 1.400 . S
C153 C152 1.389 . S
C154 P128 1.819 . S
C154 C155 1.391 . S
C154 C159 1.391 . S
C155 H137 0.941 . S
C155 C154 1.391 . S
C155 C156 1.396 . S
C156 H140 0.939 . S
C156 C155 1.396 . S
C156 C157 1.397 . S
C157 C156 1.397 . S
C157 C158 1.385 . S
C158 H141 0.940 . S
C158 C157 1.385 . S
C158 C159 1.388 . S
C159 H138 0.939 . S
C159 C154 1.391 . S
C159 C158 1.388 . S
P160 O171 1.490 . S
P160 C174 1.812 . S
P160 C180 1.803 . S
P160 C186 1.819 . S
H161 C175 0.941 . S
H162 C176 0.939 . S
H163 C178 0.940 . S
H164 C179 0.940 . S
H165 C181 0.939 . S
H166 C182 0.942 . S
H167 C184 0.940 . S
H168 C185 0.939 . S
H169 C187 0.941 . S
H170 C191 0.939 . S
O171 P160 1.490 . S
H172 C188 0.939 . S
H173 C190 0.940 . S
C174 P160 1.812 . S
C174 C175 1.389 . S
C174 C179 1.391 . S
C175 H161 0.941 . S
C175 C174 1.389 . S
C175 C176 1.397 . S
C176 H162 0.939 . S
C176 C175 1.397 . S
C176 C177 1.378 . S
C177 C176 1.378 . S
C177 C178 1.378 . S
C178 H163 0.940 . S
C178 C177 1.378 . S
C178 C179 1.396 . S
C179 H164 0.940 . S
C179 C174 1.391 . S
C179 C178 1.396 . S
C180 P160 1.803 . S
C180 C181 1.378 . S
C180 C185 1.400 . S
C181 H165 0.939 . S
C181 C180 1.378 . S
C181 C182 1.361 . S
C182 H166 0.942 . S
C182 C181 1.361 . S
C182 C183 1.369 . S
C183 C182 1.369 . S
C183 C184 1.404 . S
C184 H167 0.940 . S
C184 C183 1.404 . S
C184 C185 1.389 . S
C185 H168 0.939 . S
C185 C180 1.400 . S
C185 C184 1.389 . S
C186 P160 1.819 . S
C186 C187 1.391 . S
C186 C191 1.391 . S
C187 H169 0.941 . S
C187 C186 1.391 . S
C187 C188 1.396 . S
C188 H172 0.939 . S
C188 C187 1.396 . S
C188 C189 1.397 . S
C189 C188 1.397 . S
C189 C190 1.385 . S
C190 H173 0.940 . S
C190 C189 1.385 . S
C190 C191 1.388 . S
C191 H170 0.939 . S
C191 C186 1.391 . S
C191 C190 1.388 . S
P192 O203 1.490 . S
P192 C206 1.812 . S
P192 C212 1.803 . S
P192 C218 1.819 . S
H193 C207 0.941 . S
H194 C208 0.939 . S
H195 C210 0.940 . S
H196 C211 0.940 . S
H197 C213 0.939 . S
H198 C214 0.942 . S
H199 C216 0.940 . S
H200 C217 0.939 . S
H201 C219 0.941 . S
H202 C223 0.939 . S
O203 P192 1.490 . S
H204 C220 0.939 . S
H205 C222 0.940 . S
C206 P192 1.812 . S
C206 C207 1.389 . S
C206 C211 1.391 . S
C207 H193 0.941 . S
C207 C206 1.389 . S
C207 C208 1.397 . S
C208 H194 0.939 . S
C208 C207 1.397 . S
C208 C209 1.378 . S
C209 C208 1.378 . S
C209 C210 1.378 . S
C210 H195 0.940 . S
C210 C209 1.378 . S
C210 C211 1.396 . S
C211 H196 0.940 . S
C211 C206 1.391 . S
C211 C210 1.396 . S
C212 P192 1.803 . S
C212 C213 1.378 . S
C212 C217 1.400 . S
C213 H197 0.939 . S
C213 C212 1.378 . S
C213 C214 1.361 . S
C214 H198 0.942 . S
C214 C213 1.361 . S
C214 C215 1.369 . S
C215 C214 1.369 . S
C215 C216 1.404 . S
C216 H199 0.940 . S
C216 C215 1.404 . S
C216 C217 1.389 . S
C217 H200 0.939 . S
C217 C212 1.400 . S
C217 C216 1.389 . S
C218 P192 1.819 . S
C218 C219 1.391 . S
C218 C223 1.391 . S
C219 H201 0.941 . S
C219 C218 1.391 . S
C219 C220 1.396 . S
C220 H204 0.939 . S
C220 C219 1.396 . S
C220 C221 1.397 . S
C221 C220 1.397 . S
C221 C222 1.385 . S
C222 H205 0.940 . S
C222 C221 1.385 . S
C222 C223 1.388 . S
C223 H202 0.939 . S
C223 C218 1.391 . S
C223 C222 1.388 . S
P224 O235 1.490 . S
P224 C238 1.812 . S
P224 C244 1.803 . S
P224 C250 1.819 . S
H225 C239 0.941 . S
H226 C240 0.939 . S
H227 C242 0.940 . S
H228 C243 0.940 . S
H229 C245 0.939 . S
H230 C246 0.942 . S
H231 C248 0.940 . S
H232 C249 0.939 . S
H233 C251 0.941 . S
H234 C255 0.939 . S
O235 P224 1.490 . S
H236 C252 0.939 . S
H237 C254 0.940 . S
C238 P224 1.812 . S
C238 C239 1.389 . S
C238 C243 1.391 . S
C239 H225 0.941 . S
C239 C238 1.389 . S
C239 C240 1.397 . S
C240 H226 0.939 . S
C240 C239 1.397 . S
C240 C241 1.378 . S
C241 C240 1.378 . S
C241 C242 1.378 . S
C242 H227 0.940 . S
C242 C241 1.378 . S
C242 C243 1.396 . S
C243 H228 0.940 . S
C243 C238 1.391 . S
C243 C242 1.396 . S
C244 P224 1.803 . S
C244 C245 1.378 . S
C244 C249 1.400 . S
C245 H229 0.939 . S
C245 C244 1.378 . S
C245 C246 1.361 . S
C246 H230 0.942 . S
C246 C245 1.361 . S
C246 C247 1.369 . S
C247 C246 1.369 . S
C247 C248 1.404 . S
C248 H231 0.940 . S
C248 C247 1.404 . S
C248 C249 1.389 . S
C249 H232 0.939 . S
C249 C244 1.400 . S
C249 C248 1.389 . S
C250 P224 1.819 . S
C250 C251 1.391 . S
C250 C255 1.391 . S
C251 H233 0.941 . S
C251 C250 1.391 . S
C251 C252 1.396 . S
C252 H236 0.939 . S
C252 C251 1.396 . S
C252 C253 1.397 . S
C253 C252 1.397 . S
C253 C254 1.385 . S
C254 H237 0.940 . S
C254 C253 1.385 . S
C254 C255 1.388 . S
C255 H234 0.939 . S
C255 C250 1.391 . S
C255 C254 1.388 . S
Pr256 C258 2.880 . S
Pr256 O276 2.562 . S
Pr256 O277 2.490 . S
Pr256 O278 2.695 1_665 S
Pr256 O279 2.512 1_665 S
Pr256 O281 2.437 1_655 S
Pr256 O284 2.436 . S
Pr256 O286 2.438 1_565 S
Pr257 C267 2.880 . S
Pr257 O278 2.436 . S
Pr257 O280 2.438 1_545 S
Pr257 O282 2.562 . S
Pr257 O283 2.490 . S
Pr257 O284 2.695 1_445 S
Pr257 O285 2.512 1_545 S
Pr257 O287 2.437 1_455 S
C258 Pr256 2.880 . S
C258 C259 1.491 . S
C258 O276 1.254 . S
C258 O277 1.225 . S
C259 C258 1.491 . S
C259 C260 1.392 . S
C259 C264 1.356 . S
C260 C259 1.392 . S
C260 C261 1.368 . S
C260 H288 0.929 . S
C261 C260 1.368 . S
C261 C262 1.386 . S
C261 H289 0.929 . S
C262 C261 1.386 . S
C262 C263 1.373 . S
C263 C262 1.373 . S
C263 C264 1.409 . S
C263 H290 0.931 . S
C264 C259 1.356 . S
C264 C263 1.409 . S
C264 H291 0.930 . S
C265 O278 1.270 . S
C265 O279 1.248 . S
C266 O280 1.267 . S
C266 O281 1.278 . S
C267 Pr257 2.880 . S
C267 C268 1.491 . S
C267 O282 1.254 . S
C267 O283 1.225 . S
C268 C267 1.491 . S
C268 C269 1.392 . S
C268 C273 1.356 . S
C269 C268 1.392 . S
C269 C270 1.368 . S
C269 H292 0.929 . S
C270 C269 1.368 . S
C270 C271 1.386 . S
C270 H293 0.929 . S
C271 C270 1.386 . S
C271 C272 1.373 . S
C272 C271 1.373 . S
C272 C273 1.409 . S
C272 H294 0.931 . S
C273 C268 1.356 . S
C273 C272 1.409 . S
C273 H295 0.930 . S
C274 O284 1.270 . S
C274 O285 1.248 1_655 S
C275 O286 1.267 . S
C275 O287 1.278 . S
O276 Pr256 2.562 . S
O276 C258 1.254 . S
O277 Pr256 2.490 . S
O277 C258 1.225 . S
O278 Pr256 2.695 1_445 S
O278 Pr257 2.436 . S
O278 C265 1.270 . S
O279 Pr256 2.512 1_445 S
O279 C265 1.248 . S
O280 Pr257 2.438 1_565 S
O280 C266 1.267 . S
O281 Pr256 2.437 1_455 S
O281 C266 1.278 . S
O282 Pr257 2.562 . S
O282 C267 1.254 . S
O283 Pr257 2.490 . S
O283 C267 1.225 . S
O284 Pr256 2.436 . S
O284 Pr257 2.695 1_665 S
O284 C274 1.270 . S
O285 Pr257 2.512 1_565 S
O285 C274 1.248 1_455 S
O286 Pr256 2.438 1_545 S
O286 C275 1.267 . S
O287 Pr257 2.437 1_655 S
O287 C275 1.278 . S
H288 C260 0.929 . S
H289 C261 0.929 . S
H290 C263 0.931 . S
H291 C264 0.930 . S
H292 C269 0.929 . S
H293 C270 0.929 . S
H294 C272 0.931 . S
H295 C273 0.930 . S
Pr296 C298 2.880 . S
Pr296 O316 2.562 . S
Pr296 O317 2.490 . S
Pr296 O318 2.695 1_554 S
Pr296 O319 2.512 1_554 S
Pr296 O321 2.437 . S
Pr296 O324 2.436 1_545 S
Pr296 O326 2.438 1_544 S
Pr297 C307 2.880 1_554 S
Pr297 O318 2.436 1_564 S
Pr297 O320 2.438 1_565 S
Pr297 O322 2.562 1_554 S
Pr297 O323 2.490 1_554 S
Pr297 O324 2.695 . S
Pr297 O325 2.512 . S
Pr297 O327 2.437 1_554 S
C298 Pr296 2.880 . S
C298 C299 1.491 . S
C298 O316 1.254 . S
C298 O317 1.225 . S
C299 C298 1.491 . S
C299 C300 1.392 . S
C299 C304 1.356 . S
C300 C299 1.392 . S
C300 C301 1.368 . S
C300 H328 0.929 . S
C301 C300 1.368 . S
C301 C302 1.386 . S
C301 H329 0.929 . S
C302 C301 1.386 . S
C302 C303 1.373 . S
C303 C302 1.373 . S
C303 C304 1.409 . S
C303 H330 0.931 . S
C304 C299 1.356 . S
C304 C303 1.409 . S
C304 H331 0.930 . S
C305 O318 1.270 . S
C305 O319 1.248 . S
C306 O320 1.267 . S
C306 O321 1.278 . S
C307 Pr297 2.880 1_556 S
C307 C308 1.491 . S
C307 O322 1.254 . S
C307 O323 1.225 . S
C308 C307 1.491 . S
C308 C309 1.392 . S
C308 C313 1.356 . S
C309 C308 1.392 . S
C309 C310 1.368 . S
C309 H332 0.929 . S
C310 C309 1.368 . S
C310 C311 1.386 . S
C310 H333 0.929 . S
C311 C310 1.386 . S
C311 C312 1.373 . S
C312 C311 1.373 . S
C312 C313 1.409 . S
C312 H334 0.931 . S
C313 C308 1.356 . S
C313 C312 1.409 . S
C313 H335 0.930 . S
C314 O324 1.270 . S
C314 O325 1.248 . S
C315 O326 1.267 . S
C315 O327 1.278 . S
O316 Pr296 2.562 . S
O316 C298 1.254 . S
O317 Pr296 2.490 . S
O317 C298 1.225 . S
O318 Pr296 2.695 1_556 S
O318 Pr297 2.436 1_546 S
O318 C305 1.270 . S
O319 Pr296 2.512 1_556 S
O319 C305 1.248 . S
O320 Pr297 2.438 1_545 S
O320 C306 1.267 . S
O321 Pr296 2.437 . S
O321 C306 1.278 . S
O322 Pr297 2.562 1_556 S
O322 C307 1.254 . S
O323 Pr297 2.490 1_556 S
O323 C307 1.225 . S
O324 Pr296 2.436 1_565 S
O324 Pr297 2.695 . S
O324 C314 1.270 . S
O325 Pr297 2.512 . S
O325 C314 1.248 . S
O326 Pr296 2.438 1_566 S
O326 C315 1.267 . S
O327 Pr297 2.437 1_556 S
O327 C315 1.278 . S
H328 C300 0.929 . S
H329 C301 0.929 . S
H330 C303 0.931 . S
H331 C304 0.930 . S
H332 C309 0.929 . S
H333 C310 0.929 . S
H334 C312 0.931 . S
H335 C313 0.930 . S
Pr336 C338 2.880 . S
Pr336 O356 2.562 . S
Pr336 O357 2.490 . S
Pr336 O358 2.695 . S
Pr336 O359 2.512 . S
Pr336 O361 2.437 . S
Pr336 O364 2.436 . S
Pr336 O366 2.438 . S
Pr337 C347 2.880 . S
Pr337 O358 2.436 . S
Pr337 O360 2.438 . S
Pr337 O362 2.562 . S
Pr337 O363 2.490 . S
Pr337 O364 2.695 . S
Pr337 O365 2.512 . S
Pr337 O367 2.437 . S
C338 Pr336 2.880 . S
C338 C339 1.491 . S
C338 O356 1.254 . S
C338 O357 1.225 . S
C339 C338 1.491 . S
C339 C340 1.392 . S
C339 C344 1.356 . S
C340 C339 1.392 . S
C340 C341 1.368 . S
C340 H368 0.929 . S
C341 C340 1.368 . S
C341 C342 1.386 . S
C341 H369 0.929 . S
C342 C341 1.386 . S
C342 C343 1.373 . S
C343 C342 1.373 . S
C343 C344 1.409 . S
C343 H370 0.931 . S
C344 C339 1.356 . S
C344 C343 1.409 . S
C344 H371 0.930 . S
C345 O358 1.270 . S
C345 O359 1.248 . S
C346 O360 1.267 . S
C346 O361 1.278 . S
C347 Pr337 2.880 . S
C347 C348 1.491 . S
C347 O362 1.254 . S
C347 O363 1.225 . S
C348 C347 1.491 . S
C348 C349 1.392 . S
C348 C353 1.356 . S
C349 C348 1.392 . S
C349 C350 1.368 . S
C349 H372 0.929 . S
C350 C349 1.368 . S
C350 C351 1.386 . S
C350 H373 0.929 . S
C351 C350 1.386 . S
C351 C352 1.373 . S
C352 C351 1.373 . S
C352 C353 1.409 . S
C352 H374 0.931 . S
C353 C348 1.356 . S
C353 C352 1.409 . S
C353 H375 0.930 . S
C354 O364 1.270 . S
C354 O365 1.248 . S
C355 O366 1.267 . S
C355 O367 1.278 . S
O356 Pr336 2.562 . S
O356 C338 1.254 . S
O357 Pr336 2.490 . S
O357 C338 1.225 . S
O358 Pr336 2.695 . S
O358 Pr337 2.436 . S
O358 C345 1.270 . S
O359 Pr336 2.512 . S
O359 C345 1.248 . S
O360 Pr337 2.438 . S
O360 C346 1.267 . S
O361 Pr336 2.437 . S
O361 C346 1.278 . S
O362 Pr337 2.562 . S
O362 C347 1.254 . S
O363 Pr337 2.490 . S
O363 C347 1.225 . S
O364 Pr336 2.436 . S
O364 Pr337 2.695 . S
O364 C354 1.270 . S
O365 Pr337 2.512 . S
O365 C354 1.248 . S
O366 Pr336 2.438 . S
O366 C355 1.267 . S
O367 Pr337 2.437 . S
O367 C355 1.278 . S
H368 C340 0.929 . S
H369 C341 0.929 . S
H370 C343 0.931 . S
H371 C344 0.930 . S
H372 C349 0.929 . S
H373 C350 0.929 . S
H374 C352 0.931 . S
H375 C353 0.930 . S
Pr376 C378 2.897 . S
Pr376 O396 2.583 . S
Pr376 O397 2.500 . S
Pr376 O398 2.684 1_656 S
Pr376 O399 2.500 1_656 S
Pr376 O401 2.449 1_556 S
Pr376 O404 2.443 . S
Pr376 O406 2.421 1_655 S
Pr377 C387 2.880 . S
Pr377 O398 2.436 . S
Pr377 O400 2.438 1_455 S
Pr377 O402 2.562 . S
Pr377 O403 2.490 . S
Pr377 O404 2.695 1_454 S
Pr377 O405 2.512 1_454 S
Pr377 O407 2.437 1_554 S
C378 Pr376 2.897 . S
C378 C379 1.491 . S
C378 O396 1.254 . S
C378 O397 1.225 . S
C379 C378 1.491 . S
C379 C380 1.392 . S
C379 C384 1.356 . S
C380 C379 1.392 . S
C380 C381 1.368 . S
C380 H408 0.929 . S
C381 C380 1.368 . S
C381 C382 1.386 . S
C381 H409 0.929 . S
C382 C381 1.386 . S
C382 C383 1.373 . S
C383 C382 1.373 . S
C383 C384 1.409 . S
C383 H410 0.931 . S
C384 C379 1.356 . S
C384 C383 1.409 . S
C384 H411 0.930 . S
C385 O398 1.270 . S
C385 O399 1.248 . S
C386 O400 1.267 . S
C386 O401 1.278 . S
C387 Pr377 2.880 . S
C387 C388 1.491 . S
C387 O402 1.254 . S
C387 O403 1.225 . S
C388 C387 1.491 . S
C388 C389 1.392 . S
C388 C393 1.356 . S
C389 C388 1.392 . S
C389 C390 1.368 . S
C389 H412 0.929 . S
C390 C389 1.368 . S
C390 C391 1.386 . S
C390 H413 0.929 . S
C391 C390 1.386 . S
C391 C392 1.373 . S
C392 C391 1.373 . S
C392 C393 1.409 . S
C392 H414 0.931 . S
C393 C388 1.356 . S
C393 C392 1.409 . S
C393 H415 0.930 . S
C394 O404 1.270 . S
C394 O405 1.248 . S
C395 O406 1.267 . S
C395 O407 1.278 . S
O396 Pr376 2.583 . S
O396 C378 1.254 . S
O397 Pr376 2.500 . S
O397 C378 1.225 . S
O398 Pr376 2.684 1_454 S
O398 Pr377 2.436 . S
O398 C385 1.270 . S
O399 Pr376 2.500 1_454 S
O399 C385 1.248 . S
O400 Pr377 2.438 1_655 S
O400 C386 1.267 . S
O401 Pr376 2.449 1_554 S
O401 C386 1.278 . S
O402 Pr377 2.562 . S
O402 C387 1.254 . S
O403 Pr377 2.490 . S
O403 C387 1.225 . S
O404 Pr376 2.443 . S
O404 Pr377 2.695 1_656 S
O404 C394 1.270 . S
O405 Pr377 2.512 1_656 S
O405 C394 1.248 . S
O406 Pr376 2.421 1_455 S
O406 C395 1.267 . S
O407 Pr377 2.437 1_556 S
O407 C395 1.278 . S
H408 C380 0.929 . S
H409 C381 0.929 . S
H410 C383 0.931 . S
H411 C384 0.930 . S
H412 C389 0.929 . S
H413 C390 0.929 . S
H414 C392 0.931 . S
H415 C393 0.930 . S
H416 C428 0.930 . S
H417 C430 0.930 . S
H418 C431 0.930 . S
H419 C435 0.959 . S
H420 C435 0.959 . S
H421 C435 0.961 . S
H422 C436 0.960 . S
H423 C436 0.961 . S
H424 C436 0.959 . S
H425 C439 0.929 . S
H426 C440 0.931 . S
H427 C442 0.930 . S
C428 H416 0.930 . S
C428 C429 1.399 . S
C428 C433 1.399 . S
C429 C428 1.399 . S
C429 C430 1.376 . S
C430 H417 0.930 . S
C430 C429 1.376 . S
C430 C431 1.388 . S
C431 H418 0.930 . S
C431 C430 1.388 . S
C431 C432 1.390 . S
C432 C431 1.390 . S
C432 C433 1.394 . S
C432 C438 1.465 . S
C433 C428 1.399 . S
C433 C432 1.394 . S
C433 C434 1.516 . S
C434 C433 1.516 . S
C434 C435 1.502 . S
C434 C436 1.561 . S
C434 C437 1.526 . S
C435 H419 0.959 . S
C435 H420 0.959 . S
C435 H421 0.961 . S
C435 C434 1.502 . S
C436 H422 0.960 . S
C436 H423 0.961 . S
C436 H424 0.959 . S
C436 C434 1.561 . S
C437 C434 1.526 . S
C437 C438 1.396 . S
C437 C442 1.390 . S
C438 C432 1.465 . S
C438 C437 1.396 . S
C438 C439 1.399 . S
C439 H425 0.929 . S
C439 C438 1.399 . S
C439 C440 1.385 . S
C440 H426 0.931 . S
C440 C439 1.385 . S
C440 C441 1.389 . S
C441 C440 1.389 . S
C441 C442 1.387 . S
C442 H427 0.930 . S
C442 C437 1.390 . S
C442 C441 1.387 . S
H443 C455 0.930 . S
H444 C457 0.930 . S
H445 C458 0.930 . S
H446 C462 0.959 . S
H447 C462 0.959 . S
H448 C462 0.961 . S
H449 C463 0.960 . S
H450 C463 0.961 . S
H451 C463 0.959 . S
H452 C466 0.929 . S
H453 C467 0.931 . S
H454 C469 0.930 . S
C455 H443 0.930 . S
C455 C456 1.399 . S
C455 C460 1.399 . S
C456 C455 1.399 . S
C456 C457 1.376 . S
C457 H444 0.930 . S
C457 C456 1.376 . S
C457 C458 1.388 . S
C458 H445 0.930 . S
C458 C457 1.388 . S
C458 C459 1.390 . S
C459 C458 1.390 . S
C459 C460 1.394 . S
C459 C465 1.465 . S
C460 C455 1.399 . S
C460 C459 1.394 . S
C460 C461 1.516 . S
C461 C460 1.516 . S
C461 C462 1.502 . S
C461 C463 1.561 . S
C461 C464 1.526 . S
C462 H446 0.959 . S
C462 H447 0.959 . S
C462 H448 0.961 . S
C462 C461 1.502 . S
C463 H449 0.960 . S
C463 H450 0.961 . S
C463 H451 0.959 . S
C463 C461 1.561 . S
C464 C461 1.526 . S
C464 C465 1.396 . S
C464 C469 1.390 . S
C465 C459 1.465 . S
C465 C464 1.396 . S
C465 C466 1.399 . S
C466 H452 0.929 . S
C466 C465 1.399 . S
C466 C467 1.385 . S
C467 H453 0.931 . S
C467 C466 1.385 . S
C467 C468 1.389 . S
C468 C467 1.389 . S
C468 C469 1.387 . S
C469 H454 0.930 . S
C469 C464 1.390 . S
C469 C468 1.387 . S
H470 C482 0.930 . S
H471 C484 0.930 . S
H472 C485 0.930 . S
H473 C489 0.959 . S
H474 C489 0.959 . S
H475 C489 0.961 . S
H476 C490 0.960 . S
H477 C490 0.961 . S
H478 C490 0.959 . S
H479 C493 0.929 . S
H480 C494 0.931 . S
H481 C496 0.930 . S
C482 H470 0.930 . S
C482 C483 1.399 . S
C482 C487 1.399 . S
C483 C482 1.399 . S
C483 C484 1.376 . S
C484 H471 0.930 . S
C484 C483 1.376 . S
C484 C485 1.388 . S
C485 H472 0.930 . S
C485 C484 1.388 . S
C485 C486 1.390 . S
C486 C485 1.390 . S
C486 C487 1.394 . S
C486 C492 1.465 . S
C487 C482 1.399 . S
C487 C486 1.394 . S
C487 C488 1.516 . S
C488 C487 1.516 . S
C488 C489 1.502 . S
C488 C490 1.561 . S
C488 C491 1.526 . S
C489 H473 0.959 . S
C489 H474 0.959 . S
C489 H475 0.961 . S
C489 C488 1.502 . S
C490 H476 0.960 . S
C490 H477 0.961 . S
C490 H478 0.959 . S
C490 C488 1.561 . S
C491 C488 1.526 . S
C491 C492 1.396 . S
C491 C496 1.390 . S
C492 C486 1.465 . S
C492 C491 1.396 . S
C492 C493 1.399 . S
C493 H479 0.929 . S
C493 C492 1.399 . S
C493 C494 1.385 . S
C494 H480 0.931 . S
C494 C493 1.385 . S
C494 C495 1.389 . S
C495 C494 1.389 . S
C495 C496 1.387 . S
C496 H481 0.930 . S
C496 C491 1.390 . S
C496 C495 1.387 . S
H497 C509 0.930 . S
H498 C511 0.930 . S
H499 C512 0.930 . S
H500 C516 0.959 . S
H501 C516 0.959 . S
H502 C516 0.961 . S
H503 C517 0.960 . S
H504 C517 0.961 . S
H505 C517 0.959 . S
H506 C520 0.929 . S
H507 C521 0.931 . S
H508 C523 0.930 . S
C509 H497 0.930 . S
C509 C510 1.399 . S
C509 C514 1.399 . S
C510 C509 1.399 . S
C510 C511 1.376 . S
C511 H498 0.930 . S
C511 C510 1.376 . S
C511 C512 1.388 . S
C512 H499 0.930 . S
C512 C511 1.388 . S
C512 C513 1.390 . S
C513 C512 1.390 . S
C513 C514 1.394 . S
C513 C519 1.465 . S
C514 C509 1.399 . S
C514 C513 1.394 . S
C514 C515 1.516 . S
C515 C514 1.516 . S
C515 C516 1.502 . S
C515 C517 1.561 . S
C515 C518 1.526 . S
C516 H500 0.959 . S
C516 H501 0.959 . S
C516 H502 0.961 . S
C516 C515 1.502 . S
C517 H503 0.960 . S
C517 H504 0.961 . S
C517 H505 0.959 . S
C517 C515 1.561 . S
C518 C515 1.526 . S
C518 C519 1.396 . S
C518 C523 1.390 . S
C519 C513 1.465 . S
C519 C518 1.396 . S
C519 C520 1.399 . S
C520 H506 0.929 . S
C520 C519 1.399 . S
C520 C521 1.385 . S
C521 H507 0.931 . S
C521 C520 1.385 . S
C521 C522 1.389 . S
C522 C521 1.389 . S
C522 C523 1.387 . S
C523 H508 0.930 . S
C523 C518 1.390 . S
C523 C522 1.387 . S
H524 C536 0.930 . S
H525 C538 0.930 . S
H526 C539 0.930 . S
H527 C543 0.959 . S
H528 C543 0.959 . S
H529 C543 0.961 . S
H530 C544 0.960 . S
H531 C544 0.961 . S
H532 C544 0.959 . S
H533 C547 0.929 . S
H534 C548 0.931 . S
H535 C550 0.930 . S
C536 H524 0.930 . S
C536 C537 1.399 . S
C536 C541 1.399 . S
C537 C536 1.399 . S
C537 C538 1.376 . S
C538 H525 0.930 . S
C538 C537 1.376 . S
C538 C539 1.388 . S
C539 H526 0.930 . S
C539 C538 1.388 . S
C539 C540 1.390 . S
C540 C539 1.390 . S
C540 C541 1.394 . S
C540 C546 1.465 . S
C541 C536 1.399 . S
C541 C540 1.394 . S
C541 C542 1.516 . S
C542 C541 1.516 . S
C542 C543 1.502 . S
C542 C544 1.561 . S
C542 C545 1.526 . S
C543 H527 0.959 . S
C543 H528 0.959 . S
C543 H529 0.961 . S
C543 C542 1.502 . S
C544 H530 0.960 . S
C544 H531 0.961 . S
C544 H532 0.959 . S
C544 C542 1.561 . S
C545 C542 1.526 . S
C545 C546 1.396 . S
C545 C550 1.390 . S
C546 C540 1.465 . S
C546 C545 1.396 . S
C546 C547 1.399 . S
C547 H533 0.929 . S
C547 C546 1.399 . S
C547 C548 1.385 . S
C548 H534 0.931 . S
C548 C547 1.385 . S
C548 C549 1.389 . S
C549 C548 1.389 . S
C549 C550 1.387 . S
C550 H535 0.930 . S
C550 C545 1.390 . S
C550 C549 1.387 . S
H551 C563 0.930 . S
H552 C565 0.930 . S
H553 C566 0.930 . S
H554 C570 0.959 . S
H555 C570 0.959 . S
H556 C570 0.961 . S
H557 C571 0.960 . S
H558 C571 0.961 . S
H559 C571 0.959 . S
H560 C574 0.929 . S
H561 C575 0.931 . S
H562 C577 0.930 . S
C563 H551 0.930 . S
C563 C564 1.399 . S
C563 C568 1.399 . S
C564 C563 1.399 . S
C564 C565 1.376 . S
C565 H552 0.930 . S
C565 C564 1.376 . S
C565 C566 1.388 . S
C566 H553 0.930 . S
C566 C565 1.388 . S
C566 C567 1.390 . S
C567 C566 1.390 . S
C567 C568 1.394 . S
C567 C573 1.465 . S
C568 C563 1.399 . S
C568 C567 1.394 . S
C568 C569 1.516 . S
C569 C568 1.516 . S
C569 C570 1.502 . S
C569 C571 1.561 . S
C569 C572 1.526 . S
C570 H554 0.959 . S
C570 H555 0.959 . S
C570 H556 0.961 . S
C570 C569 1.502 . S
C571 H557 0.960 . S
C571 H558 0.961 . S
C571 H559 0.959 . S
C571 C569 1.561 . S
C572 C569 1.526 . S
C572 C573 1.396 . S
C572 C577 1.390 . S
C573 C567 1.465 . S
C573 C572 1.396 . S
C573 C574 1.399 . S
C574 H560 0.929 . S
C574 C573 1.399 . S
C574 C575 1.385 . S
C575 H561 0.931 . S
C575 C574 1.385 . S
C575 C576 1.389 . S
C576 C575 1.389 . S
C576 C577 1.387 . S
C577 H562 0.930 . S
C577 C572 1.390 . S
C577 C576 1.387 . S
H578 C590 0.930 . S
H579 C592 0.930 . S
H580 C593 0.930 . S
H581 C597 0.959 . S
H582 C597 0.959 . S
H583 C597 0.961 . S
H584 C598 0.960 . S
H585 C598 0.961 . S
H586 C598 0.959 . S
H587 C601 0.929 . S
H588 C602 0.931 . S
H589 C604 0.930 . S
C590 H578 0.930 . S
C590 C591 1.399 . S
C590 C595 1.399 . S
C591 C590 1.399 . S
C591 C592 1.376 . S
C592 H579 0.930 . S
C592 C591 1.376 . S
C592 C593 1.388 . S
C593 H580 0.930 . S
C593 C592 1.388 . S
C593 C594 1.390 . S
C594 C593 1.390 . S
C594 C595 1.394 . S
C594 C600 1.465 . S
C595 C590 1.399 . S
C595 C594 1.394 . S
C595 C596 1.516 . S
C596 C595 1.516 . S
C596 C597 1.502 . S
C596 C598 1.561 . S
C596 C599 1.526 . S
C597 H581 0.959 . S
C597 H582 0.959 . S
C597 H583 0.961 . S
C597 C596 1.502 . S
C598 H584 0.960 . S
C598 H585 0.961 . S
C598 H586 0.959 . S
C598 C596 1.561 . S
C599 C596 1.526 . S
C599 C600 1.396 . S
C599 C604 1.390 . S
C600 C594 1.465 . S
C600 C599 1.396 . S
C600 C601 1.399 . S
C601 H587 0.929 . S
C601 C600 1.399 . S
C601 C602 1.385 . S
C602 H588 0.931 . S
C602 C601 1.385 . S
C602 C603 1.389 . S
C603 C602 1.389 . S
C603 C604 1.387 . S
C604 H589 0.930 . S
C604 C599 1.390 . S
C604 C603 1.387 . S
H605 C617 0.930 . S
H606 C619 0.930 . S
H607 C620 0.930 . S
H608 C624 0.959 . S
H609 C624 0.959 . S
H610 C624 0.961 . S
H611 C625 0.960 . S
H612 C625 0.961 . S
H613 C625 0.959 . S
H614 C628 0.929 . S
H615 C629 0.931 . S
H616 C631 0.930 . S
C617 H605 0.930 . S
C617 C618 1.399 . S
C617 C622 1.399 . S
C618 C617 1.399 . S
C618 C619 1.376 . S
C619 H606 0.930 . S
C619 C618 1.376 . S
C619 C620 1.388 . S
C620 H607 0.930 . S
C620 C619 1.388 . S
C620 C621 1.390 . S
C621 C620 1.390 . S
C621 C622 1.394 . S
C621 C627 1.465 . S
C622 C617 1.399 . S
C622 C621 1.394 . S
C622 C623 1.516 . S
C623 C622 1.516 . S
C623 C624 1.502 . S
C623 C625 1.561 . S
C623 C626 1.526 . S
C624 H608 0.959 . S
C624 H609 0.959 . S
C624 H610 0.961 . S
C624 C623 1.502 . S
C625 H611 0.960 . S
C625 H612 0.961 . S
C625 H613 0.959 . S
C625 C623 1.561 . S
C626 C623 1.526 . S
C626 C627 1.396 . S
C626 C631 1.390 . S
C627 C621 1.465 . S
C627 C626 1.396 . S
C627 C628 1.399 . S
C628 H614 0.929 . S
C628 C627 1.399 . S
C628 C629 1.385 . S
C629 H615 0.931 . S
C629 C628 1.385 . S
C629 C630 1.389 . S
C630 C629 1.389 . S
C630 C631 1.387 . S
C631 H616 0.930 . S
C631 C626 1.390 . S
C631 C630 1.387 . S
H632 C644 0.930 . S
H633 C646 0.930 . S
H634 C647 0.930 . S
H635 C651 0.959 . S
H636 C651 0.959 . S
H637 C651 0.961 . S
H638 C652 0.960 . S
H639 C652 0.961 . S
H640 C652 0.959 . S
H641 C655 0.929 . S
H642 C656 0.931 . S
H643 C658 0.930 . S
C644 H632 0.930 . S
C644 C645 1.399 . S
C644 C649 1.399 . S
C645 C644 1.399 . S
C645 C646 1.376 . S
C646 H633 0.930 . S
C646 C645 1.376 . S
C646 C647 1.388 . S
C647 H634 0.930 . S
C647 C646 1.388 . S
C647 C648 1.390 . S
C648 C647 1.390 . S
C648 C649 1.394 . S
C648 C654 1.465 . S
C649 C644 1.399 . S
C649 C648 1.394 . S
C649 C650 1.516 . S
C650 C649 1.516 . S
C650 C651 1.502 . S
C650 C652 1.561 . S
C650 C653 1.526 . S
C651 H635 0.959 . S
C651 H636 0.959 . S
C651 H637 0.961 . S
C651 C650 1.502 . S
C652 H638 0.960 . S
C652 H639 0.961 . S
C652 H640 0.959 . S
C652 C650 1.561 . S
C653 C650 1.526 . S
C653 C654 1.396 . S
C653 C658 1.390 . S
C654 C648 1.465 . S
C654 C653 1.396 . S
C654 C655 1.399 . S
C655 H641 0.929 . S
C655 C654 1.399 . S
C655 C656 1.385 . S
C656 H642 0.931 . S
C656 C655 1.385 . S
C656 C657 1.389 . S
C657 C656 1.389 . S
C657 C658 1.387 . S
C658 H643 0.930 . S
C658 C653 1.390 . S
C658 C657 1.387 . S
H659 C671 0.930 . S
H660 C673 0.930 . S
H661 C674 0.930 . S
H662 C678 0.959 . S
H663 C678 0.959 . S
H664 C678 0.961 . S
H665 C679 0.960 . S
H666 C679 0.961 . S
H667 C679 0.959 . S
H668 C682 0.929 . S
H669 C683 0.931 . S
H670 C685 0.930 . S
C671 H659 0.930 . S
C671 C672 1.399 . S
C671 C676 1.399 . S
C672 C671 1.399 . S
C672 C673 1.376 . S
C673 H660 0.930 . S
C673 C672 1.376 . S
C673 C674 1.388 . S
C674 H661 0.930 . S
C674 C673 1.388 . S
C674 C675 1.390 . S
C675 C674 1.390 . S
C675 C676 1.394 . S
C675 C681 1.465 . S
C676 C671 1.399 . S
C676 C675 1.394 . S
C676 C677 1.516 . S
C677 C676 1.516 . S
C677 C678 1.502 . S
C677 C679 1.561 . S
C677 C680 1.526 . S
C678 H662 0.959 . S
C678 H663 0.959 . S
C678 H664 0.961 . S
C678 C677 1.502 . S
C679 H665 0.960 . S
C679 H666 0.961 . S
C679 H667 0.959 . S
C679 C677 1.561 . S
C680 C677 1.526 . S
C680 C681 1.396 . S
C680 C685 1.390 . S
C681 C675 1.465 . S
C681 C680 1.396 . S
C681 C682 1.399 . S
C682 H668 0.929 . S
C682 C681 1.399 . S
C682 C683 1.385 . S
C683 H669 0.931 . S
C683 C682 1.385 . S
C683 C684 1.389 . S
C684 C683 1.389 . S
C684 C685 1.387 . S
C685 H670 0.930 . S
C685 C680 1.390 . S
C685 C684 1.387 . S
H686 C698 0.930 . S
H687 C700 0.930 . S
H688 C701 0.930 . S
H689 C705 0.959 . S
H690 C705 0.959 . S
H691 C705 0.961 . S
H692 C706 0.960 . S
H693 C706 0.961 . S
H694 C706 0.959 . S
H695 C709 0.929 . S
H696 C710 0.931 . S
H697 C712 0.930 . S
C698 H686 0.930 . S
C698 C699 1.399 . S
C698 C703 1.399 . S
C699 C698 1.399 . S
C699 C700 1.376 . S
C700 H687 0.930 . S
C700 C699 1.376 . S
C700 C701 1.388 . S
C701 H688 0.930 . S
C701 C700 1.388 . S
C701 C702 1.390 . S
C702 C701 1.390 . S
C702 C703 1.394 . S
C702 C708 1.465 . S
C703 C698 1.399 . S
C703 C702 1.394 . S
C703 C704 1.516 . S
C704 C703 1.516 . S
C704 C705 1.502 . S
C704 C706 1.561 . S
C704 C707 1.526 . S
C705 H689 0.959 . S
C705 H690 0.959 . S
C705 H691 0.961 . S
C705 C704 1.502 . S
C706 H692 0.960 . S
C706 H693 0.961 . S
C706 H694 0.959 . S
C706 C704 1.561 . S
C707 C704 1.526 . S
C707 C708 1.396 . S
C707 C712 1.390 . S
C708 C702 1.465 . S
C708 C707 1.396 . S
C708 C709 1.399 . S
C709 H695 0.929 . S
C709 C708 1.399 . S
C709 C710 1.385 . S
C710 H696 0.931 . S
C710 C709 1.385 . S
C710 C711 1.389 . S
C711 C710 1.389 . S
C711 C712 1.387 . S
C712 H697 0.930 . S
C712 C707 1.390 . S
C712 C711 1.387 . S
H713 C725 0.930 . S
H714 C727 0.930 . S
H715 C728 0.930 . S
H716 C732 0.959 . S
H717 C732 0.959 . S
H718 C732 0.961 . S
H719 C733 0.960 . S
H720 C733 0.961 . S
H721 C733 0.959 . S
H722 C736 0.929 . S
H723 C737 0.931 . S
H724 C739 0.930 . S
C725 H713 0.930 . S
C725 C726 1.399 . S
C725 C730 1.399 . S
C726 C725 1.399 . S
C726 C727 1.376 . S
C727 H714 0.930 . S
C727 C726 1.376 . S
C727 C728 1.388 . S
C728 H715 0.930 . S
C728 C727 1.388 . S
C728 C729 1.390 . S
C729 C728 1.390 . S
C729 C730 1.394 . S
C729 C735 1.465 . S
C730 C725 1.399 . S
C730 C729 1.394 . S
C730 C731 1.516 . S
C731 C730 1.516 . S
C731 C732 1.502 . S
C731 C733 1.561 . S
C731 C734 1.526 . S
C732 H716 0.959 . S
C732 H717 0.959 . S
C732 H718 0.961 . S
C732 C731 1.502 . S
C733 H719 0.960 . S
C733 H720 0.961 . S
C733 H721 0.959 . S
C733 C731 1.561 . S
C734 C731 1.526 . S
C734 C735 1.396 . S
C734 C739 1.390 . S
C735 C729 1.465 . S
C735 C734 1.396 . S
C735 C736 1.399 . S
C736 H722 0.929 . S
C736 C735 1.399 . S
C736 C737 1.385 . S
C737 H723 0.931 . S
C737 C736 1.385 . S
C737 C738 1.389 . S
C738 C737 1.389 . S
C738 C739 1.387 . S
C739 H724 0.930 . S
C739 C734 1.390 . S
C739 C738 1.387 . S
H740 C752 0.930 . S
H741 C754 0.930 . S
H742 C755 0.930 . S
H743 C759 0.959 . S
H744 C759 0.959 . S
H745 C759 0.961 . S
H746 C760 0.960 . S
H747 C760 0.961 . S
H748 C760 0.959 . S
H749 C763 0.929 . S
H750 C764 0.931 . S
H751 C766 0.930 . S
C752 H740 0.930 . S
C752 C753 1.399 . S
C752 C757 1.399 . S
C753 C752 1.399 . S
C753 C754 1.376 . S
C754 H741 0.930 . S
C754 C753 1.376 . S
C754 C755 1.388 . S
C755 H742 0.930 . S
C755 C754 1.388 . S
C755 C756 1.390 . S
C756 C755 1.390 . S
C756 C757 1.394 . S
C756 C762 1.465 . S
C757 C752 1.399 . S
C757 C756 1.394 . S
C757 C758 1.516 . S
C758 C757 1.516 . S
C758 C759 1.502 . S
C758 C760 1.561 . S
C758 C761 1.526 . S
C759 H743 0.959 . S
C759 H744 0.959 . S
C759 H745 0.961 . S
C759 C758 1.502 . S
C760 H746 0.960 . S
C760 H747 0.961 . S
C760 H748 0.959 . S
C760 C758 1.561 . S
C761 C758 1.526 . S
C761 C762 1.396 . S
C761 C766 1.390 . S
C762 C756 1.465 . S
C762 C761 1.396 . S
C762 C763 1.399 . S
C763 H749 0.929 . S
C763 C762 1.399 . S
C763 C764 1.385 . S
C764 H750 0.931 . S
C764 C763 1.385 . S
C764 C765 1.389 . S
C765 C764 1.389 . S
C765 C766 1.387 . S
C766 H751 0.930 . S
C766 C761 1.390 . S
C766 C765 1.387 . S
H767 C779 0.930 . S
H768 C781 0.930 . S
H769 C782 0.930 . S
H770 C786 0.959 . S
H771 C786 0.959 . S
H772 C786 0.961 . S
H773 C787 0.960 . S
H774 C787 0.961 . S
H775 C787 0.959 . S
H776 C790 0.929 . S
H777 C791 0.931 . S
H778 C793 0.930 . S
C779 H767 0.930 . S
C779 C780 1.399 . S
C779 C784 1.399 . S
C780 C779 1.399 . S
C780 C781 1.376 . S
C781 H768 0.930 . S
C781 C780 1.376 . S
C781 C782 1.388 . S
C782 H769 0.930 . S
C782 C781 1.388 . S
C782 C783 1.390 . S
C783 C782 1.390 . S
C783 C784 1.394 . S
C783 C789 1.465 . S
C784 C779 1.399 . S
C784 C783 1.394 . S
C784 C785 1.516 . S
C785 C784 1.516 . S
C785 C786 1.502 . S
C785 C787 1.561 . S
C785 C788 1.526 . S
C786 H770 0.959 . S
C786 H771 0.959 . S
C786 H772 0.961 . S
C786 C785 1.502 . S
C787 H773 0.960 . S
C787 H774 0.961 . S
C787 H775 0.959 . S
C787 C785 1.561 . S
C788 C785 1.526 . S
C788 C789 1.396 . S
C788 C793 1.390 . S
C789 C783 1.465 . S
C789 C788 1.396 . S
C789 C790 1.399 . S
C790 H776 0.929 . S
C790 C789 1.399 . S
C790 C791 1.385 . S
C791 H777 0.931 . S
C791 C790 1.385 . S
C791 C792 1.389 . S
C792 C791 1.389 . S
C792 C793 1.387 . S
C793 H778 0.930 . S
C793 C788 1.390 . S
C793 C792 1.387 . S
H794 C806 0.930 . S
H795 C808 0.930 . S
H796 C809 0.930 . S
H797 C813 0.959 . S
H798 C813 0.959 . S
H799 C813 0.961 . S
H800 C814 0.960 . S
H801 C814 0.961 . S
H802 C814 0.959 . S
H803 C817 0.929 . S
H804 C818 0.931 . S
H805 C820 0.930 . S
C806 H794 0.930 . S
C806 C807 1.399 . S
C806 C811 1.399 . S
C807 C806 1.399 . S
C807 C808 1.376 . S
C808 H795 0.930 . S
C808 C807 1.376 . S
C808 C809 1.388 . S
C809 H796 0.930 . S
C809 C808 1.388 . S
C809 C810 1.390 . S
C810 C809 1.390 . S
C810 C811 1.394 . S
C810 C816 1.465 . S
C811 C806 1.399 . S
C811 C810 1.394 . S
C811 C812 1.516 . S
C812 C811 1.516 . S
C812 C813 1.502 . S
C812 C814 1.561 . S
C812 C815 1.526 . S
C813 H797 0.959 . S
C813 H798 0.959 . S
C813 H799 0.961 . S
C813 C812 1.502 . S
C814 H800 0.960 . S
C814 H801 0.961 . S
C814 H802 0.959 . S
C814 C812 1.561 . S
C815 C812 1.526 . S
C815 C816 1.396 . S
C815 C820 1.390 . S
C816 C810 1.465 . S
C816 C815 1.396 . S
C816 C817 1.399 . S
C817 H803 0.929 . S
C817 C816 1.399 . S
C817 C818 1.385 . S
C818 H804 0.931 . S
C818 C817 1.385 . S
C818 C819 1.389 . S
C819 C818 1.389 . S
C819 C820 1.387 . S
C820 H805 0.930 . S
C820 C815 1.390 . S
C820 C819 1.387 . S
H821 C833 0.930 . S
H822 C835 0.930 . S
H823 C836 0.930 . S
H824 C840 0.959 . S
H825 C840 0.959 . S
H826 C840 0.961 . S
H827 C841 0.960 . S
H828 C841 0.961 . S
H829 C841 0.959 . S
H830 C844 0.929 . S
H831 C845 0.931 . S
H832 C847 0.930 . S
C833 H821 0.930 . S
C833 C834 1.399 . S
C833 C838 1.399 . S
C834 C833 1.399 . S
C834 C835 1.376 . S
C835 H822 0.930 . S
C835 C834 1.376 . S
C835 C836 1.388 . S
C836 H823 0.930 . S
C836 C835 1.388 . S
C836 C837 1.390 . S
C837 C836 1.390 . S
C837 C838 1.394 . S
C837 C843 1.465 . S
C838 C833 1.399 . S
C838 C837 1.394 . S
C838 C839 1.516 . S
C839 C838 1.516 . S
C839 C840 1.502 . S
C839 C841 1.561 . S
C839 C842 1.526 . S
C840 H824 0.959 . S
C840 H825 0.959 . S
C840 H826 0.961 . S
C840 C839 1.502 . S
C841 H827 0.960 . S
C841 H828 0.961 . S
C841 H829 0.959 . S
C841 C839 1.561 . S
C842 C839 1.526 . S
C842 C843 1.396 . S
C842 C847 1.390 . S
C843 C837 1.465 . S
C843 C842 1.396 . S
C843 C844 1.399 . S
C844 H830 0.929 . S
C844 C843 1.399 . S
C844 C845 1.385 . S
C845 H831 0.931 . S
C845 C844 1.385 . S
C845 C846 1.389 . S
C846 C845 1.389 . S
C846 C847 1.387 . S
C847 H832 0.930 . S
C847 C842 1.390 . S
C847 C846 1.387 . S
H848 C860 0.930 . S
H849 C862 0.930 . S
H850 C863 0.930 . S
H851 C867 0.959 . S
H852 C867 0.959 . S
H853 C867 0.961 . S
H854 C868 0.960 . S
H855 C868 0.961 . S
H856 C868 0.959 . S
H857 C871 0.929 . S
H858 C872 0.931 . S
H859 C874 0.930 . S
C860 H848 0.930 . S
C860 C861 1.399 . S
C860 C865 1.399 . S
C861 C860 1.399 . S
C861 C862 1.376 . S
C862 H849 0.930 . S
C862 C861 1.376 . S
C862 C863 1.388 . S
C863 H850 0.930 . S
C863 C862 1.388 . S
C863 C864 1.390 . S
C864 C863 1.390 . S
C864 C865 1.394 . S
C864 C870 1.465 . S
C865 C860 1.399 . S
C865 C864 1.394 . S
C865 C866 1.516 . S
C866 C865 1.516 . S
C866 C867 1.502 . S
C866 C868 1.561 . S
C866 C869 1.526 . S
C867 H851 0.959 . S
C867 H852 0.959 . S
C867 H853 0.961 . S
C867 C866 1.502 . S
C868 H854 0.960 . S
C868 H855 0.961 . S
C868 H856 0.959 . S
C868 C866 1.561 . S
C869 C866 1.526 . S
C869 C870 1.396 . S
C869 C874 1.390 . S
C870 C864 1.465 . S
C870 C869 1.396 . S
C870 C871 1.399 . S
C871 H857 0.929 . S
C871 C870 1.399 . S
C871 C872 1.385 . S
C872 H858 0.931 . S
C872 C871 1.385 . S
C872 C873 1.389 . S
C873 C872 1.389 . S
C873 C874 1.387 . S
C874 H859 0.930 . S
C874 C869 1.390 . S
C874 C873 1.387 . S
H875 C887 0.930 . S
H876 C889 0.930 . S
H877 C890 0.930 . S
H878 C894 0.959 . S
H879 C894 0.959 . S
H880 C894 0.961 . S
H881 C895 0.960 . S
H882 C895 0.961 . S
H883 C895 0.959 . S
H884 C898 0.929 . S
H885 C899 0.931 . S
H886 C901 0.930 . S
C887 H875 0.930 . S
C887 C888 1.399 . S
C887 C892 1.399 . S
C888 C887 1.399 . S
C888 C889 1.376 . S
C889 H876 0.930 . S
C889 C888 1.376 . S
C889 C890 1.388 . S
C890 H877 0.930 . S
C890 C889 1.388 . S
C890 C891 1.390 . S
C891 C890 1.390 . S
C891 C892 1.394 . S
C891 C897 1.465 . S
C892 C887 1.399 . S
C892 C891 1.394 . S
C892 C893 1.516 . S
C893 C892 1.516 . S
C893 C894 1.502 . S
C893 C895 1.561 . S
C893 C896 1.526 . S
C894 H878 0.959 . S
C894 H879 0.959 . S
C894 H880 0.961 . S
C894 C893 1.502 . S
C895 H881 0.960 . S
C895 H882 0.961 . S
C895 H883 0.959 . S
C895 C893 1.561 . S
C896 C893 1.526 . S
C896 C897 1.396 . S
C896 C901 1.390 . S
C897 C891 1.465 . S
C897 C896 1.396 . S
C897 C898 1.399 . S
C898 H884 0.929 . S
C898 C897 1.399 . S
C898 C899 1.385 . S
C899 H885 0.931 . S
C899 C898 1.385 . S
C899 C900 1.389 . S
C900 C899 1.389 . S
C900 C901 1.387 . S
C901 H886 0.930 . S
C901 C896 1.390 . S
C901 C900 1.387 . S
H902 C914 0.930 . S
H903 C916 0.930 . S
H904 C917 0.930 . S
H905 C921 0.959 . S
H906 C921 0.959 . S
H907 C921 0.961 . S
H908 C922 0.960 . S
H909 C922 0.961 . S
H910 C922 0.959 . S
H911 C925 0.929 . S
H912 C926 0.931 . S
H913 C928 0.930 . S
C914 H902 0.930 . S
C914 C915 1.399 . S
C914 C919 1.399 . S
C915 C914 1.399 . S
C915 C916 1.376 . S
C916 H903 0.930 . S
C916 C915 1.376 . S
C916 C917 1.388 . S
C917 H904 0.930 . S
C917 C916 1.388 . S
C917 C918 1.390 . S
C918 C917 1.390 . S
C918 C919 1.394 . S
C918 C924 1.465 . S
C919 C914 1.399 . S
C919 C918 1.394 . S
C919 C920 1.516 . S
C920 C919 1.516 . S
C920 C921 1.502 . S
C920 C922 1.561 . S
C920 C923 1.526 . S
C921 H905 0.959 . S
C921 H906 0.959 . S
C921 H907 0.961 . S
C921 C920 1.502 . S
C922 H908 0.960 . S
C922 H909 0.961 . S
C922 H910 0.959 . S
C922 C920 1.561 . S
C923 C920 1.526 . S
C923 C924 1.396 . S
C923 C928 1.390 . S
C924 C918 1.465 . S
C924 C923 1.396 . S
C924 C925 1.399 . S
C925 H911 0.929 . S
C925 C924 1.399 . S
C925 C926 1.385 . S
C926 H912 0.931 . S
C926 C925 1.385 . S
C926 C927 1.389 . S
C927 C926 1.389 . S
C927 C928 1.387 . S
C928 H913 0.930 . S
C928 C923 1.390 . S
C928 C927 1.387 . S
H929 C941 0.930 . S
H930 C943 0.930 . S
H931 C944 0.930 . S
H932 C948 0.959 . S
H933 C948 0.959 . S
H934 C948 0.961 . S
H935 C949 0.960 . S
H936 C949 0.961 . S
H937 C949 0.959 . S
H938 C952 0.929 . S
H939 C953 0.931 . S
H940 C955 0.930 . S
C941 H929 0.930 . S
C941 C942 1.399 . S
C941 C946 1.399 . S
C942 C941 1.399 . S
C942 C943 1.376 . S
C943 H930 0.930 . S
C943 C942 1.376 . S
C943 C944 1.388 . S
C944 H931 0.930 . S
C944 C943 1.388 . S
C944 C945 1.390 . S
C945 C944 1.390 . S
C945 C946 1.394 . S
C945 C951 1.465 . S
C946 C941 1.399 . S
C946 C945 1.394 . S
C946 C947 1.516 . S
C947 C946 1.516 . S
C947 C948 1.502 . S
C947 C949 1.561 . S
C947 C950 1.526 . S
C948 H932 0.959 . S
C948 H933 0.959 . S
C948 H934 0.961 . S
C948 C947 1.502 . S
C949 H935 0.960 . S
C949 H936 0.961 . S
C949 H937 0.959 . S
C949 C947 1.561 . S
C950 C947 1.526 . S
C950 C951 1.396 . S
C950 C955 1.390 . S
C951 C945 1.465 . S
C951 C950 1.396 . S
C951 C952 1.399 . S
C952 H938 0.929 . S
C952 C951 1.399 . S
C952 C953 1.385 . S
C953 H939 0.931 . S
C953 C952 1.385 . S
C953 C954 1.389 . S
C954 C953 1.389 . S
C954 C955 1.387 . S
C955 H940 0.930 . S
C955 C950 1.390 . S
C955 C954 1.387 . S
H956 C968 0.930 . S
H957 C970 0.930 . S
H958 C971 0.930 . S
H959 C975 0.959 . S
H960 C975 0.959 . S
H961 C975 0.961 . S
H962 C976 0.960 . S
H963 C976 0.961 . S
H964 C976 0.959 . S
H965 C979 0.929 . S
H966 C980 0.931 . S
H967 C982 0.930 . S
C968 H956 0.930 . S
C968 C969 1.399 . S
C968 C973 1.399 . S
C969 C968 1.399 . S
C969 C970 1.376 . S
C970 H957 0.930 . S
C970 C969 1.376 . S
C970 C971 1.388 . S
C971 H958 0.930 . S
C971 C970 1.388 . S
C971 C972 1.390 . S
C972 C971 1.390 . S
C972 C973 1.394 . S
C972 C978 1.465 . S
C973 C968 1.399 . S
C973 C972 1.394 . S
C973 C974 1.516 . S
C974 C973 1.516 . S
C974 C975 1.502 . S
C974 C976 1.561 . S
C974 C977 1.526 . S
C975 H959 0.959 . S
C975 H960 0.959 . S
C975 H961 0.961 . S
C975 C974 1.502 . S
C976 H962 0.960 . S
C976 H963 0.961 . S
C976 H964 0.959 . S
C976 C974 1.561 . S
C977 C974 1.526 . S
C977 C978 1.396 . S
C977 C982 1.390 . S
C978 C972 1.465 . S
C978 C977 1.396 . S
C978 C979 1.399 . S
C979 H965 0.929 . S
C979 C978 1.399 . S
C979 C980 1.385 . S
C980 H966 0.931 . S
C980 C979 1.385 . S
C980 C981 1.389 . S
C981 C980 1.389 . S
C981 C982 1.387 . S
C982 H967 0.930 . S
C982 C977 1.390 . S
C982 C981 1.387 . S
H983 C995 0.930 . S
H984 C997 0.930 . S
H985 C998 0.930 . S
H986 C1002 0.959 . S
H987 C1002 0.959 . S
H988 C1002 0.961 . S
H989 C1003 0.960 . S
H990 C1003 0.961 . S
H991 C1003 0.959 . S
H992 C1006 0.929 . S
H993 C1007 0.931 . S
H994 C1009 0.930 . S
C995 H983 0.930 . S
C995 C996 1.399 . S
C995 C1000 1.399 . S
C996 C995 1.399 . S
C996 C997 1.376 . S
C997 H984 0.930 . S
C997 C996 1.376 . S
C997 C998 1.388 . S
C998 H985 0.930 . S
C998 C997 1.388 . S
C998 C999 1.390 . S
C999 C998 1.390 . S
C999 C1000 1.394 . S
C999 C1005 1.465 . S
C1000 C995 1.399 . S
C1000 C999 1.394 . S
C1000 C1001 1.516 . S
C1001 C1000 1.516 . S
C1001 C1002 1.502 . S
C1001 C1003 1.561 . S
C1001 C1004 1.526 . S
C1002 H986 0.959 . S
C1002 H987 0.959 . S
C1002 H988 0.961 . S
C1002 C1001 1.502 . S
C1003 H989 0.960 . S
C1003 H990 0.961 . S
C1003 H991 0.959 . S
C1003 C1001 1.561 . S
C1004 C1001 1.526 . S
C1004 C1005 1.396 . S
C1004 C1009 1.390 . S
C1005 C999 1.465 . S
C1005 C1004 1.396 . S
C1005 C1006 1.399 . S
C1006 H992 0.929 . S
C1006 C1005 1.399 . S
C1006 C1007 1.385 . S
C1007 H993 0.931 . S
C1007 C1006 1.385 . S
C1007 C1008 1.389 . S
C1008 C1007 1.389 . S
C1008 C1009 1.387 . S
C1009 H994 0.930 . S
C1009 C1004 1.390 . S
C1009 C1008 1.387 . S
H1010 C1022 0.930 . S
H1011 C1024 0.930 . S
H1012 C1025 0.930 . S
H1013 C1029 0.959 . S
H1014 C1029 0.959 . S
H1015 C1029 0.961 . S
H1016 C1030 0.960 . S
H1017 C1030 0.961 . S
H1018 C1030 0.959 . S
H1019 C1033 0.929 . S
H1020 C1034 0.931 . S
H1021 C1036 0.930 . S
C1022 H1010 0.930 . S
C1022 C1023 1.399 . S
C1022 C1027 1.399 . S
C1023 C1022 1.399 . S
C1023 C1024 1.376 . S
C1024 H1011 0.930 . S
C1024 C1023 1.376 . S
C1024 C1025 1.388 . S
C1025 H1012 0.930 . S
C1025 C1024 1.388 . S
C1025 C1026 1.390 . S
C1026 C1025 1.390 . S
C1026 C1027 1.394 . S
C1026 C1032 1.465 . S
C1027 C1022 1.399 . S
C1027 C1026 1.394 . S
C1027 C1028 1.516 . S
C1028 C1027 1.516 . S
C1028 C1029 1.502 . S
C1028 C1030 1.561 . S
C1028 C1031 1.526 . S
C1029 H1013 0.959 . S
C1029 H1014 0.959 . S
C1029 H1015 0.961 . S
C1029 C1028 1.502 . S
C1030 H1016 0.960 . S
C1030 H1017 0.961 . S
C1030 H1018 0.959 . S
C1030 C1028 1.561 . S
C1031 C1028 1.526 . S
C1031 C1032 1.396 . S
C1031 C1036 1.390 . S
C1032 C1026 1.465 . S
C1032 C1031 1.396 . S
C1032 C1033 1.399 . S
C1033 H1019 0.929 . S
C1033 C1032 1.399 . S
C1033 C1034 1.385 . S
C1034 H1020 0.931 . S
C1034 C1033 1.385 . S
C1034 C1035 1.389 . S
C1035 C1034 1.389 . S
C1035 C1036 1.387 . S
C1036 H1021 0.930 . S
C1036 C1031 1.390 . S
C1036 C1035 1.387 . S
H1037 C1049 0.930 . S
H1038 C1051 0.930 . S
H1039 C1052 0.930 . S
H1040 C1056 0.959 . S
H1041 C1056 0.959 . S
H1042 C1056 0.961 . S
H1043 C1057 0.960 . S
H1044 C1057 0.961 . S
H1045 C1057 0.959 . S
H1046 C1060 0.929 . S
H1047 C1061 0.931 . S
H1048 C1063 0.930 . S
C1049 H1037 0.930 . S
C1049 C1050 1.399 . S
C1049 C1054 1.399 . S
C1050 C1049 1.399 . S
C1050 C1051 1.376 . S
C1051 H1038 0.930 . S
C1051 C1050 1.376 . S
C1051 C1052 1.388 . S
C1052 H1039 0.930 . S
C1052 C1051 1.388 . S
C1052 C1053 1.390 . S
C1053 C1052 1.390 . S
C1053 C1054 1.394 . S
C1053 C1059 1.465 . S
C1054 C1049 1.399 . S
C1054 C1053 1.394 . S
C1054 C1055 1.516 . S
C1055 C1054 1.516 . S
C1055 C1056 1.502 . S
C1055 C1057 1.561 . S
C1055 C1058 1.526 . S
C1056 H1040 0.959 . S
C1056 H1041 0.959 . S
C1056 H1042 0.961 . S
C1056 C1055 1.502 . S
C1057 H1043 0.960 . S
C1057 H1044 0.961 . S
C1057 H1045 0.959 . S
C1057 C1055 1.561 . S
C1058 C1055 1.526 . S
C1058 C1059 1.396 . S
C1058 C1063 1.390 . S
C1059 C1053 1.465 . S
C1059 C1058 1.396 . S
C1059 C1060 1.399 . S
C1060 H1046 0.929 . S
C1060 C1059 1.399 . S
C1060 C1061 1.385 . S
C1061 H1047 0.931 . S
C1061 C1060 1.385 . S
C1061 C1062 1.389 . S
C1062 C1061 1.389 . S
C1062 C1063 1.387 . S
C1063 H1048 0.930 . S
C1063 C1058 1.390 . S
C1063 C1062 1.387 . S
C429 C29 1.058 . S
C441 C271 1.067 . S
C456 C49 1.441 . S
C468 C315 1.453 . S
C495 C345 2.208 . S
C483 C93 2.187 . S
C510 C119 2.717 . S
C522 C386 2.676 . S
C549 C302 0.732 . S
C537 C17 0.725 . S
C576 C266 2.494 . S
C564 C61 2.358 . S
C603 C394 1.134 . S
C591 C81 1.133 . S
C630 C355 2.225 . S
C618 C125 2.333 . S
C645 C23 1.065 . S
C657 C391 0.931 . S
C684 C305 2.036 . S
C672 C87 2.019 . S
C699 C113 2.087 . S
C711 C274 2.054 . S
C726 C55 1.778 . S
C738 C342 1.927 . S
C765 C262 1.037 . S
C753 C157 0.942 . S
C780 C189 1.611 . S
C792 C306 1.566 . S
C807 C221 2.059 . S
C819 C354 2.156 . S
C834 C253 2.769 . S
C846 C395 2.742 . S
C861 C145 0.769 . S
C873 C311 0.802 . S
C900 C275 2.432 . S
C888 C183 2.432 . S
C927 C385 1.164 . S
C915 C209 1.171 . S
C954 C346 2.248 . S
C942 C247 2.306 . S
C969 C151 0.972 . S
C981 C382 0.934 . S
C1008 C314 1.981 . S
C996 C215 1.989 . S
C1035 C265 2.027 . S
C1023 C241 2.042 . S
C1050 C177 1.952 . S
C1062 C351 1.895 . S
