# Generated by pormake.
# Topology zzz, (3,6)-cn, num edge types: 1
# Building blocks:
#     Node 0, Type 0, BuildingBlock: BELTOD_clean_linker_0, # of connection points: 3
#     Node 1, Type 0, BuildingBlock: BELTOD_clean_linker_0, # of connection points: 3
#     Node 2, Type 0, BuildingBlock: BELTOD_clean_linker_0, # of connection points: 3
#     Node 3, Type 0, BuildingBlock: BELTOD_clean_linker_0, # of connection points: 3
#     Node 4, Type 0, BuildingBlock: BELTOD_clean_linker_0, # of connection points: 3
#     Node 5, Type 0, BuildingBlock: BELTOD_clean_linker_0, # of connection points: 3
#     Node 6, Type 0, BuildingBlock: BELTOD_clean_linker_0, # of connection points: 3
#     Node 7, Type 0, BuildingBlock: BELTOD_clean_linker_0, # of connection points: 3
#     Node 8, Type 1, BuildingBlock: VOLQOD_clean_sbu_1, # of connection points: 6
#     Node 9, Type 1, BuildingBlock: VOLQOD_clean_sbu_1, # of connection points: 6
#     Node 10, Type 1, BuildingBlock: VOLQOD_clean_sbu_1, # of connection points: 6
#     Node 11, Type 1, BuildingBlock: VOLQOD_clean_sbu_1, # of connection points: 6
#     Edge 12, Type (0, 1), BuildingBlock: EZIPEK_clean_linker_0, # of connection points: 2
#     Edge 13, Type (0, 1), BuildingBlock: EZIPEK_clean_linker_0, # of connection points: 2
#     Edge 14, Type (0, 1), BuildingBlock: EZIPEK_clean_linker_0, # of connection points: 2
#     Edge 15, Type (0, 1), BuildingBlock: EZIPEK_clean_linker_0, # of connection points: 2
#     Edge 16, Type (0, 1), BuildingBlock: EZIPEK_clean_linker_0, # of connection points: 2
#     Edge 17, Type (0, 1), BuildingBlock: EZIPEK_clean_linker_0, # of connection points: 2
#     Edge 18, Type (0, 1), BuildingBlock: EZIPEK_clean_linker_0, # of connection points: 2
#     Edge 19, Type (0, 1), BuildingBlock: EZIPEK_clean_linker_0, # of connection points: 2
#     Edge 20, Type (0, 1), BuildingBlock: EZIPEK_clean_linker_0, # of connection points: 2
#     Edge 21, Type (0, 1), BuildingBlock: EZIPEK_clean_linker_0, # of connection points: 2
#     Edge 22, Type (0, 1), BuildingBlock: EZIPEK_clean_linker_0, # of connection points: 2
#     Edge 23, Type (0, 1), BuildingBlock: EZIPEK_clean_linker_0, # of connection points: 2
#     Edge 24, Type (0, 1), BuildingBlock: EZIPEK_clean_linker_0, # of connection points: 2
#     Edge 25, Type (0, 1), BuildingBlock: EZIPEK_clean_linker_0, # of connection points: 2
#     Edge 26, Type (0, 1), BuildingBlock: EZIPEK_clean_linker_0, # of connection points: 2
#     Edge 27, Type (0, 1), BuildingBlock: EZIPEK_clean_linker_0, # of connection points: 2
#     Edge 28, Type (0, 1), BuildingBlock: EZIPEK_clean_linker_0, # of connection points: 2
#     Edge 29, Type (0, 1), BuildingBlock: EZIPEK_clean_linker_0, # of connection points: 2
#     Edge 30, Type (0, 1), BuildingBlock: EZIPEK_clean_linker_0, # of connection points: 2
#     Edge 31, Type (0, 1), BuildingBlock: EZIPEK_clean_linker_0, # of connection points: 2
#     Edge 32, Type (0, 1), BuildingBlock: EZIPEK_clean_linker_0, # of connection points: 2
#     Edge 33, Type (0, 1), BuildingBlock: EZIPEK_clean_linker_0, # of connection points: 2
#     Edge 34, Type (0, 1), BuildingBlock: EZIPEK_clean_linker_0, # of connection points: 2
#     Edge 35, Type (0, 1), BuildingBlock: EZIPEK_clean_linker_0, # of connection points: 2
# Relax obj value: 0.331
# Max RMSD: 0.253
# Mean RMSD: 0.197
data_MOF--net-zzz--node1-VOLQOD_clean_sbu_1--node2-BELTOD_clean_linker_0--edge1-EZIPEK_clean_linker_0
_symmetry_space_group_name_H-M    P1
_symmetry_Int_Tables_number       1
_symmetry_cell_setting            triclinic
loop_
_symmetry_equiv_pos_as_xyz
'x, y, z'
_cell_length_a     41.806663
_cell_length_b     41.127509
_cell_length_c     16.233667
_cell_angle_alpha  90.301177
_cell_angle_beta   90.23148
_cell_angle_gamma 92.26549
loop_
_atom_site_label
_atom_site_type_symbol
_atom_site_fract_x
_atom_site_fract_y
_atom_site_fract_z
_atom_type_partial_charge
P0 P 0.7784 0.40938 0.16703 0.0
H1 H 0.80792 0.39404 0.32265 0.0
H2 H 0.84141 0.4271 0.4172 0.0
H3 H 0.81648 0.51384 0.28776 0.0
H4 H 0.78314 0.48062 0.19193 0.0
H5 H 0.7644 0.40205 0.99179 0.0
H6 H 0.72246 0.42241 0.90302 0.0
H7 H 0.68258 0.47265 0.11003 0.0
H8 H 0.72481 0.45209 0.19998 0.0
H9 H 0.80898 0.35093 0.10229 0.0
H10 H 0.82322 0.45534 0.09108 0.0
O11 O 0.76431 0.3738 0.20352 0.0
H12 H 0.85421 0.34478 0.00696 0.0
H13 H 0.86822 0.44915 0.9981 0.0
C14 C 0.79259 0.43486 0.25105 0.0
C15 C 0.80853 0.42027 0.31641 0.0
C16 C 0.82779 0.43909 0.3701 0.0
C17 C 0.83154 0.47279 0.35888 0.0
C18 C 0.81373 0.48784 0.29736 0.0
C19 C 0.79456 0.46888 0.24314 0.0
C20 C 0.7483 0.42634 0.1022 0.0
C21 C 0.74707 0.41789 0.0183 0.0
C22 C 0.72312 0.42942 0.96746 0.0
C23 C 0.69975 0.44926 -0.00011 0.0
C24 C 0.70072 0.45763 0.08394 0.0
C25 C 0.72476 0.44597 0.13503 0.0
C26 C 0.81311 0.40361 0.10455 0.0
C27 C 0.82213 0.37241 0.08072 0.0
C28 C 0.84783 0.36887 0.02667 0.0
C29 C 0.86454 0.39655 0.99651 0.0
C30 C 0.85573 0.42757 0.02161 0.0
C31 C 0.83014 0.43107 0.07485 0.0
P32 P 0.04578 0.74711 0.23052 0.0
H33 H 0.06224 0.77516 0.3893 0.0
H34 H 0.03496 0.81544 0.47132 0.0
H35 H 0.94926 0.79831 0.32644 0.0
H36 H 0.97681 0.75794 0.24316 0.0
H37 H 0.05592 0.73166 0.05857 0.0
H38 H 0.03798 0.68648 0.97046 0.0
H39 H 0.98138 0.64602 0.16918 0.0
H40 H 0.99905 0.69225 0.25853 0.0
H41 H 0.1038 0.78936 0.20731 0.0
H42 H 0.00629 0.78256 0.11851 0.0
O43 O 0.07947 0.73342 0.27068 0.0
H44 H 0.11386 0.83816 0.12208 0.0
H45 H 0.01627 0.83107 0.03467 0.0
C46 C 0.02145 0.76321 0.31076 0.0
C47 C 0.03711 0.77876 0.37751 0.0
C48 C 0.02165 0.802 0.42394 0.0
C49 C 0.99031 0.81006 0.40412 0.0
C50 C 0.97349 0.79232 0.34248 0.0
C51 C 0.98912 0.76913 0.29551 0.0
C52 C 0.02814 0.71584 0.16463 0.0
C53 C 0.03883 0.7138 0.08303 0.0
C54 C 0.02866 0.68796 0.03252 0.0
C55 C 0.00805 0.66326 0.06298 0.0
C56 C 0.99684 0.66528 0.14433 0.0
C57 C 0.00696 0.69149 0.19514 0.0
C58 C 0.05445 0.78218 0.16794 0.0
C59 C 0.08469 0.79823 0.1694 0.0
C60 C 0.0904 0.82602 0.12134 0.0
C61 C 0.06576 0.83789 0.07232 0.0
C62 C 0.03549 0.82208 0.07215 0.0
C63 C 0.02987 0.79445 0.11973 0.0
P64 P 0.76519 0.08609 0.16262 0.0
H65 H 0.78557 0.03323 0.27227 0.0
H66 H 0.75587 0.99929 0.37344 0.0
H67 H 0.66989 0.04931 0.31659 0.0
H68 H 0.69885 0.08252 0.21613 0.0
H69 H 0.82342 0.1145 0.09216 0.0
H70 H 0.86586 0.09177 0.00825 0.0
H71 H 0.82156 0.99589 0.03304 0.0
H72 H 0.77875 0.01863 0.11621 0.0
H73 H 0.72705 0.14354 0.13294 0.0
H74 H 0.73908 0.04893 0.0236 0.0
O75 O 0.77792 0.11986 0.2121 0.0
H76 H 0.6802 0.15107 0.04357 0.0
H77 H 0.69284 0.05659 0.93492 0.0
C78 C 0.74427 0.0598 0.23469 0.0
C79 C 0.7602 0.0364 0.28043 0.0
C80 C 0.74336 0.01707 0.33797 0.0
C81 C 0.71068 0.0217 0.35149 0.0
C82 C 0.695 0.04519 0.30615 0.0
C83 C 0.71164 0.06416 0.24868 0.0
C84 C 0.79849 0.06813 0.11243 0.0
C85 C 0.82313 0.0885 0.08105 0.0
C86 C 0.84717 0.07564 0.03282 0.0
C87 C 0.8467 0.04225 0.01496 0.0
C88 C 0.82227 0.02171 0.04687 0.0
C89 C 0.7981 0.03465 0.09485 0.0
C90 C 0.73683 0.09586 0.08398 0.0
C91 C 0.72037 0.12495 0.08796 0.0
C92 C 0.69365 0.12922 0.03744 0.0
C93 C 0.68323 0.1043 0.98319 0.0
C94 C 0.70073 0.07608 0.97633 0.0
C95 C 0.72723 0.07181 0.02666 0.0
P96 P 0.48798 0.75472 0.22067 0.0
H97 H 0.47568 0.73031 0.3852 0.0
H98 H 0.50288 0.68991 0.46565 0.0
H99 H 0.58351 0.6968 0.30092 0.0
H100 H 0.55503 0.73552 0.21598 0.0
H101 H 0.4579 0.7956 0.1031 0.0
H102 H 0.47801 0.83971 0.01442 0.0
H103 H 0.57102 0.83575 0.12883 0.0
H104 H 0.5506 0.79221 0.22008 0.0
H105 H 0.44599 0.69643 0.2199 0.0
H106 H 0.51794 0.74107 0.06231 0.0
O107 O 0.45311 0.76325 0.26386 0.0
H108 H 0.44395 0.64786 0.13056 0.0
H109 H 0.51553 0.69293 0.97323 0.0
C110 C 0.51357 0.7367 0.29552 0.0
C111 C 0.49965 0.72413 0.36755 0.0
C112 C 0.51511 0.70084 0.41333 0.0
C113 C 0.54497 0.68992 0.38837 0.0
C114 C 0.56037 0.70474 0.32077 0.0
C115 C 0.54434 0.72733 0.27321 0.0
C116 C 0.50277 0.79047 0.16769 0.0
C117 C 0.48246 0.80461 0.11042 0.0
C118 C 0.49391 0.82959 0.05961 0.0
C119 C 0.52596 0.84065 0.06499 0.0
C120 C 0.54623 0.82727 0.12387 0.0
C121 C 0.53459 0.80237 0.17556 0.0
C122 C 0.48141 0.72268 0.1464 0.0
C123 C 0.46054 0.69621 0.16487 0.0
C124 C 0.45949 0.66853 0.11446 0.0
C125 C 0.47949 0.66713 0.0455 0.0
C126 C 0.49976 0.69388 0.02592 0.0
C127 C 0.50092 0.7214 0.07647 0.0
P128 P 0.22049 0.47027 0.30605 0.0
H129 H 0.24545 0.49443 0.14739 0.0
H130 H 0.21963 0.49365 0.01087 0.0
H131 H 0.14615 0.42657 0.10124 0.0
H132 H 0.17254 0.42631 0.2355 0.0
H133 H 0.28314 0.44803 0.25553 0.0
H134 H 0.33699 0.4593 0.31353 0.0
H135 H 0.2995 0.53347 0.47046 0.0
H136 H 0.24608 0.52214 0.41403 0.0
H137 H 0.16445 0.46998 0.41265 0.0
H138 H 0.21447 0.53735 0.25062 0.0
O139 O 0.21306 0.43744 0.36399 0.0
H140 H 0.12537 0.51096 0.44273 0.0
H141 H 0.17487 0.57867 0.28077 0.0
C142 C 0.21111 0.46008 0.20102 0.0
C143 C 0.22479 0.47826 0.13641 0.0
C144 C 0.20993 0.47801 0.0589 0.0
C145 C 0.18073 0.46043 0.04663 0.0
C146 C 0.1686 0.44031 0.10949 0.0
C147 C 0.18378 0.44005 0.18601 0.0
C148 C 0.26071 0.48469 0.32897 0.0
C149 C 0.28675 0.4675 0.3002 0.0
C150 C 0.31735 0.47383 0.33338 0.0
C151 C 0.32204 0.49729 0.39591 0.0
C152 C 0.29632 0.51555 0.42163 0.0
C153 C 0.26583 0.50912 0.38888 0.0
C154 C 0.19263 0.50092 0.33076 0.0
C155 C 0.1672 0.49364 0.38409 0.0
C156 C 0.14485 0.51695 0.40088 0.0
C157 C 0.1475 0.54778 0.36423 0.0
C158 C 0.17266 0.55504 0.30977 0.0
C159 C 0.19515 0.53159 0.29298 0.0
P160 P 0.13057 0.24046 0.20797 0.0
H161 H 0.17051 0.2203 0.07022 0.0
H162 H 0.15861 0.17915 0.96356 0.0
H163 H 0.05819 0.1817 0.02084 0.0
H164 H 0.06987 0.22295 0.12689 0.0
H165 H 0.15818 0.28855 0.32057 0.0
H166 H 0.13686 0.33735 0.38259 0.0
H167 H 0.05567 0.32999 0.21815 0.0
H168 H 0.07712 0.28087 0.15531 0.0
H169 H 0.13379 0.17072 0.22379 0.0
H170 H 0.08016 0.24703 0.33498 0.0
O171 O 0.16977 0.23771 0.22496 0.0
H172 H 0.10121 0.12998 0.29859 0.0
H173 H 0.04829 0.20618 0.41155 0.0
C174 C 0.12107 0.22485 0.10657 0.0
C175 C 0.14576 0.21327 0.05734 0.0
C176 C 0.13907 0.18954 0.99701 0.0
C177 C 0.10764 0.17706 0.98588 0.0
C178 C 0.08261 0.19098 0.02914 0.0
C179 C 0.08926 0.21493 0.08876 0.0
C180 C 0.11948 0.28125 0.23252 0.0
C181 C 0.13643 0.29802 0.29539 0.0
C182 C 0.12424 0.32581 0.33113 0.0
C183 C 0.09479 0.33717 0.30482 0.0
C184 C 0.07862 0.32164 0.23858 0.0
C185 C 0.09088 0.29368 0.20272 0.0
C186 C 0.1097 0.21192 0.27429 0.0
C187 C 0.11535 0.17875 0.26504 0.0
C188 C 0.09655 0.15552 0.30675 0.0
C189 C 0.0721 0.16517 0.35939 0.0
C190 C 0.06676 0.19837 0.37012 0.0
C191 C 0.08529 0.22165 0.32717 0.0
P192 P 0.2858 0.03283 0.20149 0.0
H193 H 0.30697 0.0844 0.08913 0.0
H194 H 0.3461 0.08189 0.97856 0.0
H195 H 0.33409 0.97732 0.97288 0.0
H196 H 0.29516 0.97971 0.08523 0.0
H197 H 0.22578 0.06425 0.22997 0.0
H198 H 0.17797 0.045 0.30305 0.0
H199 H 0.20996 0.94668 0.29063 0.0
H200 H 0.25709 0.96581 0.21166 0.0
H201 H 0.3547 0.03967 0.19462 0.0
H202 H 0.28555 0.98311 0.33649 0.0
O203 O 0.28762 0.0713 0.23511 0.0
H204 H 0.39803 0.0136 0.26706 0.0
H205 H 0.32895 0.95588 0.4052 0.0
C206 C 0.29832 0.03218 0.09586 0.0
C207 C 0.31142 0.06098 0.06168 0.0
C208 C 0.33396 0.0596 0.99879 0.0
C209 C 0.34334 0.02941 0.96901 0.0
C210 C 0.32714 0.00081 0.99557 0.0
C211 C 0.30469 0.00221 0.05901 0.0
C212 C 0.2458 0.01663 0.21978 0.0
C213 C 0.22201 0.03836 0.23969 0.0
C214 C 0.19464 0.02738 0.28137 0.0
C215 C 0.19102 0.99462 0.30451 0.0
C216 C 0.21256 0.97214 0.2742 0.0
C217 C 0.2395 0.9831 0.22964 0.0
C218 C 0.31666 0.01232 0.25657 0.0
C219 C 0.34871 0.02085 0.23895 0.0
C220 C 0.37346 0.00587 0.27981 0.0
C221 C 0.36656 0.98218 0.33943 0.0
C222 C 0.33458 0.97333 0.35713 0.0
C223 C 0.30976 0.98891 0.31737 0.0
P224 P 0.42574 0.25255 0.17599 0.0
H225 H 0.38591 0.27415 0.04089 0.0
H226 H 0.40013 0.31496 0.93741 0.0
H227 H 0.50022 0.30035 0.98187 0.0
H228 H 0.4862 0.26053 0.08763 0.0
H229 H 0.40665 0.21536 0.31807 0.0
H230 H 0.43021 0.16966 0.38872 0.0
H231 H 0.49891 0.1614 0.19313 0.0
H232 H 0.47467 0.20666 0.12059 0.0
H233 H 0.41136 0.32036 0.19853 0.0
H234 H 0.48579 0.25656 0.27212 0.0
O235 O 0.38637 0.25404 0.19147 0.0
H236 H 0.4411 0.36643 0.26311 0.0
H237 H 0.51507 0.30251 0.338 0.0
C238 C 0.43495 0.264 0.07202 0.0
C239 C 0.41091 0.27825 0.02548 0.0
C240 C 0.41897 0.3018 0.96676 0.0
C241 C 0.45117 0.31092 0.95346 0.0
C242 C 0.47524 0.2935 0.99161 0.0
C243 C 0.46715 0.27024 0.05102 0.0
C244 C 0.43876 0.2143 0.21388 0.0
C245 C 0.42615 0.20315 0.28892 0.0
C246 C 0.43969 0.1773 0.32956 0.0
C247 C 0.46631 0.16251 0.29615 0.0
C248 C 0.47836 0.17275 0.21958 0.0
C249 C 0.46452 0.19853 0.17834 0.0
C250 C 0.44568 0.28485 0.23343 0.0
C251 C 0.43377 0.31617 0.22968 0.0
C252 C 0.45098 0.34248 0.26493 0.0
C253 C 0.48034 0.33775 0.30441 0.0
C254 C 0.4926 0.30655 0.30695 0.0
C255 C 0.47552 0.28028 0.27086 0.0
O256 O 0.09893 0.98592 0.63254 0.0
Zn257 Zn 0.0688 0.99525 0.72635 0.0
O258 O 0.02437 0.99586 0.68641 0.0
Zn259 Zn 0.00685 0.03729 0.71557 0.0
Zn260 Zn 0.02267 0.99118 0.56686 0.0
Zn261 Zn 0.99818 0.96083 0.73444 0.0
O262 O 0.9647 0.03202 0.77352 0.0
O263 O 0.96036 0.97852 0.79445 0.0
O264 O 0.08263 0.0385 0.78043 0.0
O265 O 0.03629 0.06296 0.79021 0.0
O266 O 0.00609 0.06593 0.61675 0.0
O267 O 0.01155 0.03257 0.51041 0.0
O268 O 0.995 0.95249 0.5304 0.0
O269 O 0.07321 0.96042 0.81173 0.0
O270 O 0.98201 0.92859 0.6477 0.0
O271 O 0.02428 0.9369 0.81666 0.0
C272 C 0.09443 0.98327 0.55505 0.0
C273 C 0.95019 0.00709 0.8039 0.0
C274 C 0.00876 0.06104 0.53978 0.0
C275 C 0.06606 0.06198 0.80534 0.0
C276 C 0.98104 0.92915 0.56926 0.0
C277 C 0.05332 0.93925 0.84059 0.0
O278 O 0.0666 0.98453 0.5237 0.0
O279 O 0.50957 0.07263 0.59265 0.0
Zn280 Zn 0.51908 0.04704 0.69507 0.0
O281 O 0.53268 0.00309 0.66637 0.0
Zn282 Zn 0.50049 0.97066 0.70038 0.0
Zn283 Zn 0.53832 6e-05 0.54767 0.0
Zn284 Zn 0.57255 0.9935 0.72121 0.0
O285 O 0.51795 0.93694 0.77498 0.0
O286 O 0.56738 0.95638 0.80143 0.0
O287 O 0.47881 0.04503 0.76342 0.0
O288 O 0.46639 0.99197 0.76487 0.0
O289 O 0.47677 0.95158 0.60388 0.0
O290 O 0.50379 0.97106 0.49614 0.0
O291 O 0.58364 0.99048 0.51772 0.0
O292 O 0.55348 0.07163 0.76055 0.0
O293 O 0.60734 0.98479 0.63953 0.0
O294 O 0.58817 0.0329 0.78403 0.0
C295 C 0.51619 0.06782 0.51719 0.0
C296 C 0.54444 0.93571 0.81339 0.0
C297 C 0.47947 0.95599 0.52671 0.0
C298 C 0.46043 0.02108 0.78424 0.0
C299 C 0.60851 0.98604 0.56123 0.0
C300 C 0.57919 0.06189 0.79275 0.0
O301 O 0.52957 0.04228 0.49317 0.0
O302 O 0.44324 0.50259 0.65396 0.0
Zn303 Zn 0.48052 0.49895 0.73201 0.0
O304 O 0.52147 0.49985 0.67264 0.0
Zn305 Zn 0.54116 0.45809 0.68112 0.0
Zn306 Zn 0.51377 0.50923 0.55705 0.0
Zn307 Zn 0.55112 0.53302 0.71872 0.0
O308 O 0.58381 0.46098 0.73887 0.0
O309 O 0.58818 0.51301 0.77719 0.0
O310 O 0.47315 0.45659 0.79278 0.0
O311 O 0.51409 0.42807 0.74988 0.0
O312 O 0.54175 0.43562 0.57194 0.0
O313 O 0.52646 0.47263 0.48247 0.0
O314 O 0.53426 0.55241 0.52711 0.0
O315 O 0.47911 0.53629 0.81185 0.0
O316 O 0.56652 0.56534 0.63244 0.0
O317 O 0.52813 0.5593 0.80278 0.0
C318 C 0.4417 0.50719 0.57661 0.0
C319 C 0.59823 0.48419 0.77796 0.0
C320 C 0.53473 0.44392 0.49893 0.0
C321 C 0.4885 0.43048 0.79085 0.0
C322 C 0.55494 0.57159 0.56182 0.0
C323 C 0.50003 0.55812 0.83275 0.0
O324 O 0.46679 0.51104 0.53327 0.0
O325 O 0.95283 0.5319 0.58871 0.0
Zn326 Zn 0.99618 0.53773 0.64588 0.0
O327 O 0.01404 0.49499 0.67051 0.0
Zn328 Zn 0.01439 0.48841 0.78864 0.0
Zn329 Zn 0.98827 0.46005 0.61872 0.0
Zn330 Zn 0.05759 0.49273 0.63038 0.0
O331 O 0.05798 0.47605 0.82912 0.0
O332 O 0.08951 0.48681 0.72169 0.0
O333 O 0.9932 0.56515 0.75054 0.0
O334 O 0.00542 0.52981 0.84783 0.0
O335 O 0.98037 0.45539 0.82105 0.0
O336 O 0.96661 0.43099 0.70292 0.0
O337 O 0.0136 0.43292 0.54064 0.0
O338 O 0.0254 0.56303 0.56741 0.0
O339 O 0.06257 0.45564 0.55042 0.0
O340 O 0.06873 0.53316 0.56903 0.0
C341 C 0.94015 0.50689 0.55274 0.0
C342 C 0.08562 0.47855 0.79648 0.0
C343 C 0.96391 0.43401 0.78061 0.0
C344 C 0.99787 0.55816 0.82603 0.0
C345 C 0.04299 0.43426 0.52026 0.0
C346 C 0.05411 0.55814 0.54613 0.0
O347 O 0.95249 0.47915 0.55583 0.0
C348 C 0.14106 0.96591 0.3607 0.0
C349 C 0.1689 0.98606 0.37314 0.0
C350 C 0.14952 0.00269 0.50809 0.0
C351 C 0.12209 0.98141 0.49805 0.0
N352 N 0.09718 0.93557 0.42529 0.0
N353 N 0.20465 0.0137 0.46996 0.0
C354 C 0.11957 0.96067 0.42754 0.0
C355 C 0.17482 0.00098 0.45088 0.0
N356 N 0.13445 0.95284 0.28473 0.0
N357 N 0.15069 0.02646 0.56738 0.0
H358 H 0.22404 0.01228 0.42997 0.0
H359 H 0.21083 0.02227 0.52868 0.0
H360 H 0.13207 0.0309 0.60766 0.0
H361 H 0.16895 0.04444 0.57037 0.0
H362 H 0.11272 0.94088 0.27004 0.0
H363 H 0.14981 0.95606 0.23471 0.0
H364 H 0.09596 0.9182 0.37832 0.0
H365 H 0.08217 0.93003 0.4749 0.0
C366 C 0.47246 0.10448 0.33582 0.0
C367 C 0.48242 0.13759 0.34488 0.0
C368 C 0.51886 0.12378 0.45702 0.0
C369 C 0.506 0.09138 0.45471 0.0
N370 N 0.46874 0.05089 0.39663 0.0
N371 N 0.5136 0.17987 0.41532 0.0
C372 C 0.48257 0.08158 0.39471 0.0
C373 C 0.50538 0.14755 0.40554 0.0
N374 N 0.45344 0.09497 0.27058 0.0
N375 N 0.54463 0.1315 0.50655 0.0
H376 H 0.50541 0.19784 0.37625 0.0
H377 H 0.52707 0.18919 0.46471 0.0
H378 H 0.55525 0.11454 0.54446 0.0
H379 H 0.55726 0.15381 0.50507 0.0
H380 H 0.44806 0.07075 0.25522 0.0
H381 H 0.44501 0.1113 0.2274 0.0
H382 H 0.44868 0.04361 0.36201 0.0
H383 H 0.47589 0.03302 0.4371 0.0
C384 C 0.35928 0.47639 0.50259 0.0
C385 C 0.3527 0.50002 0.44218 0.0
C386 C 0.40172 0.53114 0.48076 0.0
C387 C 0.41016 0.50559 0.53426 0.0
N388 N 0.39935 0.45102 0.58522 0.0
N389 N 0.36905 0.54784 0.36576 0.0
C390 C 0.38954 0.47747 0.54262 0.0
C391 C 0.37434 0.52686 0.42895 0.0
N392 N 0.33628 0.45334 0.52347 0.0
N393 N 0.41914 0.55999 0.48199 0.0
H394 H 0.34903 0.54555 0.32724 0.0
H395 H 0.38567 0.56585 0.34733 0.0
H396 H 0.43873 0.56437 0.52106 0.0
H397 H 0.41239 0.58061 0.45041 0.0
H398 H 0.33838 0.43797 0.57383 0.0
H399 H 0.31384 0.4514 0.49518 0.0
H400 H 0.38691 0.42857 0.58448 0.0
H401 H 0.42135 0.45026 0.61526 0.0
C402 C 0.06125 0.35236 0.42499 0.0
C403 C 0.07919 0.36232 0.35486 0.0
C404 C 0.07005 0.41949 0.38769 0.0
C405 C 0.055 0.40957 0.46238 0.0
N406 N 0.04155 0.36698 0.55959 0.0
N407 N 0.10374 0.40494 0.27267 0.0
C408 C 0.0518 0.37609 0.48285 0.0
C409 C 0.08444 0.39581 0.33699 0.0
N410 N 0.05311 0.32015 0.43616 0.0
N411 N 0.06959 0.45133 0.3639 0.0
H412 H 0.11369 0.38818 0.23271 0.0
H413 H 0.11153 0.42889 0.26192 0.0
H414 H 0.05884 0.46926 0.39869 0.0
H415 H 0.07741 0.45961 0.30665 0.0
H416 H 0.03701 0.31181 0.48083 0.0
H417 H 0.06026 0.30183 0.39641 0.0
H418 H 0.0422 0.34323 0.58126 0.0
H419 H 0.03528 0.38354 0.60502 0.0
C420 C 0.90072 0.01911 0.99638 0.0
C421 C 0.8717 0.02919 0.96104 0.0
C422 C 0.89321 0.02223 0.82201 0.0
C423 C 0.92223 0.01203 0.85727 0.0
N424 N 0.95267 0.99607 0.97622 0.0
N425 N 0.83762 0.03531 0.84257 0.0
C426 C 0.92559 0.00878 0.944 0.0
C427 C 0.86711 0.02914 0.87439 0.0
N428 N 0.9049 0.02075 0.07999 0.0
N429 N 0.89094 0.02592 0.73851 0.0
H430 H 0.81818 0.04106 0.87921 0.0
H431 H 0.83158 0.03254 0.78064 0.0
H432 H 0.90886 0.0192 0.69801 0.0
H433 H 0.87207 0.03695 0.70919 0.0
H434 H 0.92668 0.01767 0.10959 0.0
H435 H 0.88678 0.02701 0.1204 0.0
H436 H 0.95514 0.9895 0.03766 0.0
H437 H 0.97233 0.99011 0.94073 0.0
C438 C 0.54695 0.8555 0.92535 0.0
C439 C 0.53798 0.86543 0.00565 0.0
C440 C 0.53864 0.92236 0.96247 0.0
C441 C 0.54661 0.91231 0.88152 0.0
N442 N 0.56513 0.87146 0.78873 0.0
N443 N 0.53205 0.90786 0.10646 0.0
C444 C 0.55304 0.87947 0.86396 0.0
C445 C 0.53621 0.89882 0.02614 0.0
N446 N 0.54838 0.82306 0.90732 0.0
N447 N 0.53181 0.95412 0.9773 0.0
H448 H 0.52956 0.89106 0.15414 0.0
H449 H 0.53357 0.93187 0.12712 0.0
H450 H 0.53445 0.9723 0.93299 0.0
H451 H 0.52193 0.96235 0.03194 0.0
H452 H 0.55099 0.81385 0.84803 0.0
H453 H 0.54556 0.80498 0.95185 0.0
H454 H 0.57302 0.8485 0.77376 0.0
H455 H 0.56965 0.88869 0.74282 0.0
C456 C 0.64264 0.44413 0.95219 0.0
C457 C 0.67338 0.45973 0.94584 0.0
C458 C 0.65553 0.49033 0.82576 0.0
C459 C 0.62425 0.47632 0.83578 0.0
N460 N 0.58619 0.44596 0.92017 0.0
N461 N 0.70802 0.5015 0.88643 0.0
C462 C 0.61726 0.45492 0.90234 0.0
C463 C 0.67952 0.48402 0.88545 0.0
N464 N 0.63791 0.4182 0.00374 0.0
N465 N 0.66258 0.50863 0.75768 0.0
H466 H 0.72608 0.49746 0.9293 0.0
H467 H 0.71276 0.52172 0.84951 0.0
H468 H 0.64557 0.51369 0.71283 0.0
H469 H 0.6857 0.51663 0.74219 0.0
H470 H 0.61701 0.40354 0.00374 0.0
H471 H 0.65581 0.40953 0.04174 0.0
H472 H 0.57948 0.4333 0.97316 0.0
H473 H 0.5667 0.45388 0.88653 0.0
C474 C 0.02696 0.61134 0.00542 0.0
C475 C 0.00218 0.63365 0.01158 0.0
C476 C 0.97197 0.60374 0.90332 0.0
C477 C 0.99882 0.58432 0.88962 0.0
N478 N 0.05456 0.57462 0.91681 0.0
N479 N 0.95197 0.65323 0.96326 0.0
C480 C 0.02698 0.58927 0.93821 0.0
C481 C 0.97478 0.63039 0.95987 0.0
N482 N 0.05062 0.61133 0.06384 0.0
N483 N 0.9436 0.59614 0.86438 0.0
H484 H 0.95282 0.67228 0.00603 0.0
H485 H 0.9333 0.65439 0.92085 0.0
H486 H 0.94067 0.57662 0.82337 0.0
H487 H 0.92234 0.60738 0.87784 0.0
H488 H 0.06747 0.59337 0.06715 0.0
H489 H 0.05147 0.62737 0.11388 0.0
H490 H 0.07656 0.58005 0.94506 0.0
H491 H 0.05638 0.55984 0.86487 0.0
C492 C 0.07112 0.12322 0.46904 0.0
C493 C 0.05422 0.14023 0.40836 0.0
C494 C 0.00542 0.1072 0.43856 0.0
C495 C 0.02352 0.08808 0.49227 0.0
N496 N 0.07531 0.07339 0.54479 0.0
N497 N 0.00638 0.14645 0.32717 0.0
C498 C 0.05687 0.09477 0.50342 0.0
C499 C 0.02153 0.13183 0.39096 0.0
N500 N 0.10047 0.13486 0.49588 0.0
N501 N 0.97301 0.10196 0.43369 0.0
H502 H 0.01748 0.16451 0.29119 0.0
H503 H 0.98365 0.13913 0.30615 0.0
H504 H 0.96096 0.08348 0.46643 0.0
H505 H 0.95795 0.11711 0.40184 0.0
H506 H 0.11231 0.12525 0.54627 0.0
H507 H 0.11152 0.1562 0.47349 0.0
H508 H 0.10023 0.07527 0.54543 0.0
H509 H 0.0661 0.05242 0.5734 0.0
C510 C 0.41328 0.94654 0.3649 0.0
C511 C 0.39286 0.9712 0.39232 0.0
C512 C 0.42942 0.98516 0.5053 0.0
C513 C 0.44903 0.95921 0.48165 0.0
N514 N 0.45857 0.91297 0.39546 0.0
N515 N 0.37796 0.00942 0.49769 0.0
C516 C 0.4406 0.9391 0.4133 0.0
C517 C 0.39968 0.98876 0.46583 0.0
N518 N 0.40685 0.93093 0.29183 0.0
N519 N 0.44033 0.00828 0.56077 0.0
H520 H 0.3565 0.01458 0.46866 0.0
H521 H 0.38008 0.01945 0.55667 0.0
H522 H 0.46249 0.008 0.59028 0.0
H523 H 0.42913 0.03019 0.56937 0.0
H524 H 0.42239 0.91518 0.2637 0.0
H525 H 0.38634 0.93499 0.2571 0.0
H526 H 0.45238 0.89561 0.35072 0.0
H527 H 0.47883 0.90752 0.42972 0.0
C528 C 0.48052 0.37441 0.42618 0.0
C529 C 0.4957 0.36464 0.35298 0.0
C530 C 0.53872 0.40623 0.37595 0.0
C531 C 0.52177 0.41758 0.44499 0.0
N532 N 0.47241 0.41791 0.52234 0.0
N533 N 0.53688 0.37327 0.25097 0.0
C534 C 0.49146 0.40328 0.46606 0.0
C535 C 0.52426 0.38108 0.32566 0.0
N536 N 0.45625 0.35549 0.45947 0.0
N537 N 0.56857 0.41916 0.35941 0.0
H538 H 0.52684 0.35492 0.21322 0.0
H539 H 0.55586 0.38634 0.22389 0.0
H540 H 0.57909 0.43812 0.39438 0.0
H541 H 0.58354 0.40992 0.31466 0.0
H542 H 0.4468 0.35978 0.51765 0.0
H543 H 0.44769 0.33364 0.43308 0.0
H544 H 0.44852 0.41061 0.53097 0.0
H545 H 0.47917 0.43914 0.5544 0.0
C546 C 0.12781 0.58903 0.46078 0.0
C547 C 0.12339 0.57168 0.38594 0.0
C548 C 0.06551 0.57186 0.40248 0.0
C549 C 0.07094 0.57938 0.4864 0.0
N550 N 0.10327 0.60653 0.58894 0.0
N551 N 0.08939 0.55556 0.27259 0.0
C552 C 0.10083 0.59294 0.51224 0.0
C553 C 0.09244 0.56709 0.35133 0.0
N554 N 0.158 0.59901 0.48432 0.0
N555 N 0.03483 0.56685 0.37507 0.0
H556 H 0.1094 0.55246 0.23546 0.0
H557 H 0.06764 0.54957 0.24395 0.0
H558 H 0.01538 0.57042 0.41379 0.0
H559 H 0.0286 0.56118 0.31444 0.0
H560 H 0.16352 0.61114 0.53923 0.0
H561 H 0.17763 0.596 0.44585 0.0
H562 H 0.12441 0.61612 0.61481 0.0
H563 H 0.08302 0.60877 0.6258 0.0
C564 C 0.08145 0.86214 0.93679 0.0
C565 C 0.07101 0.8666 0.01895 0.0
C566 C 0.05489 0.9217 0.98744 0.0
C567 C 0.06384 0.91662 0.90433 0.0
N568 N 0.09243 0.88623 0.8031 0.0
N569 N 0.05539 0.90215 0.12852 0.0
C570 C 0.07961 0.88824 0.88024 0.0
C571 C 0.06034 0.89707 0.04631 0.0
N572 N 0.09138 0.83236 0.91198 0.0
N573 N 0.04018 0.94961 0.00905 0.0
H574 H 0.05919 0.88432 0.17262 0.0
H575 H 0.05011 0.92456 0.15399 0.0
H576 H 0.03737 0.9688 0.96818 0.0
H577 H 0.02964 0.95337 0.06608 0.0
H578 H 0.09552 0.82613 0.85085 0.0
H579 H 0.09412 0.81309 0.95259 0.0
H580 H 0.10683 0.86757 0.78405 0.0
H581 H 0.09075 0.90468 0.75963 0.0
C582 C 0.6242 0.09254 0.97765 0.0
C583 C 0.65231 0.10533 0.93883 0.0
C584 C 0.62662 0.10026 0.80361 0.0
C585 C 0.59995 0.08438 0.84178 0.0
N586 N 0.56847 0.07409 0.96285 0.0
N587 N 0.67783 0.12983 0.82098 0.0
C588 C 0.59704 0.08376 0.92843 0.0
C589 C 0.65251 0.11232 0.85355 0.0
N590 N 0.62436 0.08672 0.06051 0.0
N591 N 0.62767 0.10215 0.71963 0.0
H592 H 0.69689 0.13879 0.85733 0.0
H593 H 0.67894 0.13761 0.76017 0.0
H594 H 0.60832 0.09464 0.68238 0.0
H595 H 0.64767 0.11031 0.68663 0.0
H596 H 0.60615 0.07383 0.09118 0.0
H597 H 0.64354 0.09376 0.09872 0.0
H598 H 0.56374 0.0753 0.02565 0.0
H599 H 0.54841 0.06746 0.92713 0.0
C600 C 0.50227 0.61256 0.02132 0.0
C601 C 0.48117 0.63689 0.99635 0.0
C602 C 0.47079 0.60843 0.86567 0.0
C603 C 0.49134 0.58373 0.89141 0.0
N604 N 0.52136 0.5583 0.99856 0.0
N605 N 0.44055 0.65531 0.90407 0.0
C606 C 0.50546 0.58457 0.9709 0.0
C607 C 0.46381 0.63389 0.92141 0.0
N608 N 0.52014 0.61684 0.09159 0.0
N609 N 0.4593 0.60844 0.78663 0.0
H610 H 0.4352 0.67449 0.94337 0.0
H611 H 0.42477 0.65257 0.85451 0.0
H612 H 0.46365 0.59008 0.74405 0.0
H613 H 0.44736 0.62775 0.76118 0.0
H614 H 0.53871 0.60201 0.10801 0.0
H615 H 0.5178 0.63658 0.13141 0.0
H616 H 0.52945 0.55596 0.05889 0.0
H617 H 0.52408 0.5374 0.96294 0.0
C618 C 0.92213 0.39166 0.95741 0.0
C619 C 0.88978 0.39435 0.93338 0.0
C620 C 0.90597 0.4166 0.80031 0.0
C621 C 0.93863 0.41497 0.82492 0.0
N622 N 0.97772 0.39203 0.91467 0.0
N623 N 0.85102 0.39822 0.82465 0.0
C624 C 0.94667 0.39936 0.89954 0.0
C625 C 0.88187 0.40266 0.85172 0.0
N626 N 0.92935 0.38346 0.03657 0.0
N627 N 0.89753 0.43405 0.73262 0.0
H628 H 0.83288 0.38836 0.86207 0.0
H629 H 0.84423 0.40108 0.76336 0.0
H630 H 0.9138 0.44621 0.69425 0.0
H631 H 0.87391 0.43901 0.71832 0.0
H632 H 0.95246 0.38491 0.06081 0.0
H633 H 0.91179 0.37659 0.07926 0.0
H634 H 0.98479 0.37838 0.96495 0.0
H635 H 0.99598 0.39694 0.87229 0.0
C636 C 0.09072 0.14976 0.85323 0.0
C637 C 0.10109 0.14716 0.936 0.0
C638 C 0.09177 0.08778 0.931 0.0
C639 C 0.08161 0.09039 0.84797 0.0
N640 N 0.07703 0.12224 0.72462 0.0
N641 N 0.11671 0.11405 0.05058 0.0
C642 C 0.08285 0.12096 0.80745 0.0
C643 C 0.10341 0.1162 0.97374 0.0
N644 N 0.0875 0.17985 0.81936 0.0
N645 N 0.08861 0.05847 0.9702 0.0
H646 H 0.12425 0.13435 0.08531 0.0
H647 H 0.12236 0.09218 0.078 0.0
H648 H 0.08077 0.03707 0.94037 0.0
H649 H 0.09185 0.05552 0.03327 0.0
H650 H 0.07644 0.18373 0.76292 0.0
H651 H 0.09437 0.20138 0.85002 0.0
H652 H 0.08059 0.14308 0.68922 0.0
H653 H 0.07101 0.10159 0.68963 0.0
C654 C 0.40156 0.01727 0.96157 0.0
C655 C 0.37348 0.02774 0.92149 0.0
C656 C 0.40466 0.04085 0.79775 0.0
C657 C 0.43163 0.02655 0.83418 0.0
N658 N 0.45584 0.99942 0.94871 0.0
N659 N 0.34703 0.04601 0.79912 0.0
C660 C 0.43006 0.0142 0.9155 0.0
C661 C 0.3747 0.03871 0.83893 0.0
N662 N 0.40139 0.01163 0.04456 0.0
N663 N 0.40775 0.05679 0.7244 0.0
H664 H 0.32469 0.04466 0.82761 0.0
H665 H 0.34575 0.05074 0.73628 0.0
H666 H 0.42936 0.05913 0.69291 0.0
H667 H 0.38977 0.07029 0.69847 0.0
H668 H 0.42193 0.00769 0.07897 0.0
H669 H 0.3811 0.01356 0.08091 0.0
H670 H 0.45478 0.98599 0.0029 0.0
H671 H 0.47809 0.99918 0.91993 0.0
C672 C 0.45556 0.34479 0.82549 0.0
C673 C 0.45943 0.34207 0.91184 0.0
C674 C 0.48136 0.39819 0.91989 0.0
C675 C 0.47593 0.40137 0.83429 0.0
N676 N 0.45178 0.38083 0.70856 0.0
N677 N 0.469 0.36808 0.04417 0.0
C678 C 0.46116 0.37556 0.78792 0.0
C679 C 0.4703 0.36935 0.96004 0.0
N680 N 0.44758 0.31779 0.77922 0.0
N681 N 0.49793 0.42228 0.9623 0.0
H682 H 0.46055 0.34762 0.07621 0.0
H683 H 0.47354 0.38822 0.0822 0.0
H684 H 0.50551 0.44422 0.93537 0.0
H685 H 0.5061 0.41963 0.0225 0.0
H686 H 0.44774 0.31755 0.71507 0.0
H687 H 0.44325 0.29485 0.80494 0.0
H688 H 0.43806 0.36403 0.67395 0.0
H689 H 0.45504 0.40338 0.68018 0.0
C690 C 0.14658 0.49697 0.96287 0.0
C691 C 0.16033 0.46618 0.97333 0.0
C692 C 0.12656 0.4435 0.86137 0.0
C693 C 0.11398 0.47461 0.84946 0.0
N694 N 0.11926 0.53258 0.87037 0.0
N695 N 0.16876 0.41219 0.9215 0.0
C696 C 0.12647 0.5019 0.89406 0.0
C697 C 0.15201 0.44003 0.91885 0.0
N698 N 0.15071 0.52083 0.02141 0.0
N699 N 0.11368 0.41723 0.81929 0.0
H700 H 0.18777 0.40924 0.96228 0.0
H701 H 0.16577 0.39333 0.87879 0.0
H702 H 0.0959 0.41929 0.77448 0.0
H703 H 0.11929 0.39332 0.83189 0.0
H704 H 0.13823 0.54226 0.02063 0.0
H705 H 0.16399 0.51808 0.07519 0.0
H706 H 0.1302 0.55349 0.89606 0.0
H707 H 0.105 0.53701 0.81907 0.0
C708 C 0.96669 0.83991 0.52355 0.0
C709 C 0.97733 0.83997 0.44062 0.0
C710 C 0.97181 0.89897 0.43512 0.0
C711 C 0.96897 0.89957 0.52193 0.0
N712 N 0.94526 0.87106 0.6369 0.0
N713 N 0.99002 0.86971 0.31586 0.0
C714 C 0.96071 0.87008 0.56307 0.0
C715 C 0.97912 0.86945 0.39518 0.0
N716 N 0.96367 0.81116 0.56515 0.0
N717 N 0.96595 0.92627 0.39095 0.0
H718 H 0.99569 0.84873 0.28366 0.0
H719 H 0.99562 0.89106 0.28384 0.0
H720 H 0.95743 0.94712 0.41893 0.0
H721 H 0.96523 0.92674 0.32682 0.0
H722 H 0.95987 0.80961 0.62836 0.0
H723 H 0.96632 0.78867 0.53644 0.0
H724 H 0.93681 0.85049 0.6683 0.0
H725 H 0.93704 0.89273 0.66116 0.0
C726 C 0.67084 0.97808 0.39515 0.0
C727 C 0.69237 0.00423 0.41677 0.0
C728 C 0.66245 0.01433 0.54235 0.0
C729 C 0.64012 0.98862 0.52011 0.0
N730 N 0.62767 0.94076 0.43836 0.0
N731 N 0.71514 0.03959 0.52173 0.0
C732 C 0.64596 0.96863 0.45073 0.0
C733 C 0.69053 0.01937 0.49476 0.0
N734 N 0.67341 0.96342 0.31992 0.0
N735 N 0.65557 0.03608 0.60326 0.0
H736 H 0.73573 0.04425 0.48703 0.0
H737 H 0.71656 0.04891 0.5815 0.0
H738 H 0.63464 0.0351 0.63768 0.0
H739 H 0.66937 0.05728 0.61467 0.0
H740 H 0.65629 0.94687 0.29586 0.0
H741 H 0.69236 0.96894 0.28005 0.0
H742 H 0.6322 0.92376 0.39257 0.0
H743 H 0.60959 0.93326 0.47901 0.0
C744 C 0.55989 0.63087 0.38813 0.0
C745 C 0.55797 0.66113 0.43022 0.0
C746 C 0.5609 0.63337 0.56268 0.0
C747 C 0.56307 0.60303 0.52048 0.0
N748 N 0.57692 0.57536 0.39522 0.0
N749 N 0.56838 0.69202 0.55427 0.0
C750 C 0.56697 0.60274 0.43382 0.0
C751 C 0.56284 0.66259 0.51648 0.0
N752 N 0.55244 0.62814 0.30628 0.0
N753 N 0.55404 0.63468 0.64487 0.0
H754 H 0.56994 0.71375 0.52126 0.0
H755 H 0.57475 0.69436 0.61623 0.0
H756 H 0.55078 0.61439 0.68221 0.0
H757 H 0.54861 0.65621 0.67495 0.0
H758 H 0.5501 0.6058 0.27581 0.0
H759 H 0.54577 0.6476 0.27022 0.0
H760 H 0.58255 0.57466 0.33276 0.0
H761 H 0.58293 0.55463 0.42782 0.0
C762 C 0.88731 0.49764 0.36756 0.0
C763 C 0.85718 0.491 0.40553 0.0
C764 C 0.88039 0.50428 0.54107 0.0
C765 C 0.91065 0.50937 0.50327 0.0
N766 N 0.94149 0.52067 0.38158 0.0
N767 N 0.82286 0.49576 0.52314 0.0
C768 C 0.91349 0.50953 0.41656 0.0
C769 C 0.853 0.4971 0.49079 0.0
N770 N 0.89155 0.49038 0.2861 0.0
N771 N 0.87826 0.5047 0.62504 0.0
H772 H 0.80255 0.49057 0.48709 0.0
H773 H 0.81769 0.50237 0.58346 0.0
H774 H 0.89775 0.51117 0.6629 0.0
H775 H 0.85775 0.49747 0.65729 0.0
H776 H 0.91383 0.49091 0.25761 0.0
H777 H 0.8731 0.4817 0.24757 0.0
H778 H 0.94434 0.52421 0.31853 0.0
H779 H 0.96098 0.52939 0.41679 0.0
loop_
_geom_bond_atom_site_label_1
_geom_bond_atom_site_label_2
_geom_bond_distance
_geom_bond_site_symmetry_2
_ccdc_geom_bond_type
P0 O11 1.490 . S
P0 C14 1.812 . S
P0 C20 1.803 . S
P0 C26 1.819 1_554 S
H1 C15 0.941 . S
H2 C16 0.939 . S
H3 C18 0.940 . S
H4 C19 0.940 . S
H5 C21 0.939 . S
H6 C22 0.942 . S
H7 C24 0.940 . S
H8 C25 0.939 . S
H9 C27 0.941 1_554 S
H10 C31 0.939 . S
O11 P0 1.490 . S
H12 C28 0.939 . S
H13 C30 0.940 . S
C14 P0 1.812 . S
C14 C15 1.389 . S
C14 C19 1.391 . S
C15 H1 0.941 . S
C15 C14 1.389 . S
C15 C16 1.397 . S
C16 H2 0.939 . S
C16 C15 1.397 . S
C16 C17 1.378 . S
C17 C16 1.378 . S
C17 C18 1.378 . S
C18 H3 0.940 . S
C18 C17 1.378 . S
C18 C19 1.396 . S
C19 H4 0.940 . S
C19 C14 1.391 . S
C19 C18 1.396 . S
C20 P0 1.803 . S
C20 C21 1.378 1_554 S
C20 C25 1.400 . S
C21 H5 0.939 . S
C21 C20 1.378 1_556 S
C21 C22 1.361 . S
C22 H6 0.942 . S
C22 C21 1.361 . S
C22 C23 1.369 . S
C23 C22 1.369 . S
C23 C24 1.404 1_556 S
C24 H7 0.940 . S
C24 C23 1.404 1_554 S
C24 C25 1.389 . S
C25 H8 0.939 . S
C25 C20 1.400 . S
C25 C24 1.389 . S
C26 P0 1.819 1_556 S
C26 C27 1.391 . S
C26 C31 1.391 . S
C27 H9 0.941 1_556 S
C27 C26 1.391 . S
C27 C28 1.396 . S
C28 H12 0.939 . S
C28 C27 1.396 . S
C28 C29 1.397 . S
C29 C28 1.397 . S
C29 C30 1.385 . S
C30 H13 0.940 . S
C30 C29 1.385 . S
C30 C31 1.388 . S
C31 H10 0.939 . S
C31 C26 1.391 . S
C31 C30 1.388 . S
P32 O43 1.490 . S
P32 C46 1.812 . S
P32 C52 1.803 . S
P32 C58 1.819 . S
H33 C47 0.941 . S
H34 C48 0.939 . S
H35 C50 0.940 . S
H36 C51 0.940 . S
H37 C53 0.939 . S
H38 C54 0.942 1_556 S
H39 C56 0.940 . S
H40 C57 0.939 . S
H41 C59 0.941 . S
H42 C63 0.939 1_655 S
O43 P32 1.490 . S
H44 C60 0.939 . S
H45 C62 0.940 . S
C46 P32 1.812 . S
C46 C47 1.389 . S
C46 C51 1.391 1_455 S
C47 H33 0.941 . S
C47 C46 1.389 . S
C47 C48 1.397 . S
C48 H34 0.939 . S
C48 C47 1.397 . S
C48 C49 1.378 . S
C49 C48 1.378 . S
C49 C50 1.378 1_455 S
C50 H35 0.940 . S
C50 C49 1.378 1_655 S
C50 C51 1.396 . S
C51 H36 0.940 . S
C51 C46 1.391 1_655 S
C51 C50 1.396 . S
C52 P32 1.803 . S
C52 C53 1.378 . S
C52 C57 1.400 1_455 S
C53 H37 0.939 . S
C53 C52 1.378 . S
C53 C54 1.361 . S
C54 H38 0.942 1_554 S
C54 C53 1.361 . S
C54 C55 1.369 1_455 S
C55 C54 1.369 1_655 S
C55 C56 1.404 . S
C56 H39 0.940 . S
C56 C55 1.404 . S
C56 C57 1.389 . S
C57 H40 0.939 . S
C57 C52 1.400 1_655 S
C57 C56 1.389 . S
C58 P32 1.819 . S
C58 C59 1.391 . S
C58 C63 1.391 1_554 S
C59 H41 0.941 . S
C59 C58 1.391 . S
C59 C60 1.396 1_554 S
C60 H44 0.939 . S
C60 C59 1.396 1_556 S
C60 C61 1.397 . S
C61 C60 1.397 . S
C61 C62 1.385 1_455 S
C62 H45 0.940 . S
C62 C61 1.385 1_655 S
C62 C63 1.388 1_655 S
C63 H42 0.939 1_455 S
C63 C58 1.391 1_556 S
C63 C62 1.388 1_455 S
P64 O75 1.490 . S
P64 C78 1.812 . S
P64 C84 1.803 . S
P64 C90 1.819 1_554 S
H65 C79 0.941 . S
H66 C80 0.939 . S
H67 C82 0.940 . S
H68 C83 0.948 . S
H69 C85 0.939 1_556 S
H70 C86 0.942 . S
H71 C88 0.940 . S
H72 C89 0.939 . S
H73 C91 0.941 1_554 S
H74 C95 0.928 1_565 S
O75 P64 1.490 . S
H76 C92 0.939 . S
H77 C94 0.940 . S
C78 P64 1.812 . S
C78 C79 1.389 . S
C78 C83 1.379 1_545 S
C79 H65 0.941 . S
C79 C78 1.389 . S
C79 C80 1.397 . S
C80 H66 0.939 . S
C80 C79 1.397 . S
C80 C81 1.378 . S
C81 C80 1.378 . S
C81 C82 1.378 1_545 S
C82 H67 0.940 . S
C82 C81 1.378 1_565 S
C82 C83 1.401 . S
C83 H68 0.948 . S
C83 C78 1.379 1_565 S
C83 C82 1.401 . S
C84 P64 1.803 . S
C84 C85 1.378 . S
C84 C89 1.400 1_545 S
C85 H69 0.939 1_554 S
C85 C84 1.378 . S
C85 C86 1.361 1_554 S
C86 H70 0.942 . S
C86 C85 1.361 1_556 S
C86 C87 1.369 1_556 S
C87 C86 1.369 1_554 S
C87 C88 1.404 1_545 S
C88 H71 0.940 . S
C88 C87 1.404 1_565 S
C88 C89 1.389 . S
C89 H72 0.939 . S
C89 C84 1.400 1_565 S
C89 C88 1.389 . S
C90 P64 1.819 1_556 S
C90 C91 1.391 . S
C90 C95 1.391 . S
C91 H73 0.941 1_556 S
C91 C90 1.391 . S
C91 C92 1.396 . S
C92 H76 0.939 . S
C92 C91 1.396 . S
C92 C93 1.397 . S
C93 C92 1.397 . S
C93 C94 1.385 1_545 S
C94 H77 0.940 . S
C94 C93 1.385 1_565 S
C94 C95 1.388 1_565 S
C95 H74 0.928 1_545 S
C95 C90 1.391 . S
C95 C94 1.388 1_545 S
P96 O107 1.490 . S
P96 C110 1.812 . S
P96 C116 1.803 . S
P96 C122 1.819 1_554 S
H97 C111 0.941 . S
H98 C112 0.939 . S
H99 C114 0.940 . S
H100 C115 0.940 . S
H101 C117 0.939 . S
H102 C118 0.942 . S
H103 C120 0.940 . S
H104 C121 0.939 . S
H105 C123 0.941 1_554 S
H106 C127 0.939 . S
O107 P96 1.490 . S
H108 C124 0.939 . S
H109 C126 0.940 . S
C110 P96 1.812 . S
C110 C111 1.389 . S
C110 C115 1.391 . S
C111 H97 0.941 . S
C111 C110 1.389 . S
C111 C112 1.397 . S
C112 H98 0.939 . S
C112 C111 1.397 . S
C112 C113 1.378 . S
C113 C112 1.378 . S
C113 C114 1.378 . S
C114 H99 0.940 . S
C114 C113 1.378 . S
C114 C115 1.396 . S
C115 H100 0.940 . S
C115 C110 1.391 . S
C115 C114 1.396 . S
C116 P96 1.803 . S
C116 C117 1.378 1_554 S
C116 C121 1.400 . S
C117 H101 0.939 . S
C117 C116 1.378 1_556 S
C117 C118 1.361 . S
C118 H102 0.942 . S
C118 C117 1.361 . S
C118 C119 1.369 . S
C119 C118 1.369 . S
C119 C120 1.404 1_556 S
C120 H103 0.940 . S
C120 C119 1.404 1_554 S
C120 C121 1.389 . S
C121 H104 0.939 . S
C121 C116 1.400 . S
C121 C120 1.389 . S
C122 P96 1.819 1_556 S
C122 C123 1.391 . S
C122 C127 1.391 . S
C123 H105 0.941 1_556 S
C123 C122 1.391 . S
C123 C124 1.396 . S
C124 H108 0.939 . S
C124 C123 1.396 . S
C124 C125 1.397 . S
C125 C124 1.397 . S
C125 C126 1.385 . S
C126 H109 0.940 . S
C126 C125 1.385 . S
C126 C127 1.388 . S
C127 H106 0.939 . S
C127 C122 1.391 . S
C127 C126 1.388 . S
P128 O139 1.490 . S
P128 C142 1.812 . S
P128 C148 1.803 . S
P128 C154 1.819 . S
H129 C143 0.941 . S
H130 C144 0.939 1_556 S
H131 C146 0.940 . S
H132 C147 0.940 . S
H133 C149 0.939 . S
H134 C150 0.942 . S
H135 C152 0.940 . S
H136 C153 0.939 . S
H137 C155 0.941 . S
H138 C159 0.939 . S
O139 P128 1.490 . S
H140 C156 0.939 . S
H141 C158 0.940 . S
C142 P128 1.812 . S
C142 C143 1.389 . S
C142 C147 1.391 . S
C143 H129 0.941 . S
C143 C142 1.389 . S
C143 C144 1.397 . S
C144 H130 0.939 1_554 S
C144 C143 1.397 . S
C144 C145 1.378 . S
C145 C144 1.378 . S
C145 C146 1.378 . S
C146 H131 0.940 . S
C146 C145 1.378 . S
C146 C147 1.396 . S
C147 H132 0.940 . S
C147 C142 1.391 . S
C147 C146 1.396 . S
C148 P128 1.803 . S
C148 C149 1.378 . S
C148 C153 1.400 . S
C149 H133 0.939 . S
C149 C148 1.378 . S
C149 C150 1.361 . S
C150 H134 0.942 . S
C150 C149 1.361 . S
C150 C151 1.369 . S
C151 C150 1.369 . S
C151 C152 1.404 . S
C152 H135 0.940 . S
C152 C151 1.404 . S
C152 C153 1.389 . S
C153 H136 0.939 . S
C153 C148 1.400 . S
C153 C152 1.389 . S
C154 P128 1.819 . S
C154 C155 1.391 . S
C154 C159 1.391 . S
C155 H137 0.941 . S
C155 C154 1.391 . S
C155 C156 1.396 . S
C156 H140 0.939 . S
C156 C155 1.396 . S
C156 C157 1.397 . S
C157 C156 1.397 . S
C157 C158 1.385 . S
C158 H141 0.940 . S
C158 C157 1.385 . S
C158 C159 1.388 . S
C159 H138 0.939 . S
C159 C154 1.391 . S
C159 C158 1.388 . S
P160 O171 1.490 . S
P160 C174 1.812 . S
P160 C180 1.803 . S
P160 C186 1.819 . S
H161 C175 0.941 . S
H162 C176 0.939 . S
H163 C178 0.940 . S
H164 C179 0.940 . S
H165 C181 0.939 . S
H166 C182 0.942 . S
H167 C184 0.940 . S
H168 C185 0.939 . S
H169 C187 0.941 . S
H170 C191 0.939 . S
O171 P160 1.490 . S
H172 C188 0.939 . S
H173 C190 0.940 . S
C174 P160 1.812 . S
C174 C175 1.389 . S
C174 C179 1.391 . S
C175 H161 0.941 . S
C175 C174 1.389 . S
C175 C176 1.397 . S
C176 H162 0.939 . S
C176 C175 1.397 . S
C176 C177 1.378 . S
C177 C176 1.378 . S
C177 C178 1.378 . S
C178 H163 0.940 . S
C178 C177 1.378 . S
C178 C179 1.396 . S
C179 H164 0.940 . S
C179 C174 1.391 . S
C179 C178 1.396 . S
C180 P160 1.803 . S
C180 C181 1.378 . S
C180 C185 1.400 . S
C181 H165 0.939 . S
C181 C180 1.378 . S
C181 C182 1.361 . S
C182 H166 0.942 . S
C182 C181 1.361 . S
C182 C183 1.369 . S
C183 C182 1.369 . S
C183 C184 1.404 . S
C184 H167 0.940 . S
C184 C183 1.404 . S
C184 C185 1.389 . S
C185 H168 0.939 . S
C185 C180 1.400 . S
C185 C184 1.389 . S
C186 P160 1.819 . S
C186 C187 1.391 . S
C186 C191 1.391 . S
C187 H169 0.941 . S
C187 C186 1.391 . S
C187 C188 1.396 . S
C188 H172 0.939 . S
C188 C187 1.396 . S
C188 C189 1.397 . S
C189 C188 1.397 . S
C189 C190 1.385 . S
C190 H173 0.940 . S
C190 C189 1.385 . S
C190 C191 1.388 . S
C191 H170 0.939 . S
C191 C186 1.391 . S
C191 C190 1.388 . S
P192 O203 1.490 . S
P192 C206 1.812 . S
P192 C212 1.803 . S
P192 C218 1.819 . S
H193 C207 0.941 . S
H194 C208 0.939 . S
H195 C210 0.940 . S
H196 C211 0.943 . S
H197 C213 0.939 . S
H198 C214 0.942 . S
H199 C216 0.940 . S
H200 C217 0.960 . S
H201 C219 0.941 . S
H202 C223 0.932 1_565 S
O203 P192 1.490 . S
H204 C220 0.939 . S
H205 C222 0.940 . S
C206 P192 1.812 . S
C206 C207 1.389 . S
C206 C211 1.386 1_545 S
C207 H193 0.941 . S
C207 C206 1.389 . S
C207 C208 1.397 . S
C208 H194 0.939 . S
C208 C207 1.397 . S
C208 C209 1.378 . S
C209 C208 1.378 . S
C209 C210 1.378 1_545 S
C210 H195 0.940 . S
C210 C209 1.378 1_565 S
C210 C211 1.399 . S
C211 H196 0.943 . S
C211 C206 1.386 1_565 S
C211 C210 1.399 . S
C212 P192 1.803 . S
C212 C213 1.378 . S
C212 C217 1.369 1_545 S
C213 H197 0.939 . S
C213 C212 1.378 . S
C213 C214 1.361 . S
C214 H198 0.942 . S
C214 C213 1.361 . S
C214 C215 1.369 . S
C215 C214 1.369 . S
C215 C216 1.404 1_545 S
C216 H199 0.940 . S
C216 C215 1.404 1_565 S
C216 C217 1.401 . S
C217 H200 0.960 . S
C217 C212 1.369 1_565 S
C217 C216 1.401 . S
C218 P192 1.819 . S
C218 C219 1.391 . S
C218 C223 1.391 . S
C219 H201 0.941 . S
C219 C218 1.391 . S
C219 C220 1.396 . S
C220 H204 0.939 . S
C220 C219 1.396 . S
C220 C221 1.397 . S
C221 C220 1.397 . S
C221 C222 1.385 1_545 S
C222 H205 0.940 . S
C222 C221 1.385 1_565 S
C222 C223 1.388 1_565 S
C223 H202 0.932 1_545 S
C223 C218 1.391 . S
C223 C222 1.388 1_545 S
P224 O235 1.490 . S
P224 C238 1.812 . S
P224 C244 1.803 . S
P224 C250 1.819 . S
H225 C239 0.941 . S
H226 C240 0.939 1_556 S
H227 C242 0.940 . S
H228 C243 0.940 . S
H229 C245 0.939 . S
H230 C246 0.942 . S
H231 C248 0.940 . S
H232 C249 0.939 . S
H233 C251 0.941 . S
H234 C255 0.939 . S
O235 P224 1.490 . S
H236 C252 0.939 . S
H237 C254 0.940 . S
C238 P224 1.812 . S
C238 C239 1.389 . S
C238 C243 1.391 . S
C239 H225 0.941 . S
C239 C238 1.389 . S
C239 C240 1.397 . S
C240 H226 0.939 1_554 S
C240 C239 1.397 . S
C240 C241 1.378 . S
C241 C240 1.378 . S
C241 C242 1.378 . S
C242 H227 0.940 . S
C242 C241 1.378 . S
C242 C243 1.396 . S
C243 H228 0.940 . S
C243 C238 1.391 . S
C243 C242 1.396 . S
C244 P224 1.803 . S
C244 C245 1.378 . S
C244 C249 1.400 . S
C245 H229 0.939 . S
C245 C244 1.378 . S
C245 C246 1.361 . S
C246 H230 0.942 . S
C246 C245 1.361 . S
C246 C247 1.369 . S
C247 C246 1.369 . S
C247 C248 1.404 . S
C248 H231 0.940 . S
C248 C247 1.404 . S
C248 C249 1.389 . S
C249 H232 0.939 . S
C249 C244 1.400 . S
C249 C248 1.389 . S
C250 P224 1.819 . S
C250 C251 1.391 . S
C250 C255 1.391 . S
C251 H233 0.941 . S
C251 C250 1.391 . S
C251 C252 1.396 . S
C252 H236 0.939 . S
C252 C251 1.396 . S
C252 C253 1.397 . S
C253 C252 1.397 . S
C253 C254 1.385 . S
C254 H237 0.940 . S
C254 C253 1.385 . S
C254 C255 1.388 . S
C255 H234 0.939 . S
C255 C250 1.391 . S
C255 C254 1.388 . S
O256 Zn257 1.953 . S
O256 C272 1.229 . S
Zn257 O256 1.953 . S
Zn257 O258 1.950 . S
Zn257 O264 1.919 1_565 S
Zn257 O269 1.924 . S
O258 Zn257 1.950 . S
O258 Zn259 1.899 1_565 S
O258 Zn260 1.953 . S
O258 Zn261 1.965 . S
Zn259 O258 1.899 1_545 S
Zn259 O262 1.933 1_455 S
Zn259 O265 1.941 . S
Zn259 O266 1.965 . S
Zn260 O258 1.953 . S
Zn260 O267 1.938 1_565 S
Zn260 O268 1.906 . S
Zn260 O278 1.953 . S
Zn261 O258 1.965 . S
Zn261 O263 1.932 1_455 S
Zn261 O270 1.977 1_455 S
Zn261 O271 1.910 . S
O262 Zn259 1.933 1_655 S
O262 C273 1.226 . S
O263 Zn261 1.932 1_655 S
O263 C273 1.307 1_565 S
O264 Zn257 1.919 1_545 S
O264 C275 1.253 . S
O265 Zn259 1.941 . S
O265 C275 1.283 . S
O266 Zn259 1.965 . S
O266 C274 1.303 . S
O267 Zn260 1.938 1_545 S
O267 C274 1.247 . S
O268 Zn260 1.906 . S
O268 C276 1.304 1_455 S
O269 Zn257 1.924 . S
O269 C277 1.311 . S
O270 Zn261 1.977 1_655 S
O270 C276 1.272 . S
O271 Zn261 1.910 . S
O271 C277 1.231 . S
C272 O256 1.229 . S
C272 O278 1.298 . S
C273 O262 1.226 . S
C273 O263 1.307 1_545 S
C274 O266 1.303 . S
C274 O267 1.247 . S
C275 O264 1.253 . S
C275 O265 1.283 . S
C276 O268 1.304 1_655 S
C276 O270 1.272 . S
C277 O269 1.311 . S
C277 O271 1.231 . S
O278 Zn260 1.953 . S
O278 C272 1.298 . S
O279 Zn280 1.953 . S
O279 C295 1.225 . S
Zn280 O279 1.953 . S
Zn280 O281 1.949 . S
Zn280 O287 1.919 . S
Zn280 O292 1.924 . S
O281 Zn280 1.949 . S
O281 Zn282 1.923 1_545 S
O281 Zn283 1.950 . S
O281 Zn284 1.945 1_545 S
Zn282 O281 1.923 1_565 S
Zn282 O285 1.933 . S
Zn282 O288 1.941 . S
Zn282 O289 1.965 . S
Zn283 O281 1.950 . S
Zn283 O290 1.938 . S
Zn283 O291 1.906 1_545 S
Zn283 O301 1.953 . S
Zn284 O281 1.945 1_565 S
Zn284 O286 1.932 . S
Zn284 O293 1.977 . S
Zn284 O294 1.910 1_565 S
O285 Zn282 1.933 . S
O285 C296 1.226 . S
O286 Zn284 1.932 . S
O286 C296 1.307 . S
O287 Zn280 1.919 . S
O287 C298 1.253 . S
O288 Zn282 1.941 . S
O288 C298 1.283 1_565 S
O289 Zn282 1.965 . S
O289 C297 1.303 . S
O290 Zn283 1.938 . S
O290 C297 1.247 1_545 S
O291 Zn283 1.906 1_565 S
O291 C299 1.304 . S
O292 Zn280 1.924 . S
O292 C300 1.311 . S
O293 Zn284 1.977 . S
O293 C299 1.272 . S
O294 Zn284 1.910 1_545 S
O294 C300 1.231 . S
C295 O279 1.225 . S
C295 O301 1.298 . S
C296 O285 1.226 . S
C296 O286 1.307 . S
C297 O289 1.303 . S
C297 O290 1.247 1_565 S
C298 O287 1.253 . S
C298 O288 1.283 1_545 S
C299 O291 1.304 . S
C299 O293 1.272 . S
C300 O292 1.311 . S
C300 O294 1.231 . S
O301 Zn283 1.953 . S
O301 C295 1.298 . S
O302 Zn303 1.953 . S
O302 C318 1.225 . S
Zn303 O302 1.953 . S
Zn303 O304 1.949 . S
Zn303 O310 1.919 . S
Zn303 O315 1.924 . S
O304 Zn303 1.949 . S
O304 Zn305 1.923 . S
O304 Zn306 1.950 . S
O304 Zn307 1.945 . S
Zn305 O304 1.923 . S
Zn305 O308 1.933 . S
Zn305 O311 1.941 . S
Zn305 O312 1.965 . S
Zn306 O304 1.950 . S
Zn306 O313 1.938 . S
Zn306 O314 1.906 . S
Zn306 O324 1.953 . S
Zn307 O304 1.945 . S
Zn307 O309 1.932 . S
Zn307 O316 1.977 . S
Zn307 O317 1.910 . S
O308 Zn305 1.933 . S
O308 C319 1.226 . S
O309 Zn307 1.932 . S
O309 C319 1.307 . S
O310 Zn303 1.919 . S
O310 C321 1.253 . S
O311 Zn305 1.941 . S
O311 C321 1.283 . S
O312 Zn305 1.965 . S
O312 C320 1.303 . S
O313 Zn306 1.938 . S
O313 C320 1.247 . S
O314 Zn306 1.906 . S
O314 C322 1.304 . S
O315 Zn303 1.924 . S
O315 C323 1.311 . S
O316 Zn307 1.977 . S
O316 C322 1.272 . S
O317 Zn307 1.910 . S
O317 C323 1.231 . S
C318 O302 1.225 . S
C318 O324 1.298 . S
C319 O308 1.226 . S
C319 O309 1.307 . S
C320 O312 1.303 . S
C320 O313 1.247 . S
C321 O310 1.253 . S
C321 O311 1.283 . S
C322 O314 1.304 . S
C322 O316 1.272 . S
C323 O315 1.311 . S
C323 O317 1.231 . S
O324 Zn306 1.953 . S
O324 C318 1.298 . S
O325 Zn326 1.953 1_655 S
O325 C341 1.225 . S
Zn326 O325 1.953 1_455 S
Zn326 O327 1.949 . S
Zn326 O333 1.919 . S
Zn326 O338 1.924 . S
O327 Zn326 1.949 . S
O327 Zn328 1.923 . S
O327 Zn329 1.950 1_455 S
O327 Zn330 1.945 . S
Zn328 O327 1.923 . S
Zn328 O331 1.933 . S
Zn328 O334 1.941 1_455 S
Zn328 O335 1.965 1_455 S
Zn329 O327 1.950 1_655 S
Zn329 O336 1.938 . S
Zn329 O337 1.906 1_655 S
Zn329 O347 1.953 . S
Zn330 O327 1.945 . S
Zn330 O332 1.932 . S
Zn330 O339 1.977 . S
Zn330 O340 1.910 . S
O331 Zn328 1.933 . S
O331 C342 1.226 . S
O332 Zn330 1.932 . S
O332 C342 1.307 . S
O333 Zn326 1.919 . S
O333 C344 1.253 . S
O334 Zn328 1.941 1_655 S
O334 C344 1.283 1_655 S
O335 Zn328 1.965 1_655 S
O335 C343 1.303 . S
O336 Zn329 1.938 . S
O336 C343 1.247 . S
O337 Zn329 1.906 1_455 S
O337 C345 1.304 . S
O338 Zn326 1.924 . S
O338 C346 1.311 . S
O339 Zn330 1.977 . S
O339 C345 1.272 . S
O340 Zn330 1.910 . S
O340 C346 1.231 . S
C341 O325 1.225 . S
C341 O347 1.298 . S
C342 O331 1.226 . S
C342 O332 1.307 . S
C343 O335 1.303 . S
C343 O336 1.247 . S
C344 O333 1.253 . S
C344 O334 1.283 1_455 S
C345 O337 1.304 . S
C345 O339 1.272 . S
C346 O338 1.311 . S
C346 O340 1.231 . S
O347 Zn329 1.953 . S
O347 C341 1.298 . S
C348 C349 1.363 . S
C348 C354 1.379 . S
C348 N356 1.356 . S
C349 C348 1.363 . S
C349 C355 1.363 1_565 S
C350 C351 1.363 1_545 S
C350 C355 1.379 . S
C350 N357 1.356 . S
C351 C350 1.363 1_565 S
C351 C354 1.363 . S
N352 C354 1.356 . S
N352 H364 0.984 . S
N352 H365 0.985 . S
N353 C355 1.356 . S
N353 H358 0.984 . S
N353 H359 0.985 . S
C354 C348 1.379 . S
C354 C351 1.363 . S
C354 N352 1.356 . S
C355 C349 1.363 1_545 S
C355 C350 1.379 . S
C355 N353 1.356 . S
N356 C348 1.356 . S
N356 H362 0.984 . S
N356 H363 0.984 . S
N357 C350 1.356 . S
N357 H360 0.984 . S
N357 H361 0.985 . S
H358 N353 0.984 . S
H359 N353 0.985 . S
H360 N357 0.984 . S
H361 N357 0.985 . S
H362 N356 0.984 . S
H363 N356 0.984 . S
H364 N352 0.984 . S
H365 N352 0.985 . S
C366 C367 1.363 . S
C366 C372 1.379 . S
C366 N374 1.356 . S
C367 C366 1.363 . S
C367 C373 1.363 . S
C368 C369 1.363 . S
C368 C373 1.379 . S
C368 N375 1.356 . S
C369 C368 1.363 . S
C369 C372 1.363 . S
N370 C372 1.356 . S
N370 H382 0.984 . S
N370 H383 0.985 . S
N371 C373 1.356 . S
N371 H376 0.984 . S
N371 H377 0.985 . S
C372 C366 1.379 . S
C372 C369 1.363 . S
C372 N370 1.356 . S
C373 C367 1.363 . S
C373 C368 1.379 . S
C373 N371 1.356 . S
N374 C366 1.356 . S
N374 H380 0.984 . S
N374 H381 0.984 . S
N375 C368 1.356 . S
N375 H378 0.984 . S
N375 H379 0.985 . S
H376 N371 0.984 . S
H377 N371 0.985 . S
H378 N375 0.984 . S
H379 N375 0.985 . S
H380 N374 0.984 . S
H381 N374 0.984 . S
H382 N370 0.984 . S
H383 N370 0.985 . S
C384 C385 1.363 . S
C384 C390 1.379 . S
C384 N392 1.356 . S
C385 C384 1.363 . S
C385 C391 1.363 . S
C386 C387 1.363 . S
C386 C391 1.379 . S
C386 N393 1.356 . S
C387 C386 1.363 . S
C387 C390 1.363 . S
N388 C390 1.356 . S
N388 H400 0.984 . S
N388 H401 0.985 . S
N389 C391 1.356 . S
N389 H394 0.984 . S
N389 H395 0.985 . S
C390 C384 1.379 . S
C390 C387 1.363 . S
C390 N388 1.356 . S
C391 C385 1.363 . S
C391 C386 1.379 . S
C391 N389 1.356 . S
N392 C384 1.356 . S
N392 H398 0.984 . S
N392 H399 0.984 . S
N393 C386 1.356 . S
N393 H396 0.984 . S
N393 H397 0.985 . S
H394 N389 0.984 . S
H395 N389 0.985 . S
H396 N393 0.984 . S
H397 N393 0.985 . S
H398 N392 0.984 . S
H399 N392 0.984 . S
H400 N388 0.984 . S
H401 N388 0.985 . S
C402 C403 1.363 . S
C402 C408 1.379 . S
C402 N410 1.356 . S
C403 C402 1.363 . S
C403 C409 1.363 . S
C404 C405 1.363 . S
C404 C409 1.379 . S
C404 N411 1.356 . S
C405 C404 1.363 . S
C405 C408 1.363 . S
N406 C408 1.356 . S
N406 H418 0.984 1_455 S
N406 H419 0.985 . S
N407 C409 1.356 . S
N407 H412 0.984 . S
N407 H413 0.985 . S
C408 C402 1.379 . S
C408 C405 1.363 . S
C408 N406 1.356 . S
C409 C403 1.363 . S
C409 C404 1.379 . S
C409 N407 1.356 . S
N410 C402 1.356 . S
N410 H416 0.984 . S
N410 H417 0.984 . S
N411 C404 1.356 . S
N411 H414 0.984 . S
N411 H415 0.985 . S
H412 N407 0.984 . S
H413 N407 0.985 . S
H414 N411 0.984 . S
H415 N411 0.985 . S
H416 N410 0.984 . S
H417 N410 0.984 . S
H418 N406 0.984 1_655 S
H419 N406 0.985 . S
C420 C421 1.363 1_565 S
C420 C426 1.379 . S
C420 N428 1.356 1_556 S
C421 C420 1.363 1_545 S
C421 C427 1.363 . S
C422 C423 1.363 . S
C422 C427 1.379 . S
C422 N429 1.356 . S
C423 C422 1.363 . S
C423 C426 1.363 1_545 S
N424 C426 1.356 . S
N424 H436 0.984 . S
N424 H437 0.985 . S
N425 C427 1.356 . S
N425 H430 0.984 . S
N425 H431 0.985 . S
C426 C420 1.379 . S
C426 C423 1.363 1_565 S
C426 N424 1.356 . S
C427 C421 1.363 . S
C427 C422 1.379 . S
C427 N425 1.356 . S
N428 C420 1.356 1_554 S
N428 H434 0.984 . S
N428 H435 0.984 . S
N429 C422 1.356 . S
N429 H432 0.984 . S
N429 H433 0.985 . S
H430 N425 0.984 . S
H431 N425 0.985 . S
H432 N429 0.984 . S
H433 N429 0.985 . S
H434 N428 0.984 . S
H435 N428 0.984 . S
H436 N424 0.984 . S
H437 N424 0.985 . S
C438 C439 1.363 . S
C438 C444 1.379 . S
C438 N446 1.356 . S
C439 C438 1.363 . S
C439 C445 1.363 . S
C440 C441 1.363 . S
C440 C445 1.379 . S
C440 N447 1.356 . S
C441 C440 1.363 . S
C441 C444 1.363 . S
N442 C444 1.356 . S
N442 H454 0.984 . S
N442 H455 0.985 . S
N443 C445 1.356 1_554 S
N443 H448 0.984 . S
N443 H449 0.985 . S
C444 C438 1.379 . S
C444 C441 1.363 . S
C444 N442 1.356 . S
C445 C439 1.363 . S
C445 C440 1.379 . S
C445 N443 1.356 1_556 S
N446 C438 1.356 . S
N446 H452 0.984 . S
N446 H453 0.984 . S
N447 C440 1.356 . S
N447 H450 0.984 . S
N447 H451 0.985 . S
H448 N443 0.984 . S
H449 N443 0.985 . S
H450 N447 0.984 . S
H451 N447 0.985 . S
H452 N446 0.984 . S
H453 N446 0.984 . S
H454 N442 0.984 . S
H455 N442 0.985 . S
C456 C457 1.363 . S
C456 C462 1.379 . S
C456 N464 1.356 . S
C457 C456 1.363 . S
C457 C463 1.363 . S
C458 C459 1.363 . S
C458 C463 1.379 . S
C458 N465 1.356 . S
C459 C458 1.363 . S
C459 C462 1.363 . S
N460 C462 1.356 . S
N460 H472 0.984 . S
N460 H473 0.985 . S
N461 C463 1.356 . S
N461 H466 0.984 . S
N461 H467 0.985 . S
C462 C456 1.379 . S
C462 C459 1.363 . S
C462 N460 1.356 . S
C463 C457 1.363 . S
C463 C458 1.379 . S
C463 N461 1.356 . S
N464 C456 1.356 . S
N464 H470 0.984 . S
N464 H471 0.984 1_556 S
N465 C458 1.356 . S
N465 H468 0.984 . S
N465 H469 0.985 . S
H466 N461 0.984 . S
H467 N461 0.985 . S
H468 N465 0.984 . S
H469 N465 0.985 . S
H470 N464 0.984 . S
H471 N464 0.984 1_554 S
H472 N460 0.984 . S
H473 N460 0.985 . S
C474 C475 1.363 1_455 S
C474 C480 1.379 . S
C474 N482 1.356 1_556 S
C475 C474 1.363 1_655 S
C475 C481 1.363 . S
C476 C477 1.363 1_655 S
C476 C481 1.379 . S
C476 N483 1.356 . S
C477 C476 1.363 1_455 S
C477 C480 1.363 . S
N478 C480 1.356 . S
N478 H490 0.984 . S
N478 H491 0.985 . S
N479 C481 1.356 . S
N479 H484 0.984 1_556 S
N479 H485 0.985 . S
C480 C474 1.379 . S
C480 C477 1.363 . S
C480 N478 1.356 . S
C481 C475 1.363 . S
C481 C476 1.379 . S
C481 N479 1.356 . S
N482 C474 1.356 1_554 S
N482 H488 0.984 . S
N482 H489 0.984 . S
N483 C476 1.356 . S
N483 H486 0.984 . S
N483 H487 0.985 . S
H484 N479 0.984 1_554 S
H485 N479 0.985 . S
H486 N483 0.984 . S
H487 N483 0.985 . S
H488 N482 0.984 . S
H489 N482 0.984 . S
H490 N478 0.984 . S
H491 N478 0.985 . S
C492 C493 1.363 . S
C492 C498 1.379 . S
C492 N500 1.356 . S
C493 C492 1.363 . S
C493 C499 1.363 . S
C494 C495 1.363 . S
C494 C499 1.379 . S
C494 N501 1.356 . S
C495 C494 1.363 . S
C495 C498 1.363 . S
N496 C498 1.356 . S
N496 H508 0.984 . S
N496 H509 0.985 . S
N497 C499 1.356 . S
N497 H502 0.984 . S
N497 H503 0.985 . S
C498 C492 1.379 . S
C498 C495 1.363 . S
C498 N496 1.356 . S
C499 C493 1.363 . S
C499 C494 1.379 . S
C499 N497 1.356 . S
N500 C492 1.356 . S
N500 H506 0.984 . S
N500 H507 0.984 . S
N501 C494 1.356 . S
N501 H504 0.984 . S
N501 H505 0.985 . S
H502 N497 0.984 . S
H503 N497 0.985 . S
H504 N501 0.984 . S
H505 N501 0.985 . S
H506 N500 0.984 . S
H507 N500 0.984 . S
H508 N496 0.984 . S
H509 N496 0.985 . S
C510 C511 1.335 1_565 S
C510 C516 1.379 . S
C510 N518 1.356 . S
C511 C510 1.335 1_545 S
C511 C517 1.388 . S
C512 C513 1.363 1_545 S
C512 C517 1.379 . S
C512 N519 1.356 . S
C513 C512 1.363 1_565 S
C513 C516 1.363 . S
N514 C516 1.356 . S
N514 H526 0.984 . S
N514 H527 0.985 . S
N515 C517 1.356 . S
N515 H520 0.984 . S
N515 H521 0.985 . S
C516 C510 1.379 . S
C516 C513 1.363 . S
C516 N514 1.356 . S
C517 C511 1.388 . S
C517 C512 1.379 . S
C517 N515 1.356 . S
N518 C510 1.356 . S
N518 H524 0.984 . S
N518 H525 0.984 . S
N519 C512 1.356 . S
N519 H522 0.984 . S
N519 H523 0.985 . S
H520 N515 0.984 . S
H521 N515 0.985 . S
H522 N519 0.984 . S
H523 N519 0.985 . S
H524 N518 0.984 . S
H525 N518 0.984 . S
H526 N514 0.984 . S
H527 N514 0.985 . S
C528 C529 1.363 . S
C528 C534 1.379 . S
C528 N536 1.356 . S
C529 C528 1.363 . S
C529 C535 1.363 . S
C530 C531 1.363 . S
C530 C535 1.379 . S
C530 N537 1.356 . S
C531 C530 1.363 . S
C531 C534 1.363 . S
N532 C534 1.356 . S
N532 H544 0.984 . S
N532 H545 0.985 . S
N533 C535 1.356 . S
N533 H538 0.984 . S
N533 H539 0.985 . S
C534 C528 1.379 . S
C534 C531 1.363 . S
C534 N532 1.356 . S
C535 C529 1.363 . S
C535 C530 1.379 . S
C535 N533 1.356 . S
N536 C528 1.356 . S
N536 H542 0.984 . S
N536 H543 0.984 . S
N537 C530 1.356 . S
N537 H540 0.984 . S
N537 H541 0.985 . S
H538 N533 0.984 . S
H539 N533 0.985 . S
H540 N537 0.984 . S
H541 N537 0.985 . S
H542 N536 0.984 . S
H543 N536 0.984 . S
H544 N532 0.984 . S
H545 N532 0.985 . S
C546 C547 1.363 . S
C546 C552 1.379 . S
C546 N554 1.356 . S
C547 C546 1.363 . S
C547 C553 1.363 . S
C548 C549 1.363 . S
C548 C553 1.379 . S
C548 N555 1.356 . S
C549 C548 1.363 . S
C549 C552 1.363 . S
N550 C552 1.356 . S
N550 H562 0.984 . S
N550 H563 0.985 . S
N551 C553 1.356 . S
N551 H556 0.984 . S
N551 H557 0.985 . S
C552 C546 1.379 . S
C552 C549 1.363 . S
C552 N550 1.356 . S
C553 C547 1.363 . S
C553 C548 1.379 . S
C553 N551 1.356 . S
N554 C546 1.356 . S
N554 H560 0.984 . S
N554 H561 0.984 . S
N555 C548 1.356 . S
N555 H558 0.984 . S
N555 H559 0.985 . S
H556 N551 0.984 . S
H557 N551 0.985 . S
H558 N555 0.984 . S
H559 N555 0.985 . S
H560 N554 0.984 . S
H561 N554 0.984 . S
H562 N550 0.984 . S
H563 N550 0.985 . S
C564 C565 1.363 . S
C564 C570 1.379 . S
C564 N572 1.356 . S
C565 C564 1.363 . S
C565 C571 1.363 . S
C566 C567 1.363 . S
C566 C571 1.379 . S
C566 N573 1.356 . S
C567 C566 1.363 . S
C567 C570 1.363 . S
N568 C570 1.356 . S
N568 H580 0.984 . S
N568 H581 0.985 . S
N569 C571 1.356 1_655 S
N569 H574 0.984 . S
N569 H575 0.985 1_556 S
C570 C564 1.379 . S
C570 C567 1.363 . S
C570 N568 1.356 . S
C571 C565 1.363 . S
C571 C566 1.379 . S
C571 N569 1.356 1_455 S
N572 C564 1.356 . S
N572 H578 0.984 . S
N572 H579 0.984 1_455 S
N573 C566 1.356 . S
N573 H576 0.984 . S
N573 H577 0.985 . S
H574 N569 0.984 . S
H575 N569 0.985 1_554 S
H576 N573 0.984 . S
H577 N573 0.985 . S
H578 N572 0.984 . S
H579 N572 0.984 1_655 S
H580 N568 0.984 . S
H581 N568 0.985 . S
C582 C583 1.363 . S
C582 C588 1.379 . S
C582 N590 1.356 1_545 S
C583 C582 1.363 . S
C583 C589 1.363 . S
C584 C585 1.363 . S
C584 C589 1.379 . S
C584 N591 1.356 . S
C585 C584 1.363 . S
C585 C588 1.363 . S
N586 C588 1.356 . S
N586 H598 0.984 . S
N586 H599 0.985 . S
N587 C589 1.356 . S
N587 H592 0.984 1_545 S
N587 H593 0.985 . S
C588 C582 1.379 . S
C588 C585 1.363 . S
C588 N586 1.356 . S
C589 C583 1.363 . S
C589 C584 1.379 . S
C589 N587 1.356 . S
N590 C582 1.356 1_565 S
N590 H596 0.984 1_556 S
N590 H597 0.984 . S
N591 C584 1.356 . S
N591 H594 0.984 . S
N591 H595 0.985 . S
H592 N587 0.984 1_565 S
H593 N587 0.985 . S
H594 N591 0.984 . S
H595 N591 0.985 . S
H596 N590 0.984 1_554 S
H597 N590 0.984 . S
H598 N586 0.984 . S
H599 N586 0.985 . S
C600 C601 1.363 . S
C600 C606 1.379 . S
C600 N608 1.356 . S
C601 C600 1.363 . S
C601 C607 1.363 . S
C602 C603 1.363 . S
C602 C607 1.379 . S
C602 N609 1.356 . S
C603 C602 1.363 . S
C603 C606 1.363 . S
N604 C606 1.356 . S
N604 H616 0.984 . S
N604 H617 0.985 . S
N605 C607 1.356 . S
N605 H610 0.984 . S
N605 H611 0.985 . S
C606 C600 1.379 . S
C606 C603 1.363 . S
C606 N604 1.356 . S
C607 C601 1.363 . S
C607 C602 1.379 . S
C607 N605 1.356 . S
N608 C600 1.356 . S
N608 H614 0.984 . S
N608 H615 0.984 . S
N609 C602 1.356 . S
N609 H612 0.984 . S
N609 H613 0.985 . S
H610 N605 0.984 . S
H611 N605 0.985 . S
H612 N609 0.984 . S
H613 N609 0.985 . S
H614 N608 0.984 . S
H615 N608 0.984 . S
H616 N604 0.984 . S
H617 N604 0.985 . S
C618 C619 1.363 . S
C618 C624 1.379 . S
C618 N626 1.356 . S
C619 C618 1.363 . S
C619 C625 1.363 . S
C620 C621 1.363 . S
C620 C625 1.379 . S
C620 N627 1.356 . S
C621 C620 1.363 . S
C621 C624 1.363 . S
N622 C624 1.356 . S
N622 H634 0.984 . S
N622 H635 0.985 . S
N623 C625 1.356 . S
N623 H628 0.984 . S
N623 H629 0.985 . S
C624 C618 1.379 . S
C624 C621 1.363 . S
C624 N622 1.356 . S
C625 C619 1.363 . S
C625 C620 1.379 . S
C625 N623 1.356 . S
N626 C618 1.356 . S
N626 H632 0.984 . S
N626 H633 0.984 . S
N627 C620 1.356 . S
N627 H630 0.984 . S
N627 H631 0.985 . S
H628 N623 0.984 . S
H629 N623 0.985 . S
H630 N627 0.984 . S
H631 N627 0.985 . S
H632 N626 0.984 . S
H633 N626 0.984 . S
H634 N622 0.984 . S
H635 N622 0.985 . S
C636 C637 1.363 1_556 S
C636 C642 1.379 . S
C636 N644 1.356 . S
C637 C636 1.363 1_554 S
C637 C643 1.363 . S
C638 C639 1.363 1_554 S
C638 C643 1.379 . S
C638 N645 1.356 . S
C639 C638 1.363 1_556 S
C639 C642 1.363 . S
N640 C642 1.356 . S
N640 H652 0.984 . S
N640 H653 0.985 . S
N641 C643 1.356 . S
N641 H646 0.984 . S
N641 H647 0.985 . S
C642 C636 1.379 . S
C642 C639 1.363 . S
C642 N640 1.356 . S
C643 C637 1.363 . S
C643 C638 1.379 . S
C643 N641 1.356 . S
N644 C636 1.356 . S
N644 H650 0.984 . S
N644 H651 0.984 . S
N645 C638 1.356 . S
N645 H648 0.986 . S
N645 H649 0.985 . S
H646 N641 0.984 . S
H647 N641 0.985 . S
H648 N645 0.986 . S
H649 N645 0.985 . S
H650 N644 0.984 . S
H651 N644 0.984 . S
H652 N640 0.984 . S
H653 N640 0.985 . S
C654 C655 1.361 . S
C654 C660 1.380 . S
C654 N662 1.353 1_556 S
C655 C654 1.361 . S
C655 C661 1.366 1_565 S
C656 C657 1.349 1_545 S
C656 C661 1.379 . S
C656 N663 1.356 . S
C657 C656 1.349 1_565 S
C657 C660 1.377 . S
N658 C660 1.356 . S
N658 H670 0.984 1_556 S
N658 H671 0.985 . S
N659 C661 1.356 . S
N659 H664 0.984 . S
N659 H665 0.985 . S
C660 C654 1.380 . S
C660 C657 1.377 . S
C660 N658 1.356 . S
C661 C655 1.366 1_545 S
C661 C656 1.379 . S
C661 N659 1.356 . S
N662 C654 1.353 1_554 S
N662 H668 0.984 . S
N662 H669 0.984 . S
N663 C656 1.356 . S
N663 H666 0.984 . S
N663 H667 0.985 . S
H664 N659 0.984 . S
H665 N659 0.985 . S
H666 N663 0.984 . S
H667 N663 0.985 . S
H668 N662 0.984 . S
H669 N662 0.984 . S
H670 N658 0.984 1_554 S
H671 N658 0.985 . S
C672 C673 1.363 . S
C672 C678 1.379 . S
C672 N680 1.356 . S
C673 C672 1.363 . S
C673 C679 1.363 . S
C674 C675 1.363 . S
C674 C679 1.379 . S
C674 N681 1.356 . S
C675 C674 1.363 . S
C675 C678 1.363 . S
N676 C678 1.356 . S
N676 H688 0.984 . S
N676 H689 0.985 . S
N677 C679 1.356 1_554 S
N677 H682 0.984 . S
N677 H683 0.985 . S
C678 C672 1.379 . S
C678 C675 1.363 . S
C678 N676 1.356 . S
C679 C673 1.363 . S
C679 C674 1.379 . S
C679 N677 1.356 1_556 S
N680 C672 1.356 . S
N680 H686 0.984 . S
N680 H687 0.984 . S
N681 C674 1.356 . S
N681 H684 0.984 . S
N681 H685 0.985 1_556 S
H682 N677 0.984 . S
H683 N677 0.985 . S
H684 N681 0.984 . S
H685 N681 0.985 1_554 S
H686 N680 0.984 . S
H687 N680 0.984 . S
H688 N676 0.984 . S
H689 N676 0.985 . S
C690 C691 1.363 . S
C690 C696 1.379 . S
C690 N698 1.356 . S
C691 C690 1.363 . S
C691 C697 1.363 . S
C692 C693 1.363 . S
C692 C697 1.379 . S
C692 N699 1.356 . S
C693 C692 1.363 . S
C693 C696 1.363 . S
N694 C696 1.356 . S
N694 H706 0.984 . S
N694 H707 0.985 . S
N695 C697 1.356 . S
N695 H700 0.984 . S
N695 H701 0.985 . S
C696 C690 1.379 . S
C696 C693 1.363 . S
C696 N694 1.356 . S
C697 C691 1.363 . S
C697 C692 1.379 . S
C697 N695 1.356 . S
N698 C690 1.356 . S
N698 H704 0.984 . S
N698 H705 0.984 . S
N699 C692 1.356 . S
N699 H702 0.984 . S
N699 H703 0.985 . S
H700 N695 0.984 . S
H701 N695 0.985 . S
H702 N699 0.984 . S
H703 N699 0.985 . S
H704 N698 0.984 . S
H705 N698 0.984 . S
H706 N694 0.984 . S
H707 N694 0.985 . S
C708 C709 1.363 . S
C708 C714 1.379 . S
C708 N716 1.356 . S
C709 C708 1.363 . S
C709 C715 1.363 1_655 S
C710 C711 1.363 1_455 S
C710 C715 1.379 . S
C710 N717 1.356 . S
C711 C710 1.363 1_655 S
C711 C714 1.363 . S
N712 C714 1.356 . S
N712 H724 0.984 . S
N712 H725 0.985 . S
N713 C715 1.356 . S
N713 H718 0.984 . S
N713 H719 0.985 . S
C714 C708 1.379 . S
C714 C711 1.363 . S
C714 N712 1.356 . S
C715 C709 1.363 1_455 S
C715 C710 1.379 . S
C715 N713 1.356 . S
N716 C708 1.356 . S
N716 H722 0.984 . S
N716 H723 0.984 . S
N717 C710 1.356 . S
N717 H720 0.984 . S
N717 H721 0.985 . S
H718 N713 0.984 . S
H719 N713 0.985 . S
H720 N717 0.984 . S
H721 N717 0.985 . S
H722 N716 0.984 . S
H723 N716 0.984 . S
H724 N712 0.984 . S
H725 N712 0.985 . S
C726 C727 1.363 . S
C726 C732 1.379 . S
C726 N734 1.356 . S
C727 C726 1.363 . S
C727 C733 1.363 1_565 S
C728 C729 1.357 1_545 S
C728 C733 1.381 . S
C728 N735 1.359 . S
C729 C728 1.357 1_565 S
C729 C732 1.363 . S
N730 C732 1.356 . S
N730 H742 0.984 . S
N730 H743 0.985 . S
N731 C733 1.356 . S
N731 H736 0.984 . S
N731 H737 0.985 . S
C732 C726 1.379 . S
C732 C729 1.363 . S
C732 N730 1.356 . S
C733 C727 1.363 1_545 S
C733 C728 1.381 . S
C733 N731 1.356 . S
N734 C726 1.356 . S
N734 H740 0.984 . S
N734 H741 0.984 . S
N735 C728 1.359 . S
N735 H738 0.975 1_545 S
N735 H739 0.985 . S
H736 N731 0.984 . S
H737 N731 0.985 . S
H738 N735 0.975 1_565 S
H739 N735 0.985 . S
H740 N734 0.984 . S
H741 N734 0.984 . S
H742 N730 0.984 . S
H743 N730 0.985 . S
C744 C745 1.363 . S
C744 C750 1.379 . S
C744 N752 1.356 . S
C745 C744 1.363 . S
C745 C751 1.363 . S
C746 C747 1.363 . S
C746 C751 1.379 . S
C746 N753 1.356 . S
C747 C746 1.363 . S
C747 C750 1.363 . S
N748 C750 1.356 . S
N748 H760 0.984 . S
N748 H761 0.985 . S
N749 C751 1.356 . S
N749 H754 0.984 . S
N749 H755 0.985 . S
C750 C744 1.379 . S
C750 C747 1.363 . S
C750 N748 1.356 . S
C751 C745 1.363 . S
C751 C746 1.379 . S
C751 N749 1.356 . S
N752 C744 1.356 . S
N752 H758 0.984 . S
N752 H759 0.984 . S
N753 C746 1.356 . S
N753 H756 0.984 . S
N753 H757 0.985 . S
H754 N749 0.984 . S
H755 N749 0.985 . S
H756 N753 0.984 . S
H757 N753 0.985 . S
H758 N752 0.984 . S
H759 N752 0.984 . S
H760 N748 0.984 . S
H761 N748 0.985 . S
C762 C763 1.363 . S
C762 C768 1.379 . S
C762 N770 1.356 . S
C763 C762 1.363 . S
C763 C769 1.363 . S
C764 C765 1.363 . S
C764 C769 1.379 . S
C764 N771 1.356 . S
C765 C764 1.363 . S
C765 C768 1.363 . S
N766 C768 1.356 . S
N766 H778 0.984 . S
N766 H779 0.985 . S
N767 C769 1.356 . S
N767 H772 0.984 . S
N767 H773 0.985 . S
C768 C762 1.379 . S
C768 C765 1.363 . S
C768 N766 1.356 . S
C769 C763 1.363 . S
C769 C764 1.379 . S
C769 N767 1.356 . S
N770 C762 1.356 . S
N770 H776 0.984 . S
N770 H777 0.984 . S
N771 C764 1.356 . S
N771 H774 0.984 . S
N771 H775 0.985 . S
H772 N767 0.984 . S
H773 N767 0.985 . S
H774 N771 0.984 . S
H775 N771 0.985 . S
H776 N770 0.984 . S
H777 N770 0.984 . S
H778 N766 0.984 . S
H779 N766 0.985 . S
C349 C215 1.734 1_565 S
C351 C272 1.732 . S
C369 C295 1.865 . S
C367 C247 1.908 . S
C387 C318 1.756 . S
C385 C151 1.715 . S
C405 C345 1.637 . S
C403 C183 1.798 . S
C423 C273 1.635 . S
C421 C87 1.592 1_556 S
C439 C119 1.588 . S
C441 C296 1.682 . S
C457 C23 1.549 . S
C459 C319 1.569 . S
C475 C55 1.659 1_556 S
C477 C344 1.723 . S
C495 C274 0.741 . S
C493 C189 0.740 . S
C513 C297 0.429 . S
C511 C221 0.539 . S
C531 C320 0.603 . S
C529 C253 0.620 . S
C547 C157 0.715 . S
C549 C346 0.731 . S
C565 C61 0.822 . S
C567 C277 0.825 . S
C585 C300 0.788 . S
C583 C93 0.797 . S
C603 C323 0.858 . S
C601 C125 0.846 . S
C619 C29 0.522 . S
C621 C343 0.426 . S
C637 C177 1.890 . S
C639 C275 1.825 . S
C655 C209 1.771 1_566 S
C657 C298 1.792 1_565 S
C675 C321 1.828 . S
C673 C241 1.840 1_556 S
C693 C342 1.690 . S
C691 C145 1.545 1_556 S
C709 C49 1.920 1_655 S
C711 C276 1.847 . S
C729 C299 1.736 . S
C727 C81 1.831 1_565 S
C747 C322 1.739 . S
C745 C113 1.786 . S
C763 C17 1.896 . S
C765 C341 1.952 . S
