# Generated by pormake.
# Topology tsx, (6,3)-cn, num edge types: 1
# Building blocks:
#     Node 0, Type 0, BuildingBlock: LEVNOQ01_clean_sbu_1, # of connection points: 6
#     Node 1, Type 0, BuildingBlock: LEVNOQ01_clean_sbu_1, # of connection points: 6
#     Node 2, Type 1, BuildingBlock: QEWDON_clean_linker_0, # of connection points: 3
#     Node 3, Type 1, BuildingBlock: QEWDON_clean_linker_0, # of connection points: 3
#     Node 4, Type 1, BuildingBlock: QEWDON_clean_linker_0, # of connection points: 3
#     Node 5, Type 1, BuildingBlock: QEWDON_clean_linker_0, # of connection points: 3
#     Edge 6, Type (0, 1), BuildingBlock: TEMPAE_clean_linker_10, # of connection points: 2
#     Edge 7, Type (0, 1), BuildingBlock: TEMPAE_clean_linker_10, # of connection points: 2
#     Edge 8, Type (0, 1), BuildingBlock: TEMPAE_clean_linker_10, # of connection points: 2
#     Edge 9, Type (0, 1), BuildingBlock: TEMPAE_clean_linker_10, # of connection points: 2
#     Edge 10, Type (0, 1), BuildingBlock: TEMPAE_clean_linker_10, # of connection points: 2
#     Edge 11, Type (0, 1), BuildingBlock: TEMPAE_clean_linker_10, # of connection points: 2
#     Edge 12, Type (0, 1), BuildingBlock: TEMPAE_clean_linker_10, # of connection points: 2
#     Edge 13, Type (0, 1), BuildingBlock: TEMPAE_clean_linker_10, # of connection points: 2
#     Edge 14, Type (0, 1), BuildingBlock: TEMPAE_clean_linker_10, # of connection points: 2
#     Edge 15, Type (0, 1), BuildingBlock: TEMPAE_clean_linker_10, # of connection points: 2
#     Edge 16, Type (0, 1), BuildingBlock: TEMPAE_clean_linker_10, # of connection points: 2
#     Edge 17, Type (0, 1), BuildingBlock: TEMPAE_clean_linker_10, # of connection points: 2
# Relax obj value: 0.108
# Max RMSD: 0.205
# Mean RMSD: 0.148
data_MOF--net-tsx--node1-LEVNOQ01_clean_sbu_1--node2-QEWDON_clean_linker_0--edge1-TEMPAE_clean_linker_10
_symmetry_space_group_name_H-M    P1
_symmetry_Int_Tables_number       1
_symmetry_cell_setting            triclinic
loop_
_symmetry_equiv_pos_as_xyz
'x, y, z'
_cell_length_a     20.280277
_cell_length_b     24.265267
_cell_length_c     33.6446
_cell_angle_alpha  98.139141
_cell_angle_beta   106.39123
_cell_angle_gamma 91.074802
loop_
_atom_site_label
_atom_site_type_symbol
_atom_site_fract_x
_atom_site_fract_y
_atom_site_fract_z
_atom_type_partial_charge
O0 O 0.10759 0.08063 0.13132 0.0
Mg1 Mg 0.19191 0.06695 0.10786 0.0
O2 O 0.04847 0.01403 0.08178 0.0
Mg3 Mg 0.08741 0.01756 0.02189 0.0
O4 O 0.17077 0.08787 0.04977 0.0
O5 O 0.24993 0.13547 0.1042 0.0
O6 O 0.13035 0.0276 0.96308 0.0
O7 O 0.01194 0.08474 0.00543 0.0
Mg8 Mg 0.02407 0.97913 0.95082 0.0
O9 O 0.99416 0.94639 0.99563 0.0
O10 O 0.1074 0.94204 0.9333 0.0
O11 O 0.98848 0.06011 0.93756 0.0
O12 O 0.94154 0.92656 0.9263 0.0
C13 C 0.21606 0.94666 0.07429 0.0
C14 C 0.05681 0.04534 0.11696 0.0
C15 C 0.21782 0.12807 0.06467 0.0
C16 C 0.1384 0.98823 0.93584 0.0
C17 C 0.98311 0.09426 0.96857 0.0
C18 C 0.94465 0.9207 0.96423 0.0
O19 O 0.23234 0.98658 0.10486 0.0
O20 O 0.16684 0.94998 0.04115 0.0
O21 O 0.58777 0.59607 0.62625 0.0
Mg22 Mg 0.65574 0.55731 0.59587 0.0
O23 O 0.50513 0.5429 0.57882 0.0
Mg24 Mg 0.53306 0.53064 0.51483 0.0
O25 O 0.63812 0.57932 0.53833 0.0
O26 O 0.73582 0.60464 0.58875 0.0
O27 O 0.56833 0.51329 0.45097 0.0
O28 O 0.49572 0.6185 0.50923 0.0
Mg29 Mg 0.44042 0.52669 0.44657 0.0
O30 O 0.41904 0.48518 0.49184 0.0
O31 O 0.47489 0.47364 0.40498 0.0
O32 O 0.44496 0.61329 0.44255 0.0
O33 O 0.34034 0.50529 0.43455 0.0
C34 C 0.62432 0.43275 0.56047 0.0
C35 C 0.5279 0.57245 0.615 0.0
C36 C 0.69734 0.60698 0.55135 0.0
C37 C 0.53879 0.48414 0.41527 0.0
C38 C 0.46828 0.64241 0.47813 0.0
C39 C 0.35592 0.48069 0.46713 0.0
O40 O 0.65747 0.46985 0.59036 0.0
O41 O 0.57887 0.44545 0.52862 0.0
H42 H 0.02877 0.05192 0.41527 0.0
C43 C 0.06227 0.01978 0.42607 0.0
C44 C 0.08277 0.98328 0.39604 0.0
C45 C 0.0881 0.01649 0.46926 0.0
H46 H 0.14827 0.91657 0.38668 0.0
C47 C 0.13067 0.9441 0.4094 0.0
C48 C 0.15823 0.94161 0.45204 0.0
C49 C 0.13561 0.97637 0.48163 0.0
C50 C 0.06772 0.05564 0.50132 0.0
H51 H 0.15578 0.97119 0.51406 0.0
C52 C 0.99421 0.09496 0.48475 0.0
C53 C 0.97291 0.16166 0.55176 0.0
C54 C 0.11769 0.06297 0.55485 0.0
H55 H 0.16302 0.03962 0.56276 0.0
C56 C 0.10445 0.10699 0.59832 0.0
H57 H 0.96408 0.08742 0.45178 0.0
C58 C 0.03754 0.15265 0.59834 0.0
H59 H 0.03554 0.17563 0.62792 0.0
H60 H 0.14143 0.10553 0.62838 0.0
H61 H 0.02015 0.06699 0.63156 0.0
C62 C 0.01387 0.02706 0.61174 0.0
C63 C 0.01936 0.97965 0.63126 0.0
C64 C 0.00119 0.02276 0.56795 0.0
H65 H 0.99826 0.89148 0.62246 0.0
C66 C 0.99916 0.92735 0.60675 0.0
C67 C 0.97719 0.92189 0.56262 0.0
C68 C 0.9816 0.96958 0.54362 0.0
C69 C 0.99487 0.074 0.54556 0.0
H70 H 0.96696 0.96587 0.50975 0.0
C71 C 0.06961 0.15221 0.53412 0.0
C72 C 0.02224 0.19262 0.50154 0.0
C73 C 0.90983 0.07729 0.51726 0.0
H74 H 0.8714 0.04655 0.5185 0.0
C75 C 0.88495 0.12773 0.48687 0.0
H76 H 0.0573 0.12857 0.54064 0.0
C77 C 0.93619 0.18007 0.48013 0.0
H78 H 0.91061 0.20813 0.45923 0.0
H79 H 0.8308 0.12668 0.47014 0.0
H80 H 0.55497 0.53465 0.91368 0.0
C81 C 0.57869 0.49596 0.91906 0.0
C82 C 0.58291 0.4589 0.88397 0.0
C83 C 0.60826 0.48499 0.96013 0.0
H84 H 0.62553 0.38277 0.86344 0.0
C85 C 0.62 0.41108 0.89013 0.0
C86 C 0.65301 0.40092 0.9307 0.0
C87 C 0.64568 0.43695 0.9655 0.0
C88 C 0.60126 0.52455 0.99672 0.0
H89 H 0.66983 0.427 0.99638 0.0
C90 C 0.53653 0.57404 0.98758 0.0
C91 C 0.53935 0.64021 0.06092 0.0
C92 C 0.65786 0.52258 0.04772 0.0
H93 H 0.6969 0.49261 0.05076 0.0
C94 C 0.65972 0.56569 0.09548 0.0
H95 H 0.50206 0.57258 0.95592 0.0
C96 C 0.6055 0.6202 0.10298 0.0
H97 H 0.61294 0.64226 0.13434 0.0
H98 H 0.69845 0.55762 0.1232 0.0
H99 H 0.56152 0.53621 0.13102 0.0
C100 C 0.55299 0.49707 0.10994 0.0
C101 C 0.55373 0.44735 0.12656 0.0
C102 C 0.54284 0.49631 0.0668 0.0
H103 H 0.53181 0.35899 0.11248 0.0
C104 C 0.53643 0.39662 0.0993 0.0
C105 C 0.51792 0.39534 0.05545 0.0
C106 C 0.52344 0.44535 0.03971 0.0
C107 C 0.54232 0.54995 0.04818 0.0
H108 H 0.51017 0.44507 0.00618 0.0
C109 C 0.62628 0.61903 0.03532 0.0
C110 C 0.58446 0.66717 0.00775 0.0
C111 C 0.4584 0.56537 0.02638 0.0
H112 H 0.41649 0.53917 0.02895 0.0
C113 C 0.4399 0.62042 1.00001 0.0
H114 H 0.61069 0.59633 0.0416 0.0
C115 C 0.4973 0.66654 0.99172 0.0
H116 H 0.47521 0.69873 0.97378 0.0
H117 H 0.38594 0.62698 0.98711 0.0
C118 C 0.25455 0.14147 1.00153 0.0
C119 C 0.23848 0.16405 0.03812 0.0
C120 C 0.29483 0.17322 0.98407 0.0
C121 C 0.31985 0.22797 0.00433 0.0
C122 C 0.29582 0.25273 0.03809 0.0
C123 C 0.25542 0.22029 0.05444 0.0
C124 C 0.31444 0.14616 0.94619 0.0
C125 C 0.31868 0.31163 0.06021 0.0
C126 C 0.49667 0.29136 0.03837 0.0
C127 C 0.48163 0.34421 0.02712 0.0
C128 C 0.44654 0.2469 0.02415 0.0
C129 C 0.38094 0.25583 0.99769 0.0
C130 C 0.37251 0.30411 0.97827 0.0
C131 C 0.42246 0.34867 0.99391 0.0
C132 C 0.4599 0.19381 0.04287 0.0
C133 C 0.3064 0.31219 0.94588 0.0
H134 H 0.24108 0.09788 0.98871 0.0
H135 H 0.24152 0.23776 0.08228 0.0
H136 H 0.33654 0.17674 0.93112 0.0
H137 H 0.35261 0.11478 0.9556 0.0
H138 H 0.26855 0.12346 0.92277 0.0
H139 H 0.29326 0.32464 0.08499 0.0
H140 H 0.37519 0.31502 0.07508 0.0
H141 H 0.30664 0.34149 0.03748 0.0
H142 H 0.54437 0.28639 0.06186 0.0
H143 H 0.41077 0.38843 0.98331 0.0
H144 H 0.44114 0.15701 0.01824 0.0
H145 H 0.43151 0.1926 0.06657 0.0
H146 H 0.51552 0.19051 0.05837 0.0
H147 H 0.31593 0.33973 0.92409 0.0
H148 H 0.26996 0.33242 0.96167 0.0
H149 H 0.28179 0.27164 0.92758 0.0
C150 C 0.25878 0.8605 0.04097 0.0
C151 C 0.25892 0.89754 0.07698 0.0
C152 C 0.30545 0.81806 0.04299 0.0
C153 C 0.35298 0.81229 0.08196 0.0
C154 C 0.35142 0.84807 0.11866 0.0
C155 C 0.30459 0.89021 0.11571 0.0
C156 C 0.30545 0.78047 0.00318 0.0
C157 C 0.40076 0.84312 0.16084 0.0
C158 C 0.4381 0.67418 0.08577 0.0
C159 C 0.49743 0.68664 0.07436 0.0
C160 C 0.39146 0.71516 0.08986 0.0
C161 C 0.40596 0.77018 0.08384 0.0
C162 C 0.46999 0.78422 0.07747 0.0
C163 C 0.5157 0.74235 0.07379 0.0
C164 C 0.32486 0.6987 0.09799 0.0
C165 C 0.4885 0.84266 0.07201 0.0
H166 H 0.22392 0.86586 0.01094 0.0
H167 H 0.30479 0.91826 0.14386 0.0
H168 H 0.35557 0.78638 0.99663 0.0
H169 H 0.29944 0.73613 0.00697 0.0
H170 H 0.26361 0.78886 0.97569 0.0
H171 H 0.39894 0.7996 0.16724 0.0
H172 H 0.45418 0.85371 0.16077 0.0
H173 H 0.38927 0.87122 0.1868 0.0
H174 H 0.42611 0.6317 0.0891 0.0
H175 H 0.56415 0.75262 0.06824 0.0
H176 H 0.28147 0.69968 0.06936 0.0
H177 H 0.31511 0.72873 0.12348 0.0
H178 H 0.32488 0.65614 0.10659 0.0
H179 H 0.45362 0.85275 0.04238 0.0
H180 H 0.54247 0.84773 0.07085 0.0
H181 H 0.48141 0.87337 0.09798 0.0
C182 C 0.88673 0.88106 0.01171 0.0
C183 C 0.88822 0.88753 0.97123 0.0
C184 C 0.8317 0.85059 0.0178 0.0
C185 C 0.77726 0.82627 0.98258 0.0
C186 C 0.77754 0.8343 0.94187 0.0
C187 C 0.83305 0.86454 0.9367 0.0
C188 C 0.83303 0.84277 0.06173 0.0
C189 C 0.72053 0.80909 0.90351 0.0
C190 C 0.69041 0.69089 0.98996 0.0
C191 C 0.62841 0.70804 0.99679 0.0
C192 C 0.739 0.72913 0.98542 0.0
C193 C 0.72515 0.78614 0.98747 0.0
C194 C 0.66141 0.80369 0.99266 0.0
C195 C 0.61318 0.76411 0.99689 0.0
C196 C 0.80572 0.70845 0.97907 0.0
C197 C 0.64499 0.86424 0.99469 0.0
H198 H 0.92867 0.89936 0.03857 0.0
H199 H 0.83312 0.86986 0.90526 0.0
H200 H 0.78263 0.85179 0.06724 0.0
H201 H 0.84221 0.79868 0.06573 0.0
H202 H 0.87404 0.86998 0.08589 0.0
H203 H 0.7248 0.8242 0.87461 0.0
H204 H 0.72229 0.76301 0.89895 0.0
H205 H 0.66952 0.81899 0.90769 0.0
H206 H 0.70159 0.64727 0.9886 0.0
H207 H 0.56505 0.77745 0.00181 0.0
H208 H 0.85 0.72953 0.00466 0.0
H209 H 0.81165 0.7188 0.94913 0.0
H210 H 0.80843 0.66266 0.97842 0.0
H211 H 0.6836 0.88966 0.02145 0.0
H212 H 0.59289 0.87097 0.99843 0.0
H213 H 0.64813 0.87981 0.96579 0.0
C214 C 0.91607 0.16795 0.99575 0.0
C215 C 0.93857 0.14182 0.96237 0.0
C216 C 0.86945 0.21005 0.99017 0.0
C217 C 0.8456 0.22734 0.95041 0.0
C218 C 0.86942 0.20221 0.91678 0.0
C219 C 0.91523 0.15933 0.92307 0.0
C220 C 0.84468 0.23526 0.02668 0.0
C221 C 0.84607 0.22031 0.87414 0.0
C222 C 0.67733 0.30001 0.92686 0.0
C223 C 0.70135 0.35611 0.93653 0.0
C224 C 0.72379 0.25748 0.93108 0.0
C225 C 0.79563 0.27172 0.94429 0.0
C226 C 0.81978 0.32854 0.95338 0.0
C227 C 0.77222 0.37009 0.94977 0.0
C228 C 0.69615 0.1974 0.92188 0.0
C229 C 0.8958 0.34544 0.9669 0.0
H230 H 0.93343 0.15442 0.02617 0.0
H231 H 0.93261 0.13942 0.8972 0.0
H232 H 0.85735 0.28092 0.03363 0.0
H233 H 0.78783 0.22879 0.01851 0.0
H234 H 0.86795 0.21689 0.05551 0.0
H235 H 0.87138 0.1981 0.85176 0.0
H236 H 0.78951 0.21234 0.86094 0.0
H237 H 0.85748 0.26583 0.87694 0.0
H238 H 0.6223 0.28958 0.91636 0.0
H239 H 0.79032 0.4137 0.95663 0.0
H240 H 0.71513 0.17724 0.95027 0.0
H241 H 0.71521 0.17415 0.89692 0.0
H242 H 0.63896 0.19334 0.91176 0.0
H243 H 0.92106 0.3309 0.99704 0.0
H244 H 0.90593 0.39134 0.97089 0.0
H245 H 0.92027 0.32535 0.94338 0.0
C246 C 0.74764 0.63604 0.49704 0.0
C247 C 0.71619 0.64954 0.52893 0.0
C248 C 0.78532 0.67753 0.48569 0.0
C249 C 0.7932 0.73263 0.50796 0.0
C250 C 0.75496 0.74693 0.53692 0.0
C251 C 0.71658 0.70515 0.54673 0.0
C252 C 0.82055 0.66103 0.45227 0.0
C253 C 0.76057 0.80504 0.56127 0.0
C254 C 0.96104 0.81737 0.55171 0.0
C255 C 0.94199 0.86813 0.53761 0.0
C256 C 0.91558 0.76976 0.53832 0.0
C257 C 0.85073 0.7723 0.50868 0.0
C258 C 0.83701 0.82006 0.48869 0.0
C259 C 0.88206 0.868 0.504 0.0
C260 C 0.93373 0.71906 0.55966 0.0
C261 C 0.77171 0.8227 0.45399 0.0
H262 H 0.74686 0.59283 0.48308 0.0
H263 H 0.69167 0.71518 0.57125 0.0
H264 H 0.83421 0.69749 0.43899 0.0
H265 H 0.86825 0.64031 0.46579 0.0
H266 H 0.78684 0.63046 0.42649 0.0
H267 H 0.72612 0.80925 0.58187 0.0
H268 H 0.81437 0.81569 0.58113 0.0
H269 H 0.74714 0.83604 0.53952 0.0
H270 H 0.00907 0.81603 0.57592 0.0
H271 H 0.86702 0.90633 0.49183 0.0
H272 H 0.92764 0.68123 0.53595 0.0
H273 H 0.8982 0.71299 0.57868 0.0
H274 H 0.98738 0.72283 0.5806 0.0
H275 H 0.7524 0.78066 0.43617 0.0
H276 H 0.78026 0.85032 0.43201 0.0
H277 H 0.73135 0.84041 0.46751 0.0
C278 C 0.64876 0.34191 0.5239 0.0
C279 C 0.64867 0.37593 0.56115 0.0
C280 C 0.6935 0.29831 0.52478 0.0
C281 C 0.73934 0.28985 0.56357 0.0
C282 C 0.73238 0.31909 0.6014 0.0
C283 C 0.68625 0.36137 0.59971 0.0
C284 C 0.69622 0.26471 0.48403 0.0
C285 C 0.77867 0.30997 0.64346 0.0
C286 C 0.86112 0.17248 0.57032 0.0
C287 C 0.91609 0.19691 0.55994 0.0
C288 C 0.80214 0.2014 0.57063 0.0
C289 C 0.80102 0.25774 0.5642 0.0
C290 C 0.86019 0.28455 0.55897 0.0
C291 C 0.91722 0.25367 0.55704 0.0
C292 C 0.74155 0.17066 0.5772 0.0
C293 C 0.86284 0.34562 0.55467 0.0
H294 H 0.61884 0.35233 0.49403 0.0
H295 H 0.68448 0.3866 0.62867 0.0
H296 H 0.74213 0.27934 0.47578 0.0
H297 H 0.70111 0.21993 0.48725 0.0
H298 H 0.64968 0.26891 0.45791 0.0
H299 H 0.7643 0.33432 0.66998 0.0
H300 H 0.77643 0.26518 0.64659 0.0
H301 H 0.8328 0.32243 0.64591 0.0
H302 H 0.86257 0.12973 0.57622 0.0
H303 H 0.96212 0.27348 0.55245 0.0
H304 H 0.69212 0.18977 0.56482 0.0
H305 H 0.75038 0.17036 0.61125 0.0
H306 H 0.73672 0.12646 0.56194 0.0
H307 H 0.82411 0.35261 0.52541 0.0
H308 H 0.91431 0.36086 0.55374 0.0
H309 H 0.84984 0.37097 0.58127 0.0
C310 C 0.30406 0.43003 0.51263 0.0
C311 C 0.3018 0.44377 0.47324 0.0
C312 C 0.25244 0.39379 0.51719 0.0
C313 C 0.19892 0.36953 0.48132 0.0
C314 C 0.19609 0.38412 0.4417 0.0
C315 C 0.24696 0.42143 0.43828 0.0
C316 C 0.2563 0.38026 0.56015 0.0
C317 C 0.14136 0.35818 0.40245 0.0
C318 C 0.12542 0.22606 0.48453 0.0
C319 C 0.0614 0.23751 0.49091 0.0
C320 C 0.16985 0.26854 0.48073 0.0
C321 C 0.15047 0.32431 0.4842 0.0
C322 C 0.08481 0.33608 0.48931 0.0
C323 C 0.04032 0.29219 0.49183 0.0
C324 C 0.23817 0.2537 0.47372 0.0
C325 C 0.06274 0.39514 0.49364 0.0
H326 H 0.34591 0.44761 0.5398 0.0
H327 H 0.245 0.43157 0.40762 0.0
H328 H 0.20476 0.38127 0.56551 0.0
H329 H 0.27386 0.33751 0.56254 0.0
H330 H 0.2927 0.40985 0.58533 0.0
H331 H 0.14379 0.37672 0.3745 0.0
H332 H 0.14782 0.31275 0.39627 0.0
H333 H 0.08936 0.36323 0.40657 0.0
H334 H 0.1413 0.18357 0.48297 0.0
H335 H 0.99058 0.30114 0.49629 0.0
H336 H 0.28089 0.27373 0.5008 0.0
H337 H 0.24379 0.26968 0.44546 0.0
H338 H 0.24387 0.20797 0.46967 0.0
H339 H 0.09941 0.42069 0.52129 0.0
H340 H 0.01011 0.39736 0.49739 0.0
H341 H 0.06399 0.41417 0.46575 0.0
C342 C 0.43634 0.72254 0.52175 0.0
C343 C 0.452 0.70109 0.48478 0.0
C344 C 0.40134 0.7715 0.52406 0.0
C345 C 0.38369 0.79989 0.48896 0.0
C346 C 0.40932 0.78312 0.4544 0.0
C347 C 0.44203 0.73294 0.45225 0.0
C348 C 0.37566 0.78844 0.56171 0.0
C349 C 0.39529 0.81469 0.41763 0.0
C350 C 0.20345 0.84763 0.45345 0.0
C351 C 0.21453 0.9052 0.46565 0.0
C352 C 0.25813 0.81287 0.46268 0.0
C353 C 0.32556 0.83674 0.48365 0.0
C354 C 0.33658 0.89495 0.49712 0.0
C355 C 0.28046 0.92862 0.4881 0.0
C356 C 0.24395 0.75071 0.44876 0.0
C357 C 0.40754 0.92221 0.51891 0.0
H358 H 0.44506 0.69827 0.54727 0.0
H359 H 0.45605 0.71703 0.42415 0.0
H360 H 0.37894 0.83445 0.57032 0.0
H361 H 0.32071 0.77368 0.55397 0.0
H362 H 0.40513 0.76994 0.58929 0.0
H363 H 0.43036 0.80371 0.39802 0.0
H364 H 0.34147 0.80436 0.39775 0.0
H365 H 0.40117 0.86035 0.4285 0.0
H366 H 0.1521 0.83002 0.43616 0.0
H367 H 0.28852 0.97351 0.49705 0.0
H368 H 0.2658 0.72795 0.47543 0.0
H369 H 0.26911 0.73677 0.42406 0.0
H370 H 0.18799 0.7387 0.43602 0.0
H371 H 0.43949 0.89587 0.54032 0.0
H372 H 0.40499 0.96369 0.53708 0.0
H373 H 0.43392 0.92838 0.49498 0.0
C374 C 0.00116 0.97942 0.15019 0.0
C375 C 0.01736 0.03433 0.14606 0.0
C376 C 0.99036 0.96751 0.18768 0.0
C377 C 0.99625 0.01156 0.22127 0.0
C378 C 0.00144 0.06744 0.21437 0.0
C379 C 0.01187 0.07813 0.17672 0.0
C380 C 0.98183 0.90747 0.19324 0.0
C381 C 0.00643 0.11584 0.24885 0.0
C382 C 0.98874 0.99172 0.33036 0.0
C383 C 0.05883 0.98865 0.35093 0.0
C384 C 0.96651 -0.00335 0.28749 0.0
C385 C 0.01585 -0.00014 0.2652 0.0
C386 C 0.0866 -0.00382 0.28594 0.0
C387 C 0.10704 0.9905 0.3284 0.0
C388 C 0.89065 -0.00041 0.26655 0.0
C389 C 0.1413 -0.00022 0.26362 0.0
H390 H 0.00442 0.94541 0.12629 0.0
H391 H 0.02288 0.12076 0.1731 0.0
H392 H 0.03263 0.89321 0.20961 0.0
H393 H 0.94663 0.90279 0.21267 0.0
H394 H 0.9616 0.87996 0.16257 0.0
H395 H 0.99737 0.15593 0.23639 0.0
H396 H 0.96884 0.10935 0.26636 0.0
H397 H 0.05876 0.11922 0.27137 0.0
H398 H 0.95133 0.98984 0.34772 0.0
H399 H 0.16132 0.98878 0.34435 0.0
H400 H 0.87556 0.97657 0.23408 0.0
H401 H 0.8788 0.04376 0.26477 0.0
H402 H 0.85871 0.9824 0.2844 0.0
H403 H 0.13033 0.96686 0.23575 0.0
H404 H 0.19376 -0.005 0.28412 0.0
H405 H 0.14107 0.0407 0.25245 0.0
C406 C 0.17577 0.95682 0.87264 0.0
C407 C 0.15492 9e-05 0.89779 0.0
C408 C 0.16547 0.95804 0.82976 0.0
C409 C 0.13242 0.00315 0.81166 0.0
C410 C 0.11847 0.04978 0.83787 0.0
C411 C 0.13081 0.04799 0.88088 0.0
C412 C 0.18341 0.90836 0.80321 0.0
C413 C 0.08305 0.09869 0.81994 0.0
C414 C 0.11268 0.01276 0.69707 0.0
C415 C 0.04764 0.98545 0.67742 0.0
C416 C 0.14136 0.01866 0.74071 0.0
C417 C 0.10339 -0.00231 0.76529 0.0
C418 C 0.03724 0.9705 0.74553 0.0
C419 C 0.01049 0.96411 0.7017 0.0
C420 C 0.21252 0.04662 0.7604 0.0
C421 C 0.99456 0.94839 0.77073 0.0
H422 H 0.19466 0.91981 0.88573 0.0
H423 H 0.11428 0.08148 0.90015 0.0
H424 H 0.13579 0.88214 0.78589 0.0
H425 H 0.20658 0.92189 0.77972 0.0
H426 H 0.21981 0.88222 0.82257 0.0
H427 H 0.08697 0.13526 0.84462 0.0
H428 H 0.10506 0.11132 0.79571 0.0
H429 H 0.02769 0.08638 0.80467 0.0
H430 H 0.14161 0.02872 0.67808 0.0
H431 H 0.96008 0.94326 0.68643 0.0
H432 H 0.24735 0.01699 0.77677 0.0
H433 H 0.21099 0.08273 0.78428 0.0
H434 H 0.23478 0.06142 0.73688 0.0
H435 H 0.02188 0.91567 0.78773 0.0
H436 H 0.94315 0.93033 0.75078 0.0
H437 H 0.98721 0.98239 0.79458 0.0
C438 C 0.51592 0.60446 0.68585 0.0
C439 C 0.4952 0.56663 0.6484 0.0
C440 C 0.51081 0.58909 0.72351 0.0
C441 C 0.48408 0.53477 0.72341 0.0
C442 C 0.45272 0.50018 0.68475 0.0
C443 C 0.45853 0.51661 0.64741 0.0
C444 C 0.54288 0.62807 0.7639 0.0
C445 C 0.42117 0.4429 0.68333 0.0
C446 C 0.59218 0.46702 0.81248 0.0
C447 C 0.55352 0.47312 0.84118 0.0
C448 C 0.56849 0.48507 0.77347 0.0
C449 C 0.50443 0.51003 0.76278 0.0
C450 C 0.46371 0.51431 0.79086 0.0
C451 C 0.48892 0.49599 0.82986 0.0
C452 C 0.61362 0.47939 0.74438 0.0
C453 C 0.39499 0.54016 0.7807 0.0
H454 H 0.54273 0.64384 0.68653 0.0
H455 H 0.44126 0.48749 0.61842 0.0
H456 H 0.51087 0.62775 0.78569 0.0
H457 H 0.59418 0.61391 0.77952 0.0
H458 H 0.54985 0.67158 0.75835 0.0
H459 H 0.38749 0.42604 0.65153 0.0
H460 H 0.46278 0.41399 0.69212 0.0
H461 H 0.39071 0.44379 0.70609 0.0
H462 H 0.64249 0.45016 0.82118 0.0
H463 H 0.45841 0.50028 0.85178 0.0
H464 H 0.62977 0.52136 0.73967 0.0
H465 H 0.58446 0.45645 0.71323 0.0
H466 H 0.66057 0.45701 0.75672 0.0
H467 H 0.40345 0.58622 0.78786 0.0
H468 H 0.36242 0.52692 0.79967 0.0
H469 H 0.36651 0.52915 0.74698 0.0
C470 C 0.62168 0.50382 0.37525 0.0
C471 C 0.57403 0.46738 0.38303 0.0
C472 C 0.63589 0.49613 0.33624 0.0
C473 C 0.60066 0.45175 0.30469 0.0
C474 C 0.55949 0.41121 0.3147 0.0
C475 C 0.54741 0.41929 0.35395 0.0
C476 C 0.68278 0.53874 0.32738 0.0
C477 C 0.52044 0.36337 0.2823 0.0
C478 C 0.52901 0.48202 0.19377 0.0
C479 C 0.56785 0.44918 0.17237 0.0
C480 C 0.54091 0.48442 0.23707 0.0
C481 C 0.59397 0.45396 0.25974 0.0
C482 C 0.63484 0.42195 0.23842 0.0
C483 C 0.62058 0.41928 0.19474 0.0
C484 C 0.49508 0.51825 0.25828 0.0
C485 C 0.69301 0.39027 0.26164 0.0
H486 H 0.64286 0.54081 0.39784 0.0
H487 H 0.51151 0.39049 0.36036 0.0
H488 H 0.71271 0.5189 0.30682 0.0
H489 H 0.65137 0.5701 0.3109 0.0
H490 H 0.71907 0.5609 0.3568 0.0
H491 H 0.49939 0.33129 0.29672 0.0
H492 H 0.47677 0.37961 0.25978 0.0
H493 H 0.5537 0.34306 0.26422 0.0
H494 H 0.48809 0.50493 0.17634 0.0
H495 H 0.65109 0.39437 0.17809 0.0
H496 H 0.52664 0.5501 0.28385 0.0
H497 H 0.46716 0.49066 0.2726 0.0
H498 H 0.45661 0.53981 0.23615 0.0
H499 H 0.72675 0.41801 0.28926 0.0
H500 H 0.72471 0.37269 0.24139 0.0
H501 H 0.67209 0.35548 0.27351 0.0
loop_
_geom_bond_atom_site_label_1
_geom_bond_atom_site_label_2
_geom_bond_distance
_geom_bond_site_symmetry_2
_ccdc_geom_bond_type
O0 Mg1 1.990 . S
O0 C14 1.253 . S
Mg1 O0 1.990 . S
Mg1 O4 2.180 . S
Mg1 O5 2.117 . S
Mg1 O19 2.030 1_545 S
O2 Mg3 2.072 1_565 S
O2 C14 1.260 1_565 S
Mg3 O2 2.072 1_545 S
Mg3 O4 2.099 . S
Mg3 O6 2.079 1_554 S
Mg3 O7 2.072 . S
Mg3 O9 2.099 1_444 S
Mg3 O20 2.079 1_545 S
O4 Mg1 2.180 . S
O4 Mg3 2.099 . S
O4 C15 1.279 . S
O5 Mg1 2.117 . S
O5 C15 1.250 . S
O6 Mg3 2.079 1_556 S
O6 C16 1.264 . S
O7 Mg3 2.072 . S
O7 C17 1.260 1_454 S
Mg8 O9 2.180 . S
Mg8 O10 2.030 1_565 S
Mg8 O11 1.990 1_565 S
Mg8 O12 2.117 . S
O9 Mg3 2.099 1_666 S
O9 Mg8 2.180 . S
O9 C18 1.279 . S
O10 Mg8 2.030 1_545 S
O10 C16 1.248 1_655 S
O11 Mg8 1.990 1_545 S
O11 C17 1.253 . S
O12 Mg8 2.117 . S
O12 C18 1.250 . S
C13 O19 1.248 . S
C13 O20 1.264 . S
C14 O0 1.253 . S
C14 O2 1.260 1_545 S
C15 O4 1.279 . S
C15 O5 1.250 . S
C16 O6 1.264 . S
C16 O10 1.248 1_455 S
C17 O7 1.260 1_656 S
C17 O11 1.253 . S
C18 O9 1.279 . S
C18 O12 1.250 . S
O19 Mg1 2.030 1_565 S
O19 C13 1.248 . S
O20 Mg3 2.079 1_565 S
O20 C13 1.264 . S
O21 Mg22 1.990 . S
O21 C35 1.253 . S
Mg22 O21 1.990 . S
Mg22 O25 2.180 . S
Mg22 O26 2.117 . S
Mg22 O40 2.030 . S
O23 Mg24 2.072 . S
O23 C35 1.260 . S
Mg24 O23 2.072 . S
Mg24 O25 2.099 . S
Mg24 O27 2.079 . S
Mg24 O28 2.072 . S
Mg24 O30 2.099 . S
Mg24 O41 2.079 . S
O25 Mg22 2.180 . S
O25 Mg24 2.099 . S
O25 C36 1.279 . S
O26 Mg22 2.117 . S
O26 C36 1.250 . S
O27 Mg24 2.079 . S
O27 C37 1.264 . S
O28 Mg24 2.072 . S
O28 C38 1.260 . S
Mg29 O30 2.180 . S
Mg29 O31 2.030 . S
Mg29 O32 1.990 . S
Mg29 O33 2.117 . S
O30 Mg24 2.099 . S
O30 Mg29 2.180 . S
O30 C39 1.279 . S
O31 Mg29 2.030 . S
O31 C37 1.248 . S
O32 Mg29 1.990 . S
O32 C38 1.253 . S
O33 Mg29 2.117 . S
O33 C39 1.250 . S
C34 O40 1.248 . S
C34 O41 1.264 . S
C35 O21 1.253 . S
C35 O23 1.260 . S
C36 O25 1.279 . S
C36 O26 1.250 . S
C37 O27 1.264 . S
C37 O31 1.248 . S
C38 O28 1.260 . S
C38 O32 1.253 . S
C39 O30 1.279 . S
C39 O33 1.250 . S
O40 Mg22 2.030 . S
O40 C34 1.248 . S
O41 Mg24 2.079 . S
O41 C34 1.264 . S
H42 C43 0.949 . S
C43 H42 0.949 . S
C43 C44 1.395 1_545 S
C43 C45 1.391 . S
C44 C43 1.395 1_565 S
C44 C47 1.390 . S
C45 C43 1.391 . S
C45 C49 1.387 1_545 S
C45 C50 1.491 . S
H46 C47 0.950 . S
C47 C44 1.390 . S
C47 H46 0.950 . S
C47 C48 1.378 . S
C48 C47 1.378 . S
C48 C49 1.409 . S
C49 C45 1.387 1_565 S
C49 C48 1.409 . S
C49 H51 0.951 . S
C50 C45 1.491 . S
C50 C52 1.382 . S
C50 C54 1.404 . S
H51 C49 0.951 . S
C52 C50 1.382 . S
C52 C53 1.390 . S
C52 H57 0.949 1_455 S
C53 C52 1.390 . S
C53 C58 1.400 . S
C54 C50 1.404 . S
C54 H55 0.950 . S
C54 C56 1.375 . S
H55 C54 0.950 . S
C56 C54 1.375 . S
C56 C58 1.382 . S
C56 H60 0.950 . S
H57 C52 0.949 1_655 S
C58 C53 1.400 . S
C58 C56 1.382 . S
C58 H59 0.952 . S
H59 C58 0.952 . S
H60 C56 0.950 . S
H61 C62 0.952 . S
C62 H61 0.952 . S
C62 C63 1.392 1_455 S
C62 C64 1.391 1_455 S
C63 C62 1.392 1_655 S
C63 C66 1.390 1_545 S
C64 C62 1.391 1_655 S
C64 C68 1.387 . S
C64 C69 1.491 1_655 S
H65 C66 0.950 . S
C66 C63 1.390 1_565 S
C66 H65 0.950 . S
C66 C67 1.378 . S
C67 C66 1.378 . S
C67 C68 1.409 1_565 S
C68 C64 1.387 . S
C68 C67 1.409 1_545 S
C68 H70 0.951 . S
C69 C64 1.491 1_455 S
C69 C71 1.382 . S
C69 C73 1.404 1_455 S
H70 C68 0.951 . S
C71 C69 1.382 . S
C71 C72 1.390 . S
C71 H76 0.949 . S
C72 C71 1.390 . S
C72 C77 1.399 . S
C73 C69 1.404 1_655 S
C73 H74 0.950 . S
C73 C75 1.375 . S
H74 C73 0.950 . S
C75 C73 1.375 . S
C75 C77 1.382 1_655 S
C75 H79 0.950 . S
H76 C71 0.949 . S
C77 C72 1.399 . S
C77 C75 1.382 1_455 S
C77 H78 0.952 . S
H78 C77 0.952 . S
H79 C75 0.950 . S
H80 C81 0.949 . S
C81 H80 0.949 . S
C81 C82 1.395 . S
C81 C83 1.391 . S
C82 C81 1.395 . S
C82 C85 1.390 . S
C83 C81 1.391 . S
C83 C87 1.387 . S
C83 C88 1.491 1_556 S
H84 C85 0.950 . S
C85 C82 1.390 . S
C85 H84 0.950 . S
C85 C86 1.378 . S
C86 C85 1.378 . S
C86 C87 1.409 . S
C87 C83 1.387 . S
C87 C86 1.409 . S
C87 H89 0.951 1_556 S
C88 C83 1.491 1_554 S
C88 C90 1.382 1_554 S
C88 C92 1.404 . S
H89 C87 0.951 1_554 S
C90 C88 1.382 1_556 S
C90 C91 1.390 1_556 S
C90 H95 0.949 . S
C91 C90 1.390 1_554 S
C91 C96 1.399 . S
C92 C88 1.404 . S
C92 H93 0.950 . S
C92 C94 1.375 . S
H93 C92 0.950 . S
C94 C92 1.375 . S
C94 C96 1.382 . S
C94 H98 0.950 . S
H95 C90 0.949 . S
C96 C91 1.399 . S
C96 C94 1.382 . S
C96 H97 0.952 . S
H97 C96 0.952 . S
H98 C94 0.950 . S
H99 C100 0.949 . S
C100 H99 0.949 . S
C100 C101 1.395 . S
C100 C102 1.391 . S
C101 C100 1.395 . S
C101 C104 1.390 . S
C102 C100 1.391 . S
C102 C106 1.387 . S
C102 C107 1.491 . S
H103 C104 0.950 . S
C104 C101 1.390 . S
C104 H103 0.950 . S
C104 C105 1.378 . S
C105 C104 1.378 . S
C105 C106 1.409 . S
C106 C102 1.387 . S
C106 C105 1.409 . S
C106 H108 0.951 1_554 S
C107 C102 1.491 . S
C107 C109 1.382 . S
C107 C111 1.404 1_554 S
H108 C106 0.951 1_556 S
C109 C107 1.382 . S
C109 C110 1.390 . S
C109 H114 0.949 . S
C110 C109 1.390 . S
C110 C115 1.399 1_554 S
C111 C107 1.404 1_556 S
C111 H112 0.950 . S
C111 C113 1.375 . S
H112 C111 0.950 . S
C113 C111 1.375 . S
C113 C115 1.382 . S
C113 H117 0.950 . S
H114 C109 0.949 . S
C115 C110 1.399 1_556 S
C115 C113 1.382 . S
C115 H116 0.952 . S
H116 C115 0.952 . S
H117 C113 0.950 . S
C118 C119 1.391 . S
C118 C120 1.394 . S
C118 H134 0.931 . S
C119 C118 1.391 . S
C119 C123 1.376 . S
C120 C118 1.394 . S
C120 C121 1.369 . S
C120 C124 1.531 . S
C121 C120 1.369 . S
C121 C122 1.410 . S
C121 C129 1.503 . S
C122 C121 1.410 . S
C122 C123 1.392 . S
C122 C125 1.511 . S
C123 C119 1.376 . S
C123 C122 1.392 . S
C123 H135 0.929 . S
C124 C120 1.531 . S
C124 H136 0.960 . S
C124 H137 0.962 . S
C124 H138 0.971 . S
C125 C122 1.511 . S
C125 H139 0.961 . S
C125 H140 0.961 . S
C125 H141 0.961 1_554 S
C126 C127 1.370 . S
C126 C128 1.363 . S
C126 H142 0.931 . S
C127 C126 1.370 . S
C127 C131 1.408 1_554 S
C128 C126 1.363 . S
C128 C129 1.370 . S
C128 C132 1.524 . S
C129 C121 1.503 . S
C129 C128 1.370 . S
C129 C130 1.403 1_554 S
C130 C129 1.403 1_556 S
C130 C131 1.404 . S
C130 C133 1.539 . S
C131 C127 1.408 1_556 S
C131 C130 1.404 . S
C131 H143 0.930 . S
C132 C128 1.524 . S
C132 H144 0.956 . S
C132 H145 0.961 . S
C132 H146 0.961 . S
C133 C130 1.539 . S
C133 H147 0.958 . S
C133 H148 0.961 . S
C133 H149 0.960 . S
H134 C118 0.931 . S
H135 C123 0.929 . S
H136 C124 0.960 . S
H137 C124 0.962 . S
H138 C124 0.971 . S
H139 C125 0.961 . S
H140 C125 0.961 . S
H141 C125 0.961 1_556 S
H142 C126 0.931 . S
H143 C131 0.930 . S
H144 C132 0.956 . S
H145 C132 0.961 . S
H146 C132 0.961 . S
H147 C133 0.958 . S
H148 C133 0.961 . S
H149 C133 0.960 . S
C150 C151 1.391 . S
C150 C152 1.394 . S
C150 H166 0.931 . S
C151 C150 1.391 . S
C151 C155 1.376 . S
C152 C150 1.394 . S
C152 C153 1.369 . S
C152 C156 1.531 . S
C153 C152 1.369 . S
C153 C154 1.410 . S
C153 C161 1.503 . S
C154 C153 1.410 . S
C154 C155 1.392 . S
C154 C157 1.511 . S
C155 C151 1.376 . S
C155 C154 1.392 . S
C155 H167 0.929 . S
C156 C152 1.531 . S
C156 H168 0.960 . S
C156 H169 0.962 1_554 S
C156 H170 0.960 . S
C157 C154 1.511 . S
C157 H171 0.961 . S
C157 H172 0.961 . S
C157 H173 0.961 . S
C158 C159 1.370 1_556 S
C158 C160 1.363 . S
C158 H174 0.931 . S
C159 C158 1.370 1_554 S
C159 C163 1.408 . S
C160 C158 1.363 . S
C160 C161 1.370 1_556 S
C160 C164 1.524 . S
C161 C153 1.503 . S
C161 C160 1.370 1_554 S
C161 C162 1.403 . S
C162 C161 1.403 . S
C162 C163 1.404 . S
C162 C165 1.539 . S
C163 C159 1.408 . S
C163 C162 1.404 . S
C163 H175 0.930 . S
C164 C160 1.524 . S
C164 H176 0.956 . S
C164 H177 0.961 . S
C164 H178 0.961 . S
C165 C162 1.539 . S
C165 H179 0.958 . S
C165 H180 0.961 . S
C165 H181 0.960 . S
H166 C150 0.931 . S
H167 C155 0.929 . S
H168 C156 0.960 . S
H169 C156 0.962 1_556 S
H170 C156 0.960 . S
H171 C157 0.961 . S
H172 C157 0.961 . S
H173 C157 0.961 . S
H174 C158 0.931 . S
H175 C163 0.930 . S
H176 C164 0.956 . S
H177 C164 0.961 . S
H178 C164 0.961 . S
H179 C165 0.958 . S
H180 C165 0.961 . S
H181 C165 0.960 . S
C182 C183 1.391 . S
C182 C184 1.394 . S
C182 H198 0.931 . S
C183 C182 1.391 . S
C183 C187 1.376 1_554 S
C184 C182 1.394 . S
C184 C185 1.369 . S
C184 C188 1.531 . S
C185 C184 1.369 . S
C185 C186 1.410 1_554 S
C185 C193 1.503 . S
C186 C185 1.410 1_556 S
C186 C187 1.392 . S
C186 C189 1.511 . S
C187 C183 1.376 1_556 S
C187 C186 1.392 . S
C187 H199 0.929 . S
C188 C184 1.531 . S
C188 H200 0.960 . S
C188 H201 0.962 . S
C188 H202 0.960 . S
C189 C186 1.511 . S
C189 H203 0.961 . S
C189 H204 0.961 . S
C189 H205 0.961 . S
C190 C191 1.379 . S
C190 C192 1.358 1_554 S
C190 H206 0.926 1_554 S
C191 C190 1.379 . S
C191 C195 1.408 . S
C192 C190 1.358 1_556 S
C192 C193 1.370 1_556 S
C192 C196 1.524 . S
C193 C185 1.503 . S
C193 C192 1.370 1_554 S
C193 C194 1.403 . S
C194 C193 1.403 . S
C194 C195 1.404 . S
C194 C197 1.539 . S
C195 C191 1.408 . S
C195 C194 1.404 . S
C195 H207 0.930 . S
C196 C192 1.524 . S
C196 H208 0.952 1_556 S
C196 H209 0.961 . S
C196 H210 0.961 . S
C197 C194 1.539 . S
C197 H211 0.958 . S
C197 H212 0.961 . S
C197 H213 0.960 . S
H198 C182 0.931 . S
H199 C187 0.929 . S
H200 C188 0.960 . S
H201 C188 0.962 . S
H202 C188 0.960 . S
H203 C189 0.961 . S
H204 C189 0.961 . S
H205 C189 0.961 . S
H206 C190 0.926 1_556 S
H207 C195 0.930 . S
H208 C196 0.952 1_554 S
H209 C196 0.961 . S
H210 C196 0.961 . S
H211 C197 0.958 . S
H212 C197 0.961 . S
H213 C197 0.960 . S
C214 C215 1.391 1_554 S
C214 C216 1.394 . S
C214 H230 0.931 . S
C215 C214 1.391 1_556 S
C215 C219 1.376 . S
C216 C214 1.394 . S
C216 C217 1.369 1_554 S
C216 C220 1.531 . S
C217 C216 1.369 1_556 S
C217 C218 1.410 . S
C217 C225 1.503 . S
C218 C217 1.410 . S
C218 C219 1.392 . S
C218 C221 1.511 . S
C219 C215 1.376 . S
C219 C218 1.392 . S
C219 H231 0.929 . S
C220 C216 1.531 . S
C220 H232 0.960 . S
C220 H233 0.962 . S
C220 H234 0.960 . S
C221 C218 1.511 . S
C221 H235 0.961 . S
C221 H236 0.961 . S
C221 H237 0.961 . S
C222 C223 1.370 . S
C222 C224 1.363 . S
C222 H238 0.931 . S
C223 C222 1.370 . S
C223 C227 1.408 . S
C224 C222 1.363 . S
C224 C225 1.370 . S
C224 C228 1.524 . S
C225 C217 1.503 . S
C225 C224 1.370 . S
C225 C226 1.403 . S
C226 C225 1.403 . S
C226 C227 1.404 . S
C226 C229 1.539 . S
C227 C223 1.408 . S
C227 C226 1.404 . S
C227 H239 0.930 . S
C228 C224 1.524 . S
C228 H240 0.956 1_556 S
C228 H241 0.961 . S
C228 H242 0.961 . S
C229 C226 1.539 . S
C229 H243 0.958 1_556 S
C229 H244 0.961 . S
C229 H245 0.960 . S
H230 C214 0.931 . S
H231 C219 0.929 . S
H232 C220 0.960 . S
H233 C220 0.962 . S
H234 C220 0.960 . S
H235 C221 0.961 . S
H236 C221 0.961 . S
H237 C221 0.961 . S
H238 C222 0.931 . S
H239 C227 0.930 . S
H240 C228 0.956 1_554 S
H241 C228 0.961 . S
H242 C228 0.961 . S
H243 C229 0.958 1_554 S
H244 C229 0.961 . S
H245 C229 0.960 . S
C246 C247 1.391 . S
C246 C248 1.394 . S
C246 H262 0.931 . S
C247 C246 1.391 . S
C247 C251 1.376 . S
C248 C246 1.394 . S
C248 C249 1.369 . S
C248 C252 1.531 . S
C249 C248 1.369 . S
C249 C250 1.410 . S
C249 C257 1.503 . S
C250 C249 1.410 . S
C250 C251 1.392 . S
C250 C253 1.511 . S
C251 C247 1.376 . S
C251 C250 1.392 . S
C251 H263 0.929 . S
C252 C248 1.531 . S
C252 H264 0.960 . S
C252 H265 0.962 . S
C252 H266 0.960 . S
C253 C250 1.511 . S
C253 H267 0.961 . S
C253 H268 0.961 . S
C253 H269 0.961 . S
C254 C255 1.370 . S
C254 C256 1.363 . S
C254 H270 0.931 . S
C255 C254 1.370 . S
C255 C259 1.408 . S
C256 C254 1.363 . S
C256 C257 1.370 . S
C256 C260 1.524 . S
C257 C249 1.503 . S
C257 C256 1.370 . S
C257 C258 1.403 . S
C258 C257 1.403 . S
C258 C259 1.404 . S
C258 C261 1.539 . S
C259 C255 1.408 . S
C259 C258 1.404 . S
C259 H271 0.930 . S
C260 C256 1.524 . S
C260 H272 0.956 . S
C260 H273 0.961 . S
C260 H274 0.961 . S
C261 C258 1.539 . S
C261 H275 0.958 . S
C261 H276 0.961 . S
C261 H277 0.960 . S
H262 C246 0.931 . S
H263 C251 0.929 . S
H264 C252 0.960 . S
H265 C252 0.962 . S
H266 C252 0.960 . S
H267 C253 0.961 . S
H268 C253 0.961 . S
H269 C253 0.961 . S
H270 C254 0.931 . S
H271 C259 0.930 . S
H272 C260 0.956 . S
H273 C260 0.961 . S
H274 C260 0.961 . S
H275 C261 0.958 . S
H276 C261 0.961 . S
H277 C261 0.960 . S
C278 C279 1.391 . S
C278 C280 1.394 . S
C278 H294 0.931 . S
C279 C278 1.391 . S
C279 C283 1.376 . S
C280 C278 1.394 . S
C280 C281 1.369 . S
C280 C284 1.531 . S
C281 C280 1.369 . S
C281 C282 1.410 . S
C281 C289 1.503 . S
C282 C281 1.410 . S
C282 C283 1.392 . S
C282 C285 1.511 . S
C283 C279 1.376 . S
C283 C282 1.392 . S
C283 H295 0.929 . S
C284 C280 1.531 . S
C284 H296 0.960 . S
C284 H297 0.962 . S
C284 H298 0.960 . S
C285 C282 1.511 . S
C285 H299 0.961 . S
C285 H300 0.961 . S
C285 H301 0.961 . S
C286 C287 1.370 . S
C286 C288 1.363 . S
C286 H302 0.931 . S
C287 C286 1.370 . S
C287 C291 1.408 . S
C288 C286 1.363 . S
C288 C289 1.370 . S
C288 C292 1.524 . S
C289 C281 1.503 . S
C289 C288 1.370 . S
C289 C290 1.403 . S
C290 C289 1.403 . S
C290 C291 1.404 . S
C290 C293 1.539 . S
C291 C287 1.408 . S
C291 C290 1.404 . S
C291 H303 0.933 . S
C292 C288 1.524 . S
C292 H304 0.956 . S
C292 H305 0.961 . S
C292 H306 0.961 . S
C293 C290 1.539 . S
C293 H307 0.958 . S
C293 H308 0.961 . S
C293 H309 0.960 . S
H294 C278 0.931 . S
H295 C283 0.929 . S
H296 C284 0.960 . S
H297 C284 0.962 . S
H298 C284 0.960 . S
H299 C285 0.961 . S
H300 C285 0.961 . S
H301 C285 0.961 . S
H302 C286 0.931 . S
H303 C291 0.933 . S
H304 C292 0.956 . S
H305 C292 0.961 . S
H306 C292 0.961 . S
H307 C293 0.958 . S
H308 C293 0.961 . S
H309 C293 0.960 . S
C310 C311 1.391 . S
C310 C312 1.394 . S
C310 H326 0.931 . S
C311 C310 1.391 . S
C311 C315 1.376 . S
C312 C310 1.394 . S
C312 C313 1.369 . S
C312 C316 1.531 . S
C313 C312 1.369 . S
C313 C314 1.410 . S
C313 C321 1.503 . S
C314 C313 1.410 . S
C314 C315 1.392 . S
C314 C317 1.511 . S
C315 C311 1.376 . S
C315 C314 1.392 . S
C315 H327 0.929 . S
C316 C312 1.531 . S
C316 H328 0.960 . S
C316 H329 0.962 . S
C316 H330 0.960 . S
C317 C314 1.511 . S
C317 H331 0.961 . S
C317 H332 0.961 . S
C317 H333 0.961 . S
C318 C319 1.370 . S
C318 C320 1.363 . S
C318 H334 0.931 . S
C319 C318 1.370 . S
C319 C323 1.408 . S
C320 C318 1.363 . S
C320 C321 1.370 . S
C320 C324 1.524 . S
C321 C313 1.503 . S
C321 C320 1.370 . S
C321 C322 1.403 . S
C322 C321 1.403 . S
C322 C323 1.404 . S
C322 C325 1.539 . S
C323 C319 1.408 . S
C323 C322 1.404 . S
C323 H335 0.930 . S
C324 C320 1.524 . S
C324 H336 0.956 . S
C324 H337 0.961 . S
C324 H338 0.961 . S
C325 C322 1.539 . S
C325 H339 0.958 . S
C325 H340 0.961 . S
C325 H341 0.960 . S
H326 C310 0.931 . S
H327 C315 0.929 . S
H328 C316 0.960 . S
H329 C316 0.962 . S
H330 C316 0.960 . S
H331 C317 0.961 . S
H332 C317 0.961 . S
H333 C317 0.961 . S
H334 C318 0.931 . S
H335 C323 0.930 . S
H336 C324 0.956 . S
H337 C324 0.961 . S
H338 C324 0.961 . S
H339 C325 0.958 . S
H340 C325 0.961 . S
H341 C325 0.960 . S
C342 C343 1.391 . S
C342 C344 1.394 . S
C342 H358 0.931 . S
C343 C342 1.391 . S
C343 C347 1.376 . S
C344 C342 1.394 . S
C344 C345 1.369 . S
C344 C348 1.531 . S
C345 C344 1.369 . S
C345 C346 1.410 . S
C345 C353 1.503 . S
C346 C345 1.410 . S
C346 C347 1.392 . S
C346 C349 1.511 . S
C347 C343 1.376 . S
C347 C346 1.392 . S
C347 H359 0.929 . S
C348 C344 1.531 . S
C348 H360 0.960 . S
C348 H361 0.962 . S
C348 H362 0.960 . S
C349 C346 1.511 . S
C349 H363 0.961 . S
C349 H364 0.961 . S
C349 H365 0.961 . S
C350 C351 1.370 . S
C350 C352 1.363 . S
C350 H366 0.931 . S
C351 C350 1.370 . S
C351 C355 1.408 . S
C352 C350 1.363 . S
C352 C353 1.370 . S
C352 C356 1.524 . S
C353 C345 1.503 . S
C353 C352 1.370 . S
C353 C354 1.403 . S
C354 C353 1.403 . S
C354 C355 1.404 . S
C354 C357 1.539 . S
C355 C351 1.408 . S
C355 C354 1.404 . S
C355 H367 0.930 . S
C356 C352 1.524 . S
C356 H368 0.956 . S
C356 H369 0.961 . S
C356 H370 0.961 . S
C357 C354 1.539 . S
C357 H371 0.958 . S
C357 H372 0.961 . S
C357 H373 0.960 . S
H358 C342 0.931 . S
H359 C347 0.929 . S
H360 C348 0.960 . S
H361 C348 0.962 . S
H362 C348 0.960 . S
H363 C349 0.961 . S
H364 C349 0.961 . S
H365 C349 0.961 . S
H366 C350 0.931 . S
H367 C355 0.930 . S
H368 C356 0.956 . S
H369 C356 0.961 . S
H370 C356 0.961 . S
H371 C357 0.958 . S
H372 C357 0.961 . S
H373 C357 0.960 . S
C374 C375 1.391 . S
C374 C376 1.394 . S
C374 H390 0.931 . S
C375 C374 1.391 . S
C375 C379 1.376 1_565 S
C376 C374 1.394 . S
C376 C377 1.369 . S
C376 C380 1.531 . S
C377 C376 1.369 . S
C377 C378 1.410 1_565 S
C377 C385 1.503 . S
C378 C377 1.410 1_545 S
C378 C379 1.392 . S
C378 C381 1.511 . S
C379 C375 1.376 1_545 S
C379 C378 1.392 . S
C379 H391 0.929 . S
C380 C376 1.531 . S
C380 H392 0.960 . S
C380 H393 0.962 1_455 S
C380 H394 0.960 . S
C381 C378 1.511 . S
C381 H395 0.961 . S
C381 H396 0.961 . S
C381 H397 0.961 . S
C382 C383 1.370 1_545 S
C382 C384 1.363 . S
C382 H398 0.931 . S
C383 C382 1.370 1_565 S
C383 C387 1.408 . S
C384 C382 1.363 . S
C384 C385 1.370 1_545 S
C384 C388 1.524 . S
C385 C377 1.503 . S
C385 C384 1.370 1_565 S
C385 C386 1.403 . S
C386 C385 1.403 . S
C386 C387 1.404 . S
C386 C389 1.539 . S
C387 C383 1.408 . S
C387 C386 1.404 . S
C387 H399 0.930 . S
C388 C384 1.524 . S
C388 H400 0.956 1_455 S
C388 H401 0.961 . S
C388 H402 0.969 . S
C389 C386 1.539 . S
C389 H403 0.958 . S
C389 H404 0.961 . S
C389 H405 0.960 . S
H390 C374 0.931 . S
H391 C379 0.929 . S
H392 C380 0.960 . S
H393 C380 0.962 1_655 S
H394 C380 0.960 . S
H395 C381 0.961 . S
H396 C381 0.961 . S
H397 C381 0.961 . S
H398 C382 0.931 . S
H399 C387 0.930 . S
H400 C388 0.956 1_655 S
H401 C388 0.961 . S
H402 C388 0.969 . S
H403 C389 0.958 . S
H404 C389 0.961 . S
H405 C389 0.960 . S
C406 C407 1.391 1_565 S
C406 C408 1.394 . S
C406 H422 0.931 . S
C407 C406 1.391 1_545 S
C407 C411 1.376 1_455 S
C408 C406 1.394 . S
C408 C409 1.369 1_565 S
C408 C412 1.531 . S
C409 C408 1.369 1_545 S
C409 C410 1.410 1_455 S
C409 C417 1.503 1_455 S
C410 C409 1.410 1_655 S
C410 C411 1.392 . S
C410 C413 1.511 . S
C411 C407 1.376 1_655 S
C411 C410 1.392 . S
C411 H423 0.929 . S
C412 C408 1.531 . S
C412 H424 0.960 . S
C412 H425 0.962 . S
C412 H426 0.960 . S
C413 C410 1.511 . S
C413 H427 0.961 . S
C413 H428 0.961 . S
C413 H429 0.961 . S
C414 C415 1.370 1_455 S
C414 C416 1.363 . S
C414 H430 0.931 . S
C415 C414 1.370 1_655 S
C415 C419 1.408 1_545 S
C416 C414 1.363 . S
C416 C417 1.370 1_455 S
C416 C420 1.524 . S
C417 C409 1.503 1_655 S
C417 C416 1.370 1_655 S
C417 C418 1.403 1_545 S
C418 C417 1.403 1_565 S
C418 C419 1.404 . S
C418 C421 1.539 . S
C419 C415 1.408 1_565 S
C419 C418 1.404 . S
C419 H431 0.930 . S
C420 C416 1.524 . S
C420 H432 0.956 . S
C420 H433 0.961 . S
C420 H434 0.961 . S
C421 C418 1.539 . S
C421 H435 0.958 . S
C421 H436 0.961 . S
C421 H437 0.960 . S
H422 C406 0.931 . S
H423 C411 0.929 . S
H424 C412 0.960 . S
H425 C412 0.962 . S
H426 C412 0.960 . S
H427 C413 0.961 . S
H428 C413 0.961 . S
H429 C413 0.961 . S
H430 C414 0.931 . S
H431 C419 0.930 . S
H432 C420 0.956 . S
H433 C420 0.961 . S
H434 C420 0.961 . S
H435 C421 0.958 . S
H436 C421 0.961 . S
H437 C421 0.960 . S
C438 C439 1.391 . S
C438 C440 1.394 . S
C438 H454 0.931 . S
C439 C438 1.391 . S
C439 C443 1.376 . S
C440 C438 1.394 . S
C440 C441 1.369 . S
C440 C444 1.531 . S
C441 C440 1.369 . S
C441 C442 1.410 . S
C441 C449 1.503 . S
C442 C441 1.410 . S
C442 C443 1.392 . S
C442 C445 1.511 . S
C443 C439 1.376 . S
C443 C442 1.392 . S
C443 H455 0.929 . S
C444 C440 1.531 . S
C444 H456 0.960 . S
C444 H457 0.962 . S
C444 H458 0.960 . S
C445 C442 1.511 . S
C445 H459 0.961 . S
C445 H460 0.961 . S
C445 H461 0.961 . S
C446 C447 1.370 . S
C446 C448 1.363 . S
C446 H462 0.931 . S
C447 C446 1.370 . S
C447 C451 1.408 . S
C448 C446 1.363 . S
C448 C449 1.370 . S
C448 C452 1.524 . S
C449 C441 1.503 . S
C449 C448 1.370 . S
C449 C450 1.403 . S
C450 C449 1.403 . S
C450 C451 1.404 . S
C450 C453 1.539 . S
C451 C447 1.408 . S
C451 C450 1.404 . S
C451 H463 0.930 . S
C452 C448 1.524 . S
C452 H464 0.956 . S
C452 H465 0.961 . S
C452 H466 0.961 . S
C453 C450 1.539 . S
C453 H467 0.958 . S
C453 H468 0.961 . S
C453 H469 0.960 . S
H454 C438 0.931 . S
H455 C443 0.929 . S
H456 C444 0.960 . S
H457 C444 0.962 . S
H458 C444 0.960 . S
H459 C445 0.961 . S
H460 C445 0.961 . S
H461 C445 0.961 . S
H462 C446 0.931 . S
H463 C451 0.930 . S
H464 C452 0.956 . S
H465 C452 0.961 . S
H466 C452 0.961 . S
H467 C453 0.958 . S
H468 C453 0.961 . S
H469 C453 0.960 . S
C470 C471 1.391 . S
C470 C472 1.394 . S
C470 H486 0.931 . S
C471 C470 1.391 . S
C471 C475 1.376 . S
C472 C470 1.394 . S
C472 C473 1.369 . S
C472 C476 1.531 . S
C473 C472 1.369 . S
C473 C474 1.410 . S
C473 C481 1.503 . S
C474 C473 1.410 . S
C474 C475 1.392 . S
C474 C477 1.511 . S
C475 C471 1.376 . S
C475 C474 1.392 . S
C475 H487 0.929 . S
C476 C472 1.531 . S
C476 H488 0.960 . S
C476 H489 0.962 . S
C476 H490 0.960 . S
C477 C474 1.511 . S
C477 H491 0.961 . S
C477 H492 0.961 . S
C477 H493 0.961 . S
C478 C479 1.370 . S
C478 C480 1.363 . S
C478 H494 0.931 . S
C479 C478 1.370 . S
C479 C483 1.408 . S
C480 C478 1.363 . S
C480 C481 1.370 . S
C480 C484 1.524 . S
C481 C473 1.503 . S
C481 C480 1.370 . S
C481 C482 1.403 . S
C482 C481 1.403 . S
C482 C483 1.404 . S
C482 C485 1.539 . S
C483 C479 1.408 . S
C483 C482 1.404 . S
C483 H495 0.930 . S
C484 C480 1.524 . S
C484 H496 0.956 . S
C484 H497 0.961 . S
C484 H498 0.961 . S
C485 C482 1.539 . S
C485 H499 0.958 . S
C485 H500 0.961 . S
C485 H501 0.960 . S
H486 C470 0.931 . S
H487 C475 0.929 . S
H488 C476 0.960 . S
H489 C476 0.962 . S
H490 C476 0.960 . S
H491 C477 0.961 . S
H492 C477 0.961 . S
H493 C477 0.961 . S
H494 C478 0.931 . S
H495 C483 0.930 . S
H496 C484 0.956 . S
H497 C484 0.961 . S
H498 C484 0.961 . S
H499 C485 0.958 . S
H500 C485 0.961 . S
H501 C485 0.960 . S
C127 C105 1.536 . S
C119 C15 1.444 . S
C151 C13 1.404 . S
C159 C91 1.410 . S
C183 C18 1.248 1_554 S
C191 C110 1.446 . S
C215 C17 1.524 . S
C223 C86 1.528 . S
C247 C36 1.451 . S
C255 C67 1.535 . S
C279 C34 1.402 . S
C287 C53 1.408 1_655 S
C319 C72 1.441 . S
C311 C39 1.218 . S
C351 C48 1.536 . S
C343 C38 1.516 . S
C375 C14 1.623 1_565 S
C383 C44 1.665 . S
C407 C16 1.388 . S
C415 C63 1.421 . S
C447 C82 1.672 . S
C439 C35 1.618 . S
C471 C37 1.390 . S
C479 C101 1.421 . S
