# Generated by pormake.
# Topology tbo, (3,4)-cn, num edge types: 1
# Building blocks:
#     Node 0, Type 0, BuildingBlock: QEWDON_clean_linker_0, # of connection points: 3
#     Node 1, Type 0, BuildingBlock: QEWDON_clean_linker_0, # of connection points: 3
#     Node 2, Type 0, BuildingBlock: QEWDON_clean_linker_0, # of connection points: 3
#     Node 3, Type 0, BuildingBlock: QEWDON_clean_linker_0, # of connection points: 3
#     Node 4, Type 0, BuildingBlock: QEWDON_clean_linker_0, # of connection points: 3
#     Node 5, Type 0, BuildingBlock: QEWDON_clean_linker_0, # of connection points: 3
#     Node 6, Type 0, BuildingBlock: QEWDON_clean_linker_0, # of connection points: 3
#     Node 7, Type 0, BuildingBlock: QEWDON_clean_linker_0, # of connection points: 3
#     Node 8, Type 0, BuildingBlock: QEWDON_clean_linker_0, # of connection points: 3
#     Node 9, Type 0, BuildingBlock: QEWDON_clean_linker_0, # of connection points: 3
#     Node 10, Type 0, BuildingBlock: QEWDON_clean_linker_0, # of connection points: 3
#     Node 11, Type 0, BuildingBlock: QEWDON_clean_linker_0, # of connection points: 3
#     Node 12, Type 0, BuildingBlock: QEWDON_clean_linker_0, # of connection points: 3
#     Node 13, Type 0, BuildingBlock: QEWDON_clean_linker_0, # of connection points: 3
#     Node 14, Type 0, BuildingBlock: QEWDON_clean_linker_0, # of connection points: 3
#     Node 15, Type 0, BuildingBlock: QEWDON_clean_linker_0, # of connection points: 3
#     Node 16, Type 0, BuildingBlock: QEWDON_clean_linker_0, # of connection points: 3
#     Node 17, Type 0, BuildingBlock: QEWDON_clean_linker_0, # of connection points: 3
#     Node 18, Type 0, BuildingBlock: QEWDON_clean_linker_0, # of connection points: 3
#     Node 19, Type 0, BuildingBlock: QEWDON_clean_linker_0, # of connection points: 3
#     Node 20, Type 0, BuildingBlock: QEWDON_clean_linker_0, # of connection points: 3
#     Node 21, Type 0, BuildingBlock: QEWDON_clean_linker_0, # of connection points: 3
#     Node 22, Type 0, BuildingBlock: QEWDON_clean_linker_0, # of connection points: 3
#     Node 23, Type 0, BuildingBlock: QEWDON_clean_linker_0, # of connection points: 3
#     Node 24, Type 0, BuildingBlock: QEWDON_clean_linker_0, # of connection points: 3
#     Node 25, Type 0, BuildingBlock: QEWDON_clean_linker_0, # of connection points: 3
#     Node 26, Type 0, BuildingBlock: QEWDON_clean_linker_0, # of connection points: 3
#     Node 27, Type 0, BuildingBlock: QEWDON_clean_linker_0, # of connection points: 3
#     Node 28, Type 0, BuildingBlock: QEWDON_clean_linker_0, # of connection points: 3
#     Node 29, Type 0, BuildingBlock: QEWDON_clean_linker_0, # of connection points: 3
#     Node 30, Type 0, BuildingBlock: QEWDON_clean_linker_0, # of connection points: 3
#     Node 31, Type 0, BuildingBlock: QEWDON_clean_linker_0, # of connection points: 3
#     Node 32, Type 1, BuildingBlock: ESEHIV_clean_sbu_0, # of connection points: 4
#     Node 33, Type 1, BuildingBlock: ESEHIV_clean_sbu_0, # of connection points: 4
#     Node 34, Type 1, BuildingBlock: ESEHIV_clean_sbu_0, # of connection points: 4
#     Node 35, Type 1, BuildingBlock: ESEHIV_clean_sbu_0, # of connection points: 4
#     Node 36, Type 1, BuildingBlock: ESEHIV_clean_sbu_0, # of connection points: 4
#     Node 37, Type 1, BuildingBlock: ESEHIV_clean_sbu_0, # of connection points: 4
#     Node 38, Type 1, BuildingBlock: ESEHIV_clean_sbu_0, # of connection points: 4
#     Node 39, Type 1, BuildingBlock: ESEHIV_clean_sbu_0, # of connection points: 4
#     Node 40, Type 1, BuildingBlock: ESEHIV_clean_sbu_0, # of connection points: 4
#     Node 41, Type 1, BuildingBlock: ESEHIV_clean_sbu_0, # of connection points: 4
#     Node 42, Type 1, BuildingBlock: ESEHIV_clean_sbu_0, # of connection points: 4
#     Node 43, Type 1, BuildingBlock: ESEHIV_clean_sbu_0, # of connection points: 4
#     Node 44, Type 1, BuildingBlock: ESEHIV_clean_sbu_0, # of connection points: 4
#     Node 45, Type 1, BuildingBlock: ESEHIV_clean_sbu_0, # of connection points: 4
#     Node 46, Type 1, BuildingBlock: ESEHIV_clean_sbu_0, # of connection points: 4
#     Node 47, Type 1, BuildingBlock: ESEHIV_clean_sbu_0, # of connection points: 4
#     Node 48, Type 1, BuildingBlock: ESEHIV_clean_sbu_0, # of connection points: 4
#     Node 49, Type 1, BuildingBlock: ESEHIV_clean_sbu_0, # of connection points: 4
#     Node 50, Type 1, BuildingBlock: ESEHIV_clean_sbu_0, # of connection points: 4
#     Node 51, Type 1, BuildingBlock: ESEHIV_clean_sbu_0, # of connection points: 4
#     Node 52, Type 1, BuildingBlock: ESEHIV_clean_sbu_0, # of connection points: 4
#     Node 53, Type 1, BuildingBlock: ESEHIV_clean_sbu_0, # of connection points: 4
#     Node 54, Type 1, BuildingBlock: ESEHIV_clean_sbu_0, # of connection points: 4
#     Node 55, Type 1, BuildingBlock: ESEHIV_clean_sbu_0, # of connection points: 4
#     Edge 56, Type (0, 1), BuildingBlock: XIVTED_clean_linker_0, # of connection points: 2
#     Edge 57, Type (0, 1), BuildingBlock: XIVTED_clean_linker_0, # of connection points: 2
#     Edge 58, Type (0, 1), BuildingBlock: XIVTED_clean_linker_0, # of connection points: 2
#     Edge 59, Type (0, 1), BuildingBlock: XIVTED_clean_linker_0, # of connection points: 2
#     Edge 60, Type (0, 1), BuildingBlock: XIVTED_clean_linker_0, # of connection points: 2
#     Edge 61, Type (0, 1), BuildingBlock: XIVTED_clean_linker_0, # of connection points: 2
#     Edge 62, Type (0, 1), BuildingBlock: XIVTED_clean_linker_0, # of connection points: 2
#     Edge 63, Type (0, 1), BuildingBlock: XIVTED_clean_linker_0, # of connection points: 2
#     Edge 64, Type (0, 1), BuildingBlock: XIVTED_clean_linker_0, # of connection points: 2
#     Edge 65, Type (0, 1), BuildingBlock: XIVTED_clean_linker_0, # of connection points: 2
#     Edge 66, Type (0, 1), BuildingBlock: XIVTED_clean_linker_0, # of connection points: 2
#     Edge 67, Type (0, 1), BuildingBlock: XIVTED_clean_linker_0, # of connection points: 2
#     Edge 68, Type (0, 1), BuildingBlock: XIVTED_clean_linker_0, # of connection points: 2
#     Edge 69, Type (0, 1), BuildingBlock: XIVTED_clean_linker_0, # of connection points: 2
#     Edge 70, Type (0, 1), BuildingBlock: XIVTED_clean_linker_0, # of connection points: 2
#     Edge 71, Type (0, 1), BuildingBlock: XIVTED_clean_linker_0, # of connection points: 2
#     Edge 72, Type (0, 1), BuildingBlock: XIVTED_clean_linker_0, # of connection points: 2
#     Edge 73, Type (0, 1), BuildingBlock: XIVTED_clean_linker_0, # of connection points: 2
#     Edge 74, Type (0, 1), BuildingBlock: XIVTED_clean_linker_0, # of connection points: 2
#     Edge 75, Type (0, 1), BuildingBlock: XIVTED_clean_linker_0, # of connection points: 2
#     Edge 76, Type (0, 1), BuildingBlock: XIVTED_clean_linker_0, # of connection points: 2
#     Edge 77, Type (0, 1), BuildingBlock: XIVTED_clean_linker_0, # of connection points: 2
#     Edge 78, Type (0, 1), BuildingBlock: XIVTED_clean_linker_0, # of connection points: 2
#     Edge 79, Type (0, 1), BuildingBlock: XIVTED_clean_linker_0, # of connection points: 2
#     Edge 80, Type (0, 1), BuildingBlock: XIVTED_clean_linker_0, # of connection points: 2
#     Edge 81, Type (0, 1), BuildingBlock: XIVTED_clean_linker_0, # of connection points: 2
#     Edge 82, Type (0, 1), BuildingBlock: XIVTED_clean_linker_0, # of connection points: 2
#     Edge 83, Type (0, 1), BuildingBlock: XIVTED_clean_linker_0, # of connection points: 2
#     Edge 84, Type (0, 1), BuildingBlock: XIVTED_clean_linker_0, # of connection points: 2
#     Edge 85, Type (0, 1), BuildingBlock: XIVTED_clean_linker_0, # of connection points: 2
#     Edge 86, Type (0, 1), BuildingBlock: XIVTED_clean_linker_0, # of connection points: 2
#     Edge 87, Type (0, 1), BuildingBlock: XIVTED_clean_linker_0, # of connection points: 2
#     Edge 88, Type (0, 1), BuildingBlock: XIVTED_clean_linker_0, # of connection points: 2
#     Edge 89, Type (0, 1), BuildingBlock: XIVTED_clean_linker_0, # of connection points: 2
#     Edge 90, Type (0, 1), BuildingBlock: XIVTED_clean_linker_0, # of connection points: 2
#     Edge 91, Type (0, 1), BuildingBlock: XIVTED_clean_linker_0, # of connection points: 2
#     Edge 92, Type (0, 1), BuildingBlock: XIVTED_clean_linker_0, # of connection points: 2
#     Edge 93, Type (0, 1), BuildingBlock: XIVTED_clean_linker_0, # of connection points: 2
#     Edge 94, Type (0, 1), BuildingBlock: XIVTED_clean_linker_0, # of connection points: 2
#     Edge 95, Type (0, 1), BuildingBlock: XIVTED_clean_linker_0, # of connection points: 2
#     Edge 96, Type (0, 1), BuildingBlock: XIVTED_clean_linker_0, # of connection points: 2
#     Edge 97, Type (0, 1), BuildingBlock: XIVTED_clean_linker_0, # of connection points: 2
#     Edge 98, Type (0, 1), BuildingBlock: XIVTED_clean_linker_0, # of connection points: 2
#     Edge 99, Type (0, 1), BuildingBlock: XIVTED_clean_linker_0, # of connection points: 2
#     Edge 100, Type (0, 1), BuildingBlock: XIVTED_clean_linker_0, # of connection points: 2
#     Edge 101, Type (0, 1), BuildingBlock: XIVTED_clean_linker_0, # of connection points: 2
#     Edge 102, Type (0, 1), BuildingBlock: XIVTED_clean_linker_0, # of connection points: 2
#     Edge 103, Type (0, 1), BuildingBlock: XIVTED_clean_linker_0, # of connection points: 2
#     Edge 104, Type (0, 1), BuildingBlock: XIVTED_clean_linker_0, # of connection points: 2
#     Edge 105, Type (0, 1), BuildingBlock: XIVTED_clean_linker_0, # of connection points: 2
#     Edge 106, Type (0, 1), BuildingBlock: XIVTED_clean_linker_0, # of connection points: 2
#     Edge 107, Type (0, 1), BuildingBlock: XIVTED_clean_linker_0, # of connection points: 2
#     Edge 108, Type (0, 1), BuildingBlock: XIVTED_clean_linker_0, # of connection points: 2
#     Edge 109, Type (0, 1), BuildingBlock: XIVTED_clean_linker_0, # of connection points: 2
#     Edge 110, Type (0, 1), BuildingBlock: XIVTED_clean_linker_0, # of connection points: 2
#     Edge 111, Type (0, 1), BuildingBlock: XIVTED_clean_linker_0, # of connection points: 2
#     Edge 112, Type (0, 1), BuildingBlock: XIVTED_clean_linker_0, # of connection points: 2
#     Edge 113, Type (0, 1), BuildingBlock: XIVTED_clean_linker_0, # of connection points: 2
#     Edge 114, Type (0, 1), BuildingBlock: XIVTED_clean_linker_0, # of connection points: 2
#     Edge 115, Type (0, 1), BuildingBlock: XIVTED_clean_linker_0, # of connection points: 2
#     Edge 116, Type (0, 1), BuildingBlock: XIVTED_clean_linker_0, # of connection points: 2
#     Edge 117, Type (0, 1), BuildingBlock: XIVTED_clean_linker_0, # of connection points: 2
#     Edge 118, Type (0, 1), BuildingBlock: XIVTED_clean_linker_0, # of connection points: 2
#     Edge 119, Type (0, 1), BuildingBlock: XIVTED_clean_linker_0, # of connection points: 2
#     Edge 120, Type (0, 1), BuildingBlock: XIVTED_clean_linker_0, # of connection points: 2
#     Edge 121, Type (0, 1), BuildingBlock: XIVTED_clean_linker_0, # of connection points: 2
#     Edge 122, Type (0, 1), BuildingBlock: XIVTED_clean_linker_0, # of connection points: 2
#     Edge 123, Type (0, 1), BuildingBlock: XIVTED_clean_linker_0, # of connection points: 2
#     Edge 124, Type (0, 1), BuildingBlock: XIVTED_clean_linker_0, # of connection points: 2
#     Edge 125, Type (0, 1), BuildingBlock: XIVTED_clean_linker_0, # of connection points: 2
#     Edge 126, Type (0, 1), BuildingBlock: XIVTED_clean_linker_0, # of connection points: 2
#     Edge 127, Type (0, 1), BuildingBlock: XIVTED_clean_linker_0, # of connection points: 2
#     Edge 128, Type (0, 1), BuildingBlock: XIVTED_clean_linker_0, # of connection points: 2
#     Edge 129, Type (0, 1), BuildingBlock: XIVTED_clean_linker_0, # of connection points: 2
#     Edge 130, Type (0, 1), BuildingBlock: XIVTED_clean_linker_0, # of connection points: 2
#     Edge 131, Type (0, 1), BuildingBlock: XIVTED_clean_linker_0, # of connection points: 2
#     Edge 132, Type (0, 1), BuildingBlock: XIVTED_clean_linker_0, # of connection points: 2
#     Edge 133, Type (0, 1), BuildingBlock: XIVTED_clean_linker_0, # of connection points: 2
#     Edge 134, Type (0, 1), BuildingBlock: XIVTED_clean_linker_0, # of connection points: 2
#     Edge 135, Type (0, 1), BuildingBlock: XIVTED_clean_linker_0, # of connection points: 2
#     Edge 136, Type (0, 1), BuildingBlock: XIVTED_clean_linker_0, # of connection points: 2
#     Edge 137, Type (0, 1), BuildingBlock: XIVTED_clean_linker_0, # of connection points: 2
#     Edge 138, Type (0, 1), BuildingBlock: XIVTED_clean_linker_0, # of connection points: 2
#     Edge 139, Type (0, 1), BuildingBlock: XIVTED_clean_linker_0, # of connection points: 2
#     Edge 140, Type (0, 1), BuildingBlock: XIVTED_clean_linker_0, # of connection points: 2
#     Edge 141, Type (0, 1), BuildingBlock: XIVTED_clean_linker_0, # of connection points: 2
#     Edge 142, Type (0, 1), BuildingBlock: XIVTED_clean_linker_0, # of connection points: 2
#     Edge 143, Type (0, 1), BuildingBlock: XIVTED_clean_linker_0, # of connection points: 2
#     Edge 144, Type (0, 1), BuildingBlock: XIVTED_clean_linker_0, # of connection points: 2
#     Edge 145, Type (0, 1), BuildingBlock: XIVTED_clean_linker_0, # of connection points: 2
#     Edge 146, Type (0, 1), BuildingBlock: XIVTED_clean_linker_0, # of connection points: 2
#     Edge 147, Type (0, 1), BuildingBlock: XIVTED_clean_linker_0, # of connection points: 2
#     Edge 148, Type (0, 1), BuildingBlock: XIVTED_clean_linker_0, # of connection points: 2
#     Edge 149, Type (0, 1), BuildingBlock: XIVTED_clean_linker_0, # of connection points: 2
#     Edge 150, Type (0, 1), BuildingBlock: XIVTED_clean_linker_0, # of connection points: 2
#     Edge 151, Type (0, 1), BuildingBlock: XIVTED_clean_linker_0, # of connection points: 2
# Relax obj value: 0.046
# Max RMSD: 0.212
# Mean RMSD: 0.137
data_MOF--net-tbo--node1-ESEHIV_clean_sbu_0--node2-QEWDON_clean_linker_0--edge1-XIVTED_clean_linker_0
_symmetry_space_group_name_H-M    P1
_symmetry_Int_Tables_number       1
_symmetry_cell_setting            triclinic
loop_
_symmetry_equiv_pos_as_xyz
'x, y, z'
_cell_length_a     70.290533
_cell_length_b     71.633679
_cell_length_c     78.803718
_cell_angle_alpha  89.937481
_cell_angle_beta   93.247868
_cell_angle_gamma 106.7619
loop_
_atom_site_label
_atom_site_type_symbol
_atom_site_fract_x
_atom_site_fract_y
_atom_site_fract_z
_atom_type_partial_charge
H0 H 0.19882 0.13052 0.2191 0.0
C1 C 0.20805 0.13724 0.20892 0.0
C2 C 0.22615 0.13289 0.20664 0.0
C3 C 0.20103 0.14903 0.1973 0.0
H4 H 0.25152 0.13823 0.19118 0.0
C5 C 0.2374 0.14106 0.19279 0.0
C6 C 0.23073 0.15295 0.18103 0.0
C7 C 0.21258 0.15689 0.18352 0.0
C8 C 0.18041 0.15086 0.19774 0.0
H9 H 0.20691 0.16548 0.17428 0.0
C10 C 0.17339 0.15836 0.21203 0.0
C11 C 0.15399 0.16068 0.2112 0.0
C12 C 0.1676 0.14525 0.1831 0.0
H13 H 0.17245 0.13925 0.17208 0.0
C14 C 0.14844 0.14723 0.18245 0.0
H15 H 0.18306 0.16284 0.2234 0.0
C16 C 0.14173 0.15499 0.19631 0.0
H17 H 0.12683 0.15658 0.19543 0.0
H18 H 0.13879 0.14286 0.17107 0.0
H19 H 0.90441 0.26898 0.17254 0.0
C20 C 0.89552 0.25391 0.17341 0.0
C21 C 0.90414 0.24007 0.18057 0.0
C22 C 0.87534 0.24837 0.16757 0.0
H23 H 0.89896 0.20991 0.1874 0.0
C24 C 0.89253 0.2206 0.18156 0.0
C25 C 0.87234 0.21497 0.1761 0.0
C26 C 0.86376 0.22892 0.16925 0.0
C27 C 0.86626 0.26271 0.1595 0.0
H28 H 0.84817 0.22454 0.1649 0.0
C29 C 0.87504 0.27374 0.14573 0.0
C30 C 0.86573 0.28633 0.13713 0.0
C31 C 0.84827 0.26469 0.16497 0.0
H32 H 0.84124 0.25634 0.17556 0.0
C33 C 0.83921 0.27748 0.1568 0.0
H34 H 0.88893 0.27219 0.14153 0.0
C35 C 0.84778 0.28817 0.14293 0.0
H36 H 0.84008 0.2975 0.13651 0.0
H37 H 0.82532 0.2789 0.16107 0.0
H38 H 0.90739 0.86973 0.22083 0.0
C39 C 0.90322 0.86461 0.20782 0.0
C40 C 0.91468 0.85457 0.19954 0.0
C41 C 0.88581 0.86721 0.19974 0.0
H42 H 0.91718 0.83943 0.17654 0.0
C43 C 0.90853 0.84734 0.18287 0.0
C44 C 0.89081 0.84928 0.17466 0.0
C45 C 0.87972 0.85948 0.18323 0.0
C46 C 0.87171 0.87399 0.20978 0.0
H47 H 0.86562 0.86039 0.17751 0.0
C48 C 0.87434 0.89389 0.21376 0.0
C49 C 0.86039 0.89939 0.22352 0.0
C50 C 0.85515 0.85981 0.21551 0.0
H51 H 0.85287 0.8445 0.2126 0.0
C52 C 0.84145 0.86513 0.22508 0.0
H53 H 0.88708 0.90492 0.20935 0.0
C54 C 0.84399 0.88467 0.22904 0.0
H55 H 0.8328 0.88829 0.23621 0.0
H56 H 0.82871 0.85403 0.22938 0.0
H57 H 0.18757 0.8829 0.15952 0.0
C58 C 0.17715 0.86914 0.16274 0.0
C59 C 0.17285 0.86527 0.1798 0.0
C60 C 0.16857 0.85505 0.14994 0.0
H61 H 0.156 0.84444 0.19707 0.0
C62 C 0.15974 0.84729 0.18396 0.0
C63 C 0.15051 0.83341 0.17126 0.0
C64 C 0.15499 0.83733 0.1543 0.0
C65 C 0.17394 0.85861 0.13206 0.0
H66 H 0.14782 0.8266 0.14448 0.0
C67 C 0.17877 0.84413 0.12261 0.0
C68 C 0.1839 0.84726 0.10563 0.0
C69 C 0.1743 0.87638 0.12434 0.0
H70 H 0.17055 0.88773 0.13131 0.0
C71 C 0.17919 0.87951 0.10743 0.0
H72 H 0.1786 0.83042 0.12853 0.0
C73 C 0.18394 0.86506 0.0981 0.0
H74 H 0.18799 0.86796 0.08509 0.0
H75 H 0.17937 0.89322 0.10155 0.0
H76 H 0.26407 0.86484 0.8424 0.0
C77 C 0.24885 0.85551 0.84189 0.0
C78 C 0.23348 0.86249 0.83489 0.0
C79 C 0.24472 0.83663 0.84845 0.0
H80 H 0.2022 0.85536 0.82807 0.0
C81 C 0.21389 0.8503 0.83432 0.0
C82 C 0.2094 0.83132 0.84077 0.0
C83 C 0.22495 0.82463 0.84803 0.0
C84 C 0.26135 0.82942 0.85515 0.0
H85 H 0.22179 0.81 0.85299 0.0
C86 C 0.26173 0.82244 0.87181 0.0
C87 C 0.27817 0.81664 0.87842 0.0
C88 C 0.27735 0.83025 0.845 0.0
H89 H 0.27733 0.83557 0.83212 0.0
C90 C 0.29348 0.82419 0.85136 0.0
H91 H 0.24938 0.82182 0.87964 0.0
C92 C 0.29397 0.8175 0.86796 0.0
H93 H 0.30693 0.81339 0.87272 0.0
H94 H 0.30576 0.82491 0.84346 0.0
H95 H 0.22003 0.19007 0.89199 0.0
C96 C 0.22922 0.18211 0.88649 0.0
C97 C 0.2466 0.18068 0.89563 0.0
C98 C 0.22286 0.17213 0.8709 0.0
H99 H 0.27108 0.16794 0.89571 0.0
C100 C 0.25776 0.16922 0.88877 0.0
C101 C 0.25205 0.15974 0.87283 0.0
C102 C 0.2347 0.16147 0.86402 0.0
C103 C 0.20282 0.1707 0.86262 0.0
H104 H 0.2299 0.15378 0.85198 0.0
C105 C 0.19573 0.18716 0.85991 0.0
C106 C 0.17698 0.18498 0.85126 0.0
C107 C 0.19054 0.15219 0.85725 0.0
H108 H 0.19528 0.13924 0.8595 0.0
C109 C 0.17196 0.15004 0.84905 0.0
H110 H 0.20495 0.20155 0.86392 0.0
C111 C 0.16528 0.16628 0.84596 0.0
H112 H 0.15081 0.16422 0.83943 0.0
H113 H 0.16272 0.1357 0.84499 0.0
H114 H 0.89493 0.18683 0.88944 0.0
C115 C 0.88563 0.17392 0.88276 0.0
C116 C 0.89042 0.16919 0.86653 0.0
C117 C 0.86928 0.16177 0.89071 0.0
H118 H 0.88213 0.1482 0.84582 0.0
C119 C 0.8786 0.15198 0.85832 0.0
C120 C 0.86225 0.13959 0.86613 0.0
C121 C 0.8577 0.14465 0.8823 0.0
C122 C 0.86437 0.16689 0.90786 0.0
H123 H 0.84481 0.13544 0.88821 0.0
C124 C 0.86476 0.18615 0.9119 0.0
C125 C 0.86008 0.19104 0.92815 0.0
C126 C 0.85921 0.15249 0.92028 0.0
H127 H 0.85901 0.1376 0.91761 0.0
C128 C 0.85459 0.15723 0.9364 0.0
H129 H 0.86826 0.19722 0.90226 0.0
C130 C 0.85503 0.17634 0.94035 0.0
H131 H 0.85172 0.17964 0.95306 0.0
H132 H 0.85078 0.14607 0.94592 0.0
H133 H 0.9063 0.83694 0.83668 0.0
C134 C 0.90023 0.83052 0.84838 0.0
C135 C 0.90289 0.81255 0.85371 0.0
C136 C 0.89085 0.84091 0.85862 0.0
H137 H 0.89796 0.79144 0.87382 0.0
C138 C 0.89536 0.80482 0.86926 0.0
C139 C 0.88606 0.81499 0.87975 0.0
C140 C 0.88393 0.83306 0.8743 0.0
C141 C 0.89207 0.86161 0.85487 0.0
H142 H 0.8774 0.84137 0.8825 0.0
C143 C 0.88094 0.86724 0.84123 0.0
C144 C 0.88296 0.8873 0.83831 0.0
C145 C 0.90503 0.87609 0.86542 0.0
H146 H 0.91371 0.87215 0.8759 0.0
C147 C 0.90711 0.89573 0.86257 0.0
H148 H 0.87084 0.85616 0.83305 0.0
C149 C 0.89621 0.9013 0.8492 0.0
H150 H 0.89789 0.91671 0.84764 0.0
H151 H 0.91715 0.90672 0.87084 0.0
H152 H 0.20236 0.61981 0.68942 0.0
C153 C 0.20882 0.63049 0.68004 0.0
C154 C 0.22791 0.63183 0.67461 0.0
C155 C 0.19752 0.64231 0.67315 0.0
H156 H 0.25023 0.6467 0.65762 0.0
C157 C 0.23588 0.64591 0.66239 0.0
C158 C 0.22495 0.65816 0.65543 0.0
C159 C 0.20574 0.65624 0.66099 0.0
C160 C 0.17605 0.63751 0.67666 0.0
H161 H 0.1969 0.66508 0.65543 0.0
C162 C 0.16737 0.65122 0.68349 0.0
C163 C 0.14682 0.6456 0.68658 0.0
C164 C 0.16405 0.61841 0.67302 0.0
H165 H 0.1703 0.60769 0.6677 0.0
C166 C 0.14391 0.6129 0.67604 0.0
H167 H 0.17646 0.66599 0.68638 0.0
C168 C 0.13536 0.62631 0.68277 0.0
H169 H 0.11969 0.62145 0.68521 0.0
H170 H 0.13486 0.59811 0.6732 0.0
H171 H 0.88639 0.76158 0.69327 0.0
C172 C 0.87968 0.74698 0.69776 0.0
C173 C 0.89189 0.7357 0.70377 0.0
C174 C 0.85884 0.73947 0.69751 0.0
H175 H 0.89254 0.70819 0.71455 0.0
C176 C 0.88314 0.71688 0.70973 0.0
C177 C 0.86238 0.70922 0.70971 0.0
C178 C 0.85029 0.72055 0.70348 0.0
C179 C 0.84598 0.75125 0.69074 0.0
H180 H 0.83424 0.71466 0.70332 0.0
C181 C 0.84952 0.76048 0.675 0.0
C182 C 0.83668 0.77069 0.66787 0.0
C183 C 0.8298 0.75284 0.69969 0.0
H184 H 0.82684 0.74599 0.71191 0.0
C185 C 0.81733 0.76339 0.69297 0.0
H186 H 0.86206 0.75929 0.66814 0.0
C187 C 0.82062 0.77215 0.67715 0.0
H188 H 0.81021 0.77956 0.672 0.0
H189 H 0.80485 0.76451 0.69994 0.0
H190 H 0.8979 0.36806 0.7307 0.0
C191 C 0.89505 0.36267 0.71768 0.0
C192 C 0.90645 0.35122 0.71129 0.0
C193 C 0.87878 0.36562 0.70789 0.0
H194 H 0.91049 0.33454 0.68973 0.0
C195 C 0.90188 0.34346 0.69462 0.0
C196 C 0.88584 0.34628 0.68447 0.0
C197 C 0.87446 0.35747 0.69127 0.0
C198 C 0.86421 0.37411 0.71585 0.0
H199 H 0.86187 0.35956 0.68373 0.0
C200 C 0.86985 0.39221 0.72495 0.0
C201 C 0.85529 0.39901 0.73275 0.0
C202 C 0.84403 0.3632 0.71471 0.0
H203 H 0.83925 0.34922 0.7081 0.0
C204 C 0.82979 0.36984 0.72235 0.0
H205 H 0.88532 0.40084 0.72597 0.0
C206 C 0.83531 0.38751 0.73128 0.0
H207 H 0.8238 0.39236 0.73689 0.0
H208 H 0.81433 0.36122 0.72135 0.0
H209 H 0.20137 0.33716 0.65742 0.0
C210 C 0.18801 0.33008 0.66382 0.0
C211 C 0.18319 0.3393 0.67804 0.0
C212 C 0.1757 0.31182 0.6578 0.0
H213 H 0.1613 0.33743 0.69664 0.0
C214 C 0.16552 0.33029 0.68595 0.0
C215 C 0.15321 0.31205 0.68026 0.0
C216 C 0.15852 0.30273 0.66643 0.0
C217 C 0.18049 0.30244 0.64233 0.0
H218 H 0.14904 0.28849 0.66232 0.0
C219 C 0.20038 0.30429 0.6387 0.0
C220 C 0.20476 0.29564 0.62396 0.0
C221 C 0.16508 0.29178 0.63088 0.0
H222 H 0.14965 0.29046 0.63293 0.0
C223 C 0.16938 0.28298 0.61638 0.0
H224 H 0.21248 0.31214 0.64744 0.0
C225 C 0.18906 0.28485 0.61292 0.0
H226 H 0.19202 0.27819 0.60141 0.0
H227 H 0.15739 0.27486 0.60767 0.0
H228 H 0.25454 0.34487 0.38048 0.0
C229 C 0.23889 0.3412 0.37641 0.0
C230 C 0.23208 0.3538 0.36557 0.0
C231 C 0.22587 0.32339 0.38122 0.0
H232 H 0.20654 0.35827 0.35146 0.0
C233 C 0.21193 0.34854 0.3597 0.0
C234 C 0.19865 0.33094 0.36461 0.0
C235 C 0.20577 0.31852 0.3754 0.0
C236 C 0.23336 0.30942 0.39166 0.0
H237 H 0.19567 0.30477 0.37904 0.0
C238 C 0.24693 0.31594 0.40574 0.0
C239 C 0.25415 0.30266 0.41546 0.0
C240 C 0.22709 0.28942 0.38742 0.0
H241 H 0.21692 0.28399 0.3765 0.0
C242 C 0.23412 0.27621 0.39707 0.0
H243 H 0.25191 0.33132 0.40908 0.0
C244 C 0.24755 0.28274 0.41099 0.0
H245 H 0.25263 0.27214 0.41837 0.0
H246 H 0.22918 0.26085 0.39371 0.0
H247 H 0.22096 0.67296 0.37893 0.0
C248 C 0.22792 0.66379 0.37213 0.0
C249 C 0.24546 0.66024 0.37919 0.0
C250 C 0.2183 0.65415 0.35706 0.0
H251 H 0.26726 0.64486 0.37563 0.0
C252 C 0.25358 0.64734 0.37051 0.0
C253 C 0.24422 0.63748 0.35543 0.0
C254 C 0.22667 0.64119 0.34879 0.0
C255 C 0.19772 0.65447 0.35161 0.0
H256 H 0.21881 0.63317 0.33761 0.0
C257 C 0.19295 0.67162 0.34632 0.0
C258 C 0.17325 0.67055 0.34028 0.0
C259 C 0.18252 0.63671 0.3514 0.0
H260 H 0.18571 0.62343 0.35555 0.0
C261 C 0.1631 0.63577 0.34589 0.0
H262 H 0.20452 0.68541 0.34629 0.0
C263 C 0.15852 0.65247 0.34027 0.0
H264 H 0.14332 0.65127 0.33585 0.0
H265 H 0.15157 0.62197 0.34581 0.0
H266 H 0.9247 0.67234 0.38568 0.0
C267 C 0.9159 0.66059 0.37738 0.0
C268 C 0.91779 0.66171 0.3597 0.0
C269 C 0.90294 0.64413 0.38447 0.0
H270 H 0.90732 0.64708 0.33557 0.0
C271 C 0.90603 0.64636 0.3492 0.0
C272 C 0.89275 0.62996 0.35608 0.0
C273 C 0.89149 0.62888 0.37378 0.0
C274 C 0.90143 0.64254 0.40309 0.0
H275 H 0.88158 0.61615 0.37933 0.0
C276 C 0.89663 0.65705 0.41249 0.0
C277 C 0.89389 0.65488 0.43004 0.0
C278 C 0.90401 0.62602 0.41139 0.0
H279 H 0.90776 0.6147 0.40437 0.0
C280 C 0.90176 0.62397 0.42881 0.0
H281 H 0.89466 0.66979 0.40604 0.0
C282 C 0.89662 0.63819 0.43808 0.0
H283 H 0.89429 0.63582 0.45147 0.0
H284 H 0.9037 0.61115 0.43511 0.0
H285 H 0.89356 0.32387 0.35605 0.0
C286 C 0.88551 0.31849 0.36723 0.0
C287 C 0.88827 0.30192 0.37546 0.0
C288 C 0.87341 0.32906 0.37374 0.0
H289 H 0.88083 0.2837 0.39749 0.0
C290 C 0.8787 0.29618 0.39071 0.0
C291 C 0.86635 0.30649 0.39738 0.0
C292 C 0.86347 0.32268 0.38858 0.0
C293 C 0.87401 0.34837 0.36646 0.0
H294 H 0.85474 0.33119 0.39398 0.0
C295 C 0.85671 0.35297 0.36003 0.0
C296 C 0.85842 0.37112 0.35222 0.0
C297 C 0.89265 0.36233 0.36556 0.0
H298 H 0.90609 0.35924 0.37056 0.0
C299 C 0.89423 0.38036 0.35823 0.0
H300 H 0.84226 0.34231 0.36051 0.0
C301 C 0.87729 0.38469 0.35149 0.0
H302 H 0.87892 0.39871 0.34561 0.0
H303 H 0.90869 0.39096 0.35761 0.0
H304 H 0.70684 0.11278 0.69693 0.0
C305 C 0.71431 0.12198 0.68695 0.0
C306 C 0.73329 0.12128 0.68259 0.0
C307 C 0.70417 0.1333 0.67769 0.0
H308 H 0.75674 0.13211 0.66542 0.0
C309 C 0.74212 0.13245 0.66879 0.0
C310 C 0.73225 0.14417 0.65946 0.0
C311 C 0.71323 0.14437 0.66409 0.0
C312 C 0.68267 0.13027 0.67978 0.0
H313 H 0.7049 0.15232 0.65651 0.0
C314 C 0.67554 0.14017 0.69237 0.0
C315 C 0.6548 0.1362 0.69405 0.0
C316 C 0.66905 0.11679 0.66885 0.0
H317 H 0.67425 0.1091 0.65911 0.0
C318 C 0.64866 0.11296 0.67042 0.0
H319 H 0.68596 0.15061 0.70087 0.0
C320 C 0.64157 0.1225 0.68292 0.0
H321 H 0.62563 0.1193 0.6838 0.0
H322 H 0.63828 0.1025 0.66192 0.0
H323 H 0.40758 0.26782 0.68464 0.0
C324 C 0.4002 0.25278 0.68758 0.0
C325 C 0.41171 0.24051 0.69287 0.0
C326 C 0.37925 0.24577 0.6864 0.0
H327 H 0.41099 0.21192 0.70187 0.0
C328 C 0.40216 0.22126 0.69732 0.0
C329 C 0.38135 0.21415 0.69662 0.0
C330 C 0.36999 0.22633 0.69081 0.0
C331 C 0.36698 0.25881 0.68109 0.0
H332 H 0.3539 0.22078 0.69012 0.0
C333 C 0.3726 0.27206 0.6678 0.0
C334 C 0.36083 0.2842 0.66254 0.0
C335 C 0.34948 0.258 0.68925 0.0
H336 H 0.34492 0.24827 0.69975 0.0
C337 C 0.33773 0.26992 0.68409 0.0
H338 H 0.38613 0.27289 0.66153 0.0
C339 C 0.34327 0.28287 0.6708 0.0
H340 H 0.33364 0.29167 0.66689 0.0
H341 H 0.32424 0.26909 0.69041 0.0
H342 H 0.39632 0.86738 0.73306 0.0
C343 C 0.3938 0.86229 0.71995 0.0
C344 C 0.40587 0.85168 0.71338 0.0
C345 C 0.37782 0.86545 0.70994 0.0
H346 H 0.41077 0.83565 0.69176 0.0
C347 C 0.40194 0.84443 0.69653 0.0
C348 C 0.38587 0.84714 0.68629 0.0
C349 C 0.37404 0.85785 0.69316 0.0
C350 C 0.36295 0.87353 0.71778 0.0
H351 H 0.36151 0.86 0.68558 0.0
C352 C 0.36791 0.89243 0.72537 0.0
C353 C 0.35311 0.89899 0.73301 0.0
C354 C 0.34324 0.86154 0.71788 0.0
H355 H 0.33907 0.84701 0.71227 0.0
C356 C 0.32875 0.86792 0.72543 0.0
H357 H 0.38303 0.90187 0.72533 0.0
C358 C 0.3336 0.8864 0.73293 0.0
H359 H 0.3219 0.89102 0.73846 0.0
H360 H 0.31364 0.85847 0.72543 0.0
H361 H 0.66684 0.83504 0.64051 0.0
C362 C 0.65826 0.82507 0.64952 0.0
C363 C 0.6621 0.82902 0.66702 0.0
C364 C 0.64314 0.80841 0.64366 0.0
H365 H 0.65353 0.81961 0.69208 0.0
C366 C 0.6509 0.81618 0.67859 0.0
C367 C 0.63553 0.79971 0.67296 0.0
C368 C 0.63165 0.79595 0.65545 0.0
C369 C 0.63928 0.80388 0.62525 0.0
H370 H 0.61991 0.78315 0.65101 0.0
C371 C 0.65487 0.80292 0.61519 0.0
C372 C 0.6511 0.79738 0.59789 0.0
C373 C 0.61986 0.7997 0.61782 0.0
H374 H 0.60763 0.8004 0.62533 0.0
C375 C 0.61607 0.79462 0.60062 0.0
H376 H 0.66986 0.80615 0.62094 0.0
C377 C 0.63151 0.79336 0.59071 0.0
H378 H 0.628 0.78878 0.57753 0.0
H379 H 0.60105 0.79138 0.59498 0.0
H380 H 0.76898 0.87267 0.32647 0.0
C381 C 0.75408 0.86415 0.32925 0.0
C382 C 0.73753 0.86952 0.32249 0.0
C383 C 0.75155 0.84806 0.33998 0.0
H384 H 0.70558 0.86177 0.32034 0.0
C385 C 0.7184 0.85832 0.32631 0.0
C386 C 0.71556 0.84225 0.33709 0.0
C387 C 0.73229 0.83727 0.34401 0.0
C388 C 0.76908 0.84229 0.34663 0.0
H389 H 0.73035 0.82483 0.35227 0.0
C390 C 0.77279 0.84087 0.36421 0.0
C391 C 0.78937 0.83515 0.37065 0.0
C392 C 0.78215 0.8382 0.33537 0.0
H393 H 0.77954 0.83923 0.32176 0.0
C394 C 0.79849 0.83237 0.34157 0.0
H395 H 0.76296 0.84469 0.37279 0.0
C396 C 0.80205 0.83073 0.35904 0.0
H397 H 0.81461 0.82575 0.36338 0.0
H398 H 0.80836 0.82896 0.3328 0.0
H399 H 0.71119 0.17223 0.38243 0.0
C400 C 0.71913 0.16684 0.37308 0.0
C401 C 0.7387 0.16595 0.37721 0.0
C402 C 0.70911 0.15931 0.35745 0.0
H403 H 0.76324 0.15704 0.36812 0.0
C404 C 0.74815 0.15756 0.36524 0.0
C405 C 0.73835 0.14976 0.34962 0.0
C406 C 0.71887 0.15091 0.34586 0.0
C407 C 0.68716 0.15552 0.35496 0.0
H408 H 0.71068 0.14407 0.33433 0.0
C409 C 0.678 0.16887 0.34715 0.0
C410 C 0.65692 0.16371 0.34416 0.0
C411 C 0.67524 0.13723 0.35975 0.0
H412 H 0.68195 0.12678 0.36563 0.0
C413 C 0.65471 0.13199 0.35668 0.0
H414 H 0.68719 0.18304 0.34351 0.0
C415 C 0.64566 0.14493 0.34886 0.0
H416 H 0.6297 0.13993 0.34625 0.0
H417 H 0.64573 0.11768 0.36019 0.0
H418 H 0.43253 0.18309 0.42437 0.0
C419 C 0.42106 0.17161 0.41768 0.0
C420 C 0.42025 0.17039 0.39983 0.0
C421 C 0.40726 0.158 0.42704 0.0
H422 H 0.40474 0.15401 0.3777 0.0
C423 C 0.40514 0.15542 0.39141 0.0
C424 C 0.39095 0.14183 0.40058 0.0
C425 C 0.39222 0.14328 0.41842 0.0
C426 C 0.40859 0.15902 0.44589 0.0
H427 H 0.38121 0.1332 0.42567 0.0
C428 C 0.41086 0.17679 0.4545 0.0
C429 C 0.41159 0.17766 0.47238 0.0
C430 C 0.40734 0.14211 0.45534 0.0
H431 H 0.40576 0.12829 0.44901 0.0
C432 C 0.40834 0.14294 0.47307 0.0
H433 H 0.41134 0.18978 0.44726 0.0
C434 C 0.4104 0.16056 0.48157 0.0
H435 H 0.41116 0.16082 0.49533 0.0
H436 H 0.40747 0.12986 0.48025 0.0
H437 H 0.40771 0.84661 0.35588 0.0
C438 C 0.39888 0.84115 0.36663 0.0
C439 C 0.3998 0.82357 0.37417 0.0
C440 C 0.38793 0.85266 0.37357 0.0
H441 H 0.38992 0.80419 0.395 0.0
C442 C 0.3893 0.81758 0.38888 0.0
C443 C 0.37835 0.82891 0.39615 0.0
C444 C 0.3774 0.84627 0.38818 0.0
C445 C 0.39126 0.87302 0.36766 0.0
H446 H 0.36988 0.85559 0.39411 0.0
C447 C 0.37602 0.87979 0.35965 0.0
C448 C 0.38038 0.89916 0.35356 0.0
C449 C 0.41059 0.8858 0.36987 0.0
H450 H 0.42248 0.88096 0.37603 0.0
C451 C 0.41482 0.90492 0.3643 0.0
H452 H 0.36113 0.86993 0.35775 0.0
C453 C 0.39992 0.91155 0.35624 0.0
H454 H 0.40373 0.92659 0.35226 0.0
H455 H 0.42975 0.91466 0.36623 0.0
H456 H 0.68455 0.63583 0.20537 0.0
C457 C 0.69452 0.64244 0.19561 0.0
C458 C 0.71069 0.63528 0.19248 0.0
C459 C 0.69018 0.65684 0.18521 0.0
H460 H 0.73541 0.63759 0.17683 0.0
C461 C 0.72296 0.64311 0.17915 0.0
C462 C 0.71936 0.65802 0.16894 0.0
C463 C 0.70296 0.66479 0.17217 0.0
C464 C 0.67088 0.66157 0.18615 0.0
H465 H 0.69957 0.67575 0.16403 0.0
C466 C 0.66358 0.66573 0.2017 0.0
C467 C 0.64479 0.6693 0.20183 0.0
C468 C 0.65913 0.66111 0.17099 0.0
H469 H 0.66406 0.65763 0.15893 0.0
C470 C 0.64066 0.66462 0.17118 0.0
H471 H 0.67235 0.66614 0.21352 0.0
C472 C 0.63351 0.66863 0.18645 0.0
H473 H 0.61911 0.67134 0.18626 0.0
H474 H 0.63179 0.66412 0.15941 0.0
H475 H 0.39765 0.74676 0.19342 0.0
C476 C 0.39423 0.73211 0.19836 0.0
C477 C 0.40962 0.7251 0.20526 0.0
C478 C 0.37436 0.72048 0.19835 0.0
H479 H 0.41691 0.70131 0.21804 0.0
C480 C 0.40505 0.7063 0.21201 0.0
C481 C 0.38528 0.69447 0.21221 0.0
C482 C 0.36998 0.70173 0.2053 0.0
C483 C 0.35809 0.7282 0.19164 0.0
H484 H 0.35464 0.69277 0.20521 0.0
C485 C 0.35825 0.73561 0.1751 0.0
C486 C 0.34255 0.74257 0.16856 0.0
C487 C 0.34227 0.72809 0.20177 0.0
H488 H 0.3419 0.72254 0.21458 0.0
C489 C 0.3269 0.73537 0.19551 0.0
H490 H 0.37046 0.73564 0.16727 0.0
C491 C 0.32697 0.74252 0.17902 0.0
H492 H 0.31452 0.7475 0.17432 0.0
H493 H 0.31475 0.73525 0.2034 0.0
H494 H 0.39924 0.33383 0.22916 0.0
C495 C 0.39579 0.33022 0.21578 0.0
C496 C 0.40671 0.31981 0.20717 0.0
C497 C 0.37979 0.33543 0.20752 0.0
H498 H 0.40974 0.30719 0.18306 0.0
C499 C 0.40152 0.31517 0.1898 0.0
C500 C 0.38528 0.31989 0.18122 0.0
C501 C 0.37469 0.33026 0.19029 0.0
C502 C 0.36579 0.34203 0.21789 0.0
H503 H 0.36157 0.33316 0.18436 0.0
C504 C 0.364 0.36127 0.21751 0.0
C505 C 0.35017 0.3665 0.22766 0.0
C506 C 0.35379 0.32829 0.22841 0.0
H507 H 0.35489 0.31351 0.22889 0.0
C508 C 0.34021 0.33332 0.23832 0.0
H509 H 0.37325 0.37198 0.20944 0.0
C510 C 0.33841 0.35218 0.23799 0.0
H511 H 0.32801 0.35565 0.2462 0.0
H512 H 0.33109 0.32256 0.24641 0.0
H513 H 0.75109 0.36137 0.1597 0.0
C514 C 0.73938 0.3557 0.16832 0.0
C515 C 0.74045 0.36508 0.18408 0.0
C516 C 0.72321 0.33932 0.16367 0.0
H517 H 0.72569 0.36616 0.20707 0.0
C518 C 0.72496 0.35858 0.19504 0.0
C519 C 0.70833 0.34283 0.19043 0.0
C520 C 0.70779 0.33293 0.17493 0.0
C521 C 0.72213 0.32932 0.14688 0.0
H522 H 0.69514 0.3205 0.17155 0.0
C523 C 0.73955 0.32781 0.13965 0.0
C524 C 0.73866 0.31896 0.12357 0.0
C525 C 0.7037 0.32153 0.13776 0.0
H526 H 0.69003 0.32282 0.14262 0.0
C527 C 0.7027 0.31236 0.122 0.0
H528 H 0.75384 0.33334 0.14659 0.0
C529 C 0.72002 0.31108 0.1149 0.0
H530 H 0.71886 0.3044 0.10242 0.0
H531 H 0.68845 0.3065 0.1151 0.0
H532 H 0.76729 0.35691 0.87217 0.0
C533 C 0.75211 0.34819 0.8691 0.0
C534 C 0.73952 0.35571 0.85834 0.0
C535 C 0.74547 0.32897 0.87502 0.0
H536 H 0.71043 0.34979 0.84569 0.0
C537 C 0.72008 0.34405 0.85406 0.0
C538 C 0.71311 0.32495 0.85996 0.0
C539 C 0.72592 0.31755 0.8705 0.0
C540 C 0.75919 0.3202 0.88503 0.0
H541 H 0.72068 0.30285 0.87522 0.0
C542 C 0.77106 0.33012 0.8991 0.0
C543 C 0.78354 0.32131 0.90879 0.0
C544 C 0.76024 0.30154 0.88055 0.0
H545 H 0.75149 0.29369 0.86965 0.0
C546 C 0.77275 0.2929 0.88993 0.0
H547 H 0.77008 0.34436 0.9028 0.0
C548 C 0.78429 0.30265 0.90397 0.0
H549 H 0.794 0.29565 0.91094 0.0
H550 H 0.77351 0.27858 0.8863 0.0
H551 H 0.71887 0.69102 0.89607 0.0
C552 C 0.72793 0.68313 0.89026 0.0
C553 C 0.7466 0.68349 0.89809 0.0
C554 C 0.72025 0.67153 0.8757 0.0
H555 H 0.77214 0.67244 0.89681 0.0
C556 C 0.75778 0.67224 0.8909 0.0
C557 C 0.75072 0.66119 0.87583 0.0
C558 C 0.73196 0.66101 0.86844 0.0
C559 C 0.69924 0.66843 0.86899 0.0
H560 H 0.72611 0.65211 0.85715 0.0
C561 C 0.69098 0.68402 0.86563 0.0
C562 C 0.67129 0.68019 0.85842 0.0
C563 C 0.68727 0.64919 0.86574 0.0
H564 H 0.69298 0.63692 0.86852 0.0
C565 C 0.66779 0.64544 0.85898 0.0
H566 H 0.69996 0.69894 0.86799 0.0
C567 C 0.6599 0.66079 0.85522 0.0
H568 H 0.64475 0.65748 0.84981 0.0
H569 H 0.65879 0.63056 0.85653 0.0
H570 H 0.40383 0.6465 0.89333 0.0
C571 C 0.39403 0.63505 0.88529 0.0
C572 C 0.3948 0.63599 0.86747 0.0
C573 C 0.38116 0.61891 0.89285 0.0
H574 H 0.38238 0.62138 0.84367 0.0
C575 C 0.38205 0.62076 0.85739 0.0
C576 C 0.36904 0.60457 0.86488 0.0
C577 C 0.36882 0.60374 0.88264 0.0
C578 C 0.3805 0.6175 0.91146 0.0
H579 H 0.35877 0.59141 0.8886 0.0
C580 C 0.37118 0.62893 0.92049 0.0
C581 C 0.36811 0.62583 0.93794 0.0
C582 C 0.38751 0.60338 0.91997 0.0
H583 H 0.39456 0.59434 0.91311 0.0
C584 C 0.38514 0.60062 0.93732 0.0
H585 H 0.3659 0.63982 0.91375 0.0
C586 C 0.37535 0.61158 0.94623 0.0
H587 H 0.37298 0.6084 0.95951 0.0
H588 H 0.39046 0.58961 0.94381 0.0
H589 H 0.41686 0.33205 0.84403 0.0
C590 C 0.41115 0.32521 0.85569 0.0
C591 C 0.41423 0.30722 0.86039 0.0
C592 C 0.40162 0.33491 0.86645 0.0
H593 H 0.40979 0.28524 0.87967 0.0
C594 C 0.40725 0.2989 0.87589 0.0
C595 C 0.39776 0.30832 0.88691 0.0
C596 C 0.39486 0.32624 0.88194 0.0
C597 C 0.40154 0.35541 0.86306 0.0
H598 H 0.38813 0.33398 0.8905 0.0
C599 C 0.39365 0.36114 0.84759 0.0
C600 C 0.39451 0.38096 0.84503 0.0
C601 C 0.41011 0.36968 0.87569 0.0
H602 H 0.41644 0.36579 0.88756 0.0
C603 C 0.411 0.38913 0.87312 0.0
H604 H 0.38696 0.35037 0.83771 0.0
C605 C 0.40333 0.39475 0.85792 0.0
H606 H 0.40413 0.40998 0.85627 0.0
H607 H 0.41773 0.39994 0.88295 0.0
Cu608 Cu 0.31928 0.23901 0.03833 0.0
N609 N 0.34008 0.24074 0.02369 0.0
N610 N 0.35747 0.24962 1.00044 0.0
C611 C 0.34518 0.25405 1.01134 0.0
C612 C 0.36071 0.23308 1.00648 0.0
C613 C 0.34994 0.22762 0.02074 0.0
O614 O 0.29556 0.23463 0.02281 0.0
C615 C 0.343 0.26115 0.06359 0.0
O616 O 0.35271 0.24898 0.05903 0.0
H617 H 0.33953 0.26651 1.01008 0.0
H618 H 0.34859 0.21445 0.02787 0.0
N619 N 0.31386 0.21685 0.05212 0.0
N620 N 0.30163 0.19802 0.07412 0.0
C621 C 0.30692 0.21626 0.06781 0.0
C622 C 0.31286 0.19831 0.04825 0.0
C623 C 0.30549 0.1867 0.06181 0.0
C624 C 0.29327 0.24513 1.01023 0.0
O625 O 0.30384 0.26352 1.01013 0.0
H626 H 0.30531 0.22901 0.07423 0.0
H627 H 0.31632 0.19339 0.03615 0.0
O628 O 0.32699 0.26088 0.05489 0.0
H629 H 0.36926 0.22485 1.00048 0.0
H630 H 0.30233 0.17101 0.06215 0.0
Cu631 Cu 0.88733 0.35584 1.01676 0.0
N632 N 0.87271 0.3374 0.03144 0.0
N633 N 0.85164 0.32438 0.05135 0.0
C634 C 0.85957 0.34035 0.04214 0.0
C635 C 0.85997 0.31078 0.04612 0.0
C636 C 0.87302 0.31888 0.03386 0.0
O637 O 0.91596 0.36179 0.02173 0.0
C638 C 0.86864 0.38722 1.01065 0.0
O639 O 0.86791 0.40484 1.01445 0.0
H640 H 0.8559 0.35396 0.04308 0.0
H641 H 0.88234 0.31188 0.02737 0.0
N642 N 0.88252 0.34617 0.99445 0.0
N643 N 0.87525 0.32479 0.97274 0.0
C644 C 0.87424 0.32745 0.98957 0.0
C645 C 0.88892 0.35574 0.9802 0.0
C646 C 0.88445 0.34257 0.96676 0.0
C647 C 0.92577 0.35789 0.03465 0.0
O648 O 0.94522 0.36215 0.03436 0.0
H649 H 0.86859 0.3158 0.99831 0.0
H650 H 0.89691 0.37108 0.97976 0.0
O651 O 0.88055 0.38013 1.0195 0.0
H652 H 0.85717 0.29618 0.05105 0.0
H653 H 0.88823 0.34573 0.95373 0.0
Cu654 Cu 0.82108 0.75345 0.03599 0.0
N655 N 0.8431 0.75723 0.02213 0.0
N656 N 0.86018 0.76655 0.9987 0.0
C657 C 0.84242 0.75714 1.00489 0.0
C658 C 0.87272 0.7721 1.01257 0.0
C659 C 0.86223 0.76643 0.02687 0.0
O660 O 0.79756 0.75023 0.02043 0.0
C661 C 0.83984 0.77133 0.06582 0.0
O662 O 0.84685 0.75633 0.06419 0.0
H663 H 0.82885 0.75181 0.997 0.0
H664 H 0.86794 0.77041 0.03978 0.0
N665 N 0.81485 0.73009 0.04824 0.0
N666 N 0.80106 0.70956 0.06872 0.0
C667 C 0.80266 0.72691 0.06124 0.0
C668 C 0.82117 0.71412 0.04727 0.0
C669 C 0.81266 0.70142 0.05986 0.0
C670 C 0.79655 0.75997 1.00704 0.0
O671 O 0.80936 0.77728 1.00566 0.0
H672 H 0.79521 0.73732 0.06513 0.0
H673 H 0.83147 0.71202 0.03828 0.0
O674 O 0.82766 0.77408 0.05401 0.0
H675 H 0.88812 0.78076 1.01247 0.0
H676 H 0.81526 0.68751 0.0625 0.0
Cu677 Cu 0.27893 0.74021 0.0214 0.0
N678 N 0.254 0.74132 0.0274 0.0
N679 N 0.23098 0.75189 0.03952 0.0
C680 C 0.2502 0.75185 0.04023 0.0
C681 C 0.22231 0.74075 0.02581 0.0
C682 C 0.23656 0.73421 1.01838 0.0
O683 O 0.2979 0.74693 0.04078 0.0
C684 C 0.28148 0.77165 0.99887 0.0
O685 O 0.2719 0.77809 1.01031 0.0
H686 H 0.26153 0.7603 0.04927 0.0
H687 H 0.23459 0.72565 1.00678 0.0
N688 N 0.27762 0.71484 1.01531 0.0
N689 N 0.28674 0.69053 1.00387 0.0
C690 C 0.28773 0.70959 1.00307 0.0
C691 C 0.26985 0.69856 0.02409 0.0
C692 C 0.27552 0.6835 1.01707 0.0
C693 C 0.30406 0.76323 0.04866 0.0
O694 O 0.29838 0.77819 0.04309 0.0
H695 H 0.29683 0.71982 0.99456 0.0
H696 H 0.26164 0.69799 0.03537 0.0
O697 O 0.28681 0.75638 1.00182 0.0
H698 H 0.20695 0.738 0.02119 0.0
H699 H 0.27229 0.66874 0.02168 0.0
Cu700 Cu 0.03178 0.24449 0.29427 0.0
N701 N 0.04097 0.2229 0.28928 0.0
N702 N 0.06059 0.20567 0.2799 0.0
C703 C 0.05874 0.22365 0.28308 0.0
C704 C 0.04329 0.19318 0.28442 0.0
C705 C 0.03126 0.2038 0.29012 0.0
O706 O 0.05472 0.26497 0.30331 0.0
C707 C 0.02045 0.24685 0.2589 0.0
O708 O 0.03122 0.23503 0.2562 0.0
H709 H 0.06994 0.23718 0.28071 0.0
H710 H 1.01628 0.19799 0.29417 0.0
N711 N 1.01206 0.23918 0.31038 0.0
N712 N 0.9879 0.24319 0.32628 0.0
C713 C 0.9996 0.24998 0.31322 0.0
C714 C 1.00802 0.22498 0.32198 0.0
C715 C 0.99321 0.22744 0.3318 0.0
C716 C 0.06122 0.2633 0.31847 0.0
O717 O 0.0518 0.24832 0.32738 0.0
H718 H 0.99953 0.2629 0.30611 0.0
H719 H 1.01558 0.21385 0.32344 0.0
O720 O 0.01974 0.25299 0.27394 0.0
H721 H 0.03924 0.17747 0.28313 0.0
H722 H 0.98685 0.21828 0.34218 0.0
Cu723 Cu 0.80098 0.04184 0.2502 0.0
N724 N 0.8019 0.05515 0.22974 0.0
N725 N 0.80793 0.07961 0.21142 0.0
C726 C 0.80976 0.07444 0.22775 0.0
C727 C 0.79865 0.06296 0.20275 0.0
C728 C 0.79476 0.04787 0.21415 0.0
O729 O 0.79855 0.05944 0.26874 0.0
C730 C 0.83253 0.02703 0.24012 0.0
O731 O 0.83108 0.03641 0.22602 0.0
H732 H 0.81679 0.08447 0.23806 0.0
H733 H 0.78734 0.03265 0.2113 0.0
N734 N 0.77837 0.02056 0.24952 0.0
N735 N 0.76015 0.99027 0.25461 0.0
C736 C 0.77848 1.00301 0.25541 0.0
C737 C 0.75927 0.01892 0.24466 0.0
C738 C 0.7479 1.00018 0.24794 0.0
C739 C 0.78544 0.06849 0.266 0.0
O740 O 0.77499 0.06548 0.25139 0.0
H741 H 0.79167 0.99991 0.26093 0.0
H742 H 0.75392 0.03056 0.23945 0.0
O743 O 0.82287 0.02964 0.25275 0.0
H744 H 0.79472 0.06185 0.18923 0.0
H745 H 0.73192 0.99438 0.24583 0.0
Cu746 Cu 0.05009 0.77008 0.27359 0.0
N747 N 0.04433 0.79373 0.26876 0.0
N748 N 0.02714 0.81353 0.25801 0.0
C749 C 0.02613 0.79573 0.2644 0.0
C750 C 0.04678 0.82314 0.25858 0.0
C751 C 0.05729 0.81093 0.26517 0.0
O752 O 0.02754 0.75278 0.28394 0.0
C753 C 0.04727 0.76117 0.23812 0.0
O754 O 0.03121 0.76707 0.23741 0.0
H755 H 1.01253 0.78385 0.26469 0.0
H756 H 0.07331 0.81397 0.26631 0.0
N757 N 0.07303 0.77241 0.28801 0.0
N758 N 0.09823 0.76357 0.30128 0.0
C759 C 0.08225 0.75834 0.29001 0.0
C760 C 0.08354 0.78716 0.29835 0.0
C761 C 0.09902 0.78175 0.30657 0.0
C762 C 0.0251 0.75618 0.29938 0.0
O763 O 0.03783 0.77104 0.30745 0.0
H764 H 0.07704 0.74436 0.28347 0.0
H765 H 0.08015 0.80084 0.29986 0.0
O766 O 0.05578 0.75966 0.25251 0.0
H767 H 0.05316 0.83774 0.25402 0.0
H768 H 0.1101 0.79063 0.3156 0.0
Cu769 Cu 0.27132 1.00185 0.29675 0.0
N770 N 0.27301 0.01302 0.31838 0.0
N771 N 0.28618 0.0338 0.33991 0.0
C772 C 0.28704 0.02948 0.32339 0.0
C773 C 0.27097 0.0194 0.34558 0.0
C774 C 0.26279 0.00659 0.3322 0.0
O775 O 0.27395 0.02317 0.28038 0.0
C776 C 0.28665 0.97261 0.30791 0.0
O777 O 0.26984 0.96902 0.31552 0.0
H778 H 0.29816 0.03775 0.31515 0.0
H779 H 0.2506 0.99334 0.33262 0.0
N780 N 0.2466 0.98406 0.29107 0.0
N781 N 0.22443 0.96092 0.2755 0.0
C782 C 0.24386 0.96954 0.27956 0.0
C783 C 0.22822 0.9846 0.29454 0.0
C784 C 0.21446 0.97034 0.28485 0.0
C785 C 0.26265 0.03393 0.28299 0.0
O786 O 0.2514 0.03009 0.29604 0.0
H787 H 0.25595 0.96621 0.27346 0.0
H788 H 0.22507 0.99518 0.30287 0.0
O789 O 0.29102 0.98706 0.29784 0.0
H790 H 0.26622 0.01814 0.35847 0.0
H791 H 0.19845 0.96749 0.28433 0.0
Cu792 Cu 0.04154 0.74728 0.77351 0.0
N793 N 0.0456 0.72447 0.76453 0.0
N794 N 0.05978 0.70527 0.75046 0.0
C795 C 0.06244 0.72288 0.75797 0.0
C796 C 0.04057 0.69539 0.75254 0.0
C797 C 0.03189 0.70723 0.76121 0.0
O798 O 0.06602 0.76242 0.78525 0.0
C799 C 0.03057 0.75677 0.73982 0.0
O800 O 0.03939 0.74416 0.73458 0.0
H801 H 0.07604 0.73479 0.75788 0.0
H802 H 1.01648 0.7038 0.76429 0.0
N803 N 0.02122 0.74243 0.7888 0.0
N804 N 0.99663 0.74786 0.80325 0.0
C805 C 1.01062 0.75492 0.79192 0.0
C806 C 1.01375 0.72686 0.79848 0.0
C807 C 0.99857 0.73015 0.80738 0.0
C808 C 0.07489 0.75367 0.79565 0.0
O809 O 0.06713 0.73492 0.79804 0.0
H810 H 1.013 0.76883 0.78574 0.0
H811 H 0.01895 0.71404 0.79902 0.0
O812 O 0.03232 0.7616 0.75549 0.0
H813 H 0.03317 0.68076 0.74782 0.0
H814 H 0.98985 0.72031 0.81635 0.0
Cu815 Cu 0.30937 0.04504 0.78183 0.0
N816 N 0.30809 0.05858 0.76183 0.0
N817 N 0.3149 0.08312 0.74348 0.0
C818 C 0.32026 0.07623 0.75842 0.0
C819 C 0.29868 0.06907 0.73727 0.0
C820 C 0.2945 0.05397 0.74864 0.0
O821 O 0.31265 0.06456 0.80022 0.0
C822 C 0.3357 0.02675 0.76658 0.0
O823 O 0.33225 0.03628 0.75308 0.0
H824 H 0.33272 0.08381 0.7669 0.0
H825 H 0.28219 0.04077 0.74757 0.0
N826 N 0.28521 0.02618 0.78375 0.0
N827 N 0.26452 0.99699 0.78892 0.0
C828 C 0.28351 0.00738 0.78686 0.0
C829 C 0.26665 0.0279 0.78376 0.0
C830 C 0.25378 0.00982 0.78703 0.0
C831 C 0.30384 0.06136 0.81413 0.0
O832 O 0.29486 0.0433 0.8182 0.0
H833 H 0.29615 1.00164 0.78837 0.0
H834 H 0.26286 0.0414 0.78198 0.0
O835 O 0.32906 0.0301 0.78071 0.0
H836 H 0.29007 0.06979 0.7256 0.0
H837 H 0.23788 0.00647 0.78815 0.0
Cu838 Cu 0.04109 0.27231 0.79345 0.0
N839 N 0.03351 0.29523 0.78985 0.0
N840 N 1.01489 0.31406 0.77989 0.0
C841 C 1.01541 0.29575 0.78359 0.0
C842 C 0.03342 0.32555 0.78436 0.0
C843 C 0.04486 0.3139 0.79043 0.0
O844 O 0.01834 0.25251 0.80137 0.0
C845 C 0.04373 0.26848 0.75766 0.0
O846 O 0.028 0.27486 0.75615 0.0
H847 H 1.00309 0.28274 0.78118 0.0
H848 H 0.06057 0.31862 0.79422 0.0
N849 N 0.06256 0.27527 0.80951 0.0
N850 N 0.08881 0.26873 0.82309 0.0
C851 C 0.07528 0.26431 0.8097 0.0
C852 C 0.06818 0.28712 0.82325 0.0
C853 C 0.08434 0.2831 0.83167 0.0
C854 C 1.0103 0.25721 0.81414 0.0
O855 O 0.01797 0.27464 0.82106 0.0
H856 H 0.07421 0.2529 0.80039 0.0
H857 H 0.0609 0.29774 0.827 0.0
O858 O 0.05025 0.26503 0.77236 0.0
H859 H 0.03869 0.34113 0.78253 0.0
H860 H 0.09218 0.29024 0.84319 0.0
Cu861 Cu 0.78134 0.98424 0.76112 0.0
N862 N 0.78001 0.99465 0.78256 0.0
N863 N 0.7872 0.01672 0.8037 0.0
C864 C 0.79074 0.01266 0.7877 0.0
C865 C 0.77383 1.00047 0.80897 0.0
C866 C 0.76935 0.98684 0.79583 0.0
O867 O 0.78545 0.00651 0.74537 0.0
C868 C 0.79581 0.9541 0.77272 0.0
O869 O 0.77748 0.94874 0.77759 0.0
H870 H 0.80115 0.02253 0.77983 0.0
H871 H 0.75908 0.97234 0.79593 0.0
N872 N 0.75707 0.96659 0.75381 0.0
N873 N 0.73509 0.94337 0.73816 0.0
C874 C 0.75451 0.95271 0.74169 0.0
C875 C 0.73865 0.96593 0.75817 0.0
C876 C 0.72503 0.95165 0.74847 0.0
C877 C 0.77292 0.01626 0.74683 0.0
O878 O 0.75924 0.01048 0.75791 0.0
H879 H 0.76664 0.94989 0.73526 0.0
H880 H 0.73533 0.9754 0.76753 0.0
O881 O 0.80142 0.96981 0.76421 0.0
H882 H 0.76755 0.99866 0.8213 0.0
H883 H 0.709 0.94762 0.74898 0.0
Cu884 Cu 0.31376 0.75344 0.5328 0.0
N885 N 0.33555 0.76165 0.54906 0.0
N886 N 0.35253 0.77586 0.57301 0.0
C887 C 0.33567 0.77287 0.56288 0.0
C888 C 0.36345 0.76607 0.56516 0.0
C889 C 0.35293 0.75727 0.55051 0.0
O890 O 0.29079 0.74473 0.54704 0.0
C891 C 0.33224 0.77997 0.50983 0.0
O892 O 0.34624 0.77249 0.51577 0.0
H893 H 0.32348 0.77865 0.56545 0.0
H894 H 0.35757 0.74814 0.54166 0.0
N895 N 0.31375 0.73244 0.51842 0.0
N896 N 0.30621 0.71353 0.49478 0.0
C897 C 0.30367 0.72908 0.50309 0.0
C898 C 0.32309 0.71851 0.51996 0.0
C899 C 0.31844 0.70683 0.50544 0.0
C900 C 0.29296 0.73176 0.55756 0.0
O901 O 0.30846 0.72516 0.55651 0.0
H902 H 0.29452 0.73794 0.49822 0.0
H903 H 0.33268 0.717 0.53077 0.0
O904 O 0.31532 0.77456 0.51641 0.0
H905 H 0.37782 0.7649 0.56986 0.0
H906 H 0.32395 0.69455 0.50289 0.0
Cu907 Cu 0.81219 0.77877 0.51554 0.0
N908 N 0.81782 0.7556 0.51088 0.0
N909 N 0.83085 0.73365 0.5 0.0
C910 C 0.82792 0.75138 0.49811 0.0
C911 C 0.82219 0.72648 0.5144 0.0
C912 C 0.81415 0.74005 0.52107 0.0
O913 O 0.81942 0.79632 0.49671 0.0
C914 C 0.82503 0.80233 0.54615 0.0
O915 O 0.8141 0.81338 0.54054 0.0
H916 H 0.83367 0.76138 0.48806 0.0
H917 H 0.8066 0.73894 0.53277 0.0
N918 N 0.78484 0.77314 0.51761 0.0
N919 N 0.75541 0.77284 0.52705 0.0
C920 C 0.77513 0.77664 0.53094 0.0
C921 C 0.77079 0.76663 0.50497 0.0
C922 C 0.75262 0.76647 0.51074 0.0
C923 C 0.81041 0.80913 0.49366 0.0
O924 O 0.79818 0.81204 0.50467 0.0
H925 H 0.78244 0.78266 0.54299 0.0
H926 H 0.77372 0.76295 0.49227 0.0
O927 O 0.82654 0.78834 0.53692 0.0
H928 H 0.82184 0.71248 0.51979 0.0
H929 H 0.73851 0.76231 0.50339 0.0
Cu930 Cu 0.81193 0.24414 0.5349 0.0
N931 N 0.814 0.22622 0.5181 0.0
N932 N 0.80648 0.21076 0.49267 0.0
C933 C 0.80194 0.22296 0.50379 0.0
C934 C 0.82207 0.20602 0.50045 0.0
C935 C 0.82674 0.21565 0.51607 0.0
O936 O 0.80844 0.26508 0.51997 0.0
C937 C 0.79369 0.21549 0.55633 0.0
O938 O 0.80929 0.21039 0.55202 0.0
H939 H 0.79005 0.22963 0.50161 0.0
H940 H 0.83875 0.21517 0.52511 0.0
N941 N 0.83411 0.25385 0.55045 0.0
N942 N 0.85151 0.26983 0.57361 0.0
C943 C 0.83369 0.26424 0.56468 0.0
C944 C 0.85286 0.25267 0.55036 0.0
C945 C 0.86359 0.2625 0.56456 0.0
C946 C 0.82385 0.27888 0.51665 0.0
O947 O 0.83915 0.28311 0.52776 0.0
H948 H 0.82053 0.26791 0.56817 0.0
H949 H 0.85841 0.24537 0.54061 0.0
O950 O 0.79055 0.23061 0.54948 0.0
H951 H 0.82994 0.19669 0.49509 0.0
H952 H 0.87909 0.26397 0.56794 0.0
Cu953 Cu 0.37647 0.33551 0.54286 0.0
N954 N 0.36163 0.32179 0.56023 0.0
N955 N 0.33784 0.31135 0.57856 0.0
C956 C 0.34557 0.3249 0.56694 0.0
C957 C 0.34947 0.2993 0.57916 0.0
C958 C 0.36405 0.30572 0.56782 0.0
O959 O 0.38766 0.36331 0.54783 0.0
C960 C 0.34617 0.34111 0.51972 0.0
O961 O 0.34426 0.3538 0.53104 0.0
H962 H 0.33935 0.33648 0.56297 0.0
H963 H 0.37562 0.2991 0.56527 0.0
N964 N 0.39637 0.32427 0.53807 0.0
N965 N 0.41009 0.30197 0.52885 0.0
C966 C 0.39316 0.30567 0.53297 0.0
C967 C 0.41601 0.33277 0.53707 0.0
C968 C 0.42456 0.319 0.53137 0.0
C969 C 0.39204 0.37141 0.56248 0.0
O970 O 0.3977 0.39053 0.56371 0.0
H971 H 0.3785 0.29528 0.53165 0.0
H972 H 0.42348 0.34798 0.53989 0.0
O973 O 0.35914 0.33208 0.52252 0.0
H974 H 0.34756 0.28669 0.58717 0.0
H975 H 0.44011 0.32138 0.5291 0.0
Cu976 Cu 0.81074 0.53728 0.79426 0.0
N977 N 0.80806 0.55002 0.77393 0.0
N978 N 0.81159 0.57505 0.75617 0.0
C979 C 0.81706 0.56901 0.77144 0.0
C980 C 0.79872 0.55899 0.74869 0.0
C981 C 0.79657 0.54358 0.75969 0.0
O982 O 0.81261 0.55687 0.81253 0.0
C983 C 0.84012 0.52282 0.77892 0.0
O984 O 0.83848 0.53455 0.76648 0.0
H985 H 0.82734 0.57815 0.78085 0.0
H986 H 0.78708 0.52884 0.75755 0.0
N987 N 0.78808 0.51675 0.79756 0.0
N988 N 0.77038 0.48774 0.80659 0.0
C989 C 0.78828 0.50127 0.80714 0.0
C990 C 0.76935 0.51303 0.79074 0.0
C991 C 0.75838 0.49503 0.79626 0.0
C992 C 0.79844 0.56483 0.81138 0.0
O993 O 0.78444 0.5588 0.7992 0.0
H994 H 0.80158 0.49965 0.81385 0.0
H995 H 0.76413 0.5225 0.78215 0.0
O996 O 0.83169 0.52391 0.79273 0.0
H997 H 0.79099 0.55842 0.73635 0.0
H998 H 0.74286 0.48784 0.79283 0.0
Cu999 Cu 0.30269 0.49064 0.7481 0.0
N1000 N 0.32555 0.48212 0.75206 0.0
N1001 N 0.34493 0.46438 0.76296 0.0
C1002 C 0.32609 0.46493 0.7589 0.0
C1003 C 0.35661 0.48193 0.75827 0.0
C1004 C 0.34468 0.4928 0.75169 0.0
O1005 O 0.28065 0.46841 0.74076 0.0
C1006 C 0.30152 0.49691 0.78374 0.0
O1007 O 0.30503 0.47997 0.78561 0.0
H1008 H 0.31282 0.45343 0.76153 0.0
H1009 H 0.3496 0.50784 0.74785 0.0
N1010 N 0.30521 0.5103 0.73174 0.0
N1011 N 0.29803 0.53458 0.71705 0.0
C1012 C 0.29216 0.52076 0.72893 0.0
C1013 C 0.31985 0.51766 0.72119 0.0
C1014 C 0.3155 0.53264 0.71216 0.0
C1015 C 0.28063 0.4621 0.72566 0.0
O1016 O 0.29517 0.47098 0.71612 0.0
H1017 H 0.27881 0.51854 0.73582 0.0
H1018 H 0.3328 0.51258 0.72014 0.0
O1019 O 0.29834 0.50271 0.76889 0.0
H1020 H 0.37263 0.48711 0.76036 0.0
H1021 H 0.32444 0.54131 0.70264 0.0
Cu1022 Cu 0.32553 0.51883 0.2893 0.0
N1023 N 0.32919 0.50467 0.30844 0.0
N1024 N 0.32179 0.4789 0.32541 0.0
C1025 C 0.317 0.48676 0.31084 0.0
C1026 C 0.3377 0.49254 0.3326 0.0
C1027 C 0.34233 0.50846 0.322 0.0
O1028 O 0.32224 0.49957 0.27056 0.0
C1029 C 0.30732 0.54065 0.30754 0.0
O1030 O 0.3239 0.54197 0.31666 0.0
H1031 H 0.30451 0.47985 0.30211 0.0
H1032 H 0.35422 0.52185 0.32414 0.0
N1033 N 0.34728 0.54029 0.28552 0.0
N1034 N 0.36323 0.56931 0.27526 0.0
C1035 C 0.34561 0.55559 0.27629 0.0
C1036 C 0.36667 0.54446 0.29065 0.0
C1037 C 0.3766 0.56236 0.28421 0.0
C1038 C 0.33787 0.49427 0.26836 0.0
O1039 O 0.35422 0.50309 0.27746 0.0
H1040 H 0.33168 0.55646 0.27025 0.0
H1041 H 0.37315 0.53515 0.29841 0.0
O1042 O 0.30382 0.53028 0.29385 0.0
H1043 H 0.34545 0.4911 0.34457 0.0
H1044 H 0.39235 0.56976 0.28613 0.0
Cu1045 Cu 0.77238 0.49201 0.27212 0.0
N1046 N 0.76603 0.47035 0.28646 0.0
N1047 N 0.77034 0.44515 0.30159 0.0
C1048 C 0.77719 0.45804 0.28924 0.0
C1049 C 0.75413 0.44952 0.3068 0.0
C1050 C 0.7515 0.46505 0.29744 0.0
O1051 O 0.78146 0.48396 0.2514 0.0
C1052 C 0.80584 0.52575 0.27784 0.0
O1053 O 0.80758 0.52584 0.26133 0.0
H1054 H 0.79066 0.45911 0.28291 0.0
H1055 H 0.74019 0.47236 0.29893 0.0
N1056 N 0.75056 0.50107 0.26587 0.0
N1057 N 0.73372 0.52043 0.254 0.0
C1058 C 0.75141 0.51933 0.2609 0.0
C1059 C 0.73168 0.4903 0.26207 0.0
C1060 C 0.72127 0.5022 0.25472 0.0
C1061 C 0.79776 0.4799 0.24999 0.0
O1062 O 0.81105 0.48321 0.26288 0.0
H1063 H 0.76504 0.53123 0.26123 0.0
H1064 H 0.72619 0.4747 0.26364 0.0
O1065 O 0.79219 0.51255 0.28437 0.0
H1066 H 0.74499 0.44227 0.31683 0.0
H1067 H 0.70594 0.49765 0.24975 0.0
Cu1068 Cu 0.55135 0.24113 0.77847 0.0
N1069 N 0.53087 0.2369 0.79354 0.0
N1070 N 0.5064 0.24273 0.80785 0.0
C1071 C 0.52009 0.24935 0.7962 0.0
C1072 C 0.50874 0.22537 0.8127 0.0
C1073 C 0.52385 0.22186 0.8039 0.0
O1074 O 0.54266 0.25463 0.75955 0.0
C1075 C 0.58384 0.2489 0.80165 0.0
O1076 O 0.57591 0.23035 0.80481 0.0
H1077 H 0.52221 0.26296 0.78955 0.0
H1078 H 0.52944 0.20931 0.80509 0.0
N1079 N 0.5557 0.21784 0.77098 0.0
N1080 N 0.57068 0.19713 0.76017 0.0
C1081 C 0.57267 0.21573 0.7651 0.0
C1082 C 0.54251 0.20002 0.7697 0.0
C1083 C 0.55168 0.18724 0.7631 0.0
C1084 C 0.54213 0.24971 0.74399 0.0
O1085 O 0.55065 0.23647 0.73969 0.0
H1086 H 0.58616 0.22767 0.76441 0.0
H1087 H 0.52719 0.19663 0.77306 0.0
O1088 O 0.57549 0.25696 0.79024 0.0
H1089 H 0.50041 0.21602 0.82217 0.0
H1090 H 0.54466 0.17194 0.76026 0.0
Cu1091 Cu 0.53117 0.76286 0.79738 0.0
N1092 N 0.55131 0.76453 0.81462 0.0
N1093 N 0.57716 0.7578 0.82878 0.0
C1094 C 0.56354 0.75304 0.81547 0.0
C1095 C 0.57312 0.77281 0.83674 0.0
C1096 C 0.55723 0.77694 0.82798 0.0
O1097 O 0.5415 0.75727 0.77623 0.0
C1098 C 0.49901 0.74472 0.81619 0.0
O1099 O 0.50525 0.76148 0.82449 0.0
H1100 H 0.56243 0.74142 0.80636 0.0
H1101 H 0.55062 0.78833 0.831 0.0
N1102 N 0.52405 0.78603 0.79416 0.0
N1103 N 0.50762 0.80629 0.7832 0.0
C1104 C 0.5069 0.78756 0.78645 0.0
C1105 C 0.53597 0.80444 0.79592 0.0
C1106 C 0.52591 0.81695 0.78918 0.0
C1107 C 0.55926 0.76719 0.7737 0.0
O1108 O 0.56903 0.78043 0.78503 0.0
H1109 H 0.49461 0.77509 0.78234 0.0
H1110 H 0.55126 0.80841 0.80096 0.0
O1111 O 0.50806 0.74212 0.80327 0.0
H1112 H 0.58133 0.78057 0.84788 0.0
H1113 H 0.53178 0.83263 0.78832 0.0
Cu1114 Cu 0.53928 0.75374 0.30095 0.0
N1115 N 0.51992 0.75002 0.31711 0.0
N1116 N 0.49594 0.75572 0.33221 0.0
C1117 C 0.50763 0.76121 0.31894 0.0
C1118 C 0.50115 0.7404 0.33894 0.0
C1119 C 0.51589 0.73692 0.32961 0.0
O1120 O 0.52906 0.76524 0.28157 0.0
C1121 C 0.57431 0.76416 0.32138 0.0
O1122 O 0.5675 0.74599 0.32617 0.0
H1123 H 0.50768 0.77351 0.31093 0.0
H1124 H 0.52332 0.72579 0.33191 0.0
N1125 N 0.54405 0.7305 0.29378 0.0
N1126 N 0.55918 0.7107 0.28151 0.0
C1127 C 0.56093 0.72899 0.28726 0.0
C1128 C 0.53115 0.71257 0.29227 0.0
C1129 C 0.54039 0.70036 0.28477 0.0
C1130 C 0.5345 0.76482 0.26649 0.0
O1131 O 0.54949 0.75799 0.26366 0.0
H1132 H 0.57401 0.74131 0.28638 0.0
H1133 H 0.51589 0.70879 0.29583 0.0
O1134 O 0.56405 0.77089 0.31049 0.0
H1135 H 0.49476 0.73222 0.34982 0.0
H1136 H 0.53338 0.68521 0.2814 0.0
Cu1137 Cu 0.54775 0.26677 0.28531 0.0
N1138 N 0.54008 0.26847 0.30741 0.0
N1139 N 0.52228 0.25945 0.3302 0.0
C1140 C 0.52305 0.25712 0.31329 0.0
C1141 C 0.53958 0.27283 0.33516 0.0
C1142 C 0.55055 0.27838 0.32104 0.0
O1143 O 0.52427 0.26546 0.26966 0.0
C1144 C 0.57747 0.24907 0.29362 0.0
O1145 O 0.58579 0.26683 0.29959 0.0
H1146 H 0.51193 0.24658 0.30541 0.0
H1147 H 0.5654 0.2883 0.32086 0.0
N1148 N 0.56746 0.289 0.27931 0.0
N1149 N 0.59379 0.30671 0.26603 0.0
C1150 C 0.58042 0.28906 0.26739 0.0
C1151 C 0.57252 0.30731 0.28563 0.0
C1152 C 0.58881 0.31831 0.27744 0.0
C1153 C 0.5152 0.27818 0.27267 0.0
O1154 O 0.52182 0.29022 0.28566 0.0
H1155 H 0.58005 0.27624 0.25998 0.0
H1156 H 0.56513 0.31223 0.29564 0.0
O1157 O 0.56007 0.2451 0.28606 0.0
H1158 H 0.54417 0.27792 0.34809 0.0
H1159 H 0.59664 0.3335 0.28003 0.0
H1160 H 0.2368 0.1887 0.1657 0.0
H1161 H 0.29938 0.16417 0.09096 0.0
H1162 H 0.25063 0.13407 0.16107 0.0
H1163 H 0.28236 0.21733 0.09385 0.0
H1164 H 0.28273 0.15345 0.11714 0.0
H1165 H 0.25446 0.19991 0.14003 0.0
C1166 C 0.2435 0.17902 0.15931 0.0
C1167 C 0.24214 0.16036 0.16569 0.0
C1168 C 0.28268 0.16749 0.11206 0.0
C1169 C 0.26265 0.17326 0.13618 0.0
C1170 C 0.29214 0.17362 0.097 0.0
C1171 C 0.29234 0.19173 0.08997 0.0
C1172 C 0.27327 0.1795 0.12029 0.0
C1173 C 0.28289 0.20337 0.09872 0.0
C1174 C 0.25369 0.18549 0.14465 0.0
C1175 C 0.25146 0.14866 0.15688 0.0
N1176 N 0.27375 0.19705 0.11332 0.0
N1177 N 0.26123 0.15527 0.14262 0.0
H1178 H 0.88363 0.27302 0.11161 0.0
H1179 H 0.90226 0.36975 0.05618 0.0
H1180 H 0.86708 0.32364 0.12737 0.0
H1181 H 0.92805 0.32327 0.04678 0.0
H1182 H 0.88716 0.35245 0.08131 0.0
H1183 H 0.89782 0.29049 0.08665 0.0
C1184 C 0.88313 0.28788 0.10994 0.0
C1185 C 0.87432 0.29691 0.12179 0.0
C1186 C 0.8961 0.34604 0.07374 0.0
C1187 C 0.8903 0.31695 0.09292 0.0
C1188 C 0.9046 0.35584 0.05941 0.0
C1189 C 0.91599 0.34762 0.04935 0.0
C1190 C 0.89911 0.32796 0.07793 0.0
C1191 C 0.91906 0.32985 0.05415 0.0
C1192 C 0.89114 0.29782 0.09559 0.0
C1193 C 0.87362 0.31602 0.11857 0.0
N1194 N 0.91053 0.32053 0.06802 0.0
N1195 N 0.88152 0.32542 0.10446 0.0
H1196 H 0.87096 0.86133 0.14714 0.0
H1197 H 0.85961 0.76302 0.0939 0.0
H1198 H 0.89196 0.81312 0.16422 0.0
H1199 H 0.83457 0.80758 0.07415 0.0
H1200 H 0.87134 0.78222 0.1195 0.0
H1201 H 0.85749 0.84313 0.1205 0.0
C1202 C 0.8728 0.84698 0.14534 0.0
C1203 C 0.88291 0.83894 0.15801 0.0
C1204 C 0.8633 0.78797 0.10968 0.0
C1205 C 0.86748 0.81803 0.12748 0.0
C1206 C 0.85654 0.77694 0.09488 0.0
C1207 C 0.84609 0.78363 0.08162 0.0
C1208 C 0.8598 0.80613 0.11157 0.0
C1209 C 0.84255 0.8018 0.08399 0.0
C1210 C 0.86512 0.83663 0.13009 0.0
C1211 C 0.88481 0.82028 0.15482 0.0
N1212 N 0.84946 0.81248 0.09866 0.0
N1213 N 0.87722 0.8106 0.14 0.0
H1214 H 0.17274 0.83484 0.07266 0.0
H1215 H 0.24167 0.76337 0.0723 0.0
H1216 H 0.20804 0.82519 0.11657 0.0
H1217 H 0.20119 0.76768 0.03026 0.0
H1218 H 0.22925 0.78576 0.08882 0.0
H1219 H 0.18291 0.81027 0.05686 0.0
C1220 C 0.18266 0.82758 0.07896 0.0
C1221 C 0.18957 0.83209 0.09595 0.0
C1222 C 0.22298 0.78171 0.07602 0.0
C1223 C 0.20118 0.80388 0.07799 0.0
C1224 C 0.23012 0.76898 0.06657 0.0
C1225 C 0.22253 0.7637 0.04985 0.0
C1226 C 0.20822 0.78939 0.06866 0.0
C1227 C 0.20736 0.7712 0.04314 0.0
C1228 C 0.18835 0.81346 0.06998 0.0
C1229 C 0.20218 0.82203 0.10355 0.0
N1230 N 0.20082 0.78378 0.05251 0.0
N1231 N 0.20765 0.80848 0.0945 0.0
H1232 H 0.29171 0.78669 0.89077 0.0
H1233 H 0.26978 0.80301 0.98736 0.0
H1234 H 0.2672 0.83207 0.9069 0.0
H1235 H 0.29724 0.7598 0.97126 0.0
H1236 H 0.26972 0.81465 0.9582 0.0
H1237 H 0.29444 0.77712 0.92033 0.0
C1238 C 0.28696 0.7947 0.90053 0.0
C1239 C 0.27921 0.81022 0.89631 0.0
C1240 C 0.27588 0.80271 0.96107 0.0
C1241 C 0.28217 0.79923 0.93025 0.0
C1242 C 0.27599 0.79609 0.97774 0.0
C1243 C 0.28343 0.78033 0.98177 0.0
C1244 C 0.28321 0.79346 0.94831 0.0
C1245 C 0.29129 0.77195 0.96876 0.0
C1246 C 0.28848 0.78919 0.91742 0.0
C1247 C 0.27301 0.81985 0.90951 0.0
N1248 N 0.29085 0.77853 0.95261 0.0
N1249 N 0.27463 0.8142 0.92588 0.0
H1250 H 0.24799 0.21805 0.90496 0.0
H1251 H 0.27792 0.20591 1.00319 0.0
H1252 H 0.2585 0.16571 0.92518 0.0
H1253 H 0.28546 0.26213 0.98025 0.0
H1254 H 0.26572 0.19027 0.97556 0.0
H1255 H 0.2572 0.23371 0.93311 0.0
C1256 C 0.25218 0.20983 0.91533 0.0
C1257 C 0.25254 0.19053 0.91264 0.0
C1258 C 0.26989 0.20602 0.97659 0.0
C1259 C 0.26294 0.20836 0.945 0.0
C1260 C 0.2767 0.21501 0.99244 0.0
C1261 C 0.28278 0.23545 0.99416 0.0
C1262 C 0.26891 0.21748 0.96227 0.0
C1263 C 0.28095 0.24636 0.97961 0.0
C1264 C 0.2575 0.21881 0.93138 0.0
C1265 C 0.25823 0.18066 0.92657 0.0
N1266 N 0.27424 0.23726 0.96431 0.0
N1267 N 0.2631 0.18963 0.94211 0.0
H1268 H 0.88716 0.2251 0.91907 0.0
H1269 H 0.84566 0.29228 0.97907 0.0
H1270 H 0.83444 0.20355 0.94718 0.0
H1271 H 0.8939 0.31499 0.94636 0.0
H1272 H 0.84022 0.2599 0.96638 0.0
H1273 H 0.88884 0.25831 0.92766 0.0
C1274 C 0.8758 0.22733 0.92689 0.0
C1275 C 0.86071 0.21143 0.9325 0.0
C1276 C 0.85188 0.27198 0.96184 0.0
C1277 C 0.86273 0.24948 0.9426 0.0
C1278 C 0.85501 0.29044 0.96913 0.0
C1279 C 0.87036 0.30629 0.96387 0.0
C1280 C 0.86432 0.26928 0.94931 0.0
C1281 C 0.88185 0.3032 0.95074 0.0
C1282 C 0.87682 0.24633 0.93186 0.0
C1283 C 0.84657 0.21528 0.94281 0.0
N1284 N 0.87874 0.285 0.94404 0.0
N1285 N 0.848 0.23388 0.9476 0.0
H1286 H 0.86598 0.77768 0.88896 0.0
H1287 H 0.88617 0.80025 0.98875 0.0
H1288 H 0.8938 0.83521 0.91016 0.0
H1289 H 0.84224 0.74838 0.96907 0.0
H1290 H 0.89147 0.81186 0.95982 0.0
H1291 H 0.85907 0.76547 0.9178 0.0
C1292 C 0.87056 0.78777 0.89966 0.0
C1293 C 0.88044 0.80755 0.89707 0.0
C1294 C 0.88068 0.79791 0.96178 0.0
C1295 C 0.8728 0.79358 0.93018 0.0
C1296 C 0.87778 0.79114 0.97835 0.0
C1297 C 0.86385 0.77315 0.98145 0.0
C1298 C 0.86977 0.78661 0.948 0.0
C1299 C 0.85312 0.76231 0.96732 0.0
C1300 C 0.86656 0.78079 0.91612 0.0
C1301 C 0.88595 0.81992 0.91146 0.0
N1302 N 0.85639 0.76913 0.95123 0.0
N1303 N 0.88222 0.81272 0.92733 0.0
H1304 H 0.13772 0.14314 0.24001 0.0
H1305 H 0.08795 0.22824 0.25944 0.0
H1306 H 0.14999 0.19726 0.21312 0.0
H1307 H 0.07065 0.17166 0.28252 0.0
H1308 H 0.11397 0.21885 0.24531 0.0
H1309 H 0.11681 0.15511 0.25878 0.0
C1310 C 0.13653 0.1578 0.23845 0.0
C1311 C 0.14589 0.16939 0.22523 0.0
C1312 C 0.10456 0.20851 0.25354 0.0
C1313 C 0.12146 0.18298 0.24623 0.0
C1314 C 0.0897 0.21392 0.26172 0.0
C1315 C 0.07685 0.20073 0.27218 0.0
C1316 C 0.10678 0.18975 0.25582 0.0
C1317 C 0.07989 0.18226 0.27441 0.0
C1318 C 0.12439 0.16455 0.249 0.0
C1319 C 0.14332 0.18803 0.22337 0.0
N1320 N 0.09443 0.17733 0.26628 0.0
N1321 N 0.1313 0.19419 0.23365 0.0
H1322 H 0.87923 0.18166 0.16485 0.0
H1323 H 0.8064 0.11303 0.22631 0.0
H1324 H 0.83838 0.20228 0.19314 0.0
H1325 H 0.82481 0.09014 0.18153 0.0
H1326 H 0.81977 0.14613 0.21566 0.0
H1327 H 0.86114 0.14804 0.17175 0.0
C1328 C 0.86629 0.17902 0.17235 0.0
C1329 C 0.86021 0.19464 0.17846 0.0
C1330 C 0.82071 0.13386 0.20808 0.0
C1331 C 0.8398 0.15647 0.18666 0.0
C1332 C 0.81324 0.11504 0.2142 0.0
C1333 C 0.81465 0.09895 0.20479 0.0
C1334 C 0.83005 0.1366 0.19262 0.0
C1335 C 0.8234 0.10222 0.18909 0.0
C1336 C 0.85597 0.1599 0.17624 0.0
C1337 C 0.84341 0.19057 0.18813 0.0
N1338 N 0.83105 0.12073 0.18358 0.0
N1339 N 0.83393 0.17186 0.19217 0.0
H1340 H 0.95183 0.85821 0.18808 0.0
H1341 H 0.98851 0.80346 0.26648 0.0
H1342 H 0.91705 0.84009 0.23169 0.0
H1343 H 0.02866 0.8383 0.23154 0.0
H1344 H 0.9613 0.81425 0.25275 0.0
H1345 H 0.97936 0.84875 0.20263 0.0
C1346 C 0.95 0.85231 0.20074 0.0
C1347 C 0.93208 0.85005 0.20868 0.0
C1348 C 0.97609 0.8196 0.24815 0.0
C1349 C 0.96354 0.8389 0.22538 0.0
C1350 C 0.99161 0.81335 0.25593 0.0
C1351 C 1.01098 0.82002 0.25025 0.0
C1352 C 0.97982 0.83236 0.23434 0.0
C1353 C 1.01409 0.83295 0.23654 0.0
C1354 C 0.96575 0.84695 0.20907 0.0
C1355 C 0.93064 0.84233 0.22515 0.0
N1356 N 0.99871 0.83856 0.22901 0.0
N1357 N 0.94605 0.8369 0.23287 0.0
H1358 H 0.17184 0.90309 0.1812 0.0
H1359 H 0.23748 0.93009 0.26822 0.0
H1360 H 0.1931 0.86072 0.20934 0.0
H1361 H 0.19372 0.95912 0.25255 0.0
H1362 H 0.22533 0.90673 0.24451 0.0
H1363 H 0.18411 0.92649 0.20496 0.0
C1364 C 0.1793 0.89884 0.19231 0.0
C1365 C 0.18151 0.88003 0.19338 0.0
C1366 C 0.21832 0.91815 0.24632 0.0
C1367 C 0.19552 0.90654 0.22043 0.0
C1368 C 0.22526 0.93145 0.25979 0.0
C1369 C 0.21649 0.94643 0.26233 0.0
C1370 C 0.20281 0.92012 0.2351 0.0
C1371 C 0.20068 0.94762 0.2511 0.0
C1372 C 0.18611 0.91208 0.20588 0.0
C1373 C 0.19107 0.8751 0.2081 0.0
N1374 N 0.19445 0.93474 0.23785 0.0
N1375 N 0.19783 0.88831 0.22102 0.0
H1376 H 0.17463 0.84069 0.84435 0.0
H1377 H 0.10295 0.73824 0.81039 0.0
H1378 H 0.19676 0.79242 0.83173 0.0
H1379 H 0.09022 0.79298 0.80136 0.0
H1380 H 0.13506 0.75601 0.82446 0.0
H1381 H 0.14102 0.82105 0.83527 0.0
C1382 C 0.17243 0.8259 0.83982 0.0
C1383 C 0.18865 0.81834 0.83848 0.0
C1384 C 0.12516 0.76407 0.81947 0.0
C1385 C 0.15016 0.79575 0.82835 0.0
C1386 C 0.10685 0.75398 0.81148 0.0
C1387 C 0.09398 0.7642 0.80461 0.0
C1388 C 0.13044 0.78446 0.82087 0.0
C1389 C 0.09978 0.78457 0.80635 0.0
C1390 C 0.15324 0.81473 0.83467 0.0
C1391 C 0.18476 0.79887 0.833 0.0
N1392 N 0.11759 0.79405 0.81435 0.0
N1393 N 0.1659 0.78828 0.828 0.0
H1394 H 0.26526 0.13102 0.8885 0.0
H1395 H 0.30871 0.09934 0.80445 0.0
H1396 H 0.26427 0.15946 0.84037 0.0
H1397 H 0.29084 0.06076 0.84643 0.0
H1398 H 0.2987 0.12461 0.81953 0.0
H1399 H 0.28069 0.10833 0.87529 0.0
C1400 C 0.26857 0.13269 0.87523 0.0
C1401 C 0.26338 0.14715 0.86553 0.0
C1402 C 0.29716 0.11067 0.82551 0.0
C1403 C 0.28108 0.12121 0.8503 0.0
C1404 C 0.30302 0.09626 0.81696 0.0
C1405 C 0.3006 0.07779 0.82413 0.0
C1406 C 0.28902 0.10678 0.84148 0.0
C1407 C 0.29295 0.07471 0.84035 0.0
C1408 C 0.27725 0.11965 0.86766 0.0
C1409 C 0.26785 0.14846 0.84831 0.0
N1410 N 0.28742 0.08898 0.84844 0.0
N1411 N 0.27641 0.13571 0.84128 0.0
H1412 H 0.90303 0.20919 0.86683 0.0
H1413 H 0.99313 0.21821 0.80664 0.0
H1414 H 0.91742 0.15898 0.84714 0.0
H1415 H 0.98667 0.26554 0.83747 0.0
H1416 H 0.96355 0.19647 0.81888 0.0
H1417 H 0.93191 0.23032 0.85373 0.0
C1418 C 0.91231 0.20257 0.85984 0.0
C1419 C 0.90778 0.18221 0.85821 0.0
C1420 C 0.96867 0.21162 0.82293 0.0
C1421 C 0.94079 0.20645 0.84286 0.0
C1422 C 0.98549 0.22403 0.81593 0.0
C1423 C 0.99242 0.24371 0.82107 0.0
C1424 C 0.95862 0.21903 0.835 0.0
C1425 C 0.98195 0.25047 0.83317 0.0
C1426 C 0.92876 0.21467 0.85227 0.0
C1427 C 0.92015 0.17457 0.84861 0.0
N1428 N 0.96559 0.23819 0.83967 0.0
N1429 N 0.93609 0.18668 0.8413 0.0
H1430 H 0.89568 0.91797 0.81671 0.0
H1431 H 0.78525 0.91713 0.78473 0.0
H1432 H 0.84285 0.87305 0.82899 0.0
H1433 H 0.83723 0.96423 0.77449 0.0
H1434 H 0.80658 0.89909 0.79783 0.0
H1435 H 0.87521 0.93299 0.79831 0.0
C1436 C 0.87977 0.91111 0.8154 0.0
C1437 C 0.871 0.89427 0.82465 0.0
C1438 C 0.81342 0.91328 0.79262 0.0
C1439 C 0.84734 0.91157 0.80344 0.0
C1440 C 0.80122 0.92367 0.78508 0.0
C1441 C 0.80938 0.9424 0.77855 0.0
C1442 C 0.83414 0.92158 0.79383 0.0
C1443 C 0.83023 0.94988 0.77932 0.0
C1444 C 0.86808 0.91974 0.80486 0.0
C1445 C 0.85033 0.88594 0.82214 0.0
N1446 N 0.84186 0.93955 0.78697 0.0
N1447 N 0.83923 0.89477 0.81196 0.0
H1448 H 0.22394 0.12945 0.24135 0.0
H1449 H 0.27231 0.04044 0.24933 0.0
H1450 H 0.24389 0.1047 0.19827 0.0
H1451 H 0.24828 0.06395 0.29072 0.0
H1452 H 0.26474 0.06532 0.23061 0.0
H1453 H 0.23483 0.10661 0.25979 0.0
C1454 C 0.23055 0.1192 0.23573 0.0
C1455 C 0.23296 0.11912 0.21817 0.0
C1456 C 0.26128 0.06507 0.24384 0.0
C1457 C 0.24575 0.09285 0.23936 0.0
C1458 C 0.26573 0.05095 0.25453 0.0
C1459 C 0.26082 0.04999 0.2716 0.0
C1460 C 0.25198 0.07834 0.25032 0.0
C1461 C 0.25217 0.06395 0.27763 0.0
C1462 C 0.23691 0.1062 0.2463 0.0
C1463 C 0.24196 0.10558 0.21174 0.0
N1464 N 0.24798 0.07739 0.26704 0.0
N1465 N 0.24796 0.093 0.22229 0.0
H1466 H 0.26351 0.88033 0.81452 0.0
H1467 H 0.23298 0.97954 0.80753 0.0
H1468 H 0.21312 0.88945 0.83846 0.0
H1469 H 0.28115 0.96852 0.78154 0.0
H1470 H 0.22446 0.94618 0.81811 0.0
H1471 H 0.26989 0.91261 0.80206 0.0
C1472 C 0.25388 0.8892 0.81725 0.0
C1473 C 0.23781 0.88224 0.82758 0.0
C1474 C 0.23683 0.95105 0.81001 0.0
C1475 C 0.24484 0.91911 0.8132 0.0
C1476 C 0.24159 0.97004 0.80387 0.0
C1477 C 0.25793 0.97688 0.79379 0.0
C1478 C 0.2485 0.93887 0.80603 0.0
C1479 C 0.2687 0.96398 0.78956 0.0
C1480 C 0.25741 0.90756 0.81002 0.0
C1481 C 0.22559 0.89421 0.83045 0.0
N1482 N 0.26387 0.94566 0.79578 0.0
N1483 N 0.22938 0.91208 0.82333 0.0
H1484 H 0.16713 0.19629 0.81994 0.0
H1485 H 0.10647 0.2661 0.85446 0.0
H1486 H 0.16791 0.21086 0.87303 0.0
H1487 H 0.10666 0.2501 0.80172 0.0
H1488 H 0.1313 0.24886 0.86152 0.0
H1489 H 0.14795 0.21907 0.81303 0.0
C1490 C 0.16357 0.20464 0.83012 0.0
C1491 C 0.16915 0.20174 0.84707 0.0
C1492 C 0.12598 0.24923 0.84839 0.0
C1493 C 0.14662 0.22759 0.83932 0.0
C1494 C 0.11182 0.25915 0.84432 0.0
C1495 C 0.10422 0.25946 0.82745 0.0
C1496 C 0.13269 0.23957 0.83551 0.0
C1497 C 0.1117 0.25 0.81493 0.0
C1498 C 0.15249 0.21757 0.82619 0.0
C1499 C 0.16404 0.21282 0.85979 0.0
N1500 N 0.12539 0.24044 0.81922 0.0
N1501 N 0.15285 0.2251 0.85568 0.0
H1502 H 0.84702 0.10346 0.87982 0.0
H1503 H 0.7998 0.05287 0.79065 0.0
H1504 H 0.84925 0.13426 0.83252 0.0
H1505 H 0.79498 0.02177 0.83785 0.0
H1506 H 0.81707 0.08298 0.8061 0.0
H1507 H 0.82706 0.07362 0.86506 0.0
C1508 C 0.8432 0.10399 0.86636 0.0
C1509 C 0.84989 0.1214 0.85739 0.0
C1510 C 0.81221 0.06961 0.81313 0.0
C1511 C 0.8272 0.08723 0.84039 0.0
C1512 C 0.80243 0.05238 0.80429 0.0
C1513 C 0.79615 0.03473 0.81296 0.0
C1514 C 0.81585 0.06927 0.83081 0.0
C1515 C 0.79953 0.03506 0.8307 0.0
C1516 C 0.83187 0.08692 0.85793 0.0
C1517 C 0.8447 0.12113 0.83991 0.0
N1518 N 0.80929 0.05204 0.83904 0.0
N1519 N 0.83371 0.10433 0.83199 0.0
H1520 H 0.89674 0.77322 0.848 0.0
H1521 H 1.00007 0.78679 0.80406 0.0
H1522 H 0.9376 0.82929 0.83787 0.0
H1523 H 0.96104 0.73077 0.81696 0.0
H1524 H 0.97645 0.80244 0.81475 0.0
H1525 H 0.91903 0.75739 0.83508 0.0
C1526 C 0.91034 0.78224 0.843 0.0
C1527 C 0.91524 0.8027 0.84414 0.0
C1528 C 0.97301 0.78671 0.81522 0.0
C1529 C 0.94095 0.78453 0.82921 0.0
C1530 C 0.9865 0.77771 0.80901 0.0
C1531 C 0.98267 0.75733 0.80955 0.0
C1532 C 0.95542 0.77534 0.82204 0.0
C1533 C 0.96485 0.74649 0.81643 0.0
C1534 C 0.92307 0.77316 0.83559 0.0
C1535 C 0.93299 0.81353 0.83715 0.0
N1536 N 0.95194 0.75561 0.82237 0.0
N1537 N 0.9452 0.80434 0.8301 0.0
H1538 H 0.8542 0.91472 0.2539 0.0
H1539 H 0.85455 0.01836 0.21533 0.0
H1540 H 0.86966 0.93153 0.20278 0.0
H1541 H 0.83141 0.99816 0.26373 0.0
H1542 H 0.86513 0.98896 0.21239 0.0
H1543 H 0.85089 0.94716 0.25937 0.0
C1544 C 0.8571 0.9253 0.24384 0.0
C1545 C 0.86195 0.92019 0.22774 0.0
C1546 C 0.85796 0.99103 0.22375 0.0
C1547 C 0.85819 0.95765 0.234 0.0
C1548 C 0.85195 0.0079 0.2255 0.0
C1549 C 0.84194 0.01082 0.23979 0.0
C1550 C 0.85399 0.9768 0.23636 0.0
C1551 C 0.83908 0.99665 0.25251 0.0
C1552 C 0.8552 0.94387 0.247 0.0
C1553 C 0.86591 0.93474 0.21537 0.0
N1554 N 0.8449 0.98023 0.25042 0.0
N1555 N 0.86374 0.9527 0.21869 0.0
H1556 H 0.1542 0.80659 0.19477 0.0
H1557 H 0.03996 0.77445 0.20641 0.0
H1558 H 0.11203 0.82009 0.15852 0.0
H1559 H 0.08141 0.75068 0.23519 0.0
H1560 H 0.06455 0.78559 0.18516 0.0
H1561 H 0.12718 0.78108 0.20633 0.0
C1562 C 0.13925 0.80385 0.18905 0.0
C1563 C 0.1352 0.81552 0.17587 0.0
C1564 C 0.06809 0.77749 0.1959 0.0
C1565 C 0.10412 0.78675 0.18921 0.0
C1566 C 0.05399 0.77105 0.20803 0.0
C1567 C 0.05887 0.76218 0.22288 0.0
C1568 C 0.08721 0.7752 0.19879 0.0
C1569 C 0.0772 0.75794 0.22416 0.0
C1570 C 0.12381 0.78928 0.1956 0.0
C1571 C 0.11567 0.81139 0.16876 0.0
N1572 N 0.09088 0.76492 0.2125 0.0
N1573 N 0.10074 0.79761 0.17578 0.0
H1574 H 0.93363 0.2232 0.17552 0.0
H1575 H 0.99595 0.27051 0.25978 0.0
H1576 H 0.92113 0.26942 0.2037 0.0
H1577 H 1.01396 0.23171 0.22647 0.0
H1578 H 0.9705 0.27287 0.2381 0.0
H1579 H 0.96506 0.22862 0.19241 0.0
C1580 C 0.93772 0.23473 0.18509 0.0
C1581 C 0.92475 0.24579 0.18833 0.0
C1582 C 0.9802 0.26406 0.23544 0.0
C1583 C 0.96051 0.25188 0.20794 0.0
C1584 C 0.99475 0.26269 0.24783 0.0
C1585 C 1.00697 0.25069 0.24505 0.0
C1586 C 0.97771 0.2532 0.22022 0.0
C1587 C 1.00479 0.24101 0.22926 0.0
C1588 C 0.95564 0.23783 0.19474 0.0
C1589 C 0.93076 0.26062 0.20079 0.0
N1590 N 0.99027 0.24226 0.21755 0.0
N1591 N 0.94807 0.26302 0.21035 0.0
H1592 H 0.20602 0.66575 0.62563 0.0
H1593 H 0.30702 0.73375 0.5901 0.0
H1594 H 0.26302 0.68217 0.65366 0.0
H1595 H 0.25212 0.71596 0.55921 0.0
H1596 H 0.28947 0.71845 0.61459 0.0
H1597 H 0.22093 0.68686 0.60239 0.0
C1598 C 0.2216 0.67397 0.62702 0.0
C1599 C 0.23329 0.67204 0.64166 0.0
C1600 C 0.28108 0.71803 0.60257 0.0
C1601 C 0.25048 0.69621 0.61499 0.0
C1602 C 0.2911 0.7269 0.58859 0.0
C1603 C 0.28099 0.72618 0.57263 0.0
C1604 C 0.26072 0.70797 0.60066 0.0
C1605 C 0.26041 0.71702 0.57135 0.0
C1606 C 0.23012 0.68596 0.61369 0.0
C1607 C 0.25345 0.68292 0.64258 0.0
N1608 N 0.25095 0.70804 0.58515 0.0
N1609 N 0.26135 0.69441 0.62947 0.0
H1610 H 0.84929 0.75508 0.64035 0.0
H1611 H 0.81614 0.82285 0.5726 0.0
H1612 H 0.82966 0.80425 0.6552 0.0
H1613 H 0.84986 0.78323 0.56101 0.0
H1614 H 0.82275 0.81831 0.60297 0.0
H1615 H 0.85125 0.76678 0.61145 0.0
C1616 C 0.84572 0.76854 0.63767 0.0
C1617 C 0.83926 0.77863 0.65038 0.0
C1618 C 0.82897 0.81089 0.59376 0.0
C1619 C 0.84091 0.79187 0.61687 0.0
C1620 C 0.82527 0.81353 0.57641 0.0
C1621 C 0.83217 0.80315 0.56424 0.0
C1622 C 0.83952 0.79769 0.59887 0.0
C1623 C 0.84395 0.79129 0.56993 0.0
C1624 C 0.84672 0.77517 0.62104 0.0
C1625 C 0.83434 0.79574 0.64582 0.0
N1626 N 0.847 0.78868 0.5868 0.0
N1627 N 0.83506 0.8017 0.6294 0.0
H1628 H 0.8484 0.32809 0.6698 0.0
H1629 H 0.88852 0.29037 0.58668 0.0
H1630 H 0.91061 0.34128 0.65995 0.0
H1631 H 0.82628 0.27608 0.59677 0.0
H1632 H 0.89672 0.30955 0.61308 0.0
H1633 H 0.83991 0.31014 0.64267 0.0
C1634 C 0.8603 0.32745 0.66188 0.0
C1635 C 0.88031 0.33631 0.66733 0.0
C1636 C 0.88125 0.30224 0.60952 0.0
C1637 C 0.87061 0.31534 0.63614 0.0
C1638 C 0.87652 0.29112 0.59441 0.0
C1639 C 0.8566 0.2814 0.58929 0.0
C1640 C 0.86602 0.30377 0.61978 0.0
C1641 C 0.84182 0.28337 0.59993 0.0
C1642 C 0.85542 0.31701 0.64641 0.0
C1643 C 0.895 0.33455 0.65651 0.0
N1644 N 0.84682 0.29425 0.61459 0.0
N1645 N 0.88987 0.3243 0.64155 0.0
H1646 H 0.23568 0.32932 0.62478 0.0
H1647 H 0.31259 0.27769 0.5891 0.0
H1648 H 0.22128 0.26775 0.61344 0.0
H1649 H 0.32201 0.3399 0.58802 0.0
H1650 H 0.28123 0.27392 0.6024 0.0
H1651 H 0.26942 0.33348 0.61561 0.0
C1652 C 0.23971 0.31666 0.62055 0.0
C1653 C 0.22566 0.29818 0.61976 0.0
C1654 C 0.29018 0.28842 0.59932 0.0
C1655 C 0.26409 0.30283 0.60924 0.0
C1656 C 0.30818 0.2906 0.59183 0.0
C1657 C 0.31989 0.30914 0.58732 0.0
C1658 C 0.28384 0.3049 0.60245 0.0
C1659 C 0.31327 0.32532 0.59103 0.0
C1660 C 0.25889 0.31906 0.61523 0.0
C1661 C 0.23159 0.28228 0.61405 0.0
N1662 N 0.29566 0.32283 0.59835 0.0
N1663 N 0.25033 0.28498 0.609 0.0
H1664 H 0.28722 0.29123 0.42432 0.0
H1665 H 0.31547 0.35609 0.50985 0.0
H1666 H 0.25399 0.32962 0.44021 0.0
H1667 H 0.34707 0.31632 0.49367 0.0
H1668 H 0.29357 0.34783 0.48397 0.0
H1669 H 0.31005 0.30144 0.44926 0.0
C1670 C 0.28469 0.30178 0.4331 0.0
C1671 C 0.26858 0.30947 0.43024 0.0
C1672 C 0.30534 0.34097 0.48609 0.0
C1673 C 0.29482 0.32139 0.45882 0.0
C1674 C 0.31785 0.34568 0.50085 0.0
C1675 C 0.3331 0.33684 0.50397 0.0
C1676 C 0.30812 0.32734 0.47438 0.0
C1677 C 0.33549 0.32347 0.49185 0.0
C1678 C 0.2978 0.30769 0.44731 0.0
C1679 C 0.26629 0.32341 0.44187 0.0
N1680 N 0.32312 0.31912 0.47765 0.0
N1681 N 0.27921 0.32886 0.4557 0.0
H1682 H 0.25003 0.69717 0.39242 0.0
H1683 H 0.30125 0.677 0.48176 0.0
H1684 H 0.26147 0.64263 0.4051 0.0
H1685 H 0.29153 0.73234 0.46923 0.0
H1686 H 0.28677 0.66436 0.4537 0.0
H1687 H 0.26476 0.71032 0.42046 0.0
C1688 C 0.25559 0.68792 0.40106 0.0
C1689 C 0.25457 0.66875 0.3962 0.0
C1690 C 0.28779 0.67928 0.45708 0.0
C1691 C 0.27161 0.68381 0.42845 0.0
C1692 C 0.29619 0.68658 0.47315 0.0
C1693 C 0.29769 0.70584 0.47808 0.0
C1694 C 0.28075 0.69125 0.44568 0.0
C1695 C 0.29052 0.71735 0.46624 0.0
C1696 C 0.2641 0.69549 0.41707 0.0
C1697 C 0.26222 0.65759 0.40802 0.0
N1698 N 0.28241 0.7099 0.45068 0.0
N1699 N 0.27034 0.66525 0.42349 0.0
H1700 H 0.90512 0.6679 0.46291 0.0
H1701 H 0.83281 0.73583 0.46576 0.0
H1702 H 0.86735 0.67492 0.41966 0.0
H1703 H 0.85385 0.71083 0.51019 0.0
H1704 H 0.85035 0.71882 0.44795 0.0
H1705 H 0.89135 0.68896 0.4797 0.0
C1706 C 0.89396 0.67387 0.45691 0.0
C1707 C 0.88722 0.66936 0.43986 0.0
C1708 C 0.85116 0.71715 0.46161 0.0
C1709 C 0.87165 0.69381 0.459 0.0
C1710 C 0.84126 0.7269 0.47174 0.0
C1711 C 0.84175 0.72455 0.48942 0.0
C1712 C 0.86187 0.70526 0.46928 0.0
C1713 C 0.85283 0.71275 0.49658 0.0
C1714 C 0.88618 0.68596 0.4665 0.0
C1715 C 0.87313 0.67804 0.43269 0.0
N1716 N 0.86246 0.70357 0.4865 0.0
N1717 N 0.86574 0.68977 0.44232 0.0
H1718 H 0.82752 0.29893 0.40636 0.0
H1719 H 0.85655 0.30568 0.50548 0.0
H1720 H 0.88679 0.30389 0.42728 0.0
H1721 H 0.79975 0.26727 0.48704 0.0
H1722 H 0.86571 0.31214 0.47625 0.0
H1723 H 0.81519 0.29309 0.43521 0.0
C1724 C 0.83789 0.2987 0.41701 0.0
C1725 C 0.85819 0.30174 0.41443 0.0
C1726 C 0.85116 0.30245 0.47859 0.0
C1727 C 0.84433 0.29571 0.44734 0.0
C1728 C 0.84579 0.29883 0.49532 0.0
C1729 C 0.82735 0.28575 0.49887 0.0
C1730 C 0.83793 0.29324 0.46511 0.0
C1731 C 0.81411 0.27746 0.48497 0.0
C1732 C 0.83085 0.29536 0.4334 0.0
C1733 C 0.87101 0.3014 0.42866 0.0
N1734 N 0.81967 0.2813 0.46868 0.0
N1735 N 0.86393 0.29867 0.44447 0.0
H1736 H 0.11194 0.65192 0.67514 0.0
H1737 H 0.10015 0.71496 0.75586 0.0
H1738 H 0.15814 0.66952 0.71518 0.0
H1739 H 0.05147 0.68132 0.72273 0.0
H1740 H 0.12338 0.70347 0.73924 0.0
H1741 H 0.09181 0.66841 0.6901 0.0
C1742 C 0.11798 0.65951 0.68701 0.0
C1743 C 0.13669 0.65912 0.694 0.0
C1744 C 0.10761 0.69867 0.73563 0.0
C1745 C 0.11349 0.67803 0.71139 0.0
C1746 C 0.09437 0.70526 0.74506 0.0
C1747 C 0.07379 0.69897 0.74078 0.0
C1748 C 0.10026 0.68599 0.72163 0.0
C1749 C 0.06712 0.68632 0.72669 0.0
C1750 C 0.10641 0.66886 0.6956 0.0
C1751 C 0.14382 0.66947 0.70932 0.0
N1752 N 0.08027 0.68033 0.71765 0.0
N1753 N 0.13213 0.67835 0.71761 0.0
H1754 H 0.83269 0.67901 0.69488 0.0
H1755 H 0.82967 0.60881 0.77395 0.0
H1756 H 0.87193 0.69469 0.73995 0.0
H1757 H 0.80767 0.58665 0.72338 0.0
H1758 H 0.84117 0.64138 0.76263 0.0
H1759 H 0.81919 0.64611 0.70616 0.0
C1760 C 0.83835 0.67554 0.70719 0.0
C1761 C 0.85349 0.6895 0.71649 0.0
C1762 C 0.83385 0.62936 0.75401 0.0
C1763 C 0.83813 0.65213 0.72945 0.0
C1764 C 0.82732 0.61061 0.76045 0.0
C1765 C 0.81785 0.59464 0.74962 0.0
C1766 C 0.83072 0.63239 0.73663 0.0
C1767 C 0.81481 0.59836 0.73229 0.0
C1768 C 0.83074 0.65678 0.71356 0.0
C1769 C 0.86041 0.68427 0.73231 0.0
N1770 N 0.82123 0.61684 0.72633 0.0
N1771 N 0.85263 0.66604 0.73831 0.0
H1772 H 0.91287 0.31541 0.71432 0.0
H1773 H 1.00871 0.35004 0.77952 0.0
H1774 H 0.93534 0.37445 0.73375 0.0
H1775 H 0.98406 0.2913 0.75979 0.0
H1776 H 0.98207 0.35948 0.76352 0.0
H1777 H 0.93875 0.30661 0.73149 0.0
C1778 C 0.92335 0.32661 0.72211 0.0
C1779 C 0.92202 0.34581 0.72234 0.0
C1780 C 0.98248 0.34451 0.76278 0.0
C1781 C 0.95183 0.33565 0.74242 0.0
C1782 C 0.99776 0.3391 0.77187 0.0
C1783 C 0.99877 0.31978 0.77111 0.0
C1784 C 0.96807 0.33055 0.75276 0.0
C1785 C 0.98391 0.30627 0.76107 0.0
C1786 C 0.93811 0.32151 0.73205 0.0
C1787 C 0.93577 0.35948 0.73314 0.0
N1788 N 0.96932 0.31192 0.75231 0.0
N1789 N 0.95015 0.35418 0.74266 0.0
H1790 H 0.20434 0.37082 0.66021 0.0
H1791 H 0.25212 0.43587 0.74305 0.0
H1792 H 0.19286 0.3509 0.7114 0.0
H1793 H 0.27352 0.44876 0.69284 0.0
H1794 H 0.22742 0.40644 0.73144 0.0
H1795 H 0.22717 0.40119 0.67177 0.0
C1796 C 0.20665 0.37276 0.67387 0.0
C1797 C 0.19668 0.35818 0.68482 0.0
C1798 C 0.23751 0.41576 0.72298 0.0
C1799 C 0.22259 0.39313 0.69815 0.0
C1800 C 0.25155 0.43258 0.72959 0.0
C1801 C 0.26496 0.44474 0.71892 0.0
C1802 C 0.23678 0.41118 0.70557 0.0
C1803 C 0.26357 0.43975 0.70157 0.0
C1804 C 0.21961 0.39018 0.68047 0.0
C1805 C 0.19999 0.36179 0.70244 0.0
N1806 N 0.24975 0.42338 0.69545 0.0
N1807 N 0.21266 0.37887 0.70855 0.0
H1808 H 0.18361 0.33365 0.33204 0.0
H1809 H 0.07495 0.26746 0.35164 0.0
H1810 H 0.16554 0.31444 0.38211 0.0
H1811 H 0.09033 0.28981 0.3018 0.0
H1812 H 0.10737 0.28706 0.36324 0.0
H1813 H 0.14903 0.3204 0.32097 0.0
C1814 C 0.17233 0.32691 0.34075 0.0
C1815 C 0.17751 0.32495 0.358 0.0
C1816 C 0.10366 0.28786 0.34979 0.0
C1817 C 0.138 0.30956 0.34539 0.0
C1818 C 0.08512 0.27663 0.34314 0.0
C1819 C 0.07999 0.27686 0.32569 0.0
C1820 C 0.11737 0.29929 0.3389 0.0
C1821 C 0.09371 0.28917 0.31533 0.0
C1822 C 0.15261 0.31926 0.33441 0.0
C1823 C 0.1623 0.31594 0.36867 0.0
N1824 N 0.11189 0.29974 0.32206 0.0
N1825 N 0.1433 0.30846 0.36217 0.0
H1826 H 0.24557 0.62895 0.32121 0.0
H1827 H 0.30091 0.54699 0.34016 0.0
H1828 H 0.26013 0.61071 0.37127 0.0
H1829 H 0.2842 0.56027 0.28912 0.0
H1830 H 0.28422 0.56934 0.35125 0.0
H1831 H 0.25809 0.60362 0.30881 0.0
C1832 C 0.25132 0.61964 0.32963 0.0
C1833 C 0.25193 0.62226 0.3474 0.0
C1834 C 0.28394 0.56734 0.33761 0.0
C1835 C 0.26634 0.59312 0.33318 0.0
C1836 C 0.29344 0.55445 0.33125 0.0
C1837 C 0.29395 0.55167 0.31367 0.0
C1838 C 0.27497 0.57796 0.32638 0.0
C1839 C 0.284 0.5618 0.30276 0.0
C1840 C 0.25851 0.60518 0.3225 0.0
C1841 C 0.2597 0.60971 0.35755 0.0
N1842 N 0.2751 0.57468 0.30929 0.0
N1843 N 0.26657 0.59585 0.35033 0.0
H1844 H 0.95553 0.68111 0.37247 0.0
H1845 H 0.99074 0.73081 0.28558 0.0
H1846 H 0.91424 0.67998 0.32945 0.0
H1847 H 0.02168 0.7527 0.33362 0.0
H1848 H 0.96358 0.70962 0.30096 0.0
H1849 H 0.98098 0.7057 0.35824 0.0
C1850 C 0.95167 0.68621 0.36017 0.0
C1851 C 0.9327 0.67824 0.3521 0.0
C1852 C 0.97628 0.71917 0.3081 0.0
C1853 C 0.962 0.70595 0.33557 0.0
C1854 C 0.99181 0.73114 0.29935 0.0
C1855 C 1.00847 0.74347 0.30835 0.0
C1856 C 0.97764 0.71928 0.32595 0.0
C1857 C 1.00907 0.74344 0.32619 0.0
C1858 C 0.96627 0.70015 0.35201 0.0
C1859 C 0.92877 0.68527 0.336 0.0
N1860 N 0.99395 0.73137 0.33442 0.0
N1861 N 0.94336 0.69853 0.32818 0.0
H1862 H 0.8518 0.37707 0.31874 0.0
H1863 H 0.76829 0.43032 0.33362 0.0
H1864 H 0.8267 0.37817 0.36718 0.0
H1865 H 0.79387 0.42747 0.28555 0.0
H1866 H 0.78653 0.40844 0.3456 0.0
H1867 H 0.82761 0.39221 0.30581 0.0
C1868 C 0.84083 0.38013 0.32656 0.0
C1869 C 0.84112 0.37628 0.344 0.0
C1870 C 0.78802 0.41249 0.3324 0.0
C1871 C 0.81367 0.39422 0.32942 0.0
C1872 C 0.77752 0.42494 0.32551 0.0
C1873 C 0.77967 0.431 0.30856 0.0
C1874 C 0.80074 0.40597 0.32227 0.0
C1875 C 0.79202 0.42359 0.29875 0.0
C1876 C 0.8271 0.38891 0.31922 0.0
C1877 C 0.82678 0.38074 0.35364 0.0
N1878 N 0.80211 0.41162 0.30576 0.0
N1879 N 0.81376 0.3897 0.34627 0.0
H1880 H 0.26846 0.63819 0.68125 0.0
H1881 H 0.25827 0.53056 0.716 0.0
H1882 H 0.21254 0.59296 0.68233 0.0
H1883 H 0.3145 0.57068 0.70426 0.0
H1884 H 0.24144 0.55431 0.70583 0.0
H1885 H 0.28572 0.61469 0.69136 0.0
C1886 C 0.25976 0.62336 0.68354 0.0
C1887 C 0.23888 0.61776 0.68097 0.0
C1888 C 0.25747 0.55794 0.70546 0.0
C1889 C 0.25868 0.59071 0.69286 0.0
C1890 C 0.26712 0.54439 0.71137 0.0
C1891 C 0.28789 0.54854 0.71101 0.0
C1892 C 0.26861 0.57596 0.69925 0.0
C1893 C 0.29848 0.5667 0.70463 0.0
C1894 C 0.26966 0.60995 0.6894 0.0
C1895 C 0.22854 0.59828 0.68444 0.0
N1896 N 0.28876 0.57973 0.69908 0.0
N1897 N 0.2385 0.58558 0.69022 0.0
H1898 H 0.2355 0.36779 0.33333 0.0
H1899 H 0.31855 0.46775 0.35847 0.0
H1900 H 0.26089 0.38112 0.38457 0.0
H1901 H 0.3009 0.44703 0.30693 0.0
H1902 H 0.29764 0.43661 0.36875 0.0
H1903 H 0.25881 0.39769 0.3238 0.0
C1904 C 0.24593 0.3771 0.34259 0.0
C1905 C 0.24619 0.37203 0.35977 0.0
C1906 C 0.29847 0.4389 0.35519 0.0
C1907 C 0.27311 0.40627 0.34895 0.0
C1908 C 0.31048 0.45661 0.34933 0.0
C1909 C 0.31124 0.46013 0.33181 0.0
C1910 C 0.28716 0.4247 0.34344 0.0
C1911 C 0.30038 0.4452 0.32054 0.0
C1912 C 0.25936 0.3941 0.33714 0.0
C1913 C 0.26027 0.38447 0.37119 0.0
N1914 N 0.28871 0.42825 0.32653 0.0
N1915 N 0.27312 0.4011 0.36559 0.0
H1916 H 0.15808 0.67405 0.3084 0.0
H1917 H 0.12152 0.76697 0.3308 0.0
H1918 H 0.17364 0.70491 0.35639 0.0
H1919 H 0.1055 0.7337 0.2839 0.0
H1920 H 0.14298 0.74668 0.33963 0.0
H1921 H 0.14177 0.69817 0.29835 0.0
C1922 C 0.15841 0.68621 0.3167 0.0
C1923 C 0.16734 0.68753 0.33322 0.0
C1924 C 0.13482 0.74389 0.32738 0.0
C1925 C 0.14809 0.71511 0.32194 0.0
C1926 C 0.12257 0.75554 0.32228 0.0
C1927 C 0.11145 0.75206 0.30657 0.0
C1928 C 0.1361 0.72863 0.31671 0.0
C1929 C 0.11341 0.73682 0.29621 0.0
C1930 C 0.14894 0.69992 0.31101 0.0
C1931 C 0.16714 0.70348 0.3435 0.0
N1932 N 0.12539 0.72574 0.30146 0.0
N1933 N 0.15748 0.71654 0.33777 0.0
H1934 H 0.85379 0.60908 0.35926 0.0
H1935 H 0.84092 0.55257 0.2703 0.0
H1936 H 0.90271 0.61475 0.32692 0.0
H1937 H 0.80109 0.53395 0.3108 0.0
H1938 H 0.86255 0.57789 0.28941 0.0
H1939 H 0.83299 0.58358 0.34021 0.0
C1940 C 0.86024 0.60487 0.34825 0.0
C1941 C 0.88008 0.61411 0.34474 0.0
C1942 C 0.84909 0.56819 0.29407 0.0
C1943 C 0.85614 0.58519 0.32265 0.0
C1944 C 0.83673 0.55382 0.28318 0.0
C1945 C 0.81922 0.54113 0.28898 0.0
C1946 C 0.8437 0.57 0.31076 0.0
C1947 C 0.8145 0.54335 0.30579 0.0
C1948 C 0.8483 0.59038 0.33732 0.0
C1949 C 0.88742 0.60829 0.33002 0.0
N1950 N 0.82661 0.55756 0.31605 0.0
N1951 N 0.87543 0.59425 0.31948 0.0
H1952 H 0.91412 0.28481 0.3929 0.0
H1953 H 0.96593 0.26403 0.30966 0.0
H1954 H 0.89424 0.2954 0.34191 0.0
H1955 H 0.97608 0.24088 0.35877 0.0
H1956 H 0.94113 0.27745 0.32161 0.0
H1957 H 0.9378 0.26989 0.38102 0.0
C1958 C 0.91451 0.28386 0.37922 0.0
C1959 C 0.90206 0.29158 0.36847 0.0
C1960 C 0.94874 0.26939 0.32977 0.0
C1961 C 0.92968 0.27478 0.35473 0.0
C1962 C 0.96303 0.26182 0.32297 0.0
C1963 C 0.97318 0.25125 0.33318 0.0
C1964 C 0.94463 0.26662 0.34702 0.0
C1965 C 0.96854 0.24871 0.35034 0.0
C1966 C 0.9282 0.27544 0.37244 0.0
C1967 C 0.9037 0.2901 0.35081 0.0
N1968 N 0.95473 0.2564 0.35671 0.0
N1969 N 0.91726 0.28203 0.34455 0.0
H1970 H 0.8751 0.43577 0.72195 0.0
H1971 H 0.83608 0.48884 0.79691 0.0
H1972 H 0.84491 0.40585 0.76458 0.0
H1973 H 0.86166 0.51811 0.75214 0.0
H1974 H 0.84423 0.45951 0.78763 0.0
H1975 H 0.87555 0.46704 0.73513 0.0
C1976 C 0.86905 0.4358 0.73428 0.0
C1977 C 0.8599 0.41813 0.74212 0.0
C1978 C 0.84831 0.47244 0.77995 0.0
C1979 C 0.85998 0.45387 0.7572 0.0
C1980 C 0.84378 0.48928 0.78532 0.0
C1981 C 0.84808 0.50606 0.77529 0.0
C1982 C 0.85726 0.47227 0.76441 0.0
C1983 C 0.85792 0.50555 0.76028 0.0
C1984 C 0.86911 0.45365 0.74174 0.0
C1985 C 0.85202 0.41909 0.75802 0.0
N1986 N 0.86199 0.48897 0.75526 0.0
N1987 N 0.85207 0.43655 0.76492 0.0
H1988 H 0.12258 0.3272 0.68495 0.0
H1989 H 0.07473 0.25286 0.75477 0.0
H1990 H 0.14209 0.27628 0.69506 0.0
H1991 H 0.04219 0.2875 0.72775 0.0
H1992 H 0.09951 0.26066 0.73324 0.0
H1993 H 0.09314 0.31303 0.70101 0.0
C1994 C 0.12052 0.31295 0.69049 0.0
C1995 C 0.13471 0.30288 0.68881 0.0
C1996 C 0.08674 0.26623 0.73188 0.0
C1997 C 0.10132 0.28669 0.70731 0.0
C1998 C 0.07259 0.26179 0.74415 0.0
C1999 C 0.05647 0.2697 0.74315 0.0
C2000 C 0.08494 0.27898 0.71874 0.0
C2001 C 0.05441 0.28114 0.72908 0.0
C2002 C 0.10371 0.30482 0.69955 0.0
C2003 C 0.1314 0.28443 0.6961 0.0
N2004 N 0.06869 0.28575 0.7176 0.0
N2005 N 0.11516 0.27702 0.70528 0.0
H2006 H 0.91504 0.77049 0.71742 0.0
H2007 H 1.01503 0.74049 0.70878 0.0
H2008 H 0.91852 0.71865 0.6916 0.0
H2009 H 1.008 0.78104 0.74675 0.0
H2010 H 0.98247 0.73963 0.69565 0.0
H2011 H 0.95147 0.781 0.72176 0.0
C2012 C 0.92353 0.76154 0.71238 0.0
C2013 C 0.91384 0.74357 0.70435 0.0
C2014 C 0.98825 0.74901 0.70666 0.0
C2015 C 0.95529 0.75545 0.70919 0.0
C2016 C 1.00692 0.74963 0.71411 0.0
C2017 C 1.01407 0.7605 0.72914 0.0
C2018 C 0.97672 0.7594 0.71424 0.0
C2019 C 1.00292 0.77217 0.73535 0.0
C2020 C 0.94425 0.76749 0.7149 0.0
C2021 C 0.92546 0.73245 0.69809 0.0
N2022 N 0.98463 0.77106 0.72804 0.0
N2023 N 0.94557 0.7385 0.70076 0.0
H2024 H 0.73106 0.18068 0.64905 0.0
H2025 H 0.79116 0.17856 0.56594 0.0
H2026 H 0.75321 0.13301 0.63482 0.0
H2027 H 0.76954 0.22713 0.57835 0.0
H2028 H 0.77585 0.16145 0.59059 0.0
H2029 H 0.74394 0.19772 0.62325 0.0
C2030 C 0.7386 0.17375 0.64052 0.0
C2031 C 0.74102 0.15529 0.64424 0.0
C2032 C 0.77428 0.17578 0.58795 0.0
C2033 C 0.7559 0.17487 0.61456 0.0
C2034 C 0.783 0.1856 0.57378 0.0
C2035 C 0.78171 0.20439 0.57002 0.0
C2036 C 0.76419 0.18476 0.59872 0.0
C2037 C 0.77082 0.21264 0.58068 0.0
C2038 C 0.74599 0.18354 0.62579 0.0
C2039 C 0.75119 0.14727 0.63274 0.0
N2040 N 0.76261 0.20283 0.59464 0.0
N2041 N 0.75817 0.15705 0.61849 0.0
H2042 H 0.35691 0.32117 0.65964 0.0
H2043 H 0.40879 0.34263 0.57121 0.0
H2044 H 0.37828 0.27911 0.63316 0.0
H2045 H 0.37031 0.37456 0.58912 0.0
H2046 H 0.4028 0.32222 0.5965 0.0
H2047 H 0.36591 0.34345 0.63601 0.0
C2048 C 0.36341 0.31654 0.64886 0.0
C2049 C 0.36675 0.29813 0.64843 0.0
C2050 C 0.39568 0.3337 0.59491 0.0
C2051 C 0.37755 0.32385 0.62152 0.0
C2052 C 0.39906 0.34526 0.58049 0.0
C2053 C 0.38957 0.35983 0.57799 0.0
C2054 C 0.38276 0.33684 0.60683 0.0
C2055 C 0.3776 0.3632 0.59056 0.0
C2056 C 0.36867 0.32935 0.63543 0.0
C2057 C 0.37568 0.29322 0.63423 0.0
N2058 N 0.37435 0.35163 0.6044 0.0
N2059 N 0.38077 0.306 0.62136 0.0
H2060 H 0.34866 0.82985 0.6708 0.0
H2061 H 0.38953 0.79272 0.58791 0.0
H2062 H 0.41112 0.84221 0.66209 0.0
H2063 H 0.32717 0.78394 0.59501 0.0
H2064 H 0.39768 0.81056 0.61506 0.0
H2065 H 0.34056 0.81326 0.64311 0.0
C2066 C 0.36072 0.82932 0.66304 0.0
C2067 C 0.38067 0.83761 0.66896 0.0
C2068 C 0.3822 0.80477 0.61068 0.0
C2069 C 0.37137 0.81809 0.63709 0.0
C2070 C 0.37751 0.79445 0.59516 0.0
C2071 C 0.35758 0.78671 0.58901 0.0
C2072 C 0.3669 0.8074 0.62031 0.0
C2073 C 0.34273 0.78977 0.59901 0.0
C2074 C 0.35604 0.81965 0.64722 0.0
C2075 C 0.39554 0.83591 0.6583 0.0
N2076 N 0.34769 0.79977 0.61411 0.0
N2077 N 0.3906 0.82637 0.64299 0.0
H2078 H 0.65733 0.80686 0.56445 0.0
H2079 H 0.75522 0.77153 0.56146 0.0
H2080 H 0.68188 0.78243 0.60758 0.0
H2081 H 0.72231 0.78294 0.51673 0.0
H2082 H 0.73043 0.77852 0.57911 0.0
H2083 H 0.683 0.80117 0.54725 0.0
C2084 C 0.66808 0.80026 0.57032 0.0
C2085 C 0.66733 0.79504 0.58751 0.0
C2086 C 0.72863 0.77945 0.56542 0.0
C2087 C 0.69696 0.78872 0.56789 0.0
C2088 C 0.7428 0.77554 0.55536 0.0
C2089 C 0.74077 0.77655 0.5376 0.0
C2090 C 0.71241 0.7846 0.55766 0.0
C2091 C 0.7243 0.78168 0.53035 0.0
C2092 C 0.68278 0.79709 0.56049 0.0
C2093 C 0.68197 0.78693 0.59446 0.0
N2094 N 0.7108 0.78557 0.5404 0.0
N2095 N 0.69615 0.78399 0.58463 0.0
H2096 H 0.76224 0.82445 0.39538 0.0
H2097 H 0.83678 0.81067 0.46891 0.0
H2098 H 0.82559 0.84227 0.38883 0.0
H2099 H 0.78318 0.82561 0.47905 0.0
H2100 H 0.83283 0.81958 0.4391 0.0
H2101 H 0.76906 0.82181 0.42578 0.0
C2102 C 0.7776 0.82805 0.40026 0.0
C2103 C 0.79334 0.83364 0.38933 0.0
C2104 C 0.82214 0.82115 0.44796 0.0
C2105 C 0.80114 0.82998 0.42424 0.0
C2106 C 0.82437 0.81609 0.46493 0.0
C2107 C 0.81024 0.81732 0.47645 0.0
C2108 C 0.80542 0.82701 0.44245 0.0
C2109 C 0.79444 0.82443 0.47062 0.0
C2110 C 0.78144 0.82643 0.41766 0.0
C2111 C 0.8129 0.83752 0.39657 0.0
N2112 N 0.79227 0.82868 0.45396 0.0
N2113 N 0.81624 0.83542 0.41354 0.0
H2114 H 0.76206 0.14878 0.39736 0.0
H2115 H 0.78467 0.2291 0.47254 0.0
H2116 H 0.73847 0.19812 0.39654 0.0
H2117 H 0.80637 0.17854 0.47406 0.0
H2118 H 0.76813 0.2183 0.44472 0.0
H2119 H 0.77882 0.15981 0.42508 0.0
C2120 C 0.7605 0.16205 0.4029 0.0
C2121 C 0.74887 0.17258 0.39437 0.0
C2122 C 0.77648 0.20953 0.45113 0.0
C2123 C 0.768 0.18523 0.42654 0.0
C2124 C 0.7859 0.21565 0.46715 0.0
C2125 C 0.79693 0.20468 0.47592 0.0
C2126 C 0.77801 0.19228 0.44362 0.0
C2127 C 0.79821 0.18759 0.46787 0.0
C2128 C 0.77001 0.16827 0.41886 0.0
C2129 C 0.74712 0.18941 0.40257 0.0
N2130 N 0.78887 0.18193 0.45227 0.0
N2131 N 0.75659 0.19521 0.41811 0.0
H2132 H 0.43508 0.21454 0.46584 0.0
H2133 H 0.3874 0.26557 0.53555 0.0
H2134 H 0.39094 0.18302 0.49946 0.0
H2135 H 0.43655 0.29707 0.50664 0.0
H2136 H 0.38875 0.23516 0.52247 0.0
H2137 H 0.43602 0.24497 0.48047 0.0
C2138 C 0.42559 0.21403 0.47629 0.0
C2139 C 0.4129 0.19621 0.48143 0.0
C2140 C 0.39933 0.24869 0.51903 0.0
C2141 C 0.41395 0.23092 0.49826 0.0
C2142 C 0.39849 0.26607 0.52644 0.0
C2143 C 0.41179 0.28389 0.52209 0.0
C2144 C 0.41348 0.24909 0.50704 0.0
C2145 C 0.4261 0.28365 0.51043 0.0
C2146 C 0.42622 0.23138 0.4847 0.0
C2147 C 0.40111 0.19637 0.49519 0.0
N2148 N 0.42647 0.26653 0.5032 0.0
N2149 N 0.40185 0.21344 0.50305 0.0
H2150 H 0.3984 0.82166 0.42463 0.0
H2151 H 0.30656 0.7828 0.48239 0.0
H2152 H 0.34034 0.82476 0.40665 0.0
H2153 H 0.36769 0.80388 0.50173 0.0
H2154 H 0.31678 0.7969 0.4545 0.0
H2155 H 0.38593 0.81289 0.45263 0.0
C2156 C 0.38295 0.82042 0.42659 0.0
C2157 C 0.37037 0.82382 0.41324 0.0
C2158 C 0.32782 0.79874 0.465 0.0
C2159 C 0.35583 0.8137 0.44552 0.0
C2160 C 0.32197 0.79087 0.48094 0.0
C2161 C 0.33631 0.79212 0.49441 0.0
C2162 C 0.34813 0.80767 0.46259 0.0
C2163 C 0.35613 0.80242 0.49171 0.0
C2164 C 0.37584 0.81554 0.44265 0.0
C2165 C 0.35052 0.82225 0.41662 0.0
N2166 N 0.36144 0.80951 0.47615 0.0
N2167 N 0.34376 0.81708 0.4324 0.0
H2168 H 0.62818 0.11889 0.71715 0.0
H2169 H 0.60294 0.2169 0.74294 0.0
H2170 H 0.66138 0.17552 0.70023 0.0
H2171 H 0.57207 0.15957 0.76023 0.0
H2172 H 0.62624 0.20294 0.72914 0.0
H2173 H 0.60964 0.13432 0.73506 0.0
C2174 C 0.63176 0.13465 0.71742 0.0
C2175 C 0.6463 0.14593 0.70714 0.0
C2176 C 0.61443 0.19346 0.73605 0.0
C2177 C 0.62478 0.16383 0.72747 0.0
C2178 C 0.60112 0.20144 0.74401 0.0
C2179 C 0.58529 0.18941 0.75269 0.0
C2180 C 0.61196 0.17329 0.73678 0.0
C2181 C 0.58371 0.16942 0.75345 0.0
C2182 C 0.62111 0.14348 0.72761 0.0
C2183 C 0.65036 0.1663 0.70803 0.0
N2184 N 0.59676 0.16204 0.74557 0.0
N2185 N 0.63949 0.1746 0.71784 0.0
H2186 H 0.39067 0.19837 0.72625 0.0
H2187 H 0.31055 0.09442 0.71069 0.0
H2188 H 0.34976 0.18542 0.68202 0.0
H2189 H 0.34044 0.1151 0.75946 0.0
H2190 H 0.32643 0.12629 0.69883 0.0
H2191 H 0.37447 0.16627 0.73732 0.0
C2192 C 0.37835 0.18867 0.7188 0.0
C2193 C 0.3716 0.1945 0.70315 0.0
C2194 C 0.32945 0.12376 0.71213 0.0
C2195 C 0.35283 0.15774 0.71583 0.0
C2196 C 0.32034 0.10556 0.71896 0.0
C2197 C 0.32413 0.10184 0.73617 0.0
C2198 C 0.34259 0.13831 0.72251 0.0
C2199 C 0.33722 0.11695 0.74611 0.0
C2200 C 0.36901 0.1704 0.72518 0.0
C2201 C 0.35534 0.18148 0.69418 0.0
N2202 N 0.34598 0.13442 0.73913 0.0
N2203 N 0.34653 0.16363 0.70061 0.0
H2204 H 0.44498 0.85683 0.707 0.0
H2205 H 0.4674 0.7923 0.78376 0.0
H2206 H 0.40229 0.83446 0.7446 0.0
H2207 H 0.51407 0.83615 0.76096 0.0
H2208 H 0.44259 0.80429 0.76735 0.0
H2209 H 0.46999 0.84635 0.7245 0.0
C2210 C 0.44093 0.84981 0.71899 0.0
C2211 C 0.42158 0.84663 0.72441 0.0
C2212 C 0.45827 0.81132 0.76601 0.0
C2213 C 0.44997 0.83421 0.74432 0.0
C2214 C 0.47241 0.80442 0.77528 0.0
C2215 C 0.49283 0.81328 0.77378 0.0
C2216 C 0.46458 0.82692 0.75483 0.0
C2217 C 0.4985 0.82903 0.76266 0.0
C2218 C 0.45519 0.84386 0.72897 0.0
C2219 C 0.4171 0.83739 0.74004 0.0
N2220 N 0.48449 0.83521 0.75351 0.0
N2221 N 0.4311 0.83133 0.74935 0.0
H2222 H 0.662 0.86636 0.66055 0.0
H2223 H 0.75026 0.91412 0.7299 0.0
H2224 H 0.69431 0.83276 0.68908 0.0
H2225 H 0.70118 0.93765 0.71825 0.0
H2226 H 0.73515 0.8872 0.70964 0.0
H2227 H 0.682 0.89588 0.67608 0.0
C2228 C 0.67368 0.86534 0.66976 0.0
C2229 C 0.6766 0.84722 0.67359 0.0
C2230 C 0.72779 0.89835 0.71145 0.0
C2231 C 0.69929 0.88065 0.69139 0.0
C2232 C 0.73641 0.9137 0.72293 0.0
C2233 C 0.72683 0.92798 0.72582 0.0
C2234 C 0.70966 0.89751 0.70258 0.0
C2235 C 0.70885 0.92674 0.71655 0.0
C2236 C 0.68492 0.88208 0.67871 0.0
C2237 C 0.69168 0.84653 0.68581 0.0
N2238 N 0.70085 0.91177 0.70532 0.0
N2239 N 0.70244 0.86301 0.69433 0.0
H2240 H 0.70098 0.8023 0.33789 0.0
H2241 H 0.59002 0.80374 0.32028 0.0
H2242 H 0.68309 0.85479 0.34266 0.0
H2243 H 0.60443 0.75144 0.33599 0.0
H2244 H 0.62428 0.82272 0.32819 0.0
H2245 H 0.66598 0.7831 0.33766 0.0
C2246 C 0.68976 0.80978 0.33925 0.0
C2247 C 0.69497 0.83022 0.33998 0.0
C2248 C 0.61988 0.80711 0.3301 0.0
C2249 C 0.65494 0.80838 0.33929 0.0
C2250 C 0.60037 0.79628 0.32551 0.0
C2251 C 0.59444 0.776 0.32739 0.0
C2252 C 0.63365 0.79754 0.33629 0.0
C2253 C 0.6084 0.76707 0.33432 0.0
C2254 C 0.66978 0.79881 0.33901 0.0
C2255 C 0.67973 0.83909 0.34159 0.0
N2256 N 0.62746 0.77787 0.3383 0.0
N2257 N 0.6604 0.82815 0.3409 0.0
H2258 H 0.76151 0.12517 0.35727 0.0
H2259 H 0.76581 0.09556 0.25989 0.0
H2260 H 0.7367 0.15004 0.31463 0.0
H2261 H 0.79529 0.07258 0.30082 0.0
H2262 H 0.75625 0.11624 0.28013 0.0
H2263 H 0.77514 0.10676 0.3374 0.0
C2264 C 0.7591 0.12698 0.34375 0.0
C2265 C 0.74781 0.13924 0.33769 0.0
C2266 C 0.76488 0.10679 0.28478 0.0
C2267 C 0.76324 0.11786 0.31481 0.0
C2268 C 0.77037 0.09488 0.27318 0.0
C2269 C 0.78131 0.08213 0.27861 0.0
C2270 C 0.77015 0.10601 0.30216 0.0
C2271 C 0.78688 0.08216 0.29603 0.0
C2272 C 0.76681 0.11633 0.33241 0.0
C2273 C 0.74499 0.14062 0.31999 0.0
N2274 N 0.7811 0.0938 0.30721 0.0
N2275 N 0.75255 0.13007 0.30926 0.0
H2276 H 0.46035 0.18558 0.40788 0.0
H2277 H 0.48306 0.24394 0.32129 0.0
H2278 H 0.41474 0.18751 0.36939 0.0
H2279 H 0.52669 0.24932 0.36313 0.0
H2280 H 0.45788 0.22298 0.33856 0.0
H2281 H 0.48488 0.20868 0.39161 0.0
C2282 C 0.45542 0.19097 0.39608 0.0
C2283 C 0.43537 0.18455 0.39004 0.0
C2284 C 0.47293 0.22883 0.34402 0.0
C2285 C 0.46357 0.21085 0.37116 0.0
C2286 C 0.48733 0.24073 0.33413 0.0
C2287 C 0.50704 0.24832 0.34074 0.0
C2288 C 0.47828 0.22431 0.36063 0.0
C2289 C 0.51167 0.24393 0.35756 0.0
C2290 C 0.46949 0.20411 0.38675 0.0
C2291 C 0.43004 0.19179 0.37446 0.0
N2292 N 0.49743 0.2321 0.36687 0.0
N2293 N 0.44405 0.20449 0.36556 0.0
H2294 H 0.34108 0.89326 0.36072 0.0
H2295 H 0.32483 0.97644 0.29782 0.0
H2296 H 0.3846 0.92321 0.32595 0.0
H2297 H 0.27919 0.94068 0.32802 0.0
H2298 H 0.34681 0.9567 0.30721 0.0
H2299 H 0.31774 0.90965 0.34795 0.0
C2300 C 0.34566 0.90306 0.35027 0.0
C2301 C 0.36499 0.907 0.34462 0.0
C2302 C 0.33191 0.95313 0.31167 0.0
C2303 C 0.3384 0.92618 0.33006 0.0
C2304 C 0.31937 0.96441 0.30629 0.0
C2305 C 0.30014 0.96036 0.31218 0.0
C2306 C 0.3252 0.93775 0.32307 0.0
C2307 C 0.29391 0.94452 0.32318 0.0
C2308 C 0.33237 0.91256 0.34304 0.0
C2309 C 0.37005 0.92002 0.33105 0.0
N2310 N 0.30637 0.93396 0.32831 0.0
N2311 N 0.35697 0.92923 0.32438 0.0
H2312 H 0.73624 0.1162 0.71697 0.0
H2313 H 0.78096 0.02494 0.713 0.0
H2314 H 0.75279 0.09619 0.66997 0.0
H2315 H 0.76434 0.04804 0.75851 0.0
H2316 H 0.77428 0.05234 0.69698 0.0
H2317 H 0.74956 0.09276 0.73233 0.0
C2318 C 0.74274 0.10689 0.70986 0.0
C2319 C 0.7432 0.10814 0.6921 0.0
C2320 C 0.7724 0.05152 0.71052 0.0
C2321 C 0.75861 0.0809 0.70974 0.0
C2322 C 0.77638 0.03598 0.71968 0.0
C2323 C 0.77312 0.03415 0.73711 0.0
C2324 C 0.7652 0.06527 0.71893 0.0
C2325 C 0.7669 0.04874 0.74507 0.0
C2326 C 0.75044 0.09348 0.71866 0.0
C2327 C 0.75216 0.09583 0.68366 0.0
N2328 N 0.76306 0.06348 0.73597 0.0
N2329 N 0.75932 0.0826 0.69251 0.0
H2330 H 0.71665 0.89642 0.32213 0.0
H2331 H 0.78202 0.96489 0.25457 0.0
H2332 H 0.76392 0.88181 0.29749 0.0
H2333 H 0.72691 0.97201 0.2707 0.0
H2334 H 0.77561 0.93425 0.26993 0.0
H2335 H 0.72028 0.92421 0.30346 0.0
C2336 C 0.7277 0.89895 0.3127 0.0
C2337 C 0.73998 0.8867 0.31137 0.0
C2338 C 0.76479 0.94238 0.26997 0.0
C2339 C 0.74439 0.91873 0.29008 0.0
C2340 C 0.76846 0.95985 0.26124 0.0
C2341 C 0.75504 0.97101 0.26151 0.0
C2342 C 0.74767 0.93613 0.27923 0.0
C2343 C 0.73757 0.96378 0.27013 0.0
C2344 C 0.72978 0.91487 0.30206 0.0
C2345 C 0.75432 0.89099 0.29914 0.0
N2346 N 0.7345 0.94688 0.27885 0.0
N2347 N 0.75617 0.9067 0.289 0.0
H2348 H 0.6692 0.19149 0.3192 0.0
H2349 H 0.56269 0.2112 0.3043 0.0
H2350 H 0.61976 0.16697 0.35042 0.0
H2351 H 0.6171 0.25392 0.29218 0.0
H2352 H 0.58245 0.19022 0.31589 0.0
H2353 H 0.64971 0.21105 0.30482 0.0
C2354 C 0.65438 0.1902 0.32314 0.0
C2355 C 0.64618 0.17716 0.33598 0.0
C2356 C 0.59002 0.20407 0.31044 0.0
C2357 C 0.6235 0.19913 0.31908 0.0
C2358 C 0.57872 0.21591 0.30363 0.0
C2359 C 0.58825 0.23428 0.2972 0.0
C2360 C 0.61097 0.21051 0.31055 0.0
C2361 C 0.60916 0.23983 0.297 0.0
C2362 C 0.64318 0.20127 0.31478 0.0
C2363 C 0.62669 0.1762 0.34029 0.0
N2364 N 0.61979 0.22805 0.30356 0.0
N2365 N 0.61605 0.1868 0.3318 0.0
H2366 H 0.36985 0.144 0.37052 0.0
H2367 H 0.29875 0.0344 0.3732 0.0
H2368 H 0.37507 0.10378 0.41016 0.0
H2369 H 0.30465 0.06966 0.32834 0.0
H2370 H 0.32372 0.0611 0.38847 0.0
H2371 H 0.34342 0.11807 0.35612 0.0
C2372 C 0.36556 0.12971 0.37617 0.0
C2373 C 0.37482 0.12614 0.3916 0.0
C2374 C 0.3195 0.063 0.37529 0.0
C2375 C 0.34419 0.09644 0.37529 0.0
C2376 C 0.30514 0.04783 0.36663 0.0
C2377 C 0.29972 0.04979 0.34946 0.0
C2378 C 0.32832 0.08031 0.36676 0.0
C2379 C 0.30862 0.06745 0.3415 0.0
C2380 C 0.35035 0.11494 0.36798 0.0
C2381 C 0.36824 0.10737 0.39844 0.0
N2382 N 0.32246 0.08202 0.3502 0.0
N2383 N 0.35334 0.09326 0.39026 0.0
H2384 H 0.40732 0.81767 0.34083 0.0
H2385 H 0.48342 0.75548 0.36434 0.0
H2386 H 0.42292 0.80416 0.39222 0.0
H2387 H 0.47529 0.77673 0.31401 0.0
H2388 H 0.45936 0.77107 0.37435 0.0
H2389 H 0.43031 0.80092 0.33046 0.0
C2390 C 0.41554 0.81122 0.34998 0.0
C2391 C 0.41302 0.81243 0.3675 0.0
C2392 C 0.46281 0.77233 0.36111 0.0
C2393 C 0.43938 0.79291 0.35558 0.0
C2394 C 0.47651 0.7633 0.35533 0.0
C2395 C 0.48151 0.76474 0.33826 0.0
C2396 C 0.45383 0.78285 0.34975 0.0
C2397 C 0.47215 0.77537 0.3273 0.0
C2398 C 0.42864 0.80157 0.34401 0.0
C2399 C 0.42396 0.80342 0.37861 0.0
N2400 N 0.45879 0.78395 0.33321 0.0
N2401 N 0.4366 0.79411 0.37248 0.0
H2402 H 0.34361 0.90874 0.76433 0.0
H2403 H 0.35651 0.01989 0.74016 0.0
H2404 H 0.37041 0.93469 0.71889 0.0
H2405 H 0.33327 0.99492 0.7872 0.0
H2406 H 0.36512 0.99007 0.73373 0.0
H2407 H 0.34331 0.94094 0.77441 0.0
C2408 C 0.3498 0.92131 0.7566 0.0
C2409 C 0.35699 0.91895 0.74068 0.0
C2410 C 0.35839 0.99115 0.74557 0.0
C2411 C 0.35637 0.95606 0.75207 0.0
C2412 C 0.35349 0.00825 0.7493 0.0
C2413 C 0.34406 0.01 0.76426 0.0
C2414 C 0.3537 0.97542 0.75676 0.0
C2415 C 0.34058 0.99434 0.77557 0.0
C2416 C 0.34956 0.93972 0.76235 0.0
C2417 C 0.36484 0.9358 0.73126 0.0
N2418 N 0.34516 0.97767 0.77149 0.0
N2419 N 0.36406 0.95355 0.73697 0.0
H2420 H 0.59478 0.78635 0.67235 0.0
H2421 H 0.59815 0.77011 0.77129 0.0
H2422 H 0.64772 0.78545 0.70241 0.0
H2423 H 0.54281 0.75887 0.74111 0.0
H2424 H 0.61581 0.77145 0.74543 0.0
H2425 H 0.57468 0.7719 0.69606 0.0
C2426 C 0.60212 0.78266 0.68378 0.0
C2427 C 0.62296 0.78742 0.68558 0.0
C2428 C 0.59977 0.76839 0.74436 0.0
C2429 C 0.60017 0.77121 0.71275 0.0
C2430 C 0.5897 0.76767 0.75914 0.0
C2431 C 0.56908 0.76462 0.75824 0.0
C2432 C 0.58921 0.76655 0.72848 0.0
C2433 C 0.55877 0.76131 0.74226 0.0
C2434 C 0.59065 0.77449 0.69734 0.0
C2435 C 0.63172 0.78241 0.70066 0.0
N2436 N 0.56901 0.76277 0.72792 0.0
N2437 N 0.62032 0.77486 0.71374 0.0
H2438 H 0.43414 0.27319 0.7103 0.0
H2439 H 0.53063 0.23584 0.71147 0.0
H2440 H 0.43904 0.22417 0.68099 0.0
H2441 H 0.52071 0.27559 0.7488 0.0
H2442 H 0.50145 0.23877 0.69456 0.0
H2443 H 0.46974 0.28114 0.71874 0.0
C2444 C 0.44285 0.26442 0.70529 0.0
C2445 C 0.43367 0.24785 0.69514 0.0
C2446 C 0.50589 0.24713 0.7063 0.0
C2447 C 0.47419 0.25671 0.70481 0.0
C2448 C 0.52262 0.24554 0.71594 0.0
C2449 C 0.52787 0.25513 0.73179 0.0
C2450 C 0.49435 0.25838 0.71254 0.0
C2451 C 0.51701 0.26765 0.73681 0.0
C2452 C 0.4631 0.26888 0.71018 0.0
C2453 C 0.44555 0.2369 0.68906 0.0
N2454 N 0.50056 0.26866 0.72736 0.0
N2455 N 0.46515 0.24138 0.69415 0.0
H2456 H 0.73265 0.69601 0.15836 0.0
H2457 H 0.78825 0.67158 0.07859 0.0
H2458 H 0.73515 0.63808 0.14621 0.0
H2459 H 0.7879 0.72969 0.09265 0.0
H2460 H 0.76898 0.65898 0.10318 0.0
H2461 H 0.75267 0.70845 0.13419 0.0
C2462 C 0.73735 0.68586 0.15061 0.0
C2463 C 0.73212 0.66591 0.15444 0.0
C2464 C 0.77313 0.67449 0.10087 0.0
C2465 C 0.7553 0.68018 0.1266 0.0
C2466 C 0.78425 0.68174 0.08682 0.0
C2467 C 0.78975 0.7018 0.08333 0.0
C2468 C 0.7674 0.68733 0.11161 0.0
C2469 C 0.78383 0.71412 0.0945 0.0
C2470 C 0.74889 0.69302 0.13681 0.0
C2471 C 0.73897 0.65359 0.14397 0.0
N2472 N 0.77302 0.70671 0.10804 0.0
N2473 N 0.75011 0.66089 0.13055 0.0
H2474 H 0.35204 0.72545 0.14044 0.0
H2475 H 0.30914 0.79033 0.07445 0.0
H2476 H 0.33087 0.77348 0.15558 0.0
H2477 H 0.3235 0.73777 0.06107 0.0
H2478 H 0.32259 0.78809 0.10353 0.0
H2479 H 0.3473 0.73357 0.11076 0.0
C2480 C 0.3467 0.73792 0.13755 0.0
C2481 C 0.34169 0.74869 0.15056 0.0
C2482 C 0.32302 0.7772 0.09415 0.0
C2483 C 0.33588 0.75788 0.11647 0.0
C2484 C 0.31545 0.77854 0.07754 0.0
C2485 C 0.31498 0.76409 0.06538 0.0
C2486 C 0.33024 0.76137 0.09857 0.0
C2487 C 0.32332 0.7491 0.07009 0.0
C2488 C 0.34385 0.74246 0.12056 0.0
C2489 C 0.33458 0.76454 0.14596 0.0
N2490 N 0.33044 0.74805 0.08632 0.0
N2491 N 0.33173 0.76856 0.1293 0.0
H2492 H 0.36728 0.33668 0.15536 0.0
H2493 H 0.37444 0.26036 0.0849 0.0
H2494 H 0.38699 0.28579 0.16593 0.0
H2495 H 0.32681 0.28724 0.07993 0.0
H2496 H 0.38408 0.27543 0.11278 0.0
H2497 H 0.35625 0.32378 0.12641 0.0
C2498 C 0.36933 0.32285 0.15174 0.0
C2499 C 0.37849 0.31257 0.16332 0.0
C2500 C 0.37155 0.27813 0.10562 0.0
C2501 C 0.36622 0.29802 0.12994 0.0
C2502 C 0.36602 0.26958 0.08956 0.0
C2503 C 0.34961 0.27234 0.07992 0.0
C2504 C 0.36089 0.28991 0.1123 0.0
C2505 C 0.3395 0.28463 0.08686 0.0
C2506 C 0.36304 0.31556 0.13515 0.0
C2507 C 0.38076 0.29477 0.15757 0.0
N2508 N 0.34531 0.293 0.10266 0.0
N2509 N 0.37488 0.28825 0.14138 0.0
H2510 H 0.77352 0.34845 0.12286 0.0
H2511 H 0.8236 0.29139 0.05979 0.0
H2512 H 0.74593 0.28915 0.10556 0.0
H2513 H 0.84665 0.35281 0.07179 0.0
H2514 H 0.79751 0.28895 0.07969 0.0
H2515 H 0.80281 0.34888 0.10744 0.0
C2516 C 0.77372 0.33542 0.11601 0.0
C2517 C 0.75717 0.31877 0.11543 0.0
C2518 C 0.80834 0.30294 0.07802 0.0
C2519 C 0.7906 0.31926 0.09753 0.0
C2520 C 0.82329 0.30432 0.06674 0.0
C2521 C 0.83713 0.3224 0.06393 0.0
C2522 C 0.80729 0.31975 0.08665 0.0
C2523 C 0.836 0.33869 0.07325 0.0
C2524 C 0.79041 0.33572 0.1071 0.0
C2525 C 0.75822 0.3024 0.10615 0.0
N2526 N 0.82129 0.337 0.08412 0.0
N2527 N 0.7746 0.30308 0.0975 0.0
H2528 H 0.80496 0.35988 0.91255 0.0
H2529 H 0.84541 0.3492 1.00828 0.0
H2530 H 0.79001 0.30563 0.9396 0.0
H2531 H 0.8634 0.4021 0.97973 0.0
H2532 H 0.82459 0.33292 0.98347 0.0
H2533 H 0.82568 0.37581 0.93739 0.0
C2534 C 0.80592 0.35135 0.92375 0.0
C2535 C 0.79575 0.33138 0.92395 0.0
C2536 C 0.83315 0.34807 0.9826 0.0
C2537 C 0.81963 0.34947 0.95242 0.0
C2538 C 0.8451 0.35729 0.99671 0.0
C2539 C 0.85645 0.37683 0.99584 0.0
C2540 C 0.8323 0.35863 0.96764 0.0
C2541 C 0.85505 0.38691 0.98079 0.0
C2542 C 0.81787 0.36041 0.9379 0.0
C2543 C 0.79779 0.321 0.93877 0.0
N2544 N 0.84326 0.37769 0.96726 0.0
N2545 N 0.80948 0.33015 0.95239 0.0
H2546 H 0.76161 0.67176 0.92782 0.0
H2547 H 0.79 0.77499 0.97574 0.0
H2548 H 0.74781 0.72142 0.90508 0.0
H2549 H 0.77953 0.72056 1.0023 0.0
H2550 H 0.77732 0.75662 0.94915 0.0
H2551 H 0.7719 0.69044 0.95453 0.0
C2552 C 0.76091 0.68665 0.9284 0.0
C2553 C 0.75385 0.69502 0.91417 0.0
C2554 C 0.77759 0.74875 0.96086 0.0
C2555 C 0.76561 0.71655 0.94475 0.0
C2556 C 0.78475 0.75923 0.97607 0.0
C2557 C 0.7858 0.74939 0.99139 0.0
C2558 C 0.77181 0.72825 0.96085 0.0
C2559 C 0.77892 0.72888 0.99091 0.0
C2560 C 0.76661 0.69726 0.9437 0.0
C2561 C 0.75305 0.71435 0.91576 0.0
N2562 N 0.7725 0.71904 0.97591 0.0
N2563 N 0.75897 0.72448 0.9307 0.0
H2564 H 0.33645 0.63843 0.92568 0.0
H2565 H 0.30588 0.66494 1.01564 0.0
H2566 H 0.37285 0.63761 0.97163 0.0
H2567 H 0.29325 0.69414 0.9704 0.0
H2568 H 0.3263 0.64968 0.99934 0.0
H2569 H 0.31677 0.65468 0.94152 0.0
C2570 C 0.34054 0.64183 0.93901 0.0
C2571 C 0.35648 0.63655 0.94725 0.0
C2572 C 0.31902 0.6594 0.993 0.0
C2573 C 0.33337 0.65451 0.96555 0.0
C2574 C 0.30725 0.66793 1.00222 0.0
C2575 C 0.29788 0.68072 0.99428 0.0
C2576 C 0.32106 0.6634 0.97565 0.0
C2577 C 0.30034 0.6844 0.97694 0.0
C2578 C 0.32914 0.65097 0.94806 0.0
C2579 C 0.36053 0.64095 0.96472 0.0
N2580 N 0.31159 0.67565 0.96813 0.0
N2581 N 0.34894 0.6495 0.97331 0.0
H2582 H 0.4183 0.29015 0.90896 0.0
H2583 H 0.33864 0.27104 0.98075 0.0
H2584 H 0.3644 0.30762 0.9042 0.0
H2585 H 0.39004 0.24949 0.98331 0.0
H2586 H 0.34856 0.28581 0.95347 0.0
H2587 H 0.40873 0.27625 0.93656 0.0
C2588 C 0.40434 0.29094 0.9136 0.0
C2589 C 0.39206 0.29997 0.904 0.0
C2590 C 0.35772 0.27791 0.96001 0.0
C2591 C 0.38116 0.28425 0.93605 0.0
C2592 C 0.35215 0.26957 0.97572 0.0
C2593 C 0.36357 0.25902 0.98451 0.0
C2594 C 0.37491 0.27581 0.95293 0.0
C2595 C 0.38069 0.25734 0.97701 0.0
C2596 C 0.39895 0.28309 0.92949 0.0
C2597 C 0.37444 0.30095 0.91109 0.0
N2598 N 0.38582 0.26563 0.96172 0.0
N2599 N 0.36952 0.29318 0.92661 0.0
H2600 H 0.65632 0.70306 0.22089 0.0
H2601 H 0.55807 0.67307 0.27397 0.0
H2602 H 0.6129 0.6466 0.21748 0.0
H2603 H 0.5938 0.73268 0.26832 0.0
H2604 H 0.58108 0.66224 0.25723 0.0
H2605 H 0.63705 0.71298 0.24253 0.0
C2606 C 0.64306 0.69258 0.22511 0.0
C2607 C 0.6363 0.67391 0.2176 0.0
C2608 C 0.58392 0.67769 0.25973 0.0
C2609 C 0.61394 0.68523 0.24197 0.0
C2610 C 0.57066 0.68398 0.26927 0.0
C2611 C 0.57358 0.70397 0.27253 0.0
C2612 C 0.60047 0.69139 0.25338 0.0
C2613 C 0.59067 0.71716 0.26627 0.0
C2614 C 0.63194 0.6983 0.23728 0.0
C2615 C 0.61873 0.66104 0.22315 0.0
N2616 N 0.60334 0.71065 0.25698 0.0
N2617 N 0.60814 0.66695 0.23491 0.0
H2618 H 0.35428 0.67734 0.23217 0.0
H2619 H 0.39667 0.58888 0.25991 0.0
H2620 H 0.40624 0.66749 0.21151 0.0
H2621 H 0.33771 0.59106 0.27009 0.0
H2622 H 0.4017 0.6191 0.24389 0.0
H2623 H 0.34869 0.64666 0.24734 0.0
C2624 C 0.36439 0.66865 0.23062 0.0
C2625 C 0.38081 0.67512 0.22054 0.0
C2626 C 0.38765 0.61293 0.24961 0.0
C2627 C 0.37473 0.64013 0.23826 0.0
C2628 C 0.38485 0.59578 0.25886 0.0
C2629 C 0.36673 0.58741 0.26628 0.0
C2630 C 0.37229 0.62188 0.24793 0.0
C2631 C 0.3518 0.59687 0.26438 0.0
C2632 C 0.36127 0.65118 0.23942 0.0
C2633 C 0.39358 0.66331 0.21935 0.0
N2634 N 0.35493 0.61361 0.25544 0.0
N2635 N 0.39035 0.64648 0.22817 0.0
H2636 H 0.4076 0.30739 0.24035 0.0
H2637 H 0.50745 0.27444 0.23765 0.0
H2638 H 0.44169 0.31472 0.19564 0.0
H2639 H 0.48348 0.28786 0.2837 0.0
H2640 H 0.48067 0.28361 0.22106 0.0
H2641 H 0.43277 0.29537 0.25545 0.0
C2642 C 0.42043 0.30674 0.23367 0.0
C2643 C 0.4224 0.31247 0.2166 0.0
C2644 C 0.48121 0.28434 0.23481 0.0
C2645 C 0.45131 0.29784 0.23396 0.0
C2646 C 0.49635 0.27889 0.24427 0.0
C2647 C 0.49769 0.28033 0.26211 0.0
C2648 C 0.46715 0.29093 0.24328 0.0
C2649 C 0.48307 0.28654 0.26999 0.0
C2650 C 0.43477 0.29962 0.24233 0.0
C2651 C 0.43924 0.31041 0.20868 0.0
N2652 N 0.46851 0.29155 0.26059 0.0
N2653 N 0.45297 0.30329 0.21739 0.0
H2654 H 0.75061 0.40014 0.16832 0.0
H2655 H 0.81668 0.4515 0.25018 0.0
H2656 H 0.76693 0.36972 0.21137 0.0
H2657 H 0.78053 0.47814 0.21794 0.0
H2658 H 0.80975 0.42421 0.22984 0.0
H2659 H 0.77254 0.43093 0.18052 0.0
C2660 C 0.75934 0.39992 0.18006 0.0
C2661 C 0.75694 0.38256 0.189 0.0
C2662 C 0.80382 0.43632 0.227 0.0
C2663 C 0.78181 0.41741 0.20296 0.0
C2664 C 0.8079 0.45197 0.23852 0.0
C2665 C 0.79886 0.46689 0.23583 0.0
C2666 C 0.79081 0.43578 0.21269 0.0
C2667 C 0.78751 0.46672 0.22057 0.0
C2668 C 0.77173 0.41743 0.18704 0.0
C2669 C 0.76835 0.38292 0.20422 0.0
N2670 N 0.78355 0.45123 0.20967 0.0
N2671 N 0.78015 0.40014 0.21084 0.0
H2672 H 0.70152 0.28601 0.85105 0.0
H2673 H 0.59919 0.28856 0.80493 0.0
H2674 H 0.67863 0.3356 0.85504 0.0
H2675 H 0.61033 0.23461 0.82024 0.0
H2676 H 0.62982 0.30658 0.82103 0.0
H2677 H 0.66929 0.26704 0.8382 0.0
C2678 C 0.68968 0.29285 0.8495 0.0
C2679 C 0.69294 0.31255 0.85401 0.0
C2680 C 0.62547 0.29079 0.82091 0.0
C2681 C 0.65622 0.29103 0.83882 0.0
C2682 C 0.60809 0.28052 0.81165 0.0
C2683 C 0.60225 0.26007 0.81124 0.0
C2684 C 0.63725 0.28054 0.82956 0.0
C2685 C 0.61427 0.25037 0.82026 0.0
C2686 C 0.67133 0.28204 0.84203 0.0
C2687 C 0.67702 0.32064 0.85139 0.0
N2688 N 0.63131 0.2607 0.82894 0.0
N2689 N 0.65946 0.30993 0.84378 0.0
H2690 H 0.7701 0.63602 0.89066 0.0
H2691 H 0.79178 0.59791 0.79999 0.0
H2692 H 0.75771 0.65932 0.84219 0.0
H2693 H 0.80237 0.57005 0.84658 0.0
H2694 H 0.78368 0.62314 0.81628 0.0
H2695 H 0.78576 0.61437 0.87598 0.0
C2696 C 0.77092 0.63681 0.87698 0.0
C2697 C 0.76238 0.64944 0.86765 0.0
C2698 C 0.78798 0.61172 0.82309 0.0
C2699 C 0.78025 0.62466 0.85076 0.0
C2700 C 0.79274 0.59732 0.81374 0.0
C2701 C 0.79782 0.58186 0.82191 0.0
C2702 C 0.7879 0.61067 0.84089 0.0
C2703 C 0.79874 0.58183 0.83978 0.0
C2704 C 0.77978 0.62436 0.8686 0.0
C2705 C 0.76379 0.64968 0.84993 0.0
N2706 N 0.79357 0.59588 0.84869 0.0
N2707 N 0.7724 0.6375 0.84215 0.0
H2708 H 0.40549 0.67496 0.87616 0.0
H2709 H 0.48431 0.70699 0.80418 0.0
H2710 H 0.41731 0.63466 0.84039 0.0
H2711 H 0.47609 0.74624 0.84277 0.0
H2712 H 0.45817 0.6807 0.81603 0.0
H2713 H 0.42997 0.70162 0.86306 0.0
C2714 C 0.41325 0.67169 0.86559 0.0
C2715 C 0.4093 0.6525 0.8594 0.0
C2716 C 0.46205 0.69508 0.82187 0.0
C2717 C 0.43725 0.68303 0.8442 0.0
C2718 C 0.47695 0.71011 0.81508 0.0
C2719 C 0.48248 0.72884 0.82253 0.0
C2720 C 0.45258 0.6988 0.8362 0.0
C2721 C 0.4724 0.73202 0.83664 0.0
C2722 C 0.42717 0.68695 0.85805 0.0
C2723 C 0.41963 0.64923 0.84547 0.0
N2724 N 0.458 0.71716 0.84303 0.0
N2725 N 0.43313 0.66431 0.83838 0.0
H2726 H 0.35542 0.3739 0.83356 0.0
H2727 H 0.38175 0.45879 0.76448 0.0
H2728 H 0.41502 0.40552 0.82165 0.0
H2729 H 0.32299 0.43552 0.78283 0.0
H2730 H 0.39317 0.43562 0.78201 0.0
H2731 H 0.34233 0.39211 0.8115 0.0
C2732 C 0.36571 0.38423 0.82592 0.0
C2733 C 0.38632 0.38806 0.82927 0.0
C2734 C 0.37774 0.43549 0.78214 0.0
C2735 C 0.37155 0.40927 0.80432 0.0
C2736 C 0.37118 0.44885 0.77215 0.0
C2737 C 0.35136 0.44947 0.77222 0.0
C2738 C 0.36445 0.42244 0.79236 0.0
C2739 C 0.33836 0.43571 0.78222 0.0
C2740 C 0.35827 0.3948 0.81349 0.0
C2741 C 0.39903 0.40199 0.81933 0.0
N2742 N 0.34515 0.4229 0.79194 0.0
N2743 N 0.39148 0.41212 0.80742 0.0
H2744 H 0.71663 0.63235 0.22702 0.0
H2745 H 0.71139 0.51989 0.22476 0.0
H2746 H 0.71199 0.60021 0.18003 0.0
H2747 H 0.74715 0.55854 0.26376 0.0
H2748 H 0.70556 0.5481 0.21001 0.0
H2749 H 0.72225 0.60435 0.2426 0.0
C2750 C 0.71674 0.61938 0.22002 0.0
C2751 C 0.71395 0.61858 0.20223 0.0
C2752 C 0.71464 0.5504 0.22182 0.0
C2753 C 0.71996 0.58654 0.21989 0.0
C2754 C 0.71785 0.53432 0.23029 0.0
C2755 C 0.72976 0.53691 0.24551 0.0
C2756 C 0.72302 0.56921 0.22879 0.0
C2757 C 0.73798 0.55597 0.25201 0.0
C2758 C 0.72002 0.60349 0.22888 0.0
C2759 C 0.71423 0.60145 0.19374 0.0
N2760 N 0.73434 0.57141 0.2437 0.0
N2761 N 0.717 0.58606 0.20264 0.0
H2762 H 0.76164 0.39025 0.87386 0.0
H2763 H 0.74382 0.45426 0.79468 0.0
H2764 H 0.7333 0.36597 0.82557 0.0
H2765 H 0.78662 0.47812 0.83618 0.0
H2766 H 0.73746 0.42206 0.80735 0.0
H2767 H 0.76976 0.4229 0.86144 0.0
C2768 C 0.75731 0.39176 0.86063 0.0
C2769 C 0.74649 0.37539 0.85083 0.0
C2770 C 0.74827 0.43434 0.8137 0.0
C2771 C 0.75538 0.41257 0.83668 0.0
C2772 C 0.75174 0.45274 0.80654 0.0
C2773 C 0.76578 0.46887 0.81437 0.0
C2774 C 0.75874 0.43203 0.82891 0.0
C2775 C 0.77583 0.46601 0.82964 0.0
C2776 C 0.76183 0.41037 0.85359 0.0
C2777 C 0.74119 0.3782 0.83376 0.0
N2778 N 0.77208 0.44795 0.83645 0.0
N2779 N 0.74552 0.3964 0.8273 0.0
H2780 H 0.6578 0.68748 0.82691 0.0
H2781 H 0.59646 0.75748 0.85983 0.0
H2782 H 0.66282 0.70757 0.87891 0.0
H2783 H 0.59429 0.73799 0.80778 0.0
H2784 H 0.62241 0.7416 0.86694 0.0
H2785 H 0.63678 0.70844 0.81946 0.0
C2786 C 0.65477 0.69666 0.8367 0.0
C2787 C 0.66213 0.69587 0.85352 0.0
C2788 C 0.6163 0.74088 0.85395 0.0
C2789 C 0.63749 0.71963 0.84521 0.0
C2790 C 0.60148 0.75 0.84986 0.0
C2791 C 0.59291 0.74897 0.83317 0.0
C2792 C 0.62269 0.73065 0.84129 0.0
C2793 C 0.60004 0.7389 0.82086 0.0
C2794 C 0.64263 0.70855 0.83248 0.0
C2795 C 0.6576 0.70793 0.86576 0.0
N2796 N 0.61438 0.73014 0.82518 0.0
N2797 N 0.64537 0.71915 0.86141 0.0
H2798 H 0.34662 0.60696 0.8358 0.0
H2799 H 0.31547 0.49247 0.81628 0.0
H2800 H 0.36156 0.5653 0.86971 0.0
H2801 H 0.29813 0.53402 0.78372 0.0
H2802 H 0.32901 0.51832 0.83762 0.0
H2803 H 0.32619 0.58002 0.81781 0.0
C2804 C 0.3456 0.59213 0.83945 0.0
C2805 C 0.35593 0.58837 0.8542 0.0
C2806 C 0.32199 0.52172 0.8259 0.0
C2807 C 0.33245 0.55743 0.83375 0.0
C2808 C 0.31416 0.50693 0.81373 0.0
C2809 C 0.30591 0.51113 0.79807 0.0
C2810 C 0.32166 0.54085 0.82233 0.0
C2811 C 0.30457 0.53014 0.79553 0.0
C2812 C 0.33381 0.57675 0.82925 0.0
C2813 C 0.35377 0.56886 0.85849 0.0
N2814 N 0.31261 0.54433 0.80742 0.0
N2815 N 0.3424 0.55413 0.84825 0.0
H2816 H 0.4072 0.2682 0.85306 0.0
H2817 H 0.50984 0.28165 0.80811 0.0
H2818 H 0.44869 0.32435 0.84434 0.0
H2819 H 0.47099 0.22585 0.82174 0.0
H2820 H 0.4864 0.2975 0.81899 0.0
H2821 H 0.42899 0.25253 0.83926 0.0
C2822 C 0.42085 0.27727 0.84817 0.0
C2823 C 0.42613 0.29768 0.85003 0.0
C2824 C 0.48297 0.28178 0.81956 0.0
C2825 C 0.45126 0.27972 0.83408 0.0
C2826 C 0.49634 0.27267 0.81326 0.0
C2827 C 0.4925 0.25231 0.81401 0.0
C2828 C 0.46551 0.27049 0.82664 0.0
C2829 C 0.47479 0.24157 0.82107 0.0
C2830 C 0.4333 0.26829 0.84026 0.0
C2831 C 0.44387 0.30862 0.84312 0.0
N2832 N 0.46201 0.25076 0.82709 0.0
N2833 N 0.45583 0.29951 0.83557 0.0
H2834 H 0.3797 0.40167 0.2294 0.0
H2835 H 0.30634 0.46273 0.2568 0.0
H2836 H 0.31588 0.37765 0.2283 0.0
H2837 H 0.37005 0.48643 0.2559 0.0
H2838 H 0.30885 0.43255 0.24336 0.0
H2839 H 0.37597 0.43388 0.23585 0.0
C2840 C 0.36489 0.4032 0.23018 0.0
C2841 C 0.34814 0.38677 0.2285 0.0
C2842 C 0.32225 0.44448 0.24591 0.0
C2843 C 0.34369 0.4237 0.23625 0.0
C2844 C 0.32077 0.46178 0.25348 0.0
C2845 C 0.338 0.47716 0.2576 0.0
C2846 C 0.34108 0.44256 0.24243 0.0
C2847 C 0.35635 0.47494 0.25312 0.0
C2848 C 0.36274 0.4216 0.23402 0.0
C2849 C 0.32929 0.38977 0.22982 0.0
N2850 N 0.35741 0.45802 0.24596 0.0
N2851 N 0.3276 0.40771 0.23378 0.0
H2852 H 0.69123 0.3673 0.20626 0.0
H2853 H 0.6122 0.28214 0.25234 0.0
H2854 H 0.68631 0.30625 0.1997 0.0
H2855 H 0.61349 0.3427 0.25484 0.0
H2856 H 0.63974 0.29072 0.23366 0.0
H2857 H 0.66343 0.3586 0.22477 0.0
C2858 C 0.68437 0.35204 0.20881 0.0
C2859 C 0.69122 0.33748 0.20151 0.0
C2860 C 0.63398 0.30213 0.23826 0.0
C2861 C 0.65916 0.32739 0.2226 0.0
C2862 C 0.61812 0.29724 0.24888 0.0
C2863 C 0.61032 0.3117 0.25514 0.0
C2864 C 0.64224 0.32166 0.23385 0.0
C2865 C 0.61906 0.33108 0.25048 0.0
C2866 C 0.6684 0.34709 0.2193 0.0
C2867 C 0.68146 0.31794 0.20497 0.0
N2868 N 0.63452 0.33548 0.24011 0.0
N2869 N 0.66597 0.31347 0.21532 0.0
H2870 H 0.42268 0.76157 0.21957 0.0
H2871 H 0.53224 0.75179 0.23356 0.0
H2872 H 0.44353 0.71725 0.19631 0.0
H2873 H 0.50552 0.78329 0.2671 0.0
H2874 H 0.50415 0.7484 0.21285 0.0
H2875 H 0.45696 0.77848 0.22962 0.0
C2876 C 0.43458 0.75576 0.21611 0.0
C2877 C 0.43033 0.73786 0.20736 0.0
C2878 C 0.5047 0.75647 0.22457 0.0
C2879 C 0.46936 0.75692 0.21893 0.0
C2880 C 0.52078 0.7585 0.23637 0.0
C2881 C 0.52094 0.7674 0.25225 0.0
C2882 C 0.4888 0.76348 0.22869 0.0
C2883 C 0.50575 0.77594 0.25515 0.0
C2884 C 0.45409 0.76533 0.22193 0.0
C2885 C 0.44623 0.73088 0.20327 0.0
N2886 N 0.4901 0.77347 0.24361 0.0
N2887 N 0.46503 0.74026 0.20932 0.0
loop_
_geom_bond_atom_site_label_1
_geom_bond_atom_site_label_2
_geom_bond_distance
_geom_bond_site_symmetry_2
_ccdc_geom_bond_type
H0 C1 0.949 . S
C1 H0 0.949 . S
C1 C2 1.395 . S
C1 C3 1.391 . S
C2 C1 1.395 . S
C2 C5 1.390 . S
C3 C1 1.391 . S
C3 C7 1.387 . S
C3 C8 1.491 . S
H4 C5 0.950 . S
C5 C2 1.390 . S
C5 H4 0.950 . S
C5 C6 1.378 . S
C6 C5 1.378 . S
C6 C7 1.409 . S
C7 C3 1.387 . S
C7 C6 1.409 . S
C7 H9 0.951 . S
C8 C3 1.491 . S
C8 C10 1.382 . S
C8 C12 1.404 . S
H9 C7 0.951 . S
C10 C8 1.382 . S
C10 C11 1.390 . S
C10 H15 0.949 . S
C11 C10 1.390 . S
C11 C16 1.399 . S
C12 C8 1.404 . S
C12 H13 0.950 . S
C12 C14 1.375 . S
H13 C12 0.950 . S
C14 C12 1.375 . S
C14 C16 1.382 . S
C14 H18 0.950 . S
H15 C10 0.949 . S
C16 C11 1.399 . S
C16 C14 1.382 . S
C16 H17 0.952 . S
H17 C16 0.952 . S
H18 C14 0.950 . S
H19 C20 0.949 . S
C20 H19 0.949 . S
C20 C21 1.395 . S
C20 C22 1.391 . S
C21 C20 1.395 . S
C21 C24 1.390 . S
C22 C20 1.391 . S
C22 C26 1.387 . S
C22 C27 1.491 . S
H23 C24 0.950 . S
C24 C21 1.390 . S
C24 H23 0.950 . S
C24 C25 1.378 . S
C25 C24 1.378 . S
C25 C26 1.409 . S
C26 C22 1.387 . S
C26 C25 1.409 . S
C26 H28 0.951 . S
C27 C22 1.491 . S
C27 C29 1.382 . S
C27 C31 1.404 . S
H28 C26 0.951 . S
C29 C27 1.382 . S
C29 C30 1.390 . S
C29 H34 0.949 . S
C30 C29 1.390 . S
C30 C35 1.399 . S
C31 C27 1.404 . S
C31 H32 0.950 . S
C31 C33 1.375 . S
H32 C31 0.950 . S
C33 C31 1.375 . S
C33 C35 1.382 . S
C33 H37 0.950 . S
H34 C29 0.949 . S
C35 C30 1.399 . S
C35 C33 1.382 . S
C35 H36 0.952 . S
H36 C35 0.952 . S
H37 C33 0.950 . S
H38 C39 0.949 . S
C39 H38 0.949 . S
C39 C40 1.395 . S
C39 C41 1.391 . S
C40 C39 1.395 . S
C40 C43 1.390 . S
C41 C39 1.391 . S
C41 C45 1.387 . S
C41 C46 1.491 . S
H42 C43 0.950 . S
C43 C40 1.390 . S
C43 H42 0.950 . S
C43 C44 1.378 . S
C44 C43 1.378 . S
C44 C45 1.409 . S
C45 C41 1.387 . S
C45 C44 1.409 . S
C45 H47 0.951 . S
C46 C41 1.491 . S
C46 C48 1.382 . S
C46 C50 1.404 . S
H47 C45 0.951 . S
C48 C46 1.382 . S
C48 C49 1.390 . S
C48 H53 0.949 . S
C49 C48 1.390 . S
C49 C54 1.399 . S
C50 C46 1.404 . S
C50 H51 0.950 . S
C50 C52 1.375 . S
H51 C50 0.950 . S
C52 C50 1.375 . S
C52 C54 1.382 . S
C52 H56 0.950 . S
H53 C48 0.949 . S
C54 C49 1.399 . S
C54 C52 1.382 . S
C54 H55 0.952 . S
H55 C54 0.952 . S
H56 C52 0.950 . S
H57 C58 0.949 . S
C58 H57 0.949 . S
C58 C59 1.395 . S
C58 C60 1.391 . S
C59 C58 1.395 . S
C59 C62 1.390 . S
C60 C58 1.391 . S
C60 C64 1.387 . S
C60 C65 1.491 . S
H61 C62 0.950 . S
C62 C59 1.390 . S
C62 H61 0.950 . S
C62 C63 1.378 . S
C63 C62 1.378 . S
C63 C64 1.409 . S
C64 C60 1.387 . S
C64 C63 1.409 . S
C64 H66 0.951 . S
C65 C60 1.491 . S
C65 C67 1.382 . S
C65 C69 1.404 . S
H66 C64 0.951 . S
C67 C65 1.382 . S
C67 C68 1.390 . S
C67 H72 0.949 . S
C68 C67 1.390 . S
C68 C73 1.399 . S
C69 C65 1.404 . S
C69 H70 0.950 . S
C69 C71 1.375 . S
H70 C69 0.950 . S
C71 C69 1.375 . S
C71 C73 1.382 . S
C71 H75 0.950 . S
H72 C67 0.949 . S
C73 C68 1.399 . S
C73 C71 1.382 . S
C73 H74 0.952 . S
H74 C73 0.952 . S
H75 C71 0.950 . S
H76 C77 0.949 . S
C77 H76 0.949 . S
C77 C78 1.395 . S
C77 C79 1.391 . S
C78 C77 1.395 . S
C78 C81 1.390 . S
C79 C77 1.391 . S
C79 C83 1.387 . S
C79 C84 1.491 . S
H80 C81 0.950 . S
C81 C78 1.390 . S
C81 H80 0.950 . S
C81 C82 1.378 . S
C82 C81 1.378 . S
C82 C83 1.409 . S
C83 C79 1.387 . S
C83 C82 1.409 . S
C83 H85 0.951 . S
C84 C79 1.491 . S
C84 C86 1.382 . S
C84 C88 1.404 . S
H85 C83 0.951 . S
C86 C84 1.382 . S
C86 C87 1.390 . S
C86 H91 0.949 . S
C87 C86 1.390 . S
C87 C92 1.399 . S
C88 C84 1.404 . S
C88 H89 0.950 . S
C88 C90 1.375 . S
H89 C88 0.950 . S
C90 C88 1.375 . S
C90 C92 1.382 . S
C90 H94 0.950 . S
H91 C86 0.949 . S
C92 C87 1.399 . S
C92 C90 1.382 . S
C92 H93 0.952 . S
H93 C92 0.952 . S
H94 C90 0.950 . S
H95 C96 0.949 . S
C96 H95 0.949 . S
C96 C97 1.395 . S
C96 C98 1.391 . S
C97 C96 1.395 . S
C97 C100 1.390 . S
C98 C96 1.391 . S
C98 C102 1.387 . S
C98 C103 1.491 . S
H99 C100 0.950 . S
C100 C97 1.390 . S
C100 H99 0.950 . S
C100 C101 1.378 . S
C101 C100 1.378 . S
C101 C102 1.409 . S
C102 C98 1.387 . S
C102 C101 1.409 . S
C102 H104 0.951 . S
C103 C98 1.491 . S
C103 C105 1.382 . S
C103 C107 1.404 . S
H104 C102 0.951 . S
C105 C103 1.382 . S
C105 C106 1.390 . S
C105 H110 0.949 . S
C106 C105 1.390 . S
C106 C111 1.399 . S
C107 C103 1.404 . S
C107 H108 0.950 . S
C107 C109 1.375 . S
H108 C107 0.950 . S
C109 C107 1.375 . S
C109 C111 1.382 . S
C109 H113 0.950 . S
H110 C105 0.949 . S
C111 C106 1.399 . S
C111 C109 1.382 . S
C111 H112 0.952 . S
H112 C111 0.952 . S
H113 C109 0.950 . S
H114 C115 0.949 . S
C115 H114 0.949 . S
C115 C116 1.395 . S
C115 C117 1.391 . S
C116 C115 1.395 . S
C116 C119 1.390 . S
C117 C115 1.391 . S
C117 C121 1.387 . S
C117 C122 1.491 . S
H118 C119 0.950 . S
C119 C116 1.390 . S
C119 H118 0.950 . S
C119 C120 1.378 . S
C120 C119 1.378 . S
C120 C121 1.409 . S
C121 C117 1.387 . S
C121 C120 1.409 . S
C121 H123 0.951 . S
C122 C117 1.491 . S
C122 C124 1.382 . S
C122 C126 1.404 . S
H123 C121 0.951 . S
C124 C122 1.382 . S
C124 C125 1.390 . S
C124 H129 0.949 . S
C125 C124 1.390 . S
C125 C130 1.399 . S
C126 C122 1.404 . S
C126 H127 0.950 . S
C126 C128 1.375 . S
H127 C126 0.950 . S
C128 C126 1.375 . S
C128 C130 1.382 . S
C128 H132 0.950 . S
H129 C124 0.949 . S
C130 C125 1.399 . S
C130 C128 1.382 . S
C130 H131 0.952 . S
H131 C130 0.952 . S
H132 C128 0.950 . S
H133 C134 0.949 . S
C134 H133 0.949 . S
C134 C135 1.395 . S
C134 C136 1.391 . S
C135 C134 1.395 . S
C135 C138 1.390 . S
C136 C134 1.391 . S
C136 C140 1.387 . S
C136 C141 1.491 . S
H137 C138 0.950 . S
C138 C135 1.390 . S
C138 H137 0.950 . S
C138 C139 1.378 . S
C139 C138 1.378 . S
C139 C140 1.409 . S
C140 C136 1.387 . S
C140 C139 1.409 . S
C140 H142 0.951 . S
C141 C136 1.491 . S
C141 C143 1.382 . S
C141 C145 1.404 . S
H142 C140 0.951 . S
C143 C141 1.382 . S
C143 C144 1.390 . S
C143 H148 0.949 . S
C144 C143 1.390 . S
C144 C149 1.399 . S
C145 C141 1.404 . S
C145 H146 0.950 . S
C145 C147 1.375 . S
H146 C145 0.950 . S
C147 C145 1.375 . S
C147 C149 1.382 . S
C147 H151 0.950 . S
H148 C143 0.949 . S
C149 C144 1.399 . S
C149 C147 1.382 . S
C149 H150 0.952 . S
H150 C149 0.952 . S
H151 C147 0.950 . S
H152 C153 0.949 . S
C153 H152 0.949 . S
C153 C154 1.395 . S
C153 C155 1.391 . S
C154 C153 1.395 . S
C154 C157 1.390 . S
C155 C153 1.391 . S
C155 C159 1.387 . S
C155 C160 1.491 . S
H156 C157 0.950 . S
C157 C154 1.390 . S
C157 H156 0.950 . S
C157 C158 1.378 . S
C158 C157 1.378 . S
C158 C159 1.409 . S
C159 C155 1.387 . S
C159 C158 1.409 . S
C159 H161 0.951 . S
C160 C155 1.491 . S
C160 C162 1.382 . S
C160 C164 1.404 . S
H161 C159 0.951 . S
C162 C160 1.382 . S
C162 C163 1.390 . S
C162 H167 0.949 . S
C163 C162 1.390 . S
C163 C168 1.399 . S
C164 C160 1.404 . S
C164 H165 0.950 . S
C164 C166 1.375 . S
H165 C164 0.950 . S
C166 C164 1.375 . S
C166 C168 1.382 . S
C166 H170 0.950 . S
H167 C162 0.949 . S
C168 C163 1.399 . S
C168 C166 1.382 . S
C168 H169 0.952 . S
H169 C168 0.952 . S
H170 C166 0.950 . S
H171 C172 0.949 . S
C172 H171 0.949 . S
C172 C173 1.395 . S
C172 C174 1.391 . S
C173 C172 1.395 . S
C173 C176 1.390 . S
C174 C172 1.391 . S
C174 C178 1.387 . S
C174 C179 1.491 . S
H175 C176 0.950 . S
C176 C173 1.390 . S
C176 H175 0.950 . S
C176 C177 1.378 . S
C177 C176 1.378 . S
C177 C178 1.409 . S
C178 C174 1.387 . S
C178 C177 1.409 . S
C178 H180 0.951 . S
C179 C174 1.491 . S
C179 C181 1.382 . S
C179 C183 1.404 . S
H180 C178 0.951 . S
C181 C179 1.382 . S
C181 C182 1.390 . S
C181 H186 0.949 . S
C182 C181 1.390 . S
C182 C187 1.399 . S
C183 C179 1.404 . S
C183 H184 0.950 . S
C183 C185 1.375 . S
H184 C183 0.950 . S
C185 C183 1.375 . S
C185 C187 1.382 . S
C185 H189 0.950 . S
H186 C181 0.949 . S
C187 C182 1.399 . S
C187 C185 1.382 . S
C187 H188 0.952 . S
H188 C187 0.952 . S
H189 C185 0.950 . S
H190 C191 0.949 . S
C191 H190 0.949 . S
C191 C192 1.395 . S
C191 C193 1.391 . S
C192 C191 1.395 . S
C192 C195 1.390 . S
C193 C191 1.391 . S
C193 C197 1.387 . S
C193 C198 1.491 . S
H194 C195 0.950 . S
C195 C192 1.390 . S
C195 H194 0.950 . S
C195 C196 1.378 . S
C196 C195 1.378 . S
C196 C197 1.409 . S
C197 C193 1.387 . S
C197 C196 1.409 . S
C197 H199 0.951 . S
C198 C193 1.491 . S
C198 C200 1.382 . S
C198 C202 1.404 . S
H199 C197 0.951 . S
C200 C198 1.382 . S
C200 C201 1.390 . S
C200 H205 0.949 . S
C201 C200 1.390 . S
C201 C206 1.399 . S
C202 C198 1.404 . S
C202 H203 0.950 . S
C202 C204 1.375 . S
H203 C202 0.950 . S
C204 C202 1.375 . S
C204 C206 1.382 . S
C204 H208 0.950 . S
H205 C200 0.949 . S
C206 C201 1.399 . S
C206 C204 1.382 . S
C206 H207 0.952 . S
H207 C206 0.952 . S
H208 C204 0.950 . S
H209 C210 0.949 . S
C210 H209 0.949 . S
C210 C211 1.395 . S
C210 C212 1.391 . S
C211 C210 1.395 . S
C211 C214 1.390 . S
C212 C210 1.391 . S
C212 C216 1.387 . S
C212 C217 1.491 . S
H213 C214 0.950 . S
C214 C211 1.390 . S
C214 H213 0.950 . S
C214 C215 1.378 . S
C215 C214 1.378 . S
C215 C216 1.409 . S
C216 C212 1.387 . S
C216 C215 1.409 . S
C216 H218 0.951 . S
C217 C212 1.491 . S
C217 C219 1.382 . S
C217 C221 1.404 . S
H218 C216 0.951 . S
C219 C217 1.382 . S
C219 C220 1.390 . S
C219 H224 0.949 . S
C220 C219 1.390 . S
C220 C225 1.399 . S
C221 C217 1.404 . S
C221 H222 0.950 . S
C221 C223 1.375 . S
H222 C221 0.950 . S
C223 C221 1.375 . S
C223 C225 1.382 . S
C223 H227 0.950 . S
H224 C219 0.949 . S
C225 C220 1.399 . S
C225 C223 1.382 . S
C225 H226 0.952 . S
H226 C225 0.952 . S
H227 C223 0.950 . S
H228 C229 0.949 . S
C229 H228 0.949 . S
C229 C230 1.395 . S
C229 C231 1.391 . S
C230 C229 1.395 . S
C230 C233 1.390 . S
C231 C229 1.391 . S
C231 C235 1.387 . S
C231 C236 1.491 . S
H232 C233 0.950 . S
C233 C230 1.390 . S
C233 H232 0.950 . S
C233 C234 1.378 . S
C234 C233 1.378 . S
C234 C235 1.409 . S
C235 C231 1.387 . S
C235 C234 1.409 . S
C235 H237 0.951 . S
C236 C231 1.491 . S
C236 C238 1.382 . S
C236 C240 1.404 . S
H237 C235 0.951 . S
C238 C236 1.382 . S
C238 C239 1.390 . S
C238 H243 0.949 . S
C239 C238 1.390 . S
C239 C244 1.399 . S
C240 C236 1.404 . S
C240 H241 0.950 . S
C240 C242 1.375 . S
H241 C240 0.950 . S
C242 C240 1.375 . S
C242 C244 1.382 . S
C242 H246 0.950 . S
H243 C238 0.949 . S
C244 C239 1.399 . S
C244 C242 1.382 . S
C244 H245 0.952 . S
H245 C244 0.952 . S
H246 C242 0.950 . S
H247 C248 0.949 . S
C248 H247 0.949 . S
C248 C249 1.395 . S
C248 C250 1.391 . S
C249 C248 1.395 . S
C249 C252 1.390 . S
C250 C248 1.391 . S
C250 C254 1.387 . S
C250 C255 1.491 . S
H251 C252 0.950 . S
C252 C249 1.390 . S
C252 H251 0.950 . S
C252 C253 1.378 . S
C253 C252 1.378 . S
C253 C254 1.409 . S
C254 C250 1.387 . S
C254 C253 1.409 . S
C254 H256 0.951 . S
C255 C250 1.491 . S
C255 C257 1.382 . S
C255 C259 1.404 . S
H256 C254 0.951 . S
C257 C255 1.382 . S
C257 C258 1.390 . S
C257 H262 0.949 . S
C258 C257 1.390 . S
C258 C263 1.399 . S
C259 C255 1.404 . S
C259 H260 0.950 . S
C259 C261 1.375 . S
H260 C259 0.950 . S
C261 C259 1.375 . S
C261 C263 1.382 . S
C261 H265 0.950 . S
H262 C257 0.949 . S
C263 C258 1.399 . S
C263 C261 1.382 . S
C263 H264 0.952 . S
H264 C263 0.952 . S
H265 C261 0.950 . S
H266 C267 0.949 . S
C267 H266 0.949 . S
C267 C268 1.395 . S
C267 C269 1.391 . S
C268 C267 1.395 . S
C268 C271 1.390 . S
C269 C267 1.391 . S
C269 C273 1.387 . S
C269 C274 1.491 . S
H270 C271 0.950 . S
C271 C268 1.390 . S
C271 H270 0.950 . S
C271 C272 1.378 . S
C272 C271 1.378 . S
C272 C273 1.409 . S
C273 C269 1.387 . S
C273 C272 1.409 . S
C273 H275 0.951 . S
C274 C269 1.491 . S
C274 C276 1.382 . S
C274 C278 1.404 . S
H275 C273 0.951 . S
C276 C274 1.382 . S
C276 C277 1.390 . S
C276 H281 0.949 . S
C277 C276 1.390 . S
C277 C282 1.399 . S
C278 C274 1.404 . S
C278 H279 0.950 . S
C278 C280 1.375 . S
H279 C278 0.950 . S
C280 C278 1.375 . S
C280 C282 1.382 . S
C280 H284 0.950 . S
H281 C276 0.949 . S
C282 C277 1.399 . S
C282 C280 1.382 . S
C282 H283 0.952 . S
H283 C282 0.952 . S
H284 C280 0.950 . S
H285 C286 0.949 . S
C286 H285 0.949 . S
C286 C287 1.395 . S
C286 C288 1.391 . S
C287 C286 1.395 . S
C287 C290 1.390 . S
C288 C286 1.391 . S
C288 C292 1.387 . S
C288 C293 1.491 . S
H289 C290 0.950 . S
C290 C287 1.390 . S
C290 H289 0.950 . S
C290 C291 1.378 . S
C291 C290 1.378 . S
C291 C292 1.409 . S
C292 C288 1.387 . S
C292 C291 1.409 . S
C292 H294 0.951 . S
C293 C288 1.491 . S
C293 C295 1.382 . S
C293 C297 1.404 . S
H294 C292 0.951 . S
C295 C293 1.382 . S
C295 C296 1.390 . S
C295 H300 0.949 . S
C296 C295 1.390 . S
C296 C301 1.399 . S
C297 C293 1.404 . S
C297 H298 0.950 . S
C297 C299 1.375 . S
H298 C297 0.950 . S
C299 C297 1.375 . S
C299 C301 1.382 . S
C299 H303 0.950 . S
H300 C295 0.949 . S
C301 C296 1.399 . S
C301 C299 1.382 . S
C301 H302 0.952 . S
H302 C301 0.952 . S
H303 C299 0.950 . S
H304 C305 0.949 . S
C305 H304 0.949 . S
C305 C306 1.395 . S
C305 C307 1.391 . S
C306 C305 1.395 . S
C306 C309 1.390 . S
C307 C305 1.391 . S
C307 C311 1.387 . S
C307 C312 1.491 . S
H308 C309 0.950 . S
C309 C306 1.390 . S
C309 H308 0.950 . S
C309 C310 1.378 . S
C310 C309 1.378 . S
C310 C311 1.409 . S
C311 C307 1.387 . S
C311 C310 1.409 . S
C311 H313 0.951 . S
C312 C307 1.491 . S
C312 C314 1.382 . S
C312 C316 1.404 . S
H313 C311 0.951 . S
C314 C312 1.382 . S
C314 C315 1.390 . S
C314 H319 0.949 . S
C315 C314 1.390 . S
C315 C320 1.399 . S
C316 C312 1.404 . S
C316 H317 0.950 . S
C316 C318 1.375 . S
H317 C316 0.950 . S
C318 C316 1.375 . S
C318 C320 1.382 . S
C318 H322 0.950 . S
H319 C314 0.949 . S
C320 C315 1.399 . S
C320 C318 1.382 . S
C320 H321 0.952 . S
H321 C320 0.952 . S
H322 C318 0.950 . S
H323 C324 0.949 . S
C324 H323 0.949 . S
C324 C325 1.395 . S
C324 C326 1.391 . S
C325 C324 1.395 . S
C325 C328 1.390 . S
C326 C324 1.391 . S
C326 C330 1.387 . S
C326 C331 1.491 . S
H327 C328 0.950 . S
C328 C325 1.390 . S
C328 H327 0.950 . S
C328 C329 1.378 . S
C329 C328 1.378 . S
C329 C330 1.409 . S
C330 C326 1.387 . S
C330 C329 1.409 . S
C330 H332 0.951 . S
C331 C326 1.491 . S
C331 C333 1.382 . S
C331 C335 1.404 . S
H332 C330 0.951 . S
C333 C331 1.382 . S
C333 C334 1.390 . S
C333 H338 0.949 . S
C334 C333 1.390 . S
C334 C339 1.399 . S
C335 C331 1.404 . S
C335 H336 0.950 . S
C335 C337 1.375 . S
H336 C335 0.950 . S
C337 C335 1.375 . S
C337 C339 1.382 . S
C337 H341 0.950 . S
H338 C333 0.949 . S
C339 C334 1.399 . S
C339 C337 1.382 . S
C339 H340 0.952 . S
H340 C339 0.952 . S
H341 C337 0.950 . S
H342 C343 0.949 . S
C343 H342 0.949 . S
C343 C344 1.395 . S
C343 C345 1.391 . S
C344 C343 1.395 . S
C344 C347 1.390 . S
C345 C343 1.391 . S
C345 C349 1.387 . S
C345 C350 1.491 . S
H346 C347 0.950 . S
C347 C344 1.390 . S
C347 H346 0.950 . S
C347 C348 1.378 . S
C348 C347 1.378 . S
C348 C349 1.409 . S
C349 C345 1.387 . S
C349 C348 1.409 . S
C349 H351 0.951 . S
C350 C345 1.491 . S
C350 C352 1.382 . S
C350 C354 1.404 . S
H351 C349 0.951 . S
C352 C350 1.382 . S
C352 C353 1.390 . S
C352 H357 0.949 . S
C353 C352 1.390 . S
C353 C358 1.399 . S
C354 C350 1.404 . S
C354 H355 0.950 . S
C354 C356 1.375 . S
H355 C354 0.950 . S
C356 C354 1.375 . S
C356 C358 1.382 . S
C356 H360 0.950 . S
H357 C352 0.949 . S
C358 C353 1.399 . S
C358 C356 1.382 . S
C358 H359 0.952 . S
H359 C358 0.952 . S
H360 C356 0.950 . S
H361 C362 0.949 . S
C362 H361 0.949 . S
C362 C363 1.395 . S
C362 C364 1.391 . S
C363 C362 1.395 . S
C363 C366 1.390 . S
C364 C362 1.391 . S
C364 C368 1.387 . S
C364 C369 1.491 . S
H365 C366 0.950 . S
C366 C363 1.390 . S
C366 H365 0.950 . S
C366 C367 1.378 . S
C367 C366 1.378 . S
C367 C368 1.409 . S
C368 C364 1.387 . S
C368 C367 1.409 . S
C368 H370 0.951 . S
C369 C364 1.491 . S
C369 C371 1.382 . S
C369 C373 1.404 . S
H370 C368 0.951 . S
C371 C369 1.382 . S
C371 C372 1.390 . S
C371 H376 0.949 . S
C372 C371 1.390 . S
C372 C377 1.399 . S
C373 C369 1.404 . S
C373 H374 0.950 . S
C373 C375 1.375 . S
H374 C373 0.950 . S
C375 C373 1.375 . S
C375 C377 1.382 . S
C375 H379 0.950 . S
H376 C371 0.949 . S
C377 C372 1.399 . S
C377 C375 1.382 . S
C377 H378 0.952 . S
H378 C377 0.952 . S
H379 C375 0.950 . S
H380 C381 0.949 . S
C381 H380 0.949 . S
C381 C382 1.395 . S
C381 C383 1.391 . S
C382 C381 1.395 . S
C382 C385 1.390 . S
C383 C381 1.391 . S
C383 C387 1.387 . S
C383 C388 1.491 . S
H384 C385 0.950 . S
C385 C382 1.390 . S
C385 H384 0.950 . S
C385 C386 1.378 . S
C386 C385 1.378 . S
C386 C387 1.409 . S
C387 C383 1.387 . S
C387 C386 1.409 . S
C387 H389 0.951 . S
C388 C383 1.491 . S
C388 C390 1.382 . S
C388 C392 1.404 . S
H389 C387 0.951 . S
C390 C388 1.382 . S
C390 C391 1.390 . S
C390 H395 0.949 . S
C391 C390 1.390 . S
C391 C396 1.399 . S
C392 C388 1.404 . S
C392 H393 0.950 . S
C392 C394 1.375 . S
H393 C392 0.950 . S
C394 C392 1.375 . S
C394 C396 1.382 . S
C394 H398 0.950 . S
H395 C390 0.949 . S
C396 C391 1.399 . S
C396 C394 1.382 . S
C396 H397 0.952 . S
H397 C396 0.952 . S
H398 C394 0.950 . S
H399 C400 0.949 . S
C400 H399 0.949 . S
C400 C401 1.395 . S
C400 C402 1.391 . S
C401 C400 1.395 . S
C401 C404 1.390 . S
C402 C400 1.391 . S
C402 C406 1.387 . S
C402 C407 1.491 . S
H403 C404 0.950 . S
C404 C401 1.390 . S
C404 H403 0.950 . S
C404 C405 1.378 . S
C405 C404 1.378 . S
C405 C406 1.409 . S
C406 C402 1.387 . S
C406 C405 1.409 . S
C406 H408 0.951 . S
C407 C402 1.491 . S
C407 C409 1.382 . S
C407 C411 1.404 . S
H408 C406 0.951 . S
C409 C407 1.382 . S
C409 C410 1.390 . S
C409 H414 0.949 . S
C410 C409 1.390 . S
C410 C415 1.399 . S
C411 C407 1.404 . S
C411 H412 0.950 . S
C411 C413 1.375 . S
H412 C411 0.950 . S
C413 C411 1.375 . S
C413 C415 1.382 . S
C413 H417 0.950 . S
H414 C409 0.949 . S
C415 C410 1.399 . S
C415 C413 1.382 . S
C415 H416 0.952 . S
H416 C415 0.952 . S
H417 C413 0.950 . S
H418 C419 0.949 . S
C419 H418 0.949 . S
C419 C420 1.395 . S
C419 C421 1.391 . S
C420 C419 1.395 . S
C420 C423 1.390 . S
C421 C419 1.391 . S
C421 C425 1.387 . S
C421 C426 1.491 . S
H422 C423 0.950 . S
C423 C420 1.390 . S
C423 H422 0.950 . S
C423 C424 1.378 . S
C424 C423 1.378 . S
C424 C425 1.409 . S
C425 C421 1.387 . S
C425 C424 1.409 . S
C425 H427 0.951 . S
C426 C421 1.491 . S
C426 C428 1.382 . S
C426 C430 1.404 . S
H427 C425 0.951 . S
C428 C426 1.382 . S
C428 C429 1.390 . S
C428 H433 0.949 . S
C429 C428 1.390 . S
C429 C434 1.399 . S
C430 C426 1.404 . S
C430 H431 0.950 . S
C430 C432 1.375 . S
H431 C430 0.950 . S
C432 C430 1.375 . S
C432 C434 1.382 . S
C432 H436 0.950 . S
H433 C428 0.949 . S
C434 C429 1.399 . S
C434 C432 1.382 . S
C434 H435 0.952 . S
H435 C434 0.952 . S
H436 C432 0.950 . S
H437 C438 0.949 . S
C438 H437 0.949 . S
C438 C439 1.395 . S
C438 C440 1.391 . S
C439 C438 1.395 . S
C439 C442 1.390 . S
C440 C438 1.391 . S
C440 C444 1.387 . S
C440 C445 1.491 . S
H441 C442 0.950 . S
C442 C439 1.390 . S
C442 H441 0.950 . S
C442 C443 1.378 . S
C443 C442 1.378 . S
C443 C444 1.409 . S
C444 C440 1.387 . S
C444 C443 1.409 . S
C444 H446 0.951 . S
C445 C440 1.491 . S
C445 C447 1.382 . S
C445 C449 1.404 . S
H446 C444 0.951 . S
C447 C445 1.382 . S
C447 C448 1.390 . S
C447 H452 0.949 . S
C448 C447 1.390 . S
C448 C453 1.399 . S
C449 C445 1.404 . S
C449 H450 0.950 . S
C449 C451 1.375 . S
H450 C449 0.950 . S
C451 C449 1.375 . S
C451 C453 1.382 . S
C451 H455 0.950 . S
H452 C447 0.949 . S
C453 C448 1.399 . S
C453 C451 1.382 . S
C453 H454 0.952 . S
H454 C453 0.952 . S
H455 C451 0.950 . S
H456 C457 0.949 . S
C457 H456 0.949 . S
C457 C458 1.395 . S
C457 C459 1.391 . S
C458 C457 1.395 . S
C458 C461 1.390 . S
C459 C457 1.391 . S
C459 C463 1.387 . S
C459 C464 1.491 . S
H460 C461 0.950 . S
C461 C458 1.390 . S
C461 H460 0.950 . S
C461 C462 1.378 . S
C462 C461 1.378 . S
C462 C463 1.409 . S
C463 C459 1.387 . S
C463 C462 1.409 . S
C463 H465 0.951 . S
C464 C459 1.491 . S
C464 C466 1.382 . S
C464 C468 1.404 . S
H465 C463 0.951 . S
C466 C464 1.382 . S
C466 C467 1.390 . S
C466 H471 0.949 . S
C467 C466 1.390 . S
C467 C472 1.399 . S
C468 C464 1.404 . S
C468 H469 0.950 . S
C468 C470 1.375 . S
H469 C468 0.950 . S
C470 C468 1.375 . S
C470 C472 1.382 . S
C470 H474 0.950 . S
H471 C466 0.949 . S
C472 C467 1.399 . S
C472 C470 1.382 . S
C472 H473 0.952 . S
H473 C472 0.952 . S
H474 C470 0.950 . S
H475 C476 0.949 . S
C476 H475 0.949 . S
C476 C477 1.395 . S
C476 C478 1.391 . S
C477 C476 1.395 . S
C477 C480 1.390 . S
C478 C476 1.391 . S
C478 C482 1.387 . S
C478 C483 1.491 . S
H479 C480 0.950 . S
C480 C477 1.390 . S
C480 H479 0.950 . S
C480 C481 1.378 . S
C481 C480 1.378 . S
C481 C482 1.409 . S
C482 C478 1.387 . S
C482 C481 1.409 . S
C482 H484 0.951 . S
C483 C478 1.491 . S
C483 C485 1.382 . S
C483 C487 1.404 . S
H484 C482 0.951 . S
C485 C483 1.382 . S
C485 C486 1.390 . S
C485 H490 0.949 . S
C486 C485 1.390 . S
C486 C491 1.399 . S
C487 C483 1.404 . S
C487 H488 0.950 . S
C487 C489 1.375 . S
H488 C487 0.950 . S
C489 C487 1.375 . S
C489 C491 1.382 . S
C489 H493 0.950 . S
H490 C485 0.949 . S
C491 C486 1.399 . S
C491 C489 1.382 . S
C491 H492 0.952 . S
H492 C491 0.952 . S
H493 C489 0.950 . S
H494 C495 0.949 . S
C495 H494 0.949 . S
C495 C496 1.395 . S
C495 C497 1.391 . S
C496 C495 1.395 . S
C496 C499 1.390 . S
C497 C495 1.391 . S
C497 C501 1.387 . S
C497 C502 1.491 . S
H498 C499 0.950 . S
C499 C496 1.390 . S
C499 H498 0.950 . S
C499 C500 1.378 . S
C500 C499 1.378 . S
C500 C501 1.409 . S
C501 C497 1.387 . S
C501 C500 1.409 . S
C501 H503 0.951 . S
C502 C497 1.491 . S
C502 C504 1.382 . S
C502 C506 1.404 . S
H503 C501 0.951 . S
C504 C502 1.382 . S
C504 C505 1.390 . S
C504 H509 0.949 . S
C505 C504 1.390 . S
C505 C510 1.399 . S
C506 C502 1.404 . S
C506 H507 0.950 . S
C506 C508 1.375 . S
H507 C506 0.950 . S
C508 C506 1.375 . S
C508 C510 1.382 . S
C508 H512 0.950 . S
H509 C504 0.949 . S
C510 C505 1.399 . S
C510 C508 1.382 . S
C510 H511 0.952 . S
H511 C510 0.952 . S
H512 C508 0.950 . S
H513 C514 0.949 . S
C514 H513 0.949 . S
C514 C515 1.395 . S
C514 C516 1.391 . S
C515 C514 1.395 . S
C515 C518 1.390 . S
C516 C514 1.391 . S
C516 C520 1.387 . S
C516 C521 1.491 . S
H517 C518 0.950 . S
C518 C515 1.390 . S
C518 H517 0.950 . S
C518 C519 1.378 . S
C519 C518 1.378 . S
C519 C520 1.409 . S
C520 C516 1.387 . S
C520 C519 1.409 . S
C520 H522 0.951 . S
C521 C516 1.491 . S
C521 C523 1.382 . S
C521 C525 1.404 . S
H522 C520 0.951 . S
C523 C521 1.382 . S
C523 C524 1.390 . S
C523 H528 0.949 . S
C524 C523 1.390 . S
C524 C529 1.399 . S
C525 C521 1.404 . S
C525 H526 0.950 . S
C525 C527 1.375 . S
H526 C525 0.950 . S
C527 C525 1.375 . S
C527 C529 1.382 . S
C527 H531 0.950 . S
H528 C523 0.949 . S
C529 C524 1.399 . S
C529 C527 1.382 . S
C529 H530 0.952 . S
H530 C529 0.952 . S
H531 C527 0.950 . S
H532 C533 0.949 . S
C533 H532 0.949 . S
C533 C534 1.395 . S
C533 C535 1.391 . S
C534 C533 1.395 . S
C534 C537 1.390 . S
C535 C533 1.391 . S
C535 C539 1.387 . S
C535 C540 1.491 . S
H536 C537 0.950 . S
C537 C534 1.390 . S
C537 H536 0.950 . S
C537 C538 1.378 . S
C538 C537 1.378 . S
C538 C539 1.409 . S
C539 C535 1.387 . S
C539 C538 1.409 . S
C539 H541 0.951 . S
C540 C535 1.491 . S
C540 C542 1.382 . S
C540 C544 1.404 . S
H541 C539 0.951 . S
C542 C540 1.382 . S
C542 C543 1.390 . S
C542 H547 0.949 . S
C543 C542 1.390 . S
C543 C548 1.399 . S
C544 C540 1.404 . S
C544 H545 0.950 . S
C544 C546 1.375 . S
H545 C544 0.950 . S
C546 C544 1.375 . S
C546 C548 1.382 . S
C546 H550 0.950 . S
H547 C542 0.949 . S
C548 C543 1.399 . S
C548 C546 1.382 . S
C548 H549 0.952 . S
H549 C548 0.952 . S
H550 C546 0.950 . S
H551 C552 0.949 . S
C552 H551 0.949 . S
C552 C553 1.395 . S
C552 C554 1.391 . S
C553 C552 1.395 . S
C553 C556 1.390 . S
C554 C552 1.391 . S
C554 C558 1.387 . S
C554 C559 1.491 . S
H555 C556 0.950 . S
C556 C553 1.390 . S
C556 H555 0.950 . S
C556 C557 1.378 . S
C557 C556 1.378 . S
C557 C558 1.409 . S
C558 C554 1.387 . S
C558 C557 1.409 . S
C558 H560 0.951 . S
C559 C554 1.491 . S
C559 C561 1.382 . S
C559 C563 1.404 . S
H560 C558 0.951 . S
C561 C559 1.382 . S
C561 C562 1.390 . S
C561 H566 0.949 . S
C562 C561 1.390 . S
C562 C567 1.399 . S
C563 C559 1.404 . S
C563 H564 0.950 . S
C563 C565 1.375 . S
H564 C563 0.950 . S
C565 C563 1.375 . S
C565 C567 1.382 . S
C565 H569 0.950 . S
H566 C561 0.949 . S
C567 C562 1.399 . S
C567 C565 1.382 . S
C567 H568 0.952 . S
H568 C567 0.952 . S
H569 C565 0.950 . S
H570 C571 0.949 . S
C571 H570 0.949 . S
C571 C572 1.395 . S
C571 C573 1.391 . S
C572 C571 1.395 . S
C572 C575 1.390 . S
C573 C571 1.391 . S
C573 C577 1.387 . S
C573 C578 1.491 . S
H574 C575 0.950 . S
C575 C572 1.390 . S
C575 H574 0.950 . S
C575 C576 1.378 . S
C576 C575 1.378 . S
C576 C577 1.409 . S
C577 C573 1.387 . S
C577 C576 1.409 . S
C577 H579 0.951 . S
C578 C573 1.491 . S
C578 C580 1.382 . S
C578 C582 1.404 . S
H579 C577 0.951 . S
C580 C578 1.382 . S
C580 C581 1.390 . S
C580 H585 0.949 . S
C581 C580 1.390 . S
C581 C586 1.399 . S
C582 C578 1.404 . S
C582 H583 0.950 . S
C582 C584 1.375 . S
H583 C582 0.950 . S
C584 C582 1.375 . S
C584 C586 1.382 . S
C584 H588 0.950 . S
H585 C580 0.949 . S
C586 C581 1.399 . S
C586 C584 1.382 . S
C586 H587 0.952 . S
H587 C586 0.952 . S
H588 C584 0.950 . S
H589 C590 0.949 . S
C590 H589 0.949 . S
C590 C591 1.395 . S
C590 C592 1.391 . S
C591 C590 1.395 . S
C591 C594 1.390 . S
C592 C590 1.391 . S
C592 C596 1.387 . S
C592 C597 1.491 . S
H593 C594 0.950 . S
C594 C591 1.390 . S
C594 H593 0.950 . S
C594 C595 1.378 . S
C595 C594 1.378 . S
C595 C596 1.409 . S
C596 C592 1.387 . S
C596 C595 1.409 . S
C596 H598 0.951 . S
C597 C592 1.491 . S
C597 C599 1.382 . S
C597 C601 1.404 . S
H598 C596 0.951 . S
C599 C597 1.382 . S
C599 C600 1.390 . S
C599 H604 0.949 . S
C600 C599 1.390 . S
C600 C605 1.399 . S
C601 C597 1.404 . S
C601 H602 0.950 . S
C601 C603 1.375 . S
H602 C601 0.950 . S
C603 C601 1.375 . S
C603 C605 1.382 . S
C603 H607 0.950 . S
H604 C599 0.949 . S
C605 C600 1.399 . S
C605 C603 1.382 . S
C605 H606 0.952 . S
H606 C605 0.952 . S
H607 C603 0.950 . S
Cu608 N609 1.999 . S
Cu608 O614 1.974 1_554 S
Cu608 N619 1.985 . S
Cu608 O628 1.959 . S
N609 Cu608 1.999 . S
N609 C611 1.263 1_554 S
N609 C613 1.389 . S
N610 C611 1.358 . S
N610 C612 1.400 . S
C611 N609 1.263 1_556 S
C611 N610 1.358 . S
C611 H617 0.930 . S
C612 N610 1.400 . S
C612 C613 1.351 1_556 S
C612 H629 0.930 . S
C613 N609 1.389 . S
C613 C612 1.351 1_554 S
C613 H618 0.930 . S
O614 Cu608 1.974 1_556 S
O614 C624 1.282 . S
C615 O616 1.261 . S
C615 O628 1.251 . S
O616 C615 1.261 . S
H617 C611 0.930 . S
H618 C613 0.930 . S
N619 Cu608 1.985 . S
N619 C621 1.335 . S
N619 C622 1.390 . S
N620 C621 1.345 . S
N620 C623 1.336 . S
C621 N619 1.335 . S
C621 N620 1.345 . S
C621 H626 0.930 . S
C622 N619 1.390 . S
C622 C623 1.346 . S
C622 H627 0.930 . S
C623 N620 1.336 . S
C623 C622 1.346 . S
C623 H630 0.929 . S
C624 O614 1.282 . S
C624 O625 1.216 . S
O625 C624 1.216 . S
H626 C621 0.930 . S
H627 C622 0.930 . S
O628 Cu608 1.959 . S
O628 C615 1.251 . S
H629 C612 0.930 . S
H630 C623 0.929 . S
Cu631 N632 1.999 . S
Cu631 O637 1.974 . S
Cu631 N642 1.985 . S
Cu631 O651 1.922 1_554 S
N632 Cu631 1.999 . S
N632 C634 1.263 . S
N632 C636 1.389 . S
N633 C634 1.358 . S
N633 C635 1.400 . S
C634 N632 1.263 . S
C634 N633 1.358 . S
C634 H640 0.930 . S
C635 N633 1.400 . S
C635 C636 1.351 . S
C635 H652 0.930 . S
C636 N632 1.389 . S
C636 C635 1.351 . S
C636 H641 0.930 . S
O637 Cu631 1.974 . S
O637 C647 1.282 . S
C638 O639 1.261 1_556 S
C638 O651 1.269 . S
O639 C638 1.261 1_554 S
H640 C634 0.930 . S
H641 C636 0.930 . S
N642 Cu631 1.985 . S
N642 C644 1.335 1_554 S
N642 C645 1.390 . S
N643 C644 1.345 . S
N643 C646 1.336 . S
C644 N642 1.335 1_556 S
C644 N643 1.345 . S
C644 H649 0.930 . S
C645 N642 1.390 . S
C645 C646 1.346 1_554 S
C645 H650 0.930 . S
C646 N643 1.336 . S
C646 C645 1.346 1_556 S
C646 H653 0.929 . S
C647 O637 1.282 . S
C647 O648 1.216 . S
O648 C647 1.216 . S
H649 C644 0.930 . S
H650 C645 0.930 . S
O651 Cu631 1.922 1_556 S
O651 C638 1.269 . S
H652 C635 0.930 . S
H653 C646 0.929 . S
Cu654 N655 1.999 1_554 S
Cu654 O660 1.974 1_554 S
Cu654 N665 1.985 . S
Cu654 O674 1.959 . S
N655 Cu654 1.999 1_556 S
N655 C657 1.263 . S
N655 C659 1.389 . S
N656 C657 1.358 . S
N656 C658 1.400 . S
C657 N655 1.263 . S
C657 N656 1.358 . S
C657 H663 0.930 . S
C658 N656 1.400 . S
C658 C659 1.351 . S
C658 H675 0.930 . S
C659 N655 1.389 . S
C659 C658 1.351 . S
C659 H664 0.930 1_556 S
O660 Cu654 1.974 1_556 S
O660 C670 1.282 . S
C661 O662 1.261 . S
C661 O674 1.251 . S
O662 C661 1.261 . S
H663 C657 0.930 . S
H664 C659 0.930 1_554 S
N665 Cu654 1.985 . S
N665 C667 1.335 . S
N665 C668 1.390 . S
N666 C667 1.345 . S
N666 C669 1.336 . S
C667 N665 1.335 . S
C667 N666 1.345 . S
C667 H672 0.930 . S
C668 N665 1.390 . S
C668 C669 1.346 . S
C668 H673 0.930 . S
C669 N666 1.336 . S
C669 C668 1.346 . S
C669 H676 0.929 . S
C670 O660 1.282 . S
C670 O671 1.216 . S
O671 C670 1.216 . S
H672 C667 0.930 . S
H673 C668 0.930 . S
O674 Cu654 1.959 . S
O674 C661 1.251 . S
H675 C658 0.930 . S
H676 C669 0.929 . S
Cu677 N678 1.999 . S
Cu677 O683 1.974 . S
Cu677 N688 1.985 1_554 S
Cu677 O697 1.959 1_554 S
N678 Cu677 1.999 . S
N678 C680 1.263 . S
N678 C682 1.389 . S
N679 C680 1.358 . S
N679 C681 1.400 . S
C680 N678 1.263 . S
C680 N679 1.358 . S
C680 H686 0.930 . S
C681 N679 1.400 . S
C681 C682 1.351 . S
C681 H698 0.930 . S
C682 N678 1.389 . S
C682 C681 1.351 . S
C682 H687 0.930 . S
O683 Cu677 1.974 . S
O683 C693 1.282 . S
C684 O685 1.261 . S
C684 O697 1.251 . S
O685 C684 1.261 . S
H686 C680 0.930 . S
H687 C682 0.930 . S
N688 Cu677 1.985 1_556 S
N688 C690 1.335 . S
N688 C691 1.395 . S
N689 C690 1.345 . S
N689 C692 1.336 . S
C690 N688 1.335 . S
C690 N689 1.345 . S
C690 H695 0.930 . S
C691 N688 1.395 . S
C691 C692 1.363 . S
C691 H696 0.913 1_556 S
C692 N689 1.336 . S
C692 C691 1.363 . S
C692 H699 0.929 . S
C693 O683 1.282 . S
C693 O694 1.216 . S
O694 C693 1.216 . S
H695 C690 0.930 . S
H696 C691 0.913 1_554 S
O697 Cu677 1.959 1_556 S
O697 C684 1.251 . S
H698 C681 0.930 . S
H699 C692 0.929 . S
Cu700 N701 1.999 . S
Cu700 O706 1.974 . S
Cu700 N711 1.985 . S
Cu700 O720 1.959 1_455 S
N701 Cu700 1.999 . S
N701 C703 1.263 . S
N701 C705 1.389 . S
N702 C703 1.358 . S
N702 C704 1.400 . S
C703 N701 1.263 . S
C703 N702 1.358 . S
C703 H709 0.930 . S
C704 N702 1.400 . S
C704 C705 1.351 . S
C704 H721 0.930 . S
C705 N701 1.389 . S
C705 C704 1.351 . S
C705 H710 0.930 . S
O706 Cu700 1.974 . S
O706 C716 1.282 . S
C707 O708 1.261 . S
C707 O720 1.251 . S
O708 C707 1.261 . S
H709 C703 0.930 . S
H710 C705 0.930 . S
N711 Cu700 1.985 . S
N711 C713 1.335 1_455 S
N711 C714 1.390 . S
N712 C713 1.345 . S
N712 C715 1.336 . S
C713 N711 1.335 1_655 S
C713 N712 1.345 . S
C713 H718 0.930 . S
C714 N711 1.390 . S
C714 C715 1.346 1_455 S
C714 H719 0.930 . S
C715 N712 1.336 . S
C715 C714 1.346 1_655 S
C715 H722 0.929 . S
C716 O706 1.282 . S
C716 O717 1.216 . S
O717 C716 1.216 . S
H718 C713 0.930 . S
H719 C714 0.930 . S
O720 Cu700 1.959 1_655 S
O720 C707 1.251 . S
H721 C704 0.930 . S
H722 C715 0.929 . S
Cu723 N724 1.974 1_565 S
Cu723 O729 1.943 1_565 S
Cu723 N734 2.010 . S
Cu723 O743 1.990 . S
N724 Cu723 1.974 1_545 S
N724 C726 1.263 . S
N724 C728 1.389 . S
N725 C726 1.358 . S
N725 C727 1.400 . S
C726 N724 1.263 . S
C726 N725 1.358 . S
C726 H732 0.930 . S
C727 N725 1.400 . S
C727 C728 1.351 . S
C727 H744 0.930 . S
C728 N724 1.389 . S
C728 C727 1.351 . S
C728 H733 0.930 . S
O729 Cu723 1.943 1_545 S
O729 C739 1.282 . S
C730 O731 1.261 . S
C730 O743 1.251 . S
O731 C730 1.261 . S
H732 C726 0.930 . S
H733 C728 0.930 . S
N734 Cu723 2.010 . S
N734 C736 1.335 . S
N734 C737 1.390 . S
N735 C736 1.345 . S
N735 C738 1.336 . S
C736 N734 1.335 . S
C736 N735 1.345 . S
C736 H741 0.930 . S
C737 N734 1.390 . S
C737 C738 1.346 . S
C737 H742 0.930 . S
C738 N735 1.336 . S
C738 C737 1.346 . S
C738 H745 0.929 . S
C739 O729 1.282 . S
C739 O740 1.216 . S
O740 C739 1.216 . S
H741 C736 0.930 . S
H742 C737 0.930 . S
O743 Cu723 1.990 . S
O743 C730 1.251 . S
H744 C727 0.930 . S
H745 C738 0.929 . S
Cu746 N747 1.999 . S
Cu746 O752 1.974 . S
Cu746 N757 1.985 1_655 S
Cu746 O766 1.959 1_655 S
N747 Cu746 1.999 . S
N747 C749 1.263 . S
N747 C751 1.389 . S
N748 C749 1.358 . S
N748 C750 1.400 . S
C749 N747 1.263 . S
C749 N748 1.358 . S
C749 H755 0.930 . S
C750 N748 1.400 . S
C750 C751 1.351 . S
C750 H767 0.930 . S
C751 N747 1.389 . S
C751 C750 1.351 . S
C751 H756 0.930 . S
O752 Cu746 1.974 . S
O752 C762 1.282 . S
C753 O754 1.261 . S
C753 O766 1.251 . S
O754 C753 1.261 . S
H755 C749 0.930 . S
H756 C751 0.930 . S
N757 Cu746 1.985 1_455 S
N757 C759 1.335 . S
N757 C760 1.390 . S
N758 C759 1.345 . S
N758 C761 1.336 . S
C759 N757 1.335 . S
C759 N758 1.345 . S
C759 H764 0.930 . S
C760 N757 1.390 . S
C760 C761 1.346 . S
C760 H765 0.930 1_455 S
C761 N758 1.336 . S
C761 C760 1.346 . S
C761 H768 0.929 . S
C762 O752 1.282 . S
C762 O763 1.216 . S
O763 C762 1.216 . S
H764 C759 0.930 . S
H765 C760 0.930 1_655 S
O766 Cu746 1.959 1_455 S
O766 C753 1.251 . S
H767 C750 0.930 . S
H768 C761 0.929 . S
Cu769 N770 1.999 . S
Cu769 O775 1.974 . S
Cu769 N780 1.985 1_545 S
Cu769 O789 1.959 1_545 S
N770 Cu769 1.999 . S
N770 C772 1.263 . S
N770 C774 1.389 . S
N771 C772 1.358 . S
N771 C773 1.400 . S
C772 N770 1.263 . S
C772 N771 1.358 . S
C772 H778 0.930 . S
C773 N771 1.400 . S
C773 C774 1.351 . S
C773 H790 0.930 . S
C774 N770 1.389 . S
C774 C773 1.351 . S
C774 H779 0.930 . S
O775 Cu769 1.974 . S
O775 C785 1.282 . S
C776 O777 1.261 . S
C776 O789 1.251 . S
O777 C776 1.261 . S
H778 C772 0.930 . S
H779 C774 0.930 . S
N780 Cu769 1.985 1_565 S
N780 C782 1.335 . S
N780 C783 1.390 . S
N781 C782 1.345 . S
N781 C784 1.336 . S
C782 N780 1.335 . S
C782 N781 1.345 . S
C782 H787 0.930 . S
C783 N780 1.390 . S
C783 C784 1.346 . S
C783 H788 0.930 . S
C784 N781 1.336 . S
C784 C783 1.346 . S
C784 H791 0.929 . S
C785 O775 1.282 . S
C785 O786 1.216 . S
O786 C785 1.216 . S
H787 C782 0.930 . S
H788 C783 0.930 . S
O789 Cu769 1.959 1_565 S
O789 C776 1.251 . S
H790 C773 0.930 . S
H791 C784 0.929 . S
Cu792 N793 1.999 . S
Cu792 O798 1.974 . S
Cu792 N803 1.985 . S
Cu792 O812 1.959 1_455 S
N793 Cu792 1.999 . S
N793 C795 1.263 . S
N793 C797 1.389 . S
N794 C795 1.358 . S
N794 C796 1.400 . S
C795 N793 1.263 . S
C795 N794 1.358 . S
C795 H801 0.930 . S
C796 N794 1.400 . S
C796 C797 1.351 . S
C796 H813 0.930 . S
C797 N793 1.389 . S
C797 C796 1.351 . S
C797 H802 0.930 . S
O798 Cu792 1.974 . S
O798 C808 1.282 . S
C799 O800 1.261 . S
C799 O812 1.251 . S
O800 C799 1.261 . S
H801 C795 0.930 . S
H802 C797 0.930 . S
N803 Cu792 1.985 . S
N803 C805 1.335 1_455 S
N803 C806 1.390 . S
N804 C805 1.345 . S
N804 C807 1.322 1_655 S
C805 N803 1.335 1_655 S
C805 N804 1.345 . S
C805 H810 0.930 . S
C806 N803 1.390 . S
C806 C807 1.365 . S
C806 H811 0.930 . S
C807 N804 1.322 1_455 S
C807 C806 1.365 . S
C807 H814 0.929 . S
C808 O798 1.282 . S
C808 O809 1.216 . S
O809 C808 1.216 . S
H810 C805 0.930 . S
H811 C806 0.930 . S
O812 Cu792 1.959 1_655 S
O812 C799 1.251 . S
H813 C796 0.930 . S
H814 C807 0.929 . S
Cu815 N816 1.999 . S
Cu815 O821 1.974 . S
Cu815 N826 1.985 1_545 S
Cu815 O835 1.959 1_545 S
N816 Cu815 1.999 . S
N816 C818 1.263 . S
N816 C820 1.389 . S
N817 C818 1.358 . S
N817 C819 1.400 . S
C818 N816 1.263 . S
C818 N817 1.358 . S
C818 H824 0.930 . S
C819 N817 1.400 . S
C819 C820 1.351 . S
C819 H836 0.930 . S
C820 N816 1.389 . S
C820 C819 1.351 . S
C820 H825 0.930 . S
O821 Cu815 1.974 . S
O821 C831 1.282 . S
C822 O823 1.261 1_565 S
C822 O835 1.251 . S
O823 C822 1.261 1_545 S
H824 C818 0.930 . S
H825 C820 0.930 . S
N826 Cu815 1.985 1_565 S
N826 C828 1.335 . S
N826 C829 1.390 . S
N827 C828 1.345 . S
N827 C830 1.336 . S
C828 N826 1.335 . S
C828 N827 1.345 . S
C828 H833 0.930 . S
C829 N826 1.390 . S
C829 C830 1.346 . S
C829 H834 0.930 1_565 S
C830 N827 1.336 . S
C830 C829 1.346 . S
C830 H837 0.929 . S
C831 O821 1.282 . S
C831 O832 1.216 . S
O832 C831 1.216 . S
H833 C828 0.930 . S
H834 C829 0.930 1_545 S
O835 Cu815 1.959 1_565 S
O835 C822 1.251 . S
H836 C819 0.930 . S
H837 C830 0.929 . S
Cu838 N839 1.999 . S
Cu838 O844 1.974 . S
Cu838 N849 1.985 . S
Cu838 O858 1.959 . S
N839 Cu838 1.999 . S
N839 C841 1.263 1_455 S
N839 C843 1.389 . S
N840 C841 1.358 . S
N840 C842 1.379 1_655 S
C841 N839 1.263 1_655 S
C841 N840 1.358 . S
C841 H847 0.930 . S
C842 N840 1.379 1_455 S
C842 C843 1.381 . S
C842 H859 0.924 1_455 S
C843 N839 1.389 . S
C843 C842 1.381 . S
C843 H848 0.930 . S
O844 Cu838 1.974 . S
O844 C854 1.282 1_455 S
C845 O846 1.261 . S
C845 O858 1.251 . S
O846 C845 1.261 . S
H847 C841 0.930 . S
H848 C843 0.930 . S
N849 Cu838 1.985 . S
N849 C851 1.335 . S
N849 C852 1.390 . S
N850 C851 1.345 . S
N850 C853 1.336 . S
C851 N849 1.335 . S
C851 N850 1.345 . S
C851 H856 0.930 . S
C852 N849 1.390 . S
C852 C853 1.346 . S
C852 H857 0.930 . S
C853 N850 1.336 . S
C853 C852 1.346 . S
C853 H860 0.929 . S
C854 O844 1.282 1_655 S
C854 O855 1.216 1_655 S
O855 C854 1.216 1_455 S
H856 C851 0.930 . S
H857 C852 0.930 . S
O858 Cu838 1.959 . S
O858 C845 1.251 . S
H859 C842 0.924 1_655 S
H860 C853 0.929 . S
Cu861 N862 1.999 . S
Cu861 O867 1.974 . S
Cu861 N872 1.985 . S
Cu861 O881 1.959 . S
N862 Cu861 1.999 . S
N862 C864 1.263 . S
N862 C866 1.389 . S
N863 C864 1.358 . S
N863 C865 1.400 . S
C864 N862 1.263 . S
C864 N863 1.358 . S
C864 H870 0.930 . S
C865 N863 1.400 . S
C865 C866 1.351 . S
C865 H882 0.930 . S
C866 N862 1.389 . S
C866 C865 1.351 . S
C866 H871 0.930 . S
O867 Cu861 1.974 . S
O867 C877 1.282 . S
C868 O869 1.265 . S
C868 O881 1.255 . S
O869 C868 1.265 . S
H870 C864 0.930 . S
H871 C866 0.930 . S
N872 Cu861 1.985 . S
N872 C874 1.335 1_545 S
N872 C875 1.396 1_545 S
N873 C874 1.345 . S
N873 C876 1.336 . S
C874 N872 1.335 1_565 S
C874 N873 1.345 . S
C874 H879 0.930 . S
C875 N872 1.396 1_565 S
C875 C876 1.373 . S
C875 H880 0.902 1_565 S
C876 N873 1.336 . S
C876 C875 1.373 . S
C876 H883 0.929 . S
C877 O867 1.282 . S
C877 O878 1.216 . S
O878 C877 1.216 . S
H879 C874 0.930 . S
H880 C875 0.902 1_545 S
O881 Cu861 1.959 . S
O881 C868 1.255 . S
H882 C865 0.930 . S
H883 C876 0.929 . S
Cu884 N885 1.999 . S
Cu884 O890 1.974 . S
Cu884 N895 1.985 . S
Cu884 O904 1.959 . S
N885 Cu884 1.999 . S
N885 C887 1.263 . S
N885 C889 1.389 . S
N886 C887 1.358 . S
N886 C888 1.400 . S
C887 N885 1.263 . S
C887 N886 1.358 . S
C887 H893 0.930 . S
C888 N886 1.400 . S
C888 C889 1.351 . S
C888 H905 0.930 . S
C889 N885 1.389 . S
C889 C888 1.351 . S
C889 H894 0.930 . S
O890 Cu884 1.974 . S
O890 C900 1.282 . S
C891 O892 1.261 . S
C891 O904 1.251 . S
O892 C891 1.261 . S
H893 C887 0.930 . S
H894 C889 0.930 . S
N895 Cu884 1.985 . S
N895 C897 1.335 . S
N895 C898 1.390 . S
N896 C897 1.345 . S
N896 C899 1.336 . S
C897 N895 1.335 . S
C897 N896 1.345 . S
C897 H902 0.930 . S
C898 N895 1.390 . S
C898 C899 1.346 . S
C898 H903 0.930 . S
C899 N896 1.336 . S
C899 C898 1.346 . S
C899 H906 0.929 . S
C900 O890 1.282 . S
C900 O901 1.216 . S
O901 C900 1.216 . S
H902 C897 0.930 . S
H903 C898 0.930 . S
O904 Cu884 1.959 . S
O904 C891 1.251 . S
H905 C888 0.930 . S
H906 C899 0.929 . S
Cu907 N908 1.999 . S
Cu907 O913 1.974 . S
Cu907 N918 1.985 . S
Cu907 O927 1.959 . S
N908 Cu907 1.999 . S
N908 C910 1.263 . S
N908 C912 1.389 . S
N909 C910 1.358 . S
N909 C911 1.400 . S
C910 N908 1.263 . S
C910 N909 1.358 . S
C910 H916 0.930 . S
C911 N909 1.400 . S
C911 C912 1.351 . S
C911 H928 0.930 . S
C912 N908 1.389 . S
C912 C911 1.351 . S
C912 H917 0.930 . S
O913 Cu907 1.974 . S
O913 C923 1.282 . S
C914 O915 1.261 . S
C914 O927 1.251 . S
O915 C914 1.261 . S
H916 C910 0.930 . S
H917 C912 0.930 . S
N918 Cu907 1.985 . S
N918 C920 1.335 . S
N918 C921 1.390 . S
N919 C920 1.345 . S
N919 C922 1.336 . S
C920 N918 1.335 . S
C920 N919 1.345 . S
C920 H925 0.930 . S
C921 N918 1.390 . S
C921 C922 1.346 . S
C921 H926 0.930 . S
C922 N919 1.336 . S
C922 C921 1.346 . S
C922 H929 0.929 . S
C923 O913 1.282 . S
C923 O924 1.216 . S
O924 C923 1.216 . S
H925 C920 0.930 . S
H926 C921 0.930 . S
O927 Cu907 1.959 . S
O927 C914 1.251 . S
H928 C911 0.930 . S
H929 C922 0.929 . S
Cu930 N931 1.999 . S
Cu930 O936 1.974 . S
Cu930 N941 1.985 . S
Cu930 O950 1.959 . S
N931 Cu930 1.999 . S
N931 C933 1.263 . S
N931 C935 1.389 . S
N932 C933 1.358 . S
N932 C934 1.400 . S
C933 N931 1.263 . S
C933 N932 1.358 . S
C933 H939 0.930 . S
C934 N932 1.400 . S
C934 C935 1.351 . S
C934 H951 0.930 . S
C935 N931 1.389 . S
C935 C934 1.351 . S
C935 H940 0.930 . S
O936 Cu930 1.974 . S
O936 C946 1.282 . S
C937 O938 1.261 . S
C937 O950 1.251 . S
O938 C937 1.261 . S
H939 C933 0.930 . S
H940 C935 0.930 . S
N941 Cu930 1.985 . S
N941 C943 1.335 . S
N941 C944 1.390 . S
N942 C943 1.345 . S
N942 C945 1.336 . S
C943 N941 1.335 . S
C943 N942 1.345 . S
C943 H948 0.930 . S
C944 N941 1.390 . S
C944 C945 1.346 . S
C944 H949 0.930 . S
C945 N942 1.336 . S
C945 C944 1.346 . S
C945 H952 0.929 . S
C946 O936 1.282 . S
C946 O947 1.216 . S
O947 C946 1.216 . S
H948 C943 0.930 . S
H949 C944 0.930 . S
O950 Cu930 1.959 . S
O950 C937 1.251 . S
H951 C934 0.930 . S
H952 C945 0.929 . S
Cu953 N954 1.999 . S
Cu953 O959 1.974 . S
Cu953 N964 1.985 . S
Cu953 O973 1.959 . S
N954 Cu953 1.999 . S
N954 C956 1.263 . S
N954 C958 1.389 . S
N955 C956 1.358 . S
N955 C957 1.400 . S
C956 N954 1.263 . S
C956 N955 1.358 . S
C956 H962 0.930 . S
C957 N955 1.400 . S
C957 C958 1.351 . S
C957 H974 0.930 . S
C958 N954 1.389 . S
C958 C957 1.351 . S
C958 H963 0.930 . S
O959 Cu953 1.974 . S
O959 C969 1.282 . S
C960 O961 1.261 . S
C960 O973 1.251 . S
O961 C960 1.261 . S
H962 C956 0.930 . S
H963 C958 0.930 . S
N964 Cu953 1.985 . S
N964 C966 1.335 . S
N964 C967 1.390 . S
N965 C966 1.345 . S
N965 C968 1.336 . S
C966 N964 1.335 . S
C966 N965 1.345 . S
C966 H971 0.930 . S
C967 N964 1.390 . S
C967 C968 1.346 . S
C967 H972 0.930 . S
C968 N965 1.336 . S
C968 C967 1.346 . S
C968 H975 0.929 . S
C969 O959 1.282 . S
C969 O970 1.216 . S
O970 C969 1.216 . S
H971 C966 0.930 . S
H972 C967 0.930 . S
O973 Cu953 1.959 . S
O973 C960 1.251 . S
H974 C957 0.930 . S
H975 C968 0.929 . S
Cu976 N977 1.999 . S
Cu976 O982 1.974 . S
Cu976 N987 1.985 . S
Cu976 O996 1.959 . S
N977 Cu976 1.999 . S
N977 C979 1.263 . S
N977 C981 1.389 . S
N978 C979 1.358 . S
N978 C980 1.400 . S
C979 N977 1.263 . S
C979 N978 1.358 . S
C979 H985 0.930 . S
C980 N978 1.400 . S
C980 C981 1.351 . S
C980 H997 0.930 . S
C981 N977 1.389 . S
C981 C980 1.351 . S
C981 H986 0.930 . S
O982 Cu976 1.974 . S
O982 C992 1.282 . S
C983 O984 1.261 . S
C983 O996 1.251 . S
O984 C983 1.261 . S
H985 C979 0.930 . S
H986 C981 0.930 . S
N987 Cu976 1.985 . S
N987 C989 1.335 . S
N987 C990 1.390 . S
N988 C989 1.345 . S
N988 C991 1.336 . S
C989 N987 1.335 . S
C989 N988 1.345 . S
C989 H994 0.930 . S
C990 N987 1.390 . S
C990 C991 1.346 . S
C990 H995 0.930 . S
C991 N988 1.336 . S
C991 C990 1.346 . S
C991 H998 0.929 . S
C992 O982 1.282 . S
C992 O993 1.216 . S
O993 C992 1.216 . S
H994 C989 0.930 . S
H995 C990 0.930 . S
O996 Cu976 1.959 . S
O996 C983 1.251 . S
H997 C980 0.930 . S
H998 C991 0.929 . S
Cu999 N1000 1.999 . S
Cu999 O1005 1.974 . S
Cu999 N1010 1.985 . S
Cu999 O1019 1.959 . S
N1000 Cu999 1.999 . S
N1000 C1002 1.263 . S
N1000 C1004 1.389 . S
N1001 C1002 1.358 . S
N1001 C1003 1.400 . S
C1002 N1000 1.263 . S
C1002 N1001 1.358 . S
C1002 H1008 0.930 . S
C1003 N1001 1.400 . S
C1003 C1004 1.351 . S
C1003 H1020 0.930 . S
C1004 N1000 1.389 . S
C1004 C1003 1.351 . S
C1004 H1009 0.930 . S
O1005 Cu999 1.974 . S
O1005 C1015 1.282 . S
C1006 O1007 1.261 . S
C1006 O1019 1.251 . S
O1007 C1006 1.261 . S
H1008 C1002 0.930 . S
H1009 C1004 0.930 . S
N1010 Cu999 1.985 . S
N1010 C1012 1.335 . S
N1010 C1013 1.390 . S
N1011 C1012 1.345 . S
N1011 C1014 1.336 . S
C1012 N1010 1.335 . S
C1012 N1011 1.345 . S
C1012 H1017 0.930 . S
C1013 N1010 1.390 . S
C1013 C1014 1.346 . S
C1013 H1018 0.930 . S
C1014 N1011 1.336 . S
C1014 C1013 1.346 . S
C1014 H1021 0.929 . S
C1015 O1005 1.282 . S
C1015 O1016 1.216 . S
O1016 C1015 1.216 . S
H1017 C1012 0.930 . S
H1018 C1013 0.930 . S
O1019 Cu999 1.959 . S
O1019 C1006 1.251 . S
H1020 C1003 0.930 . S
H1021 C1014 0.929 . S
Cu1022 N1023 1.999 . S
Cu1022 O1028 1.974 . S
Cu1022 N1033 1.985 . S
Cu1022 O1042 1.959 . S
N1023 Cu1022 1.999 . S
N1023 C1025 1.263 . S
N1023 C1027 1.389 . S
N1024 C1025 1.358 . S
N1024 C1026 1.400 . S
C1025 N1023 1.263 . S
C1025 N1024 1.358 . S
C1025 H1031 0.930 . S
C1026 N1024 1.400 . S
C1026 C1027 1.351 . S
C1026 H1043 0.930 . S
C1027 N1023 1.389 . S
C1027 C1026 1.351 . S
C1027 H1032 0.930 . S
O1028 Cu1022 1.974 . S
O1028 C1038 1.282 . S
C1029 O1030 1.261 . S
C1029 O1042 1.251 . S
O1030 C1029 1.261 . S
H1031 C1025 0.930 . S
H1032 C1027 0.930 . S
N1033 Cu1022 1.985 . S
N1033 C1035 1.335 . S
N1033 C1036 1.390 . S
N1034 C1035 1.345 . S
N1034 C1037 1.336 . S
C1035 N1033 1.335 . S
C1035 N1034 1.345 . S
C1035 H1040 0.930 . S
C1036 N1033 1.390 . S
C1036 C1037 1.346 . S
C1036 H1041 0.930 . S
C1037 N1034 1.336 . S
C1037 C1036 1.346 . S
C1037 H1044 0.929 . S
C1038 O1028 1.282 . S
C1038 O1039 1.216 . S
O1039 C1038 1.216 . S
H1040 C1035 0.930 . S
H1041 C1036 0.930 . S
O1042 Cu1022 1.959 . S
O1042 C1029 1.251 . S
H1043 C1026 0.930 . S
H1044 C1037 0.929 . S
Cu1045 N1046 1.999 . S
Cu1045 O1051 1.974 . S
Cu1045 N1056 1.985 . S
Cu1045 O1065 1.959 . S
N1046 Cu1045 1.999 . S
N1046 C1048 1.263 . S
N1046 C1050 1.389 . S
N1047 C1048 1.358 . S
N1047 C1049 1.400 . S
C1048 N1046 1.263 . S
C1048 N1047 1.358 . S
C1048 H1054 0.930 . S
C1049 N1047 1.400 . S
C1049 C1050 1.351 . S
C1049 H1066 0.930 . S
C1050 N1046 1.389 . S
C1050 C1049 1.351 . S
C1050 H1055 0.930 . S
O1051 Cu1045 1.974 . S
O1051 C1061 1.282 . S
C1052 O1053 1.261 . S
C1052 O1065 1.251 . S
O1053 C1052 1.261 . S
H1054 C1048 0.930 . S
H1055 C1050 0.930 . S
N1056 Cu1045 1.985 . S
N1056 C1058 1.335 . S
N1056 C1059 1.390 . S
N1057 C1058 1.345 . S
N1057 C1060 1.336 . S
C1058 N1056 1.335 . S
C1058 N1057 1.345 . S
C1058 H1063 0.930 . S
C1059 N1056 1.390 . S
C1059 C1060 1.346 . S
C1059 H1064 0.930 . S
C1060 N1057 1.336 . S
C1060 C1059 1.346 . S
C1060 H1067 0.929 . S
C1061 O1051 1.282 . S
C1061 O1062 1.216 . S
O1062 C1061 1.216 . S
H1063 C1058 0.930 . S
H1064 C1059 0.930 . S
O1065 Cu1045 1.959 . S
O1065 C1052 1.251 . S
H1066 C1049 0.930 . S
H1067 C1060 0.929 . S
Cu1068 N1069 1.999 . S
Cu1068 O1074 1.974 . S
Cu1068 N1079 1.985 . S
Cu1068 O1088 1.959 . S
N1069 Cu1068 1.999 . S
N1069 C1071 1.263 . S
N1069 C1073 1.389 . S
N1070 C1071 1.358 . S
N1070 C1072 1.400 . S
C1071 N1069 1.263 . S
C1071 N1070 1.358 . S
C1071 H1077 0.930 . S
C1072 N1070 1.400 . S
C1072 C1073 1.351 . S
C1072 H1089 0.930 . S
C1073 N1069 1.389 . S
C1073 C1072 1.351 . S
C1073 H1078 0.930 . S
O1074 Cu1068 1.974 . S
O1074 C1084 1.282 . S
C1075 O1076 1.261 . S
C1075 O1088 1.251 . S
O1076 C1075 1.261 . S
H1077 C1071 0.930 . S
H1078 C1073 0.930 . S
N1079 Cu1068 1.985 . S
N1079 C1081 1.335 . S
N1079 C1082 1.390 . S
N1080 C1081 1.345 . S
N1080 C1083 1.336 . S
C1081 N1079 1.335 . S
C1081 N1080 1.345 . S
C1081 H1086 0.930 . S
C1082 N1079 1.390 . S
C1082 C1083 1.346 . S
C1082 H1087 0.930 . S
C1083 N1080 1.336 . S
C1083 C1082 1.346 . S
C1083 H1090 0.929 . S
C1084 O1074 1.282 . S
C1084 O1085 1.216 . S
O1085 C1084 1.216 . S
H1086 C1081 0.930 . S
H1087 C1082 0.930 . S
O1088 Cu1068 1.959 . S
O1088 C1075 1.251 . S
H1089 C1072 0.930 . S
H1090 C1083 0.929 . S
Cu1091 N1092 1.999 . S
Cu1091 O1097 1.974 . S
Cu1091 N1102 1.985 . S
Cu1091 O1111 1.959 . S
N1092 Cu1091 1.999 . S
N1092 C1094 1.263 . S
N1092 C1096 1.389 . S
N1093 C1094 1.358 . S
N1093 C1095 1.400 . S
C1094 N1092 1.263 . S
C1094 N1093 1.358 . S
C1094 H1100 0.930 . S
C1095 N1093 1.400 . S
C1095 C1096 1.351 . S
C1095 H1112 0.930 . S
C1096 N1092 1.389 . S
C1096 C1095 1.351 . S
C1096 H1101 0.930 . S
O1097 Cu1091 1.974 . S
O1097 C1107 1.282 . S
C1098 O1099 1.261 . S
C1098 O1111 1.251 . S
O1099 C1098 1.261 . S
H1100 C1094 0.930 . S
H1101 C1096 0.930 . S
N1102 Cu1091 1.985 . S
N1102 C1104 1.335 . S
N1102 C1105 1.390 . S
N1103 C1104 1.345 . S
N1103 C1106 1.336 . S
C1104 N1102 1.335 . S
C1104 N1103 1.345 . S
C1104 H1109 0.930 . S
C1105 N1102 1.390 . S
C1105 C1106 1.346 . S
C1105 H1110 0.930 . S
C1106 N1103 1.336 . S
C1106 C1105 1.346 . S
C1106 H1113 0.929 . S
C1107 O1097 1.282 . S
C1107 O1108 1.216 . S
O1108 C1107 1.216 . S
H1109 C1104 0.930 . S
H1110 C1105 0.930 . S
O1111 Cu1091 1.959 . S
O1111 C1098 1.251 . S
H1112 C1095 0.930 . S
H1113 C1106 0.929 . S
Cu1114 N1115 1.999 . S
Cu1114 O1120 1.974 . S
Cu1114 N1125 1.985 . S
Cu1114 O1134 1.959 . S
N1115 Cu1114 1.999 . S
N1115 C1117 1.263 . S
N1115 C1119 1.389 . S
N1116 C1117 1.358 . S
N1116 C1118 1.400 . S
C1117 N1115 1.263 . S
C1117 N1116 1.358 . S
C1117 H1123 0.930 . S
C1118 N1116 1.400 . S
C1118 C1119 1.351 . S
C1118 H1135 0.930 . S
C1119 N1115 1.389 . S
C1119 C1118 1.351 . S
C1119 H1124 0.930 . S
O1120 Cu1114 1.974 . S
O1120 C1130 1.282 . S
C1121 O1122 1.261 . S
C1121 O1134 1.251 . S
O1122 C1121 1.261 . S
H1123 C1117 0.930 . S
H1124 C1119 0.930 . S
N1125 Cu1114 1.985 . S
N1125 C1127 1.335 . S
N1125 C1128 1.390 . S
N1126 C1127 1.345 . S
N1126 C1129 1.336 . S
C1127 N1125 1.335 . S
C1127 N1126 1.345 . S
C1127 H1132 0.930 . S
C1128 N1125 1.390 . S
C1128 C1129 1.346 . S
C1128 H1133 0.930 . S
C1129 N1126 1.336 . S
C1129 C1128 1.346 . S
C1129 H1136 0.929 . S
C1130 O1120 1.282 . S
C1130 O1131 1.216 . S
O1131 C1130 1.216 . S
H1132 C1127 0.930 . S
H1133 C1128 0.930 . S
O1134 Cu1114 1.959 . S
O1134 C1121 1.251 . S
H1135 C1118 0.930 . S
H1136 C1129 0.929 . S
Cu1137 N1138 1.999 . S
Cu1137 O1143 1.974 . S
Cu1137 N1148 1.985 . S
Cu1137 O1157 1.959 . S
N1138 Cu1137 1.999 . S
N1138 C1140 1.263 . S
N1138 C1142 1.389 . S
N1139 C1140 1.358 . S
N1139 C1141 1.400 . S
C1140 N1138 1.263 . S
C1140 N1139 1.358 . S
C1140 H1146 0.930 . S
C1141 N1139 1.400 . S
C1141 C1142 1.351 . S
C1141 H1158 0.930 . S
C1142 N1138 1.389 . S
C1142 C1141 1.351 . S
C1142 H1147 0.930 . S
O1143 Cu1137 1.974 . S
O1143 C1153 1.282 . S
C1144 O1145 1.261 . S
C1144 O1157 1.251 . S
O1145 C1144 1.261 . S
H1146 C1140 0.930 . S
H1147 C1142 0.930 . S
N1148 Cu1137 1.985 . S
N1148 C1150 1.335 . S
N1148 C1151 1.390 . S
N1149 C1150 1.345 . S
N1149 C1152 1.336 . S
C1150 N1148 1.335 . S
C1150 N1149 1.345 . S
C1150 H1155 0.930 . S
C1151 N1148 1.390 . S
C1151 C1152 1.346 . S
C1151 H1156 0.930 . S
C1152 N1149 1.336 . S
C1152 C1151 1.346 . S
C1152 H1159 0.929 . S
C1153 O1143 1.282 . S
C1153 O1154 1.216 . S
O1154 C1153 1.216 . S
H1155 C1150 0.930 . S
H1156 C1151 0.930 . S
O1157 Cu1137 1.959 . S
O1157 C1144 1.251 . S
H1158 C1141 0.930 . S
H1159 C1152 0.929 . S
H1160 C1166 0.930 . S
H1161 C1170 0.930 . S
H1162 C1175 0.929 . S
H1163 C1173 0.929 . S
H1164 C1168 0.929 . S
H1165 C1174 0.929 . S
C1166 H1160 0.930 . S
C1166 C1167 1.367 . S
C1166 C1174 1.378 . S
C1167 C1166 1.367 . S
C1167 C1175 1.433 . S
C1168 H1164 0.929 . S
C1168 C1170 1.378 . S
C1168 C1172 1.350 . S
C1169 C1172 1.463 . S
C1169 C1174 1.350 . S
C1169 N1177 1.427 . S
C1170 H1161 0.930 . S
C1170 C1168 1.378 . S
C1170 C1171 1.367 . S
C1171 C1170 1.367 . S
C1171 C1173 1.433 . S
C1172 C1168 1.350 . S
C1172 C1169 1.463 . S
C1172 N1176 1.427 . S
C1173 H1163 0.929 . S
C1173 C1171 1.433 . S
C1173 N1176 1.384 . S
C1174 H1165 0.929 . S
C1174 C1166 1.378 . S
C1174 C1169 1.350 . S
C1175 H1162 0.929 . S
C1175 C1167 1.433 . S
C1175 N1177 1.384 . S
N1176 C1172 1.427 . S
N1176 C1173 1.384 . S
N1177 C1169 1.427 . S
N1177 C1175 1.384 . S
H1178 C1184 0.930 . S
H1179 C1188 0.930 . S
H1180 C1193 0.929 . S
H1181 C1191 0.929 . S
H1182 C1186 0.929 . S
H1183 C1192 0.929 . S
C1184 H1178 0.930 . S
C1184 C1185 1.367 . S
C1184 C1192 1.378 . S
C1185 C1184 1.367 . S
C1185 C1193 1.433 . S
C1186 H1182 0.929 . S
C1186 C1188 1.378 . S
C1186 C1190 1.350 . S
C1187 C1190 1.463 . S
C1187 C1192 1.350 . S
C1187 N1195 1.427 . S
C1188 H1179 0.930 . S
C1188 C1186 1.378 . S
C1188 C1189 1.367 . S
C1189 C1188 1.367 . S
C1189 C1191 1.433 . S
C1190 C1186 1.350 . S
C1190 C1187 1.463 . S
C1190 N1194 1.427 . S
C1191 H1181 0.929 . S
C1191 C1189 1.433 . S
C1191 N1194 1.384 . S
C1192 H1183 0.929 . S
C1192 C1184 1.378 . S
C1192 C1187 1.350 . S
C1193 H1180 0.929 . S
C1193 C1185 1.433 . S
C1193 N1195 1.384 . S
N1194 C1190 1.427 . S
N1194 C1191 1.384 . S
N1195 C1187 1.427 . S
N1195 C1193 1.384 . S
H1196 C1202 0.930 . S
H1197 C1206 0.930 . S
H1198 C1211 0.929 . S
H1199 C1209 0.929 . S
H1200 C1204 0.929 . S
H1201 C1210 0.929 . S
C1202 H1196 0.930 . S
C1202 C1203 1.367 . S
C1202 C1210 1.378 . S
C1203 C1202 1.367 . S
C1203 C1211 1.433 . S
C1204 H1200 0.929 . S
C1204 C1206 1.378 . S
C1204 C1208 1.350 . S
C1205 C1208 1.463 . S
C1205 C1210 1.350 . S
C1205 N1213 1.427 . S
C1206 H1197 0.930 . S
C1206 C1204 1.378 . S
C1206 C1207 1.367 . S
C1207 C1206 1.367 . S
C1207 C1209 1.433 . S
C1208 C1204 1.350 . S
C1208 C1205 1.463 . S
C1208 N1212 1.427 . S
C1209 H1199 0.929 . S
C1209 C1207 1.433 . S
C1209 N1212 1.384 . S
C1210 H1201 0.929 . S
C1210 C1202 1.378 . S
C1210 C1205 1.350 . S
C1211 H1198 0.929 . S
C1211 C1203 1.433 . S
C1211 N1213 1.384 . S
N1212 C1208 1.427 . S
N1212 C1209 1.384 . S
N1213 C1205 1.427 . S
N1213 C1211 1.384 . S
H1214 C1220 0.930 . S
H1215 C1224 0.930 . S
H1216 C1229 0.929 . S
H1217 C1227 0.929 . S
H1218 C1222 0.929 . S
H1219 C1228 0.929 . S
C1220 H1214 0.930 . S
C1220 C1221 1.367 . S
C1220 C1228 1.378 . S
C1221 C1220 1.367 . S
C1221 C1229 1.433 . S
C1222 H1218 0.929 . S
C1222 C1224 1.378 . S
C1222 C1226 1.350 . S
C1223 C1226 1.463 . S
C1223 C1228 1.350 . S
C1223 N1231 1.427 . S
C1224 H1215 0.930 . S
C1224 C1222 1.378 . S
C1224 C1225 1.367 . S
C1225 C1224 1.367 . S
C1225 C1227 1.433 . S
C1226 C1222 1.350 . S
C1226 C1223 1.463 . S
C1226 N1230 1.427 . S
C1227 H1217 0.929 . S
C1227 C1225 1.433 . S
C1227 N1230 1.384 . S
C1228 H1219 0.929 . S
C1228 C1220 1.378 . S
C1228 C1223 1.350 . S
C1229 H1216 0.929 . S
C1229 C1221 1.433 . S
C1229 N1231 1.384 . S
N1230 C1226 1.427 . S
N1230 C1227 1.384 . S
N1231 C1223 1.427 . S
N1231 C1229 1.384 . S
H1232 C1238 0.930 . S
H1233 C1242 0.930 . S
H1234 C1247 0.929 . S
H1235 C1245 0.929 . S
H1236 C1240 0.929 . S
H1237 C1246 0.929 . S
C1238 H1232 0.930 . S
C1238 C1239 1.367 . S
C1238 C1246 1.378 . S
C1239 C1238 1.367 . S
C1239 C1247 1.433 . S
C1240 H1236 0.929 . S
C1240 C1242 1.378 . S
C1240 C1244 1.350 . S
C1241 C1244 1.463 . S
C1241 C1246 1.350 . S
C1241 N1249 1.427 . S
C1242 H1233 0.930 . S
C1242 C1240 1.378 . S
C1242 C1243 1.367 . S
C1243 C1242 1.367 . S
C1243 C1245 1.433 . S
C1244 C1240 1.350 . S
C1244 C1241 1.463 . S
C1244 N1248 1.427 . S
C1245 H1235 0.929 . S
C1245 C1243 1.433 . S
C1245 N1248 1.384 . S
C1246 H1237 0.929 . S
C1246 C1238 1.378 . S
C1246 C1241 1.350 . S
C1247 H1234 0.929 . S
C1247 C1239 1.433 . S
C1247 N1249 1.384 . S
N1248 C1244 1.427 . S
N1248 C1245 1.384 . S
N1249 C1241 1.427 . S
N1249 C1247 1.384 . S
H1250 C1256 0.930 . S
H1251 C1260 0.930 . S
H1252 C1265 0.929 . S
H1253 C1263 0.929 . S
H1254 C1258 0.929 . S
H1255 C1264 0.929 . S
C1256 H1250 0.930 . S
C1256 C1257 1.367 . S
C1256 C1264 1.378 . S
C1257 C1256 1.367 . S
C1257 C1265 1.433 . S
C1258 H1254 0.929 . S
C1258 C1260 1.378 . S
C1258 C1262 1.350 . S
C1259 C1262 1.463 . S
C1259 C1264 1.350 . S
C1259 N1267 1.427 . S
C1260 H1251 0.930 . S
C1260 C1258 1.378 . S
C1260 C1261 1.367 . S
C1261 C1260 1.367 . S
C1261 C1263 1.433 . S
C1262 C1258 1.350 . S
C1262 C1259 1.463 . S
C1262 N1266 1.427 . S
C1263 H1253 0.929 . S
C1263 C1261 1.433 . S
C1263 N1266 1.384 . S
C1264 H1255 0.929 . S
C1264 C1256 1.378 . S
C1264 C1259 1.350 . S
C1265 H1252 0.929 . S
C1265 C1257 1.433 . S
C1265 N1267 1.384 . S
N1266 C1262 1.427 . S
N1266 C1263 1.384 . S
N1267 C1259 1.427 . S
N1267 C1265 1.384 . S
H1268 C1274 0.930 . S
H1269 C1278 0.930 . S
H1270 C1283 0.929 . S
H1271 C1281 0.929 . S
H1272 C1276 0.929 . S
H1273 C1282 0.929 . S
C1274 H1268 0.930 . S
C1274 C1275 1.367 . S
C1274 C1282 1.378 . S
C1275 C1274 1.367 . S
C1275 C1283 1.433 . S
C1276 H1272 0.929 . S
C1276 C1278 1.378 . S
C1276 C1280 1.350 . S
C1277 C1280 1.463 . S
C1277 C1282 1.350 . S
C1277 N1285 1.427 . S
C1278 H1269 0.930 . S
C1278 C1276 1.378 . S
C1278 C1279 1.367 . S
C1279 C1278 1.367 . S
C1279 C1281 1.433 . S
C1280 C1276 1.350 . S
C1280 C1277 1.463 . S
C1280 N1284 1.427 . S
C1281 H1271 0.929 . S
C1281 C1279 1.433 . S
C1281 N1284 1.384 . S
C1282 H1273 0.929 . S
C1282 C1274 1.378 . S
C1282 C1277 1.350 . S
C1283 H1270 0.929 . S
C1283 C1275 1.433 . S
C1283 N1285 1.384 . S
N1284 C1280 1.427 . S
N1284 C1281 1.384 . S
N1285 C1277 1.427 . S
N1285 C1283 1.384 . S
H1286 C1292 0.930 . S
H1287 C1296 0.930 . S
H1288 C1301 0.929 . S
H1289 C1299 0.929 . S
H1290 C1294 0.929 . S
H1291 C1300 0.929 . S
C1292 H1286 0.930 . S
C1292 C1293 1.367 . S
C1292 C1300 1.378 . S
C1293 C1292 1.367 . S
C1293 C1301 1.433 . S
C1294 H1290 0.929 . S
C1294 C1296 1.378 . S
C1294 C1298 1.350 . S
C1295 C1298 1.463 . S
C1295 C1300 1.350 . S
C1295 N1303 1.427 . S
C1296 H1287 0.930 . S
C1296 C1294 1.378 . S
C1296 C1297 1.367 . S
C1297 C1296 1.367 . S
C1297 C1299 1.433 . S
C1298 C1294 1.350 . S
C1298 C1295 1.463 . S
C1298 N1302 1.427 . S
C1299 H1289 0.929 . S
C1299 C1297 1.433 . S
C1299 N1302 1.384 . S
C1300 H1291 0.929 . S
C1300 C1292 1.378 . S
C1300 C1295 1.350 . S
C1301 H1288 0.929 . S
C1301 C1293 1.433 . S
C1301 N1303 1.384 . S
N1302 C1298 1.427 . S
N1302 C1299 1.384 . S
N1303 C1295 1.427 . S
N1303 C1301 1.384 . S
H1304 C1310 0.930 . S
H1305 C1314 0.930 . S
H1306 C1319 0.929 . S
H1307 C1317 0.929 . S
H1308 C1312 0.929 . S
H1309 C1318 0.929 . S
C1310 H1304 0.930 . S
C1310 C1311 1.367 . S
C1310 C1318 1.378 . S
C1311 C1310 1.367 . S
C1311 C1319 1.433 . S
C1312 H1308 0.929 . S
C1312 C1314 1.378 . S
C1312 C1316 1.350 . S
C1313 C1316 1.463 . S
C1313 C1318 1.350 . S
C1313 N1321 1.427 . S
C1314 H1305 0.930 . S
C1314 C1312 1.378 . S
C1314 C1315 1.367 . S
C1315 C1314 1.367 . S
C1315 C1317 1.433 . S
C1316 C1312 1.350 . S
C1316 C1313 1.463 . S
C1316 N1320 1.427 . S
C1317 H1307 0.929 . S
C1317 C1315 1.433 . S
C1317 N1320 1.384 . S
C1318 H1309 0.929 . S
C1318 C1310 1.378 . S
C1318 C1313 1.350 . S
C1319 H1306 0.929 . S
C1319 C1311 1.433 . S
C1319 N1321 1.384 . S
N1320 C1316 1.427 . S
N1320 C1317 1.384 . S
N1321 C1313 1.427 . S
N1321 C1319 1.384 . S
H1322 C1328 0.930 . S
H1323 C1332 0.930 . S
H1324 C1337 0.929 . S
H1325 C1335 0.929 . S
H1326 C1330 0.929 . S
H1327 C1336 0.929 . S
C1328 H1322 0.930 . S
C1328 C1329 1.367 . S
C1328 C1336 1.378 . S
C1329 C1328 1.367 . S
C1329 C1337 1.433 . S
C1330 H1326 0.929 . S
C1330 C1332 1.378 . S
C1330 C1334 1.350 . S
C1331 C1334 1.463 . S
C1331 C1336 1.350 . S
C1331 N1339 1.427 . S
C1332 H1323 0.930 . S
C1332 C1330 1.378 . S
C1332 C1333 1.367 . S
C1333 C1332 1.367 . S
C1333 C1335 1.433 . S
C1334 C1330 1.350 . S
C1334 C1331 1.463 . S
C1334 N1338 1.427 . S
C1335 H1325 0.929 . S
C1335 C1333 1.433 . S
C1335 N1338 1.384 . S
C1336 H1327 0.929 . S
C1336 C1328 1.378 . S
C1336 C1331 1.350 . S
C1337 H1324 0.929 . S
C1337 C1329 1.433 . S
C1337 N1339 1.384 . S
N1338 C1334 1.427 . S
N1338 C1335 1.384 . S
N1339 C1331 1.427 . S
N1339 C1337 1.384 . S
H1340 C1346 0.930 . S
H1341 C1350 0.930 . S
H1342 C1355 0.929 . S
H1343 C1353 0.929 . S
H1344 C1348 0.929 . S
H1345 C1354 0.929 . S
C1346 H1340 0.930 . S
C1346 C1347 1.367 . S
C1346 C1354 1.378 . S
C1347 C1346 1.367 . S
C1347 C1355 1.433 . S
C1348 H1344 0.929 . S
C1348 C1350 1.378 . S
C1348 C1352 1.350 . S
C1349 C1352 1.463 . S
C1349 C1354 1.350 . S
C1349 N1357 1.427 . S
C1350 H1341 0.930 . S
C1350 C1348 1.378 . S
C1350 C1351 1.367 . S
C1351 C1350 1.367 . S
C1351 C1353 1.433 . S
C1352 C1348 1.350 . S
C1352 C1349 1.463 . S
C1352 N1356 1.427 . S
C1353 H1343 0.929 . S
C1353 C1351 1.433 . S
C1353 N1356 1.384 . S
C1354 H1345 0.929 . S
C1354 C1346 1.378 . S
C1354 C1349 1.350 . S
C1355 H1342 0.929 . S
C1355 C1347 1.433 . S
C1355 N1357 1.384 . S
N1356 C1352 1.427 . S
N1356 C1353 1.384 . S
N1357 C1349 1.427 . S
N1357 C1355 1.384 . S
H1358 C1364 0.930 . S
H1359 C1368 0.930 . S
H1360 C1373 0.929 . S
H1361 C1371 0.929 . S
H1362 C1366 0.929 . S
H1363 C1372 0.929 . S
C1364 H1358 0.930 . S
C1364 C1365 1.367 . S
C1364 C1372 1.378 . S
C1365 C1364 1.367 . S
C1365 C1373 1.433 . S
C1366 H1362 0.929 . S
C1366 C1368 1.378 . S
C1366 C1370 1.350 . S
C1367 C1370 1.463 . S
C1367 C1372 1.350 . S
C1367 N1375 1.427 . S
C1368 H1359 0.930 . S
C1368 C1366 1.378 . S
C1368 C1369 1.367 . S
C1369 C1368 1.367 . S
C1369 C1371 1.433 . S
C1370 C1366 1.350 . S
C1370 C1367 1.463 . S
C1370 N1374 1.427 . S
C1371 H1361 0.929 . S
C1371 C1369 1.433 . S
C1371 N1374 1.384 . S
C1372 H1363 0.929 . S
C1372 C1364 1.378 . S
C1372 C1367 1.350 . S
C1373 H1360 0.929 . S
C1373 C1365 1.433 . S
C1373 N1375 1.384 . S
N1374 C1370 1.427 . S
N1374 C1371 1.384 . S
N1375 C1367 1.427 . S
N1375 C1373 1.384 . S
H1376 C1382 0.930 . S
H1377 C1386 0.930 . S
H1378 C1391 0.929 . S
H1379 C1389 0.929 . S
H1380 C1384 0.929 . S
H1381 C1390 0.929 . S
C1382 H1376 0.930 . S
C1382 C1383 1.367 . S
C1382 C1390 1.378 . S
C1383 C1382 1.367 . S
C1383 C1391 1.433 . S
C1384 H1380 0.929 . S
C1384 C1386 1.378 . S
C1384 C1388 1.350 . S
C1385 C1388 1.463 . S
C1385 C1390 1.350 . S
C1385 N1393 1.427 . S
C1386 H1377 0.930 . S
C1386 C1384 1.378 . S
C1386 C1387 1.367 . S
C1387 C1386 1.367 . S
C1387 C1389 1.433 . S
C1388 C1384 1.350 . S
C1388 C1385 1.463 . S
C1388 N1392 1.427 . S
C1389 H1379 0.929 . S
C1389 C1387 1.433 . S
C1389 N1392 1.384 . S
C1390 H1381 0.929 . S
C1390 C1382 1.378 . S
C1390 C1385 1.350 . S
C1391 H1378 0.929 . S
C1391 C1383 1.433 . S
C1391 N1393 1.384 . S
N1392 C1388 1.427 . S
N1392 C1389 1.384 . S
N1393 C1385 1.427 . S
N1393 C1391 1.384 . S
H1394 C1400 0.930 . S
H1395 C1404 0.930 . S
H1396 C1409 0.929 . S
H1397 C1407 0.929 . S
H1398 C1402 0.929 . S
H1399 C1408 0.929 . S
C1400 H1394 0.930 . S
C1400 C1401 1.367 . S
C1400 C1408 1.378 . S
C1401 C1400 1.367 . S
C1401 C1409 1.433 . S
C1402 H1398 0.929 . S
C1402 C1404 1.378 . S
C1402 C1406 1.350 . S
C1403 C1406 1.463 . S
C1403 C1408 1.350 . S
C1403 N1411 1.427 . S
C1404 H1395 0.930 . S
C1404 C1402 1.378 . S
C1404 C1405 1.367 . S
C1405 C1404 1.367 . S
C1405 C1407 1.433 . S
C1406 C1402 1.350 . S
C1406 C1403 1.463 . S
C1406 N1410 1.427 . S
C1407 H1397 0.929 . S
C1407 C1405 1.433 . S
C1407 N1410 1.384 . S
C1408 H1399 0.929 . S
C1408 C1400 1.378 . S
C1408 C1403 1.350 . S
C1409 H1396 0.929 . S
C1409 C1401 1.433 . S
C1409 N1411 1.384 . S
N1410 C1406 1.427 . S
N1410 C1407 1.384 . S
N1411 C1403 1.427 . S
N1411 C1409 1.384 . S
H1412 C1418 0.930 . S
H1413 C1422 0.930 . S
H1414 C1427 0.929 . S
H1415 C1425 0.929 . S
H1416 C1420 0.929 . S
H1417 C1426 0.929 . S
C1418 H1412 0.930 . S
C1418 C1419 1.367 . S
C1418 C1426 1.378 . S
C1419 C1418 1.367 . S
C1419 C1427 1.433 . S
C1420 H1416 0.929 . S
C1420 C1422 1.378 . S
C1420 C1424 1.350 . S
C1421 C1424 1.463 . S
C1421 C1426 1.350 . S
C1421 N1429 1.427 . S
C1422 H1413 0.930 . S
C1422 C1420 1.378 . S
C1422 C1423 1.367 . S
C1423 C1422 1.367 . S
C1423 C1425 1.433 . S
C1424 C1420 1.350 . S
C1424 C1421 1.463 . S
C1424 N1428 1.427 . S
C1425 H1415 0.929 . S
C1425 C1423 1.433 . S
C1425 N1428 1.384 . S
C1426 H1417 0.929 . S
C1426 C1418 1.378 . S
C1426 C1421 1.350 . S
C1427 H1414 0.929 . S
C1427 C1419 1.433 . S
C1427 N1429 1.384 . S
N1428 C1424 1.427 . S
N1428 C1425 1.384 . S
N1429 C1421 1.427 . S
N1429 C1427 1.384 . S
H1430 C1436 0.930 . S
H1431 C1440 0.930 . S
H1432 C1445 0.929 . S
H1433 C1443 0.929 . S
H1434 C1438 0.929 . S
H1435 C1444 0.929 . S
C1436 H1430 0.930 . S
C1436 C1437 1.367 . S
C1436 C1444 1.378 . S
C1437 C1436 1.367 . S
C1437 C1445 1.433 . S
C1438 H1434 0.929 . S
C1438 C1440 1.378 . S
C1438 C1442 1.350 . S
C1439 C1442 1.463 . S
C1439 C1444 1.350 . S
C1439 N1447 1.427 . S
C1440 H1431 0.930 . S
C1440 C1438 1.378 . S
C1440 C1441 1.367 . S
C1441 C1440 1.367 . S
C1441 C1443 1.433 . S
C1442 C1438 1.350 . S
C1442 C1439 1.463 . S
C1442 N1446 1.427 . S
C1443 H1433 0.929 . S
C1443 C1441 1.433 . S
C1443 N1446 1.384 . S
C1444 H1435 0.929 . S
C1444 C1436 1.378 . S
C1444 C1439 1.350 . S
C1445 H1432 0.929 . S
C1445 C1437 1.433 . S
C1445 N1447 1.384 . S
N1446 C1442 1.427 . S
N1446 C1443 1.384 . S
N1447 C1439 1.427 . S
N1447 C1445 1.384 . S
H1448 C1454 0.930 . S
H1449 C1458 0.930 . S
H1450 C1463 0.929 . S
H1451 C1461 0.929 . S
H1452 C1456 0.929 . S
H1453 C1462 0.929 . S
C1454 H1448 0.930 . S
C1454 C1455 1.367 . S
C1454 C1462 1.378 . S
C1455 C1454 1.367 . S
C1455 C1463 1.433 . S
C1456 H1452 0.929 . S
C1456 C1458 1.378 . S
C1456 C1460 1.350 . S
C1457 C1460 1.463 . S
C1457 C1462 1.350 . S
C1457 N1465 1.427 . S
C1458 H1449 0.930 . S
C1458 C1456 1.378 . S
C1458 C1459 1.367 . S
C1459 C1458 1.367 . S
C1459 C1461 1.433 . S
C1460 C1456 1.350 . S
C1460 C1457 1.463 . S
C1460 N1464 1.427 . S
C1461 H1451 0.929 . S
C1461 C1459 1.433 . S
C1461 N1464 1.384 . S
C1462 H1453 0.929 . S
C1462 C1454 1.378 . S
C1462 C1457 1.350 . S
C1463 H1450 0.929 . S
C1463 C1455 1.433 . S
C1463 N1465 1.384 . S
N1464 C1460 1.427 . S
N1464 C1461 1.384 . S
N1465 C1457 1.427 . S
N1465 C1463 1.384 . S
H1466 C1472 0.930 . S
H1467 C1476 0.930 . S
H1468 C1481 0.929 . S
H1469 C1479 0.929 . S
H1470 C1474 0.929 . S
H1471 C1480 0.929 . S
C1472 H1466 0.930 . S
C1472 C1473 1.367 . S
C1472 C1480 1.378 . S
C1473 C1472 1.367 . S
C1473 C1481 1.433 . S
C1474 H1470 0.929 . S
C1474 C1476 1.378 . S
C1474 C1478 1.350 . S
C1475 C1478 1.463 . S
C1475 C1480 1.350 . S
C1475 N1483 1.427 . S
C1476 H1467 0.930 . S
C1476 C1474 1.378 . S
C1476 C1477 1.367 . S
C1477 C1476 1.367 . S
C1477 C1479 1.433 . S
C1478 C1474 1.350 . S
C1478 C1475 1.463 . S
C1478 N1482 1.427 . S
C1479 H1469 0.929 . S
C1479 C1477 1.433 . S
C1479 N1482 1.384 . S
C1480 H1471 0.929 . S
C1480 C1472 1.378 . S
C1480 C1475 1.350 . S
C1481 H1468 0.929 . S
C1481 C1473 1.433 . S
C1481 N1483 1.384 . S
N1482 C1478 1.427 . S
N1482 C1479 1.384 . S
N1483 C1475 1.427 . S
N1483 C1481 1.384 . S
H1484 C1490 0.930 . S
H1485 C1494 0.930 . S
H1486 C1499 0.929 . S
H1487 C1497 0.929 . S
H1488 C1492 0.929 . S
H1489 C1498 0.929 . S
C1490 H1484 0.930 . S
C1490 C1491 1.367 . S
C1490 C1498 1.378 . S
C1491 C1490 1.367 . S
C1491 C1499 1.433 . S
C1492 H1488 0.929 . S
C1492 C1494 1.378 . S
C1492 C1496 1.350 . S
C1493 C1496 1.463 . S
C1493 C1498 1.350 . S
C1493 N1501 1.427 . S
C1494 H1485 0.930 . S
C1494 C1492 1.378 . S
C1494 C1495 1.367 . S
C1495 C1494 1.367 . S
C1495 C1497 1.433 . S
C1496 C1492 1.350 . S
C1496 C1493 1.463 . S
C1496 N1500 1.427 . S
C1497 H1487 0.929 . S
C1497 C1495 1.433 . S
C1497 N1500 1.384 . S
C1498 H1489 0.929 . S
C1498 C1490 1.378 . S
C1498 C1493 1.350 . S
C1499 H1486 0.929 . S
C1499 C1491 1.433 . S
C1499 N1501 1.384 . S
N1500 C1496 1.427 . S
N1500 C1497 1.384 . S
N1501 C1493 1.427 . S
N1501 C1499 1.384 . S
H1502 C1508 0.930 . S
H1503 C1512 0.930 . S
H1504 C1517 0.929 . S
H1505 C1515 0.929 . S
H1506 C1510 0.929 . S
H1507 C1516 0.929 . S
C1508 H1502 0.930 . S
C1508 C1509 1.367 . S
C1508 C1516 1.378 . S
C1509 C1508 1.367 . S
C1509 C1517 1.433 . S
C1510 H1506 0.929 . S
C1510 C1512 1.378 . S
C1510 C1514 1.350 . S
C1511 C1514 1.463 . S
C1511 C1516 1.350 . S
C1511 N1519 1.427 . S
C1512 H1503 0.930 . S
C1512 C1510 1.378 . S
C1512 C1513 1.367 . S
C1513 C1512 1.367 . S
C1513 C1515 1.433 . S
C1514 C1510 1.350 . S
C1514 C1511 1.463 . S
C1514 N1518 1.427 . S
C1515 H1505 0.929 . S
C1515 C1513 1.433 . S
C1515 N1518 1.384 . S
C1516 H1507 0.929 . S
C1516 C1508 1.378 . S
C1516 C1511 1.350 . S
C1517 H1504 0.929 . S
C1517 C1509 1.433 . S
C1517 N1519 1.384 . S
N1518 C1514 1.427 . S
N1518 C1515 1.384 . S
N1519 C1511 1.427 . S
N1519 C1517 1.384 . S
H1520 C1526 0.930 . S
H1521 C1530 0.930 . S
H1522 C1535 0.929 . S
H1523 C1533 0.929 . S
H1524 C1528 0.929 . S
H1525 C1534 0.929 . S
C1526 H1520 0.930 . S
C1526 C1527 1.367 . S
C1526 C1534 1.378 . S
C1527 C1526 1.367 . S
C1527 C1535 1.433 . S
C1528 H1524 0.929 . S
C1528 C1530 1.378 . S
C1528 C1532 1.350 . S
C1529 C1532 1.463 . S
C1529 C1534 1.350 . S
C1529 N1537 1.427 . S
C1530 H1521 0.930 . S
C1530 C1528 1.378 . S
C1530 C1531 1.367 . S
C1531 C1530 1.367 . S
C1531 C1533 1.433 . S
C1532 C1528 1.350 . S
C1532 C1529 1.463 . S
C1532 N1536 1.427 . S
C1533 H1523 0.929 . S
C1533 C1531 1.433 . S
C1533 N1536 1.384 . S
C1534 H1525 0.929 . S
C1534 C1526 1.378 . S
C1534 C1529 1.350 . S
C1535 H1522 0.929 . S
C1535 C1527 1.433 . S
C1535 N1537 1.384 . S
N1536 C1532 1.427 . S
N1536 C1533 1.384 . S
N1537 C1529 1.427 . S
N1537 C1535 1.384 . S
H1538 C1544 0.930 . S
H1539 C1548 0.930 . S
H1540 C1553 0.929 . S
H1541 C1551 0.929 . S
H1542 C1546 0.929 . S
H1543 C1552 0.929 . S
C1544 H1538 0.930 . S
C1544 C1545 1.367 . S
C1544 C1552 1.378 . S
C1545 C1544 1.367 . S
C1545 C1553 1.433 . S
C1546 H1542 0.929 . S
C1546 C1548 1.378 . S
C1546 C1550 1.350 . S
C1547 C1550 1.463 . S
C1547 C1552 1.350 . S
C1547 N1555 1.427 . S
C1548 H1539 0.930 . S
C1548 C1546 1.378 . S
C1548 C1549 1.367 . S
C1549 C1548 1.367 . S
C1549 C1551 1.433 . S
C1550 C1546 1.350 . S
C1550 C1547 1.463 . S
C1550 N1554 1.427 . S
C1551 H1541 0.929 . S
C1551 C1549 1.433 . S
C1551 N1554 1.384 . S
C1552 H1543 0.929 . S
C1552 C1544 1.378 . S
C1552 C1547 1.350 . S
C1553 H1540 0.929 . S
C1553 C1545 1.433 . S
C1553 N1555 1.384 . S
N1554 C1550 1.427 . S
N1554 C1551 1.384 . S
N1555 C1547 1.427 . S
N1555 C1553 1.384 . S
H1556 C1562 0.930 . S
H1557 C1566 0.930 . S
H1558 C1571 0.929 . S
H1559 C1569 0.929 . S
H1560 C1564 0.929 . S
H1561 C1570 0.929 . S
C1562 H1556 0.930 . S
C1562 C1563 1.367 . S
C1562 C1570 1.378 . S
C1563 C1562 1.367 . S
C1563 C1571 1.433 . S
C1564 H1560 0.929 . S
C1564 C1566 1.378 . S
C1564 C1568 1.350 . S
C1565 C1568 1.463 . S
C1565 C1570 1.350 . S
C1565 N1573 1.427 . S
C1566 H1557 0.930 . S
C1566 C1564 1.378 . S
C1566 C1567 1.367 . S
C1567 C1566 1.367 . S
C1567 C1569 1.433 . S
C1568 C1564 1.350 . S
C1568 C1565 1.463 . S
C1568 N1572 1.427 . S
C1569 H1559 0.929 . S
C1569 C1567 1.433 . S
C1569 N1572 1.384 . S
C1570 H1561 0.929 . S
C1570 C1562 1.378 . S
C1570 C1565 1.350 . S
C1571 H1558 0.929 . S
C1571 C1563 1.433 . S
C1571 N1573 1.384 . S
N1572 C1568 1.427 . S
N1572 C1569 1.384 . S
N1573 C1565 1.427 . S
N1573 C1571 1.384 . S
H1574 C1580 0.930 . S
H1575 C1584 0.930 . S
H1576 C1589 0.929 . S
H1577 C1587 0.929 . S
H1578 C1582 0.929 . S
H1579 C1588 0.929 . S
C1580 H1574 0.930 . S
C1580 C1581 1.367 . S
C1580 C1588 1.378 . S
C1581 C1580 1.367 . S
C1581 C1589 1.433 . S
C1582 H1578 0.929 . S
C1582 C1584 1.378 . S
C1582 C1586 1.350 . S
C1583 C1586 1.463 . S
C1583 C1588 1.350 . S
C1583 N1591 1.427 . S
C1584 H1575 0.930 . S
C1584 C1582 1.378 . S
C1584 C1585 1.367 . S
C1585 C1584 1.367 . S
C1585 C1587 1.433 . S
C1586 C1582 1.350 . S
C1586 C1583 1.463 . S
C1586 N1590 1.427 . S
C1587 H1577 0.929 . S
C1587 C1585 1.433 . S
C1587 N1590 1.384 . S
C1588 H1579 0.929 . S
C1588 C1580 1.378 . S
C1588 C1583 1.350 . S
C1589 H1576 0.929 . S
C1589 C1581 1.433 . S
C1589 N1591 1.384 . S
N1590 C1586 1.427 . S
N1590 C1587 1.384 . S
N1591 C1583 1.427 . S
N1591 C1589 1.384 . S
H1592 C1598 0.930 . S
H1593 C1602 0.930 . S
H1594 C1607 0.929 . S
H1595 C1605 0.929 . S
H1596 C1600 0.929 . S
H1597 C1606 0.929 . S
C1598 H1592 0.930 . S
C1598 C1599 1.367 . S
C1598 C1606 1.378 . S
C1599 C1598 1.367 . S
C1599 C1607 1.433 . S
C1600 H1596 0.929 . S
C1600 C1602 1.378 . S
C1600 C1604 1.350 . S
C1601 C1604 1.463 . S
C1601 C1606 1.350 . S
C1601 N1609 1.427 . S
C1602 H1593 0.930 . S
C1602 C1600 1.378 . S
C1602 C1603 1.367 . S
C1603 C1602 1.367 . S
C1603 C1605 1.433 . S
C1604 C1600 1.350 . S
C1604 C1601 1.463 . S
C1604 N1608 1.427 . S
C1605 H1595 0.929 . S
C1605 C1603 1.433 . S
C1605 N1608 1.384 . S
C1606 H1597 0.929 . S
C1606 C1598 1.378 . S
C1606 C1601 1.350 . S
C1607 H1594 0.929 . S
C1607 C1599 1.433 . S
C1607 N1609 1.384 . S
N1608 C1604 1.427 . S
N1608 C1605 1.384 . S
N1609 C1601 1.427 . S
N1609 C1607 1.384 . S
H1610 C1616 0.930 . S
H1611 C1620 0.930 . S
H1612 C1625 0.929 . S
H1613 C1623 0.929 . S
H1614 C1618 0.929 . S
H1615 C1624 0.929 . S
C1616 H1610 0.930 . S
C1616 C1617 1.367 . S
C1616 C1624 1.378 . S
C1617 C1616 1.367 . S
C1617 C1625 1.433 . S
C1618 H1614 0.929 . S
C1618 C1620 1.378 . S
C1618 C1622 1.350 . S
C1619 C1622 1.463 . S
C1619 C1624 1.350 . S
C1619 N1627 1.427 . S
C1620 H1611 0.930 . S
C1620 C1618 1.378 . S
C1620 C1621 1.367 . S
C1621 C1620 1.367 . S
C1621 C1623 1.433 . S
C1622 C1618 1.350 . S
C1622 C1619 1.463 . S
C1622 N1626 1.427 . S
C1623 H1613 0.929 . S
C1623 C1621 1.433 . S
C1623 N1626 1.384 . S
C1624 H1615 0.929 . S
C1624 C1616 1.378 . S
C1624 C1619 1.350 . S
C1625 H1612 0.929 . S
C1625 C1617 1.433 . S
C1625 N1627 1.384 . S
N1626 C1622 1.427 . S
N1626 C1623 1.384 . S
N1627 C1619 1.427 . S
N1627 C1625 1.384 . S
H1628 C1634 0.930 . S
H1629 C1638 0.930 . S
H1630 C1643 0.929 . S
H1631 C1641 0.929 . S
H1632 C1636 0.929 . S
H1633 C1642 0.929 . S
C1634 H1628 0.930 . S
C1634 C1635 1.367 . S
C1634 C1642 1.378 . S
C1635 C1634 1.367 . S
C1635 C1643 1.433 . S
C1636 H1632 0.929 . S
C1636 C1638 1.378 . S
C1636 C1640 1.350 . S
C1637 C1640 1.463 . S
C1637 C1642 1.350 . S
C1637 N1645 1.427 . S
C1638 H1629 0.930 . S
C1638 C1636 1.378 . S
C1638 C1639 1.367 . S
C1639 C1638 1.367 . S
C1639 C1641 1.433 . S
C1640 C1636 1.350 . S
C1640 C1637 1.463 . S
C1640 N1644 1.427 . S
C1641 H1631 0.929 . S
C1641 C1639 1.433 . S
C1641 N1644 1.384 . S
C1642 H1633 0.929 . S
C1642 C1634 1.378 . S
C1642 C1637 1.350 . S
C1643 H1630 0.929 . S
C1643 C1635 1.433 . S
C1643 N1645 1.384 . S
N1644 C1640 1.427 . S
N1644 C1641 1.384 . S
N1645 C1637 1.427 . S
N1645 C1643 1.384 . S
H1646 C1652 0.930 . S
H1647 C1656 0.930 . S
H1648 C1661 0.929 . S
H1649 C1659 0.929 . S
H1650 C1654 0.929 . S
H1651 C1660 0.929 . S
C1652 H1646 0.930 . S
C1652 C1653 1.367 . S
C1652 C1660 1.378 . S
C1653 C1652 1.367 . S
C1653 C1661 1.433 . S
C1654 H1650 0.929 . S
C1654 C1656 1.378 . S
C1654 C1658 1.350 . S
C1655 C1658 1.463 . S
C1655 C1660 1.350 . S
C1655 N1663 1.427 . S
C1656 H1647 0.930 . S
C1656 C1654 1.378 . S
C1656 C1657 1.367 . S
C1657 C1656 1.367 . S
C1657 C1659 1.433 . S
C1658 C1654 1.350 . S
C1658 C1655 1.463 . S
C1658 N1662 1.427 . S
C1659 H1649 0.929 . S
C1659 C1657 1.433 . S
C1659 N1662 1.384 . S
C1660 H1651 0.929 . S
C1660 C1652 1.378 . S
C1660 C1655 1.350 . S
C1661 H1648 0.929 . S
C1661 C1653 1.433 . S
C1661 N1663 1.384 . S
N1662 C1658 1.427 . S
N1662 C1659 1.384 . S
N1663 C1655 1.427 . S
N1663 C1661 1.384 . S
H1664 C1670 0.930 . S
H1665 C1674 0.930 . S
H1666 C1679 0.929 . S
H1667 C1677 0.929 . S
H1668 C1672 0.929 . S
H1669 C1678 0.929 . S
C1670 H1664 0.930 . S
C1670 C1671 1.367 . S
C1670 C1678 1.378 . S
C1671 C1670 1.367 . S
C1671 C1679 1.433 . S
C1672 H1668 0.929 . S
C1672 C1674 1.378 . S
C1672 C1676 1.350 . S
C1673 C1676 1.463 . S
C1673 C1678 1.350 . S
C1673 N1681 1.427 . S
C1674 H1665 0.930 . S
C1674 C1672 1.378 . S
C1674 C1675 1.367 . S
C1675 C1674 1.367 . S
C1675 C1677 1.433 . S
C1676 C1672 1.350 . S
C1676 C1673 1.463 . S
C1676 N1680 1.427 . S
C1677 H1667 0.929 . S
C1677 C1675 1.433 . S
C1677 N1680 1.384 . S
C1678 H1669 0.929 . S
C1678 C1670 1.378 . S
C1678 C1673 1.350 . S
C1679 H1666 0.929 . S
C1679 C1671 1.433 . S
C1679 N1681 1.384 . S
N1680 C1676 1.427 . S
N1680 C1677 1.384 . S
N1681 C1673 1.427 . S
N1681 C1679 1.384 . S
H1682 C1688 0.930 . S
H1683 C1692 0.930 . S
H1684 C1697 0.929 . S
H1685 C1695 0.929 . S
H1686 C1690 0.929 . S
H1687 C1696 0.929 . S
C1688 H1682 0.930 . S
C1688 C1689 1.367 . S
C1688 C1696 1.378 . S
C1689 C1688 1.367 . S
C1689 C1697 1.433 . S
C1690 H1686 0.929 . S
C1690 C1692 1.378 . S
C1690 C1694 1.350 . S
C1691 C1694 1.463 . S
C1691 C1696 1.350 . S
C1691 N1699 1.427 . S
C1692 H1683 0.930 . S
C1692 C1690 1.378 . S
C1692 C1693 1.367 . S
C1693 C1692 1.367 . S
C1693 C1695 1.433 . S
C1694 C1690 1.350 . S
C1694 C1691 1.463 . S
C1694 N1698 1.427 . S
C1695 H1685 0.929 . S
C1695 C1693 1.433 . S
C1695 N1698 1.384 . S
C1696 H1687 0.929 . S
C1696 C1688 1.378 . S
C1696 C1691 1.350 . S
C1697 H1684 0.929 . S
C1697 C1689 1.433 . S
C1697 N1699 1.384 . S
N1698 C1694 1.427 . S
N1698 C1695 1.384 . S
N1699 C1691 1.427 . S
N1699 C1697 1.384 . S
H1700 C1706 0.930 . S
H1701 C1710 0.930 . S
H1702 C1715 0.929 . S
H1703 C1713 0.929 . S
H1704 C1708 0.929 . S
H1705 C1714 0.929 . S
C1706 H1700 0.930 . S
C1706 C1707 1.367 . S
C1706 C1714 1.378 . S
C1707 C1706 1.367 . S
C1707 C1715 1.433 . S
C1708 H1704 0.929 . S
C1708 C1710 1.378 . S
C1708 C1712 1.350 . S
C1709 C1712 1.463 . S
C1709 C1714 1.350 . S
C1709 N1717 1.427 . S
C1710 H1701 0.930 . S
C1710 C1708 1.378 . S
C1710 C1711 1.367 . S
C1711 C1710 1.367 . S
C1711 C1713 1.433 . S
C1712 C1708 1.350 . S
C1712 C1709 1.463 . S
C1712 N1716 1.427 . S
C1713 H1703 0.929 . S
C1713 C1711 1.433 . S
C1713 N1716 1.384 . S
C1714 H1705 0.929 . S
C1714 C1706 1.378 . S
C1714 C1709 1.350 . S
C1715 H1702 0.929 . S
C1715 C1707 1.433 . S
C1715 N1717 1.384 . S
N1716 C1712 1.427 . S
N1716 C1713 1.384 . S
N1717 C1709 1.427 . S
N1717 C1715 1.384 . S
H1718 C1724 0.930 . S
H1719 C1728 0.930 . S
H1720 C1733 0.929 . S
H1721 C1731 0.929 . S
H1722 C1726 0.929 . S
H1723 C1732 0.929 . S
C1724 H1718 0.930 . S
C1724 C1725 1.367 . S
C1724 C1732 1.378 . S
C1725 C1724 1.367 . S
C1725 C1733 1.433 . S
C1726 H1722 0.929 . S
C1726 C1728 1.378 . S
C1726 C1730 1.350 . S
C1727 C1730 1.463 . S
C1727 C1732 1.350 . S
C1727 N1735 1.427 . S
C1728 H1719 0.930 . S
C1728 C1726 1.378 . S
C1728 C1729 1.367 . S
C1729 C1728 1.367 . S
C1729 C1731 1.433 . S
C1730 C1726 1.350 . S
C1730 C1727 1.463 . S
C1730 N1734 1.427 . S
C1731 H1721 0.929 . S
C1731 C1729 1.433 . S
C1731 N1734 1.384 . S
C1732 H1723 0.929 . S
C1732 C1724 1.378 . S
C1732 C1727 1.350 . S
C1733 H1720 0.929 . S
C1733 C1725 1.433 . S
C1733 N1735 1.384 . S
N1734 C1730 1.427 . S
N1734 C1731 1.384 . S
N1735 C1727 1.427 . S
N1735 C1733 1.384 . S
H1736 C1742 0.930 . S
H1737 C1746 0.930 . S
H1738 C1751 0.929 . S
H1739 C1749 0.929 . S
H1740 C1744 0.929 . S
H1741 C1750 0.929 . S
C1742 H1736 0.930 . S
C1742 C1743 1.367 . S
C1742 C1750 1.378 . S
C1743 C1742 1.367 . S
C1743 C1751 1.433 . S
C1744 H1740 0.929 . S
C1744 C1746 1.378 . S
C1744 C1748 1.350 . S
C1745 C1748 1.463 . S
C1745 C1750 1.350 . S
C1745 N1753 1.427 . S
C1746 H1737 0.930 . S
C1746 C1744 1.378 . S
C1746 C1747 1.367 . S
C1747 C1746 1.367 . S
C1747 C1749 1.433 . S
C1748 C1744 1.350 . S
C1748 C1745 1.463 . S
C1748 N1752 1.427 . S
C1749 H1739 0.929 . S
C1749 C1747 1.433 . S
C1749 N1752 1.384 . S
C1750 H1741 0.929 . S
C1750 C1742 1.378 . S
C1750 C1745 1.350 . S
C1751 H1738 0.929 . S
C1751 C1743 1.433 . S
C1751 N1753 1.384 . S
N1752 C1748 1.427 . S
N1752 C1749 1.384 . S
N1753 C1745 1.427 . S
N1753 C1751 1.384 . S
H1754 C1760 0.930 . S
H1755 C1764 0.930 . S
H1756 C1769 0.929 . S
H1757 C1767 0.929 . S
H1758 C1762 0.929 . S
H1759 C1768 0.929 . S
C1760 H1754 0.930 . S
C1760 C1761 1.367 . S
C1760 C1768 1.378 . S
C1761 C1760 1.367 . S
C1761 C1769 1.433 . S
C1762 H1758 0.929 . S
C1762 C1764 1.378 . S
C1762 C1766 1.350 . S
C1763 C1766 1.463 . S
C1763 C1768 1.350 . S
C1763 N1771 1.427 . S
C1764 H1755 0.930 . S
C1764 C1762 1.378 . S
C1764 C1765 1.367 . S
C1765 C1764 1.367 . S
C1765 C1767 1.433 . S
C1766 C1762 1.350 . S
C1766 C1763 1.463 . S
C1766 N1770 1.427 . S
C1767 H1757 0.929 . S
C1767 C1765 1.433 . S
C1767 N1770 1.384 . S
C1768 H1759 0.929 . S
C1768 C1760 1.378 . S
C1768 C1763 1.350 . S
C1769 H1756 0.929 . S
C1769 C1761 1.433 . S
C1769 N1771 1.384 . S
N1770 C1766 1.427 . S
N1770 C1767 1.384 . S
N1771 C1763 1.427 . S
N1771 C1769 1.384 . S
H1772 C1778 0.930 . S
H1773 C1782 0.930 . S
H1774 C1787 0.929 . S
H1775 C1785 0.929 . S
H1776 C1780 0.929 . S
H1777 C1786 0.929 . S
C1778 H1772 0.930 . S
C1778 C1779 1.367 . S
C1778 C1786 1.378 . S
C1779 C1778 1.367 . S
C1779 C1787 1.433 . S
C1780 H1776 0.929 . S
C1780 C1782 1.378 . S
C1780 C1784 1.350 . S
C1781 C1784 1.463 . S
C1781 C1786 1.350 . S
C1781 N1789 1.427 . S
C1782 H1773 0.930 . S
C1782 C1780 1.378 . S
C1782 C1783 1.367 . S
C1783 C1782 1.367 . S
C1783 C1785 1.433 . S
C1784 C1780 1.350 . S
C1784 C1781 1.463 . S
C1784 N1788 1.427 . S
C1785 H1775 0.929 . S
C1785 C1783 1.433 . S
C1785 N1788 1.384 . S
C1786 H1777 0.929 . S
C1786 C1778 1.378 . S
C1786 C1781 1.350 . S
C1787 H1774 0.929 . S
C1787 C1779 1.433 . S
C1787 N1789 1.384 . S
N1788 C1784 1.427 . S
N1788 C1785 1.384 . S
N1789 C1781 1.427 . S
N1789 C1787 1.384 . S
H1790 C1796 0.930 . S
H1791 C1800 0.930 . S
H1792 C1805 0.929 . S
H1793 C1803 0.929 . S
H1794 C1798 0.929 . S
H1795 C1804 0.929 . S
C1796 H1790 0.930 . S
C1796 C1797 1.367 . S
C1796 C1804 1.378 . S
C1797 C1796 1.367 . S
C1797 C1805 1.433 . S
C1798 H1794 0.929 . S
C1798 C1800 1.378 . S
C1798 C1802 1.350 . S
C1799 C1802 1.463 . S
C1799 C1804 1.350 . S
C1799 N1807 1.427 . S
C1800 H1791 0.930 . S
C1800 C1798 1.378 . S
C1800 C1801 1.367 . S
C1801 C1800 1.367 . S
C1801 C1803 1.433 . S
C1802 C1798 1.350 . S
C1802 C1799 1.463 . S
C1802 N1806 1.427 . S
C1803 H1793 0.929 . S
C1803 C1801 1.433 . S
C1803 N1806 1.384 . S
C1804 H1795 0.929 . S
C1804 C1796 1.378 . S
C1804 C1799 1.350 . S
C1805 H1792 0.929 . S
C1805 C1797 1.433 . S
C1805 N1807 1.384 . S
N1806 C1802 1.427 . S
N1806 C1803 1.384 . S
N1807 C1799 1.427 . S
N1807 C1805 1.384 . S
H1808 C1814 0.930 . S
H1809 C1818 0.930 . S
H1810 C1823 0.929 . S
H1811 C1821 0.929 . S
H1812 C1816 0.929 . S
H1813 C1822 0.929 . S
C1814 H1808 0.930 . S
C1814 C1815 1.367 . S
C1814 C1822 1.378 . S
C1815 C1814 1.367 . S
C1815 C1823 1.433 . S
C1816 H1812 0.929 . S
C1816 C1818 1.378 . S
C1816 C1820 1.350 . S
C1817 C1820 1.463 . S
C1817 C1822 1.350 . S
C1817 N1825 1.427 . S
C1818 H1809 0.930 . S
C1818 C1816 1.378 . S
C1818 C1819 1.367 . S
C1819 C1818 1.367 . S
C1819 C1821 1.433 . S
C1820 C1816 1.350 . S
C1820 C1817 1.463 . S
C1820 N1824 1.427 . S
C1821 H1811 0.929 . S
C1821 C1819 1.433 . S
C1821 N1824 1.384 . S
C1822 H1813 0.929 . S
C1822 C1814 1.378 . S
C1822 C1817 1.350 . S
C1823 H1810 0.929 . S
C1823 C1815 1.433 . S
C1823 N1825 1.384 . S
N1824 C1820 1.427 . S
N1824 C1821 1.384 . S
N1825 C1817 1.427 . S
N1825 C1823 1.384 . S
H1826 C1832 0.930 . S
H1827 C1836 0.930 . S
H1828 C1841 0.929 . S
H1829 C1839 0.929 . S
H1830 C1834 0.929 . S
H1831 C1840 0.929 . S
C1832 H1826 0.930 . S
C1832 C1833 1.367 . S
C1832 C1840 1.378 . S
C1833 C1832 1.367 . S
C1833 C1841 1.433 . S
C1834 H1830 0.929 . S
C1834 C1836 1.378 . S
C1834 C1838 1.350 . S
C1835 C1838 1.463 . S
C1835 C1840 1.350 . S
C1835 N1843 1.427 . S
C1836 H1827 0.930 . S
C1836 C1834 1.378 . S
C1836 C1837 1.367 . S
C1837 C1836 1.367 . S
C1837 C1839 1.433 . S
C1838 C1834 1.350 . S
C1838 C1835 1.463 . S
C1838 N1842 1.427 . S
C1839 H1829 0.929 . S
C1839 C1837 1.433 . S
C1839 N1842 1.384 . S
C1840 H1831 0.929 . S
C1840 C1832 1.378 . S
C1840 C1835 1.350 . S
C1841 H1828 0.929 . S
C1841 C1833 1.433 . S
C1841 N1843 1.384 . S
N1842 C1838 1.427 . S
N1842 C1839 1.384 . S
N1843 C1835 1.427 . S
N1843 C1841 1.384 . S
H1844 C1850 0.930 . S
H1845 C1854 0.930 . S
H1846 C1859 0.929 . S
H1847 C1857 0.929 . S
H1848 C1852 0.929 . S
H1849 C1858 0.929 . S
C1850 H1844 0.930 . S
C1850 C1851 1.367 . S
C1850 C1858 1.378 . S
C1851 C1850 1.367 . S
C1851 C1859 1.433 . S
C1852 H1848 0.929 . S
C1852 C1854 1.378 . S
C1852 C1856 1.350 . S
C1853 C1856 1.463 . S
C1853 C1858 1.350 . S
C1853 N1861 1.427 . S
C1854 H1845 0.930 . S
C1854 C1852 1.378 . S
C1854 C1855 1.367 . S
C1855 C1854 1.367 . S
C1855 C1857 1.433 . S
C1856 C1852 1.350 . S
C1856 C1853 1.463 . S
C1856 N1860 1.427 . S
C1857 H1847 0.929 . S
C1857 C1855 1.433 . S
C1857 N1860 1.384 . S
C1858 H1849 0.929 . S
C1858 C1850 1.378 . S
C1858 C1853 1.350 . S
C1859 H1846 0.929 . S
C1859 C1851 1.433 . S
C1859 N1861 1.384 . S
N1860 C1856 1.427 . S
N1860 C1857 1.384 . S
N1861 C1853 1.427 . S
N1861 C1859 1.384 . S
H1862 C1868 0.930 . S
H1863 C1872 0.930 . S
H1864 C1877 0.929 . S
H1865 C1875 0.929 . S
H1866 C1870 0.929 . S
H1867 C1876 0.929 . S
C1868 H1862 0.930 . S
C1868 C1869 1.367 . S
C1868 C1876 1.378 . S
C1869 C1868 1.367 . S
C1869 C1877 1.433 . S
C1870 H1866 0.929 . S
C1870 C1872 1.378 . S
C1870 C1874 1.350 . S
C1871 C1874 1.463 . S
C1871 C1876 1.350 . S
C1871 N1879 1.427 . S
C1872 H1863 0.930 . S
C1872 C1870 1.378 . S
C1872 C1873 1.367 . S
C1873 C1872 1.367 . S
C1873 C1875 1.433 . S
C1874 C1870 1.350 . S
C1874 C1871 1.463 . S
C1874 N1878 1.427 . S
C1875 H1865 0.929 . S
C1875 C1873 1.433 . S
C1875 N1878 1.384 . S
C1876 H1867 0.929 . S
C1876 C1868 1.378 . S
C1876 C1871 1.350 . S
C1877 H1864 0.929 . S
C1877 C1869 1.433 . S
C1877 N1879 1.384 . S
N1878 C1874 1.427 . S
N1878 C1875 1.384 . S
N1879 C1871 1.427 . S
N1879 C1877 1.384 . S
H1880 C1886 0.930 . S
H1881 C1890 0.930 . S
H1882 C1895 0.929 . S
H1883 C1893 0.929 . S
H1884 C1888 0.929 . S
H1885 C1894 0.929 . S
C1886 H1880 0.930 . S
C1886 C1887 1.367 . S
C1886 C1894 1.378 . S
C1887 C1886 1.367 . S
C1887 C1895 1.433 . S
C1888 H1884 0.929 . S
C1888 C1890 1.378 . S
C1888 C1892 1.350 . S
C1889 C1892 1.463 . S
C1889 C1894 1.350 . S
C1889 N1897 1.427 . S
C1890 H1881 0.930 . S
C1890 C1888 1.378 . S
C1890 C1891 1.367 . S
C1891 C1890 1.367 . S
C1891 C1893 1.433 . S
C1892 C1888 1.350 . S
C1892 C1889 1.463 . S
C1892 N1896 1.427 . S
C1893 H1883 0.929 . S
C1893 C1891 1.433 . S
C1893 N1896 1.384 . S
C1894 H1885 0.929 . S
C1894 C1886 1.378 . S
C1894 C1889 1.350 . S
C1895 H1882 0.929 . S
C1895 C1887 1.433 . S
C1895 N1897 1.384 . S
N1896 C1892 1.427 . S
N1896 C1893 1.384 . S
N1897 C1889 1.427 . S
N1897 C1895 1.384 . S
H1898 C1904 0.930 . S
H1899 C1908 0.930 . S
H1900 C1913 0.929 . S
H1901 C1911 0.929 . S
H1902 C1906 0.929 . S
H1903 C1912 0.929 . S
C1904 H1898 0.930 . S
C1904 C1905 1.367 . S
C1904 C1912 1.378 . S
C1905 C1904 1.367 . S
C1905 C1913 1.433 . S
C1906 H1902 0.929 . S
C1906 C1908 1.378 . S
C1906 C1910 1.350 . S
C1907 C1910 1.463 . S
C1907 C1912 1.350 . S
C1907 N1915 1.427 . S
C1908 H1899 0.930 . S
C1908 C1906 1.378 . S
C1908 C1909 1.367 . S
C1909 C1908 1.367 . S
C1909 C1911 1.433 . S
C1910 C1906 1.350 . S
C1910 C1907 1.463 . S
C1910 N1914 1.427 . S
C1911 H1901 0.929 . S
C1911 C1909 1.433 . S
C1911 N1914 1.384 . S
C1912 H1903 0.929 . S
C1912 C1904 1.378 . S
C1912 C1907 1.350 . S
C1913 H1900 0.929 . S
C1913 C1905 1.433 . S
C1913 N1915 1.384 . S
N1914 C1910 1.427 . S
N1914 C1911 1.384 . S
N1915 C1907 1.427 . S
N1915 C1913 1.384 . S
H1916 C1922 0.930 . S
H1917 C1926 0.930 . S
H1918 C1931 0.929 . S
H1919 C1929 0.929 . S
H1920 C1924 0.929 . S
H1921 C1930 0.929 . S
C1922 H1916 0.930 . S
C1922 C1923 1.367 . S
C1922 C1930 1.378 . S
C1923 C1922 1.367 . S
C1923 C1931 1.433 . S
C1924 H1920 0.929 . S
C1924 C1926 1.378 . S
C1924 C1928 1.350 . S
C1925 C1928 1.463 . S
C1925 C1930 1.350 . S
C1925 N1933 1.427 . S
C1926 H1917 0.930 . S
C1926 C1924 1.378 . S
C1926 C1927 1.367 . S
C1927 C1926 1.367 . S
C1927 C1929 1.433 . S
C1928 C1924 1.350 . S
C1928 C1925 1.463 . S
C1928 N1932 1.427 . S
C1929 H1919 0.929 . S
C1929 C1927 1.433 . S
C1929 N1932 1.384 . S
C1930 H1921 0.929 . S
C1930 C1922 1.378 . S
C1930 C1925 1.350 . S
C1931 H1918 0.929 . S
C1931 C1923 1.433 . S
C1931 N1933 1.384 . S
N1932 C1928 1.427 . S
N1932 C1929 1.384 . S
N1933 C1925 1.427 . S
N1933 C1931 1.384 . S
H1934 C1940 0.930 . S
H1935 C1944 0.930 . S
H1936 C1949 0.929 . S
H1937 C1947 0.929 . S
H1938 C1942 0.929 . S
H1939 C1948 0.929 . S
C1940 H1934 0.930 . S
C1940 C1941 1.367 . S
C1940 C1948 1.378 . S
C1941 C1940 1.367 . S
C1941 C1949 1.433 . S
C1942 H1938 0.929 . S
C1942 C1944 1.378 . S
C1942 C1946 1.350 . S
C1943 C1946 1.463 . S
C1943 C1948 1.350 . S
C1943 N1951 1.427 . S
C1944 H1935 0.930 . S
C1944 C1942 1.378 . S
C1944 C1945 1.367 . S
C1945 C1944 1.367 . S
C1945 C1947 1.433 . S
C1946 C1942 1.350 . S
C1946 C1943 1.463 . S
C1946 N1950 1.427 . S
C1947 H1937 0.929 . S
C1947 C1945 1.433 . S
C1947 N1950 1.384 . S
C1948 H1939 0.929 . S
C1948 C1940 1.378 . S
C1948 C1943 1.350 . S
C1949 H1936 0.929 . S
C1949 C1941 1.433 . S
C1949 N1951 1.384 . S
N1950 C1946 1.427 . S
N1950 C1947 1.384 . S
N1951 C1943 1.427 . S
N1951 C1949 1.384 . S
H1952 C1958 0.930 . S
H1953 C1962 0.930 . S
H1954 C1967 0.929 . S
H1955 C1965 0.929 . S
H1956 C1960 0.929 . S
H1957 C1966 0.929 . S
C1958 H1952 0.930 . S
C1958 C1959 1.367 . S
C1958 C1966 1.378 . S
C1959 C1958 1.367 . S
C1959 C1967 1.433 . S
C1960 H1956 0.929 . S
C1960 C1962 1.378 . S
C1960 C1964 1.350 . S
C1961 C1964 1.463 . S
C1961 C1966 1.350 . S
C1961 N1969 1.427 . S
C1962 H1953 0.930 . S
C1962 C1960 1.378 . S
C1962 C1963 1.367 . S
C1963 C1962 1.367 . S
C1963 C1965 1.433 . S
C1964 C1960 1.350 . S
C1964 C1961 1.463 . S
C1964 N1968 1.427 . S
C1965 H1955 0.929 . S
C1965 C1963 1.433 . S
C1965 N1968 1.384 . S
C1966 H1957 0.929 . S
C1966 C1958 1.378 . S
C1966 C1961 1.350 . S
C1967 H1954 0.929 . S
C1967 C1959 1.433 . S
C1967 N1969 1.384 . S
N1968 C1964 1.427 . S
N1968 C1965 1.384 . S
N1969 C1961 1.427 . S
N1969 C1967 1.384 . S
H1970 C1976 0.930 . S
H1971 C1980 0.930 . S
H1972 C1985 0.929 . S
H1973 C1983 0.929 . S
H1974 C1978 0.929 . S
H1975 C1984 0.929 . S
C1976 H1970 0.930 . S
C1976 C1977 1.367 . S
C1976 C1984 1.378 . S
C1977 C1976 1.367 . S
C1977 C1985 1.433 . S
C1978 H1974 0.929 . S
C1978 C1980 1.378 . S
C1978 C1982 1.350 . S
C1979 C1982 1.463 . S
C1979 C1984 1.350 . S
C1979 N1987 1.427 . S
C1980 H1971 0.930 . S
C1980 C1978 1.378 . S
C1980 C1981 1.367 . S
C1981 C1980 1.367 . S
C1981 C1983 1.433 . S
C1982 C1978 1.350 . S
C1982 C1979 1.463 . S
C1982 N1986 1.427 . S
C1983 H1973 0.929 . S
C1983 C1981 1.433 . S
C1983 N1986 1.384 . S
C1984 H1975 0.929 . S
C1984 C1976 1.378 . S
C1984 C1979 1.350 . S
C1985 H1972 0.929 . S
C1985 C1977 1.433 . S
C1985 N1987 1.384 . S
N1986 C1982 1.427 . S
N1986 C1983 1.384 . S
N1987 C1979 1.427 . S
N1987 C1985 1.384 . S
H1988 C1994 0.930 . S
H1989 C1998 0.930 . S
H1990 C2003 0.929 . S
H1991 C2001 0.929 . S
H1992 C1996 0.929 . S
H1993 C2002 0.929 . S
C1994 H1988 0.930 . S
C1994 C1995 1.367 . S
C1994 C2002 1.378 . S
C1995 C1994 1.367 . S
C1995 C2003 1.433 . S
C1996 H1992 0.929 . S
C1996 C1998 1.378 . S
C1996 C2000 1.350 . S
C1997 C2000 1.463 . S
C1997 C2002 1.350 . S
C1997 N2005 1.427 . S
C1998 H1989 0.930 . S
C1998 C1996 1.378 . S
C1998 C1999 1.367 . S
C1999 C1998 1.367 . S
C1999 C2001 1.433 . S
C2000 C1996 1.350 . S
C2000 C1997 1.463 . S
C2000 N2004 1.427 . S
C2001 H1991 0.929 . S
C2001 C1999 1.433 . S
C2001 N2004 1.384 . S
C2002 H1993 0.929 . S
C2002 C1994 1.378 . S
C2002 C1997 1.350 . S
C2003 H1990 0.929 . S
C2003 C1995 1.433 . S
C2003 N2005 1.384 . S
N2004 C2000 1.427 . S
N2004 C2001 1.384 . S
N2005 C1997 1.427 . S
N2005 C2003 1.384 . S
H2006 C2012 0.930 . S
H2007 C2016 0.930 . S
H2008 C2021 0.929 . S
H2009 C2019 0.929 . S
H2010 C2014 0.929 . S
H2011 C2020 0.929 . S
C2012 H2006 0.930 . S
C2012 C2013 1.367 . S
C2012 C2020 1.378 . S
C2013 C2012 1.367 . S
C2013 C2021 1.433 . S
C2014 H2010 0.929 . S
C2014 C2016 1.378 . S
C2014 C2018 1.350 . S
C2015 C2018 1.463 . S
C2015 C2020 1.350 . S
C2015 N2023 1.427 . S
C2016 H2007 0.930 . S
C2016 C2014 1.378 . S
C2016 C2017 1.367 . S
C2017 C2016 1.367 . S
C2017 C2019 1.433 . S
C2018 C2014 1.350 . S
C2018 C2015 1.463 . S
C2018 N2022 1.427 . S
C2019 H2009 0.929 . S
C2019 C2017 1.433 . S
C2019 N2022 1.384 . S
C2020 H2011 0.929 . S
C2020 C2012 1.378 . S
C2020 C2015 1.350 . S
C2021 H2008 0.929 . S
C2021 C2013 1.433 . S
C2021 N2023 1.384 . S
N2022 C2018 1.427 . S
N2022 C2019 1.384 . S
N2023 C2015 1.427 . S
N2023 C2021 1.384 . S
H2024 C2030 0.930 . S
H2025 C2034 0.930 . S
H2026 C2039 0.929 . S
H2027 C2037 0.929 . S
H2028 C2032 0.929 . S
H2029 C2038 0.929 . S
C2030 H2024 0.930 . S
C2030 C2031 1.367 . S
C2030 C2038 1.378 . S
C2031 C2030 1.367 . S
C2031 C2039 1.433 . S
C2032 H2028 0.929 . S
C2032 C2034 1.378 . S
C2032 C2036 1.350 . S
C2033 C2036 1.463 . S
C2033 C2038 1.350 . S
C2033 N2041 1.427 . S
C2034 H2025 0.930 . S
C2034 C2032 1.378 . S
C2034 C2035 1.367 . S
C2035 C2034 1.367 . S
C2035 C2037 1.433 . S
C2036 C2032 1.350 . S
C2036 C2033 1.463 . S
C2036 N2040 1.427 . S
C2037 H2027 0.929 . S
C2037 C2035 1.433 . S
C2037 N2040 1.384 . S
C2038 H2029 0.929 . S
C2038 C2030 1.378 . S
C2038 C2033 1.350 . S
C2039 H2026 0.929 . S
C2039 C2031 1.433 . S
C2039 N2041 1.384 . S
N2040 C2036 1.427 . S
N2040 C2037 1.384 . S
N2041 C2033 1.427 . S
N2041 C2039 1.384 . S
H2042 C2048 0.930 . S
H2043 C2052 0.930 . S
H2044 C2057 0.929 . S
H2045 C2055 0.929 . S
H2046 C2050 0.929 . S
H2047 C2056 0.929 . S
C2048 H2042 0.930 . S
C2048 C2049 1.367 . S
C2048 C2056 1.378 . S
C2049 C2048 1.367 . S
C2049 C2057 1.433 . S
C2050 H2046 0.929 . S
C2050 C2052 1.378 . S
C2050 C2054 1.350 . S
C2051 C2054 1.463 . S
C2051 C2056 1.350 . S
C2051 N2059 1.427 . S
C2052 H2043 0.930 . S
C2052 C2050 1.378 . S
C2052 C2053 1.367 . S
C2053 C2052 1.367 . S
C2053 C2055 1.433 . S
C2054 C2050 1.350 . S
C2054 C2051 1.463 . S
C2054 N2058 1.427 . S
C2055 H2045 0.929 . S
C2055 C2053 1.433 . S
C2055 N2058 1.384 . S
C2056 H2047 0.929 . S
C2056 C2048 1.378 . S
C2056 C2051 1.350 . S
C2057 H2044 0.929 . S
C2057 C2049 1.433 . S
C2057 N2059 1.384 . S
N2058 C2054 1.427 . S
N2058 C2055 1.384 . S
N2059 C2051 1.427 . S
N2059 C2057 1.384 . S
H2060 C2066 0.930 . S
H2061 C2070 0.930 . S
H2062 C2075 0.929 . S
H2063 C2073 0.929 . S
H2064 C2068 0.929 . S
H2065 C2074 0.929 . S
C2066 H2060 0.930 . S
C2066 C2067 1.367 . S
C2066 C2074 1.378 . S
C2067 C2066 1.367 . S
C2067 C2075 1.433 . S
C2068 H2064 0.929 . S
C2068 C2070 1.378 . S
C2068 C2072 1.350 . S
C2069 C2072 1.463 . S
C2069 C2074 1.350 . S
C2069 N2077 1.427 . S
C2070 H2061 0.930 . S
C2070 C2068 1.378 . S
C2070 C2071 1.367 . S
C2071 C2070 1.367 . S
C2071 C2073 1.433 . S
C2072 C2068 1.350 . S
C2072 C2069 1.463 . S
C2072 N2076 1.427 . S
C2073 H2063 0.929 . S
C2073 C2071 1.433 . S
C2073 N2076 1.384 . S
C2074 H2065 0.929 . S
C2074 C2066 1.378 . S
C2074 C2069 1.350 . S
C2075 H2062 0.929 . S
C2075 C2067 1.433 . S
C2075 N2077 1.384 . S
N2076 C2072 1.427 . S
N2076 C2073 1.384 . S
N2077 C2069 1.427 . S
N2077 C2075 1.384 . S
H2078 C2084 0.930 . S
H2079 C2088 0.930 . S
H2080 C2093 0.929 . S
H2081 C2091 0.929 . S
H2082 C2086 0.929 . S
H2083 C2092 0.929 . S
C2084 H2078 0.930 . S
C2084 C2085 1.367 . S
C2084 C2092 1.378 . S
C2085 C2084 1.367 . S
C2085 C2093 1.433 . S
C2086 H2082 0.929 . S
C2086 C2088 1.378 . S
C2086 C2090 1.350 . S
C2087 C2090 1.463 . S
C2087 C2092 1.350 . S
C2087 N2095 1.427 . S
C2088 H2079 0.930 . S
C2088 C2086 1.378 . S
C2088 C2089 1.367 . S
C2089 C2088 1.367 . S
C2089 C2091 1.433 . S
C2090 C2086 1.350 . S
C2090 C2087 1.463 . S
C2090 N2094 1.427 . S
C2091 H2081 0.929 . S
C2091 C2089 1.433 . S
C2091 N2094 1.384 . S
C2092 H2083 0.929 . S
C2092 C2084 1.378 . S
C2092 C2087 1.350 . S
C2093 H2080 0.929 . S
C2093 C2085 1.433 . S
C2093 N2095 1.384 . S
N2094 C2090 1.427 . S
N2094 C2091 1.384 . S
N2095 C2087 1.427 . S
N2095 C2093 1.384 . S
H2096 C2102 0.930 . S
H2097 C2106 0.930 . S
H2098 C2111 0.929 . S
H2099 C2109 0.929 . S
H2100 C2104 0.929 . S
H2101 C2110 0.929 . S
C2102 H2096 0.930 . S
C2102 C2103 1.367 . S
C2102 C2110 1.378 . S
C2103 C2102 1.367 . S
C2103 C2111 1.433 . S
C2104 H2100 0.929 . S
C2104 C2106 1.378 . S
C2104 C2108 1.350 . S
C2105 C2108 1.463 . S
C2105 C2110 1.350 . S
C2105 N2113 1.427 . S
C2106 H2097 0.930 . S
C2106 C2104 1.378 . S
C2106 C2107 1.367 . S
C2107 C2106 1.367 . S
C2107 C2109 1.433 . S
C2108 C2104 1.350 . S
C2108 C2105 1.463 . S
C2108 N2112 1.427 . S
C2109 H2099 0.929 . S
C2109 C2107 1.433 . S
C2109 N2112 1.384 . S
C2110 H2101 0.929 . S
C2110 C2102 1.378 . S
C2110 C2105 1.350 . S
C2111 H2098 0.929 . S
C2111 C2103 1.433 . S
C2111 N2113 1.384 . S
N2112 C2108 1.427 . S
N2112 C2109 1.384 . S
N2113 C2105 1.427 . S
N2113 C2111 1.384 . S
H2114 C2120 0.930 . S
H2115 C2124 0.930 . S
H2116 C2129 0.929 . S
H2117 C2127 0.929 . S
H2118 C2122 0.929 . S
H2119 C2128 0.929 . S
C2120 H2114 0.930 . S
C2120 C2121 1.367 . S
C2120 C2128 1.378 . S
C2121 C2120 1.367 . S
C2121 C2129 1.433 . S
C2122 H2118 0.929 . S
C2122 C2124 1.378 . S
C2122 C2126 1.350 . S
C2123 C2126 1.463 . S
C2123 C2128 1.350 . S
C2123 N2131 1.427 . S
C2124 H2115 0.930 . S
C2124 C2122 1.378 . S
C2124 C2125 1.367 . S
C2125 C2124 1.367 . S
C2125 C2127 1.433 . S
C2126 C2122 1.350 . S
C2126 C2123 1.463 . S
C2126 N2130 1.427 . S
C2127 H2117 0.929 . S
C2127 C2125 1.433 . S
C2127 N2130 1.384 . S
C2128 H2119 0.929 . S
C2128 C2120 1.378 . S
C2128 C2123 1.350 . S
C2129 H2116 0.929 . S
C2129 C2121 1.433 . S
C2129 N2131 1.384 . S
N2130 C2126 1.427 . S
N2130 C2127 1.384 . S
N2131 C2123 1.427 . S
N2131 C2129 1.384 . S
H2132 C2138 0.930 . S
H2133 C2142 0.930 . S
H2134 C2147 0.929 . S
H2135 C2145 0.929 . S
H2136 C2140 0.929 . S
H2137 C2146 0.929 . S
C2138 H2132 0.930 . S
C2138 C2139 1.367 . S
C2138 C2146 1.378 . S
C2139 C2138 1.367 . S
C2139 C2147 1.433 . S
C2140 H2136 0.929 . S
C2140 C2142 1.378 . S
C2140 C2144 1.350 . S
C2141 C2144 1.463 . S
C2141 C2146 1.350 . S
C2141 N2149 1.427 . S
C2142 H2133 0.930 . S
C2142 C2140 1.378 . S
C2142 C2143 1.367 . S
C2143 C2142 1.367 . S
C2143 C2145 1.433 . S
C2144 C2140 1.350 . S
C2144 C2141 1.463 . S
C2144 N2148 1.427 . S
C2145 H2135 0.929 . S
C2145 C2143 1.433 . S
C2145 N2148 1.384 . S
C2146 H2137 0.929 . S
C2146 C2138 1.378 . S
C2146 C2141 1.350 . S
C2147 H2134 0.929 . S
C2147 C2139 1.433 . S
C2147 N2149 1.384 . S
N2148 C2144 1.427 . S
N2148 C2145 1.384 . S
N2149 C2141 1.427 . S
N2149 C2147 1.384 . S
H2150 C2156 0.930 . S
H2151 C2160 0.930 . S
H2152 C2165 0.929 . S
H2153 C2163 0.929 . S
H2154 C2158 0.929 . S
H2155 C2164 0.929 . S
C2156 H2150 0.930 . S
C2156 C2157 1.367 . S
C2156 C2164 1.378 . S
C2157 C2156 1.367 . S
C2157 C2165 1.433 . S
C2158 H2154 0.929 . S
C2158 C2160 1.378 . S
C2158 C2162 1.350 . S
C2159 C2162 1.463 . S
C2159 C2164 1.350 . S
C2159 N2167 1.427 . S
C2160 H2151 0.930 . S
C2160 C2158 1.378 . S
C2160 C2161 1.367 . S
C2161 C2160 1.367 . S
C2161 C2163 1.433 . S
C2162 C2158 1.350 . S
C2162 C2159 1.463 . S
C2162 N2166 1.427 . S
C2163 H2153 0.929 . S
C2163 C2161 1.433 . S
C2163 N2166 1.384 . S
C2164 H2155 0.929 . S
C2164 C2156 1.378 . S
C2164 C2159 1.350 . S
C2165 H2152 0.929 . S
C2165 C2157 1.433 . S
C2165 N2167 1.384 . S
N2166 C2162 1.427 . S
N2166 C2163 1.384 . S
N2167 C2159 1.427 . S
N2167 C2165 1.384 . S
H2168 C2174 0.930 . S
H2169 C2178 0.930 . S
H2170 C2183 0.929 . S
H2171 C2181 0.929 . S
H2172 C2176 0.929 . S
H2173 C2182 0.929 . S
C2174 H2168 0.930 . S
C2174 C2175 1.367 . S
C2174 C2182 1.378 . S
C2175 C2174 1.367 . S
C2175 C2183 1.433 . S
C2176 H2172 0.929 . S
C2176 C2178 1.378 . S
C2176 C2180 1.350 . S
C2177 C2180 1.463 . S
C2177 C2182 1.350 . S
C2177 N2185 1.427 . S
C2178 H2169 0.930 . S
C2178 C2176 1.378 . S
C2178 C2179 1.367 . S
C2179 C2178 1.367 . S
C2179 C2181 1.433 . S
C2180 C2176 1.350 . S
C2180 C2177 1.463 . S
C2180 N2184 1.427 . S
C2181 H2171 0.929 . S
C2181 C2179 1.433 . S
C2181 N2184 1.384 . S
C2182 H2173 0.929 . S
C2182 C2174 1.378 . S
C2182 C2177 1.350 . S
C2183 H2170 0.929 . S
C2183 C2175 1.433 . S
C2183 N2185 1.384 . S
N2184 C2180 1.427 . S
N2184 C2181 1.384 . S
N2185 C2177 1.427 . S
N2185 C2183 1.384 . S
H2186 C2192 0.930 . S
H2187 C2196 0.930 . S
H2188 C2201 0.929 . S
H2189 C2199 0.929 . S
H2190 C2194 0.929 . S
H2191 C2200 0.929 . S
C2192 H2186 0.930 . S
C2192 C2193 1.367 . S
C2192 C2200 1.378 . S
C2193 C2192 1.367 . S
C2193 C2201 1.433 . S
C2194 H2190 0.929 . S
C2194 C2196 1.378 . S
C2194 C2198 1.350 . S
C2195 C2198 1.463 . S
C2195 C2200 1.350 . S
C2195 N2203 1.427 . S
C2196 H2187 0.930 . S
C2196 C2194 1.378 . S
C2196 C2197 1.367 . S
C2197 C2196 1.367 . S
C2197 C2199 1.433 . S
C2198 C2194 1.350 . S
C2198 C2195 1.463 . S
C2198 N2202 1.427 . S
C2199 H2189 0.929 . S
C2199 C2197 1.433 . S
C2199 N2202 1.384 . S
C2200 H2191 0.929 . S
C2200 C2192 1.378 . S
C2200 C2195 1.350 . S
C2201 H2188 0.929 . S
C2201 C2193 1.433 . S
C2201 N2203 1.384 . S
N2202 C2198 1.427 . S
N2202 C2199 1.384 . S
N2203 C2195 1.427 . S
N2203 C2201 1.384 . S
H2204 C2210 0.930 . S
H2205 C2214 0.930 . S
H2206 C2219 0.929 . S
H2207 C2217 0.929 . S
H2208 C2212 0.929 . S
H2209 C2218 0.929 . S
C2210 H2204 0.930 . S
C2210 C2211 1.367 . S
C2210 C2218 1.378 . S
C2211 C2210 1.367 . S
C2211 C2219 1.433 . S
C2212 H2208 0.929 . S
C2212 C2214 1.378 . S
C2212 C2216 1.350 . S
C2213 C2216 1.463 . S
C2213 C2218 1.350 . S
C2213 N2221 1.427 . S
C2214 H2205 0.930 . S
C2214 C2212 1.378 . S
C2214 C2215 1.367 . S
C2215 C2214 1.367 . S
C2215 C2217 1.433 . S
C2216 C2212 1.350 . S
C2216 C2213 1.463 . S
C2216 N2220 1.427 . S
C2217 H2207 0.929 . S
C2217 C2215 1.433 . S
C2217 N2220 1.384 . S
C2218 H2209 0.929 . S
C2218 C2210 1.378 . S
C2218 C2213 1.350 . S
C2219 H2206 0.929 . S
C2219 C2211 1.433 . S
C2219 N2221 1.384 . S
N2220 C2216 1.427 . S
N2220 C2217 1.384 . S
N2221 C2213 1.427 . S
N2221 C2219 1.384 . S
H2222 C2228 0.930 . S
H2223 C2232 0.930 . S
H2224 C2237 0.929 . S
H2225 C2235 0.929 . S
H2226 C2230 0.929 . S
H2227 C2236 0.929 . S
C2228 H2222 0.930 . S
C2228 C2229 1.367 . S
C2228 C2236 1.378 . S
C2229 C2228 1.367 . S
C2229 C2237 1.433 . S
C2230 H2226 0.929 . S
C2230 C2232 1.378 . S
C2230 C2234 1.350 . S
C2231 C2234 1.463 . S
C2231 C2236 1.350 . S
C2231 N2239 1.427 . S
C2232 H2223 0.930 . S
C2232 C2230 1.378 . S
C2232 C2233 1.367 . S
C2233 C2232 1.367 . S
C2233 C2235 1.433 . S
C2234 C2230 1.350 . S
C2234 C2231 1.463 . S
C2234 N2238 1.427 . S
C2235 H2225 0.929 . S
C2235 C2233 1.433 . S
C2235 N2238 1.384 . S
C2236 H2227 0.929 . S
C2236 C2228 1.378 . S
C2236 C2231 1.350 . S
C2237 H2224 0.929 . S
C2237 C2229 1.433 . S
C2237 N2239 1.384 . S
N2238 C2234 1.427 . S
N2238 C2235 1.384 . S
N2239 C2231 1.427 . S
N2239 C2237 1.384 . S
H2240 C2246 0.930 . S
H2241 C2250 0.930 . S
H2242 C2255 0.929 . S
H2243 C2253 0.929 . S
H2244 C2248 0.929 . S
H2245 C2254 0.929 . S
C2246 H2240 0.930 . S
C2246 C2247 1.367 . S
C2246 C2254 1.378 . S
C2247 C2246 1.367 . S
C2247 C2255 1.433 . S
C2248 H2244 0.929 . S
C2248 C2250 1.378 . S
C2248 C2252 1.350 . S
C2249 C2252 1.463 . S
C2249 C2254 1.350 . S
C2249 N2257 1.427 . S
C2250 H2241 0.930 . S
C2250 C2248 1.378 . S
C2250 C2251 1.367 . S
C2251 C2250 1.367 . S
C2251 C2253 1.433 . S
C2252 C2248 1.350 . S
C2252 C2249 1.463 . S
C2252 N2256 1.427 . S
C2253 H2243 0.929 . S
C2253 C2251 1.433 . S
C2253 N2256 1.384 . S
C2254 H2245 0.929 . S
C2254 C2246 1.378 . S
C2254 C2249 1.350 . S
C2255 H2242 0.929 . S
C2255 C2247 1.433 . S
C2255 N2257 1.384 . S
N2256 C2252 1.427 . S
N2256 C2253 1.384 . S
N2257 C2249 1.427 . S
N2257 C2255 1.384 . S
H2258 C2264 0.930 . S
H2259 C2268 0.930 . S
H2260 C2273 0.929 . S
H2261 C2271 0.929 . S
H2262 C2266 0.929 . S
H2263 C2272 0.929 . S
C2264 H2258 0.930 . S
C2264 C2265 1.367 . S
C2264 C2272 1.378 . S
C2265 C2264 1.367 . S
C2265 C2273 1.433 . S
C2266 H2262 0.929 . S
C2266 C2268 1.378 . S
C2266 C2270 1.350 . S
C2267 C2270 1.463 . S
C2267 C2272 1.350 . S
C2267 N2275 1.427 . S
C2268 H2259 0.930 . S
C2268 C2266 1.378 . S
C2268 C2269 1.367 . S
C2269 C2268 1.367 . S
C2269 C2271 1.433 . S
C2270 C2266 1.350 . S
C2270 C2267 1.463 . S
C2270 N2274 1.427 . S
C2271 H2261 0.929 . S
C2271 C2269 1.433 . S
C2271 N2274 1.384 . S
C2272 H2263 0.929 . S
C2272 C2264 1.378 . S
C2272 C2267 1.350 . S
C2273 H2260 0.929 . S
C2273 C2265 1.433 . S
C2273 N2275 1.384 . S
N2274 C2270 1.427 . S
N2274 C2271 1.384 . S
N2275 C2267 1.427 . S
N2275 C2273 1.384 . S
H2276 C2282 0.930 . S
H2277 C2286 0.930 . S
H2278 C2291 0.929 . S
H2279 C2289 0.929 . S
H2280 C2284 0.929 . S
H2281 C2290 0.929 . S
C2282 H2276 0.930 . S
C2282 C2283 1.367 . S
C2282 C2290 1.378 . S
C2283 C2282 1.367 . S
C2283 C2291 1.433 . S
C2284 H2280 0.929 . S
C2284 C2286 1.378 . S
C2284 C2288 1.350 . S
C2285 C2288 1.463 . S
C2285 C2290 1.350 . S
C2285 N2293 1.427 . S
C2286 H2277 0.930 . S
C2286 C2284 1.378 . S
C2286 C2287 1.367 . S
C2287 C2286 1.367 . S
C2287 C2289 1.433 . S
C2288 C2284 1.350 . S
C2288 C2285 1.463 . S
C2288 N2292 1.427 . S
C2289 H2279 0.929 . S
C2289 C2287 1.433 . S
C2289 N2292 1.384 . S
C2290 H2281 0.929 . S
C2290 C2282 1.378 . S
C2290 C2285 1.350 . S
C2291 H2278 0.929 . S
C2291 C2283 1.433 . S
C2291 N2293 1.384 . S
N2292 C2288 1.427 . S
N2292 C2289 1.384 . S
N2293 C2285 1.427 . S
N2293 C2291 1.384 . S
H2294 C2300 0.930 . S
H2295 C2304 0.930 . S
H2296 C2309 0.929 . S
H2297 C2307 0.929 . S
H2298 C2302 0.929 . S
H2299 C2308 0.929 . S
C2300 H2294 0.930 . S
C2300 C2301 1.367 . S
C2300 C2308 1.378 . S
C2301 C2300 1.367 . S
C2301 C2309 1.433 . S
C2302 H2298 0.929 . S
C2302 C2304 1.378 . S
C2302 C2306 1.350 . S
C2303 C2306 1.463 . S
C2303 C2308 1.350 . S
C2303 N2311 1.427 . S
C2304 H2295 0.930 . S
C2304 C2302 1.378 . S
C2304 C2305 1.367 . S
C2305 C2304 1.367 . S
C2305 C2307 1.433 . S
C2306 C2302 1.350 . S
C2306 C2303 1.463 . S
C2306 N2310 1.427 . S
C2307 H2297 0.929 . S
C2307 C2305 1.433 . S
C2307 N2310 1.384 . S
C2308 H2299 0.929 . S
C2308 C2300 1.378 . S
C2308 C2303 1.350 . S
C2309 H2296 0.929 . S
C2309 C2301 1.433 . S
C2309 N2311 1.384 . S
N2310 C2306 1.427 . S
N2310 C2307 1.384 . S
N2311 C2303 1.427 . S
N2311 C2309 1.384 . S
H2312 C2318 0.930 . S
H2313 C2322 0.930 . S
H2314 C2327 0.929 . S
H2315 C2325 0.929 . S
H2316 C2320 0.929 . S
H2317 C2326 0.929 . S
C2318 H2312 0.930 . S
C2318 C2319 1.367 . S
C2318 C2326 1.378 . S
C2319 C2318 1.367 . S
C2319 C2327 1.433 . S
C2320 H2316 0.929 . S
C2320 C2322 1.378 . S
C2320 C2324 1.350 . S
C2321 C2324 1.463 . S
C2321 C2326 1.350 . S
C2321 N2329 1.427 . S
C2322 H2313 0.930 . S
C2322 C2320 1.378 . S
C2322 C2323 1.367 . S
C2323 C2322 1.367 . S
C2323 C2325 1.433 . S
C2324 C2320 1.350 . S
C2324 C2321 1.463 . S
C2324 N2328 1.427 . S
C2325 H2315 0.929 . S
C2325 C2323 1.433 . S
C2325 N2328 1.384 . S
C2326 H2317 0.929 . S
C2326 C2318 1.378 . S
C2326 C2321 1.350 . S
C2327 H2314 0.929 . S
C2327 C2319 1.433 . S
C2327 N2329 1.384 . S
N2328 C2324 1.427 . S
N2328 C2325 1.384 . S
N2329 C2321 1.427 . S
N2329 C2327 1.384 . S
H2330 C2336 0.930 . S
H2331 C2340 0.930 . S
H2332 C2345 0.929 . S
H2333 C2343 0.929 . S
H2334 C2338 0.929 . S
H2335 C2344 0.929 . S
C2336 H2330 0.930 . S
C2336 C2337 1.367 . S
C2336 C2344 1.378 . S
C2337 C2336 1.367 . S
C2337 C2345 1.433 . S
C2338 H2334 0.929 . S
C2338 C2340 1.378 . S
C2338 C2342 1.350 . S
C2339 C2342 1.463 . S
C2339 C2344 1.350 . S
C2339 N2347 1.427 . S
C2340 H2331 0.930 . S
C2340 C2338 1.378 . S
C2340 C2341 1.367 . S
C2341 C2340 1.367 . S
C2341 C2343 1.433 . S
C2342 C2338 1.350 . S
C2342 C2339 1.463 . S
C2342 N2346 1.427 . S
C2343 H2333 0.929 . S
C2343 C2341 1.433 . S
C2343 N2346 1.384 . S
C2344 H2335 0.929 . S
C2344 C2336 1.378 . S
C2344 C2339 1.350 . S
C2345 H2332 0.929 . S
C2345 C2337 1.433 . S
C2345 N2347 1.384 . S
N2346 C2342 1.427 . S
N2346 C2343 1.384 . S
N2347 C2339 1.427 . S
N2347 C2345 1.384 . S
H2348 C2354 0.930 . S
H2349 C2358 0.930 . S
H2350 C2363 0.929 . S
H2351 C2361 0.929 . S
H2352 C2356 0.929 . S
H2353 C2362 0.929 . S
C2354 H2348 0.930 . S
C2354 C2355 1.367 . S
C2354 C2362 1.378 . S
C2355 C2354 1.367 . S
C2355 C2363 1.433 . S
C2356 H2352 0.929 . S
C2356 C2358 1.378 . S
C2356 C2360 1.350 . S
C2357 C2360 1.463 . S
C2357 C2362 1.350 . S
C2357 N2365 1.427 . S
C2358 H2349 0.930 . S
C2358 C2356 1.378 . S
C2358 C2359 1.367 . S
C2359 C2358 1.367 . S
C2359 C2361 1.433 . S
C2360 C2356 1.350 . S
C2360 C2357 1.463 . S
C2360 N2364 1.427 . S
C2361 H2351 0.929 . S
C2361 C2359 1.433 . S
C2361 N2364 1.384 . S
C2362 H2353 0.929 . S
C2362 C2354 1.378 . S
C2362 C2357 1.350 . S
C2363 H2350 0.929 . S
C2363 C2355 1.433 . S
C2363 N2365 1.384 . S
N2364 C2360 1.427 . S
N2364 C2361 1.384 . S
N2365 C2357 1.427 . S
N2365 C2363 1.384 . S
H2366 C2372 0.930 . S
H2367 C2376 0.930 . S
H2368 C2381 0.929 . S
H2369 C2379 0.929 . S
H2370 C2374 0.929 . S
H2371 C2380 0.929 . S
C2372 H2366 0.930 . S
C2372 C2373 1.367 . S
C2372 C2380 1.378 . S
C2373 C2372 1.367 . S
C2373 C2381 1.433 . S
C2374 H2370 0.929 . S
C2374 C2376 1.378 . S
C2374 C2378 1.350 . S
C2375 C2378 1.463 . S
C2375 C2380 1.350 . S
C2375 N2383 1.427 . S
C2376 H2367 0.930 . S
C2376 C2374 1.378 . S
C2376 C2377 1.367 . S
C2377 C2376 1.367 . S
C2377 C2379 1.433 . S
C2378 C2374 1.350 . S
C2378 C2375 1.463 . S
C2378 N2382 1.427 . S
C2379 H2369 0.929 . S
C2379 C2377 1.433 . S
C2379 N2382 1.384 . S
C2380 H2371 0.929 . S
C2380 C2372 1.378 . S
C2380 C2375 1.350 . S
C2381 H2368 0.929 . S
C2381 C2373 1.433 . S
C2381 N2383 1.384 . S
N2382 C2378 1.427 . S
N2382 C2379 1.384 . S
N2383 C2375 1.427 . S
N2383 C2381 1.384 . S
H2384 C2390 0.930 . S
H2385 C2394 0.930 . S
H2386 C2399 0.929 . S
H2387 C2397 0.929 . S
H2388 C2392 0.929 . S
H2389 C2398 0.929 . S
C2390 H2384 0.930 . S
C2390 C2391 1.367 . S
C2390 C2398 1.378 . S
C2391 C2390 1.367 . S
C2391 C2399 1.433 . S
C2392 H2388 0.929 . S
C2392 C2394 1.378 . S
C2392 C2396 1.350 . S
C2393 C2396 1.463 . S
C2393 C2398 1.350 . S
C2393 N2401 1.427 . S
C2394 H2385 0.930 . S
C2394 C2392 1.378 . S
C2394 C2395 1.367 . S
C2395 C2394 1.367 . S
C2395 C2397 1.433 . S
C2396 C2392 1.350 . S
C2396 C2393 1.463 . S
C2396 N2400 1.427 . S
C2397 H2387 0.929 . S
C2397 C2395 1.433 . S
C2397 N2400 1.384 . S
C2398 H2389 0.929 . S
C2398 C2390 1.378 . S
C2398 C2393 1.350 . S
C2399 H2386 0.929 . S
C2399 C2391 1.433 . S
C2399 N2401 1.384 . S
N2400 C2396 1.427 . S
N2400 C2397 1.384 . S
N2401 C2393 1.427 . S
N2401 C2399 1.384 . S
H2402 C2408 0.930 . S
H2403 C2412 0.930 . S
H2404 C2417 0.929 . S
H2405 C2415 0.929 . S
H2406 C2410 0.929 . S
H2407 C2416 0.929 . S
C2408 H2402 0.930 . S
C2408 C2409 1.367 . S
C2408 C2416 1.378 . S
C2409 C2408 1.367 . S
C2409 C2417 1.433 . S
C2410 H2406 0.929 . S
C2410 C2412 1.378 . S
C2410 C2414 1.350 . S
C2411 C2414 1.463 . S
C2411 C2416 1.350 . S
C2411 N2419 1.427 . S
C2412 H2403 0.930 . S
C2412 C2410 1.378 . S
C2412 C2413 1.367 . S
C2413 C2412 1.367 . S
C2413 C2415 1.433 . S
C2414 C2410 1.350 . S
C2414 C2411 1.463 . S
C2414 N2418 1.427 . S
C2415 H2405 0.929 . S
C2415 C2413 1.433 . S
C2415 N2418 1.384 . S
C2416 H2407 0.929 . S
C2416 C2408 1.378 . S
C2416 C2411 1.350 . S
C2417 H2404 0.929 . S
C2417 C2409 1.433 . S
C2417 N2419 1.384 . S
N2418 C2414 1.427 . S
N2418 C2415 1.384 . S
N2419 C2411 1.427 . S
N2419 C2417 1.384 . S
H2420 C2426 0.930 . S
H2421 C2430 0.930 . S
H2422 C2435 0.929 . S
H2423 C2433 0.929 . S
H2424 C2428 0.929 . S
H2425 C2434 0.929 . S
C2426 H2420 0.930 . S
C2426 C2427 1.367 . S
C2426 C2434 1.378 . S
C2427 C2426 1.367 . S
C2427 C2435 1.433 . S
C2428 H2424 0.929 . S
C2428 C2430 1.378 . S
C2428 C2432 1.350 . S
C2429 C2432 1.463 . S
C2429 C2434 1.350 . S
C2429 N2437 1.427 . S
C2430 H2421 0.930 . S
C2430 C2428 1.378 . S
C2430 C2431 1.367 . S
C2431 C2430 1.367 . S
C2431 C2433 1.433 . S
C2432 C2428 1.350 . S
C2432 C2429 1.463 . S
C2432 N2436 1.427 . S
C2433 H2423 0.929 . S
C2433 C2431 1.433 . S
C2433 N2436 1.384 . S
C2434 H2425 0.929 . S
C2434 C2426 1.378 . S
C2434 C2429 1.350 . S
C2435 H2422 0.929 . S
C2435 C2427 1.433 . S
C2435 N2437 1.384 . S
N2436 C2432 1.427 . S
N2436 C2433 1.384 . S
N2437 C2429 1.427 . S
N2437 C2435 1.384 . S
H2438 C2444 0.930 . S
H2439 C2448 0.930 . S
H2440 C2453 0.929 . S
H2441 C2451 0.929 . S
H2442 C2446 0.929 . S
H2443 C2452 0.929 . S
C2444 H2438 0.930 . S
C2444 C2445 1.367 . S
C2444 C2452 1.378 . S
C2445 C2444 1.367 . S
C2445 C2453 1.433 . S
C2446 H2442 0.929 . S
C2446 C2448 1.378 . S
C2446 C2450 1.350 . S
C2447 C2450 1.463 . S
C2447 C2452 1.350 . S
C2447 N2455 1.427 . S
C2448 H2439 0.930 . S
C2448 C2446 1.378 . S
C2448 C2449 1.367 . S
C2449 C2448 1.367 . S
C2449 C2451 1.433 . S
C2450 C2446 1.350 . S
C2450 C2447 1.463 . S
C2450 N2454 1.427 . S
C2451 H2441 0.929 . S
C2451 C2449 1.433 . S
C2451 N2454 1.384 . S
C2452 H2443 0.929 . S
C2452 C2444 1.378 . S
C2452 C2447 1.350 . S
C2453 H2440 0.929 . S
C2453 C2445 1.433 . S
C2453 N2455 1.384 . S
N2454 C2450 1.427 . S
N2454 C2451 1.384 . S
N2455 C2447 1.427 . S
N2455 C2453 1.384 . S
H2456 C2462 0.930 . S
H2457 C2466 0.930 . S
H2458 C2471 0.929 . S
H2459 C2469 0.929 . S
H2460 C2464 0.929 . S
H2461 C2470 0.929 . S
C2462 H2456 0.930 . S
C2462 C2463 1.367 . S
C2462 C2470 1.378 . S
C2463 C2462 1.367 . S
C2463 C2471 1.433 . S
C2464 H2460 0.929 . S
C2464 C2466 1.378 . S
C2464 C2468 1.350 . S
C2465 C2468 1.463 . S
C2465 C2470 1.350 . S
C2465 N2473 1.427 . S
C2466 H2457 0.930 . S
C2466 C2464 1.378 . S
C2466 C2467 1.367 . S
C2467 C2466 1.367 . S
C2467 C2469 1.433 . S
C2468 C2464 1.350 . S
C2468 C2465 1.463 . S
C2468 N2472 1.427 . S
C2469 H2459 0.929 . S
C2469 C2467 1.433 . S
C2469 N2472 1.384 . S
C2470 H2461 0.929 . S
C2470 C2462 1.378 . S
C2470 C2465 1.350 . S
C2471 H2458 0.929 . S
C2471 C2463 1.433 . S
C2471 N2473 1.384 . S
N2472 C2468 1.427 . S
N2472 C2469 1.384 . S
N2473 C2465 1.427 . S
N2473 C2471 1.384 . S
H2474 C2480 0.930 . S
H2475 C2484 0.930 . S
H2476 C2489 0.929 . S
H2477 C2487 0.929 . S
H2478 C2482 0.929 . S
H2479 C2488 0.929 . S
C2480 H2474 0.930 . S
C2480 C2481 1.367 . S
C2480 C2488 1.378 . S
C2481 C2480 1.367 . S
C2481 C2489 1.433 . S
C2482 H2478 0.929 . S
C2482 C2484 1.378 . S
C2482 C2486 1.350 . S
C2483 C2486 1.463 . S
C2483 C2488 1.350 . S
C2483 N2491 1.427 . S
C2484 H2475 0.930 . S
C2484 C2482 1.378 . S
C2484 C2485 1.367 . S
C2485 C2484 1.367 . S
C2485 C2487 1.433 . S
C2486 C2482 1.350 . S
C2486 C2483 1.463 . S
C2486 N2490 1.427 . S
C2487 H2477 0.929 . S
C2487 C2485 1.433 . S
C2487 N2490 1.384 . S
C2488 H2479 0.929 . S
C2488 C2480 1.378 . S
C2488 C2483 1.350 . S
C2489 H2476 0.929 . S
C2489 C2481 1.433 . S
C2489 N2491 1.384 . S
N2490 C2486 1.427 . S
N2490 C2487 1.384 . S
N2491 C2483 1.427 . S
N2491 C2489 1.384 . S
H2492 C2498 0.930 . S
H2493 C2502 0.930 . S
H2494 C2507 0.929 . S
H2495 C2505 0.929 . S
H2496 C2500 0.929 . S
H2497 C2506 0.929 . S
C2498 H2492 0.930 . S
C2498 C2499 1.367 . S
C2498 C2506 1.378 . S
C2499 C2498 1.367 . S
C2499 C2507 1.433 . S
C2500 H2496 0.929 . S
C2500 C2502 1.378 . S
C2500 C2504 1.350 . S
C2501 C2504 1.463 . S
C2501 C2506 1.350 . S
C2501 N2509 1.427 . S
C2502 H2493 0.930 . S
C2502 C2500 1.378 . S
C2502 C2503 1.367 . S
C2503 C2502 1.367 . S
C2503 C2505 1.433 . S
C2504 C2500 1.350 . S
C2504 C2501 1.463 . S
C2504 N2508 1.427 . S
C2505 H2495 0.929 . S
C2505 C2503 1.433 . S
C2505 N2508 1.384 . S
C2506 H2497 0.929 . S
C2506 C2498 1.378 . S
C2506 C2501 1.350 . S
C2507 H2494 0.929 . S
C2507 C2499 1.433 . S
C2507 N2509 1.384 . S
N2508 C2504 1.427 . S
N2508 C2505 1.384 . S
N2509 C2501 1.427 . S
N2509 C2507 1.384 . S
H2510 C2516 0.930 . S
H2511 C2520 0.930 . S
H2512 C2525 0.929 . S
H2513 C2523 0.929 . S
H2514 C2518 0.929 . S
H2515 C2524 0.929 . S
C2516 H2510 0.930 . S
C2516 C2517 1.367 . S
C2516 C2524 1.378 . S
C2517 C2516 1.367 . S
C2517 C2525 1.433 . S
C2518 H2514 0.929 . S
C2518 C2520 1.378 . S
C2518 C2522 1.350 . S
C2519 C2522 1.463 . S
C2519 C2524 1.350 . S
C2519 N2527 1.427 . S
C2520 H2511 0.930 . S
C2520 C2518 1.378 . S
C2520 C2521 1.367 . S
C2521 C2520 1.367 . S
C2521 C2523 1.433 . S
C2522 C2518 1.350 . S
C2522 C2519 1.463 . S
C2522 N2526 1.427 . S
C2523 H2513 0.929 . S
C2523 C2521 1.433 . S
C2523 N2526 1.384 . S
C2524 H2515 0.929 . S
C2524 C2516 1.378 . S
C2524 C2519 1.350 . S
C2525 H2512 0.929 . S
C2525 C2517 1.433 . S
C2525 N2527 1.384 . S
N2526 C2522 1.427 . S
N2526 C2523 1.384 . S
N2527 C2519 1.427 . S
N2527 C2525 1.384 . S
H2528 C2534 0.930 . S
H2529 C2538 0.930 . S
H2530 C2543 0.929 . S
H2531 C2541 0.929 . S
H2532 C2536 0.929 . S
H2533 C2542 0.929 . S
C2534 H2528 0.930 . S
C2534 C2535 1.367 . S
C2534 C2542 1.378 . S
C2535 C2534 1.367 . S
C2535 C2543 1.433 . S
C2536 H2532 0.929 . S
C2536 C2538 1.378 . S
C2536 C2540 1.350 . S
C2537 C2540 1.463 . S
C2537 C2542 1.350 . S
C2537 N2545 1.427 . S
C2538 H2529 0.930 . S
C2538 C2536 1.378 . S
C2538 C2539 1.367 . S
C2539 C2538 1.367 . S
C2539 C2541 1.433 . S
C2540 C2536 1.350 . S
C2540 C2537 1.463 . S
C2540 N2544 1.427 . S
C2541 H2531 0.929 . S
C2541 C2539 1.433 . S
C2541 N2544 1.384 . S
C2542 H2533 0.929 . S
C2542 C2534 1.378 . S
C2542 C2537 1.350 . S
C2543 H2530 0.929 . S
C2543 C2535 1.433 . S
C2543 N2545 1.384 . S
N2544 C2540 1.427 . S
N2544 C2541 1.384 . S
N2545 C2537 1.427 . S
N2545 C2543 1.384 . S
H2546 C2552 0.930 . S
H2547 C2556 0.930 . S
H2548 C2561 0.929 . S
H2549 C2559 0.929 . S
H2550 C2554 0.929 . S
H2551 C2560 0.929 . S
C2552 H2546 0.930 . S
C2552 C2553 1.367 . S
C2552 C2560 1.378 . S
C2553 C2552 1.367 . S
C2553 C2561 1.433 . S
C2554 H2550 0.929 . S
C2554 C2556 1.378 . S
C2554 C2558 1.350 . S
C2555 C2558 1.463 . S
C2555 C2560 1.350 . S
C2555 N2563 1.427 . S
C2556 H2547 0.930 . S
C2556 C2554 1.378 . S
C2556 C2557 1.367 . S
C2557 C2556 1.367 . S
C2557 C2559 1.433 . S
C2558 C2554 1.350 . S
C2558 C2555 1.463 . S
C2558 N2562 1.427 . S
C2559 H2549 0.929 . S
C2559 C2557 1.433 . S
C2559 N2562 1.384 . S
C2560 H2551 0.929 . S
C2560 C2552 1.378 . S
C2560 C2555 1.350 . S
C2561 H2548 0.929 . S
C2561 C2553 1.433 . S
C2561 N2563 1.384 . S
N2562 C2558 1.427 . S
N2562 C2559 1.384 . S
N2563 C2555 1.427 . S
N2563 C2561 1.384 . S
H2564 C2570 0.930 . S
H2565 C2574 0.930 . S
H2566 C2579 0.929 . S
H2567 C2577 0.929 . S
H2568 C2572 0.929 . S
H2569 C2578 0.929 . S
C2570 H2564 0.930 . S
C2570 C2571 1.367 . S
C2570 C2578 1.378 . S
C2571 C2570 1.367 . S
C2571 C2579 1.433 . S
C2572 H2568 0.929 . S
C2572 C2574 1.378 . S
C2572 C2576 1.350 . S
C2573 C2576 1.463 . S
C2573 C2578 1.350 . S
C2573 N2581 1.427 . S
C2574 H2565 0.930 . S
C2574 C2572 1.378 . S
C2574 C2575 1.367 . S
C2575 C2574 1.367 . S
C2575 C2577 1.433 . S
C2576 C2572 1.350 . S
C2576 C2573 1.463 . S
C2576 N2580 1.427 . S
C2577 H2567 0.929 . S
C2577 C2575 1.433 . S
C2577 N2580 1.384 . S
C2578 H2569 0.929 . S
C2578 C2570 1.378 . S
C2578 C2573 1.350 . S
C2579 H2566 0.929 . S
C2579 C2571 1.433 . S
C2579 N2581 1.384 . S
N2580 C2576 1.427 . S
N2580 C2577 1.384 . S
N2581 C2573 1.427 . S
N2581 C2579 1.384 . S
H2582 C2588 0.930 . S
H2583 C2592 0.930 . S
H2584 C2597 0.929 . S
H2585 C2595 0.929 . S
H2586 C2590 0.929 . S
H2587 C2596 0.929 . S
C2588 H2582 0.930 . S
C2588 C2589 1.367 . S
C2588 C2596 1.378 . S
C2589 C2588 1.367 . S
C2589 C2597 1.433 . S
C2590 H2586 0.929 . S
C2590 C2592 1.378 . S
C2590 C2594 1.350 . S
C2591 C2594 1.463 . S
C2591 C2596 1.350 . S
C2591 N2599 1.427 . S
C2592 H2583 0.930 . S
C2592 C2590 1.378 . S
C2592 C2593 1.367 . S
C2593 C2592 1.367 . S
C2593 C2595 1.433 . S
C2594 C2590 1.350 . S
C2594 C2591 1.463 . S
C2594 N2598 1.427 . S
C2595 H2585 0.929 . S
C2595 C2593 1.433 . S
C2595 N2598 1.384 . S
C2596 H2587 0.929 . S
C2596 C2588 1.378 . S
C2596 C2591 1.350 . S
C2597 H2584 0.929 . S
C2597 C2589 1.433 . S
C2597 N2599 1.384 . S
N2598 C2594 1.427 . S
N2598 C2595 1.384 . S
N2599 C2591 1.427 . S
N2599 C2597 1.384 . S
H2600 C2606 0.930 . S
H2601 C2610 0.930 . S
H2602 C2615 0.929 . S
H2603 C2613 0.929 . S
H2604 C2608 0.929 . S
H2605 C2614 0.929 . S
C2606 H2600 0.930 . S
C2606 C2607 1.367 . S
C2606 C2614 1.378 . S
C2607 C2606 1.367 . S
C2607 C2615 1.433 . S
C2608 H2604 0.929 . S
C2608 C2610 1.378 . S
C2608 C2612 1.350 . S
C2609 C2612 1.463 . S
C2609 C2614 1.350 . S
C2609 N2617 1.427 . S
C2610 H2601 0.930 . S
C2610 C2608 1.378 . S
C2610 C2611 1.367 . S
C2611 C2610 1.367 . S
C2611 C2613 1.433 . S
C2612 C2608 1.350 . S
C2612 C2609 1.463 . S
C2612 N2616 1.427 . S
C2613 H2603 0.929 . S
C2613 C2611 1.433 . S
C2613 N2616 1.384 . S
C2614 H2605 0.929 . S
C2614 C2606 1.378 . S
C2614 C2609 1.350 . S
C2615 H2602 0.929 . S
C2615 C2607 1.433 . S
C2615 N2617 1.384 . S
N2616 C2612 1.427 . S
N2616 C2613 1.384 . S
N2617 C2609 1.427 . S
N2617 C2615 1.384 . S
H2618 C2624 0.930 . S
H2619 C2628 0.930 . S
H2620 C2633 0.929 . S
H2621 C2631 0.929 . S
H2622 C2626 0.929 . S
H2623 C2632 0.929 . S
C2624 H2618 0.930 . S
C2624 C2625 1.367 . S
C2624 C2632 1.378 . S
C2625 C2624 1.367 . S
C2625 C2633 1.433 . S
C2626 H2622 0.929 . S
C2626 C2628 1.378 . S
C2626 C2630 1.350 . S
C2627 C2630 1.463 . S
C2627 C2632 1.350 . S
C2627 N2635 1.427 . S
C2628 H2619 0.930 . S
C2628 C2626 1.378 . S
C2628 C2629 1.367 . S
C2629 C2628 1.367 . S
C2629 C2631 1.433 . S
C2630 C2626 1.350 . S
C2630 C2627 1.463 . S
C2630 N2634 1.427 . S
C2631 H2621 0.929 . S
C2631 C2629 1.433 . S
C2631 N2634 1.384 . S
C2632 H2623 0.929 . S
C2632 C2624 1.378 . S
C2632 C2627 1.350 . S
C2633 H2620 0.929 . S
C2633 C2625 1.433 . S
C2633 N2635 1.384 . S
N2634 C2630 1.427 . S
N2634 C2631 1.384 . S
N2635 C2627 1.427 . S
N2635 C2633 1.384 . S
H2636 C2642 0.930 . S
H2637 C2646 0.930 . S
H2638 C2651 0.929 . S
H2639 C2649 0.929 . S
H2640 C2644 0.929 . S
H2641 C2650 0.929 . S
C2642 H2636 0.930 . S
C2642 C2643 1.367 . S
C2642 C2650 1.378 . S
C2643 C2642 1.367 . S
C2643 C2651 1.433 . S
C2644 H2640 0.929 . S
C2644 C2646 1.378 . S
C2644 C2648 1.350 . S
C2645 C2648 1.463 . S
C2645 C2650 1.350 . S
C2645 N2653 1.427 . S
C2646 H2637 0.930 . S
C2646 C2644 1.378 . S
C2646 C2647 1.367 . S
C2647 C2646 1.367 . S
C2647 C2649 1.433 . S
C2648 C2644 1.350 . S
C2648 C2645 1.463 . S
C2648 N2652 1.427 . S
C2649 H2639 0.929 . S
C2649 C2647 1.433 . S
C2649 N2652 1.384 . S
C2650 H2641 0.929 . S
C2650 C2642 1.378 . S
C2650 C2645 1.350 . S
C2651 H2638 0.929 . S
C2651 C2643 1.433 . S
C2651 N2653 1.384 . S
N2652 C2648 1.427 . S
N2652 C2649 1.384 . S
N2653 C2645 1.427 . S
N2653 C2651 1.384 . S
H2654 C2660 0.930 . S
H2655 C2664 0.930 . S
H2656 C2669 0.929 . S
H2657 C2667 0.929 . S
H2658 C2662 0.929 . S
H2659 C2668 0.929 . S
C2660 H2654 0.930 . S
C2660 C2661 1.367 . S
C2660 C2668 1.378 . S
C2661 C2660 1.367 . S
C2661 C2669 1.433 . S
C2662 H2658 0.929 . S
C2662 C2664 1.378 . S
C2662 C2666 1.350 . S
C2663 C2666 1.463 . S
C2663 C2668 1.350 . S
C2663 N2671 1.427 . S
C2664 H2655 0.930 . S
C2664 C2662 1.378 . S
C2664 C2665 1.367 . S
C2665 C2664 1.367 . S
C2665 C2667 1.433 . S
C2666 C2662 1.350 . S
C2666 C2663 1.463 . S
C2666 N2670 1.427 . S
C2667 H2657 0.929 . S
C2667 C2665 1.433 . S
C2667 N2670 1.384 . S
C2668 H2659 0.929 . S
C2668 C2660 1.378 . S
C2668 C2663 1.350 . S
C2669 H2656 0.929 . S
C2669 C2661 1.433 . S
C2669 N2671 1.384 . S
N2670 C2666 1.427 . S
N2670 C2667 1.384 . S
N2671 C2663 1.427 . S
N2671 C2669 1.384 . S
H2672 C2678 0.930 . S
H2673 C2682 0.930 . S
H2674 C2687 0.929 . S
H2675 C2685 0.929 . S
H2676 C2680 0.929 . S
H2677 C2686 0.929 . S
C2678 H2672 0.930 . S
C2678 C2679 1.367 . S
C2678 C2686 1.378 . S
C2679 C2678 1.367 . S
C2679 C2687 1.433 . S
C2680 H2676 0.929 . S
C2680 C2682 1.378 . S
C2680 C2684 1.350 . S
C2681 C2684 1.463 . S
C2681 C2686 1.350 . S
C2681 N2689 1.427 . S
C2682 H2673 0.930 . S
C2682 C2680 1.378 . S
C2682 C2683 1.367 . S
C2683 C2682 1.367 . S
C2683 C2685 1.433 . S
C2684 C2680 1.350 . S
C2684 C2681 1.463 . S
C2684 N2688 1.427 . S
C2685 H2675 0.929 . S
C2685 C2683 1.433 . S
C2685 N2688 1.384 . S
C2686 H2677 0.929 . S
C2686 C2678 1.378 . S
C2686 C2681 1.350 . S
C2687 H2674 0.929 . S
C2687 C2679 1.433 . S
C2687 N2689 1.384 . S
N2688 C2684 1.427 . S
N2688 C2685 1.384 . S
N2689 C2681 1.427 . S
N2689 C2687 1.384 . S
H2690 C2696 0.930 . S
H2691 C2700 0.930 . S
H2692 C2705 0.929 . S
H2693 C2703 0.929 . S
H2694 C2698 0.929 . S
H2695 C2704 0.929 . S
C2696 H2690 0.930 . S
C2696 C2697 1.367 . S
C2696 C2704 1.378 . S
C2697 C2696 1.367 . S
C2697 C2705 1.433 . S
C2698 H2694 0.929 . S
C2698 C2700 1.378 . S
C2698 C2702 1.350 . S
C2699 C2702 1.463 . S
C2699 C2704 1.350 . S
C2699 N2707 1.427 . S
C2700 H2691 0.930 . S
C2700 C2698 1.378 . S
C2700 C2701 1.367 . S
C2701 C2700 1.367 . S
C2701 C2703 1.433 . S
C2702 C2698 1.350 . S
C2702 C2699 1.463 . S
C2702 N2706 1.427 . S
C2703 H2693 0.929 . S
C2703 C2701 1.433 . S
C2703 N2706 1.384 . S
C2704 H2695 0.929 . S
C2704 C2696 1.378 . S
C2704 C2699 1.350 . S
C2705 H2692 0.929 . S
C2705 C2697 1.433 . S
C2705 N2707 1.384 . S
N2706 C2702 1.427 . S
N2706 C2703 1.384 . S
N2707 C2699 1.427 . S
N2707 C2705 1.384 . S
H2708 C2714 0.930 . S
H2709 C2718 0.930 . S
H2710 C2723 0.929 . S
H2711 C2721 0.929 . S
H2712 C2716 0.929 . S
H2713 C2722 0.929 . S
C2714 H2708 0.930 . S
C2714 C2715 1.367 . S
C2714 C2722 1.378 . S
C2715 C2714 1.367 . S
C2715 C2723 1.433 . S
C2716 H2712 0.929 . S
C2716 C2718 1.378 . S
C2716 C2720 1.350 . S
C2717 C2720 1.463 . S
C2717 C2722 1.350 . S
C2717 N2725 1.427 . S
C2718 H2709 0.930 . S
C2718 C2716 1.378 . S
C2718 C2719 1.367 . S
C2719 C2718 1.367 . S
C2719 C2721 1.433 . S
C2720 C2716 1.350 . S
C2720 C2717 1.463 . S
C2720 N2724 1.427 . S
C2721 H2711 0.929 . S
C2721 C2719 1.433 . S
C2721 N2724 1.384 . S
C2722 H2713 0.929 . S
C2722 C2714 1.378 . S
C2722 C2717 1.350 . S
C2723 H2710 0.929 . S
C2723 C2715 1.433 . S
C2723 N2725 1.384 . S
N2724 C2720 1.427 . S
N2724 C2721 1.384 . S
N2725 C2717 1.427 . S
N2725 C2723 1.384 . S
H2726 C2732 0.930 . S
H2727 C2736 0.930 . S
H2728 C2741 0.929 . S
H2729 C2739 0.929 . S
H2730 C2734 0.929 . S
H2731 C2740 0.929 . S
C2732 H2726 0.930 . S
C2732 C2733 1.367 . S
C2732 C2740 1.378 . S
C2733 C2732 1.367 . S
C2733 C2741 1.433 . S
C2734 H2730 0.929 . S
C2734 C2736 1.378 . S
C2734 C2738 1.350 . S
C2735 C2738 1.463 . S
C2735 C2740 1.350 . S
C2735 N2743 1.427 . S
C2736 H2727 0.930 . S
C2736 C2734 1.378 . S
C2736 C2737 1.367 . S
C2737 C2736 1.367 . S
C2737 C2739 1.433 . S
C2738 C2734 1.350 . S
C2738 C2735 1.463 . S
C2738 N2742 1.427 . S
C2739 H2729 0.929 . S
C2739 C2737 1.433 . S
C2739 N2742 1.384 . S
C2740 H2731 0.929 . S
C2740 C2732 1.378 . S
C2740 C2735 1.350 . S
C2741 H2728 0.929 . S
C2741 C2733 1.433 . S
C2741 N2743 1.384 . S
N2742 C2738 1.427 . S
N2742 C2739 1.384 . S
N2743 C2735 1.427 . S
N2743 C2741 1.384 . S
H2744 C2750 0.930 . S
H2745 C2754 0.930 . S
H2746 C2759 0.929 . S
H2747 C2757 0.929 . S
H2748 C2752 0.929 . S
H2749 C2758 0.929 . S
C2750 H2744 0.930 . S
C2750 C2751 1.367 . S
C2750 C2758 1.378 . S
C2751 C2750 1.367 . S
C2751 C2759 1.433 . S
C2752 H2748 0.929 . S
C2752 C2754 1.378 . S
C2752 C2756 1.350 . S
C2753 C2756 1.463 . S
C2753 C2758 1.350 . S
C2753 N2761 1.427 . S
C2754 H2745 0.930 . S
C2754 C2752 1.378 . S
C2754 C2755 1.367 . S
C2755 C2754 1.367 . S
C2755 C2757 1.433 . S
C2756 C2752 1.350 . S
C2756 C2753 1.463 . S
C2756 N2760 1.427 . S
C2757 H2747 0.929 . S
C2757 C2755 1.433 . S
C2757 N2760 1.384 . S
C2758 H2749 0.929 . S
C2758 C2750 1.378 . S
C2758 C2753 1.350 . S
C2759 H2746 0.929 . S
C2759 C2751 1.433 . S
C2759 N2761 1.384 . S
N2760 C2756 1.427 . S
N2760 C2757 1.384 . S
N2761 C2753 1.427 . S
N2761 C2759 1.384 . S
H2762 C2768 0.930 . S
H2763 C2772 0.930 . S
H2764 C2777 0.929 . S
H2765 C2775 0.929 . S
H2766 C2770 0.929 . S
H2767 C2776 0.929 . S
C2768 H2762 0.930 . S
C2768 C2769 1.367 . S
C2768 C2776 1.378 . S
C2769 C2768 1.367 . S
C2769 C2777 1.433 . S
C2770 H2766 0.929 . S
C2770 C2772 1.378 . S
C2770 C2774 1.350 . S
C2771 C2774 1.463 . S
C2771 C2776 1.350 . S
C2771 N2779 1.427 . S
C2772 H2763 0.930 . S
C2772 C2770 1.378 . S
C2772 C2773 1.367 . S
C2773 C2772 1.367 . S
C2773 C2775 1.433 . S
C2774 C2770 1.350 . S
C2774 C2771 1.463 . S
C2774 N2778 1.427 . S
C2775 H2765 0.929 . S
C2775 C2773 1.433 . S
C2775 N2778 1.384 . S
C2776 H2767 0.929 . S
C2776 C2768 1.378 . S
C2776 C2771 1.350 . S
C2777 H2764 0.929 . S
C2777 C2769 1.433 . S
C2777 N2779 1.384 . S
N2778 C2774 1.427 . S
N2778 C2775 1.384 . S
N2779 C2771 1.427 . S
N2779 C2777 1.384 . S
H2780 C2786 0.930 . S
H2781 C2790 0.930 . S
H2782 C2795 0.929 . S
H2783 C2793 0.929 . S
H2784 C2788 0.929 . S
H2785 C2794 0.929 . S
C2786 H2780 0.930 . S
C2786 C2787 1.367 . S
C2786 C2794 1.378 . S
C2787 C2786 1.367 . S
C2787 C2795 1.433 . S
C2788 H2784 0.929 . S
C2788 C2790 1.378 . S
C2788 C2792 1.350 . S
C2789 C2792 1.463 . S
C2789 C2794 1.350 . S
C2789 N2797 1.427 . S
C2790 H2781 0.930 . S
C2790 C2788 1.378 . S
C2790 C2791 1.367 . S
C2791 C2790 1.367 . S
C2791 C2793 1.433 . S
C2792 C2788 1.350 . S
C2792 C2789 1.463 . S
C2792 N2796 1.427 . S
C2793 H2783 0.929 . S
C2793 C2791 1.433 . S
C2793 N2796 1.384 . S
C2794 H2785 0.929 . S
C2794 C2786 1.378 . S
C2794 C2789 1.350 . S
C2795 H2782 0.929 . S
C2795 C2787 1.433 . S
C2795 N2797 1.384 . S
N2796 C2792 1.427 . S
N2796 C2793 1.384 . S
N2797 C2789 1.427 . S
N2797 C2795 1.384 . S
H2798 C2804 0.930 . S
H2799 C2808 0.930 . S
H2800 C2813 0.929 . S
H2801 C2811 0.929 . S
H2802 C2806 0.929 . S
H2803 C2812 0.929 . S
C2804 H2798 0.930 . S
C2804 C2805 1.367 . S
C2804 C2812 1.378 . S
C2805 C2804 1.367 . S
C2805 C2813 1.433 . S
C2806 H2802 0.929 . S
C2806 C2808 1.378 . S
C2806 C2810 1.350 . S
C2807 C2810 1.463 . S
C2807 C2812 1.350 . S
C2807 N2815 1.427 . S
C2808 H2799 0.930 . S
C2808 C2806 1.378 . S
C2808 C2809 1.367 . S
C2809 C2808 1.367 . S
C2809 C2811 1.433 . S
C2810 C2806 1.350 . S
C2810 C2807 1.463 . S
C2810 N2814 1.427 . S
C2811 H2801 0.929 . S
C2811 C2809 1.433 . S
C2811 N2814 1.384 . S
C2812 H2803 0.929 . S
C2812 C2804 1.378 . S
C2812 C2807 1.350 . S
C2813 H2800 0.929 . S
C2813 C2805 1.433 . S
C2813 N2815 1.384 . S
N2814 C2810 1.427 . S
N2814 C2811 1.384 . S
N2815 C2807 1.427 . S
N2815 C2813 1.384 . S
H2816 C2822 0.930 . S
H2817 C2826 0.930 . S
H2818 C2831 0.929 . S
H2819 C2829 0.929 . S
H2820 C2824 0.929 . S
H2821 C2830 0.929 . S
C2822 H2816 0.930 . S
C2822 C2823 1.367 . S
C2822 C2830 1.378 . S
C2823 C2822 1.367 . S
C2823 C2831 1.433 . S
C2824 H2820 0.929 . S
C2824 C2826 1.378 . S
C2824 C2828 1.350 . S
C2825 C2828 1.463 . S
C2825 C2830 1.350 . S
C2825 N2833 1.427 . S
C2826 H2817 0.930 . S
C2826 C2824 1.378 . S
C2826 C2827 1.367 . S
C2827 C2826 1.367 . S
C2827 C2829 1.433 . S
C2828 C2824 1.350 . S
C2828 C2825 1.463 . S
C2828 N2832 1.427 . S
C2829 H2819 0.929 . S
C2829 C2827 1.433 . S
C2829 N2832 1.384 . S
C2830 H2821 0.929 . S
C2830 C2822 1.378 . S
C2830 C2825 1.350 . S
C2831 H2818 0.929 . S
C2831 C2823 1.433 . S
C2831 N2833 1.384 . S
N2832 C2828 1.427 . S
N2832 C2829 1.384 . S
N2833 C2825 1.427 . S
N2833 C2831 1.384 . S
H2834 C2840 0.930 . S
H2835 C2844 0.930 . S
H2836 C2849 0.929 . S
H2837 C2847 0.929 . S
H2838 C2842 0.929 . S
H2839 C2848 0.929 . S
C2840 H2834 0.930 . S
C2840 C2841 1.367 . S
C2840 C2848 1.378 . S
C2841 C2840 1.367 . S
C2841 C2849 1.433 . S
C2842 H2838 0.929 . S
C2842 C2844 1.378 . S
C2842 C2846 1.350 . S
C2843 C2846 1.463 . S
C2843 C2848 1.350 . S
C2843 N2851 1.427 . S
C2844 H2835 0.930 . S
C2844 C2842 1.378 . S
C2844 C2845 1.367 . S
C2845 C2844 1.367 . S
C2845 C2847 1.433 . S
C2846 C2842 1.350 . S
C2846 C2843 1.463 . S
C2846 N2850 1.427 . S
C2847 H2837 0.929 . S
C2847 C2845 1.433 . S
C2847 N2850 1.384 . S
C2848 H2839 0.929 . S
C2848 C2840 1.378 . S
C2848 C2843 1.350 . S
C2849 H2836 0.929 . S
C2849 C2841 1.433 . S
C2849 N2851 1.384 . S
N2850 C2846 1.427 . S
N2850 C2847 1.384 . S
N2851 C2843 1.427 . S
N2851 C2849 1.384 . S
H2852 C2858 0.930 . S
H2853 C2862 0.930 . S
H2854 C2867 0.929 . S
H2855 C2865 0.929 . S
H2856 C2860 0.929 . S
H2857 C2866 0.929 . S
C2858 H2852 0.930 . S
C2858 C2859 1.367 . S
C2858 C2866 1.378 . S
C2859 C2858 1.367 . S
C2859 C2867 1.433 . S
C2860 H2856 0.929 . S
C2860 C2862 1.378 . S
C2860 C2864 1.350 . S
C2861 C2864 1.463 . S
C2861 C2866 1.350 . S
C2861 N2869 1.427 . S
C2862 H2853 0.930 . S
C2862 C2860 1.378 . S
C2862 C2863 1.367 . S
C2863 C2862 1.367 . S
C2863 C2865 1.433 . S
C2864 C2860 1.350 . S
C2864 C2861 1.463 . S
C2864 N2868 1.427 . S
C2865 H2855 0.929 . S
C2865 C2863 1.433 . S
C2865 N2868 1.384 . S
C2866 H2857 0.929 . S
C2866 C2858 1.378 . S
C2866 C2861 1.350 . S
C2867 H2854 0.929 . S
C2867 C2859 1.433 . S
C2867 N2869 1.384 . S
N2868 C2864 1.427 . S
N2868 C2865 1.384 . S
N2869 C2861 1.427 . S
N2869 C2867 1.384 . S
H2870 C2876 0.930 . S
H2871 C2880 0.930 . S
H2872 C2885 0.929 . S
H2873 C2883 0.929 . S
H2874 C2878 0.929 . S
H2875 C2884 0.929 . S
C2876 H2870 0.930 . S
C2876 C2877 1.367 . S
C2876 C2884 1.378 . S
C2877 C2876 1.367 . S
C2877 C2885 1.433 . S
C2878 H2874 0.929 . S
C2878 C2880 1.378 . S
C2878 C2882 1.350 . S
C2879 C2882 1.463 . S
C2879 C2884 1.350 . S
C2879 N2887 1.427 . S
C2880 H2871 0.930 . S
C2880 C2878 1.378 . S
C2880 C2881 1.367 . S
C2881 C2880 1.367 . S
C2881 C2883 1.433 . S
C2882 C2878 1.350 . S
C2882 C2879 1.463 . S
C2882 N2886 1.427 . S
C2883 H2873 0.929 . S
C2883 C2881 1.433 . S
C2883 N2886 1.384 . S
C2884 H2875 0.929 . S
C2884 C2876 1.378 . S
C2884 C2879 1.350 . S
C2885 H2872 0.929 . S
C2885 C2877 1.433 . S
C2885 N2887 1.384 . S
N2886 C2882 1.427 . S
N2886 C2883 1.384 . S
N2887 C2879 1.427 . S
N2887 C2885 1.384 . S
C1171 N620 2.196 . S
C1167 C6 2.279 . S
C1189 C647 1.295 . S
C1185 C30 1.265 . S
C1203 C44 2.064 . S
C1207 C661 2.056 . S
C1225 N679 0.891 . S
C1221 C68 0.871 . S
C1239 C87 0.950 . S
C1243 C684 0.973 . S
C1257 C97 2.230 . S
C1261 C624 2.206 . S
C1275 C125 1.006 . S
C1279 N643 1.050 . S
C1297 N656 2.211 . S
C1293 C139 2.222 . S
C1315 N702 1.737 . S
C1311 C11 1.742 . S
C1329 C25 1.388 . S
C1333 N725 1.375 . S
C1347 C40 1.874 . S
C1351 N748 1.913 . S
C1369 N781 1.147 . S
C1365 C59 1.165 . S
C1383 C82 1.424 . S
C1387 C808 1.428 . S
C1405 C831 1.983 . S
C1401 C101 1.982 . S
C1419 C116 0.986 . S
C1423 C854 0.986 . S
C1441 C868 1.882 1_565 S
C1437 C144 1.795 . S
C1455 C2 1.915 . S
C1459 C785 1.917 . S
C1473 C78 1.188 . S
C1477 N827 1.178 . S
C1495 N850 1.758 . S
C1491 C106 1.691 . S
C1509 C120 1.254 . S
C1513 N863 1.237 . S
C1531 N804 1.918 . S
C1527 C135 1.919 . S
C1549 C730 2.035 . S
C1545 C49 1.872 . S
C1563 C63 1.325 . S
C1567 C753 1.312 . S
C1585 C707 1.270 . S
C1581 C21 1.241 . S
C1603 C900 2.317 . S
C1599 C158 2.315 . S
C1617 C182 1.084 . S
C1621 C914 1.088 . S
C1635 C196 2.021 . S
C1639 N942 1.984 . S
C1657 N955 0.876 . S
C1653 C220 0.913 . S
C1671 C239 1.078 . S
C1675 C960 1.086 . S
C1689 C249 2.129 . S
C1693 N896 2.127 . S
C1707 C277 0.934 . S
C1711 N909 0.988 . S
C1725 C291 2.129 . S
C1729 C946 2.131 . S
C1747 N794 1.770 . S
C1743 C163 1.751 . S
C1761 C177 1.286 . S
C1765 N978 1.269 . S
C1783 N840 1.848 . S
C1779 C192 1.818 . S
C1797 C211 1.051 . S
C1801 C1015 1.055 . S
C1815 C234 1.624 . S
C1819 C716 1.620 . S
C1837 C1029 2.064 . S
C1833 C253 2.061 . S
C1851 C268 1.098 . S
C1855 C762 1.116 . S
C1873 N1047 1.764 . S
C1869 C296 1.709 . S
C1887 C154 1.845 . S
C1891 N1011 1.827 . S
C1909 N1024 1.202 . S
C1905 C230 1.211 . S
C1923 C258 1.721 . S
C1927 N758 1.755 . S
C1945 C1052 1.166 . S
C1941 C272 1.165 . S
C1959 C287 1.883 . S
C1963 N712 1.892 . S
C1977 C201 1.775 . S
C1981 C983 1.935 . S
C1995 C215 1.403 . S
C1999 C845 1.398 . S
C2013 C173 1.162 . S
C2017 C799 1.187 . S
C2031 C310 2.334 . S
C2035 C937 2.315 . S
C2053 C969 1.170 . S
C2049 C334 1.160 . S
C2067 C348 2.004 . S
C2071 N886 1.905 . S
C2085 C372 0.874 . S
C2089 N919 0.883 . S
C2103 C391 1.008 . S
C2107 C923 1.023 . S
C2121 C401 2.266 . S
C2125 N932 2.182 . S
C2143 N965 0.992 . S
C2139 C429 0.934 . S
C2157 C443 2.260 . S
C2161 C891 2.226 . S
C2179 N1080 1.821 . S
C2175 C315 1.828 . S
C2193 C329 1.278 . S
C2197 N817 1.254 . S
C2215 N1103 1.786 . S
C2211 C344 1.783 . S
C2229 C363 1.131 . S
C2233 N873 1.117 . S
C2247 C386 1.496 . S
C2251 C1121 1.480 . S
C2265 C405 2.077 . S
C2269 C739 2.075 . S
C2287 N1139 1.076 . S
C2283 C420 1.100 . S
C2301 C448 1.802 . S
C2305 C776 1.922 . S
C2323 C877 1.948 . S
C2319 C306 1.945 . S
C2341 N735 1.229 . S
C2337 C382 1.241 . S
C2355 C410 1.799 . S
C2359 C1144 1.933 . S
C2373 C424 1.191 . S
C2377 N771 1.150 . S
C2395 N1116 1.887 . S
C2391 C439 1.917 . S
C2413 C822 1.946 . S
C2409 C353 1.793 . S
C2431 C1107 1.306 . S
C2427 C367 1.320 . S
C2449 C1084 1.197 . S
C2445 C325 1.161 . S
C2463 C462 2.260 . S
C2467 N666 2.175 . S
C2481 C486 1.063 . S
C2485 C693 1.081 . S
C2503 C615 2.071 . S
C2499 C500 2.085 . S
C2521 N633 0.876 . S
C2517 C524 0.912 . S
C2539 C638 1.160 . S
C2535 C543 1.187 . S
C2557 C670 2.122 . S
C2553 C553 2.150 . S
C2575 N689 1.006 . S
C2571 C581 0.922 . S
C2589 C595 2.202 . S
C2593 N610 2.193 . S
C2607 C467 1.712 . S
C2611 N1126 1.710 . S
C2629 N1034 1.216 . S
C2625 C481 1.246 . S
C2647 C1153 2.029 . S
C2643 C496 1.985 . S
C2665 C1061 0.921 . S
C2661 C515 0.915 . S
C2679 C538 1.636 . S
C2683 C1075 1.615 . S
C2701 C992 1.998 . S
C2697 C557 1.999 . S
C2719 C1098 1.137 . S
C2715 C572 1.128 . S
C2733 C600 1.770 . S
C2737 N1001 1.797 . S
C2755 N1057 1.779 . S
C2751 C458 1.801 . S
C2773 N988 1.151 . S
C2769 C534 1.160 . S
C2791 N1093 1.747 . S
C2787 C562 1.648 . S
C2805 C576 1.198 . S
C2809 C1006 1.201 . S
C2823 C591 1.921 . S
C2827 N1070 1.897 . S
C2841 C505 1.898 . S
C2845 C1038 2.054 . S
C2859 C519 1.431 . S
C2863 N1149 1.412 . S
C2881 C1130 1.205 . S
C2877 C477 1.179 . S
