# Generated by pormake.
# Topology pth, (4,4)-cn, num edge types: 1
# Building blocks:
#     Node 0, Type 0, BuildingBlock: CEKHIL_clean_sbu_0, # of connection points: 4
#     Node 1, Type 0, BuildingBlock: CEKHIL_clean_sbu_0, # of connection points: 4
#     Node 2, Type 0, BuildingBlock: CEKHIL_clean_sbu_0, # of connection points: 4
#     Node 3, Type 1, BuildingBlock: AZAVOO_clean_linker_0, # of connection points: 4
#     Node 4, Type 1, BuildingBlock: AZAVOO_clean_linker_0, # of connection points: 4
#     Node 5, Type 1, BuildingBlock: AZAVOO_clean_linker_0, # of connection points: 4
#     Edge 6, Type (0, 1), BuildingBlock: UVAHIK_clean_linker_0, # of connection points: 2
#     Edge 7, Type (0, 1), BuildingBlock: UVAHIK_clean_linker_0, # of connection points: 2
#     Edge 8, Type (0, 1), BuildingBlock: UVAHIK_clean_linker_0, # of connection points: 2
#     Edge 9, Type (0, 1), BuildingBlock: UVAHIK_clean_linker_0, # of connection points: 2
#     Edge 10, Type (0, 1), BuildingBlock: UVAHIK_clean_linker_0, # of connection points: 2
#     Edge 11, Type (0, 1), BuildingBlock: UVAHIK_clean_linker_0, # of connection points: 2
#     Edge 12, Type (0, 1), BuildingBlock: UVAHIK_clean_linker_0, # of connection points: 2
#     Edge 13, Type (0, 1), BuildingBlock: UVAHIK_clean_linker_0, # of connection points: 2
#     Edge 14, Type (0, 1), BuildingBlock: UVAHIK_clean_linker_0, # of connection points: 2
#     Edge 15, Type (0, 1), BuildingBlock: UVAHIK_clean_linker_0, # of connection points: 2
#     Edge 16, Type (0, 1), BuildingBlock: UVAHIK_clean_linker_0, # of connection points: 2
#     Edge 17, Type (0, 1), BuildingBlock: UVAHIK_clean_linker_0, # of connection points: 2
# Relax obj value: 0.097
# Max RMSD: 0.224
# Mean RMSD: 0.144
data_MOF--net-pth--node1-CEKHIL_clean_sbu_0--node2-AZAVOO_clean_linker_0--edge1-UVAHIK_clean_linker_0
_symmetry_space_group_name_H-M    P1
_symmetry_Int_Tables_number       1
_symmetry_cell_setting            triclinic
loop_
_symmetry_equiv_pos_as_xyz
'x, y, z'
_cell_length_a     32.264192
_cell_length_b     32.625868
_cell_length_c     89.418989
_cell_angle_alpha  93.180643
_cell_angle_beta   88.969762
_cell_angle_gamma 120.30138
loop_
_atom_site_label
_atom_site_type_symbol
_atom_site_fract_x
_atom_site_fract_y
_atom_site_fract_z
_atom_type_partial_charge
Co0 Co 0.05719 0.06396 0.07936 0.0
O1 O 0.02223 0.00692 0.08994 0.0
O2 O 0.08754 0.02572 0.07671 0.0
C3 C 0.05882 0.11286 0.09846 0.0
O4 O 0.10342 0.12037 0.06739 0.0
Co5 Co 0.01063 0.12444 0.07303 0.0
O6 O 0.07542 0.1707 0.06592 0.0
C7 C 0.98231 0.03597 0.05474 0.0
C8 C 0.05426 0.99631 0.08544 0.0
C9 C 0.10773 0.1597 0.06344 0.0
O10 O 0.01553 0.03193 0.06103 0.0
O11 O 0.97201 0.06801 0.05883 0.0
O12 O 0.09021 0.09909 0.09781 0.0
O13 O 0.02552 0.09391 0.08827 0.0
Co14 Co 0.02864 0.08744 0.40184 0.0
O15 O 0.98869 0.10421 0.39105 0.0
O16 O 0.061 0.1555 0.40031 0.0
C17 C 0.01875 0.02721 0.38588 0.0
O18 O 0.08134 0.08382 0.41291 0.0
Co19 Co 0.98853 0.98822 0.41498 0.0
O20 O 0.05724 0.00696 0.41564 0.0
C21 C 0.97694 0.06273 0.43166 0.0
C22 C 0.02356 0.14795 0.39271 0.0
C23 C 0.08973 0.0507 0.41615 0.0
O24 O -0.00092 0.09232 0.42145 0.0
O25 O 0.9682 0.01978 0.43098 0.0
O26 O 0.04952 0.07093 0.38302 0.0
O27 O 0.99204 0.02169 0.3974 0.0
Co28 Co 0.04167 0.06698 0.73389 0.0
O29 O 0.09368 0.08926 0.71992 0.0
O30 O 0.07554 0.03275 0.73577 0.0
C31 C 0.98573 0.06043 0.71769 0.0
O32 O 0.99045 0.03323 0.74949 0.0
Co33 Co 0.99196 0.12478 0.74262 0.0
O34 O 0.94594 0.06791 0.75338 0.0
C35 C 0.09091 0.15876 0.75289 0.0
C36 C 0.1032 0.05866 0.72526 0.0
C37 C 0.95469 0.03471 0.75553 0.0
O38 O 0.08581 0.11782 0.74909 0.0
O39 O 0.05926 0.16995 0.74998 0.0
O40 O 0.99561 0.02649 0.71815 0.0
O41 O 0.01217 0.0981 0.7261 0.0
H42 H 0.03149 0.43721 0.14954 0.0
H43 H 0.10093 0.87399 0.25777 0.0
H44 H 0.97868 0.45104 0.23729 0.0
H45 H 0.9726 0.37838 0.22567 0.0
H46 H 0.12534 0.45495 0.21766 0.0
H47 H 0.13105 0.52684 0.22951 0.0
H48 H 0.98821 0.49372 0.20825 0.0
H49 H 0.99201 0.46031 0.18344 0.0
H50 H 0.14265 0.56632 0.18112 0.0
H51 H 0.13849 0.59886 0.20608 0.0
H52 H 0.99587 0.59287 0.20543 0.0
H53 H 0.00418 0.63999 0.18399 0.0
H54 H 0.15103 0.73999 0.19731 0.0
H55 H 0.14226 0.6926 0.21873 0.0
H56 H 0.98326 0.64106 0.23936 0.0
H57 H 0.98263 0.71545 0.24405 0.0
H58 H 0.13539 0.78942 0.25323 0.0
H59 H 0.13535 0.71474 0.24854 0.0
H60 H 0.96946 0.5778 0.26706 0.0
H61 H 0.95844 0.61612 0.28984 0.0
H62 H 0.11256 0.70093 0.29575 0.0
H63 H 0.12289 0.66072 0.27331 0.0
H64 H 0.97205 0.4986 0.26683 0.0
H65 H 0.96574 0.45217 0.28824 0.0
H66 H 0.11802 0.50323 0.2858 0.0
H67 H 0.124 0.55055 0.2647 0.0
O68 O 0.03071 0.45133 0.15927 0.0
O69 O 0.10763 0.50759 0.15837 0.0
O70 O 0.02155 0.80437 0.25114 0.0
O71 O 0.10017 0.84416 0.25577 0.0
C72 C 0.05649 0.53986 0.23678 0.0
C73 C 0.06108 0.56693 0.22437 0.0
C74 C 0.06317 0.61103 0.22663 0.0
C75 C 0.0592 0.62735 0.24121 0.0
C76 C 0.05329 0.59966 0.25354 0.0
C77 C 0.0524 0.5561 0.25136 0.0
C78 C 0.05524 0.49408 0.23412 0.0
C79 C 0.01105 0.45146 0.23359 0.0
C80 C 0.00759 0.41022 0.22682 0.0
C81 C 0.04836 0.41119 0.22054 0.0
C82 C 0.09333 0.4529 0.22246 0.0
C83 C 0.09672 0.49405 0.22922 0.0
C84 C 0.0631 0.54856 0.20896 0.0
C85 C 0.02198 0.50965 0.20235 0.0
C86 C 0.02425 0.49068 0.18818 0.0
C87 C 0.06766 0.51058 0.1803 0.0
C88 C 0.10866 0.55011 0.18689 0.0
C89 C 0.10638 0.56889 0.20111 0.0
C90 C 0.06836 0.63958 0.21365 0.0
C91 C 0.02983 0.62488 0.20366 0.0
C92 C 0.03478 0.65163 0.19139 0.0
C93 C 0.07831 0.69366 0.18896 0.0
C94 C 0.11693 0.70805 0.19897 0.0
C95 C 0.11201 0.68112 0.2112 0.0
C96 C 0.05935 0.67274 0.24358 0.0
C97 C 0.01652 0.67347 0.24232 0.0
C98 C 0.01629 0.71595 0.24503 0.0
C99 C 0.059 0.75841 0.24902 0.0
C100 C 0.1019 0.75741 0.25018 0.0
C101 C 0.10203 0.71488 0.24749 0.0
C102 C 0.04691 0.61645 0.26864 0.0
C103 C 0.0007 0.60359 0.27357 0.0
C104 C 0.99456 0.62593 0.28648 0.0
C105 C 0.03464 0.66207 0.29452 0.0
C106 C 0.08091 0.67293 0.28994 0.0
C107 C 0.08696 0.65016 0.2771 0.0
C108 C 0.04852 0.52813 0.26433 0.0
C109 C 0.00403 0.5 0.27104 0.0
C110 C 0.00048 0.47323 0.28318 0.0
C111 C 0.04141 0.47403 0.28877 0.0
C112 C 0.08595 0.50238 0.28195 0.0
C113 C 0.08943 0.52917 0.26984 0.0
C114 C 0.07006 0.48992 0.16532 0.0
C115 C 0.05891 0.80357 0.25202 0.0
H116 H 0.61152 0.09619 0.47613 0.0
H117 H 0.27712 0.11747 0.59282 0.0
H118 H 0.58522 0.02588 0.5522 0.0
H119 H 0.65648 0.03061 0.54092 0.0
H120 H 0.74502 0.16531 0.56534 0.0
H121 H 0.67249 0.16111 0.57602 0.0
H122 H 0.51556 0.03784 0.53363 0.0
H123 H 0.54503 0.04934 0.50792 0.0
H124 H 0.66017 0.19009 0.52159 0.0
H125 H 0.62988 0.17834 0.54721 0.0
H126 H 0.42511 0.02677 0.54991 0.0
H127 H 0.38033 0.02833 0.52838 0.0
H128 H 0.48445 0.17704 0.52412 0.0
H129 H 0.52856 0.17531 0.54591 0.0
H130 H 0.41065 0.01446 0.58532 0.0
H131 H 0.3342 0.00934 0.59176 0.0
H132 H 0.39411 0.15685 0.58186 0.0
H133 H 0.47054 0.16164 0.57563 0.0
H134 H 0.49168 0.01085 0.60496 0.0
H135 H 0.45506 -0.00106 0.62971 0.0
H136 H 0.47002 0.13848 0.6297 0.0
H137 H 0.50963 0.1511 0.60564 0.0
H138 H 0.58082 0.01485 0.58581 0.0
H139 H 0.63156 0.00691 0.60396 0.0
H140 H 0.6573 0.13758 0.6273 0.0
H141 H 0.60898 0.14665 0.60847 0.0
O142 O 0.60027 0.09254 0.48635 0.0
O143 O 0.65895 0.16453 0.49396 0.0
O144 O 0.27788 0.04281 0.59531 0.0
O145 O 0.30692 0.11849 0.59032 0.0
C146 C 0.57949 0.09407 0.5691 0.0
C147 C 0.55288 0.10003 0.55791 0.0
C148 C 0.50932 0.09827 0.56153 0.0
C149 C 0.49276 0.0916 0.5764 0.0
C150 C 0.52019 0.08718 0.58775 0.0
C151 C 0.56332 0.08777 0.58405 0.0
C152 C 0.62372 0.09334 0.56479 0.0
C153 C 0.6201 0.05602 0.5553 0.0
C154 C 0.66106 0.05871 0.54895 0.0
C155 C 0.70671 0.09853 0.55214 0.0
C156 C 0.71042 0.13454 0.56244 0.0
C157 C 0.66915 0.13201 0.56868 0.0
C158 C 0.57046 0.10735 0.54224 0.0
C159 C 0.54691 0.07126 0.53101 0.0
C160 C 0.56394 0.07787 0.51635 0.0
C161 C 0.60497 0.12064 0.51269 0.0
C162 C 0.62847 0.15673 0.52402 0.0
C163 C 0.61129 0.15013 0.53866 0.0
C164 C 0.47996 0.10091 0.54945 0.0
C165 C 0.43779 0.05982 0.54446 0.0
C166 C 0.41262 0.06068 0.53208 0.0
C167 C 0.42922 0.1027 0.52447 0.0
C168 C 0.4707 0.14424 0.5298 0.0
C169 C 0.49593 0.14331 0.5422 0.0
C170 C 0.44612 0.08842 0.58003 0.0
C171 C 0.40719 0.04564 0.58459 0.0
C172 C 0.36357 0.04281 0.58823 0.0
C173 C 0.35805 0.08273 0.58733 0.0
C174 C 0.39712 0.12546 0.58268 0.0
C175 C 0.44077 0.12827 0.57907 0.0
C176 C 0.50306 0.08174 0.60346 0.0
C177 C 0.48814 0.03924 0.61053 0.0
C178 C 0.46664 0.03231 0.6246 0.0
C179 C 0.45897 0.0675 0.63174 0.0
C180 C 0.47584 0.11075 0.62479 0.0
C181 C 0.49809 0.11793 0.6109 0.0
C182 C 0.59157 0.08155 0.59573 0.0
C183 C 0.59765 0.04185 0.59481 0.0
C184 C 0.62624 0.03711 0.60532 0.0
C185 C 0.64877 0.07167 0.61712 0.0
C186 C 0.64135 0.11073 0.61822 0.0
C187 C 0.61332 0.11578 0.60757 0.0
C188 C 0.62316 0.12741 0.49713 0.0
C189 C 0.31182 0.07994 0.59124 0.0
H190 H 0.64791 0.67864 0.0003 0.0
H191 H 0.31132 0.2739 0.8771 0.0
H192 H 0.61652 0.69032 0.90881 0.0
H193 H 0.68252 0.76302 0.92065 0.0
H194 H 0.74871 0.68336 0.93377 0.0
H195 H 0.68402 0.61184 0.92127 0.0
H196 H 0.57505 0.64336 0.93875 0.0
H197 H 0.60275 0.66899 0.96468 0.0
H198 H 0.63438 0.55537 0.96661 0.0
H199 H 0.60725 0.53056 0.94056 0.0
H200 H 0.48287 0.54629 0.94046 0.0
H201 H 0.43639 0.49586 0.96076 0.0
H202 H 0.46674 0.38747 0.94361 0.0
H203 H 0.51426 0.43866 0.9235 0.0
H204 H 0.42379 0.49275 0.90971 0.0
H205 H 0.34905 0.41894 0.90315 0.0
H206 H 0.43083 0.36072 0.88174 0.0
H207 H 0.50526 0.43445 0.88855 0.0
H208 H 0.46623 0.54618 0.8799 0.0
H209 H 0.42679 0.51063 0.85576 0.0
H210 H 0.53654 0.47548 0.84463 0.0
H211 H 0.57558 0.51088 0.86903 0.0
H212 H 0.55693 0.63649 0.87834 0.0
H213 H 0.60236 0.69099 0.85884 0.0
H214 H 0.72091 0.66796 0.86644 0.0
H215 H 0.67418 0.61181 0.88545 0.0
O216 O 0.63708 0.66784 0.99006 0.0
O217 O 0.65212 0.60848 0.99056 0.0
O218 O 0.29996 0.33465 0.89126 0.0
O219 O 0.34032 0.30332 0.87995 0.0
C220 C 0.60078 0.60043 0.91032 0.0
C221 C 0.57351 0.57058 0.92188 0.0
C222 C 0.53084 0.52729 0.91838 0.0
C223 C 0.51512 0.5141 0.90333 0.0
C224 C 0.54178 0.54448 0.89182 0.0
C225 C 0.58469 0.58763 0.89528 0.0
C226 C 0.64537 0.64582 0.91432 0.0
C227 C 0.64624 0.6891 0.91377 0.0
C228 C 0.68367 0.73042 0.92071 0.0
C229 C 0.72052 0.72892 0.92842 0.0
C230 C 0.72128 0.68611 0.92787 0.0
C231 C 0.68418 0.64503 0.92079 0.0
C232 C 0.58933 0.58524 0.93777 0.0
C233 C 0.58814 0.62417 0.94478 0.0
C234 C 0.60389 0.63866 0.95961 0.0
C235 C 0.62083 0.61425 0.96772 0.0
C236 C 0.62158 0.57496 0.96068 0.0
C237 C 0.606 0.56063 0.94583 0.0
C238 C 0.50208 0.49621 0.93054 0.0
C239 C 0.47985 0.51184 0.94116 0.0
C240 C 0.45346 0.48311 0.95275 0.0
C241 C 0.44821 0.4379 0.95377 0.0
C242 C 0.47009 0.42209 0.94303 0.0
C243 C 0.49711 0.45118 0.93156 0.0
C244 C 0.46987 0.46888 0.89961 0.0
C245 C 0.42544 0.46388 0.90369 0.0
C246 C 0.38284 0.42175 0.89988 0.0
C247 C 0.38397 0.38393 0.89189 0.0
C248 C 0.42865 0.38912 0.88788 0.0
C249 C 0.47122 0.4312 0.89173 0.0
C250 C 0.52355 0.53087 0.87619 0.0
C251 C 0.48234 0.5318 0.87209 0.0
C252 C 0.46002 0.51165 0.85827 0.0
C253 C 0.47849 0.49008 0.84831 0.0
C254 C 0.5213 0.49147 0.85214 0.0
C255 C 0.5438 0.51193 0.86598 0.0
C256 C 0.61215 0.61999 0.88325 0.0
C257 C 0.59248 0.64279 0.87564 0.0
C258 C 0.61874 0.67434 0.86463 0.0
C259 C 0.66542 0.68405 0.86109 0.0
C260 C 0.68487 0.66087 0.86871 0.0
C261 C 0.6584 0.62905 0.87966 0.0
C262 C 0.63764 0.62984 0.98346 0.0
C263 C 0.3388 0.33925 0.88772 0.0
C264 C 0.09335 0.16141 0.12233 0.0
C265 C 0.0588 0.1448 0.11078 0.0
C266 C 0.09129 0.1888 0.13458 0.0
C267 C 0.04054 0.26393 0.14691 0.0
H268 H 0.06138 0.23615 0.18679 0.0
C269 C 0.00696 0.35262 0.19907 0.0
C270 C 0.04333 0.37196 0.21011 0.0
C271 C 0.0064 0.32146 0.18764 0.0
C272 C 0.05582 0.24451 0.17572 0.0
H273 H 0.99563 0.14459 0.1028 0.0
H274 H 0.99192 0.19228 0.1242 0.0
H275 H 0.06702 0.19057 0.16504 0.0
H276 H 0.1061 0.37188 0.2183 0.0
H277 H 0.10538 0.31759 0.19821 0.0
H278 H 0.02959 0.31799 0.15752 0.0
C279 C 0.02078 0.18443 0.12376 0.0
C280 C 0.05916 0.21853 0.16327 0.0
C281 C 0.02281 0.15698 0.11153 0.0
C282 C 0.07779 0.35768 0.20989 0.0
C283 C 0.07719 0.32641 0.19844 0.0
C284 C 0.03719 0.28986 0.15934 0.0
C285 C 0.05471 0.20021 0.1355 0.0
C286 C 0.05155 0.22799 0.14872 0.0
C287 C 0.04222 0.309 0.18698 0.0
C288 C 0.04472 0.28041 0.17388 0.0
H289 H 0.12159 0.15267 0.12204 0.0
H290 H 0.11838 0.20107 0.14333 0.0
H291 H 0.03524 0.27257 0.13584 0.0
H292 H 0.98029 0.36342 0.19879 0.0
H293 H 0.97855 0.30805 0.1791 0.0
C294 C 0.97707 0.07335 0.4593 0.0
C295 C 0.96248 0.07917 0.44531 0.0
C296 C 0.96075 0.08531 0.47245 0.0
C297 C 0.89038 0.14194 0.48706 0.0
H298 H 0.86517 0.05827 0.51938 0.0
C299 C 0.78359 0.14823 0.53847 0.0
C300 C 0.74915 0.10387 0.54368 0.0
C301 C 0.81918 0.15184 0.52857 0.0
C302 C 0.87153 0.08177 0.51045 0.0
H303 H 0.92053 0.10279 0.43383 0.0
H304 H 0.88904 0.12073 0.45672 0.0
H305 H 0.90682 0.05205 0.49747 0.0
H306 H 0.72771 0.02922 0.54345 0.0
H307 H 0.78734 0.03481 0.52562 0.0
H308 H 0.8511 0.16857 0.49951 0.0
C309 C 0.91464 0.10885 0.45774 0.0
C310 C 0.89644 0.07887 0.4979 0.0
C311 C 0.93227 0.09823 0.44457 0.0
C312 C 0.75292 0.06379 0.53941 0.0
C313 C 0.78785 0.06722 0.52932 0.0
C314 C 0.8644 0.14404 0.49947 0.0
C315 C 0.92803 0.10179 0.47189 0.0
C316 C 0.90554 0.10832 0.48588 0.0
C317 C 0.82077 0.11109 0.52345 0.0
C318 C 0.85372 0.11325 0.5112 0.0
H319 H 0.00099 0.05926 0.46007 0.0
H320 H 0.9733 0.08082 0.48304 0.0
H321 H 0.89761 0.1661 0.47827 0.0
H322 H 0.78177 0.17991 0.54144 0.0
H323 H 0.84455 0.18645 0.5246 0.0
C324 C 0.88846 0.00095 0.77433 0.0
C325 C 0.92315 0.99691 0.76566 0.0
C326 C 0.85967 0.96596 0.78418 0.0
C327 C 0.85441 0.86773 0.80463 0.0
H328 H 0.72098 0.83187 0.80999 0.0
C329 C 0.72361 0.7105 0.83973 0.0
C330 C 0.69393 0.71873 0.84965 0.0
C331 C 0.75088 0.74347 0.82915 0.0
C332 C 0.75829 0.84178 0.80869 0.0
H333 H 0.95396 0.95218 0.76037 0.0
H334 H 0.90315 0.89082 0.7773 0.0
H335 H 0.76943 0.89065 0.79196 0.0
H336 H 0.67024 0.76858 0.85629 0.0
H337 H 0.71725 0.82564 0.83768 0.0
H338 H 0.84302 0.8185 0.8213 0.0
C339 C 0.89889 0.92157 0.77673 0.0
C340 C 0.78611 0.87554 0.79838 0.0
C341 C 0.92788 0.95669 0.76694 0.0
C342 C 0.69199 0.76062 0.84866 0.0
C343 C 0.71901 0.79341 0.83801 0.0
C344 C 0.82649 0.83375 0.81486 0.0
C345 C 0.86461 0.92589 0.78555 0.0
C346 C 0.83461 0.88913 0.79627 0.0
C347 C 0.74887 0.78528 0.82818 0.0
C348 C 0.77819 0.82058 0.81706 0.0
H349 H 0.88393 0.03153 0.7737 0.0
H350 H 0.83416 0.97085 0.79095 0.0
H351 H 0.89182 0.87789 0.8035 0.0
H352 H 0.7254 0.67829 0.84001 0.0
H353 H 0.77311 0.73595 0.82159 0.0
C354 C 0.09659 0.95166 0.09072 0.0
C355 C 0.05528 0.95577 0.09163 0.0
C356 C 0.10042 0.91889 0.09924 0.0
C357 C 0.05876 0.86625 0.13501 0.0
H358 H 0.10482 0.78017 0.12319 0.0
C359 C 0.10414 0.7729 0.17876 0.0
C360 C 0.08265 0.72337 0.17638 0.0
C361 C 0.10496 0.80066 0.1673 0.0
C362 C 0.09193 0.80411 0.1266 0.0
H363 H 0.98402 0.92603 0.10107 0.0
H364 H 0.99079 0.86926 0.11583 0.0
H365 H 0.09568 0.82711 0.10428 0.0
H366 H 0.04726 0.66438 0.15992 0.0
H367 H 0.04844 0.71309 0.13988 0.0
H368 H 0.05484 0.84371 0.15722 0.0
C369 C 0.02046 0.89175 0.10877 0.0
C370 C 0.08694 0.83101 0.11583 0.0
C371 C 0.01659 0.92418 0.10027 0.0
C372 C 0.06357 0.70242 0.16212 0.0
C373 C 0.06469 0.7303 0.15061 0.0
C374 C 0.06428 0.83998 0.14574 0.0
C375 C 0.06305 0.89004 0.1088 0.0
C376 C 0.06974 0.86189 0.11994 0.0
C377 C 0.08452 0.77957 0.1532 0.0
C378 C 0.08068 0.80846 0.14167 0.0
H379 H 0.12696 0.97554 0.08413 0.0
H380 H 0.13363 0.91816 0.09907 0.0
H381 H 0.04603 0.89027 0.13852 0.0
H382 H 0.11886 0.79006 0.18964 0.0
H383 H 0.12085 0.83864 0.16956 0.0
C384 C 0.15159 0.02963 0.42223 0.0
C385 C 0.13695 0.06354 0.42251 0.0
C386 C 0.19161 0.03809 0.43052 0.0
C387 C 0.29579 0.1291 0.45368 0.0
H388 H 0.2682 0.01969 0.47601 0.0
C389 C 0.39473 0.13968 0.50858 0.0
C390 C 0.40375 0.10257 0.51081 0.0
C391 C 0.36836 0.13789 0.49606 0.0
C392 C 0.27694 0.05041 0.46971 0.0
H393 H 0.15461 0.13426 0.43083 0.0
H394 H 0.22385 0.14859 0.44566 0.0
H395 H 0.21251 0.01184 0.45671 0.0
H396 H 0.39486 0.03602 0.50125 0.0
H397 H 0.34888 0.03284 0.47946 0.0
H398 H 0.35977 0.1679 0.46718 0.0
C399 C 0.20486 0.11571 0.43887 0.0
C400 C 0.24503 0.0459 0.45858 0.0
C401 C 0.16508 0.10746 0.4304 0.0
C402 C 0.38747 0.06458 0.50001 0.0
C403 C 0.36126 0.06283 0.48752 0.0
C404 C 0.32779 0.13367 0.46491 0.0
C405 C 0.21746 0.08035 0.43946 0.0
C406 C 0.25384 0.08518 0.45047 0.0
C407 C 0.35063 0.09899 0.48554 0.0
C408 C 0.31849 0.09436 0.47309 0.0
H409 H 0.13105 0.99575 0.41603 0.0
H410 H 0.20116 0.01066 0.43038 0.0
H411 H 0.30382 0.15996 0.44756 0.0
H412 H 0.40667 0.16931 0.51675 0.0
H413 H 0.36036 0.16606 0.49491 0.0
C414 C 0.16802 0.18294 0.76657 0.0
C415 C 0.13537 0.19493 0.76088 0.0
C416 C 0.20961 0.21737 0.77423 0.0
C417 C 0.25897 0.33412 0.79489 0.0
H418 H 0.37995 0.33608 0.79141 0.0
C419 C 0.42639 0.47904 0.82621 0.0
C420 C 0.45021 0.46222 0.83479 0.0
C421 C 0.39323 0.44948 0.81512 0.0
C422 C 0.34635 0.33587 0.79249 0.0
H423 H 0.12185 0.25301 0.75836 0.0
H424 H 0.19442 0.31283 0.7714 0.0
H425 H 0.31076 0.27766 0.77623 0.0
H426 H 0.45984 0.40207 0.83792 0.0
H427 H 0.40213 0.35057 0.81849 0.0
H428 H 0.29418 0.39189 0.81119 0.0
C429 C 0.18741 0.27665 0.7703 0.0
C430 C 0.30669 0.30232 0.78386 0.0
C431 C 0.14578 0.24227 0.76277 0.0
C432 C 0.44246 0.41626 0.83139 0.0
C433 C 0.40932 0.3867 0.82028 0.0
C434 C 0.29855 0.3677 0.80342 0.0
C435 C 0.2196 0.26458 0.77628 0.0
C436 C 0.26243 0.30089 0.78504 0.0
C437 C 0.38322 0.4025 0.81237 0.0
C438 C 0.3426 0.36881 0.80239 0.0
H439 H 0.16116 0.14682 0.76529 0.0
H440 H 0.23336 0.20673 0.77883 0.0
H441 H 0.22525 0.33348 0.79633 0.0
H442 H 0.43222 0.51456 0.82841 0.0
H443 H 0.37432 0.46293 0.80899 0.0
C444 C 0.94655 0.09884 0.70531 0.0
C445 C 0.94808 0.0575 0.70781 0.0
C446 C 0.9128 0.0973 0.69543 0.0
C447 C 0.79548 0.02155 0.67828 0.0
H448 H 0.84314 0.11357 0.64754 0.0
C449 C 0.67113 0.02324 0.63259 0.0
C450 C 0.68112 0.06778 0.62791 0.0
C451 C 0.70274 0.01967 0.64221 0.0
C452 C 0.82902 0.08808 0.65618 0.0
H453 H 0.91469 0.98184 0.70227 0.0
H454 H 0.85457 0.979 0.68512 0.0
H455 H 0.89941 0.11128 0.66476 0.0
H456 H 0.73245 0.14355 0.62983 0.0
H457 H 0.78593 0.13759 0.64711 0.0
H458 H 0.72493 -0.00065 0.67009 0.0
C459 C 0.87996 0.01258 0.69076 0.0
C460 C 0.86137 0.08661 0.66597 0.0
C461 C 0.91436 0.01425 0.70051 0.0
C462 C 0.72309 0.10868 0.63332 0.0
C463 C 0.75434 0.10516 0.64306 0.0
C464 C 0.76293 0.02345 0.66861 0.0
C465 C 0.87941 0.05428 0.688 0.0
C466 C 0.8449 0.05365 0.67718 0.0
C467 C 0.74492 0.06059 0.64751 0.0
C468 C 0.7793 0.05709 0.65752 0.0
H469 H 0.97204 0.13269 0.71078 0.0
H470 H 0.91277 0.12983 0.69359 0.0
H471 H 0.78195 0.996 0.68692 0.0
H472 H 0.63883 0.991 0.62884 0.0
H473 H 0.69443 0.9847 0.64528 0.0
C474 C 0.91466 0.00112 0.03602 0.0
C475 C 0.95668 0.00409 0.04153 0.0
C476 C 0.8924 0.97388 0.02292 0.0
C477 C 0.88638 0.87786 0.99719 0.0
H478 H 0.82936 0.925 0.97009 0.0
C479 C 0.80192 0.77988 0.94058 0.0
C480 C 0.75442 0.76961 0.93852 0.0
C481 C 0.83109 0.81293 0.95185 0.0
C482 C 0.84518 0.91147 0.97756 0.0
H483 H 0.00795 0.98025 0.03764 0.0
H484 H 0.96968 0.93355 0.01462 0.0
H485 H 0.87083 0.97247 0.99274 0.0
H486 H 0.70119 0.78765 0.94638 0.0
H487 H 0.75252 0.84606 0.96567 0.0
H488 H 0.86072 0.81691 0.98191 0.0
C489 C 0.9534 0.95159 0.02057 0.0
C490 C 0.86864 0.93844 0.99059 0.0
C491 C 0.97542 0.97847 0.03377 0.0
C492 C 0.73779 0.79517 0.94742 0.0
C493 C 0.76713 0.82854 0.95856 0.0
C494 C 0.86333 0.85114 0.98408 0.0
C495 C 0.91185 0.94932 0.01491 0.0
C496 C 0.8889 0.92163 0.00069 0.0
C497 C 0.81357 0.83678 0.96115 0.0
C498 C 0.84196 0.86739 0.97425 0.0
H499 H 0.89902 0.02008 0.04179 0.0
H500 H 0.85982 0.97205 0.0191 0.0
H501 H 0.90097 0.86348 0.00478 0.0
H502 H 0.81615 0.76145 0.93376 0.0
H503 H 0.86705 0.81916 0.9535 0.0
C504 C 0.05138 0.99391 0.36623 0.0
C505 C 0.01885 0.98653 0.37784 0.0
C506 C 0.05235 0.95542 0.35893 0.0
C507 C 0.97798 0.8264 0.35097 0.0
H508 H 0.09949 0.83717 0.33953 0.0
C509 C 0.05847 0.70852 0.31939 0.0
C510 C 0.02844 0.69155 0.30662 0.0
C511 C 0.05554 0.74027 0.32992 0.0
C512 C 0.06528 0.83331 0.34283 0.0
H513 H 0.96185 0.93314 0.39094 0.0
H514 H 0.96371 0.86598 0.37825 0.0
H515 H 0.09886 0.90181 0.35441 0.0
H516 H 0.97142 0.69438 0.29503 0.0
H517 H 0.96602 0.74901 0.31341 0.0
H518 H 0.94441 0.758 0.33932 0.0
C519 C 0.98817 0.90144 0.37469 0.0
C520 C 0.06492 0.8706 0.35118 0.0
C521 C 0.98722 0.93993 0.38199 0.0
C522 C 0.99443 0.70586 0.30488 0.0
C523 C 0.99137 0.73734 0.31542 0.0
C524 C 0.97835 0.78917 0.34259 0.0
C525 C 0.02079 0.90876 0.3631 0.0
C526 C 0.02126 0.86788 0.35513 0.0
C527 C 0.0224 0.75552 0.32792 0.0
C528 C 0.02199 0.79257 0.33821 0.0
H529 H 0.07617 0.02943 0.36278 0.0
H530 H 0.07739 0.96217 0.34988 0.0
H531 H 0.94374 0.82329 0.35377 0.0
H532 H 0.08465 0.69773 0.32115 0.0
H533 H 0.07955 0.75329 0.33955 0.0
C534 C 0.18341 0.09278 0.71334 0.0
C535 C 0.14379 0.05389 0.71958 0.0
C536 C 0.22108 0.08811 0.70729 0.0
C537 C 0.24395 0.00766 0.68622 0.0
H538 H 0.37787 0.09007 0.69741 0.0
C539 C 0.39055 0.01273 0.64791 0.0
C540 C 0.43017 0.05813 0.64569 0.0
C541 C 0.35932 0.00558 0.65982 0.0
C542 C 0.34073 0.06701 0.69402 0.0
H543 H 0.11251 0.97985 0.72458 0.0
H544 H 0.17785 0.97113 0.71326 0.0
H545 H 0.31542 0.09145 0.7129 0.0
H546 H 0.47009 0.1306 0.65517 0.0
H547 H 0.41425 0.11913 0.6751 0.0
H548 H 0.26836 0.98595 0.66672 0.0
C549 C 0.17995 0.00536 0.71342 0.0
C550 C 0.30507 0.06753 0.70301 0.0
C551 C 0.14277 0.01037 0.71986 0.0
C552 C 0.43925 0.09543 0.65623 0.0
C553 C 0.40747 0.08854 0.66791 0.0
C554 C 0.27954 0.0079 0.67703 0.0
C555 C 0.21925 0.0442 0.70705 0.0
C556 C 0.25651 0.03853 0.699 0.0
C557 C 0.36623 0.04381 0.66963 0.0
C558 C 0.32855 0.03845 0.6806 0.0
H559 H 0.18516 0.12678 0.71307 0.0
H560 H 0.25088 0.11837 0.70229 0.0
H561 H 0.20664 0.98536 0.68285 0.0
H562 H 0.38207 0.98301 0.64006 0.0
H563 H 0.32882 0.97027 0.66098 0.0
C564 C 0.14949 0.22857 0.04703 0.0
C565 C 0.14958 0.19156 0.05437 0.0
C566 C 0.18554 0.255 0.03697 0.0
C567 C 0.30782 0.29313 0.0253 0.0
H568 H 0.26166 0.30007 0.98627 0.0
C569 C 0.42489 0.42535 0.98073 0.0
C570 C 0.41896 0.40702 0.96582 0.0
C571 C 0.39536 0.39696 0.99196 0.0
C572 C 0.27508 0.29814 0.99707 0.0
H573 H 0.18933 0.1552 0.05746 0.0
H574 H 0.25307 0.20237 0.03997 0.0
H575 H 0.20422 0.25606 0.00559 0.0
H576 H 0.37818 0.3446 0.951 0.0
H577 H 0.32607 0.29508 0.97063 0.0
H578 H 0.37883 0.33618 0.01679 0.0
C579 C 0.22458 0.21029 0.04199 0.0
C580 C 0.24226 0.27334 0.00815 0.0
C581 C 0.18804 0.18329 0.05195 0.0
C582 C 0.38365 0.35951 0.96241 0.0
C583 C 0.35371 0.33132 0.97361 0.0
C584 C 0.34077 0.31865 0.01425 0.0
C585 C 0.22289 0.24553 0.03413 0.0
C586 C 0.25828 0.27083 0.02239 0.0
C587 C 0.35896 0.34995 0.98845 0.0
C588 C 0.32463 0.32143 5e-05 0.0
H589 H 0.1206 0.23613 0.04861 0.0
H590 H 0.18381 0.28242 0.03118 0.0
H591 H 0.32097 0.29171 0.03621 0.0
H592 H 0.45213 0.46179 0.98366 0.0
H593 H 0.39992 0.41227 0.0033 0.0
C594 C 0.98338 0.17603 0.37574 0.0
C595 C 0.02217 0.18652 0.38521 0.0
C596 C 0.98423 0.21117 0.36729 0.0
C597 C 0.07016 0.32458 0.35109 0.0
H598 H 0.955 0.3275 0.34146 0.0
C599 C 0.07359 0.46273 0.31264 0.0
C600 C 0.03763 0.44478 0.30147 0.0
C601 C 0.07098 0.43454 0.32424 0.0
C602 C 0.98741 0.32697 0.344 0.0
H603 H 0.09129 0.24266 0.39379 0.0
H604 H 0.09242 0.30434 0.37922 0.0
H605 H 0.95151 0.27317 0.35979 0.0
H606 H 0.97062 0.38305 0.2938 0.0
H607 H 0.96596 0.33404 0.31408 0.0
H608 H 0.10592 0.378 0.33518 0.0
C609 C 0.06175 0.26866 0.3781 0.0
C610 C 0.98544 0.29583 0.3545 0.0
C611 C 0.06096 0.23341 0.38653 0.0
C612 C -0.00144 0.39826 0.30233 0.0
C613 C 0.99588 0.37014 0.31396 0.0
C614 C 0.07217 0.35584 0.34065 0.0
C615 C 0.02382 0.25774 0.36814 0.0
C616 C 0.02665 0.29375 0.35801 0.0
C617 C 0.03228 0.38781 0.32497 0.0
C618 C 0.03068 0.35691 0.33683 0.0
H619 H 0.95297 0.14022 0.37445 0.0
H620 H 0.95465 0.20127 0.35962 0.0
H621 H 0.10243 0.32341 0.35332 0.0
H622 H 0.10373 0.49869 0.31246 0.0
H623 H 0.09925 0.44939 0.33268 0.0
loop_
_geom_bond_atom_site_label_1
_geom_bond_atom_site_label_2
_geom_bond_distance
_geom_bond_site_symmetry_2
_ccdc_geom_bond_type
Co0 O1 2.216 . S
Co0 O2 2.091 . S
Co0 O4 2.004 . S
Co0 O10 2.021 . S
Co0 O12 2.137 . S
Co0 O13 2.244 . S
O1 Co0 2.216 . S
O1 C8 1.247 . S
O2 Co0 2.091 . S
O2 C8 1.261 . S
C3 O12 1.247 . S
C3 O13 1.272 . S
O4 Co0 2.004 . S
O4 C9 1.259 . S
Co5 O6 2.061 . S
Co5 O11 2.052 1_455 S
Co5 O13 2.135 . S
O6 Co5 2.061 . S
O6 C9 1.235 . S
C7 O10 1.238 . S
C7 O11 1.241 1_455 S
C8 O1 1.247 . S
C8 O2 1.261 . S
C9 O4 1.259 . S
C9 O6 1.235 . S
O10 Co0 2.021 . S
O10 C7 1.238 . S
O11 Co5 2.052 1_655 S
O11 C7 1.241 1_655 S
O12 Co0 2.137 . S
O12 C3 1.247 . S
O13 Co0 2.244 . S
O13 C3 1.272 . S
O13 Co5 2.135 . S
Co14 O15 2.216 . S
Co14 O16 2.091 . S
Co14 O18 2.004 . S
Co14 O24 2.021 . S
Co14 O26 2.137 . S
Co14 O27 2.244 1_545 S
O15 Co14 2.216 . S
O15 C22 1.247 . S
O16 Co14 2.091 . S
O16 C22 1.261 . S
C17 O26 1.247 . S
C17 O27 1.272 1_545 S
O18 Co14 2.004 . S
O18 C23 1.259 . S
Co19 O20 2.061 1_565 S
Co19 O25 2.052 1_465 S
Co19 O27 2.135 . S
O20 Co19 2.061 1_545 S
O20 C23 1.235 . S
C21 O24 1.238 1_655 S
C21 O25 1.241 . S
C22 O15 1.247 . S
C22 O16 1.261 . S
C23 O18 1.259 . S
C23 O20 1.235 . S
O24 Co14 2.021 . S
O24 C21 1.238 1_455 S
O25 Co19 2.052 1_645 S
O25 C21 1.241 . S
O26 Co14 2.137 . S
O26 C17 1.247 . S
O27 Co14 2.244 1_565 S
O27 C17 1.272 1_565 S
O27 Co19 2.135 . S
Co28 O29 2.216 . S
Co28 O30 2.091 . S
Co28 O32 2.004 . S
Co28 O38 2.021 . S
Co28 O40 2.137 . S
Co28 O41 2.244 . S
O29 Co28 2.216 . S
O29 C36 1.247 . S
O30 Co28 2.091 . S
O30 C36 1.261 . S
C31 O40 1.247 . S
C31 O41 1.272 . S
O32 Co28 2.004 . S
O32 C37 1.259 . S
Co33 O34 2.061 . S
Co33 O39 2.052 . S
Co33 O41 2.135 . S
O34 Co33 2.061 . S
O34 C37 1.235 . S
C35 O38 1.238 . S
C35 O39 1.241 . S
C36 O29 1.247 . S
C36 O30 1.261 . S
C37 O32 1.259 . S
C37 O34 1.235 . S
O38 Co28 2.021 . S
O38 C35 1.238 . S
O39 Co33 2.052 . S
O39 C35 1.241 . S
O40 Co28 2.137 . S
O40 C31 1.247 . S
O41 Co28 2.244 . S
O41 C31 1.272 . S
O41 Co33 2.135 . S
H42 O68 0.856 . S
H43 O71 0.854 . S
H44 C79 0.930 . S
H45 C80 0.930 . S
H46 C82 0.930 . S
H47 C83 0.930 . S
H48 C85 0.931 1_655 S
H49 C86 0.930 1_655 S
H50 C88 0.930 . S
H51 C89 0.929 . S
H52 C91 0.930 1_655 S
H53 C92 0.931 1_655 S
H54 C94 0.930 . S
H55 C95 0.929 . S
H56 C97 0.931 1_655 S
H57 C98 0.930 1_655 S
H58 C100 0.930 . S
H59 C101 0.932 . S
H60 C103 0.930 . S
H61 C104 0.929 . S
H62 C106 0.931 . S
H63 C107 0.930 . S
H64 C109 0.929 . S
H65 C110 0.931 1_655 S
H66 C112 0.930 . S
H67 C113 0.929 . S
O68 H42 0.856 . S
O68 C114 1.300 . S
O69 C114 1.209 . S
O70 C115 1.199 . S
O71 H43 0.854 . S
O71 C115 1.297 . S
C72 C73 1.404 . S
C72 C77 1.397 . S
C72 C78 1.492 . S
C73 C72 1.404 . S
C73 C74 1.396 . S
C73 C84 1.492 . S
C74 C73 1.396 . S
C74 C75 1.397 . S
C74 C90 1.509 . S
C75 C74 1.397 . S
C75 C76 1.412 . S
C75 C96 1.485 . S
C76 C75 1.412 . S
C76 C77 1.388 . S
C76 C102 1.490 . S
C77 C72 1.397 . S
C77 C76 1.388 . S
C77 C108 1.519 . S
C78 C72 1.492 . S
C78 C79 1.363 1_455 S
C78 C83 1.390 . S
C79 H44 0.930 . S
C79 C78 1.363 1_655 S
C79 C80 1.372 . S
C80 H45 0.930 . S
C80 C79 1.372 . S
C80 C81 1.383 1_655 S
C81 C80 1.383 1_455 S
C81 C82 1.395 . S
C82 H46 0.930 . S
C82 C81 1.395 . S
C82 C83 1.362 . S
C83 H47 0.930 . S
C83 C78 1.390 . S
C83 C82 1.362 . S
C84 C73 1.492 . S
C84 C85 1.377 . S
C84 C89 1.397 . S
C85 H48 0.931 1_455 S
C85 C84 1.377 . S
C85 C86 1.376 . S
C86 H49 0.930 1_455 S
C86 C85 1.376 . S
C86 C87 1.376 . S
C87 C86 1.376 . S
C87 C88 1.378 . S
C87 C114 1.486 . S
C88 H50 0.930 . S
C88 C87 1.378 . S
C88 C89 1.376 . S
C89 H51 0.929 . S
C89 C84 1.397 . S
C89 C88 1.376 . S
C90 C74 1.509 . S
C90 C91 1.391 . S
C90 C95 1.386 . S
C91 H52 0.930 1_455 S
C91 C90 1.391 . S
C91 C92 1.375 . S
C92 H53 0.931 1_455 S
C92 C91 1.375 . S
C92 C93 1.375 . S
C93 C92 1.375 . S
C93 C94 1.361 . S
C94 H54 0.930 . S
C94 C93 1.361 . S
C94 C95 1.399 . S
C95 H55 0.929 . S
C95 C90 1.386 . S
C95 C94 1.399 . S
C96 C75 1.485 . S
C96 C97 1.394 . S
C96 C101 1.360 . S
C97 H56 0.931 1_455 S
C97 C96 1.394 . S
C97 C98 1.372 . S
C98 H57 0.930 1_455 S
C98 C97 1.372 . S
C98 C99 1.397 . S
C99 C98 1.397 . S
C99 C100 1.390 . S
C99 C115 1.476 . S
C100 H58 0.930 . S
C100 C99 1.390 . S
C100 C101 1.366 . S
C101 H59 0.932 . S
C101 C96 1.360 . S
C101 C100 1.366 . S
C102 C76 1.490 . S
C102 C103 1.380 1_455 S
C102 C107 1.386 . S
C103 H60 0.930 . S
C103 C102 1.380 1_655 S
C103 C104 1.381 . S
C104 H61 0.929 . S
C104 C103 1.381 . S
C104 C105 1.371 1_655 S
C105 C104 1.371 1_455 S
C105 C106 1.380 . S
C106 H62 0.931 . S
C106 C105 1.380 . S
C106 C107 1.387 . S
C107 H63 0.930 . S
C107 C102 1.386 . S
C107 C106 1.387 . S
C108 C77 1.519 . S
C108 C109 1.377 1_455 S
C108 C113 1.361 . S
C109 H64 0.929 . S
C109 C108 1.377 1_655 S
C109 C110 1.386 1_655 S
C110 H65 0.931 1_455 S
C110 C109 1.386 1_455 S
C110 C111 1.363 . S
C111 C110 1.363 . S
C111 C112 1.385 . S
C112 H66 0.930 . S
C112 C111 1.385 . S
C112 C113 1.396 . S
C113 H67 0.929 . S
C113 C108 1.361 . S
C113 C112 1.396 . S
C114 O68 1.300 . S
C114 O69 1.209 . S
C114 C87 1.486 . S
C115 O70 1.199 . S
C115 O71 1.297 . S
C115 C99 1.476 . S
H116 O142 0.856 . S
H117 O145 0.854 . S
H118 C153 0.930 . S
H119 C154 0.930 1_565 S
H120 C156 0.930 . S
H121 C157 0.930 . S
H122 C159 0.931 . S
H123 C160 0.930 . S
H124 C162 0.930 . S
H125 C163 0.929 . S
H126 C165 0.930 . S
H127 C166 0.931 . S
H128 C168 0.930 . S
H129 C169 0.929 . S
H130 C171 0.931 . S
H131 C172 0.930 . S
H132 C174 0.930 . S
H133 C175 0.932 . S
H134 C177 0.930 . S
H135 C178 0.929 . S
H136 C180 0.931 . S
H137 C181 0.930 . S
H138 C183 0.929 . S
H139 C184 0.931 . S
H140 C186 0.930 . S
H141 C187 0.929 . S
O142 H116 0.856 . S
O142 C188 1.300 . S
O143 C188 1.209 . S
O144 C189 1.199 . S
O145 H117 0.854 . S
O145 C189 1.297 . S
C146 C147 1.404 . S
C146 C151 1.397 . S
C146 C152 1.492 . S
C147 C146 1.404 . S
C147 C148 1.396 . S
C147 C158 1.492 . S
C148 C147 1.396 . S
C148 C149 1.397 . S
C148 C164 1.509 . S
C149 C148 1.397 . S
C149 C150 1.412 . S
C149 C170 1.485 . S
C150 C149 1.412 . S
C150 C151 1.388 . S
C150 C176 1.490 . S
C151 C146 1.397 . S
C151 C150 1.388 . S
C151 C182 1.519 . S
C152 C146 1.492 . S
C152 C153 1.363 . S
C152 C157 1.390 . S
C153 H118 0.930 . S
C153 C152 1.363 . S
C153 C154 1.372 . S
C154 H119 0.930 1_545 S
C154 C153 1.372 . S
C154 C155 1.383 . S
C155 C154 1.383 . S
C155 C156 1.395 . S
C156 H120 0.930 . S
C156 C155 1.395 . S
C156 C157 1.362 . S
C157 H121 0.930 . S
C157 C152 1.390 . S
C157 C156 1.362 . S
C158 C147 1.492 . S
C158 C159 1.377 . S
C158 C163 1.397 . S
C159 H122 0.931 . S
C159 C158 1.377 . S
C159 C160 1.376 . S
C160 H123 0.930 . S
C160 C159 1.376 . S
C160 C161 1.376 . S
C161 C160 1.376 . S
C161 C162 1.378 . S
C161 C188 1.486 . S
C162 H124 0.930 . S
C162 C161 1.378 . S
C162 C163 1.376 . S
C163 H125 0.929 . S
C163 C158 1.397 . S
C163 C162 1.376 . S
C164 C148 1.509 . S
C164 C165 1.391 . S
C164 C169 1.386 . S
C165 H126 0.930 . S
C165 C164 1.391 . S
C165 C166 1.375 . S
C166 H127 0.931 . S
C166 C165 1.375 . S
C166 C167 1.375 . S
C167 C166 1.375 . S
C167 C168 1.361 . S
C168 H128 0.930 . S
C168 C167 1.361 . S
C168 C169 1.399 . S
C169 H129 0.929 . S
C169 C164 1.386 . S
C169 C168 1.399 . S
C170 C149 1.485 . S
C170 C171 1.394 . S
C170 C175 1.360 . S
C171 H130 0.931 . S
C171 C170 1.394 . S
C171 C172 1.372 . S
C172 H131 0.930 . S
C172 C171 1.372 . S
C172 C173 1.397 . S
C173 C172 1.397 . S
C173 C174 1.390 . S
C173 C189 1.476 . S
C174 H132 0.930 . S
C174 C173 1.390 . S
C174 C175 1.366 . S
C175 H133 0.932 . S
C175 C170 1.360 . S
C175 C174 1.366 . S
C176 C150 1.490 . S
C176 C177 1.380 . S
C176 C181 1.386 . S
C177 H134 0.930 . S
C177 C176 1.380 . S
C177 C178 1.381 . S
C178 H135 0.929 . S
C178 C177 1.381 . S
C178 C179 1.371 . S
C179 C178 1.371 . S
C179 C180 1.380 . S
C180 H136 0.931 . S
C180 C179 1.380 . S
C180 C181 1.387 . S
C181 H137 0.930 . S
C181 C176 1.386 . S
C181 C180 1.387 . S
C182 C151 1.519 . S
C182 C183 1.377 . S
C182 C187 1.361 . S
C183 H138 0.929 . S
C183 C182 1.377 . S
C183 C184 1.386 . S
C184 H139 0.931 . S
C184 C183 1.386 . S
C184 C185 1.363 . S
C185 C184 1.363 . S
C185 C186 1.385 . S
C186 H140 0.930 . S
C186 C185 1.385 . S
C186 C187 1.396 . S
C187 H141 0.929 . S
C187 C182 1.361 . S
C187 C186 1.396 . S
C188 O142 1.300 . S
C188 O143 1.209 . S
C188 C161 1.486 . S
C189 O144 1.199 . S
C189 O145 1.297 . S
C189 C173 1.476 . S
H190 O216 0.856 . S
H191 O219 0.854 . S
H192 C227 0.930 . S
H193 C228 0.930 . S
H194 C230 0.930 . S
H195 C231 0.930 . S
H196 C233 0.931 . S
H197 C234 0.930 . S
H198 C236 0.930 . S
H199 C237 0.929 . S
H200 C239 0.930 . S
H201 C240 0.931 . S
H202 C242 0.930 . S
H203 C243 0.929 . S
H204 C245 0.931 . S
H205 C246 0.930 . S
H206 C248 0.930 . S
H207 C249 0.932 . S
H208 C251 0.930 . S
H209 C252 0.929 . S
H210 C254 0.931 . S
H211 C255 0.930 . S
H212 C257 0.929 . S
H213 C258 0.931 . S
H214 C260 0.930 . S
H215 C261 0.929 . S
O216 H190 0.856 . S
O216 C262 1.277 1_554 S
O217 C262 1.196 1_554 S
O218 C263 1.199 . S
O219 H191 0.854 . S
O219 C263 1.297 . S
C220 C221 1.404 . S
C220 C225 1.397 . S
C220 C226 1.492 . S
C221 C220 1.404 . S
C221 C222 1.396 . S
C221 C232 1.492 . S
C222 C221 1.396 . S
C222 C223 1.397 . S
C222 C238 1.509 . S
C223 C222 1.397 . S
C223 C224 1.412 . S
C223 C244 1.485 . S
C224 C223 1.412 . S
C224 C225 1.388 . S
C224 C250 1.490 . S
C225 C220 1.397 . S
C225 C224 1.388 . S
C225 C256 1.519 . S
C226 C220 1.492 . S
C226 C227 1.363 . S
C226 C231 1.390 . S
C227 H192 0.930 . S
C227 C226 1.363 . S
C227 C228 1.372 . S
C228 H193 0.930 . S
C228 C227 1.372 . S
C228 C229 1.383 . S
C229 C228 1.383 . S
C229 C230 1.395 . S
C230 H194 0.930 . S
C230 C229 1.395 . S
C230 C231 1.362 . S
C231 H195 0.930 . S
C231 C226 1.390 . S
C231 C230 1.362 . S
C232 C221 1.492 . S
C232 C233 1.377 . S
C232 C237 1.397 . S
C233 H196 0.931 . S
C233 C232 1.377 . S
C233 C234 1.376 . S
C234 H197 0.930 . S
C234 C233 1.376 . S
C234 C235 1.376 . S
C235 C234 1.376 . S
C235 C236 1.378 . S
C235 C262 1.524 . S
C236 H198 0.930 . S
C236 C235 1.378 . S
C236 C237 1.376 . S
C237 H199 0.929 . S
C237 C232 1.397 . S
C237 C236 1.376 . S
C238 C222 1.509 . S
C238 C239 1.391 . S
C238 C243 1.386 . S
C239 H200 0.930 . S
C239 C238 1.391 . S
C239 C240 1.375 . S
C240 H201 0.931 . S
C240 C239 1.375 . S
C240 C241 1.375 . S
C241 C240 1.375 . S
C241 C242 1.361 . S
C242 H202 0.930 . S
C242 C241 1.361 . S
C242 C243 1.399 . S
C243 H203 0.929 . S
C243 C238 1.386 . S
C243 C242 1.399 . S
C244 C223 1.485 . S
C244 C245 1.394 . S
C244 C249 1.360 . S
C245 H204 0.931 . S
C245 C244 1.394 . S
C245 C246 1.372 . S
C246 H205 0.930 . S
C246 C245 1.372 . S
C246 C247 1.397 . S
C247 C246 1.397 . S
C247 C248 1.390 . S
C247 C263 1.476 . S
C248 H206 0.930 . S
C248 C247 1.390 . S
C248 C249 1.366 . S
C249 H207 0.932 . S
C249 C244 1.360 . S
C249 C248 1.366 . S
C250 C224 1.490 . S
C250 C251 1.380 . S
C250 C255 1.386 . S
C251 H208 0.930 . S
C251 C250 1.380 . S
C251 C252 1.381 . S
C252 H209 0.929 . S
C252 C251 1.381 . S
C252 C253 1.371 . S
C253 C252 1.371 . S
C253 C254 1.380 . S
C254 H210 0.931 . S
C254 C253 1.380 . S
C254 C255 1.387 . S
C255 H211 0.930 . S
C255 C250 1.386 . S
C255 C254 1.387 . S
C256 C225 1.519 . S
C256 C257 1.377 . S
C256 C261 1.361 . S
C257 H212 0.929 . S
C257 C256 1.377 . S
C257 C258 1.386 . S
C258 H213 0.931 . S
C258 C257 1.386 . S
C258 C259 1.363 . S
C259 C258 1.363 . S
C259 C260 1.385 . S
C260 H214 0.930 . S
C260 C259 1.385 . S
C260 C261 1.396 . S
C261 H215 0.929 . S
C261 C256 1.361 . S
C261 C260 1.396 . S
C262 O216 1.277 1_556 S
C262 O217 1.196 1_556 S
C262 C235 1.524 . S
C263 O218 1.199 . S
C263 O219 1.297 . S
C263 C247 1.476 . S
C264 C265 1.349 . S
C264 C266 1.327 . S
C264 H289 0.950 . S
C265 C264 1.349 . S
C265 C281 1.349 . S
C266 C264 1.327 . S
C266 C285 1.429 . S
C266 H290 0.950 . S
C267 C284 1.574 . S
C267 C286 1.368 . S
C267 H291 0.949 1_455 S
H268 C272 0.949 . S
C269 C270 1.349 1_655 S
C269 C271 1.327 . S
C269 H292 0.950 . S
C270 C269 1.349 1_455 S
C270 C282 1.349 . S
C271 C269 1.327 . S
C271 C287 1.429 1_655 S
C271 H293 0.950 . S
C272 H268 0.949 . S
C272 C280 1.574 . S
C272 C288 1.368 . S
H273 C281 0.950 . S
H274 C279 0.945 1_655 S
H275 C280 0.949 . S
H276 C282 0.950 . S
H277 C283 0.950 . S
H278 C284 0.949 1_655 S
C279 H274 0.945 1_455 S
C279 C281 1.327 . S
C279 C285 1.429 . S
C280 C272 1.574 . S
C280 H275 0.949 . S
C280 C286 1.368 . S
C281 C265 1.349 . S
C281 H273 0.950 . S
C281 C279 1.327 . S
C282 C270 1.349 . S
C282 H276 0.950 . S
C282 C283 1.327 . S
C283 H277 0.950 . S
C283 C282 1.327 . S
C283 C287 1.429 . S
C284 C267 1.574 . S
C284 H278 0.949 1_455 S
C284 C288 1.368 . S
C285 C266 1.429 . S
C285 C279 1.429 . S
C285 C286 1.523 . S
C286 C267 1.368 . S
C286 C280 1.368 . S
C286 C285 1.523 . S
C287 C271 1.429 1_455 S
C287 C283 1.429 . S
C287 C288 1.523 . S
C288 C272 1.368 . S
C288 C284 1.368 . S
C288 C287 1.523 . S
H289 C264 0.950 . S
H290 C266 0.950 . S
H291 C267 0.949 1_655 S
H292 C269 0.950 . S
H293 C271 0.950 . S
C294 C295 1.349 . S
C294 C296 1.327 . S
C294 H319 0.950 . S
C295 C294 1.349 . S
C295 C311 1.349 . S
C296 C294 1.327 . S
C296 C315 1.429 . S
C296 H320 0.950 . S
C297 C314 1.574 . S
C297 C316 1.368 . S
C297 H321 0.949 . S
H298 C302 0.947 1_565 S
C299 C300 1.349 . S
C299 C301 1.327 . S
C299 H322 0.950 . S
C300 C299 1.349 . S
C300 C312 1.349 . S
C301 C299 1.327 . S
C301 C317 1.429 . S
C301 H323 0.950 . S
C302 H298 0.947 1_545 S
C302 C310 1.574 . S
C302 C318 1.368 . S
H303 C311 0.950 . S
H304 C309 0.950 . S
H305 C310 0.975 . S
H306 C312 0.952 1_565 S
H307 C313 0.935 1_565 S
H308 C314 0.949 . S
C309 H304 0.950 . S
C309 C311 1.327 . S
C309 C315 1.429 . S
C310 C302 1.574 . S
C310 H305 0.975 . S
C310 C316 1.368 . S
C311 C295 1.349 . S
C311 H303 0.950 . S
C311 C309 1.327 . S
C312 C300 1.349 . S
C312 H306 0.952 1_545 S
C312 C313 1.327 . S
C313 H307 0.935 1_545 S
C313 C312 1.327 . S
C313 C317 1.429 . S
C314 C297 1.574 . S
C314 H308 0.949 . S
C314 C318 1.368 . S
C315 C296 1.429 . S
C315 C309 1.429 . S
C315 C316 1.523 . S
C316 C297 1.368 . S
C316 C310 1.368 . S
C316 C315 1.523 . S
C317 C301 1.429 . S
C317 C313 1.429 . S
C317 C318 1.523 . S
C318 C302 1.368 . S
C318 C314 1.368 . S
C318 C317 1.523 . S
H319 C294 0.950 . S
H320 C296 0.950 . S
H321 C297 0.949 . S
H322 C299 0.950 . S
H323 C301 0.950 . S
C324 C325 1.349 . S
C324 C326 1.327 . S
C324 H349 0.950 1_565 S
C325 C324 1.349 . S
C325 C341 1.349 . S
C326 C324 1.327 . S
C326 C345 1.429 . S
C326 H350 0.950 . S
C327 C344 1.574 . S
C327 C346 1.368 . S
C327 H351 0.949 . S
H328 C332 0.949 . S
C329 C330 1.349 . S
C329 C331 1.327 . S
C329 H352 0.950 . S
C330 C329 1.349 . S
C330 C342 1.349 . S
C331 C329 1.327 . S
C331 C347 1.429 . S
C331 H353 0.950 . S
C332 H328 0.949 . S
C332 C340 1.574 . S
C332 C348 1.368 . S
H333 C341 0.950 . S
H334 C339 0.950 . S
H335 C340 0.949 . S
H336 C342 0.950 . S
H337 C343 0.950 . S
H338 C344 0.949 . S
C339 H334 0.950 . S
C339 C341 1.327 . S
C339 C345 1.429 . S
C340 C332 1.574 . S
C340 H335 0.949 . S
C340 C346 1.368 . S
C341 C325 1.349 . S
C341 H333 0.950 . S
C341 C339 1.327 . S
C342 C330 1.349 . S
C342 H336 0.950 . S
C342 C343 1.327 . S
C343 H337 0.950 . S
C343 C342 1.327 . S
C343 C347 1.429 . S
C344 C327 1.574 . S
C344 H338 0.949 . S
C344 C348 1.368 . S
C345 C326 1.429 . S
C345 C339 1.429 . S
C345 C346 1.523 . S
C346 C327 1.368 . S
C346 C340 1.368 . S
C346 C345 1.523 . S
C347 C331 1.429 . S
C347 C343 1.429 . S
C347 C348 1.523 . S
C348 C332 1.368 . S
C348 C344 1.368 . S
C348 C347 1.523 . S
H349 C324 0.950 1_545 S
H350 C326 0.950 . S
H351 C327 0.949 . S
H352 C329 0.950 . S
H353 C331 0.950 . S
C354 C355 1.349 . S
C354 C356 1.327 . S
C354 H379 0.950 . S
C355 C354 1.349 . S
C355 C371 1.349 1_565 S
C356 C354 1.327 . S
C356 C375 1.429 . S
C356 H380 0.950 . S
C357 C374 1.574 . S
C357 C376 1.368 . S
C357 H381 0.949 . S
H358 C362 0.949 . S
C359 C360 1.349 . S
C359 C361 1.327 . S
C359 H382 0.950 . S
C360 C359 1.349 . S
C360 C372 1.349 . S
C361 C359 1.327 . S
C361 C377 1.429 . S
C361 H383 0.950 . S
C362 H358 0.949 . S
C362 C370 1.574 . S
C362 C378 1.368 . S
H363 C371 0.950 . S
H364 C369 0.950 . S
H365 C370 0.949 . S
H366 C372 0.950 . S
H367 C373 0.950 . S
H368 C374 0.949 . S
C369 H364 0.950 . S
C369 C371 1.327 1_565 S
C369 C375 1.429 . S
C370 C362 1.574 . S
C370 H365 0.949 . S
C370 C376 1.368 . S
C371 C355 1.349 1_545 S
C371 H363 0.950 . S
C371 C369 1.327 1_545 S
C372 C360 1.349 . S
C372 H366 0.950 . S
C372 C373 1.327 . S
C373 H367 0.950 . S
C373 C372 1.327 . S
C373 C377 1.429 . S
C374 C357 1.574 . S
C374 H368 0.949 . S
C374 C378 1.368 . S
C375 C356 1.429 . S
C375 C369 1.429 . S
C375 C376 1.523 . S
C376 C357 1.368 . S
C376 C370 1.368 . S
C376 C375 1.523 . S
C377 C361 1.429 . S
C377 C373 1.429 . S
C377 C378 1.523 . S
C378 C362 1.368 . S
C378 C374 1.368 . S
C378 C377 1.523 . S
H379 C354 0.950 . S
H380 C356 0.950 . S
H381 C357 0.949 . S
H382 C359 0.950 . S
H383 C361 0.950 . S
C384 C385 1.349 . S
C384 C386 1.327 . S
C384 H409 0.950 . S
C385 C384 1.349 . S
C385 C401 1.349 . S
C386 C384 1.327 . S
C386 C405 1.429 . S
C386 H410 0.950 . S
C387 C404 1.574 . S
C387 C406 1.368 . S
C387 H411 0.949 . S
H388 C392 0.949 . S
C389 C390 1.349 . S
C389 C391 1.327 . S
C389 H412 0.950 . S
C390 C389 1.349 . S
C390 C402 1.349 . S
C391 C389 1.327 . S
C391 C407 1.429 . S
C391 H413 0.950 . S
C392 H388 0.949 . S
C392 C400 1.574 . S
C392 C408 1.368 . S
H393 C401 0.950 . S
H394 C399 0.950 . S
H395 C400 0.949 . S
H396 C402 0.950 . S
H397 C403 0.950 . S
H398 C404 0.949 . S
C399 H394 0.950 . S
C399 C401 1.327 . S
C399 C405 1.429 . S
C400 C392 1.574 . S
C400 H395 0.949 . S
C400 C406 1.368 . S
C401 C385 1.349 . S
C401 H393 0.950 . S
C401 C399 1.327 . S
C402 C390 1.349 . S
C402 H396 0.950 . S
C402 C403 1.327 . S
C403 H397 0.950 . S
C403 C402 1.327 . S
C403 C407 1.429 . S
C404 C387 1.574 . S
C404 H398 0.949 . S
C404 C408 1.368 . S
C405 C386 1.429 . S
C405 C399 1.429 . S
C405 C406 1.523 . S
C406 C387 1.368 . S
C406 C400 1.368 . S
C406 C405 1.523 . S
C407 C391 1.429 . S
C407 C403 1.429 . S
C407 C408 1.523 . S
C408 C392 1.368 . S
C408 C404 1.368 . S
C408 C407 1.523 . S
H409 C384 0.950 . S
H410 C386 0.950 . S
H411 C387 0.949 . S
H412 C389 0.950 . S
H413 C391 0.950 . S
C414 C415 1.349 . S
C414 C416 1.327 . S
C414 H439 0.950 . S
C415 C414 1.349 . S
C415 C431 1.349 . S
C416 C414 1.327 . S
C416 C435 1.429 . S
C416 H440 0.950 . S
C417 C434 1.574 . S
C417 C436 1.368 . S
C417 H441 0.949 . S
H418 C422 0.949 . S
C419 C420 1.349 . S
C419 C421 1.327 . S
C419 H442 0.950 . S
C420 C419 1.349 . S
C420 C432 1.349 . S
C421 C419 1.327 . S
C421 C437 1.429 . S
C421 H443 0.950 . S
C422 H418 0.949 . S
C422 C430 1.574 . S
C422 C438 1.368 . S
H423 C431 0.950 . S
H424 C429 0.950 . S
H425 C430 0.949 . S
H426 C432 0.950 . S
H427 C433 0.950 . S
H428 C434 0.949 . S
C429 H424 0.950 . S
C429 C431 1.327 . S
C429 C435 1.429 . S
C430 C422 1.574 . S
C430 H425 0.949 . S
C430 C436 1.368 . S
C431 C415 1.349 . S
C431 H423 0.950 . S
C431 C429 1.327 . S
C432 C420 1.349 . S
C432 H426 0.950 . S
C432 C433 1.327 . S
C433 H427 0.950 . S
C433 C432 1.327 . S
C433 C437 1.429 . S
C434 C417 1.574 . S
C434 H428 0.949 . S
C434 C438 1.368 . S
C435 C416 1.429 . S
C435 C429 1.429 . S
C435 C436 1.523 . S
C436 C417 1.368 . S
C436 C430 1.368 . S
C436 C435 1.523 . S
C437 C421 1.429 . S
C437 C433 1.429 . S
C437 C438 1.523 . S
C438 C422 1.368 . S
C438 C434 1.368 . S
C438 C437 1.523 . S
H439 C414 0.950 . S
H440 C416 0.950 . S
H441 C417 0.949 . S
H442 C419 0.950 . S
H443 C421 0.950 . S
C444 C445 1.349 . S
C444 C446 1.327 . S
C444 H469 0.950 1_655 S
C445 C444 1.349 . S
C445 C461 1.349 . S
C446 C444 1.327 . S
C446 C465 1.429 . S
C446 H470 0.950 . S
C447 C464 1.574 . S
C447 C466 1.368 . S
C447 H471 0.949 . S
H448 C452 0.949 . S
C449 C450 1.349 . S
C449 C451 1.327 . S
C449 H472 0.950 . S
C450 C449 1.349 . S
C450 C462 1.349 . S
C451 C449 1.327 . S
C451 C467 1.429 . S
C451 H473 0.950 . S
C452 H448 0.949 . S
C452 C460 1.574 . S
C452 C468 1.368 . S
H453 C461 0.950 . S
H454 C459 0.950 . S
H455 C460 0.949 . S
H456 C462 0.950 . S
H457 C463 0.950 . S
H458 C464 0.949 . S
C459 H454 0.950 . S
C459 C461 1.327 . S
C459 C465 1.429 . S
C460 C452 1.574 . S
C460 H455 0.949 . S
C460 C466 1.368 . S
C461 C445 1.349 . S
C461 H453 0.950 . S
C461 C459 1.327 . S
C462 C450 1.349 . S
C462 H456 0.950 . S
C462 C463 1.327 . S
C463 H457 0.950 . S
C463 C462 1.327 . S
C463 C467 1.429 . S
C464 C447 1.574 . S
C464 H458 0.949 . S
C464 C468 1.368 . S
C465 C446 1.429 . S
C465 C459 1.429 . S
C465 C466 1.523 . S
C466 C447 1.368 . S
C466 C460 1.368 . S
C466 C465 1.523 . S
C467 C451 1.429 . S
C467 C463 1.429 . S
C467 C468 1.523 . S
C468 C452 1.368 . S
C468 C464 1.368 . S
C468 C467 1.523 . S
H469 C444 0.950 1_455 S
H470 C446 0.950 . S
H471 C447 0.949 . S
H472 C449 0.950 . S
H473 C451 0.950 . S
C474 C475 1.349 . S
C474 C476 1.327 . S
C474 H499 0.950 . S
C475 C474 1.349 . S
C475 C491 1.349 . S
C476 C474 1.327 . S
C476 C495 1.429 . S
C476 H500 0.950 . S
C477 C494 1.574 . S
C477 C496 1.368 1_556 S
C477 H501 0.949 . S
H478 C482 0.947 . S
C479 C480 1.349 . S
C479 C481 1.327 . S
C479 H502 0.950 . S
C480 C479 1.349 . S
C480 C492 1.349 . S
C481 C479 1.327 . S
C481 C497 1.429 . S
C481 H503 0.950 . S
C482 H478 0.947 . S
C482 C490 1.537 1_556 S
C482 C498 1.409 . S
H483 C491 0.951 1_445 S
H484 C489 0.950 . S
H485 C490 0.949 . S
H486 C492 0.950 . S
H487 C493 0.950 . S
H488 C494 0.949 . S
C489 H484 0.950 . S
C489 C491 1.327 . S
C489 C495 1.429 . S
C490 C482 1.537 1_554 S
C490 H485 0.949 . S
C490 C496 1.368 . S
C491 C475 1.349 . S
C491 H483 0.951 1_665 S
C491 C489 1.327 . S
C492 C480 1.349 . S
C492 H486 0.950 . S
C492 C493 1.327 . S
C493 H487 0.950 . S
C493 C492 1.327 . S
C493 C497 1.429 . S
C494 C477 1.574 . S
C494 H488 0.949 . S
C494 C498 1.368 . S
C495 C476 1.429 . S
C495 C489 1.429 . S
C495 C496 1.523 . S
C496 C477 1.368 1_554 S
C496 C490 1.368 . S
C496 C495 1.523 . S
C497 C481 1.429 . S
C497 C493 1.429 . S
C497 C498 1.523 . S
C498 C482 1.409 . S
C498 C494 1.368 . S
C498 C497 1.523 . S
H499 C474 0.950 . S
H500 C476 0.950 . S
H501 C477 0.949 . S
H502 C479 0.950 . S
H503 C481 0.950 . S
C504 C505 1.349 . S
C504 C506 1.327 . S
C504 H529 0.950 1_565 S
C505 C504 1.349 . S
C505 C521 1.349 . S
C506 C504 1.327 . S
C506 C525 1.429 . S
C506 H530 0.950 . S
C507 C524 1.574 1_455 S
C507 C526 1.368 . S
C507 H531 0.949 1_455 S
H508 C512 0.949 . S
C509 C510 1.349 1_655 S
C509 C511 1.327 . S
C509 H532 0.950 . S
C510 C509 1.349 1_455 S
C510 C522 1.349 . S
C511 C509 1.327 . S
C511 C527 1.429 1_655 S
C511 H533 0.950 . S
C512 H508 0.949 . S
C512 C520 1.574 . S
C512 C528 1.368 . S
H513 C521 0.950 . S
H514 C519 0.950 1_655 S
H515 C520 0.949 . S
H516 C522 0.950 . S
H517 C523 0.950 . S
H518 C524 0.949 . S
C519 H514 0.950 1_455 S
C519 C521 1.327 . S
C519 C525 1.429 . S
C520 C512 1.574 . S
C520 H515 0.949 . S
C520 C526 1.368 . S
C521 C505 1.349 . S
C521 H513 0.950 . S
C521 C519 1.327 . S
C522 C510 1.349 . S
C522 H516 0.950 . S
C522 C523 1.327 . S
C523 H517 0.950 . S
C523 C522 1.327 . S
C523 C527 1.429 . S
C524 C507 1.574 1_655 S
C524 H518 0.949 . S
C524 C528 1.368 1_655 S
C525 C506 1.429 . S
C525 C519 1.429 . S
C525 C526 1.523 . S
C526 C507 1.368 . S
C526 C520 1.368 . S
C526 C525 1.523 . S
C527 C511 1.429 1_455 S
C527 C523 1.429 . S
C527 C528 1.523 . S
C528 C512 1.368 . S
C528 C524 1.368 1_455 S
C528 C527 1.523 . S
H529 C504 0.950 1_545 S
H530 C506 0.950 . S
H531 C507 0.949 1_655 S
H532 C509 0.950 . S
H533 C511 0.950 . S
C534 C535 1.349 . S
C534 C536 1.327 . S
C534 H559 0.950 . S
C535 C534 1.349 . S
C535 C551 1.349 . S
C536 C534 1.327 . S
C536 C555 1.429 . S
C536 H560 0.950 . S
C537 C554 1.574 . S
C537 C556 1.368 . S
C537 H561 0.949 . S
H538 C542 0.949 . S
C539 C540 1.349 . S
C539 C541 1.327 . S
C539 H562 0.950 . S
C540 C539 1.349 . S
C540 C552 1.349 . S
C541 C539 1.327 . S
C541 C557 1.429 . S
C541 H563 0.950 . S
C542 H538 0.949 . S
C542 C550 1.574 . S
C542 C558 1.368 . S
H543 C551 0.950 . S
H544 C549 0.950 . S
H545 C550 0.949 . S
H546 C552 0.950 . S
H547 C553 0.950 . S
H548 C554 0.949 . S
C549 H544 0.950 . S
C549 C551 1.327 . S
C549 C555 1.429 . S
C550 C542 1.574 . S
C550 H545 0.949 . S
C550 C556 1.368 . S
C551 C535 1.349 . S
C551 H543 0.950 . S
C551 C549 1.327 . S
C552 C540 1.349 . S
C552 H546 0.950 . S
C552 C553 1.327 . S
C553 H547 0.950 . S
C553 C552 1.327 . S
C553 C557 1.429 . S
C554 C537 1.574 . S
C554 H548 0.949 . S
C554 C558 1.368 . S
C555 C536 1.429 . S
C555 C549 1.429 . S
C555 C556 1.523 . S
C556 C537 1.368 . S
C556 C550 1.368 . S
C556 C555 1.523 . S
C557 C541 1.429 . S
C557 C553 1.429 . S
C557 C558 1.523 . S
C558 C542 1.368 . S
C558 C554 1.368 . S
C558 C557 1.523 . S
H559 C534 0.950 . S
H560 C536 0.950 . S
H561 C537 0.949 . S
H562 C539 0.950 . S
H563 C541 0.950 . S
C564 C565 1.349 . S
C564 C566 1.327 . S
C564 H589 0.950 . S
C565 C564 1.349 . S
C565 C581 1.349 . S
C566 C564 1.327 . S
C566 C585 1.429 . S
C566 H590 0.950 . S
C567 C584 1.574 . S
C567 C586 1.368 . S
C567 H591 0.949 . S
H568 C572 0.949 . S
C569 C570 1.349 . S
C569 C571 1.327 . S
C569 H592 0.950 . S
C570 C569 1.349 . S
C570 C582 1.349 . S
C571 C569 1.327 . S
C571 C587 1.429 . S
C571 H593 0.950 1_556 S
C572 H568 0.949 . S
C572 C580 1.574 1_556 S
C572 C588 1.368 1_556 S
H573 C581 0.950 . S
H574 C579 0.950 . S
H575 C580 0.949 . S
H576 C582 0.950 . S
H577 C583 0.950 . S
H578 C584 0.949 . S
C579 H574 0.950 . S
C579 C581 1.327 . S
C579 C585 1.429 . S
C580 C572 1.574 1_554 S
C580 H575 0.949 . S
C580 C586 1.368 . S
C581 C565 1.349 . S
C581 H573 0.950 . S
C581 C579 1.327 . S
C582 C570 1.349 . S
C582 H576 0.950 . S
C582 C583 1.327 . S
C583 H577 0.950 . S
C583 C582 1.327 . S
C583 C587 1.429 . S
C584 C567 1.574 . S
C584 H578 0.949 . S
C584 C588 1.368 . S
C585 C566 1.429 . S
C585 C579 1.429 . S
C585 C586 1.523 . S
C586 C567 1.368 . S
C586 C580 1.368 . S
C586 C585 1.523 . S
C587 C571 1.429 . S
C587 C583 1.429 . S
C587 C588 1.523 1_556 S
C588 C572 1.368 1_554 S
C588 C584 1.368 . S
C588 C587 1.523 1_554 S
H589 C564 0.950 . S
H590 C566 0.950 . S
H591 C567 0.949 . S
H592 C569 0.950 . S
H593 C571 0.950 1_554 S
C594 C595 1.349 . S
C594 C596 1.327 . S
C594 H619 0.950 1_455 S
C595 C594 1.349 . S
C595 C611 1.349 . S
C596 C594 1.327 . S
C596 C615 1.429 . S
C596 H620 0.950 1_455 S
C597 C614 1.574 . S
C597 C616 1.368 . S
C597 H621 0.949 . S
H598 C602 0.949 1_655 S
C599 C600 1.349 . S
C599 C601 1.327 . S
C599 H622 0.950 . S
C600 C599 1.349 . S
C600 C612 1.349 . S
C601 C599 1.327 . S
C601 C617 1.429 . S
C601 H623 0.950 . S
C602 H598 0.949 1_455 S
C602 C610 1.574 . S
C602 C618 1.368 . S
H603 C611 0.950 . S
H604 C609 0.950 . S
H605 C610 0.949 1_655 S
H606 C612 0.950 1_655 S
H607 C613 0.950 1_655 S
H608 C614 0.949 . S
C609 H604 0.950 . S
C609 C611 1.327 . S
C609 C615 1.429 . S
C610 C602 1.574 . S
C610 H605 0.949 1_455 S
C610 C616 1.368 . S
C611 C595 1.349 . S
C611 H603 0.950 . S
C611 C609 1.327 . S
C612 C600 1.349 . S
C612 H606 0.950 1_455 S
C612 C613 1.327 . S
C613 H607 0.950 1_455 S
C613 C612 1.327 . S
C613 C617 1.429 . S
C614 C597 1.574 . S
C614 H608 0.949 . S
C614 C618 1.368 . S
C615 C596 1.429 . S
C615 C609 1.429 . S
C615 C616 1.523 . S
C616 C597 1.368 . S
C616 C610 1.368 . S
C616 C615 1.523 . S
C617 C601 1.429 . S
C617 C613 1.429 . S
C617 C618 1.523 . S
C618 C602 1.368 . S
C618 C614 1.368 . S
C618 C617 1.523 . S
H619 C594 0.950 1_655 S
H620 C596 0.950 1_655 S
H621 C597 0.949 . S
H622 C599 0.950 . S
H623 C601 0.950 . S
C270 C81 1.412 . S
C265 C3 1.479 . S
C295 C21 1.405 . S
C300 C155 1.375 . S
C325 C37 2.182 1_665 S
C330 C259 2.206 . S
C355 C8 0.734 1_565 S
C360 C93 0.734 . S
C390 C167 0.695 . S
C385 C23 0.695 . S
C415 C35 1.447 . S
C420 C253 1.381 . S
C450 C185 2.208 . S
C445 C31 2.207 1_655 S
C475 C7 1.454 1_665 S
C480 C229 1.424 . S
C510 C105 1.408 . S
C505 C17 1.499 1_565 S
C540 C179 1.300 . S
C535 C36 1.379 . S
C570 C241 0.732 . S
C565 C9 0.733 . S
C595 C22 2.246 . S
C600 C111 2.246 . S
