# Generated by pormake.
# Topology eea, (3,6)-cn, num edge types: 1
# Building blocks:
#     Node 0, Type 0, BuildingBlock: MIDCAF_clean_linker_0, # of connection points: 3
#     Node 1, Type 0, BuildingBlock: MIDCAF_clean_linker_0, # of connection points: 3
#     Node 2, Type 0, BuildingBlock: MIDCAF_clean_linker_0, # of connection points: 3
#     Node 3, Type 0, BuildingBlock: MIDCAF_clean_linker_0, # of connection points: 3
#     Node 4, Type 0, BuildingBlock: MIDCAF_clean_linker_0, # of connection points: 3
#     Node 5, Type 0, BuildingBlock: MIDCAF_clean_linker_0, # of connection points: 3
#     Node 6, Type 0, BuildingBlock: MIDCAF_clean_linker_0, # of connection points: 3
#     Node 7, Type 0, BuildingBlock: MIDCAF_clean_linker_0, # of connection points: 3
#     Node 8, Type 0, BuildingBlock: MIDCAF_clean_linker_0, # of connection points: 3
#     Node 9, Type 0, BuildingBlock: MIDCAF_clean_linker_0, # of connection points: 3
#     Node 10, Type 0, BuildingBlock: MIDCAF_clean_linker_0, # of connection points: 3
#     Node 11, Type 0, BuildingBlock: MIDCAF_clean_linker_0, # of connection points: 3
#     Node 12, Type 0, BuildingBlock: MIDCAF_clean_linker_0, # of connection points: 3
#     Node 13, Type 0, BuildingBlock: MIDCAF_clean_linker_0, # of connection points: 3
#     Node 14, Type 0, BuildingBlock: MIDCAF_clean_linker_0, # of connection points: 3
#     Node 15, Type 0, BuildingBlock: MIDCAF_clean_linker_0, # of connection points: 3
#     Node 16, Type 0, BuildingBlock: MIDCAF_clean_linker_0, # of connection points: 3
#     Node 17, Type 0, BuildingBlock: MIDCAF_clean_linker_0, # of connection points: 3
#     Node 18, Type 1, BuildingBlock: NUHQIS_clean_sbu_0, # of connection points: 6
#     Node 19, Type 1, BuildingBlock: NUHQIS_clean_sbu_0, # of connection points: 6
#     Node 20, Type 1, BuildingBlock: NUHQIS_clean_sbu_0, # of connection points: 6
#     Node 21, Type 1, BuildingBlock: NUHQIS_clean_sbu_0, # of connection points: 6
#     Node 22, Type 1, BuildingBlock: NUHQIS_clean_sbu_0, # of connection points: 6
#     Node 23, Type 1, BuildingBlock: NUHQIS_clean_sbu_0, # of connection points: 6
#     Node 24, Type 1, BuildingBlock: NUHQIS_clean_sbu_0, # of connection points: 6
#     Node 25, Type 1, BuildingBlock: NUHQIS_clean_sbu_0, # of connection points: 6
#     Node 26, Type 1, BuildingBlock: NUHQIS_clean_sbu_0, # of connection points: 6
#     Edge 27, Type (0, 1), BuildingBlock: EZIPEK_clean_linker_0, # of connection points: 2
#     Edge 28, Type (0, 1), BuildingBlock: EZIPEK_clean_linker_0, # of connection points: 2
#     Edge 29, Type (0, 1), BuildingBlock: EZIPEK_clean_linker_0, # of connection points: 2
#     Edge 30, Type (0, 1), BuildingBlock: EZIPEK_clean_linker_0, # of connection points: 2
#     Edge 31, Type (0, 1), BuildingBlock: EZIPEK_clean_linker_0, # of connection points: 2
#     Edge 32, Type (0, 1), BuildingBlock: EZIPEK_clean_linker_0, # of connection points: 2
#     Edge 33, Type (0, 1), BuildingBlock: EZIPEK_clean_linker_0, # of connection points: 2
#     Edge 34, Type (0, 1), BuildingBlock: EZIPEK_clean_linker_0, # of connection points: 2
#     Edge 35, Type (0, 1), BuildingBlock: EZIPEK_clean_linker_0, # of connection points: 2
#     Edge 36, Type (0, 1), BuildingBlock: EZIPEK_clean_linker_0, # of connection points: 2
#     Edge 37, Type (0, 1), BuildingBlock: EZIPEK_clean_linker_0, # of connection points: 2
#     Edge 38, Type (0, 1), BuildingBlock: EZIPEK_clean_linker_0, # of connection points: 2
#     Edge 39, Type (0, 1), BuildingBlock: EZIPEK_clean_linker_0, # of connection points: 2
#     Edge 40, Type (0, 1), BuildingBlock: EZIPEK_clean_linker_0, # of connection points: 2
#     Edge 41, Type (0, 1), BuildingBlock: EZIPEK_clean_linker_0, # of connection points: 2
#     Edge 42, Type (0, 1), BuildingBlock: EZIPEK_clean_linker_0, # of connection points: 2
#     Edge 43, Type (0, 1), BuildingBlock: EZIPEK_clean_linker_0, # of connection points: 2
#     Edge 44, Type (0, 1), BuildingBlock: EZIPEK_clean_linker_0, # of connection points: 2
#     Edge 45, Type (0, 1), BuildingBlock: EZIPEK_clean_linker_0, # of connection points: 2
#     Edge 46, Type (0, 1), BuildingBlock: EZIPEK_clean_linker_0, # of connection points: 2
#     Edge 47, Type (0, 1), BuildingBlock: EZIPEK_clean_linker_0, # of connection points: 2
#     Edge 48, Type (0, 1), BuildingBlock: EZIPEK_clean_linker_0, # of connection points: 2
#     Edge 49, Type (0, 1), BuildingBlock: EZIPEK_clean_linker_0, # of connection points: 2
#     Edge 50, Type (0, 1), BuildingBlock: EZIPEK_clean_linker_0, # of connection points: 2
#     Edge 51, Type (0, 1), BuildingBlock: EZIPEK_clean_linker_0, # of connection points: 2
#     Edge 52, Type (0, 1), BuildingBlock: EZIPEK_clean_linker_0, # of connection points: 2
#     Edge 53, Type (0, 1), BuildingBlock: EZIPEK_clean_linker_0, # of connection points: 2
#     Edge 54, Type (0, 1), BuildingBlock: EZIPEK_clean_linker_0, # of connection points: 2
#     Edge 55, Type (0, 1), BuildingBlock: EZIPEK_clean_linker_0, # of connection points: 2
#     Edge 56, Type (0, 1), BuildingBlock: EZIPEK_clean_linker_0, # of connection points: 2
#     Edge 57, Type (0, 1), BuildingBlock: EZIPEK_clean_linker_0, # of connection points: 2
#     Edge 58, Type (0, 1), BuildingBlock: EZIPEK_clean_linker_0, # of connection points: 2
#     Edge 59, Type (0, 1), BuildingBlock: EZIPEK_clean_linker_0, # of connection points: 2
#     Edge 60, Type (0, 1), BuildingBlock: EZIPEK_clean_linker_0, # of connection points: 2
#     Edge 61, Type (0, 1), BuildingBlock: EZIPEK_clean_linker_0, # of connection points: 2
#     Edge 62, Type (0, 1), BuildingBlock: EZIPEK_clean_linker_0, # of connection points: 2
#     Edge 63, Type (0, 1), BuildingBlock: EZIPEK_clean_linker_0, # of connection points: 2
#     Edge 64, Type (0, 1), BuildingBlock: EZIPEK_clean_linker_0, # of connection points: 2
#     Edge 65, Type (0, 1), BuildingBlock: EZIPEK_clean_linker_0, # of connection points: 2
#     Edge 66, Type (0, 1), BuildingBlock: EZIPEK_clean_linker_0, # of connection points: 2
#     Edge 67, Type (0, 1), BuildingBlock: EZIPEK_clean_linker_0, # of connection points: 2
#     Edge 68, Type (0, 1), BuildingBlock: EZIPEK_clean_linker_0, # of connection points: 2
#     Edge 69, Type (0, 1), BuildingBlock: EZIPEK_clean_linker_0, # of connection points: 2
#     Edge 70, Type (0, 1), BuildingBlock: EZIPEK_clean_linker_0, # of connection points: 2
#     Edge 71, Type (0, 1), BuildingBlock: EZIPEK_clean_linker_0, # of connection points: 2
#     Edge 72, Type (0, 1), BuildingBlock: EZIPEK_clean_linker_0, # of connection points: 2
#     Edge 73, Type (0, 1), BuildingBlock: EZIPEK_clean_linker_0, # of connection points: 2
#     Edge 74, Type (0, 1), BuildingBlock: EZIPEK_clean_linker_0, # of connection points: 2
#     Edge 75, Type (0, 1), BuildingBlock: EZIPEK_clean_linker_0, # of connection points: 2
#     Edge 76, Type (0, 1), BuildingBlock: EZIPEK_clean_linker_0, # of connection points: 2
#     Edge 77, Type (0, 1), BuildingBlock: EZIPEK_clean_linker_0, # of connection points: 2
#     Edge 78, Type (0, 1), BuildingBlock: EZIPEK_clean_linker_0, # of connection points: 2
#     Edge 79, Type (0, 1), BuildingBlock: EZIPEK_clean_linker_0, # of connection points: 2
#     Edge 80, Type (0, 1), BuildingBlock: EZIPEK_clean_linker_0, # of connection points: 2
# Relax obj value: 0.035
# Max RMSD: 0.131
# Mean RMSD: 0.088
data_MOF--net-eea--node1-NUHQIS_clean_sbu_0--node2-MIDCAF_clean_linker_0--edge1-EZIPEK_clean_linker_0
_symmetry_space_group_name_H-M    P1
_symmetry_Int_Tables_number       1
_symmetry_cell_setting            triclinic
loop_
_symmetry_equiv_pos_as_xyz
'x, y, z'
_cell_length_a     48.497318
_cell_length_b     48.017091
_cell_length_c     72.152585
_cell_angle_alpha  93.469258
_cell_angle_beta   93.598134
_cell_angle_gamma 119.89964
loop_
_atom_site_label
_atom_site_type_symbol
_atom_site_fract_x
_atom_site_fract_y
_atom_site_fract_z
_atom_type_partial_charge
C0 C 0.24449 0.04625 0.41932 0.0
C1 C 0.25809 0.03947 0.40433 0.0
C2 C 0.28434 0.06495 0.39733 0.0
C3 C 0.2959 0.09686 0.4047 0.0
H4 H 0.27113 0.17195 0.3846 0.0
H5 H 0.24823 0.19878 0.36675 0.0
H6 H 0.27068 0.26744 0.41463 0.0
H7 H 0.29385 0.24124 0.43261 0.0
H8 H 0.32808 0.23725 0.46928 0.0
H9 H 0.34603 0.25614 0.50239 0.0
H10 H 0.33895 0.16521 0.51197 0.0
H11 H 0.32099 0.14584 0.47889 0.0
H12 H 0.24572 0.08284 0.43851 0.0
H13 H 0.22419 0.02693 0.42488 0.0
H14 H 0.29522 0.06016 0.38582 0.0
H15 H 0.31543 0.11635 0.39875 0.0
N16 N 0.28721 0.1556 0.41516 0.0
N17 N 0.30553 0.19649 0.43997 0.0
N18 N 0.30385 0.14783 0.4447 0.0
C19 C 0.2936 0.1855 0.42182 0.0
C20 C 0.311 0.17797 0.45146 0.0
C21 C 0.2924 0.13683 0.42652 0.0
C22 C 0.28405 0.20421 0.41013 0.0
C23 C 0.27169 0.19306 0.39128 0.0
C24 C 0.25862 0.2083 0.38103 0.0
C25 C 0.25763 0.23476 0.38952 0.0
C26 C 0.27123 0.24691 0.40796 0.0
C27 C 0.28448 0.23189 0.41818 0.0
C28 C 0.32296 0.18992 0.47138 0.0
C29 C 0.33039 0.2212 0.47835 0.0
C30 C 0.34066 0.23211 0.49725 0.0
C31 C 0.34363 0.21195 0.50946 0.0
C32 C 0.33668 0.18097 0.50263 0.0
C33 C 0.32645 0.17001 0.48374 0.0
C34 C 0.28215 0.10347 0.41962 0.0
C35 C 0.25677 0.07802 0.42711 0.0
C36 C 0.00506 0.22113 0.42222 0.0
C37 C 0.00343 0.21589 0.40272 0.0
C38 C 0.97467 0.19202 0.39265 0.0
C39 C 0.94799 0.1734 0.40194 0.0
H40 H 0.87321 0.0765 0.40042 0.0
H41 H 0.8312 0.02328 0.38594 0.0
H42 H 0.76883 0.02095 0.42658 0.0
H43 H 0.81069 0.07391 0.44137 0.0
H44 H 0.8488 0.11448 0.48092 0.0
H45 H 0.84122 0.13207 0.51159 0.0
H46 H 0.91877 0.22849 0.50785 0.0
H47 H 0.92696 0.21108 0.47697 0.0
H48 H 0.98014 0.20742 0.44656 0.0
H49 H 0.02709 0.23954 0.43021 0.0
H50 H 0.97293 0.18781 0.37759 0.0
H51 H 0.92614 0.15511 0.39377 0.0
N52 N 0.89726 0.12981 0.42267 0.0
N53 N 0.86863 0.12177 0.44866 0.0
N54 N 0.91827 0.16904 0.44866 0.0
C55 C 0.87101 0.11118 0.43132 0.0
C56 C 0.89204 0.15058 0.45746 0.0
C57 C 0.92098 0.15875 0.43121 0.0
C58 C 0.84538 0.07945 0.42211 0.0
C59 C 0.85055 0.06477 0.40627 0.0
C60 C 0.82664 0.03437 0.39799 0.0
C61 C 0.79709 0.0183 0.40528 0.0
C62 C 0.79159 0.03302 0.42085 0.0
C63 C 0.81558 0.06325 0.42927 0.0
C64 C 0.88848 0.1614 0.4764 0.0
C65 C 0.86441 0.13946 0.48654 0.0
C66 C 0.86002 0.14939 0.50411 0.0
C67 C 0.87943 0.18149 0.51192 0.0
C68 C 0.90365 0.20356 0.50201 0.0
C69 C 0.90828 0.19355 0.4844 0.0
C70 C 0.9494 0.17867 0.42148 0.0
C71 C 0.9782 0.20285 0.43151 0.0
C72 C 0.7919 0.77095 0.42168 0.0
C73 C 0.79848 0.78756 0.40574 0.0
C74 C 0.82819 0.79859 0.39887 0.0
C75 C 0.85123 0.79325 0.4079 0.0
H76 H 0.93743 0.80199 0.40231 0.0
H77 H 0.98635 0.81641 0.38792 0.0
H78 H 0.02101 0.78529 0.43409 0.0
H79 H 0.97195 0.77061 0.4488 0.0
H80 H 0.92213 0.7324 0.47913 0.0
H81 H 0.91127 0.7083 0.50876 0.0
H82 H 0.82976 0.72134 0.51082 0.0
H83 H 0.84002 0.74504 0.48127 0.0
H84 H 0.80928 0.753 0.44315 0.0
H85 H 0.76907 0.7624 0.42717 0.0
H86 H 0.83361 0.81156 0.3866 0.0
H87 H 0.87402 0.80226 0.4023 0.0
N88 N 0.89754 0.7802 0.42644 0.0
N89 N 0.91531 0.76288 0.45188 0.0
N90 N 0.86508 0.75918 0.45048 0.0
C91 C 0.92045 0.77579 0.43529 0.0
C92 C 0.88766 0.75457 0.45959 0.0
C93 C 0.86978 0.77192 0.43389 0.0
C94 C 0.95057 0.78501 0.42676 0.0
C95 C 0.95536 0.7982 0.40953 0.0
C96 C 0.98334 0.80654 0.40124 0.0
C97 C 0.00717 0.80194 0.40998 0.0
C98 C 1.00281 0.78905 0.4272 0.0
C99 C 0.97473 0.78065 0.43554 0.0
C100 C 0.88191 0.74062 0.47774 0.0
C101 C 0.90195 0.73026 0.4859 0.0
C102 C 0.89582 0.71648 0.50281 0.0
C103 C 0.86977 0.71315 0.51194 0.0
C104 C 0.84998 0.72375 0.50397 0.0
C105 C 0.8559 0.73724 0.48704 0.0
C106 C 0.84501 0.77694 0.42407 0.0
C107 C 0.81499 0.76573 0.4308 0.0
C108 C 0.01033 0.22891 0.62008 0.0
C109 C 0.00793 0.21606 0.63726 0.0
C110 C 0.03208 0.21053 0.64443 0.0
C111 C 0.05841 0.21785 0.63461 0.0
H112 H 0.14171 0.21918 0.63946 0.0
H113 H 0.18147 0.20705 0.6529 0.0
H114 H 0.23153 0.23383 0.60391 0.0
H115 H 0.19182 0.24623 0.59017 0.0
H116 H 0.16562 0.273 0.55795 0.0
H117 H 0.17196 0.29817 0.52879 0.0
H118 H 0.0881 0.30556 0.53541 0.0
H119 H 0.08127 0.28029 0.56449 0.0
H120 H 0.03797 0.24629 0.59703 0.0
H121 H 0.99186 0.23338 0.61438 0.0
H122 H 0.03063 0.20071 0.6577 0.0
H123 H 0.07666 0.21335 0.64063 0.0
N124 N 0.11254 0.23321 0.61436 0.0
N125 N 0.14182 0.25352 0.58896 0.0
N126 N 0.09305 0.25234 0.59078 0.0
C127 C 0.13871 0.24033 0.6054 0.0
C128 C 0.11912 0.25968 0.58155 0.0
C129 C 0.08956 0.23902 0.6072 0.0
C130 C 0.16341 0.23363 0.61365 0.0
C131 C 0.16113 0.2226 0.63146 0.0
C132 C 0.18387 0.2157 0.63924 0.0
C133 C 0.2093 0.21956 0.62938 0.0
C134 C 0.21199 0.23077 0.61169 0.0
C135 C 0.18926 0.23781 0.60389 0.0
C136 C 0.1229 0.27455 0.56367 0.0
C137 C 0.14842 0.27988 0.55324 0.0
C138 C 0.15212 0.29422 0.53654 0.0
C139 C 0.13047 0.30362 0.52998 0.0
C140 C 0.10499 0.29836 0.54026 0.0
C141 C 0.10116 0.28389 0.55689 0.0
C142 C 0.06119 0.23095 0.6174 0.0
C143 C 0.03673 0.2363 0.61022 0.0
C144 C 0.74448 0.77594 0.62352 0.0
C145 C 0.75522 0.7817 0.64261 0.0
C146 C 0.75319 0.80535 0.65383 0.0
C147 C 0.74139 0.82371 0.64595 0.0
H148 H 0.75387 0.91513 0.65368 0.0
H149 H 0.77508 0.97053 0.66782 0.0
H150 H 0.73189 0.9906 0.62034 0.0
H151 H 0.71048 0.93541 0.60599 0.0
H152 H 0.6889 0.89026 0.56943 0.0
H153 H 0.6693 0.87847 0.5363 0.0
H154 H 0.65461 0.7823 0.53675 0.0
H155 H 0.67455 0.7938 0.56996 0.0
H156 H 0.72472 0.78937 0.60081 0.0
H157 H 0.74589 0.75772 0.61469 0.0
H158 H 0.7613 0.80997 0.66862 0.0
H159 H 0.74062 0.8422 0.6549 0.0
N160 N 0.72797 0.86807 0.62735 0.0
N161 N 0.70548 0.87977 0.60144 0.0
N162 N 0.70578 0.83108 0.60043 0.0
C163 C 0.72039 0.88841 0.61911 0.0
C164 C 0.69794 0.85112 0.59203 0.0
C165 C 0.72069 0.83933 0.61812 0.0
C166 C 0.73064 0.92081 0.62861 0.0
C167 C 0.74853 0.93114 0.64629 0.0
C168 C 0.76067 0.96274 0.65442 0.0
C169 C 0.75506 0.98442 0.64502 0.0
C170 C 0.7364 0.97404 0.62772 0.0
C171 C 0.72424 0.94249 0.61957 0.0
C172 C 0.68354 0.84304 0.57236 0.0
C173 C 0.68127 0.86646 0.56261 0.0
C174 C 0.67008 0.85983 0.54367 0.0
C175 C 0.66072 0.82964 0.53418 0.0
C176 C 0.66186 0.80578 0.54393 0.0
C177 C 0.6733 0.81245 0.56287 0.0
C178 C 0.7311 0.81844 0.62673 0.0
C179 C 0.73233 0.79401 0.61566 0.0
C180 C 0.20693 0.96766 0.60786 0.0
C181 C 0.2077 0.97887 0.62639 0.0
C182 C 0.18493 0.95839 0.63759 0.0
C183 C 0.1613 0.92724 0.63029 0.0
H184 H 0.06705 0.8615 0.63513 0.0
H185 H 0.02007 0.83358 0.65195 0.0
H186 H 0.98987 0.74502 0.61719 0.0
H187 H 0.03676 0.77279 0.59996 0.0
H188 H 0.074 0.77823 0.56235 0.0
H189 H 0.07888 0.75613 0.53196 0.0
H190 H 0.16124 0.84791 0.52525 0.0
H191 H 0.15693 0.87023 0.55548 0.0
H192 H 0.18322 0.92843 0.58616 0.0
H193 H 0.22424 0.9833 0.59901 0.0
H194 H 0.18516 0.96676 0.65192 0.0
H195 H 0.14388 0.91215 0.63927 0.0
N196 N 0.10833 0.8665 0.61303 0.0
N197 N 0.08659 0.82339 0.58926 0.0
N198 N 0.13615 0.86982 0.58714 0.0
C199 C 0.08432 0.83666 0.60591 0.0
C200 C 0.1125 0.83993 0.57977 0.0
C201 C 0.13434 0.8832 0.60379 0.0
C202 C 0.05578 0.81939 0.61615 0.0
C203 C 0.05055 0.83605 0.63101 0.0
C204 C 0.02369 0.82021 0.64066 0.0
C205 C 1.00169 0.78732 0.63582 0.0
C206 C 0.00674 0.77044 0.62111 0.0
C207 C 0.03348 0.78638 0.61128 0.0
C208 C 0.11504 0.82605 0.56142 0.0
C209 C 0.09315 0.79376 0.55443 0.0
C210 C 0.09589 0.78105 0.5371 0.0
C211 C 0.12033 0.80051 0.52642 0.0
C212 C 0.14219 0.83261 0.53331 0.0
C213 C 0.13964 0.84526 0.55064 0.0
C214 C 0.16012 0.9159 0.61166 0.0
C215 C 0.18345 0.93634 0.60057 0.0
C216 C 0.90968 0.38808 0.73277 0.0
C217 C 0.92872 0.37435 0.73665 0.0
C218 C 0.95841 0.39281 0.74746 0.0
C219 C 0.9686 0.42453 0.75467 0.0
H220 H 0.91787 0.49899 0.72286 0.0
H221 H 0.89371 0.52707 0.70777 0.0
H222 H 0.94566 0.60861 0.74961 0.0
H223 H 0.96997 0.58087 0.76496 0.0
H224 H 0.00394 0.57365 0.80097 0.0
H225 H 0.02171 0.59095 0.8342 0.0
H226 H 0.01545 0.49975 0.84182 0.0
H227 H 0.99762 0.48195 0.80858 0.0
H228 H 0.90498 0.42995 0.73633 0.0
H229 H 0.88675 0.37412 0.72441 0.0
H230 H 0.9734 0.38249 0.75048 0.0
H231 H 0.99142 0.43833 0.76316 0.0
N232 N 0.95044 0.48938 0.74838 0.0
N233 N 0.97463 0.53153 0.77259 0.0
N234 N 0.97664 0.48411 0.77523 0.0
C235 C 0.95796 0.51942 0.75543 0.0
C236 C 0.98407 0.51408 0.78259 0.0
C237 C 0.95989 0.47173 0.75809 0.0
C238 C 0.94572 0.53756 0.74524 0.0
C239 C 0.92452 0.52304 0.72879 0.0
C240 C 0.91067 0.53899 0.72011 0.0
C241 C 0.91795 0.56974 0.72766 0.0
C242 C 0.93987 0.58483 0.74365 0.0
C243 C 0.95366 0.56888 0.75239 0.0
C244 C 0.99903 0.52623 0.80208 0.0
C245 C 0.00672 0.55733 0.80959 0.0
C246 C 0.01693 0.56735 0.82856 0.0
C247 C 0.01966 0.5465 0.84031 0.0
C248 C 0.01342 0.51607 0.83284 0.0
C249 C 0.00327 0.50601 0.81385 0.0
C250 C 0.94962 0.43838 0.75064 0.0
C251 C 0.9202 0.41995 0.73953 0.0
C252 C 0.66087 0.56419 0.75205 0.0
C253 C 0.66504 0.55199 0.73496 0.0
C254 C 0.64188 0.52097 0.72695 0.0
C255 C 0.61482 0.50226 0.73594 0.0
H256 H 0.53687 0.4105 0.73283 0.0
H257 H 0.49615 0.3565 0.7186 0.0
H258 H 0.43203 0.35301 0.75833 0.0
H259 H 0.47255 0.40672 0.77286 0.0
H260 H 0.50855 0.44946 0.81179 0.0
H261 H 0.50032 0.46672 0.84233 0.0
H262 H 0.57519 0.56424 0.83805 0.0
H263 H 0.58407 0.54715 0.80726 0.0
H264 H 0.63126 0.55552 0.77429 0.0
H265 H 0.67862 0.58815 0.7584 0.0
H266 H 0.6448 0.51125 0.71376 0.0
H267 H 0.59743 0.47836 0.72936 0.0
N268 N 0.55906 0.46427 0.75447 0.0
N269 N 0.52916 0.45644 0.77985 0.0
N270 N 0.57773 0.50483 0.77965 0.0
C271 C 0.53268 0.44538 0.76295 0.0
C272 C 0.55147 0.48601 0.78834 0.0
C273 C 0.58168 0.49404 0.76267 0.0
C274 C 0.50804 0.41296 0.75402 0.0
C275 C 0.51412 0.39832 0.73855 0.0
C276 C 0.49095 0.36748 0.73042 0.0
C277 C 0.46126 0.3509 0.73749 0.0
C278 C 0.45492 0.36548 0.75277 0.0
C279 C 0.47814 0.39616 0.76103 0.0
C280 C 0.547 0.49694 0.807 0.0
C281 C 0.52338 0.47464 0.81723 0.0
C282 C 0.51862 0.48439 0.83474 0.0
C283 C 0.53717 0.51666 0.8424 0.0
C284 C 0.56074 0.53918 0.83232 0.0
C285 C 0.56577 0.52935 0.81478 0.0
C286 C 0.61042 0.51422 0.75315 0.0
C287 C 0.6338 0.54547 0.76109 0.0
C288 C 0.45694 0.10173 0.7535 0.0
C289 C 0.46316 0.11815 0.73749 0.0
C290 C 0.49256 0.12876 0.73029 0.0
C291 C 0.51565 0.12319 0.73907 0.0
H292 H 0.60016 0.12829 0.732 0.0
H293 H 0.649 0.14312 0.71742 0.0
H294 H 0.6864 0.11653 0.76457 0.0
H295 H 0.63742 0.10146 0.77948 0.0
H296 H 0.58751 0.06316 0.81056 0.0
H297 H 0.57656 0.03952 0.84036 0.0
H298 H 0.4955 0.05333 0.84218 0.0
H299 H 0.50585 0.0766 0.81253 0.0
H300 H 0.47462 0.08373 0.77478 0.0
H301 H 0.43435 0.09349 0.75925 0.0
H302 H 0.49771 0.14157 0.71796 0.0
H303 H 0.53821 0.13189 0.73323 0.0
N304 N 0.56197 0.10946 0.75715 0.0
N305 N 0.58024 0.09265 0.78266 0.0
N306 N 0.53038 0.08975 0.78167 0.0
C307 C 0.58491 0.10494 0.76585 0.0
C308 C 0.55297 0.08505 0.79068 0.0
C309 C 0.53462 0.10189 0.76491 0.0
C310 C 0.6147 0.11364 0.75699 0.0
C311 C 0.61863 0.1255 0.73937 0.0
C312 C 0.64655 0.13401 0.73095 0.0
C313 C 0.6712 0.13092 0.73993 0.0
C314 C 0.66755 0.11906 0.75746 0.0
C315 C 0.63953 0.11047 0.76593 0.0
C316 C 0.5475 0.0717 0.80904 0.0
C317 C 0.56744 0.06132 0.81733 0.0
C318 C 0.56126 0.04782 0.83435 0.0
C319 C 0.53526 0.04477 0.84343 0.0
C320 C 0.51569 0.05552 0.83537 0.0
C321 C 0.52166 0.06876 0.81836 0.0
C322 C 0.50979 0.10708 0.75531 0.0
C323 C 0.48007 0.0963 0.76237 0.0
C324 C 0.68369 0.57087 0.95327 0.0
C325 C 0.67698 0.55386 0.96908 0.0
C326 C 0.69788 0.54387 0.97605 0.0
C327 C 0.72526 0.55086 0.96739 0.0
H328 H 0.80144 0.53681 0.97114 0.0
H329 H 0.83924 0.52253 0.98535 0.0
H330 H 0.90869 0.57978 0.9489 0.0
H331 H 0.871 0.59395 0.93436 0.0
H332 H 0.84198 0.60529 0.89631 0.0
H333 H 0.85237 0.62898 0.86676 0.0
H334 H 0.77174 0.64339 0.86909 0.0
H335 H 0.76078 0.61939 0.89874 0.0
H336 H 0.71565 0.59099 0.93234 0.0
H337 H 0.6677 0.5787 0.94771 0.0
H338 H 0.69299 0.53067 0.98823 0.0
H339 H 0.74085 0.54275 0.97318 0.0
N340 N 0.78299 0.56807 0.9505 0.0
N341 N 0.81538 0.58842 0.92635 0.0
N342 N 0.76736 0.58924 0.92617 0.0
C343 C 0.80997 0.5746 0.9426 0.0
C344 C 0.79423 0.59577 0.91799 0.0
C345 C 0.76158 0.57533 0.94246 0.0
C346 C 0.83311 0.56647 0.95154 0.0
C347 C 0.82477 0.5465 0.96615 0.0
C348 C 0.84631 0.53829 0.97431 0.0
C349 C 0.87667 0.55014 0.96817 0.0
C350 C 0.88532 0.57043 0.95381 0.0
C351 C 0.86369 0.5784 0.9455 0.0
C352 C 0.80049 0.61039 0.90001 0.0
C353 C 0.82636 0.61346 0.89064 0.0
C354 C 0.83238 0.62697 0.8737 0.0
C355 C 0.81283 0.63788 0.86578 0.0
C356 C 0.78705 0.63502 0.87502 0.0
C357 C 0.78085 0.6213 0.89195 0.0
C358 C 0.73226 0.56793 0.95149 0.0
C359 C 0.71107 0.5778 0.94451 0.0
C360 C 0.4005 0.09998 0.95952 0.0
C361 C 0.41995 0.11137 0.97658 0.0
C362 C 0.42757 0.14129 0.98571 0.0
C363 C 0.41649 0.16007 0.97764 0.0
H364 H 0.43242 0.25175 0.98212 0.0
H365 H 0.45406 0.30771 0.9953 0.0
H366 H 0.39531 0.32008 0.95307 0.0
H367 H 0.37363 0.26426 0.93959 0.0
H368 H 0.35505 0.21946 0.9017 0.0
H369 H 0.33468 0.20662 0.86871 0.0
H370 H 0.32008 0.11061 0.87011 0.0
H371 H 0.34084 0.1232 0.90323 0.0
H372 H 0.37497 0.10962 0.93801 0.0
H373 H 0.39448 0.07687 0.95233 0.0
H374 H 0.44259 0.15035 0.99891 0.0
H375 H 0.4233 0.18335 0.9849 0.0
N376 N 0.39704 0.20014 0.95951 0.0
N377 N 0.37403 0.21091 0.93346 0.0
N378 N 0.37221 0.16122 0.93355 0.0
C379 C 0.38995 0.22046 0.95086 0.0
C380 C 0.36502 0.18136 0.92469 0.0
C381 C 0.38813 0.17041 0.95102 0.0
C382 C 0.40138 0.25352 0.95972 0.0
C383 C 0.42385 0.26621 0.97568 0.0
C384 C 0.43632 0.29817 0.98323 0.0
C385 C 0.42634 0.31785 0.97505 0.0
C386 C 0.40332 0.30514 0.95947 0.0
C387 C 0.39101 0.27327 0.95181 0.0
C388 C 0.34987 0.17244 0.90514 0.0
C389 C 0.34729 0.19547 0.89513 0.0
C390 C 0.33565 0.18824 0.87626 0.0
C391 C 0.32614 0.15781 0.86705 0.0
C392 C 0.32748 0.13428 0.87706 0.0
C393 C 0.33937 0.14157 0.89595 0.0
C394 C 0.3977 0.14928 0.96023 0.0
C395 C 0.38945 0.11878 0.95138 0.0
C396 C 0.87462 0.29488 0.94067 0.0
C397 C 0.87151 0.30927 0.95728 0.0
C398 C 0.84428 0.29238 0.96657 0.0
C399 C 0.82035 0.26131 0.95939 0.0
H400 H 0.73395 0.18933 0.96943 0.0
H401 H 0.68708 0.16074 0.98628 0.0
H402 H 0.65207 0.0758 0.94721 0.0
H403 H 0.69875 0.10411 0.93006 0.0
H404 H 0.73609 0.10805 0.89454 0.0
H405 H 0.73934 0.085 0.86408 0.0
H406 H 0.82322 0.17512 0.85668 0.0
H407 H 0.82052 0.19846 0.88705 0.0
H408 H 0.85366 0.25322 0.92056 0.0
H409 H 0.89557 0.30775 0.93335 0.0
H410 H 0.8416 0.30327 0.97942 0.0
H411 H 0.79961 0.24893 0.96693 0.0
N412 N 0.77194 0.19686 0.94461 0.0
N413 N 0.75045 0.15317 0.92128 0.0
N414 N 0.79943 0.19983 0.91859 0.0
C415 C 0.74827 0.16667 0.93784 0.0
C416 C 0.77597 0.16964 0.91155 0.0
C417 C 0.79763 0.21359 0.93512 0.0
C418 C 0.72018 0.14905 0.94832 0.0
C419 C 0.71642 0.16452 0.96439 0.0
C420 C 0.68968 0.14828 0.97408 0.0
C421 C 0.66632 0.11624 0.96798 0.0
C422 C 0.67 0.10055 0.95211 0.0
C423 C 0.69667 0.11681 0.94233 0.0
C424 C 0.77801 0.15519 0.89329 0.0
C425 C 0.75528 0.12302 0.88649 0.0
C426 C 0.75706 0.10976 0.86911 0.0
C427 C 0.7814 0.1285 0.8582 0.0
C428 C 0.80422 0.16041 0.86494 0.0
C429 C 0.8026 0.17365 0.88232 0.0
C430 C 0.82319 0.24659 0.94271 0.0
C431 C 0.85063 0.26376 0.93341 0.0
C432 C 0.60299 0.71387 0.09003 0.0
C433 C 0.59396 0.70415 0.07086 0.0
C434 C 0.59675 0.72686 0.05867 0.0
C435 C 0.60718 0.75866 0.06564 0.0
H436 H 0.59449 0.83405 0.05237 0.0
H437 H 0.57066 0.86087 0.03532 0.0
H438 H 0.59283 0.92778 0.08407 0.0
H439 H 0.6169 0.90155 0.10125 0.0
H440 H 0.65878 0.90087 0.13596 0.0
H441 H 0.67818 0.91961 0.16894 0.0
H442 H 0.67493 0.82993 0.17713 0.0
H443 H 0.6556 0.81075 0.14414 0.0
H444 H 0.61978 0.75245 0.11194 0.0
H445 H 0.60085 0.69652 0.0996 0.0
H446 H 0.58984 0.71966 0.04382 0.0
H447 H 0.60827 0.77546 0.05595 0.0
N448 N 0.61449 0.81868 0.082 0.0
N449 N 0.6331 0.85924 0.10701 0.0
N450 N 0.63658 0.81281 0.11033 0.0
C451 C 0.6194 0.84778 0.08918 0.0
C452 C 0.64193 0.84203 0.11765 0.0
C453 C 0.62306 0.80108 0.09247 0.0
C454 C 0.60749 0.86551 0.07824 0.0
C455 C 0.59459 0.85465 0.05945 0.0
C456 C 0.58098 0.86988 0.04966 0.0
C457 C 0.57994 0.89605 0.05855 0.0
C458 C 0.59345 0.90751 0.07707 0.0
C459 C 0.60723 0.89249 0.08683 0.0
C460 C 0.65544 0.85418 0.13737 0.0
C461 C 0.6623 0.88509 0.14469 0.0
C462 C 0.67341 0.89592 0.16351 0.0
C463 C 0.67774 0.87601 0.17533 0.0
C464 C 0.6716 0.84549 0.16811 0.0
C465 C 0.66059 0.83465 0.14926 0.0
C466 C 0.61527 0.76835 0.08493 0.0
C467 C 0.6138 0.74581 0.09701 0.0
C468 C 0.33265 0.88498 0.08768 0.0
C469 C 0.33067 0.87941 0.06819 0.0
C470 C 0.30211 0.85473 0.05836 0.0
C471 C 0.27607 0.83541 0.06792 0.0
H472 H 0.1953 0.74559 0.0617 0.0
H473 H 0.15536 0.69167 0.04699 0.0
H474 H 0.11544 0.66658 0.09926 0.0
H475 H 0.15502 0.7204 0.11419 0.0
H476 H 0.18023 0.77175 0.14788 0.0
H477 H 0.17217 0.78851 0.17864 0.0
H478 H 0.24891 0.88556 0.17546 0.0
H479 H 0.25748 0.86909 0.14446 0.0
H480 H 0.30869 0.87061 0.1123 0.0
H481 H 0.35454 0.90402 0.09547 0.0
H482 H 0.30013 0.85026 0.0433 0.0
H483 H 0.25443 0.81634 0.05994 0.0
N484 N 0.22779 0.78997 0.08916 0.0
N485 N 0.2007 0.77947 0.11587 0.0
N486 N 0.24806 0.8289 0.11525 0.0
C487 C 0.20285 0.76978 0.09824 0.0
C488 C 0.22304 0.80896 0.12448 0.0
C489 C 0.25054 0.81949 0.09755 0.0
C490 C 0.17844 0.73737 0.08916 0.0
C491 C 0.17804 0.72869 0.07011 0.0
C492 C 0.15525 0.69797 0.06165 0.0
C493 C 0.13266 0.67541 0.07211 0.0
C494 C 0.13279 0.68386 0.09104 0.0
C495 C 0.15542 0.71463 0.0995 0.0
C496 C 0.21947 0.81911 0.14359 0.0
C497 C 0.1956 0.79668 0.15365 0.0
C498 C 0.19094 0.80614 0.17127 0.0
C499 C 0.20995 0.83818 0.17924 0.0
C500 C 0.23411 0.86067 0.16948 0.0
C501 C 0.23894 0.85118 0.1518 0.0
C502 C 0.27793 0.84074 0.08747 0.0
C503 C 0.30642 0.86595 0.09724 0.0
C504 C 0.12783 0.43009 0.08149 0.0
C505 C 0.13419 0.4451 0.06472 0.0
C506 C 0.16688 0.46447 0.06204 0.0
C507 C 0.19093 0.46371 0.07328 0.0
H508 H 0.27272 0.46342 0.06604 0.0
H509 H 0.32092 0.47622 0.05128 0.0
H510 H 0.36263 0.46151 0.10153 0.0
H511 H 0.31417 0.44833 0.11664 0.0
H512 H 0.26098 0.40558 0.1464 0.0
H513 H 0.24915 0.38204 0.17617 0.0
H514 H 0.16912 0.39765 0.17735 0.0
H515 H 0.18034 0.42079 0.14767 0.0
H516 H 0.14565 0.41651 0.10514 0.0
H517 H 0.10432 0.41886 0.08622 0.0
H518 H 0.17483 0.48104 0.05154 0.0
H519 H 0.21542 0.4779 0.07011 0.0
N520 N 0.23662 0.45027 0.09205 0.0
N521 N 0.25495 0.43549 0.11844 0.0
N522 N 0.2044 0.43128 0.11637 0.0
C523 C 0.25976 0.44683 0.10138 0.0
C524 C 0.22729 0.42778 0.12606 0.0
C525 C 0.20894 0.4426 0.09939 0.0
C526 C 0.28943 0.4548 0.09261 0.0
C527 C 0.29203 0.46288 0.07409 0.0
C528 C 0.31957 0.47019 0.06555 0.0
C529 C 0.34518 0.46977 0.07533 0.0
C530 C 0.34297 0.4619 0.09381 0.0
C531 C 0.31527 0.45438 0.10238 0.0
C532 C 0.22153 0.41496 0.14454 0.0
C533 C 0.24099 0.40421 0.15303 0.0
C534 C 0.23429 0.39075 0.17004 0.0
C535 C 0.20829 0.38816 0.17891 0.0
C536 C 0.18929 0.39946 0.1707 0.0
C537 C 0.19575 0.41261 0.15368 0.0
C538 C 0.18361 0.44533 0.08848 0.0
C539 C 0.15196 0.42959 0.09293 0.0
C540 C 0.34804 0.90485 0.2892 0.0
C541 C 0.34117 0.88586 0.30418 0.0
C542 C 0.36136 0.87405 0.30957 0.0
C543 C 0.38822 0.88136 0.30026 0.0
H544 H 0.47466 0.88609 0.30842 0.0
H545 H 0.51406 0.87323 0.32182 0.0
H546 H 0.56542 0.90182 0.2734 0.0
H547 H 0.52634 0.91495 0.25978 0.0
H548 H 0.50955 0.95485 0.23276 0.0
H549 H 0.51764 0.97703 0.20272 0.0
H550 H 0.4207 0.95814 0.19688 0.0
H551 H 0.41219 0.93595 0.22715 0.0
H552 H 0.3795 0.92672 0.26827 0.0
H553 H 0.33264 0.91411 0.28482 0.0
H554 H 0.35634 0.85924 0.32104 0.0
H555 H 0.40332 0.87189 0.30485 0.0
N556 N 0.44652 0.90191 0.28313 0.0
N557 N 0.47716 0.92243 0.25831 0.0
N558 N 0.42859 0.92188 0.25915 0.0
C559 C 0.47309 0.9089 0.27463 0.0
C560 C 0.45513 0.92903 0.25045 0.0
C561 C 0.42415 0.90831 0.27556 0.0
C562 C 0.49722 0.90154 0.28297 0.0
C563 C 0.49432 0.88975 0.30057 0.0
C564 C 0.51681 0.88242 0.3083 0.0
C565 C 0.54249 0.88662 0.29856 0.0
C566 C 0.54568 0.89849 0.28108 0.0
C567 C 0.52329 0.90597 0.27336 0.0
C568 C 0.46013 0.94347 0.23242 0.0
C569 C 0.48985 0.9554 0.2252 0.0
C570 C 0.49463 0.96819 0.20803 0.0
C571 C 0.46979 0.96917 0.19766 0.0
C572 C 0.44014 0.95757 0.20477 0.0
C573 C 0.43538 0.94496 0.22206 0.0
C574 C 0.39532 0.90042 0.28522 0.0
C575 C 0.37478 0.91195 0.27974 0.0
C576 C 0.07558 0.43712 0.29682 0.0
C577 C 0.09315 0.44837 0.31448 0.0
C578 C 0.09868 0.47754 0.32363 0.0
C579 C 0.08755 0.49582 0.31496 0.0
H580 H 0.0865 0.57999 0.32278 0.0
H581 H 0.10592 0.6349 0.33709 0.0
H582 H 0.08127 0.66053 0.28494 0.0
H583 H 0.06159 0.60568 0.27037 0.0
H584 H 0.03561 0.55628 0.23534 0.0
H585 H 0.0164 0.54273 0.20215 0.0
H586 H 0.99791 0.44568 0.20547 0.0
H587 H 0.01744 0.45895 0.23877 0.0
H588 H 0.0516 0.44646 0.27426 0.0
H589 H 0.07118 0.41459 0.28962 0.0
H590 H 0.11224 0.48648 0.33728 0.0
H591 H 0.09282 0.5186 0.32224 0.0
N592 N 0.06905 0.53545 0.29554 0.0
N593 N 0.04924 0.54677 0.26836 0.0
N594 N 0.04798 0.4974 0.26909 0.0
C595 C 0.06282 0.55584 0.28632 0.0
C596 C 0.0416 0.51756 0.25966 0.0
C597 C 0.0617 0.50618 0.28707 0.0
C598 C 0.0726 0.5884 0.29537 0.0
C599 C 0.08495 0.59715 0.31433 0.0
C600 C 0.09602 0.62845 0.32256 0.0
C601 C 0.09501 0.65151 0.31199 0.0
C602 C 0.08215 0.64286 0.29324 0.0
C603 C 0.07093 0.61152 0.28499 0.0
C604 C 0.02823 0.50873 0.23976 0.0
C605 C 0.02731 0.53195 0.22912 0.0
C606 C 0.01637 0.52432 0.21014 0.0
C607 C 0.00592 0.49331 0.20144 0.0
C608 C 0.00602 0.46979 0.21201 0.0
C609 C 0.01721 0.47746 0.23101 0.0
C610 C 0.07081 0.48527 0.29693 0.0
C611 C 0.06448 0.45541 0.28809 0.0
C612 C 0.54416 0.63607 0.27498 0.0
C613 C 0.5453 0.64659 0.29371 0.0
C614 C 0.52321 0.62544 0.30498 0.0
C615 C 0.49971 0.59434 0.29752 0.0
H616 H 0.40986 0.52478 0.30577 0.0
H617 H 0.36301 0.4958 0.32255 0.0
H618 H 0.32351 0.41498 0.27999 0.0
H619 H 0.37022 0.44376 0.26289 0.0
H620 H 0.40544 0.45168 0.22552 0.0
H621 H 0.40819 0.43169 0.19401 0.0
H622 H 0.49775 0.51895 0.19096 0.0
H623 H 0.49551 0.53927 0.22232 0.0
H624 H 0.52018 0.59751 0.25294 0.0
H625 H 0.56096 0.65223 0.26609 0.0
H626 H 0.52376 0.6333 0.31946 0.0
H627 H 0.48271 0.57875 0.30652 0.0
N628 N 0.44647 0.53404 0.28 0.0
N629 N 0.42335 0.4927 0.25519 0.0
N630 N 0.47291 0.53914 0.25328 0.0
C631 C 0.42202 0.50471 0.27248 0.0
C632 C 0.4488 0.50981 0.24551 0.0
C633 C 0.472 0.55138 0.27052 0.0
C634 C 0.3939 0.48665 0.28291 0.0
C635 C 0.39135 0.50079 0.29993 0.0
C636 C 0.3646 0.48432 0.30958 0.0
C637 C 0.33996 0.45333 0.3025 0.0
C638 C 0.34241 0.43892 0.28565 0.0
C639 C 0.36911 0.45544 0.27591 0.0
C640 C 0.45023 0.49714 0.22652 0.0
C641 C 0.42577 0.46666 0.2182 0.0
C642 C 0.42725 0.45516 0.20021 0.0
C643 C 0.45313 0.47396 0.19027 0.0
C644 C 0.4776 0.50421 0.19848 0.0
C645 C 0.47621 0.51571 0.21643 0.0
C646 C 0.49801 0.58376 0.27865 0.0
C647 C 0.52081 0.60482 0.26753 0.0
Tb648 Tb 0.4842 0.97968 0.99778 0.0
Eu649 Eu 0.51127 0.02403 0.03909 0.0
C650 C 0.52078 0.96416 0.02839 0.0
C651 C 0.44297 0.95955 0.03193 0.0
C652 C 0.47661 0.96337 0.9469 0.0
C653 C 0.49556 0.95944 0.91695 0.0
C654 C 0.48503 0.94685 0.93379 0.0
C655 C 0.4789 0.99272 0.94289 0.0
C656 C 0.48914 0.00514 0.92602 0.0
C657 C 0.49763 0.98865 0.91295 0.0
C658 C 0.4677 0.95102 0.96514 0.0
O659 O 0.48346 0.0239 0.99445 0.0
O660 O 0.47676 0.03595 0.02443 0.0
O661 O 0.54482 0.05498 0.01917 0.0
O662 O 0.53488 0.01351 0.99698 0.0
C663 C 0.474 0.03804 1.00647 0.0
O664 O 0.50773 0.05466 0.0613 0.0
O665 O 0.54425 0.04159 0.06474 0.0
O666 O 0.53498 0.99433 0.03566 0.0
O667 O 0.49528 0.95162 1.01621 0.0
O668 O 0.44291 0.96106 1.01377 0.0
O669 O 0.4687 0.97691 0.04369 0.0
C670 C 0.55226 0.04361 1.00446 0.0
O671 O 0.49084 0.95272 0.97626 0.0
O672 O 0.45051 0.96025 0.97403 0.0
C673 C 0.51914 0.04329 0.09156 0.0
C674 C 0.50055 0.02012 0.12632 0.0
C675 C 0.47847 0.02088 0.11315 0.0
C676 C 0.48761 0.03223 0.09587 0.0
C677 C 0.54132 0.04311 0.10499 0.0
C678 C 0.53206 0.03148 0.12219 0.0
C679 C 0.52883 0.05373 0.07296 0.0
H680 H 0.5021 0.94644 0.90704 0.0
H681 H 0.48382 0.92441 0.93668 0.0
H682 H 0.47309 0.00628 0.95288 0.0
H683 H 0.49069 0.02775 0.92319 0.0
H684 H 0.45404 0.01217 0.11613 0.0
H685 H 0.46984 0.03188 0.08583 0.0
H686 H 0.56571 0.0515 0.10205 0.0
H687 H 0.5494 0.0311 0.13224 0.0
Tb688 Tb 0.0233 0.50333 0.99829 0.0
Eu689 Eu 0.97992 0.47888 0.03386 0.0
C690 C 0.0422 0.54827 0.03564 0.0
C691 C 0.04101 0.47172 0.03026 0.0
C692 C 0.05264 0.5317 0.95286 0.0
C693 C 0.07523 0.56188 0.9267 0.0
C694 C 0.0792 0.55186 0.94395 0.0
C695 C 0.022 0.5204 0.94398 0.0
C696 C 0.01797 0.53048 0.92679 0.0
C697 C 0.04448 0.5534 0.91827 0.0
C698 C 0.05723 0.52344 0.97159 0.0
O699 O 0.97848 0.46095 0.98652 0.0
O700 O 0.96409 0.4355 1.01317 0.0
O701 O 0.95087 0.48812 1.01216 0.0
O702 O 0.99196 0.52365 0.99638 0.0
C703 C 0.96208 0.43494 0.99494 0.0
O704 O 0.95808 0.44309 0.05353 0.0
O705 O 0.95117 0.48437 0.05424 0.0
O706 O 0.01286 0.53242 0.04011 0.0
O707 O 0.05237 0.53632 0.02271 0.0
O708 O 0.03654 0.47205 1.01215 0.0
O709 O 0.02627 0.48035 0.04194 0.0
C710 C 0.96239 0.51055 1.00067 0.0
O711 O 0.05686 0.5422 0.98524 0.0
O712 O 0.04054 0.49307 0.97434 0.0
C713 C 0.95455 0.46433 0.08285 0.0
C714 C 0.9695 0.47206 0.12174 0.0
C715 C 0.94228 0.44404 0.11305 0.0
C716 C 0.93482 0.44025 0.0937 0.0
C717 C 0.98183 0.49234 0.09154 0.0
C718 C 0.98917 0.49624 0.11089 0.0
C719 C 0.94716 0.45934 0.06248 0.0
H720 H 0.09671 0.57557 0.92016 0.0
H721 H 0.10315 0.55982 0.95032 0.0
H722 H 1.00115 0.50361 0.9503 0.0
H723 H 0.99374 0.51939 0.92023 0.0
H724 H 0.92697 0.42512 0.12124 0.0
H725 H 0.91383 0.4184 0.08718 0.0
H726 H 0.99756 0.51102 0.08334 0.0
H727 H 0.01033 0.51793 0.11741 0.0
Tb728 Tb 0.52262 0.50151 0.03962 0.0
Eu729 Eu 0.49729 0.52288 1.00223 0.0
C730 C 0.48386 0.45134 1.00514 0.0
C731 C 0.56362 0.52339 1.00558 0.0
C732 C 0.52252 0.47875 0.08681 0.0
C733 C 0.51295 0.45476 0.11604 0.0
C734 C 0.52958 0.46286 0.10023 0.0
C735 C 0.4999 0.48804 0.08983 0.0
C736 C 0.48324 0.47988 0.10556 0.0
C737 C 0.48742 0.46071 0.11838 0.0
C738 C 0.5371 0.48402 0.06918 0.0
O739 O 0.52685 0.54779 0.04817 0.0
O740 O 0.53374 0.56814 0.01985 0.0
O741 O 0.46559 0.52086 0.0243 0.0
O742 O 0.4724 0.4856 0.04161 0.0
C743 C 0.53692 0.57219 0.0381 0.0
O744 O 0.50606 0.55929 0.98313 0.0
O745 O 0.46225 0.51307 0.97853 0.0
O746 O 0.47144 0.46868 0.99981 0.0
O747 O 0.50923 0.46316 1.01735 0.0
O748 O 0.56405 0.52452 0.02389 0.0
O749 O 0.53788 0.51605 0.99449 0.0
C750 C 0.45687 0.50052 0.03706 0.0
O751 O 0.51827 0.46409 0.05499 0.0
O752 O 0.55195 0.51373 0.065 0.0
C753 C 0.48694 0.53728 0.95206 0.0
C754 C 0.50421 0.53544 0.91571 0.0
C755 C 0.50061 0.56116 0.92285 0.0
C756 C 0.49195 0.56202 0.94092 0.0
C757 C 0.49046 0.51152 0.94486 0.0
C758 C 0.4989 0.51054 0.92679 0.0
C759 C 0.48085 0.53996 0.97162 0.0
H760 H 0.52111 0.44444 0.12635 0.0
H761 H 0.5479 0.45656 0.09846 0.0
H762 H 0.49493 0.50148 0.07993 0.0
H763 H 0.46749 0.48937 0.10752 0.0
H764 H 0.50477 0.58063 0.91449 0.0
H765 H 0.48975 0.58229 0.94634 0.0
H766 H 0.48721 0.49244 0.95332 0.0
H767 H 0.50172 0.4906 0.9215 0.0
Tb768 Tb 0.15727 0.3175 0.33254 0.0
Eu769 Eu 0.18587 0.35913 0.37459 0.0
C770 C 0.1959 0.3012 0.36105 0.0
C771 C 0.11651 0.29571 0.36681 0.0
C772 C 0.14849 0.30369 0.28151 0.0
C773 C 0.16626 0.30031 0.2511 0.0
C774 C 0.15566 0.28702 0.26776 0.0
C775 C 0.15209 0.3339 0.27834 0.0
C776 C 0.16234 0.347 0.26161 0.0
C777 C 0.16959 0.33035 0.2479 0.0
C778 C 0.13952 0.29051 0.29954 0.0
O779 O 0.15755 0.36257 0.33112 0.0
O780 O 0.15045 0.37142 0.3615 0.0
O781 O 0.22036 0.39106 0.35531 0.0
O782 O 0.20765 0.35168 0.33092 0.0
C783 C 0.14782 0.37535 0.3438 0.0
O784 O 0.18963 0.3945 0.39672 0.0
O785 O 0.21292 0.36689 0.40159 0.0
O786 O 0.2107 0.33136 0.36834 0.0
O787 O 0.16925 0.2888 0.34987 0.0
O788 O 0.11621 0.29811 0.34873 0.0
O789 O 0.14252 0.31208 0.37846 0.0
C790 C 0.2264 0.38081 0.33957 0.0
O791 O 0.16239 0.29078 0.3102 0.0
O792 O 0.1232 0.30017 0.30901 0.0
C793 C 0.18933 0.37698 0.42662 0.0
C794 C 0.1606 0.35855 0.46049 0.0
C795 C 0.19112 0.3865 0.46022 0.0
C796 C 0.20483 0.3959 0.44352 0.0
C797 C 0.16059 0.3479 0.42673 0.0
C798 C 0.14697 0.33841 0.44338 0.0
C799 C 0.20417 0.38621 0.40912 0.0
H800 H 0.17183 0.28718 0.24068 0.0
H801 H 0.15345 0.26392 0.27002 0.0
H802 H 0.1473 0.34758 0.28884 0.0
H803 H 0.16487 0.37025 0.25941 0.0
H804 H 0.20552 0.40103 0.47285 0.0
H805 H 0.22795 0.41766 0.4439 0.0
H806 H 0.14898 0.33199 0.41395 0.0
H807 H 0.12635 0.31452 0.44247 0.0
Tb808 Tb 0.69113 0.8439 0.33358 0.0
Eu809 Eu 0.64426 0.82059 0.36773 0.0
C810 C 0.70522 0.89118 0.36954 0.0
C811 C 0.70837 0.81725 0.36858 0.0
C812 C 0.72009 0.86912 0.28817 0.0
C813 C 0.7403 0.89088 0.25939 0.0
C814 C 0.74505 0.88216 0.27693 0.0
C815 C 0.68989 0.86333 0.28138 0.0
C816 C 0.68512 0.87204 0.26387 0.0
C817 C 0.71082 0.88838 0.25296 0.0
C818 C 0.72577 0.86242 0.30712 0.0
O819 O 0.64758 0.80017 0.32169 0.0
O820 O 0.63128 0.7763 0.34859 0.0
O821 O 0.61683 0.82816 0.34426 0.0
O822 O 0.65921 0.86313 0.32913 0.0
C823 C 0.6308 0.77466 0.3304 0.0
O824 O 0.61995 0.78495 0.38708 0.0
O825 O 0.61354 0.82646 0.38648 0.0
O826 O 0.6756 0.87444 0.37343 0.0
O827 O 0.71719 0.87987 0.35737 0.0
O828 O 0.70671 0.81691 0.3503 0.0
O829 O 0.69077 0.82462 0.37858 0.0
C830 C 0.62917 0.84989 0.33247 0.0
O831 O 0.72537 0.88187 0.32033 0.0
O832 O 0.70944 0.83237 0.31054 0.0
C833 C 0.61381 0.80633 0.41552 0.0
C834 C 0.62653 0.81301 0.4545 0.0
C835 C 0.60064 0.78449 0.44525 0.0
C836 C 0.59428 0.78121 0.42585 0.0
C837 C 0.63954 0.83501 0.4248 0.0
C838 C 0.64576 0.83838 0.4442 0.0
C839 C 0.60838 0.8014 0.39507 0.0
H840 H 0.75997 0.89879 0.251 0.0
H841 H 0.76828 0.88557 0.2817 0.0
H842 H 0.6699 0.852 0.28963 0.0
H843 H 0.66082 0.86501 0.25905 0.0
H844 H 0.58571 0.76467 0.45303 0.0
H845 H 0.57452 0.75884 0.41886 0.0
H846 H 0.65509 0.85453 0.41703 0.0
H847 H 0.66592 0.86047 0.45118 0.0
Tb848 Tb 0.18866 0.83796 0.37642 0.0
Eu849 Eu 0.16178 0.85485 0.33743 0.0
C850 C 0.14774 0.78359 0.34405 0.0
C851 C 0.22973 0.85823 0.34228 0.0
C852 C 0.18922 0.81309 0.42352 0.0
C853 C 0.18611 0.79112 0.45327 0.0
C854 C 0.20231 0.80306 0.43759 0.0
C855 C 0.16007 0.81167 0.42551 0.0
C856 C 0.14391 0.79984 0.44109 0.0
C857 C 0.15551 0.78752 0.45502 0.0
C858 C 0.20674 0.82696 0.4074 0.0
O859 O 0.21414 0.89005 0.37522 0.0
O860 O 0.17423 0.89472 0.35993 0.0
O861 O 0.12049 0.83817 0.35451 0.0
O862 O 0.1439 0.8351 0.38271 0.0
C863 C 0.20037 0.90695 0.37148 0.0
O864 O 0.16938 0.88933 0.31719 0.0
O865 O 0.1278 0.84111 0.31264 0.0
O866 O 0.15554 0.80524 0.33211 0.0
O867 O 0.15287 0.79155 0.36214 0.0
O868 O 0.22098 0.83986 0.35608 0.0
O869 O 0.21379 0.87174 0.33597 0.0
C870 C 0.11966 0.83317 0.3722 0.0
O871 O 0.19825 0.80747 0.39211 0.0
O872 O 0.20988 0.85463 0.40403 0.0
C873 C 0.15408 0.86442 0.28639 0.0
C874 C 0.17447 0.86038 0.25119 0.0
C875 C 0.17246 0.8875 0.25747 0.0
C876 C 0.16222 0.88945 0.27495 0.0
C877 C 0.15627 0.83737 0.2801 0.0
C878 C 0.16623 0.83531 0.26259 0.0
C879 C 0.14574 0.86784 0.30534 0.0
H880 H 0.19886 0.78623 0.46413 0.0
H881 H 0.22552 0.80524 0.43672 0.0
H882 H 0.15009 0.82065 0.41526 0.0
H883 H 0.12294 0.80193 0.44225 0.0
H884 H 0.17885 0.9071 0.24884 0.0
H885 H 0.16109 0.91068 0.27966 0.0
H886 H 0.15068 0.81799 0.2888 0.0
H887 H 0.16778 0.81428 0.25797 0.0
Tb888 Tb 0.82178 0.65192 0.66675 0.0
Eu889 Eu 0.84635 0.69743 0.70789 0.0
C890 C 0.8576 0.63796 0.6991 0.0
C891 C 0.77939 0.63154 0.70022 0.0
C892 C 0.81474 0.63359 0.61612 0.0
C893 C 0.83213 0.62858 0.58584 0.0
C894 C 0.82226 0.61649 0.60288 0.0
C895 C 0.81726 0.66303 0.6121 0.0
C896 C 0.82679 0.67493 0.59503 0.0
C897 C 0.83438 0.65786 0.5818 0.0
C898 C 0.80646 0.62183 0.63452 0.0
O899 O 0.8196 0.69496 0.66202 0.0
O900 O 0.81364 0.70992 0.69169 0.0
O901 O 0.88077 0.72833 0.68823 0.0
O902 O 0.87212 0.68714 0.66615 0.0
C903 C 0.81064 0.7103 0.67356 0.0
O904 O 0.8351 0.71992 0.73115 0.0
O905 O 0.88162 0.72388 0.73207 0.0
O906 O 0.87005 0.66757 0.70701 0.0
O907 O 0.83357 0.62516 0.68585 0.0
O908 O 0.77981 0.63328 0.68212 0.0
O909 O 0.80483 0.64915 0.71213 0.0
C910 C 0.88887 0.71723 0.67371 0.0
O911 O 0.83031 0.6255 0.64584 0.0
O912 O 0.78822 0.63004 0.64303 0.0
C913 C 0.85726 0.7167 0.76025 0.0
C914 C 0.84337 0.69239 0.79515 0.0
C915 C 0.8426 0.72042 0.79154 0.0
C916 C 0.84953 0.7325 0.77421 0.0
C917 C 0.85829 0.68879 0.76393 0.0
C918 C 0.85153 0.67682 0.78128 0.0
C919 C 0.86149 0.72787 0.74148 0.0
H920 H 0.83802 0.61517 0.57581 0.0
H921 H 0.82088 0.59399 0.60581 0.0
H922 H 0.81215 0.67702 0.62221 0.0
H923 H 0.82852 0.69761 0.59217 0.0
H924 H 0.83627 0.73268 0.80207 0.0
H925 H 0.84825 0.75382 0.77157 0.0
H926 H 0.86379 0.67596 0.75329 0.0
H927 H 0.85217 0.65512 0.78381 0.0
Tb928 Tb 0.35602 0.17555 0.66635 0.0
Eu929 Eu 0.30908 0.15277 0.70051 0.0
C930 C 0.37029 0.22307 0.7022 0.0
C931 C 0.37276 0.14841 0.70121 0.0
C932 C 0.38522 0.20182 0.62127 0.0
C933 C 0.40565 0.22572 0.59302 0.0
C934 C 0.41033 0.21598 0.61023 0.0
C935 C 0.35496 0.19608 0.61462 0.0
C936 C 0.35025 0.2058 0.59745 0.0
C937 C 0.37603 0.22308 0.58676 0.0
C938 C 0.3908 0.1942 0.63998 0.0
O939 O 0.31237 0.13199 0.65438 0.0
O940 O 0.29512 0.10831 0.68123 0.0
O941 O 0.28192 0.16104 0.6771 0.0
O942 O 0.32441 0.19506 0.66167 0.0
C943 C 0.29493 0.10663 0.66306 0.0
O944 O 0.28395 0.11673 0.7195 0.0
O945 O 0.27963 0.15954 0.71989 0.0
O946 O 0.34063 0.20659 0.70606 0.0
O947 O 0.38217 0.21141 0.69019 0.0
O948 O 0.37104 0.14802 0.68293 0.0
O949 O 0.35538 0.1561 0.71123 0.0
C950 C 0.29443 0.18231 0.66505 0.0
O951 O 0.39108 0.21354 0.65351 0.0
O952 O 0.37385 0.16403 0.64307 0.0
C953 C 0.27911 0.13772 0.74849 0.0
C954 C 0.29173 0.14244 0.78742 0.0
C955 C 0.26555 0.1145 0.77785 0.0
C956 C 0.25924 0.11221 0.75849 0.0
C957 C 0.30519 0.16578 0.75808 0.0
C958 C 0.31136 0.16817 0.77746 0.0
C959 C 0.27352 0.1338 0.72802 0.0
H960 H 0.42549 0.23453 0.58473 0.0
H961 H 0.43364 0.21951 0.61489 0.0
H962 H 0.33489 0.18402 0.62273 0.0
H963 H 0.32592 0.19877 0.59269 0.0
H964 H 0.25031 0.0944 0.78536 0.0
H965 H 0.2392 0.09029 0.75127 0.0
H966 H 0.32102 0.18559 0.75058 0.0
H967 H 0.33175 0.18982 0.78466 0.0
Tb968 Tb 0.85543 0.17153 0.70994 0.0
Eu969 Eu 0.83116 0.19173 0.67056 0.0
C970 C 0.81444 0.11822 0.67536 0.0
C971 C 0.89826 0.18964 0.67638 0.0
C972 C 0.85091 0.14374 0.75672 0.0
C973 C 0.84568 0.11954 0.78579 0.0
C974 C 0.86316 0.13296 0.7708 0.0
C975 C 0.82112 0.14127 0.75791 0.0
C976 C 0.80368 0.128 0.77285 0.0
C977 C 0.81471 0.11533 0.78687 0.0
C978 C 0.87 0.15941 0.7415 0.0
O979 O 0.88357 0.22346 0.70906 0.0
O980 O 0.84583 0.23126 0.69365 0.0
O981 O 0.78895 0.17544 0.68684 0.0
O982 O 0.80916 0.16663 0.71446 0.0
C983 C 0.87153 0.24181 0.70531 0.0
O984 O 0.84368 0.22921 0.65172 0.0
O985 O 0.79906 0.18371 0.64571 0.0
O986 O 0.8147 0.13923 0.66444 0.0
O987 O 0.82709 0.12564 0.69286 0.0
O988 O 0.89268 0.17783 0.69258 0.0
O989 O 0.87966 0.19778 0.66703 0.0
C990 C 0.78635 0.16733 0.70395 0.0
O991 O 0.86413 0.14098 0.72605 0.0
O992 O 0.87214 0.18676 0.73826 0.0
C993 C 0.8275 0.20772 0.62032 0.0
C994 C 0.84648 0.20418 0.58462 0.0
C995 C 0.84329 0.23054 0.59102 0.0
C996 C 0.83375 0.23223 0.60876 0.0
C997 C 0.83098 0.1815 0.61396 0.0
C998 C 0.84021 0.17967 0.59619 0.0
C999 C 0.8194 0.21059 0.63938 0.0
H1000 H 0.85775 0.11408 0.79678 0.0
H1001 H 0.88672 0.13576 0.77049 0.0
H1002 H 0.81168 0.15062 0.74758 0.0
H1003 H 0.78228 0.12942 0.77348 0.0
H1004 H 0.84819 0.24972 0.58227 0.0
H1005 H 0.83159 0.25282 0.61354 0.0
H1006 H 0.82683 0.1626 0.62278 0.0
H1007 H 0.8427 0.15925 0.59149 0.0
C1008 C 0.37507 0.88578 0.04934 0.0
C1009 C 0.35856 0.89961 0.05803 0.0
C1010 C 0.39764 0.95288 0.04963 0.0
C1011 C 0.41273 0.93861 0.03978 0.0
N1012 N 0.41271 0.89085 0.02733 0.0
N1013 N 0.34989 0.94467 0.06301 0.0
C1014 C 0.40034 0.9048 0.03863 0.0
C1015 C 0.36864 0.93273 0.0572 0.0
N1016 N 0.36767 0.85499 0.05209 0.0
N1017 N 0.41125 0.98574 0.05203 0.0
H1018 H 0.32821 0.93054 0.06838 0.0
H1019 H 0.35426 0.96774 0.06092 0.0
H1020 H 0.43171 1.00139 0.04605 0.0
H1021 H 0.40353 0.99762 0.06102 0.0
H1022 H 0.38115 0.84483 0.04784 0.0
H1023 H 0.34972 0.84045 0.06012 0.0
H1024 H 0.40249 0.86596 0.02442 0.0
H1025 H 0.43172 0.9041 0.01962 0.0
C1026 C 0.07472 0.42443 0.05411 0.0
C1027 C 0.10756 0.44373 0.05152 0.0
C1028 C 0.09462 0.47565 0.03154 0.0
C1029 C 0.06344 0.46134 0.03739 0.0
N1030 N 0.02222 0.41906 0.05279 0.0
N1031 N 0.13585 0.46403 0.02473 0.0
C1032 C 0.05292 0.43475 0.04825 0.0
C1033 C 0.11437 0.46284 0.03642 0.0
N1034 N 0.06366 0.39396 0.05907 0.0
N1035 N 0.10611 0.50211 0.02185 0.0
H1036 H 0.14608 0.44945 0.0259 0.0
H1037 H 0.13955 0.47548 1.01254 0.0
H1038 H 0.09327 0.51359 0.01862 0.0
H1039 H 0.12976 0.51435 0.0187 0.0
H1040 H 0.03953 0.37735 0.05956 0.0
H1041 H 0.07844 0.38397 0.0601 0.0
H1042 H 0.01463 0.40239 0.06261 0.0
H1043 H 0.00462 0.42362 0.04734 0.0
C1044 C 0.59814 0.65483 0.06248 0.0
C1045 C 0.57918 0.66965 0.06359 0.0
C1046 C 0.53288 0.62093 0.04737 0.0
C1047 C 0.55113 0.60527 0.04744 0.0
N1048 N 0.5995 0.60513 0.05733 0.0
N1049 N 0.52703 0.66471 0.06105 0.0
C1050 C 0.58325 0.62151 0.05581 0.0
C1051 C 0.54608 0.65206 0.05719 0.0
N1052 N 0.63052 0.67292 0.06702 0.0
N1053 N 0.50321 0.60641 0.03758 0.0
H1054 H 0.53573 0.68732 0.06848 0.0
H1055 H 0.50218 0.65159 0.0585 0.0
H1056 H 0.49228 0.58329 0.03051 0.0
H1057 H 0.49042 0.61824 0.03525 0.0
H1058 H 0.64611 0.66443 0.06457 0.0
H1059 H 0.64224 0.69739 0.07194 0.0
H1060 H 0.62174 0.61463 0.06504 0.0
H1061 H 0.58977 0.58105 0.05198 0.0
C1062 C 0.9241 0.34675 0.9762 0.0
C1063 C 0.89667 0.34222 0.96514 0.0
C1064 C 0.91229 0.39875 0.97334 0.0
C1065 C 0.94053 0.40373 0.98368 0.0
N1066 N 0.97669 0.38465 0.99207 0.0
N1067 N 0.86777 0.36477 0.94991 0.0
C1068 C 0.94746 0.37834 0.98423 0.0
C1069 C 0.89182 0.36858 0.96263 0.0
N1070 N 0.92722 0.32068 0.97957 0.0
N1071 N 0.90402 0.4221 0.97463 0.0
H1072 H 0.85213 0.34285 0.94196 0.0
H1073 H 0.86508 0.3839 0.94604 0.0
H1074 H 0.91794 0.44413 0.98277 0.0
H1075 H 0.88209 0.41863 0.96901 0.0
H1076 H 0.94467 0.32185 0.98929 0.0
H1077 H 0.91096 0.29725 0.97359 0.0
H1078 H 0.98445 0.36798 0.99123 0.0
H1079 H 0.99442 0.40756 0.99804 0.0
C1080 C 0.62017 0.51528 0.9744 0.0
C1081 C 0.64793 0.54626 0.97843 0.0
C1082 C 0.6201 0.56275 0.99988 0.0
C1083 C 0.59322 0.53096 0.99695 0.0
N1084 N 0.56971 0.47534 0.98425 0.0
N1085 N 0.67647 0.59803 0.99691 0.0
C1086 C 0.59378 0.50675 0.98495 0.0
C1087 C 0.64853 0.56959 0.99175 0.0
N1088 N 0.61879 0.49424 0.96023 0.0
N1089 N 0.61802 0.58675 1.00974 0.0
H1090 H 0.69755 0.60421 0.99093 0.0
H1091 H 0.67943 0.61442 1.00807 0.0
H1092 H 0.59762 0.58278 1.01586 0.0
H1093 H 0.63546 0.61108 1.01061 0.0
H1094 H 0.59798 0.47276 0.95522 0.0
H1095 H 0.63785 0.49945 0.9524 0.0
H1096 H 0.57018 0.45604 0.97719 0.0
H1097 H 0.55054 0.46811 0.99223 0.0
C1098 C 0.4656 0.10128 0.98167 0.0
C1099 C 0.43376 0.09269 0.9845 0.0
C1100 C 0.42773 0.0472 1.00102 0.0
C1101 C 0.46038 0.05739 0.99949 0.0
N1102 N 0.5121 0.09742 0.9916 0.0
N1103 N 0.38586 0.06092 0.99914 0.0
C1104 C 0.47982 0.08534 0.99068 0.0
C1105 C 0.41519 0.06665 0.99487 0.0
N1106 N 0.48199 0.12414 0.97001 0.0
N1107 N 0.40836 0.01825 1.00756 0.0
H1108 H 0.37569 0.07432 0.99455 0.0
H1109 H 0.37269 0.04462 1.00839 0.0
H1110 H 0.41656 1.00312 1.01195 0.0
H1111 H 0.38365 0.00788 1.00716 0.0
H1112 H 0.50386 0.12878 0.96571 0.0
H1113 H 0.47257 0.13673 0.96335 0.0
H1114 H 0.52802 0.11952 0.98709 0.0
H1115 H 0.52347 0.08684 0.9985 0.0
C1116 C 0.63969 0.08848 0.99555 0.0
C1117 C 0.63742 0.09931 0.97794 0.0
C1118 C 0.5793 0.07379 0.97779 0.0
C1119 C 0.58174 0.06477 0.99596 0.0
N1120 N 0.61425 0.06648 0.02322 0.0
N1121 N 0.60646 0.10789 0.95387 0.0
C1122 C 0.61201 0.07328 1.00524 0.0
C1123 C 0.6076 0.09358 0.96951 0.0
N1124 N 0.66795 0.09132 1.00255 0.0
N1125 N 0.54993 0.06285 0.96822 0.0
H1126 H 0.62672 0.12266 0.94742 0.0
H1127 H 0.58598 0.10751 0.94822 0.0
H1128 H 0.52857 0.04956 0.97401 0.0
H1129 H 0.54657 0.06506 0.95411 0.0
H1130 H 0.67038 0.08071 1.01423 0.0
H1131 H 0.68869 0.10222 0.99583 0.0
H1132 H 0.63588 0.07522 0.03147 0.0
H1133 H 0.59439 0.05381 0.03045 0.0
C1134 C 0.90584 0.51933 0.96569 0.0
C1135 C 0.89918 0.54057 0.97646 0.0
C1136 C 0.93272 0.54078 1.00348 0.0
C1137 C 0.94124 0.52151 0.99225 0.0
N1138 N 0.94052 0.49718 0.9618 0.0
N1139 N 0.91043 0.57618 1.00445 0.0
C1140 C 0.92932 0.51236 0.97306 0.0
C1141 C 0.91373 0.55257 0.99508 0.0
N1142 N 0.88864 0.50458 0.94874 0.0
N1143 N 0.94271 0.54777 0.02219 0.0
H1144 H 0.89695 0.5856 0.99867 0.0
H1145 H 0.92316 0.58843 1.01727 0.0
H1146 H 0.95803 0.54108 0.02869 0.0
H1147 H 0.93425 0.55841 0.03151 0.0
H1148 H 0.88985 0.48609 0.94121 0.0
H1149 H 0.87089 0.50865 0.94292 0.0
H1150 H 0.93574 0.49354 0.94731 0.0
H1151 H 0.95656 0.49026 0.9668 0.0
C1152 C 0.43247 0.35989 0.99995 0.0
C1153 C 0.4406 0.35215 0.98261 0.0
C1154 C 0.47425 0.4097 0.97911 0.0
C1155 C 0.46868 0.4173 0.99727 0.0
N1156 N 0.44562 0.40014 0.02607 0.0
N1157 N 0.47302 0.36901 0.95697 0.0
C1158 C 0.44874 0.39252 1.00804 0.0
C1159 C 0.46247 0.37688 0.97248 0.0
N1160 N 0.40838 0.33621 1.00833 0.0
N1161 N 0.4905 0.43379 0.96812 0.0
H1162 H 0.46516 0.34522 0.95174 0.0
H1163 H 0.49158 0.38596 0.9502 0.0
H1164 H 0.50034 0.4582 0.97271 0.0
H1165 H 0.49219 0.42957 0.95402 0.0
H1166 H 0.39895 0.3408 0.01992 0.0
H1167 H 0.3958 0.31204 1.00275 0.0
H1168 H 0.43444 0.38298 0.03531 0.0
H1169 H 0.45615 0.42383 0.03227 0.0
C1170 C 0.11632 0.61747 0.06375 0.0
C1171 C 0.10904 0.6426 0.06323 0.0
C1172 C 0.05853 0.60622 0.04395 0.0
C1173 C 0.06474 0.58048 0.04558 0.0
N1174 N 0.09656 0.5599 0.05957 0.0
N1175 N 0.07161 0.66036 0.05548 0.0
C1176 C 0.09287 0.58563 0.05616 0.0
C1177 C 0.07959 0.63678 0.05415 0.0
N1178 N 0.14592 0.62421 0.07116 0.0
N1179 N 0.03345 0.60194 0.03192 0.0
H1180 H 0.08685 0.68337 0.06239 0.0
H1181 H 0.049 0.65644 0.051 0.0
H1182 H 0.01776 0.5801 0.02395 0.0
H1183 H 0.02972 0.62069 0.02858 0.0
H1184 H 0.15405 0.60785 0.06998 0.0
H1185 H 0.16341 0.64705 0.07737 0.0
H1186 H 0.11485 0.5616 0.0688 0.0
H1187 H 0.07972 0.53617 0.05445 0.0
C1188 C 0.40051 0.5097 0.06813 0.0
C1189 C 0.37426 0.47758 0.06599 0.0
C1190 C 0.4008 0.46161 0.0433 0.0
C1191 C 0.42804 0.49313 0.04649 0.0
N1192 N 0.45633 0.54555 0.06433 0.0
N1193 N 0.3509 0.42172 0.05384 0.0
C1194 C 0.42857 0.51681 0.05952 0.0
C1195 C 0.37486 0.45314 0.05424 0.0
N1196 N 0.39834 0.53357 0.07808 0.0
N1197 N 0.39927 0.44017 0.02932 0.0
H1198 H 0.33127 0.41473 0.06145 0.0
H1199 H 0.35163 0.40228 0.0472 0.0
H1200 H 0.41765 0.44567 0.02088 0.0
H1201 H 0.37883 0.41798 0.02499 0.0
H1202 H 0.41506 0.55804 0.07833 0.0
H1203 H 0.37857 0.52914 0.08506 0.0
H1204 H 0.4593 0.56237 0.07522 0.0
H1205 H 0.4774 0.5515 0.05845 0.0
C1206 C 0.53094 0.89968 0.05076 0.0
C1207 C 0.56366 0.911 0.0488 0.0
C1208 C 0.56583 0.95289 0.03017 0.0
C1209 C 0.53439 0.94414 0.03416 0.0
N1210 N 0.48807 0.91182 0.05001 0.0
N1211 N 0.61333 0.94933 0.03785 0.0
C1212 C 0.51702 0.91797 0.04474 0.0
C1213 C 0.5814 0.93779 0.03874 0.0
N1214 N 0.51321 0.87139 0.05836 0.0
N1215 N 0.58041 0.97503 0.0178 0.0
H1216 H 0.62523 0.93811 0.04336 0.0
H1217 H 0.62849 0.97105 0.0327 0.0
H1218 H 0.56952 0.98628 1.01111 0.0
H1219 H 0.60202 0.98023 1.01289 0.0
H1220 H 0.48847 0.86002 0.05833 0.0
H1221 H 0.52284 0.85776 0.06336 0.0
H1222 H 0.4759 0.8955 0.05948 0.0
H1223 H 0.47723 0.92492 0.0461 0.0
C1224 C 0.04755 0.22187 0.38364 0.0
C1225 C 0.03167 0.23603 0.39277 0.0
C1226 C 0.07199 0.28942 0.38521 0.0
C1227 C 0.08629 0.27493 0.37476 0.0
N1228 N 0.08503 0.22696 0.36148 0.0
N1229 N 0.02457 0.28194 0.39867 0.0
C1230 C 0.0731 0.24096 0.37309 0.0
C1231 C 0.0427 0.26945 0.39254 0.0
N1232 N 0.03925 0.19064 0.38581 0.0
N1233 N 0.0866 0.3223 0.38845 0.0
H1234 H 1.00263 0.26799 0.40381 0.0
H1235 H 0.02972 0.30539 0.39698 0.0
H1236 H 0.10747 0.33794 0.38283 0.0
H1237 H 0.07936 0.33405 0.39787 0.0
H1238 H 0.05215 0.18005 0.38119 0.0
H1239 H 0.0211 0.17607 0.39372 0.0
H1240 H 0.07428 0.20208 0.35818 0.0
H1241 H 0.1043 0.24026 0.35395 0.0
C1242 C 0.75026 0.7714 0.38297 0.0
C1243 C 0.77469 0.79459 0.39657 0.0
C1244 C 0.75714 0.83337 0.39074 0.0
C1245 C 0.73113 0.80937 0.37822 0.0
N1246 N 0.69972 0.75402 0.36453 0.0
N1247 N 0.79845 0.84553 0.41579 0.0
C1248 C 0.72682 0.77793 0.37487 0.0
C1249 C 0.77719 0.82494 0.4012 0.0
N1250 N 0.74992 0.74345 0.37751 0.0
N1251 N 0.76371 0.86464 0.39193 0.0
H1252 H 0.81405 0.84051 0.42354 0.0
H1253 H 0.79883 0.86633 0.42121 0.0
H1254 H 0.75018 0.87193 0.38407 0.0
H1255 H 0.78424 0.88387 0.3993 0.0
H1256 H 0.73502 0.72723 0.36619 0.0
H1257 H 0.76621 0.73751 0.38349 0.0
H1258 H 0.69352 0.72983 0.36319 0.0
H1259 H 0.68191 0.75782 0.35851 0.0
C1260 C 0.24261 0.98156 0.40674 0.0
C1261 C 0.24418 0.00569 0.39571 0.0
C1262 C 0.22135 0.96577 0.36821 0.0
C1263 C 0.21553 0.94094 0.37978 0.0
N1264 N 0.21363 0.92486 0.41098 0.0
N1265 N 0.22789 0.0188 0.36668 0.0
C1266 C 0.22426 0.94869 0.39933 0.0
C1267 C 0.2315 0.99728 0.37662 0.0
N1268 N 0.25924 0.98998 0.42408 0.0
N1269 N 0.21859 0.95977 0.34924 0.0
H1270 H 0.23371 0.04173 0.37249 0.0
H1271 H 0.21593 0.01256 0.35325 0.0
H1272 H 0.21307 0.93748 0.34255 0.0
H1273 H 0.22541 0.97791 0.34035 0.0
H1274 H 0.26109 0.97333 0.43192 0.0
H1275 H 0.2739 0.01394 0.42977 0.0
H1276 H 0.21704 0.92957 0.42549 0.0
H1277 H 0.19815 0.90062 0.40621 0.0
C1278 C 0.55627 0.70161 0.30526 0.0
C1279 C 0.56816 0.68049 0.30137 0.0
C1280 C 0.62236 0.72356 0.3134 0.0
C1281 C 0.6096 0.74305 0.31946 0.0
N1282 N 0.56376 0.7491 0.3236 0.0
N1283 N 0.6117 0.66965 0.30328 0.0
C1284 C 0.57637 0.7317 0.31604 0.0
C1285 C 0.60108 0.69106 0.30571 0.0
N1286 N 0.52596 0.69319 0.29824 0.0
N1287 N 0.65475 0.73612 0.31504 0.0
H1288 H 0.59682 0.64571 0.29763 0.0
H1289 H 0.63462 0.67484 0.3081 0.0
H1290 H 0.67095 0.75953 0.32108 0.0
H1291 H 0.66572 0.7243 0.30917 0.0
H1292 H 0.51716 0.70903 0.29893 0.0
H1293 H 0.51058 0.6714 0.2901 0.0
H1294 H 0.53928 0.74027 0.32337 0.0
H1295 H 0.57766 0.77143 0.33142 0.0
C1296 C 0.3166 0.89211 0.33276 0.0
C1297 C 0.31261 0.87806 0.31418 0.0
C1298 C 0.25431 0.85171 0.31388 0.0
C1299 C 0.25822 0.8637 0.33297 0.0
N1300 N 0.2928 0.89228 0.36134 0.0
N1301 N 0.27803 0.83983 0.28821 0.0
C1302 C 0.28931 0.88277 0.34268 0.0
C1303 C 0.28154 0.85658 0.30505 0.0
N1304 N 0.34634 0.91562 0.3406 0.0
N1305 N 0.22461 0.83601 0.30405 0.0
H1306 H 0.29738 0.8425 0.28134 0.0
H1307 H 0.25612 0.82119 0.2818 0.0
H1308 H 0.20369 0.83013 0.31011 0.0
H1309 H 0.22082 0.83063 0.2896 0.0
H1310 H 0.35048 0.92939 0.35325 0.0
H1311 H 0.36682 0.92342 0.33371 0.0
H1312 H 0.31458 0.90287 0.36969 0.0
H1313 H 0.27358 0.88773 0.36887 0.0
C1314 C 0.08858 0.40367 0.33273 0.0
C1315 C 0.10744 0.43051 0.32295 0.0
C1316 C 0.15401 0.42426 0.32992 0.0
C1317 C 0.13428 0.39534 0.33783 0.0
N1318 N 0.08196 0.35488 0.34475 0.0
N1319 N 0.15684 0.46432 0.31007 0.0
C1320 C 0.10135 0.3844 0.33883 0.0
C1321 C 0.13986 0.4403 0.32097 0.0
N1322 N 0.05867 0.39694 0.33638 0.0
N1323 N 0.18643 0.43697 0.33155 0.0
H1324 H 0.14751 0.4771 0.30352 0.0
H1325 H 0.17928 0.46994 0.30631 0.0
H1326 H 0.19766 0.4262 0.3384 0.0
H1327 H 0.20244 0.45961 0.32771 0.0
H1328 H 0.04507 0.37989 0.34516 0.0
H1329 H 0.04838 0.41024 0.33179 0.0
H1330 H 0.05716 0.34399 0.34387 0.0
H1331 H 0.09036 0.33994 0.34919 0.0
C1332 C 0.28178 0.4329 0.30521 0.0
C1333 C 0.31118 0.43619 0.31259 0.0
C1334 C 0.28598 0.40819 0.33945 0.0
C1335 C 0.25593 0.40215 0.33112 0.0
N1336 N 0.22421 0.40509 0.30493 0.0
N1337 N 0.34084 0.42348 0.33523 0.0
C1338 C 0.25354 0.41346 0.31366 0.0
C1339 C 0.31325 0.42309 0.32939 0.0
N1340 N 0.28106 0.44923 0.29047 0.0
N1341 N 0.2884 0.3994 0.35689 0.0
H1342 H 0.36124 0.43402 0.32819 0.0
H1343 H 0.34285 0.41116 0.34614 0.0
H1344 H 0.26879 0.38701 0.36433 0.0
H1345 H 0.31012 0.4063 0.36458 0.0
H1346 H 0.26112 0.45065 0.28572 0.0
H1347 H 0.30127 0.46378 0.28391 0.0
H1348 H 0.22055 0.40883 0.29114 0.0
H1349 H 0.20305 0.39247 0.31103 0.0
C1350 C 0.56199 0.84729 0.30103 0.0
C1351 C 0.56581 0.87797 0.30659 0.0
C1352 C 0.61142 0.89041 0.32917 0.0
C1353 C 0.60852 0.86037 0.32294 0.0
N1354 N 0.58583 0.81334 0.30042 0.0
N1355 N 0.59688 0.93099 0.32348 0.0
C1356 C 0.58515 0.83968 0.30813 0.0
C1357 C 0.5914 0.90025 0.31993 0.0
N1358 N 0.53572 0.8251 0.28936 0.0
N1359 N 0.63252 0.90897 0.34433 0.0
H1360 H 0.58235 0.93883 0.31718 0.0
H1361 H 0.61711 0.94946 0.3315 0.0
H1362 H 0.64793 0.90281 0.35126 0.0
H1363 H 0.63332 0.92931 0.35089 0.0
H1364 H 0.52963 0.80107 0.28653 0.0
H1365 H 0.51855 0.83 0.28355 0.0
H1366 H 0.57151 0.79907 0.28838 0.0
H1367 H 0.60284 0.80743 0.30507 0.0
C1368 C 0.0897 0.6937 0.33091 0.0
C1369 C 0.10866 0.6852 0.32046 0.0
C1370 C 0.15356 0.7409 0.32591 0.0
C1371 C 0.13486 0.7493 0.33685 0.0
N1372 N 0.08779 0.73237 0.35311 0.0
N1373 N 0.15957 0.69856 0.30991 0.0
C1374 C 0.10374 0.72529 0.3404 0.0
C1375 C 0.14086 0.70825 0.31843 0.0
N1376 N 0.05795 0.6718 0.33129 0.0
N1377 N 0.18369 0.76412 0.32291 0.0
H1378 H 0.15091 0.67498 0.30393 0.0
H1379 H 0.18414 0.71312 0.30971 0.0
H1380 H 0.19548 0.78718 0.3301 0.0
H1381 H 0.19685 0.76099 0.31299 0.0
H1382 H 0.04184 0.6776 0.33673 0.0
H1383 H 0.04699 0.6482 0.32482 0.0
H1384 H 0.06667 0.71507 0.35781 0.0
H1385 H 0.09692 0.75514 0.36031 0.0
C1386 C 0.76411 0.95825 0.40615 0.0
C1387 C 0.77191 0.98582 0.3966 0.0
C1388 C 0.73529 0.95121 0.36935 0.0
C1389 C 0.72632 0.92385 0.3793 0.0
N1390 N 0.72688 0.90165 0.40836 0.0
N1391 N 0.76036 0.00951 0.37086 0.0
C1392 C 0.73893 0.9275 0.39813 0.0
C1393 C 0.75617 0.98259 0.37867 0.0
N1394 N 0.78183 0.96118 0.42243 0.0
N1395 N 0.72412 0.94719 0.35094 0.0
H1396 H 0.77523 0.03289 0.37739 0.0
H1397 H 0.74704 0.00869 0.35874 0.0
H1398 H 0.70737 0.92477 0.34389 0.0
H1399 H 0.73282 0.96575 0.34232 0.0
H1400 H 0.77965 0.94147 0.4289 0.0
H1401 H 0.80075 0.98321 0.42868 0.0
H1402 H 0.73265 0.90364 0.42271 0.0
H1403 H 0.70916 0.87849 0.40282 0.0
C1404 C 0.0344 0.78849 0.38556 0.0
C1405 C 0.03629 0.80992 0.40063 0.0
C1406 C 0.09278 0.847 0.39694 0.0
C1407 C 0.09041 0.82626 0.3812 0.0
N1408 N 0.05702 0.78058 0.35821 0.0
N1409 N 0.06534 0.86134 0.41936 0.0
C1410 C 0.06062 0.79805 0.37477 0.0
C1411 C 0.06503 0.83964 0.40603 0.0
N1412 N 0.00783 0.75839 0.38197 0.0
N1413 N 0.1215 0.87406 0.40301 0.0
H1414 H 0.04563 0.85653 0.4265 0.0
H1415 H 0.08426 0.88491 0.42257 0.0
H1416 H 0.14129 0.88256 0.39546 0.0
H1417 H 0.12616 0.88767 0.4158 0.0
H1418 H 0.00646 0.74016 0.37269 0.0
H1419 H 0.98804 0.75053 0.38951 0.0
H1420 H 0.03496 0.76221 0.35179 0.0
H1421 H 0.07548 0.78587 0.34993 0.0
C1422 C 0.25736 0.2755 0.36948 0.0
C1423 C 0.24044 0.2487 0.37967 0.0
C1424 C 0.19312 0.25459 0.37643 0.0
C1425 C 0.20978 0.28103 0.3659 0.0
N1426 N 0.2547 0.31236 0.34886 0.0
N1427 N 0.19068 0.20822 0.38955 0.0
C1428 C 0.24103 0.29018 0.36133 0.0
C1429 C 0.20773 0.2367 0.38198 0.0
N1430 N 0.28922 0.28744 0.3681 0.0
N1431 N 0.16428 0.24788 0.38218 0.0
H1432 H 0.20083 0.19487 0.39425 0.0
H1433 H 0.16596 0.19642 0.38973 0.0
H1434 H 0.15288 0.26062 0.37863 0.0
H1435 H 0.15276 0.23141 0.39171 0.0
H1436 H 0.30385 0.30921 0.36282 0.0
H1437 H 0.30158 0.27644 0.37326 0.0
H1438 H 0.27619 0.31797 0.34361 0.0
H1439 H 0.24312 0.32316 0.3424 0.0
C1440 C 0.71955 0.56543 0.7267 0.0
C1441 C 0.69385 0.57168 0.72541 0.0
C1442 C 0.72427 0.61734 0.7075 0.0
C1443 C 0.74905 0.60974 0.70774 0.0
N1444 N 0.76787 0.57307 0.71426 0.0
N1445 N 0.66898 0.59958 0.71196 0.0
C1446 C 0.746 0.58275 0.71641 0.0
C1447 C 0.69537 0.59645 0.71499 0.0
N1448 N 0.71909 0.54363 0.7382 0.0
N1449 N 0.7289 0.64531 0.70091 0.0
H1450 H 0.64753 0.58499 0.71746 0.0
H1451 H 0.66744 0.61479 0.70279 0.0
H1452 H 0.74979 0.66133 0.6954 0.0
H1453 H 0.71321 0.65401 0.70226 0.0
H1454 H 0.73865 0.54066 0.74137 0.0
H1455 H 0.69996 0.53021 0.74582 0.0
H1456 H 0.76539 0.55178 0.7187 0.0
H1457 H 0.7871 0.58481 0.70643 0.0
C1458 C 0.41457 0.10223 0.71509 0.0
C1459 C 0.43928 0.12534 0.72859 0.0
C1460 C 0.42164 0.16421 0.72326 0.0
C1461 C 0.39543 0.14032 0.7108 0.0
N1462 N 0.36371 0.08502 0.69707 0.0
N1463 N 0.46344 0.17618 0.74794 0.0
C1464 C 0.39101 0.10886 0.70728 0.0
C1465 C 0.44189 0.15568 0.73342 0.0
N1466 N 0.41405 0.07426 0.70945 0.0
N1467 N 0.42823 0.19549 0.72464 0.0
H1468 H 0.47923 0.17112 0.75545 0.0
H1469 H 0.46394 0.19695 0.75353 0.0
H1470 H 0.41453 0.20287 0.71702 0.0
H1471 H 0.44888 0.21467 0.73193 0.0
H1472 H 0.39891 0.0581 0.69817 0.0
H1473 H 0.43041 0.06824 0.71522 0.0
H1474 H 0.35747 0.06082 0.69561 0.0
H1475 H 0.34578 0.08889 0.69131 0.0
C1476 C 0.91745 0.33349 0.70969 0.0
C1477 C 0.91723 0.34057 0.72906 0.0
C1478 C 0.88788 0.28279 0.73297 0.0
C1479 C 0.8883 0.27574 0.71363 0.0
N1480 N 0.90688 0.2933 0.68396 0.0
N1481 N 0.90632 0.3231 0.75976 0.0
C1482 C 0.90403 0.30082 0.70208 0.0
C1483 C 0.90385 0.31552 0.74091 0.0
N1484 N 0.93003 0.35812 0.69856 0.0
N1485 N 0.87077 0.25817 0.74349 0.0
H1486 H 0.91603 0.34667 0.76601 0.0
H1487 H 0.90059 0.30636 0.76946 0.0
H1488 H 0.85917 0.23389 0.73824 0.0
H1489 H 0.86613 0.26153 0.75708 0.0
H1490 H 0.92737 0.35474 0.68404 0.0
H1491 H 0.94223 0.38245 0.70383 0.0
H1492 H 0.92099 0.31023 0.67529 0.0
H1493 H 0.89671 0.26962 0.67779 0.0
C1494 C 0.21991 0.03453 0.63754 0.0
C1495 C 0.23109 0.01272 0.63396 0.0
C1496 C 0.28552 0.05496 0.64627 0.0
C1497 C 0.27337 0.07513 0.65207 0.0
N1498 N 0.22821 0.08258 0.65564 0.0
N1499 N 0.27369 1.00052 0.63652 0.0
C1500 C 0.24035 0.06454 0.64835 0.0
C1501 C 0.26378 0.02254 0.63861 0.0
N1502 N 0.18996 0.02684 0.63022 0.0
N1503 N 0.3178 0.06679 0.64814 0.0
H1504 H 0.25847 0.9766 0.63094 0.0
H1505 H 0.29634 0.00519 0.64158 0.0
H1506 H 0.33431 0.09013 0.65415 0.0
H1507 H 0.3284 0.05444 0.64247 0.0
H1508 H 0.18174 0.04316 0.6307 0.0
H1509 H 0.1744 0.00516 0.62204 0.0
H1510 H 0.2038 0.07433 0.65519 0.0
H1511 H 0.24237 0.10486 0.66347 0.0
C1512 C 0.95547 0.17675 0.64838 0.0
C1513 C 0.9805 0.20913 0.6481 0.0
C1514 C 0.95278 0.22852 0.66781 0.0
C1515 C 0.92811 0.19607 0.66841 0.0
N1516 N 0.90919 0.13909 0.66294 0.0
N1517 N 0.00625 0.26534 0.66004 0.0
C1518 C 0.93051 0.17009 0.65987 0.0
C1519 C 0.98007 0.23492 0.65852 0.0
N1520 N 0.95495 0.15253 0.63709 0.0
N1521 N 0.95001 0.25322 0.67615 0.0
H1522 H 0.02658 0.27097 0.65335 0.0
H1523 H 0.009 0.2846 0.66897 0.0
H1524 H 0.93213 0.24936 0.68469 0.0
H1525 H 0.96465 0.27739 0.67415 0.0
H1526 H 0.93562 0.129 0.63503 0.0
H1527 H 0.97287 0.15646 0.62856 0.0
H1528 H 0.91142 0.11929 0.65863 0.0
H1529 H 0.89063 0.13336 0.67126 0.0
C1530 C 0.80273 0.77946 0.6565 0.0
C1531 C 0.76939 0.76345 0.65074 0.0
C1532 C 0.76389 0.71202 0.65835 0.0
C1533 C 0.79652 0.72863 0.66578 0.0
N1534 N 0.84612 0.77862 0.67454 0.0
N1535 N 0.71709 0.71587 0.64915 0.0
C1536 C 0.81568 0.76254 0.66569 0.0
C1537 C 0.74961 0.73006 0.65247 0.0
N1538 N 0.82223 0.81038 0.65247 0.0
N1539 N 0.74666 0.679 0.65667 0.0
H1540 H 0.70572 0.72841 0.64499 0.0
H1541 H 0.70126 0.6925 0.65209 0.0
H1542 H 0.75608 0.66494 0.66118 0.0
H1543 H 0.72385 0.66546 0.6495 0.0
H1544 H 0.8471 0.82206 0.65449 0.0
H1545 H 0.81374 0.82349 0.64551 0.0
H1546 H 0.85998 0.80371 0.67673 0.0
H1547 H 0.85673 0.76693 0.681 0.0
C1548 C 0.97575 0.75894 0.66338 0.0
C1549 C 0.97311 0.77069 0.64614 0.0
C1550 C 0.91677 0.75299 0.64924 0.0
C1551 C 0.91865 0.73866 0.66554 0.0
N1552 N 0.94847 0.725 0.68743 0.0
N1553 N 0.94094 0.77663 0.62157 0.0
C1554 C 0.94782 0.74101 0.67251 0.0
C1555 C 0.94356 0.76714 0.63878 0.0
N1556 N 0.00502 0.76516 0.67106 0.0
N1557 N 0.88952 0.75363 0.64402 0.0
H1558 H 0.96031 0.78829 0.61382 0.0
H1559 H 0.91927 0.77112 0.61435 0.0
H1560 H 0.8696 0.74358 0.65144 0.0
H1561 H 0.88748 0.76639 0.63338 0.0
H1562 H 0.0093 0.76058 0.68454 0.0
H1563 H 0.02573 0.77685 0.66437 0.0
H1564 H 0.96776 0.72225 0.69181 0.0
H1565 H 0.92883 0.71271 0.6949 0.0
C1566 C 0.25753 0.23303 0.65138 0.0
C1567 C 0.23267 0.21105 0.63757 0.0
C1568 C 0.2517 0.17257 0.63983 0.0
C1569 C 0.2741 0.19285 0.65513 0.0
N1570 N 0.29713 0.24118 0.67668 0.0
N1571 N 0.20338 0.15842 0.62001 0.0
C1572 C 0.27683 0.22287 0.66119 0.0
C1573 C 0.22906 0.18042 0.63211 0.0
N1574 N 0.26303 0.26379 0.65483 0.0
N1575 N 0.25278 0.1464 0.63227 0.0
H1576 H 0.1866 0.16346 0.61375 0.0
H1577 H 0.19733 0.13439 0.61723 0.0
H1578 H 0.26938 0.14026 0.63739 0.0
H1579 H 0.2393 0.13253 0.61993 0.0
H1580 H 0.28278 0.28206 0.66329 0.0
H1581 H 0.24914 0.27188 0.64802 0.0
H1582 H 0.29771 0.2615 0.68308 0.0
H1583 H 0.31206 0.23481 0.68399 0.0
C1584 C 0.75644 0.02742 0.6672 0.0
C1585 C 0.77016 0.01862 0.65286 0.0
C1586 C 0.81107 0.07534 0.65207 0.0
C1587 C 0.79896 0.08397 0.66749 0.0
N1588 N 0.76217 0.06806 0.69114 0.0
N1589 N 0.81308 0.03268 0.63354 0.0
C1590 C 0.77232 0.05993 0.67553 0.0
C1591 C 0.79814 0.04218 0.64577 0.0
N1592 N 0.7276 0.00488 0.67237 0.0
N1593 N 0.83486 0.09872 0.64336 0.0
H1594 H 0.80422 0.00862 0.62846 0.0
H1595 H 0.83561 0.0482 0.62958 0.0
H1596 H 0.84674 0.12321 0.64812 0.0
H1597 H 0.84166 0.09413 0.63065 0.0
H1598 H 0.71438 0.01043 0.68114 0.0
H1599 H 0.7155 0.98074 0.66673 0.0
H1600 H 0.74566 0.05116 0.69898 0.0
H1601 H 0.77148 0.09174 0.69705 0.0
C1602 C 0.42912 0.29084 0.73854 0.0
C1603 C 0.43664 0.31819 0.72882 0.0
C1604 C 0.40023 0.28301 0.70165 0.0
C1605 C 0.39146 0.25587 0.71177 0.0
N1606 N 0.39236 0.23419 0.74097 0.0
N1607 N 0.42483 0.34123 0.70283 0.0
C1608 C 0.40418 0.25988 0.73061 0.0
C1609 C 0.4209 0.31455 0.71083 0.0
N1610 N 0.44685 0.29422 0.7549 0.0
N1611 N 0.38901 0.27863 0.68322 0.0
H1612 H 0.43955 0.36472 0.70923 0.0
H1613 H 0.41144 0.3401 0.69066 0.0
H1614 H 0.37238 0.25609 0.67627 0.0
H1615 H 0.39758 0.29704 0.67449 0.0
H1616 H 0.44489 0.27474 0.76154 0.0
H1617 H 0.46557 0.31644 0.76109 0.0
H1618 H 0.39819 0.23638 0.75533 0.0
H1619 H 0.37475 0.21092 0.73551 0.0
C1620 C 0.72852 0.171 0.73619 0.0
C1621 C 0.70088 0.14032 0.73082 0.0
C1622 C 0.72776 0.12971 0.70592 0.0
C1623 C 0.75634 0.1591 0.71233 0.0
N1624 N 0.78487 0.20754 0.73379 0.0
N1625 N 0.67508 0.08848 0.71247 0.0
C1626 C 0.75699 0.17964 0.7276 0.0
C1627 C 0.70072 0.11915 0.71615 0.0
N1628 N 0.72712 0.19233 0.74901 0.0
N1629 N 0.7263 0.11203 0.68991 0.0
H1630 H 0.65479 0.07997 0.7196 0.0
H1631 H 0.67485 0.07058 0.70346 0.0
H1632 H 0.74572 0.11842 0.68224 0.0
H1633 H 0.70524 0.09232 0.68338 0.0
H1634 H 0.74513 0.21634 0.75212 0.0
H1635 H 0.70686 0.18669 0.75577 0.0
H1636 H 0.78842 0.22145 0.7463 0.0
H1637 H 0.80514 0.21633 0.72665 0.0
C1638 C 0.87664 0.58614 0.729 0.0
C1639 C 0.90109 0.58544 0.71955 0.0
C1640 C 0.89314 0.61476 0.69509 0.0
C1641 C 0.87121 0.61842 0.70563 0.0
N1642 N 0.84498 0.61157 0.73374 0.0
N1643 N 0.93545 0.60169 0.69483 0.0
C1644 C 0.86374 0.60522 0.72291 0.0
C1645 C 0.91001 0.60028 0.70283 0.0
N1646 N 0.86513 0.56781 0.74347 0.0
N1647 N 0.89788 0.62521 0.67773 0.0
H1648 H 0.9482 0.59114 0.70007 0.0
H1649 H 0.94546 0.61524 0.68385 0.0
H1650 H 0.88691 0.63709 0.67192 0.0
H1651 H 0.91089 0.62018 0.66852 0.0
H1652 H 0.84498 0.56456 0.74959 0.0
H1653 H 0.87394 0.55342 0.74833 0.0
H1654 H 0.8419 0.60594 0.74745 0.0
H1655 H 0.83427 0.62463 0.72955 0.0
C1656 C 0.48675 0.01514 0.17785 0.0
C1657 C 0.47498 0.98177 0.17909 0.0
C1658 C 0.47609 0.97298 0.14531 0.0
C1659 C 0.49058 0.0068 0.14438 0.0
N1660 N 0.51171 0.06066 0.15951 0.0
N1661 N 0.46025 0.92892 0.16472 0.0
C1662 C 0.49634 0.02805 0.16059 0.0
C1663 C 0.46995 0.96063 0.16298 0.0
N1664 N 0.48828 0.03433 0.19314 0.0
N1665 N 0.4679 0.95268 0.12924 0.0
H1666 H 0.45424 0.9187 0.17726 0.0
H1667 H 0.45982 0.91303 0.15409 0.0
H1668 H 0.47317 0.96089 0.11615 0.0
H1669 H 0.45404 0.92765 0.12858 0.0
H1670 H 0.49341 0.05806 0.19281 0.0
H1671 H 0.48217 0.02581 0.20609 0.0
H1672 H 0.52007 0.07783 0.17108 0.0
H1673 H 0.51782 0.07086 0.14698 0.0
C1674 C 0.96655 0.48383 0.17411 0.0
C1675 C 0.99559 0.48591 0.18109 0.0
C1676 C 0.0048 0.47407 0.14932 0.0
C1677 C 0.97786 0.4759 0.14222 0.0
N1678 N 0.93558 0.48716 0.14755 0.0
N1679 N 0.0451 0.48809 0.17529 0.0
C1680 C 0.95931 0.48195 0.15454 0.0
C1681 C 0.01547 0.48232 0.16869 0.0
N1682 N 0.94554 0.48286 0.1862 0.0
N1683 N 0.01967 0.46363 0.13763 0.0
H1684 H 0.05395 0.49439 0.18937 0.0
H1685 H 0.06201 0.48938 0.16663 0.0
H1686 H 0.0124 0.45715 0.12335 0.0
H1687 H 0.03728 0.45854 0.14233 0.0
H1688 H 0.92254 0.478 0.18185 0.0
H1689 H 0.94999 0.48399 0.20064 0.0
H1690 H 0.92362 0.49518 0.15589 0.0
H1691 H 0.92963 0.48614 0.13329 0.0
C1692 C 0.43881 0.46672 0.15555 0.0
C1693 C 0.45483 0.46215 0.17118 0.0
C1694 C 0.47577 0.43727 0.15002 0.0
C1695 C 0.46803 0.45085 0.13508 0.0
N1696 N 0.42129 0.45156 0.12252 0.0
N1697 N 0.48617 0.43967 0.18345 0.0
C1698 C 0.44313 0.45772 0.13734 0.0
C1699 C 0.47236 0.44608 0.16849 0.0
N1700 N 0.42051 0.48065 0.15799 0.0
N1701 N 0.48095 0.41218 0.14634 0.0
H1702 H 0.48321 0.44468 0.19722 0.0
H1703 H 0.50192 0.43101 0.18206 0.0
H1704 H 0.4774 0.4014 0.13272 0.0
H1705 H 0.48397 0.39942 0.1567 0.0
H1706 H 0.41122 0.48758 0.14693 0.0
H1707 H 0.41626 0.48701 0.17114 0.0
H1708 H 0.40087 0.45328 0.1237 0.0
H1709 H 0.42182 0.44076 0.10964 0.0
C1710 C 0.05895 0.57353 0.86897 0.0
C1711 C 0.02681 0.55567 0.86071 0.0
C1712 C 0.00856 0.55547 0.89152 0.0
C1713 C 0.03958 0.56456 0.89968 0.0
N1714 N 0.09275 0.60743 0.89648 0.0
N1715 N 0.97039 0.53238 0.86393 0.0
C1716 C 0.06496 0.58106 0.88863 0.0
C1717 C 1.00136 0.54787 0.87189 0.0
N1718 N 0.08365 0.58285 0.85822 0.0
N1719 N 0.98756 0.55798 0.90225 0.0
H1720 H 0.96416 0.52714 0.84952 0.0
H1721 H 0.95093 0.52311 0.87175 0.0
H1722 H 0.99425 0.56743 0.91627 0.0
H1723 H 0.96552 0.5545 0.8968 0.0
H1724 H 0.10738 0.59318 0.86396 0.0
H1725 H 0.08017 0.57848 0.84368 0.0
H1726 H 0.1111 0.62214 0.88874 0.0
H1727 H 0.09503 0.61697 0.91026 0.0
C1728 C 0.5526 0.53252 0.877 0.0
C1729 C 0.53112 0.52637 0.86095 0.0
C1730 C 0.49224 0.52729 0.88073 0.0
C1731 C 0.5142 0.53465 0.89673 0.0
N1732 N 0.56785 0.55178 0.90993 0.0
N1733 N 0.48419 0.52558 0.84708 0.0
C1734 C 0.54525 0.53967 0.8948 0.0
C1735 C 0.50209 0.52625 0.8627 0.0
N1736 N 0.57923 0.52999 0.87538 0.0
N1737 N 0.46151 0.51977 0.88276 0.0
H1738 H 0.49091 0.52505 0.83366 0.0
H1739 H 0.46443 0.52864 0.84753 0.0
H1740 H 0.45329 0.52018 0.89573 0.0
H1741 H 0.44346 0.51062 0.87168 0.0
H1742 H 0.59375 0.53047 0.8868 0.0
H1743 H 0.58559 0.52498 0.86259 0.0
H1744 H 0.59181 0.55902 0.90904 0.0
H1745 H 0.5633 0.55744 0.92317 0.0
C1746 C 0.49972 0.99841 0.86087 0.0
C1747 C 0.52748 0.02928 0.86111 0.0
C1748 C 0.53836 0.03087 0.89497 0.0
C1749 C 0.50848 1.00201 0.89498 0.0
N1750 N 0.45828 0.96082 0.87833 0.0
N1751 N 0.57132 0.07701 0.87859 0.0
C1752 C 0.48853 0.98635 0.87802 0.0
C1753 C 0.54642 0.04607 0.87822 0.0
N1754 N 0.48443 0.98031 0.84421 0.0
N1755 N 0.55934 0.04331 0.91085 0.0
H1756 H 0.57806 0.0889 0.86663 0.0
H1757 H 0.58372 0.09178 0.8909 0.0
H1758 H 0.55436 0.03269 0.92333 0.0
H1759 H 0.58274 0.06241 0.91125 0.0
H1760 H 0.46608 0.95631 0.84318 0.0
H1761 H 0.4921 0.98826 0.83135 0.0
H1762 H 0.44142 0.95077 0.86663 0.0
H1763 H 0.44895 0.95143 0.8906 0.0
C1764 C 0.15707 0.35306 0.51273 0.0
C1765 C 0.13466 0.31958 0.51248 0.0
C1766 C 0.11754 0.31831 0.47965 0.0
C1767 C 0.14557 0.34852 0.47874 0.0
N1768 N 0.17185 0.40056 0.49673 0.0
N1769 N 0.0923 0.27006 0.49543 0.0
C1770 C 0.16001 0.36807 0.49599 0.0
C1771 C 0.1143 0.30214 0.4959 0.0
N1772 N 0.1757 0.37054 0.52883 0.0
N1773 N 0.09187 0.30792 0.46663 0.0
H1774 H 0.08902 0.25723 0.50704 0.0
H1775 H 0.07912 0.25588 0.48307 0.0
H1776 H 0.09158 0.32266 0.45664 0.0
H1777 H 0.06977 0.28739 0.46751 0.0
H1778 H 0.19476 0.39411 0.52918 0.0
H1779 H 0.17328 0.36086 0.54159 0.0
H1780 H 0.18001 0.41584 0.50916 0.0
H1781 H 0.16917 0.41118 0.48505 0.0
C1782 C 0.67206 0.82238 0.50137 0.0
C1783 C 0.65107 0.82367 0.51379 0.0
C1784 C 0.61467 0.81971 0.48733 0.0
C1785 C 0.63441 0.81586 0.47494 0.0
N1786 N 0.67816 0.80671 0.47005 0.0
N1787 N 0.59976 0.81757 0.51888 0.0
C1788 C 0.66203 0.81516 0.48193 0.0
C1789 C 0.62154 0.82054 0.50685 0.0
N1790 N 0.70208 0.82935 0.50804 0.0
N1791 N 0.59011 0.82376 0.48049 0.0
H1792 H 0.60397 0.81794 0.53327 0.0
H1793 H 0.57651 0.81188 0.51448 0.0
H1794 H 0.58439 0.82337 0.46626 0.0
H1795 H 0.5771 0.83018 0.48894 0.0
H1796 H 0.71961 0.83233 0.49944 0.0
H1797 H 0.71053 0.83502 0.5222 0.0
H1798 H 0.6964 0.80244 0.47462 0.0
H1799 H 0.67141 0.80101 0.4557 0.0
C1800 C 0.14721 0.77872 0.50622 0.0
C1801 C 0.12344 0.78749 0.50797 0.0
C1802 C 0.10856 0.77458 0.47426 0.0
C1803 C 0.13804 0.77581 0.4723 0.0
N1804 N 0.1654 0.75066 0.48594 0.0
N1805 N 0.07916 0.79114 0.49348 0.0
C1806 C 0.15208 0.76965 0.48815 0.0
C1807 C 0.10295 0.78403 0.49198 0.0
N1808 N 0.16543 0.77951 0.52167 0.0
N1809 N 0.08471 0.7607 0.45986 0.0
H1810 H 0.0741 0.79801 0.50623 0.0
H1811 H 0.06592 0.7922 0.48186 0.0
H1812 H 0.08733 0.74991 0.44759 0.0
H1813 H 0.06166 0.75652 0.46101 0.0
H1814 H 0.18532 0.77672 0.52086 0.0
H1815 H 0.16151 0.78449 0.53522 0.0
H1816 H 0.17357 0.74291 0.49709 0.0
H1817 H 0.16389 0.73911 0.47285 0.0
C1818 C 0.72077 0.90154 0.20232 0.0
C1819 C 0.68799 0.88688 0.19545 0.0
C1820 C 0.67537 0.89345 0.22707 0.0
C1821 C 0.70566 0.89861 0.23409 0.0
N1822 N 0.76004 0.9342 0.22836 0.0
N1823 N 0.63376 0.87116 0.20121 0.0
C1824 C 0.72976 0.91052 0.22179 0.0
C1825 C 0.66519 0.88394 0.20776 0.0
N1826 N 0.7432 0.90645 0.19041 0.0
N1827 N 0.6586 0.902 0.23827 0.0
H1828 H 0.62532 0.86419 0.18709 0.0
H1829 H 0.61591 0.86558 0.21005 0.0
H1830 H 0.66822 0.91352 0.25176 0.0
H1831 H 0.63764 0.90152 0.23342 0.0
H1832 H 0.76689 0.91398 0.1951 0.0
H1833 H 0.73767 0.90125 0.17596 0.0
H1834 H 0.77803 0.94595 0.21973 0.0
H1835 H 0.76552 0.94489 0.24214 0.0
C1836 C 0.1754 0.85039 0.19849 0.0
C1837 C 0.20328 0.848 0.19755 0.0
C1838 C 0.21528 0.86004 0.23156 0.0
C1839 C 0.18519 0.85799 0.23263 0.0
N1840 N 0.13453 0.84707 0.21737 0.0
N1841 N 0.24845 0.84739 0.21308 0.0
C1842 C 0.16474 0.85229 0.21615 0.0
C1843 C 0.22304 0.8522 0.21406 0.0
N1844 N 0.15939 0.85131 0.18246 0.0
N1845 N 0.23662 0.87009 0.24722 0.0
H1846 H 0.25516 0.84208 0.20049 0.0
H1847 H 0.26151 0.84638 0.22478 0.0
H1848 H 0.23176 0.87618 0.26026 0.0
H1849 H 0.26011 0.87513 0.24703 0.0
H1850 H 0.14084 0.85636 0.18237 0.0
H1851 H 0.1666 0.85005 0.16927 0.0
H1852 H 0.11731 0.83916 0.20591 0.0
H1853 H 0.12563 0.84797 0.23004 0.0
C1854 C 0.21902 0.3885 0.21364 0.0
C1855 C 0.19985 0.37244 0.19648 0.0
C1856 C 0.16018 0.32967 0.21314 0.0
C1857 C 0.18044 0.34439 0.2301 0.0
N1858 N 0.2319 0.38431 0.24601 0.0
N1859 N 0.15588 0.32441 0.17933 0.0
C1860 C 0.21074 0.37281 0.23021 0.0
C1861 C 0.17154 0.34198 0.19607 0.0
N1862 N 0.24441 0.41922 0.21424 0.0
N1863 N 0.12955 0.30483 0.21339 0.0
H1864 H 0.16367 0.33247 0.16652 0.0
H1865 H 0.13705 0.30062 0.17818 0.0
H1866 H 0.12006 0.29537 0.22562 0.0
H1867 H 0.11261 0.29555 0.20172 0.0
H1868 H 0.25709 0.43349 0.22664 0.0
H1869 H 0.25127 0.4315 0.20241 0.0
H1870 H 0.25551 0.40297 0.24642 0.0
H1871 H 0.22679 0.3733 0.25836 0.0
C1872 C 0.7996 0.63503 0.83112 0.0
C1873 C 0.81971 0.65248 0.84779 0.0
C1874 C 0.8564 0.69512 0.82978 0.0
C1875 C 0.83501 0.67892 0.81336 0.0
N1876 N 0.78338 0.63671 0.79892 0.0
N1877 N 0.86388 0.70183 0.86363 0.0
C1878 C 0.80574 0.64979 0.81418 0.0
C1879 C 0.84715 0.68336 0.8473 0.0
N1880 N 0.77535 0.60391 0.83132 0.0
N1881 N 0.88605 0.72103 0.82856 0.0
H1882 H 0.8577 0.69411 0.87674 0.0
H1883 H 0.88204 0.72586 0.86425 0.0
H1884 H 0.89378 0.73029 0.81598 0.0
H1885 H 0.90398 0.73161 0.83972 0.0
H1886 H 0.76219 0.58876 0.81926 0.0
H1887 H 0.77007 0.59222 0.84343 0.0
H1888 H 0.76026 0.61747 0.79926 0.0
H1889 H 0.78692 0.64688 0.78629 0.0
C1890 C 0.33685 0.1499 0.83412 0.0
C1891 C 0.31609 0.15133 0.84668 0.0
C1892 C 0.27974 0.14808 0.82038 0.0
C1893 C 0.29937 0.14438 0.80785 0.0
N1894 N 0.34265 0.13464 0.80264 0.0
N1895 N 0.26493 0.1454 0.85198 0.0
C1896 C 0.32676 0.14312 0.81468 0.0
C1897 C 0.28661 0.14846 0.83986 0.0
N1898 N 0.36677 0.15643 0.84068 0.0
N1899 N 0.25533 0.15253 0.81374 0.0
H1900 H 0.26916 0.14542 0.86634 0.0
H1901 H 0.24171 0.13993 0.84766 0.0
H1902 H 0.24962 0.15252 0.79956 0.0
H1903 H 0.24245 0.15889 0.82234 0.0
H1904 H 0.38419 0.15934 0.832 0.0
H1905 H 0.37526 0.16172 0.85482 0.0
H1906 H 0.3607 0.13 0.80705 0.0
H1907 H 0.33583 0.12925 0.78828 0.0
C1908 C 0.76308 0.11288 0.82385 0.0
C1909 C 0.78326 0.11492 0.83964 0.0
C1910 C 0.80971 0.09514 0.81932 0.0
C1911 C 0.79647 0.10279 0.80376 0.0
N1912 N 0.74377 0.09024 0.79171 0.0
N1913 N 0.82315 0.10349 0.85283 0.0
C1914 C 0.76783 0.10311 0.80598 0.0
C1915 C 0.80553 0.10424 0.83755 0.0
N1916 N 0.74043 0.12152 0.82572 0.0
N1917 N 0.82207 0.07538 0.81658 0.0
H1918 H 0.81969 0.10862 0.86646 0.0
H1919 H 0.84212 0.09925 0.8518 0.0
H1920 H 0.82079 0.06476 0.80324 0.0
H1921 H 0.82954 0.06651 0.82745 0.0
H1922 H 0.72756 0.12354 0.81426 0.0
H1923 H 0.73599 0.12859 0.83862 0.0
H1924 H 0.72119 0.08725 0.79306 0.0
H1925 H 0.7456 0.07904 0.77935 0.0
C1926 C 0.38642 0.23833 0.53652 0.0
C1927 C 0.35364 0.22314 0.52956 0.0
C1928 C 0.34043 0.22858 0.56117 0.0
C1929 C 0.37088 0.23414 0.56818 0.0
N1930 N 0.42518 0.27081 0.56281 0.0
N1931 N 0.29918 0.20671 0.53509 0.0
C1932 C 0.39511 0.24692 0.55602 0.0
C1933 C 0.33055 0.21957 0.54179 0.0
N1934 N 0.40911 0.24393 0.52468 0.0
N1935 N 0.32317 0.23622 0.57248 0.0
H1936 H 0.29108 0.20038 0.5209 0.0
H1937 H 0.2811 0.2006 0.54382 0.0
H1938 H 0.3325 0.24729 0.58608 0.0
H1939 H 0.30203 0.23542 0.5677 0.0
H1940 H 0.43287 0.25189 0.52943 0.0
H1941 H 0.40375 0.23889 0.51021 0.0
H1942 H 0.44321 0.28315 0.55431 0.0
H1943 H 0.43037 0.28096 0.5767 0.0
C1944 C 0.84499 0.19305 0.53172 0.0
C1945 C 0.87335 0.19169 0.53034 0.0
C1946 C 0.88705 0.20541 0.5642 0.0
C1947 C 0.85652 0.20204 0.5658 0.0
N1948 N 0.80457 0.1887 0.55132 0.0
N1949 N 0.92004 0.19318 0.54533 0.0
C1950 C 0.83503 0.19504 0.54961 0.0
C1951 C 0.89421 0.19721 0.54659 0.0
N1952 N 0.82785 0.19294 0.5159 0.0
N1953 N 0.90937 0.21704 0.57946 0.0
H1954 H 0.92621 0.18736 0.53268 0.0
H1955 H 0.93396 0.19319 0.55692 0.0
H1956 H 0.90499 0.22351 0.59254 0.0
H1957 H 0.93308 0.22308 0.57879 0.0
H1958 H 0.80877 0.19713 0.5161 0.0
H1959 H 0.83463 0.19174 0.50257 0.0
H1960 H 0.78677 0.17986 0.54011 0.0
H1961 H 0.79618 0.18964 0.56416 0.0
C1962 C 0.88193 0.71469 0.54661 0.0
C1963 C 0.86242 0.69784 0.52967 0.0
C1964 C 0.82412 0.6551 0.54692 0.0
C1965 C 0.84466 0.67083 0.5637 0.0
N1966 N 0.8961 0.71195 0.57901 0.0
N1967 N 0.81888 0.64883 0.5131 0.0
C1968 C 0.87452 0.69956 0.56339 0.0
C1969 C 0.83471 0.66702 0.52965 0.0
N1970 N 0.90673 0.74565 0.54682 0.0
N1971 N 0.79393 0.62968 0.54755 0.0
H1972 H 0.82612 0.65667 0.50015 0.0
H1973 H 0.80051 0.62485 0.51221 0.0
H1974 H 0.78504 0.6204 0.55993 0.0
H1975 H 0.7767 0.61961 0.53602 0.0
H1976 H 0.91952 0.76042 0.55906 0.0
H1977 H 0.91295 0.75759 0.53484 0.0
H1978 H 0.91948 0.73094 0.57913 0.0
H1979 H 0.89161 0.70136 0.59151 0.0
loop_
_geom_bond_atom_site_label_1
_geom_bond_atom_site_label_2
_geom_bond_distance
_geom_bond_site_symmetry_2
_ccdc_geom_bond_type
C0 C1 1.384 . S
C0 H13 0.947 . S
C0 C35 1.382 . S
C1 C0 1.384 . S
C1 C2 1.378 . S
C2 C1 1.378 . S
C2 C3 1.378 . S
C2 H14 0.952 . S
C3 C2 1.378 . S
C3 H15 0.950 . S
C3 C34 1.383 . S
H4 C23 0.947 . S
H5 C24 0.946 . S
H6 C26 0.953 . S
H7 C27 0.945 . S
H8 C29 0.952 . S
H9 C30 0.949 . S
H10 C32 0.950 . S
H11 C33 0.948 . S
H12 C35 0.951 . S
H13 C0 0.947 . S
H14 C2 0.952 . S
H15 C3 0.950 . S
N16 C19 1.382 . S
N16 C21 1.363 . S
N17 C19 1.371 . S
N17 C20 1.372 . S
N18 C20 1.361 . S
N18 C21 1.377 . S
C19 N16 1.382 . S
C19 N17 1.371 . S
C19 C22 1.480 . S
C20 N17 1.372 . S
C20 N18 1.361 . S
C20 C28 1.457 . S
C21 N16 1.363 . S
C21 N18 1.377 . S
C21 C34 1.479 . S
C22 C19 1.480 . S
C22 C23 1.383 . S
C22 C27 1.385 . S
C23 H4 0.947 . S
C23 C22 1.383 . S
C23 C24 1.388 . S
C24 H5 0.946 . S
C24 C23 1.388 . S
C24 C25 1.384 . S
C25 C24 1.384 . S
C25 C26 1.377 . S
C26 H6 0.953 . S
C26 C25 1.377 . S
C26 C27 1.369 . S
C27 H7 0.945 . S
C27 C22 1.385 . S
C27 C26 1.369 . S
C28 C20 1.457 . S
C28 C29 1.372 . S
C28 C33 1.364 . S
C29 H8 0.952 . S
C29 C28 1.372 . S
C29 C30 1.389 . S
C30 H9 0.949 . S
C30 C29 1.389 . S
C30 C31 1.387 . S
C31 C30 1.387 . S
C31 C32 1.372 . S
C32 H10 0.950 . S
C32 C31 1.372 . S
C32 C33 1.379 . S
C33 H11 0.948 . S
C33 C28 1.364 . S
C33 C32 1.379 . S
C34 C3 1.383 . S
C34 C21 1.479 . S
C34 C35 1.398 . S
C35 C0 1.382 . S
C35 H12 0.951 . S
C35 C34 1.398 . S
C36 C37 1.384 . S
C36 H49 0.947 . S
C36 C71 1.382 . S
C37 C36 1.384 . S
C37 C38 1.378 . S
C38 C37 1.378 . S
C38 C39 1.378 . S
C38 H50 0.952 . S
C39 C38 1.378 . S
C39 H51 0.950 . S
C39 C70 1.383 . S
H40 C59 0.947 . S
H41 C60 0.946 . S
H42 C62 0.953 . S
H43 C63 0.945 . S
H44 C65 0.952 . S
H45 C66 0.949 . S
H46 C68 0.950 . S
H47 C69 0.948 . S
H48 C71 0.951 . S
H49 C36 0.947 . S
H50 C38 0.952 . S
H51 C39 0.950 . S
N52 C55 1.382 . S
N52 C57 1.363 . S
N53 C55 1.371 . S
N53 C56 1.372 . S
N54 C56 1.361 . S
N54 C57 1.377 . S
C55 N52 1.382 . S
C55 N53 1.371 . S
C55 C58 1.480 . S
C56 N53 1.372 . S
C56 N54 1.361 . S
C56 C64 1.457 . S
C57 N52 1.363 . S
C57 N54 1.377 . S
C57 C70 1.479 . S
C58 C55 1.480 . S
C58 C59 1.383 . S
C58 C63 1.385 . S
C59 H40 0.947 . S
C59 C58 1.383 . S
C59 C60 1.388 . S
C60 H41 0.946 . S
C60 C59 1.388 . S
C60 C61 1.384 . S
C61 C60 1.384 . S
C61 C62 1.377 . S
C62 H42 0.953 . S
C62 C61 1.377 . S
C62 C63 1.369 . S
C63 H43 0.945 . S
C63 C58 1.385 . S
C63 C62 1.369 . S
C64 C56 1.457 . S
C64 C65 1.372 . S
C64 C69 1.364 . S
C65 H44 0.952 . S
C65 C64 1.372 . S
C65 C66 1.389 . S
C66 H45 0.949 . S
C66 C65 1.389 . S
C66 C67 1.387 . S
C67 C66 1.387 . S
C67 C68 1.372 . S
C68 H46 0.950 . S
C68 C67 1.372 . S
C68 C69 1.379 . S
C69 H47 0.948 . S
C69 C64 1.364 . S
C69 C68 1.379 . S
C70 C39 1.383 . S
C70 C57 1.479 . S
C70 C71 1.398 . S
C71 C36 1.382 . S
C71 H48 0.951 . S
C71 C70 1.398 . S
C72 C73 1.384 . S
C72 H85 0.947 . S
C72 C107 1.382 . S
C73 C72 1.384 . S
C73 C74 1.378 . S
C74 C73 1.378 . S
C74 C75 1.378 . S
C74 H86 0.952 . S
C75 C74 1.378 . S
C75 H87 0.950 . S
C75 C106 1.383 . S
H76 C95 0.947 . S
H77 C96 0.946 . S
H78 C98 0.921 1_455 S
H79 C99 0.945 . S
H80 C101 0.952 . S
H81 C102 0.949 . S
H82 C104 0.950 . S
H83 C105 0.948 . S
H84 C107 0.951 . S
H85 C72 0.947 . S
H86 C74 0.952 . S
H87 C75 0.950 . S
N88 C91 1.382 . S
N88 C93 1.363 . S
N89 C91 1.371 . S
N89 C92 1.372 . S
N90 C92 1.361 . S
N90 C93 1.377 . S
C91 N88 1.382 . S
C91 N89 1.371 . S
C91 C94 1.480 . S
C92 N89 1.372 . S
C92 N90 1.361 . S
C92 C100 1.457 . S
C93 N88 1.363 . S
C93 N90 1.377 . S
C93 C106 1.479 . S
C94 C91 1.480 . S
C94 C95 1.383 . S
C94 C99 1.385 . S
C95 H76 0.947 . S
C95 C94 1.383 . S
C95 C96 1.388 . S
C96 H77 0.946 . S
C96 C95 1.388 . S
C96 C97 1.384 . S
C97 C96 1.384 . S
C97 C98 1.377 . S
C98 H78 0.921 1_655 S
C98 C97 1.377 . S
C98 C99 1.369 . S
C99 H79 0.945 . S
C99 C94 1.385 . S
C99 C98 1.369 . S
C100 C92 1.457 . S
C100 C101 1.372 . S
C100 C105 1.364 . S
C101 H80 0.952 . S
C101 C100 1.372 . S
C101 C102 1.389 . S
C102 H81 0.949 . S
C102 C101 1.389 . S
C102 C103 1.387 . S
C103 C102 1.387 . S
C103 C104 1.372 . S
C104 H82 0.950 . S
C104 C103 1.372 . S
C104 C105 1.379 . S
C105 H83 0.948 . S
C105 C100 1.364 . S
C105 C104 1.379 . S
C106 C75 1.383 . S
C106 C93 1.479 . S
C106 C107 1.398 . S
C107 C72 1.382 . S
C107 H84 0.951 . S
C107 C106 1.398 . S
C108 C109 1.384 . S
C108 H121 0.947 1_455 S
C108 C143 1.382 . S
C109 C108 1.384 . S
C109 C110 1.378 . S
C110 C109 1.378 . S
C110 C111 1.378 . S
C110 H122 0.952 . S
C111 C110 1.378 . S
C111 H123 0.950 . S
C111 C142 1.383 . S
H112 C131 0.947 . S
H113 C132 0.946 . S
H114 C134 0.953 . S
H115 C135 0.945 . S
H116 C137 0.952 . S
H117 C138 0.949 . S
H118 C140 0.950 . S
H119 C141 0.948 . S
H120 C143 0.951 . S
H121 C108 0.947 1_655 S
H122 C110 0.952 . S
H123 C111 0.950 . S
N124 C127 1.382 . S
N124 C129 1.363 . S
N125 C127 1.371 . S
N125 C128 1.372 . S
N126 C128 1.361 . S
N126 C129 1.377 . S
C127 N124 1.382 . S
C127 N125 1.371 . S
C127 C130 1.480 . S
C128 N125 1.372 . S
C128 N126 1.361 . S
C128 C136 1.457 . S
C129 N124 1.363 . S
C129 N126 1.377 . S
C129 C142 1.479 . S
C130 C127 1.480 . S
C130 C131 1.383 . S
C130 C135 1.385 . S
C131 H112 0.947 . S
C131 C130 1.383 . S
C131 C132 1.388 . S
C132 H113 0.946 . S
C132 C131 1.388 . S
C132 C133 1.384 . S
C133 C132 1.384 . S
C133 C134 1.377 . S
C134 H114 0.953 . S
C134 C133 1.377 . S
C134 C135 1.369 . S
C135 H115 0.945 . S
C135 C130 1.385 . S
C135 C134 1.369 . S
C136 C128 1.457 . S
C136 C137 1.372 . S
C136 C141 1.364 . S
C137 H116 0.952 . S
C137 C136 1.372 . S
C137 C138 1.389 . S
C138 H117 0.949 . S
C138 C137 1.389 . S
C138 C139 1.387 . S
C139 C138 1.387 . S
C139 C140 1.372 . S
C140 H118 0.950 . S
C140 C139 1.372 . S
C140 C141 1.379 . S
C141 H119 0.948 . S
C141 C136 1.364 . S
C141 C140 1.379 . S
C142 C111 1.383 . S
C142 C129 1.479 . S
C142 C143 1.398 . S
C143 C108 1.382 . S
C143 H120 0.951 . S
C143 C142 1.398 . S
C144 C145 1.384 . S
C144 H157 0.947 . S
C144 C179 1.382 . S
C145 C144 1.384 . S
C145 C146 1.378 . S
C146 C145 1.378 . S
C146 C147 1.378 . S
C146 H158 0.952 . S
C147 C146 1.378 . S
C147 H159 0.950 . S
C147 C178 1.383 . S
H148 C167 0.947 . S
H149 C168 0.946 . S
H150 C170 0.953 . S
H151 C171 0.945 . S
H152 C173 0.952 . S
H153 C174 0.949 . S
H154 C176 0.950 . S
H155 C177 0.948 . S
H156 C179 0.951 . S
H157 C144 0.947 . S
H158 C146 0.952 . S
H159 C147 0.950 . S
N160 C163 1.382 . S
N160 C165 1.363 . S
N161 C163 1.371 . S
N161 C164 1.372 . S
N162 C164 1.361 . S
N162 C165 1.377 . S
C163 N160 1.382 . S
C163 N161 1.371 . S
C163 C166 1.480 . S
C164 N161 1.372 . S
C164 N162 1.361 . S
C164 C172 1.457 . S
C165 N160 1.363 . S
C165 N162 1.377 . S
C165 C178 1.479 . S
C166 C163 1.480 . S
C166 C167 1.383 . S
C166 C171 1.385 . S
C167 H148 0.947 . S
C167 C166 1.383 . S
C167 C168 1.388 . S
C168 H149 0.946 . S
C168 C167 1.388 . S
C168 C169 1.384 . S
C169 C168 1.384 . S
C169 C170 1.377 . S
C170 H150 0.953 . S
C170 C169 1.377 . S
C170 C171 1.369 . S
C171 H151 0.945 . S
C171 C166 1.385 . S
C171 C170 1.369 . S
C172 C164 1.457 . S
C172 C173 1.372 . S
C172 C177 1.364 . S
C173 H152 0.952 . S
C173 C172 1.372 . S
C173 C174 1.389 . S
C174 H153 0.949 . S
C174 C173 1.389 . S
C174 C175 1.387 . S
C175 C174 1.387 . S
C175 C176 1.372 . S
C176 H154 0.950 . S
C176 C175 1.372 . S
C176 C177 1.379 . S
C177 H155 0.948 . S
C177 C172 1.364 . S
C177 C176 1.379 . S
C178 C147 1.383 . S
C178 C165 1.479 . S
C178 C179 1.398 . S
C179 C144 1.382 . S
C179 H156 0.951 . S
C179 C178 1.398 . S
C180 C181 1.384 . S
C180 H193 0.947 . S
C180 C215 1.382 . S
C181 C180 1.384 . S
C181 C182 1.378 . S
C182 C181 1.378 . S
C182 C183 1.378 . S
C182 H194 0.952 . S
C183 C182 1.378 . S
C183 H195 0.950 . S
C183 C214 1.383 . S
H184 C203 0.947 . S
H185 C204 0.946 . S
H186 C206 0.953 . S
H187 C207 0.945 . S
H188 C209 0.952 . S
H189 C210 0.949 . S
H190 C212 0.950 . S
H191 C213 0.948 . S
H192 C215 0.951 . S
H193 C180 0.947 . S
H194 C182 0.952 . S
H195 C183 0.950 . S
N196 C199 1.382 . S
N196 C201 1.363 . S
N197 C199 1.371 . S
N197 C200 1.372 . S
N198 C200 1.361 . S
N198 C201 1.377 . S
C199 N196 1.382 . S
C199 N197 1.371 . S
C199 C202 1.480 . S
C200 N197 1.372 . S
C200 N198 1.361 . S
C200 C208 1.457 . S
C201 N196 1.363 . S
C201 N198 1.377 . S
C201 C214 1.479 . S
C202 C199 1.480 . S
C202 C203 1.383 . S
C202 C207 1.385 . S
C203 H184 0.947 . S
C203 C202 1.383 . S
C203 C204 1.388 . S
C204 H185 0.946 . S
C204 C203 1.388 . S
C204 C205 1.384 . S
C205 C204 1.384 . S
C205 C206 1.377 . S
C206 H186 0.953 . S
C206 C205 1.377 . S
C206 C207 1.369 . S
C207 H187 0.945 . S
C207 C202 1.385 . S
C207 C206 1.369 . S
C208 C200 1.457 . S
C208 C209 1.372 . S
C208 C213 1.364 . S
C209 H188 0.952 . S
C209 C208 1.372 . S
C209 C210 1.389 . S
C210 H189 0.949 . S
C210 C209 1.389 . S
C210 C211 1.387 . S
C211 C210 1.387 . S
C211 C212 1.372 . S
C212 H190 0.950 . S
C212 C211 1.372 . S
C212 C213 1.379 . S
C213 H191 0.948 . S
C213 C208 1.364 . S
C213 C212 1.379 . S
C214 C183 1.383 . S
C214 C201 1.479 . S
C214 C215 1.398 . S
C215 C180 1.382 . S
C215 H192 0.951 . S
C215 C214 1.398 . S
C216 C217 1.384 . S
C216 H229 0.947 . S
C216 C251 1.382 . S
C217 C216 1.384 . S
C217 C218 1.378 . S
C218 C217 1.378 . S
C218 C219 1.378 . S
C218 H230 0.952 . S
C219 C218 1.378 . S
C219 H231 0.950 . S
C219 C250 1.383 . S
H220 C239 0.947 . S
H221 C240 0.946 . S
H222 C242 0.953 . S
H223 C243 0.945 . S
H224 C245 0.952 . S
H225 C246 0.949 . S
H226 C248 0.955 . S
H227 C249 0.948 . S
H228 C251 0.951 . S
H229 C216 0.947 . S
H230 C218 0.952 . S
H231 C219 0.950 . S
N232 C235 1.382 . S
N232 C237 1.363 . S
N233 C235 1.371 . S
N233 C236 1.372 . S
N234 C236 1.361 . S
N234 C237 1.377 . S
C235 N232 1.382 . S
C235 N233 1.371 . S
C235 C238 1.480 . S
C236 N233 1.372 . S
C236 N234 1.361 . S
C236 C244 1.457 . S
C237 N232 1.363 . S
C237 N234 1.377 . S
C237 C250 1.479 . S
C238 C235 1.480 . S
C238 C239 1.383 . S
C238 C243 1.385 . S
C239 H220 0.947 . S
C239 C238 1.383 . S
C239 C240 1.388 . S
C240 H221 0.946 . S
C240 C239 1.388 . S
C240 C241 1.384 . S
C241 C240 1.384 . S
C241 C242 1.377 . S
C242 H222 0.953 . S
C242 C241 1.377 . S
C242 C243 1.369 . S
C243 H223 0.945 . S
C243 C238 1.385 . S
C243 C242 1.369 . S
C244 C236 1.457 . S
C244 C245 1.372 . S
C244 C249 1.364 . S
C245 H224 0.952 . S
C245 C244 1.372 . S
C245 C246 1.389 . S
C246 H225 0.949 . S
C246 C245 1.389 . S
C246 C247 1.389 . S
C247 C246 1.389 . S
C247 C248 1.366 1_655 S
C248 H226 0.955 . S
C248 C247 1.366 1_455 S
C248 C249 1.378 1_455 S
C249 H227 0.948 . S
C249 C244 1.364 . S
C249 C248 1.378 1_655 S
C250 C219 1.383 . S
C250 C237 1.479 . S
C250 C251 1.398 . S
C251 C216 1.382 . S
C251 H228 0.951 . S
C251 C250 1.398 . S
C252 C253 1.384 . S
C252 H265 0.947 . S
C252 C287 1.382 . S
C253 C252 1.384 . S
C253 C254 1.378 . S
C254 C253 1.378 . S
C254 C255 1.378 . S
C254 H266 0.952 . S
C255 C254 1.378 . S
C255 H267 0.950 . S
C255 C286 1.383 . S
H256 C275 0.947 . S
H257 C276 0.946 . S
H258 C278 0.953 . S
H259 C279 0.945 . S
H260 C281 0.952 . S
H261 C282 0.949 . S
H262 C284 0.950 . S
H263 C285 0.948 . S
H264 C287 0.951 . S
H265 C252 0.947 . S
H266 C254 0.952 . S
H267 C255 0.950 . S
N268 C271 1.382 . S
N268 C273 1.363 . S
N269 C271 1.371 . S
N269 C272 1.372 . S
N270 C272 1.361 . S
N270 C273 1.377 . S
C271 N268 1.382 . S
C271 N269 1.371 . S
C271 C274 1.480 . S
C272 N269 1.372 . S
C272 N270 1.361 . S
C272 C280 1.457 . S
C273 N268 1.363 . S
C273 N270 1.377 . S
C273 C286 1.479 . S
C274 C271 1.480 . S
C274 C275 1.383 . S
C274 C279 1.385 . S
C275 H256 0.947 . S
C275 C274 1.383 . S
C275 C276 1.388 . S
C276 H257 0.946 . S
C276 C275 1.388 . S
C276 C277 1.384 . S
C277 C276 1.384 . S
C277 C278 1.377 . S
C278 H258 0.953 . S
C278 C277 1.377 . S
C278 C279 1.369 . S
C279 H259 0.945 . S
C279 C274 1.385 . S
C279 C278 1.369 . S
C280 C272 1.457 . S
C280 C281 1.372 . S
C280 C285 1.364 . S
C281 H260 0.952 . S
C281 C280 1.372 . S
C281 C282 1.389 . S
C282 H261 0.949 . S
C282 C281 1.389 . S
C282 C283 1.387 . S
C283 C282 1.387 . S
C283 C284 1.372 . S
C284 H262 0.950 . S
C284 C283 1.372 . S
C284 C285 1.379 . S
C285 H263 0.948 . S
C285 C280 1.364 . S
C285 C284 1.379 . S
C286 C255 1.383 . S
C286 C273 1.479 . S
C286 C287 1.398 . S
C287 C252 1.382 . S
C287 H264 0.951 . S
C287 C286 1.398 . S
C288 C289 1.384 . S
C288 H301 0.947 . S
C288 C323 1.382 . S
C289 C288 1.384 . S
C289 C290 1.378 . S
C290 C289 1.378 . S
C290 C291 1.378 . S
C290 H302 0.952 . S
C291 C290 1.378 . S
C291 H303 0.950 . S
C291 C322 1.383 . S
H292 C311 0.947 . S
H293 C312 0.946 . S
H294 C314 0.953 . S
H295 C315 0.945 . S
H296 C317 0.952 . S
H297 C318 0.949 . S
H298 C320 0.950 . S
H299 C321 0.948 . S
H300 C323 0.951 . S
H301 C288 0.947 . S
H302 C290 0.952 . S
H303 C291 0.950 . S
N304 C307 1.382 . S
N304 C309 1.363 . S
N305 C307 1.371 . S
N305 C308 1.372 . S
N306 C308 1.361 . S
N306 C309 1.377 . S
C307 N304 1.382 . S
C307 N305 1.371 . S
C307 C310 1.480 . S
C308 N305 1.372 . S
C308 N306 1.361 . S
C308 C316 1.457 . S
C309 N304 1.363 . S
C309 N306 1.377 . S
C309 C322 1.479 . S
C310 C307 1.480 . S
C310 C311 1.383 . S
C310 C315 1.385 . S
C311 H292 0.947 . S
C311 C310 1.383 . S
C311 C312 1.388 . S
C312 H293 0.946 . S
C312 C311 1.388 . S
C312 C313 1.384 . S
C313 C312 1.384 . S
C313 C314 1.377 . S
C314 H294 0.953 . S
C314 C313 1.377 . S
C314 C315 1.369 . S
C315 H295 0.945 . S
C315 C310 1.385 . S
C315 C314 1.369 . S
C316 C308 1.457 . S
C316 C317 1.372 . S
C316 C321 1.364 . S
C317 H296 0.952 . S
C317 C316 1.372 . S
C317 C318 1.389 . S
C318 H297 0.949 . S
C318 C317 1.389 . S
C318 C319 1.387 . S
C319 C318 1.387 . S
C319 C320 1.372 . S
C320 H298 0.950 . S
C320 C319 1.372 . S
C320 C321 1.379 . S
C321 H299 0.948 . S
C321 C316 1.364 . S
C321 C320 1.379 . S
C322 C291 1.383 . S
C322 C309 1.479 . S
C322 C323 1.398 . S
C323 C288 1.382 . S
C323 H300 0.951 . S
C323 C322 1.398 . S
C324 C325 1.384 . S
C324 H337 0.947 . S
C324 C359 1.382 . S
C325 C324 1.384 . S
C325 C326 1.378 . S
C326 C325 1.378 . S
C326 C327 1.378 . S
C326 H338 0.952 . S
C327 C326 1.378 . S
C327 H339 0.950 . S
C327 C358 1.383 . S
H328 C347 0.947 . S
H329 C348 0.946 . S
H330 C350 0.953 . S
H331 C351 0.945 . S
H332 C353 0.952 . S
H333 C354 0.949 . S
H334 C356 0.950 . S
H335 C357 0.948 . S
H336 C359 0.951 . S
H337 C324 0.947 . S
H338 C326 0.952 . S
H339 C327 0.950 . S
N340 C343 1.382 . S
N340 C345 1.363 . S
N341 C343 1.371 . S
N341 C344 1.372 . S
N342 C344 1.361 . S
N342 C345 1.377 . S
C343 N340 1.382 . S
C343 N341 1.371 . S
C343 C346 1.480 . S
C344 N341 1.372 . S
C344 N342 1.361 . S
C344 C352 1.457 . S
C345 N340 1.363 . S
C345 N342 1.377 . S
C345 C358 1.479 . S
C346 C343 1.480 . S
C346 C347 1.383 . S
C346 C351 1.385 . S
C347 H328 0.947 . S
C347 C346 1.383 . S
C347 C348 1.388 . S
C348 H329 0.946 . S
C348 C347 1.388 . S
C348 C349 1.384 . S
C349 C348 1.384 . S
C349 C350 1.377 . S
C350 H330 0.953 . S
C350 C349 1.377 . S
C350 C351 1.369 . S
C351 H331 0.945 . S
C351 C346 1.385 . S
C351 C350 1.369 . S
C352 C344 1.457 . S
C352 C353 1.372 . S
C352 C357 1.364 . S
C353 H332 0.952 . S
C353 C352 1.372 . S
C353 C354 1.389 . S
C354 H333 0.949 . S
C354 C353 1.389 . S
C354 C355 1.387 . S
C355 C354 1.387 . S
C355 C356 1.372 . S
C356 H334 0.950 . S
C356 C355 1.372 . S
C356 C357 1.379 . S
C357 H335 0.948 . S
C357 C352 1.364 . S
C357 C356 1.379 . S
C358 C327 1.383 . S
C358 C345 1.479 . S
C358 C359 1.398 . S
C359 C324 1.382 . S
C359 H336 0.951 . S
C359 C358 1.398 . S
C360 C361 1.384 . S
C360 H373 0.947 . S
C360 C395 1.382 . S
C361 C360 1.384 . S
C361 C362 1.378 . S
C362 C361 1.378 . S
C362 C363 1.378 . S
C362 H374 0.954 1_556 S
C363 C362 1.378 . S
C363 H375 0.950 . S
C363 C394 1.383 . S
H364 C383 0.947 . S
H365 C384 0.902 1_554 S
H366 C386 0.953 . S
H367 C387 0.945 . S
H368 C389 0.952 . S
H369 C390 0.949 . S
H370 C392 0.950 . S
H371 C393 0.948 . S
H372 C395 0.951 . S
H373 C360 0.947 . S
H374 C362 0.954 1_554 S
H375 C363 0.950 . S
N376 C379 1.382 . S
N376 C381 1.363 . S
N377 C379 1.371 . S
N377 C380 1.372 . S
N378 C380 1.361 . S
N378 C381 1.377 . S
C379 N376 1.382 . S
C379 N377 1.371 . S
C379 C382 1.480 . S
C380 N377 1.372 . S
C380 N378 1.361 . S
C380 C388 1.457 . S
C381 N376 1.363 . S
C381 N378 1.377 . S
C381 C394 1.479 . S
C382 C379 1.480 . S
C382 C383 1.383 . S
C382 C387 1.385 . S
C383 H364 0.947 . S
C383 C382 1.383 . S
C383 C384 1.388 . S
C384 H365 0.902 1_556 S
C384 C383 1.388 . S
C384 C385 1.384 . S
C385 C384 1.384 . S
C385 C386 1.377 . S
C386 H366 0.953 . S
C386 C385 1.377 . S
C386 C387 1.369 . S
C387 H367 0.945 . S
C387 C382 1.385 . S
C387 C386 1.369 . S
C388 C380 1.457 . S
C388 C389 1.372 . S
C388 C393 1.364 . S
C389 H368 0.952 . S
C389 C388 1.372 . S
C389 C390 1.389 . S
C390 H369 0.949 . S
C390 C389 1.389 . S
C390 C391 1.387 . S
C391 C390 1.387 . S
C391 C392 1.372 . S
C392 H370 0.950 . S
C392 C391 1.372 . S
C392 C393 1.379 . S
C393 H371 0.948 . S
C393 C388 1.364 . S
C393 C392 1.379 . S
C394 C363 1.383 . S
C394 C381 1.479 . S
C394 C395 1.398 . S
C395 C360 1.382 . S
C395 H372 0.951 . S
C395 C394 1.398 . S
C396 C397 1.384 . S
C396 H409 0.947 . S
C396 C431 1.382 . S
C397 C396 1.384 . S
C397 C398 1.378 . S
C398 C397 1.378 . S
C398 C399 1.378 . S
C398 H410 0.952 . S
C399 C398 1.378 . S
C399 H411 0.950 . S
C399 C430 1.383 . S
H400 C419 0.947 . S
H401 C420 0.946 . S
H402 C422 0.953 . S
H403 C423 0.945 . S
H404 C425 0.952 . S
H405 C426 0.949 . S
H406 C428 0.950 . S
H407 C429 0.948 . S
H408 C431 0.951 . S
H409 C396 0.947 . S
H410 C398 0.952 . S
H411 C399 0.950 . S
N412 C415 1.382 . S
N412 C417 1.363 . S
N413 C415 1.371 . S
N413 C416 1.372 . S
N414 C416 1.361 . S
N414 C417 1.377 . S
C415 N412 1.382 . S
C415 N413 1.371 . S
C415 C418 1.480 . S
C416 N413 1.372 . S
C416 N414 1.361 . S
C416 C424 1.457 . S
C417 N412 1.363 . S
C417 N414 1.377 . S
C417 C430 1.479 . S
C418 C415 1.480 . S
C418 C419 1.383 . S
C418 C423 1.385 . S
C419 H400 0.947 . S
C419 C418 1.383 . S
C419 C420 1.388 . S
C420 H401 0.946 . S
C420 C419 1.388 . S
C420 C421 1.384 . S
C421 C420 1.384 . S
C421 C422 1.377 . S
C422 H402 0.953 . S
C422 C421 1.377 . S
C422 C423 1.369 . S
C423 H403 0.945 . S
C423 C418 1.385 . S
C423 C422 1.369 . S
C424 C416 1.457 . S
C424 C425 1.372 . S
C424 C429 1.364 . S
C425 H404 0.952 . S
C425 C424 1.372 . S
C425 C426 1.389 . S
C426 H405 0.949 . S
C426 C425 1.389 . S
C426 C427 1.387 . S
C427 C426 1.387 . S
C427 C428 1.372 . S
C428 H406 0.950 . S
C428 C427 1.372 . S
C428 C429 1.379 . S
C429 H407 0.948 . S
C429 C424 1.364 . S
C429 C428 1.379 . S
C430 C399 1.383 . S
C430 C417 1.479 . S
C430 C431 1.398 . S
C431 C396 1.382 . S
C431 H408 0.951 . S
C431 C430 1.398 . S
C432 C433 1.384 . S
C432 H445 0.947 . S
C432 C467 1.382 . S
C433 C432 1.384 . S
C433 C434 1.378 . S
C434 C433 1.378 . S
C434 C435 1.378 . S
C434 H446 0.952 . S
C435 C434 1.378 . S
C435 H447 0.950 . S
C435 C466 1.383 . S
H436 C455 0.947 . S
H437 C456 0.946 . S
H438 C458 0.953 . S
H439 C459 0.945 . S
H440 C461 0.952 . S
H441 C462 0.949 . S
H442 C464 0.950 . S
H443 C465 0.948 . S
H444 C467 0.951 . S
H445 C432 0.947 . S
H446 C434 0.952 . S
H447 C435 0.950 . S
N448 C451 1.382 . S
N448 C453 1.363 . S
N449 C451 1.371 . S
N449 C452 1.372 . S
N450 C452 1.361 . S
N450 C453 1.377 . S
C451 N448 1.382 . S
C451 N449 1.371 . S
C451 C454 1.480 . S
C452 N449 1.372 . S
C452 N450 1.361 . S
C452 C460 1.457 . S
C453 N448 1.363 . S
C453 N450 1.377 . S
C453 C466 1.479 . S
C454 C451 1.480 . S
C454 C455 1.383 . S
C454 C459 1.385 . S
C455 H436 0.947 . S
C455 C454 1.383 . S
C455 C456 1.388 . S
C456 H437 0.946 . S
C456 C455 1.388 . S
C456 C457 1.384 . S
C457 C456 1.384 . S
C457 C458 1.377 . S
C458 H438 0.953 . S
C458 C457 1.377 . S
C458 C459 1.369 . S
C459 H439 0.945 . S
C459 C454 1.385 . S
C459 C458 1.369 . S
C460 C452 1.457 . S
C460 C461 1.372 . S
C460 C465 1.364 . S
C461 H440 0.952 . S
C461 C460 1.372 . S
C461 C462 1.389 . S
C462 H441 0.949 . S
C462 C461 1.389 . S
C462 C463 1.387 . S
C463 C462 1.387 . S
C463 C464 1.372 . S
C464 H442 0.950 . S
C464 C463 1.372 . S
C464 C465 1.379 . S
C465 H443 0.948 . S
C465 C460 1.364 . S
C465 C464 1.379 . S
C466 C435 1.383 . S
C466 C453 1.479 . S
C466 C467 1.398 . S
C467 C432 1.382 . S
C467 H444 0.951 . S
C467 C466 1.398 . S
C468 C469 1.384 . S
C468 H481 0.947 . S
C468 C503 1.382 . S
C469 C468 1.384 . S
C469 C470 1.378 . S
C470 C469 1.378 . S
C470 C471 1.378 . S
C470 H482 0.952 . S
C471 C470 1.378 . S
C471 H483 0.950 . S
C471 C502 1.383 . S
H472 C491 0.947 . S
H473 C492 0.946 . S
H474 C494 0.953 . S
H475 C495 0.945 . S
H476 C497 0.952 . S
H477 C498 0.949 . S
H478 C500 0.950 . S
H479 C501 0.948 . S
H480 C503 0.951 . S
H481 C468 0.947 . S
H482 C470 0.952 . S
H483 C471 0.950 . S
N484 C487 1.382 . S
N484 C489 1.363 . S
N485 C487 1.371 . S
N485 C488 1.372 . S
N486 C488 1.361 . S
N486 C489 1.377 . S
C487 N484 1.382 . S
C487 N485 1.371 . S
C487 C490 1.480 . S
C488 N485 1.372 . S
C488 N486 1.361 . S
C488 C496 1.457 . S
C489 N484 1.363 . S
C489 N486 1.377 . S
C489 C502 1.479 . S
C490 C487 1.480 . S
C490 C491 1.383 . S
C490 C495 1.385 . S
C491 H472 0.947 . S
C491 C490 1.383 . S
C491 C492 1.388 . S
C492 H473 0.946 . S
C492 C491 1.388 . S
C492 C493 1.384 . S
C493 C492 1.384 . S
C493 C494 1.377 . S
C494 H474 0.953 . S
C494 C493 1.377 . S
C494 C495 1.369 . S
C495 H475 0.945 . S
C495 C490 1.385 . S
C495 C494 1.369 . S
C496 C488 1.457 . S
C496 C497 1.372 . S
C496 C501 1.364 . S
C497 H476 0.952 . S
C497 C496 1.372 . S
C497 C498 1.389 . S
C498 H477 0.949 . S
C498 C497 1.389 . S
C498 C499 1.387 . S
C499 C498 1.387 . S
C499 C500 1.372 . S
C500 H478 0.950 . S
C500 C499 1.372 . S
C500 C501 1.379 . S
C501 H479 0.948 . S
C501 C496 1.364 . S
C501 C500 1.379 . S
C502 C471 1.383 . S
C502 C489 1.479 . S
C502 C503 1.398 . S
C503 C468 1.382 . S
C503 H480 0.951 . S
C503 C502 1.398 . S
C504 C505 1.384 . S
C504 H517 0.947 . S
C504 C539 1.382 . S
C505 C504 1.384 . S
C505 C506 1.378 . S
C506 C505 1.378 . S
C506 C507 1.378 . S
C506 H518 0.952 . S
C507 C506 1.378 . S
C507 H519 0.950 . S
C507 C538 1.383 . S
H508 C527 0.947 . S
H509 C528 0.946 . S
H510 C530 0.953 . S
H511 C531 0.945 . S
H512 C533 0.952 . S
H513 C534 0.949 . S
H514 C536 0.950 . S
H515 C537 0.948 . S
H516 C539 0.951 . S
H517 C504 0.947 . S
H518 C506 0.952 . S
H519 C507 0.950 . S
N520 C523 1.382 . S
N520 C525 1.363 . S
N521 C523 1.371 . S
N521 C524 1.372 . S
N522 C524 1.361 . S
N522 C525 1.377 . S
C523 N520 1.382 . S
C523 N521 1.371 . S
C523 C526 1.480 . S
C524 N521 1.372 . S
C524 N522 1.361 . S
C524 C532 1.457 . S
C525 N520 1.363 . S
C525 N522 1.377 . S
C525 C538 1.479 . S
C526 C523 1.480 . S
C526 C527 1.383 . S
C526 C531 1.385 . S
C527 H508 0.947 . S
C527 C526 1.383 . S
C527 C528 1.388 . S
C528 H509 0.946 . S
C528 C527 1.388 . S
C528 C529 1.384 . S
C529 C528 1.384 . S
C529 C530 1.377 . S
C530 H510 0.953 . S
C530 C529 1.377 . S
C530 C531 1.369 . S
C531 H511 0.945 . S
C531 C526 1.385 . S
C531 C530 1.369 . S
C532 C524 1.457 . S
C532 C533 1.372 . S
C532 C537 1.364 . S
C533 H512 0.952 . S
C533 C532 1.372 . S
C533 C534 1.389 . S
C534 H513 0.949 . S
C534 C533 1.389 . S
C534 C535 1.387 . S
C535 C534 1.387 . S
C535 C536 1.372 . S
C536 H514 0.950 . S
C536 C535 1.372 . S
C536 C537 1.379 . S
C537 H515 0.948 . S
C537 C532 1.364 . S
C537 C536 1.379 . S
C538 C507 1.383 . S
C538 C525 1.479 . S
C538 C539 1.398 . S
C539 C504 1.382 . S
C539 H516 0.951 . S
C539 C538 1.398 . S
C540 C541 1.384 . S
C540 H553 0.947 . S
C540 C575 1.382 . S
C541 C540 1.384 . S
C541 C542 1.378 . S
C542 C541 1.378 . S
C542 C543 1.378 . S
C542 H554 0.952 . S
C543 C542 1.378 . S
C543 H555 0.950 . S
C543 C574 1.383 . S
H544 C563 0.947 . S
H545 C564 0.946 . S
H546 C566 0.953 . S
H547 C567 0.945 . S
H548 C569 0.952 . S
H549 C570 0.949 . S
H550 C572 0.950 . S
H551 C573 0.948 . S
H552 C575 0.951 . S
H553 C540 0.947 . S
H554 C542 0.952 . S
H555 C543 0.950 . S
N556 C559 1.382 . S
N556 C561 1.363 . S
N557 C559 1.371 . S
N557 C560 1.372 . S
N558 C560 1.361 . S
N558 C561 1.377 . S
C559 N556 1.382 . S
C559 N557 1.371 . S
C559 C562 1.480 . S
C560 N557 1.372 . S
C560 N558 1.361 . S
C560 C568 1.457 . S
C561 N556 1.363 . S
C561 N558 1.377 . S
C561 C574 1.479 . S
C562 C559 1.480 . S
C562 C563 1.383 . S
C562 C567 1.385 . S
C563 H544 0.947 . S
C563 C562 1.383 . S
C563 C564 1.388 . S
C564 H545 0.946 . S
C564 C563 1.388 . S
C564 C565 1.384 . S
C565 C564 1.384 . S
C565 C566 1.377 . S
C566 H546 0.953 . S
C566 C565 1.377 . S
C566 C567 1.369 . S
C567 H547 0.945 . S
C567 C562 1.385 . S
C567 C566 1.369 . S
C568 C560 1.457 . S
C568 C569 1.372 . S
C568 C573 1.364 . S
C569 H548 0.952 . S
C569 C568 1.372 . S
C569 C570 1.389 . S
C570 H549 0.949 . S
C570 C569 1.389 . S
C570 C571 1.387 . S
C571 C570 1.387 . S
C571 C572 1.372 . S
C572 H550 0.950 . S
C572 C571 1.372 . S
C572 C573 1.379 . S
C573 H551 0.948 . S
C573 C568 1.364 . S
C573 C572 1.379 . S
C574 C543 1.383 . S
C574 C561 1.479 . S
C574 C575 1.398 . S
C575 C540 1.382 . S
C575 H552 0.951 . S
C575 C574 1.398 . S
C576 C577 1.384 . S
C576 H589 0.947 . S
C576 C611 1.382 . S
C577 C576 1.384 . S
C577 C578 1.378 . S
C578 C577 1.378 . S
C578 C579 1.378 . S
C578 H590 0.952 . S
C579 C578 1.378 . S
C579 H591 0.950 . S
C579 C610 1.383 . S
H580 C599 0.947 . S
H581 C600 0.946 . S
H582 C602 0.953 . S
H583 C603 0.945 . S
H584 C605 0.952 . S
H585 C606 0.949 . S
H586 C608 0.946 . S
H587 C609 0.948 . S
H588 C611 0.951 . S
H589 C576 0.947 . S
H590 C578 0.952 . S
H591 C579 0.950 . S
N592 C595 1.382 . S
N592 C597 1.363 . S
N593 C595 1.371 . S
N593 C596 1.372 . S
N594 C596 1.361 . S
N594 C597 1.377 . S
C595 N592 1.382 . S
C595 N593 1.371 . S
C595 C598 1.480 . S
C596 N593 1.372 . S
C596 N594 1.361 . S
C596 C604 1.457 . S
C597 N592 1.363 . S
C597 N594 1.377 . S
C597 C610 1.479 . S
C598 C595 1.480 . S
C598 C599 1.383 . S
C598 C603 1.385 . S
C599 H580 0.947 . S
C599 C598 1.383 . S
C599 C600 1.388 . S
C600 H581 0.946 . S
C600 C599 1.388 . S
C600 C601 1.384 . S
C601 C600 1.384 . S
C601 C602 1.377 . S
C602 H582 0.953 . S
C602 C601 1.377 . S
C602 C603 1.369 . S
C603 H583 0.945 . S
C603 C598 1.385 . S
C603 C602 1.369 . S
C604 C596 1.457 . S
C604 C605 1.372 . S
C604 C609 1.364 . S
C605 H584 0.952 . S
C605 C604 1.372 . S
C605 C606 1.389 . S
C606 H585 0.949 . S
C606 C605 1.389 . S
C606 C607 1.381 . S
C607 C606 1.381 . S
C607 C608 1.386 1_455 S
C608 H586 0.946 . S
C608 C607 1.386 1_655 S
C608 C609 1.377 1_655 S
C609 H587 0.948 . S
C609 C604 1.364 . S
C609 C608 1.377 1_455 S
C610 C579 1.383 . S
C610 C597 1.479 . S
C610 C611 1.398 . S
C611 C576 1.382 . S
C611 H588 0.951 . S
C611 C610 1.398 . S
C612 C613 1.384 . S
C612 H625 0.947 . S
C612 C647 1.382 . S
C613 C612 1.384 . S
C613 C614 1.378 . S
C614 C613 1.378 . S
C614 C615 1.378 . S
C614 H626 0.952 . S
C615 C614 1.378 . S
C615 H627 0.950 . S
C615 C646 1.383 . S
H616 C635 0.947 . S
H617 C636 0.946 . S
H618 C638 0.953 . S
H619 C639 0.945 . S
H620 C641 0.952 . S
H621 C642 0.949 . S
H622 C644 0.950 . S
H623 C645 0.948 . S
H624 C647 0.951 . S
H625 C612 0.947 . S
H626 C614 0.952 . S
H627 C615 0.950 . S
N628 C631 1.382 . S
N628 C633 1.363 . S
N629 C631 1.371 . S
N629 C632 1.372 . S
N630 C632 1.361 . S
N630 C633 1.377 . S
C631 N628 1.382 . S
C631 N629 1.371 . S
C631 C634 1.480 . S
C632 N629 1.372 . S
C632 N630 1.361 . S
C632 C640 1.457 . S
C633 N628 1.363 . S
C633 N630 1.377 . S
C633 C646 1.479 . S
C634 C631 1.480 . S
C634 C635 1.383 . S
C634 C639 1.385 . S
C635 H616 0.947 . S
C635 C634 1.383 . S
C635 C636 1.388 . S
C636 H617 0.946 . S
C636 C635 1.388 . S
C636 C637 1.384 . S
C637 C636 1.384 . S
C637 C638 1.377 . S
C638 H618 0.953 . S
C638 C637 1.377 . S
C638 C639 1.369 . S
C639 H619 0.945 . S
C639 C634 1.385 . S
C639 C638 1.369 . S
C640 C632 1.457 . S
C640 C641 1.372 . S
C640 C645 1.364 . S
C641 H620 0.952 . S
C641 C640 1.372 . S
C641 C642 1.389 . S
C642 H621 0.949 . S
C642 C641 1.389 . S
C642 C643 1.387 . S
C643 C642 1.387 . S
C643 C644 1.372 . S
C644 H622 0.950 . S
C644 C643 1.372 . S
C644 C645 1.379 . S
C645 H623 0.948 . S
C645 C640 1.364 . S
C645 C644 1.379 . S
C646 C615 1.383 . S
C646 C633 1.479 . S
C646 C647 1.398 . S
C647 C612 1.382 . S
C647 H624 0.951 . S
C647 C646 1.398 . S
Tb648 C658 2.825 . S
Tb648 O659 2.347 1_565 S
Tb648 O662 2.366 1_565 S
Tb648 O667 2.418 . S
Tb648 O668 2.397 . S
Tb648 O671 2.479 . S
Tb648 O672 2.469 1_565 S
Eu649 O660 2.418 . S
Eu649 O661 2.384 . S
Eu649 O664 2.479 . S
Eu649 O665 2.475 . S
Eu649 O666 2.347 1_545 S
Eu649 O669 2.366 1_545 S
Eu649 C679 2.825 . S
C650 O666 1.259 . S
C650 O667 1.265 1_554 S
C651 O668 1.240 1_554 S
C651 O669 1.265 . S
C652 C654 1.380 . S
C652 C655 1.374 1_565 S
C652 C658 1.507 . S
C653 C654 1.384 . S
C653 C657 1.387 1_565 S
C653 H680 0.930 . S
C654 C652 1.380 . S
C654 C653 1.384 . S
C654 H681 0.931 . S
C655 C652 1.374 1_545 S
C655 C656 1.390 . S
C655 H682 0.930 . S
C656 C655 1.390 . S
C656 C657 1.391 . S
C656 H683 0.930 . S
C657 C653 1.387 1_545 S
C657 C656 1.391 . S
C658 Tb648 2.825 . S
C658 C652 1.507 . S
C658 O671 1.238 . S
C658 O672 1.244 1_565 S
O659 Tb648 2.347 1_545 S
O659 C663 1.259 . S
O660 Eu649 2.418 . S
O660 C663 1.265 1_554 S
O661 Eu649 2.384 . S
O661 C670 1.255 1_554 S
O662 Tb648 2.366 1_545 S
O662 C670 1.265 . S
C663 O659 1.259 . S
C663 O660 1.265 1_556 S
O664 Eu649 2.479 . S
O664 C679 1.238 . S
O665 Eu649 2.475 . S
O665 C679 1.253 . S
O666 Eu649 2.347 1_565 S
O666 C650 1.259 . S
O667 Tb648 2.418 . S
O667 C650 1.265 1_556 S
O668 Tb648 2.397 . S
O668 C651 1.240 1_556 S
O669 Eu649 2.366 1_565 S
O669 C651 1.265 . S
C670 O661 1.255 1_556 S
C670 O662 1.265 . S
O671 Tb648 2.479 . S
O671 C658 1.238 . S
O672 Tb648 2.469 1_545 S
O672 C658 1.244 1_545 S
C673 C676 1.380 . S
C673 C677 1.374 1_545 S
C673 C679 1.507 . S
C674 C675 1.387 1_565 S
C674 C678 1.391 . S
C675 C674 1.387 1_545 S
C675 C676 1.384 . S
C675 H684 0.930 . S
C676 C673 1.380 . S
C676 C675 1.384 . S
C676 H685 0.931 . S
C677 C673 1.374 1_565 S
C677 C678 1.390 . S
C677 H686 0.930 . S
C678 C674 1.391 . S
C678 C677 1.390 . S
C678 H687 0.930 . S
C679 Eu649 2.825 . S
C679 O664 1.238 . S
C679 O665 1.253 . S
C679 C673 1.507 . S
H680 C653 0.930 . S
H681 C654 0.931 . S
H682 C655 0.930 . S
H683 C656 0.930 . S
H684 C675 0.930 . S
H685 C676 0.931 . S
H686 C677 0.930 . S
H687 C678 0.930 . S
Tb688 C698 2.825 . S
Tb688 O699 2.347 1_455 S
Tb688 O702 2.366 1_455 S
Tb688 O707 2.418 . S
Tb688 O708 2.384 1_556 S
Tb688 O711 2.479 . S
Tb688 O712 2.471 1_455 S
Eu689 O700 2.418 . S
Eu689 O701 2.365 1_554 S
Eu689 O704 2.479 . S
Eu689 O705 2.471 1_655 S
Eu689 O706 2.347 1_655 S
Eu689 O709 2.366 1_655 S
Eu689 C719 2.825 . S
C690 O706 1.259 . S
C690 O707 1.265 1_554 S
C691 O708 1.255 . S
C691 O709 1.265 . S
C692 C694 1.380 . S
C692 C695 1.374 1_455 S
C692 C698 1.507 . S
C693 C694 1.384 . S
C693 C697 1.387 1_455 S
C693 H720 0.930 . S
C694 C692 1.380 . S
C694 C693 1.384 . S
C694 H721 0.931 . S
C695 C692 1.374 1_655 S
C695 C696 1.390 . S
C695 H722 0.930 . S
C696 C695 1.390 . S
C696 C697 1.391 . S
C696 H723 0.930 . S
C697 C693 1.387 1_655 S
C697 C696 1.391 . S
C698 Tb688 2.825 . S
C698 C692 1.507 . S
C698 O711 1.238 . S
C698 O712 1.247 1_455 S
O699 Tb688 2.347 1_655 S
O699 C703 1.259 . S
O700 Eu689 2.418 . S
O700 C703 1.265 1_554 S
O701 Eu689 2.365 1_556 S
O701 C710 1.278 . S
O702 Tb688 2.366 1_655 S
O702 C710 1.265 . S
C703 O699 1.259 . S
C703 O700 1.265 1_556 S
O704 Eu689 2.479 . S
O704 C719 1.238 . S
O705 Eu689 2.471 1_455 S
O705 C719 1.247 1_455 S
O706 Eu689 2.347 1_455 S
O706 C690 1.259 . S
O707 Tb688 2.418 . S
O707 C690 1.265 1_556 S
O708 Tb688 2.384 1_554 S
O708 C691 1.255 . S
O709 Eu689 2.366 1_455 S
O709 C691 1.265 . S
C710 O701 1.278 . S
C710 O702 1.265 . S
O711 Tb688 2.479 . S
O711 C698 1.238 . S
O712 Tb688 2.471 1_655 S
O712 C698 1.247 1_655 S
C713 C716 1.380 . S
C713 C717 1.374 1_655 S
C713 C719 1.507 . S
C714 C715 1.387 1_455 S
C714 C718 1.391 . S
C715 C714 1.387 1_655 S
C715 C716 1.384 . S
C715 H724 0.930 . S
C716 C713 1.380 . S
C716 C715 1.384 . S
C716 H725 0.931 . S
C717 C713 1.374 1_455 S
C717 C718 1.390 . S
C717 H726 0.930 . S
C718 C714 1.391 . S
C718 C717 1.390 . S
C718 H727 0.930 . S
C719 Eu689 2.825 . S
C719 O704 1.238 . S
C719 O705 1.247 1_655 S
C719 C713 1.507 . S
H720 C693 0.930 . S
H721 C694 0.931 . S
H722 C695 0.930 . S
H723 C696 0.930 . S
H724 C715 0.930 . S
H725 C716 0.931 . S
H726 C717 0.930 . S
H727 C718 0.930 . S
Tb728 C738 2.825 . S
Tb728 O739 2.347 . S
Tb728 O742 2.366 . S
Tb728 O747 2.418 . S
Tb728 O748 2.384 . S
Tb728 O751 2.479 . S
Tb728 O752 2.471 . S
Eu729 O740 2.418 . S
Eu729 O741 2.384 1_556 S
Eu729 O744 2.479 . S
Eu729 O745 2.471 . S
Eu729 O746 2.347 . S
Eu729 O749 2.366 . S
Eu729 C759 2.825 . S
C730 O746 1.259 . S
C730 O747 1.265 1_556 S
C731 O748 1.255 1_556 S
C731 O749 1.265 . S
C732 C734 1.380 . S
C732 C735 1.374 . S
C732 C738 1.507 . S
C733 C734 1.384 . S
C733 C737 1.387 . S
C733 H760 0.930 . S
C734 C732 1.380 . S
C734 C733 1.384 . S
C734 H761 0.931 . S
C735 C732 1.374 . S
C735 C736 1.390 . S
C735 H762 0.930 . S
C736 C735 1.390 . S
C736 C737 1.391 . S
C736 H763 0.930 . S
C737 C733 1.387 . S
C737 C736 1.391 . S
C738 Tb728 2.825 . S
C738 C732 1.507 . S
C738 O751 1.238 . S
C738 O752 1.247 . S
O739 Tb728 2.347 . S
O739 C743 1.259 . S
O740 Eu729 2.418 . S
O740 C743 1.265 1_556 S
O741 Eu729 2.384 1_554 S
O741 C750 1.255 . S
O742 Tb728 2.366 . S
O742 C750 1.265 . S
C743 O739 1.259 . S
C743 O740 1.265 1_554 S
O744 Eu729 2.479 . S
O744 C759 1.238 . S
O745 Eu729 2.471 . S
O745 C759 1.247 . S
O746 Eu729 2.347 . S
O746 C730 1.259 . S
O747 Tb728 2.418 . S
O747 C730 1.265 1_554 S
O748 Tb728 2.384 . S
O748 C731 1.255 1_554 S
O749 Eu729 2.366 . S
O749 C731 1.265 . S
C750 O741 1.255 . S
C750 O742 1.265 . S
O751 Tb728 2.479 . S
O751 C738 1.238 . S
O752 Tb728 2.471 . S
O752 C738 1.247 . S
C753 C756 1.380 . S
C753 C757 1.374 . S
C753 C759 1.507 . S
C754 C755 1.387 . S
C754 C758 1.391 . S
C755 C754 1.387 . S
C755 C756 1.384 . S
C755 H764 0.930 . S
C756 C753 1.380 . S
C756 C755 1.384 . S
C756 H765 0.931 . S
C757 C753 1.374 . S
C757 C758 1.390 . S
C757 H766 0.930 . S
C758 C754 1.391 . S
C758 C757 1.390 . S
C758 H767 0.930 . S
C759 Eu729 2.825 . S
C759 O744 1.238 . S
C759 O745 1.247 . S
C759 C753 1.507 . S
H760 C733 0.930 . S
H761 C734 0.931 . S
H762 C735 0.930 . S
H763 C736 0.930 . S
H764 C755 0.930 . S
H765 C756 0.931 . S
H766 C757 0.930 . S
H767 C758 0.930 . S
Tb768 C778 2.825 . S
Tb768 O779 2.347 . S
Tb768 O782 2.366 . S
Tb768 O787 2.418 . S
Tb768 O788 2.384 . S
Tb768 O791 2.479 . S
Tb768 O792 2.471 . S
Eu769 O780 2.418 . S
Eu769 O781 2.384 . S
Eu769 O784 2.479 . S
Eu769 O785 2.471 . S
Eu769 O786 2.347 . S
Eu769 O789 2.366 . S
Eu769 C799 2.825 . S
C770 O786 1.259 . S
C770 O787 1.265 . S
C771 O788 1.255 . S
C771 O789 1.265 . S
C772 C774 1.380 . S
C772 C775 1.374 . S
C772 C778 1.507 . S
C773 C774 1.384 . S
C773 C777 1.387 . S
C773 H800 0.930 . S
C774 C772 1.380 . S
C774 C773 1.384 . S
C774 H801 0.931 . S
C775 C772 1.374 . S
C775 C776 1.390 . S
C775 H802 0.930 . S
C776 C775 1.390 . S
C776 C777 1.391 . S
C776 H803 0.930 . S
C777 C773 1.387 . S
C777 C776 1.391 . S
C778 Tb768 2.825 . S
C778 C772 1.507 . S
C778 O791 1.238 . S
C778 O792 1.247 . S
O779 Tb768 2.347 . S
O779 C783 1.259 . S
O780 Eu769 2.418 . S
O780 C783 1.265 . S
O781 Eu769 2.384 . S
O781 C790 1.255 . S
O782 Tb768 2.366 . S
O782 C790 1.265 . S
C783 O779 1.259 . S
C783 O780 1.265 . S
O784 Eu769 2.479 . S
O784 C799 1.238 . S
O785 Eu769 2.471 . S
O785 C799 1.247 . S
O786 Eu769 2.347 . S
O786 C770 1.259 . S
O787 Tb768 2.418 . S
O787 C770 1.265 . S
O788 Tb768 2.384 . S
O788 C771 1.255 . S
O789 Eu769 2.366 . S
O789 C771 1.265 . S
C790 O781 1.255 . S
C790 O782 1.265 . S
O791 Tb768 2.479 . S
O791 C778 1.238 . S
O792 Tb768 2.471 . S
O792 C778 1.247 . S
C793 C796 1.380 . S
C793 C797 1.374 . S
C793 C799 1.507 . S
C794 C795 1.387 . S
C794 C798 1.391 . S
C795 C794 1.387 . S
C795 C796 1.384 . S
C795 H804 0.930 . S
C796 C793 1.380 . S
C796 C795 1.384 . S
C796 H805 0.931 . S
C797 C793 1.374 . S
C797 C798 1.390 . S
C797 H806 0.930 . S
C798 C794 1.391 . S
C798 C797 1.390 . S
C798 H807 0.930 . S
C799 Eu769 2.825 . S
C799 O784 1.238 . S
C799 O785 1.247 . S
C799 C793 1.507 . S
H800 C773 0.930 . S
H801 C774 0.931 . S
H802 C775 0.930 . S
H803 C776 0.930 . S
H804 C795 0.930 . S
H805 C796 0.931 . S
H806 C797 0.930 . S
H807 C798 0.930 . S
Tb808 C818 2.825 . S
Tb808 O819 2.347 . S
Tb808 O822 2.366 . S
Tb808 O827 2.418 . S
Tb808 O828 2.384 . S
Tb808 O831 2.479 . S
Tb808 O832 2.471 . S
Eu809 O820 2.418 . S
Eu809 O821 2.384 . S
Eu809 O824 2.479 . S
Eu809 O825 2.471 . S
Eu809 O826 2.347 . S
Eu809 O829 2.366 . S
Eu809 C839 2.825 . S
C810 O826 1.259 . S
C810 O827 1.265 . S
C811 O828 1.255 . S
C811 O829 1.265 . S
C812 C814 1.380 . S
C812 C815 1.374 . S
C812 C818 1.507 . S
C813 C814 1.384 . S
C813 C817 1.387 . S
C813 H840 0.930 . S
C814 C812 1.380 . S
C814 C813 1.384 . S
C814 H841 0.931 . S
C815 C812 1.374 . S
C815 C816 1.390 . S
C815 H842 0.930 . S
C816 C815 1.390 . S
C816 C817 1.391 . S
C816 H843 0.930 . S
C817 C813 1.387 . S
C817 C816 1.391 . S
C818 Tb808 2.825 . S
C818 C812 1.507 . S
C818 O831 1.238 . S
C818 O832 1.247 . S
O819 Tb808 2.347 . S
O819 C823 1.259 . S
O820 Eu809 2.418 . S
O820 C823 1.265 . S
O821 Eu809 2.384 . S
O821 C830 1.255 . S
O822 Tb808 2.366 . S
O822 C830 1.265 . S
C823 O819 1.259 . S
C823 O820 1.265 . S
O824 Eu809 2.479 . S
O824 C839 1.238 . S
O825 Eu809 2.471 . S
O825 C839 1.247 . S
O826 Eu809 2.347 . S
O826 C810 1.259 . S
O827 Tb808 2.418 . S
O827 C810 1.265 . S
O828 Tb808 2.384 . S
O828 C811 1.255 . S
O829 Eu809 2.366 . S
O829 C811 1.265 . S
C830 O821 1.255 . S
C830 O822 1.265 . S
O831 Tb808 2.479 . S
O831 C818 1.238 . S
O832 Tb808 2.471 . S
O832 C818 1.247 . S
C833 C836 1.380 . S
C833 C837 1.374 . S
C833 C839 1.507 . S
C834 C835 1.387 . S
C834 C838 1.391 . S
C835 C834 1.387 . S
C835 C836 1.384 . S
C835 H844 0.930 . S
C836 C833 1.380 . S
C836 C835 1.384 . S
C836 H845 0.931 . S
C837 C833 1.374 . S
C837 C838 1.390 . S
C837 H846 0.930 . S
C838 C834 1.391 . S
C838 C837 1.390 . S
C838 H847 0.930 . S
C839 Eu809 2.825 . S
C839 O824 1.238 . S
C839 O825 1.247 . S
C839 C833 1.507 . S
H840 C813 0.930 . S
H841 C814 0.931 . S
H842 C815 0.930 . S
H843 C816 0.930 . S
H844 C835 0.930 . S
H845 C836 0.931 . S
H846 C837 0.930 . S
H847 C838 0.930 . S
Tb848 C858 2.825 . S
Tb848 O859 2.347 . S
Tb848 O862 2.366 . S
Tb848 O867 2.418 . S
Tb848 O868 2.384 . S
Tb848 O871 2.479 . S
Tb848 O872 2.471 . S
Eu849 O860 2.418 . S
Eu849 O861 2.384 . S
Eu849 O864 2.479 . S
Eu849 O865 2.471 . S
Eu849 O866 2.347 . S
Eu849 O869 2.366 . S
Eu849 C879 2.825 . S
C850 O866 1.259 . S
C850 O867 1.265 . S
C851 O868 1.255 . S
C851 O869 1.265 . S
C852 C854 1.380 . S
C852 C855 1.374 . S
C852 C858 1.507 . S
C853 C854 1.384 . S
C853 C857 1.387 . S
C853 H880 0.930 . S
C854 C852 1.380 . S
C854 C853 1.384 . S
C854 H881 0.931 . S
C855 C852 1.374 . S
C855 C856 1.390 . S
C855 H882 0.930 . S
C856 C855 1.390 . S
C856 C857 1.391 . S
C856 H883 0.930 . S
C857 C853 1.387 . S
C857 C856 1.391 . S
C858 Tb848 2.825 . S
C858 C852 1.507 . S
C858 O871 1.238 . S
C858 O872 1.247 . S
O859 Tb848 2.347 . S
O859 C863 1.259 . S
O860 Eu849 2.418 . S
O860 C863 1.265 . S
O861 Eu849 2.384 . S
O861 C870 1.255 . S
O862 Tb848 2.366 . S
O862 C870 1.265 . S
C863 O859 1.259 . S
C863 O860 1.265 . S
O864 Eu849 2.479 . S
O864 C879 1.238 . S
O865 Eu849 2.471 . S
O865 C879 1.247 . S
O866 Eu849 2.347 . S
O866 C850 1.259 . S
O867 Tb848 2.418 . S
O867 C850 1.265 . S
O868 Tb848 2.384 . S
O868 C851 1.255 . S
O869 Eu849 2.366 . S
O869 C851 1.265 . S
C870 O861 1.255 . S
C870 O862 1.265 . S
O871 Tb848 2.479 . S
O871 C858 1.238 . S
O872 Tb848 2.471 . S
O872 C858 1.247 . S
C873 C876 1.380 . S
C873 C877 1.374 . S
C873 C879 1.507 . S
C874 C875 1.387 . S
C874 C878 1.391 . S
C875 C874 1.387 . S
C875 C876 1.384 . S
C875 H884 0.930 . S
C876 C873 1.380 . S
C876 C875 1.384 . S
C876 H885 0.931 . S
C877 C873 1.374 . S
C877 C878 1.390 . S
C877 H886 0.930 . S
C878 C874 1.391 . S
C878 C877 1.390 . S
C878 H887 0.930 . S
C879 Eu849 2.825 . S
C879 O864 1.238 . S
C879 O865 1.247 . S
C879 C873 1.507 . S
H880 C853 0.930 . S
H881 C854 0.931 . S
H882 C855 0.930 . S
H883 C856 0.930 . S
H884 C875 0.930 . S
H885 C876 0.931 . S
H886 C877 0.930 . S
H887 C878 0.930 . S
Tb888 C898 2.825 . S
Tb888 O899 2.347 . S
Tb888 O902 2.366 . S
Tb888 O907 2.418 . S
Tb888 O908 2.384 . S
Tb888 O911 2.479 . S
Tb888 O912 2.471 . S
Eu889 O900 2.418 . S
Eu889 O901 2.384 . S
Eu889 O904 2.479 . S
Eu889 O905 2.471 . S
Eu889 O906 2.347 . S
Eu889 O909 2.366 . S
Eu889 C919 2.825 . S
C890 O906 1.259 . S
C890 O907 1.265 . S
C891 O908 1.255 . S
C891 O909 1.265 . S
C892 C894 1.380 . S
C892 C895 1.374 . S
C892 C898 1.507 . S
C893 C894 1.384 . S
C893 C897 1.387 . S
C893 H920 0.930 . S
C894 C892 1.380 . S
C894 C893 1.384 . S
C894 H921 0.931 . S
C895 C892 1.374 . S
C895 C896 1.390 . S
C895 H922 0.930 . S
C896 C895 1.390 . S
C896 C897 1.391 . S
C896 H923 0.930 . S
C897 C893 1.387 . S
C897 C896 1.391 . S
C898 Tb888 2.825 . S
C898 C892 1.507 . S
C898 O911 1.238 . S
C898 O912 1.247 . S
O899 Tb888 2.347 . S
O899 C903 1.259 . S
O900 Eu889 2.418 . S
O900 C903 1.265 . S
O901 Eu889 2.384 . S
O901 C910 1.255 . S
O902 Tb888 2.366 . S
O902 C910 1.265 . S
C903 O899 1.259 . S
C903 O900 1.265 . S
O904 Eu889 2.479 . S
O904 C919 1.238 . S
O905 Eu889 2.471 . S
O905 C919 1.247 . S
O906 Eu889 2.347 . S
O906 C890 1.259 . S
O907 Tb888 2.418 . S
O907 C890 1.265 . S
O908 Tb888 2.384 . S
O908 C891 1.255 . S
O909 Eu889 2.366 . S
O909 C891 1.265 . S
C910 O901 1.255 . S
C910 O902 1.265 . S
O911 Tb888 2.479 . S
O911 C898 1.238 . S
O912 Tb888 2.471 . S
O912 C898 1.247 . S
C913 C916 1.380 . S
C913 C917 1.374 . S
C913 C919 1.507 . S
C914 C915 1.387 . S
C914 C918 1.391 . S
C915 C914 1.387 . S
C915 C916 1.384 . S
C915 H924 0.930 . S
C916 C913 1.380 . S
C916 C915 1.384 . S
C916 H925 0.931 . S
C917 C913 1.374 . S
C917 C918 1.390 . S
C917 H926 0.930 . S
C918 C914 1.391 . S
C918 C917 1.390 . S
C918 H927 0.930 . S
C919 Eu889 2.825 . S
C919 O904 1.238 . S
C919 O905 1.247 . S
C919 C913 1.507 . S
H920 C893 0.930 . S
H921 C894 0.931 . S
H922 C895 0.930 . S
H923 C896 0.930 . S
H924 C915 0.930 . S
H925 C916 0.931 . S
H926 C917 0.930 . S
H927 C918 0.930 . S
Tb928 C938 2.825 . S
Tb928 O939 2.347 . S
Tb928 O942 2.366 . S
Tb928 O947 2.418 . S
Tb928 O948 2.384 . S
Tb928 O951 2.479 . S
Tb928 O952 2.471 . S
Eu929 O940 2.418 . S
Eu929 O941 2.384 . S
Eu929 O944 2.479 . S
Eu929 O945 2.471 . S
Eu929 O946 2.347 . S
Eu929 O949 2.366 . S
Eu929 C959 2.825 . S
C930 O946 1.259 . S
C930 O947 1.265 . S
C931 O948 1.255 . S
C931 O949 1.265 . S
C932 C934 1.380 . S
C932 C935 1.374 . S
C932 C938 1.507 . S
C933 C934 1.384 . S
C933 C937 1.387 . S
C933 H960 0.930 . S
C934 C932 1.380 . S
C934 C933 1.384 . S
C934 H961 0.931 . S
C935 C932 1.374 . S
C935 C936 1.390 . S
C935 H962 0.930 . S
C936 C935 1.390 . S
C936 C937 1.391 . S
C936 H963 0.930 . S
C937 C933 1.387 . S
C937 C936 1.391 . S
C938 Tb928 2.825 . S
C938 C932 1.507 . S
C938 O951 1.238 . S
C938 O952 1.247 . S
O939 Tb928 2.347 . S
O939 C943 1.259 . S
O940 Eu929 2.418 . S
O940 C943 1.265 . S
O941 Eu929 2.384 . S
O941 C950 1.255 . S
O942 Tb928 2.366 . S
O942 C950 1.265 . S
C943 O939 1.259 . S
C943 O940 1.265 . S
O944 Eu929 2.479 . S
O944 C959 1.238 . S
O945 Eu929 2.471 . S
O945 C959 1.247 . S
O946 Eu929 2.347 . S
O946 C930 1.259 . S
O947 Tb928 2.418 . S
O947 C930 1.265 . S
O948 Tb928 2.384 . S
O948 C931 1.255 . S
O949 Eu929 2.366 . S
O949 C931 1.265 . S
C950 O941 1.255 . S
C950 O942 1.265 . S
O951 Tb928 2.479 . S
O951 C938 1.238 . S
O952 Tb928 2.471 . S
O952 C938 1.247 . S
C953 C956 1.380 . S
C953 C957 1.374 . S
C953 C959 1.507 . S
C954 C955 1.387 . S
C954 C958 1.391 . S
C955 C954 1.387 . S
C955 C956 1.384 . S
C955 H964 0.930 . S
C956 C953 1.380 . S
C956 C955 1.384 . S
C956 H965 0.931 . S
C957 C953 1.374 . S
C957 C958 1.390 . S
C957 H966 0.930 . S
C958 C954 1.391 . S
C958 C957 1.390 . S
C958 H967 0.930 . S
C959 Eu929 2.825 . S
C959 O944 1.238 . S
C959 O945 1.247 . S
C959 C953 1.507 . S
H960 C933 0.930 . S
H961 C934 0.931 . S
H962 C935 0.930 . S
H963 C936 0.930 . S
H964 C955 0.930 . S
H965 C956 0.931 . S
H966 C957 0.930 . S
H967 C958 0.930 . S
Tb968 C978 2.825 . S
Tb968 O979 2.347 . S
Tb968 O982 2.366 . S
Tb968 O987 2.418 . S
Tb968 O988 2.384 . S
Tb968 O991 2.479 . S
Tb968 O992 2.471 . S
Eu969 O980 2.418 . S
Eu969 O981 2.384 . S
Eu969 O984 2.479 . S
Eu969 O985 2.471 . S
Eu969 O986 2.347 . S
Eu969 O989 2.366 . S
Eu969 C999 2.825 . S
C970 O986 1.259 . S
C970 O987 1.265 . S
C971 O988 1.255 . S
C971 O989 1.265 . S
C972 C974 1.380 . S
C972 C975 1.374 . S
C972 C978 1.507 . S
C973 C974 1.384 . S
C973 C977 1.387 . S
C973 H1000 0.930 . S
C974 C972 1.380 . S
C974 C973 1.384 . S
C974 H1001 0.931 . S
C975 C972 1.374 . S
C975 C976 1.390 . S
C975 H1002 0.930 . S
C976 C975 1.390 . S
C976 C977 1.391 . S
C976 H1003 0.930 . S
C977 C973 1.387 . S
C977 C976 1.391 . S
C978 Tb968 2.825 . S
C978 C972 1.507 . S
C978 O991 1.238 . S
C978 O992 1.247 . S
O979 Tb968 2.347 . S
O979 C983 1.259 . S
O980 Eu969 2.418 . S
O980 C983 1.265 . S
O981 Eu969 2.384 . S
O981 C990 1.255 . S
O982 Tb968 2.366 . S
O982 C990 1.265 . S
C983 O979 1.259 . S
C983 O980 1.265 . S
O984 Eu969 2.479 . S
O984 C999 1.238 . S
O985 Eu969 2.471 . S
O985 C999 1.247 . S
O986 Eu969 2.347 . S
O986 C970 1.259 . S
O987 Tb968 2.418 . S
O987 C970 1.265 . S
O988 Tb968 2.384 . S
O988 C971 1.255 . S
O989 Eu969 2.366 . S
O989 C971 1.265 . S
C990 O981 1.255 . S
C990 O982 1.265 . S
O991 Tb968 2.479 . S
O991 C978 1.238 . S
O992 Tb968 2.471 . S
O992 C978 1.247 . S
C993 C996 1.380 . S
C993 C997 1.374 . S
C993 C999 1.507 . S
C994 C995 1.387 . S
C994 C998 1.391 . S
C995 C994 1.387 . S
C995 C996 1.384 . S
C995 H1004 0.930 . S
C996 C993 1.380 . S
C996 C995 1.384 . S
C996 H1005 0.931 . S
C997 C993 1.374 . S
C997 C998 1.390 . S
C997 H1006 0.930 . S
C998 C994 1.391 . S
C998 C997 1.390 . S
C998 H1007 0.930 . S
C999 Eu969 2.825 . S
C999 O984 1.238 . S
C999 O985 1.247 . S
C999 C993 1.507 . S
H1000 C973 0.930 . S
H1001 C974 0.931 . S
H1002 C975 0.930 . S
H1003 C976 0.930 . S
H1004 C995 0.930 . S
H1005 C996 0.931 . S
H1006 C997 0.930 . S
H1007 C998 0.930 . S
C1008 C1009 1.363 . S
C1008 C1014 1.379 . S
C1008 N1016 1.356 . S
C1009 C1008 1.363 . S
C1009 C1015 1.363 . S
C1010 C1011 1.363 . S
C1010 C1015 1.379 . S
C1010 N1017 1.356 . S
C1011 C1010 1.363 . S
C1011 C1014 1.363 . S
N1012 C1014 1.398 . S
N1012 H1024 0.952 1_554 S
N1012 H1025 0.984 . S
N1013 C1015 1.356 . S
N1013 H1018 0.984 . S
N1013 H1019 0.985 . S
C1014 C1008 1.379 . S
C1014 C1011 1.363 . S
C1014 N1012 1.398 . S
C1015 C1009 1.363 . S
C1015 C1010 1.379 . S
C1015 N1013 1.356 . S
N1016 C1008 1.356 . S
N1016 H1022 0.984 . S
N1016 H1023 0.984 . S
N1017 C1010 1.356 . S
N1017 H1020 0.984 . S
N1017 H1021 1.008 . S
H1018 N1013 0.984 . S
H1019 N1013 0.985 . S
H1020 N1017 0.984 . S
H1021 N1017 1.008 . S
H1022 N1016 0.984 . S
H1023 N1016 0.984 . S
H1024 N1012 0.952 1_556 S
H1025 N1012 0.984 . S
C1026 C1027 1.363 . S
C1026 C1032 1.379 . S
C1026 N1034 1.356 . S
C1027 C1026 1.363 . S
C1027 C1033 1.363 . S
C1028 C1029 1.363 . S
C1028 C1033 1.379 . S
C1028 N1035 1.356 . S
C1029 C1028 1.363 . S
C1029 C1032 1.363 . S
N1030 C1032 1.356 . S
N1030 H1042 0.984 . S
N1030 H1043 0.985 . S
N1031 C1033 1.356 . S
N1031 H1036 0.984 . S
N1031 H1037 1.048 . S
C1032 C1026 1.379 . S
C1032 C1029 1.363 . S
C1032 N1030 1.356 . S
C1033 C1027 1.363 . S
C1033 C1028 1.379 . S
C1033 N1031 1.356 . S
N1034 C1026 1.356 . S
N1034 H1040 0.984 . S
N1034 H1041 0.984 . S
N1035 C1028 1.356 . S
N1035 H1038 0.984 . S
N1035 H1039 0.985 1_554 S
H1036 N1031 0.984 . S
H1037 N1031 1.048 . S
H1038 N1035 0.984 . S
H1039 N1035 0.985 1_556 S
H1040 N1034 0.984 . S
H1041 N1034 0.984 . S
H1042 N1030 0.984 . S
H1043 N1030 0.985 . S
C1044 C1045 1.363 . S
C1044 C1050 1.379 . S
C1044 N1052 1.356 . S
C1045 C1044 1.363 . S
C1045 C1051 1.363 . S
C1046 C1047 1.363 . S
C1046 C1051 1.379 . S
C1046 N1053 1.356 1_554 S
C1047 C1046 1.363 . S
C1047 C1050 1.363 . S
N1048 C1050 1.356 . S
N1048 H1060 0.984 . S
N1048 H1061 0.985 . S
N1049 C1051 1.356 1_556 S
N1049 H1054 0.984 . S
N1049 H1055 0.985 . S
C1050 C1044 1.379 . S
C1050 C1047 1.363 . S
C1050 N1048 1.356 . S
C1051 C1045 1.363 . S
C1051 C1046 1.379 . S
C1051 N1049 1.356 1_554 S
N1052 C1044 1.356 . S
N1052 H1058 0.984 . S
N1052 H1059 0.984 . S
N1053 C1046 1.356 1_556 S
N1053 H1056 0.984 . S
N1053 H1057 0.985 . S
H1054 N1049 0.984 . S
H1055 N1049 0.985 . S
H1056 N1053 0.984 . S
H1057 N1053 0.985 . S
H1058 N1052 0.984 . S
H1059 N1052 0.984 . S
H1060 N1048 0.984 . S
H1061 N1048 0.985 . S
C1062 C1063 1.363 . S
C1062 C1068 1.379 . S
C1062 N1070 1.356 . S
C1063 C1062 1.363 . S
C1063 C1069 1.363 . S
C1064 C1065 1.363 . S
C1064 C1069 1.379 . S
C1064 N1071 1.356 1_556 S
C1065 C1064 1.363 . S
C1065 C1068 1.363 . S
N1066 C1068 1.356 . S
N1066 H1078 0.984 . S
N1066 H1079 0.985 . S
N1067 C1069 1.356 1_554 S
N1067 H1072 0.984 1_554 S
N1067 H1073 0.985 . S
C1068 C1062 1.379 . S
C1068 C1065 1.363 . S
C1068 N1066 1.356 . S
C1069 C1063 1.363 . S
C1069 C1064 1.379 . S
C1069 N1067 1.356 1_556 S
N1070 C1062 1.356 . S
N1070 H1076 0.984 . S
N1070 H1077 0.984 . S
N1071 C1064 1.356 1_554 S
N1071 H1074 0.984 . S
N1071 H1075 0.985 . S
H1072 N1067 0.984 1_556 S
H1073 N1067 0.985 . S
H1074 N1071 0.984 . S
H1075 N1071 0.985 . S
H1076 N1070 0.984 . S
H1077 N1070 0.984 . S
H1078 N1066 0.984 . S
H1079 N1066 0.985 . S
C1080 C1081 1.363 . S
C1080 C1086 1.379 . S
C1080 N1088 1.356 . S
C1081 C1080 1.363 . S
C1081 C1087 1.363 . S
C1082 C1083 1.363 . S
C1082 C1087 1.379 . S
C1082 N1089 1.356 . S
C1083 C1082 1.363 . S
C1083 C1086 1.363 . S
N1084 C1086 1.356 . S
N1084 H1096 0.984 . S
N1084 H1097 0.985 . S
N1085 C1087 1.356 . S
N1085 H1090 0.984 . S
N1085 H1091 0.985 . S
C1086 C1080 1.379 . S
C1086 C1083 1.363 . S
C1086 N1084 1.356 . S
C1087 C1081 1.363 . S
C1087 C1082 1.379 . S
C1087 N1085 1.356 . S
N1088 C1080 1.356 . S
N1088 H1094 0.984 . S
N1088 H1095 0.984 . S
N1089 C1082 1.356 . S
N1089 H1092 0.984 . S
N1089 H1093 0.985 . S
H1090 N1085 0.984 . S
H1091 N1085 0.985 . S
H1092 N1089 0.984 . S
H1093 N1089 0.985 . S
H1094 N1088 0.984 . S
H1095 N1088 0.984 . S
H1096 N1084 0.984 . S
H1097 N1084 0.985 . S
C1098 C1099 1.363 . S
C1098 C1104 1.379 . S
C1098 N1106 1.356 . S
C1099 C1098 1.363 . S
C1099 C1105 1.363 . S
C1100 C1101 1.368 . S
C1100 C1105 1.380 . S
C1100 N1107 1.351 1_556 S
C1101 C1100 1.368 . S
C1101 C1104 1.363 . S
N1102 C1104 1.356 . S
N1102 H1114 0.984 . S
N1102 H1115 0.985 . S
N1103 C1105 1.356 1_554 S
N1103 H1108 0.984 1_554 S
N1103 H1109 0.985 . S
C1104 C1098 1.379 . S
C1104 C1101 1.363 . S
C1104 N1102 1.356 . S
C1105 C1099 1.363 . S
C1105 C1100 1.380 . S
C1105 N1103 1.356 1_556 S
N1106 C1098 1.356 . S
N1106 H1112 0.984 . S
N1106 H1113 0.984 . S
N1107 C1100 1.351 1_554 S
N1107 H1110 0.984 . S
N1107 H1111 0.985 . S
H1108 N1103 0.984 1_556 S
H1109 N1103 0.985 . S
H1110 N1107 0.984 . S
H1111 N1107 0.985 . S
H1112 N1106 0.984 . S
H1113 N1106 0.984 . S
H1114 N1102 0.984 . S
H1115 N1102 0.985 . S
C1116 C1117 1.363 . S
C1116 C1122 1.379 . S
C1116 N1124 1.356 . S
C1117 C1116 1.363 . S
C1117 C1123 1.363 . S
C1118 C1119 1.363 . S
C1118 C1123 1.379 . S
C1118 N1125 1.356 . S
C1119 C1118 1.363 . S
C1119 C1122 1.363 . S
N1120 C1122 1.356 1_554 S
N1120 H1132 0.984 . S
N1120 H1133 0.985 . S
N1121 C1123 1.356 . S
N1121 H1126 0.984 . S
N1121 H1127 0.985 . S
C1122 C1116 1.379 . S
C1122 C1119 1.363 . S
C1122 N1120 1.356 1_556 S
C1123 C1117 1.363 . S
C1123 C1118 1.379 . S
C1123 N1121 1.356 . S
N1124 C1116 1.356 . S
N1124 H1130 0.984 1_556 S
N1124 H1131 0.984 . S
N1125 C1118 1.356 . S
N1125 H1128 0.984 . S
N1125 H1129 0.985 . S
H1126 N1121 0.984 . S
H1127 N1121 0.985 . S
H1128 N1125 0.984 . S
H1129 N1125 0.985 . S
H1130 N1124 0.984 1_554 S
H1131 N1124 0.984 . S
H1132 N1120 0.984 . S
H1133 N1120 0.985 . S
C1134 C1135 1.363 . S
C1134 C1140 1.379 . S
C1134 N1142 1.356 . S
C1135 C1134 1.363 . S
C1135 C1141 1.363 . S
C1136 C1137 1.363 . S
C1136 C1141 1.379 . S
C1136 N1143 1.356 . S
C1137 C1136 1.363 . S
C1137 C1140 1.363 . S
N1138 C1140 1.356 . S
N1138 H1150 0.984 . S
N1138 H1151 0.985 . S
N1139 C1141 1.356 . S
N1139 H1144 0.984 . S
N1139 H1145 0.985 . S
C1140 C1134 1.379 . S
C1140 C1137 1.363 . S
C1140 N1138 1.356 . S
C1141 C1135 1.363 . S
C1141 C1136 1.379 . S
C1141 N1139 1.356 . S
N1142 C1134 1.356 . S
N1142 H1148 0.984 . S
N1142 H1149 0.984 . S
N1143 C1136 1.356 . S
N1143 H1146 0.984 . S
N1143 H1147 0.977 1_556 S
H1144 N1139 0.984 . S
H1145 N1139 0.985 . S
H1146 N1143 0.984 . S
H1147 N1143 0.977 1_554 S
H1148 N1142 0.984 . S
H1149 N1142 0.984 . S
H1150 N1138 0.984 . S
H1151 N1138 0.985 . S
C1152 C1153 1.352 1_554 S
C1152 C1158 1.378 . S
C1152 N1160 1.366 . S
C1153 C1152 1.352 1_556 S
C1153 C1159 1.363 . S
C1154 C1155 1.363 . S
C1154 C1159 1.379 . S
C1154 N1161 1.356 . S
C1155 C1154 1.363 . S
C1155 C1158 1.363 1_556 S
N1156 C1158 1.356 . S
N1156 H1168 0.984 . S
N1156 H1169 0.985 . S
N1157 C1159 1.356 . S
N1157 H1162 0.984 . S
N1157 H1163 0.985 . S
C1158 C1152 1.378 . S
C1158 C1155 1.363 1_554 S
C1158 N1156 1.356 . S
C1159 C1153 1.363 . S
C1159 C1154 1.379 . S
C1159 N1157 1.356 . S
N1160 C1152 1.366 . S
N1160 H1166 0.984 . S
N1160 H1167 0.984 . S
N1161 C1154 1.356 . S
N1161 H1164 0.984 . S
N1161 H1165 0.985 . S
H1162 N1157 0.984 . S
H1163 N1157 0.985 . S
H1164 N1161 0.984 . S
H1165 N1161 0.985 . S
H1166 N1160 0.984 . S
H1167 N1160 0.984 . S
H1168 N1156 0.984 . S
H1169 N1156 0.985 . S
C1170 C1171 1.363 . S
C1170 C1176 1.379 . S
C1170 N1178 1.356 . S
C1171 C1170 1.363 . S
C1171 C1177 1.363 . S
C1172 C1173 1.363 . S
C1172 C1177 1.379 . S
C1172 N1179 1.356 1_554 S
C1173 C1172 1.363 . S
C1173 C1176 1.363 . S
N1174 C1176 1.356 . S
N1174 H1186 0.984 . S
N1174 H1187 0.985 . S
N1175 C1177 1.356 1_556 S
N1175 H1180 0.984 1_556 S
N1175 H1181 0.985 . S
C1176 C1170 1.379 . S
C1176 C1173 1.363 . S
C1176 N1174 1.356 . S
C1177 C1171 1.363 . S
C1177 C1172 1.379 . S
C1177 N1175 1.356 1_554 S
N1178 C1170 1.356 . S
N1178 H1184 0.984 . S
N1178 H1185 0.984 . S
N1179 C1172 1.356 1_556 S
N1179 H1182 0.984 . S
N1179 H1183 0.985 . S
H1180 N1175 0.984 1_554 S
H1181 N1175 0.985 . S
H1182 N1179 0.984 . S
H1183 N1179 0.985 . S
H1184 N1178 0.984 . S
H1185 N1178 0.984 . S
H1186 N1174 0.984 . S
H1187 N1174 0.985 . S
C1188 C1189 1.363 . S
C1188 C1194 1.379 . S
C1188 N1196 1.356 . S
C1189 C1188 1.363 . S
C1189 C1195 1.363 . S
C1190 C1191 1.363 . S
C1190 C1195 1.379 . S
C1190 N1197 1.356 . S
C1191 C1190 1.363 . S
C1191 C1194 1.363 . S
N1192 C1194 1.356 . S
N1192 H1204 0.984 . S
N1192 H1205 0.985 . S
N1193 C1195 1.356 . S
N1193 H1198 0.984 . S
N1193 H1199 0.985 . S
C1194 C1188 1.379 . S
C1194 C1191 1.363 . S
C1194 N1192 1.356 . S
C1195 C1189 1.363 . S
C1195 C1190 1.379 . S
C1195 N1193 1.356 . S
N1196 C1188 1.356 . S
N1196 H1202 0.984 . S
N1196 H1203 0.984 . S
N1197 C1190 1.356 . S
N1197 H1200 0.984 . S
N1197 H1201 0.985 . S
H1198 N1193 0.984 . S
H1199 N1193 0.985 . S
H1200 N1197 0.984 . S
H1201 N1197 0.985 . S
H1202 N1196 0.984 . S
H1203 N1196 0.984 . S
H1204 N1192 0.984 . S
H1205 N1192 0.985 . S
C1206 C1207 1.363 . S
C1206 C1212 1.379 . S
C1206 N1214 1.356 . S
C1207 C1206 1.363 . S
C1207 C1213 1.363 . S
C1208 C1209 1.382 . S
C1208 C1213 1.383 . S
C1208 N1215 1.337 1_554 S
C1209 C1208 1.382 . S
C1209 C1212 1.363 . S
N1210 C1212 1.356 . S
N1210 H1222 0.984 . S
N1210 H1223 0.985 . S
N1211 C1213 1.356 1_556 S
N1211 H1216 0.971 1_556 S
N1211 H1217 0.985 . S
C1212 C1206 1.379 . S
C1212 C1209 1.363 . S
C1212 N1210 1.356 . S
C1213 C1207 1.363 . S
C1213 C1208 1.383 . S
C1213 N1211 1.356 1_554 S
N1214 C1206 1.356 . S
N1214 H1220 0.984 . S
N1214 H1221 0.984 . S
N1215 C1208 1.337 1_556 S
N1215 H1218 0.984 . S
N1215 H1219 0.985 . S
H1216 N1211 0.971 1_554 S
H1217 N1211 0.985 . S
H1218 N1215 0.984 . S
H1219 N1215 0.985 . S
H1220 N1214 0.984 . S
H1221 N1214 0.984 . S
H1222 N1210 0.984 . S
H1223 N1210 0.985 . S
C1224 C1225 1.363 . S
C1224 C1230 1.379 . S
C1224 N1232 1.356 1_455 S
C1225 C1224 1.363 . S
C1225 C1231 1.363 . S
C1226 C1227 1.363 . S
C1226 C1231 1.379 . S
C1226 N1233 1.356 . S
C1227 C1226 1.363 . S
C1227 C1230 1.363 . S
N1228 C1230 1.356 . S
N1228 H1240 0.984 . S
N1228 H1241 0.985 . S
N1229 C1231 1.356 . S
N1229 H1234 0.987 . S
N1229 H1235 0.985 . S
C1230 C1224 1.379 . S
C1230 C1227 1.363 . S
C1230 N1228 1.356 . S
C1231 C1225 1.363 . S
C1231 C1226 1.379 . S
C1231 N1229 1.356 . S
N1232 C1224 1.356 1_655 S
N1232 H1238 0.984 . S
N1232 H1239 0.984 . S
N1233 C1226 1.356 . S
N1233 H1236 0.984 . S
N1233 H1237 0.985 . S
H1234 N1229 0.987 . S
H1235 N1229 0.985 . S
H1236 N1233 0.984 . S
H1237 N1233 0.985 . S
H1238 N1232 0.984 . S
H1239 N1232 0.984 . S
H1240 N1228 0.984 . S
H1241 N1228 0.985 . S
C1242 C1243 1.363 . S
C1242 C1248 1.379 . S
C1242 N1250 1.356 . S
C1243 C1242 1.363 . S
C1243 C1249 1.363 . S
C1244 C1245 1.363 . S
C1244 C1249 1.379 . S
C1244 N1251 1.356 . S
C1245 C1244 1.363 . S
C1245 C1248 1.363 . S
N1246 C1248 1.356 . S
N1246 H1258 0.984 . S
N1246 H1259 0.985 . S
N1247 C1249 1.356 . S
N1247 H1252 0.984 . S
N1247 H1253 0.985 . S
C1248 C1242 1.379 . S
C1248 C1245 1.363 . S
C1248 N1246 1.356 . S
C1249 C1243 1.363 . S
C1249 C1244 1.379 . S
C1249 N1247 1.356 . S
N1250 C1242 1.356 . S
N1250 H1256 0.984 . S
N1250 H1257 0.984 . S
N1251 C1244 1.356 . S
N1251 H1254 0.984 . S
N1251 H1255 0.985 . S
H1252 N1247 0.984 . S
H1253 N1247 0.985 . S
H1254 N1251 0.984 . S
H1255 N1251 0.985 . S
H1256 N1250 0.984 . S
H1257 N1250 0.984 . S
H1258 N1246 0.984 . S
H1259 N1246 0.985 . S
C1260 C1261 1.363 1_565 S
C1260 C1266 1.379 . S
C1260 N1268 1.356 1_565 S
C1261 C1260 1.363 1_545 S
C1261 C1267 1.363 1_545 S
C1262 C1263 1.363 . S
C1262 C1267 1.379 . S
C1262 N1269 1.356 . S
C1263 C1262 1.363 . S
C1263 C1266 1.363 . S
N1264 C1266 1.356 . S
N1264 H1276 0.984 . S
N1264 H1277 0.985 . S
N1265 C1267 1.356 1_545 S
N1265 H1270 0.984 . S
N1265 H1271 0.985 . S
C1266 C1260 1.379 . S
C1266 C1263 1.363 . S
C1266 N1264 1.356 . S
C1267 C1261 1.363 1_565 S
C1267 C1262 1.379 . S
C1267 N1265 1.356 1_565 S
N1268 C1260 1.356 1_545 S
N1268 H1274 0.984 . S
N1268 H1275 0.984 . S
N1269 C1262 1.356 . S
N1269 H1272 0.984 . S
N1269 H1273 0.985 . S
H1270 N1265 0.984 . S
H1271 N1265 0.985 . S
H1272 N1269 0.984 . S
H1273 N1269 0.985 . S
H1274 N1268 0.984 . S
H1275 N1268 0.984 . S
H1276 N1264 0.984 . S
H1277 N1264 0.985 . S
C1278 C1279 1.363 . S
C1278 C1284 1.379 . S
C1278 N1286 1.356 . S
C1279 C1278 1.363 . S
C1279 C1285 1.363 . S
C1280 C1281 1.363 . S
C1280 C1285 1.379 . S
C1280 N1287 1.356 . S
C1281 C1280 1.363 . S
C1281 C1284 1.363 . S
N1282 C1284 1.356 . S
N1282 H1294 0.984 . S
N1282 H1295 0.985 . S
N1283 C1285 1.356 . S
N1283 H1288 0.984 . S
N1283 H1289 0.985 . S
C1284 C1278 1.379 . S
C1284 C1281 1.363 . S
C1284 N1282 1.356 . S
C1285 C1279 1.363 . S
C1285 C1280 1.379 . S
C1285 N1283 1.356 . S
N1286 C1278 1.356 . S
N1286 H1292 0.984 . S
N1286 H1293 0.984 . S
N1287 C1280 1.356 . S
N1287 H1290 0.984 . S
N1287 H1291 0.985 . S
H1288 N1283 0.984 . S
H1289 N1283 0.985 . S
H1290 N1287 0.984 . S
H1291 N1287 0.985 . S
H1292 N1286 0.984 . S
H1293 N1286 0.984 . S
H1294 N1282 0.984 . S
H1295 N1282 0.985 . S
C1296 C1297 1.363 . S
C1296 C1302 1.379 . S
C1296 N1304 1.356 . S
C1297 C1296 1.363 . S
C1297 C1303 1.363 . S
C1298 C1299 1.363 . S
C1298 C1303 1.379 . S
C1298 N1305 1.356 . S
C1299 C1298 1.363 . S
C1299 C1302 1.363 . S
N1300 C1302 1.356 . S
N1300 H1312 0.984 . S
N1300 H1313 0.985 . S
N1301 C1303 1.356 . S
N1301 H1306 0.984 . S
N1301 H1307 0.985 . S
C1302 C1296 1.379 . S
C1302 C1299 1.363 . S
C1302 N1300 1.356 . S
C1303 C1297 1.363 . S
C1303 C1298 1.379 . S
C1303 N1301 1.356 . S
N1304 C1296 1.356 . S
N1304 H1310 0.984 . S
N1304 H1311 0.984 . S
N1305 C1298 1.356 . S
N1305 H1308 0.984 . S
N1305 H1309 0.985 . S
H1306 N1301 0.984 . S
H1307 N1301 0.985 . S
H1308 N1305 0.984 . S
H1309 N1305 0.985 . S
H1310 N1304 0.984 . S
H1311 N1304 0.984 . S
H1312 N1300 0.984 . S
H1313 N1300 0.985 . S
C1314 C1315 1.363 . S
C1314 C1320 1.379 . S
C1314 N1322 1.356 . S
C1315 C1314 1.363 . S
C1315 C1321 1.363 . S
C1316 C1317 1.363 . S
C1316 C1321 1.379 . S
C1316 N1323 1.356 . S
C1317 C1316 1.363 . S
C1317 C1320 1.363 . S
N1318 C1320 1.356 . S
N1318 H1330 0.984 . S
N1318 H1331 0.985 . S
N1319 C1321 1.356 . S
N1319 H1324 0.984 . S
N1319 H1325 0.985 . S
C1320 C1314 1.379 . S
C1320 C1317 1.363 . S
C1320 N1318 1.356 . S
C1321 C1315 1.363 . S
C1321 C1316 1.379 . S
C1321 N1319 1.356 . S
N1322 C1314 1.356 . S
N1322 H1328 0.984 . S
N1322 H1329 0.984 . S
N1323 C1316 1.356 . S
N1323 H1326 0.984 . S
N1323 H1327 0.985 . S
H1324 N1319 0.984 . S
H1325 N1319 0.985 . S
H1326 N1323 0.984 . S
H1327 N1323 0.985 . S
H1328 N1322 0.984 . S
H1329 N1322 0.984 . S
H1330 N1318 0.984 . S
H1331 N1318 0.985 . S
C1332 C1333 1.363 . S
C1332 C1338 1.379 . S
C1332 N1340 1.356 . S
C1333 C1332 1.363 . S
C1333 C1339 1.363 . S
C1334 C1335 1.363 . S
C1334 C1339 1.379 . S
C1334 N1341 1.356 . S
C1335 C1334 1.363 . S
C1335 C1338 1.363 . S
N1336 C1338 1.356 . S
N1336 H1348 0.984 . S
N1336 H1349 0.985 . S
N1337 C1339 1.356 . S
N1337 H1342 0.984 . S
N1337 H1343 0.985 . S
C1338 C1332 1.379 . S
C1338 C1335 1.363 . S
C1338 N1336 1.356 . S
C1339 C1333 1.363 . S
C1339 C1334 1.379 . S
C1339 N1337 1.356 . S
N1340 C1332 1.356 . S
N1340 H1346 0.984 . S
N1340 H1347 0.984 . S
N1341 C1334 1.356 . S
N1341 H1344 0.984 . S
N1341 H1345 0.985 . S
H1342 N1337 0.984 . S
H1343 N1337 0.985 . S
H1344 N1341 0.984 . S
H1345 N1341 0.985 . S
H1346 N1340 0.984 . S
H1347 N1340 0.984 . S
H1348 N1336 0.984 . S
H1349 N1336 0.985 . S
C1350 C1351 1.363 . S
C1350 C1356 1.379 . S
C1350 N1358 1.356 . S
C1351 C1350 1.363 . S
C1351 C1357 1.363 . S
C1352 C1353 1.363 . S
C1352 C1357 1.379 . S
C1352 N1359 1.356 . S
C1353 C1352 1.363 . S
C1353 C1356 1.363 . S
N1354 C1356 1.356 . S
N1354 H1366 0.984 . S
N1354 H1367 0.985 . S
N1355 C1357 1.356 . S
N1355 H1360 0.984 . S
N1355 H1361 0.985 . S
C1356 C1350 1.379 . S
C1356 C1353 1.363 . S
C1356 N1354 1.356 . S
C1357 C1351 1.363 . S
C1357 C1352 1.379 . S
C1357 N1355 1.356 . S
N1358 C1350 1.356 . S
N1358 H1364 0.984 . S
N1358 H1365 0.984 . S
N1359 C1352 1.356 . S
N1359 H1362 0.984 . S
N1359 H1363 0.985 . S
H1360 N1355 0.984 . S
H1361 N1355 0.985 . S
H1362 N1359 0.984 . S
H1363 N1359 0.985 . S
H1364 N1358 0.984 . S
H1365 N1358 0.984 . S
H1366 N1354 0.984 . S
H1367 N1354 0.985 . S
C1368 C1369 1.363 . S
C1368 C1374 1.379 . S
C1368 N1376 1.356 . S
C1369 C1368 1.363 . S
C1369 C1375 1.363 . S
C1370 C1371 1.363 . S
C1370 C1375 1.379 . S
C1370 N1377 1.356 . S
C1371 C1370 1.363 . S
C1371 C1374 1.363 . S
N1372 C1374 1.356 . S
N1372 H1384 0.984 . S
N1372 H1385 0.985 . S
N1373 C1375 1.356 . S
N1373 H1378 0.984 . S
N1373 H1379 0.985 . S
C1374 C1368 1.379 . S
C1374 C1371 1.363 . S
C1374 N1372 1.356 . S
C1375 C1369 1.363 . S
C1375 C1370 1.379 . S
C1375 N1373 1.356 . S
N1376 C1368 1.356 . S
N1376 H1382 0.984 . S
N1376 H1383 0.984 . S
N1377 C1370 1.356 . S
N1377 H1380 0.984 . S
N1377 H1381 0.985 . S
H1378 N1373 0.984 . S
H1379 N1373 0.985 . S
H1380 N1377 0.984 . S
H1381 N1377 0.985 . S
H1382 N1376 0.984 . S
H1383 N1376 0.984 . S
H1384 N1372 0.984 . S
H1385 N1372 0.985 . S
C1386 C1387 1.360 . S
C1386 C1392 1.379 . S
C1386 N1394 1.356 1_565 S
C1387 C1386 1.360 . S
C1387 C1393 1.362 . S
C1388 C1389 1.363 . S
C1388 C1393 1.379 . S
C1388 N1395 1.356 . S
C1389 C1388 1.363 . S
C1389 C1392 1.363 . S
N1390 C1392 1.356 . S
N1390 H1402 0.984 . S
N1390 H1403 0.985 . S
N1391 C1393 1.356 1_545 S
N1391 H1396 0.984 . S
N1391 H1397 0.985 . S
C1392 C1386 1.379 . S
C1392 C1389 1.363 . S
C1392 N1390 1.356 . S
C1393 C1387 1.362 . S
C1393 C1388 1.379 . S
C1393 N1391 1.356 1_565 S
N1394 C1386 1.356 1_545 S
N1394 H1400 0.984 . S
N1394 H1401 0.984 . S
N1395 C1388 1.356 . S
N1395 H1398 0.984 . S
N1395 H1399 0.985 . S
H1396 N1391 0.984 . S
H1397 N1391 0.985 . S
H1398 N1395 0.984 . S
H1399 N1395 0.985 . S
H1400 N1394 0.984 . S
H1401 N1394 0.984 . S
H1402 N1390 0.984 . S
H1403 N1390 0.985 . S
C1404 C1405 1.363 . S
C1404 C1410 1.379 . S
C1404 N1412 1.356 . S
C1405 C1404 1.363 . S
C1405 C1411 1.363 . S
C1406 C1407 1.363 . S
C1406 C1411 1.379 . S
C1406 N1413 1.356 . S
C1407 C1406 1.363 . S
C1407 C1410 1.363 . S
N1408 C1410 1.356 . S
N1408 H1420 0.984 . S
N1408 H1421 0.985 . S
N1409 C1411 1.356 . S
N1409 H1414 0.984 . S
N1409 H1415 0.985 . S
C1410 C1404 1.379 . S
C1410 C1407 1.363 . S
C1410 N1408 1.356 . S
C1411 C1405 1.363 . S
C1411 C1406 1.379 . S
C1411 N1409 1.356 . S
N1412 C1404 1.356 . S
N1412 H1418 0.984 . S
N1412 H1419 0.984 1_455 S
N1413 C1406 1.356 . S
N1413 H1416 0.984 . S
N1413 H1417 0.985 . S
H1414 N1409 0.984 . S
H1415 N1409 0.985 . S
H1416 N1413 0.984 . S
H1417 N1413 0.985 . S
H1418 N1412 0.984 . S
H1419 N1412 0.984 1_655 S
H1420 N1408 0.984 . S
H1421 N1408 0.985 . S
C1422 C1423 1.363 . S
C1422 C1428 1.379 . S
C1422 N1430 1.356 . S
C1423 C1422 1.363 . S
C1423 C1429 1.363 . S
C1424 C1425 1.363 . S
C1424 C1429 1.379 . S
C1424 N1431 1.356 . S
C1425 C1424 1.363 . S
C1425 C1428 1.363 . S
N1426 C1428 1.356 . S
N1426 H1438 0.984 . S
N1426 H1439 0.985 . S
N1427 C1429 1.356 . S
N1427 H1432 0.984 . S
N1427 H1433 0.985 . S
C1428 C1422 1.379 . S
C1428 C1425 1.363 . S
C1428 N1426 1.356 . S
C1429 C1423 1.363 . S
C1429 C1424 1.379 . S
C1429 N1427 1.356 . S
N1430 C1422 1.356 . S
N1430 H1436 0.984 . S
N1430 H1437 0.984 . S
N1431 C1424 1.356 . S
N1431 H1434 0.984 . S
N1431 H1435 0.985 . S
H1432 N1427 0.984 . S
H1433 N1427 0.985 . S
H1434 N1431 0.984 . S
H1435 N1431 0.985 . S
H1436 N1430 0.984 . S
H1437 N1430 0.984 . S
H1438 N1426 0.984 . S
H1439 N1426 0.985 . S
C1440 C1441 1.363 . S
C1440 C1446 1.379 . S
C1440 N1448 1.356 . S
C1441 C1440 1.363 . S
C1441 C1447 1.363 . S
C1442 C1443 1.363 . S
C1442 C1447 1.379 . S
C1442 N1449 1.356 . S
C1443 C1442 1.363 . S
C1443 C1446 1.363 . S
N1444 C1446 1.356 . S
N1444 H1456 0.984 . S
N1444 H1457 0.985 . S
N1445 C1447 1.356 . S
N1445 H1450 0.984 . S
N1445 H1451 0.985 . S
C1446 C1440 1.379 . S
C1446 C1443 1.363 . S
C1446 N1444 1.356 . S
C1447 C1441 1.363 . S
C1447 C1442 1.379 . S
C1447 N1445 1.356 . S
N1448 C1440 1.356 . S
N1448 H1454 0.984 . S
N1448 H1455 0.984 . S
N1449 C1442 1.356 . S
N1449 H1452 0.984 . S
N1449 H1453 0.985 . S
H1450 N1445 0.984 . S
H1451 N1445 0.985 . S
H1452 N1449 0.984 . S
H1453 N1449 0.985 . S
H1454 N1448 0.984 . S
H1455 N1448 0.984 . S
H1456 N1444 0.984 . S
H1457 N1444 0.985 . S
C1458 C1459 1.363 . S
C1458 C1464 1.379 . S
C1458 N1466 1.356 . S
C1459 C1458 1.363 . S
C1459 C1465 1.363 . S
C1460 C1461 1.363 . S
C1460 C1465 1.379 . S
C1460 N1467 1.356 . S
C1461 C1460 1.363 . S
C1461 C1464 1.363 . S
N1462 C1464 1.356 . S
N1462 H1474 0.984 . S
N1462 H1475 0.985 . S
N1463 C1465 1.356 . S
N1463 H1468 0.984 . S
N1463 H1469 0.985 . S
C1464 C1458 1.379 . S
C1464 C1461 1.363 . S
C1464 N1462 1.356 . S
C1465 C1459 1.363 . S
C1465 C1460 1.379 . S
C1465 N1463 1.356 . S
N1466 C1458 1.356 . S
N1466 H1472 0.984 . S
N1466 H1473 0.984 . S
N1467 C1460 1.356 . S
N1467 H1470 0.984 . S
N1467 H1471 0.985 . S
H1468 N1463 0.984 . S
H1469 N1463 0.985 . S
H1470 N1467 0.984 . S
H1471 N1467 0.985 . S
H1472 N1466 0.984 . S
H1473 N1466 0.984 . S
H1474 N1462 0.984 . S
H1475 N1462 0.985 . S
C1476 C1477 1.363 . S
C1476 C1482 1.379 . S
C1476 N1484 1.356 . S
C1477 C1476 1.363 . S
C1477 C1483 1.363 . S
C1478 C1479 1.363 . S
C1478 C1483 1.379 . S
C1478 N1485 1.356 . S
C1479 C1478 1.363 . S
C1479 C1482 1.363 . S
N1480 C1482 1.356 . S
N1480 H1492 0.984 . S
N1480 H1493 0.985 . S
N1481 C1483 1.356 . S
N1481 H1486 0.984 . S
N1481 H1487 0.985 . S
C1482 C1476 1.379 . S
C1482 C1479 1.363 . S
C1482 N1480 1.356 . S
C1483 C1477 1.363 . S
C1483 C1478 1.379 . S
C1483 N1481 1.356 . S
N1484 C1476 1.356 . S
N1484 H1490 0.984 . S
N1484 H1491 0.984 . S
N1485 C1478 1.356 . S
N1485 H1488 0.984 . S
N1485 H1489 0.985 . S
H1486 N1481 0.984 . S
H1487 N1481 0.985 . S
H1488 N1485 0.984 . S
H1489 N1485 0.985 . S
H1490 N1484 0.984 . S
H1491 N1484 0.984 . S
H1492 N1480 0.984 . S
H1493 N1480 0.985 . S
C1494 C1495 1.359 1_545 S
C1494 C1500 1.379 . S
C1494 N1502 1.356 1_545 S
C1495 C1494 1.359 1_565 S
C1495 C1501 1.361 1_565 S
C1496 C1497 1.363 . S
C1496 C1501 1.379 . S
C1496 N1503 1.356 . S
C1497 C1496 1.363 . S
C1497 C1500 1.363 . S
N1498 C1500 1.356 . S
N1498 H1510 0.984 . S
N1498 H1511 0.985 . S
N1499 C1501 1.356 1_565 S
N1499 H1504 0.984 . S
N1499 H1505 0.985 1_565 S
C1500 C1494 1.379 . S
C1500 C1497 1.363 . S
C1500 N1498 1.356 . S
C1501 C1495 1.361 1_545 S
C1501 C1496 1.379 . S
C1501 N1499 1.356 1_545 S
N1502 C1494 1.356 1_565 S
N1502 H1508 0.984 . S
N1502 H1509 0.984 . S
N1503 C1496 1.356 . S
N1503 H1506 0.984 . S
N1503 H1507 0.985 . S
H1504 N1499 0.984 . S
H1505 N1499 0.985 1_545 S
H1506 N1503 0.984 . S
H1507 N1503 0.985 . S
H1508 N1502 0.984 . S
H1509 N1502 0.984 . S
H1510 N1498 0.984 . S
H1511 N1498 0.985 . S
C1512 C1513 1.363 . S
C1512 C1518 1.379 . S
C1512 N1520 1.356 . S
C1513 C1512 1.363 . S
C1513 C1519 1.363 . S
C1514 C1515 1.363 . S
C1514 C1519 1.379 . S
C1514 N1521 1.356 . S
C1515 C1514 1.363 . S
C1515 C1518 1.363 . S
N1516 C1518 1.356 . S
N1516 H1528 0.984 . S
N1516 H1529 0.985 . S
N1517 C1519 1.356 1_455 S
N1517 H1522 0.984 . S
N1517 H1523 0.985 . S
C1518 C1512 1.379 . S
C1518 C1515 1.363 . S
C1518 N1516 1.356 . S
C1519 C1513 1.363 . S
C1519 C1514 1.379 . S
C1519 N1517 1.356 1_655 S
N1520 C1512 1.356 . S
N1520 H1526 0.984 . S
N1520 H1527 0.984 . S
N1521 C1514 1.356 . S
N1521 H1524 0.984 . S
N1521 H1525 0.985 . S
H1522 N1517 0.984 . S
H1523 N1517 0.985 . S
H1524 N1521 0.984 . S
H1525 N1521 0.985 . S
H1526 N1520 0.984 . S
H1527 N1520 0.984 . S
H1528 N1516 0.984 . S
H1529 N1516 0.985 . S
C1530 C1531 1.363 . S
C1530 C1536 1.379 . S
C1530 N1538 1.356 . S
C1531 C1530 1.363 . S
C1531 C1537 1.363 . S
C1532 C1533 1.363 . S
C1532 C1537 1.379 . S
C1532 N1539 1.356 . S
C1533 C1532 1.363 . S
C1533 C1536 1.363 . S
N1534 C1536 1.356 . S
N1534 H1546 0.984 . S
N1534 H1547 0.985 . S
N1535 C1537 1.356 . S
N1535 H1540 0.984 . S
N1535 H1541 0.985 . S
C1536 C1530 1.379 . S
C1536 C1533 1.363 . S
C1536 N1534 1.356 . S
C1537 C1531 1.363 . S
C1537 C1532 1.379 . S
C1537 N1535 1.356 . S
N1538 C1530 1.356 . S
N1538 H1544 0.984 . S
N1538 H1545 0.984 . S
N1539 C1532 1.356 . S
N1539 H1542 0.984 . S
N1539 H1543 0.985 . S
H1540 N1535 0.984 . S
H1541 N1535 0.985 . S
H1542 N1539 0.984 . S
H1543 N1539 0.985 . S
H1544 N1538 0.984 . S
H1545 N1538 0.984 . S
H1546 N1534 0.984 . S
H1547 N1534 0.985 . S
C1548 C1549 1.363 . S
C1548 C1554 1.379 . S
C1548 N1556 1.356 1_655 S
C1549 C1548 1.363 . S
C1549 C1555 1.363 . S
C1550 C1551 1.363 . S
C1550 C1555 1.379 . S
C1550 N1557 1.356 . S
C1551 C1550 1.363 . S
C1551 C1554 1.363 . S
N1552 C1554 1.356 . S
N1552 H1564 0.984 . S
N1552 H1565 0.985 . S
N1553 C1555 1.356 . S
N1553 H1558 1.002 . S
N1553 H1559 0.985 . S
C1554 C1548 1.379 . S
C1554 C1551 1.363 . S
C1554 N1552 1.356 . S
C1555 C1549 1.363 . S
C1555 C1550 1.379 . S
C1555 N1553 1.356 . S
N1556 C1548 1.356 1_455 S
N1556 H1562 0.984 . S
N1556 H1563 0.984 . S
N1557 C1550 1.356 . S
N1557 H1560 0.984 . S
N1557 H1561 0.985 . S
H1558 N1553 1.002 . S
H1559 N1553 0.985 . S
H1560 N1557 0.984 . S
H1561 N1557 0.985 . S
H1562 N1556 0.984 . S
H1563 N1556 0.984 . S
H1564 N1552 0.984 . S
H1565 N1552 0.985 . S
C1566 C1567 1.363 . S
C1566 C1572 1.379 . S
C1566 N1574 1.356 . S
C1567 C1566 1.363 . S
C1567 C1573 1.363 . S
C1568 C1569 1.363 . S
C1568 C1573 1.379 . S
C1568 N1575 1.356 . S
C1569 C1568 1.363 . S
C1569 C1572 1.363 . S
N1570 C1572 1.356 . S
N1570 H1582 0.984 . S
N1570 H1583 0.985 . S
N1571 C1573 1.356 . S
N1571 H1576 0.984 . S
N1571 H1577 0.985 . S
C1572 C1566 1.379 . S
C1572 C1569 1.363 . S
C1572 N1570 1.356 . S
C1573 C1567 1.363 . S
C1573 C1568 1.379 . S
C1573 N1571 1.356 . S
N1574 C1566 1.356 . S
N1574 H1580 0.984 . S
N1574 H1581 0.984 . S
N1575 C1568 1.356 . S
N1575 H1578 0.984 . S
N1575 H1579 0.985 . S
H1576 N1571 0.984 . S
H1577 N1571 0.985 . S
H1578 N1575 0.984 . S
H1579 N1575 0.985 . S
H1580 N1574 0.984 . S
H1581 N1574 0.984 . S
H1582 N1570 0.984 . S
H1583 N1570 0.985 . S
C1584 C1585 1.363 1_545 S
C1584 C1590 1.379 . S
C1584 N1592 1.356 1_545 S
C1585 C1584 1.363 1_565 S
C1585 C1591 1.363 1_565 S
C1586 C1587 1.363 . S
C1586 C1591 1.379 . S
C1586 N1593 1.356 . S
C1587 C1586 1.363 . S
C1587 C1590 1.363 . S
N1588 C1590 1.356 . S
N1588 H1600 0.984 . S
N1588 H1601 0.985 . S
N1589 C1591 1.356 1_565 S
N1589 H1594 0.984 . S
N1589 H1595 0.985 . S
C1590 C1584 1.379 . S
C1590 C1587 1.363 . S
C1590 N1588 1.356 . S
C1591 C1585 1.363 1_545 S
C1591 C1586 1.379 . S
C1591 N1589 1.356 1_545 S
N1592 C1584 1.356 1_565 S
N1592 H1598 0.984 1_565 S
N1592 H1599 0.984 . S
N1593 C1586 1.356 . S
N1593 H1596 0.984 . S
N1593 H1597 0.985 . S
H1594 N1589 0.984 . S
H1595 N1589 0.985 . S
H1596 N1593 0.984 . S
H1597 N1593 0.985 . S
H1598 N1592 0.984 1_545 S
H1599 N1592 0.984 . S
H1600 N1588 0.984 . S
H1601 N1588 0.985 . S
C1602 C1603 1.363 . S
C1602 C1608 1.379 . S
C1602 N1610 1.356 . S
C1603 C1602 1.363 . S
C1603 C1609 1.363 . S
C1604 C1605 1.363 . S
C1604 C1609 1.379 . S
C1604 N1611 1.356 . S
C1605 C1604 1.363 . S
C1605 C1608 1.363 . S
N1606 C1608 1.356 . S
N1606 H1618 0.984 . S
N1606 H1619 0.985 . S
N1607 C1609 1.356 . S
N1607 H1612 0.984 . S
N1607 H1613 0.985 . S
C1608 C1602 1.379 . S
C1608 C1605 1.363 . S
C1608 N1606 1.356 . S
C1609 C1603 1.363 . S
C1609 C1604 1.379 . S
C1609 N1607 1.356 . S
N1610 C1602 1.356 . S
N1610 H1616 0.984 . S
N1610 H1617 0.984 . S
N1611 C1604 1.356 . S
N1611 H1614 0.984 . S
N1611 H1615 0.985 . S
H1612 N1607 0.984 . S
H1613 N1607 0.985 . S
H1614 N1611 0.984 . S
H1615 N1611 0.985 . S
H1616 N1610 0.984 . S
H1617 N1610 0.984 . S
H1618 N1606 0.984 . S
H1619 N1606 0.985 . S
C1620 C1621 1.363 . S
C1620 C1626 1.379 . S
C1620 N1628 1.356 . S
C1621 C1620 1.363 . S
C1621 C1627 1.363 . S
C1622 C1623 1.363 . S
C1622 C1627 1.379 . S
C1622 N1629 1.356 . S
C1623 C1622 1.363 . S
C1623 C1626 1.363 . S
N1624 C1626 1.356 . S
N1624 H1636 0.984 . S
N1624 H1637 0.985 . S
N1625 C1627 1.356 . S
N1625 H1630 0.984 . S
N1625 H1631 0.985 . S
C1626 C1620 1.379 . S
C1626 C1623 1.363 . S
C1626 N1624 1.356 . S
C1627 C1621 1.363 . S
C1627 C1622 1.379 . S
C1627 N1625 1.356 . S
N1628 C1620 1.356 . S
N1628 H1634 0.984 . S
N1628 H1635 0.984 . S
N1629 C1622 1.356 . S
N1629 H1632 0.984 . S
N1629 H1633 0.985 . S
H1630 N1625 0.984 . S
H1631 N1625 0.985 . S
H1632 N1629 0.984 . S
H1633 N1629 0.985 . S
H1634 N1628 0.984 . S
H1635 N1628 0.984 . S
H1636 N1624 0.984 . S
H1637 N1624 0.985 . S
C1638 C1639 1.363 . S
C1638 C1644 1.379 . S
C1638 N1646 1.356 . S
C1639 C1638 1.363 . S
C1639 C1645 1.363 . S
C1640 C1641 1.363 . S
C1640 C1645 1.379 . S
C1640 N1647 1.356 . S
C1641 C1640 1.363 . S
C1641 C1644 1.363 . S
N1642 C1644 1.356 . S
N1642 H1654 0.984 . S
N1642 H1655 0.985 . S
N1643 C1645 1.356 . S
N1643 H1648 0.984 . S
N1643 H1649 0.985 . S
C1644 C1638 1.379 . S
C1644 C1641 1.363 . S
C1644 N1642 1.356 . S
C1645 C1639 1.363 . S
C1645 C1640 1.379 . S
C1645 N1643 1.356 . S
N1646 C1638 1.356 . S
N1646 H1652 0.984 . S
N1646 H1653 0.984 . S
N1647 C1640 1.356 . S
N1647 H1650 0.984 . S
N1647 H1651 0.985 . S
H1648 N1643 0.984 . S
H1649 N1643 0.985 . S
H1650 N1647 0.984 . S
H1651 N1647 0.985 . S
H1652 N1646 0.984 . S
H1653 N1646 0.984 . S
H1654 N1642 0.984 . S
H1655 N1642 0.985 . S
C1656 C1657 1.363 1_545 S
C1656 C1662 1.379 . S
C1656 N1664 1.356 . S
C1657 C1656 1.363 1_565 S
C1657 C1663 1.363 . S
C1658 C1659 1.363 . S
C1658 C1663 1.379 . S
C1658 N1665 1.356 . S
C1659 C1658 1.363 . S
C1659 C1662 1.363 1_565 S
N1660 C1662 1.356 . S
N1660 H1672 0.984 . S
N1660 H1673 0.985 . S
N1661 C1663 1.356 . S
N1661 H1666 0.984 . S
N1661 H1667 0.985 . S
C1662 C1656 1.379 . S
C1662 C1659 1.363 1_545 S
C1662 N1660 1.356 . S
C1663 C1657 1.363 . S
C1663 C1658 1.379 . S
C1663 N1661 1.356 . S
N1664 C1656 1.356 . S
N1664 H1670 0.984 . S
N1664 H1671 0.984 . S
N1665 C1658 1.356 . S
N1665 H1668 0.984 . S
N1665 H1669 0.985 . S
H1666 N1661 0.984 . S
H1667 N1661 0.985 . S
H1668 N1665 0.984 . S
H1669 N1665 0.985 . S
H1670 N1664 0.984 . S
H1671 N1664 0.984 . S
H1672 N1660 0.984 . S
H1673 N1660 0.985 . S
C1674 C1675 1.363 . S
C1674 C1680 1.379 . S
C1674 N1682 1.377 . S
C1675 C1674 1.363 . S
C1675 C1681 1.363 . S
C1676 C1677 1.363 . S
C1676 C1681 1.379 . S
C1676 N1683 1.356 . S
C1677 C1676 1.363 . S
C1677 C1680 1.363 . S
N1678 C1680 1.356 . S
N1678 H1690 0.984 . S
N1678 H1691 0.985 . S
N1679 C1681 1.356 . S
N1679 H1684 0.984 1_455 S
N1679 H1685 0.985 . S
C1680 C1674 1.379 . S
C1680 C1677 1.363 . S
C1680 N1678 1.356 . S
C1681 C1675 1.363 . S
C1681 C1676 1.379 . S
C1681 N1679 1.356 . S
N1682 C1674 1.377 . S
N1682 H1688 0.969 . S
N1682 H1689 0.982 1_455 S
N1683 C1676 1.356 . S
N1683 H1686 0.984 . S
N1683 H1687 0.985 . S
H1684 N1679 0.984 1_655 S
H1685 N1679 0.985 . S
H1686 N1683 0.984 . S
H1687 N1683 0.985 . S
H1688 N1682 0.969 . S
H1689 N1682 0.982 1_655 S
H1690 N1678 0.984 . S
H1691 N1678 0.985 . S
C1692 C1693 1.363 . S
C1692 C1698 1.379 . S
C1692 N1700 1.356 . S
C1693 C1692 1.363 . S
C1693 C1699 1.363 . S
C1694 C1695 1.363 . S
C1694 C1699 1.379 . S
C1694 N1701 1.356 . S
C1695 C1694 1.363 . S
C1695 C1698 1.363 . S
N1696 C1698 1.356 . S
N1696 H1708 0.984 . S
N1696 H1709 0.985 . S
N1697 C1699 1.356 . S
N1697 H1702 0.984 . S
N1697 H1703 0.985 . S
C1698 C1692 1.379 . S
C1698 C1695 1.363 . S
C1698 N1696 1.356 . S
C1699 C1693 1.363 . S
C1699 C1694 1.379 . S
C1699 N1697 1.356 . S
N1700 C1692 1.356 . S
N1700 H1706 0.984 . S
N1700 H1707 0.984 . S
N1701 C1694 1.356 . S
N1701 H1704 0.984 . S
N1701 H1705 0.985 . S
H1702 N1697 0.984 . S
H1703 N1697 0.985 . S
H1704 N1701 0.984 . S
H1705 N1701 0.985 . S
H1706 N1700 0.984 . S
H1707 N1700 0.984 . S
H1708 N1696 0.984 . S
H1709 N1696 0.985 . S
C1710 C1711 1.363 1_455 S
C1710 C1716 1.379 . S
C1710 N1718 1.356 . S
C1711 C1710 1.363 1_655 S
C1711 C1717 1.363 . S
C1712 C1713 1.363 . S
C1712 C1717 1.379 . S
C1712 N1719 1.356 . S
C1713 C1712 1.363 . S
C1713 C1716 1.363 1_655 S
N1714 C1716 1.356 . S
N1714 H1726 0.984 . S
N1714 H1727 0.985 . S
N1715 C1717 1.356 . S
N1715 H1720 0.984 . S
N1715 H1721 0.985 . S
C1716 C1710 1.379 . S
C1716 C1713 1.363 1_455 S
C1716 N1714 1.356 . S
C1717 C1711 1.363 . S
C1717 C1712 1.379 . S
C1717 N1715 1.356 . S
N1718 C1710 1.356 . S
N1718 H1724 0.984 . S
N1718 H1725 0.984 . S
N1719 C1712 1.356 . S
N1719 H1722 0.984 . S
N1719 H1723 0.985 . S
H1720 N1715 0.984 . S
H1721 N1715 0.985 . S
H1722 N1719 0.984 . S
H1723 N1719 0.985 . S
H1724 N1718 0.984 . S
H1725 N1718 0.984 . S
H1726 N1714 0.984 . S
H1727 N1714 0.985 . S
C1728 C1729 1.363 . S
C1728 C1734 1.379 . S
C1728 N1736 1.356 . S
C1729 C1728 1.363 . S
C1729 C1735 1.363 . S
C1730 C1731 1.363 . S
C1730 C1735 1.379 . S
C1730 N1737 1.356 . S
C1731 C1730 1.363 . S
C1731 C1734 1.363 . S
N1732 C1734 1.356 . S
N1732 H1744 0.984 . S
N1732 H1745 0.985 . S
N1733 C1735 1.356 . S
N1733 H1738 0.984 . S
N1733 H1739 0.985 . S
C1734 C1728 1.379 . S
C1734 C1731 1.363 . S
C1734 N1732 1.356 . S
C1735 C1729 1.363 . S
C1735 C1730 1.379 . S
C1735 N1733 1.356 . S
N1736 C1728 1.356 . S
N1736 H1742 0.984 . S
N1736 H1743 0.984 . S
N1737 C1730 1.356 . S
N1737 H1740 0.984 . S
N1737 H1741 0.985 . S
H1738 N1733 0.984 . S
H1739 N1733 0.985 . S
H1740 N1737 0.984 . S
H1741 N1737 0.985 . S
H1742 N1736 0.984 . S
H1743 N1736 0.984 . S
H1744 N1732 0.984 . S
H1745 N1732 0.985 . S
C1746 C1747 1.367 . S
C1746 C1752 1.376 1_545 S
C1746 N1754 1.356 1_545 S
C1747 C1746 1.367 . S
C1747 C1753 1.363 . S
C1748 C1749 1.363 . S
C1748 C1753 1.379 . S
C1748 N1755 1.356 . S
C1749 C1748 1.363 . S
C1749 C1752 1.363 1_545 S
N1750 C1752 1.356 . S
N1750 H1762 0.984 . S
N1750 H1763 0.985 . S
N1751 C1753 1.356 . S
N1751 H1756 0.984 . S
N1751 H1757 0.985 . S
C1752 C1746 1.376 1_565 S
C1752 C1749 1.363 1_565 S
C1752 N1750 1.356 . S
C1753 C1747 1.363 . S
C1753 C1748 1.379 . S
C1753 N1751 1.356 . S
N1754 C1746 1.356 1_565 S
N1754 H1760 0.984 . S
N1754 H1761 0.984 . S
N1755 C1748 1.356 . S
N1755 H1758 0.984 . S
N1755 H1759 0.985 . S
H1756 N1751 0.984 . S
H1757 N1751 0.985 . S
H1758 N1755 0.984 . S
H1759 N1755 0.985 . S
H1760 N1754 0.984 . S
H1761 N1754 0.984 . S
H1762 N1750 0.984 . S
H1763 N1750 0.985 . S
C1764 C1765 1.363 . S
C1764 C1770 1.379 . S
C1764 N1772 1.356 . S
C1765 C1764 1.363 . S
C1765 C1771 1.363 . S
C1766 C1767 1.363 . S
C1766 C1771 1.379 . S
C1766 N1773 1.356 . S
C1767 C1766 1.363 . S
C1767 C1770 1.363 . S
N1768 C1770 1.356 . S
N1768 H1780 0.984 . S
N1768 H1781 0.985 . S
N1769 C1771 1.356 . S
N1769 H1774 0.984 . S
N1769 H1775 0.985 . S
C1770 C1764 1.379 . S
C1770 C1767 1.363 . S
C1770 N1768 1.356 . S
C1771 C1765 1.363 . S
C1771 C1766 1.379 . S
C1771 N1769 1.356 . S
N1772 C1764 1.356 . S
N1772 H1778 0.984 . S
N1772 H1779 0.984 . S
N1773 C1766 1.356 . S
N1773 H1776 0.984 . S
N1773 H1777 0.985 . S
H1774 N1769 0.984 . S
H1775 N1769 0.985 . S
H1776 N1773 0.984 . S
H1777 N1773 0.985 . S
H1778 N1772 0.984 . S
H1779 N1772 0.984 . S
H1780 N1768 0.984 . S
H1781 N1768 0.985 . S
C1782 C1783 1.363 . S
C1782 C1788 1.379 . S
C1782 N1790 1.356 . S
C1783 C1782 1.363 . S
C1783 C1789 1.363 . S
C1784 C1785 1.363 . S
C1784 C1789 1.379 . S
C1784 N1791 1.356 . S
C1785 C1784 1.363 . S
C1785 C1788 1.363 . S
N1786 C1788 1.356 . S
N1786 H1798 0.984 . S
N1786 H1799 0.985 . S
N1787 C1789 1.356 . S
N1787 H1792 0.984 . S
N1787 H1793 0.985 . S
C1788 C1782 1.379 . S
C1788 C1785 1.363 . S
C1788 N1786 1.356 . S
C1789 C1783 1.363 . S
C1789 C1784 1.379 . S
C1789 N1787 1.356 . S
N1790 C1782 1.356 . S
N1790 H1796 0.984 . S
N1790 H1797 0.984 . S
N1791 C1784 1.356 . S
N1791 H1794 0.984 . S
N1791 H1795 0.985 . S
H1792 N1787 0.984 . S
H1793 N1787 0.985 . S
H1794 N1791 0.984 . S
H1795 N1791 0.985 . S
H1796 N1790 0.984 . S
H1797 N1790 0.984 . S
H1798 N1786 0.984 . S
H1799 N1786 0.985 . S
C1800 C1801 1.363 . S
C1800 C1806 1.379 . S
C1800 N1808 1.356 . S
C1801 C1800 1.363 . S
C1801 C1807 1.363 . S
C1802 C1803 1.363 . S
C1802 C1807 1.379 . S
C1802 N1809 1.356 . S
C1803 C1802 1.363 . S
C1803 C1806 1.363 . S
N1804 C1806 1.356 . S
N1804 H1816 0.984 . S
N1804 H1817 0.985 . S
N1805 C1807 1.356 . S
N1805 H1810 0.984 . S
N1805 H1811 0.985 . S
C1806 C1800 1.379 . S
C1806 C1803 1.363 . S
C1806 N1804 1.356 . S
C1807 C1801 1.363 . S
C1807 C1802 1.379 . S
C1807 N1805 1.356 . S
N1808 C1800 1.356 . S
N1808 H1814 0.984 . S
N1808 H1815 0.984 . S
N1809 C1802 1.356 . S
N1809 H1812 0.984 . S
N1809 H1813 0.985 . S
H1810 N1805 0.984 . S
H1811 N1805 0.985 . S
H1812 N1809 0.984 . S
H1813 N1809 0.985 . S
H1814 N1808 0.984 . S
H1815 N1808 0.984 . S
H1816 N1804 0.984 . S
H1817 N1804 0.985 . S
C1818 C1819 1.363 . S
C1818 C1824 1.379 . S
C1818 N1826 1.356 . S
C1819 C1818 1.363 . S
C1819 C1825 1.363 . S
C1820 C1821 1.363 . S
C1820 C1825 1.379 . S
C1820 N1827 1.356 . S
C1821 C1820 1.363 . S
C1821 C1824 1.363 . S
N1822 C1824 1.356 . S
N1822 H1834 0.984 . S
N1822 H1835 0.985 . S
N1823 C1825 1.356 . S
N1823 H1828 0.984 . S
N1823 H1829 0.985 . S
C1824 C1818 1.379 . S
C1824 C1821 1.363 . S
C1824 N1822 1.356 . S
C1825 C1819 1.363 . S
C1825 C1820 1.379 . S
C1825 N1823 1.356 . S
N1826 C1818 1.356 . S
N1826 H1832 0.984 . S
N1826 H1833 0.984 . S
N1827 C1820 1.356 . S
N1827 H1830 0.984 . S
N1827 H1831 0.985 . S
H1828 N1823 0.984 . S
H1829 N1823 0.985 . S
H1830 N1827 0.984 . S
H1831 N1827 0.985 . S
H1832 N1826 0.984 . S
H1833 N1826 0.984 . S
H1834 N1822 0.984 . S
H1835 N1822 0.985 . S
C1836 C1837 1.363 . S
C1836 C1842 1.379 . S
C1836 N1844 1.356 . S
C1837 C1836 1.363 . S
C1837 C1843 1.363 . S
C1838 C1839 1.363 . S
C1838 C1843 1.379 . S
C1838 N1845 1.356 . S
C1839 C1838 1.363 . S
C1839 C1842 1.363 . S
N1840 C1842 1.356 . S
N1840 H1852 0.984 . S
N1840 H1853 0.985 . S
N1841 C1843 1.356 . S
N1841 H1846 0.984 . S
N1841 H1847 0.985 . S
C1842 C1836 1.379 . S
C1842 C1839 1.363 . S
C1842 N1840 1.356 . S
C1843 C1837 1.363 . S
C1843 C1838 1.379 . S
C1843 N1841 1.356 . S
N1844 C1836 1.356 . S
N1844 H1850 0.984 . S
N1844 H1851 0.984 . S
N1845 C1838 1.356 . S
N1845 H1848 0.984 . S
N1845 H1849 0.985 . S
H1846 N1841 0.984 . S
H1847 N1841 0.985 . S
H1848 N1845 0.984 . S
H1849 N1845 0.985 . S
H1850 N1844 0.984 . S
H1851 N1844 0.984 . S
H1852 N1840 0.984 . S
H1853 N1840 0.985 . S
C1854 C1855 1.363 . S
C1854 C1860 1.379 . S
C1854 N1862 1.356 . S
C1855 C1854 1.363 . S
C1855 C1861 1.363 . S
C1856 C1857 1.363 . S
C1856 C1861 1.379 . S
C1856 N1863 1.356 . S
C1857 C1856 1.363 . S
C1857 C1860 1.363 . S
N1858 C1860 1.356 . S
N1858 H1870 0.984 . S
N1858 H1871 0.985 . S
N1859 C1861 1.356 . S
N1859 H1864 0.984 . S
N1859 H1865 0.985 . S
C1860 C1854 1.379 . S
C1860 C1857 1.363 . S
C1860 N1858 1.356 . S
C1861 C1855 1.363 . S
C1861 C1856 1.379 . S
C1861 N1859 1.356 . S
N1862 C1854 1.356 . S
N1862 H1868 0.984 . S
N1862 H1869 0.984 . S
N1863 C1856 1.356 . S
N1863 H1866 0.984 . S
N1863 H1867 0.985 . S
H1864 N1859 0.984 . S
H1865 N1859 0.985 . S
H1866 N1863 0.984 . S
H1867 N1863 0.985 . S
H1868 N1862 0.984 . S
H1869 N1862 0.984 . S
H1870 N1858 0.984 . S
H1871 N1858 0.985 . S
C1872 C1873 1.363 . S
C1872 C1878 1.379 . S
C1872 N1880 1.356 . S
C1873 C1872 1.363 . S
C1873 C1879 1.363 . S
C1874 C1875 1.363 . S
C1874 C1879 1.379 . S
C1874 N1881 1.356 . S
C1875 C1874 1.363 . S
C1875 C1878 1.363 . S
N1876 C1878 1.356 . S
N1876 H1888 0.984 . S
N1876 H1889 0.985 . S
N1877 C1879 1.356 . S
N1877 H1882 0.984 . S
N1877 H1883 0.985 . S
C1878 C1872 1.379 . S
C1878 C1875 1.363 . S
C1878 N1876 1.356 . S
C1879 C1873 1.363 . S
C1879 C1874 1.379 . S
C1879 N1877 1.356 . S
N1880 C1872 1.356 . S
N1880 H1886 0.984 . S
N1880 H1887 0.984 . S
N1881 C1874 1.356 . S
N1881 H1884 0.984 . S
N1881 H1885 0.985 . S
H1882 N1877 0.984 . S
H1883 N1877 0.985 . S
H1884 N1881 0.984 . S
H1885 N1881 0.985 . S
H1886 N1880 0.984 . S
H1887 N1880 0.984 . S
H1888 N1876 0.984 . S
H1889 N1876 0.985 . S
C1890 C1891 1.363 . S
C1890 C1896 1.379 . S
C1890 N1898 1.356 . S
C1891 C1890 1.363 . S
C1891 C1897 1.363 . S
C1892 C1893 1.363 . S
C1892 C1897 1.379 . S
C1892 N1899 1.356 . S
C1893 C1892 1.363 . S
C1893 C1896 1.363 . S
N1894 C1896 1.356 . S
N1894 H1906 0.984 . S
N1894 H1907 0.985 . S
N1895 C1897 1.356 . S
N1895 H1900 0.984 . S
N1895 H1901 0.985 . S
C1896 C1890 1.379 . S
C1896 C1893 1.363 . S
C1896 N1894 1.356 . S
C1897 C1891 1.363 . S
C1897 C1892 1.379 . S
C1897 N1895 1.356 . S
N1898 C1890 1.356 . S
N1898 H1904 0.984 . S
N1898 H1905 0.984 . S
N1899 C1892 1.356 . S
N1899 H1902 0.984 . S
N1899 H1903 0.985 . S
H1900 N1895 0.984 . S
H1901 N1895 0.985 . S
H1902 N1899 0.984 . S
H1903 N1899 0.985 . S
H1904 N1898 0.984 . S
H1905 N1898 0.984 . S
H1906 N1894 0.984 . S
H1907 N1894 0.985 . S
C1908 C1909 1.363 . S
C1908 C1914 1.379 . S
C1908 N1916 1.356 . S
C1909 C1908 1.363 . S
C1909 C1915 1.363 . S
C1910 C1911 1.363 . S
C1910 C1915 1.379 . S
C1910 N1917 1.356 . S
C1911 C1910 1.363 . S
C1911 C1914 1.363 . S
N1912 C1914 1.356 . S
N1912 H1924 0.984 . S
N1912 H1925 0.985 . S
N1913 C1915 1.356 . S
N1913 H1918 0.984 . S
N1913 H1919 0.985 . S
C1914 C1908 1.379 . S
C1914 C1911 1.363 . S
C1914 N1912 1.356 . S
C1915 C1909 1.363 . S
C1915 C1910 1.379 . S
C1915 N1913 1.356 . S
N1916 C1908 1.356 . S
N1916 H1922 0.984 . S
N1916 H1923 0.984 . S
N1917 C1910 1.356 . S
N1917 H1920 0.984 . S
N1917 H1921 0.985 . S
H1918 N1913 0.984 . S
H1919 N1913 0.985 . S
H1920 N1917 0.984 . S
H1921 N1917 0.985 . S
H1922 N1916 0.984 . S
H1923 N1916 0.984 . S
H1924 N1912 0.984 . S
H1925 N1912 0.985 . S
C1926 C1927 1.363 . S
C1926 C1932 1.379 . S
C1926 N1934 1.356 . S
C1927 C1926 1.363 . S
C1927 C1933 1.363 . S
C1928 C1929 1.363 . S
C1928 C1933 1.379 . S
C1928 N1935 1.356 . S
C1929 C1928 1.363 . S
C1929 C1932 1.363 . S
N1930 C1932 1.356 . S
N1930 H1942 0.984 . S
N1930 H1943 0.985 . S
N1931 C1933 1.356 . S
N1931 H1936 0.984 . S
N1931 H1937 0.985 . S
C1932 C1926 1.379 . S
C1932 C1929 1.363 . S
C1932 N1930 1.356 . S
C1933 C1927 1.363 . S
C1933 C1928 1.379 . S
C1933 N1931 1.356 . S
N1934 C1926 1.356 . S
N1934 H1940 0.984 . S
N1934 H1941 0.984 . S
N1935 C1928 1.356 . S
N1935 H1938 0.984 . S
N1935 H1939 0.985 . S
H1936 N1931 0.984 . S
H1937 N1931 0.985 . S
H1938 N1935 0.984 . S
H1939 N1935 0.985 . S
H1940 N1934 0.984 . S
H1941 N1934 0.984 . S
H1942 N1930 0.984 . S
H1943 N1930 0.985 . S
C1944 C1945 1.363 . S
C1944 C1950 1.379 . S
C1944 N1952 1.356 . S
C1945 C1944 1.363 . S
C1945 C1951 1.363 . S
C1946 C1947 1.363 . S
C1946 C1951 1.379 . S
C1946 N1953 1.356 . S
C1947 C1946 1.363 . S
C1947 C1950 1.363 . S
N1948 C1950 1.356 . S
N1948 H1960 0.984 . S
N1948 H1961 0.985 . S
N1949 C1951 1.356 . S
N1949 H1954 0.984 . S
N1949 H1955 0.985 . S
C1950 C1944 1.379 . S
C1950 C1947 1.363 . S
C1950 N1948 1.356 . S
C1951 C1945 1.363 . S
C1951 C1946 1.379 . S
C1951 N1949 1.356 . S
N1952 C1944 1.356 . S
N1952 H1958 0.984 . S
N1952 H1959 0.984 . S
N1953 C1946 1.356 . S
N1953 H1956 0.984 . S
N1953 H1957 0.985 . S
H1954 N1949 0.984 . S
H1955 N1949 0.985 . S
H1956 N1953 0.984 . S
H1957 N1953 0.985 . S
H1958 N1952 0.984 . S
H1959 N1952 0.984 . S
H1960 N1948 0.984 . S
H1961 N1948 0.985 . S
C1962 C1963 1.363 . S
C1962 C1968 1.379 . S
C1962 N1970 1.356 . S
C1963 C1962 1.363 . S
C1963 C1969 1.363 . S
C1964 C1965 1.363 . S
C1964 C1969 1.379 . S
C1964 N1971 1.356 . S
C1965 C1964 1.363 . S
C1965 C1968 1.363 . S
N1966 C1968 1.356 . S
N1966 H1978 0.984 . S
N1966 H1979 0.985 . S
N1967 C1969 1.356 . S
N1967 H1972 0.984 . S
N1967 H1973 0.985 . S
C1968 C1962 1.379 . S
C1968 C1965 1.363 . S
C1968 N1966 1.356 . S
C1969 C1963 1.363 . S
C1969 C1964 1.379 . S
C1969 N1967 1.356 . S
N1970 C1962 1.356 . S
N1970 H1976 0.984 . S
N1970 H1977 0.984 . S
N1971 C1964 1.356 . S
N1971 H1974 0.984 . S
N1971 H1975 0.985 . S
H1972 N1967 0.984 . S
H1973 N1967 0.985 . S
H1974 N1971 0.984 . S
H1975 N1971 0.985 . S
H1976 N1970 0.984 . S
H1977 N1970 0.984 . S
H1978 N1966 0.984 . S
H1979 N1966 0.985 . S
C1009 C469 1.743 . S
C1011 C651 1.754 . S
C1027 C505 1.792 . S
C1029 C691 1.784 . S
C1045 C433 1.819 . S
C1047 C743 1.821 . S
C1063 C397 1.647 . S
C1065 C703 1.636 . S
C1083 C731 1.533 . S
C1081 C325 1.523 . S
C1099 C361 1.555 . S
C1101 C663 1.581 . S
C1119 C670 1.754 . S
C1117 C421 1.755 . S
C1137 C710 1.783 . S
C1135 C349 1.789 . S
C1153 C385 1.812 . S
C1155 C730 1.822 . S
C1171 C493 1.643 . S
C1173 C690 1.638 . S
C1189 C529 1.537 . S
C1191 C750 1.533 . S
C1209 C650 1.584 . S
C1207 C457 1.563 . S
C1227 C771 1.754 . S
C1225 C37 1.743 1_455 S
C1243 C73 1.792 . S
C1245 C811 1.784 . S
C1261 C1 1.819 . S
C1263 C863 1.821 . S
C1279 C613 1.647 . S
C1281 C823 1.637 . S
C1297 C541 1.524 . S
C1299 C851 1.533 . S
C1315 C577 1.554 . S
C1317 C783 1.581 . S
C1333 C637 1.755 . S
C1335 C790 1.754 . S
C1351 C565 1.789 . S
C1353 C830 1.784 . S
C1371 C850 1.822 . S
C1369 C601 1.812 . S
C1387 C61 1.647 1_565 S
C1389 C810 1.638 . S
C1407 C870 1.533 . S
C1405 C97 1.538 1_455 S
C1423 C25 1.563 . S
C1425 C770 1.583 . S
C1443 C891 1.754 . S
C1441 C253 1.743 . S
C1459 C289 1.792 . S
C1461 C931 1.784 . S
C1479 C983 1.820 . S
C1477 C217 1.819 . S
C1497 C943 1.636 . S
C1495 C181 1.652 . S
C1515 C971 1.533 . S
C1513 C109 1.524 1_655 S
C1531 C145 1.555 . S
C1533 C903 1.581 . S
C1549 C205 1.756 1_655 S
C1551 C910 1.755 . S
C1567 C133 1.789 . S
C1569 C950 1.784 . S
C1587 C970 1.822 . S
C1585 C169 1.812 . S
C1603 C277 1.643 . S
C1605 C930 1.638 . S
C1621 C313 1.538 . S
C1623 C990 1.533 . S
C1639 C241 1.563 . S
C1641 C890 1.583 . S
C1657 C571 1.399 . S
C1659 C674 1.386 . S
C1677 C714 1.820 . S
C1675 C607 1.857 . S
C1693 C643 1.581 . S
C1695 C737 1.576 . S
C1711 C247 1.856 . S
C1713 C697 1.819 . S
C1729 C283 1.585 . S
C1731 C754 1.577 . S
C1749 C657 1.385 . S
C1747 C319 1.400 . S
C1765 C139 1.399 . S
C1767 C794 1.386 . S
C1783 C175 1.854 . S
C1785 C834 1.820 . S
C1801 C211 1.581 . S
C1803 C857 1.576 . S
C1819 C463 1.856 . S
C1821 C817 1.819 . S
C1839 C874 1.577 . S
C1837 C499 1.585 . S
C1855 C535 1.401 . S
C1857 C777 1.385 . S
C1873 C355 1.399 . S
C1875 C914 1.386 . S
C1891 C391 1.854 . S
C1893 C954 1.820 . S
C1911 C977 1.576 . S
C1909 C427 1.581 . S
C1927 C31 1.856 . S
C1929 C937 1.819 . S
C1945 C67 1.585 . S
C1947 C994 1.577 . S
C1963 C103 1.400 . S
C1965 C897 1.385 . S
