# Generated by pormake.
# Topology ctn, (3,4)-cn, num edge types: 1
# Building blocks:
#     Node 0, Type 0, BuildingBlock: PAMTOO_clean_linker_0, # of connection points: 3
#     Node 1, Type 0, BuildingBlock: PAMTOO_clean_linker_0, # of connection points: 3
#     Node 2, Type 0, BuildingBlock: PAMTOO_clean_linker_0, # of connection points: 3
#     Node 3, Type 0, BuildingBlock: PAMTOO_clean_linker_0, # of connection points: 3
#     Node 4, Type 0, BuildingBlock: PAMTOO_clean_linker_0, # of connection points: 3
#     Node 5, Type 0, BuildingBlock: PAMTOO_clean_linker_0, # of connection points: 3
#     Node 6, Type 0, BuildingBlock: PAMTOO_clean_linker_0, # of connection points: 3
#     Node 7, Type 0, BuildingBlock: PAMTOO_clean_linker_0, # of connection points: 3
#     Node 8, Type 0, BuildingBlock: PAMTOO_clean_linker_0, # of connection points: 3
#     Node 9, Type 0, BuildingBlock: PAMTOO_clean_linker_0, # of connection points: 3
#     Node 10, Type 0, BuildingBlock: PAMTOO_clean_linker_0, # of connection points: 3
#     Node 11, Type 0, BuildingBlock: PAMTOO_clean_linker_0, # of connection points: 3
#     Node 12, Type 0, BuildingBlock: PAMTOO_clean_linker_0, # of connection points: 3
#     Node 13, Type 0, BuildingBlock: PAMTOO_clean_linker_0, # of connection points: 3
#     Node 14, Type 0, BuildingBlock: PAMTOO_clean_linker_0, # of connection points: 3
#     Node 15, Type 0, BuildingBlock: PAMTOO_clean_linker_0, # of connection points: 3
#     Node 16, Type 1, BuildingBlock: AZAVOO_clean_sbu_0, # of connection points: 4
#     Node 17, Type 1, BuildingBlock: AZAVOO_clean_sbu_0, # of connection points: 4
#     Node 18, Type 1, BuildingBlock: AZAVOO_clean_sbu_0, # of connection points: 4
#     Node 19, Type 1, BuildingBlock: AZAVOO_clean_sbu_0, # of connection points: 4
#     Node 20, Type 1, BuildingBlock: AZAVOO_clean_sbu_0, # of connection points: 4
#     Node 21, Type 1, BuildingBlock: AZAVOO_clean_sbu_0, # of connection points: 4
#     Node 22, Type 1, BuildingBlock: AZAVOO_clean_sbu_0, # of connection points: 4
#     Node 23, Type 1, BuildingBlock: AZAVOO_clean_sbu_0, # of connection points: 4
#     Node 24, Type 1, BuildingBlock: AZAVOO_clean_sbu_0, # of connection points: 4
#     Node 25, Type 1, BuildingBlock: AZAVOO_clean_sbu_0, # of connection points: 4
#     Node 26, Type 1, BuildingBlock: AZAVOO_clean_sbu_0, # of connection points: 4
#     Node 27, Type 1, BuildingBlock: AZAVOO_clean_sbu_0, # of connection points: 4
#     Edge 28, Type (0, 1), BuildingBlock: XUDNAN_clean_linker_2, # of connection points: 2
#     Edge 29, Type (0, 1), BuildingBlock: XUDNAN_clean_linker_2, # of connection points: 2
#     Edge 30, Type (0, 1), BuildingBlock: XUDNAN_clean_linker_2, # of connection points: 2
#     Edge 31, Type (0, 1), BuildingBlock: XUDNAN_clean_linker_2, # of connection points: 2
#     Edge 32, Type (0, 1), BuildingBlock: XUDNAN_clean_linker_2, # of connection points: 2
#     Edge 33, Type (0, 1), BuildingBlock: XUDNAN_clean_linker_2, # of connection points: 2
#     Edge 34, Type (0, 1), BuildingBlock: XUDNAN_clean_linker_2, # of connection points: 2
#     Edge 35, Type (0, 1), BuildingBlock: XUDNAN_clean_linker_2, # of connection points: 2
#     Edge 36, Type (0, 1), BuildingBlock: XUDNAN_clean_linker_2, # of connection points: 2
#     Edge 37, Type (0, 1), BuildingBlock: XUDNAN_clean_linker_2, # of connection points: 2
#     Edge 38, Type (0, 1), BuildingBlock: XUDNAN_clean_linker_2, # of connection points: 2
#     Edge 39, Type (0, 1), BuildingBlock: XUDNAN_clean_linker_2, # of connection points: 2
#     Edge 40, Type (0, 1), BuildingBlock: XUDNAN_clean_linker_2, # of connection points: 2
#     Edge 41, Type (0, 1), BuildingBlock: XUDNAN_clean_linker_2, # of connection points: 2
#     Edge 42, Type (0, 1), BuildingBlock: XUDNAN_clean_linker_2, # of connection points: 2
#     Edge 43, Type (0, 1), BuildingBlock: XUDNAN_clean_linker_2, # of connection points: 2
#     Edge 44, Type (0, 1), BuildingBlock: XUDNAN_clean_linker_2, # of connection points: 2
#     Edge 45, Type (0, 1), BuildingBlock: XUDNAN_clean_linker_2, # of connection points: 2
#     Edge 46, Type (0, 1), BuildingBlock: XUDNAN_clean_linker_2, # of connection points: 2
#     Edge 47, Type (0, 1), BuildingBlock: XUDNAN_clean_linker_2, # of connection points: 2
#     Edge 48, Type (0, 1), BuildingBlock: XUDNAN_clean_linker_2, # of connection points: 2
#     Edge 49, Type (0, 1), BuildingBlock: XUDNAN_clean_linker_2, # of connection points: 2
#     Edge 50, Type (0, 1), BuildingBlock: XUDNAN_clean_linker_2, # of connection points: 2
#     Edge 51, Type (0, 1), BuildingBlock: XUDNAN_clean_linker_2, # of connection points: 2
#     Edge 52, Type (0, 1), BuildingBlock: XUDNAN_clean_linker_2, # of connection points: 2
#     Edge 53, Type (0, 1), BuildingBlock: XUDNAN_clean_linker_2, # of connection points: 2
#     Edge 54, Type (0, 1), BuildingBlock: XUDNAN_clean_linker_2, # of connection points: 2
#     Edge 55, Type (0, 1), BuildingBlock: XUDNAN_clean_linker_2, # of connection points: 2
#     Edge 56, Type (0, 1), BuildingBlock: XUDNAN_clean_linker_2, # of connection points: 2
#     Edge 57, Type (0, 1), BuildingBlock: XUDNAN_clean_linker_2, # of connection points: 2
#     Edge 58, Type (0, 1), BuildingBlock: XUDNAN_clean_linker_2, # of connection points: 2
#     Edge 59, Type (0, 1), BuildingBlock: XUDNAN_clean_linker_2, # of connection points: 2
#     Edge 60, Type (0, 1), BuildingBlock: XUDNAN_clean_linker_2, # of connection points: 2
#     Edge 61, Type (0, 1), BuildingBlock: XUDNAN_clean_linker_2, # of connection points: 2
#     Edge 62, Type (0, 1), BuildingBlock: XUDNAN_clean_linker_2, # of connection points: 2
#     Edge 63, Type (0, 1), BuildingBlock: XUDNAN_clean_linker_2, # of connection points: 2
#     Edge 64, Type (0, 1), BuildingBlock: XUDNAN_clean_linker_2, # of connection points: 2
#     Edge 65, Type (0, 1), BuildingBlock: XUDNAN_clean_linker_2, # of connection points: 2
#     Edge 66, Type (0, 1), BuildingBlock: XUDNAN_clean_linker_2, # of connection points: 2
#     Edge 67, Type (0, 1), BuildingBlock: XUDNAN_clean_linker_2, # of connection points: 2
#     Edge 68, Type (0, 1), BuildingBlock: XUDNAN_clean_linker_2, # of connection points: 2
#     Edge 69, Type (0, 1), BuildingBlock: XUDNAN_clean_linker_2, # of connection points: 2
#     Edge 70, Type (0, 1), BuildingBlock: XUDNAN_clean_linker_2, # of connection points: 2
#     Edge 71, Type (0, 1), BuildingBlock: XUDNAN_clean_linker_2, # of connection points: 2
#     Edge 72, Type (0, 1), BuildingBlock: XUDNAN_clean_linker_2, # of connection points: 2
#     Edge 73, Type (0, 1), BuildingBlock: XUDNAN_clean_linker_2, # of connection points: 2
#     Edge 74, Type (0, 1), BuildingBlock: XUDNAN_clean_linker_2, # of connection points: 2
#     Edge 75, Type (0, 1), BuildingBlock: XUDNAN_clean_linker_2, # of connection points: 2
# Relax obj value: 0.057
# Max RMSD: 0.171
# Mean RMSD: 0.109
data_MOF--net-ctn--node1-AZAVOO_clean_sbu_0--node2-PAMTOO_clean_linker_0--edge1-XUDNAN_clean_linker_2
_symmetry_space_group_name_H-M    P1
_symmetry_Int_Tables_number       1
_symmetry_cell_setting            triclinic
loop_
_symmetry_equiv_pos_as_xyz
'x, y, z'
_cell_length_a     52.687142
_cell_length_b     53.944219
_cell_length_c     54.981276
_cell_angle_alpha  85.084083
_cell_angle_beta   95.593652
_cell_angle_gamma 100.891
loop_
_atom_site_label
_atom_site_type_symbol
_atom_site_fract_x
_atom_site_fract_y
_atom_site_fract_z
_atom_type_partial_charge
H0 H 0.98757 0.06781 0.05547 0.0
H1 H 0.02264 0.00201 0.05475 0.0
H2 H 0.04187 0.06471 0.00263 0.0
H3 H 0.03858 0.01799 0.98124 0.0
C4 C 0.04299 0.00548 0.99765 0.0
O5 O 0.04991 0.01967 0.01776 0.0
H6 H 0.02521 0.99113 1.00074 0.0
C7 C 1.00018 0.05769 0.04747 0.0
C8 C 0.01381 0.06933 0.02749 0.0
C9 C 0.00355 0.03372 0.05803 0.0
C10 C 0.01979 0.02061 0.04724 0.0
C11 C 0.03317 0.03175 0.02708 0.0
C12 C 0.03044 0.05608 0.01749 0.0
H13 H 0.31375 0.7039 0.2832 0.0
H14 H 0.27127 0.72274 0.21555 0.0
H15 H 0.34379 0.76918 0.23613 0.0
H16 H 0.30218 0.79647 0.22281 0.0
C17 C 0.2904 0.78427 0.20893 0.0
O18 O 0.30303 0.76481 0.20542 0.0
H19 H 0.27116 0.77647 0.21591 0.0
C20 C 0.31272 0.71573 0.26633 0.0
C21 C 0.33202 0.73733 0.26219 0.0
C22 C 0.29096 0.71011 0.24942 0.0
C23 C 0.28831 0.72633 0.22838 0.0
C24 C 0.30719 0.74774 0.2241 0.0
C25 C 0.3293 0.75269 0.24037 0.0
H26 H 0.98244 0.52858 0.11426 0.0
H27 H 0.96703 0.49618 0.04444 0.0
H28 H 0.03336 0.48268 0.09077 0.0
H29 H 0.03974 0.49198 0.0366 0.0
C30 C 0.02002 0.48234 0.02991 0.0
O31 O 0.00618 0.47275 0.04978 0.0
H32 H 0.01003 0.49632 0.01863 0.0
C33 C 0.98783 0.51728 0.101 0.0
C34 C 0.00991 0.50568 0.10623 0.0
C35 C 0.97269 0.51485 0.07842 0.0
C36 C 0.97886 0.49924 0.06154 0.0
C37 C 1.00057 0.48769 0.06628 0.0
C38 C 0.01623 0.49124 0.0882 0.0
H39 H 0.71932 0.85841 0.27952 0.0
H40 H 0.69099 0.78591 0.25089 0.0
H41 H 0.76683 0.82564 0.23598 0.0
H42 H 0.72783 0.80303 0.19356 0.0
C43 C 0.7225 0.78414 0.2035 0.0
O44 O 0.732 0.78544 0.22776 0.0
H45 H 0.701 0.77878 0.20237 0.0
C46 C 0.72258 0.84319 0.26928 0.0
C47 C 0.74609 0.845 0.25847 0.0
C48 C 0.70284 0.82189 0.26701 0.0
C49 C 0.70602 0.80255 0.25275 0.0
C50 C 0.72891 0.80432 0.24123 0.0
C51 C 0.74895 0.82527 0.24429 0.0
H52 H 0.10461 0.96727 0.54754 0.0
H53 H 0.03268 0.95262 0.50247 0.0
H54 H 0.08856 0.01933 0.48631 0.0
H55 H 0.03186 0.02399 0.48535 0.0
C56 C 0.02358 0.0067 0.4755 0.0
O57 O 0.04304 0.99339 0.47302 0.0
H58 H 0.00849 0.99473 0.48632 0.0
C59 C 0.09216 0.97263 0.53187 0.0
C60 C 0.09985 0.9953 0.5176 0.0
C61 C 0.06794 0.95728 0.52655 0.0
C62 C 0.05143 0.96436 0.50668 0.0
C63 C 0.0589 0.98677 0.49232 0.0
C64 C 0.08298 0.00217 0.49776 0.0
H65 H 0.15642 0.74343 0.80057 0.0
H66 H 0.18239 0.68697 0.76335 0.0
H67 H 0.2296 0.72089 0.82418 0.0
H68 H 0.25881 0.71336 0.78606 0.0
C69 C 0.24725 0.69579 0.7786 0.0
O70 O 0.22568 0.68758 0.79156 0.0
H71 H 0.2408 0.70007 0.75906 0.0
C72 C 0.17094 0.73212 0.79853 0.0
C73 C 0.19364 0.73468 0.81451 0.0
C74 C 0.16656 0.71499 0.78006 0.0
C75 C 0.18545 0.70037 0.77742 0.0
C76 C 0.20802 0.70241 0.7935 0.0
C77 C 0.21198 0.71939 0.81204 0.0
H78 H 0.9156 0.52695 0.52094 0.0
H79 H 0.95344 0.50061 0.46506 0.0
H80 H 0.9812 0.57479 0.48905 0.0
H81 H 0.99343 0.57007 0.43562 0.0
C82 C 0.98707 0.54918 0.43719 0.0
O83 O 0.98933 0.5406 0.46153 0.0
H84 H 0.96652 0.54495 0.42934 0.0
C85 C 0.93024 0.53057 0.50794 0.0
C86 C 0.94784 0.55385 0.507 0.0
C87 C 0.93168 0.51137 0.49263 0.0
C88 C 0.95178 0.51509 0.477 0.0
C89 C 0.96966 0.53775 0.47614 0.0
C90 C 0.96751 0.55718 0.49072 0.0
H91 H 0.76803 0.8042 0.86 0.0
H92 H 0.82728 0.77825 0.82569 0.0
H93 H 0.79707 0.84235 0.79329 0.0
H94 H 0.81483 0.81424 0.75364 0.0
C95 C 0.82187 0.80049 0.76771 0.0
O96 O 0.82919 0.81226 0.78929 0.0
H97 H 0.80564 0.78415 0.77007 0.0
C98 C 0.78061 0.80599 0.84535 0.0
C99 C 0.77943 0.82528 0.82639 0.0
C100 C 0.79827 0.78922 0.84587 0.0
C101 C 0.81409 0.79126 0.82636 0.0
C102 C 0.81325 0.81019 0.80748 0.0
C103 C 0.79642 0.82733 0.80771 0.0
H104 H 0.27417 0.30527 0.3631 0.0
H105 H 0.33226 0.27483 0.33095 0.0
H106 H 0.29631 0.33173 0.29055 0.0
H107 H 0.31312 0.29954 0.25765 0.0
C108 C 0.32578 0.29017 0.27138 0.0
O109 O 0.33227 0.30456 0.2914 0.0
H110 H 0.31494 0.27108 0.2771 0.0
C111 C 0.28529 0.30422 0.34779 0.0
C112 C 0.2823 0.32027 0.32644 0.0
C113 C 0.30325 0.28759 0.34986 0.0
C114 C 0.3185 0.28751 0.33023 0.0
C115 C 0.31624 0.30378 0.30931 0.0
C116 C 0.29808 0.31981 0.30728 0.0
H117 H 0.48391 0.02117 0.61529 0.0
H118 H 0.45528 0.97626 0.55373 0.0
H119 H 0.52043 0.95963 0.60102 0.0
H120 H 0.52902 0.9563 0.55229 0.0
C121 C 0.50908 0.95485 0.54314 0.0
O122 O 0.4913 0.94855 0.5606 0.0
H123 H 0.50718 0.97363 0.53372 0.0
C124 C 0.48442 0.00528 0.60465 0.0
C125 C 0.5038 0.99064 0.61099 0.0
C126 C 0.46645 1.00019 0.58419 0.0
C127 C 0.46849 0.98035 0.56985 0.0
C128 C 0.48793 0.96583 0.5759 0.0
C129 C 0.50508 0.97055 0.59681 0.0
H130 H 0.20678 0.36199 0.765 0.0
H131 H 0.18899 0.28428 0.74747 0.0
H132 H 0.26031 0.33024 0.72755 0.0
H133 H 0.22233 0.29954 0.6887 0.0
C134 C 0.21986 0.28152 0.70048 0.0
O135 O 0.23023 0.28628 0.72404 0.0
H136 H 0.19877 0.27374 0.70067 0.0
C137 C 0.21227 0.34633 0.75704 0.0
C138 C 0.23626 0.34949 0.74671 0.0
C139 C 0.1954 0.32283 0.75798 0.0
C140 C 0.20192 0.30248 0.74723 0.0
C141 C 0.22485 0.30563 0.73553 0.0
C142 C 0.24215 0.32882 0.73568 0.0
H143 H 0.81593 0.20868 0.7875 0.0
H144 H 0.77667 0.22273 0.71676 0.0
H145 H 0.84749 0.27142 0.73827 0.0
H146 H 0.80467 0.29654 0.72076 0.0
C147 C 0.79473 0.28365 0.70659 0.0
O148 O 0.80843 0.26439 0.70552 0.0
H149 H 0.77485 0.27566 0.71201 0.0
C150 C 0.81556 0.2194 0.76992 0.0
C151 C 0.83479 0.24096 0.76541 0.0
C152 C 0.79465 0.21256 0.75236 0.0
C153 C 0.79303 0.2273 0.73018 0.0
C154 C 0.81188 0.24862 0.72551 0.0
C155 C 0.83302 0.25495 0.74263 0.0
H156 H 0.48471 0.57252 0.53358 0.0
H157 H 0.53142 0.52272 0.57365 0.0
H158 H 0.54053 0.54364 0.49742 0.0
H159 H 0.53304 0.48844 0.51545 0.0
C160 C 0.54967 0.49122 0.52971 0.0
O161 O 0.55547 0.51617 0.5356 0.0
H162 H 0.54406 0.47905 0.54639 0.0
C163 C 0.49931 0.56075 0.53416 0.0
C164 C 0.51166 0.55976 0.51289 0.0
C165 C 0.50665 0.54824 0.55649 0.0
C166 C 0.5253 0.53262 0.55676 0.0
C167 C 0.53705 0.53061 0.53527 0.0
C168 C 0.5306 0.54456 0.51359 0.0
H169 H 0.60175 0.47303 0.04351 0.0
H170 H 0.5371 0.45167 0.99067 0.0
H171 H 0.59074 0.52088 0.97781 0.0
H172 H 0.53403 0.52372 0.96152 0.0
C173 C 0.52738 0.50328 0.95862 0.0
O174 O 0.5487 0.49153 0.96055 0.0
H175 H 0.51398 0.49482 0.97279 0.0
C176 C 0.59074 0.47701 0.02639 0.0
C177 C 0.59922 0.49907 0.0116 0.0
C178 C 0.56837 0.4598 0.01903 0.0
C179 C 0.55432 0.46483 0.9967 0.0
C180 C 0.56214 0.48707 0.98219 0.0
C181 C 0.5845 0.50413 0.98961 0.0
H182 H 0.66987 0.25104 0.28505 0.0
H183 H 0.70503 0.19619 0.2543 0.0
H184 H 0.73596 0.22408 0.32346 0.0
H185 H 0.77619 0.21641 0.29419 0.0
C186 C 0.76465 0.20245 0.28179 0.0
O187 O 0.74051 0.19378 0.2903 0.0
H188 H 0.76237 0.21206 0.26315 0.0
C189 C 0.68445 0.23919 0.28625 0.0
C190 C 0.70251 0.23942 0.30701 0.0
C191 C 0.68531 0.22397 0.26685 0.0
C192 C 0.7042 0.20847 0.26869 0.0
C193 C 0.72227 0.20858 0.28905 0.0
C194 C 0.72143 0.22395 0.30809 0.0
H195 H 0.41304 0.02883 0.0201 0.0
H196 H 0.44552 0.0025 0.9607 0.0
H197 H 0.47583 0.07658 0.98384 0.0
H198 H 0.48286 0.0716 0.92908 0.0
C199 C 0.47744 0.05063 0.93091 0.0
O200 O 0.4813 0.04232 0.95519 0.0
H201 H 0.45665 0.04541 0.92408 0.0
C202 C 0.42646 0.03253 0.00598 0.0
C203 C 0.44414 0.05572 0.00419 0.0
C204 C 0.42638 0.0134 0.99013 0.0
C205 C 0.44499 0.01704 0.97297 0.0
C206 C 0.46284 0.03965 0.9711 0.0
C207 C 0.46216 0.05906 0.98626 0.0
Mg208 Mg 0.21138 0.86452 0.00547 0.0
O209 O 0.25403 0.88363 1.00031 0.0
O210 O 0.27679 0.85245 0.00967 0.0
Mg211 Mg 0.25065 0.81537 0.02078 0.0
C212 C 0.27553 0.87547 0.00286 0.0
C213 C 0.17078 0.89467 0.99369 0.0
O214 O 0.16196 0.87369 0.00658 0.0
O215 O 0.2095 0.84534 0.96975 0.0
O216 O 0.23197 0.81441 0.98105 0.0
O217 O 0.21709 0.87415 0.04411 0.0
O218 O 0.22429 0.83841 0.0316 0.0
C219 C 0.21844 0.82603 0.96496 0.0
C220 C 0.22586 0.85329 0.04904 0.0
O221 O 0.19384 0.89784 0.98731 0.0
Mg222 Mg 0.15816 0.50578 0.31 0.0
O223 O 0.13254 0.50391 0.27368 0.0
O224 O 0.15858 0.50856 0.24318 0.0
Mg225 Mg 0.20076 0.51591 0.26007 0.0
C226 C 0.13603 0.50507 0.25093 0.0
C227 C 0.12376 0.50337 0.35038 0.0
O228 O 0.14522 0.51926 0.35624 0.0
O229 O 0.16812 0.46642 0.30738 0.0
O230 O 0.19689 0.47589 0.27915 0.0
O231 O 0.15887 0.54704 0.3077 0.0
O232 O 0.18836 0.52974 0.29275 0.0
C233 C 0.18501 0.46029 0.29493 0.0
C234 C 0.17912 0.5497 0.29554 0.0
O235 O 0.12264 0.49129 0.3313 0.0
Mg236 Mg 0.80745 0.66602 0.05805 0.0
O237 O 0.76968 0.63715 0.05171 0.0
O238 O 0.73665 0.6582 0.04636 0.0
Mg239 Mg 0.75297 0.70028 0.04989 0.0
C240 C 0.74547 0.63761 0.04759 0.0
C241 C 0.83917 0.62154 0.06916 0.0
O242 O 0.83191 0.62256 0.09119 0.0
O243 O 0.8054 0.67954 0.01738 0.0
O244 O 0.77282 0.70122 0.01424 0.0
O245 O 0.80311 0.66319 0.09847 0.0
O246 O 0.78733 0.69063 0.07198 0.0
C247 C 0.79074 0.69317 0.00486 0.0
C248 C 0.7899 0.68127 0.0942 0.0
O249 O 0.83171 0.63636 0.05177 0.0
Mg250 Mg 0.92031 0.0488 0.25443 0.0
O251 O 0.89262 0.01057 0.25754 0.0
O252 O 0.91489 0.97944 0.25533 0.0
Mg253 Mg 0.95759 0.99781 0.25391 0.0
C254 C 0.89376 0.98719 0.25708 0.0
C255 C 0.88143 0.08705 0.25245 0.0
O256 O 0.89204 0.09462 0.2318 0.0
O257 O 0.93525 0.0423 0.29442 0.0
O258 O 0.95802 0.01156 0.2926 0.0
O259 O 0.91617 0.04925 0.21317 0.0
O260 O 0.94584 0.03267 0.23669 0.0
C261 C 0.94955 0.02707 0.30471 0.0
C262 C 0.93529 0.03705 0.21506 0.0
O263 O 0.8887 0.06864 0.26556 0.0
Mg264 Mg 0.31018 0.16096 0.5611 0.0
O265 O 0.27231 0.13226 0.55465 0.0
O266 O 0.2394 0.15342 0.54931 0.0
Mg267 Mg 0.2558 0.19547 0.55297 0.0
C268 C 0.24812 0.13278 0.55051 0.0
C269 C 0.34303 0.11775 0.57301 0.0
O270 O 0.3382 0.12153 0.59526 0.0
O271 O 0.30842 0.17487 0.52042 0.0
O272 O 0.27604 0.1968 0.51761 0.0
O273 O 0.30559 0.15853 0.60167 0.0
O274 O 0.29025 0.18586 0.57483 0.0
C275 C 0.29395 0.18886 0.50812 0.0
C276 C 0.2927 0.17682 0.59714 0.0
O277 O 0.33392 0.13072 0.55495 0.0
Mg278 Mg 0.413 0.5533 0.75288 0.0
O279 O 0.38178 0.51786 0.74772 0.0
O280 O 0.39911 0.48733 0.73432 0.0
Mg281 Mg 0.44252 0.50281 0.7327 0.0
C282 C 0.37977 0.49554 0.74077 0.0
C283 C 0.37793 0.59138 0.75971 0.0
O284 O 0.38918 0.60035 0.73969 0.0
O285 O 0.42835 0.53462 0.78879 0.0
O286 O 0.44643 0.5048 0.77478 0.0
O287 O 0.40771 0.56669 0.71362 0.0
O288 O 0.43544 0.54188 0.72763 0.0
C289 C 0.44085 0.51631 0.79241 0.0
C290 C 0.42507 0.55398 0.70929 0.0
O291 O 0.38415 0.57156 0.77115 0.0
Mg292 Mg 0.71625 0.36309 0.50275 0.0
O293 O 0.75885 0.38165 0.49676 0.0
O294 O 0.78122 0.35001 0.50451 0.0
Mg295 Mg 0.75468 0.31292 0.51501 0.0
C296 C 0.78019 0.37324 0.49852 0.0
C297 C 0.67491 0.39307 0.48658 0.0
O298 O 0.66338 0.36954 0.49121 0.0
O299 O 0.71233 0.34491 0.46608 0.0
O300 O 0.73437 0.31338 0.47586 0.0
O301 O 0.72385 0.37169 0.54158 0.0
O302 O 0.72936 0.33589 0.52785 0.0
C303 C 0.72053 0.32546 0.46048 0.0
C304 C 0.73226 0.35058 0.54562 0.0
O305 O 0.69952 0.39765 0.4867 0.0
Mg306 Mg 0.65387 0.01055 0.80749 0.0
O307 O 0.63308 0.00684 0.76853 0.0
O308 O 0.66436 0.01515 0.74267 0.0
Mg309 Mg 0.70399 0.02009 0.76441 0.0
C310 C 0.64047 0.01 0.74685 0.0
C311 C 0.616 0.00749 0.84446 0.0
O312 O 0.63762 0.02214 0.85223 0.0
O313 O 0.66492 0.97161 0.8083 0.0
O314 O 0.69617 0.97923 0.78239 0.0
O315 O 0.65435 0.05176 0.80333 0.0
O316 O 0.68653 0.03428 0.79391 0.0
C317 C 0.68228 0.96438 0.79735 0.0
C318 C 0.6766 0.05429 0.79441 0.0
O319 O 0.61576 0.9964 0.82491 0.0
Mg320 Mg 0.03206 0.28144 0.92191 0.0
O321 O 0.99304 0.2768 0.89895 0.0
O322 O 0.96103 0.26668 0.92397 0.0
Mg323 Mg 0.97998 0.26676 0.96335 0.0
C324 C 0.96904 0.27103 0.90259 0.0
C325 C 0.06942 0.28558 0.88172 0.0
O326 O 0.07385 0.26536 0.89532 0.0
O327 O 0.02693 0.32035 0.93206 0.0
O328 O 0.99616 0.30956 0.95834 0.0
O329 O 0.03167 0.23963 0.92337 0.0
O330 O 0.01562 0.25858 0.95075 0.0
C331 C 0.01227 0.32627 0.94702 0.0
C332 C 0.01996 0.23798 0.94323 0.0
O333 O 0.05271 0.29758 0.88782 0.0
Mg334 Mg 0.53144 0.77045 0.41863 0.0
O335 O 0.49292 0.76563 0.39501 0.0
O336 O 0.46093 0.74771 0.41839 0.0
Mg337 Mg 0.47938 0.74232 0.4576 0.0
C338 C 0.46907 0.7568 0.39777 0.0
C339 C 0.57582 0.79908 0.38893 0.0
O340 O 0.58847 0.79341 0.40984 0.0
O341 O 0.52065 0.8043 0.43453 0.0
O342 O 0.4909 0.78587 0.46005 0.0
O343 O 0.53683 0.73179 0.41199 0.0
O344 O 0.51591 0.74047 0.44233 0.0
C345 C 0.5052 0.80557 0.45073 0.0
C346 C 0.52293 0.72386 0.43019 0.0
O347 O 0.55121 0.79402 0.3872 0.0
Mg348 Mg 0.96996 0.74134 0.62666 0.0
O349 O 0.00404 0.73092 0.65224 0.0
O350 O 0.03437 0.72407 0.62921 0.0
Mg351 Mg 0.01826 0.72765 0.58891 0.0
C352 C 0.02628 0.72553 0.65011 0.0
C353 C 0.95025 0.74358 0.67811 0.0
O354 O 0.95811 0.72173 0.68114 0.0
O355 O 0.99395 0.77964 0.61652 0.0
O356 O 0.02102 0.77101 0.59088 0.0
O357 O 0.94996 0.70148 0.6267 0.0
O358 O 0.97809 0.71905 0.60009 0.0
C359 C 0.01166 0.78683 0.60184 0.0
C360 C 0.96265 0.69922 0.60824 0.0
O361 O 0.9534 0.75678 0.65796 0.0
Mg362 Mg 0.48313 0.24176 0.12767 0.0
O363 O 0.52303 0.23428 0.14515 0.0
O364 O 0.54436 0.22861 0.11338 0.0
Mg365 Mg 0.51864 0.22938 0.07734 0.0
C366 C 0.54343 0.23036 0.13632 0.0
C367 C 0.45126 0.24635 0.16953 0.0
O368 O 0.4384 0.22689 0.158 0.0
O369 O 0.50258 0.28079 0.11297 0.0
O370 O 0.52042 0.27225 0.08007 0.0
O371 O 0.46511 0.20076 0.13089 0.0
O372 O 0.48506 0.21942 0.09898 0.0
C373 C 0.51479 0.28799 0.0939 0.0
C374 C 0.47286 0.19908 0.10959 0.0
O375 O 0.47296 0.25749 0.16218 0.0
H376 H 0.21317 0.72827 0.86252 0.0
H377 H 0.18318 0.78283 0.81021 0.0
H378 H 0.18656 0.81226 0.84281 0.0
H379 H 0.18119 0.73939 0.913 0.0
H380 H 0.20788 0.73625 0.93548 0.0
H381 H 0.20405 0.71975 0.90788 0.0
H382 H 0.25064 0.7408 0.89793 0.0
H383 H 0.2547 0.75722 0.92562 0.0
H384 H 0.25974 0.7748 0.89657 0.0
H385 H 0.19103 0.83491 0.88158 0.0
H386 H 0.19857 0.85001 0.9233 0.0
H387 H 0.22706 0.78131 0.94991 0.0
C388 C 0.20774 0.74658 0.8578 0.0
C389 C 0.19771 0.75312 0.83381 0.0
C390 C 0.19048 0.77717 0.82854 0.0
C391 C 0.19247 0.7941 0.8469 0.0
C392 C 0.20194 0.78685 0.87043 0.0
C393 C 0.20971 0.76378 0.87589 0.0
C394 C 0.2189 0.76048 0.90274 0.0
C395 C 0.20199 0.73761 0.91552 0.0
C396 C 0.24771 0.7582 0.90589 0.0
C397 C 0.21479 0.78516 0.91156 0.0
C398 C 0.20497 0.80011 0.89266 0.0
C399 C 0.19892 0.82346 0.89651 0.0
C400 C 0.20317 0.83183 0.9203 0.0
C401 C 0.2135 0.81693 0.93993 0.0
C402 C 0.21934 0.79329 0.93534 0.0
H403 H 0.03979 0.56076 0.43612 0.0
H404 H 0.97212 0.50953 0.40743 0.0
H405 H 1.00005 0.48966 0.38416 0.0
H406 H 0.07268 0.57128 0.38207 0.0
H407 H 0.1045 0.57225 0.39773 0.0
H408 H 0.07921 0.58122 0.4129 0.0
H409 H 0.08598 0.54802 0.44878 0.0
H410 H 0.11124 0.53885 0.43361 0.0
H411 H 0.08394 0.51542 0.4425 0.0
H412 H 0.03549 0.47744 0.36191 0.0
H413 H 0.07521 0.47401 0.34274 0.0
H414 H 0.11941 0.53254 0.38736 0.0
C415 C 0.03095 0.54531 0.42496 0.0
C416 C 0.00388 0.53688 0.42316 0.0
C417 C 0.99286 0.51642 0.4087 0.0
C418 C 0.00856 0.50498 0.39556 0.0
C419 C 0.03524 0.514 0.39742 0.0
C420 C 0.04634 0.53362 0.41188 0.0
C421 C 0.07535 0.54031 0.41028 0.0
C422 C 0.08339 0.56789 0.40013 0.0
C423 C 0.08998 0.53535 0.43528 0.0
C424 C 0.07882 0.52179 0.39224 0.0
C425 C 0.05554 0.50664 0.38511 0.0
C426 C 0.05388 0.48902 0.36759 0.0
C427 C 0.07653 0.48717 0.35681 0.0
C428 C 0.10046 0.50288 0.36361 0.0
C429 C 0.10152 0.52002 0.3819 0.0
H430 H 0.76056 0.76381 0.87557 0.0
H431 H 0.84276 0.77263 0.86568 0.0
H432 H 0.84819 0.74401 0.90222 0.0
H433 H 0.76992 0.76901 0.93896 0.0
H434 H 0.7409 0.74691 0.94585 0.0
H435 H 0.74241 0.76445 0.91654 0.0
H436 H 0.73078 0.72249 0.89484 0.0
H437 H 0.72935 0.70478 0.92415 0.0
H438 H 0.75034 0.69841 0.90236 0.0
H439 H 0.84565 0.71691 0.94182 0.0
H440 H 0.83599 0.69696 0.98288 0.0
H441 H 0.75669 0.70937 0.96892 0.0
C442 C 0.77976 0.75981 0.8809 0.0
C443 C 0.80111 0.77049 0.86725 0.0
C444 C 0.82578 0.76427 0.87512 0.0
C445 C 0.82917 0.74807 0.89606 0.0
C446 C 0.80782 0.73834 0.90923 0.0
C447 C 0.78363 0.74415 0.90206 0.0
C448 C 0.76448 0.73348 0.92081 0.0
C449 C 0.75381 0.75473 0.93115 0.0
C450 C 0.74244 0.7136 0.90988 0.0
C451 C 0.78186 0.72135 0.93994 0.0
C452 C 0.80663 0.72382 0.93267 0.0
C453 C 0.82627 0.71473 0.94765 0.0
C454 C 0.82059 0.70336 0.97091 0.0
C455 C 0.79562 0.70166 0.97912 0.0
C456 C 0.77597 0.71039 0.96317 0.0
H457 H 0.01688 0.9814 0.43281 0.0
H458 H 1.00062 0.0479 0.46295 0.0
H459 H 0.97846 0.05983 0.42304 0.0
H460 H 0.03098 0.01092 0.37341 0.0
H461 H 0.01625 0.98329 0.35744 0.0
H462 H 0.03004 0.9798 0.38854 0.0
H463 H 0.98615 0.95375 0.40116 0.0
H464 H 0.97219 0.95729 0.37011 0.0
H465 H 0.95713 0.96714 0.39481 0.0
H466 H 0.95831 0.0645 0.37959 0.0
H467 H 0.94316 0.06241 0.33571 0.0
H468 H 0.97382 0.99333 0.33407 0.0
C469 C 0.0089 0.99861 0.43095 0.0
C470 C 0.011 0.01412 0.45078 0.0
C471 C 0.99964 0.03608 0.44779 0.0
C472 C 0.98695 0.04293 0.42527 0.0
C473 C 0.98563 0.02747 0.40596 0.0
C474 C 0.99637 0.00581 0.40856 0.0
C475 C 0.99274 0.99271 0.38487 0.0
C476 C 0.01907 0.99163 0.37552 0.0
C477 C 0.97605 0.96615 0.38793 0.0
C478 C 0.97842 0.01047 0.36847 0.0
C479 C 0.97429 0.03028 0.38099 0.0
C480 C 0.96146 0.04906 0.36959 0.0
C481 C 0.95287 0.04768 0.34466 0.0
C482 C 0.95734 0.02776 0.33135 0.0
C483 C 0.97015 0.00888 0.34361 0.0
H484 H 0.23123 0.28091 0.65313 0.0
H485 H 0.23534 0.23854 0.72358 0.0
H486 H 0.2539 0.20637 0.70499 0.0
H487 H 0.21211 0.22724 0.61716 0.0
H488 H 0.23075 0.24134 0.59207 0.0
H489 H 0.21851 0.26114 0.61117 0.0
H490 H 0.26504 0.28618 0.62059 0.0
H491 H 0.27738 0.26661 0.60134 0.0
H492 H 0.2905 0.26935 0.63272 0.0
H493 H 0.27265 0.17903 0.67809 0.0
H494 H 0.28936 0.15907 0.64546 0.0
H495 H 0.27138 0.2194 0.59301 0.0
C496 C 0.23636 0.26502 0.6647 0.0
C497 C 0.23261 0.26255 0.68991 0.0
C498 C 0.23875 0.24109 0.70434 0.0
C499 C 0.24915 0.2227 0.69392 0.0
C500 C 0.25285 0.22587 0.66898 0.0
C501 C 0.24656 0.2465 0.65459 0.0
C502 C 0.25195 0.24545 0.62823 0.0
C503 C 0.22683 0.24368 0.61116 0.0
C504 C 0.27244 0.26825 0.62026 0.0
C505 C 0.26242 0.22107 0.62997 0.0
C506 C 0.26284 0.20997 0.65357 0.0
C507 C 0.27228 0.18752 0.65953 0.0
C508 C 0.2817 0.17631 0.6409 0.0
C509 C 0.28146 0.18752 0.61664 0.0
C510 C 0.27152 0.2101 0.61125 0.0
H511 H 0.49344 0.51533 0.5972 0.0
H512 H 0.49623 0.59331 0.56824 0.0
H513 H 0.47357 0.60155 0.60261 0.0
H514 H 0.43204 0.50541 0.62209 0.0
H515 H 0.44174 0.48822 0.64995 0.0
H516 H 0.45768 0.48742 0.62256 0.0
H517 H 0.50225 0.50351 0.64556 0.0
H518 H 0.48648 0.50404 0.67311 0.0
H519 H 0.50694 0.53224 0.66126 0.0
H520 H 0.4476 0.60103 0.63748 0.0
H521 H 0.4271 0.59429 0.67646 0.0
H522 H 0.44554 0.51879 0.68709 0.0
C523 C 0.48954 0.53419 0.59821 0.0
C524 C 0.49573 0.55331 0.57926 0.0
C525 C 0.49059 0.57787 0.58168 0.0
C526 C 0.47788 0.58289 0.60131 0.0
C527 C 0.4711 0.56346 0.61901 0.0
C528 C 0.47737 0.53983 0.61821 0.0
C529 C 0.46898 0.52295 0.64067 0.0
C530 C 0.44892 0.49962 0.63337 0.0
C531 C 0.49257 0.51523 0.65607 0.0
C532 C 0.4568 0.54081 0.65388 0.0
C533 C 0.45787 0.56388 0.64068 0.0
C534 C 0.44695 0.58319 0.64824 0.0
C535 C 0.43516 0.5791 0.67029 0.0
C536 C 0.43488 0.55612 0.68482 0.0
C537 C 0.4457 0.53663 0.67643 0.0
H538 H 0.77403 0.26492 0.66261 0.0
H539 H 0.80849 0.33471 0.69601 0.0
H540 H 0.79936 0.35907 0.65708 0.0
H541 H 0.79643 0.28509 0.60034 0.0
H542 H 0.76676 0.26894 0.58523 0.0
H543 H 0.77862 0.25675 0.61486 0.0
H544 H 0.73469 0.25802 0.63175 0.0
H545 H 0.72278 0.27037 0.60228 0.0
H546 H 0.72265 0.28737 0.62909 0.0
H547 H 0.78189 0.376 0.61687 0.0
H548 H 0.75925 0.38465 0.57652 0.0
H549 H 0.73744 0.30402 0.56786 0.0
C550 C 0.78025 0.28527 0.6614 0.0
C551 C 0.79228 0.29799 0.68208 0.0
C552 C 0.79957 0.32466 0.68022 0.0
C553 C 0.79446 0.33862 0.65822 0.0
C554 C 0.7822 0.32559 0.63825 0.0
C555 C 0.77544 0.2995 0.63948 0.0
C556 C 0.76109 0.29035 0.61571 0.0
C557 C 0.77666 0.27434 0.6033 0.0
C558 C 0.73368 0.27567 0.61997 0.0
C559 C 0.76012 0.31541 0.60124 0.0
C560 C 0.77251 0.33546 0.61462 0.0
C561 C 0.77255 0.36049 0.60602 0.0
C562 C 0.75951 0.3652 0.58317 0.0
C563 C 0.74678 0.34499 0.5691 0.0
C564 C 0.74741 0.31979 0.57812 0.0
H565 H 0.51888 0.96206 0.65199 0.0
H566 H 0.53553 0.03626 0.61374 0.0
H567 H 0.5718 0.04914 0.64473 0.0
H568 H 0.53264 0.9848 0.71367 0.0
H569 H 0.54676 0.958 0.72609 0.0
H570 H 0.52201 0.95448 0.70095 0.0
H571 H 0.55274 0.93707 0.67547 0.0
H572 H 0.57761 0.94061 0.70049 0.0
H573 H 0.58434 0.95555 0.67063 0.0
H574 H 0.60794 0.05294 0.67755 0.0
H575 H 0.63967 0.04916 0.71321 0.0
H576 H 0.59804 0.97396 0.73302 0.0
C577 C 0.53015 0.98104 0.65033 0.0
C578 C 0.52451 0.99825 0.63056 0.0
C579 C 0.5395 0.02294 0.62889 0.0
C580 C 0.56015 0.03036 0.64632 0.0
C581 C 0.56533 0.01298 0.66554 0.0
C582 C 0.55057 0.98897 0.66794 0.0
C583 C 0.56014 0.97425 0.6907 0.0
C584 C 0.53914 0.96749 0.70893 0.0
C585 C 0.56925 0.95046 0.68391 0.0
C586 C 0.58279 0.99363 0.70047 0.0
C587 C 0.58552 0.01572 0.68544 0.0
C588 C 0.60581 0.03591 0.68966 0.0
C589 C 0.62376 0.03356 0.70985 0.0
C590 C 0.62107 0.01141 0.72582 0.0
C591 C 0.60023 0.99123 0.7212 0.0
H592 H 0.85918 0.21272 0.80206 0.0
H593 H 0.85698 0.29023 0.77388 0.0
H594 H 0.89168 0.30563 0.80486 0.0
H595 H 0.86737 0.22746 0.8658 0.0
H596 H 0.88812 0.2047 0.87495 0.0
H597 H 0.86401 0.19928 0.84946 0.0
H598 H 0.89965 0.19476 0.8217 0.0
H599 H 0.92389 0.20026 0.84707 0.0
H600 H 0.92732 0.21991 0.81894 0.0
H601 H 0.92766 0.31302 0.83777 0.0
H602 H 0.95994 0.31185 0.87355 0.0
H603 H 0.93572 0.23057 0.88383 0.0
C604 C 0.86576 0.23295 0.80242 0.0
C605 C 0.85555 0.25008 0.78484 0.0
C606 C 0.86499 0.27644 0.78626 0.0
C607 C 0.88459 0.28551 0.80405 0.0
C608 C 0.89429 0.26813 0.82081 0.0
C609 C 0.88497 0.24245 0.82047 0.0
C610 C 0.89805 0.22799 0.84141 0.0
C611 C 0.8782 0.21404 0.85894 0.0
C612 C 0.91312 0.20965 0.83169 0.0
C613 C 0.91628 0.24961 0.85339 0.0
C614 C 0.91397 0.27257 0.84097 0.0
C615 C 0.92945 0.29522 0.84783 0.0
C616 C 0.94771 0.2944 0.86806 0.0
C617 C 0.94992 0.27121 0.88135 0.0
C618 C 0.93402 0.24854 0.87401 0.0
H619 H 0.49371 0.90258 0.54947 0.0
H620 H 0.51858 0.96314 0.49508 0.0
H621 H 0.51805 0.93172 0.46481 0.0
H622 H 0.5311 0.86014 0.53312 0.0
H623 H 0.50705 0.83201 0.53796 0.0
H624 H 0.5074 0.85921 0.55489 0.0
H625 H 0.45954 0.85988 0.53915 0.0
H626 H 0.45898 0.83255 0.52227 0.0
H627 H 0.45044 0.86097 0.50665 0.0
H628 H 0.51861 0.8939 0.44166 0.0
H629 H 0.51814 0.85202 0.42646 0.0
H630 H 0.49107 0.81575 0.49511 0.0
C631 C 0.49836 0.90921 0.531 0.0
C632 C 0.50549 0.93535 0.52438 0.0
C633 C 0.51243 0.94324 0.50031 0.0
C634 C 0.51227 0.92554 0.48303 0.0
C635 C 0.50512 0.89995 0.49009 0.0
C636 C 0.49805 0.89175 0.51341 0.0
C637 C 0.49212 0.86308 0.51648 0.0
C638 C 0.51052 0.85303 0.53681 0.0
C639 C 0.46357 0.85357 0.52142 0.0
C640 C 0.49746 0.8565 0.49142 0.0
C641 C 0.50497 0.87806 0.4765 0.0
C642 C 0.51239 0.87686 0.45304 0.0
C643 C 0.51216 0.853 0.44459 0.0
C644 C 0.50435 0.83061 0.45949 0.0
C645 C 0.4967 0.8325 0.48313 0.0
H646 H 0.1788 0.28459 0.79184 0.0
H647 H 0.15942 0.35391 0.75534 0.0
H648 H 0.12316 0.35071 0.7815 0.0
H649 H 0.11167 0.2523 0.80094 0.0
H650 H 0.12106 0.2382 0.83056 0.0
H651 H 0.14366 0.24473 0.80724 0.0
H652 H 0.17718 0.27117 0.83702 0.0
H653 H 0.15464 0.26494 0.86032 0.0
H654 H 0.16823 0.29712 0.85074 0.0
H655 H 0.09117 0.3416 0.81394 0.0
H656 H 0.06566 0.32693 0.84958 0.0
H657 H 0.10636 0.2637 0.86463 0.0
C658 C 0.16648 0.29872 0.78891 0.0
C659 C 0.1718 0.31943 0.7715 0.0
C660 C 0.15569 0.33793 0.76865 0.0
C661 C 0.13502 0.33622 0.78334 0.0
C662 C 0.13068 0.31586 0.80075 0.0
C663 C 0.14587 0.29735 0.80347 0.0
C664 C 0.13821 0.27826 0.8245 0.0
C665 C 0.12804 0.25181 0.81525 0.0
C666 C 0.16092 0.27787 0.84431 0.0
C667 C 0.11669 0.28917 0.8335 0.0
C668 C 0.11246 0.31074 0.81947 0.0
C669 C 0.09414 0.32459 0.8249 0.0
C670 C 0.0798 0.31615 0.84521 0.0
C671 C 0.08398 0.29416 0.8599 0.0
C672 C 0.10259 0.28052 0.85375 0.0
H673 H 0.54775 0.59086 0.48645 0.0
H674 H 0.46487 0.56977 0.49224 0.0
H675 H 0.458 0.60783 0.46616 0.0
H676 H 0.55358 0.65197 0.49299 0.0
H677 H 0.57697 0.66399 0.47104 0.0
H678 H 0.57534 0.63245 0.48497 0.0
H679 H 0.56828 0.61406 0.44235 0.0
H680 H 0.57057 0.6457 0.42811 0.0
H681 H 0.54253 0.62191 0.42073 0.0
H682 H 0.46132 0.65261 0.4495 0.0
H683 H 0.4741 0.69812 0.43684 0.0
H684 H 0.55416 0.68898 0.43835 0.0
C685 C 0.52806 0.59352 0.48112 0.0
C686 C 0.50686 0.57746 0.49146 0.0
C687 C 0.48141 0.58197 0.48465 0.0
C688 C 0.4773 0.6035 0.46979 0.0
C689 C 0.49879 0.61996 0.46132 0.0
C690 C 0.52363 0.6148 0.46604 0.0
C691 C 0.5436 0.63674 0.45681 0.0
C692 C 0.56352 0.64687 0.4777 0.0
C693 C 0.55704 0.62915 0.43574 0.0
C694 C 0.5263 0.65561 0.4477 0.0
C695 C 0.50049 0.64553 0.45035 0.0
C696 C 0.48132 0.66045 0.44646 0.0
C697 C 0.48873 0.68626 0.43955 0.0
C698 C 0.51497 0.69668 0.43635 0.0
C699 C 0.53386 0.68112 0.44006 0.0
H700 H 0.84729 0.81505 0.72578 0.0
H701 H 0.84663 0.76378 0.79094 0.0
H702 H 0.88223 0.74601 0.7768 0.0
H703 H 0.85677 0.77159 0.68484 0.0
H704 H 0.87762 0.7943 0.66625 0.0
H705 H 0.85392 0.80451 0.68262 0.0
H706 H 0.89011 0.83699 0.70379 0.0
H707 H 0.91397 0.82685 0.68747 0.0
H708 H 0.91772 0.82632 0.72044 0.0
H709 H 0.91551 0.73184 0.75411 0.0
H710 H 0.94366 0.72176 0.7244 0.0
H711 H 0.92264 0.78239 0.67387 0.0
C712 C 0.85495 0.80034 0.73719 0.0
C713 C 0.84446 0.79084 0.75954 0.0
C714 C 0.85465 0.77138 0.77389 0.0
C715 C 0.87483 0.76123 0.766 0.0
C716 C 0.88461 0.77083 0.74375 0.0
C717 C 0.87505 0.78998 0.72956 0.0
C718 C 0.88792 0.79592 0.70575 0.0
C719 C 0.86786 0.79129 0.68356 0.0
C720 C 0.90335 0.82314 0.70429 0.0
C721 C 0.90582 0.77676 0.70851 0.0
C722 C 0.90378 0.76262 0.73065 0.0
C723 C 0.91747 0.74295 0.73683 0.0
C724 C 0.93339 0.73735 0.71981 0.0
C725 C 0.93545 0.75132 0.69683 0.0
C726 C 0.92175 0.77154 0.69138 0.0
H727 H 0.08038 0.91042 0.5258 0.0
H728 H 0.03527 0.95301 0.56235 0.0
H729 H 0.01859 0.91447 0.58808 0.0
H730 H 0.03268 0.85479 0.52236 0.0
H731 H 0.05523 0.83319 0.52753 0.0
H732 H 0.06541 0.86452 0.51369 0.0
H733 H 0.10329 0.87267 0.54749 0.0
H734 H 0.09319 0.84133 0.56146 0.0
H735 H 0.09649 0.8685 0.57924 0.0
H736 H 0.00541 0.87124 0.60825 0.0
H737 H 0.99465 0.82575 0.62039 0.0
H738 H 0.04755 0.81053 0.56997 0.0
C739 C 0.06729 0.91155 0.53951 0.0
C740 C 0.05918 0.93449 0.54247 0.0
C741 C 0.04171 0.93548 0.56013 0.0
C742 C 0.03225 0.91377 0.57479 0.0
C743 C 0.04044 0.89128 0.57141 0.0
C744 C 0.0575 0.88996 0.55417 0.0
C745 C 0.06192 0.8631 0.55322 0.0
C746 C 0.05328 0.85333 0.52769 0.0
C747 C 0.09042 0.8613 0.56081 0.0
C748 C 0.0443 0.84945 0.57226 0.0
C749 C 0.03238 0.86614 0.58274 0.0
C750 C 0.01472 0.85799 0.60028 0.0
C751 C 0.00874 0.83205 0.60706 0.0
C752 C 0.02021 0.81441 0.59617 0.0
C753 C 0.03851 0.82343 0.57877 0.0
H754 H 0.16002 0.71497 0.72971 0.0
H755 H 0.1176 0.7098 0.79429 0.0
H756 H 0.07688 0.70984 0.76802 0.0
H757 H 0.12573 0.75726 0.69411 0.0
H758 H 0.12565 0.74326 0.66548 0.0
H759 H 0.15125 0.74065 0.68921 0.0
H760 H 0.14114 0.69182 0.68832 0.0
H761 H 0.11558 0.69428 0.66444 0.0
H762 H 0.10865 0.67505 0.6923 0.0
H763 H 0.04147 0.71367 0.73513 0.0
H764 H 0.01316 0.71966 0.69753 0.0
H765 H 0.07807 0.72187 0.65383 0.0
C766 C 0.14205 0.7133 0.73827 0.0
C767 C 0.14194 0.71242 0.76403 0.0
C768 C 0.11813 0.7107 0.77458 0.0
C769 C 0.0949 0.71061 0.75983 0.0
C770 C 0.09572 0.71212 0.73451 0.0
C771 C 0.1186 0.71325 0.72375 0.0
C772 C 0.11419 0.71592 0.69604 0.0
C773 C 0.13015 0.74075 0.68561 0.0
C774 C 0.12025 0.69289 0.6846 0.0
C775 C 0.08537 0.7165 0.69298 0.0
C776 C 0.07512 0.71419 0.71542 0.0
C777 C 0.0492 0.71523 0.71742 0.0
C778 C 0.03328 0.71873 0.69592 0.0
C779 C 0.04328 0.72114 0.67264 0.0
C780 C 0.0697 0.71984 0.67128 0.0
H781 H 0.98665 0.59185 0.52559 0.0
H782 H 0.90344 0.56373 0.52414 0.0
H783 H 0.89959 0.59577 0.55182 0.0
H784 H 0.99794 0.61017 0.58717 0.0
H785 H 0.02005 0.63913 0.57998 0.0
H786 H 0.0172 0.61264 0.56141 0.0
H787 H 0.00643 0.64076 0.52261 0.0
H788 H 0.00947 0.66739 0.54102 0.0
H789 H 0.98001 0.65778 0.52195 0.0
H790 H 0.9045 0.62943 0.58086 0.0
H791 H 0.91667 0.66719 0.60459 0.0
H792 H 0.99523 0.67812 0.5828 0.0
C793 C 0.96748 0.59243 0.53072 0.0
C794 C 0.94549 0.57442 0.52291 0.0
C795 C 0.92092 0.57627 0.53047 0.0
C796 C 0.9184 0.59468 0.54609 0.0
C797 C 0.94045 0.61173 0.55356 0.0
C798 C 0.96441 0.61123 0.54572 0.0
C799 C 0.98463 0.633 0.55522 0.0
C800 C 0.00623 0.62313 0.57194 0.0
C801 C 0.99578 0.65079 0.53393 0.0
C802 C 0.9682 0.64569 0.5697 0.0
C803 C 0.94289 0.6327 0.56884 0.0
C804 C 0.92417 0.63994 0.58147 0.0
C805 C 0.93133 0.66133 0.59501 0.0
C806 C 0.95683 0.6756 0.59541 0.0
C807 C 0.97555 0.66764 0.58261 0.0
H808 H 0.78433 0.86712 0.22774 0.0
H809 H 0.75752 0.87313 0.29907 0.0
H810 H 0.79047 0.91121 0.30484 0.0
H811 H 0.85247 0.88383 0.24892 0.0
H812 H 0.86135 0.9004 0.22023 0.0
H813 H 0.83426 0.87444 0.22067 0.0
H814 H 0.8046 0.90357 0.19767 0.0
H815 H 0.83153 0.92969 0.19737 0.0
H816 H 0.80223 0.93269 0.21037 0.0
H817 H 0.82468 0.95003 0.30223 0.0
H818 H 0.86282 0.98331 0.29418 0.0
H819 H 0.8719 0.94875 0.22799 0.0
C820 C 0.78542 0.87611 0.24474 0.0
C821 C 0.76746 0.86721 0.26253 0.0
C822 C 0.76999 0.87993 0.28449 0.0
C823 C 0.78892 0.90155 0.28815 0.0
C824 C 0.80585 0.90996 0.27009 0.0
C825 C 0.80477 0.89732 0.24911 0.0
C826 C 0.82646 0.90948 0.23334 0.0
C827 C 0.84472 0.89093 0.23064 0.0
C828 C 0.81554 0.91945 0.2082 0.0
C829 C 0.83971 0.93101 0.24871 0.0
C830 C 0.82714 0.9312 0.2696 0.0
C831 C 0.83492 0.94992 0.28612 0.0
C832 C 0.85644 0.96876 0.28137 0.0
C833 C 0.87018 0.9683 0.26064 0.0
C834 C 0.86174 0.94923 0.2441 0.0
H835 H 0.79369 0.19366 0.24554 0.0
H836 H 0.76954 0.16381 0.31705 0.0
H837 H 0.79549 0.13001 0.31684 0.0
H838 H 0.79402 0.13329 0.22071 0.0
H839 H 0.82247 0.14533 0.20457 0.0
H840 H 0.80094 0.16619 0.20994 0.0
H841 H 0.83942 0.19617 0.23119 0.0
H842 H 0.86105 0.17539 0.22595 0.0
H843 H 0.85874 0.18379 0.25658 0.0
H844 H 0.82517 0.10015 0.30909 0.0
H845 H 0.85674 0.07717 0.29493 0.0
H846 H 0.86188 0.12717 0.22867 0.0
C847 C 0.79355 0.17974 0.26097 0.0
C848 C 0.77909 0.18089 0.28105 0.0
C849 C 0.78001 0.16285 0.30125 0.0
C850 C 0.79474 0.14367 0.3013 0.0
C851 C 0.80865 0.14297 0.28112 0.0
C852 C 0.8082 0.16057 0.26134 0.0
C853 C 0.82563 0.15627 0.24235 0.0
C854 C 0.80982 0.14988 0.21795 0.0
C855 C 0.8475 0.17927 0.23883 0.0
C856 C 0.83609 0.13358 0.25456 0.0
C857 C 0.826 0.12612 0.27686 0.0
C858 C 0.83312 0.1058 0.29161 0.0
C859 C 0.85109 0.09286 0.28341 0.0
C860 C 0.86184 0.10031 0.26067 0.0
C861 C 0.85404 0.12091 0.24611 0.0
H862 H 0.37413 0.00802 0.99502 0.0
H863 H 0.43462 0.96501 0.98825 0.0
H864 H 0.40215 0.92552 0.98914 0.0
H865 H 0.33817 0.96276 0.03696 0.0
H866 H 0.30693 0.96827 0.02358 0.0
H867 H 0.33488 0.99323 0.02208 0.0
H868 H 0.32633 0.99781 0.97484 0.0
H869 H 0.29846 0.97273 0.97618 0.0
H870 H 0.32404 0.97055 0.9574 0.0
H871 H 0.36375 0.8909 0.99134 0.0
H872 H 0.32169 0.8627 0.99554 0.0
H873 H 0.28547 0.92779 1.00092 0.0
C874 C 0.38056 0.99026 0.99392 0.0
C875 C 0.40692 0.98959 0.99148 0.0
C876 C 0.41451 0.96601 0.98981 0.0
C877 C 0.39623 0.94348 0.99038 0.0
C878 C 0.37043 0.94484 0.99259 0.0
C879 C 0.36254 0.96757 0.9944 0.0
C880 C 0.33359 0.96364 0.99682 0.0
C881 C 0.32807 0.9725 0.02132 0.0
C882 C 0.31979 0.97697 0.97501 0.0
C883 C 0.32647 0.9351 0.99624 0.0
C884 C 0.34807 0.92473 0.99375 0.0
C885 C 0.34668 0.89878 0.99325 0.0
C886 C 0.32265 0.88292 0.99568 0.0
C887 C 0.3002 0.89299 0.99855 0.0
C888 C 0.30217 0.91951 0.99853 0.0
H889 H 0.28713 0.36822 0.30355 0.0
H890 H 0.23383 0.31216 0.34414 0.0
H891 H 0.20239 0.34124 0.34009 0.0
H892 H 0.27341 0.42292 0.32705 0.0
H893 H 0.27571 0.44153 0.29825 0.0
H894 H 0.29396 0.41638 0.30492 0.0
H895 H 0.273 0.39601 0.26501 0.0
H896 H 0.25462 0.42108 0.25824 0.0
H897 H 0.23816 0.38857 0.2599 0.0
H898 H 0.17705 0.3778 0.33225 0.0
H899 H 0.16041 0.41762 0.32067 0.0
H900 H 0.22941 0.4472 0.28269 0.0
C901 C 0.26874 0.36172 0.31133 0.0
C902 C 0.26313 0.33774 0.32419 0.0
C903 C 0.23892 0.33054 0.33453 0.0
C904 C 0.22078 0.34686 0.33214 0.0
C905 C 0.22695 0.37025 0.31914 0.0
C906 C 0.25033 0.37754 0.30881 0.0
C907 C 0.25239 0.4035 0.29558 0.0
C908 C 0.27521 0.42218 0.30715 0.0
C909 C 0.25467 0.4022 0.26805 0.0
C910 C 0.22661 0.40985 0.3002 0.0
C911 C 0.21216 0.39058 0.31392 0.0
C912 C 0.18812 0.39288 0.32129 0.0
C913 C 0.1788 0.41555 0.31461 0.0
C914 C 0.19339 0.43547 0.30051 0.0
C915 C 0.21746 0.43226 0.29309 0.0
H916 H 0.10985 0.04704 0.51827 0.0
H917 H 0.14705 0.9813 0.53063 0.0
H918 H 0.1891 0.00917 0.54067 0.0
H919 H 0.16213 0.08839 0.48973 0.0
H920 H 0.15737 0.11602 0.50371 0.0
H921 H 0.13033 0.0908 0.49768 0.0
H922 H 0.121 0.08705 0.5434 0.0
H923 H 0.14804 0.11222 0.54959 0.0
H924 H 0.1464 0.08201 0.5667 0.0
H925 H 0.22728 0.04454 0.54881 0.0
H926 H 0.25832 0.08437 0.55513 0.0
H927 H 0.19576 0.12672 0.53739 0.0
C928 C 0.12687 0.03849 0.52288 0.0
C929 C 0.12517 0.01198 0.52361 0.0
C930 C 0.14785 0.00154 0.53017 0.0
C931 C 0.17183 0.01723 0.53577 0.0
C932 C 0.1728 0.04329 0.53483 0.0
C933 C 0.1509 0.05383 0.52859 0.0
C934 C 0.15706 0.08236 0.52907 0.0
C935 C 0.15139 0.09514 0.50353 0.0
C936 C 0.14225 0.09144 0.54834 0.0
C937 C 0.18589 0.08628 0.5365 0.0
C938 C 0.19464 0.06354 0.53969 0.0
C939 C 0.22063 0.06245 0.54639 0.0
C940 C 0.23812 0.0852 0.54993 0.0
C941 C 0.22955 0.10875 0.54682 0.0
C942 C 0.20302 0.10911 0.54002 0.0
H943 H 0.79808 0.16335 0.7675 0.0
H944 H 0.74316 0.214 0.74904 0.0
H945 H 0.70691 0.1786 0.75647 0.0
H946 H 0.75894 0.10949 0.73878 0.0
H947 H 0.76852 0.08657 0.76197 0.0
H948 H 0.79034 0.11591 0.75558 0.0
H949 H 0.79349 0.12561 0.80125 0.0
H950 H 0.77184 0.09621 0.8078 0.0
H951 H 0.76421 0.12555 0.81573 0.0
H952 H 0.67691 0.13843 0.76693 0.0
H953 H 0.65463 0.09541 0.77943 0.0
H954 H 0.72856 0.06993 0.78928 0.0
C955 C 0.7784 0.1669 0.76519 0.0
C956 C 0.77329 0.1913 0.75771 0.0
C957 C 0.74736 0.19535 0.75461 0.0
C958 C 0.7267 0.17541 0.75881 0.0
C959 C 0.73231 0.1515 0.76588 0.0
C960 C 0.75747 0.14709 0.76899 0.0
C961 C 0.75802 0.11947 0.77649 0.0
C962 C 0.76964 0.10714 0.75704 0.0
C963 C 0.77276 0.11655 0.80182 0.0
C964 C 0.72926 0.10917 0.77733 0.0
C965 C 0.71483 0.12802 0.7712 0.0
C966 C 0.68796 0.12344 0.77158 0.0
C967 C 0.67549 0.09897 0.77871 0.0
C968 C 0.68987 0.07937 0.78512 0.0
C969 C 0.71707 0.0845 0.7841 0.0
H970 H 0.43783 0.01978 0.6146 0.0
H971 H 0.45035 0.01792 0.53794 0.0
H972 H 0.41863 0.04611 0.52651 0.0
H973 H 0.369 0.02154 0.60588 0.0
H974 H 0.37047 0.04298 0.6296 0.0
H975 H 0.39302 0.02147 0.63158 0.0
H976 H 0.43147 0.05918 0.63525 0.0
H977 H 0.40905 0.0808 0.63328 0.0
H978 H 0.43374 0.08503 0.61203 0.0
H979 H 0.38681 0.0762 0.52358 0.0
H980 H 0.35758 0.10565 0.52949 0.0
H981 H 0.36663 0.08836 0.6081 0.0
C982 C 0.43394 0.02528 0.59539 0.0
C983 C 0.44657 0.01645 0.57718 0.0
C984 C 0.44065 0.02399 0.55224 0.0
C985 C 0.42275 0.04015 0.54556 0.0
C986 C 0.41086 0.04864 0.564 0.0
C987 C 0.41619 0.04142 0.58841 0.0
C988 C 0.40136 0.05376 0.60474 0.0
C989 C 0.38233 0.03374 0.61877 0.0
C990 C 0.42002 0.0707 0.62236 0.0
C991 C 0.3871 0.06931 0.58574 0.0
C992 C 0.39271 0.06601 0.56233 0.0
C993 C 0.38219 0.07883 0.54183 0.0
C994 C 0.3656 0.09553 0.54537 0.0
C995 C 0.35975 0.09935 0.56924 0.0
C996 C 0.3706 0.08586 0.5896 0.0
H997 H 0.55058 0.44517 0.51406 0.0
H998 H 0.6002 0.51808 0.52409 0.0
H999 H 0.63663 0.5022 0.50949 0.0
H1000 H 0.59708 0.40814 0.53564 0.0
H1001 H 0.58623 0.38421 0.51409 0.0
H1002 H 0.56373 0.40225 0.52313 0.0
H1003 H 0.55256 0.41583 0.47755 0.0
H1004 H 0.57523 0.39793 0.46838 0.0
H1005 H 0.57819 0.43112 0.45898 0.0
H1006 H 0.66868 0.47698 0.49641 0.0
H1007 H 0.69347 0.44429 0.48833 0.0
H1008 H 0.62245 0.38834 0.4866 0.0
C1009 C 0.56906 0.45787 0.51286 0.0
C1010 C 0.57242 0.48283 0.52009 0.0
C1011 C 0.59697 0.49888 0.51857 0.0
C1012 C 0.61781 0.49005 0.5102 0.0
C1013 C 0.61379 0.46523 0.50329 0.0
C1014 C 0.58997 0.44939 0.50455 0.0
C1015 C 0.59097 0.4231 0.49755 0.0
C1016 C 0.58411 0.40327 0.51888 0.0
C1017 C 0.57318 0.41662 0.47423 0.0
C1018 C 0.61925 0.42634 0.4928 0.0
C1019 C 0.63209 0.45083 0.49585 0.0
C1020 C 0.65872 0.45783 0.4937 0.0
C1021 C 0.67265 0.43915 0.48901 0.0
C1022 C 0.65993 0.41374 0.48674 0.0
C1023 C 0.63277 0.40759 0.48802 0.0
H1024 H 0.7134 0.22937 0.35657 0.0
H1025 H 0.6909 0.28749 0.30364 0.0
H1026 H 0.6908 0.31502 0.3372 0.0
H1027 H 0.67733 0.24043 0.40567 0.0
H1028 H 0.70247 0.23518 0.42917 0.0
H1029 H 0.69907 0.21944 0.40113 0.0
H1030 H 0.74702 0.2381 0.39388 0.0
H1031 H 0.75058 0.25385 0.42192 0.0
H1032 H 0.75806 0.27186 0.39354 0.0
H1033 H 0.69403 0.33673 0.37697 0.0
H1034 H 0.70221 0.35116 0.41903 0.0
H1035 H 0.72508 0.27966 0.44503 0.0
C1036 C 0.70858 0.24792 0.35188 0.0
C1037 C 0.70199 0.25604 0.3273 0.0
C1038 C 0.69548 0.28044 0.32227 0.0
C1039 C 0.69555 0.29636 0.34123 0.0
C1040 C 0.70232 0.28775 0.36517 0.0
C1041 C 0.70885 0.26413 0.37049 0.0
C1042 C 0.71643 0.25969 0.39757 0.0
C1043 C 0.69771 0.23736 0.40906 0.0
C1044 C 0.7447 0.25565 0.40198 0.0
C1045 C 0.71332 0.28456 0.40666 0.0
C1046 C 0.70492 0.30044 0.38778 0.0
C1047 C 0.70063 0.32444 0.39187 0.0
C1048 C 0.70528 0.33246 0.41584 0.0
C1049 C 0.71439 0.31663 0.43536 0.0
C1050 C 0.71828 0.29233 0.43055 0.0
H1051 H 0.5303 0.06061 0.93187 0.0
H1052 H 0.4623 0.01476 0.89693 0.0
H1053 H 0.49039 0.99633 0.87254 0.0
H1054 H 0.56619 0.07497 0.87958 0.0
H1055 H 0.59707 0.07325 0.89627 0.0
H1056 H 0.57151 0.08179 0.9114 0.0
H1057 H 0.57498 0.04518 0.94462 0.0
H1058 H 0.60049 0.03644 0.92949 0.0
H1059 H 0.57189 0.01335 0.93553 0.0
H1060 H 0.52633 0.98471 0.85041 0.0
H1061 H 0.56678 0.98116 0.83251 0.0
H1062 H 0.61077 0.03382 0.88327 0.0
C1063 C 0.52142 0.04664 0.9191 0.0
C1064 C 0.49425 0.03924 0.91601 0.0
C1065 C 0.48314 0.02079 0.89934 0.0
C1066 C 0.49893 0.01017 0.88552 0.0
C1067 C 0.52574 0.01802 0.88886 0.0
C1068 C 0.53687 0.03577 0.90534 0.0
C1069 C 0.56607 0.04144 0.9052 0.0
C1070 C 0.57577 0.06953 0.89765 0.0
C1071 C 0.57912 0.03363 0.93019 0.0
C1072 C 0.56966 0.02451 0.88573 0.0
C1073 C 0.54625 0.01102 0.87656 0.0
C1074 C 0.5448 0.995 0.85763 0.0
C1075 C 0.56786 0.99307 0.84759 0.0
C1076 C 0.59197 0.0071 0.85653 0.0
C1077 C 0.59274 0.02264 0.87612 0.0
H1078 H 0.26594 0.26431 0.38067 0.0
H1079 H 0.34815 0.27274 0.3711 0.0
H1080 H 0.3534 0.24422 0.40783 0.0
H1081 H 0.27477 0.2678 0.44528 0.0
H1082 H 0.24547 0.24559 0.45104 0.0
H1083 H 0.24763 0.26439 0.42241 0.0
H1084 H 0.23594 0.22349 0.399 0.0
H1085 H 0.23403 0.20454 0.42763 0.0
H1086 H 0.25528 0.19912 0.40563 0.0
H1087 H 0.35016 0.2156 0.44655 0.0
H1088 H 0.33961 0.19346 0.48659 0.0
H1089 H 0.26057 0.20661 0.47253 0.0
C1090 C 0.28512 0.26033 0.38623 0.0
C1091 C 0.30649 0.27062 0.37249 0.0
C1092 C 0.33118 0.26461 0.38065 0.0
C1093 C 0.33445 0.24847 0.40165 0.0
C1094 C 0.31296 0.23864 0.41461 0.0
C1095 C 0.28886 0.24462 0.4074 0.0
C1096 C 0.26937 0.23321 0.42562 0.0
C1097 C 0.2587 0.25398 0.43675 0.0
C1098 C 0.24735 0.21394 0.41375 0.0
C1099 C 0.2864 0.22024 0.4444 0.0
C1100 C 0.31136 0.22314 0.43749 0.0
C1101 C 0.33066 0.21315 0.45214 0.0
C1102 C 0.32446 0.20049 0.47479 0.0
C1103 C 0.2993 0.19834 0.4827 0.0
C1104 C 0.27998 0.20795 0.467 0.0
H1105 H 0.50662 0.53871 0.92771 0.0
H1106 H 0.51449 0.45979 0.9342 0.0
H1107 H 0.49098 0.45394 0.89329 0.0
H1108 H 0.44147 0.52883 0.89624 0.0
H1109 H 0.44771 0.55775 0.87703 0.0
H1110 H 0.46449 0.55556 0.90709 0.0
H1111 H 0.50865 0.56836 0.88817 0.0
H1112 H 0.49203 0.57068 0.8581 0.0
H1113 H 0.51579 0.55042 0.86431 0.0
H1114 H 0.46958 0.4575 0.85071 0.0
H1115 H 0.45012 0.4697 0.8098 0.0
H1116 H 0.45402 0.54584 0.83163 0.0
C1117 C 0.50336 0.52022 0.92047 0.0
C1118 C 0.51287 0.49982 0.93377 0.0
C1119 C 0.5078 0.47576 0.924 0.0
C1120 C 0.49438 0.47225 0.90088 0.0
C1121 C 0.4857 0.49287 0.88801 0.0
C1122 C 0.48977 0.51634 0.89751 0.0
C1123 C 0.47865 0.53542 0.87977 0.0
C1124 C 0.45678 0.54495 0.89069 0.0
C1125 C 0.50006 0.55752 0.87213 0.0
C1126 C 0.46815 0.51915 0.8586 0.0
C1127 C 0.47242 0.49466 0.86377 0.0
C1128 C 0.46582 0.47652 0.84657 0.0
C1129 C 0.45484 0.48364 0.82337 0.0
C1130 C 0.45034 0.50864 0.81763 0.0
C1131 C 0.45676 0.52647 0.83566 0.0
H1132 H 0.73235 0.78484 0.15553 0.0
H1133 H 0.73491 0.73873 0.22399 0.0
H1134 H 0.75124 0.70656 0.20337 0.0
H1135 H 0.71049 0.73296 0.11674 0.0
H1136 H 0.72948 0.74767 0.09208 0.0
H1137 H 0.71811 0.76697 0.11232 0.0
H1138 H 0.76527 0.79015 0.12247 0.0
H1139 H 0.77674 0.77104 0.10215 0.0
H1140 H 0.78991 0.77194 0.13364 0.0
H1141 H 0.76895 0.68015 0.17517 0.0
H1142 H 0.78544 0.66141 0.14165 0.0
H1143 H 0.76946 0.72439 0.09166 0.0
C1144 C 0.73656 0.76805 0.1662 0.0
C1145 C 0.73316 0.76462 0.19148 0.0
C1146 C 0.73809 0.74206 0.20473 0.0
C1147 C 0.74722 0.72363 0.19314 0.0
C1148 C 0.75079 0.72783 0.16822 0.0
C1149 C 0.74546 0.74944 0.1549 0.0
C1150 C 0.75074 0.74943 0.12834 0.0
C1151 C 0.72571 0.74924 0.11137 0.0
C1152 C 0.77192 0.77197 0.12125 0.0
C1153 C 0.7602 0.72459 0.12882 0.0
C1154 C 0.7601 0.71236 0.15195 0.0
C1155 C 0.7689 0.68948 0.15694 0.0
C1156 C 0.77822 0.67898 0.13781 0.0
C1157 C 0.77852 0.69131 0.11401 0.0
C1158 C 0.76915 0.71428 0.10955 0.0
H1159 H 0.95658 0.03904 0.07371 0.0
H1160 H 0.02603 0.00794 0.09699 0.0
H1161 H 0.01201 0.99952 0.13869 0.0
H1162 H 0.96015 0.07373 0.12356 0.0
H1163 H 0.92574 0.06965 0.12618 0.0
H1164 H 0.93762 0.06783 0.09694 0.0
H1165 H 0.90949 0.02324 0.09295 0.0
H1166 H 0.8973 0.025 0.12216 0.0
H1167 H 0.91238 0.99878 0.11699 0.0
H1168 H 0.99495 0.0012 0.17888 0.0
H1169 H 0.97571 0.012 0.21456 0.0
H1170 H 0.91807 0.04397 0.16635 0.0
C1171 C 0.96868 0.03003 0.08741 0.0
C1172 C 0.99248 0.02414 0.08181 0.0
C1173 C 0.00748 0.01218 0.10043 0.0
C1174 C 0.99974 0.00745 0.12433 0.0
C1175 C 0.97691 0.01472 0.12943 0.0
C1176 C 0.96146 0.02558 0.11147 0.0
C1177 C 0.93957 0.03443 0.12233 0.0
C1178 C 0.94087 0.06311 0.11693 0.0
C1179 C 0.91312 0.01946 0.11306 0.0
C1180 C 0.94582 0.02784 0.14934 0.0
C1181 C 0.96715 0.01604 0.15293 0.0
C1182 C 0.97788 0.00988 0.17628 0.0
C1183 C 0.96673 0.01612 0.19651 0.0
C1184 C 0.94506 0.02851 0.19337 0.0
C1185 C 0.93432 0.03412 0.1694 0.0
H1186 H 0.27288 0.76714 0.16343 0.0
H1187 H 0.29614 0.83573 0.20195 0.0
H1188 H 0.28439 0.86107 0.16439 0.0
H1189 H 0.29546 0.79474 0.1036 0.0
H1190 H 0.2684 0.77648 0.08655 0.0
H1191 H 0.28059 0.76394 0.1159 0.0
H1192 H 0.23468 0.7577 0.13121 0.0
H1193 H 0.22239 0.77035 0.10201 0.0
H1194 H 0.21828 0.78433 0.12967 0.0
H1195 H 0.26667 0.87839 0.12427 0.0
H1196 H 0.24572 0.88707 0.08313 0.0
H1197 H 0.23522 0.80746 0.06982 0.0
C1198 C 0.2761 0.78755 0.16369 0.0
C1199 C 0.286 0.79963 0.18532 0.0
C1200 C 0.28912 0.82626 0.18536 0.0
C1201 C 0.28246 0.84076 0.16417 0.0
C1202 C 0.27273 0.8283 0.14313 0.0
C1203 C 0.26975 0.80234 0.14262 0.0
C1204 C 0.25779 0.7936 0.1179 0.0
C1205 C 0.2767 0.78148 0.10524 0.0
C1206 C 0.23174 0.77543 0.12036 0.0
C1207 C 0.25399 0.81866 0.10482 0.0
C1208 C 0.26277 0.83841 0.11973 0.0
C1209 C 0.26005 0.86315 0.11228 0.0
C1210 C 0.24801 0.86786 0.08894 0.0
C1211 C 0.239 0.84795 0.0733 0.0
C1212 C 0.24225 0.82308 0.0813 0.0
H1213 H 0.04238 0.47416 0.1301 0.0
H1214 H 0.01644 0.5451 0.13713 0.0
H1215 H 0.04215 0.54952 0.17649 0.0
H1216 H 0.04848 0.45258 0.19344 0.0
H1217 H 0.07843 0.44163 0.19146 0.0
H1218 H 0.05539 0.44191 0.16502 0.0
H1219 H 0.09075 0.46942 0.13975 0.0
H1220 H 0.11396 0.46902 0.16601 0.0
H1221 H 0.10827 0.49877 0.15106 0.0
H1222 H 0.0703 0.54628 0.21574 0.0
H1223 H 0.10448 0.53932 0.24843 0.0
H1224 H 0.11805 0.4751 0.21257 0.0
C1225 C 0.04208 0.49089 0.13948 0.0
C1226 C 0.0264 0.50888 0.13013 0.0
C1227 C 0.02699 0.53022 0.14383 0.0
C1228 C 0.04188 0.53315 0.16631 0.0
C1229 C 0.05687 0.51506 0.17478 0.0
C1230 C 0.05762 0.49469 0.1615 0.0
C1231 C 0.07734 0.4793 0.17355 0.0
C1232 C 0.06411 0.45225 0.18133 0.0
C1233 C 0.09885 0.47913 0.15658 0.0
C1234 C 0.08759 0.49429 0.19566 0.0
C1235 C 0.07497 0.51446 0.19633 0.0
C1236 C 0.08045 0.53068 0.21532 0.0
C1237 C 0.09974 0.52651 0.23384 0.0
C1238 C 0.11373 0.50673 0.23289 0.0
C1239 C 0.10754 0.49036 0.21362 0.0
H1240 H 0.35612 0.70663 0.29676 0.0
H1241 H 0.35717 0.78562 0.27186 0.0
H1242 H 0.39334 0.79837 0.30224 0.0
H1243 H 0.36601 0.71915 0.36079 0.0
H1244 H 0.38533 0.69497 0.36886 0.0
H1245 H 0.36087 0.69145 0.3435 0.0
H1246 H 0.39542 0.68596 0.31492 0.0
H1247 H 0.42002 0.68954 0.34016 0.0
H1248 H 0.42413 0.70996 0.31257 0.0
H1249 H 0.43036 0.80293 0.33432 0.0
H1250 H 0.46256 0.79911 0.36971 0.0
H1251 H 0.43355 0.71838 0.37811 0.0
C1252 C 0.36367 0.72665 0.29767 0.0
C1253 C 0.35389 0.74491 0.28112 0.0
C1254 C 0.36475 0.77092 0.2833 0.0
C1255 C 0.38523 0.77851 0.3008 0.0
C1256 C 0.39434 0.76003 0.31659 0.0
C1257 C 0.38364 0.73469 0.31557 0.0
C1258 C 0.396 0.71888 0.33585 0.0
C1259 C 0.37585 0.70532 0.35328 0.0
C1260 C 0.40971 0.69997 0.32523 0.0
C1261 C 0.41538 0.73935 0.3483 0.0
C1262 C 0.41437 0.7629 0.33657 0.0
C1263 C 0.43115 0.78466 0.34387 0.0
C1264 C 0.44936 0.78234 0.36387 0.0
C1265 C 0.45014 0.75856 0.37658 0.0
C1266 C 0.43294 0.73681 0.36878 0.0
H1267 H 0.98675 0.43629 0.02392 0.0
H1268 H 0.05754 0.48205 0.99906 0.0
H1269 H 0.06148 0.44865 0.97214 0.0
H1270 H 0.00806 0.37744 0.02739 0.0
H1271 H 0.97683 0.35974 0.01723 0.0
H1272 H 0.9788 0.38803 0.03297 0.0
H1273 H 0.95153 0.40662 0.99654 0.0
H1274 H 0.94965 0.37842 0.98059 0.0
H1275 H 0.96224 0.40895 0.96613 0.0
H1276 H 0.05853 0.40926 0.94931 0.0
H1277 H 0.05031 0.3664 0.93416 0.0
H1278 H 0.98188 0.34644 0.97489 0.0
C1279 C 1.00315 0.43927 0.0129 0.0
C1280 C 0.02222 0.46153 0.01396 0.0
C1281 C 0.04302 0.46491 0.99881 0.0
C1282 C 0.04531 0.44613 0.98339 0.0
C1283 C 0.02647 0.42418 0.98317 0.0
C1284 C 0.00583 0.42067 0.99759 0.0
C1285 C 0.9889 0.3949 0.9949 0.0
C1286 C 0.98812 0.3791 0.01959 0.0
C1287 C 0.96146 0.39738 0.98388 0.0
C1288 C 0.00349 0.38426 0.97707 0.0
C1289 C 0.0249 0.40154 0.97023 0.0
C1290 C 0.04173 0.39563 0.95444 0.0
C1291 C 0.03685 0.37124 0.94587 0.0
C1292 C 0.01546 0.35297 0.95331 0.0
C1293 C 0.99838 0.3599 0.96876 0.0
H1294 H 0.70185 0.82717 0.3156 0.0
H1295 H 0.65169 0.81086 0.24944 0.0
H1296 H 0.61312 0.80731 0.27295 0.0
H1297 H 0.66414 0.78294 0.35498 0.0
H1298 H 0.6708 0.80239 0.38075 0.0
H1299 H 0.69396 0.8056 0.35819 0.0
H1300 H 0.69266 0.85352 0.35129 0.0
H1301 H 0.66931 0.8504 0.37373 0.0
H1302 H 0.66202 0.86359 0.34317 0.0
H1303 H 0.58025 0.80484 0.30419 0.0
H1304 H 0.55576 0.79888 0.34099 0.0
H1305 H 0.62802 0.81533 0.38671 0.0
C1306 C 0.68272 0.82318 0.30603 0.0
C1307 C 0.6796 0.81956 0.28072 0.0
C1308 C 0.65435 0.81373 0.26885 0.0
C1309 C 0.63243 0.81187 0.28201 0.0
C1310 C 0.6362 0.8157 0.30699 0.0
C1311 C 0.66074 0.82096 0.3189 0.0
C1312 C 0.65967 0.82242 0.34612 0.0
C1313 C 0.67292 0.80213 0.36087 0.0
C1314 C 0.67162 0.84907 0.35403 0.0
C1315 C 0.63065 0.81685 0.3478 0.0
C1316 C 0.61741 0.81345 0.32501 0.0
C1317 C 0.59042 0.80753 0.32211 0.0
C1318 C 0.57668 0.8043 0.34312 0.0
C1319 C 0.58999 0.80663 0.36674 0.0
C1320 C 0.61728 0.8135 0.36893 0.0
H1321 H 0.01706 0.09108 0.97999 0.0
H1322 H 0.0069 0.10835 0.05392 0.0
H1323 H 1.00207 0.15133 0.03877 0.0
H1324 H 0.05813 0.15028 0.96644 0.0
H1325 H 0.04619 0.15281 0.93464 0.0
H1326 H 0.04552 0.12212 0.9505 0.0
H1327 H 0.99613 0.11061 0.93854 0.0
H1328 H 0.99661 0.1414 0.92281 0.0
H1329 H 0.97494 0.13072 0.94653 0.0
H1330 H 0.99923 0.19257 0.01652 0.0
H1331 H 0.00458 0.23158 0.98948 0.0
H1332 H 0.02131 0.18985 0.93061 0.0
C1333 C 0.01385 0.1038 0.99308 0.0
C1334 C 0.01158 0.09573 0.01813 0.0
C1335 C 0.00754 0.11335 0.03448 0.0
C1336 C 0.00497 0.13803 0.0261 0.0
C1337 C 0.00704 0.14517 1.00139 0.0
C1338 C 0.01187 0.12881 0.98515 0.0
C1339 C 0.01571 0.14217 0.95999 0.0
C1340 C 0.04301 0.14183 0.95246 0.0
C1341 C 0.99459 0.13052 0.94084 0.0
C1342 C 0.0126 0.16865 0.96481 0.0
C1343 C 0.00703 0.16972 0.9887 0.0
C1344 C 0.00357 0.19203 0.99776 0.0
C1345 C 0.00656 0.21409 0.98218 0.0
C1346 C 0.01337 0.21378 0.95792 0.0
C1347 C 0.01602 0.19064 0.94904 0.0
H1348 H 0.3351 0.24883 0.25046 0.0
H1349 H 0.36969 0.3263 0.26448 0.0
H1350 H 0.40791 0.32244 0.24315 0.0
H1351 H 0.39521 0.22305 0.25654 0.0
H1352 H 0.3844 0.20262 0.23187 0.0
H1353 H 0.36112 0.21087 0.25023 0.0
H1354 H 0.33649 0.22779 0.21104 0.0
H1355 H 0.35962 0.21954 0.1926 0.0
H1356 H 0.35379 0.25155 0.19058 0.0
H1357 H 0.4415 0.31042 0.21832 0.0
H1358 H 0.46582 0.29231 0.19002 0.0
H1359 H 0.40828 0.22317 0.19194 0.0
C1360 C 0.35098 0.26479 0.24947 0.0
C1361 C 0.34986 0.28759 0.25976 0.0
C1362 C 0.37054 0.30843 0.2573 0.0
C1363 C 0.39228 0.3064 0.24522 0.0
C1364 C 0.3929 0.28351 0.23547 0.0
C1365 C 0.3727 0.26312 0.23739 0.0
C1366 C 0.37711 0.24124 0.22389 0.0
C1367 C 0.37962 0.21808 0.2417 0.0
C1368 C 0.35548 0.23466 0.20331 0.0
C1369 C 0.40272 0.2526 0.21368 0.0
C1370 C 0.41175 0.27687 0.22078 0.0
C1371 C 0.43468 0.29136 0.2128 0.0
C1372 C 0.4484 0.28091 0.19679 0.0
C1373 C 0.43896 0.25634 0.18877 0.0
C1374 C 0.41607 0.24198 0.19776 0.0
H1375 H 0.55735 0.41112 0.00529 0.0
H1376 H 0.5608 0.4559 0.06775 0.0
H1377 H 0.54705 0.41682 0.09385 0.0
H1378 H 0.50156 0.36425 0.01996 0.0
H1379 H 0.5142 0.33842 0.00987 0.0
H1380 H 0.52358 0.36995 0.99613 0.0
H1381 H 0.572 0.36725 0.00713 0.0
H1382 H 0.56276 0.33573 0.02094 0.0
H1383 H 0.58308 0.35978 0.03849 0.0
H1384 H 0.53199 0.37281 0.11279 0.0
H1385 H 0.51912 0.32704 0.12377 0.0
H1386 H 0.52764 0.31105 0.04923 0.0
C1387 C 0.555 0.41264 0.02443 0.0
C1388 C 0.55993 0.43643 0.03456 0.0
C1389 C 0.55713 0.43777 0.05973 0.0
C1390 C 0.54927 0.41573 0.07463 0.0
C1391 C 0.5446 0.39252 0.0641 0.0
C1392 C 0.54755 0.39082 0.03962 0.0
C1393 C 0.54214 0.36355 0.03299 0.0
C1394 C 0.51899 0.35877 0.01359 0.0
C1395 C 0.56644 0.35615 0.02439 0.0
C1396 C 0.53552 0.35016 0.05752 0.0
C1397 C 0.53686 0.36719 0.07519 0.0
C1398 C 0.53102 0.35928 0.09914 0.0
C1399 C 0.52367 0.33326 0.10518 0.0
C1400 C 0.52252 0.31544 0.08741 0.0
C1401 C 0.52859 0.32414 0.06331 0.0
H1402 H 0.63306 0.22691 0.26307 0.0
H1403 H 0.69651 0.22325 0.21938 0.0
H1404 H 0.66688 0.22355 0.18194 0.0
H1405 H 0.58294 0.18765 0.22737 0.0
H1406 H 0.55847 0.20625 0.23025 0.0
H1407 H 0.58447 0.20539 0.25398 0.0
H1408 H 0.59667 0.25429 0.24968 0.0
H1409 H 0.57064 0.25531 0.226 0.0
H1410 H 0.60332 0.27001 0.22009 0.0
H1411 H 0.63091 0.22389 0.14932 0.0
H1412 H 0.59085 0.2258 0.12294 0.0
H1413 H 0.55025 0.23083 0.18699 0.0
C1414 C 0.64079 0.22637 0.24563 0.0
C1415 C 0.66716 0.22475 0.24431 0.0
C1416 C 0.67634 0.2239 0.22104 0.0
C1417 C 0.65969 0.22425 0.1996 0.0
C1418 C 0.63387 0.22563 0.20158 0.0
C1419 C 0.62443 0.22685 0.22393 0.0
C1420 C 0.59583 0.22856 0.22074 0.0
C1421 C 0.57946 0.20559 0.23387 0.0
C1422 C 0.59136 0.25353 0.22965 0.0
C1423 C 0.59074 0.22807 0.19311 0.0
C1424 C 0.613 0.22628 0.18252 0.0
C1425 C 0.61335 0.22534 0.15736 0.0
C1426 C 0.59038 0.2264 0.14252 0.0
C1427 C 0.56723 0.22849 0.15278 0.0
C1428 C 0.56753 0.22926 0.17851 0.0
H1429 H 0.48486 0.09348 0.02002 0.0
H1430 H 0.40255 0.06529 0.02673 0.0
H1431 H 0.40257 0.0965 0.0565 0.0
H1432 H 0.50374 0.11046 0.0812 0.0
H1433 H 0.52485 0.13961 0.07257 0.0
H1434 H 0.51945 0.11357 0.0531 0.0
H1435 H 0.5043 0.14235 0.01653 0.0
H1436 H 0.50992 0.16855 0.0358 0.0
H1437 H 0.4785 0.15924 0.01974 0.0
H1438 H 0.4116 0.12933 0.08706 0.0
H1439 H 0.42711 0.16676 0.11095 0.0
H1440 H 0.50125 0.17843 0.07964 0.0
C1441 C 0.46662 0.09386 0.02732 0.0
C1442 C 0.44387 0.07601 0.02118 0.0
C1443 C 0.42066 0.07765 0.03166 0.0
C1444 C 0.42033 0.0956 0.04853 0.0
C1445 C 0.44312 0.11246 0.05431 0.0
C1446 C 0.46566 0.11225 0.04356 0.0
C1447 C 0.48693 0.13384 0.05161 0.0
C1448 C 0.51011 0.12376 0.06544 0.0
C1449 C 0.49541 0.15208 0.02961 0.0
C1450 C 0.47277 0.1461 0.06864 0.0
C1451 C 0.4477 0.13303 0.07033 0.0
C1452 C 0.43108 0.13991 0.08567 0.0
C1453 C 0.44011 0.16107 0.09927 0.0
C1454 C 0.46526 0.17546 0.09697 0.0
C1455 C 0.48185 0.16783 0.08153 0.0
H1456 H 0.27453 0.37099 0.71554 0.0
H1457 H 0.2425 0.38358 0.78258 0.0
H1458 H 0.27233 0.42403 0.78504 0.0
H1459 H 0.34012 0.39296 0.73878 0.0
H1460 H 0.35053 0.40669 0.70954 0.0
H1461 H 0.32424 0.38003 0.71089 0.0
H1462 H 0.29472 0.40558 0.68258 0.0
H1463 H 0.32087 0.43242 0.68131 0.0
H1464 H 0.29017 0.43584 0.69123 0.0
H1465 H 0.30542 0.46329 0.78072 0.0
H1466 H 0.34434 0.49555 0.77353 0.0
H1467 H 0.35947 0.45507 0.71315 0.0
C1468 C 0.27367 0.38201 0.73086 0.0
C1469 C 0.25517 0.37398 0.74836 0.0
C1470 C 0.25527 0.38944 0.76808 0.0
C1471 C 0.27244 0.41253 0.76987 0.0
C1472 C 0.29008 0.41982 0.75225 0.0
C1473 C 0.29129 0.4048 0.73345 0.0
C1474 C 0.3139 0.41597 0.71839 0.0
C1475 C 0.33335 0.39783 0.71948 0.0
C1476 C 0.30434 0.42286 0.6918 0.0
C1477 C 0.32522 0.43949 0.73184 0.0
C1478 C 0.31074 0.4416 0.75094 0.0
C1479 C 0.31702 0.46182 0.76589 0.0
C1480 C 0.33907 0.48011 0.76158 0.0
C1481 C 0.35492 0.47776 0.74284 0.0
C1482 C 0.34773 0.45727 0.72765 0.0
H1483 H 0.27919 0.688 0.74488 0.0
H1484 H 0.25565 0.66073 0.8172 0.0
H1485 H 0.28599 0.63045 0.82035 0.0
H1486 H 0.28726 0.62801 0.72483 0.0
H1487 H 0.31537 0.64175 0.70879 0.0
H1488 H 0.29101 0.6603 0.71209 0.0
H1489 H 0.32615 0.6946 0.73212 0.0
H1490 H 0.35059 0.67611 0.72897 0.0
H1491 H 0.3463 0.68578 0.75865 0.0
H1492 H 0.31945 0.60289 0.81519 0.0
H1493 H 0.35369 0.5819 0.80275 0.0
H1494 H 0.35583 0.62883 0.73453 0.0
C1495 C 0.28015 0.67536 0.76122 0.0
C1496 C 0.26445 0.67611 0.78043 0.0
C1497 C 0.26692 0.65994 0.80193 0.0
C1498 C 0.28419 0.64277 0.80392 0.0
C1499 C 0.29917 0.64231 0.78445 0.0
C1500 C 0.29736 0.65831 0.76356 0.0
C1501 C 0.31614 0.65481 0.74555 0.0
C1502 C 0.30157 0.64567 0.72139 0.0
C1503 C 0.33597 0.67928 0.74107 0.0
C1504 C 0.32884 0.63434 0.7595 0.0
C1505 C 0.31878 0.62722 0.78186 0.0
C1506 C 0.32748 0.60839 0.79774 0.0
C1507 C 0.34693 0.59657 0.79053 0.0
C1508 C 0.35758 0.60377 0.76774 0.0
C1509 C 0.34829 0.62295 0.75216 0.0
H1510 H 0.87891 0.5058 0.495 0.0
H1511 H 0.94015 0.46298 0.49068 0.0
H1512 H 0.90765 0.42357 0.48956 0.0
H1513 H 0.84117 0.45983 0.53492 0.0
H1514 H 0.81041 0.46557 0.52048 0.0
H1515 H 0.83844 0.49053 0.52027 0.0
H1516 H 0.83192 0.49596 0.47293 0.0
H1517 H 0.80398 0.47087 0.47297 0.0
H1518 H 0.83049 0.46906 0.45518 0.0
H1519 H 0.86902 0.38893 0.48952 0.0
H1520 H 0.82676 0.36066 0.49211 0.0
H1521 H 0.79008 0.42555 0.49704 0.0
C1522 C 0.88552 0.48811 0.49402 0.0
C1523 C 0.91212 0.48753 0.49281 0.0
C1524 C 0.91989 0.46399 0.49125 0.0
C1525 C 0.90157 0.44149 0.49069 0.0
C1526 C 0.87555 0.44279 0.49172 0.0
C1527 C 0.86749 0.46543 0.49346 0.0
C1528 C 0.83835 0.46144 0.49476 0.0
C1529 C 0.83171 0.46984 0.51905 0.0
C1530 C 0.82543 0.47515 0.47264 0.0
C1531 C 0.83133 0.43296 0.49363 0.0
C1532 C 0.85312 0.42266 0.49177 0.0
C1533 C 0.8518 0.39675 0.49093 0.0
C1534 C 0.82764 0.38085 0.49243 0.0
C1535 C 0.805 0.39083 0.49476 0.0
C1536 C 0.80692 0.41732 0.49504 0.0
H1537 H 0.75773 0.85198 0.78661 0.0
H1538 H 0.75948 0.84127 0.86613 0.0
H1539 H 0.72916 0.87052 0.86586 0.0
H1540 H 0.76267 0.91833 0.78614 0.0
H1541 H 0.74292 0.92086 0.75768 0.0
H1542 H 0.76117 0.89565 0.76355 0.0
H1543 H 0.71894 0.86286 0.75579 0.0
H1544 H 0.70049 0.88801 0.7502 0.0
H1545 H 0.69174 0.86286 0.7733 0.0
H1546 H 0.69959 0.90227 0.85744 0.0
H1547 H 0.67959 0.93919 0.84243 0.0
H1548 H 0.70243 0.93402 0.76959 0.0
C1549 C 0.75204 0.85567 0.80412 0.0
C1550 C 0.76096 0.84342 0.82634 0.0
C1551 C 0.75242 0.84917 0.84861 0.0
C1552 C 0.73521 0.86607 0.84874 0.0
C1553 C 0.727 0.87769 0.82656 0.0
C1554 C 0.73559 0.87315 0.80472 0.0
C1555 C 0.72648 0.89045 0.78382 0.0
C1556 C 0.74969 0.90732 0.77212 0.0
C1557 C 0.70833 0.87512 0.76465 0.0
C1558 C 0.71183 0.90575 0.79743 0.0
C1559 C 0.71168 0.89753 0.82194 0.0
C1560 C 0.69957 0.90887 0.83829 0.0
C1561 C 0.68811 0.92972 0.82955 0.0
C1562 C 0.68944 0.93943 0.80485 0.0
C1563 C 0.70103 0.92693 0.78854 0.0
H1564 H 0.60883 0.55109 0.00997 0.0
H1565 H 0.64549 0.48568 0.02909 0.0
H1566 H 0.68679 0.51388 0.04064 0.0
H1567 H 0.6635 0.59108 0.98379 0.0
H1568 H 0.65772 0.61949 0.99561 0.0
H1569 H 0.631 0.59413 0.98901 0.0
H1570 H 0.6182 0.59253 0.03353 0.0
H1571 H 0.64489 0.61788 0.04027 0.0
H1572 H 0.64194 0.58838 0.05874 0.0
H1573 H 0.72438 0.54924 0.04927 0.0
H1574 H 0.75521 0.5892 0.05549 0.0
H1575 H 0.69385 0.63152 0.03118 0.0
C1576 C 0.62558 0.54272 0.01649 0.0
C1577 C 0.62392 0.51618 0.01871 0.0
C1578 C 0.64622 0.50595 0.02755 0.0
C1579 C 0.66981 0.52181 0.03402 0.0
C1580 C 0.67078 0.54787 0.03163 0.0
C1581 C 0.64925 0.55827 0.02316 0.0
C1582 C 0.65545 0.5869 0.02248 0.0
C1583 C 0.6517 0.59858 0.99616 0.0
C1584 C 0.63916 0.59701 0.03979 0.0
C1585 C 0.68384 0.59096 0.03182 0.0
C1586 C 0.69234 0.56822 0.03691 0.0
C1587 C 0.71794 0.56717 0.04542 0.0
C1588 C 0.73532 0.58999 0.04887 0.0
C1589 C 0.727 0.61355 0.04392 0.0
C1590 C 0.70085 0.61388 0.0353 0.0
H1591 H 0.29575 0.66076 0.26158 0.0
H1592 H 0.23925 0.71039 0.2485 0.0
H1593 H 0.20409 0.67413 0.25677 0.0
H1594 H 0.25524 0.60665 0.23331 0.0
H1595 H 0.26691 0.58378 0.25531 0.0
H1596 H 0.28766 0.61354 0.24798 0.0
H1597 H 0.29428 0.62264 0.29392 0.0
H1598 H 0.27369 0.59286 0.30139 0.0
H1599 H 0.26634 0.62179 0.31069 0.0
H1600 H 0.17563 0.63334 0.26883 0.0
H1601 H 0.15529 0.59006 0.28284 0.0
H1602 H 0.22976 0.56618 0.28591 0.0
C1603 C 0.27595 0.6639 0.26048 0.0
C1604 C 0.27009 0.68827 0.25441 0.0
C1605 C 0.24401 0.69177 0.25295 0.0
C1606 C 0.22397 0.67133 0.25763 0.0
C1607 C 0.23034 0.64751 0.26347 0.0
C1608 C 0.25564 0.64362 0.26476 0.0
C1609 C 0.25717 0.61609 0.27155 0.0
C1610 C 0.26735 0.60433 0.2508 0.0
C1611 C 0.27385 0.61318 0.29583 0.0
C1612 C 0.22883 0.60522 0.2743 0.0
C1613 C 0.21371 0.6237 0.26959 0.0
C1614 C 0.18718 0.61862 0.27227 0.0
C1615 C 0.17582 0.59404 0.28026 0.0
C1616 C 0.19094 0.57483 0.28519 0.0
C1617 C 0.21769 0.58044 0.28181 0.0
H1618 H 0.9375 0.52618 0.1083 0.0
H1619 H 0.96002 0.53782 0.03364 0.0
H1620 H 0.92633 0.56369 0.02261 0.0
H1621 H 0.86818 0.52419 0.09366 0.0
H1622 H 0.86498 0.54146 0.11951 0.0
H1623 H 0.88944 0.52197 0.1212 0.0
H1624 H 0.9249 0.56049 0.1324 0.0
H1625 H 0.90057 0.58007 0.13078 0.0
H1626 H 0.92787 0.58906 0.1125 0.0
H1627 H 0.89177 0.59021 0.01995 0.0
H1628 H 0.85945 0.61624 0.02623 0.0
H1629 H 0.86032 0.58883 0.10287 0.0
C1630 C 0.93539 0.53411 0.08962 0.0
C1631 C 0.9514 0.52961 0.07182 0.0
C1632 C 0.94771 0.54035 0.04754 0.0
C1633 C 0.92868 0.55527 0.04108 0.0
C1634 C 0.91345 0.55945 0.05909 0.0
C1635 C 0.91659 0.54924 0.08287 0.0
C1636 C 0.89848 0.5577 0.09897 0.0
C1637 C 0.87912 0.53497 0.10892 0.0
C1638 C 0.91388 0.57272 0.11989 0.0
C1639 C 0.885 0.57456 0.08059 0.0
C1640 C 0.89376 0.57512 0.05765 0.0
C1641 C 0.88466 0.58983 0.03781 0.0
C1642 C 0.86628 0.60456 0.04157 0.0
C1643 C 0.85729 0.60462 0.06503 0.0
C1644 C 0.86668 0.58917 0.08468 0.0
H1645 H 0.04851 0.95637 0.0108 0.0
H1646 H 0.08726 0.02616 0.97533 0.0
H1647 H 0.12394 0.00532 0.9686 0.0
H1648 H 0.10513 0.93777 0.04206 0.0
H1649 H 0.09398 0.90452 0.0382 0.0
H1650 H 0.07087 0.92497 0.03943 0.0
H1651 H 0.04858 0.91068 0.99749 0.0
H1652 H 0.0717 0.89025 0.9961 0.0
H1653 H 0.06756 0.91381 0.97147 0.0
H1654 H 0.15692 0.97639 0.96672 0.0
H1655 H 0.18336 0.94254 0.97083 0.0
H1656 H 0.12188 0.89216 0.00701 0.0
C1657 C 0.06464 0.96716 1.00143 0.0
C1658 C 0.06501 0.99269 0.9932 0.0
C1659 C 0.08661 0.00643 0.98144 0.0
C1660 C 0.10744 0.99476 0.97755 0.0
C1661 C 0.10635 0.96938 0.98564 0.0
C1662 C 0.08547 0.9558 0.99736 0.0
C1663 C 0.08912 0.92899 0.00478 0.0
C1664 C 0.08983 0.92377 0.03277 0.0
C1665 C 0.06798 0.90981 0.99167 0.0
C1666 C 0.11538 0.92958 0.99558 0.0
C1667 C 0.12508 0.95296 0.98453 0.0
C1668 C 0.14942 0.95797 0.97524 0.0
C1669 C 0.16429 0.93864 0.97759 0.0
C1670 C 0.15471 0.91466 0.98916 0.0
C1671 C 0.1298 0.91019 0.99795 0.0
loop_
_geom_bond_atom_site_label_1
_geom_bond_atom_site_label_2
_geom_bond_distance
_geom_bond_site_symmetry_2
_ccdc_geom_bond_type
H0 C7 0.929 . S
H1 C10 0.930 . S
H2 C12 0.929 1_556 S
H3 C4 0.969 . S
C4 H3 0.969 . S
C4 O5 1.550 1_565 S
C4 H6 0.973 . S
O5 C4 1.550 1_545 S
O5 C11 1.412 . S
H6 C4 0.973 . S
C7 H0 0.929 . S
C7 C8 1.400 1_655 S
C7 C9 1.364 . S
C8 C7 1.400 1_455 S
C8 C12 1.377 . S
C9 C7 1.364 . S
C9 C10 1.374 1_655 S
C10 H1 0.930 . S
C10 C9 1.374 1_455 S
C10 C11 1.383 . S
C11 O5 1.412 . S
C11 C10 1.383 . S
C11 C12 1.394 . S
C12 H2 0.929 1_554 S
C12 C8 1.377 . S
C12 C11 1.394 . S
H13 C20 0.929 . S
H14 C23 0.930 . S
H15 C25 0.929 . S
H16 C17 0.969 . S
C17 H16 0.969 . S
C17 O18 1.550 . S
C17 H19 0.973 . S
O18 C17 1.550 . S
O18 C24 1.412 . S
H19 C17 0.973 . S
C20 H13 0.929 . S
C20 C21 1.400 . S
C20 C22 1.364 . S
C21 C20 1.400 . S
C21 C25 1.377 . S
C22 C20 1.364 . S
C22 C23 1.374 . S
C23 H14 0.930 . S
C23 C22 1.374 . S
C23 C24 1.383 . S
C24 O18 1.412 . S
C24 C23 1.383 . S
C24 C25 1.394 . S
C25 H15 0.929 . S
C25 C21 1.377 . S
C25 C24 1.394 . S
H26 C33 0.929 . S
H27 C36 0.930 . S
H28 C38 0.929 . S
H29 C30 0.969 . S
C30 H29 0.969 . S
C30 O31 1.550 . S
C30 H32 0.973 . S
O31 C30 1.550 . S
O31 C37 1.412 . S
H32 C30 0.973 . S
C33 H26 0.929 . S
C33 C34 1.400 . S
C33 C35 1.364 . S
C34 C33 1.400 . S
C34 C38 1.377 1_655 S
C35 C33 1.364 . S
C35 C36 1.374 . S
C36 H27 0.930 . S
C36 C35 1.374 . S
C36 C37 1.383 . S
C37 O31 1.412 . S
C37 C36 1.383 . S
C37 C38 1.394 1_655 S
C38 H28 0.929 . S
C38 C34 1.377 1_455 S
C38 C37 1.394 1_455 S
H39 C46 0.929 . S
H40 C49 0.930 . S
H41 C51 0.929 . S
H42 C43 0.969 . S
C43 H42 0.969 . S
C43 O44 1.550 . S
C43 H45 0.973 . S
O44 C43 1.550 . S
O44 C50 1.412 . S
H45 C43 0.973 . S
C46 H39 0.929 . S
C46 C47 1.400 . S
C46 C48 1.364 . S
C47 C46 1.400 . S
C47 C51 1.377 . S
C48 C46 1.364 . S
C48 C49 1.374 . S
C49 H40 0.930 . S
C49 C48 1.374 . S
C49 C50 1.383 . S
C50 O44 1.412 . S
C50 C49 1.383 . S
C50 C51 1.394 . S
C51 H41 0.929 . S
C51 C47 1.377 . S
C51 C50 1.394 . S
H52 C59 0.929 . S
H53 C62 0.930 . S
H54 C64 0.929 . S
H55 C56 0.969 . S
C56 H55 0.969 . S
C56 O57 1.550 . S
C56 H58 0.973 . S
O57 C56 1.550 . S
O57 C63 1.412 . S
H58 C56 0.973 . S
C59 H52 0.929 . S
C59 C60 1.400 . S
C59 C61 1.364 . S
C60 C59 1.400 . S
C60 C64 1.377 1_565 S
C61 C59 1.364 . S
C61 C62 1.374 . S
C62 H53 0.930 . S
C62 C61 1.374 . S
C62 C63 1.383 . S
C63 O57 1.412 . S
C63 C62 1.383 . S
C63 C64 1.394 1_565 S
C64 H54 0.929 . S
C64 C60 1.377 1_545 S
C64 C63 1.394 1_545 S
H65 C72 0.929 . S
H66 C75 0.930 . S
H67 C77 0.929 . S
H68 C69 0.969 . S
C69 H68 0.969 . S
C69 O70 1.550 . S
C69 H71 0.973 . S
O70 C69 1.550 . S
O70 C76 1.412 . S
H71 C69 0.973 . S
C72 H65 0.929 . S
C72 C73 1.400 . S
C72 C74 1.364 . S
C73 C72 1.400 . S
C73 C77 1.377 . S
C74 C72 1.364 . S
C74 C75 1.374 . S
C75 H66 0.930 . S
C75 C74 1.374 . S
C75 C76 1.383 . S
C76 O70 1.412 . S
C76 C75 1.383 . S
C76 C77 1.394 . S
C77 H67 0.929 . S
C77 C73 1.377 . S
C77 C76 1.394 . S
H78 C85 0.929 . S
H79 C88 0.930 . S
H80 C90 0.929 1_455 S
H81 C82 0.977 . S
C82 H81 0.977 . S
C82 O83 1.550 1_655 S
C82 H84 0.977 . S
O83 C82 1.550 1_455 S
O83 C89 1.412 1_455 S
H84 C82 0.977 . S
C85 H78 0.929 . S
C85 C86 1.400 . S
C85 C87 1.364 . S
C86 C85 1.400 . S
C86 C90 1.377 . S
C87 C85 1.364 . S
C87 C88 1.374 . S
C88 H79 0.930 . S
C88 C87 1.374 . S
C88 C89 1.383 . S
C89 O83 1.412 1_655 S
C89 C88 1.383 . S
C89 C90 1.394 . S
C90 H80 0.929 1_655 S
C90 C86 1.377 . S
C90 C89 1.394 . S
H91 C98 0.929 . S
H92 C101 0.930 . S
H93 C103 0.929 . S
H94 C95 0.969 . S
C95 H94 0.969 . S
C95 O96 1.550 . S
C95 H97 0.973 . S
O96 C95 1.550 . S
O96 C102 1.412 . S
H97 C95 0.973 . S
C98 H91 0.929 . S
C98 C99 1.400 . S
C98 C100 1.364 . S
C99 C98 1.400 . S
C99 C103 1.377 . S
C100 C98 1.364 . S
C100 C101 1.374 . S
C101 H92 0.930 . S
C101 C100 1.374 . S
C101 C102 1.383 . S
C102 O96 1.412 . S
C102 C101 1.383 . S
C102 C103 1.394 . S
C103 H93 0.929 . S
C103 C99 1.377 . S
C103 C102 1.394 . S
H104 C111 0.929 . S
H105 C114 0.930 . S
H106 C116 0.929 . S
H107 C108 0.969 . S
C108 H107 0.969 . S
C108 O109 1.550 . S
C108 H110 0.973 . S
O109 C108 1.550 . S
O109 C115 1.412 . S
H110 C108 0.973 . S
C111 H104 0.929 . S
C111 C112 1.400 . S
C111 C113 1.364 . S
C112 C111 1.400 . S
C112 C116 1.377 . S
C113 C111 1.364 . S
C113 C114 1.374 . S
C114 H105 0.930 . S
C114 C113 1.374 . S
C114 C115 1.383 . S
C115 O109 1.412 . S
C115 C114 1.383 . S
C115 C116 1.394 . S
C116 H106 0.929 . S
C116 C112 1.377 . S
C116 C115 1.394 . S
H117 C124 0.929 . S
H118 C127 0.930 . S
H119 C129 0.929 . S
H120 C121 0.969 . S
C121 H120 0.969 . S
C121 O122 1.550 . S
C121 H123 0.973 . S
O122 C121 1.550 . S
O122 C128 1.412 . S
H123 C121 0.973 . S
C124 H117 0.929 . S
C124 C125 1.400 . S
C124 C126 1.364 . S
C125 C124 1.400 . S
C125 C129 1.377 . S
C126 C124 1.364 . S
C126 C127 1.374 . S
C127 H118 0.930 . S
C127 C126 1.374 . S
C127 C128 1.383 . S
C128 O122 1.412 . S
C128 C127 1.383 . S
C128 C129 1.394 . S
C129 H119 0.929 . S
C129 C125 1.377 . S
C129 C128 1.394 . S
H130 C137 0.929 . S
H131 C140 0.930 . S
H132 C142 0.929 . S
H133 C134 0.969 . S
C134 H133 0.969 . S
C134 O135 1.550 . S
C134 H136 0.973 . S
O135 C134 1.550 . S
O135 C141 1.412 . S
H136 C134 0.973 . S
C137 H130 0.929 . S
C137 C138 1.400 . S
C137 C139 1.364 . S
C138 C137 1.400 . S
C138 C142 1.377 . S
C139 C137 1.364 . S
C139 C140 1.374 . S
C140 H131 0.930 . S
C140 C139 1.374 . S
C140 C141 1.383 . S
C141 O135 1.412 . S
C141 C140 1.383 . S
C141 C142 1.394 . S
C142 H132 0.929 . S
C142 C138 1.377 . S
C142 C141 1.394 . S
H143 C150 0.929 . S
H144 C153 0.930 . S
H145 C155 0.929 . S
H146 C147 0.969 . S
C147 H146 0.969 . S
C147 O148 1.550 . S
C147 H149 0.973 . S
O148 C147 1.550 . S
O148 C154 1.412 . S
H149 C147 0.973 . S
C150 H143 0.929 . S
C150 C151 1.400 . S
C150 C152 1.364 . S
C151 C150 1.400 . S
C151 C155 1.377 . S
C152 C150 1.364 . S
C152 C153 1.374 . S
C153 H144 0.930 . S
C153 C152 1.374 . S
C153 C154 1.383 . S
C154 O148 1.412 . S
C154 C153 1.383 . S
C154 C155 1.394 . S
C155 H145 0.929 . S
C155 C151 1.377 . S
C155 C154 1.394 . S
H156 C163 0.929 . S
H157 C166 0.930 . S
H158 C168 0.929 . S
H159 C160 0.969 . S
C160 H159 0.969 . S
C160 O161 1.550 . S
C160 H162 0.973 . S
O161 C160 1.550 . S
O161 C167 1.412 . S
H162 C160 0.973 . S
C163 H156 0.929 . S
C163 C164 1.400 . S
C163 C165 1.364 . S
C164 C163 1.400 . S
C164 C168 1.377 . S
C165 C163 1.364 . S
C165 C166 1.374 . S
C166 H157 0.930 . S
C166 C165 1.374 . S
C166 C167 1.383 . S
C167 O161 1.412 . S
C167 C166 1.383 . S
C167 C168 1.394 . S
C168 H158 0.929 . S
C168 C164 1.377 . S
C168 C167 1.394 . S
H169 C176 0.929 . S
H170 C179 0.930 . S
H171 C181 0.929 . S
H172 C173 0.969 . S
C173 H172 0.969 . S
C173 O174 1.550 . S
C173 H175 0.973 . S
O174 C173 1.550 . S
O174 C180 1.412 . S
H175 C173 0.973 . S
C176 H169 0.929 . S
C176 C177 1.400 1_554 S
C176 C178 1.364 1_554 S
C177 C176 1.400 1_556 S
C177 C181 1.377 . S
C178 C176 1.364 1_556 S
C178 C179 1.374 . S
C179 H170 0.930 . S
C179 C178 1.374 . S
C179 C180 1.383 . S
C180 O174 1.412 . S
C180 C179 1.383 . S
C180 C181 1.394 . S
C181 H171 0.929 . S
C181 C177 1.377 . S
C181 C180 1.394 . S
H182 C189 0.929 . S
H183 C192 0.930 . S
H184 C194 0.929 . S
H185 C186 0.969 . S
C186 H185 0.969 . S
C186 O187 1.550 . S
C186 H188 0.973 . S
O187 C186 1.550 . S
O187 C193 1.412 . S
H188 C186 0.973 . S
C189 H182 0.929 . S
C189 C190 1.400 . S
C189 C191 1.364 . S
C190 C189 1.400 . S
C190 C194 1.377 . S
C191 C189 1.364 . S
C191 C192 1.374 . S
C192 H183 0.930 . S
C192 C191 1.374 . S
C192 C193 1.383 . S
C193 O187 1.412 . S
C193 C192 1.383 . S
C193 C194 1.394 . S
C194 H184 0.929 . S
C194 C190 1.377 . S
C194 C193 1.394 . S
H195 C202 0.929 . S
H196 C205 0.930 . S
H197 C207 0.929 . S
H198 C199 0.969 . S
C199 H198 0.969 . S
C199 O200 1.550 . S
C199 H201 0.973 . S
O200 C199 1.550 . S
O200 C206 1.412 . S
H201 C199 0.973 . S
C202 H195 0.929 . S
C202 C203 1.400 . S
C202 C204 1.364 . S
C203 C202 1.400 . S
C203 C207 1.377 . S
C204 C202 1.364 . S
C204 C205 1.374 1_554 S
C205 H196 0.930 . S
C205 C204 1.374 1_556 S
C205 C206 1.383 . S
C206 O200 1.412 . S
C206 C205 1.383 . S
C206 C207 1.394 1_556 S
C207 H197 0.929 . S
C207 C203 1.377 . S
C207 C206 1.394 1_554 S
Mg208 O209 2.028 . S
Mg208 O215 1.986 1_554 S
Mg208 O217 2.114 . S
Mg208 O218 2.251 . S
Mg208 O221 2.010 . S
O209 Mg208 2.028 . S
O209 C212 1.254 . S
O210 Mg211 2.026 1_554 S
O210 C212 1.246 . S
Mg211 O210 2.026 1_556 S
Mg211 O216 2.045 . S
Mg211 O218 2.068 1_556 S
C212 O209 1.254 . S
C212 O210 1.246 . S
C213 O214 1.264 . S
C213 O221 1.249 . S
O214 C213 1.264 . S
O215 Mg208 1.986 1_556 S
O215 C219 1.246 . S
O216 Mg211 2.045 . S
O216 C219 1.259 . S
O217 Mg208 2.114 . S
O217 C220 1.252 . S
O218 Mg208 2.251 . S
O218 Mg211 2.068 1_554 S
O218 C220 1.273 . S
C219 O215 1.246 . S
C219 O216 1.259 . S
C220 O217 1.252 . S
C220 O218 1.273 . S
O221 Mg208 2.010 . S
O221 C213 1.249 . S
Mg222 O223 2.028 . S
Mg222 O229 1.986 . S
Mg222 O231 2.114 . S
Mg222 O232 2.251 . S
Mg222 O235 2.010 . S
O223 Mg222 2.028 . S
O223 C226 1.250 . S
O224 Mg225 2.028 . S
O224 C226 1.248 . S
Mg225 O224 2.028 . S
Mg225 O230 2.032 . S
Mg225 O232 2.079 . S
C226 O223 1.250 . S
C226 O224 1.248 . S
C227 O228 1.264 . S
C227 O235 1.249 . S
O228 C227 1.264 . S
O229 Mg222 1.986 . S
O229 C233 1.246 . S
O230 Mg225 2.032 . S
O230 C233 1.259 . S
O231 Mg222 2.114 . S
O231 C234 1.252 . S
O232 Mg222 2.251 . S
O232 Mg225 2.079 . S
O232 C234 1.273 . S
C233 O229 1.246 . S
C233 O230 1.259 . S
C234 O231 1.252 . S
C234 O232 1.273 . S
O235 Mg222 2.010 . S
O235 C227 1.249 . S
Mg236 O237 2.028 . S
Mg236 O243 1.986 . S
Mg236 O245 2.114 . S
Mg236 O246 2.251 . S
Mg236 O249 2.010 . S
O237 Mg236 2.028 . S
O237 C240 1.250 . S
O238 Mg239 2.028 . S
O238 C240 1.248 . S
Mg239 O238 2.028 . S
Mg239 O244 2.032 . S
Mg239 O246 2.079 . S
C240 O237 1.250 . S
C240 O238 1.248 . S
C241 O242 1.264 . S
C241 O249 1.249 . S
O242 C241 1.264 . S
O243 Mg236 1.986 . S
O243 C247 1.246 . S
O244 Mg239 2.032 . S
O244 C247 1.259 . S
O245 Mg236 2.114 . S
O245 C248 1.252 . S
O246 Mg236 2.251 . S
O246 Mg239 2.079 . S
O246 C248 1.273 . S
C247 O243 1.246 . S
C247 O244 1.259 . S
C248 O245 1.252 . S
C248 O246 1.273 . S
O249 Mg236 2.010 . S
O249 C241 1.249 . S
Mg250 O251 2.028 . S
Mg250 O257 1.986 . S
Mg250 O259 2.114 . S
Mg250 O260 2.251 . S
Mg250 O263 2.010 . S
O251 Mg250 2.028 . S
O251 C254 1.250 1_545 S
O252 Mg253 2.028 . S
O252 C254 1.248 . S
Mg253 O252 2.028 . S
Mg253 O258 2.032 1_565 S
Mg253 O260 2.079 1_565 S
C254 O251 1.250 1_565 S
C254 O252 1.248 . S
C255 O256 1.264 . S
C255 O263 1.249 . S
O256 C255 1.264 . S
O257 Mg250 1.986 . S
O257 C261 1.246 . S
O258 Mg253 2.032 1_545 S
O258 C261 1.259 . S
O259 Mg250 2.114 . S
O259 C262 1.252 . S
O260 Mg250 2.251 . S
O260 Mg253 2.079 1_545 S
O260 C262 1.273 . S
C261 O257 1.246 . S
C261 O258 1.259 . S
C262 O259 1.252 . S
C262 O260 1.273 . S
O263 Mg250 2.010 . S
O263 C255 1.249 . S
Mg264 O265 2.028 . S
Mg264 O271 1.986 . S
Mg264 O273 2.114 . S
Mg264 O274 2.251 . S
Mg264 O277 2.010 . S
O265 Mg264 2.028 . S
O265 C268 1.250 . S
O266 Mg267 2.028 . S
O266 C268 1.248 . S
Mg267 O266 2.028 . S
Mg267 O272 2.032 . S
Mg267 O274 2.079 . S
C268 O265 1.250 . S
C268 O266 1.248 . S
C269 O270 1.264 . S
C269 O277 1.249 . S
O270 C269 1.264 . S
O271 Mg264 1.986 . S
O271 C275 1.246 . S
O272 Mg267 2.032 . S
O272 C275 1.259 . S
O273 Mg264 2.114 . S
O273 C276 1.252 . S
O274 Mg264 2.251 . S
O274 Mg267 2.079 . S
O274 C276 1.273 . S
C275 O271 1.246 . S
C275 O272 1.259 . S
C276 O273 1.252 . S
C276 O274 1.273 . S
O277 Mg264 2.010 . S
O277 C269 1.249 . S
Mg278 O279 2.028 . S
Mg278 O285 1.986 . S
Mg278 O287 2.114 . S
Mg278 O288 2.251 . S
Mg278 O291 2.010 . S
O279 Mg278 2.028 . S
O279 C282 1.250 . S
O280 Mg281 2.028 . S
O280 C282 1.248 . S
Mg281 O280 2.028 . S
Mg281 O286 2.032 . S
Mg281 O288 2.079 . S
C282 O279 1.250 . S
C282 O280 1.248 . S
C283 O284 1.264 . S
C283 O291 1.249 . S
O284 C283 1.264 . S
O285 Mg278 1.986 . S
O285 C289 1.246 . S
O286 Mg281 2.032 . S
O286 C289 1.259 . S
O287 Mg278 2.114 . S
O287 C290 1.252 . S
O288 Mg278 2.251 . S
O288 Mg281 2.079 . S
O288 C290 1.273 . S
C289 O285 1.246 . S
C289 O286 1.259 . S
C290 O287 1.252 . S
C290 O288 1.273 . S
O291 Mg278 2.010 . S
O291 C283 1.249 . S
Mg292 O293 2.028 . S
Mg292 O299 1.986 . S
Mg292 O301 2.114 . S
Mg292 O302 2.251 . S
Mg292 O305 2.010 . S
O293 Mg292 2.028 . S
O293 C296 1.250 . S
O294 Mg295 2.028 . S
O294 C296 1.248 . S
Mg295 O294 2.028 . S
Mg295 O300 2.032 . S
Mg295 O302 2.079 . S
C296 O293 1.250 . S
C296 O294 1.248 . S
C297 O298 1.264 . S
C297 O305 1.249 . S
O298 C297 1.264 . S
O299 Mg292 1.986 . S
O299 C303 1.246 . S
O300 Mg295 2.032 . S
O300 C303 1.259 . S
O301 Mg292 2.114 . S
O301 C304 1.252 . S
O302 Mg292 2.251 . S
O302 Mg295 2.079 . S
O302 C304 1.273 . S
C303 O299 1.246 . S
C303 O300 1.259 . S
C304 O301 1.252 . S
C304 O302 1.273 . S
O305 Mg292 2.010 . S
O305 C297 1.249 . S
Mg306 O307 2.028 1_545 S
Mg306 O313 1.986 1_545 S
Mg306 O315 2.114 . S
Mg306 O316 2.251 . S
Mg306 O319 2.010 . S
O307 Mg306 2.028 1_565 S
O307 C310 1.250 . S
O308 Mg309 2.028 . S
O308 C310 1.248 . S
Mg309 O308 2.028 . S
Mg309 O314 2.032 . S
Mg309 O316 2.079 1_565 S
C310 O307 1.250 . S
C310 O308 1.248 . S
C311 O312 1.264 . S
C311 O319 1.249 . S
O312 C311 1.264 . S
O313 Mg306 1.986 1_565 S
O313 C317 1.246 . S
O314 Mg309 2.032 . S
O314 C317 1.259 . S
O315 Mg306 2.114 . S
O315 C318 1.252 . S
O316 Mg306 2.251 . S
O316 Mg309 2.079 1_545 S
O316 C318 1.273 . S
C317 O313 1.246 . S
C317 O314 1.259 . S
C318 O315 1.252 . S
C318 O316 1.273 . S
O319 Mg306 2.010 . S
O319 C311 1.249 . S
Mg320 O321 2.028 1_455 S
Mg320 O327 1.986 . S
Mg320 O329 2.114 . S
Mg320 O330 2.251 1_455 S
Mg320 O333 2.010 . S
O321 Mg320 2.028 1_655 S
O321 C324 1.250 . S
O322 Mg323 2.028 . S
O322 C324 1.248 . S
Mg323 O322 2.028 . S
Mg323 O328 2.032 . S
Mg323 O330 2.079 . S
C324 O321 1.250 . S
C324 O322 1.248 . S
C325 O326 1.264 . S
C325 O333 1.249 . S
O326 C325 1.264 . S
O327 Mg320 1.986 . S
O327 C331 1.215 1_455 S
O328 Mg323 2.032 . S
O328 C331 1.292 . S
O329 Mg320 2.114 . S
O329 C332 1.252 . S
O330 Mg320 2.251 1_655 S
O330 Mg323 2.079 . S
O330 C332 1.273 1_655 S
C331 O327 1.215 1_655 S
C331 O328 1.292 . S
C332 O329 1.252 . S
C332 O330 1.273 1_455 S
O333 Mg320 2.010 . S
O333 C325 1.249 . S
Mg334 O335 2.028 . S
Mg334 O341 1.986 . S
Mg334 O343 2.114 . S
Mg334 O344 2.251 . S
Mg334 O347 2.010 . S
O335 Mg334 2.028 . S
O335 C338 1.250 . S
O336 Mg337 2.028 . S
O336 C338 1.248 . S
Mg337 O336 2.028 . S
Mg337 O342 2.032 . S
Mg337 O344 2.079 . S
C338 O335 1.250 . S
C338 O336 1.248 . S
C339 O340 1.264 . S
C339 O347 1.249 . S
O340 C339 1.264 . S
O341 Mg334 1.986 . S
O341 C345 1.246 . S
O342 Mg337 2.032 . S
O342 C345 1.259 . S
O343 Mg334 2.114 . S
O343 C346 1.252 . S
O344 Mg334 2.251 . S
O344 Mg337 2.079 . S
O344 C346 1.273 . S
C345 O341 1.246 . S
C345 O342 1.259 . S
C346 O343 1.252 . S
C346 O344 1.273 . S
O347 Mg334 2.010 . S
O347 C339 1.249 . S
Mg348 O349 2.028 1_655 S
Mg348 O355 1.986 1_655 S
Mg348 O357 2.114 . S
Mg348 O358 2.251 1_655 S
Mg348 O361 2.010 . S
O349 Mg348 2.028 1_455 S
O349 C352 1.250 . S
O350 Mg351 2.028 . S
O350 C352 1.248 . S
Mg351 O350 2.028 . S
Mg351 O356 2.032 . S
Mg351 O358 2.079 . S
C352 O349 1.250 . S
C352 O350 1.248 . S
C353 O354 1.264 . S
C353 O361 1.249 . S
O354 C353 1.264 . S
O355 Mg348 1.986 1_455 S
O355 C359 1.246 . S
O356 Mg351 2.032 . S
O356 C359 1.259 . S
O357 Mg348 2.114 . S
O357 C360 1.252 . S
O358 Mg348 2.251 1_455 S
O358 Mg351 2.079 . S
O358 C360 1.273 1_455 S
C359 O355 1.246 . S
C359 O356 1.259 . S
C360 O357 1.252 . S
C360 O358 1.273 1_655 S
O361 Mg348 2.010 . S
O361 C353 1.249 . S
Mg362 O363 2.028 . S
Mg362 O369 1.986 . S
Mg362 O371 2.114 . S
Mg362 O372 2.251 . S
Mg362 O375 2.010 . S
O363 Mg362 2.028 . S
O363 C366 1.250 . S
O364 Mg365 2.028 . S
O364 C366 1.248 . S
Mg365 O364 2.028 . S
Mg365 O370 2.032 . S
Mg365 O372 2.079 . S
C366 O363 1.250 . S
C366 O364 1.248 . S
C367 O368 1.264 . S
C367 O375 1.249 . S
O368 C367 1.264 . S
O369 Mg362 1.986 . S
O369 C373 1.246 . S
O370 Mg365 2.032 . S
O370 C373 1.259 . S
O371 Mg362 2.114 . S
O371 C374 1.252 . S
O372 Mg362 2.251 . S
O372 Mg365 2.079 . S
O372 C374 1.273 . S
C373 O369 1.246 . S
C373 O370 1.259 . S
C374 O371 1.252 . S
C374 O372 1.273 . S
O375 Mg362 2.010 . S
O375 C367 1.249 . S
H376 C388 0.930 . S
H377 C390 0.930 . S
H378 C391 0.930 . S
H379 C395 0.959 . S
H380 C395 0.959 . S
H381 C395 0.961 . S
H382 C396 0.960 . S
H383 C396 0.961 . S
H384 C396 0.959 . S
H385 C399 0.929 . S
H386 C400 0.931 . S
H387 C402 0.930 . S
C388 H376 0.930 . S
C388 C389 1.399 . S
C388 C393 1.399 . S
C389 C388 1.399 . S
C389 C390 1.376 . S
C390 H377 0.930 . S
C390 C389 1.376 . S
C390 C391 1.388 . S
C391 H378 0.930 . S
C391 C390 1.388 . S
C391 C392 1.390 . S
C392 C391 1.390 . S
C392 C393 1.394 . S
C392 C398 1.465 . S
C393 C388 1.399 . S
C393 C392 1.394 . S
C393 C394 1.516 . S
C394 C393 1.516 . S
C394 C395 1.502 . S
C394 C396 1.561 . S
C394 C397 1.526 . S
C395 H379 0.959 . S
C395 H380 0.959 . S
C395 H381 0.961 . S
C395 C394 1.502 . S
C396 H382 0.960 . S
C396 H383 0.961 . S
C396 H384 0.959 . S
C396 C394 1.561 . S
C397 C394 1.526 . S
C397 C398 1.396 . S
C397 C402 1.390 . S
C398 C392 1.465 . S
C398 C397 1.396 . S
C398 C399 1.399 . S
C399 H385 0.929 . S
C399 C398 1.399 . S
C399 C400 1.385 . S
C400 H386 0.931 . S
C400 C399 1.385 . S
C400 C401 1.389 . S
C401 C400 1.389 . S
C401 C402 1.387 . S
C402 H387 0.930 . S
C402 C397 1.390 . S
C402 C401 1.387 . S
H403 C415 0.930 . S
H404 C417 0.930 . S
H405 C418 0.930 . S
H406 C422 0.959 . S
H407 C422 0.959 . S
H408 C422 0.961 . S
H409 C423 0.960 . S
H410 C423 0.961 . S
H411 C423 0.959 . S
H412 C426 0.929 . S
H413 C427 0.931 . S
H414 C429 0.930 . S
C415 H403 0.930 . S
C415 C416 1.399 . S
C415 C420 1.399 . S
C416 C415 1.399 . S
C416 C417 1.376 . S
C417 H404 0.930 . S
C417 C416 1.376 . S
C417 C418 1.388 . S
C418 H405 0.930 . S
C418 C417 1.388 . S
C418 C419 1.390 . S
C419 C418 1.390 . S
C419 C420 1.394 . S
C419 C425 1.465 . S
C420 C415 1.399 . S
C420 C419 1.394 . S
C420 C421 1.516 . S
C421 C420 1.516 . S
C421 C422 1.502 . S
C421 C423 1.561 . S
C421 C424 1.526 . S
C422 H406 0.959 . S
C422 H407 0.959 . S
C422 H408 0.961 . S
C422 C421 1.502 . S
C423 H409 0.960 . S
C423 H410 0.961 . S
C423 H411 0.959 . S
C423 C421 1.561 . S
C424 C421 1.526 . S
C424 C425 1.396 . S
C424 C429 1.390 . S
C425 C419 1.465 . S
C425 C424 1.396 . S
C425 C426 1.399 . S
C426 H412 0.929 . S
C426 C425 1.399 . S
C426 C427 1.385 . S
C427 H413 0.931 . S
C427 C426 1.385 . S
C427 C428 1.389 . S
C428 C427 1.389 . S
C428 C429 1.387 . S
C429 H414 0.930 . S
C429 C424 1.390 . S
C429 C428 1.387 . S
H430 C442 0.930 . S
H431 C444 0.930 . S
H432 C445 0.930 . S
H433 C449 0.959 . S
H434 C449 0.959 . S
H435 C449 0.961 . S
H436 C450 0.960 . S
H437 C450 0.961 . S
H438 C450 0.959 . S
H439 C453 0.929 . S
H440 C454 0.946 . S
H441 C456 0.930 . S
C442 H430 0.930 . S
C442 C443 1.399 . S
C442 C447 1.399 . S
C443 C442 1.399 . S
C443 C444 1.376 . S
C444 H431 0.930 . S
C444 C443 1.376 . S
C444 C445 1.388 . S
C445 H432 0.930 . S
C445 C444 1.388 . S
C445 C446 1.390 . S
C446 C445 1.390 . S
C446 C447 1.394 . S
C446 C452 1.465 . S
C447 C442 1.399 . S
C447 C446 1.394 . S
C447 C448 1.516 . S
C448 C447 1.516 . S
C448 C449 1.502 . S
C448 C450 1.561 . S
C448 C451 1.526 . S
C449 H433 0.959 . S
C449 H434 0.959 . S
C449 H435 0.961 . S
C449 C448 1.502 . S
C450 H436 0.960 . S
C450 H437 0.961 . S
C450 H438 0.959 . S
C450 C448 1.561 . S
C451 C448 1.526 . S
C451 C452 1.396 . S
C451 C456 1.390 . S
C452 C446 1.465 . S
C452 C451 1.396 . S
C452 C453 1.399 . S
C453 H439 0.929 . S
C453 C452 1.399 . S
C453 C454 1.385 . S
C454 H440 0.946 . S
C454 C453 1.385 . S
C454 C455 1.389 . S
C455 C454 1.389 . S
C455 C456 1.387 . S
C456 H441 0.930 . S
C456 C451 1.390 . S
C456 C455 1.387 . S
H457 C469 0.930 1_455 S
H458 C471 0.930 . S
H459 C472 0.930 . S
H460 C476 0.967 . S
H461 C476 0.959 . S
H462 C476 0.961 1_455 S
H463 C477 0.960 . S
H464 C477 0.961 . S
H465 C477 0.959 . S
H466 C480 0.929 . S
H467 C481 0.931 . S
H468 C483 0.930 1_565 S
C469 H457 0.930 1_655 S
C469 C470 1.399 1_655 S
C469 C474 1.399 . S
C470 C469 1.399 1_455 S
C470 C471 1.347 1_465 S
C471 H458 0.930 . S
C471 C470 1.347 1_645 S
C471 C472 1.388 . S
C472 H459 0.930 . S
C472 C471 1.388 . S
C472 C473 1.390 . S
C473 C472 1.390 . S
C473 C474 1.394 1_545 S
C473 C479 1.465 . S
C474 C469 1.399 . S
C474 C473 1.394 1_565 S
C474 C475 1.516 . S
C475 C474 1.516 . S
C475 C476 1.502 . S
C475 C477 1.561 . S
C475 C478 1.526 1_565 S
C476 H460 0.967 . S
C476 H461 0.959 . S
C476 H462 0.961 1_655 S
C476 C475 1.502 . S
C477 H463 0.960 . S
C477 H464 0.961 . S
C477 H465 0.959 . S
C477 C475 1.561 . S
C478 C475 1.526 1_545 S
C478 C479 1.396 . S
C478 C483 1.390 . S
C479 C473 1.465 . S
C479 C478 1.396 . S
C479 C480 1.399 . S
C480 H466 0.929 . S
C480 C479 1.399 . S
C480 C481 1.385 . S
C481 H467 0.931 . S
C481 C480 1.385 . S
C481 C482 1.389 . S
C482 C481 1.389 . S
C482 C483 1.387 . S
C483 H468 0.930 1_545 S
C483 C478 1.390 . S
C483 C482 1.387 . S
H484 C496 0.930 . S
H485 C498 0.930 . S
H486 C499 0.930 . S
H487 C503 0.959 . S
H488 C503 0.959 . S
H489 C503 0.961 . S
H490 C504 0.960 . S
H491 C504 0.961 . S
H492 C504 0.959 . S
H493 C507 0.929 . S
H494 C508 0.931 . S
H495 C510 0.930 . S
C496 H484 0.930 . S
C496 C497 1.399 . S
C496 C501 1.399 . S
C497 C496 1.399 . S
C497 C498 1.376 . S
C498 H485 0.930 . S
C498 C497 1.376 . S
C498 C499 1.388 . S
C499 H486 0.930 . S
C499 C498 1.388 . S
C499 C500 1.390 . S
C500 C499 1.390 . S
C500 C501 1.394 . S
C500 C506 1.465 . S
C501 C496 1.399 . S
C501 C500 1.394 . S
C501 C502 1.516 . S
C502 C501 1.516 . S
C502 C503 1.502 . S
C502 C504 1.561 . S
C502 C505 1.526 . S
C503 H487 0.959 . S
C503 H488 0.959 . S
C503 H489 0.961 . S
C503 C502 1.502 . S
C504 H490 0.960 . S
C504 H491 0.961 . S
C504 H492 0.959 . S
C504 C502 1.561 . S
C505 C502 1.526 . S
C505 C506 1.396 . S
C505 C510 1.390 . S
C506 C500 1.465 . S
C506 C505 1.396 . S
C506 C507 1.399 . S
C507 H493 0.929 . S
C507 C506 1.399 . S
C507 C508 1.385 . S
C508 H494 0.931 . S
C508 C507 1.385 . S
C508 C509 1.389 . S
C509 C508 1.389 . S
C509 C510 1.387 . S
C510 H495 0.930 . S
C510 C505 1.390 . S
C510 C509 1.387 . S
H511 C523 0.930 . S
H512 C525 0.930 . S
H513 C526 0.930 . S
H514 C530 0.959 . S
H515 C530 0.959 . S
H516 C530 0.961 . S
H517 C531 0.960 . S
H518 C531 0.961 . S
H519 C531 0.959 . S
H520 C534 0.929 . S
H521 C535 0.931 . S
H522 C537 0.930 . S
C523 H511 0.930 . S
C523 C524 1.399 . S
C523 C528 1.399 . S
C524 C523 1.399 . S
C524 C525 1.376 . S
C525 H512 0.930 . S
C525 C524 1.376 . S
C525 C526 1.388 . S
C526 H513 0.930 . S
C526 C525 1.388 . S
C526 C527 1.390 . S
C527 C526 1.390 . S
C527 C528 1.394 . S
C527 C533 1.465 . S
C528 C523 1.399 . S
C528 C527 1.394 . S
C528 C529 1.516 . S
C529 C528 1.516 . S
C529 C530 1.502 . S
C529 C531 1.561 . S
C529 C532 1.526 . S
C530 H514 0.959 . S
C530 H515 0.959 . S
C530 H516 0.961 . S
C530 C529 1.502 . S
C531 H517 0.960 . S
C531 H518 0.961 . S
C531 H519 0.959 . S
C531 C529 1.561 . S
C532 C529 1.526 . S
C532 C533 1.396 . S
C532 C537 1.390 . S
C533 C527 1.465 . S
C533 C532 1.396 . S
C533 C534 1.399 . S
C534 H520 0.929 . S
C534 C533 1.399 . S
C534 C535 1.385 . S
C535 H521 0.931 . S
C535 C534 1.385 . S
C535 C536 1.389 . S
C536 C535 1.389 . S
C536 C537 1.387 . S
C537 H522 0.930 . S
C537 C532 1.390 . S
C537 C536 1.387 . S
H538 C550 0.930 . S
H539 C552 0.930 . S
H540 C553 0.930 . S
H541 C557 0.959 . S
H542 C557 0.959 . S
H543 C557 0.961 . S
H544 C558 0.960 . S
H545 C558 0.961 . S
H546 C558 0.959 . S
H547 C561 0.929 . S
H548 C562 0.931 . S
H549 C564 0.930 . S
C550 H538 0.930 . S
C550 C551 1.399 . S
C550 C555 1.399 . S
C551 C550 1.399 . S
C551 C552 1.376 . S
C552 H539 0.930 . S
C552 C551 1.376 . S
C552 C553 1.388 . S
C553 H540 0.930 . S
C553 C552 1.388 . S
C553 C554 1.390 . S
C554 C553 1.390 . S
C554 C555 1.394 . S
C554 C560 1.465 . S
C555 C550 1.399 . S
C555 C554 1.394 . S
C555 C556 1.516 . S
C556 C555 1.516 . S
C556 C557 1.502 . S
C556 C558 1.561 . S
C556 C559 1.526 . S
C557 H541 0.959 . S
C557 H542 0.959 . S
C557 H543 0.961 . S
C557 C556 1.502 . S
C558 H544 0.960 . S
C558 H545 0.961 . S
C558 H546 0.959 . S
C558 C556 1.561 . S
C559 C556 1.526 . S
C559 C560 1.396 . S
C559 C564 1.390 . S
C560 C554 1.465 . S
C560 C559 1.396 . S
C560 C561 1.399 . S
C561 H547 0.929 . S
C561 C560 1.399 . S
C561 C562 1.385 . S
C562 H548 0.931 . S
C562 C561 1.385 . S
C562 C563 1.389 . S
C563 C562 1.389 . S
C563 C564 1.387 . S
C564 H549 0.930 . S
C564 C559 1.390 . S
C564 C563 1.387 . S
H565 C577 0.930 . S
H566 C579 0.930 1_545 S
H567 C580 0.930 . S
H568 C584 0.959 . S
H569 C584 0.959 . S
H570 C584 0.961 . S
H571 C585 0.960 . S
H572 C585 0.961 . S
H573 C585 0.959 . S
H574 C588 0.929 . S
H575 C589 0.931 . S
H576 C591 0.930 . S
C577 H565 0.930 . S
C577 C578 1.399 . S
C577 C582 1.399 . S
C578 C577 1.399 . S
C578 C579 1.376 . S
C579 H566 0.930 1_565 S
C579 C578 1.376 . S
C579 C580 1.388 1_565 S
C580 H567 0.930 . S
C580 C579 1.388 1_545 S
C580 C581 1.390 1_545 S
C581 C580 1.390 1_565 S
C581 C582 1.394 . S
C581 C587 1.465 . S
C582 C577 1.399 . S
C582 C581 1.394 . S
C582 C583 1.516 . S
C583 C582 1.516 . S
C583 C584 1.502 . S
C583 C585 1.561 . S
C583 C586 1.526 . S
C584 H568 0.959 . S
C584 H569 0.959 . S
C584 H570 0.961 . S
C584 C583 1.502 . S
C585 H571 0.960 . S
C585 H572 0.961 . S
C585 H573 0.959 . S
C585 C583 1.561 . S
C586 C583 1.526 . S
C586 C587 1.396 . S
C586 C591 1.390 . S
C587 C581 1.465 . S
C587 C586 1.396 . S
C587 C588 1.399 1_565 S
C588 H574 0.929 . S
C588 C587 1.399 1_545 S
C588 C589 1.385 . S
C589 H575 0.931 . S
C589 C588 1.385 . S
C589 C590 1.389 1_545 S
C590 C589 1.389 1_565 S
C590 C591 1.387 . S
C591 H576 0.930 . S
C591 C586 1.390 . S
C591 C590 1.387 . S
H592 C604 0.930 . S
H593 C606 0.930 . S
H594 C607 0.930 . S
H595 C611 0.959 . S
H596 C611 0.959 . S
H597 C611 0.961 . S
H598 C612 0.960 . S
H599 C612 0.961 . S
H600 C612 0.959 . S
H601 C615 0.929 . S
H602 C616 0.931 . S
H603 C618 0.930 . S
C604 H592 0.930 . S
C604 C605 1.399 . S
C604 C609 1.399 . S
C605 C604 1.399 . S
C605 C606 1.376 . S
C606 H593 0.930 . S
C606 C605 1.376 . S
C606 C607 1.388 . S
C607 H594 0.930 . S
C607 C606 1.388 . S
C607 C608 1.390 . S
C608 C607 1.390 . S
C608 C609 1.394 . S
C608 C614 1.465 . S
C609 C604 1.399 . S
C609 C608 1.394 . S
C609 C610 1.516 . S
C610 C609 1.516 . S
C610 C611 1.502 . S
C610 C612 1.561 . S
C610 C613 1.526 . S
C611 H595 0.959 . S
C611 H596 0.959 . S
C611 H597 0.961 . S
C611 C610 1.502 . S
C612 H598 0.960 . S
C612 H599 0.961 . S
C612 H600 0.959 . S
C612 C610 1.561 . S
C613 C610 1.526 . S
C613 C614 1.396 . S
C613 C618 1.390 . S
C614 C608 1.465 . S
C614 C613 1.396 . S
C614 C615 1.399 . S
C615 H601 0.929 . S
C615 C614 1.399 . S
C615 C616 1.385 . S
C616 H602 0.931 . S
C616 C615 1.385 . S
C616 C617 1.389 . S
C617 C616 1.389 . S
C617 C618 1.387 . S
C618 H603 0.930 . S
C618 C613 1.390 . S
C618 C617 1.387 . S
H619 C631 0.930 . S
H620 C633 0.930 . S
H621 C634 0.930 . S
H622 C638 0.959 . S
H623 C638 0.959 . S
H624 C638 0.961 . S
H625 C639 0.960 . S
H626 C639 0.961 . S
H627 C639 0.959 . S
H628 C642 0.929 . S
H629 C643 0.931 . S
H630 C645 0.930 . S
C631 H619 0.930 . S
C631 C632 1.399 . S
C631 C636 1.399 . S
C632 C631 1.399 . S
C632 C633 1.376 . S
C633 H620 0.930 . S
C633 C632 1.376 . S
C633 C634 1.388 . S
C634 H621 0.930 . S
C634 C633 1.388 . S
C634 C635 1.390 . S
C635 C634 1.390 . S
C635 C636 1.394 . S
C635 C641 1.465 . S
C636 C631 1.399 . S
C636 C635 1.394 . S
C636 C637 1.516 . S
C637 C636 1.516 . S
C637 C638 1.502 . S
C637 C639 1.561 . S
C637 C640 1.526 . S
C638 H622 0.959 . S
C638 H623 0.959 . S
C638 H624 0.961 . S
C638 C637 1.502 . S
C639 H625 0.960 . S
C639 H626 0.961 . S
C639 H627 0.959 . S
C639 C637 1.561 . S
C640 C637 1.526 . S
C640 C641 1.396 . S
C640 C645 1.390 . S
C641 C635 1.465 . S
C641 C640 1.396 . S
C641 C642 1.399 . S
C642 H628 0.929 . S
C642 C641 1.399 . S
C642 C643 1.385 . S
C643 H629 0.931 . S
C643 C642 1.385 . S
C643 C644 1.389 . S
C644 C643 1.389 . S
C644 C645 1.387 . S
C645 H630 0.930 . S
C645 C640 1.390 . S
C645 C644 1.387 . S
H646 C658 0.930 . S
H647 C660 0.930 . S
H648 C661 0.930 . S
H649 C665 0.959 . S
H650 C665 0.959 . S
H651 C665 0.961 . S
H652 C666 0.960 . S
H653 C666 0.961 . S
H654 C666 0.959 . S
H655 C669 0.929 . S
H656 C670 0.931 . S
H657 C672 0.930 . S
C658 H646 0.930 . S
C658 C659 1.399 . S
C658 C663 1.399 . S
C659 C658 1.399 . S
C659 C660 1.376 . S
C660 H647 0.930 . S
C660 C659 1.376 . S
C660 C661 1.388 . S
C661 H648 0.930 . S
C661 C660 1.388 . S
C661 C662 1.390 . S
C662 C661 1.390 . S
C662 C663 1.394 . S
C662 C668 1.465 . S
C663 C658 1.399 . S
C663 C662 1.394 . S
C663 C664 1.516 . S
C664 C663 1.516 . S
C664 C665 1.502 . S
C664 C666 1.561 . S
C664 C667 1.526 . S
C665 H649 0.959 . S
C665 H650 0.959 . S
C665 H651 0.961 . S
C665 C664 1.502 . S
C666 H652 0.960 . S
C666 H653 0.961 . S
C666 H654 0.959 . S
C666 C664 1.561 . S
C667 C664 1.526 . S
C667 C668 1.396 . S
C667 C672 1.390 . S
C668 C662 1.465 . S
C668 C667 1.396 . S
C668 C669 1.399 . S
C669 H655 0.929 . S
C669 C668 1.399 . S
C669 C670 1.385 . S
C670 H656 0.931 . S
C670 C669 1.385 . S
C670 C671 1.389 . S
C671 C670 1.389 . S
C671 C672 1.387 . S
C672 H657 0.930 . S
C672 C667 1.390 . S
C672 C671 1.387 . S
H673 C685 0.930 . S
H674 C687 0.930 . S
H675 C688 0.930 . S
H676 C692 0.959 . S
H677 C692 0.959 . S
H678 C692 0.961 . S
H679 C693 0.960 . S
H680 C693 0.961 . S
H681 C693 0.959 . S
H682 C696 0.929 . S
H683 C697 0.931 . S
H684 C699 0.930 . S
C685 H673 0.930 . S
C685 C686 1.399 . S
C685 C690 1.399 . S
C686 C685 1.399 . S
C686 C687 1.376 . S
C687 H674 0.930 . S
C687 C686 1.376 . S
C687 C688 1.388 . S
C688 H675 0.930 . S
C688 C687 1.388 . S
C688 C689 1.390 . S
C689 C688 1.390 . S
C689 C690 1.394 . S
C689 C695 1.465 . S
C690 C685 1.399 . S
C690 C689 1.394 . S
C690 C691 1.516 . S
C691 C690 1.516 . S
C691 C692 1.502 . S
C691 C693 1.561 . S
C691 C694 1.526 . S
C692 H676 0.959 . S
C692 H677 0.959 . S
C692 H678 0.961 . S
C692 C691 1.502 . S
C693 H679 0.960 . S
C693 H680 0.961 . S
C693 H681 0.959 . S
C693 C691 1.561 . S
C694 C691 1.526 . S
C694 C695 1.396 . S
C694 C699 1.390 . S
C695 C689 1.465 . S
C695 C694 1.396 . S
C695 C696 1.399 . S
C696 H682 0.929 . S
C696 C695 1.399 . S
C696 C697 1.385 . S
C697 H683 0.931 . S
C697 C696 1.385 . S
C697 C698 1.389 . S
C698 C697 1.389 . S
C698 C699 1.387 . S
C699 H684 0.930 . S
C699 C694 1.390 . S
C699 C698 1.387 . S
H700 C712 0.930 . S
H701 C714 0.930 . S
H702 C715 0.930 . S
H703 C719 0.959 . S
H704 C719 0.959 . S
H705 C719 0.961 . S
H706 C720 0.960 . S
H707 C720 0.961 . S
H708 C720 0.959 . S
H709 C723 0.929 . S
H710 C724 0.931 . S
H711 C726 0.930 . S
C712 H700 0.930 . S
C712 C713 1.399 . S
C712 C717 1.399 . S
C713 C712 1.399 . S
C713 C714 1.376 . S
C714 H701 0.930 . S
C714 C713 1.376 . S
C714 C715 1.388 . S
C715 H702 0.930 . S
C715 C714 1.388 . S
C715 C716 1.390 . S
C716 C715 1.390 . S
C716 C717 1.394 . S
C716 C722 1.465 . S
C717 C712 1.399 . S
C717 C716 1.394 . S
C717 C718 1.516 . S
C718 C717 1.516 . S
C718 C719 1.502 . S
C718 C720 1.561 . S
C718 C721 1.526 . S
C719 H703 0.959 . S
C719 H704 0.959 . S
C719 H705 0.961 . S
C719 C718 1.502 . S
C720 H706 0.960 . S
C720 H707 0.961 . S
C720 H708 0.959 . S
C720 C718 1.561 . S
C721 C718 1.526 . S
C721 C722 1.396 . S
C721 C726 1.390 . S
C722 C716 1.465 . S
C722 C721 1.396 . S
C722 C723 1.399 . S
C723 H709 0.929 . S
C723 C722 1.399 . S
C723 C724 1.385 . S
C724 H710 0.931 . S
C724 C723 1.385 . S
C724 C725 1.389 . S
C725 C724 1.389 . S
C725 C726 1.387 . S
C726 H711 0.930 . S
C726 C721 1.390 . S
C726 C725 1.387 . S
H727 C739 0.930 . S
H728 C741 0.930 . S
H729 C742 0.930 1_655 S
H730 C746 0.959 . S
H731 C746 0.959 . S
H732 C746 0.961 . S
H733 C747 0.960 . S
H734 C747 0.961 . S
H735 C747 0.959 . S
H736 C750 0.929 1_655 S
H737 C751 0.921 1_655 S
H738 C753 0.930 . S
C739 H727 0.930 . S
C739 C740 1.399 . S
C739 C744 1.399 . S
C740 C739 1.399 . S
C740 C741 1.376 . S
C741 H728 0.930 . S
C741 C740 1.376 . S
C741 C742 1.388 . S
C742 H729 0.930 1_455 S
C742 C741 1.388 . S
C742 C743 1.390 . S
C743 C742 1.390 . S
C743 C744 1.394 . S
C743 C749 1.465 . S
C744 C739 1.399 . S
C744 C743 1.394 . S
C744 C745 1.516 . S
C745 C744 1.516 . S
C745 C746 1.502 . S
C745 C747 1.561 . S
C745 C748 1.526 . S
C746 H730 0.959 . S
C746 H731 0.959 . S
C746 H732 0.961 . S
C746 C745 1.502 . S
C747 H733 0.960 . S
C747 H734 0.961 . S
C747 H735 0.959 . S
C747 C745 1.561 . S
C748 C745 1.526 . S
C748 C749 1.396 . S
C748 C753 1.390 . S
C749 C743 1.465 . S
C749 C748 1.396 . S
C749 C750 1.399 . S
C750 H736 0.929 1_455 S
C750 C749 1.399 . S
C750 C751 1.384 . S
C751 H737 0.921 1_455 S
C751 C750 1.384 . S
C751 C752 1.400 . S
C752 C751 1.400 . S
C752 C753 1.387 . S
C753 H738 0.930 . S
C753 C748 1.390 . S
C753 C752 1.387 . S
H754 C766 0.930 . S
H755 C768 0.930 . S
H756 C769 0.930 . S
H757 C773 0.959 . S
H758 C773 0.959 . S
H759 C773 0.961 . S
H760 C774 0.960 . S
H761 C774 0.961 . S
H762 C774 0.959 . S
H763 C777 0.929 . S
H764 C778 0.931 . S
H765 C780 0.930 . S
C766 H754 0.930 . S
C766 C767 1.399 . S
C766 C771 1.399 . S
C767 C766 1.399 . S
C767 C768 1.376 . S
C768 H755 0.930 . S
C768 C767 1.376 . S
C768 C769 1.388 . S
C769 H756 0.930 . S
C769 C768 1.388 . S
C769 C770 1.390 . S
C770 C769 1.390 . S
C770 C771 1.394 . S
C770 C776 1.465 . S
C771 C766 1.399 . S
C771 C770 1.394 . S
C771 C772 1.516 . S
C772 C771 1.516 . S
C772 C773 1.502 . S
C772 C774 1.561 . S
C772 C775 1.526 . S
C773 H757 0.959 . S
C773 H758 0.959 . S
C773 H759 0.961 . S
C773 C772 1.502 . S
C774 H760 0.960 . S
C774 H761 0.961 . S
C774 H762 0.959 . S
C774 C772 1.561 . S
C775 C772 1.526 . S
C775 C776 1.396 . S
C775 C780 1.390 . S
C776 C770 1.465 . S
C776 C775 1.396 . S
C776 C777 1.399 . S
C777 H763 0.929 . S
C777 C776 1.399 . S
C777 C778 1.385 . S
C778 H764 0.931 . S
C778 C777 1.385 . S
C778 C779 1.389 . S
C779 C778 1.389 . S
C779 C780 1.387 . S
C780 H765 0.930 . S
C780 C775 1.390 . S
C780 C779 1.387 . S
H781 C793 0.930 1_455 S
H782 C795 0.930 . S
H783 C796 0.930 . S
H784 C800 0.959 . S
H785 C800 0.959 . S
H786 C800 0.961 . S
H787 C801 0.960 . S
H788 C801 0.961 . S
H789 C801 0.959 . S
H790 C804 0.929 . S
H791 C805 0.931 . S
H792 C807 0.930 . S
C793 H781 0.930 1_655 S
C793 C794 1.399 . S
C793 C798 1.399 . S
C794 C793 1.399 . S
C794 C795 1.376 . S
C795 H782 0.930 . S
C795 C794 1.376 . S
C795 C796 1.388 . S
C796 H783 0.930 . S
C796 C795 1.388 . S
C796 C797 1.390 . S
C797 C796 1.390 . S
C797 C798 1.394 . S
C797 C803 1.465 . S
C798 C793 1.399 . S
C798 C797 1.394 . S
C798 C799 1.516 1_655 S
C799 C798 1.516 1_455 S
C799 C800 1.502 . S
C799 C801 1.561 . S
C799 C802 1.526 1_455 S
C800 H784 0.959 . S
C800 H785 0.959 . S
C800 H786 0.961 . S
C800 C799 1.502 . S
C801 H787 0.960 . S
C801 H788 0.961 . S
C801 H789 0.959 . S
C801 C799 1.561 . S
C802 C799 1.526 1_655 S
C802 C803 1.396 . S
C802 C807 1.390 1_655 S
C803 C797 1.465 . S
C803 C802 1.396 . S
C803 C804 1.399 . S
C804 H790 0.929 . S
C804 C803 1.399 . S
C804 C805 1.385 . S
C805 H791 0.931 . S
C805 C804 1.385 . S
C805 C806 1.389 . S
C806 C805 1.389 . S
C806 C807 1.387 1_655 S
C807 H792 0.930 . S
C807 C802 1.390 1_455 S
C807 C806 1.387 1_455 S
H808 C820 0.930 . S
H809 C822 0.930 . S
H810 C823 0.930 . S
H811 C827 0.959 . S
H812 C827 0.959 . S
H813 C827 0.961 . S
H814 C828 0.960 . S
H815 C828 0.961 . S
H816 C828 0.959 . S
H817 C831 0.929 . S
H818 C832 0.931 . S
H819 C834 0.930 . S
C820 H808 0.930 . S
C820 C821 1.399 . S
C820 C825 1.399 . S
C821 C820 1.399 . S
C821 C822 1.376 . S
C822 H809 0.930 . S
C822 C821 1.376 . S
C822 C823 1.388 . S
C823 H810 0.930 . S
C823 C822 1.388 . S
C823 C824 1.390 . S
C824 C823 1.390 . S
C824 C825 1.394 . S
C824 C830 1.465 . S
C825 C820 1.399 . S
C825 C824 1.394 . S
C825 C826 1.516 . S
C826 C825 1.516 . S
C826 C827 1.502 . S
C826 C828 1.561 . S
C826 C829 1.526 . S
C827 H811 0.959 . S
C827 H812 0.959 . S
C827 H813 0.961 . S
C827 C826 1.502 . S
C828 H814 0.960 . S
C828 H815 0.961 . S
C828 H816 0.959 . S
C828 C826 1.561 . S
C829 C826 1.526 . S
C829 C830 1.396 . S
C829 C834 1.390 . S
C830 C824 1.465 . S
C830 C829 1.396 . S
C830 C831 1.399 . S
C831 H817 0.929 . S
C831 C830 1.399 . S
C831 C832 1.385 . S
C832 H818 0.931 . S
C832 C831 1.385 . S
C832 C833 1.389 . S
C833 C832 1.389 . S
C833 C834 1.387 . S
C834 H819 0.930 . S
C834 C829 1.390 . S
C834 C833 1.387 . S
H835 C847 0.930 . S
H836 C849 0.930 . S
H837 C850 0.930 . S
H838 C854 0.959 . S
H839 C854 0.959 . S
H840 C854 0.961 . S
H841 C855 0.960 . S
H842 C855 0.961 . S
H843 C855 0.959 . S
H844 C858 0.929 . S
H845 C859 0.931 . S
H846 C861 0.930 . S
C847 H835 0.930 . S
C847 C848 1.399 . S
C847 C852 1.399 . S
C848 C847 1.399 . S
C848 C849 1.376 . S
C849 H836 0.930 . S
C849 C848 1.376 . S
C849 C850 1.388 . S
C850 H837 0.930 . S
C850 C849 1.388 . S
C850 C851 1.390 . S
C851 C850 1.390 . S
C851 C852 1.394 . S
C851 C857 1.465 . S
C852 C847 1.399 . S
C852 C851 1.394 . S
C852 C853 1.516 . S
C853 C852 1.516 . S
C853 C854 1.502 . S
C853 C855 1.561 . S
C853 C856 1.526 . S
C854 H838 0.959 . S
C854 H839 0.959 . S
C854 H840 0.961 . S
C854 C853 1.502 . S
C855 H841 0.960 . S
C855 H842 0.961 . S
C855 H843 0.959 . S
C855 C853 1.561 . S
C856 C853 1.526 . S
C856 C857 1.396 . S
C856 C861 1.390 . S
C857 C851 1.465 . S
C857 C856 1.396 . S
C857 C858 1.399 . S
C858 H844 0.929 . S
C858 C857 1.399 . S
C858 C859 1.385 . S
C859 H845 0.931 . S
C859 C858 1.385 . S
C859 C860 1.389 . S
C860 C859 1.389 . S
C860 C861 1.387 . S
C861 H846 0.930 . S
C861 C856 1.390 . S
C861 C860 1.387 . S
H862 C874 0.930 . S
H863 C876 0.930 . S
H864 C877 0.930 . S
H865 C881 0.959 1_545 S
H866 C881 0.959 . S
H867 C881 0.961 1_545 S
H868 C882 0.960 . S
H869 C882 0.961 . S
H870 C882 0.959 . S
H871 C885 0.929 . S
H872 C886 0.931 . S
H873 C888 0.930 . S
C874 H862 0.930 . S
C874 C875 1.399 1_556 S
C874 C879 1.399 1_545 S
C875 C874 1.399 1_554 S
C875 C876 1.376 . S
C876 H863 0.930 . S
C876 C875 1.376 . S
C876 C877 1.388 1_545 S
C877 H864 0.930 . S
C877 C876 1.388 1_565 S
C877 C878 1.390 . S
C878 C877 1.390 . S
C878 C879 1.394 1_554 S
C878 C884 1.465 . S
C879 C874 1.399 1_565 S
C879 C878 1.394 1_556 S
C879 C880 1.516 . S
C880 C879 1.516 . S
C880 C881 1.502 . S
C880 C882 1.561 . S
C880 C883 1.526 . S
C881 H865 0.959 1_565 S
C881 H866 0.959 . S
C881 H867 0.961 1_565 S
C881 C880 1.502 . S
C882 H868 0.960 . S
C882 H869 0.961 . S
C882 H870 0.959 . S
C882 C880 1.561 . S
C883 C880 1.526 . S
C883 C884 1.396 1_556 S
C883 C888 1.390 . S
C884 C878 1.465 . S
C884 C883 1.396 1_554 S
C884 C885 1.399 . S
C885 H871 0.929 . S
C885 C884 1.399 . S
C885 C886 1.385 . S
C886 H872 0.931 . S
C886 C885 1.385 . S
C886 C887 1.389 . S
C887 C886 1.389 . S
C887 C888 1.387 1_554 S
C888 H873 0.930 . S
C888 C883 1.390 . S
C888 C887 1.387 1_556 S
H889 C901 0.930 . S
H890 C903 0.930 . S
H891 C904 0.930 . S
H892 C908 0.959 . S
H893 C908 0.959 . S
H894 C908 0.961 . S
H895 C909 0.960 . S
H896 C909 0.961 . S
H897 C909 0.959 . S
H898 C912 0.929 . S
H899 C913 0.931 . S
H900 C915 0.930 . S
C901 H889 0.930 . S
C901 C902 1.399 . S
C901 C906 1.399 . S
C902 C901 1.399 . S
C902 C903 1.376 . S
C903 H890 0.930 . S
C903 C902 1.376 . S
C903 C904 1.388 . S
C904 H891 0.930 . S
C904 C903 1.388 . S
C904 C905 1.390 . S
C905 C904 1.390 . S
C905 C906 1.394 . S
C905 C911 1.465 . S
C906 C901 1.399 . S
C906 C905 1.394 . S
C906 C907 1.516 . S
C907 C906 1.516 . S
C907 C908 1.502 . S
C907 C909 1.561 . S
C907 C910 1.526 . S
C908 H892 0.959 . S
C908 H893 0.959 . S
C908 H894 0.961 . S
C908 C907 1.502 . S
C909 H895 0.960 . S
C909 H896 0.961 . S
C909 H897 0.959 . S
C909 C907 1.561 . S
C910 C907 1.526 . S
C910 C911 1.396 . S
C910 C915 1.390 . S
C911 C905 1.465 . S
C911 C910 1.396 . S
C911 C912 1.399 . S
C912 H898 0.929 . S
C912 C911 1.399 . S
C912 C913 1.385 . S
C913 H899 0.931 . S
C913 C912 1.385 . S
C913 C914 1.389 . S
C914 C913 1.389 . S
C914 C915 1.387 . S
C915 H900 0.930 . S
C915 C910 1.390 . S
C915 C914 1.387 . S
H916 C928 0.918 1_565 S
H917 C930 0.930 . S
H918 C931 0.930 . S
H919 C935 0.959 . S
H920 C935 0.959 . S
H921 C935 0.961 . S
H922 C936 0.960 1_565 S
H923 C936 0.961 . S
H924 C936 0.959 . S
H925 C939 0.929 . S
H926 C940 0.931 . S
H927 C942 0.930 . S
C928 H916 0.918 1_545 S
C928 C929 1.399 . S
C928 C933 1.399 . S
C929 C928 1.399 . S
C929 C930 1.376 . S
C930 H917 0.930 . S
C930 C929 1.376 . S
C930 C931 1.388 . S
C931 H918 0.930 . S
C931 C930 1.388 . S
C931 C932 1.390 . S
C932 C931 1.390 . S
C932 C933 1.394 . S
C932 C938 1.465 . S
C933 C928 1.399 . S
C933 C932 1.394 . S
C933 C934 1.516 . S
C934 C933 1.516 . S
C934 C935 1.502 . S
C934 C936 1.561 . S
C934 C937 1.526 . S
C935 H919 0.959 . S
C935 H920 0.959 . S
C935 H921 0.961 . S
C935 C934 1.502 . S
C936 H922 0.960 1_545 S
C936 H923 0.961 . S
C936 H924 0.959 . S
C936 C934 1.561 . S
C937 C934 1.526 . S
C937 C938 1.396 . S
C937 C942 1.390 . S
C938 C932 1.465 . S
C938 C937 1.396 . S
C938 C939 1.399 . S
C939 H925 0.929 . S
C939 C938 1.399 . S
C939 C940 1.385 . S
C940 H926 0.931 . S
C940 C939 1.385 . S
C940 C941 1.389 . S
C941 C940 1.389 . S
C941 C942 1.387 . S
C942 H927 0.930 . S
C942 C937 1.390 . S
C942 C941 1.387 . S
H943 C955 0.930 . S
H944 C957 0.930 . S
H945 C958 0.930 . S
H946 C962 0.959 . S
H947 C962 0.959 . S
H948 C962 0.961 . S
H949 C963 0.960 . S
H950 C963 0.961 . S
H951 C963 0.959 . S
H952 C966 0.929 . S
H953 C967 0.931 . S
H954 C969 0.930 . S
C955 H943 0.930 . S
C955 C956 1.399 . S
C955 C960 1.399 . S
C956 C955 1.399 . S
C956 C957 1.376 . S
C957 H944 0.930 . S
C957 C956 1.376 . S
C957 C958 1.388 . S
C958 H945 0.930 . S
C958 C957 1.388 . S
C958 C959 1.390 . S
C959 C958 1.390 . S
C959 C960 1.394 . S
C959 C965 1.465 . S
C960 C955 1.399 . S
C960 C959 1.394 . S
C960 C961 1.516 . S
C961 C960 1.516 . S
C961 C962 1.502 . S
C961 C963 1.561 . S
C961 C964 1.526 . S
C962 H946 0.959 . S
C962 H947 0.959 . S
C962 H948 0.961 . S
C962 C961 1.502 . S
C963 H949 0.960 . S
C963 H950 0.961 . S
C963 H951 0.959 . S
C963 C961 1.561 . S
C964 C961 1.526 . S
C964 C965 1.396 . S
C964 C969 1.390 . S
C965 C959 1.465 . S
C965 C964 1.396 . S
C965 C966 1.399 . S
C966 H952 0.929 . S
C966 C965 1.399 . S
C966 C967 1.385 . S
C967 H953 0.931 . S
C967 C966 1.385 . S
C967 C968 1.389 . S
C968 C967 1.389 . S
C968 C969 1.387 . S
C969 H954 0.930 . S
C969 C964 1.390 . S
C969 C968 1.387 . S
H970 C982 0.930 1_565 S
H971 C984 0.930 . S
H972 C985 0.930 . S
H973 C989 0.972 . S
H974 C989 0.959 . S
H975 C989 0.961 1_565 S
H976 C990 0.960 . S
H977 C990 0.961 . S
H978 C990 0.959 . S
H979 C993 0.929 . S
H980 C994 0.931 . S
H981 C996 0.930 . S
C982 H970 0.930 1_545 S
C982 C983 1.393 1_545 S
C982 C987 1.399 . S
C983 C982 1.393 1_565 S
C983 C984 1.368 1_565 S
C984 H971 0.930 . S
C984 C983 1.368 1_545 S
C984 C985 1.388 . S
C985 H972 0.930 . S
C985 C984 1.388 . S
C985 C986 1.390 . S
C986 C985 1.390 . S
C986 C987 1.394 . S
C986 C992 1.465 . S
C987 C982 1.399 . S
C987 C986 1.394 . S
C987 C988 1.516 . S
C988 C987 1.516 . S
C988 C989 1.502 . S
C988 C990 1.561 . S
C988 C991 1.526 . S
C989 H973 0.972 . S
C989 H974 0.959 . S
C989 H975 0.961 1_545 S
C989 C988 1.502 . S
C990 H976 0.960 . S
C990 H977 0.961 . S
C990 H978 0.959 . S
C990 C988 1.561 . S
C991 C988 1.526 . S
C991 C992 1.396 . S
C991 C996 1.390 . S
C992 C986 1.465 . S
C992 C991 1.396 . S
C992 C993 1.399 . S
C993 H979 0.929 . S
C993 C992 1.399 . S
C993 C994 1.385 . S
C994 H980 0.931 . S
C994 C993 1.385 . S
C994 C995 1.389 . S
C995 C994 1.389 . S
C995 C996 1.387 . S
C996 H981 0.930 . S
C996 C991 1.390 . S
C996 C995 1.387 . S
H997 C1009 0.930 . S
H998 C1011 0.930 . S
H999 C1012 0.930 . S
H1000 C1016 0.959 . S
H1001 C1016 0.959 . S
H1002 C1016 0.961 . S
H1003 C1017 0.960 . S
H1004 C1017 0.961 . S
H1005 C1017 0.959 . S
H1006 C1020 0.929 . S
H1007 C1021 0.931 . S
H1008 C1023 0.930 . S
C1009 H997 0.930 . S
C1009 C1010 1.399 . S
C1009 C1014 1.399 . S
C1010 C1009 1.399 . S
C1010 C1011 1.376 . S
C1011 H998 0.930 . S
C1011 C1010 1.376 . S
C1011 C1012 1.388 . S
C1012 H999 0.930 . S
C1012 C1011 1.388 . S
C1012 C1013 1.390 . S
C1013 C1012 1.390 . S
C1013 C1014 1.394 . S
C1013 C1019 1.465 . S
C1014 C1009 1.399 . S
C1014 C1013 1.394 . S
C1014 C1015 1.516 . S
C1015 C1014 1.516 . S
C1015 C1016 1.502 . S
C1015 C1017 1.561 . S
C1015 C1018 1.526 . S
C1016 H1000 0.959 . S
C1016 H1001 0.959 . S
C1016 H1002 0.961 . S
C1016 C1015 1.502 . S
C1017 H1003 0.960 . S
C1017 H1004 0.961 . S
C1017 H1005 0.959 . S
C1017 C1015 1.561 . S
C1018 C1015 1.526 . S
C1018 C1019 1.396 . S
C1018 C1023 1.390 . S
C1019 C1013 1.465 . S
C1019 C1018 1.396 . S
C1019 C1020 1.399 . S
C1020 H1006 0.929 . S
C1020 C1019 1.399 . S
C1020 C1021 1.385 . S
C1021 H1007 0.931 . S
C1021 C1020 1.385 . S
C1021 C1022 1.389 . S
C1022 C1021 1.389 . S
C1022 C1023 1.387 . S
C1023 H1008 0.930 . S
C1023 C1018 1.390 . S
C1023 C1022 1.387 . S
H1024 C1036 0.930 . S
H1025 C1038 0.930 . S
H1026 C1039 0.930 . S
H1027 C1043 0.959 . S
H1028 C1043 0.959 . S
H1029 C1043 0.961 . S
H1030 C1044 0.960 . S
H1031 C1044 0.961 . S
H1032 C1044 0.959 . S
H1033 C1047 0.929 . S
H1034 C1048 0.931 . S
H1035 C1050 0.930 . S
C1036 H1024 0.930 . S
C1036 C1037 1.399 . S
C1036 C1041 1.399 . S
C1037 C1036 1.399 . S
C1037 C1038 1.376 . S
C1038 H1025 0.930 . S
C1038 C1037 1.376 . S
C1038 C1039 1.388 . S
C1039 H1026 0.930 . S
C1039 C1038 1.388 . S
C1039 C1040 1.390 . S
C1040 C1039 1.390 . S
C1040 C1041 1.394 . S
C1040 C1046 1.465 . S
C1041 C1036 1.399 . S
C1041 C1040 1.394 . S
C1041 C1042 1.516 . S
C1042 C1041 1.516 . S
C1042 C1043 1.502 . S
C1042 C1044 1.561 . S
C1042 C1045 1.526 . S
C1043 H1027 0.959 . S
C1043 H1028 0.959 . S
C1043 H1029 0.961 . S
C1043 C1042 1.502 . S
C1044 H1030 0.960 . S
C1044 H1031 0.961 . S
C1044 H1032 0.959 . S
C1044 C1042 1.561 . S
C1045 C1042 1.526 . S
C1045 C1046 1.396 . S
C1045 C1050 1.390 . S
C1046 C1040 1.465 . S
C1046 C1045 1.396 . S
C1046 C1047 1.399 . S
C1047 H1033 0.929 . S
C1047 C1046 1.399 . S
C1047 C1048 1.385 . S
C1048 H1034 0.931 . S
C1048 C1047 1.385 . S
C1048 C1049 1.389 . S
C1049 C1048 1.389 . S
C1049 C1050 1.387 . S
C1050 H1035 0.930 . S
C1050 C1045 1.390 . S
C1050 C1049 1.387 . S
H1051 C1063 0.930 . S
H1052 C1065 0.930 . S
H1053 C1066 0.930 . S
H1054 C1070 0.959 1_545 S
H1055 C1070 0.959 . S
H1056 C1070 0.961 . S
H1057 C1071 0.960 . S
H1058 C1071 0.961 . S
H1059 C1071 0.959 . S
H1060 C1074 0.929 . S
H1061 C1075 0.931 . S
H1062 C1077 0.930 . S
C1063 H1051 0.930 . S
C1063 C1064 1.399 . S
C1063 C1068 1.399 . S
C1064 C1063 1.399 . S
C1064 C1065 1.376 . S
C1065 H1052 0.930 . S
C1065 C1064 1.376 . S
C1065 C1066 1.388 . S
C1066 H1053 0.930 . S
C1066 C1065 1.388 . S
C1066 C1067 1.390 . S
C1067 C1066 1.390 . S
C1067 C1068 1.394 . S
C1067 C1073 1.465 . S
C1068 C1063 1.399 . S
C1068 C1067 1.394 . S
C1068 C1069 1.516 1_545 S
C1069 C1068 1.516 1_565 S
C1069 C1070 1.502 . S
C1069 C1071 1.561 . S
C1069 C1072 1.526 1_565 S
C1070 H1054 0.959 1_565 S
C1070 H1055 0.959 . S
C1070 H1056 0.961 . S
C1070 C1069 1.502 . S
C1071 H1057 0.960 . S
C1071 H1058 0.961 . S
C1071 H1059 0.959 . S
C1071 C1069 1.561 . S
C1072 C1069 1.526 1_545 S
C1072 C1073 1.396 . S
C1072 C1077 1.390 1_545 S
C1073 C1067 1.465 . S
C1073 C1072 1.396 . S
C1073 C1074 1.399 . S
C1074 H1060 0.929 . S
C1074 C1073 1.399 . S
C1074 C1075 1.385 . S
C1075 H1061 0.931 . S
C1075 C1074 1.385 . S
C1075 C1076 1.389 . S
C1076 C1075 1.389 . S
C1076 C1077 1.387 1_545 S
C1077 H1062 0.930 . S
C1077 C1072 1.390 1_565 S
C1077 C1076 1.387 1_565 S
H1078 C1090 0.930 . S
H1079 C1092 0.930 . S
H1080 C1093 0.930 . S
H1081 C1097 0.959 . S
H1082 C1097 0.959 . S
H1083 C1097 0.961 . S
H1084 C1098 0.960 . S
H1085 C1098 0.961 . S
H1086 C1098 0.959 . S
H1087 C1101 0.929 . S
H1088 C1102 0.931 . S
H1089 C1104 0.930 . S
C1090 H1078 0.930 . S
C1090 C1091 1.399 . S
C1090 C1095 1.399 . S
C1091 C1090 1.399 . S
C1091 C1092 1.376 . S
C1092 H1079 0.930 . S
C1092 C1091 1.376 . S
C1092 C1093 1.388 . S
C1093 H1080 0.930 . S
C1093 C1092 1.388 . S
C1093 C1094 1.390 . S
C1094 C1093 1.390 . S
C1094 C1095 1.394 . S
C1094 C1100 1.465 . S
C1095 C1090 1.399 . S
C1095 C1094 1.394 . S
C1095 C1096 1.516 . S
C1096 C1095 1.516 . S
C1096 C1097 1.502 . S
C1096 C1098 1.561 . S
C1096 C1099 1.526 . S
C1097 H1081 0.959 . S
C1097 H1082 0.959 . S
C1097 H1083 0.961 . S
C1097 C1096 1.502 . S
C1098 H1084 0.960 . S
C1098 H1085 0.961 . S
C1098 H1086 0.959 . S
C1098 C1096 1.561 . S
C1099 C1096 1.526 . S
C1099 C1100 1.396 . S
C1099 C1104 1.390 . S
C1100 C1094 1.465 . S
C1100 C1099 1.396 . S
C1100 C1101 1.399 . S
C1101 H1087 0.929 . S
C1101 C1100 1.399 . S
C1101 C1102 1.385 . S
C1102 H1088 0.931 . S
C1102 C1101 1.385 . S
C1102 C1103 1.389 . S
C1103 C1102 1.389 . S
C1103 C1104 1.387 . S
C1104 H1089 0.930 . S
C1104 C1099 1.390 . S
C1104 C1103 1.387 . S
H1105 C1117 0.930 . S
H1106 C1119 0.930 . S
H1107 C1120 0.930 . S
H1108 C1124 0.959 . S
H1109 C1124 0.959 . S
H1110 C1124 0.961 . S
H1111 C1125 0.960 . S
H1112 C1125 0.961 . S
H1113 C1125 0.959 . S
H1114 C1128 0.929 . S
H1115 C1129 0.931 . S
H1116 C1131 0.930 . S
C1117 H1105 0.930 . S
C1117 C1118 1.399 . S
C1117 C1122 1.399 . S
C1118 C1117 1.399 . S
C1118 C1119 1.376 . S
C1119 H1106 0.930 . S
C1119 C1118 1.376 . S
C1119 C1120 1.388 . S
C1120 H1107 0.930 . S
C1120 C1119 1.388 . S
C1120 C1121 1.390 . S
C1121 C1120 1.390 . S
C1121 C1122 1.394 . S
C1121 C1127 1.465 . S
C1122 C1117 1.399 . S
C1122 C1121 1.394 . S
C1122 C1123 1.516 . S
C1123 C1122 1.516 . S
C1123 C1124 1.502 . S
C1123 C1125 1.561 . S
C1123 C1126 1.526 . S
C1124 H1108 0.959 . S
C1124 H1109 0.959 . S
C1124 H1110 0.961 . S
C1124 C1123 1.502 . S
C1125 H1111 0.960 . S
C1125 H1112 0.961 . S
C1125 H1113 0.959 . S
C1125 C1123 1.561 . S
C1126 C1123 1.526 . S
C1126 C1127 1.396 . S
C1126 C1131 1.390 . S
C1127 C1121 1.465 . S
C1127 C1126 1.396 . S
C1127 C1128 1.399 . S
C1128 H1114 0.929 . S
C1128 C1127 1.399 . S
C1128 C1129 1.385 . S
C1129 H1115 0.931 . S
C1129 C1128 1.385 . S
C1129 C1130 1.389 . S
C1130 C1129 1.389 . S
C1130 C1131 1.387 . S
C1131 H1116 0.930 . S
C1131 C1126 1.390 . S
C1131 C1130 1.387 . S
H1132 C1144 0.930 . S
H1133 C1146 0.930 . S
H1134 C1147 0.930 . S
H1135 C1151 0.959 . S
H1136 C1151 0.959 . S
H1137 C1151 0.961 . S
H1138 C1152 0.960 . S
H1139 C1152 0.961 . S
H1140 C1152 0.959 . S
H1141 C1155 0.929 . S
H1142 C1156 0.931 . S
H1143 C1158 0.930 . S
C1144 H1132 0.930 . S
C1144 C1145 1.399 . S
C1144 C1149 1.399 . S
C1145 C1144 1.399 . S
C1145 C1146 1.376 . S
C1146 H1133 0.930 . S
C1146 C1145 1.376 . S
C1146 C1147 1.388 . S
C1147 H1134 0.930 . S
C1147 C1146 1.388 . S
C1147 C1148 1.390 . S
C1148 C1147 1.390 . S
C1148 C1149 1.394 . S
C1148 C1154 1.465 . S
C1149 C1144 1.399 . S
C1149 C1148 1.394 . S
C1149 C1150 1.516 . S
C1150 C1149 1.516 . S
C1150 C1151 1.502 . S
C1150 C1152 1.561 . S
C1150 C1153 1.526 . S
C1151 H1135 0.959 . S
C1151 H1136 0.959 . S
C1151 H1137 0.961 . S
C1151 C1150 1.502 . S
C1152 H1138 0.960 . S
C1152 H1139 0.961 . S
C1152 H1140 0.959 . S
C1152 C1150 1.561 . S
C1153 C1150 1.526 . S
C1153 C1154 1.396 . S
C1153 C1158 1.390 . S
C1154 C1148 1.465 . S
C1154 C1153 1.396 . S
C1154 C1155 1.399 . S
C1155 H1141 0.929 . S
C1155 C1154 1.399 . S
C1155 C1156 1.385 . S
C1156 H1142 0.931 . S
C1156 C1155 1.385 . S
C1156 C1157 1.389 . S
C1157 C1156 1.389 . S
C1157 C1158 1.387 . S
C1158 H1143 0.930 . S
C1158 C1153 1.390 . S
C1158 C1157 1.387 . S
H1159 C1171 0.930 . S
H1160 C1173 0.930 1_455 S
H1161 C1174 0.930 1_455 S
H1162 C1178 0.959 . S
H1163 C1178 0.959 . S
H1164 C1178 0.961 . S
H1165 C1179 0.960 1_565 S
H1166 C1179 0.965 1_565 S
H1167 C1179 0.959 1_565 S
H1168 C1182 0.929 . S
H1169 C1183 0.931 . S
H1170 C1185 0.930 . S
C1171 H1159 0.930 . S
C1171 C1172 1.399 . S
C1171 C1176 1.399 . S
C1172 C1171 1.399 . S
C1172 C1173 1.376 . S
C1173 H1160 0.930 1_655 S
C1173 C1172 1.376 . S
C1173 C1174 1.388 . S
C1174 H1161 0.930 1_655 S
C1174 C1173 1.388 . S
C1174 C1175 1.390 . S
C1175 C1174 1.390 . S
C1175 C1176 1.394 . S
C1175 C1181 1.465 . S
C1176 C1171 1.399 . S
C1176 C1175 1.394 . S
C1176 C1177 1.516 . S
C1177 C1176 1.516 . S
C1177 C1178 1.502 . S
C1177 C1179 1.561 . S
C1177 C1180 1.526 . S
C1178 H1162 0.959 . S
C1178 H1163 0.959 . S
C1178 H1164 0.961 . S
C1178 C1177 1.502 . S
C1179 H1165 0.960 1_545 S
C1179 H1166 0.965 1_545 S
C1179 H1167 0.959 1_545 S
C1179 C1177 1.561 . S
C1180 C1177 1.526 . S
C1180 C1181 1.396 . S
C1180 C1185 1.390 . S
C1181 C1175 1.465 . S
C1181 C1180 1.396 . S
C1181 C1182 1.399 . S
C1182 H1168 0.929 . S
C1182 C1181 1.399 . S
C1182 C1183 1.385 . S
C1183 H1169 0.931 . S
C1183 C1182 1.385 . S
C1183 C1184 1.389 . S
C1184 C1183 1.389 . S
C1184 C1185 1.387 . S
C1185 H1170 0.930 . S
C1185 C1180 1.390 . S
C1185 C1184 1.387 . S
H1186 C1198 0.930 . S
H1187 C1200 0.930 . S
H1188 C1201 0.930 . S
H1189 C1205 0.959 . S
H1190 C1205 0.959 . S
H1191 C1205 0.961 . S
H1192 C1206 0.960 . S
H1193 C1206 0.961 . S
H1194 C1206 0.959 . S
H1195 C1209 0.929 . S
H1196 C1210 0.931 . S
H1197 C1212 0.930 . S
C1198 H1186 0.930 . S
C1198 C1199 1.399 . S
C1198 C1203 1.399 . S
C1199 C1198 1.399 . S
C1199 C1200 1.376 . S
C1200 H1187 0.930 . S
C1200 C1199 1.376 . S
C1200 C1201 1.388 . S
C1201 H1188 0.930 . S
C1201 C1200 1.388 . S
C1201 C1202 1.390 . S
C1202 C1201 1.390 . S
C1202 C1203 1.394 . S
C1202 C1208 1.465 . S
C1203 C1198 1.399 . S
C1203 C1202 1.394 . S
C1203 C1204 1.516 . S
C1204 C1203 1.516 . S
C1204 C1205 1.502 . S
C1204 C1206 1.561 . S
C1204 C1207 1.526 . S
C1205 H1189 0.959 . S
C1205 H1190 0.959 . S
C1205 H1191 0.961 . S
C1205 C1204 1.502 . S
C1206 H1192 0.960 . S
C1206 H1193 0.961 . S
C1206 H1194 0.959 . S
C1206 C1204 1.561 . S
C1207 C1204 1.526 . S
C1207 C1208 1.396 . S
C1207 C1212 1.390 . S
C1208 C1202 1.465 . S
C1208 C1207 1.396 . S
C1208 C1209 1.399 . S
C1209 H1195 0.929 . S
C1209 C1208 1.399 . S
C1209 C1210 1.385 . S
C1210 H1196 0.931 . S
C1210 C1209 1.385 . S
C1210 C1211 1.389 . S
C1211 C1210 1.389 . S
C1211 C1212 1.387 . S
C1212 H1197 0.930 . S
C1212 C1207 1.390 . S
C1212 C1211 1.387 . S
H1213 C1225 0.930 . S
H1214 C1227 0.930 . S
H1215 C1228 0.930 . S
H1216 C1232 0.959 . S
H1217 C1232 0.959 . S
H1218 C1232 0.961 . S
H1219 C1233 0.960 . S
H1220 C1233 0.961 . S
H1221 C1233 0.959 . S
H1222 C1236 0.929 . S
H1223 C1237 0.931 . S
H1224 C1239 0.930 . S
C1225 H1213 0.930 . S
C1225 C1226 1.399 . S
C1225 C1230 1.399 . S
C1226 C1225 1.399 . S
C1226 C1227 1.376 . S
C1227 H1214 0.930 . S
C1227 C1226 1.376 . S
C1227 C1228 1.388 . S
C1228 H1215 0.930 . S
C1228 C1227 1.388 . S
C1228 C1229 1.390 . S
C1229 C1228 1.390 . S
C1229 C1230 1.394 . S
C1229 C1235 1.465 . S
C1230 C1225 1.399 . S
C1230 C1229 1.394 . S
C1230 C1231 1.516 . S
C1231 C1230 1.516 . S
C1231 C1232 1.502 . S
C1231 C1233 1.561 . S
C1231 C1234 1.526 . S
C1232 H1216 0.959 . S
C1232 H1217 0.959 . S
C1232 H1218 0.961 . S
C1232 C1231 1.502 . S
C1233 H1219 0.960 . S
C1233 H1220 0.961 . S
C1233 H1221 0.959 . S
C1233 C1231 1.561 . S
C1234 C1231 1.526 . S
C1234 C1235 1.396 . S
C1234 C1239 1.390 . S
C1235 C1229 1.465 . S
C1235 C1234 1.396 . S
C1235 C1236 1.399 . S
C1236 H1222 0.929 . S
C1236 C1235 1.399 . S
C1236 C1237 1.385 . S
C1237 H1223 0.931 . S
C1237 C1236 1.385 . S
C1237 C1238 1.389 . S
C1238 C1237 1.389 . S
C1238 C1239 1.387 . S
C1239 H1224 0.930 . S
C1239 C1234 1.390 . S
C1239 C1238 1.387 . S
H1240 C1252 0.930 . S
H1241 C1254 0.930 . S
H1242 C1255 0.930 . S
H1243 C1259 0.959 . S
H1244 C1259 0.959 . S
H1245 C1259 0.961 . S
H1246 C1260 0.960 . S
H1247 C1260 0.961 . S
H1248 C1260 0.959 . S
H1249 C1263 0.929 . S
H1250 C1264 0.931 . S
H1251 C1266 0.930 . S
C1252 H1240 0.930 . S
C1252 C1253 1.399 . S
C1252 C1257 1.399 . S
C1253 C1252 1.399 . S
C1253 C1254 1.376 . S
C1254 H1241 0.930 . S
C1254 C1253 1.376 . S
C1254 C1255 1.388 . S
C1255 H1242 0.930 . S
C1255 C1254 1.388 . S
C1255 C1256 1.390 . S
C1256 C1255 1.390 . S
C1256 C1257 1.394 . S
C1256 C1262 1.465 . S
C1257 C1252 1.399 . S
C1257 C1256 1.394 . S
C1257 C1258 1.516 . S
C1258 C1257 1.516 . S
C1258 C1259 1.502 . S
C1258 C1260 1.561 . S
C1258 C1261 1.526 . S
C1259 H1243 0.959 . S
C1259 H1244 0.959 . S
C1259 H1245 0.961 . S
C1259 C1258 1.502 . S
C1260 H1246 0.960 . S
C1260 H1247 0.961 . S
C1260 H1248 0.959 . S
C1260 C1258 1.561 . S
C1261 C1258 1.526 . S
C1261 C1262 1.396 . S
C1261 C1266 1.390 . S
C1262 C1256 1.465 . S
C1262 C1261 1.396 . S
C1262 C1263 1.399 . S
C1263 H1249 0.929 . S
C1263 C1262 1.399 . S
C1263 C1264 1.385 . S
C1264 H1250 0.931 . S
C1264 C1263 1.385 . S
C1264 C1265 1.389 . S
C1265 C1264 1.389 . S
C1265 C1266 1.387 . S
C1266 H1251 0.930 . S
C1266 C1261 1.390 . S
C1266 C1265 1.387 . S
H1267 C1279 0.930 1_556 S
H1268 C1281 0.929 1_455 S
H1269 C1282 0.930 . S
H1270 C1286 0.959 . S
H1271 C1286 0.959 . S
H1272 C1286 0.961 . S
H1273 C1287 0.960 . S
H1274 C1287 0.961 . S
H1275 C1287 0.959 . S
H1276 C1290 0.929 1_554 S
H1277 C1291 0.931 . S
H1278 C1293 0.930 . S
C1279 H1267 0.930 1_554 S
C1279 C1280 1.399 . S
C1279 C1284 1.399 1_554 S
C1280 C1279 1.399 . S
C1280 C1281 1.376 . S
C1281 H1268 0.929 1_655 S
C1281 C1280 1.376 . S
C1281 C1282 1.388 1_655 S
C1282 H1269 0.930 . S
C1282 C1281 1.388 1_455 S
C1282 C1283 1.390 1_455 S
C1283 C1282 1.390 1_655 S
C1283 C1284 1.394 1_554 S
C1283 C1289 1.452 1_654 S
C1284 C1279 1.399 1_556 S
C1284 C1283 1.394 1_556 S
C1284 C1285 1.516 . S
C1285 C1284 1.516 . S
C1285 C1286 1.502 . S
C1285 C1287 1.561 1_655 S
C1285 C1288 1.526 . S
C1286 H1270 0.959 . S
C1286 H1271 0.959 . S
C1286 H1272 0.961 . S
C1286 C1285 1.502 . S
C1287 H1273 0.960 . S
C1287 H1274 0.961 . S
C1287 H1275 0.959 . S
C1287 C1285 1.561 1_455 S
C1288 C1285 1.526 . S
C1288 C1289 1.384 1_655 S
C1288 C1293 1.390 . S
C1289 C1283 1.452 1_456 S
C1289 C1288 1.384 1_455 S
C1289 C1290 1.422 . S
C1290 H1276 0.929 1_556 S
C1290 C1289 1.422 . S
C1290 C1291 1.385 . S
C1291 H1277 0.931 . S
C1291 C1290 1.385 . S
C1291 C1292 1.389 . S
C1292 C1291 1.389 . S
C1292 C1293 1.387 1_455 S
C1293 H1278 0.930 . S
C1293 C1288 1.390 . S
C1293 C1292 1.387 1_655 S
H1294 C1306 0.930 . S
H1295 C1308 0.930 . S
H1296 C1309 0.930 . S
H1297 C1313 0.959 . S
H1298 C1313 0.959 . S
H1299 C1313 0.961 . S
H1300 C1314 0.960 . S
H1301 C1314 0.961 . S
H1302 C1314 0.959 . S
H1303 C1317 0.929 . S
H1304 C1318 0.931 . S
H1305 C1320 0.930 . S
C1306 H1294 0.930 . S
C1306 C1307 1.399 . S
C1306 C1311 1.399 . S
C1307 C1306 1.399 . S
C1307 C1308 1.376 . S
C1308 H1295 0.930 . S
C1308 C1307 1.376 . S
C1308 C1309 1.388 . S
C1309 H1296 0.930 . S
C1309 C1308 1.388 . S
C1309 C1310 1.390 . S
C1310 C1309 1.390 . S
C1310 C1311 1.394 . S
C1310 C1316 1.465 . S
C1311 C1306 1.399 . S
C1311 C1310 1.394 . S
C1311 C1312 1.516 . S
C1312 C1311 1.516 . S
C1312 C1313 1.502 . S
C1312 C1314 1.561 . S
C1312 C1315 1.526 . S
C1313 H1297 0.959 . S
C1313 H1298 0.959 . S
C1313 H1299 0.961 . S
C1313 C1312 1.502 . S
C1314 H1300 0.960 . S
C1314 H1301 0.961 . S
C1314 H1302 0.959 . S
C1314 C1312 1.561 . S
C1315 C1312 1.526 . S
C1315 C1316 1.396 . S
C1315 C1320 1.390 . S
C1316 C1310 1.465 . S
C1316 C1315 1.396 . S
C1316 C1317 1.399 . S
C1317 H1303 0.929 . S
C1317 C1316 1.399 . S
C1317 C1318 1.385 . S
C1318 H1304 0.931 . S
C1318 C1317 1.385 . S
C1318 C1319 1.389 . S
C1319 C1318 1.389 . S
C1319 C1320 1.387 . S
C1320 H1305 0.930 . S
C1320 C1315 1.390 . S
C1320 C1319 1.387 . S
H1321 C1333 0.930 . S
H1322 C1335 0.930 . S
H1323 C1336 0.930 . S
H1324 C1340 0.959 . S
H1325 C1340 0.959 . S
H1326 C1340 0.961 . S
H1327 C1341 0.960 . S
H1328 C1341 0.961 . S
H1329 C1341 0.959 . S
H1330 C1344 0.929 . S
H1331 C1345 0.931 . S
H1332 C1347 0.930 . S
C1333 H1321 0.930 . S
C1333 C1334 1.389 1_456 S
C1333 C1338 1.399 . S
C1334 C1333 1.389 1_654 S
C1334 C1335 1.398 . S
C1335 H1322 0.930 . S
C1335 C1334 1.398 . S
C1335 C1336 1.388 . S
C1336 H1323 0.930 . S
C1336 C1335 1.388 . S
C1336 C1337 1.390 1_554 S
C1337 C1336 1.390 1_556 S
C1337 C1338 1.394 1_655 S
C1337 C1343 1.465 . S
C1338 C1333 1.399 . S
C1338 C1337 1.394 1_455 S
C1338 C1339 1.516 . S
C1339 C1338 1.516 . S
C1339 C1340 1.502 . S
C1339 C1341 1.561 1_455 S
C1339 C1342 1.526 . S
C1340 H1324 0.959 . S
C1340 H1325 0.959 . S
C1340 H1326 0.961 . S
C1340 C1339 1.502 . S
C1341 H1327 0.960 . S
C1341 H1328 0.961 . S
C1341 H1329 0.959 . S
C1341 C1339 1.561 1_655 S
C1342 C1339 1.526 . S
C1342 C1343 1.396 1_455 S
C1342 C1347 1.390 . S
C1343 C1337 1.465 . S
C1343 C1342 1.396 1_655 S
C1343 C1344 1.399 . S
C1344 H1330 0.929 . S
C1344 C1343 1.399 . S
C1344 C1345 1.385 . S
C1345 H1331 0.931 . S
C1345 C1344 1.385 . S
C1345 C1346 1.389 1_655 S
C1346 C1345 1.389 1_455 S
C1346 C1347 1.387 . S
C1347 H1332 0.930 . S
C1347 C1342 1.390 . S
C1347 C1346 1.387 . S
H1348 C1360 0.930 . S
H1349 C1362 0.930 . S
H1350 C1363 0.930 . S
H1351 C1367 0.959 . S
H1352 C1367 0.959 . S
H1353 C1367 0.961 . S
H1354 C1368 0.960 . S
H1355 C1368 0.961 . S
H1356 C1368 0.959 . S
H1357 C1371 0.929 . S
H1358 C1372 0.931 . S
H1359 C1374 0.930 . S
C1360 H1348 0.930 . S
C1360 C1361 1.399 . S
C1360 C1365 1.399 . S
C1361 C1360 1.399 . S
C1361 C1362 1.376 . S
C1362 H1349 0.930 . S
C1362 C1361 1.376 . S
C1362 C1363 1.388 . S
C1363 H1350 0.930 . S
C1363 C1362 1.388 . S
C1363 C1364 1.390 . S
C1364 C1363 1.390 . S
C1364 C1365 1.394 . S
C1364 C1370 1.465 . S
C1365 C1360 1.399 . S
C1365 C1364 1.394 . S
C1365 C1366 1.516 . S
C1366 C1365 1.516 . S
C1366 C1367 1.502 . S
C1366 C1368 1.561 . S
C1366 C1369 1.526 . S
C1367 H1351 0.959 . S
C1367 H1352 0.959 . S
C1367 H1353 0.961 . S
C1367 C1366 1.502 . S
C1368 H1354 0.960 . S
C1368 H1355 0.961 . S
C1368 H1356 0.959 . S
C1368 C1366 1.561 . S
C1369 C1366 1.526 . S
C1369 C1370 1.396 . S
C1369 C1374 1.390 . S
C1370 C1364 1.465 . S
C1370 C1369 1.396 . S
C1370 C1371 1.399 . S
C1371 H1357 0.929 . S
C1371 C1370 1.399 . S
C1371 C1372 1.385 . S
C1372 H1358 0.931 . S
C1372 C1371 1.385 . S
C1372 C1373 1.389 . S
C1373 C1372 1.389 . S
C1373 C1374 1.387 . S
C1374 H1359 0.930 . S
C1374 C1369 1.390 . S
C1374 C1373 1.387 . S
H1375 C1387 0.930 . S
H1376 C1389 0.930 1_556 S
H1377 C1390 0.930 . S
H1378 C1394 0.959 . S
H1379 C1394 0.959 . S
H1380 C1394 0.961 . S
H1381 C1395 0.960 . S
H1382 C1395 0.961 . S
H1383 C1395 0.959 . S
H1384 C1398 0.929 . S
H1385 C1399 0.931 . S
H1386 C1401 0.930 . S
C1387 H1375 0.930 . S
C1387 C1388 1.399 . S
C1387 C1392 1.399 . S
C1388 C1387 1.399 . S
C1388 C1389 1.376 . S
C1389 H1376 0.930 1_554 S
C1389 C1388 1.376 . S
C1389 C1390 1.388 . S
C1390 H1377 0.930 . S
C1390 C1389 1.388 . S
C1390 C1391 1.390 . S
C1391 C1390 1.390 . S
C1391 C1392 1.394 . S
C1391 C1397 1.465 . S
C1392 C1387 1.399 . S
C1392 C1391 1.394 . S
C1392 C1393 1.516 . S
C1393 C1392 1.516 . S
C1393 C1394 1.502 . S
C1393 C1395 1.561 . S
C1393 C1396 1.526 . S
C1394 H1378 0.959 . S
C1394 H1379 0.959 . S
C1394 H1380 0.961 . S
C1394 C1393 1.502 . S
C1395 H1381 0.960 . S
C1395 H1382 0.961 . S
C1395 H1383 0.959 . S
C1395 C1393 1.561 . S
C1396 C1393 1.526 . S
C1396 C1397 1.396 . S
C1396 C1401 1.390 . S
C1397 C1391 1.465 . S
C1397 C1396 1.396 . S
C1397 C1398 1.399 . S
C1398 H1384 0.929 . S
C1398 C1397 1.399 . S
C1398 C1399 1.385 . S
C1399 H1385 0.931 . S
C1399 C1398 1.385 . S
C1399 C1400 1.389 . S
C1400 C1399 1.389 . S
C1400 C1401 1.387 . S
C1401 H1386 0.930 . S
C1401 C1396 1.390 . S
C1401 C1400 1.387 . S
H1402 C1414 0.930 . S
H1403 C1416 0.930 . S
H1404 C1417 0.930 . S
H1405 C1421 0.959 . S
H1406 C1421 0.959 . S
H1407 C1421 0.961 . S
H1408 C1422 0.960 . S
H1409 C1422 0.961 . S
H1410 C1422 0.959 . S
H1411 C1425 0.929 . S
H1412 C1426 0.931 . S
H1413 C1428 0.930 . S
C1414 H1402 0.930 . S
C1414 C1415 1.399 . S
C1414 C1419 1.399 . S
C1415 C1414 1.399 . S
C1415 C1416 1.376 . S
C1416 H1403 0.930 . S
C1416 C1415 1.376 . S
C1416 C1417 1.388 . S
C1417 H1404 0.930 . S
C1417 C1416 1.388 . S
C1417 C1418 1.390 . S
C1418 C1417 1.390 . S
C1418 C1419 1.394 . S
C1418 C1424 1.465 . S
C1419 C1414 1.399 . S
C1419 C1418 1.394 . S
C1419 C1420 1.516 . S
C1420 C1419 1.516 . S
C1420 C1421 1.502 . S
C1420 C1422 1.561 . S
C1420 C1423 1.526 . S
C1421 H1405 0.959 . S
C1421 H1406 0.959 . S
C1421 H1407 0.961 . S
C1421 C1420 1.502 . S
C1422 H1408 0.960 . S
C1422 H1409 0.961 . S
C1422 H1410 0.959 . S
C1422 C1420 1.561 . S
C1423 C1420 1.526 . S
C1423 C1424 1.396 . S
C1423 C1428 1.390 . S
C1424 C1418 1.465 . S
C1424 C1423 1.396 . S
C1424 C1425 1.399 . S
C1425 H1411 0.929 . S
C1425 C1424 1.399 . S
C1425 C1426 1.385 . S
C1426 H1412 0.931 . S
C1426 C1425 1.385 . S
C1426 C1427 1.389 . S
C1427 C1426 1.389 . S
C1427 C1428 1.387 . S
C1428 H1413 0.930 . S
C1428 C1423 1.390 . S
C1428 C1427 1.387 . S
H1429 C1441 0.930 . S
H1430 C1443 0.930 . S
H1431 C1444 0.930 . S
H1432 C1448 0.959 . S
H1433 C1448 0.959 . S
H1434 C1448 0.961 . S
H1435 C1449 0.960 . S
H1436 C1449 0.961 . S
H1437 C1449 0.959 . S
H1438 C1452 0.929 . S
H1439 C1453 0.931 . S
H1440 C1455 0.930 . S
C1441 H1429 0.930 . S
C1441 C1442 1.399 . S
C1441 C1446 1.399 . S
C1442 C1441 1.399 . S
C1442 C1443 1.376 . S
C1443 H1430 0.930 . S
C1443 C1442 1.376 . S
C1443 C1444 1.388 . S
C1444 H1431 0.930 . S
C1444 C1443 1.388 . S
C1444 C1445 1.390 . S
C1445 C1444 1.390 . S
C1445 C1446 1.394 . S
C1445 C1451 1.465 . S
C1446 C1441 1.399 . S
C1446 C1445 1.394 . S
C1446 C1447 1.516 . S
C1447 C1446 1.516 . S
C1447 C1448 1.502 . S
C1447 C1449 1.561 . S
C1447 C1450 1.526 . S
C1448 H1432 0.959 . S
C1448 H1433 0.959 . S
C1448 H1434 0.961 . S
C1448 C1447 1.502 . S
C1449 H1435 0.960 . S
C1449 H1436 0.961 . S
C1449 H1437 0.959 . S
C1449 C1447 1.561 . S
C1450 C1447 1.526 . S
C1450 C1451 1.396 . S
C1450 C1455 1.390 . S
C1451 C1445 1.465 . S
C1451 C1450 1.396 . S
C1451 C1452 1.399 . S
C1452 H1438 0.929 . S
C1452 C1451 1.399 . S
C1452 C1453 1.385 . S
C1453 H1439 0.931 . S
C1453 C1452 1.385 . S
C1453 C1454 1.389 . S
C1454 C1453 1.389 . S
C1454 C1455 1.387 . S
C1455 H1440 0.930 . S
C1455 C1450 1.390 . S
C1455 C1454 1.387 . S
H1456 C1468 0.930 . S
H1457 C1470 0.930 . S
H1458 C1471 0.930 . S
H1459 C1475 0.959 . S
H1460 C1475 0.959 . S
H1461 C1475 0.961 . S
H1462 C1476 0.960 . S
H1463 C1476 0.961 . S
H1464 C1476 0.959 . S
H1465 C1479 0.929 . S
H1466 C1480 0.931 . S
H1467 C1482 0.930 . S
C1468 H1456 0.930 . S
C1468 C1469 1.399 . S
C1468 C1473 1.399 . S
C1469 C1468 1.399 . S
C1469 C1470 1.376 . S
C1470 H1457 0.930 . S
C1470 C1469 1.376 . S
C1470 C1471 1.388 . S
C1471 H1458 0.930 . S
C1471 C1470 1.388 . S
C1471 C1472 1.390 . S
C1472 C1471 1.390 . S
C1472 C1473 1.394 . S
C1472 C1478 1.465 . S
C1473 C1468 1.399 . S
C1473 C1472 1.394 . S
C1473 C1474 1.516 . S
C1474 C1473 1.516 . S
C1474 C1475 1.502 . S
C1474 C1476 1.561 . S
C1474 C1477 1.526 . S
C1475 H1459 0.959 . S
C1475 H1460 0.959 . S
C1475 H1461 0.961 . S
C1475 C1474 1.502 . S
C1476 H1462 0.960 . S
C1476 H1463 0.961 . S
C1476 H1464 0.959 . S
C1476 C1474 1.561 . S
C1477 C1474 1.526 . S
C1477 C1478 1.396 . S
C1477 C1482 1.390 . S
C1478 C1472 1.465 . S
C1478 C1477 1.396 . S
C1478 C1479 1.399 . S
C1479 H1465 0.929 . S
C1479 C1478 1.399 . S
C1479 C1480 1.385 . S
C1480 H1466 0.931 . S
C1480 C1479 1.385 . S
C1480 C1481 1.389 . S
C1481 C1480 1.389 . S
C1481 C1482 1.387 . S
C1482 H1467 0.930 . S
C1482 C1477 1.390 . S
C1482 C1481 1.387 . S
H1483 C1495 0.930 . S
H1484 C1497 0.930 . S
H1485 C1498 0.930 . S
H1486 C1502 0.959 . S
H1487 C1502 0.959 . S
H1488 C1502 0.961 . S
H1489 C1503 0.960 . S
H1490 C1503 0.961 . S
H1491 C1503 0.959 . S
H1492 C1506 0.929 . S
H1493 C1507 0.931 . S
H1494 C1509 0.930 . S
C1495 H1483 0.930 . S
C1495 C1496 1.399 . S
C1495 C1500 1.399 . S
C1496 C1495 1.399 . S
C1496 C1497 1.376 . S
C1497 H1484 0.930 . S
C1497 C1496 1.376 . S
C1497 C1498 1.388 . S
C1498 H1485 0.930 . S
C1498 C1497 1.388 . S
C1498 C1499 1.390 . S
C1499 C1498 1.390 . S
C1499 C1500 1.394 . S
C1499 C1505 1.465 . S
C1500 C1495 1.399 . S
C1500 C1499 1.394 . S
C1500 C1501 1.516 . S
C1501 C1500 1.516 . S
C1501 C1502 1.502 . S
C1501 C1503 1.561 . S
C1501 C1504 1.526 . S
C1502 H1486 0.959 . S
C1502 H1487 0.959 . S
C1502 H1488 0.961 . S
C1502 C1501 1.502 . S
C1503 H1489 0.960 . S
C1503 H1490 0.961 . S
C1503 H1491 0.959 . S
C1503 C1501 1.561 . S
C1504 C1501 1.526 . S
C1504 C1505 1.396 . S
C1504 C1509 1.390 . S
C1505 C1499 1.465 . S
C1505 C1504 1.396 . S
C1505 C1506 1.399 . S
C1506 H1492 0.929 . S
C1506 C1505 1.399 . S
C1506 C1507 1.385 . S
C1507 H1493 0.931 . S
C1507 C1506 1.385 . S
C1507 C1508 1.389 . S
C1508 C1507 1.389 . S
C1508 C1509 1.387 . S
C1509 H1494 0.930 . S
C1509 C1504 1.390 . S
C1509 C1508 1.387 . S
H1510 C1522 0.930 . S
H1511 C1524 0.930 . S
H1512 C1525 0.930 . S
H1513 C1529 0.959 . S
H1514 C1529 0.959 . S
H1515 C1529 0.961 . S
H1516 C1530 0.960 . S
H1517 C1530 0.961 . S
H1518 C1530 0.959 . S
H1519 C1533 0.929 . S
H1520 C1534 0.931 . S
H1521 C1536 0.930 . S
C1522 H1510 0.930 . S
C1522 C1523 1.399 . S
C1522 C1527 1.399 . S
C1523 C1522 1.399 . S
C1523 C1524 1.376 . S
C1524 H1511 0.930 . S
C1524 C1523 1.376 . S
C1524 C1525 1.388 . S
C1525 H1512 0.930 . S
C1525 C1524 1.388 . S
C1525 C1526 1.390 . S
C1526 C1525 1.390 . S
C1526 C1527 1.394 . S
C1526 C1532 1.465 . S
C1527 C1522 1.399 . S
C1527 C1526 1.394 . S
C1527 C1528 1.516 . S
C1528 C1527 1.516 . S
C1528 C1529 1.502 . S
C1528 C1530 1.561 . S
C1528 C1531 1.526 . S
C1529 H1513 0.959 . S
C1529 H1514 0.959 . S
C1529 H1515 0.961 . S
C1529 C1528 1.502 . S
C1530 H1516 0.960 . S
C1530 H1517 0.961 . S
C1530 H1518 0.959 . S
C1530 C1528 1.561 . S
C1531 C1528 1.526 . S
C1531 C1532 1.396 . S
C1531 C1536 1.390 . S
C1532 C1526 1.465 . S
C1532 C1531 1.396 . S
C1532 C1533 1.399 . S
C1533 H1519 0.929 . S
C1533 C1532 1.399 . S
C1533 C1534 1.385 . S
C1534 H1520 0.931 . S
C1534 C1533 1.385 . S
C1534 C1535 1.389 . S
C1535 C1534 1.389 . S
C1535 C1536 1.387 . S
C1536 H1521 0.930 . S
C1536 C1531 1.390 . S
C1536 C1535 1.387 . S
H1537 C1549 0.930 . S
H1538 C1551 0.930 . S
H1539 C1552 0.930 . S
H1540 C1556 0.959 . S
H1541 C1556 0.959 . S
H1542 C1556 0.961 . S
H1543 C1557 0.960 . S
H1544 C1557 0.961 . S
H1545 C1557 0.959 . S
H1546 C1560 0.929 . S
H1547 C1561 0.931 . S
H1548 C1563 0.930 . S
C1549 H1537 0.930 . S
C1549 C1550 1.399 . S
C1549 C1554 1.399 . S
C1550 C1549 1.399 . S
C1550 C1551 1.376 . S
C1551 H1538 0.930 . S
C1551 C1550 1.376 . S
C1551 C1552 1.388 . S
C1552 H1539 0.930 . S
C1552 C1551 1.388 . S
C1552 C1553 1.390 . S
C1553 C1552 1.390 . S
C1553 C1554 1.394 . S
C1553 C1559 1.465 . S
C1554 C1549 1.399 . S
C1554 C1553 1.394 . S
C1554 C1555 1.516 . S
C1555 C1554 1.516 . S
C1555 C1556 1.502 . S
C1555 C1557 1.561 . S
C1555 C1558 1.526 . S
C1556 H1540 0.959 . S
C1556 H1541 0.959 . S
C1556 H1542 0.961 . S
C1556 C1555 1.502 . S
C1557 H1543 0.960 . S
C1557 H1544 0.961 . S
C1557 H1545 0.959 . S
C1557 C1555 1.561 . S
C1558 C1555 1.526 . S
C1558 C1559 1.396 . S
C1558 C1563 1.390 . S
C1559 C1553 1.465 . S
C1559 C1558 1.396 . S
C1559 C1560 1.399 . S
C1560 H1546 0.929 . S
C1560 C1559 1.399 . S
C1560 C1561 1.385 . S
C1561 H1547 0.931 . S
C1561 C1560 1.385 . S
C1561 C1562 1.389 . S
C1562 C1561 1.389 . S
C1562 C1563 1.387 . S
C1563 H1548 0.930 . S
C1563 C1558 1.390 . S
C1563 C1562 1.387 . S
H1564 C1576 0.930 . S
H1565 C1578 0.930 . S
H1566 C1579 0.930 . S
H1567 C1583 0.959 . S
H1568 C1583 0.959 . S
H1569 C1583 0.961 . S
H1570 C1584 0.960 . S
H1571 C1584 0.961 . S
H1572 C1584 0.959 . S
H1573 C1587 0.929 . S
H1574 C1588 0.931 . S
H1575 C1590 0.930 . S
C1576 H1564 0.930 . S
C1576 C1577 1.399 1_554 S
C1576 C1581 1.399 . S
C1577 C1576 1.399 1_556 S
C1577 C1578 1.376 . S
C1578 H1565 0.930 . S
C1578 C1577 1.376 . S
C1578 C1579 1.388 . S
C1579 H1566 0.930 . S
C1579 C1578 1.388 . S
C1579 C1580 1.352 1_556 S
C1580 C1579 1.352 1_554 S
C1580 C1581 1.427 . S
C1580 C1586 1.478 . S
C1581 C1576 1.399 . S
C1581 C1580 1.427 . S
C1581 C1582 1.516 . S
C1582 C1581 1.516 . S
C1582 C1583 1.502 . S
C1582 C1584 1.561 . S
C1582 C1585 1.526 . S
C1583 H1567 0.959 . S
C1583 H1568 0.959 . S
C1583 H1569 0.961 . S
C1583 C1582 1.502 . S
C1584 H1570 0.960 . S
C1584 H1571 0.961 . S
C1584 H1572 0.959 . S
C1584 C1582 1.561 . S
C1585 C1582 1.526 . S
C1585 C1586 1.396 . S
C1585 C1590 1.390 . S
C1586 C1580 1.478 . S
C1586 C1585 1.396 . S
C1586 C1587 1.399 1_554 S
C1587 H1573 0.929 . S
C1587 C1586 1.399 1_556 S
C1587 C1588 1.385 1_556 S
C1588 H1574 0.931 . S
C1588 C1587 1.385 1_554 S
C1588 C1589 1.389 . S
C1589 C1588 1.389 . S
C1589 C1590 1.387 . S
C1590 H1575 0.930 . S
C1590 C1585 1.390 . S
C1590 C1589 1.387 . S
H1591 C1603 0.930 . S
H1592 C1605 0.930 . S
H1593 C1606 0.930 . S
H1594 C1610 0.959 . S
H1595 C1610 0.959 . S
H1596 C1610 0.961 . S
H1597 C1611 0.960 . S
H1598 C1611 0.961 . S
H1599 C1611 0.959 . S
H1600 C1614 0.929 . S
H1601 C1615 0.931 . S
H1602 C1617 0.930 . S
C1603 H1591 0.930 . S
C1603 C1604 1.399 . S
C1603 C1608 1.399 . S
C1604 C1603 1.399 . S
C1604 C1605 1.376 . S
C1605 H1592 0.930 . S
C1605 C1604 1.376 . S
C1605 C1606 1.388 . S
C1606 H1593 0.930 . S
C1606 C1605 1.388 . S
C1606 C1607 1.390 . S
C1607 C1606 1.390 . S
C1607 C1608 1.394 . S
C1607 C1613 1.465 . S
C1608 C1603 1.399 . S
C1608 C1607 1.394 . S
C1608 C1609 1.516 . S
C1609 C1608 1.516 . S
C1609 C1610 1.502 . S
C1609 C1611 1.561 . S
C1609 C1612 1.526 . S
C1610 H1594 0.959 . S
C1610 H1595 0.959 . S
C1610 H1596 0.961 . S
C1610 C1609 1.502 . S
C1611 H1597 0.960 . S
C1611 H1598 0.961 . S
C1611 H1599 0.959 . S
C1611 C1609 1.561 . S
C1612 C1609 1.526 . S
C1612 C1613 1.396 . S
C1612 C1617 1.390 . S
C1613 C1607 1.465 . S
C1613 C1612 1.396 . S
C1613 C1614 1.399 . S
C1614 H1600 0.929 . S
C1614 C1613 1.399 . S
C1614 C1615 1.385 . S
C1615 H1601 0.931 . S
C1615 C1614 1.385 . S
C1615 C1616 1.389 . S
C1616 C1615 1.389 . S
C1616 C1617 1.387 . S
C1617 H1602 0.930 . S
C1617 C1612 1.390 . S
C1617 C1616 1.387 . S
H1618 C1630 0.930 . S
H1619 C1632 0.930 . S
H1620 C1633 0.930 . S
H1621 C1637 0.959 . S
H1622 C1637 0.959 . S
H1623 C1637 0.961 . S
H1624 C1638 0.960 . S
H1625 C1638 0.961 . S
H1626 C1638 0.959 . S
H1627 C1641 0.929 . S
H1628 C1642 0.931 . S
H1629 C1644 0.930 . S
C1630 H1618 0.930 . S
C1630 C1631 1.399 . S
C1630 C1635 1.399 . S
C1631 C1630 1.399 . S
C1631 C1632 1.376 . S
C1632 H1619 0.930 . S
C1632 C1631 1.376 . S
C1632 C1633 1.388 . S
C1633 H1620 0.930 . S
C1633 C1632 1.388 . S
C1633 C1634 1.390 . S
C1634 C1633 1.390 . S
C1634 C1635 1.394 . S
C1634 C1640 1.465 . S
C1635 C1630 1.399 . S
C1635 C1634 1.394 . S
C1635 C1636 1.516 . S
C1636 C1635 1.516 . S
C1636 C1637 1.502 . S
C1636 C1638 1.561 . S
C1636 C1639 1.526 . S
C1637 H1621 0.959 . S
C1637 H1622 0.959 . S
C1637 H1623 0.961 . S
C1637 C1636 1.502 . S
C1638 H1624 0.960 . S
C1638 H1625 0.961 . S
C1638 H1626 0.959 . S
C1638 C1636 1.561 . S
C1639 C1636 1.526 . S
C1639 C1640 1.396 . S
C1639 C1644 1.390 . S
C1640 C1634 1.465 . S
C1640 C1639 1.396 . S
C1640 C1641 1.399 . S
C1641 H1627 0.929 . S
C1641 C1640 1.399 . S
C1641 C1642 1.385 . S
C1642 H1628 0.931 . S
C1642 C1641 1.385 . S
C1642 C1643 1.389 . S
C1643 C1642 1.389 . S
C1643 C1644 1.387 . S
C1644 H1629 0.930 . S
C1644 C1639 1.390 . S
C1644 C1643 1.387 . S
H1645 C1657 0.930 . S
H1646 C1659 0.930 1_556 S
H1647 C1660 0.930 1_545 S
H1648 C1664 0.959 . S
H1649 C1664 0.959 . S
H1650 C1664 0.961 . S
H1651 C1665 0.960 . S
H1652 C1665 0.961 . S
H1653 C1665 0.959 . S
H1654 C1668 0.929 . S
H1655 C1669 0.931 . S
H1656 C1671 0.930 . S
C1657 H1645 0.930 . S
C1657 C1658 1.399 . S
C1657 C1662 1.399 . S
C1658 C1657 1.399 . S
C1658 C1659 1.376 1_565 S
C1659 H1646 0.930 1_554 S
C1659 C1658 1.376 1_545 S
C1659 C1660 1.388 1_544 S
C1660 H1647 0.930 1_565 S
C1660 C1659 1.388 1_566 S
C1660 C1661 1.390 1_556 S
C1661 C1660 1.390 1_554 S
C1661 C1662 1.394 . S
C1661 C1667 1.465 . S
C1662 C1657 1.399 . S
C1662 C1661 1.394 . S
C1662 C1663 1.516 . S
C1663 C1662 1.516 . S
C1663 C1664 1.502 . S
C1663 C1665 1.561 . S
C1663 C1666 1.526 . S
C1664 H1648 0.959 . S
C1664 H1649 0.959 . S
C1664 H1650 0.961 . S
C1664 C1663 1.502 . S
C1665 H1651 0.960 . S
C1665 H1652 0.961 . S
C1665 H1653 0.959 . S
C1665 C1663 1.561 . S
C1666 C1663 1.526 . S
C1666 C1667 1.396 . S
C1666 C1671 1.390 . S
C1667 C1661 1.465 . S
C1667 C1666 1.396 . S
C1667 C1668 1.399 1_554 S
C1668 H1654 0.929 . S
C1668 C1667 1.399 1_556 S
C1668 C1669 1.385 . S
C1669 H1655 0.931 . S
C1669 C1668 1.385 . S
C1669 C1670 1.389 1_556 S
C1670 C1669 1.389 1_554 S
C1670 C1671 1.387 . S
C1671 H1656 0.930 . S
C1671 C1666 1.390 . S
C1671 C1670 1.387 . S
C401 C219 1.666 . S
C389 C73 1.718 . S
C428 C227 1.135 . S
C416 C82 1.275 1_455 S
C443 C100 1.750 . S
C455 C247 1.725 1_556 S
C482 C261 1.350 . S
C470 C56 1.300 . S
C509 C276 1.400 . S
C497 C134 1.355 . S
C536 C290 1.729 . S
C524 C165 1.689 . S
C551 C147 1.212 . S
C563 C304 1.274 . S
C590 C310 1.719 . S
C578 C125 1.789 . S
C605 C151 1.417 . S
C617 C324 1.409 . S
C644 C345 1.462 . S
C632 C121 1.415 . S
C659 C139 1.687 . S
C671 C325 1.433 . S
C698 C346 1.350 . S
C686 C164 1.352 . S
C713 C95 1.242 . S
C725 C353 1.158 . S
C740 C61 1.511 . S
C752 C359 1.519 . S
C767 C74 1.429 . S
C779 C352 1.394 . S
C794 C86 1.700 . S
C806 C360 1.708 . S
C821 C47 1.410 . S
C833 C254 1.375 . S
C848 C186 1.341 . S
C860 C255 1.085 . S
C887 C212 1.476 . S
C875 C204 1.556 . S
C914 C233 1.781 . S
C902 C112 1.799 . S
C929 C60 1.374 1_545 S
C941 C268 1.300 . S
C968 C318 1.452 . S
C956 C152 1.426 . S
C995 C269 1.547 . S
C983 C126 1.847 . S
C1022 C297 1.131 . S
C1010 C160 1.344 . S
C1049 C303 1.663 . S
C1037 C190 1.718 . S
C1064 C199 1.242 . S
C1076 C311 1.172 . S
C1091 C113 1.752 . S
C1103 C275 1.730 . S
C1130 C289 1.290 . S
C1118 C173 1.338 . S
C1145 C43 1.393 . S
C1157 C248 1.403 . S
C1184 C262 1.723 . S
C1172 C9 1.711 . S
C1211 C220 1.275 . S
C1199 C17 1.206 . S
C1238 C226 1.722 . S
C1226 C34 1.790 1_455 S
C1253 C21 1.417 . S
C1265 C338 1.408 . S
C1280 C30 1.478 . S
C1292 C331 1.456 1_455 S
C1307 C48 1.715 . S
C1319 C339 1.478 . S
C1334 C8 1.334 1_655 S
C1346 C332 1.349 . S
C1373 C367 1.143 . S
C1361 C108 1.328 . S
C1400 C373 1.511 . S
C1388 C178 1.520 1_554 S
C1427 C366 1.364 . S
C1415 C191 1.438 . S
C1442 C203 1.698 . S
C1454 C374 1.708 . S
C1469 C138 1.411 . S
C1481 C282 1.368 . S
C1508 C283 1.112 . S
C1496 C69 1.345 . S
C1535 C296 1.466 . S
C1523 C87 1.558 . S
C1562 C317 1.778 . S
C1550 C99 1.801 . S
C1577 C177 1.374 . S
C1589 C240 1.323 . S
C1616 C234 1.446 . S
C1604 C22 1.448 . S
C1631 C35 1.827 . S
C1643 C241 1.519 . S
C1670 C213 1.169 . S
C1658 C4 1.363 . S
