# Generated by pormake.
# Topology apo, (3,6)-cn, num edge types: 1
# Building blocks:
#     Node 0, Type 0, BuildingBlock: MIDCAF_clean_linker_0, # of connection points: 3
#     Node 1, Type 0, BuildingBlock: MIDCAF_clean_linker_0, # of connection points: 3
#     Node 2, Type 0, BuildingBlock: MIDCAF_clean_linker_0, # of connection points: 3
#     Node 3, Type 0, BuildingBlock: MIDCAF_clean_linker_0, # of connection points: 3
#     Node 4, Type 0, BuildingBlock: MIDCAF_clean_linker_0, # of connection points: 3
#     Node 5, Type 0, BuildingBlock: MIDCAF_clean_linker_0, # of connection points: 3
#     Node 6, Type 0, BuildingBlock: MIDCAF_clean_linker_0, # of connection points: 3
#     Node 7, Type 0, BuildingBlock: MIDCAF_clean_linker_0, # of connection points: 3
#     Node 8, Type 1, BuildingBlock: MIDCAF_clean_sbu_0, # of connection points: 6
#     Node 9, Type 1, BuildingBlock: MIDCAF_clean_sbu_0, # of connection points: 6
#     Node 10, Type 1, BuildingBlock: MIDCAF_clean_sbu_0, # of connection points: 6
#     Node 11, Type 1, BuildingBlock: MIDCAF_clean_sbu_0, # of connection points: 6
#     Edge 12, Type (0, 1), BuildingBlock: EZIPEK_clean_linker_0, # of connection points: 2
#     Edge 13, Type (0, 1), BuildingBlock: EZIPEK_clean_linker_0, # of connection points: 2
#     Edge 14, Type (0, 1), BuildingBlock: EZIPEK_clean_linker_0, # of connection points: 2
#     Edge 15, Type (0, 1), BuildingBlock: EZIPEK_clean_linker_0, # of connection points: 2
#     Edge 16, Type (0, 1), BuildingBlock: EZIPEK_clean_linker_0, # of connection points: 2
#     Edge 17, Type (0, 1), BuildingBlock: EZIPEK_clean_linker_0, # of connection points: 2
#     Edge 18, Type (0, 1), BuildingBlock: EZIPEK_clean_linker_0, # of connection points: 2
#     Edge 19, Type (0, 1), BuildingBlock: EZIPEK_clean_linker_0, # of connection points: 2
#     Edge 20, Type (0, 1), BuildingBlock: EZIPEK_clean_linker_0, # of connection points: 2
#     Edge 21, Type (0, 1), BuildingBlock: EZIPEK_clean_linker_0, # of connection points: 2
#     Edge 22, Type (0, 1), BuildingBlock: EZIPEK_clean_linker_0, # of connection points: 2
#     Edge 23, Type (0, 1), BuildingBlock: EZIPEK_clean_linker_0, # of connection points: 2
#     Edge 24, Type (0, 1), BuildingBlock: EZIPEK_clean_linker_0, # of connection points: 2
#     Edge 25, Type (0, 1), BuildingBlock: EZIPEK_clean_linker_0, # of connection points: 2
#     Edge 26, Type (0, 1), BuildingBlock: EZIPEK_clean_linker_0, # of connection points: 2
#     Edge 27, Type (0, 1), BuildingBlock: EZIPEK_clean_linker_0, # of connection points: 2
#     Edge 28, Type (0, 1), BuildingBlock: EZIPEK_clean_linker_0, # of connection points: 2
#     Edge 29, Type (0, 1), BuildingBlock: EZIPEK_clean_linker_0, # of connection points: 2
#     Edge 30, Type (0, 1), BuildingBlock: EZIPEK_clean_linker_0, # of connection points: 2
#     Edge 31, Type (0, 1), BuildingBlock: EZIPEK_clean_linker_0, # of connection points: 2
#     Edge 32, Type (0, 1), BuildingBlock: EZIPEK_clean_linker_0, # of connection points: 2
#     Edge 33, Type (0, 1), BuildingBlock: EZIPEK_clean_linker_0, # of connection points: 2
#     Edge 34, Type (0, 1), BuildingBlock: EZIPEK_clean_linker_0, # of connection points: 2
#     Edge 35, Type (0, 1), BuildingBlock: EZIPEK_clean_linker_0, # of connection points: 2
# Relax obj value: 0.088
# Max RMSD: 0.100
# Mean RMSD: 0.092
data_MOF--net-apo--node1-MIDCAF_clean_sbu_0--node2-MIDCAF_clean_linker_0--edge1-EZIPEK_clean_linker_0
_symmetry_space_group_name_H-M    P1
_symmetry_Int_Tables_number       1
_symmetry_cell_setting            triclinic
loop_
_symmetry_equiv_pos_as_xyz
'x, y, z'
_cell_length_a     33.073769
_cell_length_b     39.474199
_cell_length_c     34.947703
_cell_angle_alpha  89.98247
_cell_angle_beta   90.024918
_cell_angle_gamma 90.160048
loop_
_atom_site_label
_atom_site_type_symbol
_atom_site_fract_x
_atom_site_fract_y
_atom_site_fract_z
_atom_type_partial_charge
C0 C 0.39881 0.32036 0.52675 0.0
C1 C 0.37358 0.29944 0.54865 0.0
C2 C 0.34123 0.28257 0.53082 0.0
C3 C 0.33401 0.28709 0.49151 0.0
H4 H 0.26014 0.25786 0.39828 0.0
H5 H 0.20623 0.22933 0.36262 0.0
H6 H 0.23731 0.28603 0.26142 0.0
H7 H 0.29124 0.31489 0.29658 0.0
H8 H 0.33127 0.3955 0.32554 0.0
H9 H 0.3629 0.44822 0.30368 0.0
H10 H 0.47515 0.41863 0.35677 0.0
H11 H 0.44293 0.36661 0.38053 0.0
H12 H 0.41181 0.34153 0.47205 0.0
H13 H 0.42401 0.33348 0.54001 0.0
H14 H 0.32149 0.26625 0.54735 0.0
H15 H 0.30854 0.27419 0.47852 0.0
N16 N 0.32087 0.29885 0.40912 0.0
N17 N 0.33374 0.33188 0.35448 0.0
N18 N 0.37203 0.34015 0.41005 0.0
C19 C 0.3125 0.30674 0.37193 0.0
C20 C 0.36367 0.34847 0.37326 0.0
C21 C 0.35071 0.31554 0.42839 0.0
C22 C 0.28006 0.28883 0.35047 0.0
C23 C 0.25566 0.26432 0.36847 0.0
C24 C 0.22483 0.24799 0.34815 0.0
C25 C 0.21781 0.2558 0.30955 0.0
C26 C 0.24226 0.27985 0.29126 0.0
C27 C 0.27304 0.29629 0.31154 0.0
C28 C 0.3846 0.3773 0.35509 0.0
C29 C 0.36287 0.40001 0.33202 0.0
C30 C 0.38089 0.43007 0.31947 0.0
C31 C 0.4212 0.43744 0.32896 0.0
C32 C 0.44391 0.41346 0.34942 0.0
C33 C 0.42549 0.38391 0.36306 0.0
C34 C 0.35902 0.30861 0.46956 0.0
C35 C 0.39171 0.32489 0.48777 0.0
C36 C 0.15295 0.20467 0.02652 0.0
C37 C 0.12257 0.18554 0.04448 0.0
C38 C 0.10019 0.1622 0.02286 0.0
C39 C 0.10786 0.15794 0.98389 0.0
H40 H 0.23428 0.23325 0.89651 0.0
H41 H 0.28848 0.26304 0.86256 0.0
H42 H 0.25597 0.21216 0.75789 0.0
H43 H 0.20173 0.18213 0.79128 0.0
H44 H 0.15808 0.1129 0.79859 0.0
H45 H 0.13618 0.05921 0.77086 0.0
H46 H 0.05057 0.04582 0.86255 0.0
H47 H 0.07273 0.09938 0.89122 0.0
H48 H 0.18433 0.21552 0.97418 0.0
H49 H 0.17058 0.22277 0.04283 0.0
H50 H 0.07663 0.1472 0.03626 0.0
H51 H 0.08988 0.13961 0.96827 0.0
N52 N 0.17423 0.19095 0.90513 0.0
N53 N 0.16307 0.15959 0.8491 0.0
N54 N 0.12744 0.14606 0.90488 0.0
C55 C 0.18243 0.18517 0.86748 0.0
C56 C 0.13554 0.13994 0.86741 0.0
C57 C 0.14655 0.17154 0.92402 0.0
C58 C 0.2137 0.20508 0.8468 0.0
C59 C 0.23836 0.22849 0.86624 0.0
C60 C 0.26938 0.24551 0.84693 0.0
C61 C 0.27624 0.23948 0.80791 0.0
C62 C 0.25116 0.2169 0.78808 0.0
C63 C 0.22021 0.1998 0.80734 0.0
C64 C 0.1176 0.11027 0.84755 0.0
C65 C 0.13398 0.09902 0.8126 0.0
C66 C 0.12139 0.0684 0.79648 0.0
C67 C 0.09173 0.04875 0.81461 0.0
C68 C 0.07329 0.06089 0.84805 0.0
C69 C 0.08624 0.09136 0.86451 0.0
C70 C 0.1382 0.17697 0.96547 0.0
C71 C 0.16064 0.2005 0.98728 0.0
C72 C 0.84349 0.20306 0.48857 0.0
C73 C 0.87384 0.18403 0.47062 0.0
C74 C 0.89643 0.16099 0.49231 0.0
C75 C 0.88905 0.15695 0.53137 0.0
H76 H 0.75771 0.22647 0.6181 0.0
H77 H 0.70419 0.25626 0.65272 0.0
H78 H 0.75013 0.21827 0.75979 0.0
H79 H 0.80359 0.18804 0.72562 0.0
H80 H 0.84001 0.11183 0.71659 0.0
H81 H 0.8623 0.05805 0.74373 0.0
H82 H 0.94907 0.047 0.6527 0.0
H83 H 0.92654 0.1006 0.62465 0.0
H84 H 0.81245 0.21406 0.54101 0.0
H85 H 0.82571 0.22093 0.4722 0.0
H86 H 0.91997 0.14608 0.47893 0.0
H87 H 0.90722 0.13887 0.54704 0.0
N88 N 0.82338 0.19015 0.61035 0.0
N89 N 0.8355 0.15944 0.6667 0.0
N90 N 0.87034 0.14565 0.6106 0.0
C91 C 0.81579 0.18471 0.64819 0.0
C92 C 0.86281 0.13981 0.64824 0.0
C93 C 0.85088 0.17078 0.59137 0.0
C94 C 0.78486 0.20468 0.66899 0.0
C95 C 0.75667 0.22455 0.649 0.0
C96 C 0.72598 0.24147 0.66869 0.0
C97 C 0.72311 0.23906 0.70866 0.0
C98 C 0.75176 0.22011 0.7289 0.0
C99 C 0.78224 0.2029 0.70923 0.0
C100 C 0.88105 0.11032 0.66803 0.0
C101 C 0.86447 0.09845 0.70267 0.0
C102 C 0.87727 0.06779 0.71843 0.0
C103 C 0.90734 0.04875 0.70025 0.0
C104 C 0.92602 0.06159 0.66723 0.0
C105 C 0.91286 0.09207 0.65112 0.0
C106 C 0.85878 0.17592 0.5498 0.0
C107 C 0.83609 0.19911 0.5279 0.0
C108 C 0.65562 0.28487 0.988 0.0
C109 C 0.62431 0.30275 0.96994 0.0
C110 C 0.59967 0.32412 0.99176 0.0
C111 C 0.60621 0.32791 0.03096 0.0
H112 H 0.73317 0.25586 0.12045 0.0
H113 H 0.78718 0.22695 0.15535 0.0
H114 H 0.75405 0.27943 0.2587 0.0
H115 H 0.69998 0.30863 0.22432 0.0
H116 H 0.65633 0.37919 0.21314 0.0
H117 H 0.63326 0.43368 0.23764 0.0
H118 H 0.54302 0.43855 0.14884 0.0
H119 H 0.56641 0.38419 0.12337 0.0
H120 H 0.68676 0.27477 0.04069 0.0
H121 H 0.67498 0.26829 0.97152 0.0
H122 H 0.57535 0.33809 0.9783 0.0
H123 H 0.58657 0.34484 0.04667 0.0
N124 N 0.67321 0.29753 0.11042 0.0
N125 N 0.66049 0.32921 0.16594 0.0
N126 N 0.62511 0.34115 0.10958 0.0
C127 C 0.68078 0.30387 0.1481 0.0
C128 C 0.63256 0.34791 0.14701 0.0
C129 C 0.64519 0.31604 0.09098 0.0
C130 C 0.71225 0.28477 0.1694 0.0
C131 C 0.73711 0.2612 0.15062 0.0
C132 C 0.76801 0.24467 0.17049 0.0
C133 C 0.77463 0.25133 0.20943 0.0
C134 C 0.74944 0.27416 0.22859 0.0
C135 C 0.71858 0.2908 0.20876 0.0
C136 C 0.6137 0.37759 0.16581 0.0
C137 C 0.63096 0.39136 0.19921 0.0
C138 C 0.61773 0.42246 0.21343 0.0
C139 C 0.5866 0.44006 0.19495 0.0
C140 C 0.56703 0.42517 0.16351 0.0
C141 C 0.58067 0.39427 0.14886 0.0
C142 C 0.63767 0.31038 0.04944 0.0
C143 C 0.66219 0.28858 0.02751 0.0
C144 C 0.59879 0.67409 0.48732 0.0
C145 C 0.6255 0.69432 0.46619 0.0
C146 C 0.65781 0.71044 0.48487 0.0
C147 C 0.66344 0.70594 0.52438 0.0
H148 H 0.73119 0.73655 0.61882 0.0
H149 H 0.78852 0.76152 0.65269 0.0
H150 H 0.76089 0.70161 0.75241 0.0
H151 H 0.70318 0.67623 0.71891 0.0
H152 H 0.62508 0.62761 0.71798 0.0
H153 H 0.59569 0.57554 0.74456 0.0
H154 H 0.54914 0.54911 0.63328 0.0
H155 H 0.57737 0.60099 0.60658 0.0
H156 H 0.58312 0.65348 0.54164 0.0
H157 H 0.57365 0.66151 0.47331 0.0
H158 H 0.67872 0.72615 0.46887 0.0
H159 H 0.68885 0.7183 0.53811 0.0
N160 N 0.67266 0.69484 0.60704 0.0
N161 N 0.65615 0.66334 0.66196 0.0
N162 N 0.6207 0.65447 0.60486 0.0
C163 C 0.67916 0.6875 0.64465 0.0
C164 C 0.62676 0.64675 0.64225 0.0
C165 C 0.64329 0.67849 0.58699 0.0
C166 C 0.71255 0.70419 0.66598 0.0
C167 C 0.73697 0.72871 0.64801 0.0
C168 C 0.76976 0.74306 0.6673 0.0
C169 C 0.77884 0.73323 0.70486 0.0
C170 C 0.75423 0.70938 0.72336 0.0
C171 C 0.72131 0.69497 0.70409 0.0
C172 C 0.60425 0.61824 0.65997 0.0
C173 C 0.60794 0.61105 0.6993 0.0
C174 C 0.59103 0.58145 0.71461 0.0
C175 C 0.5708 0.55842 0.69068 0.0
C176 C 0.56483 0.56657 0.65209 0.0
C177 C 0.58119 0.59625 0.63689 0.0
C178 C 0.63688 0.68515 0.54558 0.0
C179 C 0.60434 0.66954 0.52648 0.0
C180 C 0.89495 0.82179 0.98488 0.0
C181 C 0.86661 0.80402 0.96287 0.0
C182 C 0.83308 0.78905 0.98087 0.0
C183 C 0.82788 0.79232 0.0206 0.0
H184 H 0.76094 0.75922 0.11624 0.0
H185 H 0.70441 0.73393 0.15114 0.0
H186 H 0.73585 0.79171 0.25144 0.0
H187 H 0.7927 0.81729 0.217 0.0
H188 H 0.87283 0.86301 0.2167 0.0
H189 H 0.90337 0.91413 0.24446 0.0
H190 H 0.94714 0.9435 0.13312 0.0
H191 H 0.91783 0.89256 0.10526 0.0
H192 H 0.91232 0.83934 0.04007 0.0
H193 H 0.92104 0.83343 0.97143 0.0
H194 H 0.8109 0.77523 0.96419 0.0
H195 H 0.80151 0.78098 0.03383 0.0
N196 N 0.82051 0.80033 0.10423 0.0
N197 N 0.83897 0.83003 0.15989 0.0
N198 N 0.87387 0.83945 0.10268 0.0
C199 C 0.81485 0.8069 0.14216 0.0
C200 C 0.86862 0.84637 0.14034 0.0
C201 C 0.85022 0.81646 0.08434 0.0
C202 C 0.78145 0.79041 0.16367 0.0
C203 C 0.7561 0.76655 0.14574 0.0
C204 C 0.72376 0.75205 0.16561 0.0
C205 C 0.71607 0.76113 0.20369 0.0
C206 C 0.74142 0.78452 0.222 0.0
C207 C 0.77387 0.79904 0.20218 0.0
C208 C 0.89218 0.87398 0.1586 0.0
C209 C 0.88965 0.87999 0.19825 0.0
C210 C 0.90723 0.90903 0.21423 0.0
C211 C 0.92688 0.93267 0.19064 0.0
C212 C 0.93187 0.92557 0.15167 0.0
C213 C 0.9149 0.89643 0.13581 0.0
C214 C 0.85606 0.81075 0.04267 0.0
C215 C 0.88981 0.82513 0.02423 0.0
C216 C 0.1032 0.82247 0.52586 0.0
C217 C 0.13022 0.80307 0.54749 0.0
C218 C 0.16224 0.78646 0.52905 0.0
C219 C 0.16713 0.7895 0.48925 0.0
H220 H 0.23236 0.75535 0.39393 0.0
H221 H 0.28687 0.72782 0.35871 0.0
H222 H 0.25174 0.7802 0.25583 0.0
H223 H 0.19691 0.80813 0.29068 0.0
H224 H 0.12522 0.86246 0.29339 0.0
H225 H 0.09569 0.91408 0.26603 0.0
H226 H 0.05184 0.94277 0.37747 0.0
H227 H 0.08013 0.89142 0.40492 0.0
H228 H 0.08654 0.84101 0.4709 0.0
H229 H 0.07829 0.83542 0.53963 0.0
H230 H 0.18339 0.77139 0.54542 0.0
H231 H 0.19225 0.77674 0.47566 0.0
N232 N 0.17347 0.79671 0.40538 0.0
N233 N 0.15587 0.82666 0.34963 0.0
N234 N 0.12323 0.83834 0.40748 0.0
C235 C 0.17863 0.80255 0.36721 0.0
C236 C 0.12803 0.84464 0.36962 0.0
C237 C 0.14557 0.81447 0.42567 0.0
C238 C 0.21025 0.78419 0.34531 0.0
C239 C 0.23587 0.76096 0.36378 0.0
C240 C 0.26706 0.74515 0.34371 0.0
C241 C 0.2733 0.75216 0.30482 0.0
C242 C 0.24733 0.77459 0.28588 0.0
C243 C 0.21608 0.79052 0.30596 0.0
C244 C 0.10572 0.87301 0.35152 0.0
C245 C 0.10867 0.87944 0.31196 0.0
C246 C 0.0917 0.90879 0.29621 0.0
C247 C 0.07216 0.93231 0.31993 0.0
C248 C 0.06701 0.92495 0.35881 0.0
C249 C 0.08342 0.89555 0.37444 0.0
C250 C 0.14018 0.80937 0.46752 0.0
C251 C 0.10806 0.82561 0.48644 0.0
C252 C 0.38994 0.66358 0.03087 0.0
C253 C 0.36192 0.68176 0.05268 0.0
C254 C 0.32881 0.69702 0.03445 0.0
C255 C 0.32398 0.69402 0.99465 0.0
H256 H 0.25957 0.72939 0.89913 0.0
H257 H 0.20413 0.75596 0.86415 0.0
H258 H 0.23703 0.70118 0.76227 0.0
H259 H 0.29283 0.67429 0.79682 0.0
H260 H 0.37083 0.62665 0.79751 0.0
H261 H 0.40243 0.5765 0.76892 0.0
H262 H 0.44683 0.54651 0.87979 0.0
H263 H 0.41644 0.59646 0.90849 0.0
H264 H 0.4075 0.64609 0.97575 0.0
H265 H 0.4157 0.65168 0.04449 0.0
H266 H 0.30687 0.71114 0.05096 0.0
H267 H 0.2981 0.70582 0.98121 0.0
N268 N 0.31809 0.68761 0.91081 0.0
N269 N 0.33752 0.65938 0.85454 0.0
N270 N 0.37084 0.64817 0.91219 0.0
C271 C 0.31328 0.68215 0.87254 0.0
C272 C 0.36645 0.64233 0.87418 0.0
C273 C 0.34702 0.67074 0.9308 0.0
C274 C 0.28071 0.69954 0.85093 0.0
C275 C 0.25532 0.723 0.86926 0.0
C276 C 0.22361 0.73826 0.84934 0.0
C277 C 0.21661 0.73038 0.81079 0.0
C278 C 0.24209 0.70747 0.79206 0.0
C279 C 0.27392 0.69218 0.81195 0.0
C280 C 0.39038 0.61528 0.85546 0.0
C281 C 0.38799 0.60975 0.8157 0.0
C282 C 0.40617 0.58126 0.79924 0.0
C283 C 0.42637 0.55771 0.82244 0.0
C284 C 0.43116 0.56437 0.86153 0.0
C285 C 0.41354 0.59294 0.87788 0.0
C286 C 0.35207 0.6755 0.97272 0.0
C287 C 0.38513 0.66045 0.99145 0.0
Zn288 Zn 0.03391 0.13678 0.32548 0.0
Zn289 Zn 0.96239 0.13787 0.18909 0.0
Zn290 Zn -0.00177 0.14017 0.25727 0.0
C291 C 0.03865 0.16753 0.1788 0.0
C292 C 0.96724 0.0719 0.21353 0.0
O293 O 0.9565 0.16396 0.2994 0.0
O294 O 0.98746 0.15453 0.35466 0.0
C295 C 0.08176 0.17771 0.27806 0.0
O296 O 0.03976 0.16512 0.21561 0.0
O297 O 0.00852 0.15673 0.16025 0.0
O298 O 0.95151 0.0886 0.18663 0.0
O299 O 0.98645 0.08704 0.24068 0.0
O300 O 0.07844 0.16794 0.31228 0.0
O301 O 0.05552 0.16893 0.25263 0.0
O302 O 0.01097 0.08681 0.27264 0.0
O303 O 0.04571 0.08766 0.32683 0.0
C304 C 0.03035 0.07133 0.29941 0.0
O305 O 0.94022 0.1677 0.2626 0.0
O306 O 0.91722 0.16789 0.20296 0.0
C307 C 0.95747 0.16564 0.33625 0.0
C308 C 0.91371 0.1766 0.23752 0.0
Zn309 Zn 0.53453 0.35266 0.68824 0.0
Zn310 Zn 0.46597 0.35407 0.82681 0.0
Zn311 Zn 0.50036 0.35067 0.75775 0.0
C312 C 0.47028 0.41965 0.80039 0.0
C313 C 0.4161 0.3146 0.77984 0.0
O314 O 0.55816 0.32302 0.76217 0.0
O315 O 0.58049 0.32341 0.70231 0.0
C316 C 0.53017 0.41881 0.71254 0.0
O317 O 0.4885 0.40405 0.77303 0.0
O318 O 0.45578 0.40344 0.82831 0.0
O319 O 0.42007 0.32413 0.81408 0.0
O320 O 0.44239 0.32283 0.75425 0.0
O321 O 0.54445 0.40209 0.68496 0.0
O322 O 0.51225 0.40369 0.7405 0.0
O323 O 0.45815 0.32522 0.71717 0.0
O324 O 0.48796 0.3325 0.66094 0.0
C325 C 0.45844 0.32188 0.68045 0.0
O326 O 0.5426 0.32657 0.79929 0.0
O327 O 0.5124 0.33518 0.85507 0.0
C328 C 0.58446 0.3145 0.73677 0.0
C329 C 0.54206 0.32424 0.8361 0.0
Zn330 Zn 0.02855 0.84751 0.82089 0.0
Zn331 Zn 0.97066 0.84748 0.69091 0.0
Zn332 Zn -0.00019 0.84749 0.75584 0.0
C333 C 0.95335 0.9109 0.72375 0.0
C334 C 0.92326 0.8038 0.73141 0.0
O335 O 0.05654 0.81849 0.75316 0.0
O336 O 0.06521 0.80819 0.8148 0.0
C337 C 0.04652 0.91096 0.78844 0.0
O338 O 0.98143 0.9008 0.74662 0.0
O339 O 0.94416 0.89223 0.69574 0.0
O340 O 0.93348 0.80828 0.697 0.0
O341 O 0.94276 0.81868 0.75852 0.0
O342 O 0.05551 0.8922 0.8164 0.0
O343 O 0.01864 0.90082 0.7653 0.0
O344 O 0.95544 0.82419 0.79597 0.0
O345 O 0.97909 0.84158 0.85178 0.0
C346 C 0.9517 0.82731 0.83249 0.0
O347 O 0.0438 0.82395 0.71559 0.0
O348 O 0.01994 0.84137 0.65989 0.0
C349 C 0.07557 0.80354 0.78047 0.0
C350 C 0.0473 0.827 0.67903 0.0
Zn351 Zn 0.52723 0.64422 0.19241 0.0
Zn352 Zn 0.46549 0.64376 0.32534 0.0
Zn353 Zn 0.49931 0.64235 0.25951 0.0
C354 C 0.54158 0.67139 0.33527 0.0
C355 C 0.46736 0.57635 0.30215 0.0
O356 O 0.45268 0.66188 0.21852 0.0
O357 O 0.47909 0.653 0.16125 0.0
C358 C 0.57471 0.6881 0.23384 0.0
O359 O 0.54056 0.67014 0.29846 0.0
O360 O 0.51318 0.65893 0.35485 0.0
O361 O 0.44976 0.59536 0.32588 0.0
O362 O 0.49101 0.58915 0.27661 0.0
O363 O 0.56641 0.6816 0.1994 0.0
O364 O 0.55419 0.67446 0.26114 0.0
O365 O 0.52098 0.58962 0.24815 0.0
O366 O 0.55074 0.5984 0.19294 0.0
C367 C 0.54496 0.57938 0.22143 0.0
O368 O 0.43919 0.6677 0.25525 0.0
O369 O 0.42231 0.67667 0.31571 0.0
C370 C 0.44982 0.66234 0.1817 0.0
C371 C 0.4154 0.68066 0.28056 0.0
C372 C 0.01917 0.97544 0.30416 0.0
C373 C 0.06063 0.9664 0.30573 0.0
C374 C 0.0796 0.02476 0.29028 0.0
C375 C 0.03905 0.03479 0.29626 0.0
N376 N 0.96956 0.02042 0.3093 0.0
N377 N 0.13106 0.98313 0.30351 0.0
C378 C 0.00843 0.0103 0.3028 0.0
C379 C 0.09113 0.9911 0.29902 0.0
N380 N 0.99032 0.95062 0.3037 0.0
N381 N 0.107 0.04746 0.27598 0.0
H382 H 0.14121 0.95891 0.31033 0.0
H383 H 0.15408 0.00119 0.3035 0.0
H384 H 0.09929 0.07232 0.26891 0.0
H385 H 0.13607 0.04072 0.26747 0.0
H386 H 0.95976 0.95532 0.29894 0.0
H387 H -0.00238 0.92492 0.30435 0.0
H388 H 0.94667 0.00406 0.31816 0.0
H389 H 0.96064 0.04571 0.30774 0.0
C390 C 0.4083 0.49903 0.80075 0.0
C391 C 0.43843 0.52403 0.80754 0.0
C392 C 0.49141 0.48088 0.80339 0.0
C393 C 0.46111 0.45607 0.79712 0.0
N394 N 0.39322 0.44269 0.77724 0.0
N395 N 0.50839 0.5408 0.80505 0.0
C396 C 0.42035 0.46563 0.79154 0.0
C397 C 0.48004 0.51558 0.80539 0.0
N398 N 0.36827 0.50644 0.80565 0.0
N399 N 0.53059 0.47117 0.80898 0.0
H400 H 0.50057 0.56638 0.8062 0.0
H401 H 0.53899 0.53661 0.79994 0.0
H402 H 0.5399 0.44602 0.80676 0.0
H403 H 0.55343 0.4877 0.81759 0.0
H404 H 0.34559 0.48807 0.80561 0.0
H405 H 0.35771 0.53044 0.81283 0.0
H406 H 0.36395 0.44911 0.76903 0.0
H407 H 0.40136 0.41802 0.76982 0.0
C408 C 0.5906 0.49951 0.70991 0.0
C409 C 0.55977 0.52399 0.70425 0.0
C410 C 0.50793 0.47964 0.70869 0.0
C411 C 0.53888 0.45544 0.71458 0.0
N412 N 0.60763 0.44341 0.7327 0.0
N413 N 0.48943 0.53914 0.70803 0.0
C414 C 0.57958 0.4658 0.71916 0.0
C415 C 0.51842 0.51459 0.70689 0.0
N416 N 0.6303 0.50777 0.70401 0.0
N417 N 0.46894 0.46914 0.7033 0.0
H418 H 0.49651 0.56491 0.70706 0.0
H419 H 0.45906 0.53417 0.71361 0.0
H420 H 0.46023 0.44378 0.70522 0.0
H421 H 0.44568 0.48526 0.69496 0.0
H422 H 0.65337 0.48987 0.70329 0.0
H423 H 0.64008 0.53201 0.69663 0.0
H424 H 0.63694 0.45046 0.74027 0.0
H425 H 0.60038 0.4185 0.74012 0.0
C426 C 0.90737 0.99102 0.21207 0.0
C427 C 0.93813 0.96677 0.20501 0.0
C428 C 0.98985 0.01125 0.20871 0.0
C429 C 0.95896 0.03523 0.21578 0.0
N430 N 0.89089 0.04672 0.23639 0.0
N431 N 0.00862 0.95183 0.20665 0.0
C432 C 0.91853 0.02463 0.22156 0.0
C433 C 0.97949 0.97629 0.20669 0.0
N434 N 0.86752 0.98272 0.2072 0.0
N435 N 0.02858 0.02196 0.20236 0.0
H436 H 0.0016 0.92605 0.20551 0.0
H437 H 0.03913 0.95683 0.21146 0.0
H438 H 0.03722 0.04734 0.20439 0.0
H439 H 0.05165 0.00603 0.19316 0.0
H440 H 0.84437 0.00055 0.20752 0.0
H441 H 0.85758 0.95857 0.19964 0.0
H442 H 0.86192 0.03944 0.24477 0.0
H443 H 0.89833 0.07152 0.24405 0.0
C444 C 0.89465 0.98697 0.69095 0.0
C445 C 0.91418 0.01307 0.71189 0.0
C446 C 0.94599 0.97034 0.75319 0.0
C447 C 0.93333 0.945 0.72691 0.0
N448 N 0.87461 0.92816 0.69065 0.0
N449 N 0.95351 0.03064 0.76648 0.0
C450 C 0.90129 0.95287 0.70148 0.0
C451 C 0.93807 0.00508 0.74447 0.0
N452 N 0.86999 0.9946 0.66075 0.0
N453 N 0.96166 0.96099 0.78772 0.0
H454 H 0.94792 0.05615 0.76084 0.0
H455 H 0.97332 0.02693 0.7892 0.0
H456 H 0.96073 0.93598 0.79719 0.0
H457 H 0.97038 0.97792 0.809 0.0
H458 H 0.85944 0.97638 0.64157 0.0
H459 H 0.86179 0.01927 0.6535 0.0
H460 H 0.8487 0.9329 0.6746 0.0
H461 H 0.87502 0.90397 0.70271 0.0
C462 C 0.59623 0.50172 0.18097 0.0
C463 C 0.57936 0.47613 0.20473 0.0
C464 C 0.55555 0.51988 0.24908 0.0
C465 C 0.56419 0.54482 0.22115 0.0
N466 N 0.6165 0.56038 0.17638 0.0
N467 N 0.54363 0.46043 0.26231 0.0
C468 C 0.59144 0.53617 0.19134 0.0
C469 C 0.55949 0.48506 0.23929 0.0
N470 N 0.61686 0.49323 0.14846 0.0
N471 N 0.54966 0.52935 0.28612 0.0
H472 H 0.54582 0.43467 0.25596 0.0
H473 H 0.52596 0.46574 0.28621 0.0
H474 H 0.55363 0.55434 0.29501 0.0
H475 H 0.5473 0.51207 0.30856 0.0
H476 H 0.62472 0.51084 0.1275 0.0
H477 H 0.62431 0.46841 0.14123 0.0
H478 H 0.63934 0.55523 0.15675 0.0
H479 H 0.61885 0.5846 0.18815 0.0
C480 C 0.44116 0.48355 0.2826 0.0
C481 C 0.43802 0.4717 0.32087 0.0
C482 C 0.46632 0.52523 0.34369 0.0
C483 C 0.46205 0.53925 0.30658 0.0
N484 N 0.44129 0.53243 0.24068 0.0
N485 N 0.44043 0.48438 0.38867 0.0
C486 C 0.44877 0.51855 0.27579 0.0
C487 C 0.44891 0.49327 0.35171 0.0
N488 N 0.43769 0.46129 0.25287 0.0
N489 N 0.48777 0.54217 0.37114 0.0
H490 H 0.42554 0.46205 0.39615 0.0
H491 H 0.44427 0.50095 0.41161 0.0
H492 H 0.50258 0.56506 0.36574 0.0
H493 H 0.49477 0.53155 0.39763 0.0
H494 H 0.44373 0.4679 0.22458 0.0
H495 H 0.43282 0.43541 0.25699 0.0
H496 H 0.42759 0.51906 0.21847 0.0
H497 H 0.44555 0.55803 0.23462 0.0
C498 C 0.06106 0.00556 0.76962 0.0
C499 C 0.08505 0.01321 0.80228 0.0
C500 C 0.09848 0.95296 0.81127 0.0
C501 C 0.06641 0.94524 0.78576 0.0
N502 N 0.03767 0.96203 0.72545 0.0
N503 N 0.12973 0.99429 0.85273 0.0
C504 C 0.05342 0.9709 0.76013 0.0
C505 C 0.10494 0.98693 0.82251 0.0
N506 N 0.04524 0.03135 0.74829 0.0
N507 N 0.12526 0.92828 0.82158 0.0
H508 H 0.1378 0.01891 0.86046 0.0
H509 H 0.14057 0.97586 0.87144 0.0
H510 H 0.12481 0.90424 0.80913 0.0
H511 H 0.15121 0.93293 0.83765 0.0
H512 H 0.02539 0.02783 0.72555 0.0
H513 H 0.05056 0.05681 0.75453 0.0
H514 H 0.02871 0.97925 0.7046 0.0
H515 H 0.03873 0.9372 0.71543 0.0
C516 C 0.08516 0.21401 0.09826 0.0
C517 C 0.11325 0.18918 0.08598 0.0
C518 C 0.10465 0.15807 0.14615 0.0
C519 C 0.07313 0.18061 0.15617 0.0
N520 N 0.04269 0.23523 0.14988 0.0
N521 N 0.1593 0.14445 0.10219 0.0
C522 C 0.06696 0.21063 0.13497 0.0
C523 C 0.12649 0.16365 0.1116 0.0
N524 N 0.07402 0.23937 0.07386 0.0
N525 N 0.1114 0.13005 0.16817 0.0
H526 H 0.17545 0.14826 0.07689 0.0
H527 H 0.17253 0.12694 0.12058 0.0
H528 H 0.09649 0.12606 0.19409 0.0
H529 H 0.13058 0.11038 0.16042 0.0
H530 H 0.05045 0.25611 0.07925 0.0
H531 H 0.08765 0.24294 0.04725 0.0
H532 H 0.03863 0.25894 0.13743 0.0
H533 H 0.02944 0.23267 0.17686 0.0
C534 C 0.36889 0.32243 0.61511 0.0
C535 C 0.38203 0.29626 0.59033 0.0
C536 C 0.42985 0.27693 0.63914 0.0
C537 C 0.42369 0.30761 0.65912 0.0
N538 N 0.38434 0.35769 0.67033 0.0
N539 N 0.42071 0.24562 0.57984 0.0
C540 C 0.39133 0.32929 0.64904 0.0
C541 C 0.4105 0.272 0.60318 0.0
N542 N 0.33578 0.34113 0.60532 0.0
N543 N 0.4552 0.25327 0.65441 0.0
H544 H 0.40584 0.24097 0.55402 0.0
H545 H 0.44431 0.22897 0.58539 0.0
H546 H 0.46926 0.25698 0.68087 0.0
H547 H 0.45962 0.22928 0.64284 0.0
H548 H 0.32271 0.35923 0.62302 0.0
H549 H 0.31931 0.33638 0.5804 0.0
H550 H 0.36429 0.37674 0.66254 0.0
H551 H 0.39978 0.36258 0.69578 0.0
C552 C 0.58963 0.27512 0.91395 0.0
C553 C 0.61656 0.30021 0.92806 0.0
C554 C 0.60739 0.33388 0.86983 0.0
C555 C 0.57673 0.31098 0.85818 0.0
N556 N 0.54808 0.25531 0.86081 0.0
N557 N 0.6611 0.347 0.91514 0.0
C558 C 0.57149 0.27978 0.87739 0.0
C559 C 0.62914 0.32728 0.90418 0.0
N560 N 0.57954 0.24818 0.93658 0.0
N561 N 0.61328 0.36309 0.8496 0.0
H562 H 0.67712 0.34242 0.94035 0.0
H563 H 0.67382 0.3658 0.89805 0.0
H564 H 0.59824 0.36791 0.82392 0.0
H565 H 0.63181 0.38288 0.85861 0.0
H566 H 0.55681 0.23087 0.92996 0.0
H567 H 0.59335 0.24374 0.96295 0.0
H568 H 0.54465 0.23096 0.87177 0.0
H569 H 0.53488 0.25885 0.83394 0.0
C570 C 0.86975 0.16177 0.40369 0.0
C571 C 0.88301 0.18752 0.42907 0.0
C572 C 0.92937 0.20882 0.37993 0.0
C573 C 0.92313 0.17865 0.35899 0.0
N574 N 0.8847 0.12799 0.34727 0.0
N575 N 0.92225 0.23796 0.44075 0.0
C576 C 0.89156 0.15608 0.36917 0.0
C577 C 0.91113 0.21238 0.41658 0.0
N578 N 0.83696 0.14246 0.4133 0.0
N579 N 0.95373 0.2334 0.36484 0.0
H580 H 0.90857 0.24167 0.4673 0.0
H581 H 0.94585 0.25475 0.43524 0.0
H582 H 0.96702 0.23072 0.3379 0.0
H583 H 0.95782 0.2572 0.37709 0.0
H584 H 0.82375 0.12472 0.39513 0.0
H585 H 0.82083 0.14637 0.43858 0.0
H586 H 0.8654 0.10831 0.35507 0.0
H587 H 0.8996 0.12397 0.32136 0.0
C588 C 0.89786 0.77652 0.9055 0.0
C589 C 0.87306 0.8024 0.92085 0.0
C590 C 0.8865 0.83844 0.86532 0.0
C591 C 0.91578 0.81472 0.85315 0.0
N592 N 0.93985 0.75756 0.8524 0.0
N593 N 0.83318 0.85232 0.91066 0.0
C594 C 0.91777 0.78223 0.86998 0.0
C595 C 0.86341 0.83134 0.89871 0.0
N596 N 0.90435 0.74771 0.92623 0.0
N597 N 0.883 0.8685 0.84625 0.0
H598 H 0.81622 0.84722 0.93519 0.0
H599 H 0.82281 0.873 0.89507 0.0
H600 H 0.8989 0.8734 0.82103 0.0
H601 H 0.86531 0.88865 0.85548 0.0
H602 H 0.9254 0.72929 0.91893 0.0
H603 H 0.88894 0.74269 0.95167 0.0
H604 H 0.94103 0.73254 0.86169 0.0
H605 H 0.95439 0.7618 0.8263 0.0
C606 C 0.59161 0.72221 0.41041 0.0
C607 C 0.61871 0.69733 0.42433 0.0
C608 C 0.60792 0.66279 0.36714 0.0
C609 C 0.57669 0.68524 0.35616 0.0
N610 N 0.54785 0.74074 0.35836 0.0
N611 N 0.66296 0.65065 0.41127 0.0
C612 C 0.57205 0.71678 0.37467 0.0
C613 C 0.63073 0.67005 0.40066 0.0
N614 N 0.58276 0.74965 0.43264 0.0
N615 N 0.61333 0.63339 0.3472 0.0
H616 H 0.67965 0.65578 0.43598 0.0
H617 H 0.67517 0.63156 0.39436 0.0
H618 H 0.59735 0.62808 0.32214 0.0
H619 H 0.63247 0.61396 0.35582 0.0
H620 H 0.56012 0.76702 0.42632 0.0
H621 H 0.59784 0.75453 0.4583 0.0
H622 H 0.54455 0.76522 0.36893 0.0
H623 H 0.53364 0.73663 0.33205 0.0
C624 C 0.39269 0.71079 0.10943 0.0
C625 C 0.36867 0.68402 0.09464 0.0
C626 C 0.38421 0.6489 0.1504 0.0
C627 C 0.41278 0.67359 0.16193 0.0
N628 N 0.43462 0.73146 0.16186 0.0
N629 N 0.33069 0.63311 0.10592 0.0
C630 C 0.41325 0.70599 0.14477 0.0
C631 C 0.36036 0.65504 0.11724 0.0
N632 N 0.39801 0.73957 0.0883 0.0
N633 N 0.38226 0.61882 0.16965 0.0
H634 H 0.31321 0.63756 0.08155 0.0
H635 H 0.32125 0.6123 0.12189 0.0
H636 H 0.39885 0.61452 0.1946 0.0
H637 H 0.36521 0.59808 0.16076 0.0
H638 H 0.41855 0.75862 0.0952 0.0
H639 H 0.38222 0.74395 0.06293 0.0
H640 H 0.43459 0.75646 0.15244 0.0
H641 H 0.44983 0.72775 0.18772 0.0
C642 C 0.135 0.82966 0.61202 0.0
C643 C 0.12385 0.80126 0.58954 0.0
C644 C 0.07896 0.78159 0.64066 0.0
C645 C 0.08258 0.81378 0.658 0.0
N646 N 0.11779 0.86654 0.6654 0.0
N647 N 0.08989 0.74756 0.58365 0.0
C648 C 0.11269 0.83688 0.64583 0.0
C649 C 0.09808 0.77586 0.60478 0.0
N650 N 0.16595 0.85002 0.60003 0.0
N651 N 0.05611 0.75725 0.65816 0.0
H652 H 0.1046 0.74244 0.55789 0.0
H653 H 0.06805 0.72967 0.59093 0.0
H654 H 0.04216 0.76152 0.68452 0.0
H655 H 0.05379 0.73238 0.64853 0.0
H656 H 0.17737 0.87025 0.61579 0.0
H657 H 0.18238 0.8448 0.57523 0.0
H658 H 0.13623 0.88635 0.6563 0.0
H659 H 0.1025 0.87143 0.69094 0.0
C660 C 0.19021 0.20453 0.27644 0.0
C661 C 0.18458 0.23842 0.2887 0.0
C662 C 0.1126 0.23464 0.27253 0.0
C663 C 0.11692 0.19922 0.26875 0.0
N664 N 0.15895 0.15003 0.26284 0.0
N665 N 0.14145 0.28711 0.2965 0.0
C666 C 0.15571 0.18417 0.26849 0.0
C667 C 0.14619 0.25419 0.28527 0.0
N668 N 0.22849 0.19197 0.27296 0.0
N669 N 0.07601 0.24913 0.26493 0.0
H670 H 0.16556 0.3023 0.30533 0.0
H671 H 0.11352 0.299 0.29882 0.0
H672 H 0.05126 0.23485 0.25566 0.0
H673 H 0.07115 0.27516 0.26436 0.0
H674 H 0.23504 0.16831 0.26146 0.0
H675 H 0.25415 0.20654 0.27876 0.0
H676 H 0.18556 0.13643 0.26659 0.0
H677 H 0.13409 0.13505 0.25542 0.0
C678 C 0.34812 0.23986 0.78449 0.0
C679 C 0.31043 0.25669 0.78837 0.0
C680 C 0.34179 0.31067 0.77079 0.0
C681 C 0.37988 0.29439 0.77046 0.0
N682 N 0.41857 0.24338 0.7647 0.0
N683 N 0.2687 0.30503 0.77467 0.0
C684 C 0.38263 0.25876 0.77277 0.0
C685 C 0.30638 0.29115 0.7777 0.0
N686 N 0.35135 0.20645 0.79432 0.0
N687 N 0.34007 0.34506 0.76658 0.0
H688 H 0.24238 0.29109 0.77973 0.0
H689 H 0.26325 0.32928 0.76424 0.0
H690 H 0.36555 0.35951 0.75978 0.0
H691 H 0.31408 0.35935 0.77089 0.0
H692 H 0.37873 0.19366 0.79634 0.0
H693 H 0.32655 0.19172 0.80237 0.0
H694 H 0.42221 0.21725 0.76295 0.0
H695 H 0.44406 0.25712 0.75625 0.0
C696 C 0.65302 0.23932 0.73611 0.0
C697 C 0.68983 0.25678 0.72884 0.0
C698 C 0.65829 0.31055 0.74671 0.0
C699 C 0.62028 0.29408 0.74645 0.0
N700 N 0.58034 0.24327 0.7465 0.0
N701 N 0.72993 0.30771 0.73149 0.0
C702 C 0.61747 0.25838 0.74388 0.0
C703 C 0.69338 0.29199 0.73627 0.0
N704 N 0.65215 0.20472 0.73467 0.0
N705 N 0.66016 0.34412 0.75612 0.0
H706 H 0.75638 0.2944 0.72542 0.0
H707 H 0.73422 0.33379 0.73262 0.0
H708 H 0.6344 0.35783 0.76358 0.0
H709 H 0.68689 0.35776 0.75928 0.0
H710 H 0.62718 0.19006 0.74207 0.0
H711 H 0.6776 0.19026 0.72825 0.0
H712 H 0.5748 0.2178 0.74097 0.0
H713 H 0.55441 0.2568 0.75387 0.0
C714 C 0.8464 0.25126 0.23334 0.0
C715 C 0.80859 0.23441 0.22956 0.0
C716 C 0.83963 0.18055 0.24769 0.0
C717 C 0.87784 0.19678 0.2477 0.0
N718 N 0.91691 0.24778 0.25303 0.0
N719 N 0.76655 0.18621 0.24383 0.0
C720 C 0.88081 0.2324 0.24515 0.0
C721 C 0.80432 0.20004 0.24063 0.0
N722 N 0.84983 0.28461 0.22329 0.0
N723 N 0.83769 0.1462 0.25224 0.0
H724 H 0.74034 0.20014 0.23866 0.0
H725 H 0.76094 0.16203 0.25447 0.0
H726 H 0.86314 0.13181 0.25904 0.0
H727 H 0.81157 0.13188 0.24823 0.0
H728 H 0.87729 0.29741 0.22123 0.0
H729 H 0.82511 0.2993 0.21519 0.0
H730 H 0.92082 0.27391 0.2545 0.0
H731 H 0.94226 0.23401 0.26159 0.0
C732 C 0.81304 0.78059 0.73971 0.0
C733 C 0.81515 0.74763 0.72381 0.0
C734 C 0.88877 0.74803 0.73112 0.0
C735 C 0.88699 0.78309 0.73909 0.0
N736 N 0.84844 0.83318 0.75342 0.0
N737 N 0.8541 0.69856 0.70602 0.0
C738 C 0.84936 0.79935 0.74513 0.0
C739 C 0.85274 0.7306 0.7208 0.0
N740 N 0.77624 0.7939 0.74902 0.0
N741 N 0.92514 0.7318 0.73311 0.0
H742 H 0.82815 0.68474 0.69922 0.0
H743 H 0.88079 0.68619 0.69888 0.0
H744 H 0.95168 0.74442 0.74095 0.0
H745 H 0.92848 0.70569 0.73054 0.0
H746 H 0.77258 0.81665 0.76363 0.0
H747 H 0.74928 0.78057 0.74499 0.0
H748 H 0.82214 0.84759 0.75366 0.0
H749 H 0.87453 0.84735 0.75854 0.0
C750 C 0.68429 0.71304 0.23929 0.0
C751 C 0.68082 0.74603 0.2237 0.0
C752 C 0.60757 0.74452 0.23379 0.0
C753 C 0.61044 0.70946 0.24143 0.0
N754 N 0.65053 0.65989 0.25391 0.0
N755 N 0.64022 0.79472 0.20803 0.0
C756 C 0.64862 0.69375 0.24594 0.0
C757 C 0.64279 0.76257 0.22232 0.0
N758 N 0.72171 0.70018 0.24709 0.0
N759 N 0.57089 0.76009 0.23701 0.0
H760 H 0.66562 0.80893 0.20044 0.0
H761 H 0.61303 0.80687 0.20215 0.0
H762 H 0.54499 0.74694 0.24563 0.0
H763 H 0.56676 0.78613 0.23458 0.0
H764 H 0.72643 0.6774 0.26139 0.0
H765 H 0.74824 0.71385 0.24209 0.0
H766 H 0.67708 0.64583 0.25312 0.0
H767 H 0.62486 0.64539 0.25981 0.0
C768 C 0.30541 0.70227 0.27294 0.0
C769 C 0.30823 0.7365 0.28493 0.0
C770 C 0.38126 0.7359 0.27339 0.0
C771 C 0.37928 0.7003 0.26981 0.0
N772 N 0.34071 0.6492 0.26173 0.0
N773 N 0.34767 0.78733 0.29404 0.0
C774 C 0.34155 0.68346 0.26724 0.0
C775 C 0.34574 0.75403 0.28345 0.0
N776 N 0.26819 0.6879 0.26773 0.0
N777 N 0.41747 0.75194 0.268 0.0
H778 H 0.32206 0.80153 0.30064 0.0
H779 H 0.37459 0.80061 0.29784 0.0
H780 H 0.44365 0.73867 0.26077 0.0
H781 H 0.42093 0.77814 0.26733 0.0
H782 H 0.26365 0.66379 0.25648 0.0
H783 H 0.24145 0.70139 0.2719 0.0
H784 H 0.3147 0.63441 0.2637 0.0
H785 H 0.36686 0.63532 0.25614 0.0
C786 C 0.14359 0.72917 0.79131 0.0
C787 C 0.18164 0.74588 0.79086 0.0
C788 C 0.14976 0.79847 0.76943 0.0
C789 C 0.11153 0.78253 0.7732 0.0
N790 N 0.07191 0.73165 0.77579 0.0
N791 N 0.22291 0.79245 0.76947 0.0
C792 C 0.10853 0.74732 0.77993 0.0
C793 C 0.18535 0.77924 0.77624 0.0
N794 N 0.14081 0.69669 0.80465 0.0
N795 N 0.15176 0.83241 0.76187 0.0
H796 H 0.24935 0.7788 0.77458 0.0
H797 H 0.22793 0.81557 0.75597 0.0
H798 H 0.12622 0.8468 0.7555 0.0
H799 H 0.17826 0.84663 0.76325 0.0
H800 H 0.11354 0.68433 0.80989 0.0
H801 H 0.16609 0.68239 0.81211 0.0
H802 H 0.06774 0.70555 0.77744 0.0
H803 H 0.04612 0.74484 0.76717 0.0
loop_
_geom_bond_atom_site_label_1
_geom_bond_atom_site_label_2
_geom_bond_distance
_geom_bond_site_symmetry_2
_ccdc_geom_bond_type
C0 C1 1.384 . S
C0 H13 0.947 . S
C0 C35 1.382 . S
C1 C0 1.384 . S
C1 C2 1.378 . S
C2 C1 1.378 . S
C2 C3 1.378 . S
C2 H14 0.952 . S
C3 C2 1.378 . S
C3 H15 0.950 . S
C3 C34 1.383 . S
H4 C23 0.947 . S
H5 C24 0.946 . S
H6 C26 0.953 . S
H7 C27 0.945 . S
H8 C29 0.952 . S
H9 C30 0.949 . S
H10 C32 0.950 . S
H11 C33 0.948 . S
H12 C35 0.951 . S
H13 C0 0.947 . S
H14 C2 0.952 . S
H15 C3 0.950 . S
N16 C19 1.382 . S
N16 C21 1.363 . S
N17 C19 1.371 . S
N17 C20 1.372 . S
N18 C20 1.361 . S
N18 C21 1.377 . S
C19 N16 1.382 . S
C19 N17 1.371 . S
C19 C22 1.480 . S
C20 N17 1.372 . S
C20 N18 1.361 . S
C20 C28 1.457 . S
C21 N16 1.363 . S
C21 N18 1.377 . S
C21 C34 1.479 . S
C22 C19 1.480 . S
C22 C23 1.383 . S
C22 C27 1.385 . S
C23 H4 0.947 . S
C23 C22 1.383 . S
C23 C24 1.388 . S
C24 H5 0.946 . S
C24 C23 1.388 . S
C24 C25 1.384 . S
C25 C24 1.384 . S
C25 C26 1.377 . S
C26 H6 0.953 . S
C26 C25 1.377 . S
C26 C27 1.369 . S
C27 H7 0.945 . S
C27 C22 1.385 . S
C27 C26 1.369 . S
C28 C20 1.457 . S
C28 C29 1.372 . S
C28 C33 1.364 . S
C29 H8 0.952 . S
C29 C28 1.372 . S
C29 C30 1.389 . S
C30 H9 0.949 . S
C30 C29 1.389 . S
C30 C31 1.387 . S
C31 C30 1.387 . S
C31 C32 1.372 . S
C32 H10 0.950 . S
C32 C31 1.372 . S
C32 C33 1.379 . S
C33 H11 0.948 . S
C33 C28 1.364 . S
C33 C32 1.379 . S
C34 C3 1.383 . S
C34 C21 1.479 . S
C34 C35 1.398 . S
C35 C0 1.382 . S
C35 H12 0.951 . S
C35 C34 1.398 . S
C36 C37 1.384 . S
C36 H49 0.947 . S
C36 C71 1.382 1_554 S
C37 C36 1.384 . S
C37 C38 1.378 . S
C38 C37 1.378 . S
C38 C39 1.378 1_554 S
C38 H50 0.952 . S
C39 C38 1.378 1_556 S
C39 H51 0.950 . S
C39 C70 1.383 . S
H40 C59 0.947 . S
H41 C60 0.946 . S
H42 C62 0.953 . S
H43 C63 0.945 . S
H44 C65 0.952 . S
H45 C66 0.949 . S
H46 C68 0.950 . S
H47 C69 0.948 . S
H48 C71 0.951 . S
H49 C36 0.947 . S
H50 C38 0.952 . S
H51 C39 0.950 . S
N52 C55 1.382 . S
N52 C57 1.363 . S
N53 C55 1.371 . S
N53 C56 1.372 . S
N54 C56 1.361 . S
N54 C57 1.377 . S
C55 N52 1.382 . S
C55 N53 1.371 . S
C55 C58 1.480 . S
C56 N53 1.372 . S
C56 N54 1.361 . S
C56 C64 1.457 . S
C57 N52 1.363 . S
C57 N54 1.377 . S
C57 C70 1.479 . S
C58 C55 1.480 . S
C58 C59 1.383 . S
C58 C63 1.385 . S
C59 H40 0.947 . S
C59 C58 1.383 . S
C59 C60 1.388 . S
C60 H41 0.946 . S
C60 C59 1.388 . S
C60 C61 1.384 . S
C61 C60 1.384 . S
C61 C62 1.377 . S
C62 H42 0.953 . S
C62 C61 1.377 . S
C62 C63 1.369 . S
C63 H43 0.945 . S
C63 C58 1.385 . S
C63 C62 1.369 . S
C64 C56 1.457 . S
C64 C65 1.372 . S
C64 C69 1.364 . S
C65 H44 0.952 . S
C65 C64 1.372 . S
C65 C66 1.389 . S
C66 H45 0.949 . S
C66 C65 1.389 . S
C66 C67 1.387 . S
C67 C66 1.387 . S
C67 C68 1.372 . S
C68 H46 0.950 . S
C68 C67 1.372 . S
C68 C69 1.379 . S
C69 H47 0.948 . S
C69 C64 1.364 . S
C69 C68 1.379 . S
C70 C39 1.383 . S
C70 C57 1.479 . S
C70 C71 1.398 . S
C71 C36 1.382 1_556 S
C71 H48 0.951 . S
C71 C70 1.398 . S
C72 C73 1.384 . S
C72 H85 0.947 . S
C72 C107 1.382 . S
C73 C72 1.384 . S
C73 C74 1.378 . S
C74 C73 1.378 . S
C74 C75 1.378 . S
C74 H86 0.952 . S
C75 C74 1.378 . S
C75 H87 0.950 . S
C75 C106 1.383 . S
H76 C95 0.947 . S
H77 C96 0.946 . S
H78 C98 0.953 . S
H79 C99 0.945 . S
H80 C101 0.952 . S
H81 C102 0.949 . S
H82 C104 0.950 . S
H83 C105 0.948 . S
H84 C107 0.951 . S
H85 C72 0.947 . S
H86 C74 0.952 . S
H87 C75 0.950 . S
N88 C91 1.382 . S
N88 C93 1.363 . S
N89 C91 1.371 . S
N89 C92 1.372 . S
N90 C92 1.361 . S
N90 C93 1.377 . S
C91 N88 1.382 . S
C91 N89 1.371 . S
C91 C94 1.480 . S
C92 N89 1.372 . S
C92 N90 1.361 . S
C92 C100 1.457 . S
C93 N88 1.363 . S
C93 N90 1.377 . S
C93 C106 1.479 . S
C94 C91 1.480 . S
C94 C95 1.383 . S
C94 C99 1.385 . S
C95 H76 0.947 . S
C95 C94 1.383 . S
C95 C96 1.388 . S
C96 H77 0.946 . S
C96 C95 1.388 . S
C96 C97 1.384 . S
C97 C96 1.384 . S
C97 C98 1.377 . S
C98 H78 0.953 . S
C98 C97 1.377 . S
C98 C99 1.369 . S
C99 H79 0.945 . S
C99 C94 1.385 . S
C99 C98 1.369 . S
C100 C92 1.457 . S
C100 C101 1.372 . S
C100 C105 1.364 . S
C101 H80 0.952 . S
C101 C100 1.372 . S
C101 C102 1.389 . S
C102 H81 0.949 . S
C102 C101 1.389 . S
C102 C103 1.387 . S
C103 C102 1.387 . S
C103 C104 1.372 . S
C104 H82 0.950 . S
C104 C103 1.372 . S
C104 C105 1.379 . S
C105 H83 0.948 . S
C105 C100 1.364 . S
C105 C104 1.379 . S
C106 C75 1.383 . S
C106 C93 1.479 . S
C106 C107 1.398 . S
C107 C72 1.382 . S
C107 H84 0.951 . S
C107 C106 1.398 . S
C108 C109 1.384 . S
C108 H121 0.947 . S
C108 C143 1.382 1_556 S
C109 C108 1.384 . S
C109 C110 1.378 . S
C110 C109 1.378 . S
C110 C111 1.378 1_556 S
C110 H122 0.952 . S
C111 C110 1.378 1_554 S
C111 H123 0.950 . S
C111 C142 1.383 . S
H112 C131 0.947 . S
H113 C132 0.946 . S
H114 C134 0.953 . S
H115 C135 0.945 . S
H116 C137 0.952 . S
H117 C138 0.949 . S
H118 C140 0.950 . S
H119 C141 0.948 . S
H120 C143 0.951 . S
H121 C108 0.947 . S
H122 C110 0.952 . S
H123 C111 0.950 . S
N124 C127 1.382 . S
N124 C129 1.363 . S
N125 C127 1.371 . S
N125 C128 1.372 . S
N126 C128 1.361 . S
N126 C129 1.377 . S
C127 N124 1.382 . S
C127 N125 1.371 . S
C127 C130 1.480 . S
C128 N125 1.372 . S
C128 N126 1.361 . S
C128 C136 1.457 . S
C129 N124 1.363 . S
C129 N126 1.377 . S
C129 C142 1.479 . S
C130 C127 1.480 . S
C130 C131 1.383 . S
C130 C135 1.385 . S
C131 H112 0.947 . S
C131 C130 1.383 . S
C131 C132 1.388 . S
C132 H113 0.946 . S
C132 C131 1.388 . S
C132 C133 1.384 . S
C133 C132 1.384 . S
C133 C134 1.377 . S
C134 H114 0.953 . S
C134 C133 1.377 . S
C134 C135 1.369 . S
C135 H115 0.945 . S
C135 C130 1.385 . S
C135 C134 1.369 . S
C136 C128 1.457 . S
C136 C137 1.372 . S
C136 C141 1.364 . S
C137 H116 0.952 . S
C137 C136 1.372 . S
C137 C138 1.389 . S
C138 H117 0.949 . S
C138 C137 1.389 . S
C138 C139 1.387 . S
C139 C138 1.387 . S
C139 C140 1.372 . S
C140 H118 0.950 . S
C140 C139 1.372 . S
C140 C141 1.379 . S
C141 H119 0.948 . S
C141 C136 1.364 . S
C141 C140 1.379 . S
C142 C111 1.383 . S
C142 C129 1.479 . S
C142 C143 1.398 . S
C143 C108 1.382 1_554 S
C143 H120 0.951 . S
C143 C142 1.398 . S
C144 C145 1.384 . S
C144 H157 0.947 . S
C144 C179 1.382 . S
C145 C144 1.384 . S
C145 C146 1.378 . S
C146 C145 1.378 . S
C146 C147 1.378 . S
C146 H158 0.952 . S
C147 C146 1.378 . S
C147 H159 0.950 . S
C147 C178 1.383 . S
H148 C167 0.947 . S
H149 C168 0.946 . S
H150 C170 0.953 . S
H151 C171 0.945 . S
H152 C173 0.952 . S
H153 C174 0.949 . S
H154 C176 0.950 . S
H155 C177 0.948 . S
H156 C179 0.951 . S
H157 C144 0.947 . S
H158 C146 0.952 . S
H159 C147 0.950 . S
N160 C163 1.382 . S
N160 C165 1.363 . S
N161 C163 1.371 . S
N161 C164 1.372 . S
N162 C164 1.361 . S
N162 C165 1.377 . S
C163 N160 1.382 . S
C163 N161 1.371 . S
C163 C166 1.480 . S
C164 N161 1.372 . S
C164 N162 1.361 . S
C164 C172 1.457 . S
C165 N160 1.363 . S
C165 N162 1.377 . S
C165 C178 1.479 . S
C166 C163 1.480 . S
C166 C167 1.383 . S
C166 C171 1.385 . S
C167 H148 0.947 . S
C167 C166 1.383 . S
C167 C168 1.388 . S
C168 H149 0.946 . S
C168 C167 1.388 . S
C168 C169 1.384 . S
C169 C168 1.384 . S
C169 C170 1.377 . S
C170 H150 0.953 . S
C170 C169 1.377 . S
C170 C171 1.369 . S
C171 H151 0.945 . S
C171 C166 1.385 . S
C171 C170 1.369 . S
C172 C164 1.457 . S
C172 C173 1.372 . S
C172 C177 1.364 . S
C173 H152 0.952 . S
C173 C172 1.372 . S
C173 C174 1.389 . S
C174 H153 0.949 . S
C174 C173 1.389 . S
C174 C175 1.387 . S
C175 C174 1.387 . S
C175 C176 1.372 . S
C176 H154 0.950 . S
C176 C175 1.372 . S
C176 C177 1.379 . S
C177 H155 0.948 . S
C177 C172 1.364 . S
C177 C176 1.379 . S
C178 C147 1.383 . S
C178 C165 1.479 . S
C178 C179 1.398 . S
C179 C144 1.382 . S
C179 H156 0.951 . S
C179 C178 1.398 . S
C180 C181 1.384 . S
C180 H193 0.947 . S
C180 C215 1.382 1_556 S
C181 C180 1.384 . S
C181 C182 1.378 . S
C182 C181 1.378 . S
C182 C183 1.378 1_556 S
C182 H194 0.952 . S
C183 C182 1.378 1_554 S
C183 H195 0.950 . S
C183 C214 1.383 . S
H184 C203 0.947 . S
H185 C204 0.946 . S
H186 C206 0.953 . S
H187 C207 0.945 . S
H188 C209 0.952 . S
H189 C210 0.949 . S
H190 C212 0.950 . S
H191 C213 0.948 . S
H192 C215 0.951 . S
H193 C180 0.947 . S
H194 C182 0.952 . S
H195 C183 0.950 . S
N196 C199 1.382 . S
N196 C201 1.363 . S
N197 C199 1.371 . S
N197 C200 1.372 . S
N198 C200 1.361 . S
N198 C201 1.377 . S
C199 N196 1.382 . S
C199 N197 1.371 . S
C199 C202 1.480 . S
C200 N197 1.372 . S
C200 N198 1.361 . S
C200 C208 1.457 . S
C201 N196 1.363 . S
C201 N198 1.377 . S
C201 C214 1.479 . S
C202 C199 1.480 . S
C202 C203 1.383 . S
C202 C207 1.385 . S
C203 H184 0.947 . S
C203 C202 1.383 . S
C203 C204 1.388 . S
C204 H185 0.946 . S
C204 C203 1.388 . S
C204 C205 1.384 . S
C205 C204 1.384 . S
C205 C206 1.377 . S
C206 H186 0.953 . S
C206 C205 1.377 . S
C206 C207 1.369 . S
C207 H187 0.945 . S
C207 C202 1.385 . S
C207 C206 1.369 . S
C208 C200 1.457 . S
C208 C209 1.372 . S
C208 C213 1.364 . S
C209 H188 0.952 . S
C209 C208 1.372 . S
C209 C210 1.389 . S
C210 H189 0.949 . S
C210 C209 1.389 . S
C210 C211 1.387 . S
C211 C210 1.387 . S
C211 C212 1.372 . S
C212 H190 0.950 . S
C212 C211 1.372 . S
C212 C213 1.379 . S
C213 H191 0.948 . S
C213 C208 1.364 . S
C213 C212 1.379 . S
C214 C183 1.383 . S
C214 C201 1.479 . S
C214 C215 1.398 . S
C215 C180 1.382 1_554 S
C215 H192 0.951 . S
C215 C214 1.398 . S
C216 C217 1.384 . S
C216 H229 0.947 . S
C216 C251 1.382 . S
C217 C216 1.384 . S
C217 C218 1.378 . S
C218 C217 1.378 . S
C218 C219 1.378 . S
C218 H230 0.952 . S
C219 C218 1.378 . S
C219 H231 0.950 . S
C219 C250 1.383 . S
H220 C239 0.947 . S
H221 C240 0.946 . S
H222 C242 0.953 . S
H223 C243 0.945 . S
H224 C245 0.952 . S
H225 C246 0.949 . S
H226 C248 0.950 . S
H227 C249 0.948 . S
H228 C251 0.951 . S
H229 C216 0.947 . S
H230 C218 0.952 . S
H231 C219 0.950 . S
N232 C235 1.382 . S
N232 C237 1.363 . S
N233 C235 1.371 . S
N233 C236 1.372 . S
N234 C236 1.361 . S
N234 C237 1.377 . S
C235 N232 1.382 . S
C235 N233 1.371 . S
C235 C238 1.480 . S
C236 N233 1.372 . S
C236 N234 1.361 . S
C236 C244 1.457 . S
C237 N232 1.363 . S
C237 N234 1.377 . S
C237 C250 1.479 . S
C238 C235 1.480 . S
C238 C239 1.383 . S
C238 C243 1.385 . S
C239 H220 0.947 . S
C239 C238 1.383 . S
C239 C240 1.388 . S
C240 H221 0.946 . S
C240 C239 1.388 . S
C240 C241 1.384 . S
C241 C240 1.384 . S
C241 C242 1.377 . S
C242 H222 0.953 . S
C242 C241 1.377 . S
C242 C243 1.369 . S
C243 H223 0.945 . S
C243 C238 1.385 . S
C243 C242 1.369 . S
C244 C236 1.457 . S
C244 C245 1.372 . S
C244 C249 1.364 . S
C245 H224 0.952 . S
C245 C244 1.372 . S
C245 C246 1.389 . S
C246 H225 0.949 . S
C246 C245 1.389 . S
C246 C247 1.387 . S
C247 C246 1.387 . S
C247 C248 1.372 . S
C248 H226 0.950 . S
C248 C247 1.372 . S
C248 C249 1.379 . S
C249 H227 0.948 . S
C249 C244 1.364 . S
C249 C248 1.379 . S
C250 C219 1.383 . S
C250 C237 1.479 . S
C250 C251 1.398 . S
C251 C216 1.382 . S
C251 H228 0.951 . S
C251 C250 1.398 . S
C252 C253 1.384 . S
C252 H265 0.947 . S
C252 C287 1.382 1_554 S
C253 C252 1.384 . S
C253 C254 1.378 . S
C254 C253 1.378 . S
C254 C255 1.378 1_554 S
C254 H266 0.952 . S
C255 C254 1.378 1_556 S
C255 H267 0.950 . S
C255 C286 1.383 . S
H256 C275 0.947 . S
H257 C276 0.946 . S
H258 C278 0.953 . S
H259 C279 0.945 . S
H260 C281 0.952 . S
H261 C282 0.949 . S
H262 C284 0.950 . S
H263 C285 0.948 . S
H264 C287 0.951 . S
H265 C252 0.947 . S
H266 C254 0.952 . S
H267 C255 0.950 . S
N268 C271 1.382 . S
N268 C273 1.363 . S
N269 C271 1.371 . S
N269 C272 1.372 . S
N270 C272 1.361 . S
N270 C273 1.377 . S
C271 N268 1.382 . S
C271 N269 1.371 . S
C271 C274 1.480 . S
C272 N269 1.372 . S
C272 N270 1.361 . S
C272 C280 1.457 . S
C273 N268 1.363 . S
C273 N270 1.377 . S
C273 C286 1.479 . S
C274 C271 1.480 . S
C274 C275 1.383 . S
C274 C279 1.385 . S
C275 H256 0.947 . S
C275 C274 1.383 . S
C275 C276 1.388 . S
C276 H257 0.946 . S
C276 C275 1.388 . S
C276 C277 1.384 . S
C277 C276 1.384 . S
C277 C278 1.377 . S
C278 H258 0.953 . S
C278 C277 1.377 . S
C278 C279 1.369 . S
C279 H259 0.945 . S
C279 C274 1.385 . S
C279 C278 1.369 . S
C280 C272 1.457 . S
C280 C281 1.372 . S
C280 C285 1.364 . S
C281 H260 0.952 . S
C281 C280 1.372 . S
C281 C282 1.389 . S
C282 H261 0.949 . S
C282 C281 1.389 . S
C282 C283 1.387 . S
C283 C282 1.387 . S
C283 C284 1.372 . S
C284 H262 0.950 . S
C284 C283 1.372 . S
C284 C285 1.379 . S
C285 H263 0.948 . S
C285 C280 1.364 . S
C285 C284 1.379 . S
C286 C255 1.383 . S
C286 C273 1.479 . S
C286 C287 1.398 . S
C287 C252 1.382 1_556 S
C287 H264 0.951 . S
C287 C286 1.398 . S
Zn288 O294 1.920 1_455 S
Zn288 O300 1.898 . S
Zn288 O303 1.905 . S
Zn289 O297 1.905 1_655 S
Zn289 O298 1.898 . S
Zn289 O306 1.920 . S
Zn290 O293 2.080 1_455 S
Zn290 O296 2.114 . S
Zn290 O299 2.120 1_455 S
Zn290 O301 2.120 . S
Zn290 O302 2.114 . S
Zn290 O305 2.080 1_455 S
C291 O296 1.166 . S
C291 O297 1.182 . S
C292 O298 1.167 . S
C292 O299 1.299 . S
O293 Zn290 2.080 1_655 S
O293 C307 1.305 . S
O294 Zn288 1.920 1_655 S
O294 C307 1.234 . S
C295 O300 1.167 . S
C295 O301 1.299 . S
O296 Zn290 2.114 . S
O296 C291 1.166 . S
O297 Zn289 1.905 1_455 S
O297 C291 1.182 . S
O298 Zn289 1.898 . S
O298 C292 1.167 . S
O299 Zn290 2.120 1_655 S
O299 C292 1.299 . S
O300 Zn288 1.898 . S
O300 C295 1.167 . S
O301 Zn290 2.120 . S
O301 C295 1.299 . S
O302 Zn290 2.114 . S
O302 C304 1.166 . S
O303 Zn288 1.905 . S
O303 C304 1.182 . S
C304 O302 1.166 . S
C304 O303 1.182 . S
O305 Zn290 2.080 1_655 S
O305 C308 1.305 . S
O306 Zn289 1.920 . S
O306 C308 1.234 . S
C307 O293 1.305 . S
C307 O294 1.234 . S
C308 O305 1.305 . S
C308 O306 1.234 . S
Zn309 O315 1.920 . S
Zn309 O321 1.898 . S
Zn309 O324 1.905 . S
Zn310 O318 1.905 . S
Zn310 O319 1.898 . S
Zn310 O327 1.920 . S
Zn311 O314 2.080 . S
Zn311 O317 2.114 . S
Zn311 O320 2.120 . S
Zn311 O322 2.120 . S
Zn311 O323 2.114 . S
Zn311 O326 2.080 . S
C312 O317 1.166 . S
C312 O318 1.182 . S
C313 O319 1.167 . S
C313 O320 1.299 . S
O314 Zn311 2.080 . S
O314 C328 1.305 . S
O315 Zn309 1.920 . S
O315 C328 1.234 . S
C316 O321 1.167 . S
C316 O322 1.299 . S
O317 Zn311 2.114 . S
O317 C312 1.166 . S
O318 Zn310 1.905 . S
O318 C312 1.182 . S
O319 Zn310 1.898 . S
O319 C313 1.167 . S
O320 Zn311 2.120 . S
O320 C313 1.299 . S
O321 Zn309 1.898 . S
O321 C316 1.167 . S
O322 Zn311 2.120 . S
O322 C316 1.299 . S
O323 Zn311 2.114 . S
O323 C325 1.166 . S
O324 Zn309 1.905 . S
O324 C325 1.182 . S
C325 O323 1.166 . S
C325 O324 1.182 . S
O326 Zn311 2.080 . S
O326 C329 1.305 . S
O327 Zn310 1.920 . S
O327 C329 1.234 . S
C328 O314 1.305 . S
C328 O315 1.234 . S
C329 O326 1.305 . S
C329 O327 1.234 . S
Zn330 O336 1.920 . S
Zn330 O342 1.898 . S
Zn330 O345 1.905 1_455 S
Zn331 O339 1.905 . S
Zn331 O340 1.898 . S
Zn331 O348 1.920 1_655 S
Zn332 O335 2.080 . S
Zn332 O338 2.114 1_455 S
Zn332 O341 2.120 1_455 S
Zn332 O343 2.120 . S
Zn332 O344 2.114 1_455 S
Zn332 O347 2.080 . S
C333 O338 1.166 . S
C333 O339 1.182 . S
C334 O340 1.167 . S
C334 O341 1.299 . S
O335 Zn332 2.080 . S
O335 C349 1.305 . S
O336 Zn330 1.920 . S
O336 C349 1.234 . S
C337 O342 1.167 . S
C337 O343 1.299 . S
O338 Zn332 2.114 1_655 S
O338 C333 1.166 . S
O339 Zn331 1.905 . S
O339 C333 1.182 . S
O340 Zn331 1.898 . S
O340 C334 1.167 . S
O341 Zn332 2.120 1_655 S
O341 C334 1.299 . S
O342 Zn330 1.898 . S
O342 C337 1.167 . S
O343 Zn332 2.120 . S
O343 C337 1.299 . S
O344 Zn332 2.114 1_655 S
O344 C346 1.166 . S
O345 Zn330 1.905 1_655 S
O345 C346 1.182 . S
C346 O344 1.166 . S
C346 O345 1.182 . S
O347 Zn332 2.080 . S
O347 C350 1.305 . S
O348 Zn331 1.920 1_455 S
O348 C350 1.234 . S
C349 O335 1.305 . S
C349 O336 1.234 . S
C350 O347 1.305 . S
C350 O348 1.234 . S
Zn351 O357 1.920 . S
Zn351 O363 1.898 . S
Zn351 O366 1.905 . S
Zn352 O360 1.905 . S
Zn352 O361 1.898 . S
Zn352 O369 1.920 . S
Zn353 O356 2.080 . S
Zn353 O359 2.114 . S
Zn353 O362 2.120 . S
Zn353 O364 2.120 . S
Zn353 O365 2.114 . S
Zn353 O368 2.080 . S
C354 O359 1.166 . S
C354 O360 1.182 . S
C355 O361 1.167 . S
C355 O362 1.299 . S
O356 Zn353 2.080 . S
O356 C370 1.305 . S
O357 Zn351 1.920 . S
O357 C370 1.234 . S
C358 O363 1.167 . S
C358 O364 1.299 . S
O359 Zn353 2.114 . S
O359 C354 1.166 . S
O360 Zn352 1.905 . S
O360 C354 1.182 . S
O361 Zn352 1.898 . S
O361 C355 1.167 . S
O362 Zn353 2.120 . S
O362 C355 1.299 . S
O363 Zn351 1.898 . S
O363 C358 1.167 . S
O364 Zn353 2.120 . S
O364 C358 1.299 . S
O365 Zn353 2.114 . S
O365 C367 1.166 . S
O366 Zn351 1.905 . S
O366 C367 1.182 . S
C367 O365 1.166 . S
C367 O366 1.182 . S
O368 Zn353 2.080 . S
O368 C371 1.305 . S
O369 Zn352 1.920 . S
O369 C371 1.234 . S
C370 O356 1.305 . S
C370 O357 1.234 . S
C371 O368 1.305 . S
C371 O369 1.234 . S
C372 C373 1.363 1_545 S
C372 C378 1.379 . S
C372 N380 1.356 1_545 S
C373 C372 1.363 1_565 S
C373 C379 1.363 1_565 S
C374 C375 1.363 . S
C374 C379 1.379 . S
C374 N381 1.356 . S
C375 C374 1.363 . S
C375 C378 1.363 . S
N376 C378 1.356 . S
N376 H388 0.984 . S
N376 H389 0.985 . S
N377 C379 1.356 1_565 S
N377 H382 0.984 . S
N377 H383 0.985 . S
C378 C372 1.379 . S
C378 C375 1.363 . S
C378 N376 1.356 . S
C379 C373 1.363 1_545 S
C379 C374 1.379 . S
C379 N377 1.356 1_545 S
N380 C372 1.356 1_565 S
N380 H386 0.984 . S
N380 H387 0.984 . S
N381 C374 1.356 . S
N381 H384 0.984 . S
N381 H385 0.985 . S
H382 N377 0.984 . S
H383 N377 0.985 . S
H384 N381 0.984 . S
H385 N381 0.985 . S
H386 N380 0.984 . S
H387 N380 0.984 . S
H388 N376 0.984 . S
H389 N376 0.985 . S
C390 C391 1.363 . S
C390 C396 1.379 . S
C390 N398 1.356 . S
C391 C390 1.363 . S
C391 C397 1.363 . S
C392 C393 1.363 . S
C392 C397 1.379 . S
C392 N399 1.356 . S
C393 C392 1.363 . S
C393 C396 1.363 . S
N394 C396 1.356 . S
N394 H406 0.984 . S
N394 H407 0.985 . S
N395 C397 1.356 . S
N395 H400 0.984 . S
N395 H401 0.985 . S
C396 C390 1.379 . S
C396 C393 1.363 . S
C396 N394 1.356 . S
C397 C391 1.363 . S
C397 C392 1.379 . S
C397 N395 1.356 . S
N398 C390 1.356 . S
N398 H404 0.984 . S
N398 H405 0.984 . S
N399 C392 1.356 . S
N399 H402 0.984 . S
N399 H403 0.985 . S
H400 N395 0.984 . S
H401 N395 0.985 . S
H402 N399 0.984 . S
H403 N399 0.985 . S
H404 N398 0.984 . S
H405 N398 0.984 . S
H406 N394 0.984 . S
H407 N394 0.985 . S
C408 C409 1.363 . S
C408 C414 1.379 . S
C408 N416 1.356 . S
C409 C408 1.363 . S
C409 C415 1.363 . S
C410 C411 1.363 . S
C410 C415 1.379 . S
C410 N417 1.356 . S
C411 C410 1.363 . S
C411 C414 1.363 . S
N412 C414 1.356 . S
N412 H424 0.984 . S
N412 H425 0.985 . S
N413 C415 1.356 . S
N413 H418 0.984 . S
N413 H419 0.985 . S
C414 C408 1.379 . S
C414 C411 1.363 . S
C414 N412 1.356 . S
C415 C409 1.363 . S
C415 C410 1.379 . S
C415 N413 1.356 . S
N416 C408 1.356 . S
N416 H422 0.984 . S
N416 H423 0.984 . S
N417 C410 1.356 . S
N417 H420 0.984 . S
N417 H421 0.985 . S
H418 N413 0.984 . S
H419 N413 0.985 . S
H420 N417 0.984 . S
H421 N417 0.985 . S
H422 N416 0.984 . S
H423 N416 0.984 . S
H424 N412 0.984 . S
H425 N412 0.985 . S
C426 C427 1.363 1_545 S
C426 C432 1.379 . S
C426 N434 1.356 1_545 S
C427 C426 1.363 1_565 S
C427 C433 1.363 . S
C428 C429 1.363 . S
C428 C433 1.379 1_545 S
C428 N435 1.356 . S
C429 C428 1.363 . S
C429 C432 1.363 . S
N430 C432 1.356 . S
N430 H442 0.984 . S
N430 H443 0.985 . S
N431 C433 1.356 . S
N431 H436 0.984 . S
N431 H437 0.985 . S
C432 C426 1.379 . S
C432 C429 1.363 . S
C432 N430 1.356 . S
C433 C427 1.363 . S
C433 C428 1.379 1_565 S
C433 N431 1.356 . S
N434 C426 1.356 1_565 S
N434 H440 0.984 1_565 S
N434 H441 0.984 . S
N435 C428 1.356 . S
N435 H438 0.984 . S
N435 H439 0.985 1_655 S
H436 N431 0.984 . S
H437 N431 0.985 . S
H438 N435 0.984 . S
H439 N435 0.985 1_455 S
H440 N434 0.984 1_545 S
H441 N434 0.984 . S
H442 N430 0.984 . S
H443 N430 0.985 . S
C444 C445 1.363 1_565 S
C444 C450 1.379 . S
C444 N452 1.356 . S
C445 C444 1.363 1_545 S
C445 C451 1.363 . S
C446 C447 1.363 . S
C446 C451 1.379 1_565 S
C446 N453 1.356 . S
C447 C446 1.363 . S
C447 C450 1.363 . S
N448 C450 1.356 . S
N448 H460 0.984 . S
N448 H461 0.985 . S
N449 C451 1.356 . S
N449 H454 0.984 . S
N449 H455 0.985 . S
C450 C444 1.379 . S
C450 C447 1.363 . S
C450 N448 1.356 . S
C451 C445 1.363 . S
C451 C446 1.379 1_545 S
C451 N449 1.356 . S
N452 C444 1.356 . S
N452 H458 0.984 . S
N452 H459 0.984 1_565 S
N453 C446 1.356 . S
N453 H456 0.984 . S
N453 H457 0.985 . S
H454 N449 0.984 . S
H455 N449 0.985 . S
H456 N453 0.984 . S
H457 N453 0.985 . S
H458 N452 0.984 . S
H459 N452 0.984 1_545 S
H460 N448 0.984 . S
H461 N448 0.985 . S
C462 C463 1.363 . S
C462 C468 1.379 . S
C462 N470 1.356 . S
C463 C462 1.363 . S
C463 C469 1.363 . S
C464 C465 1.363 . S
C464 C469 1.379 . S
C464 N471 1.356 . S
C465 C464 1.363 . S
C465 C468 1.363 . S
N466 C468 1.356 . S
N466 H478 0.984 . S
N466 H479 0.985 . S
N467 C469 1.356 . S
N467 H472 0.984 . S
N467 H473 0.985 . S
C468 C462 1.379 . S
C468 C465 1.363 . S
C468 N466 1.356 . S
C469 C463 1.363 . S
C469 C464 1.379 . S
C469 N467 1.356 . S
N470 C462 1.356 . S
N470 H476 0.984 . S
N470 H477 0.984 . S
N471 C464 1.356 . S
N471 H474 0.984 . S
N471 H475 0.985 . S
H472 N467 0.984 . S
H473 N467 0.985 . S
H474 N471 0.984 . S
H475 N471 0.985 . S
H476 N470 0.984 . S
H477 N470 0.984 . S
H478 N466 0.984 . S
H479 N466 0.985 . S
C480 C481 1.363 . S
C480 C486 1.379 . S
C480 N488 1.356 . S
C481 C480 1.363 . S
C481 C487 1.363 . S
C482 C483 1.363 . S
C482 C487 1.379 . S
C482 N489 1.356 . S
C483 C482 1.363 . S
C483 C486 1.363 . S
N484 C486 1.356 . S
N484 H496 0.984 . S
N484 H497 0.985 . S
N485 C487 1.356 . S
N485 H490 0.984 . S
N485 H491 0.985 . S
C486 C480 1.379 . S
C486 C483 1.363 . S
C486 N484 1.356 . S
C487 C481 1.363 . S
C487 C482 1.379 . S
C487 N485 1.356 . S
N488 C480 1.356 . S
N488 H494 0.984 . S
N488 H495 0.984 . S
N489 C482 1.356 . S
N489 H492 0.984 . S
N489 H493 0.985 . S
H490 N485 0.984 . S
H491 N485 0.985 . S
H492 N489 0.984 . S
H493 N489 0.985 . S
H494 N488 0.984 . S
H495 N488 0.984 . S
H496 N484 0.984 . S
H497 N484 0.985 . S
C498 C499 1.363 . S
C498 C504 1.379 1_545 S
C498 N506 1.356 . S
C499 C498 1.363 . S
C499 C505 1.363 1_545 S
C500 C501 1.363 . S
C500 C505 1.379 . S
C500 N507 1.356 . S
C501 C500 1.363 . S
C501 C504 1.363 . S
N502 C504 1.356 . S
N502 H514 0.984 . S
N502 H515 0.985 . S
N503 C505 1.356 1_545 S
N503 H508 0.984 . S
N503 H509 0.985 1_545 S
C504 C498 1.379 1_565 S
C504 C501 1.363 . S
C504 N502 1.356 . S
C505 C499 1.363 1_565 S
C505 C500 1.379 . S
C505 N503 1.356 1_565 S
N506 C498 1.356 . S
N506 H512 0.984 . S
N506 H513 0.984 . S
N507 C500 1.356 . S
N507 H510 0.984 . S
N507 H511 0.985 . S
H508 N503 0.984 . S
H509 N503 0.985 1_565 S
H510 N507 0.984 . S
H511 N507 0.985 . S
H512 N506 0.984 . S
H513 N506 0.984 . S
H514 N502 0.984 . S
H515 N502 0.985 . S
C516 C517 1.363 . S
C516 C522 1.379 . S
C516 N524 1.356 . S
C517 C516 1.363 . S
C517 C523 1.363 . S
C518 C519 1.363 . S
C518 C523 1.379 . S
C518 N525 1.356 . S
C519 C518 1.363 . S
C519 C522 1.363 . S
N520 C522 1.356 . S
N520 H532 0.984 . S
N520 H533 0.985 . S
N521 C523 1.356 . S
N521 H526 0.984 . S
N521 H527 0.985 . S
C522 C516 1.379 . S
C522 C519 1.363 . S
C522 N520 1.356 . S
C523 C517 1.363 . S
C523 C518 1.379 . S
C523 N521 1.356 . S
N524 C516 1.356 . S
N524 H530 0.984 . S
N524 H531 0.984 . S
N525 C518 1.356 . S
N525 H528 0.984 . S
N525 H529 0.985 . S
H526 N521 0.984 . S
H527 N521 0.985 . S
H528 N525 0.984 . S
H529 N525 0.985 . S
H530 N524 0.984 . S
H531 N524 0.984 . S
H532 N520 0.984 . S
H533 N520 0.985 . S
C534 C535 1.363 . S
C534 C540 1.379 . S
C534 N542 1.356 . S
C535 C534 1.363 . S
C535 C541 1.363 . S
C536 C537 1.363 . S
C536 C541 1.379 . S
C536 N543 1.356 . S
C537 C536 1.363 . S
C537 C540 1.363 . S
N538 C540 1.356 . S
N538 H550 0.984 . S
N538 H551 0.985 . S
N539 C541 1.356 . S
N539 H544 0.984 . S
N539 H545 0.985 . S
C540 C534 1.379 . S
C540 C537 1.363 . S
C540 N538 1.356 . S
C541 C535 1.363 . S
C541 C536 1.379 . S
C541 N539 1.356 . S
N542 C534 1.356 . S
N542 H548 0.984 . S
N542 H549 0.984 . S
N543 C536 1.356 . S
N543 H546 0.984 . S
N543 H547 0.985 . S
H544 N539 0.984 . S
H545 N539 0.985 . S
H546 N543 0.984 . S
H547 N543 0.985 . S
H548 N542 0.984 . S
H549 N542 0.984 . S
H550 N538 0.984 . S
H551 N538 0.985 . S
C552 C553 1.363 . S
C552 C558 1.379 . S
C552 N560 1.356 . S
C553 C552 1.363 . S
C553 C559 1.363 . S
C554 C555 1.363 . S
C554 C559 1.379 . S
C554 N561 1.356 . S
C555 C554 1.363 . S
C555 C558 1.363 . S
N556 C558 1.356 . S
N556 H568 0.984 . S
N556 H569 0.985 . S
N557 C559 1.356 . S
N557 H562 0.984 . S
N557 H563 0.985 . S
C558 C552 1.379 . S
C558 C555 1.363 . S
C558 N556 1.356 . S
C559 C553 1.363 . S
C559 C554 1.379 . S
C559 N557 1.356 . S
N560 C552 1.356 . S
N560 H566 0.984 . S
N560 H567 0.984 . S
N561 C554 1.356 . S
N561 H564 0.984 . S
N561 H565 0.985 . S
H562 N557 0.984 . S
H563 N557 0.985 . S
H564 N561 0.984 . S
H565 N561 0.985 . S
H566 N560 0.984 . S
H567 N560 0.984 . S
H568 N556 0.984 . S
H569 N556 0.985 . S
C570 C571 1.363 . S
C570 C576 1.379 . S
C570 N578 1.356 . S
C571 C570 1.363 . S
C571 C577 1.363 . S
C572 C573 1.363 . S
C572 C577 1.379 . S
C572 N579 1.356 . S
C573 C572 1.363 . S
C573 C576 1.363 . S
N574 C576 1.356 . S
N574 H586 0.984 . S
N574 H587 0.985 . S
N575 C577 1.356 . S
N575 H580 0.984 . S
N575 H581 0.985 . S
C576 C570 1.379 . S
C576 C573 1.363 . S
C576 N574 1.356 . S
C577 C571 1.363 . S
C577 C572 1.379 . S
C577 N575 1.356 . S
N578 C570 1.356 . S
N578 H584 0.984 . S
N578 H585 0.984 . S
N579 C572 1.356 . S
N579 H582 0.984 . S
N579 H583 0.985 . S
H580 N575 0.984 . S
H581 N575 0.985 . S
H582 N579 0.984 . S
H583 N579 0.985 . S
H584 N578 0.984 . S
H585 N578 0.984 . S
H586 N574 0.984 . S
H587 N574 0.985 . S
C588 C589 1.363 . S
C588 C594 1.379 . S
C588 N596 1.356 . S
C589 C588 1.363 . S
C589 C595 1.363 . S
C590 C591 1.363 . S
C590 C595 1.379 . S
C590 N597 1.356 . S
C591 C590 1.363 . S
C591 C594 1.363 . S
N592 C594 1.356 . S
N592 H604 0.984 . S
N592 H605 0.985 . S
N593 C595 1.356 . S
N593 H598 0.984 . S
N593 H599 0.985 . S
C594 C588 1.379 . S
C594 C591 1.363 . S
C594 N592 1.356 . S
C595 C589 1.363 . S
C595 C590 1.379 . S
C595 N593 1.356 . S
N596 C588 1.356 . S
N596 H602 0.984 . S
N596 H603 0.984 . S
N597 C590 1.356 . S
N597 H600 0.984 . S
N597 H601 0.985 . S
H598 N593 0.984 . S
H599 N593 0.985 . S
H600 N597 0.984 . S
H601 N597 0.985 . S
H602 N596 0.984 . S
H603 N596 0.984 . S
H604 N592 0.984 . S
H605 N592 0.985 . S
C606 C607 1.363 . S
C606 C612 1.379 . S
C606 N614 1.356 . S
C607 C606 1.363 . S
C607 C613 1.363 . S
C608 C609 1.363 . S
C608 C613 1.379 . S
C608 N615 1.356 . S
C609 C608 1.363 . S
C609 C612 1.363 . S
N610 C612 1.356 . S
N610 H622 0.984 . S
N610 H623 0.985 . S
N611 C613 1.356 . S
N611 H616 0.984 . S
N611 H617 0.985 . S
C612 C606 1.379 . S
C612 C609 1.363 . S
C612 N610 1.356 . S
C613 C607 1.363 . S
C613 C608 1.379 . S
C613 N611 1.356 . S
N614 C606 1.356 . S
N614 H620 0.984 . S
N614 H621 0.984 . S
N615 C608 1.356 . S
N615 H618 0.984 . S
N615 H619 0.985 . S
H616 N611 0.984 . S
H617 N611 0.985 . S
H618 N615 0.984 . S
H619 N615 0.985 . S
H620 N614 0.984 . S
H621 N614 0.984 . S
H622 N610 0.984 . S
H623 N610 0.985 . S
C624 C625 1.363 . S
C624 C630 1.379 . S
C624 N632 1.356 . S
C625 C624 1.363 . S
C625 C631 1.363 . S
C626 C627 1.363 . S
C626 C631 1.379 . S
C626 N633 1.356 . S
C627 C626 1.363 . S
C627 C630 1.363 . S
N628 C630 1.356 . S
N628 H640 0.984 . S
N628 H641 0.985 . S
N629 C631 1.356 . S
N629 H634 0.984 . S
N629 H635 0.985 . S
C630 C624 1.379 . S
C630 C627 1.363 . S
C630 N628 1.356 . S
C631 C625 1.363 . S
C631 C626 1.379 . S
C631 N629 1.356 . S
N632 C624 1.356 . S
N632 H638 0.984 . S
N632 H639 0.984 . S
N633 C626 1.356 . S
N633 H636 0.984 . S
N633 H637 0.985 . S
H634 N629 0.984 . S
H635 N629 0.985 . S
H636 N633 0.984 . S
H637 N633 0.985 . S
H638 N632 0.984 . S
H639 N632 0.984 . S
H640 N628 0.984 . S
H641 N628 0.985 . S
C642 C643 1.363 . S
C642 C648 1.379 . S
C642 N650 1.356 . S
C643 C642 1.363 . S
C643 C649 1.363 . S
C644 C645 1.363 . S
C644 C649 1.379 . S
C644 N651 1.356 . S
C645 C644 1.363 . S
C645 C648 1.363 . S
N646 C648 1.356 . S
N646 H658 0.984 . S
N646 H659 0.985 . S
N647 C649 1.356 . S
N647 H652 0.984 . S
N647 H653 0.985 . S
C648 C642 1.379 . S
C648 C645 1.363 . S
C648 N646 1.356 . S
C649 C643 1.363 . S
C649 C644 1.379 . S
C649 N647 1.356 . S
N650 C642 1.356 . S
N650 H656 0.984 . S
N650 H657 0.984 . S
N651 C644 1.356 . S
N651 H654 0.984 . S
N651 H655 0.985 . S
H652 N647 0.984 . S
H653 N647 0.985 . S
H654 N651 0.984 . S
H655 N651 0.985 . S
H656 N650 0.984 . S
H657 N650 0.984 . S
H658 N646 0.984 . S
H659 N646 0.985 . S
C660 C661 1.363 . S
C660 C666 1.379 . S
C660 N668 1.356 . S
C661 C660 1.363 . S
C661 C667 1.363 . S
C662 C663 1.363 . S
C662 C667 1.379 . S
C662 N669 1.356 . S
C663 C662 1.363 . S
C663 C666 1.363 . S
N664 C666 1.356 . S
N664 H676 0.984 . S
N664 H677 0.985 . S
N665 C667 1.356 . S
N665 H670 0.984 . S
N665 H671 0.985 . S
C666 C660 1.379 . S
C666 C663 1.363 . S
C666 N664 1.356 . S
C667 C661 1.363 . S
C667 C662 1.379 . S
C667 N665 1.356 . S
N668 C660 1.356 . S
N668 H674 0.984 . S
N668 H675 0.984 . S
N669 C662 1.356 . S
N669 H672 0.984 . S
N669 H673 0.985 . S
H670 N665 0.984 . S
H671 N665 0.985 . S
H672 N669 0.984 . S
H673 N669 0.985 . S
H674 N668 0.984 . S
H675 N668 0.984 . S
H676 N664 0.984 . S
H677 N664 0.985 . S
C678 C679 1.363 . S
C678 C684 1.379 . S
C678 N686 1.356 . S
C679 C678 1.363 . S
C679 C685 1.363 . S
C680 C681 1.363 . S
C680 C685 1.379 . S
C680 N687 1.356 . S
C681 C680 1.363 . S
C681 C684 1.363 . S
N682 C684 1.356 . S
N682 H694 0.984 . S
N682 H695 0.985 . S
N683 C685 1.356 . S
N683 H688 0.984 . S
N683 H689 0.985 . S
C684 C678 1.379 . S
C684 C681 1.363 . S
C684 N682 1.356 . S
C685 C679 1.363 . S
C685 C680 1.379 . S
C685 N683 1.356 . S
N686 C678 1.356 . S
N686 H692 0.984 . S
N686 H693 0.984 . S
N687 C680 1.356 . S
N687 H690 0.984 . S
N687 H691 0.985 . S
H688 N683 0.984 . S
H689 N683 0.985 . S
H690 N687 0.984 . S
H691 N687 0.985 . S
H692 N686 0.984 . S
H693 N686 0.984 . S
H694 N682 0.984 . S
H695 N682 0.985 . S
C696 C697 1.363 . S
C696 C702 1.379 . S
C696 N704 1.356 . S
C697 C696 1.363 . S
C697 C703 1.363 . S
C698 C699 1.363 . S
C698 C703 1.379 . S
C698 N705 1.356 . S
C699 C698 1.363 . S
C699 C702 1.363 . S
N700 C702 1.356 . S
N700 H712 0.984 . S
N700 H713 0.985 . S
N701 C703 1.356 . S
N701 H706 0.984 . S
N701 H707 0.985 . S
C702 C696 1.379 . S
C702 C699 1.363 . S
C702 N700 1.356 . S
C703 C697 1.363 . S
C703 C698 1.379 . S
C703 N701 1.356 . S
N704 C696 1.356 . S
N704 H710 0.984 . S
N704 H711 0.984 . S
N705 C698 1.356 . S
N705 H708 0.984 . S
N705 H709 0.985 . S
H706 N701 0.984 . S
H707 N701 0.985 . S
H708 N705 0.984 . S
H709 N705 0.985 . S
H710 N704 0.984 . S
H711 N704 0.984 . S
H712 N700 0.984 . S
H713 N700 0.985 . S
C714 C715 1.363 . S
C714 C720 1.379 . S
C714 N722 1.356 . S
C715 C714 1.363 . S
C715 C721 1.363 . S
C716 C717 1.363 . S
C716 C721 1.379 . S
C716 N723 1.356 . S
C717 C716 1.363 . S
C717 C720 1.363 . S
N718 C720 1.356 . S
N718 H730 0.984 . S
N718 H731 0.985 . S
N719 C721 1.356 . S
N719 H724 0.984 . S
N719 H725 0.985 . S
C720 C714 1.379 . S
C720 C717 1.363 . S
C720 N718 1.356 . S
C721 C715 1.363 . S
C721 C716 1.379 . S
C721 N719 1.356 . S
N722 C714 1.356 . S
N722 H728 0.984 . S
N722 H729 0.984 . S
N723 C716 1.356 . S
N723 H726 0.984 . S
N723 H727 0.985 . S
H724 N719 0.984 . S
H725 N719 0.985 . S
H726 N723 0.984 . S
H727 N723 0.985 . S
H728 N722 0.984 . S
H729 N722 0.984 . S
H730 N718 0.984 . S
H731 N718 0.985 . S
C732 C733 1.363 . S
C732 C738 1.379 . S
C732 N740 1.356 . S
C733 C732 1.363 . S
C733 C739 1.363 . S
C734 C735 1.363 . S
C734 C739 1.379 . S
C734 N741 1.356 . S
C735 C734 1.363 . S
C735 C738 1.363 . S
N736 C738 1.356 . S
N736 H748 0.984 . S
N736 H749 0.985 . S
N737 C739 1.356 . S
N737 H742 0.984 . S
N737 H743 0.985 . S
C738 C732 1.379 . S
C738 C735 1.363 . S
C738 N736 1.356 . S
C739 C733 1.363 . S
C739 C734 1.379 . S
C739 N737 1.356 . S
N740 C732 1.356 . S
N740 H746 0.984 . S
N740 H747 0.984 . S
N741 C734 1.356 . S
N741 H744 0.984 . S
N741 H745 0.985 . S
H742 N737 0.984 . S
H743 N737 0.985 . S
H744 N741 0.984 . S
H745 N741 0.985 . S
H746 N740 0.984 . S
H747 N740 0.984 . S
H748 N736 0.984 . S
H749 N736 0.985 . S
C750 C751 1.363 . S
C750 C756 1.379 . S
C750 N758 1.356 . S
C751 C750 1.363 . S
C751 C757 1.363 . S
C752 C753 1.363 . S
C752 C757 1.379 . S
C752 N759 1.356 . S
C753 C752 1.363 . S
C753 C756 1.363 . S
N754 C756 1.356 . S
N754 H766 0.984 . S
N754 H767 0.985 . S
N755 C757 1.356 . S
N755 H760 0.984 . S
N755 H761 0.985 . S
C756 C750 1.379 . S
C756 C753 1.363 . S
C756 N754 1.356 . S
C757 C751 1.363 . S
C757 C752 1.379 . S
C757 N755 1.356 . S
N758 C750 1.356 . S
N758 H764 0.984 . S
N758 H765 0.984 . S
N759 C752 1.356 . S
N759 H762 0.984 . S
N759 H763 0.985 . S
H760 N755 0.984 . S
H761 N755 0.985 . S
H762 N759 0.984 . S
H763 N759 0.985 . S
H764 N758 0.984 . S
H765 N758 0.984 . S
H766 N754 0.984 . S
H767 N754 0.985 . S
C768 C769 1.363 . S
C768 C774 1.379 . S
C768 N776 1.356 . S
C769 C768 1.363 . S
C769 C775 1.363 . S
C770 C771 1.363 . S
C770 C775 1.379 . S
C770 N777 1.356 . S
C771 C770 1.363 . S
C771 C774 1.363 . S
N772 C774 1.356 . S
N772 H784 0.984 . S
N772 H785 0.985 . S
N773 C775 1.356 . S
N773 H778 0.984 . S
N773 H779 0.985 . S
C774 C768 1.379 . S
C774 C771 1.363 . S
C774 N772 1.356 . S
C775 C769 1.363 . S
C775 C770 1.379 . S
C775 N773 1.356 . S
N776 C768 1.356 . S
N776 H782 0.984 . S
N776 H783 0.984 . S
N777 C770 1.356 . S
N777 H780 0.984 . S
N777 H781 0.985 . S
H778 N773 0.984 . S
H779 N773 0.985 . S
H780 N777 0.984 . S
H781 N777 0.985 . S
H782 N776 0.984 . S
H783 N776 0.984 . S
H784 N772 0.984 . S
H785 N772 0.985 . S
C786 C787 1.363 . S
C786 C792 1.379 . S
C786 N794 1.356 . S
C787 C786 1.363 . S
C787 C793 1.363 . S
C788 C789 1.363 . S
C788 C793 1.379 . S
C788 N795 1.356 . S
C789 C788 1.363 . S
C789 C792 1.363 . S
N790 C792 1.356 . S
N790 H802 0.984 . S
N790 H803 0.985 . S
N791 C793 1.356 . S
N791 H796 0.984 . S
N791 H797 0.985 . S
C792 C786 1.379 . S
C792 C789 1.363 . S
C792 N790 1.356 . S
C793 C787 1.363 . S
C793 C788 1.379 . S
C793 N791 1.356 . S
N794 C786 1.356 . S
N794 H800 0.984 . S
N794 H801 0.984 . S
N795 C788 1.356 . S
N795 H798 0.984 . S
N795 H799 0.985 . S
H796 N791 0.984 . S
H797 N791 0.985 . S
H798 N795 0.984 . S
H799 N795 0.985 . S
H800 N794 0.984 . S
H801 N794 0.984 . S
H802 N790 0.984 . S
H803 N790 0.985 . S
C373 C247 1.465 . S
C375 C304 1.491 . S
C393 C312 1.491 . S
C391 C283 1.465 . S
C411 C316 1.474 . S
C409 C175 1.454 . S
C427 C211 1.454 . S
C429 C292 1.474 . S
C447 C333 1.491 . S
C445 C103 1.486 . S
C465 C367 1.491 . S
C463 C139 1.486 . S
C481 C31 1.477 . S
C483 C355 1.474 . S
C499 C67 1.477 . S
C501 C337 1.474 . S
C519 C291 1.341 . S
C517 C37 1.491 . S
C537 C325 1.341 . S
C535 C1 1.491 . S
C555 C329 1.341 . S
C553 C109 1.491 . S
C573 C307 1.341 . S
C571 C73 1.491 . S
C591 C346 1.341 . S
C589 C181 1.479 . S
C607 C145 1.479 . S
C609 C354 1.341 . S
C627 C370 1.341 . S
C625 C253 1.482 . S
C643 C217 1.482 . S
C645 C350 1.341 . S
C663 C295 1.310 . S
C661 C25 1.512 . S
C681 C313 1.310 . S
C679 C61 1.512 . S
C697 C97 1.499 . S
C699 C328 1.309 . S
C717 C308 1.309 . S
C715 C133 1.499 . S
C735 C334 1.310 . S
C733 C169 1.496 . S
C751 C205 1.496 . S
C753 C358 1.310 . S
C769 C241 1.486 . S
C771 C371 1.309 . S
C787 C277 1.486 . S
C789 C349 1.309 . S
