# Generated by pormake.
# Topology pto, (3,4)-cn, num edge types: 1
# Building blocks:
#     Node 0, Type 0, BuildingBlock: OLANEW_clean_sbu_2, # of connection points: 3
#     Node 1, Type 0, BuildingBlock: OLANEW_clean_sbu_2, # of connection points: 3
#     Node 2, Type 0, BuildingBlock: OLANEW_clean_sbu_2, # of connection points: 3
#     Node 3, Type 0, BuildingBlock: OLANEW_clean_sbu_2, # of connection points: 3
#     Node 4, Type 0, BuildingBlock: OLANEW_clean_sbu_2, # of connection points: 3
#     Node 5, Type 0, BuildingBlock: OLANEW_clean_sbu_2, # of connection points: 3
#     Node 6, Type 0, BuildingBlock: OLANEW_clean_sbu_2, # of connection points: 3
#     Node 7, Type 0, BuildingBlock: OLANEW_clean_sbu_2, # of connection points: 3
#     Node 8, Type 1, BuildingBlock: KUFVIS_clean_linker_0, # of connection points: 4
#     Node 9, Type 1, BuildingBlock: KUFVIS_clean_linker_0, # of connection points: 4
#     Node 10, Type 1, BuildingBlock: KUFVIS_clean_linker_0, # of connection points: 4
#     Node 11, Type 1, BuildingBlock: KUFVIS_clean_linker_0, # of connection points: 4
#     Node 12, Type 1, BuildingBlock: KUFVIS_clean_linker_0, # of connection points: 4
#     Node 13, Type 1, BuildingBlock: KUFVIS_clean_linker_0, # of connection points: 4
#     Edge 14, Type (0, 1), BuildingBlock: XUDNAN_clean_linker_2, # of connection points: 2
#     Edge 15, Type (0, 1), BuildingBlock: XUDNAN_clean_linker_2, # of connection points: 2
#     Edge 16, Type (0, 1), BuildingBlock: XUDNAN_clean_linker_2, # of connection points: 2
#     Edge 17, Type (0, 1), BuildingBlock: XUDNAN_clean_linker_2, # of connection points: 2
#     Edge 18, Type (0, 1), BuildingBlock: XUDNAN_clean_linker_2, # of connection points: 2
#     Edge 19, Type (0, 1), BuildingBlock: XUDNAN_clean_linker_2, # of connection points: 2
#     Edge 20, Type (0, 1), BuildingBlock: XUDNAN_clean_linker_2, # of connection points: 2
#     Edge 21, Type (0, 1), BuildingBlock: XUDNAN_clean_linker_2, # of connection points: 2
#     Edge 22, Type (0, 1), BuildingBlock: XUDNAN_clean_linker_2, # of connection points: 2
#     Edge 23, Type (0, 1), BuildingBlock: XUDNAN_clean_linker_2, # of connection points: 2
#     Edge 24, Type (0, 1), BuildingBlock: XUDNAN_clean_linker_2, # of connection points: 2
#     Edge 25, Type (0, 1), BuildingBlock: XUDNAN_clean_linker_2, # of connection points: 2
#     Edge 26, Type (0, 1), BuildingBlock: XUDNAN_clean_linker_2, # of connection points: 2
#     Edge 27, Type (0, 1), BuildingBlock: XUDNAN_clean_linker_2, # of connection points: 2
#     Edge 28, Type (0, 1), BuildingBlock: XUDNAN_clean_linker_2, # of connection points: 2
#     Edge 29, Type (0, 1), BuildingBlock: XUDNAN_clean_linker_2, # of connection points: 2
#     Edge 30, Type (0, 1), BuildingBlock: XUDNAN_clean_linker_2, # of connection points: 2
#     Edge 31, Type (0, 1), BuildingBlock: XUDNAN_clean_linker_2, # of connection points: 2
#     Edge 32, Type (0, 1), BuildingBlock: XUDNAN_clean_linker_2, # of connection points: 2
#     Edge 33, Type (0, 1), BuildingBlock: XUDNAN_clean_linker_2, # of connection points: 2
#     Edge 34, Type (0, 1), BuildingBlock: XUDNAN_clean_linker_2, # of connection points: 2
#     Edge 35, Type (0, 1), BuildingBlock: XUDNAN_clean_linker_2, # of connection points: 2
#     Edge 36, Type (0, 1), BuildingBlock: XUDNAN_clean_linker_2, # of connection points: 2
#     Edge 37, Type (0, 1), BuildingBlock: XUDNAN_clean_linker_2, # of connection points: 2
# Relax obj value: 0.008
# Max RMSD: 0.120
# Mean RMSD: 0.069
data_MOF--net-pto--node1-OLANEW_clean_sbu_2--node2-KUFVIS_clean_linker_0--edge1-XUDNAN_clean_linker_2
_symmetry_space_group_name_H-M    P1
_symmetry_Int_Tables_number       1
_symmetry_cell_setting            triclinic
loop_
_symmetry_equiv_pos_as_xyz
'x, y, z'
_cell_length_a     30.208082
_cell_length_b     55.097235
_cell_length_c     42.681255
_cell_angle_alpha  92.526414
_cell_angle_beta   89.216381
_cell_angle_gamma 107.55019
loop_
_atom_site_label
_atom_site_type_symbol
_atom_site_fract_x
_atom_site_fract_y
_atom_site_fract_z
_atom_type_partial_charge
O0 O 0.38142 0.36688 0.3027 0.0
Cd1 Cd 0.35211 0.36559 0.35624 0.0
O2 O 0.41169 0.40847 0.30091 0.0
Cd3 Cd 0.38454 0.41617 0.34673 0.0
O4 O 0.34531 0.43647 0.37511 0.0
C5 C 0.36191 0.46056 0.37809 0.0
O6 O 0.40327 0.47157 0.36648 0.0
C7 C 0.40376 0.38636 0.28795 0.0
C8 C 0.3553 0.32042 0.3819 0.0
O9 O 0.32056 0.32111 0.36546 0.0
O10 O 0.3883 0.3412 0.38669 0.0
O11 O 0.27359 0.88407 0.78504 0.0
Cd12 Cd 0.23108 0.89808 0.74471 0.0
O13 O 0.25222 0.84761 0.75842 0.0
Cd14 Cd 0.24941 0.80822 0.74615 0.0
O15 O 0.23314 0.77132 0.72077 0.0
C16 C 0.22008 0.75041 0.73467 0.0
O17 O 0.21813 0.75093 0.76546 0.0
C18 C 0.27237 0.86082 0.78221 0.0
C19 C 0.27383 0.9455 0.71995 0.0
O20 O 0.24836 0.94343 0.74457 0.0
O21 O 0.28037 0.92521 0.70764 0.0
O22 O 0.88632 0.81573 0.32406 0.0
Cd23 Cd 0.9085 0.78104 0.2966 0.0
O24 O 0.85862 0.82508 0.28031 0.0
Cd25 Cd 0.85843 0.79147 0.25114 0.0
O26 O 0.81529 0.77825 0.20948 0.0
C27 C 0.80328 0.79651 0.19883 0.0
O28 O 0.81988 0.81926 0.21251 0.0
C29 C 0.86935 0.83028 0.30903 0.0
C30 C 0.89235 0.73417 0.32454 0.0
O31 O 0.92467 0.75386 0.33447 0.0
O32 O 0.86625 0.73677 0.30231 0.0
O33 O 0.71495 0.29633 0.59046 0.0
Cd34 Cd 0.6795 0.2529 0.60934 0.0
O35 O 0.7169 0.30254 0.64121 0.0
Cd36 Cd 0.73037 0.32186 0.68757 0.0
O37 O 0.72172 0.33014 0.73728 0.0
C38 C 0.73304 0.31675 0.7574 0.0
O39 O 0.75223 0.2993 0.7477 0.0
C40 C 0.72399 0.31184 0.61416 0.0
C41 C 0.69569 0.20963 0.58087 0.0
O42 O 0.66012 0.21631 0.57358 0.0
O43 O 0.72487 0.22411 0.60039 0.0
O44 O 0.7422 0.81351 0.64878 0.0
Cd45 Cd 0.73183 0.7779 0.68447 0.0
O46 O 0.81501 0.83417 0.66034 0.0
Cd47 Cd 0.8126 0.80891 0.69867 0.0
O48 O 0.78416 0.80105 0.74577 0.0
C49 C 0.76193 0.81624 0.75519 0.0
O50 O 0.75915 0.83406 0.7365 0.0
C51 C 0.77847 0.83224 0.64472 0.0
C52 C 0.76095 0.73523 0.66717 0.0
O53 O 0.72112 0.73645 0.65873 0.0
O54 O 0.78766 0.75456 0.68244 0.0
O55 O 0.89272 0.29281 0.28269 0.0
Cd56 Cd 0.84749 0.24722 0.28106 0.0
O57 O 0.83443 0.30307 0.30518 0.0
Cd58 Cd 0.78484 0.26674 0.29031 0.0
O59 O 0.73852 0.25101 0.25068 0.0
C60 C 0.75181 0.26182 0.22501 0.0
O61 O 0.79213 0.27963 0.2243 0.0
C62 C 0.87636 0.3095 0.29584 0.0
C63 C 0.88276 0.21408 0.31382 0.0
O64 O 0.8847 0.21413 0.28383 0.0
O65 O 0.86538 0.22992 0.32833 0.0
O66 O 0.17446 0.35596 0.85725 0.0
Cd67 Cd 0.10057 0.35027 0.83048 0.0
O68 O 0.19606 0.33256 0.82092 0.0
Cd69 Cd 0.23985 0.31348 0.79433 0.0
O70 O 0.27987 0.2949 0.76371 0.0
C71 C 0.26144 0.27254 0.75197 0.0
O72 O 0.21813 0.26044 0.75896 0.0
C73 C 0.20417 0.34542 0.84691 0.0
C74 C 0.08417 0.39444 0.81041 0.0
O75 O 0.07586 0.38767 0.83877 0.0
O76 O 0.10148 0.38077 0.79181 0.0
O77 O 0.32179 0.90332 0.25116 0.0
Cd78 Cd 0.27542 0.90516 0.29856 0.0
O79 O 0.29501 0.86223 0.25674 0.0
Cd80 Cd 0.28001 0.82133 0.2452 0.0
O81 O 0.25592 0.7797 0.24552 0.0
C82 C 0.28135 0.76743 0.25647 0.0
O83 O 0.32337 0.78004 0.26629 0.0
C84 C 0.31957 0.88084 0.24134 0.0
C85 C 0.2929 0.95104 0.33402 0.0
O86 O 0.31448 0.93491 0.33961 0.0
O87 O 0.26451 0.94596 0.31087 0.0
H88 H 0.07341 0.47455 0.35771 0.0
H89 H 0.98541 0.51369 0.31911 0.0
H90 H 0.10512 0.55575 0.37343 0.0
H91 H 0.10805 0.57388 0.3165 0.0
H92 H 0.03312 0.62887 0.31571 0.0
H93 H 0.96968 0.55609 0.35502 0.0
C94 C 0.06446 0.49207 0.35613 0.0
C95 C 0.09423 0.51516 0.36863 0.0
C96 C 0.02483 0.49133 0.33903 0.0
C97 C 0.01449 0.51404 0.33391 0.0
C98 C 0.04401 0.53742 0.34603 0.0
C99 C 0.08279 0.53767 0.36409 0.0
C100 C 0.03908 0.562 0.33638 0.0
C101 C 0.07696 0.57927 0.32162 0.0
C102 C 0.07513 0.6034 0.31368 0.0
C103 C 0.0345 0.6099 0.32031 0.0
C104 C 0.99638 0.59301 0.33485 0.0
C105 C 0.99857 0.56895 0.34298 0.0
H106 H 0.96827 0.63395 0.64784 0.0
H107 H 0.00807 0.56731 0.66306 0.0
H108 H 0.86256 0.56243 0.66067 0.0
H109 H 0.86862 0.52014 0.63288 0.0
H110 H 0.90194 0.46191 0.68298 0.0
H111 H 0.97425 0.54038 0.70502 0.0
C112 C 0.95822 0.6136 0.65123 0.0
C113 C 0.9111 0.59979 0.65398 0.0
C114 C 0.99291 0.60204 0.65493 0.0
C115 C 0.98071 0.57598 0.65996 0.0
C116 C 0.93368 0.56122 0.66143 0.0
C117 C 0.89878 0.57328 0.65819 0.0
C118 C 0.92219 0.53371 0.66842 0.0
C119 C 0.88819 0.5148 0.65103 0.0
C120 C 0.88052 0.48886 0.65667 0.0
C121 C 0.90726 0.48195 0.67917 0.0
C122 C 0.94139 0.50034 0.69632 0.0
C123 C 0.94798 0.52617 0.69147 0.0
H124 H 0.37333 0.2187 0.54846 0.0
H125 H 0.34617 0.14798 0.59305 0.0
H126 H 0.37459 0.15221 0.4932 0.0
H127 H 0.33841 0.1123 0.49087 0.0
H128 H 0.32728 0.04358 0.53713 0.0
H129 H 0.36979 0.1148 0.58963 0.0
C130 C 0.37105 0.19866 0.54685 0.0
C131 C 0.37346 0.18668 0.51753 0.0
C132 C 0.36251 0.18477 0.57405 0.0
C133 C 0.35555 0.1584 0.57188 0.0
C134 C 0.36034 0.14587 0.54286 0.0
C135 C 0.36993 0.16063 0.51585 0.0
C136 C 0.3538 0.11756 0.54076 0.0
C137 C 0.34217 0.1032 0.51212 0.0
C138 C 0.33513 0.07673 0.51039 0.0
C139 C 0.33646 0.06417 0.53808 0.0
C140 C 0.34741 0.07775 0.56696 0.0
C141 C 0.35812 0.10444 0.56771 0.0
H142 H 0.52559 0.81611 0.10755 0.0
H143 H 0.56457 0.79181 0.01768 0.0
H144 H 0.45986 0.8308 0.02514 0.0
H145 H 0.43811 0.81126 0.97859 0.0
H146 H 0.50904 0.81671 0.89057 0.0
H147 H 0.5825 0.81304 0.97444 0.0
C148 C 0.52066 0.8142 0.08234 0.0
C149 C 0.48744 0.82347 0.06859 0.0
C150 C 0.54893 0.80328 0.06396 0.0
C151 C 0.54312 0.8009 0.03136 0.0
C152 C 0.51174 0.81123 0.01657 0.0
C153 C 0.48388 0.82245 0.03567 0.0
C154 C 0.51028 0.81171 0.98145 0.0
C155 C 0.46975 0.81236 0.96576 0.0
C156 C 0.47003 0.81496 0.93322 0.0
C157 C 0.5098 0.8155 0.91585 0.0
C158 C 0.54997 0.81404 0.93056 0.0
C159 C 0.55031 0.81262 0.96331 0.0
H160 H 0.83436 0.10841 0.46806 0.0
H161 H 0.77787 0.03545 0.50783 0.0
H162 H 0.8805 0.04614 0.43331 0.0
H163 H 0.84284 0.00448 0.42349 0.0
H164 H 0.82843 0.93905 0.47812 0.0
H165 H 0.81376 0.00704 0.52312 0.0
C166 C 0.83337 0.0886 0.46917 0.0
C167 C 0.8599 0.0788 0.44809 0.0
C168 C 0.80428 0.0732 0.49084 0.0
C169 C 0.80163 0.04731 0.4915 0.0
C170 C 0.82953 0.03698 0.47117 0.0
C171 C 0.85845 0.05313 0.44918 0.0
C172 C 0.82882 0.00963 0.47304 0.0
C173 C 0.83732 0.99579 0.44603 0.0
C174 C 0.83848 0.97053 0.44784 0.0
C175 C 0.82983 0.95888 0.47668 0.0
C176 C 0.82057 0.97181 0.50359 0.0
C177 C 0.8201 0.99714 0.50187 0.0
H178 H 0.53591 0.30833 0.12328 0.0
H179 H 0.5663 0.2926 0.02763 0.0
H180 H 0.49312 0.3476 0.05043 0.0
H181 H 0.45597 0.32929 0.00453 0.0
H182 H 0.51055 0.33234 0.9112 0.0
H183 H 0.59217 0.32129 0.98807 0.0
C184 C 0.53314 0.31148 0.09856 0.0
C185 C 0.51113 0.32901 0.08934 0.0
C186 C 0.55347 0.29869 0.07647 0.0
C187 C 0.5512 0.30306 0.04452 0.0
C188 C 0.5287 0.32045 0.03456 0.0
C189 C 0.5095 0.33369 0.05739 0.0
C190 C 0.52449 0.32449 0.0005 0.0
C191 C 0.4843 0.32891 0.98886 0.0
C192 C 0.47953 0.33207 0.95679 0.0
C193 C 0.5149 0.33041 0.93604 0.0
C194 C 0.5557 0.32645 0.94707 0.0
C195 C 0.56028 0.32366 0.97936 0.0
H196 H 0.27417 0.444 0.40284 0.0
H197 H 0.38084 0.51219 0.37565 0.0
H198 H 0.32513 0.53669 0.38195 0.0
H199 H 0.18809 0.45177 0.36142 0.0
H200 H 0.14166 0.44062 0.38919 0.0
H201 H 0.19194 0.42981 0.39062 0.0
H202 H 0.20567 0.44584 0.4487 0.0
H203 H 0.15488 0.45654 0.44757 0.0
H204 H 0.21004 0.4785 0.45943 0.0
H205 H 0.25507 0.5505 0.37709 0.0
H206 H 0.17783 0.55322 0.36493 0.0
H207 H 0.11581 0.47801 0.40136 0.0
C208 C 0.28628 0.4643 0.39944 0.0
C209 C 0.33181 0.47614 0.38866 0.0
C210 C 0.3462 0.50267 0.38401 0.0
C211 C 0.31479 0.51681 0.38765 0.0
C212 C 0.26942 0.5043 0.3967 0.0
C213 C 0.25543 0.47875 0.40331 0.0
C214 C 0.20351 0.46916 0.40888 0.0
C215 C 0.17996 0.44653 0.38617 0.0
C216 C 0.19291 0.4621 0.4432 0.0
C217 C 0.19008 0.4927 0.40177 0.0
C218 C 0.22867 0.51289 0.39535 0.0
C219 C 0.22462 0.53521 0.38328 0.0
C220 C 0.18019 0.53661 0.37659 0.0
C221 C 0.14003 0.51586 0.38218 0.0
C222 C 0.14544 0.49421 0.39647 0.0
H223 H 0.17517 0.70333 0.75664 0.0
H224 H 0.22108 0.74289 0.67084 0.0
H225 H 0.17911 0.7042 0.63981 0.0
H226 H 0.17339 0.63743 0.72487 0.0
H227 H 0.12172 0.62273 0.74699 0.0
H228 H 0.16364 0.6514 0.76232 0.0
H229 H 0.09909 0.67345 0.76786 0.0
H230 H 0.05722 0.64495 0.75269 0.0
H231 H 0.06488 0.67465 0.734 0.0
H232 H 0.11971 0.66539 0.61874 0.0
H233 H 0.04825 0.6293 0.60974 0.0
H234 H 0.04263 0.61385 0.70842 0.0
C235 C 0.17776 0.70358 0.73133 0.0
C236 C 0.2015 0.72613 0.7162 0.0
C237 C 0.20322 0.72583 0.683 0.0
C238 C 0.17968 0.70388 0.66513 0.0
C239 C 0.15507 0.68224 0.68078 0.0
C240 C 0.15441 0.68181 0.71316 0.0
C241 C 0.12063 0.65739 0.72433 0.0
C242 C 0.1464 0.64128 0.74058 0.0
C243 C 0.08326 0.66296 0.74596 0.0
C244 C 0.10032 0.64487 0.6933 0.0
C245 C 0.12131 0.65926 0.66837 0.0
C246 C 0.10411 0.65346 0.63787 0.0
C247 C 0.06366 0.63296 0.6329 0.0
C248 C 0.04124 0.6185 0.65826 0.0
C249 C 0.0606 0.62402 0.68856 0.0
H250 H 0.8746 0.68994 0.28974 0.0
H251 H 0.90728 0.72195 0.38406 0.0
H252 H 0.91595 0.68111 0.40045 0.0
H253 H 0.81986 0.62019 0.30952 0.0
H254 H 0.84829 0.60984 0.27642 0.0
H255 H 0.83035 0.63814 0.27443 0.0
H256 H 0.9145 0.66435 0.2602 0.0
H257 H 0.93222 0.63618 0.26179 0.0
H258 H 0.96154 0.66409 0.28563 0.0
H259 H 0.93598 0.64074 0.4041 0.0
H260 H 0.97581 0.60815 0.39307 0.0
H261 H 0.9352 0.60316 0.29574 0.0
C262 C 0.88134 0.68785 0.31417 0.0
C263 C 0.88909 0.70875 0.33588 0.0
C264 C 0.90038 0.70593 0.36728 0.0
C265 C 0.90507 0.68274 0.37678 0.0
C266 C 0.89889 0.66266 0.35452 0.0
C267 C 0.88753 0.66508 0.32373 0.0
C268 C 0.89236 0.64302 0.30292 0.0
C269 C 0.84488 0.62684 0.29007 0.0
C270 C 0.92723 0.65249 0.2761 0.0
C271 C 0.91077 0.62857 0.32634 0.0
C272 C 0.91252 0.6396 0.35626 0.0
C273 C 0.93358 0.6315 0.381 0.0
C274 C 0.95576 0.61279 0.37466 0.0
C275 C 0.95734 0.60278 0.34376 0.0
C276 C 0.93267 0.60986 0.31974 0.0
H277 H 0.71334 0.34982 0.65436 0.0
H278 H 0.77502 0.33717 0.56526 0.0
H279 H 0.81046 0.38382 0.56156 0.0
H280 H 0.69454 0.41108 0.63849 0.0
H281 H 0.71062 0.42369 0.6778 0.0
H282 H 0.68389 0.38996 0.67071 0.0
H283 H 0.75323 0.38056 0.69749 0.0
H284 H 0.77948 0.41413 0.70517 0.0
H285 H 0.81139 0.39581 0.68396 0.0
H286 H 0.84754 0.43153 0.57133 0.0
H287 H 0.88698 0.47429 0.59534 0.0
H288 H 0.80322 0.45487 0.67883 0.0
C289 C 0.73472 0.35672 0.63423 0.0
C290 C 0.74244 0.33977 0.61052 0.0
C291 C 0.76878 0.34982 0.58379 0.0
C292 C 0.7889 0.37629 0.58146 0.0
C293 C 0.78185 0.39245 0.60589 0.0
C294 C 0.75533 0.38294 0.63177 0.0
C295 C 0.75681 0.40375 0.65643 0.0
C296 C 0.70859 0.40733 0.66112 0.0
C297 C 0.77641 0.39824 0.68758 0.0
C298 C 0.78983 0.42641 0.64102 0.0
C299 C 0.80308 0.41973 0.61152 0.0
C300 C 0.8366 0.43708 0.59408 0.0
C301 C 0.85853 0.46141 0.6077 0.0
C302 C 0.84713 0.46796 0.63852 0.0
C303 C 0.81126 0.45054 0.65481 0.0
H304 H 0.41242 0.31445 0.42836 0.0
H305 H 0.30156 0.27205 0.36557 0.0
H306 H 0.30248 0.23194 0.38882 0.0
H307 H 0.47418 0.26584 0.43097 0.0
H308 H 0.48737 0.27247 0.47211 0.0
H309 H 0.48229 0.29746 0.44784 0.0
H310 H 0.41984 0.30585 0.48543 0.0
H311 H 0.42497 0.28105 0.50983 0.0
H312 H 0.36911 0.27986 0.49433 0.0
H313 H 0.31083 0.19701 0.42172 0.0
H314 H 0.32105 0.1706 0.46463 0.0
H315 H 0.42624 0.23567 0.50624 0.0
C316 C 0.38894 0.29668 0.41911 0.0
C317 C 0.35712 0.29633 0.39502 0.0
C318 C 0.32627 0.27275 0.38399 0.0
C319 C 0.32678 0.24985 0.39689 0.0
C320 C 0.35831 0.25086 0.4208 0.0
C321 C 0.38869 0.27369 0.43192 0.0
C322 C 0.41593 0.26985 0.45981 0.0
C323 C 0.46804 0.27682 0.45221 0.0
C324 C 0.40689 0.28504 0.48907 0.0
C325 C 0.39512 0.24143 0.46325 0.0
C326 C 0.36263 0.23074 0.44014 0.0
C327 C 0.33668 0.20508 0.43966 0.0
C328 C 0.34297 0.19017 0.46403 0.0
C329 C 0.37458 0.20104 0.48872 0.0
C330 C 0.40192 0.22682 0.48765 0.0
H331 H 0.35177 0.88369 0.81518 0.0
H332 H 0.24044 0.81268 0.80386 0.0
H333 H 0.27544 0.79406 0.84504 0.0
H334 H 0.44175 0.85523 0.82498 0.0
H335 H 0.47348 0.87931 0.85315 0.0
H336 H 0.43783 0.88722 0.82425 0.0
H337 H 0.39319 0.90359 0.86859 0.0
H338 H 0.42843 0.89545 0.89765 0.0
H339 H 0.36608 0.88271 0.89932 0.0
H340 H 0.32357 0.78316 0.88736 0.0
H341 H 0.38544 0.77956 0.92301 0.0
H342 H 0.46589 0.85713 0.90484 0.0
C343 C 0.3347 0.86427 0.82153 0.0
C344 C 0.2937 0.84951 0.80627 0.0
C345 C 0.27243 0.82411 0.81491 0.0
C346 C 0.29173 0.8135 0.83852 0.0
C347 C 0.33234 0.82855 0.85312 0.0
C348 C 0.35384 0.8533 0.84468 0.0
C349 C 0.39875 0.86493 0.86245 0.0
C350 C 0.4404 0.87208 0.83986 0.0
C351 C 0.39644 0.88804 0.88323 0.0
C352 C 0.39938 0.84282 0.88203 0.0
C353 C 0.36045 0.82212 0.87676 0.0
C354 C 0.35408 0.7993 0.89178 0.0
C355 C 0.38907 0.79743 0.91207 0.0
C356 C 0.42979 0.81816 0.91668 0.0
C357 C 0.43461 0.84117 0.90186 0.0
H358 H 0.90192 0.85292 0.3665 0.0
H359 H 0.82176 0.86066 0.28591 0.0
H360 H 0.81116 0.89988 0.3104 0.0
H361 H 0.83438 0.87365 0.42443 0.0
H362 H 0.88332 0.89061 0.44862 0.0
H363 H 0.88605 0.86371 0.42407 0.0
H364 H 0.9609 0.89184 0.39797 0.0
H365 H 0.9581 0.91891 0.4223 0.0
H366 H 0.96024 0.92082 0.38023 0.0
H367 H 0.80524 0.93705 0.34518 0.0
H368 H 0.80258 0.96802 0.3884 0.0
H369 H 0.89061 0.93756 0.44448 0.0
C370 C 0.88221 0.86287 0.35397 0.0
C371 C 0.86267 0.85364 0.32428 0.0
C372 C 0.8372 0.86733 0.30865 0.0
C373 C 0.83107 0.88971 0.32232 0.0
C374 C 0.851 0.89837 0.35151 0.0
C375 C 0.87611 0.8854 0.36713 0.0
C376 C 0.89287 0.89838 0.39863 0.0
C377 C 0.87295 0.88053 0.42551 0.0
C378 C 0.9462 0.90806 0.39983 0.0
C379 C 0.87236 0.92029 0.39854 0.0
C380 C 0.84854 0.9201 0.37113 0.0
C381 C 0.82432 0.93761 0.36661 0.0
C382 C 0.8233 0.95529 0.39118 0.0
C383 C 0.84632 0.95525 0.41985 0.0
C384 C 0.87237 0.93801 0.42294 0.0
H385 H 0.68854 0.34902 0.78434 0.0
H386 H 0.74508 0.28789 0.80538 0.0
H387 H 0.71293 0.28699 0.85893 0.0
H388 H 0.70484 0.3808 0.86426 0.0
H389 H 0.65111 0.38849 0.86179 0.0
H390 H 0.68428 0.38678 0.82678 0.0
H391 H 0.61209 0.35385 0.8015 0.0
H392 H 0.57887 0.35526 0.83643 0.0
H393 H 0.5838 0.32508 0.82147 0.0
H394 H 0.66567 0.28874 0.90742 0.0
H395 H 0.60895 0.29386 0.94736 0.0
H396 H 0.5859 0.35497 0.89539 0.0
C397 C 0.69518 0.33586 0.80042 0.0
C398 C 0.71936 0.31853 0.79065 0.0
C399 C 0.72679 0.30141 0.81234 0.0
C400 C 0.70872 0.30078 0.84285 0.0
C401 C 0.68381 0.31759 0.85141 0.0
C402 C 0.67752 0.33503 0.83093 0.0
C403 C 0.6465 0.34969 0.84502 0.0
C404 C 0.67329 0.37813 0.84975 0.0
C405 C 0.60274 0.34571 0.82491 0.0
C406 C 0.6348 0.33706 0.87609 0.0
C407 C 0.65704 0.31881 0.87953 0.0
C408 C 0.64883 0.30336 0.9053 0.0
C409 C 0.61664 0.30648 0.92795 0.0
C410 C 0.59293 0.32485 0.92463 0.0
C411 C 0.60308 0.34062 0.89859 0.0
H412 H 0.32386 0.95536 0.66532 0.0
H413 H 0.26379 0.99143 0.73995 0.0
H414 H 0.28531 0.03132 0.71147 0.0
H415 H 0.42079 0.01351 0.6457 0.0
H416 H 0.41599 0.0049 0.60437 0.0
H417 H 0.4021 0.98041 0.63272 0.0
H418 H 0.32075 0.9611 0.60759 0.0
H419 H 0.33421 0.98558 0.57938 0.0
H420 H 0.28348 0.98095 0.60386 0.0
H421 H 0.30264 0.06486 0.67179 0.0
H422 H 0.3163 0.09002 0.62452 0.0
H423 H 0.36928 0.03332 0.57645 0.0
C424 C 0.31631 0.97184 0.67608 0.0
C425 C 0.29224 0.97028 0.70493 0.0
C426 C 0.28237 0.99218 0.71796 0.0
C427 C 0.29455 0.01496 0.70198 0.0
C428 C 0.31707 0.01564 0.67318 0.0
C429 C 0.32837 0.99476 0.66049 0.0
C430 C 0.3493 0.99988 0.62806 0.0
C431 C 0.40007 0.99967 0.6277 0.0
C432 C 0.32018 0.98075 0.60328 0.0
C433 C 0.34612 0.02647 0.62398 0.0
C434 C 0.32795 0.03532 0.65041 0.0
C435 C 0.31802 0.05843 0.65124 0.0
C436 C 0.32622 0.0727 0.62421 0.0
C437 C 0.34432 0.0639 0.5966 0.0
C438 C 0.35529 0.04067 0.59697 0.0
H439 H 0.7639 0.83111 0.17816 0.0
H440 H 0.76232 0.75242 0.16339 0.0
H441 H 0.69947 0.74571 0.12415 0.0
H442 H 0.64372 0.81928 0.17616 0.0
H443 H 0.64617 0.84805 0.15676 0.0
H444 H 0.69374 0.84703 0.18101 0.0
H445 H 0.7507 0.86069 0.13448 0.0
H446 H 0.70328 0.86189 0.11008 0.0
H447 H 0.73935 0.84245 0.09776 0.0
H448 H 0.63352 0.74773 0.08782 0.0
H449 H 0.56987 0.75791 0.06004 0.0
H450 H 0.61529 0.83464 0.10131 0.0
C451 C 0.75098 0.81251 0.1664 0.0
C452 C 0.76821 0.79232 0.1737 0.0
C453 C 0.74976 0.76821 0.15802 0.0
C454 C 0.71413 0.76425 0.1357 0.0
C455 C 0.69747 0.78458 0.12946 0.0
C456 C 0.71545 0.80823 0.14445 0.0
C457 C 0.69013 0.82665 0.13532 0.0
C458 C 0.66708 0.83577 0.16402 0.0
C459 C 0.72282 0.84925 0.1184 0.0
C460 C 0.65445 0.80964 0.11317 0.0
C461 C 0.65936 0.78552 0.10963 0.0
C462 C 0.62952 0.76658 0.09042 0.0
C463 C 0.59361 0.77248 0.07474 0.0
C464 C 0.58767 0.79693 0.0789 0.0
C465 C 0.61883 0.81569 0.09807 0.0
H466 H 0.77438 0.19461 0.58189 0.0
H467 H 0.63063 0.1696 0.55153 0.0
H468 H 0.63985 0.12842 0.53224 0.0
H469 H 0.81808 0.16841 0.5158 0.0
H470 H 0.86159 0.15992 0.53752 0.0
H471 H 0.8418 0.18615 0.55138 0.0
H472 H 0.82044 0.16487 0.60481 0.0
H473 H 0.8394 0.1383 0.59078 0.0
H474 H 0.78132 0.13291 0.60579 0.0
H475 H 0.66608 0.09065 0.51376 0.0
H476 H 0.70992 0.06237 0.49165 0.0
H477 H 0.8362 0.11243 0.53336 0.0
C478 C 0.74471 0.18039 0.57144 0.0
C479 C 0.70172 0.18528 0.56836 0.0
C480 C 0.66394 0.1663 0.5541 0.0
C481 C 0.66872 0.14275 0.54334 0.0
C482 C 0.71152 0.13847 0.54692 0.0
C483 C 0.74901 0.15691 0.56029 0.0
C484 C 0.79233 0.14851 0.55893 0.0
C485 C 0.83069 0.16682 0.53976 0.0
C486 C 0.80936 0.146 0.59205 0.0
C487 C 0.77366 0.12269 0.54214 0.0
C488 C 0.72675 0.11695 0.53593 0.0
C489 C 0.70266 0.09478 0.51887 0.0
C490 C 0.72762 0.07868 0.50668 0.0
C491 C 0.77607 0.08505 0.51139 0.0
C492 C 0.7989 0.10687 0.53018 0.0
H493 H 0.39775 0.3417 0.25517 0.0
H494 H 0.44616 0.42383 0.24736 0.0
H495 H 0.47276 0.41811 0.19326 0.0
H496 H 0.49154 0.32894 0.21525 0.0
H497 H 0.45672 0.29961 0.1964 0.0
H498 H 0.43873 0.31033 0.23347 0.0
H499 H 0.35939 0.30836 0.20923 0.0
H500 H 0.37729 0.29775 0.17198 0.0
H501 H 0.35798 0.3257 0.1746 0.0
H502 H 0.49744 0.40317 0.14062 0.0
H503 H 0.52204 0.3803 0.0956 0.0
H504 H 0.45647 0.30836 0.13856 0.0
C505 C 0.41357 0.35852 0.24208 0.0
C506 C 0.41976 0.3832 0.25551 0.0
C507 C 0.44104 0.40469 0.23757 0.0
C508 C 0.45606 0.40166 0.20677 0.0
C509 C 0.44941 0.37701 0.19427 0.0
C510 C 0.42878 0.35585 0.21145 0.0
C511 C 0.4278 0.33147 0.1934 0.0
C512 C 0.45535 0.31674 0.21066 0.0
C513 C 0.37763 0.31485 0.18692 0.0
C514 C 0.45193 0.34221 0.16358 0.0
C515 C 0.4637 0.36849 0.16426 0.0
C516 C 0.48802 0.38258 0.13971 0.0
C517 C 0.5016 0.36947 0.11419 0.0
C518 C 0.49113 0.34262 0.11369 0.0
C519 C 0.46505 0.32891 0.1384 0.0
H520 H 0.83609 0.72428 0.6909 0.0
H521 H 0.71681 0.69284 0.63009 0.0
H522 H 0.73886 0.65319 0.62195 0.0
H523 H 0.91495 0.69844 0.64803 0.0
H524 H 0.94262 0.69238 0.68273 0.0
H525 H 0.91686 0.7179 0.68338 0.0
H526 H 0.86638 0.69854 0.73104 0.0
H527 H 0.89173 0.67283 0.73032 0.0
H528 H 0.82959 0.66598 0.72812 0.0
H529 H 0.77648 0.61677 0.61981 0.0
H530 H 0.82708 0.58871 0.62277 0.0
H531 H 0.91782 0.64405 0.68719 0.0
C532 C 0.81464 0.70914 0.67573 0.0
C533 C 0.77484 0.71177 0.661 0.0
C534 C 0.74756 0.69133 0.64157 0.0
C535 C 0.75974 0.66869 0.63688 0.0
C536 C 0.79905 0.66666 0.65202 0.0
C537 C 0.82598 0.68643 0.67108 0.0
C538 C 0.86656 0.67977 0.6847 0.0
C539 C 0.91298 0.69821 0.67406 0.0
C540 C 0.86334 0.67925 0.72068 0.0
C541 C 0.85876 0.65331 0.67008 0.0
C542 C 0.8197 0.64589 0.65132 0.0
C543 C 0.80699 0.62239 0.63461 0.0
C544 C 0.83568 0.60648 0.63656 0.0
C545 C 0.87656 0.61425 0.65498 0.0
C546 C 0.88712 0.63766 0.67256 0.0
H547 H 0.86665 0.34693 0.33755 0.0
H548 H 0.94769 0.3337 0.25749 0.0
H549 H 0.98815 0.37992 0.25655 0.0
H550 H 0.85386 0.40672 0.3155 0.0
H551 H 0.86123 0.42079 0.35475 0.0
H552 H 0.83719 0.38678 0.34868 0.0
H553 H 0.90091 0.37967 0.38401 0.0
H554 H 0.92446 0.4136 0.3907 0.0
H555 H 0.96113 0.39538 0.37549 0.0
H556 H 0.01884 0.42747 0.2637 0.0
H557 H 0.04697 0.4723 0.28376 0.0
H558 H 0.94916 0.45464 0.3607 0.0
C559 C 0.89303 0.35378 0.31989 0.0
C560 C 0.90395 0.33675 0.29749 0.0
C561 C 0.93899 0.34638 0.27497 0.0
C562 C 0.96179 0.37262 0.27406 0.0
C563 C 0.94956 0.38894 0.29607 0.0
C564 C 0.91675 0.37986 0.319 0.0
C565 C 0.91231 0.40129 0.34119 0.0
C566 C 0.86322 0.40405 0.33994 0.0
C567 C 0.92551 0.39724 0.37483 0.0
C568 C 0.94778 0.42386 0.32715 0.0
C569 C 0.96824 0.41634 0.30078 0.0
C570 C 0.00289 0.43361 0.28418 0.0
C571 C 0.01832 0.45903 0.2955 0.0
C572 C 0.9993 0.46686 0.3232 0.0
C573 C 0.96309 0.44918 0.33892 0.0
H574 H 0.07396 0.4052 0.74954 0.0
H575 H 0.06319 0.43253 0.84535 0.0
H576 H 0.03406 0.46655 0.826 0.0
H577 H 0.10573 0.46781 0.71253 0.0
H578 H 0.07066 0.45471 0.67844 0.0
H579 H 0.09717 0.43512 0.6996 0.0
H580 H 0.01648 0.40181 0.70641 0.0
H581 H 0.98981 0.42128 0.68538 0.0
H582 H 0.96997 0.41174 0.72426 0.0
H583 H 0.99946 0.49534 0.79608 0.0
H584 H 0.95847 0.51429 0.75859 0.0
H585 H 0.98985 0.46684 0.68314 0.0
C586 C 0.06665 0.41874 0.76643 0.0
C587 C 0.07132 0.41639 0.79893 0.0
C588 C 0.06014 0.43408 0.82032 0.0
C589 C 0.04374 0.45352 0.80953 0.0
C590 C 0.03861 0.45498 0.77731 0.0
C591 C 0.04972 0.438 0.7561 0.0
C592 C 0.03677 0.44191 0.72299 0.0
C593 C 0.08018 0.4504 0.70217 0.0
C594 C 0.00114 0.41776 0.70896 0.0
C595 C 0.01544 0.46325 0.72894 0.0
C596 C 0.01756 0.47093 0.7603 0.0
C597 C 0.99807 0.48965 0.77144 0.0
C598 C 0.975 0.50035 0.75005 0.0
C599 C 0.97108 0.49195 0.71813 0.0
C600 C 0.99242 0.47357 0.70748 0.0
H601 H 0.19569 0.73579 0.23883 0.0
H602 H 0.32258 0.73664 0.28599 0.0
H603 H 0.28662 0.6919 0.29971 0.0
H604 H 0.11974 0.70223 0.29344 0.0
H605 H 0.07643 0.68399 0.2659 0.0
H606 H 0.11427 0.71463 0.25577 0.0
H607 H 0.14059 0.6943 0.20576 0.0
H608 H 0.10257 0.66352 0.21572 0.0
H609 H 0.1635 0.66787 0.20917 0.0
H610 H 0.23306 0.64942 0.31492 0.0
H611 H 0.16696 0.61291 0.32966 0.0
H612 H 0.0765 0.63878 0.26995 0.0
C613 C 0.21636 0.72641 0.2514 0.0
C614 C 0.262 0.73975 0.2613 0.0
C615 C 0.28763 0.72682 0.27802 0.0
C616 C 0.26752 0.70136 0.28587 0.0
C617 C 0.222 0.68898 0.27645 0.0
C618 C 0.19693 0.701 0.25926 0.0
C619 C 0.14749 0.68422 0.25411 0.0
C620 C 0.11245 0.69703 0.26815 0.0
C621 C 0.138 0.67705 0.21911 0.0
C622 C 0.14809 0.66133 0.27223 0.0
C623 C 0.19147 0.66426 0.28466 0.0
C624 C 0.19921 0.64663 0.30469 0.0
C625 C 0.16142 0.62582 0.3128 0.0
C626 C 0.11637 0.62283 0.30094 0.0
C627 C 0.11033 0.64048 0.27958 0.0
H628 H 0.85056 0.86671 0.61516 0.0
H629 H 0.70161 0.84561 0.62986 0.0
H630 H 0.69828 0.88299 0.60118 0.0
H631 H 0.87439 0.93512 0.62109 0.0
H632 H 0.91645 0.94106 0.58978 0.0
H633 H 0.90798 0.9135 0.61303 0.0
H634 H 0.89082 0.88392 0.56282 0.0
H635 H 0.90035 0.91145 0.53948 0.0
H636 H 0.84649 0.88598 0.5361 0.0
H637 H 0.71111 0.92289 0.57088 0.0
H638 H 0.73702 0.95749 0.53335 0.0
H639 H 0.87642 0.95132 0.53618 0.0
C640 C 0.81727 0.86997 0.61231 0.0
C641 C 0.77637 0.85329 0.62486 0.0
C642 C 0.73337 0.85804 0.62031 0.0
C643 C 0.73119 0.87939 0.60435 0.0
C644 C 0.77223 0.89571 0.59272 0.0
C645 C 0.81431 0.89093 0.59589 0.0
C646 C 0.85266 0.91026 0.57899 0.0
C647 C 0.89008 0.92591 0.60211 0.0
C648 C 0.8738 0.89712 0.55279 0.0
C649 C 0.82555 0.92654 0.5657 0.0
C650 C 0.77938 0.91818 0.57443 0.0
C651 C 0.74725 0.92971 0.56406 0.0
C652 C 0.76228 0.94953 0.54308 0.0
C653 C 0.80878 0.9573 0.53248 0.0
C654 C 0.84095 0.94611 0.54462 0.0
H655 H 0.76374 0.28892 0.1719 0.0
H656 H 0.66734 0.22521 0.21721 0.0
H657 H 0.6101 0.22202 0.17525 0.0
H658 H 0.68511 0.31886 0.15543 0.0
H659 H 0.70926 0.33069 0.11823 0.0
H660 H 0.74596 0.32414 0.14732 0.0
H661 H 0.77063 0.29377 0.10741 0.0
H662 H 0.73364 0.3002 0.07812 0.0
H663 H 0.72684 0.26785 0.08818 0.0
H664 H 0.55876 0.23098 0.135 0.0
H665 H 0.51725 0.25226 0.10116 0.0
H666 H 0.64661 0.30979 0.0815 0.0
C667 C 0.73122 0.27371 0.17246 0.0
C668 C 0.72013 0.25719 0.19773 0.0
C669 C 0.67671 0.23798 0.19798 0.0
C670 C 0.64408 0.23594 0.17413 0.0
C671 C 0.65552 0.25311 0.15008 0.0
C672 C 0.69824 0.27156 0.14899 0.0
C673 C 0.69976 0.28995 0.12335 0.0
C674 C 0.71062 0.31751 0.13691 0.0
C675 C 0.7348 0.2878 0.09774 0.0
C676 C 0.65044 0.27984 0.11126 0.0
C677 C 0.62575 0.2582 0.12647 0.0
C678 C 0.57803 0.24737 0.12221 0.0
C679 C 0.55474 0.25947 0.10288 0.0
C680 C 0.57922 0.28207 0.08809 0.0
C681 C 0.62774 0.29188 0.09151 0.0
H682 H 0.22972 0.22677 0.71876 0.0
H683 H 0.35187 0.29227 0.73326 0.0
H684 H 0.39357 0.27445 0.69269 0.0
H685 H 0.29227 0.17924 0.70278 0.0
H686 H 0.25127 0.16218 0.67318 0.0
H687 H 0.23241 0.17875 0.70557 0.0
H688 H 0.20029 0.20404 0.66658 0.0
H689 H 0.21898 0.18757 0.63415 0.0
H690 H 0.23831 0.22189 0.63717 0.0
H691 H 0.41931 0.25194 0.6472 0.0
H692 H 0.42744 0.22597 0.59998 0.0
H693 H 0.28954 0.17457 0.61541 0.0
C694 C 0.2655 0.23717 0.71381 0.0
C695 C 0.28753 0.26092 0.72928 0.0
C696 C 0.33423 0.27404 0.7218 0.0
C697 C 0.35829 0.26403 0.69884 0.0
C698 C 0.33531 0.24079 0.68371 0.0
C699 C 0.29005 0.22743 0.69098 0.0
C700 C 0.27245 0.20363 0.66989 0.0
C701 C 0.26146 0.17952 0.689 0.0
C702 C 0.23001 0.20435 0.65082 0.0
C703 C 0.31446 0.20607 0.64906 0.0
C704 C 0.35046 0.22755 0.65763 0.0
C705 C 0.39169 0.23486 0.64059 0.0
C706 C 0.39598 0.22006 0.61384 0.0
C707 C 0.35935 0.19819 0.60443 0.0
C708 C 0.31842 0.19088 0.62259 0.0
H709 H 0.35478 0.84132 0.22633 0.0
H710 H 0.34092 0.91124 0.19093 0.0
H711 H 0.37963 0.90357 0.14159 0.0
H712 H 0.46537 0.84608 0.19386 0.0
H713 H 0.45246 0.81242 0.1847 0.0
H714 H 0.42333 0.82342 0.21685 0.0
H715 H 0.34359 0.79868 0.19243 0.0
H716 H 0.37244 0.78753 0.16019 0.0
H717 H 0.3311 0.80431 0.15269 0.0
H718 H 0.42077 0.88811 0.09613 0.0
H719 H 0.46378 0.86725 0.05966 0.0
H720 H 0.44611 0.80639 0.12432 0.0
C721 C 0.3586 0.85467 0.20793 0.0
C722 C 0.34366 0.87652 0.21215 0.0
C723 C 0.35186 0.89427 0.18809 0.0
C724 C 0.37358 0.89001 0.15995 0.0
C725 C 0.38697 0.86794 0.15629 0.0
C726 C 0.3799 0.85062 0.17971 0.0
C727 C 0.3984 0.82869 0.17039 0.0
C728 C 0.4372 0.82761 0.19278 0.0
C729 C 0.35903 0.8033 0.16882 0.0
C730 C 0.41728 0.83643 0.13809 0.0
C731 C 0.41033 0.85907 0.13029 0.0
C732 C 0.4261 0.87026 0.10192 0.0
C733 C 0.4502 0.85818 0.08123 0.0
C734 C 0.45834 0.83515 0.08904 0.0
C735 C 0.44088 0.82408 0.11771 0.0
H736 H 0.85032 0.1624 0.3074 0.0
H737 H 0.94593 0.22411 0.36111 0.0
H738 H 0.9645 0.19293 0.39463 0.0
H739 H 0.80121 0.12954 0.37169 0.0
H740 H 0.7911 0.09806 0.35389 0.0
H741 H 0.79421 0.12442 0.3298 0.0
H742 H 0.85945 0.11403 0.29686 0.0
H743 H 0.85681 0.08773 0.32127 0.0
H744 H 0.91111 0.1123 0.3161 0.0
H745 H 0.96435 0.15631 0.42652 0.0
H746 H 0.93752 0.11843 0.45868 0.0
H747 H 0.8385 0.0802 0.38669 0.0
C748 C 0.87646 0.16914 0.32551 0.0
C749 C 0.89779 0.19548 0.33131 0.0
C750 C 0.93003 0.20392 0.35608 0.0
C751 C 0.94093 0.18634 0.37504 0.0
C752 C 0.91874 0.1604 0.36917 0.0
C753 C 0.88672 0.15182 0.34519 0.0
C754 C 0.86174 0.12356 0.34726 0.0
C755 C 0.80897 0.11863 0.3509 0.0
C756 C 0.87297 0.10852 0.31867 0.0
C757 C 0.88327 0.11779 0.37685 0.0
C758 C 0.91719 0.13914 0.38851 0.0
C759 C 0.93872 0.13932 0.41725 0.0
C760 C 0.92361 0.11766 0.43526 0.0
C761 C 0.88706 0.09623 0.42463 0.0
C762 C 0.86791 0.09595 0.39459 0.0
H763 H 0.26107 0.31425 0.84556 0.0
H764 H 0.24203 0.38201 0.89217 0.0
H765 H 0.30951 0.38559 0.92594 0.0
H766 H 0.29635 0.28843 0.91108 0.0
H767 H 0.3396 0.27739 0.8905 0.0
H768 H 0.28996 0.28009 0.8697 0.0
H769 H 0.34399 0.30952 0.83018 0.0
H770 H 0.39387 0.30664 0.85057 0.0
H771 H 0.38805 0.33771 0.84454 0.0
H772 H 0.37696 0.38069 0.95621 0.0
H773 H 0.44373 0.36966 0.97787 0.0
H774 H 0.42219 0.30716 0.90871 0.0
C775 C 0.27192 0.33042 0.86187 0.0
C776 C 0.24671 0.34821 0.8655 0.0
C777 C 0.26088 0.3682 0.88875 0.0
C778 C 0.29919 0.37042 0.90806 0.0
C779 C 0.32328 0.35261 0.90374 0.0
C780 C 0.31058 0.33318 0.88097 0.0
C781 C 0.34248 0.31659 0.88106 0.0
C782 C 0.31547 0.289 0.88854 0.0
C783 C 0.36865 0.31769 0.84973 0.0
C784 C 0.37491 0.32964 0.90759 0.0
C785 C 0.36295 0.35022 0.92058 0.0
C786 C 0.38691 0.36475 0.94607 0.0
C787 C 0.42451 0.35828 0.95832 0.0
C788 C 0.43802 0.33767 0.94484 0.0
C789 C 0.41275 0.32316 0.91923 0.0
H790 H 0.34589 0.96525 0.38736 0.0
H791 H 0.25104 0.98842 0.32845 0.0
H792 H 0.25428 0.02443 0.36583 0.0
H793 H 0.29858 0.97785 0.45965 0.0
H794 H 0.35339 0.98952 0.47987 0.0
H795 H 0.3468 0.96685 0.44729 0.0
H796 H 0.41672 0.99758 0.41922 0.0
H797 H 0.42379 0.02029 0.45187 0.0
H798 H 0.41664 0.02969 0.4128 0.0
H799 H 0.2635 0.05618 0.41175 0.0
H800 H 0.27948 0.08156 0.46178 0.0
H801 H 0.36948 0.03807 0.48991 0.0
C802 C 0.32637 0.97812 0.38201 0.0
C803 C 0.29832 0.97402 0.35487 0.0
C804 C 0.27293 0.99119 0.349 0.0
C805 C 0.27452 0.01172 0.37011 0.0
C806 C 0.30182 0.01491 0.39694 0.0
C807 C 0.32756 0.99868 0.40282 0.0
C808 C 0.35269 0.00568 0.43394 0.0
C809 C 0.3369 0.98366 0.45651 0.0
C810 C 0.4056 0.0138 0.42916 0.0
C811 C 0.33637 0.02806 0.44492 0.0
C812 C 0.30726 0.0332 0.42322 0.0
C813 C 0.28672 0.05252 0.42874 0.0
C814 C 0.29618 0.06692 0.45719 0.0
C815 C 0.32587 0.06192 0.47983 0.0
C816 C 0.34632 0.04228 0.47329 0.0
H817 H 0.70803 0.8444 0.77906 0.0
H818 H 0.76158 0.78231 0.80078 0.0
H819 H 0.71885 0.77759 0.8512 0.0
H820 H 0.70979 0.87155 0.85895 0.0
H821 H 0.65647 0.87913 0.85344 0.0
H822 H 0.6945 0.87893 0.8206 0.0
H823 H 0.62674 0.8466 0.79011 0.0
H824 H 0.58856 0.84675 0.82277 0.0
H825 H 0.59575 0.8171 0.80767 0.0
H826 H 0.66562 0.77807 0.89784 0.0
H827 H 0.6043 0.7824 0.93485 0.0
H828 H 0.5872 0.84438 0.88192 0.0
C829 C 0.71137 0.83 0.79453 0.0
C830 C 0.73831 0.81378 0.78602 0.0
C831 C 0.74124 0.795 0.80686 0.0
C832 C 0.71723 0.79225 0.83558 0.0
C833 C 0.69066 0.80847 0.84309 0.0
C834 C 0.68768 0.82698 0.82309 0.0
C835 C 0.65467 0.841 0.8355 0.0
C836 C 0.68041 0.86933 0.84254 0.0
C837 C 0.61404 0.83765 0.81266 0.0
C838 C 0.63865 0.82716 0.86532 0.0
C839 C 0.66011 0.80866 0.86959 0.0
C840 C 0.64901 0.79269 0.89487 0.0
C841 C 0.61435 0.79536 0.91587 0.0
C842 C 0.59101 0.81369 0.91122 0.0
C843 C 0.60428 0.83011 0.886 0.0
loop_
_geom_bond_atom_site_label_1
_geom_bond_atom_site_label_2
_geom_bond_distance
_geom_bond_site_symmetry_2
_ccdc_geom_bond_type
O0 Cd1 2.300 . S
O0 C7 1.275 . S
Cd1 O0 2.300 . S
Cd1 O9 2.381 . S
Cd1 O10 2.378 . S
O2 Cd3 2.385 . S
O2 C7 1.255 . S
Cd3 O2 2.385 . S
Cd3 O4 2.317 . S
O4 Cd3 2.317 . S
O4 C5 1.232 . S
C5 O4 1.232 . S
C5 O6 1.218 . S
O6 C5 1.218 . S
C7 O0 1.275 . S
C7 O2 1.255 . S
C8 O9 1.258 . S
C8 O10 1.256 . S
O9 Cd1 2.381 . S
O9 C8 1.258 . S
O10 Cd1 2.378 . S
O10 C8 1.256 . S
O11 Cd12 2.300 . S
O11 C18 1.275 . S
Cd12 O11 2.300 . S
Cd12 O20 2.381 . S
Cd12 O21 2.378 . S
O13 Cd14 2.385 . S
O13 C18 1.255 . S
Cd14 O13 2.385 . S
Cd14 O15 2.317 . S
O15 Cd14 2.317 . S
O15 C16 1.232 . S
C16 O15 1.232 . S
C16 O17 1.218 . S
O17 C16 1.218 . S
C18 O11 1.275 . S
C18 O13 1.255 . S
C19 O20 1.258 . S
C19 O21 1.256 . S
O20 Cd12 2.381 . S
O20 C19 1.258 . S
O21 Cd12 2.378 . S
O21 C19 1.256 . S
O22 Cd23 2.300 . S
O22 C29 1.275 . S
Cd23 O22 2.300 . S
Cd23 O31 2.381 . S
Cd23 O32 2.378 . S
O24 Cd25 2.385 . S
O24 C29 1.255 . S
Cd25 O24 2.385 . S
Cd25 O26 2.317 . S
O26 Cd25 2.317 . S
O26 C27 1.232 . S
C27 O26 1.232 . S
C27 O28 1.218 . S
O28 C27 1.218 . S
C29 O22 1.275 . S
C29 O24 1.255 . S
C30 O31 1.258 . S
C30 O32 1.256 . S
O31 Cd23 2.381 . S
O31 C30 1.258 . S
O32 Cd23 2.378 . S
O32 C30 1.256 . S
O33 Cd34 2.300 . S
O33 C40 1.275 . S
Cd34 O33 2.300 . S
Cd34 O42 2.381 . S
Cd34 O43 2.378 . S
O35 Cd36 2.385 . S
O35 C40 1.255 . S
Cd36 O35 2.385 . S
Cd36 O37 2.317 . S
O37 Cd36 2.317 . S
O37 C38 1.232 . S
C38 O37 1.232 . S
C38 O39 1.218 . S
O39 C38 1.218 . S
C40 O33 1.275 . S
C40 O35 1.255 . S
C41 O42 1.258 . S
C41 O43 1.256 . S
O42 Cd34 2.381 . S
O42 C41 1.258 . S
O43 Cd34 2.378 . S
O43 C41 1.256 . S
O44 Cd45 2.300 . S
O44 C51 1.275 . S
Cd45 O44 2.300 . S
Cd45 O53 2.381 . S
Cd45 O54 2.378 . S
O46 Cd47 2.385 . S
O46 C51 1.255 . S
Cd47 O46 2.385 . S
Cd47 O48 2.317 . S
O48 Cd47 2.317 . S
O48 C49 1.232 . S
C49 O48 1.232 . S
C49 O50 1.218 . S
O50 C49 1.218 . S
C51 O44 1.275 . S
C51 O46 1.255 . S
C52 O53 1.258 . S
C52 O54 1.256 . S
O53 Cd45 2.381 . S
O53 C52 1.258 . S
O54 Cd45 2.378 . S
O54 C52 1.256 . S
O55 Cd56 2.300 . S
O55 C62 1.275 . S
Cd56 O55 2.300 . S
Cd56 O64 2.381 . S
Cd56 O65 2.378 . S
O57 Cd58 2.385 . S
O57 C62 1.255 . S
Cd58 O57 2.385 . S
Cd58 O59 2.317 . S
O59 Cd58 2.317 . S
O59 C60 1.232 . S
C60 O59 1.232 . S
C60 O61 1.218 . S
O61 C60 1.218 . S
C62 O55 1.275 . S
C62 O57 1.255 . S
C63 O64 1.258 . S
C63 O65 1.256 . S
O64 Cd56 2.381 . S
O64 C63 1.258 . S
O65 Cd56 2.378 . S
O65 C63 1.256 . S
O66 Cd67 2.300 . S
O66 C73 1.275 . S
Cd67 O66 2.300 . S
Cd67 O75 2.381 . S
Cd67 O76 2.378 . S
O68 Cd69 2.385 . S
O68 C73 1.255 . S
Cd69 O68 2.385 . S
Cd69 O70 2.317 . S
O70 Cd69 2.317 . S
O70 C71 1.232 . S
C71 O70 1.232 . S
C71 O72 1.218 . S
O72 C71 1.218 . S
C73 O66 1.275 . S
C73 O68 1.255 . S
C74 O75 1.258 . S
C74 O76 1.256 . S
O75 Cd67 2.381 . S
O75 C74 1.258 . S
O76 Cd67 2.378 . S
O76 C74 1.256 . S
O77 Cd78 2.300 . S
O77 C84 1.275 . S
Cd78 O77 2.300 . S
Cd78 O86 2.381 . S
Cd78 O87 2.378 . S
O79 Cd80 2.385 . S
O79 C84 1.255 . S
Cd80 O79 2.385 . S
Cd80 O81 2.317 . S
O81 Cd80 2.317 . S
O81 C82 1.232 . S
C82 O81 1.232 . S
C82 O83 1.218 . S
O83 C82 1.218 . S
C84 O77 1.275 . S
C84 O79 1.255 . S
C85 O86 1.258 . S
C85 O87 1.256 . S
O86 Cd78 2.381 . S
O86 C85 1.258 . S
O87 Cd78 2.378 . S
O87 C85 1.256 . S
H88 C94 0.930 . S
H89 C97 0.931 1_655 S
H90 C99 0.931 . S
H91 C101 0.930 . S
H92 C103 0.930 . S
H93 C105 0.931 1_655 S
C94 H88 0.930 . S
C94 C95 1.380 . S
C94 C96 1.394 . S
C95 C94 1.380 . S
C95 C99 1.382 . S
C96 C94 1.394 . S
C96 C97 1.400 . S
C97 H89 0.931 1_455 S
C97 C96 1.400 . S
C97 C98 1.375 . S
C98 C97 1.375 . S
C98 C99 1.415 . S
C98 C100 1.501 . S
C99 H90 0.931 . S
C99 C95 1.382 . S
C99 C98 1.415 . S
C100 C98 1.501 . S
C100 C101 1.384 . S
C100 C105 1.408 . S
C101 H91 0.930 . S
C101 C100 1.384 . S
C101 C102 1.389 . S
C102 C101 1.389 . S
C102 C103 1.405 . S
C103 H92 0.930 . S
C103 C102 1.405 . S
C103 C104 1.364 . S
C104 C103 1.364 . S
C104 C105 1.400 . S
C105 H93 0.931 1_455 S
C105 C100 1.408 . S
C105 C104 1.400 . S
H106 C112 0.930 . S
H107 C115 0.931 . S
H108 C117 0.931 . S
H109 C119 0.930 . S
H110 C121 0.930 . S
H111 C123 0.931 . S
C112 H106 0.930 . S
C112 C113 1.380 1_455 S
C112 C114 1.394 . S
C113 C112 1.380 1_655 S
C113 C117 1.382 . S
C114 C112 1.394 . S
C114 C115 1.400 . S
C115 H107 0.931 . S
C115 C114 1.400 . S
C115 C116 1.375 . S
C116 C115 1.375 . S
C116 C117 1.415 1_455 S
C116 C118 1.506 1_455 S
C117 H108 0.931 . S
C117 C113 1.382 . S
C117 C116 1.415 1_655 S
C118 C116 1.506 1_655 S
C118 C119 1.396 . S
C118 C123 1.390 1_655 S
C119 H109 0.930 . S
C119 C118 1.396 . S
C119 C120 1.389 . S
C120 C119 1.389 . S
C120 C121 1.405 . S
C121 H110 0.930 . S
C121 C120 1.405 . S
C121 C122 1.364 1_655 S
C122 C121 1.364 1_455 S
C122 C123 1.400 . S
C123 H111 0.931 . S
C123 C118 1.390 1_455 S
C123 C122 1.400 . S
H124 C130 0.930 . S
H125 C133 0.931 . S
H126 C135 0.931 . S
H127 C137 0.930 . S
H128 C139 0.930 . S
H129 C141 0.931 . S
C130 H124 0.930 . S
C130 C131 1.380 . S
C130 C132 1.394 . S
C131 C130 1.380 . S
C131 C135 1.382 . S
C132 C130 1.394 . S
C132 C133 1.400 . S
C133 H125 0.931 . S
C133 C132 1.400 . S
C133 C134 1.375 . S
C134 C133 1.375 . S
C134 C135 1.415 . S
C134 C136 1.501 . S
C135 H126 0.931 . S
C135 C131 1.382 . S
C135 C134 1.415 . S
C136 C134 1.501 . S
C136 C137 1.384 . S
C136 C141 1.408 . S
C137 H127 0.930 . S
C137 C136 1.384 . S
C137 C138 1.389 . S
C138 C137 1.389 . S
C138 C139 1.405 . S
C139 H128 0.930 . S
C139 C138 1.405 . S
C139 C140 1.364 . S
C140 C139 1.364 . S
C140 C141 1.400 . S
C141 H129 0.931 . S
C141 C136 1.408 . S
C141 C140 1.400 . S
H142 C148 0.930 . S
H143 C151 0.931 . S
H144 C153 0.931 . S
H145 C155 0.930 . S
H146 C157 0.930 . S
H147 C159 0.931 . S
C148 H142 0.930 . S
C148 C149 1.380 . S
C148 C150 1.394 . S
C149 C148 1.380 . S
C149 C153 1.382 . S
C150 C148 1.394 . S
C150 C151 1.400 . S
C151 H143 0.931 . S
C151 C150 1.400 . S
C151 C152 1.375 . S
C152 C151 1.375 . S
C152 C153 1.415 . S
C152 C154 1.501 1_554 S
C153 H144 0.931 . S
C153 C149 1.382 . S
C153 C152 1.415 . S
C154 C152 1.501 1_556 S
C154 C155 1.384 . S
C154 C159 1.408 . S
C155 H145 0.930 . S
C155 C154 1.384 . S
C155 C156 1.389 . S
C156 C155 1.389 . S
C156 C157 1.405 . S
C157 H146 0.930 . S
C157 C156 1.405 . S
C157 C158 1.364 . S
C158 C157 1.364 . S
C158 C159 1.400 . S
C159 H147 0.931 . S
C159 C154 1.408 . S
C159 C158 1.400 . S
H160 C166 0.930 . S
H161 C169 0.931 . S
H162 C171 0.931 . S
H163 C173 0.930 1_545 S
H164 C175 0.930 . S
H165 C177 0.931 1_545 S
C166 H160 0.930 . S
C166 C167 1.380 . S
C166 C168 1.394 . S
C167 C166 1.380 . S
C167 C171 1.382 . S
C168 C166 1.394 . S
C168 C169 1.400 . S
C169 H161 0.931 . S
C169 C168 1.400 . S
C169 C170 1.375 . S
C170 C169 1.375 . S
C170 C171 1.415 . S
C170 C172 1.501 . S
C171 H162 0.931 . S
C171 C167 1.382 . S
C171 C170 1.415 . S
C172 C170 1.501 . S
C172 C173 1.384 1_545 S
C172 C177 1.408 1_545 S
C173 H163 0.930 1_565 S
C173 C172 1.384 1_565 S
C173 C174 1.389 . S
C174 C173 1.389 . S
C174 C175 1.405 . S
C175 H164 0.930 . S
C175 C174 1.405 . S
C175 C176 1.364 . S
C176 C175 1.364 . S
C176 C177 1.400 . S
C177 H165 0.931 1_565 S
C177 C172 1.408 1_565 S
C177 C176 1.400 . S
H178 C184 0.930 . S
H179 C187 0.931 . S
H180 C189 0.931 . S
H181 C191 0.930 . S
H182 C193 0.930 . S
H183 C195 0.931 . S
C184 H178 0.930 . S
C184 C185 1.380 . S
C184 C186 1.394 . S
C185 C184 1.380 . S
C185 C189 1.382 . S
C186 C184 1.394 . S
C186 C187 1.400 . S
C187 H179 0.931 . S
C187 C186 1.400 . S
C187 C188 1.375 . S
C188 C187 1.375 . S
C188 C189 1.415 . S
C188 C190 1.501 1_554 S
C189 H180 0.931 . S
C189 C185 1.382 . S
C189 C188 1.415 . S
C190 C188 1.501 1_556 S
C190 C191 1.384 . S
C190 C195 1.408 . S
C191 H181 0.930 . S
C191 C190 1.384 . S
C191 C192 1.389 . S
C192 C191 1.389 . S
C192 C193 1.405 . S
C193 H182 0.930 . S
C193 C192 1.405 . S
C193 C194 1.364 . S
C194 C193 1.364 . S
C194 C195 1.400 . S
C195 H183 0.931 . S
C195 C190 1.408 . S
C195 C194 1.400 . S
H196 C208 0.930 . S
H197 C210 0.930 . S
H198 C211 0.930 . S
H199 C215 0.959 . S
H200 C215 0.959 . S
H201 C215 0.961 . S
H202 C216 0.960 . S
H203 C216 0.961 . S
H204 C216 0.959 . S
H205 C219 0.929 . S
H206 C220 0.931 . S
H207 C222 0.930 . S
C208 H196 0.930 . S
C208 C209 1.399 . S
C208 C213 1.399 . S
C209 C208 1.399 . S
C209 C210 1.376 . S
C210 H197 0.930 . S
C210 C209 1.376 . S
C210 C211 1.388 . S
C211 H198 0.930 . S
C211 C210 1.388 . S
C211 C212 1.390 . S
C212 C211 1.390 . S
C212 C213 1.394 . S
C212 C218 1.465 . S
C213 C208 1.399 . S
C213 C212 1.394 . S
C213 C214 1.516 . S
C214 C213 1.516 . S
C214 C215 1.502 . S
C214 C216 1.561 . S
C214 C217 1.526 . S
C215 H199 0.959 . S
C215 H200 0.959 . S
C215 H201 0.961 . S
C215 C214 1.502 . S
C216 H202 0.960 . S
C216 H203 0.961 . S
C216 H204 0.959 . S
C216 C214 1.561 . S
C217 C214 1.526 . S
C217 C218 1.396 . S
C217 C222 1.390 . S
C218 C212 1.465 . S
C218 C217 1.396 . S
C218 C219 1.399 . S
C219 H205 0.929 . S
C219 C218 1.399 . S
C219 C220 1.385 . S
C220 H206 0.931 . S
C220 C219 1.385 . S
C220 C221 1.389 . S
C221 C220 1.389 . S
C221 C222 1.387 . S
C222 H207 0.930 . S
C222 C217 1.390 . S
C222 C221 1.387 . S
H223 C235 0.930 . S
H224 C237 0.930 . S
H225 C238 0.930 . S
H226 C242 0.959 . S
H227 C242 0.959 . S
H228 C242 0.961 . S
H229 C243 0.960 . S
H230 C243 0.961 . S
H231 C243 0.959 . S
H232 C246 0.929 . S
H233 C247 0.931 . S
H234 C249 0.930 . S
C235 H223 0.930 . S
C235 C236 1.399 . S
C235 C240 1.399 . S
C236 C235 1.399 . S
C236 C237 1.376 . S
C237 H224 0.930 . S
C237 C236 1.376 . S
C237 C238 1.388 . S
C238 H225 0.930 . S
C238 C237 1.388 . S
C238 C239 1.390 . S
C239 C238 1.390 . S
C239 C240 1.394 . S
C239 C245 1.465 . S
C240 C235 1.399 . S
C240 C239 1.394 . S
C240 C241 1.516 . S
C241 C240 1.516 . S
C241 C242 1.502 . S
C241 C243 1.561 . S
C241 C244 1.526 . S
C242 H226 0.959 . S
C242 H227 0.959 . S
C242 H228 0.961 . S
C242 C241 1.502 . S
C243 H229 0.960 . S
C243 H230 0.961 . S
C243 H231 0.959 . S
C243 C241 1.561 . S
C244 C241 1.526 . S
C244 C245 1.396 . S
C244 C249 1.390 . S
C245 C239 1.465 . S
C245 C244 1.396 . S
C245 C246 1.399 . S
C246 H232 0.929 . S
C246 C245 1.399 . S
C246 C247 1.385 . S
C247 H233 0.931 . S
C247 C246 1.385 . S
C247 C248 1.389 . S
C248 C247 1.389 . S
C248 C249 1.387 . S
C249 H234 0.930 . S
C249 C244 1.390 . S
C249 C248 1.387 . S
H250 C262 0.930 . S
H251 C264 0.930 . S
H252 C265 0.930 . S
H253 C269 0.959 . S
H254 C269 0.959 . S
H255 C269 0.961 . S
H256 C270 0.960 . S
H257 C270 0.961 . S
H258 C270 0.959 . S
H259 C273 0.929 1_455 S
H260 C274 0.931 . S
H261 C276 0.930 . S
C262 H250 0.930 . S
C262 C263 1.399 . S
C262 C267 1.399 . S
C263 C262 1.399 . S
C263 C264 1.376 . S
C264 H251 0.930 . S
C264 C263 1.376 . S
C264 C265 1.388 . S
C265 H252 0.930 . S
C265 C264 1.388 . S
C265 C266 1.390 . S
C266 C265 1.390 . S
C266 C267 1.394 . S
C266 C272 1.465 . S
C267 C262 1.399 . S
C267 C266 1.394 . S
C267 C268 1.516 . S
C268 C267 1.516 . S
C268 C269 1.502 . S
C268 C270 1.561 . S
C268 C271 1.526 . S
C269 H253 0.959 . S
C269 H254 0.959 . S
C269 H255 0.961 . S
C269 C268 1.502 . S
C270 H256 0.960 . S
C270 H257 0.961 . S
C270 H258 0.959 . S
C270 C268 1.561 . S
C271 C268 1.526 . S
C271 C272 1.396 . S
C271 C276 1.390 . S
C272 C266 1.465 . S
C272 C271 1.396 . S
C272 C273 1.399 . S
C273 H259 0.929 1_655 S
C273 C272 1.399 . S
C273 C274 1.385 1_655 S
C274 H260 0.931 . S
C274 C273 1.385 1_455 S
C274 C275 1.389 1_455 S
C275 C274 1.389 1_655 S
C275 C276 1.387 . S
C276 H261 0.930 . S
C276 C271 1.390 . S
C276 C275 1.387 . S
H277 C289 0.930 . S
H278 C291 0.930 . S
H279 C292 0.930 . S
H280 C296 0.959 . S
H281 C296 0.959 . S
H282 C296 0.961 . S
H283 C297 0.960 . S
H284 C297 0.961 . S
H285 C297 0.959 . S
H286 C300 0.929 . S
H287 C301 0.931 . S
H288 C303 0.930 . S
C289 H277 0.930 . S
C289 C290 1.399 . S
C289 C294 1.399 . S
C290 C289 1.399 . S
C290 C291 1.376 . S
C291 H278 0.930 . S
C291 C290 1.376 . S
C291 C292 1.388 . S
C292 H279 0.930 . S
C292 C291 1.388 . S
C292 C293 1.390 . S
C293 C292 1.390 . S
C293 C294 1.394 . S
C293 C299 1.465 . S
C294 C289 1.399 . S
C294 C293 1.394 . S
C294 C295 1.516 . S
C295 C294 1.516 . S
C295 C296 1.502 . S
C295 C297 1.561 . S
C295 C298 1.526 . S
C296 H280 0.959 . S
C296 H281 0.959 . S
C296 H282 0.961 . S
C296 C295 1.502 . S
C297 H283 0.960 . S
C297 H284 0.961 . S
C297 H285 0.959 . S
C297 C295 1.561 . S
C298 C295 1.526 . S
C298 C299 1.396 . S
C298 C303 1.390 . S
C299 C293 1.465 . S
C299 C298 1.396 . S
C299 C300 1.399 . S
C300 H286 0.929 . S
C300 C299 1.399 . S
C300 C301 1.385 . S
C301 H287 0.931 . S
C301 C300 1.385 . S
C301 C302 1.389 . S
C302 C301 1.389 . S
C302 C303 1.387 . S
C303 H288 0.930 . S
C303 C298 1.390 . S
C303 C302 1.387 . S
H304 C316 0.930 . S
H305 C318 0.930 . S
H306 C319 0.930 . S
H307 C323 0.959 . S
H308 C323 0.959 . S
H309 C323 0.961 . S
H310 C324 0.960 . S
H311 C324 0.961 . S
H312 C324 0.959 . S
H313 C327 0.929 . S
H314 C328 0.931 . S
H315 C330 0.930 . S
C316 H304 0.930 . S
C316 C317 1.399 . S
C316 C321 1.399 . S
C317 C316 1.399 . S
C317 C318 1.376 . S
C318 H305 0.930 . S
C318 C317 1.376 . S
C318 C319 1.388 . S
C319 H306 0.930 . S
C319 C318 1.388 . S
C319 C320 1.390 . S
C320 C319 1.390 . S
C320 C321 1.394 . S
C320 C326 1.465 . S
C321 C316 1.399 . S
C321 C320 1.394 . S
C321 C322 1.516 . S
C322 C321 1.516 . S
C322 C323 1.502 . S
C322 C324 1.561 . S
C322 C325 1.526 . S
C323 H307 0.959 . S
C323 H308 0.959 . S
C323 H309 0.961 . S
C323 C322 1.502 . S
C324 H310 0.960 . S
C324 H311 0.961 . S
C324 H312 0.959 . S
C324 C322 1.561 . S
C325 C322 1.526 . S
C325 C326 1.396 . S
C325 C330 1.390 . S
C326 C320 1.465 . S
C326 C325 1.396 . S
C326 C327 1.399 . S
C327 H313 0.929 . S
C327 C326 1.399 . S
C327 C328 1.385 . S
C328 H314 0.931 . S
C328 C327 1.385 . S
C328 C329 1.389 . S
C329 C328 1.389 . S
C329 C330 1.387 . S
C330 H315 0.930 . S
C330 C325 1.390 . S
C330 C329 1.387 . S
H331 C343 0.930 . S
H332 C345 0.930 . S
H333 C346 0.930 . S
H334 C350 0.959 . S
H335 C350 0.959 . S
H336 C350 0.961 . S
H337 C351 0.960 . S
H338 C351 0.961 . S
H339 C351 0.959 . S
H340 C354 0.929 . S
H341 C355 0.931 . S
H342 C357 0.930 . S
C343 H331 0.930 . S
C343 C344 1.399 . S
C343 C348 1.399 . S
C344 C343 1.399 . S
C344 C345 1.376 . S
C345 H332 0.930 . S
C345 C344 1.376 . S
C345 C346 1.388 . S
C346 H333 0.930 . S
C346 C345 1.388 . S
C346 C347 1.390 . S
C347 C346 1.390 . S
C347 C348 1.394 . S
C347 C353 1.465 . S
C348 C343 1.399 . S
C348 C347 1.394 . S
C348 C349 1.516 . S
C349 C348 1.516 . S
C349 C350 1.502 . S
C349 C351 1.561 . S
C349 C352 1.526 . S
C350 H334 0.959 . S
C350 H335 0.959 . S
C350 H336 0.961 . S
C350 C349 1.502 . S
C351 H337 0.960 . S
C351 H338 0.961 . S
C351 H339 0.959 . S
C351 C349 1.561 . S
C352 C349 1.526 . S
C352 C353 1.396 . S
C352 C357 1.390 . S
C353 C347 1.465 . S
C353 C352 1.396 . S
C353 C354 1.399 . S
C354 H340 0.929 . S
C354 C353 1.399 . S
C354 C355 1.385 . S
C355 H341 0.931 . S
C355 C354 1.385 . S
C355 C356 1.389 . S
C356 C355 1.389 . S
C356 C357 1.387 . S
C357 H342 0.930 . S
C357 C352 1.390 . S
C357 C356 1.387 . S
H358 C370 0.930 . S
H359 C372 0.930 . S
H360 C373 0.930 . S
H361 C377 0.959 . S
H362 C377 0.959 . S
H363 C377 0.961 . S
H364 C378 0.960 . S
H365 C378 0.961 . S
H366 C378 0.959 . S
H367 C381 0.929 . S
H368 C382 0.931 . S
H369 C384 0.930 . S
C370 H358 0.930 . S
C370 C371 1.399 . S
C370 C375 1.399 . S
C371 C370 1.399 . S
C371 C372 1.376 . S
C372 H359 0.930 . S
C372 C371 1.376 . S
C372 C373 1.388 . S
C373 H360 0.930 . S
C373 C372 1.388 . S
C373 C374 1.390 . S
C374 C373 1.390 . S
C374 C375 1.394 . S
C374 C380 1.465 . S
C375 C370 1.399 . S
C375 C374 1.394 . S
C375 C376 1.516 . S
C376 C375 1.516 . S
C376 C377 1.502 . S
C376 C378 1.561 . S
C376 C379 1.526 . S
C377 H361 0.959 . S
C377 H362 0.959 . S
C377 H363 0.961 . S
C377 C376 1.502 . S
C378 H364 0.960 . S
C378 H365 0.961 . S
C378 H366 0.959 . S
C378 C376 1.561 . S
C379 C376 1.526 . S
C379 C380 1.396 . S
C379 C384 1.390 . S
C380 C374 1.465 . S
C380 C379 1.396 . S
C380 C381 1.399 . S
C381 H367 0.929 . S
C381 C380 1.399 . S
C381 C382 1.385 . S
C382 H368 0.931 . S
C382 C381 1.385 . S
C382 C383 1.389 . S
C383 C382 1.389 . S
C383 C384 1.387 . S
C384 H369 0.930 . S
C384 C379 1.390 . S
C384 C383 1.387 . S
H385 C397 0.930 . S
H386 C399 0.930 . S
H387 C400 0.930 . S
H388 C404 0.959 . S
H389 C404 0.959 . S
H390 C404 0.961 . S
H391 C405 0.960 . S
H392 C405 0.961 . S
H393 C405 0.959 . S
H394 C408 0.929 . S
H395 C409 0.931 . S
H396 C411 0.930 . S
C397 H385 0.930 . S
C397 C398 1.399 . S
C397 C402 1.399 . S
C398 C397 1.399 . S
C398 C399 1.376 . S
C399 H386 0.930 . S
C399 C398 1.376 . S
C399 C400 1.388 . S
C400 H387 0.930 . S
C400 C399 1.388 . S
C400 C401 1.390 . S
C401 C400 1.390 . S
C401 C402 1.394 . S
C401 C407 1.465 . S
C402 C397 1.399 . S
C402 C401 1.394 . S
C402 C403 1.516 . S
C403 C402 1.516 . S
C403 C404 1.502 . S
C403 C405 1.561 . S
C403 C406 1.526 . S
C404 H388 0.959 . S
C404 H389 0.959 . S
C404 H390 0.961 . S
C404 C403 1.502 . S
C405 H391 0.960 . S
C405 H392 0.961 . S
C405 H393 0.959 . S
C405 C403 1.561 . S
C406 C403 1.526 . S
C406 C407 1.396 . S
C406 C411 1.390 . S
C407 C401 1.465 . S
C407 C406 1.396 . S
C407 C408 1.399 . S
C408 H394 0.929 . S
C408 C407 1.399 . S
C408 C409 1.385 . S
C409 H395 0.931 . S
C409 C408 1.385 . S
C409 C410 1.389 . S
C410 C409 1.389 . S
C410 C411 1.387 . S
C411 H396 0.930 . S
C411 C406 1.390 . S
C411 C410 1.387 . S
H412 C424 0.930 . S
H413 C426 0.930 . S
H414 C427 0.930 . S
H415 C431 0.959 . S
H416 C431 0.959 . S
H417 C431 0.961 . S
H418 C432 0.960 . S
H419 C432 0.961 . S
H420 C432 0.959 . S
H421 C435 0.929 . S
H422 C436 0.931 . S
H423 C438 0.930 . S
C424 H412 0.930 . S
C424 C425 1.399 . S
C424 C429 1.399 . S
C425 C424 1.399 . S
C425 C426 1.376 . S
C426 H413 0.930 . S
C426 C425 1.376 . S
C426 C427 1.388 . S
C427 H414 0.930 . S
C427 C426 1.388 . S
C427 C428 1.390 . S
C428 C427 1.390 . S
C428 C429 1.394 . S
C428 C434 1.465 1_565 S
C429 C424 1.399 . S
C429 C428 1.394 . S
C429 C430 1.516 . S
C430 C429 1.516 . S
C430 C431 1.502 . S
C430 C432 1.561 . S
C430 C433 1.526 1_565 S
C431 H415 0.959 . S
C431 H416 0.959 . S
C431 H417 0.961 . S
C431 C430 1.502 . S
C432 H418 0.960 . S
C432 H419 0.961 . S
C432 H420 0.959 . S
C432 C430 1.561 . S
C433 C430 1.526 1_545 S
C433 C434 1.396 . S
C433 C438 1.390 . S
C434 C428 1.465 1_545 S
C434 C433 1.396 . S
C434 C435 1.399 . S
C435 H421 0.929 . S
C435 C434 1.399 . S
C435 C436 1.385 . S
C436 H422 0.931 . S
C436 C435 1.385 . S
C436 C437 1.389 . S
C437 C436 1.389 . S
C437 C438 1.387 . S
C438 H423 0.930 . S
C438 C433 1.390 . S
C438 C437 1.387 . S
H439 C451 0.930 . S
H440 C453 0.930 . S
H441 C454 0.930 . S
H442 C458 0.959 . S
H443 C458 0.959 . S
H444 C458 0.961 . S
H445 C459 0.960 . S
H446 C459 0.961 . S
H447 C459 0.959 . S
H448 C462 0.929 . S
H449 C463 0.931 . S
H450 C465 0.930 . S
C451 H439 0.930 . S
C451 C452 1.399 . S
C451 C456 1.399 . S
C452 C451 1.399 . S
C452 C453 1.376 . S
C453 H440 0.930 . S
C453 C452 1.376 . S
C453 C454 1.388 . S
C454 H441 0.930 . S
C454 C453 1.388 . S
C454 C455 1.390 . S
C455 C454 1.390 . S
C455 C456 1.394 . S
C455 C461 1.465 . S
C456 C451 1.399 . S
C456 C455 1.394 . S
C456 C457 1.516 . S
C457 C456 1.516 . S
C457 C458 1.502 . S
C457 C459 1.561 . S
C457 C460 1.526 . S
C458 H442 0.959 . S
C458 H443 0.959 . S
C458 H444 0.961 . S
C458 C457 1.502 . S
C459 H445 0.960 . S
C459 H446 0.961 . S
C459 H447 0.959 . S
C459 C457 1.561 . S
C460 C457 1.526 . S
C460 C461 1.396 . S
C460 C465 1.390 . S
C461 C455 1.465 . S
C461 C460 1.396 . S
C461 C462 1.399 . S
C462 H448 0.929 . S
C462 C461 1.399 . S
C462 C463 1.385 . S
C463 H449 0.931 . S
C463 C462 1.385 . S
C463 C464 1.389 . S
C464 C463 1.389 . S
C464 C465 1.387 . S
C465 H450 0.930 . S
C465 C460 1.390 . S
C465 C464 1.387 . S
H466 C478 0.930 . S
H467 C480 0.930 . S
H468 C481 0.930 . S
H469 C485 0.959 . S
H470 C485 0.959 . S
H471 C485 0.961 . S
H472 C486 0.960 . S
H473 C486 0.961 . S
H474 C486 0.959 . S
H475 C489 0.929 . S
H476 C490 0.931 . S
H477 C492 0.930 . S
C478 H466 0.930 . S
C478 C479 1.399 . S
C478 C483 1.399 . S
C479 C478 1.399 . S
C479 C480 1.376 . S
C480 H467 0.930 . S
C480 C479 1.376 . S
C480 C481 1.388 . S
C481 H468 0.930 . S
C481 C480 1.388 . S
C481 C482 1.390 . S
C482 C481 1.390 . S
C482 C483 1.394 . S
C482 C488 1.465 . S
C483 C478 1.399 . S
C483 C482 1.394 . S
C483 C484 1.516 . S
C484 C483 1.516 . S
C484 C485 1.502 . S
C484 C486 1.561 . S
C484 C487 1.526 . S
C485 H469 0.959 . S
C485 H470 0.959 . S
C485 H471 0.961 . S
C485 C484 1.502 . S
C486 H472 0.960 . S
C486 H473 0.961 . S
C486 H474 0.959 . S
C486 C484 1.561 . S
C487 C484 1.526 . S
C487 C488 1.396 . S
C487 C492 1.390 . S
C488 C482 1.465 . S
C488 C487 1.396 . S
C488 C489 1.399 . S
C489 H475 0.929 . S
C489 C488 1.399 . S
C489 C490 1.385 . S
C490 H476 0.931 . S
C490 C489 1.385 . S
C490 C491 1.389 . S
C491 C490 1.389 . S
C491 C492 1.387 . S
C492 H477 0.930 . S
C492 C487 1.390 . S
C492 C491 1.387 . S
H493 C505 0.930 . S
H494 C507 0.930 . S
H495 C508 0.930 . S
H496 C512 0.959 . S
H497 C512 0.959 . S
H498 C512 0.961 . S
H499 C513 0.960 . S
H500 C513 0.961 . S
H501 C513 0.959 . S
H502 C516 0.929 . S
H503 C517 0.931 . S
H504 C519 0.930 . S
C505 H493 0.930 . S
C505 C506 1.399 . S
C505 C510 1.399 . S
C506 C505 1.399 . S
C506 C507 1.376 . S
C507 H494 0.930 . S
C507 C506 1.376 . S
C507 C508 1.388 . S
C508 H495 0.930 . S
C508 C507 1.388 . S
C508 C509 1.390 . S
C509 C508 1.390 . S
C509 C510 1.394 . S
C509 C515 1.465 . S
C510 C505 1.399 . S
C510 C509 1.394 . S
C510 C511 1.516 . S
C511 C510 1.516 . S
C511 C512 1.502 . S
C511 C513 1.561 . S
C511 C514 1.526 . S
C512 H496 0.959 . S
C512 H497 0.959 . S
C512 H498 0.961 . S
C512 C511 1.502 . S
C513 H499 0.960 . S
C513 H500 0.961 . S
C513 H501 0.959 . S
C513 C511 1.561 . S
C514 C511 1.526 . S
C514 C515 1.396 . S
C514 C519 1.390 . S
C515 C509 1.465 . S
C515 C514 1.396 . S
C515 C516 1.399 . S
C516 H502 0.929 . S
C516 C515 1.399 . S
C516 C517 1.385 . S
C517 H503 0.931 . S
C517 C516 1.385 . S
C517 C518 1.389 . S
C518 C517 1.389 . S
C518 C519 1.387 . S
C519 H504 0.930 . S
C519 C514 1.390 . S
C519 C518 1.387 . S
H520 C532 0.930 . S
H521 C534 0.930 . S
H522 C535 0.930 . S
H523 C539 0.959 . S
H524 C539 0.959 . S
H525 C539 0.961 . S
H526 C540 0.960 . S
H527 C540 0.961 . S
H528 C540 0.959 . S
H529 C543 0.929 . S
H530 C544 0.931 . S
H531 C546 0.930 . S
C532 H520 0.930 . S
C532 C533 1.399 . S
C532 C537 1.399 . S
C533 C532 1.399 . S
C533 C534 1.376 . S
C534 H521 0.930 . S
C534 C533 1.376 . S
C534 C535 1.388 . S
C535 H522 0.930 . S
C535 C534 1.388 . S
C535 C536 1.390 . S
C536 C535 1.390 . S
C536 C537 1.394 . S
C536 C542 1.465 . S
C537 C532 1.399 . S
C537 C536 1.394 . S
C537 C538 1.516 . S
C538 C537 1.516 . S
C538 C539 1.502 . S
C538 C540 1.561 . S
C538 C541 1.526 . S
C539 H523 0.959 . S
C539 H524 0.959 . S
C539 H525 0.961 . S
C539 C538 1.502 . S
C540 H526 0.960 . S
C540 H527 0.961 . S
C540 H528 0.959 . S
C540 C538 1.561 . S
C541 C538 1.526 . S
C541 C542 1.396 . S
C541 C546 1.390 . S
C542 C536 1.465 . S
C542 C541 1.396 . S
C542 C543 1.399 . S
C543 H529 0.929 . S
C543 C542 1.399 . S
C543 C544 1.385 . S
C544 H530 0.931 . S
C544 C543 1.385 . S
C544 C545 1.389 . S
C545 C544 1.389 . S
C545 C546 1.387 . S
C546 H531 0.930 . S
C546 C541 1.390 . S
C546 C545 1.387 . S
H547 C559 0.930 . S
H548 C561 0.930 . S
H549 C562 0.930 . S
H550 C566 0.959 . S
H551 C566 0.959 . S
H552 C566 0.961 . S
H553 C567 0.960 . S
H554 C567 0.961 . S
H555 C567 0.959 . S
H556 C570 0.929 . S
H557 C571 0.931 1_455 S
H558 C573 0.930 . S
C559 H547 0.930 . S
C559 C560 1.399 . S
C559 C564 1.399 . S
C560 C559 1.399 . S
C560 C561 1.376 . S
C561 H548 0.930 . S
C561 C560 1.376 . S
C561 C562 1.388 . S
C562 H549 0.930 . S
C562 C561 1.388 . S
C562 C563 1.390 . S
C563 C562 1.390 . S
C563 C564 1.394 . S
C563 C569 1.465 . S
C564 C559 1.399 . S
C564 C563 1.394 . S
C564 C565 1.516 . S
C565 C564 1.516 . S
C565 C566 1.502 . S
C565 C567 1.561 . S
C565 C568 1.526 . S
C566 H550 0.959 . S
C566 H551 0.959 . S
C566 H552 0.961 . S
C566 C565 1.502 . S
C567 H553 0.960 . S
C567 H554 0.961 . S
C567 H555 0.959 . S
C567 C565 1.561 . S
C568 C565 1.526 . S
C568 C569 1.396 . S
C568 C573 1.390 . S
C569 C563 1.465 . S
C569 C568 1.396 . S
C569 C570 1.399 . S
C570 H556 0.929 . S
C570 C569 1.399 . S
C570 C571 1.385 . S
C571 H557 0.931 1_655 S
C571 C570 1.385 . S
C571 C572 1.389 . S
C572 C571 1.389 . S
C572 C573 1.387 . S
C573 H558 0.930 . S
C573 C568 1.390 . S
C573 C572 1.387 . S
H574 C586 0.930 . S
H575 C588 0.930 . S
H576 C589 0.930 . S
H577 C593 0.959 . S
H578 C593 0.959 . S
H579 C593 0.961 . S
H580 C594 0.960 . S
H581 C594 0.961 . S
H582 C594 0.959 . S
H583 C597 0.929 . S
H584 C598 0.931 . S
H585 C600 0.930 . S
C586 H574 0.930 . S
C586 C587 1.399 . S
C586 C591 1.399 . S
C587 C586 1.399 . S
C587 C588 1.376 . S
C588 H575 0.930 . S
C588 C587 1.376 . S
C588 C589 1.388 . S
C589 H576 0.930 . S
C589 C588 1.388 . S
C589 C590 1.390 . S
C590 C589 1.390 . S
C590 C591 1.394 . S
C590 C596 1.465 . S
C591 C586 1.399 . S
C591 C590 1.394 . S
C591 C592 1.516 . S
C592 C591 1.516 . S
C592 C593 1.502 . S
C592 C594 1.561 . S
C592 C595 1.526 . S
C593 H577 0.959 . S
C593 H578 0.959 . S
C593 H579 0.961 . S
C593 C592 1.502 . S
C594 H580 0.960 . S
C594 H581 0.961 . S
C594 H582 0.959 . S
C594 C592 1.561 . S
C595 C592 1.526 . S
C595 C596 1.396 . S
C595 C600 1.390 . S
C596 C590 1.465 . S
C596 C595 1.396 . S
C596 C597 1.399 . S
C597 H583 0.929 . S
C597 C596 1.399 . S
C597 C598 1.385 . S
C598 H584 0.931 . S
C598 C597 1.385 . S
C598 C599 1.389 . S
C599 C598 1.389 . S
C599 C600 1.387 . S
C600 H585 0.930 . S
C600 C595 1.390 . S
C600 C599 1.387 . S
H601 C613 0.930 . S
H602 C615 0.930 . S
H603 C616 0.930 . S
H604 C620 0.959 . S
H605 C620 0.959 . S
H606 C620 0.961 . S
H607 C621 0.960 . S
H608 C621 0.961 . S
H609 C621 0.959 . S
H610 C624 0.929 . S
H611 C625 0.931 . S
H612 C627 0.930 . S
C613 H601 0.930 . S
C613 C614 1.399 . S
C613 C618 1.399 . S
C614 C613 1.399 . S
C614 C615 1.376 . S
C615 H602 0.930 . S
C615 C614 1.376 . S
C615 C616 1.388 . S
C616 H603 0.930 . S
C616 C615 1.388 . S
C616 C617 1.390 . S
C617 C616 1.390 . S
C617 C618 1.394 . S
C617 C623 1.465 . S
C618 C613 1.399 . S
C618 C617 1.394 . S
C618 C619 1.516 . S
C619 C618 1.516 . S
C619 C620 1.502 . S
C619 C621 1.561 . S
C619 C622 1.526 . S
C620 H604 0.959 . S
C620 H605 0.959 . S
C620 H606 0.961 . S
C620 C619 1.502 . S
C621 H607 0.960 . S
C621 H608 0.961 . S
C621 H609 0.959 . S
C621 C619 1.561 . S
C622 C619 1.526 . S
C622 C623 1.396 . S
C622 C627 1.390 . S
C623 C617 1.465 . S
C623 C622 1.396 . S
C623 C624 1.399 . S
C624 H610 0.929 . S
C624 C623 1.399 . S
C624 C625 1.385 . S
C625 H611 0.931 . S
C625 C624 1.385 . S
C625 C626 1.389 . S
C626 C625 1.389 . S
C626 C627 1.387 . S
C627 H612 0.930 . S
C627 C622 1.390 . S
C627 C626 1.387 . S
H628 C640 0.930 . S
H629 C642 0.930 . S
H630 C643 0.930 . S
H631 C647 0.959 . S
H632 C647 0.959 . S
H633 C647 0.961 . S
H634 C648 0.960 . S
H635 C648 0.961 . S
H636 C648 0.959 . S
H637 C651 0.929 . S
H638 C652 0.931 . S
H639 C654 0.930 . S
C640 H628 0.930 . S
C640 C641 1.399 . S
C640 C645 1.399 . S
C641 C640 1.399 . S
C641 C642 1.376 . S
C642 H629 0.930 . S
C642 C641 1.376 . S
C642 C643 1.388 . S
C643 H630 0.930 . S
C643 C642 1.388 . S
C643 C644 1.390 . S
C644 C643 1.390 . S
C644 C645 1.394 . S
C644 C650 1.465 . S
C645 C640 1.399 . S
C645 C644 1.394 . S
C645 C646 1.516 . S
C646 C645 1.516 . S
C646 C647 1.502 . S
C646 C648 1.561 . S
C646 C649 1.526 . S
C647 H631 0.959 . S
C647 H632 0.959 . S
C647 H633 0.961 . S
C647 C646 1.502 . S
C648 H634 0.960 . S
C648 H635 0.961 . S
C648 H636 0.959 . S
C648 C646 1.561 . S
C649 C646 1.526 . S
C649 C650 1.396 . S
C649 C654 1.390 . S
C650 C644 1.465 . S
C650 C649 1.396 . S
C650 C651 1.399 . S
C651 H637 0.929 . S
C651 C650 1.399 . S
C651 C652 1.385 . S
C652 H638 0.931 . S
C652 C651 1.385 . S
C652 C653 1.389 . S
C653 C652 1.389 . S
C653 C654 1.387 . S
C654 H639 0.930 . S
C654 C649 1.390 . S
C654 C653 1.387 . S
H655 C667 0.930 . S
H656 C669 0.930 . S
H657 C670 0.930 . S
H658 C674 0.959 . S
H659 C674 0.959 . S
H660 C674 0.961 . S
H661 C675 0.960 . S
H662 C675 0.961 . S
H663 C675 0.959 . S
H664 C678 0.929 . S
H665 C679 0.931 . S
H666 C681 0.930 . S
C667 H655 0.930 . S
C667 C668 1.399 . S
C667 C672 1.399 . S
C668 C667 1.399 . S
C668 C669 1.376 . S
C669 H656 0.930 . S
C669 C668 1.376 . S
C669 C670 1.388 . S
C670 H657 0.930 . S
C670 C669 1.388 . S
C670 C671 1.390 . S
C671 C670 1.390 . S
C671 C672 1.394 . S
C671 C677 1.465 . S
C672 C667 1.399 . S
C672 C671 1.394 . S
C672 C673 1.516 . S
C673 C672 1.516 . S
C673 C674 1.502 . S
C673 C675 1.561 . S
C673 C676 1.526 . S
C674 H658 0.959 . S
C674 H659 0.959 . S
C674 H660 0.961 . S
C674 C673 1.502 . S
C675 H661 0.960 . S
C675 H662 0.961 . S
C675 H663 0.959 . S
C675 C673 1.561 . S
C676 C673 1.526 . S
C676 C677 1.396 . S
C676 C681 1.390 . S
C677 C671 1.465 . S
C677 C676 1.396 . S
C677 C678 1.399 . S
C678 H664 0.929 . S
C678 C677 1.399 . S
C678 C679 1.385 . S
C679 H665 0.931 . S
C679 C678 1.385 . S
C679 C680 1.389 . S
C680 C679 1.389 . S
C680 C681 1.387 . S
C681 H666 0.930 . S
C681 C676 1.390 . S
C681 C680 1.387 . S
H682 C694 0.930 . S
H683 C696 0.930 . S
H684 C697 0.930 . S
H685 C701 0.959 . S
H686 C701 0.959 . S
H687 C701 0.961 . S
H688 C702 0.960 . S
H689 C702 0.961 . S
H690 C702 0.959 . S
H691 C705 0.929 . S
H692 C706 0.931 . S
H693 C708 0.930 . S
C694 H682 0.930 . S
C694 C695 1.399 . S
C694 C699 1.399 . S
C695 C694 1.399 . S
C695 C696 1.376 . S
C696 H683 0.930 . S
C696 C695 1.376 . S
C696 C697 1.388 . S
C697 H684 0.930 . S
C697 C696 1.388 . S
C697 C698 1.390 . S
C698 C697 1.390 . S
C698 C699 1.394 . S
C698 C704 1.465 . S
C699 C694 1.399 . S
C699 C698 1.394 . S
C699 C700 1.516 . S
C700 C699 1.516 . S
C700 C701 1.502 . S
C700 C702 1.561 . S
C700 C703 1.526 . S
C701 H685 0.959 . S
C701 H686 0.959 . S
C701 H687 0.961 . S
C701 C700 1.502 . S
C702 H688 0.960 . S
C702 H689 0.961 . S
C702 H690 0.959 . S
C702 C700 1.561 . S
C703 C700 1.526 . S
C703 C704 1.396 . S
C703 C708 1.390 . S
C704 C698 1.465 . S
C704 C703 1.396 . S
C704 C705 1.399 . S
C705 H691 0.929 . S
C705 C704 1.399 . S
C705 C706 1.385 . S
C706 H692 0.931 . S
C706 C705 1.385 . S
C706 C707 1.389 . S
C707 C706 1.389 . S
C707 C708 1.387 . S
C708 H693 0.930 . S
C708 C703 1.390 . S
C708 C707 1.387 . S
H709 C721 0.930 . S
H710 C723 0.930 . S
H711 C724 0.930 . S
H712 C728 0.959 . S
H713 C728 0.959 . S
H714 C728 0.961 . S
H715 C729 0.960 . S
H716 C729 0.961 . S
H717 C729 0.959 . S
H718 C732 0.929 . S
H719 C733 0.931 . S
H720 C735 0.930 . S
C721 H709 0.930 . S
C721 C722 1.399 . S
C721 C726 1.399 . S
C722 C721 1.399 . S
C722 C723 1.376 . S
C723 H710 0.930 . S
C723 C722 1.376 . S
C723 C724 1.388 . S
C724 H711 0.930 . S
C724 C723 1.388 . S
C724 C725 1.390 . S
C725 C724 1.390 . S
C725 C726 1.394 . S
C725 C731 1.465 . S
C726 C721 1.399 . S
C726 C725 1.394 . S
C726 C727 1.516 . S
C727 C726 1.516 . S
C727 C728 1.502 . S
C727 C729 1.561 . S
C727 C730 1.526 . S
C728 H712 0.959 . S
C728 H713 0.959 . S
C728 H714 0.961 . S
C728 C727 1.502 . S
C729 H715 0.960 . S
C729 H716 0.961 . S
C729 H717 0.959 . S
C729 C727 1.561 . S
C730 C727 1.526 . S
C730 C731 1.396 . S
C730 C735 1.390 . S
C731 C725 1.465 . S
C731 C730 1.396 . S
C731 C732 1.399 . S
C732 H718 0.929 . S
C732 C731 1.399 . S
C732 C733 1.385 . S
C733 H719 0.931 . S
C733 C732 1.385 . S
C733 C734 1.389 . S
C734 C733 1.389 . S
C734 C735 1.387 . S
C735 H720 0.930 . S
C735 C730 1.390 . S
C735 C734 1.387 . S
H736 C748 0.930 . S
H737 C750 0.930 . S
H738 C751 0.930 . S
H739 C755 0.959 . S
H740 C755 0.959 . S
H741 C755 0.961 . S
H742 C756 0.960 . S
H743 C756 0.961 . S
H744 C756 0.959 . S
H745 C759 0.929 . S
H746 C760 0.931 . S
H747 C762 0.930 . S
C748 H736 0.930 . S
C748 C749 1.399 . S
C748 C753 1.399 . S
C749 C748 1.399 . S
C749 C750 1.376 . S
C750 H737 0.930 . S
C750 C749 1.376 . S
C750 C751 1.388 . S
C751 H738 0.930 . S
C751 C750 1.388 . S
C751 C752 1.390 . S
C752 C751 1.390 . S
C752 C753 1.394 . S
C752 C758 1.465 . S
C753 C748 1.399 . S
C753 C752 1.394 . S
C753 C754 1.516 . S
C754 C753 1.516 . S
C754 C755 1.502 . S
C754 C756 1.561 . S
C754 C757 1.526 . S
C755 H739 0.959 . S
C755 H740 0.959 . S
C755 H741 0.961 . S
C755 C754 1.502 . S
C756 H742 0.960 . S
C756 H743 0.961 . S
C756 H744 0.959 . S
C756 C754 1.561 . S
C757 C754 1.526 . S
C757 C758 1.396 . S
C757 C762 1.390 . S
C758 C752 1.465 . S
C758 C757 1.396 . S
C758 C759 1.399 . S
C759 H745 0.929 . S
C759 C758 1.399 . S
C759 C760 1.385 . S
C760 H746 0.931 . S
C760 C759 1.385 . S
C760 C761 1.389 . S
C761 C760 1.389 . S
C761 C762 1.387 . S
C762 H747 0.930 . S
C762 C757 1.390 . S
C762 C761 1.387 . S
H763 C775 0.930 . S
H764 C777 0.930 . S
H765 C778 0.930 . S
H766 C782 0.959 . S
H767 C782 0.959 . S
H768 C782 0.961 . S
H769 C783 0.960 . S
H770 C783 0.961 . S
H771 C783 0.959 . S
H772 C786 0.929 . S
H773 C787 0.931 . S
H774 C789 0.930 . S
C775 H763 0.930 . S
C775 C776 1.399 . S
C775 C780 1.399 . S
C776 C775 1.399 . S
C776 C777 1.376 . S
C777 H764 0.930 . S
C777 C776 1.376 . S
C777 C778 1.388 . S
C778 H765 0.930 . S
C778 C777 1.388 . S
C778 C779 1.390 . S
C779 C778 1.390 . S
C779 C780 1.394 . S
C779 C785 1.465 . S
C780 C775 1.399 . S
C780 C779 1.394 . S
C780 C781 1.516 . S
C781 C780 1.516 . S
C781 C782 1.502 . S
C781 C783 1.561 . S
C781 C784 1.526 . S
C782 H766 0.959 . S
C782 H767 0.959 . S
C782 H768 0.961 . S
C782 C781 1.502 . S
C783 H769 0.960 . S
C783 H770 0.961 . S
C783 H771 0.959 . S
C783 C781 1.561 . S
C784 C781 1.526 . S
C784 C785 1.396 . S
C784 C789 1.390 . S
C785 C779 1.465 . S
C785 C784 1.396 . S
C785 C786 1.399 . S
C786 H772 0.929 . S
C786 C785 1.399 . S
C786 C787 1.385 . S
C787 H773 0.931 . S
C787 C786 1.385 . S
C787 C788 1.389 . S
C788 C787 1.389 . S
C788 C789 1.387 . S
C789 H774 0.930 . S
C789 C784 1.390 . S
C789 C788 1.387 . S
H790 C802 0.930 . S
H791 C804 0.930 . S
H792 C805 0.930 . S
H793 C809 0.959 . S
H794 C809 0.959 . S
H795 C809 0.961 . S
H796 C810 0.973 . S
H797 C810 0.961 . S
H798 C810 0.959 . S
H799 C813 0.929 . S
H800 C814 0.931 . S
H801 C816 0.930 . S
C802 H790 0.930 . S
C802 C803 1.399 . S
C802 C807 1.399 . S
C803 C802 1.399 . S
C803 C804 1.376 . S
C804 H791 0.930 . S
C804 C803 1.376 . S
C804 C805 1.388 . S
C805 H792 0.930 . S
C805 C804 1.388 . S
C805 C806 1.390 . S
C806 C805 1.390 . S
C806 C807 1.394 . S
C806 C812 1.465 . S
C807 C802 1.399 . S
C807 C806 1.394 . S
C807 C808 1.516 1_565 S
C808 C807 1.516 1_545 S
C808 C809 1.502 . S
C808 C810 1.561 . S
C808 C811 1.526 . S
C809 H793 0.959 . S
C809 H794 0.959 . S
C809 H795 0.961 . S
C809 C808 1.502 . S
C810 H796 0.973 . S
C810 H797 0.961 . S
C810 H798 0.959 . S
C810 C808 1.561 . S
C811 C808 1.526 . S
C811 C812 1.396 1_545 S
C811 C816 1.390 . S
C812 C806 1.465 . S
C812 C811 1.396 1_565 S
C812 C813 1.399 . S
C813 H799 0.929 . S
C813 C812 1.399 . S
C813 C814 1.385 1_565 S
C814 H800 0.931 . S
C814 C813 1.385 1_545 S
C814 C815 1.389 . S
C815 C814 1.389 . S
C815 C816 1.387 . S
C816 H801 0.930 . S
C816 C811 1.390 . S
C816 C815 1.387 . S
H817 C829 0.930 . S
H818 C831 0.930 . S
H819 C832 0.930 . S
H820 C836 0.959 . S
H821 C836 0.959 . S
H822 C836 0.961 . S
H823 C837 0.960 . S
H824 C837 0.961 . S
H825 C837 0.959 . S
H826 C840 0.929 . S
H827 C841 0.931 . S
H828 C843 0.930 . S
C829 H817 0.930 . S
C829 C830 1.399 . S
C829 C834 1.399 . S
C830 C829 1.399 . S
C830 C831 1.376 . S
C831 H818 0.930 . S
C831 C830 1.376 . S
C831 C832 1.388 . S
C832 H819 0.930 . S
C832 C831 1.388 . S
C832 C833 1.390 . S
C833 C832 1.390 . S
C833 C834 1.394 . S
C833 C839 1.465 . S
C834 C829 1.399 . S
C834 C833 1.394 . S
C834 C835 1.516 . S
C835 C834 1.516 . S
C835 C836 1.502 . S
C835 C837 1.561 . S
C835 C838 1.526 . S
C836 H820 0.959 . S
C836 H821 0.959 . S
C836 H822 0.961 . S
C836 C835 1.502 . S
C837 H823 0.960 . S
C837 H824 0.961 . S
C837 H825 0.959 . S
C837 C835 1.561 . S
C838 C835 1.526 . S
C838 C839 1.396 . S
C838 C843 1.390 . S
C839 C833 1.465 . S
C839 C838 1.396 . S
C839 C840 1.399 . S
C840 H826 0.929 . S
C840 C839 1.399 . S
C840 C841 1.385 . S
C841 H827 0.931 . S
C841 C840 1.385 . S
C841 C842 1.389 . S
C842 C841 1.389 . S
C842 C843 1.387 . S
C843 H828 0.930 . S
C843 C838 1.390 . S
C843 C842 1.387 . S
C221 C95 1.492 . S
C209 C5 1.306 . S
C248 C114 1.466 . S
C236 C16 1.324 . S
C275 C104 1.602 1_655 S
C263 C30 1.698 . S
C302 C120 1.627 . S
C290 C40 1.593 . S
C329 C131 1.383 . S
C317 C8 1.454 . S
C356 C156 1.382 . S
C344 C18 1.438 . S
C371 C29 1.691 . S
C383 C174 1.627 . S
C410 C194 1.534 . S
C398 C38 1.315 . S
C437 C140 1.352 . S
C425 C19 1.425 . S
C452 C27 1.470 . S
C464 C150 1.555 . S
C491 C168 1.521 . S
C479 C41 1.632 . S
C518 C185 1.488 . S
C506 C7 1.517 . S
C533 C52 1.692 . S
C545 C113 1.667 . S
C572 C96 1.544 1_655 S
C560 C62 1.611 . S
C587 C74 1.502 . S
C599 C122 1.354 . S
C614 C82 1.327 . S
C626 C102 1.425 . S
C653 C176 1.729 . S
C641 C51 1.725 . S
C680 C186 1.551 . S
C668 C60 1.424 . S
C707 C132 1.364 . S
C695 C71 1.175 . S
C722 C84 1.404 . S
C734 C149 1.459 . S
C761 C167 1.605 . S
C749 C63 1.711 . S
C788 C192 1.425 . S
C776 C73 1.392 . S
C815 C138 1.384 . S
C803 C85 1.469 . S
C830 C49 1.419 . S
C842 C158 1.565 . S
