# Generated by pormake.
# Topology tsx, (6,3)-cn, num edge types: 1
# Building blocks:
#     Node 0, Type 0, BuildingBlock: LEVNOQ01_clean_sbu_1, # of connection points: 6
#     Node 1, Type 0, BuildingBlock: LEVNOQ01_clean_sbu_1, # of connection points: 6
#     Node 2, Type 1, BuildingBlock: QEWDON_clean_linker_0, # of connection points: 3
#     Node 3, Type 1, BuildingBlock: QEWDON_clean_linker_0, # of connection points: 3
#     Node 4, Type 1, BuildingBlock: QEWDON_clean_linker_0, # of connection points: 3
#     Node 5, Type 1, BuildingBlock: QEWDON_clean_linker_0, # of connection points: 3
#     Edge 6, Type (0, 1), BuildingBlock: ZUJKAS_clean_linker_0, # of connection points: 2
#     Edge 7, Type (0, 1), BuildingBlock: ZUJKAS_clean_linker_0, # of connection points: 2
#     Edge 8, Type (0, 1), BuildingBlock: ZUJKAS_clean_linker_0, # of connection points: 2
#     Edge 9, Type (0, 1), BuildingBlock: ZUJKAS_clean_linker_0, # of connection points: 2
#     Edge 10, Type (0, 1), BuildingBlock: ZUJKAS_clean_linker_0, # of connection points: 2
#     Edge 11, Type (0, 1), BuildingBlock: ZUJKAS_clean_linker_0, # of connection points: 2
#     Edge 12, Type (0, 1), BuildingBlock: ZUJKAS_clean_linker_0, # of connection points: 2
#     Edge 13, Type (0, 1), BuildingBlock: ZUJKAS_clean_linker_0, # of connection points: 2
#     Edge 14, Type (0, 1), BuildingBlock: ZUJKAS_clean_linker_0, # of connection points: 2
#     Edge 15, Type (0, 1), BuildingBlock: ZUJKAS_clean_linker_0, # of connection points: 2
#     Edge 16, Type (0, 1), BuildingBlock: ZUJKAS_clean_linker_0, # of connection points: 2
#     Edge 17, Type (0, 1), BuildingBlock: ZUJKAS_clean_linker_0, # of connection points: 2
# Relax obj value: 0.107
# Max RMSD: 0.209
# Mean RMSD: 0.150
data_MOF--net-tsx--node1-LEVNOQ01_clean_sbu_1--node2-QEWDON_clean_linker_0--edge1-ZUJKAS_clean_linker_0
_symmetry_space_group_name_H-M    P1
_symmetry_Int_Tables_number       1
_symmetry_cell_setting            triclinic
loop_
_symmetry_equiv_pos_as_xyz
'x, y, z'
_cell_length_a     26.102453
_cell_length_b     31.106161
_cell_length_c     44.063458
_cell_angle_alpha  97.564092
_cell_angle_beta   105.64333
_cell_angle_gamma 91.877774
loop_
_atom_site_label
_atom_site_type_symbol
_atom_site_fract_x
_atom_site_fract_y
_atom_site_fract_z
_atom_type_partial_charge
O0 O 0.14348 -0.00694 0.08281 0.0
Mg1 Mg 0.1739 0.0028 0.04427 0.0
O2 O 0.05788 -0.00309 0.05802 0.0
Mg3 Mg 0.05511 0.0057 0.00586 0.0
O4 O 0.13332 0.04925 0.02146 0.0
O5 O 0.21973 0.05852 0.04725 0.0
O6 O 0.05991 0.01661 0.95481 0.0
O7 O 0.01257 0.06982 0.01226 0.0
Mg8 Mg 0.95342 -0.00517 0.95383 0.0
O9 O 0.97636 0.9618 0.99165 0.0
O10 O -0.00751 0.97945 0.91874 0.0
O11 O 0.94496 0.06115 0.96823 0.0
O12 O 0.89675 0.94962 0.95552 0.0
C13 C 0.13787 0.92548 -0.00226 0.0
C14 C 0.0949 -0.00739 0.083 0.0
C15 C 0.17759 0.07355 0.03036 0.0
C16 C 0.03735 0.00028 0.92602 0.0
C17 C 0.97255 0.08427 -0.00635 0.0
C18 C 0.93024 0.94002 0.98073 0.0
O19 O 0.18019 0.94886 0.01196 0.0
O20 O 0.09226 0.9393 -0.00293 0.0
O21 O 0.61136 0.4781 0.57623 0.0
Mg22 Mg 0.64914 0.49911 0.54317 0.0
O23 O 0.53032 0.49361 0.55062 0.0
Mg24 Mg 0.54136 0.50118 0.50102 0.0
O25 O 0.61567 0.55001 0.52234 0.0
O26 O 0.6971 0.55503 0.55659 0.0
O27 O 0.55448 0.50931 0.45161 0.0
O28 O 0.49205 0.56132 0.49975 0.0
Mg29 Mg 0.4322 0.47924 0.43961 0.0
O30 O 0.46801 0.45734 0.4803 0.0
O31 O 0.48831 0.47293 0.41282 0.0
O32 O 0.4216 0.5452 0.45689 0.0
O33 O 0.3929 0.42425 0.44979 0.0
C34 C 0.62927 0.42635 0.49645 0.0
C35 C 0.56252 0.4816 0.57482 0.0
C36 C 0.6604 0.57244 0.53699 0.0
C37 C 0.53402 0.4933 0.42243 0.0
C38 C 0.44919 0.57154 0.48088 0.0
C39 C 0.43091 0.42724 0.47575 0.0
O40 O 0.66863 0.45317 0.50985 0.0
O41 O 0.58259 0.43564 0.49733 0.0
H42 H 0.03681 0.00411 0.40655 0.0
C43 C 0.06146 0.97937 0.41678 0.0
C44 C 0.08378 0.95098 0.39735 0.0
C45 C 0.07467 0.97861 0.44971 0.0
H46 H 0.1355 0.89875 0.39581 0.0
C47 C 0.11769 0.92033 0.41085 0.0
C48 C 0.12981 0.91822 0.4437 0.0
C49 C 0.10851 0.9479 0.46305 0.0
C50 C 0.05806 0.01322 0.47031 0.0
H51 H 0.11817 0.94722 0.48849 0.0
C52 C 0.01123 0.03241 0.46349 0.0
C53 C 0.02072 0.08457 0.49353 0.0
C54 C 0.09073 0.03885 0.4961 0.0
H55 H 0.1324 0.03129 0.50586 0.0
C56 C 0.05817 0.07987 0.50489 0.0
H57 H 0.97795 0.01816 0.44339 0.0
C58 C -0.00343 0.12035 0.50271 0.0
H59 H 0.00848 0.16344 0.52795 0.0
H60 H 0.10226 0.08314 0.52242 0.0
H61 H 0.0046 0.07958 0.59694 0.0
C62 C 0.97826 0.0509 0.58568 0.0
C63 C 0.9611 0.02412 0.6047 0.0
C64 C 0.96127 0.04089 0.55233 0.0
H65 H 0.91457 0.96593 0.60515 0.0
C66 C 0.92732 0.98687 0.59032 0.0
C67 C 0.91123 0.97573 0.55707 0.0
C68 C 0.92787 0.00316 0.53818 0.0
C69 C 0.98115 0.06965 0.53188 0.0
H70 H 0.9167 -0.00625 0.51267 0.0
C71 C 0.04983 0.11716 0.55118 0.0
C72 C 0.07805 0.15297 0.51618 0.0
C73 C 0.93655 0.05837 0.48163 0.0
H74 H 0.90174 0.03568 0.47287 0.0
C75 C 0.96522 0.09521 0.44753 0.0
H76 H 0.01948 0.09347 0.54903 0.0
C77 C 0.03588 0.13928 0.46648 0.0
H78 H 0.05006 0.1558 0.44989 0.0
H79 H 0.94467 0.09038 0.42236 0.0
H80 H 0.54621 0.51164 0.90717 0.0
C81 C 0.5727 0.48792 0.91733 0.0
C82 C 0.59436 0.4595 0.89751 0.0
C83 C 0.58624 0.48701 0.95021 0.0
H84 H 0.64538 0.40672 0.89548 0.0
C85 C 0.62884 0.42897 0.9108 0.0
C86 C 0.64278 0.4276 0.94384 0.0
C87 C 0.62153 0.45707 0.96345 0.0
C88 C 0.56594 0.51959 0.97059 0.0
H89 H 0.63278 0.45701 0.98899 0.0
C90 C 0.51631 0.53434 0.96378 0.0
C91 C 0.51917 0.58518 -0.00582 0.0
C92 C 0.59556 0.54688 -0.00349 0.0
H93 H 0.63837 0.54291 0.00636 0.0
C94 C 0.55746 0.58369 0.00551 0.0
H95 H 0.48457 0.518 0.94361 0.0
C96 C 0.49028 0.61765 0.00354 0.0
H97 H 0.49672 0.65998 0.02909 0.0
H98 H 0.60147 0.59033 0.02308 0.0
H99 H 0.5144 0.57114 0.0973 0.0
C100 C 0.48592 0.54359 0.08649 0.0
C101 C 0.47057 0.51675 0.10608 0.0
C102 C 0.46527 0.53474 0.05323 0.0
H103 H 0.42074 0.46092 0.10753 0.0
C104 C 0.43357 0.48111 0.0923 0.0
C105 C 0.41184 0.47227 0.05912 0.0
C106 C 0.42837 0.49899 0.03976 0.0
C107 C 0.48264 0.56433 0.03231 0.0
H108 H 0.41288 0.49113 0.01427 0.0
C109 C 0.54516 0.617 0.05197 0.0
C110 C 0.56734 0.65743 0.01747 0.0
C111 C 0.43859 0.55143 0.98192 0.0
H112 H 0.40665 0.52615 0.9728 0.0
C113 C 0.46122 0.59289 0.94827 0.0
H114 H 0.51791 0.59086 0.04953 0.0
C115 C 0.52597 0.64261 0.9677 0.0
H116 H 0.53803 0.66084 0.95122 0.0
H117 H 0.44091 0.58741 0.92305 0.0
H118 H 0.10126 0.11559 0.99038 0.0
H119 H 0.11247 0.18898 0.97631 0.0
H120 H 0.27332 0.20352 0.03782 0.0
H121 H 0.26288 0.13179 0.05191 0.0
H122 H 0.15751 0.27477 0.02742 0.0
H123 H 0.27662 0.22595 0.94361 0.0
H124 H 0.22629 0.18969 0.95022 0.0
H125 H 0.29164 0.19836 0.97799 0.0
C126 C 0.13885 0.13465 0.00088 0.0
C127 C 0.18136 0.11776 0.02203 0.0
C128 C 0.14515 0.17634 -0.00721 0.0
C129 C 0.19402 0.20106 0.0057 0.0
C130 C 0.23564 0.18453 0.02726 0.0
H131 H 0.41497 0.39 0.07408 0.0
H132 H 0.34828 0.32904 0.0514 0.0
C133 C 0.22948 0.14344 0.0353 0.0
C134 C 0.20379 0.24467 -0.0021 0.0
H135 H 0.3013 0.29739 0.97578 0.0
C136 C 0.18698 0.28027 0.01481 0.0
C137 C 0.24219 0.25152 0.98143 0.0
C138 C 0.25993 0.21433 0.96201 0.0
C139 C 0.21271 0.32185 0.01898 0.0
C140 C 0.25596 0.32734 0.00597 0.0
C141 C 0.26827 0.29287 0.9859 0.0
C142 C 0.29554 0.36475 0.01849 0.0
C143 C 0.1976 0.35862 0.04003 0.0
C144 C 0.28774 0.40476 0.00724 0.0
C145 C 0.32581 0.43976 0.02024 0.0
C146 C 0.37193 0.4351 0.04471 0.0
C147 C 0.37956 0.39473 0.0556 0.0
C148 C 0.34173 0.35988 0.04255 0.0
H149 H 0.16014 0.35022 0.04603 0.0
H150 H 0.23019 0.36678 0.06249 0.0
H151 H 0.19247 0.38806 0.02804 0.0
H152 H 0.25222 0.40892 0.98865 0.0
H153 H 0.31876 0.47065 0.01158 0.0
H154 H 0.10217 0.85391 0.01703 0.0
H155 H 0.14111 0.78318 0.01373 0.0
H156 H 0.22587 0.82496 0.95001 0.0
H157 H 0.1888 0.89596 0.95426 0.0
H158 H 0.16956 0.71346 0.95982 0.0
H159 H 0.33119 0.82383 0.04546 0.0
H160 H 0.26204 0.83616 0.03608 0.0
H161 H 0.30085 0.84433 0.00901 0.0
C162 C 0.12703 0.84703 0.00111 0.0
C163 C 0.14312 0.88005 0.98607 0.0
C164 C 0.14917 0.80672 -0.00076 0.0
C165 C 0.18667 0.79931 0.98191 0.0
C166 C 0.19695 0.83031 0.96349 0.0
H167 H 0.4447 0.67536 0.95867 0.0
H168 H 0.37192 0.71251 0.96077 0.0
C169 C 0.17588 0.87076 0.96592 0.0
C170 C 0.22455 0.76549 0.98891 0.0
H171 H 0.3564 0.7563 0.02374 0.0
C172 C 0.21019 0.72238 0.97423 0.0
C173 C 0.2771 0.77734 0.00832 0.0
C174 C 0.29377 0.82284 0.0259 0.0
C175 C 0.24864 0.6914 0.97669 0.0
C176 C 0.3021 0.70443 -0.00606 0.0
C177 C 0.31537 0.74674 0.01027 0.0
C178 C 0.3463 0.67659 -0.00734 0.0
C179 C 0.23284 0.64562 0.95973 0.0
C180 C 0.35596 0.64271 0.0101 0.0
C181 C 0.39991 0.61824 0.01081 0.0
C182 C 0.44495 0.62562 -0.00578 0.0
C183 C 0.4247 0.66318 0.97451 0.0
C184 C 0.38012 0.68618 0.97491 0.0
H185 H 0.18992 0.64109 0.94634 0.0
H186 H 0.25717 0.63726 0.94292 0.0
H187 H 0.24101 0.62255 0.97737 0.0
H188 H 0.32893 0.63492 0.02378 0.0
H189 H 0.39888 0.59286 0.02499 0.0
H190 H 0.97145 0.92402 0.04248 0.0
H191 H 0.9373 0.86762 0.06798 0.0
H192 H 0.82121 0.81969 0.97868 0.0
H193 H 0.85422 0.87515 0.95354 0.0
H194 H 0.82787 0.86064 0.06999 0.0
H195 H 0.87883 0.70775 0.01012 0.0
H196 H 0.91573 0.7592 0.0133 0.0
H197 H 0.85498 0.74406 0.98185 0.0
C198 C 0.93925 0.90088 0.02832 0.0
C199 C 0.91511 0.90417 -0.00387 0.0
C200 C 0.91995 0.86874 0.04285 0.0
C201 C 0.8774 0.83906 0.02503 0.0
C202 C 0.85489 0.84158 -0.00731 0.0
H203 H 0.59667 0.71742 0.98477 0.0
H204 H 0.6823 0.7596 -0.00162 0.0
C205 C 0.87345 0.8737 0.97843 0.0
C206 C 0.85062 0.80866 0.03996 0.0
H207 H 0.79016 0.70622 0.02031 0.0
C208 C 0.82125 0.82635 0.0604 0.0
C209 C 0.84242 0.76388 0.02768 0.0
C210 C 0.8752 0.74258 0.00728 0.0
C211 C 0.77879 0.80171 0.06518 0.0
C212 C 0.76605 0.75877 0.04917 0.0
C213 C 0.79976 0.73948 0.03221 0.0
C214 C 0.71275 0.73698 0.04379 0.0
C215 C 0.74436 0.82284 0.0845 0.0
C216 C 0.7013 0.7113 0.06532 0.0
C217 C 0.6521 0.68716 0.05754 0.0
C218 C 0.6145 0.68829 0.02812 0.0
C219 C 0.6252 0.71556 0.00739 0.0
C220 C 0.67401 0.73974 0.01518 0.0
H221 H 0.76325 0.85432 0.0987 0.0
H222 H 0.70544 0.82875 0.06825 0.0
H223 H 0.73628 0.80085 0.10084 0.0
H224 H 0.73091 0.70885 0.08747 0.0
H225 H 0.64464 0.6661 0.07382 0.0
H226 H 0.9559 0.14508 0.95485 0.0
H227 H 0.90555 0.20921 0.9596 0.0
H228 H 0.89672 0.18471 0.05222 0.0
H229 H 0.9486 0.12049 0.04774 0.0
H230 H 0.79904 0.19199 0.96786 0.0
H231 H 0.92471 0.32201 0.05948 0.0
H232 H 0.95442 0.28098 0.038 0.0
H233 H 0.92377 0.2666 0.06741 0.0
C234 C 0.94492 0.15434 0.97672 0.0
C235 C 0.95603 0.12819 0.00097 0.0
C236 C 0.91606 0.19081 0.97937 0.0
C237 C 0.89727 0.20151 0.00617 0.0
C238 C 0.91141 0.17719 0.03151 0.0
H239 H 0.63354 0.37607 0.98822 0.0
H240 H 0.69393 0.32147 0.00939 0.0
C241 C 0.9411 0.14072 0.02901 0.0
C242 C 0.85699 0.23406 0.00485 0.0
H243 H 0.84071 0.34017 0.02962 0.0
C244 C 0.8077 0.22415 0.98178 0.0
C245 C 0.86847 0.27576 0.0232 0.0
C246 C 0.92069 0.28739 0.04845 0.0
C247 C 0.77068 0.25563 0.97532 0.0
C248 C 0.78336 0.29804 -0.00764 0.0
C249 C 0.83139 0.30749 0.01663 0.0
C250 C 0.74962 0.33369 0.9825 0.0
C251 C 0.71943 0.24421 0.94912 0.0
C252 C 0.76133 0.35848 0.96055 0.0
C253 C 0.72693 0.38931 0.94829 0.0
C254 C 0.68028 0.39599 0.95788 0.0
C255 C 0.66938 0.37181 0.98056 0.0
C256 C 0.70374 0.34071 -0.00732 0.0
H257 H 0.7148 0.20928 0.93877 0.0
H258 H 0.68486 0.25196 0.9585 0.0
H259 H 0.71848 0.2641 0.92984 0.0
H260 H 0.79649 0.35319 0.95233 0.0
H261 H 0.73675 0.40783 0.9312 0.0
H262 H 0.74144 0.63063 0.57128 0.0
H263 H 0.76736 0.70008 0.55807 0.0
H264 H 0.63164 0.68466 0.4751 0.0
H265 H 0.60486 0.61424 0.48823 0.0
H266 H 0.78466 0.70603 0.49228 0.0
H267 H 0.63766 0.81361 0.528 0.0
H268 H 0.6547 0.76568 0.54661 0.0
H269 H 0.61688 0.76005 0.50563 0.0
C270 C 0.71661 0.64201 0.55036 0.0
C271 C 0.6713 0.61679 0.53066 0.0
C272 C 0.73156 0.68171 0.54286 0.0
C273 C 0.7016 0.69717 0.51556 0.0
C274 C 0.65515 0.67309 0.4963 0.0
H275 H 0.82105 0.96212 0.50664 0.0
H276 H 0.76514 0.89378 0.48556 0.0
C277 C 0.63991 0.63306 0.50389 0.0
C278 C 0.72165 0.73772 0.50731 0.0
H279 H 0.71598 0.84749 0.52231 0.0
C280 C 0.76886 0.73699 0.49789 0.0
C281 C 0.70056 0.77783 0.51433 0.0
C282 C 0.64959 0.7798 0.52419 0.0
C283 C 0.79805 0.77563 0.49797 0.0
C284 C 0.77986 0.8158 0.50825 0.0
C285 C 0.72998 0.81659 0.51464 0.0
C286 C 0.8157 0.85599 0.51788 0.0
C287 C 0.84962 0.773 0.48879 0.0
C288 C 0.86242 0.85722 0.54295 0.0
C289 C 0.8939 0.89592 0.55507 0.0
C290 C 0.87923 0.9343 0.54246 0.0
C291 C 0.83325 0.9329 0.51671 0.0
C292 C 0.80137 0.89403 0.5047 0.0
H293 H 0.84827 0.7436 0.4712 0.0
H294 H 0.8585 0.80223 0.47858 0.0
H295 H 0.88277 0.77059 0.51028 0.0
H296 H 0.87367 0.82845 0.5539 0.0
H297 H 0.92946 0.89596 0.57466 0.0
H298 H 0.6765 0.40471 0.44991 0.0
H299 H 0.72013 0.33752 0.4417 0.0
H300 H 0.65361 0.28422 0.50956 0.0
H301 H 0.60804 0.35097 0.51675 0.0
H302 H 0.79288 0.3269 0.50033 0.0
H303 H 0.66355 0.17523 0.44581 0.0
H304 H 0.64264 0.2284 0.43765 0.0
H305 H 0.64339 0.2115 0.47513 0.0
C306 C 0.66915 0.37772 0.46178 0.0
C307 C 0.63961 0.38262 0.48407 0.0
C308 C 0.69388 0.33943 0.45707 0.0
C309 C 0.69029 0.30614 0.47518 0.0
C310 C 0.65618 0.30927 0.49502 0.0
H311 H 0.90352 0.10708 0.52532 0.0
H312 H 0.8375 0.1536 0.52154 0.0
C313 C 0.63042 0.3474 0.49924 0.0
C314 C 0.73196 0.27488 0.47939 0.0
H315 H 0.75571 0.16765 0.46798 0.0
C316 C 0.78475 0.29206 0.49311 0.0
C317 C 0.72087 0.22954 0.47079 0.0
C318 C 0.66461 0.20983 0.45635 0.0
C319 C 0.82716 0.26523 0.49783 0.0
C320 C 0.81654 0.22001 0.488 0.0
C321 C 0.76355 0.20248 0.47522 0.0
C322 C 0.86045 0.19095 0.48954 0.0
C323 C 0.88297 0.28559 0.51343 0.0
C324 C 0.89613 0.1964 0.47211 0.0
C325 C 0.93855 0.17034 0.47316 0.0
C326 C 0.95309 0.13232 0.49336 0.0
C327 C 0.90741 0.13064 0.51018 0.0
C328 C 0.86603 0.15819 0.50812 0.0
H329 H 0.88265 0.31779 0.52768 0.0
H330 H 0.9071 0.26428 0.52923 0.0
H331 H 0.9028 0.29061 0.49471 0.0
H332 H 0.89092 0.2215 0.45683 0.0
H333 H 0.9608 0.17989 0.45756 0.0
H334 H 0.43355 0.4509 0.53777 0.0
H335 H 0.40067 0.40495 0.57068 0.0
H336 H 0.38748 0.29385 0.49847 0.0
H337 H 0.41961 0.33972 0.46567 0.0
H338 H 0.29709 0.37048 0.54025 0.0
H339 H 0.42171 0.2377 0.58023 0.0
H340 H 0.44935 0.28853 0.57346 0.0
H341 H 0.42164 0.24585 0.54065 0.0
C342 C 0.42637 0.41623 0.52985 0.0
C343 C 0.42897 0.39858 0.49935 0.0
C344 C 0.40748 0.39004 0.54859 0.0
C345 C 0.39187 0.34591 0.53712 0.0
C346 C 0.4002 0.32755 0.50813 0.0
H347 H 0.13989 0.1745 0.47953 0.0
H348 H 0.22115 0.22257 0.49557 0.0
C349 C 0.41813 0.3538 0.48924 0.0
C350 C 0.35428 0.32212 0.54993 0.0
H351 H 0.3247 0.21977 0.56316 0.0
C352 C 0.30377 0.33825 0.54672 0.0
C353 C 0.36286 0.27999 0.55809 0.0
C354 C 0.41707 0.26218 0.56363 0.0
C355 C 0.26028 0.31163 0.54796 0.0
C356 C 0.26775 0.26812 0.55291 0.0
C357 C 0.31921 0.25323 0.55929 0.0
C358 C 0.22141 0.23622 0.54501 0.0
C359 C 0.20548 0.32866 0.54066 0.0
C360 C 0.19501 0.22788 0.5677 0.0
C361 C 0.14822 0.20024 0.55849 0.0
C362 C 0.12727 0.18154 0.52651 0.0
C363 C 0.15439 0.1894 0.50414 0.0
C364 C 0.20119 0.2164 0.51334 0.0
H365 H 0.20714 0.36449 0.54115 0.0
H366 H 0.1817 0.31317 0.51658 0.0
H367 H 0.18439 0.32007 0.55804 0.0
H368 H 0.21004 0.24327 0.59221 0.0
H369 H 0.1279 0.19427 0.57612 0.0
H370 H 0.39181 0.61708 0.43677 0.0
H371 H 0.35097 0.68521 0.44617 0.0
H372 H 0.42092 0.69209 0.54734 0.0
H373 H 0.4632 0.62377 0.53809 0.0
H374 H 0.28679 0.68849 0.50622 0.0
H375 H 0.43314 0.81936 0.5007 0.0
H376 H 0.42874 0.7686 0.47476 0.0
H377 H 0.45321 0.77015 0.51705 0.0
C378 C 0.39913 0.63334 0.46101 0.0
C379 C 0.43006 0.615 0.48676 0.0
C380 C 0.37607 0.67229 0.4663 0.0
C381 C 0.3831 0.69333 0.49738 0.0
C382 C 0.41554 0.67619 0.52319 0.0
H383 H 0.21059 0.93075 0.49934 0.0
H384 H 0.27255 0.87783 0.52118 0.0
C385 C 0.43949 0.63733 0.51787 0.0
C386 C 0.3512 0.73036 0.50219 0.0
H387 H 0.34235 0.83645 0.49119 0.0
C388 C 0.29923 0.72124 0.5039 0.0
C389 C 0.36794 0.77279 0.49929 0.0
C390 C 0.42393 0.7837 0.49801 0.0
C391 C 0.26201 0.7529 0.50025 0.0
C392 C 0.2773 0.79435 0.49437 0.0
C393 C 0.33065 0.8045 0.49544 0.0
C394 C 0.2374 0.82541 0.48302 0.0
C395 C 0.20605 0.74102 0.50124 0.0
C396 C 0.19738 0.81336 0.45432 0.0
C397 C 0.16188 0.84328 0.4419 0.0
C398 C 0.16606 0.886 0.4578 0.0
C399 C 0.20593 0.8979 0.48675 0.0
C400 C 0.24148 0.86785 0.49919 0.0
H401 H 0.2056 0.71525 0.51642 0.0
H402 H 0.18746 0.7697 0.51038 0.0
H403 H 0.18136 0.72811 0.47679 0.0
H404 H 0.19435 0.78101 0.44109 0.0
H405 H 0.13134 0.83302 0.41972 0.0
H406 H 0.16566 -0.00761 0.14093 0.0
H407 H 0.14686 0.9865 0.1914 0.0
H408 H 0.97802 0.97734 0.14525 0.0
H409 H -0.00374 0.98348 0.09396 0.0
H410 H 0.05273 0.04661 0.21579 0.0
H411 H 0.04656 0.86551 0.20187 0.0
H412 H 0.09119 0.89482 0.1856 0.0
H413 H 0.02061 0.8939 0.16829 0.0
C414 C 0.12438 -0.01091 0.14126 0.0
C415 C 0.08238 -0.01165 0.11331 0.0
C416 C 0.11384 0.98588 0.17021 0.0
C417 C 0.06123 0.98166 0.17185 0.0
C418 C 0.01892 0.98079 0.14422 0.0
H419 H 0.98888 0.95237 0.35233 0.0
H420 H 0.97544 0.96214 0.29623 0.0
C421 C 0.02942 0.98419 0.11504 0.0
C422 C 0.05169 0.97735 0.20276 0.0
H423 H 0.05183 0.90283 0.25302 0.0
C424 C 0.05115 0.0152 0.2238 0.0
C425 C 0.05061 0.93631 0.21301 0.0
C426 C 0.05214 0.89509 0.19113 0.0
C427 C 0.05139 0.01299 0.25544 0.0
C428 C 0.05226 0.972 0.26595 0.0
C429 C 0.05081 0.93411 0.2446 0.0
C430 C 0.05967 0.96798 0.29974 0.0
C431 C 0.05321 0.05432 0.27793 0.0
C432 C 0.1114 0.96782 0.3198 0.0
C433 C 0.11911 0.96173 0.35148 0.0
C434 C 0.07514 0.95596 0.36352 0.0
C435 C 0.02331 0.95668 0.34345 0.0
C436 C 0.0156 0.96233 0.31161 0.0
H437 H 0.04784 0.08333 0.26544 0.0
H438 H 0.02167 0.05192 0.29036 0.0
H439 H 0.09227 0.05889 0.29637 0.0
H440 H 0.14576 0.97219 0.31087 0.0
H441 H 0.15943 0.96207 0.36669 0.0
H442 H 0.09518 0.95435 0.89196 0.0
H443 H 0.10541 0.96824 0.84024 0.0
H444 H 0.02529 0.0867 0.84858 0.0
H445 H 0.01771 0.07379 0.90071 0.0
H446 H 0.02098 0.96653 0.79266 0.0
H447 H 0.13082 0.1259 0.80599 0.0
H448 H 0.13216 0.098 0.83962 0.0
H449 H 0.07754 0.13034 0.82445 0.0
C450 C 0.08219 0.98429 0.88324 0.0
C451 C 0.05639 0.0134 0.90011 0.0
C452 C 0.08773 -0.00785 0.85373 0.0
C453 C 0.06656 0.02876 0.84057 0.0
C454 C 0.04343 0.059 0.85849 0.0
H455 H 0.90131 0.03808 0.6463 0.0
H456 H 0.93209 0.04349 0.70454 0.0
C457 C 0.0388 0.05152 0.8882 0.0
C458 C 0.05978 0.0312 0.80635 0.0
H459 H 0.07108 0.09986 0.75359 0.0
C460 C 0.03297 -0.00456 0.78423 0.0
C461 C 0.07501 0.069 0.79522 0.0
C462 C 0.10595 0.10777 0.81764 0.0
C463 C 0.01942 -0.00309 0.75145 0.0
C464 C 0.03234 0.03534 0.74046 0.0
C465 C 0.06077 0.07065 0.76229 0.0
C466 C 0.01534 0.03905 0.70623 0.0
C467 C -0.00933 0.95752 0.72871 0.0
C468 C 0.05236 0.03632 0.6883 0.0
C469 C 0.03491 0.03364 0.65515 0.0
C470 C 0.98027 0.03339 0.6397 0.0
C471 C 0.94359 0.03805 0.65784 0.0
C472 C 0.96108 0.04117 0.69094 0.0
H473 H -0.00845 0.92813 0.74065 0.0
H474 H 0.94837 0.964 0.71858 0.0
H475 H 0.00878 0.95063 0.70864 0.0
H476 H 0.09433 0.03434 0.69979 0.0
H477 H 0.06369 0.02962 0.64147 0.0
H478 H 0.49458 0.52808 0.60173 0.0
H479 H 0.48543 0.52614 0.65572 0.0
H480 H 0.58207 0.41619 0.66457 0.0
H481 H 0.59249 0.41876 0.61138 0.0
H482 H 0.45569 0.45894 0.69176 0.0
H483 H 0.66937 0.51834 0.7319 0.0
H484 H 0.62822 0.51947 0.69189 0.0
H485 H 0.65554 0.46976 0.70324 0.0
C486 C 0.51248 0.50279 0.61494 0.0
C487 C 0.54502 0.47405 0.60284 0.0
C488 C 0.50734 0.50176 0.6457 0.0
C489 C 0.53415 0.47164 0.66425 0.0
C490 C 0.56196 0.44017 0.65078 0.0
H491 H 0.56093 0.39454 0.84684 0.0
H492 H 0.5407 0.40151 0.79 0.0
C493 C 0.56781 0.44163 0.62044 0.0
C494 C 0.53911 0.47587 0.69874 0.0
H495 H 0.6327 0.49326 0.77093 0.0
C496 C 0.49419 0.46679 0.70915 0.0
C497 C 0.58926 0.48712 0.72136 0.0
C498 C 0.63829 0.49967 0.71163 0.0
C499 C 0.49885 0.46648 0.74166 0.0
C500 C 0.54966 0.47497 0.76395 0.0
C501 C 0.59395 0.48615 0.75366 0.0
C502 C 0.55838 0.4712 0.79803 0.0
C503 C 0.44967 0.45701 0.75205 0.0
C504 C 0.57583 0.50797 0.82118 0.0
C505 C 0.58731 0.50407 0.85348 0.0
C506 C 0.58227 0.4632 0.86318 0.0
C507 C 0.56527 0.42634 0.83995 0.0
C508 C 0.55319 0.43035 0.80758 0.0
H509 H 0.41256 0.46067 0.7333 0.0
H510 H 0.44894 0.4231 0.75728 0.0
H511 H 0.45015 0.47901 0.77415 0.0
H512 H 0.5808 0.53965 0.81422 0.0
H513 H 0.60094 0.53293 0.87094 0.0
H514 H 0.56649 0.57325 0.41344 0.0
H515 H 0.57508 0.59203 0.3625 0.0
H516 H 0.56456 0.4557 0.32528 0.0
H517 H 0.55383 0.43697 0.37551 0.0
H518 H 0.63544 0.56486 0.31296 0.0
H519 H 0.42112 0.50832 0.28009 0.0
H520 H 0.46113 0.52084 0.32095 0.0
H521 H 0.46487 0.46954 0.29775 0.0
C522 C 0.56846 0.54741 0.3948 0.0
C523 C 0.55899 0.50374 0.39798 0.0
C524 C 0.57326 0.55816 0.36577 0.0
C525 C 0.56942 0.5252 0.34011 0.0
C526 C 0.56706 0.48152 0.34482 0.0
H527 H 0.51933 0.46111 0.14532 0.0
H528 H 0.54937 0.4737 0.20365 0.0
C529 C 0.56109 0.47083 0.37345 0.0
C530 C 0.55697 0.53536 0.30723 0.0
H531 H 0.45855 0.51615 0.23716 0.0
C532 C 0.59663 0.55489 0.29641 0.0
C533 C 0.50574 0.52333 0.28601 0.0
C534 C 0.46056 0.50475 0.29681 0.0
C535 C 0.58722 0.55969 0.26409 0.0
C536 C 0.53742 0.5443 0.24259 0.0
C537 C 0.49688 0.52749 0.25385 0.0
C538 C 0.5279 0.54034 0.20783 0.0
C539 C 0.6308 0.57942 0.25267 0.0
C540 C 0.50642 0.57393 0.19115 0.0
C541 C 0.48941 0.56683 0.15783 0.0
C542 C 0.4929 0.52585 0.14101 0.0
C543 C 0.51587 0.4928 0.15784 0.0
C544 C 0.53338 0.50006 0.19101 0.0
H545 H 0.66572 0.59316 0.27271 0.0
H546 H 0.64409 0.5542 0.23675 0.0
H547 H 0.6152 0.60558 0.23854 0.0
H548 H 0.50111 0.60494 0.2039 0.0
H549 H 0.47152 0.59268 0.14526 0.0
loop_
_geom_bond_atom_site_label_1
_geom_bond_atom_site_label_2
_geom_bond_distance
_geom_bond_site_symmetry_2
_ccdc_geom_bond_type
O0 Mg1 1.990 . S
O0 C14 1.253 . S
Mg1 O0 1.990 . S
Mg1 O4 2.180 . S
Mg1 O5 2.117 . S
Mg1 O19 2.030 1_545 S
O2 Mg3 2.072 1_565 S
O2 C14 1.260 1_565 S
Mg3 O2 2.072 1_545 S
Mg3 O4 2.099 . S
Mg3 O6 2.079 1_554 S
Mg3 O7 2.072 . S
Mg3 O9 2.099 1_444 S
Mg3 O20 2.079 1_545 S
O4 Mg1 2.180 . S
O4 Mg3 2.099 . S
O4 C15 1.279 . S
O5 Mg1 2.117 . S
O5 C15 1.250 . S
O6 Mg3 2.079 1_556 S
O6 C16 1.264 . S
O7 Mg3 2.072 . S
O7 C17 1.260 1_454 S
Mg8 O9 2.180 . S
Mg8 O10 2.030 1_565 S
Mg8 O11 1.990 1_565 S
Mg8 O12 2.117 . S
O9 Mg3 2.099 1_666 S
O9 Mg8 2.180 . S
O9 C18 1.286 . S
O10 Mg8 2.030 1_545 S
O10 C16 1.248 1_655 S
O11 Mg8 1.990 1_545 S
O11 C17 1.253 . S
O12 Mg8 2.117 . S
O12 C18 1.252 . S
C13 O19 1.248 . S
C13 O20 1.264 . S
C14 O0 1.253 . S
C14 O2 1.260 1_545 S
C15 O4 1.279 . S
C15 O5 1.250 . S
C16 O6 1.264 . S
C16 O10 1.248 1_455 S
C17 O7 1.260 1_656 S
C17 O11 1.253 . S
C18 O9 1.286 . S
C18 O12 1.252 . S
O19 Mg1 2.030 1_565 S
O19 C13 1.248 . S
O20 Mg3 2.079 1_565 S
O20 C13 1.264 . S
O21 Mg22 1.990 . S
O21 C35 1.253 . S
Mg22 O21 1.990 . S
Mg22 O25 2.180 . S
Mg22 O26 2.117 . S
Mg22 O40 2.030 . S
O23 Mg24 2.072 . S
O23 C35 1.260 . S
Mg24 O23 2.072 . S
Mg24 O25 2.099 . S
Mg24 O27 2.079 . S
Mg24 O28 2.072 . S
Mg24 O30 2.099 . S
Mg24 O41 2.079 . S
O25 Mg22 2.180 . S
O25 Mg24 2.099 . S
O25 C36 1.279 . S
O26 Mg22 2.117 . S
O26 C36 1.250 . S
O27 Mg24 2.079 . S
O27 C37 1.264 . S
O28 Mg24 2.072 . S
O28 C38 1.260 . S
Mg29 O30 2.180 . S
Mg29 O31 2.030 . S
Mg29 O32 1.990 . S
Mg29 O33 2.117 . S
O30 Mg24 2.099 . S
O30 Mg29 2.180 . S
O30 C39 1.279 . S
O31 Mg29 2.030 . S
O31 C37 1.248 . S
O32 Mg29 1.990 . S
O32 C38 1.253 . S
O33 Mg29 2.117 . S
O33 C39 1.250 . S
C34 O40 1.248 . S
C34 O41 1.264 . S
C35 O21 1.253 . S
C35 O23 1.260 . S
C36 O25 1.279 . S
C36 O26 1.250 . S
C37 O27 1.264 . S
C37 O31 1.248 . S
C38 O28 1.260 . S
C38 O32 1.253 . S
C39 O30 1.279 . S
C39 O33 1.250 . S
O40 Mg22 2.030 . S
O40 C34 1.248 . S
O41 Mg24 2.079 . S
O41 C34 1.264 . S
H42 C43 0.949 . S
C43 H42 0.949 . S
C43 C44 1.395 1_545 S
C43 C45 1.391 . S
C44 C43 1.395 1_565 S
C44 C47 1.390 . S
C45 C43 1.391 . S
C45 C49 1.387 1_545 S
C45 C50 1.491 . S
H46 C47 0.950 . S
C47 C44 1.390 . S
C47 H46 0.950 . S
C47 C48 1.378 . S
C48 C47 1.378 . S
C48 C49 1.409 . S
C49 C45 1.387 1_565 S
C49 C48 1.409 . S
C49 H51 0.951 . S
C50 C45 1.491 . S
C50 C52 1.382 . S
C50 C54 1.404 . S
H51 C49 0.951 . S
C52 C50 1.382 . S
C52 C53 1.390 . S
C52 H57 0.949 . S
C53 C52 1.390 . S
C53 C58 1.399 . S
C54 C50 1.404 . S
C54 H55 0.950 . S
C54 C56 1.375 . S
H55 C54 0.950 . S
C56 C54 1.375 . S
C56 C58 1.382 . S
C56 H60 0.950 . S
H57 C52 0.949 . S
C58 C53 1.399 . S
C58 C56 1.382 . S
C58 H59 0.952 . S
H59 C58 0.952 . S
H60 C56 0.950 . S
H61 C62 0.951 . S
C62 H61 0.951 . S
C62 C63 1.393 1_455 S
C62 C64 1.391 1_455 S
C63 C62 1.393 1_655 S
C63 C66 1.390 . S
C64 C62 1.391 1_655 S
C64 C68 1.387 . S
C64 C69 1.491 1_655 S
H65 C66 0.950 1_565 S
C66 C63 1.390 . S
C66 H65 0.950 1_545 S
C66 C67 1.378 1_545 S
C67 C66 1.378 1_565 S
C67 C68 1.409 1_565 S
C68 C64 1.387 . S
C68 C67 1.409 1_545 S
C68 H70 0.951 . S
C69 C64 1.491 1_455 S
C69 C71 1.382 . S
C69 C73 1.404 1_455 S
H70 C68 0.951 . S
C71 C69 1.382 . S
C71 C72 1.390 . S
C71 H76 0.949 . S
C72 C71 1.390 . S
C72 C77 1.399 . S
C73 C69 1.404 1_655 S
C73 H74 0.950 . S
C73 C75 1.375 . S
H74 C73 0.950 . S
C75 C73 1.375 . S
C75 C77 1.382 1_655 S
C75 H79 0.950 . S
H76 C71 0.949 . S
C77 C72 1.399 . S
C77 C75 1.382 1_455 S
C77 H78 0.952 . S
H78 C77 0.952 . S
H79 C75 0.950 . S
H80 C81 0.949 . S
C81 H80 0.949 . S
C81 C82 1.395 . S
C81 C83 1.391 . S
C82 C81 1.395 . S
C82 C85 1.390 . S
C83 C81 1.391 . S
C83 C87 1.387 . S
C83 C88 1.491 . S
H84 C85 0.950 . S
C85 C82 1.390 . S
C85 H84 0.950 . S
C85 C86 1.378 . S
C86 C85 1.378 . S
C86 C87 1.409 . S
C87 C83 1.387 . S
C87 C86 1.409 . S
C87 H89 0.951 1_556 S
C88 C83 1.491 . S
C88 C90 1.382 . S
C88 C92 1.404 1_556 S
H89 C87 0.951 1_554 S
C90 C88 1.382 . S
C90 C91 1.390 1_556 S
C90 H95 0.949 . S
C91 C90 1.390 1_554 S
C91 C96 1.399 . S
C92 C88 1.404 1_554 S
C92 H93 0.950 . S
C92 C94 1.375 . S
H93 C92 0.950 . S
C94 C92 1.375 . S
C94 C96 1.382 . S
C94 H98 0.950 . S
H95 C90 0.949 . S
C96 C91 1.399 . S
C96 C94 1.382 . S
C96 H97 0.952 . S
H97 C96 0.952 . S
H98 C94 0.950 . S
H99 C100 0.949 . S
C100 H99 0.949 . S
C100 C101 1.395 . S
C100 C102 1.391 . S
C101 C100 1.395 . S
C101 C104 1.390 . S
C102 C100 1.391 . S
C102 C106 1.387 . S
C102 C107 1.491 . S
H103 C104 0.950 . S
C104 C101 1.390 . S
C104 H103 0.950 . S
C104 C105 1.378 . S
C105 C104 1.378 . S
C105 C106 1.409 . S
C106 C102 1.387 . S
C106 C105 1.409 . S
C106 H108 0.951 . S
C107 C102 1.491 . S
C107 C109 1.382 . S
C107 C111 1.404 . S
H108 C106 0.951 . S
C109 C107 1.382 . S
C109 C110 1.390 . S
C109 H114 0.949 . S
C110 C109 1.390 . S
C110 C115 1.399 1_554 S
C111 C107 1.404 . S
C111 H112 0.950 1_554 S
C111 C113 1.375 1_554 S
H112 C111 0.950 1_556 S
C113 C111 1.375 1_556 S
C113 C115 1.382 . S
C113 H117 0.950 . S
H114 C109 0.949 . S
C115 C110 1.399 1_556 S
C115 C113 1.382 . S
C115 H116 0.952 . S
H116 C115 0.952 . S
H117 C113 0.950 . S
H118 C126 0.929 1_556 S
H119 C128 0.914 1_556 S
H120 C130 0.930 . S
H121 C133 0.929 . S
H122 C136 0.930 . S
H123 C138 0.960 1_556 S
H124 C138 0.960 1_556 S
H125 C138 0.960 . S
C126 H118 0.929 1_554 S
C126 C127 1.377 . S
C126 C128 1.384 . S
C127 C126 1.377 . S
C127 C133 1.390 . S
C128 H119 0.914 1_554 S
C128 C126 1.384 . S
C128 C129 1.372 . S
C129 C128 1.372 . S
C129 C130 1.400 . S
C129 C134 1.490 . S
C130 H120 0.930 . S
C130 C129 1.400 . S
C130 C133 1.386 . S
H131 C147 0.930 . S
H132 C148 0.931 . S
C133 H121 0.929 . S
C133 C127 1.390 . S
C133 C130 1.386 . S
C134 C129 1.490 . S
C134 C136 1.395 . S
C134 C137 1.403 . S
H135 C141 0.930 . S
C136 H122 0.930 . S
C136 C134 1.395 . S
C136 C139 1.403 . S
C137 C134 1.403 . S
C137 C138 1.524 . S
C137 C141 1.400 . S
C138 H123 0.960 1_554 S
C138 H124 0.960 1_554 S
C138 H125 0.960 . S
C138 C137 1.524 . S
C139 C136 1.403 . S
C139 C140 1.392 . S
C139 C143 1.495 . S
C140 C139 1.392 . S
C140 C141 1.385 . S
C140 C142 1.478 . S
C141 H135 0.930 . S
C141 C137 1.400 . S
C141 C140 1.385 . S
C142 C140 1.478 . S
C142 C144 1.381 . S
C142 C148 1.383 . S
C143 C139 1.495 . S
C143 H149 0.959 . S
C143 H150 0.961 . S
C143 H151 0.960 . S
C144 C142 1.381 . S
C144 C145 1.394 . S
C144 H152 0.930 . S
C145 C144 1.394 . S
C145 C146 1.383 . S
C145 H153 0.929 . S
C146 C145 1.383 . S
C146 C147 1.377 . S
C147 H131 0.930 . S
C147 C146 1.377 . S
C147 C148 1.379 . S
C148 H132 0.931 . S
C148 C142 1.383 . S
C148 C147 1.379 . S
H149 C143 0.959 . S
H150 C143 0.961 . S
H151 C143 0.960 . S
H152 C144 0.930 . S
H153 C145 0.929 . S
H154 C162 0.929 . S
H155 C164 0.930 . S
H156 C166 0.930 . S
H157 C169 0.929 . S
H158 C172 0.930 . S
H159 C174 0.960 . S
H160 C174 0.960 . S
H161 C174 0.960 . S
C162 H154 0.929 . S
C162 C163 1.377 . S
C162 C164 1.384 . S
C163 C162 1.377 . S
C163 C169 1.390 1_554 S
C164 H155 0.930 . S
C164 C162 1.384 . S
C164 C165 1.372 . S
C165 C164 1.372 . S
C165 C166 1.400 1_554 S
C165 C170 1.490 . S
C166 H156 0.930 . S
C166 C165 1.400 1_556 S
C166 C169 1.386 . S
H167 C183 0.930 . S
H168 C184 0.931 . S
C169 H157 0.929 . S
C169 C163 1.390 1_556 S
C169 C166 1.386 . S
C170 C165 1.490 . S
C170 C172 1.395 . S
C170 C173 1.403 . S
H171 C177 0.930 . S
C172 H158 0.930 . S
C172 C170 1.395 . S
C172 C175 1.403 . S
C173 C170 1.403 . S
C173 C174 1.524 . S
C173 C177 1.400 . S
C174 H159 0.960 . S
C174 H160 0.960 . S
C174 H161 0.960 . S
C174 C173 1.524 . S
C175 C172 1.403 . S
C175 C176 1.392 . S
C175 C179 1.495 1_554 S
C176 C175 1.392 . S
C176 C177 1.385 . S
C176 C178 1.478 . S
C177 H171 0.930 . S
C177 C173 1.400 . S
C177 C176 1.385 . S
C178 C176 1.478 . S
C178 C180 1.381 . S
C178 C184 1.383 1_554 S
C179 C175 1.495 1_556 S
C179 H185 0.959 . S
C179 H186 0.961 . S
C179 H187 0.960 1_556 S
C180 C178 1.381 . S
C180 C181 1.394 . S
C180 H188 0.930 . S
C181 C180 1.394 . S
C181 C182 1.383 . S
C181 H189 0.929 . S
C182 C181 1.383 . S
C182 C183 1.377 1_554 S
C183 H167 0.930 . S
C183 C182 1.377 1_556 S
C183 C184 1.379 . S
C184 H168 0.931 . S
C184 C178 1.383 1_556 S
C184 C183 1.379 . S
H185 C179 0.959 . S
H186 C179 0.961 . S
H187 C179 0.960 1_554 S
H188 C180 0.930 . S
H189 C181 0.929 . S
H190 C198 0.929 . S
H191 C200 0.930 . S
H192 C202 0.930 . S
H193 C205 0.929 . S
H194 C208 0.930 . S
H195 C210 0.960 . S
H196 C210 0.960 . S
H197 C210 0.960 . S
C198 H190 0.929 . S
C198 C199 1.377 . S
C198 C200 1.384 . S
C199 C198 1.377 . S
C199 C205 1.390 1_554 S
C200 H191 0.930 . S
C200 C198 1.384 . S
C200 C201 1.372 . S
C201 C200 1.372 . S
C201 C202 1.400 1_554 S
C201 C206 1.490 . S
C202 H192 0.930 . S
C202 C201 1.400 1_556 S
C202 C205 1.386 . S
H203 C219 0.930 1_556 S
H204 C220 0.931 1_556 S
C205 H193 0.929 . S
C205 C199 1.390 1_556 S
C205 C202 1.386 . S
C206 C201 1.490 . S
C206 C208 1.395 . S
C206 C209 1.404 1_554 S
H207 C213 0.930 1_556 S
C208 H194 0.930 . S
C208 C206 1.395 . S
C208 C211 1.403 . S
C209 C206 1.404 1_556 S
C209 C210 1.521 . S
C209 C213 1.401 1_556 S
C210 H195 0.960 . S
C210 H196 0.960 . S
C210 H197 0.960 . S
C210 C209 1.521 . S
C211 C208 1.403 . S
C211 C212 1.392 . S
C211 C215 1.495 . S
C212 C211 1.392 . S
C212 C213 1.385 . S
C212 C214 1.478 . S
C213 H207 0.930 1_554 S
C213 C209 1.401 1_554 S
C213 C212 1.385 . S
C214 C212 1.478 . S
C214 C216 1.381 . S
C214 C220 1.383 . S
C215 C211 1.495 . S
C215 H221 0.959 . S
C215 H222 0.961 . S
C215 H223 0.960 . S
C216 C214 1.381 . S
C216 C217 1.394 . S
C216 H224 0.930 . S
C217 C216 1.394 . S
C217 C218 1.383 . S
C217 H225 0.929 . S
C218 C217 1.383 . S
C218 C219 1.377 . S
C219 H203 0.930 1_554 S
C219 C218 1.377 . S
C219 C220 1.379 . S
C220 H204 0.931 1_554 S
C220 C214 1.383 . S
C220 C219 1.379 . S
H221 C215 0.959 . S
H222 C215 0.961 . S
H223 C215 0.960 . S
H224 C216 0.930 . S
H225 C217 0.929 . S
H226 C234 0.929 . S
H227 C236 0.930 . S
H228 C238 0.930 . S
H229 C241 0.929 . S
H230 C244 0.930 . S
H231 C246 0.960 . S
H232 C246 0.960 . S
H233 C246 0.960 . S
C234 H226 0.929 . S
C234 C235 1.377 . S
C234 C236 1.384 . S
C235 C234 1.377 . S
C235 C241 1.390 1_556 S
C236 H227 0.930 . S
C236 C234 1.384 . S
C236 C237 1.372 . S
C237 C236 1.372 . S
C237 C238 1.400 1_556 S
C237 C242 1.490 . S
C238 H228 0.930 . S
C238 C237 1.400 1_554 S
C238 C241 1.386 . S
H239 C255 0.930 1_554 S
H240 C256 0.931 1_554 S
C241 H229 0.929 . S
C241 C235 1.390 1_554 S
C241 C238 1.386 . S
C242 C237 1.490 . S
C242 C244 1.395 . S
C242 C245 1.403 1_556 S
H243 C249 0.930 . S
C244 H230 0.930 . S
C244 C242 1.395 . S
C244 C247 1.403 . S
C245 C242 1.403 1_554 S
C245 C246 1.524 . S
C245 C249 1.400 . S
C246 H231 0.960 . S
C246 H232 0.960 . S
C246 H233 0.960 . S
C246 C245 1.524 . S
C247 C244 1.403 . S
C247 C248 1.392 . S
C247 C251 1.495 . S
C248 C247 1.392 . S
C248 C249 1.385 1_556 S
C248 C250 1.478 . S
C249 H243 0.930 . S
C249 C245 1.400 . S
C249 C248 1.385 1_554 S
C250 C248 1.478 . S
C250 C252 1.381 . S
C250 C256 1.383 . S
C251 C247 1.495 . S
C251 H257 0.959 . S
C251 H258 0.961 . S
C251 H259 0.960 . S
C252 C250 1.381 . S
C252 C253 1.394 . S
C252 H260 0.930 . S
C253 C252 1.394 . S
C253 C254 1.383 . S
C253 H261 0.929 . S
C254 C253 1.383 . S
C254 C255 1.377 . S
C255 H239 0.930 1_556 S
C255 C254 1.377 . S
C255 C256 1.379 . S
C256 H240 0.931 1_556 S
C256 C250 1.383 . S
C256 C255 1.379 . S
H257 C251 0.959 . S
H258 C251 0.961 . S
H259 C251 0.960 . S
H260 C252 0.930 . S
H261 C253 0.929 . S
H262 C270 0.929 . S
H263 C272 0.930 . S
H264 C274 0.930 . S
H265 C277 0.929 . S
H266 C280 0.930 . S
H267 C282 0.960 . S
H268 C282 0.960 . S
H269 C282 0.960 . S
C270 H262 0.929 . S
C270 C271 1.377 . S
C270 C272 1.384 . S
C271 C270 1.377 . S
C271 C277 1.390 . S
C272 H263 0.930 . S
C272 C270 1.384 . S
C272 C273 1.372 . S
C273 C272 1.372 . S
C273 C274 1.400 . S
C273 C278 1.490 . S
C274 H264 0.930 . S
C274 C273 1.400 . S
C274 C277 1.386 . S
H275 C291 0.930 . S
H276 C292 0.931 . S
C277 H265 0.929 . S
C277 C271 1.390 . S
C277 C274 1.386 . S
C278 C273 1.490 . S
C278 C280 1.395 . S
C278 C281 1.403 . S
H279 C285 0.930 . S
C280 H266 0.930 . S
C280 C278 1.395 . S
C280 C283 1.403 . S
C281 C278 1.403 . S
C281 C282 1.524 . S
C281 C285 1.400 . S
C282 H267 0.960 . S
C282 H268 0.960 . S
C282 H269 0.960 . S
C282 C281 1.524 . S
C283 C280 1.403 . S
C283 C284 1.392 . S
C283 C287 1.495 . S
C284 C283 1.392 . S
C284 C285 1.385 . S
C284 C286 1.478 . S
C285 H279 0.930 . S
C285 C281 1.400 . S
C285 C284 1.385 . S
C286 C284 1.478 . S
C286 C288 1.381 . S
C286 C292 1.383 . S
C287 C283 1.495 . S
C287 H293 0.959 . S
C287 H294 0.961 . S
C287 H295 0.960 . S
C288 C286 1.381 . S
C288 C289 1.394 . S
C288 H296 0.930 . S
C289 C288 1.394 . S
C289 C290 1.383 . S
C289 H297 0.929 . S
C290 C289 1.383 . S
C290 C291 1.377 . S
C291 H275 0.930 . S
C291 C290 1.377 . S
C291 C292 1.379 . S
C292 H276 0.931 . S
C292 C286 1.383 . S
C292 C291 1.379 . S
H293 C287 0.959 . S
H294 C287 0.961 . S
H295 C287 0.960 . S
H296 C288 0.930 . S
H297 C289 0.929 . S
H298 C306 0.929 . S
H299 C308 0.930 . S
H300 C310 0.930 . S
H301 C313 0.929 . S
H302 C316 0.930 . S
H303 C318 0.960 . S
H304 C318 0.960 . S
H305 C318 0.960 . S
C306 H298 0.929 . S
C306 C307 1.377 . S
C306 C308 1.384 . S
C307 C306 1.377 . S
C307 C313 1.390 . S
C308 H299 0.930 . S
C308 C306 1.384 . S
C308 C309 1.372 . S
C309 C308 1.372 . S
C309 C310 1.400 . S
C309 C314 1.490 . S
C310 H300 0.930 . S
C310 C309 1.400 . S
C310 C313 1.386 . S
H311 C327 0.930 . S
H312 C328 0.931 . S
C313 H301 0.929 . S
C313 C307 1.390 . S
C313 C310 1.386 . S
C314 C309 1.490 . S
C314 C316 1.395 . S
C314 C317 1.403 . S
H315 C321 0.930 . S
C316 H302 0.930 . S
C316 C314 1.395 . S
C316 C319 1.403 . S
C317 C314 1.403 . S
C317 C318 1.524 . S
C317 C321 1.400 . S
C318 H303 0.960 . S
C318 H304 0.960 . S
C318 H305 0.960 . S
C318 C317 1.524 . S
C319 C316 1.403 . S
C319 C320 1.392 . S
C319 C323 1.495 . S
C320 C319 1.392 . S
C320 C321 1.385 . S
C320 C322 1.478 . S
C321 H315 0.930 . S
C321 C317 1.400 . S
C321 C320 1.385 . S
C322 C320 1.478 . S
C322 C324 1.381 . S
C322 C328 1.383 . S
C323 C319 1.495 . S
C323 H329 0.959 . S
C323 H330 0.961 . S
C323 H331 0.960 . S
C324 C322 1.381 . S
C324 C325 1.394 . S
C324 H332 0.930 . S
C325 C324 1.394 . S
C325 C326 1.383 . S
C325 H333 0.929 . S
C326 C325 1.383 . S
C326 C327 1.377 . S
C327 H311 0.930 . S
C327 C326 1.377 . S
C327 C328 1.379 . S
C328 H312 0.931 . S
C328 C322 1.383 . S
C328 C327 1.379 . S
H329 C323 0.959 . S
H330 C323 0.961 . S
H331 C323 0.960 . S
H332 C324 0.930 . S
H333 C325 0.929 . S
H334 C342 0.929 . S
H335 C344 0.930 . S
H336 C346 0.930 . S
H337 C349 0.929 . S
H338 C352 0.930 . S
H339 C354 0.960 . S
H340 C354 0.960 . S
H341 C354 0.960 . S
C342 H334 0.929 . S
C342 C343 1.377 . S
C342 C344 1.384 . S
C343 C342 1.377 . S
C343 C349 1.390 . S
C344 H335 0.930 . S
C344 C342 1.384 . S
C344 C345 1.372 . S
C345 C344 1.372 . S
C345 C346 1.400 . S
C345 C350 1.490 . S
C346 H336 0.930 . S
C346 C345 1.400 . S
C346 C349 1.386 . S
H347 C363 0.930 . S
H348 C364 0.931 . S
C349 H337 0.929 . S
C349 C343 1.390 . S
C349 C346 1.386 . S
C350 C345 1.490 . S
C350 C352 1.395 . S
C350 C353 1.403 . S
H351 C357 0.930 . S
C352 H338 0.930 . S
C352 C350 1.395 . S
C352 C355 1.403 . S
C353 C350 1.403 . S
C353 C354 1.524 . S
C353 C357 1.400 . S
C354 H339 0.960 . S
C354 H340 0.960 . S
C354 H341 0.960 . S
C354 C353 1.524 . S
C355 C352 1.403 . S
C355 C356 1.392 . S
C355 C359 1.495 . S
C356 C355 1.392 . S
C356 C357 1.385 . S
C356 C358 1.478 . S
C357 H351 0.930 . S
C357 C353 1.400 . S
C357 C356 1.385 . S
C358 C356 1.478 . S
C358 C360 1.381 . S
C358 C364 1.383 . S
C359 C355 1.495 . S
C359 H365 0.959 . S
C359 H366 0.961 . S
C359 H367 0.960 . S
C360 C358 1.381 . S
C360 C361 1.394 . S
C360 H368 0.930 . S
C361 C360 1.394 . S
C361 C362 1.383 . S
C361 H369 0.929 . S
C362 C361 1.383 . S
C362 C363 1.377 . S
C363 H347 0.930 . S
C363 C362 1.377 . S
C363 C364 1.379 . S
C364 H348 0.931 . S
C364 C358 1.383 . S
C364 C363 1.379 . S
H365 C359 0.959 . S
H366 C359 0.961 . S
H367 C359 0.960 . S
H368 C360 0.930 . S
H369 C361 0.929 . S
H370 C378 0.929 . S
H371 C380 0.930 . S
H372 C382 0.930 . S
H373 C385 0.929 . S
H374 C388 0.930 . S
H375 C390 0.960 . S
H376 C390 0.960 . S
H377 C390 0.960 . S
C378 H370 0.929 . S
C378 C379 1.377 . S
C378 C380 1.384 . S
C379 C378 1.377 . S
C379 C385 1.390 . S
C380 H371 0.930 . S
C380 C378 1.384 . S
C380 C381 1.372 . S
C381 C380 1.372 . S
C381 C382 1.400 . S
C381 C386 1.490 . S
C382 H372 0.930 . S
C382 C381 1.400 . S
C382 C385 1.386 . S
H383 C399 0.930 . S
H384 C400 0.931 . S
C385 H373 0.929 . S
C385 C379 1.390 . S
C385 C382 1.386 . S
C386 C381 1.490 . S
C386 C388 1.395 . S
C386 C389 1.403 . S
H387 C393 0.930 . S
C388 H374 0.930 . S
C388 C386 1.395 . S
C388 C391 1.403 . S
C389 C386 1.403 . S
C389 C390 1.524 . S
C389 C393 1.400 . S
C390 H375 0.960 . S
C390 H376 0.960 . S
C390 H377 0.960 . S
C390 C389 1.524 . S
C391 C388 1.403 . S
C391 C392 1.392 . S
C391 C395 1.495 . S
C392 C391 1.392 . S
C392 C393 1.385 . S
C392 C394 1.478 . S
C393 H387 0.930 . S
C393 C389 1.400 . S
C393 C392 1.385 . S
C394 C392 1.478 . S
C394 C396 1.381 . S
C394 C400 1.383 . S
C395 C391 1.495 . S
C395 H401 0.959 . S
C395 H402 0.961 . S
C395 H403 0.960 . S
C396 C394 1.381 . S
C396 C397 1.394 . S
C396 H404 0.930 . S
C397 C396 1.394 . S
C397 C398 1.383 . S
C397 H405 0.929 . S
C398 C397 1.383 . S
C398 C399 1.377 . S
C399 H383 0.930 . S
C399 C398 1.377 . S
C399 C400 1.379 . S
C400 H384 0.931 . S
C400 C394 1.383 . S
C400 C399 1.379 . S
H401 C395 0.959 . S
H402 C395 0.961 . S
H403 C395 0.960 . S
H404 C396 0.930 . S
H405 C397 0.929 . S
H406 C414 0.929 . S
H407 C416 0.930 . S
H408 C418 0.930 . S
H409 C421 0.929 . S
H410 C424 0.930 . S
H411 C426 0.960 . S
H412 C426 0.960 . S
H413 C426 0.960 . S
C414 H406 0.929 . S
C414 C415 1.377 1_545 S
C414 C416 1.384 . S
C415 C414 1.377 1_565 S
C415 C421 1.390 . S
C416 H407 0.930 . S
C416 C414 1.384 . S
C416 C417 1.372 1_545 S
C417 C416 1.372 1_565 S
C417 C418 1.400 . S
C417 C422 1.487 . S
C418 H408 0.930 . S
C418 C417 1.400 . S
C418 C421 1.386 . S
H419 C435 0.930 . S
H420 C436 0.931 . S
C421 H409 0.929 . S
C421 C415 1.390 . S
C421 C418 1.386 . S
C422 C417 1.487 . S
C422 C424 1.373 1_565 S
C422 C425 1.427 . S
H423 C429 0.930 . S
C424 H410 0.930 . S
C424 C422 1.373 1_545 S
C424 C427 1.403 . S
C425 C422 1.427 . S
C425 C426 1.524 . S
C425 C429 1.400 . S
C426 H411 0.960 . S
C426 H412 0.960 . S
C426 H413 0.960 . S
C426 C425 1.524 . S
C427 C424 1.403 . S
C427 C428 1.392 . S
C427 C431 1.495 . S
C428 C427 1.392 . S
C428 C429 1.385 1_545 S
C428 C430 1.478 . S
C429 H423 0.930 . S
C429 C425 1.400 . S
C429 C428 1.385 1_565 S
C430 C428 1.478 . S
C430 C432 1.381 . S
C430 C436 1.383 1_545 S
C431 C427 1.495 . S
C431 H437 0.959 . S
C431 H438 0.961 . S
C431 H439 0.960 . S
C432 C430 1.381 . S
C432 C433 1.394 . S
C432 H440 0.930 . S
C433 C432 1.394 . S
C433 C434 1.383 1_545 S
C433 H441 0.929 . S
C434 C433 1.383 1_565 S
C434 C435 1.377 . S
C435 H419 0.930 . S
C435 C434 1.377 . S
C435 C436 1.379 . S
C436 H420 0.931 . S
C436 C430 1.383 1_565 S
C436 C435 1.379 . S
H437 C431 0.959 . S
H438 C431 0.961 . S
H439 C431 0.960 . S
H440 C432 0.930 . S
H441 C433 0.929 . S
H442 C450 0.929 . S
H443 C452 0.930 . S
H444 C454 0.930 . S
H445 C457 0.944 . S
H446 C460 0.927 1_655 S
H447 C462 0.960 . S
H448 C462 0.960 . S
H449 C462 0.960 . S
C450 H442 0.929 . S
C450 C451 1.377 1_565 S
C450 C452 1.384 . S
C451 C450 1.377 1_545 S
C451 C457 1.379 1_455 S
C452 H443 0.930 . S
C452 C450 1.384 . S
C452 C453 1.372 1_565 S
C453 C452 1.372 1_545 S
C453 C454 1.400 1_455 S
C453 C458 1.490 . S
C454 H444 0.930 . S
C454 C453 1.400 1_655 S
C454 C457 1.382 . S
H455 C471 0.930 . S
H456 C472 0.931 . S
C457 H445 0.944 . S
C457 C451 1.379 1_655 S
C457 C454 1.382 . S
C458 C453 1.490 . S
C458 C460 1.396 1_545 S
C458 C461 1.403 . S
H459 C465 0.930 . S
C460 H446 0.927 1_455 S
C460 C458 1.396 1_565 S
C460 C463 1.405 1_455 S
C461 C458 1.403 . S
C461 C462 1.524 . S
C461 C465 1.400 . S
C462 H447 0.960 . S
C462 H448 0.960 . S
C462 H449 0.960 . S
C462 C461 1.524 . S
C463 C460 1.405 1_655 S
C463 C464 1.392 1_665 S
C463 C467 1.495 . S
C464 C463 1.392 1_445 S
C464 C465 1.385 . S
C464 C466 1.478 1_455 S
C465 H459 0.930 . S
C465 C461 1.400 . S
C465 C464 1.385 . S
C466 C464 1.478 1_655 S
C466 C468 1.381 1_655 S
C466 C472 1.383 . S
C467 C463 1.495 . S
C467 H473 0.959 . S
C467 H474 0.961 . S
C467 H475 0.960 . S
C468 C466 1.381 1_455 S
C468 C469 1.394 . S
C468 H476 0.930 1_545 S
C469 C468 1.394 . S
C469 C470 1.383 1_455 S
C469 H477 0.929 . S
C470 C469 1.383 1_655 S
C470 C471 1.377 . S
C471 H455 0.930 . S
C471 C470 1.377 . S
C471 C472 1.379 . S
C472 H456 0.931 . S
C472 C466 1.383 . S
C472 C471 1.379 . S
H473 C467 0.959 . S
H474 C467 0.961 . S
H475 C467 0.960 . S
H476 C468 0.930 1_565 S
H477 C469 0.929 . S
H478 C486 0.929 . S
H479 C488 0.930 . S
H480 C490 0.930 . S
H481 C493 0.929 . S
H482 C496 0.930 . S
H483 C498 0.960 . S
H484 C498 0.960 . S
H485 C498 0.960 . S
C486 H478 0.929 . S
C486 C487 1.377 . S
C486 C488 1.384 . S
C487 C486 1.377 . S
C487 C493 1.390 . S
C488 H479 0.930 . S
C488 C486 1.384 . S
C488 C489 1.372 . S
C489 C488 1.372 . S
C489 C490 1.400 . S
C489 C494 1.490 . S
C490 H480 0.930 . S
C490 C489 1.400 . S
C490 C493 1.386 . S
H491 C507 0.930 . S
H492 C508 0.931 . S
C493 H481 0.929 . S
C493 C487 1.390 . S
C493 C490 1.386 . S
C494 C489 1.490 . S
C494 C496 1.395 . S
C494 C497 1.403 . S
H495 C501 0.930 . S
C496 H482 0.930 . S
C496 C494 1.395 . S
C496 C499 1.403 . S
C497 C494 1.403 . S
C497 C498 1.524 . S
C497 C501 1.400 . S
C498 H483 0.960 . S
C498 H484 0.960 . S
C498 H485 0.960 . S
C498 C497 1.524 . S
C499 C496 1.403 . S
C499 C500 1.392 . S
C499 C503 1.495 . S
C500 C499 1.392 . S
C500 C501 1.385 . S
C500 C502 1.478 . S
C501 H495 0.930 . S
C501 C497 1.400 . S
C501 C500 1.385 . S
C502 C500 1.478 . S
C502 C504 1.381 . S
C502 C508 1.383 . S
C503 C499 1.495 . S
C503 H509 0.959 . S
C503 H510 0.961 . S
C503 H511 0.960 . S
C504 C502 1.381 . S
C504 C505 1.394 . S
C504 H512 0.930 . S
C505 C504 1.394 . S
C505 C506 1.383 . S
C505 H513 0.929 . S
C506 C505 1.383 . S
C506 C507 1.377 . S
C507 H491 0.930 . S
C507 C506 1.377 . S
C507 C508 1.379 . S
C508 H492 0.931 . S
C508 C502 1.383 . S
C508 C507 1.379 . S
H509 C503 0.959 . S
H510 C503 0.961 . S
H511 C503 0.960 . S
H512 C504 0.930 . S
H513 C505 0.929 . S
H514 C522 0.929 . S
H515 C524 0.930 . S
H516 C526 0.930 . S
H517 C529 0.929 . S
H518 C532 0.930 . S
H519 C534 0.960 . S
H520 C534 0.960 . S
H521 C534 0.960 . S
C522 H514 0.929 . S
C522 C523 1.377 . S
C522 C524 1.384 . S
C523 C522 1.377 . S
C523 C529 1.390 . S
C524 H515 0.930 . S
C524 C522 1.384 . S
C524 C525 1.372 . S
C525 C524 1.372 . S
C525 C526 1.400 . S
C525 C530 1.490 . S
C526 H516 0.930 . S
C526 C525 1.400 . S
C526 C529 1.386 . S
H527 C543 0.930 . S
H528 C544 0.931 . S
C529 H517 0.929 . S
C529 C523 1.390 . S
C529 C526 1.386 . S
C530 C525 1.490 . S
C530 C532 1.395 . S
C530 C533 1.403 . S
H531 C537 0.930 . S
C532 H518 0.930 . S
C532 C530 1.395 . S
C532 C535 1.403 . S
C533 C530 1.403 . S
C533 C534 1.524 . S
C533 C537 1.400 . S
C534 H519 0.960 . S
C534 H520 0.960 . S
C534 H521 0.960 . S
C534 C533 1.524 . S
C535 C532 1.403 . S
C535 C536 1.392 . S
C535 C539 1.495 . S
C536 C535 1.392 . S
C536 C537 1.385 . S
C536 C538 1.478 . S
C537 H531 0.930 . S
C537 C533 1.400 . S
C537 C536 1.385 . S
C538 C536 1.478 . S
C538 C540 1.381 . S
C538 C544 1.383 . S
C539 C535 1.495 . S
C539 H545 0.959 . S
C539 H546 0.961 . S
C539 H547 0.960 . S
C540 C538 1.381 . S
C540 C541 1.394 . S
C540 H548 0.930 . S
C541 C540 1.394 . S
C541 C542 1.383 . S
C541 H549 0.929 . S
C542 C541 1.383 . S
C542 C543 1.377 . S
C543 H527 0.930 . S
C543 C542 1.377 . S
C543 C544 1.379 . S
C544 H528 0.931 . S
C544 C538 1.383 . S
C544 C543 1.379 . S
H545 C539 0.959 . S
H546 C539 0.961 . S
H547 C539 0.960 . S
H548 C540 0.930 . S
H549 C541 0.929 . S
C146 C105 1.513 . S
C127 C15 1.395 . S
C163 C13 1.374 . S
C182 C91 1.388 . S
C199 C18 1.259 1_554 S
C218 C110 1.411 . S
C235 C17 1.511 . S
C254 C86 1.526 . S
C271 C36 1.381 . S
C290 C67 1.523 . S
C307 C34 1.381 . S
C326 C53 1.340 1_655 S
C362 C72 1.386 . S
C343 C39 1.262 . S
C398 C48 1.537 . S
C379 C38 1.508 . S
C415 C14 1.634 1_565 S
C434 C44 1.679 . S
C451 C16 1.408 . S
C470 C63 1.397 . S
C506 C82 1.677 . S
C487 C35 1.633 . S
C523 C37 1.399 . S
C542 C101 1.429 . S
