# Generated by pormake.
# Topology apo, (3,6)-cn, num edge types: 1
# Building blocks:
#     Node 0, Type 0, BuildingBlock: CUQRIR_clean_linker_1, # of connection points: 3
#     Node 1, Type 0, BuildingBlock: CUQRIR_clean_linker_1, # of connection points: 3
#     Node 2, Type 0, BuildingBlock: CUQRIR_clean_linker_1, # of connection points: 3
#     Node 3, Type 0, BuildingBlock: CUQRIR_clean_linker_1, # of connection points: 3
#     Node 4, Type 0, BuildingBlock: CUQRIR_clean_linker_1, # of connection points: 3
#     Node 5, Type 0, BuildingBlock: CUQRIR_clean_linker_1, # of connection points: 3
#     Node 6, Type 0, BuildingBlock: CUQRIR_clean_linker_1, # of connection points: 3
#     Node 7, Type 0, BuildingBlock: CUQRIR_clean_linker_1, # of connection points: 3
#     Node 8, Type 1, BuildingBlock: KUMBUR_clean_sbu_1, # of connection points: 6
#     Node 9, Type 1, BuildingBlock: KUMBUR_clean_sbu_1, # of connection points: 6
#     Node 10, Type 1, BuildingBlock: KUMBUR_clean_sbu_1, # of connection points: 6
#     Node 11, Type 1, BuildingBlock: KUMBUR_clean_sbu_1, # of connection points: 6
#     Edge 12, Type (0, 1), BuildingBlock: MIFKUJ_clean_linker_0, # of connection points: 2
#     Edge 13, Type (0, 1), BuildingBlock: MIFKUJ_clean_linker_0, # of connection points: 2
#     Edge 14, Type (0, 1), BuildingBlock: MIFKUJ_clean_linker_0, # of connection points: 2
#     Edge 15, Type (0, 1), BuildingBlock: MIFKUJ_clean_linker_0, # of connection points: 2
#     Edge 16, Type (0, 1), BuildingBlock: MIFKUJ_clean_linker_0, # of connection points: 2
#     Edge 17, Type (0, 1), BuildingBlock: MIFKUJ_clean_linker_0, # of connection points: 2
#     Edge 18, Type (0, 1), BuildingBlock: MIFKUJ_clean_linker_0, # of connection points: 2
#     Edge 19, Type (0, 1), BuildingBlock: MIFKUJ_clean_linker_0, # of connection points: 2
#     Edge 20, Type (0, 1), BuildingBlock: MIFKUJ_clean_linker_0, # of connection points: 2
#     Edge 21, Type (0, 1), BuildingBlock: MIFKUJ_clean_linker_0, # of connection points: 2
#     Edge 22, Type (0, 1), BuildingBlock: MIFKUJ_clean_linker_0, # of connection points: 2
#     Edge 23, Type (0, 1), BuildingBlock: MIFKUJ_clean_linker_0, # of connection points: 2
#     Edge 24, Type (0, 1), BuildingBlock: MIFKUJ_clean_linker_0, # of connection points: 2
#     Edge 25, Type (0, 1), BuildingBlock: MIFKUJ_clean_linker_0, # of connection points: 2
#     Edge 26, Type (0, 1), BuildingBlock: MIFKUJ_clean_linker_0, # of connection points: 2
#     Edge 27, Type (0, 1), BuildingBlock: MIFKUJ_clean_linker_0, # of connection points: 2
#     Edge 28, Type (0, 1), BuildingBlock: MIFKUJ_clean_linker_0, # of connection points: 2
#     Edge 29, Type (0, 1), BuildingBlock: MIFKUJ_clean_linker_0, # of connection points: 2
#     Edge 30, Type (0, 1), BuildingBlock: MIFKUJ_clean_linker_0, # of connection points: 2
#     Edge 31, Type (0, 1), BuildingBlock: MIFKUJ_clean_linker_0, # of connection points: 2
#     Edge 32, Type (0, 1), BuildingBlock: MIFKUJ_clean_linker_0, # of connection points: 2
#     Edge 33, Type (0, 1), BuildingBlock: MIFKUJ_clean_linker_0, # of connection points: 2
#     Edge 34, Type (0, 1), BuildingBlock: MIFKUJ_clean_linker_0, # of connection points: 2
#     Edge 35, Type (0, 1), BuildingBlock: MIFKUJ_clean_linker_0, # of connection points: 2
# Relax obj value: 0.047
# Max RMSD: 0.212
# Mean RMSD: 0.169
data_MOF--net-apo--node1-KUMBUR_clean_sbu_1--node2-CUQRIR_clean_linker_1--edge1-MIFKUJ_clean_linker_0
_symmetry_space_group_name_H-M    P1
_symmetry_Int_Tables_number       1
_symmetry_cell_setting            triclinic
loop_
_symmetry_equiv_pos_as_xyz
'x, y, z'
_cell_length_a     33.759212
_cell_length_b     52.354439
_cell_length_c     60.352934
_cell_angle_alpha  90.031646
_cell_angle_beta   90.147274
_cell_angle_gamma 90.270848
loop_
_atom_site_label
_atom_site_type_symbol
_atom_site_fract_x
_atom_site_fract_y
_atom_site_fract_z
_atom_type_partial_charge
C0 C 0.27929 0.34803 0.42582 0.0
N1 N 0.29856 0.37054 0.42883 0.0
N2 N 0.26115 0.34742 0.40581 0.0
C3 C 0.27601 0.32738 0.44303 0.0
C4 C 0.26999 0.3704 0.39674 0.0
N5 N 0.29236 0.38463 0.41084 0.0
C6 C 0.25927 0.3781 0.37347 0.0
H7 H 0.30414 0.31652 0.44357 0.0
H8 H 0.25131 0.31399 0.43932 0.0
H9 H 0.27134 0.33598 0.45962 0.0
H10 H 0.25296 0.36116 0.36295 0.0
H11 H 0.28354 0.3894 0.36584 0.0
H12 H 0.23237 0.39017 0.37397 0.0
C13 C 0.22593 0.17109 0.92476 0.0
N14 N 0.20389 0.14948 0.92677 0.0
N15 N 0.23759 0.17444 0.90348 0.0
C16 C 0.23735 0.18832 0.94368 0.0
C17 C 0.22181 0.15419 0.89263 0.0
N18 N 0.20125 0.13907 0.90672 0.0
C19 C 0.2264 0.14924 0.86822 0.0
H20 H 0.21374 0.18856 0.95644 0.0
H21 H 0.24317 0.20808 0.93792 0.0
H22 H 0.26486 0.18097 0.95144 0.0
H23 H 0.25287 0.13715 0.86561 0.0
H24 H 0.23062 0.16739 0.85901 0.0
H25 H 0.20018 0.13894 0.86153 0.0
C26 C 0.78494 0.17371 0.60755 0.0
N27 N 0.80795 0.15263 0.60576 0.0
N28 N 0.77686 0.17877 0.62909 0.0
C29 C 0.77278 0.19041 0.58847 0.0
C30 C 0.79581 0.16009 0.64034 0.0
N31 N 0.81509 0.14441 0.62621 0.0
C32 C 0.79348 0.15622 0.66502 0.0
H33 H 0.7664 0.21015 0.59409 0.0
H34 H 0.74558 0.18233 0.58079 0.0
H35 H 0.7963 0.19103 0.57567 0.0
H36 H 0.7658 0.1644 0.67183 0.0
H37 H 0.81909 0.16597 0.67295 0.0
H38 H 0.79483 0.13564 0.66929 0.0
C39 C 0.73211 0.33979 0.11305 0.0
N40 N 0.70676 0.35943 0.10975 0.0
N41 N 0.73716 0.33543 0.13496 0.0
C42 C 0.75048 0.32407 0.09496 0.0
C43 C 0.71404 0.35304 0.14491 0.0
N44 N 0.69512 0.3675 0.12958 0.0
C45 C 0.71304 0.35765 0.16954 0.0
H46 H 0.73013 0.32239 0.08056 0.0
H47 H 0.75814 0.30469 0.10101 0.0
H48 H 0.77808 0.33364 0.08935 0.0
H49 H 0.73957 0.34964 0.17784 0.0
H50 H 0.68633 0.34826 0.17652 0.0
H51 H 0.71142 0.37839 0.17319 0.0
C52 C 0.74176 0.66411 0.60737 0.0
N53 N 0.71839 0.64311 0.60487 0.0
N54 N 0.74572 0.67021 0.62909 0.0
C55 C 0.75844 0.67976 0.58867 0.0
C56 C 0.72394 0.6523 0.63972 0.0
N57 N 0.70711 0.63599 0.62504 0.0
C58 C 0.72036 0.65014 0.66449 0.0
H59 H 0.78645 0.67095 0.58299 0.0
H60 H 0.76493 0.6996 0.59409 0.0
H61 H 0.73749 0.68018 0.57447 0.0
H62 H 0.69268 0.6597 0.66978 0.0
H63 H 0.74575 0.65948 0.67299 0.0
H64 H 0.71861 0.62983 0.66964 0.0
C65 C 0.77033 0.85121 0.10476 0.0
N66 N 0.78948 0.87373 0.10121 0.0
N67 N 0.75482 0.85047 0.12543 0.0
C68 C 0.76434 0.83065 0.08765 0.0
C69 C 0.76498 0.87329 0.13433 0.0
N70 N 0.78568 0.88756 0.11959 0.0
C71 C 0.75674 0.88096 0.1579 0.0
H72 H 0.73833 0.81849 0.0917 0.0
H73 H 0.79101 0.81837 0.08723 0.0
H74 H 0.76016 0.83911 0.07097 0.0
H75 H 0.78096 0.89312 0.16455 0.0
H76 H 0.75308 0.86397 0.16869 0.0
H77 H 0.72894 0.89215 0.15833 0.0
C78 C 0.24211 0.8432 0.42123 0.0
N79 N 0.21647 0.86287 0.4235 0.0
N80 N 0.25102 0.83944 0.39961 0.0
C81 C 0.25756 0.82737 0.44015 0.0
C82 C 0.22961 0.85737 0.38879 0.0
N83 N 0.20818 0.8714 0.4033 0.0
C84 C 0.22922 0.86106 0.36403 0.0
H85 H 0.27622 0.83949 0.45109 0.0
H86 H 0.27555 0.81102 0.43442 0.0
H87 H 0.2323 0.82024 0.45015 0.0
H88 H 0.20179 0.8524 0.35713 0.0
H89 H 0.25476 0.85191 0.35582 0.0
H90 H 0.22916 0.88172 0.35993 0.0
C91 C 0.27642 0.67022 0.92241 0.0
N92 N 0.29957 0.64932 0.92494 0.0
N93 N 0.26479 0.67271 0.90099 0.0
C94 C 0.26514 0.68811 0.94084 0.0
C95 C 0.28177 0.65258 0.89065 0.0
N96 N 0.30278 0.63838 0.90519 0.0
C97 C 0.27983 0.64755 0.8661 0.0
H98 H 0.26197 0.67777 0.95676 0.0
H99 H 0.23698 0.69804 0.93705 0.0
H100 H 0.28893 0.70261 0.94291 0.0
H101 H 0.2767 0.66564 0.85669 0.0
H102 H 0.25378 0.63522 0.8625 0.0
H103 H 0.30674 0.63745 0.86038 0.0
Tb104 Tb 0.05825 0.115 0.24264 0.0
C105 C 0.89211 0.08999 0.27415 0.0
N106 N 0.90909 0.11362 0.27403 0.0
C107 C 0.85095 0.13108 0.25706 0.0
C108 C 0.85402 0.08591 0.26521 0.0
C109 C 0.88891 0.1342 0.26605 0.0
C110 C 0.83345 0.10684 0.2566 0.0
C111 C 0.89807 0.04473 0.28198 0.0
C112 C 0.91419 0.06962 0.28214 0.0
C113 C 0.86007 0.04055 0.27309 0.0
C114 C 0.83813 0.06107 0.26471 0.0
Tb115 Tb 0.97153 0.1161 0.28841 0.0
N116 N 0.9515 0.07424 0.28992 0.0
C117 C 0.92044 0.02485 0.29101 0.0
C118 C 0.97165 0.05534 0.30059 0.0
C119 C 0.95705 0.03029 0.30076 0.0
H120 H 0.90184 0.15307 0.26675 0.0
H121 H 0.97365 0.01531 0.30887 0.0
H122 H 0.11809 0.06683 0.25594 0.0
H123 H 0.08557 0.2148 0.22666 0.0
H124 H 0.99793 0.05954 0.30994 0.0
H125 H 0.90912 1.00545 0.29125 0.0
H126 H 0.04439 0.17621 0.23044 0.0
H127 H 0.83521 0.14734 0.25045 0.0
H128 H 0.84732 0.02152 0.2727 0.0
H129 H 0.80895 0.05752 0.25782 0.0
H130 H 0.18851 0.06145 0.26537 0.0
H131 H 0.80415 0.10449 0.24949 0.0
H132 H 0.1575 0.21263 0.23384 0.0
N133 N 0.1226 0.10714 0.25189 0.0
C134 C 0.14721 0.12774 0.25112 0.0
C135 C 0.17721 0.08024 0.26164 0.0
C136 C 0.18797 0.12539 0.25572 0.0
C137 C 0.13709 0.08344 0.25664 0.0
C138 C 0.20276 0.1013 0.2613 0.0
N139 N 0.09174 0.15287 0.24171 0.0
C140 C 0.07526 0.17523 0.23476 0.0
C141 C 0.15617 0.17286 0.24339 0.0
C142 C 0.13146 0.15126 0.24536 0.0
C143 C 0.13931 0.1959 0.23653 0.0
C144 C 0.09869 0.19713 0.2323 0.0
H145 H 0.23391 0.09867 0.26496 0.0
H146 H 0.24409 0.14558 0.25767 0.0
H147 H 0.2164 0.18699 0.24644 0.0
O148 O 0.04536 0.12242 0.20908 0.0
O149 O 0.07134 0.1373 0.27273 0.0
O150 O 0.0126 0.14876 0.29036 0.0
O151 O 0.09348 0.09785 0.21815 0.0
O152 O 0.0035 0.13641 0.23568 0.0
O153 O 0.97651 0.15098 0.26883 0.0
O154 O 0.96825 0.10784 0.32252 0.0
O155 O 0.96093 0.10091 0.25458 0.0
O156 O 0.01925 0.0818 0.24519 0.0
O157 O 0.93148 0.13668 0.30825 0.0
O158 O 0.02969 0.10017 0.29739 0.0
O159 O 0.05178 0.08234 0.26485 0.0
C160 C 0.05092 0.15153 0.28657 0.0
C161 C 0.06365 0.09063 0.18335 0.0
C162 C 0.06532 0.08143 0.14366 0.0
C163 C 0.0455 0.05821 0.14768 0.0
C164 C 0.04475 0.06717 0.18707 0.0
C165 C 0.03566 0.05107 0.1693 0.0
C166 C 0.07419 0.09761 0.16167 0.0
C167 C 0.98182 0.15255 0.24724 0.0
C168 C 0.07359 0.10776 0.20187 0.0
C169 C 0.21265 0.14701 0.25426 0.0
C170 C 0.19685 0.17063 0.24791 0.0
C171 C 0.98052 0.08298 0.24409 0.0
C172 C 0.9522 0.14259 0.34542 0.0
C173 C 0.95182 0.15106 0.38534 0.0
C174 C 0.97338 0.17369 0.38148 0.0
C175 C 0.97336 0.16535 0.34206 0.0
C176 C 0.9412 0.13556 0.36709 0.0
C177 C 0.98395 0.18076 0.35999 0.0
C178 C 0.05231 0.08399 0.28658 0.0
C179 C 0.94269 0.12572 0.32651 0.0
H180 H 0.03857 0.0453 0.13417 0.0
H181 H 0.03762 0.06127 0.20372 0.0
H182 H 0.02128 0.03289 0.17233 0.0
H183 H 0.08927 0.11565 0.15881 0.0
H184 H 0.98154 0.18619 0.39508 0.0
H185 H 0.98162 0.17117 0.32556 0.0
H186 H 0.92501 0.11791 0.36976 0.0
H187 H 1.00034 0.19829 0.35722 0.0
Tb188 Tb 0.45771 0.39299 0.74655 0.0
C189 C 0.64052 0.39898 0.77367 0.0
N190 N 0.61436 0.37984 0.77795 0.0
C191 C 0.66416 0.34871 0.76982 0.0
C192 C 0.6796 0.39375 0.76702 0.0
C193 C 0.62577 0.35491 0.77655 0.0
C194 C 0.69119 0.36821 0.76498 0.0
C195 C 0.65458 0.44444 0.77309 0.0
C196 C 0.62823 0.42393 0.77659 0.0
C197 C 0.69337 0.43942 0.76597 0.0
C198 C 0.70584 0.41412 0.76291 0.0
Tb199 Tb 0.55222 0.39222 0.78796 0.0
N200 N 0.5902 0.42799 0.78308 0.0
C201 C 0.64121 0.46927 0.77715 0.0
C202 C 0.57762 0.45203 0.78815 0.0
C203 C 0.60273 0.47302 0.785 0.0
H204 H 0.60546 0.33986 0.78117 0.0
H205 H 0.59236 0.49202 0.78881 0.0
H206 H 0.38881 0.42674 0.77176 0.0
H207 H 0.46287 0.29315 0.72233 0.0
H208 H 0.54826 0.45513 0.7945 0.0
H209 H 0.66057 0.48558 0.77472 0.0
H210 H 0.48325 0.33808 0.72106 0.0
H211 H 0.673 0.32891 0.76861 0.0
H212 H 0.71406 0.45492 0.76303 0.0
H213 H 0.73596 0.41051 0.75764 0.0
H214 H 0.32496 0.4186 0.79048 0.0
H215 H 0.721 0.36335 0.75995 0.0
H216 H 0.40367 0.28037 0.74376 0.0
N217 N 0.39795 0.38776 0.76346 0.0
C218 C 0.38329 0.36356 0.76398 0.0
C219 C 0.3411 0.40295 0.78311 0.0
C220 C 0.34706 0.358 0.77452 0.0
C221 C 0.37733 0.40749 0.77259 0.0
C222 C 0.32595 0.37809 0.78415 0.0
N223 N 0.44053 0.35051 0.74464 0.0
C224 C 0.45949 0.33274 0.73197 0.0
C225 C 0.39156 0.31885 0.7549 0.0
C226 C 0.40559 0.34426 0.75455 0.0
C227 C 0.41342 0.30011 0.74392 0.0
C228 C 0.44704 0.30721 0.73198 0.0
H229 H 0.29804 0.3746 0.79247 0.0
H230 H 0.30601 0.32788 0.7837 0.0
H231 H 0.34479 0.29361 0.76635 0.0
O232 O 0.45211 0.38803 0.71199 0.0
O233 O 0.45255 0.38111 0.78145 0.0
O234 O 0.51048 0.36016 0.7881 0.0
O235 O 0.4146 0.41413 0.72934 0.0
O236 O 0.51426 0.3764 0.73548 0.0
O237 O 0.54006 0.35893 0.76727 0.0
O238 O 0.53987 0.40148 0.82123 0.0
O239 O 0.5595 0.41303 0.75629 0.0
O240 O 0.49765 0.42556 0.74325 0.0
O241 O 0.58758 0.37629 0.81321 0.0
O242 O 0.5025 0.41721 0.79663 0.0
O243 O 0.46375 0.42824 0.7659 0.0
C244 C 0.47232 0.36285 0.79129 0.0
C245 C 0.38842 0.39483 0.69685 0.0
C246 C 0.35831 0.38942 0.66022 0.0
C247 C 0.32317 0.38108 0.67043 0.0
C248 C 0.35314 0.38625 0.70668 0.0
C249 C 0.32079 0.37935 0.69348 0.0
C250 C 0.39101 0.39608 0.67359 0.0
C251 C 0.53821 0.36034 0.74557 0.0
C252 C 0.42232 0.40351 0.71041 0.0
C253 C 0.33357 0.33261 0.77547 0.0
C254 C 0.35578 0.31307 0.7657 0.0
C255 C 0.53648 0.42751 0.74391 0.0
C256 C 0.5956 0.40221 0.845 0.0
C257 C 0.61578 0.4111 0.88329 0.0
C258 C 0.64454 0.42826 0.87523 0.0
C259 C 0.62473 0.4193 0.83756 0.0
C260 C 0.59127 0.39805 0.86795 0.0
C261 C 0.64888 0.43229 0.85256 0.0
C262 C 0.47641 0.43187 0.78644 0.0
C263 C 0.56984 0.38867 0.82896 0.0
H264 H 0.29766 0.37566 0.66053 0.0
H265 H 0.35036 0.38515 0.7245 0.0
H266 H 0.29364 0.37281 0.70117 0.0
H267 H 0.41812 0.40285 0.66593 0.0
H268 H 0.66443 0.43819 0.88645 0.0
H269 H 0.62919 0.42252 0.82017 0.0
H270 H 0.56884 0.38482 0.87381 0.0
H271 H 0.67137 0.44537 0.84657 0.0
Tb272 Tb 0.04671 0.89652 0.73976 0.0
C273 C 0.88852 0.86304 0.78254 0.0
N274 N 0.90215 0.88693 0.77812 0.0
C275 C 0.83958 0.89803 0.762 0.0
C276 C 0.85014 0.85535 0.77612 0.0
C277 C 0.87809 0.90467 0.7685 0.0
C278 C 0.82564 0.87319 0.76565 0.0
C279 C 0.90053 0.82138 0.79847 0.0
C280 C 0.91349 0.84634 0.79343 0.0
C281 C 0.86272 0.81327 0.79155 0.0
C282 C 0.83756 0.83023 0.7804 0.0
Tb283 Tb 0.96496 0.89608 0.78964 0.0
N284 N 0.94971 0.855 0.79996 0.0
C285 C 0.92548 0.80562 0.8109 0.0
C286 C 0.97261 0.84036 0.81366 0.0
C287 C 0.96142 0.81531 0.8188 0.0
H288 H 0.8886 0.92393 0.76581 0.0
H289 H 0.98016 0.80364 0.82922 0.0
H290 H 0.10965 0.84936 0.75402 0.0
H291 H 0.07949 0.99322 0.71568 0.0
H292 H 0.99908 0.84804 0.82123 0.0
H293 H 0.91664 0.78634 0.8152 0.0
H294 H 0.03891 0.9537 0.71812 0.0
H295 H 0.8207 0.91205 0.75417 0.0
H296 H 0.85233 0.7941 0.79513 0.0
H297 H 0.8083 0.82383 0.77542 0.0
H298 H 0.17548 0.84615 0.77113 0.0
H299 H 0.79589 0.86806 0.76048 0.0
H300 H 0.14556 0.99496 0.7336 0.0
N301 N 0.1094 0.89016 0.7537 0.0
C302 C 0.13251 0.91144 0.75521 0.0
C303 C 0.16348 0.86472 0.76713 0.0
C304 C 0.17136 0.91038 0.76379 0.0
C305 C 0.12553 0.86673 0.75795 0.0
C306 C 0.1862 0.88672 0.77053 0.0
N307 N 0.08123 0.93394 0.73768 0.0
C308 C 0.06769 0.95448 0.72597 0.0
C309 C 0.14243 0.95599 0.74555 0.0
C310 C 0.11837 0.93395 0.74633 0.0
C311 C 0.12792 0.97766 0.73466 0.0
C312 C 0.09061 0.97676 0.72453 0.0
H313 H 0.21585 0.88507 0.77728 0.0
H314 H 0.22449 0.93228 0.77112 0.0
H315 H 0.19915 0.97225 0.75504 0.0
O316 O 0.03113 0.90205 0.70636 0.0
O317 O 0.04383 0.92921 0.76299 0.0
O318 O 0.02585 0.90853 0.79437 0.0
O319 O 0.08391 0.88186 0.71481 0.0
O320 O 0.98864 0.91365 0.73403 0.0
O321 O 0.96329 0.92948 0.76713 0.0
O322 O 0.95009 0.89401 0.82344 0.0
O323 O 0.94951 0.88047 0.75677 0.0
O324 O 0.00715 0.86321 0.74287 0.0
O325 O 0.9435 0.9291 0.80558 0.0
O326 O 0.02358 0.87857 0.79488 0.0
O327 O 0.04381 0.86235 0.76109 0.0
C328 C 0.04046 0.92867 0.78464 0.0
C329 C 0.05289 0.87124 0.68092 0.0
C330 C 0.05779 0.85942 0.64181 0.0
C331 C 0.0349 0.83746 0.64622 0.0
C332 C 0.03038 0.84922 0.68495 0.0
C333 C 0.02138 0.83243 0.66766 0.0
C334 C 0.06664 0.87626 0.65939 0.0
C335 C 0.96914 0.93099 0.74542 0.0
C336 C 0.06132 0.8896 0.69877 0.0
C337 C 0.19473 0.93267 0.76436 0.0
C338 C 0.18035 0.95542 0.75516 0.0
C339 C 0.96831 0.86292 0.74531 0.0
C340 C 0.90049 0.92171 0.83636 0.0
C341 C 0.86426 0.9229 0.87157 0.0
C342 C 0.83 0.93008 0.85982 0.0
C343 C 0.86596 0.92911 0.82514 0.0
C344 C 0.89944 0.91857 0.85957 0.0
C345 C 0.83094 0.93314 0.83683 0.0
C346 C 0.04211 0.86128 0.78289 0.0
C347 C 0.93804 0.91744 0.8244 0.0
H348 H 0.02794 0.82396 0.63316 0.0
H349 H 0.01976 0.84513 0.70143 0.0
H350 H 0.00393 0.81544 0.67089 0.0
H351 H 0.08368 0.89349 0.6563 0.0
H352 H 0.80226 0.93312 0.86837 0.0
H353 H 0.86601 0.9319 0.8074 0.0
H354 H 0.92624 0.91319 0.8683 0.0
H355 H 0.80437 0.93871 0.82804 0.0
Tb356 Tb 0.47031 0.61817 0.24241 0.0
C357 C 0.64583 0.62826 0.27797 0.0
N358 N 0.62157 0.6075 0.27906 0.0
C359 C 0.67599 0.58012 0.27003 0.0
C360 C 0.6862 0.62578 0.27256 0.0
C361 C 0.63612 0.58354 0.27549 0.0
C362 C 0.70112 0.60133 0.26847 0.0
C363 C 0.65383 0.67423 0.28093 0.0
C364 C 0.62989 0.65218 0.28204 0.0
C365 C 0.6941 0.67189 0.27553 0.0
C366 C 0.71024 0.64773 0.27133 0.0
Tb367 Tb 0.55729 0.61581 0.28797 0.0
N368 N 0.59041 0.65382 0.28629 0.0
C369 C 0.63649 0.69795 0.28519 0.0
C370 C 0.5737 0.67674 0.29138 0.0
C371 C 0.59631 0.69918 0.29061 0.0
H372 H 0.61726 0.56694 0.27723 0.0
H373 H 0.58277 0.71735 0.29439 0.0
H374 H 0.40899 0.66521 0.25707 0.0
H375 H 0.4481 0.51696 0.23055 0.0
H376 H 0.54313 0.67779 0.29619 0.0
H377 H 0.65399 0.71532 0.28461 0.0
H378 H 0.48647 0.55693 0.23102 0.0
H379 H 0.68738 0.56112 0.26715 0.0
H380 H 0.71299 0.68863 0.27451 0.0
H381 H 0.74133 0.64622 0.26716 0.0
H382 H 0.33927 0.66889 0.26858 0.0
H383 H 0.73199 0.59861 0.26425 0.0
H384 H 0.3767 0.51758 0.23931 0.0
N385 N 0.40626 0.62481 0.25288 0.0
C386 C 0.38273 0.60364 0.25281 0.0
C387 C 0.35121 0.65044 0.26424 0.0
C388 C 0.3424 0.60507 0.2586 0.0
C389 C 0.39095 0.64817 0.25807 0.0
C390 C 0.32683 0.62883 0.26454 0.0
N391 N 0.43888 0.57953 0.24271 0.0
C392 C 0.45614 0.55728 0.23618 0.0
C393 C 0.37598 0.558 0.24666 0.0
C394 C 0.39939 0.58033 0.24717 0.0
C395 C 0.39383 0.53501 0.24054 0.0
C396 C 0.43411 0.53463 0.23541 0.0
H397 H 0.29601 0.63072 0.2692 0.0
H398 H 0.28788 0.58354 0.26265 0.0
H399 H 0.31713 0.54244 0.25187 0.0
O400 O 0.47623 0.6076 0.20896 0.0
O401 O 0.4584 0.5977 0.27391 0.0
O402 O 0.51825 0.58238 0.28694 0.0
O403 O 0.43541 0.63691 0.21849 0.0
O404 O 0.52715 0.60013 0.23433 0.0
O405 O 0.55156 0.58223 0.26656 0.0
O406 O 0.55129 0.6287 0.32075 0.0
O407 O 0.56954 0.63567 0.25628 0.0
O408 O 0.50999 0.6514 0.2432 0.0
O409 O 0.58921 0.5971 0.31329 0.0
O410 O 0.50021 0.63393 0.29584 0.0
O411 O 0.47721 0.65184 0.26335 0.0
C412 C 0.47931 0.58169 0.28604 0.0
C413 C 0.46345 0.6398 0.18278 0.0
C414 C 0.46011 0.64855 0.14297 0.0
C415 C 0.4879 0.66842 0.14596 0.0
C416 C 0.49117 0.65957 0.18526 0.0
C417 C 0.5033 0.67381 0.16696 0.0
C418 C 0.448 0.6343 0.16163 0.0
C419 C 0.54803 0.58276 0.24483 0.0
C420 C 0.45096 0.62452 0.20201 0.0
C421 C 0.31897 0.58281 0.25829 0.0
C422 C 0.33565 0.55938 0.2522 0.0
C423 C 0.54896 0.65182 0.24414 0.0
C424 C 0.55904 0.59783 0.34862 0.0
C425 C 0.56197 0.5893 0.3885 0.0
C426 C 0.52788 0.57387 0.38636 0.0
C427 C 0.52459 0.58296 0.34712 0.0
C428 C 0.57771 0.60101 0.36934 0.0
C429 C 0.50937 0.57079 0.36582 0.0
C430 C 0.4798 0.65129 0.28506 0.0
C431 C 0.57434 0.6112 0.32892 0.0
H432 H 0.49737 0.68009 0.13213 0.0
H433 H 0.50332 0.66393 0.20135 0.0
H434 H 0.52463 0.68913 0.16906 0.0
H435 H 0.42701 0.61872 0.15972 0.0
H436 H 0.51542 0.56417 0.4006 0.0
H437 H 0.50928 0.58115 0.33153 0.0
H438 H 0.60367 0.61319 0.3706 0.0
H439 H 0.48287 0.55917 0.36442 0.0
H440 H 0.21793 0.91948 0.41837 0.0
H441 H 0.18809 0.95813 0.40225 0.0
H442 H 0.11713 0.91106 0.35881 0.0
H443 H 0.14576 0.87261 0.37551 0.0
H444 H 0.17519 0.94894 0.33879 0.0
H445 H 0.06873 0.94024 0.39224 0.0
H446 H 0.04229 0.93703 0.43018 0.0
H447 H 0.09263 0.01024 0.44618 0.0
H448 H 0.11997 0.01369 0.40842 0.0
H449 H 0.06438 0.03452 0.27464 0.0
H450 H 0.09025 1.0001 0.29757 0.0
H451 H 0.11226 0.05363 0.35071 0.0
H452 H 0.08418 0.08796 0.32805 0.0
H453 H 0.08283 0.01412 0.36799 0.0
H454 H 0.19213 0.0243 0.3188 0.0
H455 H 0.22803 0.02867 0.28345 0.0
H456 H 0.18199 0.95626 0.26174 0.0
H457 H 0.1464 0.95124 0.29716 0.0
C458 C 0.19485 0.91753 0.40599 0.0
C459 C 0.18437 0.89328 0.39789 0.0
C460 C 0.17806 0.9395 0.39671 0.0
C461 C 0.15079 0.93736 0.37919 0.0
C462 C 0.1383 0.91306 0.37222 0.0
C463 C 0.15461 0.89119 0.38171 0.0
C464 C 0.13885 0.96013 0.36633 0.0
C465 C 0.15463 0.96309 0.34503 0.0
C466 C 0.11356 0.97906 0.37495 0.0
C467 C 0.0968 0.97708 0.39758 0.0
C468 C 0.07453 0.95553 0.40391 0.0
C469 C 0.05929 0.95369 0.42537 0.0
C470 C 0.06588 0.97338 0.44061 0.0
C471 C 0.0876 0.99498 0.43438 0.0
C472 C 0.10295 0.99689 0.41294 0.0
C473 C 0.07545 0.03903 0.29106 0.0
C474 C 0.0727 0.06395 0.2995 0.0
C475 C 0.09037 0.01932 0.30419 0.0
C476 C 0.10404 0.0242 0.32584 0.0
C477 C 0.10199 0.04928 0.33411 0.0
C478 C 0.0862 0.06892 0.32112 0.0
C479 C 0.11864 1.0029 0.34005 0.0
C480 C 0.10356 1.00016 0.36166 0.0
C481 C 0.14557 0.98444 0.33198 0.0
C482 C 0.16634 0.98752 0.31052 0.0
C483 C 0.18947 0.0094 0.30642 0.0
C484 C 0.20984 0.01196 0.2864 0.0
C485 C 0.20699 0.99288 0.27027 0.0
C486 C 0.18408 0.97106 0.27422 0.0
C487 C 0.164 0.96827 0.29432 0.0
H488 H 0.22268 0.99495 0.25476 0.0
H489 H 0.05406 0.97192 0.45722 0.0
H490 H 0.38127 0.63034 0.90209 0.0
H491 H 0.41284 0.59317 0.88478 0.0
H492 H 0.2982 0.55728 0.87725 0.0
H493 H 0.26722 0.59416 0.89518 0.0
H494 H 0.35187 0.52194 0.88523 0.0
H495 H 0.33835 0.59268 0.8355 0.0
H496 H 0.34679 0.63713 0.82277 0.0
H497 H 0.4732 0.62863 0.82469 0.0
H498 H 0.46551 0.58418 0.83763 0.0
H499 H 0.42749 0.4703 0.77191 0.0
H500 H 0.39821 0.50456 0.79404 0.0
H501 H 0.45895 0.47679 0.8521 0.0
H502 H 0.48775 0.44244 0.8304 0.0
H503 H 0.42959 0.54349 0.818 0.0
H504 H 0.39778 0.48275 0.89669 0.0
H505 H 0.38285 0.43786 0.90605 0.0
H506 H 0.33466 0.42578 0.84095 0.0
H507 H 0.34856 0.47068 0.83135 0.0
C508 C 0.36329 0.61398 0.89759 0.0
C509 C 0.32208 0.6147 0.90019 0.0
C510 C 0.38112 0.59295 0.88741 0.0
C511 C 0.35779 0.57261 0.87934 0.0
C512 C 0.31684 0.57269 0.88331 0.0
C513 C 0.29915 0.59362 0.89359 0.0
C514 C 0.37528 0.55242 0.8651 0.0
C515 C 0.3691 0.52666 0.87063 0.0
C516 C 0.39664 0.55852 0.8456 0.0
C517 C 0.40136 0.5852 0.83775 0.0
C518 C 0.36795 0.60035 0.83334 0.0
C519 C 0.37259 0.62553 0.82607 0.0
C520 C 0.41051 0.63573 0.823 0.0
C521 C 0.44385 0.62073 0.82712 0.0
C522 C 0.43937 0.59553 0.8344 0.0
C523 C 0.43458 0.47144 0.78939 0.0
C524 C 0.45968 0.45338 0.79937 0.0
C525 C 0.41799 0.49113 0.80199 0.0
C526 C 0.42603 0.49304 0.82477 0.0
C527 C 0.45185 0.47546 0.83462 0.0
C528 C 0.46841 0.45584 0.8221 0.0
C529 C 0.40699 0.51308 0.83845 0.0
C530 C 0.4127 0.53879 0.83273 0.0
C531 C 0.38418 0.50691 0.85738 0.0
C532 C 0.37462 0.48004 0.86324 0.0
C533 C 0.38377 0.47056 0.88442 0.0
C534 C 0.3755 0.4451 0.88977 0.0
C535 C 0.35793 0.42896 0.87408 0.0
C536 C 0.34837 0.43827 0.85306 0.0
C537 C 0.35646 0.46373 0.84766 0.0
H538 H 0.35166 0.40924 0.87824 0.0
H539 H 0.41404 0.65523 0.81738 0.0
H540 H 0.73442 0.58806 0.6234 0.0
H541 H 0.70406 0.55051 0.64095 0.0
H542 H 0.60136 0.59556 0.65741 0.0
H543 H 0.63307 0.63322 0.64079 0.0
H544 H 0.62407 0.57276 0.69209 0.0
H545 H 0.60143 0.54438 0.61793 0.0
H546 H 0.61864 0.5339 0.57932 0.0
H547 H 0.69945 0.47647 0.60212 0.0
H548 H 0.6832 0.48689 0.6409 0.0
H549 H 0.50201 0.47151 0.72977 0.0
H550 H 0.53152 0.50556 0.70758 0.0
H551 H 0.6421 0.46472 0.70584 0.0
H552 H 0.61257 0.43027 0.72805 0.0
H553 H 0.61618 0.48401 0.66357 0.0
H554 H 0.64327 0.51767 0.73768 0.0
H555 H 0.62653 0.53044 0.77591 0.0
H556 H 0.53204 0.57727 0.7514 0.0
H557 H 0.54915 0.56549 0.71298 0.0
C558 C 0.70489 0.58952 0.63023 0.0
C559 C 0.68565 0.61316 0.63066 0.0
C560 C 0.68748 0.56814 0.64024 0.0
C561 C 0.65017 0.57004 0.65045 0.0
C562 C 0.63015 0.59354 0.64974 0.0
C563 C 0.64793 0.61496 0.6401 0.0
C564 C 0.63375 0.54845 0.66374 0.0
C565 C 0.62179 0.55348 0.68559 0.0
C566 C 0.63169 0.52303 0.65567 0.0
C567 C 0.64136 0.5166 0.63235 0.0
C568 C 0.6231 0.52965 0.61473 0.0
C569 C 0.63265 0.5237 0.59281 0.0
C570 C 0.66019 0.50457 0.58827 0.0
C571 C 0.67815 0.49131 0.60566 0.0
C572 C 0.66876 0.49722 0.62762 0.0
C573 C 0.53261 0.46969 0.72466 0.0
C574 C 0.55498 0.44819 0.73071 0.0
C575 C 0.54949 0.48926 0.71208 0.0
C576 C 0.58904 0.48774 0.70516 0.0
C577 C 0.61152 0.46626 0.71104 0.0
C578 C 0.59469 0.4467 0.72383 0.0
C579 C 0.60641 0.5086 0.6916 0.0
C580 C 0.61853 0.50339 0.66983 0.0
C581 C 0.60819 0.53395 0.69953 0.0
C582 C 0.59725 0.54055 0.72255 0.0
C583 C 0.6188 0.53058 0.74049 0.0
C584 C 0.60935 0.53772 0.76216 0.0
C585 C 0.57795 0.5544 0.7661 0.0
C586 C 0.55626 0.56428 0.74834 0.0
C587 C 0.56602 0.55755 0.72661 0.0
H588 H 0.57058 0.55978 0.7829 0.0
H589 H 0.66754 0.49999 0.57129 0.0
H590 H 0.86435 0.8945 0.12239 0.0
H591 H 0.89815 0.93057 0.14064 0.0
H592 H 0.78616 0.96897 0.14781 0.0
H593 H 0.75255 0.93267 0.12978 0.0
H594 H 0.85378 1.00248 0.13757 0.0
H595 H 0.8133 0.93638 0.18973 0.0
H596 H 0.81027 0.89218 0.20383 0.0
H597 H 0.9373 0.88945 0.20626 0.0
H598 H 0.94106 0.93365 0.19217 0.0
H599 H 0.90711 0.08725 0.22492 0.0
H600 H 0.8728 0.05576 0.2017 0.0
H601 H 0.97192 1.00454 0.20854 0.0
H602 H 0.00478 0.03514 0.23301 0.0
H603 H 0.90958 0.97797 0.21064 0.0
H604 H 0.95347 0.04176 0.15944 0.0
H605 H 0.96142 0.08551 0.14484 0.0
H606 H 0.83515 0.09203 0.13824 0.0
H607 H 0.82664 0.04841 0.1531 0.0
C608 C 0.84738 0.9111 0.12717 0.0
C609 C 0.80608 0.91106 0.12467 0.0
C610 C 0.86651 0.93155 0.13774 0.0
C611 C 0.84457 0.95233 0.14579 0.0
C612 C 0.80365 0.95317 0.1417 0.0
C613 C 0.7845 0.93258 0.13137 0.0
C614 C 0.86348 0.97167 0.16049 0.0
C615 C 0.86568 0.99724 0.15364 0.0
C616 C 0.87974 0.96473 0.18125 0.0
C617 C 0.87746 0.93819 0.18971 0.0
C618 C 0.84058 0.92628 0.19314 0.0
C619 C 0.83873 0.90126 0.20117 0.0
C620 C 0.87356 0.88797 0.20583 0.0
C621 C 0.91033 0.89974 0.2026 0.0
C622 C 0.91235 0.92479 0.19465 0.0
C623 C 0.92126 0.06911 0.22171 0.0
C624 C 0.95885 0.06379 0.23059 0.0
C625 C 0.90189 0.05124 0.20815 0.0
C626 C 0.92009 0.0279 0.20282 0.0
C627 C 0.95721 0.02239 0.21221 0.0
C628 C 0.97617 0.04002 0.22607 0.0
C629 C 0.90055 0.009 0.18772 0.0
C630 C 0.89794 0.98341 0.19456 0.0
C631 C 0.88464 0.0159 0.16678 0.0
C632 C 0.88948 0.042 0.15763 0.0
C633 C 0.92748 0.05265 0.15504 0.0
C634 C 0.93207 0.07738 0.14669 0.0
C635 C 0.89879 0.09158 0.14069 0.0
C636 C 0.8609 0.08102 0.14294 0.0
C637 C 0.85619 0.05628 0.15131 0.0
H638 H 0.90235 0.11074 0.13424 0.0
H639 H 0.87206 0.86859 0.21201 0.0
H640 H 0.8837 0.14124 0.64844 0.0
H641 H 0.91066 0.1028 0.6662 0.0
H642 H 0.81652 0.05772 0.63727 0.0
H643 H 0.7901 0.09632 0.61927 0.0
H644 H 0.82413 0.05117 0.68338 0.0
H645 H 0.90477 0.04879 0.6187 0.0
H646 H 0.95007 0.06609 0.59043 0.0
H647 H 0.03818 0.0803 0.64044 0.0
H648 H 0.99309 0.06349 0.66911 0.0
H649 H 0.96314 0.93477 0.7005 0.0
H650 H 0.93709 0.96983 0.6787 0.0
H651 H 0.90855 0.01071 0.73859 0.0
H652 H 0.93455 0.97523 0.76084 0.0
H653 H 0.9606 0.01779 0.6752 0.0
H654 H 0.82573 0.0475 0.72792 0.0
H655 H 0.779 0.02811 0.75449 0.0
H656 H 0.79608 0.95462 0.72446 0.0
H657 H 0.84232 0.97365 0.69747 0.0
C658 C 0.86974 0.12291 0.64538 0.0
C659 C 0.83539 0.12141 0.63233 0.0
C660 C 0.88484 0.10106 0.65561 0.0
C661 C 0.86547 0.07742 0.65314 0.0
C662 C 0.83184 0.07578 0.63943 0.0
C663 C 0.81709 0.09763 0.62895 0.0
C664 C 0.87932 0.05482 0.6658 0.0
C665 C 0.85393 0.04381 0.68157 0.0
C666 C 0.91805 0.0451 0.66329 0.0
C667 C 0.94539 0.0551 0.6461 0.0
C668 C 0.93367 0.05581 0.62371 0.0
C669 C 0.95933 0.0655 0.6076 0.0
C670 C 0.99695 0.07434 0.61364 0.0
C671 C 0.00901 0.07347 0.6358 0.0
C672 C 0.98341 0.06385 0.65198 0.0
C673 C 0.95129 0.95112 0.7092 0.0
C674 C 0.95107 0.95213 0.73253 0.0
C675 C 0.93649 0.97126 0.69661 0.0
C676 C 0.92086 0.99294 0.70692 0.0
C677 C 0.92017 0.99405 0.73023 0.0
C678 C 0.93502 0.97377 0.74294 0.0
C679 C 0.90561 0.01426 0.69305 0.0
C680 C 0.93079 0.02512 0.67706 0.0
C681 C 0.86645 0.02351 0.6951 0.0
C682 C 0.8378 0.01198 0.71083 0.0
C683 C 0.81933 0.02724 0.72691 0.0
C684 C 0.79294 0.0163 0.74205 0.0
C685 C 0.78468 0.99014 0.74121 0.0
C686 C 0.80259 0.97487 0.72514 0.0
C687 C 0.8289 0.98572 0.70992 0.0
H688 H 0.76434 0.98171 0.75298 0.0
H689 H 0.01679 0.08183 0.60114 0.0
H690 H 0.70827 0.41524 0.11445 0.0
H691 H 0.67855 0.4545 0.12903 0.0
H692 H 0.60188 0.40933 0.1708 0.0
H693 H 0.63045 0.37023 0.15541 0.0
H694 H 0.56471 0.45147 0.15891 0.0
H695 H 0.69234 0.4307 0.18907 0.0
H696 H 0.76357 0.42072 0.18737 0.0
H697 H 0.78702 0.49392 0.15799 0.0
H698 H 0.71575 0.50416 0.15918 0.0
H699 H 0.56033 0.53312 0.25679 0.0
H700 H 0.58252 0.49806 0.23281 0.0
H701 H 0.59831 0.55102 0.17887 0.0
H702 H 0.57488 0.58597 0.20245 0.0
H703 H 0.66524 0.50736 0.19489 0.0
H704 H 0.53299 0.52672 0.16572 0.0
H705 H 0.46146 0.53455 0.17009 0.0
H706 H 0.44735 0.46146 0.20142 0.0
H707 H 0.51905 0.45347 0.19767 0.0
C708 C 0.68405 0.41382 0.12611 0.0
C709 C 0.67187 0.38989 0.1341 0.0
C710 C 0.66738 0.43618 0.13463 0.0
C711 C 0.63876 0.43488 0.1515 0.0
C712 C 0.62414 0.41087 0.15797 0.0
C713 C 0.64051 0.38857 0.14928 0.0
C714 C 0.62714 0.45809 0.1641 0.0
C715 C 0.58676 0.46366 0.16672 0.0
C716 C 0.6558 0.47405 0.17446 0.0
C717 C 0.69869 0.46808 0.17399 0.0
C718 C 0.71266 0.4446 0.18212 0.0
C719 C 0.75304 0.4389 0.18125 0.0
C720 C 0.7798 0.45665 0.17253 0.0
C721 C 0.76624 0.48017 0.1647 0.0
C722 C 0.72586 0.48593 0.16547 0.0
C723 C 0.56903 0.5373 0.23991 0.0
C724 C 0.56591 0.56221 0.23144 0.0
C725 C 0.58143 0.51729 0.22623 0.0
C726 C 0.59163 0.52203 0.20408 0.0
C727 C 0.59025 0.54704 0.19589 0.0
C728 C 0.57694 0.56693 0.20936 0.0
C729 C 0.60309 0.50072 0.18939 0.0
C730 C 0.64339 0.49538 0.18667 0.0
C731 C 0.57441 0.48479 0.17924 0.0
C732 C 0.53143 0.48965 0.18167 0.0
C733 C 0.51474 0.51248 0.17382 0.0
C734 C 0.47414 0.5169 0.17609 0.0
C735 C 0.44986 0.49848 0.18596 0.0
C736 C 0.46618 0.47568 0.19371 0.0
C737 C 0.5068 0.47121 0.19154 0.0
H738 H 0.41843 0.50192 0.1877 0.0
H739 H 0.81105 0.45221 0.17187 0.0
H740 H 0.37055 0.39487 0.40984 0.0
H741 H 0.402 0.43234 0.39268 0.0
H742 H 0.28683 0.46586 0.38247 0.0
H743 H 0.25573 0.42822 0.39942 0.0
H744 H 0.32541 0.46345 0.34491 0.0
H745 H 0.35721 0.49216 0.41781 0.0
H746 H 0.38438 0.49028 0.4557 0.0
H747 H 0.50122 0.47906 0.42963 0.0
H748 H 0.47467 0.48032 0.39155 0.0
H749 H 0.40041 0.57932 0.29708 0.0
H750 H 0.36747 0.54775 0.3207 0.0
H751 H 0.47788 0.50773 0.32882 0.0
H752 H 0.51078 0.53872 0.30476 0.0
H753 H 0.44037 0.51595 0.36888 0.0
H754 H 0.40775 0.47807 0.29821 0.0
H755 H 0.3816 0.47551 0.26007 0.0
H756 H 0.26899 0.50328 0.28234 0.0
H757 H 0.29435 0.50549 0.32073 0.0
C758 C 0.35227 0.41071 0.4046 0.0
C759 C 0.31086 0.4088 0.40581 0.0
C760 C 0.37015 0.43209 0.39476 0.0
C761 C 0.34682 0.45199 0.38618 0.0
C762 C 0.3055 0.45076 0.38884 0.0
C763 C 0.28772 0.42937 0.39858 0.0
C764 C 0.36479 0.47233 0.37205 0.0
C765 C 0.34998 0.47531 0.35043 0.0
C766 C 0.39782 0.48725 0.37884 0.0
C767 C 0.41382 0.48606 0.40177 0.0
C768 C 0.38863 0.48897 0.42012 0.0
C769 C 0.40394 0.48807 0.44166 0.0
C770 C 0.44448 0.48448 0.44508 0.0
C771 C 0.4698 0.48178 0.42696 0.0
C772 C 0.45463 0.48259 0.40539 0.0
C773 C 0.41757 0.56356 0.30355 0.0
C774 C 0.45832 0.56166 0.29904 0.0
C775 C 0.39871 0.54557 0.31715 0.0
C776 C 0.42024 0.52541 0.32664 0.0
C777 C 0.46071 0.5232 0.32183 0.0
C778 C 0.47944 0.54094 0.308 0.0
C779 C 0.40083 0.50689 0.34193 0.0
C780 C 0.41544 0.50426 0.36364 0.0
C781 C 0.36776 0.49212 0.3353 0.0
C782 C 0.35302 0.49218 0.31221 0.0
C783 C 0.37752 0.48382 0.29491 0.0
C784 C 0.36274 0.48223 0.27331 0.0
C785 C 0.32366 0.48925 0.26878 0.0
C786 C 0.29923 0.49782 0.28588 0.0
C787 C 0.31372 0.49912 0.30757 0.0
H788 H 0.31233 0.4881 0.25202 0.0
H789 H 0.45629 0.48385 0.46176 0.0
H790 H 0.23904 0.09559 0.89724 0.0
H791 H 0.21029 0.05797 0.87887 0.0
H792 H 0.094 0.09132 0.88448 0.0
H793 H 0.1235 0.12956 0.90122 0.0
H794 H 0.16087 0.02139 0.88498 0.0
H795 H 0.03981 0.0801 0.83915 0.0
H796 H 0.02913 0.12429 0.82631 0.0
H797 H 0.15487 0.13658 0.82347 0.0
H798 H 0.16629 0.09239 0.83597 0.0
H799 H 0.03724 0.9332 0.82972 0.0
H800 H 0.06238 0.96804 0.85263 0.0
H801 H 0.10255 0.00749 0.79399 0.0
H802 H 0.07436 0.97369 0.77102 0.0
H803 H 0.07631 0.04059 0.81976 0.0
H804 H 0.16629 0.97213 0.83006 0.0
H805 H 0.18676 0.92803 0.83845 0.0
H806 H 0.1418 0.93548 0.90462 0.0
H807 H 0.12049 0.97953 0.89652 0.0
C808 C 0.20724 0.09438 0.89501 0.0
C809 C 0.18323 0.11501 0.90107 0.0
C810 C 0.1908 0.07298 0.88452 0.0
C811 C 0.14998 0.0719 0.87994 0.0
C812 C 0.12564 0.09183 0.88747 0.0
C813 C 0.14228 0.11345 0.8975 0.0
C814 C 0.13356 0.05113 0.86567 0.0
C815 C 0.14224 0.02559 0.87078 0.0
C816 C 0.11043 0.05652 0.84661 0.0
C817 C 0.10384 0.08302 0.83873 0.0
C818 C 0.06516 0.09221 0.83569 0.0
C819 C 0.05899 0.11726 0.82849 0.0
C820 C 0.0913 0.13326 0.82416 0.0
C821 C 0.12987 0.1242 0.82691 0.0
C822 C 0.1362 0.09916 0.83406 0.0
C823 C 0.05132 0.94932 0.82165 0.0
C824 C 0.05486 0.95026 0.79844 0.0
C825 C 0.066 0.96919 0.83484 0.0
C826 C 0.0855 0.99017 0.82518 0.0
C827 C 0.08804 0.99146 0.80196 0.0
C828 C 0.07244 0.97188 0.78877 0.0
C829 C 0.10311 0.01076 0.83921 0.0
C830 C 0.09473 0.03631 0.83403 0.0
C831 C 0.12811 1.00539 0.85753 0.0
C832 C 0.14148 0.97906 0.86262 0.0
C833 C 0.16058 0.96433 0.84637 0.0
C834 C 0.17234 0.93934 0.85107 0.0
C835 C 0.1655 0.92894 0.87204 0.0
C836 C 0.14703 0.94355 0.88837 0.0
C837 C 0.13513 0.96854 0.88374 0.0
H838 H 0.17458 0.90958 0.87564 0.0
H839 H 0.08645 0.15266 0.81862 0.0
H840 H 0.12728 0.14213 0.93787 0.0
H841 H 0.1017 0.12737 0.97358 0.0
H842 H 0.22142 0.12101 0.99824 0.0
H843 H 0.24673 0.13394 0.96184 0.0
H844 H 0.18083 0.08407 1.01462 0.0
H845 H 0.15964 0.17403 1.00882 0.0
H846 H 0.13541 0.21391 0.99195 0.0
H847 H 0.01555 0.18675 0.99699 0.0
H848 H 0.03913 0.14652 1.01361 0.0
H849 H 0.13851 0.0971 0.13009 0.0
H850 H 0.16018 0.1067 0.09223 0.0
H851 H 0.04238 0.09091 0.06792 0.0
H852 H 0.02064 0.08094 0.10579 0.0
H853 H 0.0798 0.13791 0.05139 0.0
H854 H 0.10526 0.04771 0.0595 0.0
H855 H 0.13326 0.00996 0.07814 0.0
H856 H 0.25047 0.04102 0.07094 0.0
H857 H 0.22309 0.07916 0.05254 0.0
C858 C 0.14799 0.13664 0.95066 0.0
C859 C 0.18889 0.13872 0.94708 0.0
C860 C 0.13343 0.12873 0.97125 0.0
C861 C 0.15955 0.12353 0.98888 0.0
C862 C 0.20056 0.12492 0.98502 0.0
C863 C 0.21505 0.13239 0.96431 0.0
C864 C 0.14429 0.11754 1.01149 0.0
C865 C 0.15903 0.09604 0.02268 0.0
C866 C 0.11549 0.13293 0.02211 0.0
C867 C 0.10118 0.15716 1.01225 0.0
C868 C 0.12813 0.17649 1.00619 0.0
C869 C 0.11452 0.19916 0.99669 0.0
C870 C 0.07397 0.20284 0.99335 0.0
C871 C 0.04695 0.18386 0.99956 0.0
C872 C 0.06042 0.16112 1.00903 0.0
C873 C 0.11719 0.09585 0.11669 0.0
C874 C 0.07791 0.08827 0.12085 0.0
C875 C 0.12964 0.10121 0.09508 0.0
C876 C 0.10293 0.09939 0.07728 0.0
C877 C 0.06345 0.09238 0.08144 0.0
C878 C 0.05113 0.0866 0.10301 0.0
C879 C 0.11643 0.10458 0.05432 0.0
C880 C 0.10142 0.12595 0.04317 0.0
C881 C 0.14556 0.08941 0.04393 0.0
C882 C 0.16208 0.0664 0.05483 0.0
C883 C 0.13697 0.04659 0.06206 0.0
C884 C 0.15274 0.0251 0.07255 0.0
C885 C 0.19361 0.02312 0.07578 0.0
C886 C 0.21881 0.04259 0.06846 0.0
C887 C 0.20319 0.06414 0.05798 0.0
H888 H 0.20575 0.00647 0.0839 0.0
H889 H 0.06348 0.22041 0.98599 0.0
H890 H 0.3634 0.35098 0.44827 0.0
H891 H 0.38512 0.35854 0.48659 0.0
H892 H 0.29347 0.4151 0.49414 0.0
H893 H 0.27306 0.40805 0.45549 0.0
H894 H 0.35518 0.42887 0.51795 0.0
H895 H 0.27964 0.35086 0.51015 0.0
H896 H 0.26376 0.30823 0.49499 0.0
H897 H 0.37686 0.28043 0.51665 0.0
H898 H 0.3934 0.32291 0.53195 0.0
H899 H 0.30638 0.41315 0.63243 0.0
H900 H 0.30746 0.41416 0.59183 0.0
H901 H 0.41534 0.3704 0.59194 0.0
H902 H 0.41471 0.3697 0.63268 0.0
H903 H 0.35336 0.35056 0.56424 0.0
H904 H 0.42308 0.42879 0.57705 0.0
H905 H 0.43467 0.47132 0.59343 0.0
H906 H 0.32795 0.49898 0.56314 0.0
H907 H 0.31537 0.45648 0.54685 0.0
C908 C 0.34888 0.36554 0.45803 0.0
C909 C 0.31669 0.37897 0.44917 0.0
C910 C 0.36092 0.36969 0.47993 0.0
C911 C 0.34022 0.38688 0.49353 0.0
C912 C 0.30981 0.40164 0.48409 0.0
C913 C 0.29821 0.39773 0.46204 0.0
C914 C 0.34793 0.38797 0.51787 0.0
C915 C 0.35453 0.41176 0.52806 0.0
C916 C 0.34777 0.36562 0.53117 0.0
C917 C 0.33791 0.3401 0.52197 0.0
C918 C 0.3012 0.33568 0.51157 0.0
C919 C 0.29206 0.31154 0.50299 0.0
C920 C 0.31937 0.29168 0.50475 0.0
C921 C 0.35578 0.29585 0.51524 0.0
C922 C 0.36501 0.31993 0.52392 0.0
C923 C 0.33048 0.40392 0.62378 0.0
C924 C 0.36042 0.39129 0.63568 0.0
C925 C 0.33119 0.40463 0.60062 0.0
C926 C 0.36157 0.39246 0.58887 0.0
C927 C 0.39172 0.38001 0.6007 0.0
C928 C 0.39141 0.37968 0.62392 0.0
C929 C 0.36025 0.39143 0.56427 0.0
C930 C 0.3546 0.36763 0.55406 0.0
C931 C 0.36071 0.41378 0.55108 0.0
C932 C 0.36809 0.43936 0.56089 0.0
C933 C 0.40186 0.44386 0.57405 0.0
C934 C 0.40866 0.46799 0.58329 0.0
C935 C 0.38201 0.48783 0.57937 0.0
C936 C 0.34854 0.48359 0.56618 0.0
C937 C 0.34159 0.45949 0.55692 0.0
H938 H 0.38733 0.5065 0.58652 0.0
H939 H 0.31227 0.27302 0.49805 0.0
H940 H 0.75108 0.37861 0.07675 0.0
H941 H 0.7287 0.38947 0.03923 0.0
H942 H 0.60859 0.37044 0.05758 0.0
H943 H 0.63127 0.36027 0.0953 0.0
H944 H 0.6988 0.35998 1.00931 0.0
H945 H 0.54333 0.40323 0.02433 0.0
H946 H 0.50847 0.42805 0.05299 0.0
H947 H 0.61924 0.45936 0.07556 0.0
H948 H 0.65466 0.43512 0.04678 0.0
H949 H 0.60658 0.3653 0.90495 0.0
H950 H 0.61294 0.35739 0.9448 0.0
H951 H 0.62732 0.43822 0.95635 0.0
H952 H 0.61942 0.44631 0.91677 0.0
H953 H 0.58799 0.41773 0.98981 0.0
H954 H 0.70776 0.39924 0.95017 0.0
H955 H 0.74845 0.37831 0.92161 0.0
H956 H 0.71933 0.3048 0.94874 0.0
H957 H 0.678 0.32531 0.97729 0.0
C958 C 0.71988 0.37717 0.07272 0.0
C959 C 0.69279 0.36866 0.08868 0.0
C960 C 0.70709 0.38322 0.05133 0.0
C961 C 0.66691 0.38077 0.04547 0.0
C962 C 0.63962 0.37285 0.0617 0.0
C963 C 0.65246 0.36706 0.0832 0.0
C964 C 0.65424 0.38532 0.02213 0.0
C965 C 0.67446 0.37257 1.00513 0.0
C966 C 0.62276 0.40194 0.01651 0.0
C967 C 0.60166 0.41711 0.03354 0.0
C968 C 0.56022 0.41552 0.03533 0.0
C969 C 0.54036 0.42948 0.0516 0.0
C970 C 0.56164 0.4452 0.06613 0.0
C971 C 0.6028 0.44711 0.06434 0.0
C972 C 0.62278 0.43326 0.04805 0.0
C973 C 0.61002 0.38144 0.91603 0.0
C974 C 0.61317 0.40641 0.90761 0.0
C975 C 0.614 0.37688 0.93881 0.0
C976 C 0.62149 0.39717 0.95357 0.0
C977 C 0.62184 0.42223 0.94535 0.0
C978 C 0.6177 0.4268 0.92265 0.0
C979 C 0.6325 0.3923 0.97711 0.0
C980 C 0.61202 0.40496 0.99411 0.0
C981 C 0.66452 0.37616 0.98277 0.0
C982 C 0.68946 0.36378 0.96569 0.0
C983 C 0.70982 0.3786 0.94994 0.0
C984 C 0.73302 0.36682 0.93377 0.0
C985 C 0.73638 0.34024 0.93332 0.0
C986 C 0.71663 0.32538 0.94908 0.0
C987 C 0.69333 0.33707 0.96526 0.0
H988 H 0.75437 0.33115 0.92079 0.0
H989 H 0.54622 0.45595 0.07875 0.0
H990 H 0.76985 0.13561 0.5694 0.0
H991 H 0.79923 0.12792 0.53284 0.0
H992 H 0.91553 0.14198 0.56018 0.0
H993 H 0.8858 0.14965 0.59676 0.0
H994 H 0.89996 0.17174 0.52387 0.0
H995 H 0.892 0.08349 0.54236 0.0
H996 H 0.86018 0.04383 0.55543 0.0
H997 H 0.77717 0.04705 0.50149 0.0
H998 H 0.8081 0.08699 0.48827 0.0
H999 H 0.99795 0.15245 0.42261 0.0
H1000 H 0.97741 0.14584 0.46099 0.0
H1001 H 0.8589 0.12794 0.43886 0.0
H1002 H 0.87954 0.13421 0.40028 0.0
H1003 H 0.87955 0.0979 0.47349 0.0
H1004 H 0.88319 0.18787 0.45727 0.0
H1005 H 0.91389 0.22795 0.44424 0.0
H1006 H 0.00375 0.22183 0.49441 0.0
H1007 H 0.97388 0.18148 0.50755 0.0
C1008 C 0.80174 0.13635 0.5676 0.0
C1009 C 0.8257 0.14313 0.58572 0.0
C1010 C 0.81854 0.13196 0.54678 0.0
C1011 C 0.85964 0.13438 0.54372 0.0
C1012 C 0.88378 0.14 0.56213 0.0
C1013 C 0.86693 0.14415 0.58301 0.0
C1014 C 0.87671 0.13352 0.521 0.0
C1015 C 0.89621 0.15537 0.51302 0.0
C1016 C 0.87081 0.11247 0.5066 0.0
C1017 C 0.85219 0.08838 0.51442 0.0
C1018 C 0.86675 0.07587 0.53338 0.0
C1019 C 0.84891 0.05331 0.5408 0.0
C1020 C 0.81662 0.04295 0.52933 0.0
C1021 C 0.80217 0.05511 0.51037 0.0
C1022 C 0.81987 0.0777 0.50289 0.0
C1023 C 0.96756 0.14695 0.4259 0.0
C1024 C 0.94024 0.14418 0.40841 0.0
C1025 C 0.95585 0.14316 0.44786 0.0
C1026 C 0.91638 0.13689 0.45291 0.0
C1027 C 0.88948 0.13284 0.43542 0.0
C1028 C 0.90131 0.13641 0.41337 0.0
C1029 C 0.90274 0.13615 0.4764 0.0
C1030 C 0.88369 0.11412 0.48445 0.0
C1031 C 0.90884 0.1571 0.49092 0.0
C1032 C 0.92654 0.18152 0.48324 0.0
C1033 C 0.90965 0.19499 0.46543 0.0
C1034 C 0.92688 0.21776 0.45803 0.0
C1035 C 0.96082 0.22739 0.46845 0.0
C1036 C 0.9775 0.21432 0.48634 0.0
C1037 C 0.96042 0.19151 0.49377 0.0
H1038 H 0.97414 0.24502 0.46268 0.0
H1039 H 0.80285 0.02548 0.53509 0.0
H1040 H 0.8443 0.85011 0.07599 0.0
H1041 H 0.86322 0.86129 0.03797 0.0
H1042 H 0.78997 0.92849 0.0415 0.0
H1043 H 0.7704 0.9168 0.07936 0.0
H1044 H 0.77391 0.90188 1.00495 0.0
H1045 H 0.89215 0.93231 0.04017 0.0
H1046 H 0.95099 0.92978 0.06433 0.0
H1047 H 0.99702 0.86871 0.02463 0.0
H1048 H 0.93813 0.8706 1.00041 0.0
H1049 H 0.82725 0.95388 0.90158 0.0
H1050 H 0.82056 0.94777 0.94149 0.0
H1051 H 0.89137 0.87959 0.93762 0.0
H1052 H 0.89818 0.88559 0.8975 0.0
H1053 H 0.91003 0.90734 0.97448 0.0
H1054 H 0.79118 0.87544 0.94052 0.0
H1055 H 0.73216 0.87717 0.91642 0.0
H1056 H 0.68718 0.94022 0.95413 0.0
H1057 H 0.74625 0.9391 0.97828 0.0
C1058 C 0.83277 0.86742 0.06867 0.0
C1059 C 0.80578 0.88255 0.08046 0.0
C1060 C 0.84371 0.87391 0.04701 0.0
C1061 C 0.8281 0.8958 0.03677 0.0
C1062 C 0.8024 0.9115 0.04896 0.0
C1063 C 0.7915 0.90499 0.07064 0.0
C1064 C 0.83613 0.90123 1.01289 0.0
C1065 C 0.80372 0.90354 0.99841 0.0
C1066 C 0.87499 0.90257 1.00411 0.0
C1067 C 0.91052 0.90145 0.01859 0.0
C1068 C 0.91466 0.9182 0.03669 0.0
C1069 C 0.94805 0.91691 0.05038 0.0
C1070 C 0.97768 0.89906 0.04605 0.0
C1071 C 0.97402 0.88251 0.02798 0.0
C1072 C 0.94065 0.8837 1.01425 0.0
C1073 C 0.84135 0.93752 0.90916 0.0
C1074 C 0.86282 0.92004 0.89621 0.0
C1075 C 0.83758 0.93409 0.93205 0.0
C1076 C 0.85487 0.91297 0.9426 0.0
C1077 C 0.87766 0.89601 0.9299 0.0
C1078 C 0.88157 0.89948 0.90694 0.0
C1079 C 0.84779 0.90818 0.96666 0.0
C1080 C 0.88028 0.90585 0.98111 0.0
C1081 C 0.80898 0.90671 0.97548 0.0
C1082 C 0.77332 0.90734 0.96107 0.0
C1083 C 0.76884 0.8898 0.94357 0.0
C1084 C 0.73536 0.89065 0.92992 0.0
C1085 C 0.70599 0.90884 0.93371 0.0
C1086 C 0.70999 0.92617 0.9512 0.0
C1087 C 0.74345 0.92542 0.96488 0.0
H1088 H 0.68008 0.90947 0.92312 0.0
H1089 H 0.00352 0.89809 0.05667 0.0
H1090 H 0.76251 0.62717 0.57029 0.0
H1091 H 0.73812 0.61423 0.53357 0.0
H1092 H 0.61777 0.62197 0.5564 0.0
H1093 H 0.64234 0.63509 0.59302 0.0
H1094 H 0.62587 0.5805 0.52914 0.0
H1095 H 0.66132 0.66955 0.52829 0.0
H1096 H 0.70618 0.70628 0.53397 0.0
H1097 H 0.78735 0.67538 0.48642 0.0
H1098 H 0.74326 0.6382 0.48074 0.0
H1099 H 0.52395 0.59756 0.42783 0.0
H1100 H 0.55304 0.6033 0.46454 0.0
H1101 H 0.67006 0.59692 0.43666 0.0
H1102 H 0.64104 0.59103 0.39971 0.0
H1103 H 0.66666 0.63549 0.46615 0.0
H1104 H 0.62825 0.5474 0.46534 0.0
H1105 H 0.58244 0.51113 0.45976 0.0
H1106 H 0.5059 0.54043 0.51037 0.0
H1107 H 0.55093 0.57712 0.51601 0.0
C1108 C 0.7309 0.62587 0.56742 0.0
C1109 C 0.70424 0.63231 0.58431 0.0
C1110 C 0.71697 0.61848 0.54651 0.0
C1111 C 0.67607 0.61751 0.5421 0.0
C1112 C 0.64942 0.62259 0.55938 0.0
C1113 C 0.6634 0.63 0.58029 0.0
C1114 C 0.66112 0.61287 0.5192 0.0
C1115 C 0.63452 0.59263 0.5154 0.0
C1116 C 0.67295 0.62841 0.50116 0.0
C1117 C 0.69919 0.65096 0.50426 0.0
C1118 C 0.68886 0.6705 0.51915 0.0
C1119 C 0.71414 0.6914 0.52237 0.0
C1120 C 0.74964 0.69313 0.51061 0.0
C1121 C 0.75987 0.67399 0.49555 0.0
C1122 C 0.73475 0.653 0.49232 0.0
C1123 C 0.55589 0.5971 0.42948 0.0
C1124 C 0.58012 0.59354 0.41079 0.0
C1125 C 0.5725 0.60042 0.45053 0.0
C1126 C 0.61376 0.6001 0.45349 0.0
C1127 C 0.63814 0.59713 0.43482 0.0
C1128 C 0.62151 0.59385 0.41369 0.0
C1129 C 0.63125 0.60315 0.47604 0.0
C1130 C 0.65826 0.62317 0.47982 0.0
C1131 C 0.61968 0.58743 0.49405 0.0
C1132 C 0.59283 0.56515 0.49096 0.0
C1133 C 0.60153 0.54621 0.47518 0.0
C1134 C 0.5757 0.52556 0.47201 0.0
C1135 C 0.54123 0.52351 0.48466 0.0
C1136 C 0.53259 0.54206 0.50057 0.0
C1137 C 0.55828 0.56278 0.50377 0.0
H1138 H 0.52125 0.50753 0.48216 0.0
H1139 H 0.76918 0.70933 0.51312 0.0
H1140 H 0.26342 0.62598 0.95898 0.0
H1141 H 0.2913 0.61912 0.99621 0.0
H1142 H 0.40425 0.64779 0.97372 0.0
H1143 H 0.37586 0.65507 0.93668 0.0
H1144 H 0.40919 0.60486 1.00412 0.0
H1145 H 0.34821 0.68795 0.99728 0.0
H1146 H 0.29323 0.71698 0.98814 0.0
H1147 H 0.2197 0.67985 0.03644 0.0
H1148 H 0.27416 0.65037 0.04568 0.0
H1149 H 0.49939 0.64883 0.10323 0.0
H1150 H 0.47173 0.64298 0.0662 0.0
H1151 H 0.35637 0.62907 0.09444 0.0
H1152 H 0.38356 0.63604 0.13158 0.0
H1153 H 0.35013 0.66108 0.06132 0.0
H1154 H 0.41246 0.58042 0.07101 0.0
H1155 H 0.46639 0.55051 0.0799 0.0
H1156 H 0.53606 0.58117 0.02668 0.0
H1157 H 0.48276 0.61154 0.01765 0.0
C1158 C 0.29443 0.63012 0.96199 0.0
C1159 C 0.31776 0.64082 0.94517 0.0
C1160 C 0.31028 0.62632 0.98316 0.0
C1161 C 0.34979 0.63309 0.98775 0.0
C1162 C 0.37379 0.6423 0.9705 0.0
C1163 C 0.35774 0.64635 0.94939 0.0
C1164 C 0.36479 0.63311 1.0109 0.0
C1165 C 0.39657 0.61725 0.01664 0.0
C1166 C 0.34765 0.64887 0.0273 0.0
C1167 C 0.31509 0.6668 0.022 0.0
C1168 C 0.32022 0.68587 1.00584 0.0
C1169 C 0.28919 0.70242 1.00067 0.0
C1170 C 0.25295 0.7002 1.01165 0.0
C1171 C 0.24776 0.6815 0.02792 0.0
C1172 C 0.27871 0.66489 0.03315 0.0
C1173 C 0.46808 0.64462 0.10162 0.0
C1174 C 0.4437 0.64305 0.12046 0.0
C1175 C 0.45238 0.64093 0.08039 0.0
C1176 C 0.41199 0.63528 0.07746 0.0
C1177 C 0.38765 0.63332 0.09624 0.0
C1178 C 0.40333 0.6371 0.11751 0.0
C1179 C 0.39486 0.63282 0.05476 0.0
C1180 C 0.36266 0.64839 0.049 0.0
C1181 C 0.41155 0.61666 0.03842 0.0
C1182 C 0.44371 0.59842 0.04378 0.0
C1183 C 0.4394 0.58094 0.06131 0.0
C1184 C 0.46984 0.56387 0.06635 0.0
C1185 C 0.50467 0.56398 0.05389 0.0
C1186 C 0.50908 0.58113 0.03633 0.0
C1187 C 0.47874 0.59825 0.03122 0.0
H1188 H 0.52819 0.55075 0.05782 0.0
H1189 H 0.22894 0.71301 1.00759 0.0
H1190 H 0.25255 0.88335 0.45912 0.0
H1191 H 0.22358 0.88889 0.49607 0.0
H1192 H 0.10977 0.86493 0.47058 0.0
H1193 H 0.13904 0.85969 0.43354 0.0
H1194 H 0.10201 0.90226 0.50222 0.0
H1195 H 0.16911 0.82171 0.4952 0.0
H1196 H 0.22556 0.79369 0.4866 0.0
H1197 H 0.29606 0.83176 0.53599 0.0
H1198 H 0.24003 0.8601 0.54482 0.0
H1199 H 0.01796 0.85394 0.60242 0.0
H1200 H 0.04367 0.86019 0.56494 0.0
H1201 H 0.15678 0.88298 0.59204 0.0
H1202 H 0.13152 0.87623 0.62956 0.0
H1203 H 0.16524 0.84816 0.55968 0.0
H1204 H 0.09508 0.92665 0.56873 0.0
H1205 H 0.03783 0.95401 0.57717 0.0
H1206 H 0.97205 0.91952 0.52393 0.0
H1207 H 0.02873 0.89167 0.51537 0.0
C1208 C 0.22122 0.87977 0.46146 0.0
C1209 C 0.19796 0.87083 0.44379 0.0
C1210 C 0.2047 0.88285 0.48248 0.0
C1211 C 0.16468 0.87676 0.48621 0.0
C1212 C 0.14073 0.86962 0.46813 0.0
C1213 C 0.15732 0.86667 0.44703 0.0
C1214 C 0.14888 0.87569 0.50918 0.0
C1215 C 0.11556 0.89027 0.51475 0.0
C1216 C 0.16692 0.86033 0.52564 0.0
C1217 C 0.20052 0.84317 0.52052 0.0
C1218 C 0.19672 0.82419 0.50414 0.0
C1219 C 0.22862 0.80823 0.49924 0.0
C1220 C 0.26443 0.81102 0.51067 0.0
C1221 C 0.26833 0.82967 0.52712 0.0
C1222 C 0.23649 0.84564 0.53211 0.0
C1223 C 0.04833 0.86027 0.60041 0.0
C1224 C 0.07271 0.86452 0.61901 0.0
C1225 C 0.06286 0.86409 0.57897 0.0
C1226 C 0.10208 0.87228 0.57565 0.0
C1227 C 0.12638 0.87675 0.59418 0.0
C1228 C 0.11182 0.87304 0.61564 0.0
C1229 C 0.11839 0.87484 0.55286 0.0
C1230 C 0.15177 0.86036 0.54726 0.0
C1231 C 0.10022 0.89019 0.53642 0.0
C1232 C 0.06604 0.90688 0.54155 0.0
C1233 C 0.06829 0.92473 0.55895 0.0
C1234 C 0.03596 0.94037 0.56373 0.0
C1235 C 0.00129 0.93846 0.55113 0.0
C1236 C 0.99891 0.92095 0.53369 0.0
C1237 C 0.03114 0.90525 0.52886 0.0
H1238 H 0.9763 0.95059 0.55485 0.0
H1239 H 0.28911 0.79869 0.50682 0.0
H1240 H 0.18461 0.34828 0.39321 0.0
H1241 H 0.1474 0.31371 0.37473 0.0
H1242 H 0.25108 0.26594 0.37736 0.0
H1243 H 0.28787 0.30044 0.39616 0.0
H1244 H 0.21575 0.27059 0.33473 0.0
H1245 H 0.17824 0.25175 0.4096 0.0
H1246 H 0.15087 0.26085 0.44658 0.0
H1247 H 0.03827 0.2788 0.4174 0.0
H1248 H 0.06517 0.27028 0.38017 0.0
H1249 H 0.13016 0.15455 0.29598 0.0
H1250 H 0.16531 0.18827 0.3161 0.0
H1251 H 0.05595 0.22965 0.32358 0.0
H1252 H 0.02087 0.19632 0.30283 0.0
H1253 H 0.09378 0.22805 0.3621 0.0
H1254 H 0.13004 0.25684 0.2895 0.0
H1255 H 0.15621 0.25678 0.25139 0.0
H1256 H 0.26569 0.225 0.27472 0.0
H1257 H 0.24046 0.22557 0.3131 0.0
C1258 C 0.19907 0.33024 0.38999 0.0
C1259 C 0.23886 0.3268 0.39601 0.0
C1260 C 0.1779 0.31053 0.37957 0.0
C1261 C 0.19642 0.2872 0.3748 0.0
C1262 C 0.23619 0.28374 0.38099 0.0
C1263 C 0.25713 0.30332 0.3917 0.0
C1264 C 0.17522 0.26709 0.362 0.0
C1265 C 0.1895 0.26091 0.3409 0.0
C1266 C 0.14002 0.25531 0.36968 0.0
C1267 C 0.12389 0.26066 0.39205 0.0
C1268 C 0.14778 0.25794 0.41102 0.0
C1269 C 0.13232 0.26293 0.43204 0.0
C1270 C 0.09289 0.27047 0.43433 0.0
C1271 C 0.06883 0.27301 0.4156 0.0
C1272 C 0.08417 0.26809 0.39453 0.0
C1273 C 0.11362 0.17094 0.3017 0.0
C1274 C 0.07246 0.17243 0.29821 0.0
C1275 C 0.13381 0.19028 0.31319 0.0
C1276 C 0.11336 0.21159 0.32142 0.0
C1277 C 0.07238 0.21332 0.31761 0.0
C1278 C 0.05224 0.19408 0.30595 0.0
C1279 C 0.13443 0.23145 0.33476 0.0
C1280 C 0.12016 0.23759 0.35598 0.0
C1281 C 0.16925 0.24366 0.32709 0.0
C1282 C 0.18322 0.24094 0.30403 0.0
C1283 C 0.15951 0.24956 0.28644 0.0
C1284 C 0.17435 0.24974 0.26486 0.0
C1285 C 0.2126 0.24089 0.26064 0.0
C1286 C 0.23611 0.23188 0.27802 0.0
C1287 C 0.22164 0.23208 0.2997 0.0
H1288 H 0.22397 0.24094 0.24389 0.0
H1289 H 0.08096 0.27429 0.45062 0.0
H1290 H 0.22111 0.22442 0.89918 0.0
H1291 H 0.26278 0.25712 0.88133 0.0
H1292 H 0.35233 0.20035 0.86889 0.0
H1293 H 0.31057 0.16787 0.88693 0.0
H1294 H 0.38493 0.24534 0.8833 0.0
H1295 H 0.29125 0.21796 0.82855 0.0
H1296 H 0.22499 0.2088 0.81316 0.0
H1297 H 0.19357 0.2878 0.81986 0.0
H1298 H 0.25944 0.29737 0.8357 0.0
H1299 H 0.49217 0.31324 0.79969 0.0
H1300 H 0.45341 0.28143 0.82022 0.0
H1301 H 0.36417 0.33805 0.83361 0.0
H1302 H 0.40306 0.36995 0.81343 0.0
H1303 H 0.33198 0.29299 0.81872 0.0
H1304 H 0.42616 0.32011 0.87376 0.0
H1305 H 0.49298 0.32898 0.88855 0.0
H1306 H 0.52404 0.25009 0.88042 0.0
H1307 H 0.45756 0.24082 0.86525 0.0
C1308 C 0.24995 0.2192 0.89286 0.0
C1309 C 0.26303 0.19389 0.89446 0.0
C1310 C 0.27358 0.23772 0.88257 0.0
C1311 C 0.31058 0.23113 0.87361 0.0
C1312 C 0.32397 0.20588 0.87569 0.0
C1313 C 0.30023 0.18738 0.88591 0.0
C1314 C 0.33485 0.25039 0.86158 0.0
C1315 C 0.3735 0.25555 0.86903 0.0
C1316 C 0.31975 0.26401 0.84315 0.0
C1317 C 0.28013 0.25833 0.83358 0.0
C1318 C 0.27009 0.23335 0.82695 0.0
C1319 C 0.23262 0.22808 0.81811 0.0
C1320 C 0.20504 0.24769 0.8156 0.0
C1321 C 0.21493 0.27262 0.82187 0.0
C1322 C 0.25233 0.27798 0.83078 0.0
C1323 C 0.46454 0.31895 0.80727 0.0
C1324 C 0.45046 0.34401 0.80485 0.0
C1325 C 0.44238 0.30076 0.81893 0.0
C1326 C 0.40593 0.30738 0.82849 0.0
C1327 C 0.39212 0.33249 0.82631 0.0
C1328 C 0.41434 0.35068 0.81476 0.0
C1329 C 0.38189 0.28807 0.84055 0.0
C1330 C 0.34332 0.28283 0.83304 0.0
C1331 C 0.39712 0.27435 0.85887 0.0
C1332 C 0.437 0.27982 0.86817 0.0
C1333 C 0.44734 0.30469 0.87496 0.0
C1334 C 0.48514 0.30979 0.88344 0.0
C1335 C 0.51277 0.29013 0.88537 0.0
C1336 C 0.50262 0.26531 0.87889 0.0
C1337 C 0.46487 0.26012 0.87036 0.0
H1338 H 0.54202 0.29411 0.89194 0.0
H1339 H 0.17606 0.24358 0.80873 0.0
H1340 H 0.80017 0.21346 0.65938 0.0
H1341 H 0.75885 0.24602 0.67719 0.0
H1342 H 0.65951 0.22251 0.63679 0.0
H1343 H 0.70092 0.18971 0.61926 0.0
H1344 H 0.7169 0.28707 0.66233 0.0
H1345 H 0.57649 0.22422 0.66974 0.0
H1346 H 0.55833 0.17856 0.6718 0.0
H1347 H 0.67224 0.16133 0.69971 0.0
H1348 H 0.69081 0.20689 0.69814 0.0
H1349 H 0.56037 0.36521 0.70224 0.0
H1350 H 0.59934 0.33528 0.68014 0.0
H1351 H 0.60811 0.2849 0.73653 0.0
H1352 H 0.56668 0.31376 0.75801 0.0
H1353 H 0.5967 0.25771 0.7022 0.0
H1354 H 0.68529 0.32833 0.71875 0.0
H1355 H 0.70617 0.37362 0.71866 0.0
H1356 H 0.70178 0.37474 0.64764 0.0
H1357 H 0.68048 0.3296 0.64721 0.0
C1358 C 0.76955 0.21546 0.65431 0.0
C1359 C 0.75345 0.19915 0.63815 0.0
C1360 C 0.74608 0.23408 0.66434 0.0
C1361 C 0.70601 0.23655 0.65845 0.0
C1362 C 0.69026 0.22078 0.64172 0.0
C1363 C 0.71382 0.2022 0.63166 0.0
C1364 C 0.68034 0.2547 0.67066 0.0
C1365 C 0.69053 0.28071 0.671 0.0
C1366 C 0.64626 0.24633 0.68222 0.0
C1367 C 0.63516 0.21892 0.68357 0.0
C1368 C 0.59758 0.21069 0.67638 0.0
C1369 C 0.58723 0.18482 0.67747 0.0
C1370 C 0.61417 0.16704 0.6858 0.0
C1371 C 0.65146 0.1751 0.69317 0.0
C1372 C 0.66192 0.20094 0.69218 0.0
C1373 C 0.5705 0.34768 0.70986 0.0
C1374 C 0.56149 0.34219 0.73208 0.0
C1375 C 0.59307 0.33068 0.69727 0.0
C1376 C 0.60765 0.30808 0.70679 0.0
C1377 C 0.59765 0.3023 0.72881 0.0
C1378 C 0.57447 0.31903 0.74122 0.0
C1379 C 0.63313 0.29028 0.69396 0.0
C1380 C 0.6229 0.26423 0.69345 0.0
C1381 C 0.6676 0.29859 0.68263 0.0
C1382 C 0.68097 0.32564 0.68295 0.0
C1383 C 0.68859 0.33826 0.70311 0.0
C1384 C 0.70049 0.36389 0.70317 0.0
C1385 C 0.70516 0.37703 0.6832 0.0
C1386 C 0.6981 0.36455 0.6631 0.0
C1387 C 0.68616 0.33894 0.66293 0.0
H1388 H 0.71433 0.39687 0.6833 0.0
H1389 H 0.60611 0.14703 0.6866 0.0
H1390 H 0.81647 0.3321 0.13244 0.0
H1391 H 0.85894 0.30102 0.15144 0.0
H1392 H 0.75511 0.26516 0.17955 0.0
H1393 H 0.71317 0.29708 0.16125 0.0
H1394 H 0.80777 0.26748 0.20961 0.0
H1395 H 0.80885 0.23918 0.13449 0.0
H1396 H 0.81737 0.24297 0.09406 0.0
H1397 H 0.94019 0.26196 0.10327 0.0
H1398 H 0.93226 0.25867 0.1438 0.0
H1399 H 0.94508 0.14674 0.20747 0.0
H1400 H 0.90289 0.17752 0.18831 0.0
H1401 H 0.92635 0.23299 0.23978 0.0
H1402 H 0.96643 0.20151 0.25964 0.0
H1403 H 0.91189 0.21964 0.16956 0.0
H1404 H 0.85204 0.27427 0.24588 0.0
H1405 H 0.83741 0.26649 0.28534 0.0
H1406 H 0.82025 0.18668 0.27195 0.0
H1407 H 0.83437 0.19399 0.23233 0.0
C1408 C 0.80304 0.31744 0.14264 0.0
C1409 C 0.76186 0.31666 0.14541 0.0
C1410 C 0.82713 0.29965 0.15341 0.0
C1411 C 0.81027 0.28041 0.16672 0.0
C1412 C 0.76892 0.27976 0.16943 0.0
C1413 C 0.74496 0.29782 0.15895 0.0
C1414 C 0.83565 0.26116 0.17802 0.0
C1415 C 0.83048 0.25699 0.20082 0.0
C1416 C 0.86489 0.24706 0.16657 0.0
C1417 C 0.86986 0.24891 0.14219 0.0
C1418 C 0.83761 0.24434 0.1279 0.0
C1419 C 0.84234 0.24638 0.10497 0.0
C1420 C 0.87928 0.25276 0.0961 0.0
C1421 C 0.91159 0.25705 0.11016 0.0
C1422 C 0.907 0.25509 0.13312 0.0
C1423 C 0.94121 0.16555 0.21462 0.0
C1424 C 0.95873 0.1718 0.23504 0.0
C1425 C 0.91712 0.18316 0.20367 0.0
C1426 C 0.91071 0.20755 0.21271 0.0
C1427 C 0.92969 0.2141 0.23273 0.0
C1428 C 0.95284 0.19621 0.24401 0.0
C1429 C 0.88408 0.22595 0.2012 0.0
C1430 C 0.88911 0.23005 0.17836 0.0
C1431 C 0.85373 0.2393 0.21247 0.0
C1432 C 0.84463 0.23467 0.23618 0.0
C1433 C 0.84499 0.25507 0.25134 0.0
C1434 C 0.83684 0.25073 0.27372 0.0
C1435 C 0.82807 0.22608 0.28114 0.0
C1436 C 0.82725 0.20572 0.26616 0.0
C1437 C 0.83535 0.20995 0.24375 0.0
H1438 H 0.82181 0.22275 0.29848 0.0
H1439 H 0.88289 0.25433 0.07834 0.0
H1440 H 0.71696 0.7102 0.65172 0.0
H1441 H 0.75554 0.74377 0.6707 0.0
H1442 H 0.86382 0.70882 0.6484 0.0
H1443 H 0.82495 0.67563 0.62901 0.0
H1444 H 0.8588 0.72097 0.69617 0.0
H1445 H 0.84076 0.75936 0.62408 0.0
H1446 H 0.80102 0.77396 0.59222 0.0
H1447 H 0.73671 0.82487 0.63461 0.0
H1448 H 0.77565 0.81025 0.66681 0.0
H1449 H 0.99391 0.81641 0.73082 0.0
H1450 H 0.95656 0.78433 0.71004 0.0
H1451 H 0.8521 0.83138 0.71374 0.0
H1452 H 0.89051 0.86452 0.73264 0.0
H1453 H 0.85458 0.81251 0.67512 0.0
H1454 H 0.86765 0.77528 0.74705 0.0
H1455 H 0.9025 0.76044 0.78057 0.0
H1456 H 0.96989 0.70778 0.74151 0.0
H1457 H 0.93558 0.72234 0.70768 0.0
C1458 C 0.74898 0.71002 0.65074 0.0
C1459 C 0.76824 0.69067 0.63892 0.0
C1460 C 0.77094 0.72905 0.66155 0.0
C1461 C 0.81252 0.72874 0.66094 0.0
C1462 C 0.83178 0.70937 0.64906 0.0
C1463 C 0.80974 0.69059 0.63793 0.0
C1464 C 0.83582 0.74843 0.67303 0.0
C1465 C 0.8584 0.74096 0.69143 0.0
C1466 C 0.83405 0.77457 0.66727 0.0
C1467 C 0.81085 0.78352 0.64789 0.0
C1468 C 0.8179 0.7735 0.62665 0.0
C1469 C 0.79557 0.78181 0.60852 0.0
C1470 C 0.76629 0.80028 0.6114 0.0
C1471 C 0.75936 0.81053 0.63241 0.0
C1472 C 0.78158 0.80226 0.6506 0.0
C1473 C 0.96306 0.82001 0.72704 0.0
C1474 C 0.94509 0.84297 0.73356 0.0
C1475 C 0.94152 0.80147 0.7154 0.0
C1476 C 0.90112 0.80505 0.71065 0.0
C1477 C 0.88312 0.82799 0.71723 0.0
C1478 C 0.90496 0.84681 0.72837 0.0
C1479 C 0.87788 0.78518 0.69844 0.0
C1480 C 0.85516 0.79257 0.67999 0.0
C1481 C 0.87884 0.759 0.70446 0.0
C1482 C 0.89928 0.75006 0.7248 0.0
C1483 C 0.89006 0.76063 0.74558 0.0
C1484 C 0.9097 0.75228 0.76464 0.0
C1485 C 0.93852 0.73329 0.76316 0.0
C1486 C 0.94761 0.72251 0.74262 0.0
C1487 C 0.92801 0.73076 0.7235 0.0
H1488 H 0.95371 0.72688 0.77795 0.0
H1489 H 0.74903 0.80669 0.59734 0.0
H1490 H 0.78215 0.80349 0.13477 0.0
H1491 H 0.74727 0.7695 0.15499 0.0
H1492 H 0.64386 0.81749 0.15951 0.0
H1493 H 0.6798 0.85174 0.1402 0.0
H1494 H 0.65341 0.79631 0.19685 0.0
H1495 H 0.65219 0.76363 0.12299 0.0
H1496 H 0.68023 0.75047 0.08709 0.0
H1497 H 0.75098 0.69384 0.11978 0.0
H1498 H 0.72379 0.70691 0.15593 0.0
H1499 H 0.52009 0.69801 0.23056 0.0
H1500 H 0.55499 0.73161 0.21031 0.0
H1501 H 0.66209 0.68701 0.21204 0.0
H1502 H 0.62681 0.65283 0.23152 0.0
H1503 H 0.65 0.70622 0.17149 0.0
H1504 H 0.65029 0.74203 0.2461 0.0
H1505 H 0.61972 0.75678 0.28097 0.0
H1506 H 0.5443 0.80741 0.24446 0.0
H1507 H 0.57482 0.79335 0.20943 0.0
C1508 C 0.75186 0.8065 0.13999 0.0
C1509 C 0.73338 0.82997 0.13593 0.0
C1510 C 0.73182 0.78711 0.15143 0.0
C1511 C 0.69252 0.79064 0.15856 0.0
C1512 C 0.67406 0.81417 0.15426 0.0
C1513 C 0.69439 0.83368 0.14316 0.0
C1514 C 0.67109 0.77021 0.1711 0.0
C1515 C 0.65229 0.7767 0.19107 0.0
C1516 C 0.66993 0.74442 0.16392 0.0
C1517 C 0.68623 0.73643 0.14219 0.0
C1518 C 0.67394 0.74849 0.12254 0.0
C1519 C 0.68966 0.74103 0.10214 0.0
C1520 C 0.71744 0.72137 0.10116 0.0
C1521 C 0.7295 0.70909 0.12057 0.0
C1522 C 0.71392 0.7165 0.14102 0.0
C1523 C 0.55104 0.69529 0.22656 0.0
C1524 C 0.57057 0.67262 0.23251 0.0
C1525 C 0.57111 0.71467 0.21516 0.0
C1526 C 0.61138 0.71205 0.20981 0.0
C1527 C 0.63105 0.68953 0.21596 0.0
C1528 C 0.6109 0.67005 0.22722 0.0
C1529 C 0.6326 0.73238 0.19718 0.0
C1530 C 0.65128 0.72586 0.1772 0.0
C1531 C 0.63308 0.75822 0.20413 0.0
C1532 C 0.6146 0.76649 0.22517 0.0
C1533 C 0.62704 0.7562 0.24552 0.0
C1534 C 0.60979 0.76446 0.2653 0.0
C1535 C 0.57988 0.78281 0.26491 0.0
C1536 C 0.5674 0.79315 0.24474 0.0
C1537 C 0.5848 0.78516 0.22494 0.0
H1538 H 0.5665 0.7891 0.28023 0.0
H1539 H 0.72957 0.71562 0.08535 0.0
H1540 H 0.23906 0.78861 0.39984 0.0
H1541 H 0.2803 0.75607 0.38168 0.0
H1542 H 0.36002 0.81517 0.35915 0.0
H1543 H 0.31929 0.84749 0.37786 0.0
H1544 H 0.33224 0.77994 0.32541 0.0
H1545 H 0.39066 0.7802 0.39854 0.0
H1546 H 0.38861 0.77698 0.43928 0.0
H1547 H 0.34191 0.70076 0.4343 0.0
H1548 H 0.34306 0.70369 0.3935 0.0
H1549 H 0.48029 0.70251 0.27879 0.0
H1550 H 0.44392 0.73471 0.29976 0.0
H1551 H 0.39078 0.67509 0.33947 0.0
H1552 H 0.4302 0.64319 0.31972 0.0
H1553 H 0.40403 0.71115 0.36496 0.0
H1554 H 0.3418 0.70962 0.29317 0.0
H1555 H 0.33855 0.71203 0.25232 0.0
H1556 H 0.38536 0.78835 0.25425 0.0
H1557 H 0.38919 0.78637 0.29504 0.0
C1558 C 0.26572 0.79442 0.39123 0.0
C1559 C 0.27624 0.82034 0.39008 0.0
C1560 C 0.28912 0.77597 0.38087 0.0
C1561 C 0.32313 0.78328 0.36907 0.0
C1562 C 0.33382 0.80919 0.36812 0.0
C1563 C 0.31075 0.82756 0.37877 0.0
C1564 C 0.34699 0.76399 0.35718 0.0
C1565 C 0.34836 0.76502 0.334 0.0
C1566 C 0.36684 0.74414 0.36844 0.0
C1567 C 0.36658 0.74226 0.39296 0.0
C1568 C 0.37963 0.76284 0.40613 0.0
C1569 C 0.37869 0.76105 0.42923 0.0
C1570 C 0.36504 0.73871 0.43937 0.0
C1571 C 0.35242 0.71807 0.42642 0.0
C1572 C 0.35324 0.71978 0.40331 0.0
C1573 C 0.46095 0.69644 0.29211 0.0
C1574 C 0.45789 0.67054 0.29776 0.0
C1575 C 0.43979 0.71478 0.30395 0.0
C1576 C 0.41352 0.70743 0.32089 0.0
C1577 C 0.4107 0.68139 0.32651 0.0
C1578 C 0.4331 0.66315 0.31523 0.0
C1579 C 0.38939 0.72682 0.33289 0.0
C1580 C 0.38788 0.72589 0.35618 0.0
C1581 C 0.36864 0.7465 0.32167 0.0
C1582 C 0.3661 0.74775 0.29714 0.0
C1583 C 0.3516 0.72685 0.28486 0.0
C1584 C 0.34964 0.72814 0.26173 0.0
C1585 C 0.36188 0.75027 0.25072 0.0
C1586 C 0.37594 0.77121 0.2628 0.0
C1587 C 0.37795 0.77003 0.28592 0.0
H1588 H 0.36036 0.75121 0.23283 0.0
H1589 H 0.36433 0.73736 0.45726 0.0
H1590 H 0.19996 0.66516 0.87571 0.0
H1591 H 0.16162 0.69782 0.85603 0.0
H1592 H 0.23499 0.75669 0.88502 0.0
H1593 H 0.27444 0.72387 0.90399 0.0
H1594 H 0.14726 0.76541 0.88484 0.0
H1595 H 0.25664 0.74278 0.83692 0.0
H1596 H 0.29817 0.71175 0.817 0.0
H1597 H 0.19678 0.68602 0.77997 0.0
H1598 H 0.15447 0.71658 0.8 0.0
H1599 H 0.09001 0.86893 0.81833 0.0
H1600 H 0.12869 0.83711 0.83846 0.0
H1601 H 0.08495 0.77826 0.79445 0.0
H1602 H 0.04817 0.81059 0.77342 0.0
H1603 H 0.15739 0.76876 0.80285 0.0
H1604 H 0.04714 0.78903 0.84897 0.0
H1605 H 0.00156 0.81731 0.86924 0.0
H1606 H 0.09783 0.84408 0.90981 0.0
H1607 H 0.1441 0.81622 0.88958 0.0
C1608 C 0.20783 0.68508 0.8778 0.0
C1609 C 0.2402 0.69208 0.89118 0.0
C1610 C 0.18588 0.70367 0.8667 0.0
C1611 C 0.19565 0.7296 0.86903 0.0
C1612 C 0.22697 0.73675 0.8831 0.0
C1613 C 0.24934 0.71809 0.89394 0.0
C1614 C 0.1743 0.74909 0.85592 0.0
C1615 C 0.14977 0.76644 0.86694 0.0
C1616 C 0.17671 0.74974 0.83255 0.0
C1617 C 0.20232 0.7318 0.82012 0.0
C1618 C 0.24313 0.73037 0.82466 0.0
C1619 C 0.26683 0.71288 0.81334 0.0
C1620 C 0.25011 0.69688 0.79727 0.0
C1621 C 0.20968 0.69841 0.79244 0.0
C1622 C 0.18583 0.71582 0.80377 0.0
C1623 C 0.08883 0.84918 0.81298 0.0
C1624 C 0.066 0.84202 0.79453 0.0
C1625 C 0.11073 0.83097 0.82454 0.0
C1626 C 0.10897 0.80508 0.81841 0.0
C1627 C 0.08671 0.79805 0.79961 0.0
C1628 C 0.06565 0.81644 0.78764 0.0
C1629 C 0.13012 0.78541 0.8317 0.0
C1630 C 0.15466 0.7679 0.82074 0.0
C1631 C 0.12704 0.78427 0.85514 0.0
C1632 C 0.09914 0.80067 0.86764 0.0
C1633 C 0.05862 0.80103 0.86215 0.0
C1634 C 0.03266 0.81699 0.87362 0.0
C1635 C 0.04681 0.83252 0.89076 0.0
C1636 C 0.08692 0.83205 0.89652 0.0
C1637 C 0.11302 0.81616 0.88507 0.0
H1638 H 0.02668 0.84488 0.89961 0.0
H1639 H 0.26849 0.68333 0.78854 0.0
loop_
_geom_bond_atom_site_label_1
_geom_bond_atom_site_label_2
_geom_bond_distance
_geom_bond_site_symmetry_2
_ccdc_geom_bond_type
C0 N1 1.317 . S
C0 N2 1.348 . S
C0 C3 1.485 . S
N1 C0 1.317 . S
N1 N5 1.370 . S
N2 C0 1.348 . S
N2 C4 1.346 . S
C3 C0 1.485 . S
C3 H7 0.960 . S
C3 H8 0.961 . S
C3 H9 0.960 . S
C4 N2 1.346 . S
C4 N5 1.307 . S
C4 C6 1.486 . S
N5 N1 1.370 . S
N5 C4 1.307 . S
C6 C4 1.486 . S
C6 H10 0.960 . S
C6 H11 0.960 . S
C6 H12 0.959 . S
H7 C3 0.960 . S
H8 C3 0.961 . S
H9 C3 0.960 . S
H10 C6 0.960 . S
H11 C6 0.960 . S
H12 C6 0.959 . S
C13 N14 1.317 . S
C13 N15 1.348 . S
C13 C16 1.485 . S
N14 C13 1.317 . S
N14 N18 1.370 . S
N15 C13 1.348 . S
N15 C17 1.346 . S
C16 C13 1.485 . S
C16 H20 0.960 . S
C16 H21 0.961 . S
C16 H22 0.960 . S
C17 N15 1.346 . S
C17 N18 1.307 . S
C17 C19 1.486 . S
N18 N14 1.370 . S
N18 C17 1.307 . S
C19 C17 1.486 . S
C19 H23 0.960 . S
C19 H24 0.960 . S
C19 H25 0.959 . S
H20 C16 0.960 . S
H21 C16 0.961 . S
H22 C16 0.960 . S
H23 C19 0.960 . S
H24 C19 0.960 . S
H25 C19 0.959 . S
C26 N27 1.317 . S
C26 N28 1.348 . S
C26 C29 1.485 . S
N27 C26 1.317 . S
N27 N31 1.370 . S
N28 C26 1.348 . S
N28 C30 1.346 . S
C29 C26 1.485 . S
C29 H33 0.960 . S
C29 H34 0.961 . S
C29 H35 0.960 . S
C30 N28 1.346 . S
C30 N31 1.307 . S
C30 C32 1.486 . S
N31 N27 1.370 . S
N31 C30 1.307 . S
C32 C30 1.486 . S
C32 H36 0.960 . S
C32 H37 0.960 . S
C32 H38 0.959 . S
H33 C29 0.960 . S
H34 C29 0.961 . S
H35 C29 0.960 . S
H36 C32 0.960 . S
H37 C32 0.960 . S
H38 C32 0.959 . S
C39 N40 1.317 . S
C39 N41 1.348 . S
C39 C42 1.485 . S
N40 C39 1.317 . S
N40 N44 1.370 . S
N41 C39 1.348 . S
N41 C43 1.346 . S
C42 C39 1.485 . S
C42 H46 0.960 . S
C42 H47 0.961 . S
C42 H48 0.960 . S
C43 N41 1.346 . S
C43 N44 1.307 . S
C43 C45 1.486 . S
N44 N40 1.370 . S
N44 C43 1.307 . S
C45 C43 1.486 . S
C45 H49 0.960 . S
C45 H50 0.960 . S
C45 H51 0.959 . S
H46 C42 0.960 . S
H47 C42 0.961 . S
H48 C42 0.960 . S
H49 C45 0.960 . S
H50 C45 0.960 . S
H51 C45 0.959 . S
C52 N53 1.317 . S
C52 N54 1.348 . S
C52 C55 1.485 . S
N53 C52 1.317 . S
N53 N57 1.370 . S
N54 C52 1.348 . S
N54 C56 1.346 . S
C55 C52 1.485 . S
C55 H59 0.960 . S
C55 H60 0.961 . S
C55 H61 0.960 . S
C56 N54 1.346 . S
C56 N57 1.307 . S
C56 C58 1.486 . S
N57 N53 1.370 . S
N57 C56 1.307 . S
C58 C56 1.486 . S
C58 H62 0.960 . S
C58 H63 0.960 . S
C58 H64 0.959 . S
H59 C55 0.960 . S
H60 C55 0.961 . S
H61 C55 0.960 . S
H62 C58 0.960 . S
H63 C58 0.960 . S
H64 C58 0.959 . S
C65 N66 1.317 . S
C65 N67 1.348 . S
C65 C68 1.485 . S
N66 C65 1.317 . S
N66 N70 1.370 . S
N67 C65 1.348 . S
N67 C69 1.346 . S
C68 C65 1.485 . S
C68 H72 0.960 . S
C68 H73 0.961 . S
C68 H74 0.960 . S
C69 N67 1.346 . S
C69 N70 1.307 . S
C69 C71 1.486 . S
N70 N66 1.370 . S
N70 C69 1.307 . S
C71 C69 1.486 . S
C71 H75 0.960 . S
C71 H76 0.960 . S
C71 H77 0.959 . S
H72 C68 0.960 . S
H73 C68 0.961 . S
H74 C68 0.960 . S
H75 C71 0.960 . S
H76 C71 0.960 . S
H77 C71 0.959 . S
C78 N79 1.317 . S
C78 N80 1.348 . S
C78 C81 1.485 . S
N79 C78 1.317 . S
N79 N83 1.370 . S
N80 C78 1.348 . S
N80 C82 1.346 . S
C81 C78 1.485 . S
C81 H85 0.960 . S
C81 H86 0.961 . S
C81 H87 0.960 . S
C82 N80 1.346 . S
C82 N83 1.307 . S
C82 C84 1.486 . S
N83 N79 1.370 . S
N83 C82 1.307 . S
C84 C82 1.486 . S
C84 H88 0.960 . S
C84 H89 0.960 . S
C84 H90 0.959 . S
H85 C81 0.960 . S
H86 C81 0.961 . S
H87 C81 0.960 . S
H88 C84 0.960 . S
H89 C84 0.960 . S
H90 C84 0.959 . S
C91 N92 1.317 . S
C91 N93 1.348 . S
C91 C94 1.485 . S
N92 C91 1.317 . S
N92 N96 1.370 . S
N93 C91 1.348 . S
N93 C95 1.346 . S
C94 C91 1.485 . S
C94 H98 0.960 . S
C94 H99 0.961 . S
C94 H100 0.960 . S
C95 N93 1.346 . S
C95 N96 1.307 . S
C95 C97 1.486 . S
N96 N92 1.370 . S
N96 C95 1.307 . S
C97 C95 1.486 . S
C97 H101 0.960 . S
C97 H102 0.960 . S
C97 H103 0.959 . S
H98 C94 0.960 . S
H99 C94 0.961 . S
H100 C94 0.960 . S
H101 C97 0.960 . S
H102 C97 0.960 . S
H103 C97 0.959 . S
Tb104 N133 2.617 . S
Tb104 N139 2.572 . S
Tb104 O148 2.465 . S
Tb104 O149 2.387 . S
Tb104 O151 2.428 . S
Tb104 O152 2.308 . S
Tb104 O156 2.349 . S
Tb104 O159 2.393 . S
Tb104 C168 2.802 . S
C105 N106 1.379 . S
C105 C108 1.416 . S
C105 C112 1.424 . S
N106 C105 1.379 . S
N106 C109 1.334 . S
N106 Tb115 2.617 . S
C107 C109 1.390 . S
C107 C110 1.339 . S
C107 H127 0.930 . S
C108 C105 1.416 . S
C108 C110 1.416 . S
C108 C114 1.448 . S
C109 N106 1.334 . S
C109 C107 1.390 . S
C109 H120 0.930 . S
C110 C107 1.339 . S
C110 C108 1.416 . S
C110 H131 0.930 . S
C111 C112 1.413 . S
C111 C113 1.427 . S
C111 C117 1.416 . S
C112 C105 1.424 . S
C112 C111 1.413 . S
C112 N116 1.361 . S
C113 C111 1.427 . S
C113 C114 1.328 . S
C113 H128 0.929 . S
C114 C108 1.448 . S
C114 C113 1.328 . S
C114 H129 0.930 . S
Tb115 N106 2.617 . S
Tb115 N116 2.572 . S
Tb115 O150 2.349 1_655 S
Tb115 O153 2.393 . S
Tb115 O154 2.465 . S
Tb115 O155 2.387 . S
Tb115 O157 2.428 . S
Tb115 O158 2.308 1_655 S
Tb115 C179 2.802 . S
N116 C112 1.361 . S
N116 Tb115 2.572 . S
N116 C118 1.340 . S
C117 C111 1.416 . S
C117 C119 1.332 . S
C117 H125 0.931 . S
C118 N116 1.340 . S
C118 C119 1.407 . S
C118 H124 0.930 . S
C119 C117 1.332 . S
C119 C118 1.407 . S
C119 H121 0.929 . S
H120 C109 0.930 . S
H121 C119 0.929 . S
H122 C137 0.930 . S
H123 C144 0.929 . S
H124 C118 0.930 . S
H125 C117 0.931 . S
H126 C140 0.930 . S
H127 C107 0.930 . S
H128 C113 0.929 . S
H129 C114 0.930 . S
H130 C135 0.930 . S
H131 C110 0.930 . S
H132 C143 0.931 . S
N133 Tb104 2.617 . S
N133 C134 1.379 . S
N133 C137 1.334 . S
C134 N133 1.379 . S
C134 C136 1.416 . S
C134 C142 1.424 . S
C135 H130 0.930 . S
C135 C137 1.390 . S
C135 C138 1.339 . S
C136 C134 1.416 . S
C136 C138 1.416 . S
C136 C169 1.448 . S
C137 H122 0.930 . S
C137 N133 1.334 . S
C137 C135 1.390 . S
C138 C135 1.339 . S
C138 C136 1.416 . S
C138 H145 0.930 . S
N139 Tb104 2.572 . S
N139 C140 1.340 . S
N139 C142 1.361 . S
C140 H126 0.930 . S
C140 N139 1.340 . S
C140 C144 1.407 . S
C141 C142 1.413 . S
C141 C143 1.416 . S
C141 C170 1.427 . S
C142 C134 1.424 . S
C142 N139 1.361 . S
C142 C141 1.413 . S
C143 H132 0.931 . S
C143 C141 1.416 . S
C143 C144 1.332 . S
C144 H123 0.929 . S
C144 C140 1.407 . S
C144 C143 1.332 . S
H145 C138 0.930 . S
H146 C169 0.930 . S
H147 C170 0.929 . S
O148 Tb104 2.465 . S
O148 C168 1.264 . S
O149 Tb104 2.387 . S
O149 C160 1.264 . S
O150 Tb115 2.349 1_455 S
O150 C160 1.243 . S
O151 Tb104 2.428 . S
O151 C168 1.256 . S
O152 Tb104 2.308 . S
O152 C167 1.266 1_455 S
O153 Tb115 2.393 . S
O153 C167 1.248 . S
O154 Tb115 2.465 . S
O154 C179 1.264 . S
O155 Tb115 2.387 . S
O155 C171 1.264 . S
O156 Tb104 2.349 . S
O156 C171 1.243 1_455 S
O157 Tb115 2.428 . S
O157 C179 1.256 . S
O158 Tb115 2.308 1_455 S
O158 C178 1.266 . S
O159 Tb104 2.393 . S
O159 C178 1.248 . S
C160 O149 1.264 . S
C160 O150 1.243 . S
C161 C164 1.399 . S
C161 C166 1.383 . S
C161 C168 1.496 . S
C162 C163 1.399 . S
C162 C166 1.389 . S
C163 C162 1.399 . S
C163 C165 1.380 . S
C163 H180 0.929 . S
C164 C161 1.399 . S
C164 C165 1.392 . S
C164 H181 0.929 . S
C165 C163 1.380 . S
C165 C164 1.392 . S
C165 H182 0.929 . S
C166 C161 1.383 . S
C166 C162 1.389 . S
C166 H183 0.931 . S
C167 O152 1.266 1_655 S
C167 O153 1.248 . S
C168 Tb104 2.802 . S
C168 O148 1.264 . S
C168 O151 1.256 . S
C168 C161 1.496 . S
C169 C136 1.448 . S
C169 H146 0.930 . S
C169 C170 1.328 . S
C170 C141 1.427 . S
C170 H147 0.929 . S
C170 C169 1.328 . S
C171 O155 1.264 . S
C171 O156 1.243 1_655 S
C172 C175 1.399 . S
C172 C176 1.383 . S
C172 C179 1.496 . S
C173 C174 1.399 . S
C173 C176 1.389 . S
C174 C173 1.399 . S
C174 C177 1.380 . S
C174 H184 0.929 . S
C175 C172 1.399 . S
C175 C177 1.392 . S
C175 H185 0.929 . S
C176 C172 1.383 . S
C176 C173 1.389 . S
C176 H186 0.931 . S
C177 C174 1.380 . S
C177 C175 1.392 . S
C177 H187 0.929 . S
C178 O158 1.266 . S
C178 O159 1.248 . S
C179 Tb115 2.802 . S
C179 O154 1.264 . S
C179 O157 1.256 . S
C179 C172 1.496 . S
H180 C163 0.929 . S
H181 C164 0.929 . S
H182 C165 0.929 . S
H183 C166 0.931 . S
H184 C174 0.929 . S
H185 C175 0.929 . S
H186 C176 0.931 . S
H187 C177 0.929 . S
Tb188 N217 2.617 . S
Tb188 N223 2.572 . S
Tb188 O232 2.465 . S
Tb188 O233 2.387 . S
Tb188 O235 2.428 . S
Tb188 O236 2.308 . S
Tb188 O240 2.349 . S
Tb188 O243 2.393 . S
Tb188 C252 2.802 . S
C189 N190 1.379 . S
C189 C192 1.416 . S
C189 C196 1.424 . S
N190 C189 1.379 . S
N190 C193 1.334 . S
N190 Tb199 2.617 . S
C191 C193 1.390 . S
C191 C194 1.339 . S
C191 H211 0.930 . S
C192 C189 1.416 . S
C192 C194 1.416 . S
C192 C198 1.448 . S
C193 N190 1.334 . S
C193 C191 1.390 . S
C193 H204 0.930 . S
C194 C191 1.339 . S
C194 C192 1.416 . S
C194 H215 0.930 . S
C195 C196 1.413 . S
C195 C197 1.427 . S
C195 C201 1.416 . S
C196 C189 1.424 . S
C196 C195 1.413 . S
C196 N200 1.361 . S
C197 C195 1.427 . S
C197 C198 1.328 . S
C197 H212 0.929 . S
C198 C192 1.448 . S
C198 C197 1.328 . S
C198 H213 0.930 . S
Tb199 N190 2.617 . S
Tb199 N200 2.572 . S
Tb199 O234 2.349 . S
Tb199 O237 2.393 . S
Tb199 O238 2.465 . S
Tb199 O239 2.387 . S
Tb199 O241 2.428 . S
Tb199 O242 2.308 . S
Tb199 C263 2.802 . S
N200 C196 1.361 . S
N200 Tb199 2.572 . S
N200 C202 1.340 . S
C201 C195 1.416 . S
C201 C203 1.332 . S
C201 H209 0.931 . S
C202 N200 1.340 . S
C202 C203 1.407 . S
C202 H208 0.930 . S
C203 C201 1.332 . S
C203 C202 1.407 . S
C203 H205 0.929 . S
H204 C193 0.930 . S
H205 C203 0.929 . S
H206 C221 0.930 . S
H207 C228 0.929 . S
H208 C202 0.930 . S
H209 C201 0.931 . S
H210 C224 0.930 . S
H211 C191 0.930 . S
H212 C197 0.929 . S
H213 C198 0.930 . S
H214 C219 0.930 . S
H215 C194 0.930 . S
H216 C227 0.931 . S
N217 Tb188 2.617 . S
N217 C218 1.379 . S
N217 C221 1.334 . S
C218 N217 1.379 . S
C218 C220 1.416 . S
C218 C226 1.424 . S
C219 H214 0.930 . S
C219 C221 1.390 . S
C219 C222 1.339 . S
C220 C218 1.416 . S
C220 C222 1.416 . S
C220 C253 1.448 . S
C221 H206 0.930 . S
C221 N217 1.334 . S
C221 C219 1.390 . S
C222 C219 1.339 . S
C222 C220 1.416 . S
C222 H229 0.930 . S
N223 Tb188 2.572 . S
N223 C224 1.340 . S
N223 C226 1.361 . S
C224 H210 0.930 . S
C224 N223 1.340 . S
C224 C228 1.407 . S
C225 C226 1.413 . S
C225 C227 1.416 . S
C225 C254 1.427 . S
C226 C218 1.424 . S
C226 N223 1.361 . S
C226 C225 1.413 . S
C227 H216 0.931 . S
C227 C225 1.416 . S
C227 C228 1.332 . S
C228 H207 0.929 . S
C228 C224 1.407 . S
C228 C227 1.332 . S
H229 C222 0.930 . S
H230 C253 0.930 . S
H231 C254 0.929 . S
O232 Tb188 2.465 . S
O232 C252 1.264 . S
O233 Tb188 2.387 . S
O233 C244 1.264 . S
O234 Tb199 2.349 . S
O234 C244 1.243 . S
O235 Tb188 2.428 . S
O235 C252 1.256 . S
O236 Tb188 2.308 . S
O236 C251 1.266 . S
O237 Tb199 2.393 . S
O237 C251 1.248 . S
O238 Tb199 2.465 . S
O238 C263 1.264 . S
O239 Tb199 2.387 . S
O239 C255 1.264 . S
O240 Tb188 2.349 . S
O240 C255 1.243 . S
O241 Tb199 2.428 . S
O241 C263 1.256 . S
O242 Tb199 2.308 . S
O242 C262 1.266 . S
O243 Tb188 2.393 . S
O243 C262 1.248 . S
C244 O233 1.264 . S
C244 O234 1.243 . S
C245 C248 1.399 . S
C245 C250 1.383 . S
C245 C252 1.496 . S
C246 C247 1.399 . S
C246 C250 1.389 . S
C247 C246 1.399 . S
C247 C249 1.380 . S
C247 H264 0.929 . S
C248 C245 1.399 . S
C248 C249 1.392 . S
C248 H265 0.929 . S
C249 C247 1.380 . S
C249 C248 1.392 . S
C249 H266 0.929 . S
C250 C245 1.383 . S
C250 C246 1.389 . S
C250 H267 0.931 . S
C251 O236 1.266 . S
C251 O237 1.248 . S
C252 Tb188 2.802 . S
C252 O232 1.264 . S
C252 O235 1.256 . S
C252 C245 1.496 . S
C253 C220 1.448 . S
C253 H230 0.930 . S
C253 C254 1.328 . S
C254 C225 1.427 . S
C254 H231 0.929 . S
C254 C253 1.328 . S
C255 O239 1.264 . S
C255 O240 1.243 . S
C256 C259 1.399 . S
C256 C260 1.383 . S
C256 C263 1.496 . S
C257 C258 1.399 . S
C257 C260 1.389 . S
C258 C257 1.399 . S
C258 C261 1.380 . S
C258 H268 0.929 . S
C259 C256 1.399 . S
C259 C261 1.392 . S
C259 H269 0.929 . S
C260 C256 1.383 . S
C260 C257 1.389 . S
C260 H270 0.931 . S
C261 C258 1.380 . S
C261 C259 1.392 . S
C261 H271 0.929 . S
C262 O242 1.266 . S
C262 O243 1.248 . S
C263 Tb199 2.802 . S
C263 O238 1.264 . S
C263 O241 1.256 . S
C263 C256 1.496 . S
H264 C247 0.929 . S
H265 C248 0.929 . S
H266 C249 0.929 . S
H267 C250 0.931 . S
H268 C258 0.929 . S
H269 C259 0.929 . S
H270 C260 0.931 . S
H271 C261 0.929 . S
Tb272 N301 2.617 . S
Tb272 N307 2.572 . S
Tb272 O316 2.465 . S
Tb272 O317 2.387 . S
Tb272 O319 2.428 . S
Tb272 O320 2.308 . S
Tb272 O324 2.349 . S
Tb272 O327 2.393 . S
Tb272 C336 2.802 . S
C273 N274 1.379 . S
C273 C276 1.416 . S
C273 C280 1.424 . S
N274 C273 1.379 . S
N274 C277 1.334 . S
N274 Tb283 2.617 . S
C275 C277 1.390 . S
C275 C278 1.339 . S
C275 H295 0.930 . S
C276 C273 1.416 . S
C276 C278 1.416 . S
C276 C282 1.448 . S
C277 N274 1.334 . S
C277 C275 1.390 . S
C277 H288 0.930 . S
C278 C275 1.339 . S
C278 C276 1.416 . S
C278 H299 0.930 . S
C279 C280 1.413 . S
C279 C281 1.427 . S
C279 C285 1.416 . S
C280 C273 1.424 . S
C280 C279 1.413 . S
C280 N284 1.361 . S
C281 C279 1.427 . S
C281 C282 1.328 . S
C281 H296 0.929 . S
C282 C276 1.448 . S
C282 C281 1.328 . S
C282 H297 0.930 . S
Tb283 N274 2.617 . S
Tb283 N284 2.572 . S
Tb283 O318 2.349 1_655 S
Tb283 O321 2.393 . S
Tb283 O322 2.465 . S
Tb283 O323 2.387 . S
Tb283 O325 2.428 . S
Tb283 O326 2.308 1_655 S
Tb283 C347 2.802 . S
N284 C280 1.361 . S
N284 Tb283 2.572 . S
N284 C286 1.340 . S
C285 C279 1.416 . S
C285 C287 1.332 . S
C285 H293 0.931 . S
C286 N284 1.340 . S
C286 C287 1.407 . S
C286 H292 0.930 . S
C287 C285 1.332 . S
C287 C286 1.407 . S
C287 H289 0.929 . S
H288 C277 0.930 . S
H289 C287 0.929 . S
H290 C305 0.930 . S
H291 C312 0.929 . S
H292 C286 0.930 . S
H293 C285 0.931 . S
H294 C308 0.930 . S
H295 C275 0.930 . S
H296 C281 0.929 . S
H297 C282 0.930 . S
H298 C303 0.930 . S
H299 C278 0.930 . S
H300 C311 0.931 . S
N301 Tb272 2.617 . S
N301 C302 1.379 . S
N301 C305 1.334 . S
C302 N301 1.379 . S
C302 C304 1.416 . S
C302 C310 1.424 . S
C303 H298 0.930 . S
C303 C305 1.390 . S
C303 C306 1.339 . S
C304 C302 1.416 . S
C304 C306 1.416 . S
C304 C337 1.448 . S
C305 H290 0.930 . S
C305 N301 1.334 . S
C305 C303 1.390 . S
C306 C303 1.339 . S
C306 C304 1.416 . S
C306 H313 0.930 . S
N307 Tb272 2.572 . S
N307 C308 1.340 . S
N307 C310 1.361 . S
C308 H294 0.930 . S
C308 N307 1.340 . S
C308 C312 1.407 . S
C309 C310 1.413 . S
C309 C311 1.416 . S
C309 C338 1.427 . S
C310 C302 1.424 . S
C310 N307 1.361 . S
C310 C309 1.413 . S
C311 H300 0.931 . S
C311 C309 1.416 . S
C311 C312 1.332 . S
C312 H291 0.929 . S
C312 C308 1.407 . S
C312 C311 1.332 . S
H313 C306 0.930 . S
H314 C337 0.930 . S
H315 C338 0.929 . S
O316 Tb272 2.465 . S
O316 C336 1.264 . S
O317 Tb272 2.387 . S
O317 C328 1.264 . S
O318 Tb283 2.349 1_455 S
O318 C328 1.243 . S
O319 Tb272 2.428 . S
O319 C336 1.256 . S
O320 Tb272 2.308 . S
O320 C335 1.266 1_455 S
O321 Tb283 2.393 . S
O321 C335 1.248 . S
O322 Tb283 2.465 . S
O322 C347 1.264 . S
O323 Tb283 2.387 . S
O323 C339 1.264 . S
O324 Tb272 2.349 . S
O324 C339 1.243 1_455 S
O325 Tb283 2.428 . S
O325 C347 1.256 . S
O326 Tb283 2.308 1_455 S
O326 C346 1.266 . S
O327 Tb272 2.393 . S
O327 C346 1.248 . S
C328 O317 1.264 . S
C328 O318 1.243 . S
C329 C332 1.399 . S
C329 C334 1.383 . S
C329 C336 1.496 . S
C330 C331 1.399 . S
C330 C334 1.389 . S
C331 C330 1.399 . S
C331 C333 1.380 . S
C331 H348 0.929 . S
C332 C329 1.399 . S
C332 C333 1.392 . S
C332 H349 0.929 . S
C333 C331 1.380 . S
C333 C332 1.392 . S
C333 H350 0.929 . S
C334 C329 1.383 . S
C334 C330 1.389 . S
C334 H351 0.931 . S
C335 O320 1.266 1_655 S
C335 O321 1.248 . S
C336 Tb272 2.802 . S
C336 O316 1.264 . S
C336 O319 1.256 . S
C336 C329 1.496 . S
C337 C304 1.448 . S
C337 H314 0.930 . S
C337 C338 1.328 . S
C338 C309 1.427 . S
C338 H315 0.929 . S
C338 C337 1.328 . S
C339 O323 1.264 . S
C339 O324 1.243 1_655 S
C340 C343 1.399 . S
C340 C344 1.383 . S
C340 C347 1.496 . S
C341 C342 1.399 . S
C341 C344 1.389 . S
C342 C341 1.399 . S
C342 C345 1.380 . S
C342 H352 0.929 . S
C343 C340 1.399 . S
C343 C345 1.392 . S
C343 H353 0.929 . S
C344 C340 1.383 . S
C344 C341 1.389 . S
C344 H354 0.931 . S
C345 C342 1.380 . S
C345 C343 1.392 . S
C345 H355 0.929 . S
C346 O326 1.266 . S
C346 O327 1.248 . S
C347 Tb283 2.802 . S
C347 O322 1.264 . S
C347 O325 1.256 . S
C347 C340 1.496 . S
H348 C331 0.929 . S
H349 C332 0.929 . S
H350 C333 0.929 . S
H351 C334 0.931 . S
H352 C342 0.929 . S
H353 C343 0.929 . S
H354 C344 0.931 . S
H355 C345 0.929 . S
Tb356 N385 2.617 . S
Tb356 N391 2.572 . S
Tb356 O400 2.465 . S
Tb356 O401 2.387 . S
Tb356 O403 2.428 . S
Tb356 O404 2.308 . S
Tb356 O408 2.349 . S
Tb356 O411 2.393 . S
Tb356 C420 2.802 . S
C357 N358 1.379 . S
C357 C360 1.416 . S
C357 C364 1.424 . S
N358 C357 1.379 . S
N358 C361 1.334 . S
N358 Tb367 2.617 . S
C359 C361 1.390 . S
C359 C362 1.339 . S
C359 H379 0.930 . S
C360 C357 1.416 . S
C360 C362 1.416 . S
C360 C366 1.448 . S
C361 N358 1.334 . S
C361 C359 1.390 . S
C361 H372 0.930 . S
C362 C359 1.339 . S
C362 C360 1.416 . S
C362 H383 0.930 . S
C363 C364 1.413 . S
C363 C365 1.427 . S
C363 C369 1.416 . S
C364 C357 1.424 . S
C364 C363 1.413 . S
C364 N368 1.361 . S
C365 C363 1.427 . S
C365 C366 1.328 . S
C365 H380 0.929 . S
C366 C360 1.448 . S
C366 C365 1.328 . S
C366 H381 0.930 . S
Tb367 N358 2.617 . S
Tb367 N368 2.572 . S
Tb367 O402 2.349 . S
Tb367 O405 2.393 . S
Tb367 O406 2.465 . S
Tb367 O407 2.387 . S
Tb367 O409 2.428 . S
Tb367 O410 2.308 . S
Tb367 C431 2.802 . S
N368 C364 1.361 . S
N368 Tb367 2.572 . S
N368 C370 1.340 . S
C369 C363 1.416 . S
C369 C371 1.332 . S
C369 H377 0.931 . S
C370 N368 1.340 . S
C370 C371 1.407 . S
C370 H376 0.930 . S
C371 C369 1.332 . S
C371 C370 1.407 . S
C371 H373 0.929 . S
H372 C361 0.930 . S
H373 C371 0.929 . S
H374 C389 0.930 . S
H375 C396 0.929 . S
H376 C370 0.930 . S
H377 C369 0.931 . S
H378 C392 0.930 . S
H379 C359 0.930 . S
H380 C365 0.929 . S
H381 C366 0.930 . S
H382 C387 0.930 . S
H383 C362 0.930 . S
H384 C395 0.931 . S
N385 Tb356 2.617 . S
N385 C386 1.379 . S
N385 C389 1.334 . S
C386 N385 1.379 . S
C386 C388 1.416 . S
C386 C394 1.424 . S
C387 H382 0.930 . S
C387 C389 1.390 . S
C387 C390 1.339 . S
C388 C386 1.416 . S
C388 C390 1.416 . S
C388 C421 1.448 . S
C389 H374 0.930 . S
C389 N385 1.334 . S
C389 C387 1.390 . S
C390 C387 1.339 . S
C390 C388 1.416 . S
C390 H397 0.930 . S
N391 Tb356 2.572 . S
N391 C392 1.340 . S
N391 C394 1.361 . S
C392 H378 0.930 . S
C392 N391 1.340 . S
C392 C396 1.407 . S
C393 C394 1.413 . S
C393 C395 1.416 . S
C393 C422 1.427 . S
C394 C386 1.424 . S
C394 N391 1.361 . S
C394 C393 1.413 . S
C395 H384 0.931 . S
C395 C393 1.416 . S
C395 C396 1.332 . S
C396 H375 0.929 . S
C396 C392 1.407 . S
C396 C395 1.332 . S
H397 C390 0.930 . S
H398 C421 0.930 . S
H399 C422 0.929 . S
O400 Tb356 2.465 . S
O400 C420 1.264 . S
O401 Tb356 2.387 . S
O401 C412 1.264 . S
O402 Tb367 2.349 . S
O402 C412 1.243 . S
O403 Tb356 2.428 . S
O403 C420 1.256 . S
O404 Tb356 2.308 . S
O404 C419 1.266 . S
O405 Tb367 2.393 . S
O405 C419 1.248 . S
O406 Tb367 2.465 . S
O406 C431 1.264 . S
O407 Tb367 2.387 . S
O407 C423 1.264 . S
O408 Tb356 2.349 . S
O408 C423 1.243 . S
O409 Tb367 2.428 . S
O409 C431 1.256 . S
O410 Tb367 2.308 . S
O410 C430 1.266 . S
O411 Tb356 2.393 . S
O411 C430 1.248 . S
C412 O401 1.264 . S
C412 O402 1.243 . S
C413 C416 1.399 . S
C413 C418 1.383 . S
C413 C420 1.496 . S
C414 C415 1.399 . S
C414 C418 1.389 . S
C415 C414 1.399 . S
C415 C417 1.380 . S
C415 H432 0.929 . S
C416 C413 1.399 . S
C416 C417 1.392 . S
C416 H433 0.929 . S
C417 C415 1.380 . S
C417 C416 1.392 . S
C417 H434 0.929 . S
C418 C413 1.383 . S
C418 C414 1.389 . S
C418 H435 0.931 . S
C419 O404 1.266 . S
C419 O405 1.248 . S
C420 Tb356 2.802 . S
C420 O400 1.264 . S
C420 O403 1.256 . S
C420 C413 1.496 . S
C421 C388 1.448 . S
C421 H398 0.930 . S
C421 C422 1.328 . S
C422 C393 1.427 . S
C422 H399 0.929 . S
C422 C421 1.328 . S
C423 O407 1.264 . S
C423 O408 1.243 . S
C424 C427 1.399 . S
C424 C428 1.383 . S
C424 C431 1.496 . S
C425 C426 1.399 . S
C425 C428 1.389 . S
C426 C425 1.399 . S
C426 C429 1.380 . S
C426 H436 0.929 . S
C427 C424 1.399 . S
C427 C429 1.392 . S
C427 H437 0.929 . S
C428 C424 1.383 . S
C428 C425 1.389 . S
C428 H438 0.931 . S
C429 C426 1.380 . S
C429 C427 1.392 . S
C429 H439 0.929 . S
C430 O410 1.266 . S
C430 O411 1.248 . S
C431 Tb367 2.802 . S
C431 O406 1.264 . S
C431 O409 1.256 . S
C431 C424 1.496 . S
H432 C415 0.929 . S
H433 C416 0.929 . S
H434 C417 0.929 . S
H435 C418 0.931 . S
H436 C426 0.929 . S
H437 C427 0.929 . S
H438 C428 0.931 . S
H439 C429 0.929 . S
H440 C458 0.951 . S
H441 C460 0.951 . S
H442 C462 0.950 . S
H443 C463 0.950 . S
H444 C465 0.950 . S
H445 C468 0.950 . S
H446 C469 0.950 . S
H447 C471 0.950 . S
H448 C472 0.950 . S
H449 C473 0.951 . S
H450 C475 0.951 1_565 S
H451 C477 0.950 . S
H452 C478 0.950 . S
H453 C480 0.950 1_545 S
H454 C483 0.950 . S
H455 C484 0.950 . S
H456 C486 0.950 . S
H457 C487 0.950 . S
C458 H440 0.951 . S
C458 C459 1.366 . S
C458 C460 1.388 . S
C459 C458 1.366 . S
C459 C463 1.385 . S
C460 H441 0.951 . S
C460 C458 1.388 . S
C460 C461 1.366 . S
C461 C460 1.366 . S
C461 C462 1.414 . S
C461 C464 1.499 . S
C462 H442 0.950 . S
C462 C461 1.414 . S
C462 C463 1.374 . S
C463 H443 0.950 . S
C463 C459 1.385 . S
C463 C462 1.374 . S
C464 C461 1.499 . S
C464 C465 1.373 . S
C464 C466 1.389 . S
C465 H444 0.950 . S
C465 C464 1.373 . S
C465 C481 1.377 . S
C466 C464 1.389 . S
C466 C467 1.524 . S
C466 C480 1.377 . S
C467 C466 1.524 . S
C467 C468 1.397 . S
C467 C472 1.363 1_565 S
C468 H445 0.950 . S
C468 C467 1.397 . S
C468 C469 1.334 . S
C469 H446 0.950 . S
C469 C468 1.334 . S
C469 C470 1.287 . S
C470 C469 1.287 . S
C470 C471 1.524 1_565 S
C470 H489 0.913 1_565 S
C471 H447 0.950 . S
C471 C470 1.524 1_545 S
C471 C472 1.415 . S
C472 H448 0.950 . S
C472 C467 1.363 1_545 S
C472 C471 1.415 . S
C473 H449 0.951 . S
C473 C474 1.366 . S
C473 C475 1.388 . S
C474 C473 1.366 . S
C474 C478 1.385 . S
C475 H450 0.951 1_545 S
C475 C473 1.388 . S
C475 C476 1.366 . S
C476 C475 1.366 . S
C476 C477 1.414 . S
C476 C479 1.499 1_545 S
C477 H451 0.950 . S
C477 C476 1.414 . S
C477 C478 1.374 . S
C478 H452 0.950 . S
C478 C474 1.385 . S
C478 C477 1.374 . S
C479 C476 1.499 1_565 S
C479 C480 1.373 . S
C479 C481 1.389 . S
C480 H453 0.950 1_565 S
C480 C466 1.377 . S
C480 C479 1.373 . S
C481 C465 1.377 . S
C481 C479 1.389 . S
C481 C482 1.524 . S
C482 C481 1.524 . S
C482 C483 1.397 . S
C482 C487 1.363 . S
C483 H454 0.950 . S
C483 C482 1.397 . S
C483 C484 1.334 . S
C484 H455 0.950 . S
C484 C483 1.334 . S
C484 C485 1.287 . S
C485 C484 1.287 . S
C485 C486 1.524 . S
C485 H488 0.999 . S
C486 H456 0.950 . S
C486 C485 1.524 . S
C486 C487 1.415 . S
C487 H457 0.950 . S
C487 C482 1.363 . S
C487 C486 1.415 . S
H488 C485 0.999 . S
H489 C470 0.913 1_545 S
H490 C508 0.951 . S
H491 C510 0.951 . S
H492 C512 0.950 . S
H493 C513 0.950 . S
H494 C515 0.950 . S
H495 C518 0.950 . S
H496 C519 0.950 . S
H497 C521 0.950 . S
H498 C522 0.950 . S
H499 C523 0.951 . S
H500 C525 0.951 . S
H501 C527 0.950 . S
H502 C528 0.950 . S
H503 C530 0.950 . S
H504 C533 0.950 . S
H505 C534 0.950 . S
H506 C536 0.950 . S
H507 C537 0.950 . S
C508 H490 0.951 . S
C508 C509 1.366 . S
C508 C510 1.388 . S
C509 C508 1.366 . S
C509 C513 1.385 . S
C510 H491 0.951 . S
C510 C508 1.388 . S
C510 C511 1.366 . S
C511 C510 1.366 . S
C511 C512 1.414 . S
C511 C514 1.499 . S
C512 H492 0.950 . S
C512 C511 1.414 . S
C512 C513 1.374 . S
C513 H493 0.950 . S
C513 C509 1.385 . S
C513 C512 1.374 . S
C514 C511 1.499 . S
C514 C515 1.373 . S
C514 C516 1.389 . S
C515 H494 0.950 . S
C515 C514 1.373 . S
C515 C531 1.377 . S
C516 C514 1.389 . S
C516 C517 1.524 . S
C516 C530 1.377 . S
C517 C516 1.524 . S
C517 C518 1.397 . S
C517 C522 1.363 . S
C518 H495 0.950 . S
C518 C517 1.397 . S
C518 C519 1.334 . S
C519 H496 0.950 . S
C519 C518 1.334 . S
C519 C520 1.287 . S
C520 C519 1.287 . S
C520 C521 1.524 . S
C520 H539 0.913 . S
C521 H497 0.950 . S
C521 C520 1.524 . S
C521 C522 1.415 . S
C522 H498 0.950 . S
C522 C517 1.363 . S
C522 C521 1.415 . S
C523 H499 0.951 . S
C523 C524 1.366 . S
C523 C525 1.388 . S
C524 C523 1.366 . S
C524 C528 1.385 . S
C525 H500 0.951 . S
C525 C523 1.388 . S
C525 C526 1.366 . S
C526 C525 1.366 . S
C526 C527 1.414 . S
C526 C529 1.499 . S
C527 H501 0.950 . S
C527 C526 1.414 . S
C527 C528 1.374 . S
C528 H502 0.950 . S
C528 C524 1.385 . S
C528 C527 1.374 . S
C529 C526 1.499 . S
C529 C530 1.373 . S
C529 C531 1.389 . S
C530 H503 0.950 . S
C530 C516 1.377 . S
C530 C529 1.373 . S
C531 C515 1.377 . S
C531 C529 1.389 . S
C531 C532 1.524 . S
C532 C531 1.524 . S
C532 C533 1.397 . S
C532 C537 1.363 . S
C533 H504 0.950 . S
C533 C532 1.397 . S
C533 C534 1.334 . S
C534 H505 0.950 . S
C534 C533 1.334 . S
C534 C535 1.287 . S
C535 C534 1.287 . S
C535 C536 1.524 . S
C535 H538 0.999 . S
C536 H506 0.950 . S
C536 C535 1.524 . S
C536 C537 1.415 . S
C537 H507 0.950 . S
C537 C532 1.363 . S
C537 C536 1.415 . S
H538 C535 0.999 . S
H539 C520 0.913 . S
H540 C558 0.951 . S
H541 C560 0.951 . S
H542 C562 0.950 . S
H543 C563 0.950 . S
H544 C565 0.950 . S
H545 C568 0.950 . S
H546 C569 0.950 . S
H547 C571 0.950 . S
H548 C572 0.950 . S
H549 C573 0.951 . S
H550 C575 0.951 . S
H551 C577 0.950 . S
H552 C578 0.950 . S
H553 C580 0.950 . S
H554 C583 0.950 . S
H555 C584 0.950 . S
H556 C586 0.950 . S
H557 C587 0.950 . S
C558 H540 0.951 . S
C558 C559 1.366 . S
C558 C560 1.388 . S
C559 C558 1.366 . S
C559 C563 1.385 . S
C560 H541 0.951 . S
C560 C558 1.388 . S
C560 C561 1.366 . S
C561 C560 1.366 . S
C561 C562 1.414 . S
C561 C564 1.499 . S
C562 H542 0.950 . S
C562 C561 1.414 . S
C562 C563 1.374 . S
C563 H543 0.950 . S
C563 C559 1.385 . S
C563 C562 1.374 . S
C564 C561 1.499 . S
C564 C565 1.373 . S
C564 C566 1.389 . S
C565 H544 0.950 . S
C565 C564 1.373 . S
C565 C581 1.377 . S
C566 C564 1.389 . S
C566 C567 1.524 . S
C566 C580 1.377 . S
C567 C566 1.524 . S
C567 C568 1.397 . S
C567 C572 1.363 . S
C568 H545 0.950 . S
C568 C567 1.397 . S
C568 C569 1.334 . S
C569 H546 0.950 . S
C569 C568 1.334 . S
C569 C570 1.287 . S
C570 C569 1.287 . S
C570 C571 1.524 . S
C570 H589 0.913 . S
C571 H547 0.950 . S
C571 C570 1.524 . S
C571 C572 1.415 . S
C572 H548 0.950 . S
C572 C567 1.363 . S
C572 C571 1.415 . S
C573 H549 0.951 . S
C573 C574 1.366 . S
C573 C575 1.388 . S
C574 C573 1.366 . S
C574 C578 1.385 . S
C575 H550 0.951 . S
C575 C573 1.388 . S
C575 C576 1.366 . S
C576 C575 1.366 . S
C576 C577 1.414 . S
C576 C579 1.499 . S
C577 H551 0.950 . S
C577 C576 1.414 . S
C577 C578 1.374 . S
C578 H552 0.950 . S
C578 C574 1.385 . S
C578 C577 1.374 . S
C579 C576 1.499 . S
C579 C580 1.373 . S
C579 C581 1.389 . S
C580 H553 0.950 . S
C580 C566 1.377 . S
C580 C579 1.373 . S
C581 C565 1.377 . S
C581 C579 1.389 . S
C581 C582 1.524 . S
C582 C581 1.524 . S
C582 C583 1.397 . S
C582 C587 1.363 . S
C583 H554 0.950 . S
C583 C582 1.397 . S
C583 C584 1.334 . S
C584 H555 0.950 . S
C584 C583 1.334 . S
C584 C585 1.287 . S
C585 C584 1.287 . S
C585 C586 1.524 . S
C585 H588 0.999 . S
C586 H556 0.950 . S
C586 C585 1.524 . S
C586 C587 1.415 . S
C587 H557 0.950 . S
C587 C582 1.363 . S
C587 C586 1.415 . S
H588 C585 0.999 . S
H589 C570 0.913 . S
H590 C608 0.951 . S
H591 C610 0.951 . S
H592 C612 0.950 . S
H593 C613 0.950 . S
H594 C615 0.950 . S
H595 C618 0.950 . S
H596 C619 0.950 . S
H597 C621 0.950 . S
H598 C622 0.950 . S
H599 C623 0.951 . S
H600 C625 0.951 . S
H601 C627 0.950 1_565 S
H602 C628 0.950 . S
H603 C630 0.950 . S
H604 C633 0.950 . S
H605 C634 0.950 . S
H606 C636 0.950 . S
H607 C637 0.950 . S
C608 H590 0.951 . S
C608 C609 1.366 . S
C608 C610 1.388 . S
C609 C608 1.366 . S
C609 C613 1.385 . S
C610 H591 0.951 . S
C610 C608 1.388 . S
C610 C611 1.366 . S
C611 C610 1.366 . S
C611 C612 1.414 . S
C611 C614 1.499 . S
C612 H592 0.950 . S
C612 C611 1.414 . S
C612 C613 1.374 . S
C613 H593 0.950 . S
C613 C609 1.385 . S
C613 C612 1.374 . S
C614 C611 1.499 . S
C614 C615 1.373 . S
C614 C616 1.389 . S
C615 H594 0.950 . S
C615 C614 1.373 . S
C615 C631 1.377 . S
C616 C614 1.389 . S
C616 C617 1.524 . S
C616 C630 1.377 . S
C617 C616 1.524 . S
C617 C618 1.397 . S
C617 C622 1.363 . S
C618 H595 0.950 . S
C618 C617 1.397 . S
C618 C619 1.334 . S
C619 H596 0.950 . S
C619 C618 1.334 . S
C619 C620 1.287 . S
C620 C619 1.287 . S
C620 C621 1.524 . S
C620 H639 0.913 . S
C621 H597 0.950 . S
C621 C620 1.524 . S
C621 C622 1.415 . S
C622 H598 0.950 . S
C622 C617 1.363 . S
C622 C621 1.415 . S
C623 H599 0.951 . S
C623 C624 1.366 . S
C623 C625 1.388 . S
C624 C623 1.366 . S
C624 C628 1.385 . S
C625 H600 0.951 . S
C625 C623 1.388 . S
C625 C626 1.366 . S
C626 C625 1.366 . S
C626 C627 1.414 . S
C626 C629 1.499 1_545 S
C627 H601 0.950 1_545 S
C627 C626 1.414 . S
C627 C628 1.374 . S
C628 H602 0.950 . S
C628 C624 1.385 . S
C628 C627 1.374 . S
C629 C626 1.499 1_565 S
C629 C630 1.373 . S
C629 C631 1.389 . S
C630 H603 0.950 . S
C630 C616 1.377 . S
C630 C629 1.373 . S
C631 C615 1.377 . S
C631 C629 1.389 . S
C631 C632 1.524 1_565 S
C632 C631 1.524 1_545 S
C632 C633 1.397 . S
C632 C637 1.363 . S
C633 H604 0.950 . S
C633 C632 1.397 . S
C633 C634 1.334 . S
C634 H605 0.950 . S
C634 C633 1.334 . S
C634 C635 1.287 . S
C635 C634 1.287 . S
C635 C636 1.524 . S
C635 H638 0.999 . S
C636 H606 0.950 . S
C636 C635 1.524 . S
C636 C637 1.415 . S
C637 H607 0.950 . S
C637 C632 1.363 . S
C637 C636 1.415 . S
H638 C635 0.999 . S
H639 C620 0.913 . S
H640 C658 0.951 . S
H641 C660 0.951 . S
H642 C662 0.950 . S
H643 C663 0.950 . S
H644 C665 0.950 . S
H645 C668 0.950 . S
H646 C669 0.950 . S
H647 C671 0.950 . S
H648 C672 0.950 . S
H649 C673 0.951 . S
H650 C675 0.951 . S
H651 C677 0.950 1_545 S
H652 C678 0.950 . S
H653 C680 0.950 . S
H654 C683 0.950 . S
H655 C684 0.950 . S
H656 C686 0.950 . S
H657 C687 0.950 . S
C658 H640 0.951 . S
C658 C659 1.366 . S
C658 C660 1.388 . S
C659 C658 1.366 . S
C659 C663 1.385 . S
C660 H641 0.951 . S
C660 C658 1.388 . S
C660 C661 1.366 . S
C661 C660 1.366 . S
C661 C662 1.414 . S
C661 C664 1.499 . S
C662 H642 0.950 . S
C662 C661 1.414 . S
C662 C663 1.374 . S
C663 H643 0.950 . S
C663 C659 1.385 . S
C663 C662 1.374 . S
C664 C661 1.499 . S
C664 C665 1.373 . S
C664 C666 1.389 . S
C665 H644 0.950 . S
C665 C664 1.373 . S
C665 C681 1.377 . S
C666 C664 1.389 . S
C666 C667 1.524 . S
C666 C680 1.377 . S
C667 C666 1.524 . S
C667 C668 1.397 . S
C667 C672 1.363 . S
C668 H645 0.950 . S
C668 C667 1.397 . S
C668 C669 1.334 . S
C669 H646 0.950 . S
C669 C668 1.334 . S
C669 C670 1.287 . S
C670 C669 1.287 . S
C670 C671 1.524 . S
C670 H689 0.913 . S
C671 H647 0.950 . S
C671 C670 1.524 . S
C671 C672 1.415 . S
C672 H648 0.950 . S
C672 C667 1.363 . S
C672 C671 1.415 . S
C673 H649 0.951 . S
C673 C674 1.366 . S
C673 C675 1.388 . S
C674 C673 1.366 . S
C674 C678 1.385 . S
C675 H650 0.951 . S
C675 C673 1.388 . S
C675 C676 1.366 . S
C676 C675 1.366 . S
C676 C677 1.414 . S
C676 C679 1.499 1_565 S
C677 H651 0.950 1_565 S
C677 C676 1.414 . S
C677 C678 1.374 . S
C678 H652 0.950 . S
C678 C674 1.385 . S
C678 C677 1.374 . S
C679 C676 1.499 1_545 S
C679 C680 1.373 . S
C679 C681 1.389 . S
C680 H653 0.950 . S
C680 C666 1.377 . S
C680 C679 1.373 . S
C681 C665 1.377 . S
C681 C679 1.389 . S
C681 C682 1.524 . S
C682 C681 1.524 . S
C682 C683 1.397 . S
C682 C687 1.363 . S
C683 H654 0.950 . S
C683 C682 1.397 . S
C683 C684 1.334 . S
C684 H655 0.950 . S
C684 C683 1.334 . S
C684 C685 1.287 . S
C685 C684 1.287 . S
C685 C686 1.524 1_545 S
C685 H688 0.999 1_545 S
C686 H656 0.950 . S
C686 C685 1.524 1_565 S
C686 C687 1.415 1_565 S
C687 H657 0.950 . S
C687 C682 1.363 . S
C687 C686 1.415 1_545 S
H688 C685 0.999 1_565 S
H689 C670 0.913 . S
H690 C708 0.951 . S
H691 C710 0.951 . S
H692 C712 0.950 . S
H693 C713 0.950 . S
H694 C715 0.950 . S
H695 C718 0.950 . S
H696 C719 0.950 . S
H697 C721 0.950 . S
H698 C722 0.950 . S
H699 C723 0.951 . S
H700 C725 0.951 . S
H701 C727 0.950 . S
H702 C728 0.950 . S
H703 C730 0.950 . S
H704 C733 0.950 . S
H705 C734 0.950 . S
H706 C736 0.950 . S
H707 C737 0.950 . S
C708 H690 0.951 . S
C708 C709 1.366 . S
C708 C710 1.388 . S
C709 C708 1.366 . S
C709 C713 1.385 . S
C710 H691 0.951 . S
C710 C708 1.388 . S
C710 C711 1.366 . S
C711 C710 1.366 . S
C711 C712 1.414 . S
C711 C714 1.499 . S
C712 H692 0.950 . S
C712 C711 1.414 . S
C712 C713 1.374 . S
C713 H693 0.950 . S
C713 C709 1.385 . S
C713 C712 1.374 . S
C714 C711 1.499 . S
C714 C715 1.373 . S
C714 C716 1.389 . S
C715 H694 0.950 . S
C715 C714 1.373 . S
C715 C731 1.377 . S
C716 C714 1.389 . S
C716 C717 1.524 . S
C716 C730 1.377 . S
C717 C716 1.524 . S
C717 C718 1.397 . S
C717 C722 1.363 . S
C718 H695 0.950 . S
C718 C717 1.397 . S
C718 C719 1.334 . S
C719 H696 0.950 . S
C719 C718 1.334 . S
C719 C720 1.287 . S
C720 C719 1.287 . S
C720 C721 1.524 . S
C720 H739 0.913 . S
C721 H697 0.950 . S
C721 C720 1.524 . S
C721 C722 1.415 . S
C722 H698 0.950 . S
C722 C717 1.363 . S
C722 C721 1.415 . S
C723 H699 0.951 . S
C723 C724 1.366 . S
C723 C725 1.388 . S
C724 C723 1.366 . S
C724 C728 1.385 . S
C725 H700 0.951 . S
C725 C723 1.388 . S
C725 C726 1.366 . S
C726 C725 1.366 . S
C726 C727 1.414 . S
C726 C729 1.499 . S
C727 H701 0.950 . S
C727 C726 1.414 . S
C727 C728 1.374 . S
C728 H702 0.950 . S
C728 C724 1.385 . S
C728 C727 1.374 . S
C729 C726 1.499 . S
C729 C730 1.373 . S
C729 C731 1.389 . S
C730 H703 0.950 . S
C730 C716 1.377 . S
C730 C729 1.373 . S
C731 C715 1.377 . S
C731 C729 1.389 . S
C731 C732 1.524 . S
C732 C731 1.524 . S
C732 C733 1.397 . S
C732 C737 1.363 . S
C733 H704 0.950 . S
C733 C732 1.397 . S
C733 C734 1.334 . S
C734 H705 0.950 . S
C734 C733 1.334 . S
C734 C735 1.287 . S
C735 C734 1.287 . S
C735 C736 1.524 . S
C735 H738 0.999 . S
C736 H706 0.950 . S
C736 C735 1.524 . S
C736 C737 1.415 . S
C737 H707 0.950 . S
C737 C732 1.363 . S
C737 C736 1.415 . S
H738 C735 0.999 . S
H739 C720 0.913 . S
H740 C758 0.951 . S
H741 C760 0.951 . S
H742 C762 0.950 . S
H743 C763 0.950 . S
H744 C765 0.950 . S
H745 C768 0.950 . S
H746 C769 0.950 . S
H747 C771 0.950 . S
H748 C772 0.950 . S
H749 C773 0.951 . S
H750 C775 0.951 . S
H751 C777 0.950 . S
H752 C778 0.950 . S
H753 C780 0.950 . S
H754 C783 0.950 . S
H755 C784 0.950 . S
H756 C786 0.950 . S
H757 C787 0.950 . S
C758 H740 0.951 . S
C758 C759 1.366 . S
C758 C760 1.388 . S
C759 C758 1.366 . S
C759 C763 1.385 . S
C760 H741 0.951 . S
C760 C758 1.388 . S
C760 C761 1.366 . S
C761 C760 1.366 . S
C761 C762 1.414 . S
C761 C764 1.499 . S
C762 H742 0.950 . S
C762 C761 1.414 . S
C762 C763 1.374 . S
C763 H743 0.950 . S
C763 C759 1.385 . S
C763 C762 1.374 . S
C764 C761 1.499 . S
C764 C765 1.373 . S
C764 C766 1.389 . S
C765 H744 0.950 . S
C765 C764 1.373 . S
C765 C781 1.377 . S
C766 C764 1.389 . S
C766 C767 1.524 . S
C766 C780 1.377 . S
C767 C766 1.524 . S
C767 C768 1.397 . S
C767 C772 1.363 . S
C768 H745 0.950 . S
C768 C767 1.397 . S
C768 C769 1.334 . S
C769 H746 0.950 . S
C769 C768 1.334 . S
C769 C770 1.287 . S
C770 C769 1.287 . S
C770 C771 1.524 . S
C770 H789 0.913 . S
C771 H747 0.950 . S
C771 C770 1.524 . S
C771 C772 1.415 . S
C772 H748 0.950 . S
C772 C767 1.363 . S
C772 C771 1.415 . S
C773 H749 0.951 . S
C773 C774 1.366 . S
C773 C775 1.388 . S
C774 C773 1.366 . S
C774 C778 1.385 . S
C775 H750 0.951 . S
C775 C773 1.388 . S
C775 C776 1.366 . S
C776 C775 1.366 . S
C776 C777 1.414 . S
C776 C779 1.499 . S
C777 H751 0.950 . S
C777 C776 1.414 . S
C777 C778 1.374 . S
C778 H752 0.950 . S
C778 C774 1.385 . S
C778 C777 1.374 . S
C779 C776 1.499 . S
C779 C780 1.373 . S
C779 C781 1.389 . S
C780 H753 0.950 . S
C780 C766 1.377 . S
C780 C779 1.373 . S
C781 C765 1.377 . S
C781 C779 1.389 . S
C781 C782 1.524 . S
C782 C781 1.524 . S
C782 C783 1.397 . S
C782 C787 1.363 . S
C783 H754 0.950 . S
C783 C782 1.397 . S
C783 C784 1.334 . S
C784 H755 0.950 . S
C784 C783 1.334 . S
C784 C785 1.287 . S
C785 C784 1.287 . S
C785 C786 1.524 . S
C785 H788 0.999 . S
C786 H756 0.950 . S
C786 C785 1.524 . S
C786 C787 1.415 . S
C787 H757 0.950 . S
C787 C782 1.363 . S
C787 C786 1.415 . S
H788 C785 0.999 . S
H789 C770 0.913 . S
H790 C808 0.951 . S
H791 C810 0.951 . S
H792 C812 0.950 . S
H793 C813 0.950 . S
H794 C815 0.950 . S
H795 C818 0.950 . S
H796 C819 0.950 . S
H797 C821 0.950 . S
H798 C822 0.950 . S
H799 C823 0.951 . S
H800 C825 0.951 . S
H801 C827 0.924 1_545 S
H802 C828 0.950 . S
H803 C830 0.950 . S
H804 C833 0.950 . S
H805 C834 0.950 . S
H806 C836 0.950 . S
H807 C837 0.950 . S
C808 H790 0.951 . S
C808 C809 1.366 . S
C808 C810 1.388 . S
C809 C808 1.366 . S
C809 C813 1.385 . S
C810 H791 0.951 . S
C810 C808 1.388 . S
C810 C811 1.366 . S
C811 C810 1.366 . S
C811 C812 1.414 . S
C811 C814 1.499 . S
C812 H792 0.950 . S
C812 C811 1.414 . S
C812 C813 1.374 . S
C813 H793 0.950 . S
C813 C809 1.385 . S
C813 C812 1.374 . S
C814 C811 1.499 . S
C814 C815 1.373 . S
C814 C816 1.389 . S
C815 H794 0.950 . S
C815 C814 1.373 . S
C815 C831 1.377 . S
C816 C814 1.389 . S
C816 C817 1.524 . S
C816 C830 1.377 . S
C817 C816 1.524 . S
C817 C818 1.397 . S
C817 C822 1.363 . S
C818 H795 0.950 . S
C818 C817 1.397 . S
C818 C819 1.334 . S
C819 H796 0.950 . S
C819 C818 1.334 . S
C819 C820 1.287 . S
C820 C819 1.287 . S
C820 C821 1.524 . S
C820 H839 0.913 . S
C821 H797 0.950 . S
C821 C820 1.524 . S
C821 C822 1.415 . S
C822 H798 0.950 . S
C822 C817 1.363 . S
C822 C821 1.415 . S
C823 H799 0.951 . S
C823 C824 1.366 . S
C823 C825 1.388 . S
C824 C823 1.366 . S
C824 C828 1.385 . S
C825 H800 0.951 . S
C825 C823 1.388 . S
C825 C826 1.366 . S
C826 C825 1.366 . S
C826 C827 1.414 . S
C826 C829 1.499 1_565 S
C827 H801 0.924 1_565 S
C827 C826 1.414 . S
C827 C828 1.374 . S
C828 H802 0.950 . S
C828 C824 1.385 . S
C828 C827 1.374 . S
C829 C826 1.499 1_545 S
C829 C830 1.373 . S
C829 C831 1.389 . S
C830 H803 0.950 . S
C830 C816 1.377 . S
C830 C829 1.373 . S
C831 C815 1.377 . S
C831 C829 1.389 . S
C831 C832 1.524 1_545 S
C832 C831 1.524 1_565 S
C832 C833 1.397 . S
C832 C837 1.363 . S
C833 H804 0.950 . S
C833 C832 1.397 . S
C833 C834 1.334 . S
C834 H805 0.950 . S
C834 C833 1.334 . S
C834 C835 1.287 . S
C835 C834 1.287 . S
C835 C836 1.524 . S
C835 H838 0.999 . S
C836 H806 0.950 . S
C836 C835 1.524 . S
C836 C837 1.415 . S
C837 H807 0.950 . S
C837 C832 1.363 . S
C837 C836 1.415 . S
H838 C835 0.999 . S
H839 C820 0.913 . S
H840 C858 0.951 . S
H841 C860 0.951 . S
H842 C862 0.950 . S
H843 C863 0.950 . S
H844 C865 0.950 . S
H845 C868 0.950 . S
H846 C869 0.950 . S
H847 C871 0.950 . S
H848 C872 0.950 . S
H849 C873 0.951 . S
H850 C875 0.951 . S
H851 C877 0.950 . S
H852 C878 0.950 . S
H853 C880 0.950 . S
H854 C883 0.950 . S
H855 C884 0.950 . S
H856 C886 0.950 . S
H857 C887 0.950 . S
C858 H840 0.951 . S
C858 C859 1.366 . S
C858 C860 1.388 . S
C859 C858 1.366 . S
C859 C863 1.385 . S
C860 H841 0.951 . S
C860 C858 1.388 . S
C860 C861 1.366 . S
C861 C860 1.366 . S
C861 C862 1.414 . S
C861 C864 1.499 1_556 S
C862 H842 0.950 . S
C862 C861 1.414 . S
C862 C863 1.374 . S
C863 H843 0.950 . S
C863 C859 1.385 . S
C863 C862 1.374 . S
C864 C861 1.499 1_554 S
C864 C865 1.373 . S
C864 C866 1.389 . S
C865 H844 0.950 . S
C865 C864 1.373 . S
C865 C881 1.377 . S
C866 C864 1.389 . S
C866 C867 1.524 1_554 S
C866 C880 1.377 . S
C867 C866 1.524 1_556 S
C867 C868 1.397 . S
C867 C872 1.363 . S
C868 H845 0.950 . S
C868 C867 1.397 . S
C868 C869 1.334 . S
C869 H846 0.950 . S
C869 C868 1.334 . S
C869 C870 1.287 . S
C870 C869 1.287 . S
C870 C871 1.524 . S
C870 H889 0.913 . S
C871 H847 0.950 . S
C871 C870 1.524 . S
C871 C872 1.415 . S
C872 H848 0.950 . S
C872 C867 1.363 . S
C872 C871 1.415 . S
C873 H849 0.951 . S
C873 C874 1.366 . S
C873 C875 1.388 . S
C874 C873 1.366 . S
C874 C878 1.385 . S
C875 H850 0.951 . S
C875 C873 1.388 . S
C875 C876 1.366 . S
C876 C875 1.366 . S
C876 C877 1.414 . S
C876 C879 1.499 . S
C877 H851 0.950 . S
C877 C876 1.414 . S
C877 C878 1.374 . S
C878 H852 0.950 . S
C878 C874 1.385 . S
C878 C877 1.374 . S
C879 C876 1.499 . S
C879 C880 1.373 . S
C879 C881 1.389 . S
C880 H853 0.950 . S
C880 C866 1.377 . S
C880 C879 1.373 . S
C881 C865 1.377 . S
C881 C879 1.389 . S
C881 C882 1.524 . S
C882 C881 1.524 . S
C882 C883 1.397 . S
C882 C887 1.363 . S
C883 H854 0.950 . S
C883 C882 1.397 . S
C883 C884 1.334 . S
C884 H855 0.950 . S
C884 C883 1.334 . S
C884 C885 1.287 . S
C885 C884 1.287 . S
C885 C886 1.524 . S
C885 H888 0.999 . S
C886 H856 0.950 . S
C886 C885 1.524 . S
C886 C887 1.415 . S
C887 H857 0.950 . S
C887 C882 1.363 . S
C887 C886 1.415 . S
H888 C885 0.999 . S
H889 C870 0.913 . S
H890 C908 0.951 . S
H891 C910 0.951 . S
H892 C912 0.950 . S
H893 C913 0.950 . S
H894 C915 0.950 . S
H895 C918 0.950 . S
H896 C919 0.950 . S
H897 C921 0.950 . S
H898 C922 0.950 . S
H899 C923 0.951 . S
H900 C925 0.951 . S
H901 C927 0.950 . S
H902 C928 0.950 . S
H903 C930 0.950 . S
H904 C933 0.950 . S
H905 C934 0.950 . S
H906 C936 0.950 . S
H907 C937 0.950 . S
C908 H890 0.951 . S
C908 C909 1.366 . S
C908 C910 1.388 . S
C909 C908 1.366 . S
C909 C913 1.385 . S
C910 H891 0.951 . S
C910 C908 1.388 . S
C910 C911 1.366 . S
C911 C910 1.366 . S
C911 C912 1.414 . S
C911 C914 1.499 . S
C912 H892 0.950 . S
C912 C911 1.414 . S
C912 C913 1.374 . S
C913 H893 0.950 . S
C913 C909 1.385 . S
C913 C912 1.374 . S
C914 C911 1.499 . S
C914 C915 1.373 . S
C914 C916 1.389 . S
C915 H894 0.950 . S
C915 C914 1.373 . S
C915 C931 1.377 . S
C916 C914 1.389 . S
C916 C917 1.524 . S
C916 C930 1.377 . S
C917 C916 1.524 . S
C917 C918 1.397 . S
C917 C922 1.363 . S
C918 H895 0.950 . S
C918 C917 1.397 . S
C918 C919 1.334 . S
C919 H896 0.950 . S
C919 C918 1.334 . S
C919 C920 1.287 . S
C920 C919 1.287 . S
C920 C921 1.524 . S
C920 H939 0.913 . S
C921 H897 0.950 . S
C921 C920 1.524 . S
C921 C922 1.415 . S
C922 H898 0.950 . S
C922 C917 1.363 . S
C922 C921 1.415 . S
C923 H899 0.951 . S
C923 C924 1.366 . S
C923 C925 1.388 . S
C924 C923 1.366 . S
C924 C928 1.385 . S
C925 H900 0.951 . S
C925 C923 1.388 . S
C925 C926 1.366 . S
C926 C925 1.366 . S
C926 C927 1.414 . S
C926 C929 1.499 . S
C927 H901 0.950 . S
C927 C926 1.414 . S
C927 C928 1.374 . S
C928 H902 0.950 . S
C928 C924 1.385 . S
C928 C927 1.374 . S
C929 C926 1.499 . S
C929 C930 1.373 . S
C929 C931 1.389 . S
C930 H903 0.950 . S
C930 C916 1.377 . S
C930 C929 1.373 . S
C931 C915 1.377 . S
C931 C929 1.389 . S
C931 C932 1.524 . S
C932 C931 1.524 . S
C932 C933 1.397 . S
C932 C937 1.363 . S
C933 H904 0.950 . S
C933 C932 1.397 . S
C933 C934 1.334 . S
C934 H905 0.950 . S
C934 C933 1.334 . S
C934 C935 1.287 . S
C935 C934 1.287 . S
C935 C936 1.524 . S
C935 H938 0.999 . S
C936 H906 0.950 . S
C936 C935 1.524 . S
C936 C937 1.415 . S
C937 H907 0.950 . S
C937 C932 1.363 . S
C937 C936 1.415 . S
H938 C935 0.999 . S
H939 C920 0.913 . S
H940 C958 0.951 . S
H941 C960 0.951 . S
H942 C962 0.950 . S
H943 C963 0.950 . S
H944 C965 0.950 . S
H945 C968 0.950 . S
H946 C969 0.950 . S
H947 C971 0.950 . S
H948 C972 0.950 . S
H949 C973 0.951 . S
H950 C975 0.951 . S
H951 C977 0.950 . S
H952 C978 0.950 . S
H953 C980 0.950 . S
H954 C983 0.950 . S
H955 C984 0.950 . S
H956 C986 0.950 . S
H957 C987 0.950 . S
C958 H940 0.951 . S
C958 C959 1.366 . S
C958 C960 1.388 . S
C959 C958 1.366 . S
C959 C963 1.385 . S
C960 H941 0.951 . S
C960 C958 1.388 . S
C960 C961 1.366 . S
C961 C960 1.366 . S
C961 C962 1.414 . S
C961 C964 1.479 1_554 S
C962 H942 0.950 . S
C962 C961 1.414 . S
C962 C963 1.374 . S
C963 H943 0.950 . S
C963 C959 1.385 . S
C963 C962 1.374 . S
C964 C961 1.479 1_556 S
C964 C965 1.391 . S
C964 C966 1.392 . S
C965 H944 0.950 . S
C965 C964 1.391 . S
C965 C981 1.377 . S
C966 C964 1.392 . S
C966 C967 1.524 1_556 S
C966 C980 1.377 . S
C967 C966 1.524 1_554 S
C967 C968 1.397 . S
C967 C972 1.363 . S
C968 H945 0.950 . S
C968 C967 1.397 . S
C968 C969 1.334 . S
C969 H946 0.950 . S
C969 C968 1.334 . S
C969 C970 1.287 . S
C970 C969 1.287 . S
C970 C971 1.524 . S
C970 H989 0.913 . S
C971 H947 0.950 . S
C971 C970 1.524 . S
C971 C972 1.415 . S
C972 H948 0.950 . S
C972 C967 1.363 . S
C972 C971 1.415 . S
C973 H949 0.951 . S
C973 C974 1.366 . S
C973 C975 1.388 . S
C974 C973 1.366 . S
C974 C978 1.385 . S
C975 H950 0.951 . S
C975 C973 1.388 . S
C975 C976 1.366 . S
C976 C975 1.366 . S
C976 C977 1.414 . S
C976 C979 1.499 . S
C977 H951 0.950 . S
C977 C976 1.414 . S
C977 C978 1.374 . S
C978 H952 0.950 . S
C978 C974 1.385 . S
C978 C977 1.374 . S
C979 C976 1.499 . S
C979 C980 1.373 . S
C979 C981 1.389 . S
C980 H953 0.950 . S
C980 C966 1.377 . S
C980 C979 1.373 . S
C981 C965 1.377 . S
C981 C979 1.389 . S
C981 C982 1.524 . S
C982 C981 1.524 . S
C982 C983 1.397 . S
C982 C987 1.363 . S
C983 H954 0.950 . S
C983 C982 1.397 . S
C983 C984 1.334 . S
C984 H955 0.950 . S
C984 C983 1.334 . S
C984 C985 1.287 . S
C985 C984 1.287 . S
C985 C986 1.524 . S
C985 H988 0.999 . S
C986 H956 0.950 . S
C986 C985 1.524 . S
C986 C987 1.415 . S
C987 H957 0.950 . S
C987 C982 1.363 . S
C987 C986 1.415 . S
H988 C985 0.999 . S
H989 C970 0.913 . S
H990 C1008 0.951 . S
H991 C1010 0.951 . S
H992 C1012 0.950 . S
H993 C1013 0.950 . S
H994 C1015 0.950 . S
H995 C1018 0.950 . S
H996 C1019 0.950 . S
H997 C1021 0.950 . S
H998 C1022 0.950 . S
H999 C1023 0.951 . S
H1000 C1025 0.951 . S
H1001 C1027 0.950 . S
H1002 C1028 0.950 . S
H1003 C1030 0.950 . S
H1004 C1033 0.950 . S
H1005 C1034 0.950 . S
H1006 C1036 0.950 . S
H1007 C1037 0.950 . S
C1008 H990 0.951 . S
C1008 C1009 1.366 . S
C1008 C1010 1.388 . S
C1009 C1008 1.366 . S
C1009 C1013 1.385 . S
C1010 H991 0.951 . S
C1010 C1008 1.388 . S
C1010 C1011 1.366 . S
C1011 C1010 1.366 . S
C1011 C1012 1.414 . S
C1011 C1014 1.499 . S
C1012 H992 0.950 . S
C1012 C1011 1.414 . S
C1012 C1013 1.374 . S
C1013 H993 0.950 . S
C1013 C1009 1.385 . S
C1013 C1012 1.374 . S
C1014 C1011 1.499 . S
C1014 C1015 1.373 . S
C1014 C1016 1.389 . S
C1015 H994 0.950 . S
C1015 C1014 1.373 . S
C1015 C1031 1.377 . S
C1016 C1014 1.389 . S
C1016 C1017 1.524 . S
C1016 C1030 1.377 . S
C1017 C1016 1.524 . S
C1017 C1018 1.397 . S
C1017 C1022 1.363 . S
C1018 H995 0.950 . S
C1018 C1017 1.397 . S
C1018 C1019 1.334 . S
C1019 H996 0.950 . S
C1019 C1018 1.334 . S
C1019 C1020 1.287 . S
C1020 C1019 1.287 . S
C1020 C1021 1.524 . S
C1020 H1039 0.913 . S
C1021 H997 0.950 . S
C1021 C1020 1.524 . S
C1021 C1022 1.415 . S
C1022 H998 0.950 . S
C1022 C1017 1.363 . S
C1022 C1021 1.415 . S
C1023 H999 0.951 . S
C1023 C1024 1.366 . S
C1023 C1025 1.388 . S
C1024 C1023 1.366 . S
C1024 C1028 1.385 . S
C1025 H1000 0.951 . S
C1025 C1023 1.388 . S
C1025 C1026 1.366 . S
C1026 C1025 1.366 . S
C1026 C1027 1.414 . S
C1026 C1029 1.499 . S
C1027 H1001 0.950 . S
C1027 C1026 1.414 . S
C1027 C1028 1.374 . S
C1028 H1002 0.950 . S
C1028 C1024 1.385 . S
C1028 C1027 1.374 . S
C1029 C1026 1.499 . S
C1029 C1030 1.373 . S
C1029 C1031 1.389 . S
C1030 H1003 0.950 . S
C1030 C1016 1.377 . S
C1030 C1029 1.373 . S
C1031 C1015 1.377 . S
C1031 C1029 1.389 . S
C1031 C1032 1.524 . S
C1032 C1031 1.524 . S
C1032 C1033 1.397 . S
C1032 C1037 1.363 . S
C1033 H1004 0.950 . S
C1033 C1032 1.397 . S
C1033 C1034 1.334 . S
C1034 H1005 0.950 . S
C1034 C1033 1.334 . S
C1034 C1035 1.287 . S
C1035 C1034 1.287 . S
C1035 C1036 1.524 . S
C1035 H1038 0.999 . S
C1036 H1006 0.950 . S
C1036 C1035 1.524 . S
C1036 C1037 1.415 . S
C1037 H1007 0.950 . S
C1037 C1032 1.363 . S
C1037 C1036 1.415 . S
H1038 C1035 0.999 . S
H1039 C1020 0.913 . S
H1040 C1058 0.951 . S
H1041 C1060 0.951 . S
H1042 C1062 0.950 . S
H1043 C1063 0.950 . S
H1044 C1065 0.950 . S
H1045 C1068 0.950 . S
H1046 C1069 0.950 . S
H1047 C1071 0.950 . S
H1048 C1072 0.950 1_556 S
H1049 C1073 0.951 . S
H1050 C1075 0.951 . S
H1051 C1077 0.950 . S
H1052 C1078 0.950 . S
H1053 C1080 0.950 . S
H1054 C1083 0.950 . S
H1055 C1084 0.950 . S
H1056 C1086 0.950 . S
H1057 C1087 0.950 . S
C1058 H1040 0.951 . S
C1058 C1059 1.366 . S
C1058 C1060 1.388 . S
C1059 C1058 1.366 . S
C1059 C1063 1.385 . S
C1060 H1041 0.951 . S
C1060 C1058 1.388 . S
C1060 C1061 1.366 . S
C1061 C1060 1.366 . S
C1061 C1062 1.414 . S
C1061 C1064 1.499 1_554 S
C1062 H1042 0.950 . S
C1062 C1061 1.414 . S
C1062 C1063 1.374 . S
C1063 H1043 0.950 . S
C1063 C1059 1.385 . S
C1063 C1062 1.374 . S
C1064 C1061 1.499 1_556 S
C1064 C1065 1.373 . S
C1064 C1066 1.389 . S
C1065 H1044 0.950 . S
C1065 C1064 1.373 . S
C1065 C1081 1.377 . S
C1066 C1064 1.389 . S
C1066 C1067 1.524 1_556 S
C1066 C1080 1.377 . S
C1067 C1066 1.524 1_554 S
C1067 C1068 1.397 . S
C1067 C1072 1.363 . S
C1068 H1045 0.950 . S
C1068 C1067 1.397 . S
C1068 C1069 1.334 . S
C1069 H1046 0.950 . S
C1069 C1068 1.334 . S
C1069 C1070 1.287 . S
C1070 C1069 1.287 . S
C1070 C1071 1.524 . S
C1070 H1089 0.913 . S
C1071 H1047 0.950 . S
C1071 C1070 1.524 . S
C1071 C1072 1.415 . S
C1072 H1048 0.950 1_554 S
C1072 C1067 1.363 . S
C1072 C1071 1.415 . S
C1073 H1049 0.951 . S
C1073 C1074 1.366 . S
C1073 C1075 1.388 . S
C1074 C1073 1.366 . S
C1074 C1078 1.385 . S
C1075 H1050 0.951 . S
C1075 C1073 1.388 . S
C1075 C1076 1.366 . S
C1076 C1075 1.366 . S
C1076 C1077 1.414 . S
C1076 C1079 1.499 . S
C1077 H1051 0.950 . S
C1077 C1076 1.414 . S
C1077 C1078 1.374 . S
C1078 H1052 0.950 . S
C1078 C1074 1.385 . S
C1078 C1077 1.374 . S
C1079 C1076 1.499 . S
C1079 C1080 1.373 . S
C1079 C1081 1.389 . S
C1080 H1053 0.950 . S
C1080 C1066 1.377 . S
C1080 C1079 1.373 . S
C1081 C1065 1.377 . S
C1081 C1079 1.389 . S
C1081 C1082 1.524 . S
C1082 C1081 1.524 . S
C1082 C1083 1.397 . S
C1082 C1087 1.363 . S
C1083 H1054 0.950 . S
C1083 C1082 1.397 . S
C1083 C1084 1.334 . S
C1084 H1055 0.950 . S
C1084 C1083 1.334 . S
C1084 C1085 1.287 . S
C1085 C1084 1.287 . S
C1085 C1086 1.524 . S
C1085 H1088 0.999 . S
C1086 H1056 0.950 . S
C1086 C1085 1.524 . S
C1086 C1087 1.415 . S
C1087 H1057 0.950 . S
C1087 C1082 1.363 . S
C1087 C1086 1.415 . S
H1088 C1085 0.999 . S
H1089 C1070 0.913 . S
H1090 C1108 0.951 . S
H1091 C1110 0.951 . S
H1092 C1112 0.950 . S
H1093 C1113 0.950 . S
H1094 C1115 0.950 . S
H1095 C1118 0.950 . S
H1096 C1119 0.950 . S
H1097 C1121 0.950 . S
H1098 C1122 0.950 . S
H1099 C1123 0.951 . S
H1100 C1125 0.951 . S
H1101 C1127 0.950 . S
H1102 C1128 0.950 . S
H1103 C1130 0.950 . S
H1104 C1133 0.950 . S
H1105 C1134 0.950 . S
H1106 C1136 0.950 . S
H1107 C1137 0.950 . S
C1108 H1090 0.951 . S
C1108 C1109 1.366 . S
C1108 C1110 1.388 . S
C1109 C1108 1.366 . S
C1109 C1113 1.385 . S
C1110 H1091 0.951 . S
C1110 C1108 1.388 . S
C1110 C1111 1.366 . S
C1111 C1110 1.366 . S
C1111 C1112 1.414 . S
C1111 C1114 1.499 . S
C1112 H1092 0.950 . S
C1112 C1111 1.414 . S
C1112 C1113 1.374 . S
C1113 H1093 0.950 . S
C1113 C1109 1.385 . S
C1113 C1112 1.374 . S
C1114 C1111 1.499 . S
C1114 C1115 1.373 . S
C1114 C1116 1.389 . S
C1115 H1094 0.950 . S
C1115 C1114 1.373 . S
C1115 C1131 1.377 . S
C1116 C1114 1.389 . S
C1116 C1117 1.524 . S
C1116 C1130 1.377 . S
C1117 C1116 1.524 . S
C1117 C1118 1.397 . S
C1117 C1122 1.363 . S
C1118 H1095 0.950 . S
C1118 C1117 1.397 . S
C1118 C1119 1.334 . S
C1119 H1096 0.950 . S
C1119 C1118 1.334 . S
C1119 C1120 1.287 . S
C1120 C1119 1.287 . S
C1120 C1121 1.524 . S
C1120 H1139 0.913 . S
C1121 H1097 0.950 . S
C1121 C1120 1.524 . S
C1121 C1122 1.415 . S
C1122 H1098 0.950 . S
C1122 C1117 1.363 . S
C1122 C1121 1.415 . S
C1123 H1099 0.951 . S
C1123 C1124 1.366 . S
C1123 C1125 1.388 . S
C1124 C1123 1.366 . S
C1124 C1128 1.385 . S
C1125 H1100 0.951 . S
C1125 C1123 1.388 . S
C1125 C1126 1.366 . S
C1126 C1125 1.366 . S
C1126 C1127 1.414 . S
C1126 C1129 1.499 . S
C1127 H1101 0.950 . S
C1127 C1126 1.414 . S
C1127 C1128 1.374 . S
C1128 H1102 0.950 . S
C1128 C1124 1.385 . S
C1128 C1127 1.374 . S
C1129 C1126 1.499 . S
C1129 C1130 1.373 . S
C1129 C1131 1.389 . S
C1130 H1103 0.950 . S
C1130 C1116 1.377 . S
C1130 C1129 1.373 . S
C1131 C1115 1.377 . S
C1131 C1129 1.389 . S
C1131 C1132 1.524 . S
C1132 C1131 1.524 . S
C1132 C1133 1.397 . S
C1132 C1137 1.363 . S
C1133 H1104 0.950 . S
C1133 C1132 1.397 . S
C1133 C1134 1.334 . S
C1134 H1105 0.950 . S
C1134 C1133 1.334 . S
C1134 C1135 1.287 . S
C1135 C1134 1.287 . S
C1135 C1136 1.524 . S
C1135 H1138 0.999 . S
C1136 H1106 0.950 . S
C1136 C1135 1.524 . S
C1136 C1137 1.415 . S
C1137 H1107 0.950 . S
C1137 C1132 1.363 . S
C1137 C1136 1.415 . S
H1138 C1135 0.999 . S
H1139 C1120 0.913 . S
H1140 C1158 0.951 . S
H1141 C1160 0.951 . S
H1142 C1162 0.950 . S
H1143 C1163 0.950 . S
H1144 C1165 0.950 1_556 S
H1145 C1168 0.939 1_556 S
H1146 C1169 0.950 . S
H1147 C1171 0.950 . S
H1148 C1172 0.950 . S
H1149 C1173 0.951 . S
H1150 C1175 0.951 . S
H1151 C1177 0.950 . S
H1152 C1178 0.950 . S
H1153 C1180 0.950 . S
H1154 C1183 0.950 . S
H1155 C1184 0.950 . S
H1156 C1186 0.950 . S
H1157 C1187 0.950 . S
C1158 H1140 0.951 . S
C1158 C1159 1.366 . S
C1158 C1160 1.388 . S
C1159 C1158 1.366 . S
C1159 C1163 1.385 . S
C1160 H1141 0.951 . S
C1160 C1158 1.388 . S
C1160 C1161 1.366 . S
C1161 C1160 1.366 . S
C1161 C1162 1.414 . S
C1161 C1164 1.481 1_556 S
C1162 H1142 0.950 . S
C1162 C1161 1.414 . S
C1162 C1163 1.374 . S
C1163 H1143 0.950 . S
C1163 C1159 1.385 . S
C1163 C1162 1.374 . S
C1164 C1161 1.481 1_554 S
C1164 C1165 1.376 . S
C1164 C1166 1.405 . S
C1165 H1144 0.950 1_554 S
C1165 C1164 1.376 . S
C1165 C1181 1.377 . S
C1166 C1164 1.405 . S
C1166 C1167 1.524 . S
C1166 C1180 1.377 . S
C1167 C1166 1.524 . S
C1167 C1168 1.409 . S
C1167 C1172 1.363 . S
C1168 H1145 0.939 1_554 S
C1168 C1167 1.409 . S
C1168 C1169 1.332 1_554 S
C1169 H1146 0.950 . S
C1169 C1168 1.332 1_556 S
C1169 C1170 1.287 1_556 S
C1170 C1169 1.287 1_554 S
C1170 C1171 1.524 . S
C1170 H1189 0.913 . S
C1171 H1147 0.950 . S
C1171 C1170 1.524 . S
C1171 C1172 1.415 . S
C1172 H1148 0.950 . S
C1172 C1167 1.363 . S
C1172 C1171 1.415 . S
C1173 H1149 0.951 . S
C1173 C1174 1.366 . S
C1173 C1175 1.388 . S
C1174 C1173 1.366 . S
C1174 C1178 1.385 . S
C1175 H1150 0.951 . S
C1175 C1173 1.388 . S
C1175 C1176 1.366 . S
C1176 C1175 1.366 . S
C1176 C1177 1.414 . S
C1176 C1179 1.499 . S
C1177 H1151 0.950 . S
C1177 C1176 1.414 . S
C1177 C1178 1.374 . S
C1178 H1152 0.950 . S
C1178 C1174 1.385 . S
C1178 C1177 1.374 . S
C1179 C1176 1.499 . S
C1179 C1180 1.373 . S
C1179 C1181 1.389 . S
C1180 H1153 0.950 . S
C1180 C1166 1.377 . S
C1180 C1179 1.373 . S
C1181 C1165 1.377 . S
C1181 C1179 1.389 . S
C1181 C1182 1.524 . S
C1182 C1181 1.524 . S
C1182 C1183 1.397 . S
C1182 C1187 1.363 . S
C1183 H1154 0.950 . S
C1183 C1182 1.397 . S
C1183 C1184 1.334 . S
C1184 H1155 0.950 . S
C1184 C1183 1.334 . S
C1184 C1185 1.287 . S
C1185 C1184 1.287 . S
C1185 C1186 1.524 . S
C1185 H1188 0.999 . S
C1186 H1156 0.950 . S
C1186 C1185 1.524 . S
C1186 C1187 1.415 . S
C1187 H1157 0.950 . S
C1187 C1182 1.363 . S
C1187 C1186 1.415 . S
H1188 C1185 0.999 . S
H1189 C1170 0.913 . S
H1190 C1208 0.951 . S
H1191 C1210 0.951 . S
H1192 C1212 0.950 . S
H1193 C1213 0.950 . S
H1194 C1215 0.950 . S
H1195 C1218 0.950 . S
H1196 C1219 0.950 . S
H1197 C1221 0.950 . S
H1198 C1222 0.950 . S
H1199 C1223 0.951 . S
H1200 C1225 0.951 . S
H1201 C1227 0.950 . S
H1202 C1228 0.950 . S
H1203 C1230 0.950 . S
H1204 C1233 0.950 . S
H1205 C1234 0.950 . S
H1206 C1236 0.947 . S
H1207 C1237 0.950 . S
C1208 H1190 0.951 . S
C1208 C1209 1.366 . S
C1208 C1210 1.388 . S
C1209 C1208 1.366 . S
C1209 C1213 1.385 . S
C1210 H1191 0.951 . S
C1210 C1208 1.388 . S
C1210 C1211 1.366 . S
C1211 C1210 1.366 . S
C1211 C1212 1.414 . S
C1211 C1214 1.499 . S
C1212 H1192 0.950 . S
C1212 C1211 1.414 . S
C1212 C1213 1.374 . S
C1213 H1193 0.950 . S
C1213 C1209 1.385 . S
C1213 C1212 1.374 . S
C1214 C1211 1.499 . S
C1214 C1215 1.373 . S
C1214 C1216 1.389 . S
C1215 H1194 0.950 . S
C1215 C1214 1.373 . S
C1215 C1231 1.377 . S
C1216 C1214 1.389 . S
C1216 C1217 1.524 . S
C1216 C1230 1.377 . S
C1217 C1216 1.524 . S
C1217 C1218 1.397 . S
C1217 C1222 1.363 . S
C1218 H1195 0.950 . S
C1218 C1217 1.397 . S
C1218 C1219 1.334 . S
C1219 H1196 0.950 . S
C1219 C1218 1.334 . S
C1219 C1220 1.287 . S
C1220 C1219 1.287 . S
C1220 C1221 1.524 . S
C1220 H1239 0.913 . S
C1221 H1197 0.950 . S
C1221 C1220 1.524 . S
C1221 C1222 1.415 . S
C1222 H1198 0.950 . S
C1222 C1217 1.363 . S
C1222 C1221 1.415 . S
C1223 H1199 0.951 . S
C1223 C1224 1.366 . S
C1223 C1225 1.388 . S
C1224 C1223 1.366 . S
C1224 C1228 1.385 . S
C1225 H1200 0.951 . S
C1225 C1223 1.388 . S
C1225 C1226 1.366 . S
C1226 C1225 1.366 . S
C1226 C1227 1.414 . S
C1226 C1229 1.499 . S
C1227 H1201 0.950 . S
C1227 C1226 1.414 . S
C1227 C1228 1.374 . S
C1228 H1202 0.950 . S
C1228 C1224 1.385 . S
C1228 C1227 1.374 . S
C1229 C1226 1.499 . S
C1229 C1230 1.373 . S
C1229 C1231 1.389 . S
C1230 H1203 0.950 . S
C1230 C1216 1.377 . S
C1230 C1229 1.373 . S
C1231 C1215 1.377 . S
C1231 C1229 1.389 . S
C1231 C1232 1.524 . S
C1232 C1231 1.524 . S
C1232 C1233 1.397 . S
C1232 C1237 1.363 . S
C1233 H1204 0.950 . S
C1233 C1232 1.397 . S
C1233 C1234 1.334 . S
C1234 H1205 0.950 . S
C1234 C1233 1.334 . S
C1234 C1235 1.287 . S
C1235 C1234 1.287 . S
C1235 C1236 1.524 . S
C1235 H1238 0.999 . S
C1236 H1206 0.947 . S
C1236 C1235 1.524 . S
C1236 C1237 1.415 . S
C1237 H1207 0.950 . S
C1237 C1232 1.363 . S
C1237 C1236 1.415 . S
H1238 C1235 0.999 . S
H1239 C1220 0.913 . S
H1240 C1258 0.951 . S
H1241 C1260 0.951 . S
H1242 C1262 0.950 . S
H1243 C1263 0.950 . S
H1244 C1265 0.950 . S
H1245 C1268 0.950 . S
H1246 C1269 0.950 . S
H1247 C1271 0.950 . S
H1248 C1272 0.950 . S
H1249 C1273 0.951 . S
H1250 C1275 0.951 . S
H1251 C1277 0.950 . S
H1252 C1278 0.950 . S
H1253 C1280 0.950 . S
H1254 C1283 0.950 . S
H1255 C1284 0.950 . S
H1256 C1286 0.950 . S
H1257 C1287 0.950 . S
C1258 H1240 0.951 . S
C1258 C1259 1.366 . S
C1258 C1260 1.388 . S
C1259 C1258 1.366 . S
C1259 C1263 1.385 . S
C1260 H1241 0.951 . S
C1260 C1258 1.388 . S
C1260 C1261 1.366 . S
C1261 C1260 1.366 . S
C1261 C1262 1.414 . S
C1261 C1264 1.499 . S
C1262 H1242 0.950 . S
C1262 C1261 1.414 . S
C1262 C1263 1.374 . S
C1263 H1243 0.950 . S
C1263 C1259 1.385 . S
C1263 C1262 1.374 . S
C1264 C1261 1.499 . S
C1264 C1265 1.373 . S
C1264 C1266 1.389 . S
C1265 H1244 0.950 . S
C1265 C1264 1.373 . S
C1265 C1281 1.377 . S
C1266 C1264 1.389 . S
C1266 C1267 1.524 . S
C1266 C1280 1.377 . S
C1267 C1266 1.524 . S
C1267 C1268 1.397 . S
C1267 C1272 1.363 . S
C1268 H1245 0.950 . S
C1268 C1267 1.397 . S
C1268 C1269 1.334 . S
C1269 H1246 0.950 . S
C1269 C1268 1.334 . S
C1269 C1270 1.287 . S
C1270 C1269 1.287 . S
C1270 C1271 1.524 . S
C1270 H1289 0.913 . S
C1271 H1247 0.950 . S
C1271 C1270 1.524 . S
C1271 C1272 1.415 . S
C1272 H1248 0.950 . S
C1272 C1267 1.363 . S
C1272 C1271 1.415 . S
C1273 H1249 0.951 . S
C1273 C1274 1.366 . S
C1273 C1275 1.388 . S
C1274 C1273 1.366 . S
C1274 C1278 1.385 . S
C1275 H1250 0.951 . S
C1275 C1273 1.388 . S
C1275 C1276 1.366 . S
C1276 C1275 1.366 . S
C1276 C1277 1.414 . S
C1276 C1279 1.499 . S
C1277 H1251 0.950 . S
C1277 C1276 1.414 . S
C1277 C1278 1.374 . S
C1278 H1252 0.950 . S
C1278 C1274 1.385 . S
C1278 C1277 1.374 . S
C1279 C1276 1.499 . S
C1279 C1280 1.373 . S
C1279 C1281 1.389 . S
C1280 H1253 0.950 . S
C1280 C1266 1.377 . S
C1280 C1279 1.373 . S
C1281 C1265 1.377 . S
C1281 C1279 1.389 . S
C1281 C1282 1.524 . S
C1282 C1281 1.524 . S
C1282 C1283 1.397 . S
C1282 C1287 1.363 . S
C1283 H1254 0.950 . S
C1283 C1282 1.397 . S
C1283 C1284 1.334 . S
C1284 H1255 0.950 . S
C1284 C1283 1.334 . S
C1284 C1285 1.287 . S
C1285 C1284 1.287 . S
C1285 C1286 1.524 . S
C1285 H1288 0.999 . S
C1286 H1256 0.950 . S
C1286 C1285 1.524 . S
C1286 C1287 1.415 . S
C1287 H1257 0.950 . S
C1287 C1282 1.363 . S
C1287 C1286 1.415 . S
H1288 C1285 0.999 . S
H1289 C1270 0.913 . S
H1290 C1308 0.951 . S
H1291 C1310 0.951 . S
H1292 C1312 0.950 . S
H1293 C1313 0.950 . S
H1294 C1315 0.950 . S
H1295 C1318 0.950 . S
H1296 C1319 0.950 . S
H1297 C1321 0.950 . S
H1298 C1322 0.950 . S
H1299 C1323 0.951 . S
H1300 C1325 0.951 . S
H1301 C1327 0.950 . S
H1302 C1328 0.950 . S
H1303 C1330 0.950 . S
H1304 C1333 0.950 . S
H1305 C1334 0.950 . S
H1306 C1336 0.950 . S
H1307 C1337 0.950 . S
C1308 H1290 0.951 . S
C1308 C1309 1.366 . S
C1308 C1310 1.388 . S
C1309 C1308 1.366 . S
C1309 C1313 1.385 . S
C1310 H1291 0.951 . S
C1310 C1308 1.388 . S
C1310 C1311 1.366 . S
C1311 C1310 1.366 . S
C1311 C1312 1.414 . S
C1311 C1314 1.499 . S
C1312 H1292 0.950 . S
C1312 C1311 1.414 . S
C1312 C1313 1.374 . S
C1313 H1293 0.950 . S
C1313 C1309 1.385 . S
C1313 C1312 1.374 . S
C1314 C1311 1.499 . S
C1314 C1315 1.373 . S
C1314 C1316 1.389 . S
C1315 H1294 0.950 . S
C1315 C1314 1.373 . S
C1315 C1331 1.377 . S
C1316 C1314 1.389 . S
C1316 C1317 1.524 . S
C1316 C1330 1.377 . S
C1317 C1316 1.524 . S
C1317 C1318 1.397 . S
C1317 C1322 1.363 . S
C1318 H1295 0.950 . S
C1318 C1317 1.397 . S
C1318 C1319 1.334 . S
C1319 H1296 0.950 . S
C1319 C1318 1.334 . S
C1319 C1320 1.287 . S
C1320 C1319 1.287 . S
C1320 C1321 1.524 . S
C1320 H1339 0.913 . S
C1321 H1297 0.950 . S
C1321 C1320 1.524 . S
C1321 C1322 1.415 . S
C1322 H1298 0.950 . S
C1322 C1317 1.363 . S
C1322 C1321 1.415 . S
C1323 H1299 0.951 . S
C1323 C1324 1.366 . S
C1323 C1325 1.388 . S
C1324 C1323 1.366 . S
C1324 C1328 1.385 . S
C1325 H1300 0.951 . S
C1325 C1323 1.388 . S
C1325 C1326 1.366 . S
C1326 C1325 1.366 . S
C1326 C1327 1.414 . S
C1326 C1329 1.499 . S
C1327 H1301 0.950 . S
C1327 C1326 1.414 . S
C1327 C1328 1.374 . S
C1328 H1302 0.950 . S
C1328 C1324 1.385 . S
C1328 C1327 1.374 . S
C1329 C1326 1.499 . S
C1329 C1330 1.373 . S
C1329 C1331 1.389 . S
C1330 H1303 0.950 . S
C1330 C1316 1.377 . S
C1330 C1329 1.373 . S
C1331 C1315 1.377 . S
C1331 C1329 1.389 . S
C1331 C1332 1.524 . S
C1332 C1331 1.524 . S
C1332 C1333 1.397 . S
C1332 C1337 1.363 . S
C1333 H1304 0.950 . S
C1333 C1332 1.397 . S
C1333 C1334 1.334 . S
C1334 H1305 0.950 . S
C1334 C1333 1.334 . S
C1334 C1335 1.287 . S
C1335 C1334 1.287 . S
C1335 C1336 1.524 . S
C1335 H1338 0.999 . S
C1336 H1306 0.950 . S
C1336 C1335 1.524 . S
C1336 C1337 1.415 . S
C1337 H1307 0.950 . S
C1337 C1332 1.363 . S
C1337 C1336 1.415 . S
H1338 C1335 0.999 . S
H1339 C1320 0.913 . S
H1340 C1358 0.951 . S
H1341 C1360 0.951 . S
H1342 C1362 0.950 . S
H1343 C1363 0.950 . S
H1344 C1365 0.950 . S
H1345 C1368 0.950 . S
H1346 C1369 0.950 . S
H1347 C1371 0.950 . S
H1348 C1372 0.950 . S
H1349 C1373 0.951 . S
H1350 C1375 0.951 . S
H1351 C1377 0.950 . S
H1352 C1378 0.950 . S
H1353 C1380 0.950 . S
H1354 C1383 0.950 . S
H1355 C1384 0.950 . S
H1356 C1386 0.950 . S
H1357 C1387 0.950 . S
C1358 H1340 0.951 . S
C1358 C1359 1.366 . S
C1358 C1360 1.388 . S
C1359 C1358 1.366 . S
C1359 C1363 1.385 . S
C1360 H1341 0.951 . S
C1360 C1358 1.388 . S
C1360 C1361 1.366 . S
C1361 C1360 1.366 . S
C1361 C1362 1.414 . S
C1361 C1364 1.499 . S
C1362 H1342 0.950 . S
C1362 C1361 1.414 . S
C1362 C1363 1.374 . S
C1363 H1343 0.950 . S
C1363 C1359 1.385 . S
C1363 C1362 1.374 . S
C1364 C1361 1.499 . S
C1364 C1365 1.373 . S
C1364 C1366 1.389 . S
C1365 H1344 0.950 . S
C1365 C1364 1.373 . S
C1365 C1381 1.377 . S
C1366 C1364 1.389 . S
C1366 C1367 1.524 . S
C1366 C1380 1.377 . S
C1367 C1366 1.524 . S
C1367 C1368 1.397 . S
C1367 C1372 1.363 . S
C1368 H1345 0.950 . S
C1368 C1367 1.397 . S
C1368 C1369 1.334 . S
C1369 H1346 0.950 . S
C1369 C1368 1.334 . S
C1369 C1370 1.287 . S
C1370 C1369 1.287 . S
C1370 C1371 1.524 . S
C1370 H1389 0.913 . S
C1371 H1347 0.950 . S
C1371 C1370 1.524 . S
C1371 C1372 1.415 . S
C1372 H1348 0.950 . S
C1372 C1367 1.363 . S
C1372 C1371 1.415 . S
C1373 H1349 0.951 . S
C1373 C1374 1.366 . S
C1373 C1375 1.388 . S
C1374 C1373 1.366 . S
C1374 C1378 1.385 . S
C1375 H1350 0.951 . S
C1375 C1373 1.388 . S
C1375 C1376 1.366 . S
C1376 C1375 1.366 . S
C1376 C1377 1.414 . S
C1376 C1379 1.499 . S
C1377 H1351 0.950 . S
C1377 C1376 1.414 . S
C1377 C1378 1.374 . S
C1378 H1352 0.950 . S
C1378 C1374 1.385 . S
C1378 C1377 1.374 . S
C1379 C1376 1.499 . S
C1379 C1380 1.373 . S
C1379 C1381 1.389 . S
C1380 H1353 0.950 . S
C1380 C1366 1.377 . S
C1380 C1379 1.373 . S
C1381 C1365 1.377 . S
C1381 C1379 1.389 . S
C1381 C1382 1.524 . S
C1382 C1381 1.524 . S
C1382 C1383 1.397 . S
C1382 C1387 1.363 . S
C1383 H1354 0.950 . S
C1383 C1382 1.397 . S
C1383 C1384 1.334 . S
C1384 H1355 0.950 . S
C1384 C1383 1.334 . S
C1384 C1385 1.287 . S
C1385 C1384 1.287 . S
C1385 C1386 1.524 . S
C1385 H1388 0.999 . S
C1386 H1356 0.950 . S
C1386 C1385 1.524 . S
C1386 C1387 1.415 . S
C1387 H1357 0.950 . S
C1387 C1382 1.363 . S
C1387 C1386 1.415 . S
H1388 C1385 0.999 . S
H1389 C1370 0.913 . S
H1390 C1408 0.951 . S
H1391 C1410 0.951 . S
H1392 C1412 0.950 . S
H1393 C1413 0.950 . S
H1394 C1415 0.950 . S
H1395 C1418 0.950 . S
H1396 C1419 0.950 . S
H1397 C1421 0.950 . S
H1398 C1422 0.950 . S
H1399 C1423 0.951 . S
H1400 C1425 0.951 . S
H1401 C1427 0.950 . S
H1402 C1428 0.953 . S
H1403 C1430 0.950 . S
H1404 C1433 0.950 . S
H1405 C1434 0.950 . S
H1406 C1436 0.950 . S
H1407 C1437 0.950 . S
C1408 H1390 0.951 . S
C1408 C1409 1.366 . S
C1408 C1410 1.388 . S
C1409 C1408 1.366 . S
C1409 C1413 1.385 . S
C1410 H1391 0.951 . S
C1410 C1408 1.388 . S
C1410 C1411 1.366 . S
C1411 C1410 1.366 . S
C1411 C1412 1.414 . S
C1411 C1414 1.499 . S
C1412 H1392 0.950 . S
C1412 C1411 1.414 . S
C1412 C1413 1.374 . S
C1413 H1393 0.950 . S
C1413 C1409 1.385 . S
C1413 C1412 1.374 . S
C1414 C1411 1.499 . S
C1414 C1415 1.373 . S
C1414 C1416 1.389 . S
C1415 H1394 0.950 . S
C1415 C1414 1.373 . S
C1415 C1431 1.377 . S
C1416 C1414 1.389 . S
C1416 C1417 1.524 . S
C1416 C1430 1.377 . S
C1417 C1416 1.524 . S
C1417 C1418 1.397 . S
C1417 C1422 1.363 . S
C1418 H1395 0.950 . S
C1418 C1417 1.397 . S
C1418 C1419 1.334 . S
C1419 H1396 0.950 . S
C1419 C1418 1.334 . S
C1419 C1420 1.287 . S
C1420 C1419 1.287 . S
C1420 C1421 1.524 . S
C1420 H1439 0.913 . S
C1421 H1397 0.950 . S
C1421 C1420 1.524 . S
C1421 C1422 1.415 . S
C1422 H1398 0.950 . S
C1422 C1417 1.363 . S
C1422 C1421 1.415 . S
C1423 H1399 0.951 . S
C1423 C1424 1.366 . S
C1423 C1425 1.388 . S
C1424 C1423 1.366 . S
C1424 C1428 1.385 . S
C1425 H1400 0.951 . S
C1425 C1423 1.388 . S
C1425 C1426 1.366 . S
C1426 C1425 1.366 . S
C1426 C1427 1.414 . S
C1426 C1429 1.499 . S
C1427 H1401 0.950 . S
C1427 C1426 1.414 . S
C1427 C1428 1.374 . S
C1428 H1402 0.953 . S
C1428 C1424 1.385 . S
C1428 C1427 1.374 . S
C1429 C1426 1.499 . S
C1429 C1430 1.373 . S
C1429 C1431 1.389 . S
C1430 H1403 0.950 . S
C1430 C1416 1.377 . S
C1430 C1429 1.373 . S
C1431 C1415 1.377 . S
C1431 C1429 1.389 . S
C1431 C1432 1.524 . S
C1432 C1431 1.524 . S
C1432 C1433 1.397 . S
C1432 C1437 1.363 . S
C1433 H1404 0.950 . S
C1433 C1432 1.397 . S
C1433 C1434 1.334 . S
C1434 H1405 0.950 . S
C1434 C1433 1.334 . S
C1434 C1435 1.287 . S
C1435 C1434 1.287 . S
C1435 C1436 1.524 . S
C1435 H1438 0.999 . S
C1436 H1406 0.950 . S
C1436 C1435 1.524 . S
C1436 C1437 1.415 . S
C1437 H1407 0.950 . S
C1437 C1432 1.363 . S
C1437 C1436 1.415 . S
H1438 C1435 0.999 . S
H1439 C1420 0.913 . S
H1440 C1458 0.951 . S
H1441 C1460 0.951 . S
H1442 C1462 0.950 . S
H1443 C1463 0.950 . S
H1444 C1465 0.950 . S
H1445 C1468 0.950 . S
H1446 C1469 0.950 . S
H1447 C1471 0.950 . S
H1448 C1472 0.950 . S
H1449 C1473 0.971 . S
H1450 C1475 0.951 . S
H1451 C1477 0.950 . S
H1452 C1478 0.950 . S
H1453 C1480 0.950 . S
H1454 C1483 0.950 . S
H1455 C1484 0.950 . S
H1456 C1486 0.950 . S
H1457 C1487 0.950 . S
C1458 H1440 0.951 . S
C1458 C1459 1.366 . S
C1458 C1460 1.388 . S
C1459 C1458 1.366 . S
C1459 C1463 1.385 . S
C1460 H1441 0.951 . S
C1460 C1458 1.388 . S
C1460 C1461 1.366 . S
C1461 C1460 1.366 . S
C1461 C1462 1.414 . S
C1461 C1464 1.499 . S
C1462 H1442 0.950 . S
C1462 C1461 1.414 . S
C1462 C1463 1.374 . S
C1463 H1443 0.950 . S
C1463 C1459 1.385 . S
C1463 C1462 1.374 . S
C1464 C1461 1.499 . S
C1464 C1465 1.373 . S
C1464 C1466 1.389 . S
C1465 H1444 0.950 . S
C1465 C1464 1.373 . S
C1465 C1481 1.377 . S
C1466 C1464 1.389 . S
C1466 C1467 1.524 . S
C1466 C1480 1.377 . S
C1467 C1466 1.524 . S
C1467 C1468 1.397 . S
C1467 C1472 1.363 . S
C1468 H1445 0.950 . S
C1468 C1467 1.397 . S
C1468 C1469 1.334 . S
C1469 H1446 0.950 . S
C1469 C1468 1.334 . S
C1469 C1470 1.287 . S
C1470 C1469 1.287 . S
C1470 C1471 1.524 . S
C1470 H1489 0.913 . S
C1471 H1447 0.950 . S
C1471 C1470 1.524 . S
C1471 C1472 1.415 . S
C1472 H1448 0.950 . S
C1472 C1467 1.363 . S
C1472 C1471 1.415 . S
C1473 H1449 0.971 . S
C1473 C1474 1.366 . S
C1473 C1475 1.388 . S
C1474 C1473 1.366 . S
C1474 C1478 1.385 . S
C1475 H1450 0.951 . S
C1475 C1473 1.388 . S
C1475 C1476 1.366 . S
C1476 C1475 1.366 . S
C1476 C1477 1.414 . S
C1476 C1479 1.499 . S
C1477 H1451 0.950 . S
C1477 C1476 1.414 . S
C1477 C1478 1.374 . S
C1478 H1452 0.950 . S
C1478 C1474 1.385 . S
C1478 C1477 1.374 . S
C1479 C1476 1.499 . S
C1479 C1480 1.373 . S
C1479 C1481 1.389 . S
C1480 H1453 0.950 . S
C1480 C1466 1.377 . S
C1480 C1479 1.373 . S
C1481 C1465 1.377 . S
C1481 C1479 1.389 . S
C1481 C1482 1.524 . S
C1482 C1481 1.524 . S
C1482 C1483 1.397 . S
C1482 C1487 1.363 . S
C1483 H1454 0.950 . S
C1483 C1482 1.397 . S
C1483 C1484 1.334 . S
C1484 H1455 0.950 . S
C1484 C1483 1.334 . S
C1484 C1485 1.287 1_655 S
C1485 C1484 1.287 1_455 S
C1485 C1486 1.524 . S
C1485 H1488 0.999 . S
C1486 H1456 0.950 . S
C1486 C1485 1.524 . S
C1486 C1487 1.415 1_455 S
C1487 H1457 0.950 . S
C1487 C1482 1.363 . S
C1487 C1486 1.415 1_655 S
H1488 C1485 0.999 . S
H1489 C1470 0.913 . S
H1490 C1508 0.951 . S
H1491 C1510 0.951 . S
H1492 C1512 0.950 . S
H1493 C1513 0.950 . S
H1494 C1515 0.950 . S
H1495 C1518 0.950 . S
H1496 C1519 0.950 . S
H1497 C1521 0.950 . S
H1498 C1522 0.950 . S
H1499 C1523 0.951 . S
H1500 C1525 0.951 . S
H1501 C1527 0.950 . S
H1502 C1528 0.950 . S
H1503 C1530 0.950 . S
H1504 C1533 0.950 . S
H1505 C1534 0.950 . S
H1506 C1536 0.950 . S
H1507 C1537 0.950 . S
C1508 H1490 0.951 . S
C1508 C1509 1.366 . S
C1508 C1510 1.388 . S
C1509 C1508 1.366 . S
C1509 C1513 1.385 . S
C1510 H1491 0.951 . S
C1510 C1508 1.388 . S
C1510 C1511 1.366 . S
C1511 C1510 1.366 . S
C1511 C1512 1.414 . S
C1511 C1514 1.499 . S
C1512 H1492 0.950 . S
C1512 C1511 1.414 . S
C1512 C1513 1.374 . S
C1513 H1493 0.950 . S
C1513 C1509 1.385 . S
C1513 C1512 1.374 . S
C1514 C1511 1.499 . S
C1514 C1515 1.373 . S
C1514 C1516 1.389 . S
C1515 H1494 0.950 . S
C1515 C1514 1.373 . S
C1515 C1531 1.377 . S
C1516 C1514 1.389 . S
C1516 C1517 1.524 . S
C1516 C1530 1.377 . S
C1517 C1516 1.524 . S
C1517 C1518 1.397 . S
C1517 C1522 1.363 . S
C1518 H1495 0.950 . S
C1518 C1517 1.397 . S
C1518 C1519 1.334 . S
C1519 H1496 0.950 . S
C1519 C1518 1.334 . S
C1519 C1520 1.287 . S
C1520 C1519 1.287 . S
C1520 C1521 1.524 . S
C1520 H1539 0.913 . S
C1521 H1497 0.950 . S
C1521 C1520 1.524 . S
C1521 C1522 1.415 . S
C1522 H1498 0.950 . S
C1522 C1517 1.363 . S
C1522 C1521 1.415 . S
C1523 H1499 0.951 . S
C1523 C1524 1.366 . S
C1523 C1525 1.388 . S
C1524 C1523 1.366 . S
C1524 C1528 1.385 . S
C1525 H1500 0.951 . S
C1525 C1523 1.388 . S
C1525 C1526 1.366 . S
C1526 C1525 1.366 . S
C1526 C1527 1.414 . S
C1526 C1529 1.499 . S
C1527 H1501 0.950 . S
C1527 C1526 1.414 . S
C1527 C1528 1.374 . S
C1528 H1502 0.950 . S
C1528 C1524 1.385 . S
C1528 C1527 1.374 . S
C1529 C1526 1.499 . S
C1529 C1530 1.373 . S
C1529 C1531 1.389 . S
C1530 H1503 0.950 . S
C1530 C1516 1.377 . S
C1530 C1529 1.373 . S
C1531 C1515 1.377 . S
C1531 C1529 1.389 . S
C1531 C1532 1.524 . S
C1532 C1531 1.524 . S
C1532 C1533 1.397 . S
C1532 C1537 1.363 . S
C1533 H1504 0.950 . S
C1533 C1532 1.397 . S
C1533 C1534 1.334 . S
C1534 H1505 0.950 . S
C1534 C1533 1.334 . S
C1534 C1535 1.287 . S
C1535 C1534 1.287 . S
C1535 C1536 1.524 . S
C1535 H1538 0.999 . S
C1536 H1506 0.950 . S
C1536 C1535 1.524 . S
C1536 C1537 1.415 . S
C1537 H1507 0.950 . S
C1537 C1532 1.363 . S
C1537 C1536 1.415 . S
H1538 C1535 0.999 . S
H1539 C1520 0.913 . S
H1540 C1558 0.951 . S
H1541 C1560 0.951 . S
H1542 C1562 0.950 . S
H1543 C1563 0.950 . S
H1544 C1565 0.950 . S
H1545 C1568 0.950 . S
H1546 C1569 0.950 . S
H1547 C1571 0.950 . S
H1548 C1572 0.950 . S
H1549 C1573 0.951 . S
H1550 C1575 0.951 . S
H1551 C1577 0.950 . S
H1552 C1578 0.950 . S
H1553 C1580 0.950 . S
H1554 C1583 0.950 . S
H1555 C1584 0.950 . S
H1556 C1586 0.950 . S
H1557 C1587 0.950 . S
C1558 H1540 0.951 . S
C1558 C1559 1.366 . S
C1558 C1560 1.388 . S
C1559 C1558 1.366 . S
C1559 C1563 1.385 . S
C1560 H1541 0.951 . S
C1560 C1558 1.388 . S
C1560 C1561 1.366 . S
C1561 C1560 1.366 . S
C1561 C1562 1.414 . S
C1561 C1564 1.499 . S
C1562 H1542 0.950 . S
C1562 C1561 1.414 . S
C1562 C1563 1.374 . S
C1563 H1543 0.950 . S
C1563 C1559 1.385 . S
C1563 C1562 1.374 . S
C1564 C1561 1.499 . S
C1564 C1565 1.373 . S
C1564 C1566 1.389 . S
C1565 H1544 0.950 . S
C1565 C1564 1.373 . S
C1565 C1581 1.377 . S
C1566 C1564 1.389 . S
C1566 C1567 1.524 . S
C1566 C1580 1.377 . S
C1567 C1566 1.524 . S
C1567 C1568 1.397 . S
C1567 C1572 1.363 . S
C1568 H1545 0.950 . S
C1568 C1567 1.397 . S
C1568 C1569 1.334 . S
C1569 H1546 0.950 . S
C1569 C1568 1.334 . S
C1569 C1570 1.287 . S
C1570 C1569 1.287 . S
C1570 C1571 1.524 . S
C1570 H1589 0.913 . S
C1571 H1547 0.950 . S
C1571 C1570 1.524 . S
C1571 C1572 1.415 . S
C1572 H1548 0.950 . S
C1572 C1567 1.363 . S
C1572 C1571 1.415 . S
C1573 H1549 0.951 . S
C1573 C1574 1.366 . S
C1573 C1575 1.388 . S
C1574 C1573 1.366 . S
C1574 C1578 1.385 . S
C1575 H1550 0.951 . S
C1575 C1573 1.388 . S
C1575 C1576 1.366 . S
C1576 C1575 1.366 . S
C1576 C1577 1.414 . S
C1576 C1579 1.499 . S
C1577 H1551 0.950 . S
C1577 C1576 1.414 . S
C1577 C1578 1.374 . S
C1578 H1552 0.950 . S
C1578 C1574 1.385 . S
C1578 C1577 1.374 . S
C1579 C1576 1.499 . S
C1579 C1580 1.373 . S
C1579 C1581 1.389 . S
C1580 H1553 0.950 . S
C1580 C1566 1.377 . S
C1580 C1579 1.373 . S
C1581 C1565 1.377 . S
C1581 C1579 1.389 . S
C1581 C1582 1.524 . S
C1582 C1581 1.524 . S
C1582 C1583 1.397 . S
C1582 C1587 1.363 . S
C1583 H1554 0.950 . S
C1583 C1582 1.397 . S
C1583 C1584 1.334 . S
C1584 H1555 0.950 . S
C1584 C1583 1.334 . S
C1584 C1585 1.287 . S
C1585 C1584 1.287 . S
C1585 C1586 1.524 . S
C1585 H1588 0.999 . S
C1586 H1556 0.950 . S
C1586 C1585 1.524 . S
C1586 C1587 1.415 . S
C1587 H1557 0.950 . S
C1587 C1582 1.363 . S
C1587 C1586 1.415 . S
H1588 C1585 0.999 . S
H1589 C1570 0.913 . S
H1590 C1608 0.951 . S
H1591 C1610 0.951 . S
H1592 C1612 0.950 . S
H1593 C1613 0.950 . S
H1594 C1615 0.950 . S
H1595 C1618 0.950 . S
H1596 C1619 0.950 . S
H1597 C1621 0.950 . S
H1598 C1622 0.950 . S
H1599 C1623 0.951 . S
H1600 C1625 0.951 . S
H1601 C1627 0.950 . S
H1602 C1628 0.950 . S
H1603 C1630 0.950 . S
H1604 C1633 0.950 . S
H1605 C1634 0.950 . S
H1606 C1636 0.950 . S
H1607 C1637 0.950 . S
C1608 H1590 0.951 . S
C1608 C1609 1.366 . S
C1608 C1610 1.388 . S
C1609 C1608 1.366 . S
C1609 C1613 1.385 . S
C1610 H1591 0.951 . S
C1610 C1608 1.388 . S
C1610 C1611 1.366 . S
C1611 C1610 1.366 . S
C1611 C1612 1.414 . S
C1611 C1614 1.499 . S
C1612 H1592 0.950 . S
C1612 C1611 1.414 . S
C1612 C1613 1.374 . S
C1613 H1593 0.950 . S
C1613 C1609 1.385 . S
C1613 C1612 1.374 . S
C1614 C1611 1.499 . S
C1614 C1615 1.373 . S
C1614 C1616 1.389 . S
C1615 H1594 0.950 . S
C1615 C1614 1.373 . S
C1615 C1631 1.377 . S
C1616 C1614 1.389 . S
C1616 C1617 1.524 . S
C1616 C1630 1.377 . S
C1617 C1616 1.524 . S
C1617 C1618 1.397 . S
C1617 C1622 1.363 . S
C1618 H1595 0.950 . S
C1618 C1617 1.397 . S
C1618 C1619 1.334 . S
C1619 H1596 0.950 . S
C1619 C1618 1.334 . S
C1619 C1620 1.287 . S
C1620 C1619 1.287 . S
C1620 C1621 1.524 . S
C1620 H1639 0.913 . S
C1621 H1597 0.950 . S
C1621 C1620 1.524 . S
C1621 C1622 1.415 . S
C1622 H1598 0.950 . S
C1622 C1617 1.363 . S
C1622 C1621 1.415 . S
C1623 H1599 0.951 . S
C1623 C1624 1.366 . S
C1623 C1625 1.388 . S
C1624 C1623 1.366 . S
C1624 C1628 1.385 . S
C1625 H1600 0.951 . S
C1625 C1623 1.388 . S
C1625 C1626 1.366 . S
C1626 C1625 1.366 . S
C1626 C1627 1.414 . S
C1626 C1629 1.499 . S
C1627 H1601 0.950 . S
C1627 C1626 1.414 . S
C1627 C1628 1.374 . S
C1628 H1602 0.950 . S
C1628 C1624 1.385 . S
C1628 C1627 1.374 . S
C1629 C1626 1.499 . S
C1629 C1630 1.373 . S
C1629 C1631 1.389 . S
C1630 H1603 0.950 . S
C1630 C1616 1.377 . S
C1630 C1629 1.373 . S
C1631 C1615 1.377 . S
C1631 C1629 1.389 . S
C1631 C1632 1.524 . S
C1632 C1631 1.524 . S
C1632 C1633 1.397 . S
C1632 C1637 1.363 . S
C1633 H1604 0.950 . S
C1633 C1632 1.397 . S
C1633 C1634 1.334 . S
C1634 H1605 0.950 . S
C1634 C1633 1.334 . S
C1634 C1635 1.287 . S
C1635 C1634 1.287 . S
C1635 C1636 1.524 . S
C1635 H1638 0.999 . S
C1636 H1606 0.950 . S
C1636 C1635 1.524 . S
C1636 C1637 1.415 . S
C1637 H1607 0.950 . S
C1637 C1632 1.363 . S
C1637 C1636 1.415 . S
H1638 C1635 0.999 . S
H1639 C1620 0.913 . S
C459 N83 1.659 . S
C474 C178 1.655 . S
C524 C262 1.654 . S
C509 N96 1.659 . S
C574 C255 1.669 . S
C559 N57 1.647 . S
C609 N70 1.648 . S
C624 C171 1.669 . S
C674 C335 1.655 . S
C659 N31 1.660 . S
C724 C419 1.654 . S
C709 N44 1.660 . S
C759 N5 1.649 . S
C774 C412 1.669 . S
C809 N18 1.649 . S
C824 C328 1.669 . S
C874 C162 1.469 . S
C859 N14 1.629 . S
C924 C246 1.468 . S
C909 N1 1.629 . S
C974 C257 1.421 . S
C959 N40 1.636 . S
C1024 C173 1.421 . S
C1009 N27 1.636 . S
C1074 C341 1.469 . S
C1059 N66 1.620 . S
C1109 N53 1.620 . S
C1124 C425 1.469 . S
C1174 C414 1.419 . S
C1159 N92 1.628 . S
C1209 N79 1.628 . S
C1224 C330 1.419 . S
C1274 C160 1.569 . S
C1259 N2 1.569 . S
C1324 C244 1.569 . S
C1309 N15 1.570 . S
C1359 N28 1.566 . S
C1374 C251 1.537 . S
C1424 C167 1.538 . S
C1409 N41 1.565 . S
C1474 C339 1.569 . S
C1459 N54 1.565 . S
C1509 N67 1.565 . S
C1524 C423 1.569 . S
C1559 N80 1.562 . S
C1574 C430 1.538 . S
C1609 N93 1.562 . S
C1624 C346 1.537 . S
