# Generated by pormake.
# Topology scu, (8,4)-cn, num edge types: 1
# Building blocks:
#     Node 0, Type 0, BuildingBlock: VETTIZ_charged_sbu_0, # of connection points: 8
#     Node 1, Type 1, BuildingBlock: IZENUY_clean_linker_0, # of connection points: 4
#     Node 2, Type 1, BuildingBlock: IZENUY_clean_linker_0, # of connection points: 4
#     Edge 3, Type (0, 1), BuildingBlock: FUNLAD_clean_linker_1, # of connection points: 2
#     Edge 4, Type (0, 1), BuildingBlock: FUNLAD_clean_linker_1, # of connection points: 2
#     Edge 5, Type (0, 1), BuildingBlock: FUNLAD_clean_linker_1, # of connection points: 2
#     Edge 6, Type (0, 1), BuildingBlock: FUNLAD_clean_linker_1, # of connection points: 2
#     Edge 7, Type (0, 1), BuildingBlock: FUNLAD_clean_linker_1, # of connection points: 2
#     Edge 8, Type (0, 1), BuildingBlock: FUNLAD_clean_linker_1, # of connection points: 2
#     Edge 9, Type (0, 1), BuildingBlock: FUNLAD_clean_linker_1, # of connection points: 2
#     Edge 10, Type (0, 1), BuildingBlock: FUNLAD_clean_linker_1, # of connection points: 2
# Relax obj value: 0.029
# Max RMSD: 0.128
# Mean RMSD: 0.109
data_MOF--net-scu--node1-VETTIZ_charged_sbu_0--node2-IZENUY_clean_linker_0--edge1-FUNLAD_clean_linker_1
_symmetry_space_group_name_H-M    P1
_symmetry_Int_Tables_number       1
_symmetry_cell_setting            triclinic
loop_
_symmetry_equiv_pos_as_xyz
'x, y, z'
_cell_length_a     30.042594
_cell_length_b     30.392841
_cell_length_c     18.953948
_cell_angle_alpha  89.982252
_cell_angle_beta   87.107757
_cell_angle_gamma 91.545051
loop_
_atom_site_label
_atom_site_type_symbol
_atom_site_fract_x
_atom_site_fract_y
_atom_site_fract_z
_atom_type_partial_charge
Fe0 Fe 0.03066 0.02549 0.15757 0.0
O1 O 0.03137 0.0301 0.05362 0.0
Fe2 Fe 0.04737 0.97295 0.99619 0.0
Fe3 Fe 0.97822 0.04691 1.00087 0.0
O4 O 0.03411 0.02658 0.0537 0.0
O5 O 0.99422 0.98975 0.94445 0.0
O6 O 0.99162 0.99308 0.94438 0.0
Fe7 Fe 0.99327 0.99139 0.84136 0.0
C8 C 0.92996 0.01373 0.13266 0.0
O9 O 0.02664 0.09321 0.14865 0.0
O10 O 0.97157 0.1014 0.06893 0.0
O11 O 0.06194 0.99114 0.82566 0.0
O12 O 0.08972 1.00959 0.92906 0.0
O13 O 0.10244 0.96343 0.05835 0.0
O14 O 0.09886 0.01922 0.14129 0.0
O15 O 1.01779 0.08654 0.93304 0.0
O16 O 0.99626 0.05897 0.83052 0.0
C17 C 0.11976 0.98846 0.10627 0.0
O18 O 0.99614 0.92395 0.85421 0.0
O19 O 0.05373 0.91794 0.92957 0.0
O20 O 0.96145 0.02545 0.17189 0.0
O21 O 0.93587 1.00982 0.0663 0.0
C22 C 0.99691 0.11602 0.1182 0.0
C23 C 1.01249 0.09015 0.86694 0.0
C24 C 0.90528 0.03023 0.89263 0.0
O25 O 0.9232 0.05633 0.93852 0.0
O26 O 0.92549 0.9983 0.85967 0.0
C27 C 0.09376 1.00531 0.86224 0.0
O28 O 1.00681 0.93367 0.06196 0.0
O29 O 0.02939 0.95739 0.16545 0.0
C30 C 0.02642 0.90181 0.8844 0.0
C31 C 1.01314 0.92744 0.12675 0.0
H32 H 1.01719 0.44446 0.41171 0.0
H33 H 0.03077 0.44187 0.63722 0.0
H34 H 0.0194 0.32105 0.52018 0.0
H35 H 0.01935 0.56992 0.59354 0.0
H36 H 0.03174 0.57443 0.36537 0.0
H37 H 0.02585 0.69366 0.4859 0.0
N38 N 0.02509 0.49576 0.52862 0.0
N39 N 0.02494 0.5195 0.47475 0.0
C40 C 0.01895 0.42637 0.46071 0.0
C41 C 1.016 0.38025 0.45969 0.0
C42 C 0.02361 0.4489 0.52512 0.0
C43 C 0.02652 0.42458 0.58791 0.0
C44 C 0.02409 0.37827 0.58743 0.0
C45 C 0.01893 0.35661 0.52273 0.0
C46 C 0.02227 0.58841 0.54457 0.0
C47 C 0.02349 0.63453 0.54705 0.0
C48 C 0.02556 0.56636 0.47887 0.0
C49 C 0.02906 0.59119 0.41579 0.0
C50 C 0.02832 0.63744 0.41777 0.0
C51 C 0.02587 0.65831 0.48368 0.0
H52 H 0.57392 1.00449 0.40134 0.0
H53 H 0.57382 0.02496 0.62692 0.0
H54 H 0.6974 0.01957 0.50389 0.0
H55 H 0.44646 0.01777 0.595 0.0
H56 H 0.43953 1.0083 0.36858 0.0
H57 H 0.32033 0.02534 0.49898 0.0
N58 N 0.52062 0.01531 0.5222 0.0
N59 N 0.49617 1.01166 0.47109 0.0
C60 C 0.59164 1.01035 0.44894 0.0
C61 C 0.63859 0.01252 0.44529 0.0
C62 C 0.56801 0.01562 0.51489 0.0
C63 C 0.59181 0.02183 0.57621 0.0
C64 C 0.63846 0.02456 0.57241 0.0
C65 C 0.66135 0.01979 0.50687 0.0
C66 C 0.42719 0.01696 0.5482 0.0
C67 C 0.38055 0.01987 0.5557 0.0
C68 C 0.44881 0.0128 0.48047 0.0
C69 C 0.42312 1.01122 0.42053 0.0
C70 C 0.37667 0.01563 0.42746 0.0
C71 C 0.356 0.02063 0.49465 0.0
H72 H 0.95738 0.17603 0.13491 0.0
C73 C 0.9883 0.16049 0.14679 0.0
H74 H 0.046 0.16371 0.20567 0.0
H75 H 0.97819 0.36646 0.26428 0.0
H76 H 0.99037 0.37928 0.13822 0.0
H77 H 1.00898 0.31819 0.05725 0.0
H78 H 1.01458 0.24369 0.10156 0.0
C79 C 1.01551 0.17968 0.19268 0.0
C80 C 1.00142 0.21685 0.239 0.0
C81 C 0.99942 0.26029 0.2124 0.0
C82 C 0.99049 0.29587 0.25958 0.0
C83 C 0.98668 0.33861 0.23124 0.0
C84 C 0.99325 0.34634 0.15894 0.0
C85 C 1.00359 0.3119 0.11329 0.0
C86 C 1.00667 0.2693 0.1394 0.0
H87 H 0.04077 0.35871 0.35375 0.0
C88 C 1.01303 0.35566 0.39264 0.0
H89 H 0.95321 0.32283 0.42493 0.0
H90 H 0.9967 0.13675 0.30565 0.0
H91 H 0.98478 0.12359 0.43126 0.0
H92 H 0.97421 0.18538 0.51417 0.0
H93 H 0.97455 0.26027 0.47206 0.0
C94 C 0.98045 0.32503 0.38499 0.0
C95 C 0.98528 0.28807 0.33349 0.0
C96 C 0.98556 0.24422 0.3596 0.0
C97 C 0.99309 0.20865 0.31219 0.0
C98 C 0.99227 0.16514 0.33946 0.0
C99 C 0.98529 0.15704 0.41149 0.0
C100 C 0.97922 0.19179 0.4581 0.0
C101 C 0.97938 0.23484 0.43289 0.0
H102 H 0.85738 0.01872 0.12622 0.0
C103 C 0.88339 1.01156 0.16205 0.0
H104 H 0.89848 0.99668 0.26615 0.0
H105 H 0.73963 0.08158 0.43526 0.0
H106 H 0.80404 0.11794 0.48178 0.0
H107 H 0.87915 0.10758 0.42693 0.0
H108 H 0.8902 0.05986 0.32622 0.0
C109 C 0.87231 1.0038 0.23063 0.0
C110 C 0.82596 1.01055 0.26155 0.0
C111 C 0.81967 0.04018 0.31893 0.0
C112 C 0.77597 0.04781 0.34847 0.0
C113 C 0.77144 0.07568 0.40836 0.0
C114 C 0.80833 0.09678 0.43613 0.0
C115 C 0.8506 0.09079 0.4055 0.0
C116 C 0.85642 0.06295 0.3477 0.0
H117 H 0.67404 0.96962 0.36986 0.0
C118 C 0.66601 1.00375 0.37998 0.0
H119 H 0.68467 0.0699 0.36456 0.0
H120 H 0.82539 0.94487 0.16218 0.0
H121 H 0.76053 0.91311 0.1083 0.0
H122 H 0.6848 0.93574 0.14625 0.0
H123 H 0.67349 0.98897 0.24031 0.0
C124 C 0.69243 0.03614 0.35093 0.0
C125 C 0.73802 0.02757 0.31846 0.0
C126 C 0.74425 0.99895 0.2598 0.0
C127 C 0.78817 0.98875 0.23371 0.0
C128 C 0.79308 0.95635 0.18043 0.0
C129 C 0.75606 0.93742 0.1496 0.0
C130 C 0.71342 0.94995 0.17126 0.0
C131 C 0.70738 0.98028 0.22575 0.0
H132 H 0.97342 0.86852 0.16317 0.0
C133 C 1.00693 0.88264 0.1559 0.0
H134 H 0.07555 0.87515 0.16631 0.0
H135 H 0.06947 0.74508 0.42135 0.0
H136 H 0.10777 0.80922 0.46741 0.0
H137 H 0.11414 0.87841 0.39914 0.0
H138 H 0.08277 0.88364 0.28458 0.0
C139 C 0.04243 0.8601 0.17464 0.0
C140 C 0.03825 0.81777 0.21497 0.0
C141 C 0.05637 0.81558 0.28259 0.0
C142 C 0.05132 0.77622 0.32318 0.0
C143 C 0.07078 0.77463 0.38964 0.0
C144 C 0.09328 0.81111 0.41638 0.0
C145 C 0.09693 0.84999 0.37791 0.0
C146 C 0.07883 0.85242 0.31185 0.0
H147 H 0.05613 0.65492 0.30964 0.0
C148 C 0.03292 0.66482 0.35214 0.0
H149 H 0.98845 0.71297 0.39006 0.0
H150 H 1.00864 0.80693 0.08149 0.0
H151 H 0.97058 0.74222 0.03619 0.0
H152 H 0.95695 0.67608 0.11049 0.0
H153 H 0.98218 0.67391 0.23037 0.0
C154 C 1.01235 0.70367 0.34814 0.0
C155 C 0.02682 0.73953 0.29759 0.0
C156 C 1.0109 0.74077 0.22858 0.0
C157 C 1.01738 0.77962 0.1866 0.0
C158 C 1.003 0.77908 0.11663 0.0
C159 C 0.98144 0.74201 0.08979 0.0
C160 C 0.97383 0.70472 0.13161 0.0
C161 C 0.98832 0.70391 0.20029 0.0
H162 H 0.18357 0.95343 0.09678 0.0
C163 C 0.16613 0.97985 0.12402 0.0
H164 H 0.16984 0.02999 0.20085 0.0
H165 H 0.31953 0.91143 0.33926 0.0
H166 H 0.26111 0.85521 0.35836 0.0
H167 H 0.18872 0.8618 0.30394 0.0
H168 H 0.17417 0.92439 0.2303 0.0
C169 C 0.18638 1.00268 0.17462 0.0
C170 C 0.23219 0.99347 0.19597 0.0
C171 C 0.24008 0.95621 0.23831 0.0
C172 C 0.28162 0.95267 0.27057 0.0
C173 C 0.28847 0.91576 0.31389 0.0
C174 C 0.25526 0.88328 0.32523 0.0
C175 C 0.2145 0.88699 0.29457 0.0
C176 C 0.20668 0.92307 0.25199 0.0
H177 H 0.31931 0.03802 0.37081 0.0
C178 C 0.34816 0.01708 0.36614 0.0
H179 H 0.3777 0.9653 0.30753 0.0
H180 H 0.23029 0.06517 0.10922 0.0
H181 H 0.28977 0.12011 0.08784 0.0
H182 H 0.36137 0.11413 0.14507 0.0
H183 H 0.37395 0.05303 0.22405 0.0
C184 C 0.35168 0.98946 0.31101 0.0
C185 C 0.31454 0.98679 0.26185 0.0
C186 C 0.30802 0.02197 0.21486 0.0
C187 C 0.26679 0.02535 0.18193 0.0
C188 C 0.26088 0.06129 0.13611 0.0
C189 C 0.29478 0.09292 0.12321 0.0
C190 C 0.33511 0.08955 0.15544 0.0
C191 C 0.34184 0.05454 0.20082 0.0
H192 H 0.06659 0.84324 0.8607 0.0
C193 C 0.03336 0.85642 0.85934 0.0
H194 H 0.96804 0.84724 0.8256 0.0
H195 H 0.02603 0.75753 0.54107 0.0
H196 H 1.00608 0.82945 0.50175 0.0
H197 H 0.98925 0.88835 0.58762 0.0
H198 H 0.99194 0.87514 0.71302 0.0
C199 C 1.00116 0.8338 0.82709 0.0
C200 C 1.01202 0.79756 0.77707 0.0
C201 C 1.01058 0.80588 0.70367 0.0
C202 C 0.02093 0.7721 0.65427 0.0
C203 C 0.01889 0.78163 0.58125 0.0
C204 C 1.00745 0.82302 0.55777 0.0
C205 C 0.99792 0.85611 0.60604 0.0
C206 C 0.99947 0.84791 0.67808 0.0
H207 H 0.994 0.64892 0.65423 0.0
C208 C 0.01998 0.65887 0.61507 0.0
H209 H 0.07129 0.70464 0.58539 0.0
H210 H 1.01567 0.77055 0.91404 0.0
H211 H 0.0375 0.69869 0.95418 0.0
H212 H 0.05866 0.64082 0.86855 0.0
H213 H 0.0576 0.65414 0.74237 0.0
C214 C 0.04505 0.69565 0.62479 0.0
C215 C 0.03275 0.72983 0.67825 0.0
C216 C 0.03446 0.72164 0.75181 0.0
C217 C 0.0236 0.75548 0.80131 0.0
C218 C 0.02449 0.74626 0.87439 0.0
C219 C 0.03685 0.70517 0.89807 0.0
C220 C 0.04867 0.67254 0.84984 0.0
C221 C 0.04766 0.68053 0.77751 0.0
H222 H 0.13783 0.01494 0.76704 0.0
C223 C 0.13722 0.01446 0.82448 0.0
H224 H 0.17683 0.01506 0.91375 0.0
H225 H 0.33171 0.93741 0.70776 0.0
H226 H 0.31428 0.87519 0.78614 0.0
H227 H 0.25339 0.87879 0.87821 0.0
H228 H 0.20951 0.94448 0.89258 0.0
C229 C 0.17604 0.01804 0.8567 0.0
C230 C 0.21888 0.01966 0.81327 0.0
C231 C 0.24492 0.98154 0.80703 0.0
C232 C 0.2799 0.97937 0.75374 0.0
C233 C 0.30454 0.94045 0.74705 0.0
C234 C 0.29498 0.90467 0.79178 0.0
C235 C 0.26071 0.90671 0.84367 0.0
C236 C 0.23576 0.94456 0.85132 0.0
H237 H 0.37502 0.04005 0.66897 0.0
C238 C 0.35753 0.02387 0.62694 0.0
H239 H 0.29889 0.98912 0.60015 0.0
H240 H 0.18241 0.10075 0.82306 0.0
H241 H 0.20257 0.16442 0.74927 0.0
H242 H 0.26145 0.16007 0.65413 0.0
H243 H 0.30158 0.09261 0.63358 0.0
C244 C 0.31544 1.00834 0.63991 0.0
C245 C 0.28897 0.01538 0.7073 0.0
C246 C 0.26592 0.0551 0.71837 0.0
C247 C 0.23106 0.05731 0.77189 0.0
C248 C 0.20853 0.09726 0.78213 0.0
C249 C 0.21982 0.13396 0.74028 0.0
C250 C 0.25309 0.13155 0.68686 0.0
C251 C 0.27587 0.09261 0.67559 0.0
H252 H 1.01388 0.13302 0.77408 0.0
C253 C 0.02161 0.13237 0.82954 0.0
H254 H 0.0427 0.17066 0.91523 0.0
H255 H 0.07794 0.27353 0.59756 0.0
H256 H 0.12989 0.21566 0.56857 0.0
H257 H 0.14263 0.15681 0.65422 0.0
H258 H 0.10344 0.15541 0.76963 0.0
C259 C 0.03624 0.16988 0.85938 0.0
C260 C 0.03893 0.21165 0.81696 0.0
C261 C 0.06428 0.21369 0.75167 0.0
C262 C 0.05772 0.24823 0.7029 0.0
C263 C 0.08173 0.2481 0.63663 0.0
C264 C 0.1118 0.21522 0.61944 0.0
C265 C 0.11899 0.18208 0.66771 0.0
C266 C 0.09591 0.18137 0.73335 0.0
H267 H 0.05091 0.3673 0.69333 0.0
C268 C 0.03042 0.35271 0.65339 0.0
H269 H 0.99178 0.29683 0.62518 0.0
H270 H 0.99182 0.22278 0.94303 0.0
H271 H 0.94379 0.2833 0.97462 0.0
H272 H 0.93356 0.34379 0.89061 0.0
H273 H 0.97141 0.34409 0.77414 0.0
C274 C 1.01335 0.31155 0.66344 0.0
C275 C 0.02717 0.28173 0.72041 0.0
C276 C 1.00576 0.28249 0.78872 0.0
C277 C 1.01172 0.24747 0.83722 0.0
C278 C 0.98866 0.24842 0.90419 0.0
C279 C 0.96098 0.28301 0.92302 0.0
C280 C 0.95522 0.31709 0.87571 0.0
C281 C 0.97709 0.31689 0.8091 0.0
H282 H 0.8499 0.07457 0.874 0.0
C283 C 0.86068 0.04079 0.86936 0.0
H284 H 0.84764 0.97739 0.8293 0.0
H285 H 0.66091 0.07808 0.7569 0.0
H286 H 0.64587 0.08388 0.88359 0.0
H287 H 0.70164 0.06148 0.96689 0.0
H288 H 0.77311 0.03384 0.92395 0.0
C289 C 0.83646 1.01104 0.83419 0.0
C290 C 0.80202 0.02462 0.78573 0.0
C291 C 0.76006 0.03954 0.81181 0.0
C292 C 0.72723 0.05082 0.76378 0.0
C293 C 0.68633 0.06746 0.79106 0.0
C294 C 0.67742 0.07125 0.86364 0.0
C295 C 0.70887 0.05876 0.91055 0.0
C296 C 0.74979 0.04307 0.88524 0.0
H297 H 0.65457 1.00615 0.68097 0.0
C298 C 0.66393 0.02812 0.63713 0.0
H299 H 0.70965 0.07589 0.5948 0.0
H300 H 0.88068 1.00056 0.71822 0.0
H301 H 0.89542 0.99351 0.5922 0.0
H302 H 0.83749 1.00962 0.509 0.0
H303 H 0.76507 0.03348 0.5514 0.0
C304 C 0.70113 0.05369 0.63872 0.0
C305 C 0.73601 0.04568 0.68999 0.0
C306 C 0.77849 0.03163 0.664 0.0
C307 C 0.81153 0.02134 0.71191 0.0
C308 C 0.85388 1.00795 0.68446 0.0
C309 C 0.86296 1.0039 0.61206 0.0
C310 C 0.83041 0.01306 0.56528 0.0
C311 C 0.78876 0.02678 0.59056 0.0
loop_
_geom_bond_atom_site_label_1
_geom_bond_atom_site_label_2
_geom_bond_distance
_geom_bond_site_symmetry_2
_ccdc_geom_bond_type
Fe0 O1 1.886 . S
Fe0 O4 1.715 1_645 S
Fe0 O9 2.077 1_655 S
Fe0 O14 1.935 1_655 S
Fe0 O20 2.077 1_545 S
Fe0 O29 1.935 1_545 S
O1 Fe0 1.886 . S
O1 Fe3 1.714 . S
Fe2 O4 1.886 . S
Fe2 O5 1.714 1_554 S
Fe2 O12 1.935 1_554 S
Fe2 O13 2.078 . S
Fe2 O19 1.935 1_554 S
Fe2 O28 2.078 . S
Fe3 O1 1.714 . S
Fe3 O6 1.886 1_554 S
Fe3 O10 1.935 . S
Fe3 O15 2.078 1_554 S
Fe3 O21 1.935 . S
Fe3 O25 2.078 1_554 S
O4 Fe0 1.715 1_465 S
O4 Fe2 1.886 . S
O5 Fe2 1.714 1_556 S
O5 Fe7 1.886 . S
O6 Fe3 1.886 1_556 S
O6 Fe7 1.715 1_645 S
Fe7 O5 1.886 . S
Fe7 O6 1.715 1_465 S
Fe7 O11 2.077 1_565 S
Fe7 O16 1.935 1_565 S
Fe7 O18 2.077 1_455 S
Fe7 O26 1.935 1_455 S
C8 O20 1.377 1_545 S
C8 O21 1.421 . S
O9 Fe0 2.077 1_455 S
O9 C22 1.375 1_455 S
O10 Fe3 1.935 . S
O10 C22 1.421 . S
O11 Fe7 2.077 1_545 S
O11 C27 1.375 1_545 S
O12 Fe2 1.935 1_556 S
O12 C27 1.421 . S
O13 Fe2 2.078 . S
O13 C17 1.381 . S
O14 Fe0 1.935 1_455 S
O14 C17 1.421 1_545 S
O15 Fe3 2.078 1_556 S
O15 C23 1.381 . S
O16 Fe7 1.935 1_545 S
O16 C23 1.421 1_455 S
C17 O13 1.381 . S
C17 O14 1.421 1_565 S
O18 Fe7 2.077 1_655 S
O18 C30 1.377 1_655 S
O19 Fe2 1.935 1_556 S
O19 C30 1.421 . S
O20 Fe0 2.077 1_565 S
O20 C8 1.377 1_565 S
O21 Fe3 1.935 . S
O21 C8 1.421 . S
C22 O9 1.375 1_655 S
C22 O10 1.421 . S
C23 O15 1.381 . S
C23 O16 1.421 1_655 S
C24 O25 1.381 . S
C24 O26 1.421 1_545 S
O25 Fe3 2.078 1_556 S
O25 C24 1.381 . S
O26 Fe7 1.935 1_655 S
O26 C24 1.421 1_565 S
C27 O11 1.375 1_565 S
C27 O12 1.421 . S
O28 Fe2 2.078 . S
O28 C31 1.381 . S
O29 Fe0 1.935 1_565 S
O29 C31 1.421 1_655 S
C30 O18 1.377 1_455 S
C30 O19 1.421 . S
C31 O28 1.381 . S
C31 O29 1.421 1_455 S
H32 C40 0.940 . S
H33 C43 0.940 . S
H34 C45 0.940 . S
H35 C46 0.940 . S
H36 C49 0.940 . S
H37 C51 0.940 . S
N38 N39 1.190 . S
N38 C42 1.477 . S
N39 N38 1.190 . S
N39 C48 1.477 . S
C40 H32 0.940 . S
C40 C41 1.390 1_455 S
C40 C42 1.322 . S
C41 C40 1.390 1_655 S
C41 C45 1.370 . S
C42 N38 1.477 . S
C42 C40 1.322 . S
C42 C43 1.447 . S
C43 H33 0.940 . S
C43 C42 1.447 . S
C43 C44 1.373 . S
C44 C43 1.373 . S
C44 C45 1.417 1_455 S
C45 H34 0.940 . S
C45 C41 1.370 . S
C45 C44 1.417 1_655 S
C46 H35 0.940 . S
C46 C47 1.390 1_455 S
C46 C48 1.322 . S
C47 C46 1.390 1_655 S
C47 C51 1.370 . S
C48 N39 1.477 . S
C48 C46 1.322 . S
C48 C49 1.447 . S
C49 H36 0.940 . S
C49 C48 1.447 . S
C49 C50 1.373 . S
C50 C49 1.373 . S
C50 C51 1.417 1_455 S
C51 H37 0.940 . S
C51 C47 1.370 . S
C51 C50 1.417 1_655 S
H52 C60 0.940 . S
H53 C63 0.940 . S
H54 C65 0.940 . S
H55 C66 0.940 . S
H56 C69 0.940 . S
H57 C71 0.940 . S
N58 N59 1.190 . S
N58 C62 1.477 . S
N59 N58 1.190 . S
N59 C68 1.477 . S
C60 H52 0.940 . S
C60 C61 1.390 1_545 S
C60 C62 1.322 . S
C61 C60 1.390 1_565 S
C61 C65 1.370 . S
C62 N58 1.477 . S
C62 C60 1.322 . S
C62 C63 1.447 . S
C63 H53 0.940 . S
C63 C62 1.447 . S
C63 C64 1.373 . S
C64 C63 1.373 . S
C64 C65 1.417 1_545 S
C65 H54 0.940 . S
C65 C61 1.370 . S
C65 C64 1.417 1_565 S
C66 H55 0.940 . S
C66 C67 1.390 1_545 S
C66 C68 1.322 . S
C67 C66 1.390 1_565 S
C67 C71 1.370 . S
C68 N59 1.477 . S
C68 C66 1.322 . S
C68 C69 1.447 . S
C69 H56 0.940 . S
C69 C68 1.447 . S
C69 C70 1.373 . S
C70 C69 1.373 . S
C70 C71 1.417 1_545 S
C71 H57 0.940 . S
C71 C67 1.370 . S
C71 C70 1.417 1_565 S
H72 C73 0.951 . S
C73 H72 0.951 . S
C73 C79 1.265 1_655 S
H74 C79 0.950 . S
H75 C83 0.949 . S
H76 C84 0.950 . S
H77 C85 0.951 . S
H78 C86 0.951 . S
C79 C73 1.265 1_455 S
C79 H74 0.950 . S
C79 C80 1.478 . S
C80 C79 1.478 . S
C80 C81 1.397 . S
C80 C97 1.394 1_455 S
C81 C80 1.397 . S
C81 C82 1.438 . S
C81 C86 1.429 . S
C82 C81 1.438 . S
C82 C83 1.428 . S
C82 C95 1.394 1_455 S
C83 H75 0.949 . S
C83 C82 1.428 . S
C83 C84 1.345 . S
C84 H76 0.950 . S
C84 C83 1.345 . S
C84 C85 1.424 . S
C85 H77 0.951 . S
C85 C84 1.424 . S
C85 C86 1.347 . S
C86 H78 0.951 . S
C86 C81 1.429 . S
C86 C85 1.347 . S
H87 C88 0.951 . S
C88 H87 0.951 . S
C88 C94 1.265 1_455 S
H89 C94 0.950 . S
H90 C98 0.949 . S
H91 C99 0.950 . S
H92 C100 0.951 . S
H93 C101 0.951 . S
C94 C88 1.265 1_655 S
C94 H89 0.950 . S
C94 C95 1.478 . S
C95 C82 1.394 1_655 S
C95 C94 1.478 . S
C95 C96 1.397 . S
C96 C95 1.397 . S
C96 C97 1.438 . S
C96 C101 1.429 . S
C97 C80 1.394 1_655 S
C97 C96 1.438 . S
C97 C98 1.428 . S
C98 H90 0.949 . S
C98 C97 1.428 . S
C98 C99 1.345 . S
C99 H91 0.950 . S
C99 C98 1.345 . S
C99 C100 1.424 . S
C100 H92 0.951 . S
C100 C99 1.424 . S
C100 C101 1.347 . S
C101 H93 0.951 . S
C101 C96 1.429 . S
C101 C100 1.347 . S
H102 C103 0.952 . S
C103 H102 0.952 . S
C103 C109 1.265 . S
H104 C109 0.950 . S
H105 C113 0.949 . S
H106 C114 0.950 . S
H107 C115 0.951 . S
H108 C116 0.951 . S
C109 C103 1.265 . S
C109 H104 0.950 . S
C109 C110 1.478 1_545 S
C110 C109 1.478 1_565 S
C110 C111 1.384 1_565 S
C110 C127 1.407 . S
C111 C110 1.384 1_545 S
C111 C112 1.438 . S
C111 C116 1.429 . S
C112 C111 1.438 . S
C112 C113 1.428 . S
C112 C125 1.394 1_545 S
C113 H105 0.949 . S
C113 C112 1.428 . S
C113 C114 1.345 . S
C114 H106 0.950 . S
C114 C113 1.345 . S
C114 C115 1.424 . S
C115 H107 0.951 . S
C115 C114 1.424 . S
C115 C116 1.347 . S
C116 H108 0.951 . S
C116 C111 1.429 . S
C116 C115 1.347 . S
H117 C118 0.951 . S
C118 H117 0.951 . S
C118 C124 1.265 . S
H119 C124 0.950 . S
H120 C128 0.949 . S
H121 C129 0.950 . S
H122 C130 0.951 . S
H123 C131 0.951 . S
C124 C118 1.265 . S
C124 H119 0.950 . S
C124 C125 1.478 . S
C125 C112 1.394 1_565 S
C125 C124 1.478 . S
C125 C126 1.397 . S
C126 C125 1.397 . S
C126 C127 1.438 . S
C126 C131 1.429 . S
C127 C110 1.407 . S
C127 C126 1.438 . S
C127 C128 1.428 . S
C128 H120 0.949 . S
C128 C127 1.428 . S
C128 C129 1.345 . S
C129 H121 0.950 . S
C129 C128 1.345 . S
C129 C130 1.424 . S
C130 H122 0.951 . S
C130 C129 1.424 . S
C130 C131 1.347 . S
C131 H123 0.951 . S
C131 C126 1.429 . S
C131 C130 1.347 . S
H132 C133 0.951 . S
C133 H132 0.951 . S
C133 C139 1.265 1_655 S
H134 C139 0.950 . S
H135 C143 0.949 . S
H136 C144 0.950 . S
H137 C145 0.951 . S
H138 C146 0.951 . S
C139 C133 1.265 1_455 S
C139 H134 0.950 . S
C139 C140 1.478 . S
C140 C139 1.478 . S
C140 C141 1.397 . S
C140 C157 1.394 1_455 S
C141 C140 1.397 . S
C141 C142 1.438 . S
C141 C146 1.429 . S
C142 C141 1.438 . S
C142 C143 1.428 . S
C142 C155 1.394 1_455 S
C143 H135 0.949 . S
C143 C142 1.428 . S
C143 C144 1.345 . S
C144 H136 0.950 . S
C144 C143 1.345 . S
C144 C145 1.424 . S
C145 H137 0.951 . S
C145 C144 1.424 . S
C145 C146 1.347 . S
C146 H138 0.951 . S
C146 C141 1.429 . S
C146 C145 1.347 . S
H147 C148 0.951 . S
C148 H147 0.951 . S
C148 C154 1.265 1_455 S
H149 C154 0.950 . S
H150 C158 0.949 . S
H151 C159 0.950 . S
H152 C160 0.951 . S
H153 C161 0.951 . S
C154 C148 1.265 1_655 S
C154 H149 0.950 . S
C154 C155 1.478 . S
C155 C142 1.394 1_655 S
C155 C154 1.478 . S
C155 C156 1.397 . S
C156 C155 1.397 . S
C156 C157 1.438 . S
C156 C161 1.429 . S
C157 C140 1.394 1_655 S
C157 C156 1.438 . S
C157 C158 1.428 . S
C158 H150 0.949 . S
C158 C157 1.428 . S
C158 C159 1.345 . S
C159 H151 0.950 . S
C159 C158 1.345 . S
C159 C160 1.424 . S
C160 H152 0.951 . S
C160 C159 1.424 . S
C160 C161 1.347 . S
C161 H153 0.951 . S
C161 C156 1.429 . S
C161 C160 1.347 . S
H162 C163 0.951 . S
C163 H162 0.951 . S
C163 C169 1.265 . S
H164 C169 0.949 1_565 S
H165 C173 0.949 . S
H166 C174 0.950 . S
H167 C175 0.951 . S
H168 C176 0.951 . S
C169 C163 1.265 . S
C169 H164 0.949 1_545 S
C169 C170 1.478 . S
C170 C169 1.478 . S
C170 C171 1.397 1_545 S
C170 C187 1.394 . S
C171 C170 1.397 1_565 S
C171 C172 1.438 . S
C171 C176 1.429 . S
C172 C171 1.438 . S
C172 C173 1.428 . S
C172 C185 1.394 1_565 S
C173 H165 0.949 . S
C173 C172 1.428 . S
C173 C174 1.345 . S
C174 H166 0.950 . S
C174 C173 1.345 . S
C174 C175 1.424 . S
C175 H167 0.951 . S
C175 C174 1.424 . S
C175 C176 1.347 . S
C176 H168 0.951 . S
C176 C171 1.429 . S
C176 C175 1.347 . S
H177 C178 0.951 . S
C178 H177 0.951 . S
C178 C184 1.265 . S
H179 C184 0.950 . S
H180 C188 0.949 . S
H181 C189 0.950 . S
H182 C190 0.951 . S
H183 C191 0.951 . S
C184 C178 1.265 . S
C184 H179 0.950 . S
C184 C185 1.478 . S
C185 C172 1.394 1_545 S
C185 C184 1.478 . S
C185 C186 1.397 . S
C186 C185 1.397 . S
C186 C187 1.438 . S
C186 C191 1.429 . S
C187 C170 1.394 . S
C187 C186 1.438 . S
C187 C188 1.428 . S
C188 H180 0.949 . S
C188 C187 1.428 . S
C188 C189 1.345 . S
C189 H181 0.950 . S
C189 C188 1.345 . S
C189 C190 1.424 . S
C190 H182 0.951 . S
C190 C189 1.424 . S
C190 C191 1.347 . S
C191 H183 0.951 . S
C191 C186 1.429 . S
C191 C190 1.347 . S
H192 C193 0.951 . S
C193 H192 0.951 . S
C193 C199 1.265 1_455 S
H194 C199 0.950 . S
H195 C203 0.949 . S
H196 C204 0.950 . S
H197 C205 0.951 . S
H198 C206 0.949 1_655 S
C199 C193 1.265 1_655 S
C199 H194 0.950 . S
C199 C200 1.478 . S
C200 C199 1.478 . S
C200 C201 1.397 . S
C200 C217 1.394 . S
C201 C200 1.397 . S
C201 C202 1.438 1_655 S
C201 C206 1.429 1_655 S
C202 C201 1.438 1_455 S
C202 C203 1.428 . S
C202 C215 1.394 . S
C203 H195 0.949 . S
C203 C202 1.428 . S
C203 C204 1.345 . S
C204 H196 0.950 . S
C204 C203 1.345 . S
C204 C205 1.424 . S
C205 H197 0.951 . S
C205 C204 1.424 . S
C205 C206 1.347 . S
C206 H198 0.949 1_455 S
C206 C201 1.429 1_455 S
C206 C205 1.347 . S
H207 C208 0.951 . S
C208 H207 0.951 . S
C208 C214 1.265 1_655 S
H209 C214 0.950 . S
H210 C218 0.949 . S
H211 C219 0.950 . S
H212 C220 0.951 . S
H213 C221 0.951 . S
C214 C208 1.265 1_455 S
C214 H209 0.950 . S
C214 C215 1.478 . S
C215 C202 1.394 . S
C215 C214 1.478 . S
C215 C216 1.397 1_455 S
C216 C215 1.397 1_655 S
C216 C217 1.438 . S
C216 C221 1.429 . S
C217 C200 1.394 . S
C217 C216 1.438 . S
C217 C218 1.428 . S
C218 H210 0.949 . S
C218 C217 1.428 . S
C218 C219 1.345 . S
C219 H211 0.950 . S
C219 C218 1.345 . S
C219 C220 1.424 . S
C220 H212 0.951 . S
C220 C219 1.424 . S
C220 C221 1.347 . S
C221 H213 0.951 . S
C221 C216 1.429 . S
C221 C220 1.347 . S
H222 C223 0.950 1_545 S
C223 H222 0.950 1_565 S
C223 C229 1.265 . S
H224 C229 0.950 . S
H225 C233 0.949 . S
H226 C234 0.950 . S
H227 C235 0.951 . S
H228 C236 0.951 . S
C229 C223 1.265 . S
C229 H224 0.950 . S
C229 C230 1.478 . S
C230 C229 1.478 . S
C230 C231 1.397 . S
C230 C247 1.394 1_565 S
C231 C230 1.397 . S
C231 C232 1.438 . S
C231 C236 1.429 . S
C232 C231 1.438 . S
C232 C233 1.428 . S
C232 C245 1.394 . S
C233 H225 0.949 . S
C233 C232 1.428 . S
C233 C234 1.345 . S
C234 H226 0.950 . S
C234 C233 1.345 . S
C234 C235 1.424 . S
C235 H227 0.951 . S
C235 C234 1.424 . S
C235 C236 1.347 . S
C236 H228 0.951 . S
C236 C231 1.429 . S
C236 C235 1.347 . S
H237 C238 0.951 . S
C238 H237 0.951 . S
C238 C244 1.265 . S
H239 C244 0.948 1_545 S
H240 C248 0.949 . S
H241 C249 0.950 . S
H242 C250 0.951 . S
H243 C251 0.951 . S
C244 C238 1.265 . S
C244 H239 0.948 1_565 S
C244 C245 1.478 . S
C245 C232 1.394 . S
C245 C244 1.478 . S
C245 C246 1.397 1_565 S
C246 C245 1.397 1_545 S
C246 C247 1.438 . S
C246 C251 1.429 . S
C247 C230 1.394 1_545 S
C247 C246 1.438 . S
C247 C248 1.428 . S
C248 H240 0.949 . S
C248 C247 1.428 . S
C248 C249 1.345 . S
C249 H241 0.950 . S
C249 C248 1.345 . S
C249 C250 1.424 . S
C250 H242 0.951 . S
C250 C249 1.424 . S
C250 C251 1.347 . S
C251 H243 0.951 . S
C251 C246 1.429 . S
C251 C250 1.347 . S
H252 C253 0.951 . S
C253 H252 0.951 . S
C253 C259 1.265 1_655 S
H254 C259 0.950 . S
H255 C263 0.949 . S
H256 C264 0.950 . S
H257 C265 0.951 . S
H258 C266 0.951 . S
C259 C253 1.265 1_455 S
C259 H254 0.950 . S
C259 C260 1.478 . S
C260 C259 1.478 . S
C260 C261 1.397 . S
C260 C277 1.394 1_455 S
C261 C260 1.397 . S
C261 C262 1.438 . S
C261 C266 1.429 . S
C262 C261 1.438 . S
C262 C263 1.428 . S
C262 C275 1.394 1_455 S
C263 H255 0.949 . S
C263 C262 1.428 . S
C263 C264 1.345 . S
C264 H256 0.950 . S
C264 C263 1.345 . S
C264 C265 1.424 . S
C265 H257 0.951 . S
C265 C264 1.424 . S
C265 C266 1.347 . S
C266 H258 0.951 . S
C266 C261 1.429 . S
C266 C265 1.347 . S
H267 C268 0.951 . S
C268 H267 0.951 . S
C268 C274 1.265 1_455 S
H269 C274 0.950 . S
H270 C278 0.949 . S
H271 C279 0.950 . S
H272 C280 0.951 . S
H273 C281 0.951 . S
C274 C268 1.265 1_655 S
C274 H269 0.950 . S
C274 C275 1.478 . S
C275 C262 1.394 1_655 S
C275 C274 1.478 . S
C275 C276 1.397 . S
C276 C275 1.397 . S
C276 C277 1.438 . S
C276 C281 1.429 . S
C277 C260 1.394 1_655 S
C277 C276 1.438 . S
C277 C278 1.428 . S
C278 H270 0.949 . S
C278 C277 1.428 . S
C278 C279 1.345 . S
C279 H271 0.950 . S
C279 C278 1.345 . S
C279 C280 1.424 . S
C280 H272 0.951 . S
C280 C279 1.424 . S
C280 C281 1.347 . S
C281 H273 0.951 . S
C281 C276 1.429 . S
C281 C280 1.347 . S
H282 C283 0.952 . S
C283 H282 0.952 . S
C283 C289 1.263 1_565 S
H284 C289 0.950 . S
H285 C293 0.949 . S
H286 C294 0.950 . S
H287 C295 0.951 . S
H288 C296 0.951 . S
C289 C283 1.263 1_545 S
C289 H284 0.950 . S
C289 C290 1.478 . S
C290 C289 1.478 . S
C290 C291 1.397 . S
C290 C307 1.394 1_545 S
C291 C290 1.397 . S
C291 C292 1.438 . S
C291 C296 1.429 . S
C292 C291 1.438 . S
C292 C293 1.428 . S
C292 C305 1.394 . S
C293 H285 0.949 . S
C293 C292 1.428 . S
C293 C294 1.345 . S
C294 H286 0.950 . S
C294 C293 1.345 . S
C294 C295 1.424 . S
C295 H287 0.951 . S
C295 C294 1.424 . S
C295 C296 1.347 . S
C296 H288 0.951 . S
C296 C291 1.429 . S
C296 C295 1.347 . S
H297 C298 0.951 . S
C298 H297 0.951 . S
C298 C304 1.267 . S
H299 C304 0.948 1_565 S
H300 C308 0.949 . S
H301 C309 0.950 . S
H302 C310 0.951 . S
H303 C311 0.951 . S
C304 C298 1.267 . S
C304 H299 0.948 1_545 S
C304 C305 1.478 . S
C305 C292 1.394 . S
C305 C304 1.478 . S
C305 C306 1.397 1_545 S
C306 C305 1.397 1_565 S
C306 C307 1.438 . S
C306 C311 1.429 . S
C307 C290 1.394 1_565 S
C307 C306 1.438 . S
C307 C308 1.428 . S
C308 H300 0.949 . S
C308 C307 1.428 . S
C308 C309 1.345 . S
C309 H301 0.950 . S
C309 C308 1.345 . S
C309 C310 1.424 . S
C310 H302 0.951 . S
C310 C309 1.424 . S
C310 C311 1.347 . S
C311 H303 0.951 . S
C311 C306 1.429 . S
C311 C310 1.347 . S
C73 C22 1.527 . S
C88 C41 1.519 1_455 S
C103 C8 1.586 . S
C118 C61 1.486 . S
C133 C31 1.568 1_655 S
C148 C50 1.551 . S
C163 C17 1.559 1_545 S
C178 C70 1.512 . S
C193 C30 1.545 . S
C208 C47 1.523 . S
C223 C27 1.557 . S
C238 C67 1.588 . S
C268 C44 1.559 . S
C253 C23 1.503 . S
C283 C24 1.509 1_565 S
C298 C64 1.587 . S
