# Generated by pormake.
# Topology zzz, (3,6)-cn, num edge types: 1
# Building blocks:
#     Node 0, Type 0, BuildingBlock: VETTIZ_charged_linker_0, # of connection points: 3
#     Node 1, Type 0, BuildingBlock: VETTIZ_charged_linker_0, # of connection points: 3
#     Node 2, Type 0, BuildingBlock: VETTIZ_charged_linker_0, # of connection points: 3
#     Node 3, Type 0, BuildingBlock: VETTIZ_charged_linker_0, # of connection points: 3
#     Node 4, Type 0, BuildingBlock: VETTIZ_charged_linker_0, # of connection points: 3
#     Node 5, Type 0, BuildingBlock: VETTIZ_charged_linker_0, # of connection points: 3
#     Node 6, Type 0, BuildingBlock: VETTIZ_charged_linker_0, # of connection points: 3
#     Node 7, Type 0, BuildingBlock: VETTIZ_charged_linker_0, # of connection points: 3
#     Node 8, Type 1, BuildingBlock: BETDAH_clean_sbu_0, # of connection points: 6
#     Node 9, Type 1, BuildingBlock: BETDAH_clean_sbu_0, # of connection points: 6
#     Node 10, Type 1, BuildingBlock: BETDAH_clean_sbu_0, # of connection points: 6
#     Node 11, Type 1, BuildingBlock: BETDAH_clean_sbu_0, # of connection points: 6
#     Edge 12, Type (0, 1), BuildingBlock: EZIPEK_clean_linker_0, # of connection points: 2
#     Edge 13, Type (0, 1), BuildingBlock: EZIPEK_clean_linker_0, # of connection points: 2
#     Edge 14, Type (0, 1), BuildingBlock: EZIPEK_clean_linker_0, # of connection points: 2
#     Edge 15, Type (0, 1), BuildingBlock: EZIPEK_clean_linker_0, # of connection points: 2
#     Edge 16, Type (0, 1), BuildingBlock: EZIPEK_clean_linker_0, # of connection points: 2
#     Edge 17, Type (0, 1), BuildingBlock: EZIPEK_clean_linker_0, # of connection points: 2
#     Edge 18, Type (0, 1), BuildingBlock: EZIPEK_clean_linker_0, # of connection points: 2
#     Edge 19, Type (0, 1), BuildingBlock: EZIPEK_clean_linker_0, # of connection points: 2
#     Edge 20, Type (0, 1), BuildingBlock: EZIPEK_clean_linker_0, # of connection points: 2
#     Edge 21, Type (0, 1), BuildingBlock: EZIPEK_clean_linker_0, # of connection points: 2
#     Edge 22, Type (0, 1), BuildingBlock: EZIPEK_clean_linker_0, # of connection points: 2
#     Edge 23, Type (0, 1), BuildingBlock: EZIPEK_clean_linker_0, # of connection points: 2
#     Edge 24, Type (0, 1), BuildingBlock: EZIPEK_clean_linker_0, # of connection points: 2
#     Edge 25, Type (0, 1), BuildingBlock: EZIPEK_clean_linker_0, # of connection points: 2
#     Edge 26, Type (0, 1), BuildingBlock: EZIPEK_clean_linker_0, # of connection points: 2
#     Edge 27, Type (0, 1), BuildingBlock: EZIPEK_clean_linker_0, # of connection points: 2
#     Edge 28, Type (0, 1), BuildingBlock: EZIPEK_clean_linker_0, # of connection points: 2
#     Edge 29, Type (0, 1), BuildingBlock: EZIPEK_clean_linker_0, # of connection points: 2
#     Edge 30, Type (0, 1), BuildingBlock: EZIPEK_clean_linker_0, # of connection points: 2
#     Edge 31, Type (0, 1), BuildingBlock: EZIPEK_clean_linker_0, # of connection points: 2
#     Edge 32, Type (0, 1), BuildingBlock: EZIPEK_clean_linker_0, # of connection points: 2
#     Edge 33, Type (0, 1), BuildingBlock: EZIPEK_clean_linker_0, # of connection points: 2
#     Edge 34, Type (0, 1), BuildingBlock: EZIPEK_clean_linker_0, # of connection points: 2
#     Edge 35, Type (0, 1), BuildingBlock: EZIPEK_clean_linker_0, # of connection points: 2
# Relax obj value: 0.509
# Max RMSD: 0.269
# Mean RMSD: 0.259
data_MOF--net-zzz--node1-BETDAH_clean_sbu_0--node2-VETTIZ_charged_linker_0--edge1-EZIPEK_clean_linker_0
_symmetry_space_group_name_H-M    P1
_symmetry_Int_Tables_number       1
_symmetry_cell_setting            triclinic
loop_
_symmetry_equiv_pos_as_xyz
'x, y, z'
_cell_length_a     45.858556
_cell_length_b     45.829719
_cell_length_c     14.319001
_cell_angle_alpha  89.816009
_cell_angle_beta   89.776204
_cell_angle_gamma 89.983733
loop_
_atom_site_label
_atom_site_type_symbol
_atom_site_fract_x
_atom_site_fract_y
_atom_site_fract_z
_atom_type_partial_charge
C0 C 0.80226 0.52357 0.44877 0.0
C1 C 0.82088 0.50585 0.50569 0.0
C2 C 0.81193 0.47671 0.52266 0.0
C3 C 0.7741 0.48077 0.40782 0.0
C4 C 0.77853 0.51033 0.40065 0.0
C5 C 0.75636 0.52335 0.33271 0.0
H6 H 0.6598 0.49256 0.97686 0.0
C7 C 0.7545 0.471 0.33367 0.0
C8 C 0.74035 0.49587 0.29721 0.0
H9 H 0.63752 0.5512 0.2006 0.0
H10 H 0.68235 0.53675 0.28493 0.0
H11 H 0.72463 0.50418 0.95774 0.0
H12 H 0.67931 0.43795 0.10816 0.0
H13 H 0.7079 0.42385 0.03619 0.0
H14 H 0.67978 0.44516 0.98442 0.0
H15 H 0.72506 0.46752 0.91696 0.0
H16 H 0.75321 0.4808 0.99372 0.0
C17 C 0.77231 0.53914 0.25235 0.0
C18 C 0.73598 0.54437 0.38496 0.0
C19 C 0.79626 0.3837 0.16324 0.0
C20 C 0.80474 0.38425 0.06862 0.0
C21 C 0.78808 0.40071 1.00513 0.0
C22 C 0.76574 0.41894 0.037 0.0
C23 C 0.76096 0.42194 0.1333 0.0
C24 C 0.77662 0.40501 0.19567 0.0
C25 C 0.77559 0.41758 0.29352 0.0
C26 C 0.75823 0.44581 0.27636 0.0
C27 C 0.74779 0.44639 0.18441 0.0
C28 C 0.80711 0.42236 0.33021 0.0
C29 C 0.7583 0.39667 0.35721 0.0
C30 C 0.66498 0.50307 0.04236 0.0
C31 C 0.64551 0.5234 0.08089 0.0
C32 C 0.6526 0.53612 0.1681 0.0
C33 C 0.67866 0.52846 0.21567 0.0
C34 C 0.69817 0.50861 0.17443 0.0
C35 C 0.69056 0.4955 0.09074 0.0
C36 C 0.71119 0.47126 0.06501 0.0
C37 C 0.72941 0.46929 0.15365 0.0
C38 C 0.72394 0.49293 0.2129 0.0
C39 C 0.72945 0.48131 0.97901 0.0
C40 C 0.69367 0.44296 0.04742 0.0
H41 H 0.78022 0.44321 0.4962 0.0
H42 H 0.80685 0.54654 0.439 0.0
H43 H 0.72115 0.53223 0.43282 0.0
H44 H 0.72285 0.55742 0.33525 0.0
H45 H 0.74882 0.5601 0.42703 0.0
H46 H 0.78761 0.52403 0.21631 0.0
H47 H 0.78496 0.558 0.27908 0.0
H48 H 0.75643 0.54741 0.20014 0.0
H49 H 0.8086 0.37066 0.21232 0.0
H50 H 0.79398 0.40154 0.93184 0.0
H51 H 0.75477 0.43202 0.98624 0.0
H52 H 0.81589 0.44393 0.30834 0.0
H53 H 0.8226 0.4055 0.30666 0.0
H54 H 0.80874 0.41947 0.40639 0.0
H55 H 0.73653 0.39182 0.32697 0.0
H56 H 0.75473 0.40637 0.42714 0.0
H57 H 0.77024 0.37574 0.36608 0.0
H58 H 0.82422 0.46264 0.56894 0.0
C59 C 0.78756 0.46486 0.47822 0.0
C60 C 0.14809 0.79258 0.99617 0.0
C61 C 0.16209 0.81973 1.00789 0.0
C62 C 0.15628 0.83536 0.09125 0.0
C63 C 0.11773 0.8017 0.13213 0.0
C64 C 0.12584 0.78425 0.05833 0.0
C65 C 0.10604 0.75831 0.04862 0.0
H66 H 0.98342 0.68433 0.16064 0.0
C67 C 0.09038 0.78996 0.17241 0.0
C68 C 0.08361 0.76428 0.12513 0.0
H69 H 0.05203 0.66274 0.9646 0.0
H70 H 0.07818 0.70554 1.00743 0.0
H71 H 0.02975 0.71264 0.33726 0.0
H72 H 0.98494 0.76069 0.1176 0.0
H73 H 0.97798 0.77265 0.23401 0.0
H74 H 0.96475 0.73772 0.19698 0.0
H75 H 0.99076 0.70998 0.32521 0.0
H76 H 1.00704 0.74194 0.37524 0.0
C77 C 0.12434 0.73049 0.06927 0.0
C78 C 0.09224 0.75947 0.94969 0.0
C79 C 0.03774 0.85427 0.40292 0.0
C80 C 1.01192 0.85277 0.45507 0.0
C81 C 0.99429 0.82751 0.44439 0.0
C82 C 1.00246 0.8046 0.38207 0.0
C83 C 0.02871 0.8067 0.33038 0.0
C84 C 0.04572 0.83139 0.34325 0.0
C85 C 0.07339 0.83065 0.28844 0.0
C86 C 0.07049 0.80185 0.23805 0.0
C87 C 0.04421 0.78725 0.26086 0.0
C88 C 0.0992 0.83027 0.3586 0.0
C89 C 0.07305 0.85715 0.22028 0.0
C90 C 1.00414 0.68913 0.12763 0.0
C91 C 0.01576 0.66992 0.0585 0.0
C92 C 0.04269 0.67688 0.01742 0.0
C93 C 0.05793 0.70193 0.0428 0.0
C94 C 0.04631 0.72105 0.10991 0.0
C95 C 0.01991 0.71482 0.15224 0.0
C96 C 1.01186 0.73873 0.22252 0.0
C97 C 0.03788 0.75984 0.21486 0.0
C98 C 0.0577 0.74881 0.14776 0.0
C99 C 1.00962 0.72515 0.32072 0.0
C100 C 0.98324 0.7533 0.19148 0.0
H101 H 0.12991 0.84058 0.21074 0.0
H102 H 0.15256 0.77899 0.93645 0.0
H103 H 0.08776 0.78241 0.92835 0.0
H104 H 0.07087 0.74851 0.94565 0.0
H105 H 0.10706 0.74984 0.89654 0.0
H106 H 0.14366 0.73541 0.11329 0.0
H107 H 0.13251 0.72037 1.00384 0.0
H108 H 0.11197 0.71402 0.11003 0.0
H109 H 0.05202 0.87298 0.40983 0.0
H110 H 0.97436 0.82543 0.48465 0.0
H111 H 0.98839 0.78593 0.3769 0.0
H112 H 0.0927 0.82056 0.42693 0.0
H113 H 0.10733 0.85266 0.37253 0.0
H114 H 0.11757 0.81646 0.33464 0.0
H115 H 0.05058 0.86158 0.19476 0.0
H116 H 0.08593 0.85369 0.15611 0.0
H117 H 0.08095 0.87725 0.25512 0.0
H118 H 0.16667 0.85604 0.10572 0.0
C119 C 0.13434 0.82649 0.15287 0.0
C120 C 0.84486 1.00151 0.15604 0.0
C121 C 0.86539 0.98593 0.0993 0.0
C122 C 0.85968 0.95647 0.07814 0.0
C123 C 0.81139 0.96145 0.1405 0.0
C124 C 0.81778 0.98796 0.17884 0.0
C125 C 0.79134 0.99859 0.23582 0.0
H126 H 0.64244 0.98731 0.29278 0.0
C127 C 0.78044 0.95597 0.14778 0.0
C128 C 0.76836 0.97465 0.21521 0.0
H129 H 0.6993 1.00942 0.52024 0.0
H130 H 0.74212 0.99722 0.42227 0.0
H131 H 0.66104 1.00262 0.12798 0.0
H132 H 0.67606 0.92951 0.27945 0.0
H133 H 0.67826 0.91778 0.16304 0.0
H134 H 0.64722 0.93911 0.20056 0.0
H135 H 0.65564 0.97018 0.065 0.0
H136 H 0.68878 0.99095 0.04948 0.0
C137 C 0.78111 0.02849 0.19946 0.0
C138 C 0.79971 1.00011 0.3396 0.0
C139 C 0.7334 0.94537 0.83417 0.0
C140 C 0.70372 0.9475 0.81017 0.0
C141 C 0.68289 0.938 0.87746 0.0
C142 C 0.69092 0.93324 0.96994 0.0
C143 C 0.71969 0.93851 0.99576 0.0
C144 C 0.74093 0.94121 0.92821 0.0
C145 C 0.77075 0.9439 0.97049 0.0
C146 C 0.7628 0.94514 0.0751 0.0
C147 C 0.73255 0.94464 0.08708 0.0
C148 C 0.78512 0.97252 0.93517 0.0
C149 C 0.7888 0.91676 0.94291 0.0
C150 C 0.66406 0.99131 0.32026 0.0
C151 C 0.66732 1.00067 0.41264 0.0
C152 C 0.69609 1.00342 0.44795 0.0
C153 C 0.72084 0.99709 0.39106 0.0
C154 C 0.71687 0.98789 0.29818 0.0
C155 C 0.68861 0.98374 0.26681 0.0
C156 C 0.68741 0.96512 0.18113 0.0
C157 C 0.71966 0.95935 0.16407 0.0
C158 C 0.73725 0.97407 0.22948 0.0
C159 C 0.6726 0.98296 0.10157 0.0
C160 C 0.67122 0.9364 0.20654 0.0
H161 H 0.82847 0.92148 0.08329 0.0
H162 H 0.84923 0.02369 0.17751 0.0
H163 H 0.80065 0.97793 0.37109 0.0
H164 H 0.78417 0.01374 0.37945 0.0
H165 H 0.82144 1.01052 0.34789 0.0
H166 H 0.77617 0.0274 0.12357 0.0
H167 H 0.79822 0.04529 0.21035 0.0
H168 H 0.76104 0.03552 0.23684 0.0
H169 H 0.75029 0.94908 0.78312 0.0
H170 H 0.65981 0.93713 0.86233 0.0
H171 H 0.6742 0.92751 0.01906 0.0
H172 H 0.77183 0.99178 0.95571 0.0
H173 H 0.7875 0.97255 0.85801 0.0
H174 H 0.80737 0.97546 0.96289 0.0
H175 H 0.78299 0.90894 0.87193 0.0
H176 H 0.78507 0.89847 0.99269 0.0
H177 H 0.81241 0.9217 0.93889 0.0
H178 H 0.87546 0.9436 0.0396 0.0
C179 C 0.83277 0.944 0.10006 0.0
C180 C 0.49474 0.71505 0.41237 0.0
C181 C 0.47871 0.69224 0.45751 0.0
C182 C 0.44805 0.69362 0.45705 0.0
C183 C 0.44969 0.7339 0.34865 0.0
C184 C 0.4793 0.73647 0.3597 0.0
C185 C 0.48991 0.7645 0.31138 0.0
H186 H 0.45286 0.87417 0.99531 0.0
C187 C 0.43952 0.75544 0.281 0.0
C188 C 0.46208 0.77531 0.26152 0.0
H189 H 0.53413 0.86814 0.14383 0.0
H190 H 0.51675 0.82406 0.22496 0.0
H191 H 0.44648 0.82056 0.93204 0.0
H192 H 0.40946 0.85709 0.17136 0.0
H193 H 0.38288 0.83471 0.11816 0.0
H194 H 0.40083 0.86265 0.0502 0.0
H195 H 0.40807 0.82387 0.93621 0.0
H196 H 0.42586 0.78998 0.96696 0.0
C197 C 0.51438 0.75705 0.24165 0.0
C198 C 0.49983 0.78597 0.3874 0.0
C199 C 0.36703 0.71957 0.04675 0.0
C200 C 0.35506 0.73255 0.96645 0.0
C201 C 0.35501 0.76318 0.95886 0.0
C202 C 0.37059 0.78011 0.02336 0.0
C203 C 0.38625 0.76609 0.09488 0.0
C204 C 0.38224 0.73672 0.11047 0.0
C205 C 0.39798 0.72605 0.19585 0.0
C206 C 0.41492 0.75362 0.22221 0.0
C207 C 0.40921 0.77625 0.15894 0.0
C208 C 0.41855 0.70061 0.16889 0.0
C209 C 0.37491 0.7166 0.26924 0.0
C210 C 0.46685 0.86361 0.04605 0.0
C211 C 0.4947 0.87471 0.06338 0.0
C212 C 0.51242 0.86005 0.12949 0.0
C213 C 0.50232 0.83464 0.17672 0.0
C214 C 0.47416 0.82381 0.15809 0.0
C215 C 0.45717 0.83848 0.09304 0.0
C216 C 0.42836 0.8241 0.07721 0.0
C217 C 0.43 0.79889 0.14607 0.0
C218 C 0.45687 0.79835 0.19455 0.0
C219 C 0.42691 0.81408 0.97328 0.0
C220 C 0.40394 0.84576 0.10512 0.0
H221 H 0.4103 0.71667 0.41061 0.0
H222 H 0.51829 0.71569 0.41638 0.0
H223 H 0.48268 0.78828 0.44202 0.0
H224 H 0.50397 0.808 0.35934 0.0
H225 H 0.52005 0.77801 0.42166 0.0
H226 H 0.50691 0.74007 0.19187 0.0
H227 H 0.53387 0.74858 0.2788 0.0
H228 H 0.52108 0.77632 0.20031 0.0
H229 H 0.36629 0.69613 0.05626 0.0
H230 H 0.34415 0.77389 0.9012 0.0
H231 H 0.37065 0.80332 0.01407 0.0
H232 H 0.43414 0.70754 0.11342 0.0
H233 H 0.40603 0.68157 0.14305 0.0
H234 H 0.4313 0.69274 0.22939 0.0
H235 H 0.35398 0.71007 0.23637 0.0
H236 H 0.36992 0.7346 0.31863 0.0
H237 H 0.38199 0.69699 0.30865 0.0
H238 H 0.4353 0.67772 0.49572 0.0
C239 C 0.43355 0.71489 0.40484 0.0
C240 C 0.32744 0.52589 0.34978 0.0
C241 C 0.34406 0.53487 0.42892 0.0
C242 C 0.33163 0.55539 0.48988 0.0
C243 C 0.28857 0.55965 0.39328 0.0
C244 C 0.29927 0.53838 0.33414 0.0
C245 C 0.27689 0.53166 0.25772 0.0
H246 H 0.14073 0.56805 0.0745 0.0
C247 C 0.26 0.5699 0.35861 0.0
C248 C 0.25222 0.55356 0.27887 0.0
H249 H 0.19533 0.49842 0.97382 0.0
H250 H 0.23278 0.511 0.09024 0.0
H251 H 0.14814 0.55534 0.28136 0.0
H252 H 0.15531 0.62152 0.14129 0.0
H253 H 0.19056 0.61418 0.09226 0.0
H254 H 0.18841 0.63351 0.19746 0.0
H255 H 0.13179 0.58887 0.24354 0.0
H256 H 0.15392 0.58687 0.34718 0.0
C257 C 0.26654 0.49992 0.26994 0.0
C258 C 0.29065 0.53725 0.16117 0.0
C259 C 0.20899 0.65161 0.53684 0.0
C260 C 0.18094 0.66391 0.52845 0.0
C261 C 0.165 0.65798 0.44619 0.0
C262 C 0.17513 0.6382 0.37987 0.0
C263 C 0.20154 0.62359 0.39499 0.0
C264 C 0.2184 0.631 0.47075 0.0
C265 C 0.24556 0.61268 0.47609 0.0
C266 C 0.24183 0.5928 0.39163 0.0
C267 C 0.21597 0.59931 0.34508 0.0
C268 C 0.24462 0.59533 0.56965 0.0
C269 C 0.27202 0.63349 0.46468 0.0
C270 C 0.16069 0.55538 0.07701 0.0
C271 C 0.1648 0.53219 0.01533 0.0
C272 C 0.19139 0.51636 0.0212 0.0
C273 C 0.213 0.52356 0.08892 0.0
C274 C 0.20801 0.54676 0.1518 0.0
C275 C 0.18203 0.56211 0.14334 0.0
C276 C 0.17912 0.58594 0.21313 0.0
C277 C 0.20716 0.58256 0.26719 0.0
C278 C 0.22479 0.55964 0.23259 0.0
C279 C 0.15181 0.57926 0.27441 0.0
C280 C 0.17806 0.61538 0.15895 0.0
H281 H 0.29725 0.58373 0.52164 0.0
H282 H 0.33617 0.5099 0.30177 0.0
H283 H 0.2998 0.5597 0.15746 0.0
H284 H 0.27443 0.53521 0.1047 0.0
H285 H 0.30858 0.52152 0.14743 0.0
H286 H 0.25911 0.49603 0.34295 0.0
H287 H 0.28458 0.48444 0.25452 0.0
H288 H 0.24805 0.49472 0.2239 0.0
H289 H 0.22318 0.65702 0.59404 0.0
H290 H 0.14368 0.66742 0.43471 0.0
H291 H 0.16113 0.63413 0.32168 0.0
H292 H 0.25287 0.57274 0.56228 0.0
H293 H 0.2219 0.5925 0.59585 0.0
H294 H 0.25711 0.60662 0.62514 0.0
H295 H 0.26718 0.65111 0.41338 0.0
H296 H 0.29164 0.62259 0.43664 0.0
H297 H 0.27754 0.64407 0.53202 0.0
H298 H 0.34345 0.56247 0.55123 0.0
C299 C 0.30452 0.56784 0.47234 0.0
C300 C 0.07955 0.25157 0.64068 0.0
C301 C 0.07908 0.22182 0.66543 0.0
C302 C 0.08899 0.20145 0.59774 0.0
C303 C 0.08577 0.23823 0.47873 0.0
C304 C 0.0825 0.2593 0.54618 0.0
C305 C 0.07777 0.28896 0.50378 0.0
H306 H 0.99176 0.3629 0.30559 0.0
C307 C 0.07825 0.25084 0.38772 0.0
C308 C 0.07612 0.28102 0.39941 0.0
H309 H 0.07155 0.39348 0.43491 0.0
H310 H 0.09591 0.34796 0.38846 0.0
H311 H 0.03902 0.31836 0.10726 0.0
H312 H 0.99287 0.28941 0.35706 0.0
H313 H 0.98494 0.27413 0.2442 0.0
H314 H 0.9731 0.31061 0.27182 0.0
H315 H 1.00467 0.33582 0.13216 0.0
H316 H 1.00504 0.29844 0.10005 0.0
C317 C 0.10404 0.30852 0.52877 0.0
C318 C 0.04869 0.30168 0.54147 0.0
C319 C 0.0361 0.17971 0.15545 0.0
C320 C 0.02616 0.18237 0.06343 0.0
C321 C 0.02114 0.21101 0.02844 0.0
C322 C 0.02571 0.23611 0.0853 0.0
C323 C 0.03552 0.23269 0.17788 0.0
C324 C 0.04194 0.2047 0.20874 0.0
C325 C 0.06067 0.20465 0.29413 0.0
C326 C 0.06405 0.2372 0.31141 0.0
C327 C 0.04791 0.25394 0.24668 0.0
C328 C 0.09048 0.19072 0.26818 0.0
C329 C 0.04408 0.18836 0.37386 0.0
C330 C 0.01436 0.35978 0.32464 0.0
C331 C 0.02927 0.38111 0.38003 0.0
C332 C 0.05922 0.37707 0.39769 0.0
C333 C 0.07302 0.35098 0.3741 0.0
C334 C 0.05649 0.32868 0.33531 0.0
C335 C 0.02931 0.33359 0.29967 0.0
C336 C 0.01991 0.30663 0.24308 0.0
C337 C 0.04535 0.28499 0.26149 0.0
C338 C 0.0637 0.29808 0.32754 0.0
C339 C 0.01717 0.31516 0.13956 0.0
C340 C 0.99097 0.2945 0.28134 0.0
H341 H 0.09862 0.19322 0.45547 0.0
H342 H 0.07536 0.26826 0.69174 0.0
H343 H 0.03007 0.28734 0.52267 0.0
H344 H 0.04427 0.32377 0.51392 0.0
H345 H 0.04915 0.30399 0.61857 0.0
H346 H 0.1128 0.30308 0.59902 0.0
H347 H 0.0978 0.33181 0.53311 0.0
H348 H 0.12206 0.30589 0.47736 0.0
H349 H 0.04171 0.15838 0.18298 0.0
H350 H 0.01456 0.21393 0.9565 0.0
H351 H 0.02367 0.25741 0.05434 0.0
H352 H 0.09696 0.19642 0.19539 0.0
H353 H 0.08955 0.16654 0.2734 0.0
H354 H 0.10855 0.19886 0.31187 0.0
H355 H 0.02454 0.17648 0.34834 0.0
H356 H 0.03602 0.20365 0.42823 0.0
H357 H 0.05779 0.17145 0.40758 0.0
H358 H 0.0911 0.17843 0.61329 0.0
C359 C 0.09255 0.2097 0.50468 0.0
C360 C 0.31957 0.01945 0.07486 0.0
C361 C 0.34751 1.00816 0.04933 0.0
C362 C 0.35782 0.98331 0.0961 0.0
C363 C 0.31354 0.98011 0.18838 0.0
C364 C 0.30295 1.00504 0.14597 0.0
C365 C 0.27309 0.01307 0.18713 0.0
H366 H 0.16623 0.97583 0.51295 0.0
C367 C 0.29182 0.96931 0.25681 0.0
C368 C 0.26768 0.98834 0.25835 0.0
H369 H 0.16393 0.05125 0.33295 0.0
H370 H 0.21051 0.03644 0.26144 0.0
H371 H 0.1864 0.93137 0.35826 0.0
H372 H 0.23184 0.9806 0.56692 0.0
H373 H 0.24794 0.94596 0.56613 0.0
H374 H 0.20982 0.94938 0.59464 0.0
H375 H 0.1857 0.92151 0.47957 0.0
H376 H 0.21367 0.90815 0.4015 0.0
C377 C 0.25022 0.0129 0.10875 0.0
C378 C 0.27564 0.04296 0.23521 0.0
C379 C 0.31994 0.88167 0.45184 0.0
C380 C 0.30713 0.8677 0.52962 0.0
C381 C 0.27763 0.87376 0.55007 0.0
C382 C 0.26252 0.89563 0.50091 0.0
C383 C 0.27702 0.9116 0.43038 0.0
C384 C 0.30481 0.90355 0.40467 0.0
C385 C 0.31719 0.9226 0.32907 0.0
C386 C 0.29265 0.94435 0.31558 0.0
C387 C 0.26931 0.938 0.37522 0.0
C388 C 0.32176 0.90319 0.24148 0.0
C389 C 0.34525 0.93752 0.36695 0.0
C390 C 0.17573 0.98934 0.45849 0.0
C391 C 0.16159 0.01481 0.42968 0.0
C392 C 0.17464 0.03163 0.35745 0.0
C393 C 0.2016 0.02305 0.31621 0.0
C394 C 0.21567 0.99741 0.34739 0.0
C395 C 0.2022 0.98114 0.41722 0.0
C396 C 0.21908 0.95458 0.44375 0.0
C397 C 0.24516 0.9572 0.37961 0.0
C398 C 0.24378 0.98235 0.32196 0.0
C399 C 0.20034 0.92737 0.42047 0.0
C400 C 0.22756 0.95744 0.54827 0.0
H401 H 0.35078 0.95033 0.19445 0.0
H402 H 0.31099 0.0386 0.04017 0.0
H403 H 0.29429 0.04301 0.28463 0.0
H404 H 0.25596 0.04845 0.27602 0.0
H405 H 0.27934 0.06052 0.18276 0.0
H406 H 0.25109 0.99193 0.06996 0.0
H407 H 0.25433 0.03093 0.05835 0.0
H408 H 0.22784 0.01524 0.13638 0.0
H409 H 0.34235 0.87752 0.43213 0.0
H410 H 0.26641 0.86243 0.60577 0.0
H411 H 0.24054 0.90009 0.52262 0.0
H412 H 0.30473 0.88594 0.23715 0.0
H413 H 0.34328 0.89208 0.24332 0.0
H414 H 0.3197 0.91542 0.17515 0.0
H415 H 0.34544 0.93828 0.44461 0.0
H416 H 0.34708 0.9607 0.34576 0.0
H417 H 0.36518 0.92584 0.34366 0.0
H418 H 0.37899 0.97425 0.07855 0.0
C419 C 0.34115 0.96928 0.16387 0.0
C420 C 0.49663 0.33726 0.07597 0.0
C421 C 0.50476 0.36726 0.06682 0.0
C422 C 0.52231 0.37958 0.13627 0.0
C423 C 0.52816 0.33262 0.21158 0.0
C424 C 0.50816 0.32041 0.15157 0.0
C425 C 0.50165 0.28886 0.18158 0.0
H426 H 0.5399 0.17635 0.48739 0.0
C427 C 0.53951 0.30978 0.27458 0.0
C428 C 0.52382 0.28375 0.26083 0.0
H429 H 0.46666 0.17519 0.30019 0.0
H430 H 0.48086 0.22331 0.23826 0.0
H431 H 0.58532 0.2034 0.33872 0.0
H432 H 0.53207 0.24002 0.55673 0.0
H433 H 0.56648 0.25657 0.56444 0.0
H434 H 0.56344 0.2177 0.57952 0.0
H435 H 0.59471 0.20003 0.45976 0.0
H436 H 0.60626 0.23097 0.3904 0.0
C437 C 0.50689 0.26805 0.09915 0.0
C438 C 0.47002 0.28777 0.21799 0.0
C439 C 0.62715 0.33615 0.469 0.0
C440 C 0.64259 0.32182 0.5401 0.0
C441 C 0.63771 0.29176 0.55428 0.0
C442 C 0.61598 0.27705 0.5035 0.0
C443 C 0.59876 0.29273 0.43901 0.0
C444 C 0.60517 0.32158 0.42151 0.0
C445 C 0.58406 0.33581 0.35637 0.0
C446 C 0.56402 0.31043 0.3345 0.0
C447 C 0.57238 0.28543 0.38377 0.0
C448 C 0.60169 0.34629 0.26986 0.0
C449 C 0.56789 0.36042 0.41079 0.0
C450 C 0.52684 0.18639 0.43314 0.0
C451 C 0.50211 0.17209 0.39949 0.0
C452 C 0.48576 0.18592 0.32806 0.0
C453 C 0.49376 0.21391 0.29307 0.0
C454 C 0.51816 0.22843 0.33057 0.0
C455 C 0.53433 0.2141 0.3986 0.0
C456 C 0.55947 0.23183 0.43234 0.0
C457 C 0.55543 0.2597 0.37713 0.0
C458 C 0.53122 0.25827 0.31607 0.0
C459 C 0.58803 0.21581 0.4048 0.0
C460 C 0.55548 0.23677 0.53884 0.0
H461 H 0.54815 0.37366 0.25434 0.0
H462 H 0.48233 0.32729 0.02532 0.0
H463 H 0.46627 0.30517 0.27066 0.0
H464 H 0.46481 0.26688 0.25246 0.0
H465 H 0.45438 0.29118 0.15986 0.0
H466 H 0.52925 0.27109 0.07044 0.0
H467 H 0.491 0.27231 0.0423 0.0
H468 H 0.50475 0.24497 0.12078 0.0
H469 H 0.62985 0.35932 0.45693 0.0
H470 H 0.6496 0.28001 0.60756 0.0
H471 H 0.61246 0.25446 0.51994 0.0
H472 H 0.61764 0.32934 0.2477 0.0
H473 H 0.61411 0.36645 0.28609 0.0
H474 H 0.58821 0.35047 0.20777 0.0
H475 H 0.54394 0.3596 0.40036 0.0
H476 H 0.57592 0.38234 0.38982 0.0
H477 H 0.57068 0.35858 0.48777 0.0
H478 H 0.5283 0.40245 0.13268 0.0
C479 C 0.53405 0.36261 0.20725 0.0
Ho480 Ho 0.03112 1.00313 0.83312 0.0
Ho481 Ho 0.99342 0.02838 0.70175 0.0
C482 C 1.00205 0.96041 0.67684 0.0
C483 C 0.06137 0.97122 0.94622 0.0
C484 C 0.08574 0.95111 0.92922 0.0
C485 C 0.10251 0.95325 0.8469 0.0
C486 C 0.12491 0.93325 0.82926 0.0
C487 C 0.13048 0.91078 0.89336 0.0
C488 C 0.11395 0.90891 0.97598 0.0
C489 C 0.09171 0.92896 0.9938 0.0
C490 C 0.06112 0.02264 0.67762 0.0
C491 C 0.01909 0.06938 0.86808 0.0
C492 C 0.97267 0.06593 0.58561 0.0
C493 C 0.97403 0.09788 0.59941 0.0
C494 C 0.99333 0.11426 0.54367 0.0
C495 C 1.00545 0.14003 0.57803 0.0
C496 C 0.99811 0.14982 0.66784 0.0
C497 C 0.97561 0.13601 0.71719 0.0
C498 C 0.96355 0.11016 0.6832 0.0
C499 C 0.96261 1.00734 0.85095 0.0
O500 O 1.01209 0.96255 0.76325 0.0
O501 O 0.99478 0.98441 0.63106 0.0
O502 O 0.06684 0.99868 0.92998 0.0
O503 O 0.03624 0.96311 0.91262 0.0
O504 O 0.06908 0.0261 0.76308 0.0
O505 O 0.03712 1.00923 0.67945 0.0
O506 O 1.01133 0.06819 0.77938 0.0
O507 O 0.02375 0.04479 0.9134 0.0
O508 O 0.95609 0.0511 0.643 0.0
O509 O 0.99818 0.05371 0.57496 0.0
O510 O 0.95523 1.00446 0.76394 0.0
O511 O 0.98664 0.02107 0.85516 0.0
H512 H 0.09801 0.97013 0.79579 0.0
H513 H 0.13741 0.93488 0.76512 0.0
H514 H 0.11798 0.89158 0.02598 0.0
H515 H 0.07893 0.92691 0.0573 0.0
H516 H 1.00169 0.10542 0.47879 0.0
H517 H 0.02267 0.15065 0.53871 0.0
H518 H 0.96915 0.14386 0.78534 0.0
H519 H 0.9484 0.09835 0.72748 0.0
Ho520 Ho 0.51437 0.03878 0.77599 0.0
Ho521 Ho 0.49012 0.99956 0.64991 0.0
C522 C 0.55515 0.01289 0.60953 0.0
C523 C 0.55195 0.06244 0.88542 0.0
C524 C 0.5839 0.05944 0.87319 0.0
C525 C 0.59906 0.03972 0.93073 0.0
C526 C 0.62445 0.02622 0.89822 0.0
C527 C 0.63511 0.03257 0.80845 0.0
C528 C 0.62269 0.05546 0.75742 0.0
C529 C 0.59725 0.06893 0.78961 0.0
C530 C 0.48972 0.06817 0.6291 0.0
C531 C 0.44727 0.02739 0.80753 0.0
C532 C 0.45986 0.96606 0.54256 0.0
C533 C 0.44234 0.94001 0.56382 0.0
C534 C 0.42019 0.93168 0.50283 0.0
C535 C 0.40215 0.90821 0.5255 0.0
C536 C 0.40572 0.8928 0.60962 0.0
C537 C 0.42894 0.90011 0.66859 0.0
C538 C 0.44699 0.92382 0.64626 0.0
C539 C 0.51265 0.97146 0.80533 0.0
O540 O 0.55409 0.02047 0.69835 0.0
O541 O 0.5306 1.00802 0.56553 0.0
O542 O 0.53803 0.07726 0.82152 0.0
O543 O 0.53863 0.03804 0.90532 0.0
O544 O 0.48743 0.07516 0.71671 0.0
O545 O 0.50508 0.04508 0.62353 0.0
O546 O 0.44928 0.0176 0.72081 0.0
O547 O 0.47118 0.03562 0.85131 0.0
O548 O 0.48783 0.96317 0.55487 0.0
O549 O 0.44995 0.99067 0.57567 0.0
O550 O 0.51572 0.96345 0.71978 0.0
O551 O 0.49745 0.99438 0.80322 0.0
H552 H 0.58948 0.03216 0.99575 0.0
H553 H 0.63404 1.00875 0.939 0.0
H554 H 0.63128 0.06119 0.68935 0.0
H555 H 0.5865 0.08446 0.74414 0.0
H556 H 0.41641 0.94371 0.43872 0.0
H557 H 0.38475 0.90247 0.47851 0.0
H558 H 0.43237 0.88825 0.73319 0.0
H559 H 0.46412 0.9299 0.69427 0.0
Ho560 Ho 0.47726 0.53358 0.79414 0.0
Ho561 Ho 0.51915 0.51485 0.67399 0.0
C562 C 0.50171 0.5804 0.64042 0.0
C563 C 0.44394 0.56171 0.90864 0.0
C564 C 0.42176 0.58434 0.89339 0.0
C565 C 0.40545 0.58521 0.81026 0.0
C566 C 0.38614 0.60824 0.79318 0.0
C567 C 0.38317 0.63066 0.85884 0.0
C568 C 0.39883 0.62932 0.94282 0.0
C569 C 0.41801 0.60631 0.95999 0.0
C570 C 0.45039 0.51404 0.63514 0.0
C571 C 0.49361 0.46757 0.82151 0.0
C572 C 0.55471 0.4878 0.56301 0.0
C573 C 0.57859 0.46705 0.58021 0.0
C574 C 0.58614 0.44679 0.51132 0.0
C575 C 0.60701 0.42538 0.52984 0.0
C576 C 0.62044 0.42374 0.61768 0.0
C577 C 0.61415 0.44506 0.68498 0.0
C578 C 0.59316 0.46648 0.66658 0.0
C579 C 0.54436 0.53545 0.83631 0.0
O580 O 0.48994 0.57695 0.72436 0.0
O581 O 0.51233 0.55727 0.59817 0.0
O582 O 0.43773 0.53592 0.87617 0.0
O583 O 0.4708 0.56942 0.8905 0.0
O584 O 0.44293 0.50768 0.71967 0.0
O585 O 0.4737 0.52904 0.63814 0.0
O586 O 0.50468 0.4712 0.73692 0.0
O587 O 0.48421 0.49059 0.86706 0.0
O588 O 0.559 0.51421 0.59313 0.0
O589 O 0.52846 0.4784 0.58206 0.0
O590 O 0.55248 0.54143 0.7521 0.0
O591 O 0.52219 0.51916 0.82987 0.0
H592 H 0.4081 0.56844 0.75782 0.0
H593 H 0.37431 0.60908 0.72791 0.0
H594 H 0.39681 0.6466 0.99394 0.0
H595 H 0.43045 0.60605 0.02417 0.0
H596 H 0.57531 0.44701 0.4442 0.0
H597 H 0.61189 0.40933 0.47678 0.0
H598 H 0.62432 0.44415 0.75309 0.0
H599 H 0.58768 0.48205 0.72068 0.0
Ho600 Ho 0.99064 0.50255 0.79637 0.0
Ho601 Ho 1.00389 0.54379 0.67351 0.0
C602 C 0.93916 0.52369 0.66063 0.0
C603 C 0.96925 0.46577 0.91604 0.0
C604 C 0.94949 0.44031 0.91244 0.0
C605 C 0.9192 0.44441 0.91114 0.0
C606 C 0.90046 0.42063 0.91641 0.0
C607 C 0.9115 0.39224 0.92769 0.0
C608 C 0.94172 0.38774 0.92444 0.0
C609 C 0.96063 0.41165 0.91632 0.0
C610 C 1.00869 0.47696 0.63142 0.0
C611 C 0.05543 0.52168 0.80854 0.0
C612 C 0.02581 0.58198 0.56036 0.0
C613 C 0.04377 0.60788 0.57975 0.0
C614 C 0.06769 0.61394 0.52216 0.0
C615 C 0.08742 0.6357 0.54665 0.0
C616 C 0.08354 0.65199 0.62883 0.0
C617 C 0.05873 0.64706 0.68422 0.0
C618 C 0.03909 0.6249 0.66035 0.0
C619 C 0.98563 0.56912 0.83936 0.0
O620 O 0.94532 0.51749 0.74854 0.0
O621 O 0.96155 0.52978 0.60612 0.0
O622 O 0.99465 0.46265 0.87652 0.0
O623 O 0.95795 0.49146 0.89982 0.0
O624 O 0.01736 0.4701 0.71405 0.0
O625 O 0.99141 0.49828 0.63909 0.0
O626 O 0.04947 0.52931 0.72153 0.0
O627 O 0.03334 0.51455 0.86246 0.0
O628 O 0.99895 0.58288 0.59009 0.0
O629 O 0.03824 0.55694 0.57779 0.0
O630 O 0.97668 0.57556 0.75663 0.0
O631 O 1.00329 0.54809 0.83014 0.0
H632 H 0.90984 0.46609 0.91059 0.0
H633 H 0.8772 0.42468 0.92083 0.0
H634 H 0.95066 0.36609 0.93478 0.0
H635 H 0.98393 0.40784 0.91801 0.0
H636 H 0.07182 0.60098 0.46032 0.0
H637 H 0.10651 0.63891 0.5033 0.0
H638 H 0.05518 0.65947 0.74748 0.0
H639 H 0.02086 0.62044 0.70656 0.0
C640 C 0.10862 1.00344 0.45987 0.0
C641 C 0.13275 0.02211 0.47523 0.0
C642 C 0.10436 0.0467 0.59867 0.0
C643 C 0.08294 0.02412 0.59724 0.0
N644 N 0.06635 0.97925 0.52366 0.0
N645 N 0.15419 0.06113 0.56358 0.0
C646 C 0.08518 1.00227 0.52609 0.0
C647 C 0.13064 0.0439 0.5451 0.0
N648 N 0.1081 0.98673 0.38099 0.0
N649 N 0.09927 0.0713 0.64982 0.0
H650 H 0.17345 0.0602 0.52474 0.0
H651 H 0.15527 0.07494 0.62112 0.0
H652 H 0.07984 0.07466 0.68635 0.0
H653 H 0.11271 0.08962 0.64736 0.0
H654 H 0.08988 0.97492 0.35989 0.0
H655 H 0.12486 0.9872 0.33146 0.0
H656 H 0.07 0.96071 0.48333 0.0
H657 H 0.04795 0.97738 0.56498 0.0
C658 C 0.50804 0.11709 0.41742 0.0
C659 C 0.49345 0.14329 0.44343 0.0
C660 C 0.46877 0.11629 0.57088 0.0
C661 C 0.48648 0.09137 0.55326 0.0
N662 N 0.51134 0.06437 0.43293 0.0
N663 N 0.46018 0.16812 0.54662 0.0
C664 C 0.50283 0.09061 0.46858 0.0
C665 C 0.47349 0.14279 0.51969 0.0
N666 N 0.52767 0.11776 0.34543 0.0
N667 N 0.44612 0.11395 0.63279 0.0
H668 H 0.46225 0.18762 0.50944 0.0
H669 H 0.44852 0.17033 0.60871 0.0
H670 H 0.44059 0.09421 0.66478 0.0
H671 H 0.43069 0.13025 0.6437 0.0
H672 H 0.54196 0.10073 0.33057 0.0
H673 H 0.53082 0.13617 0.30351 0.0
H674 H 0.52187 0.06195 0.36891 0.0
H675 H 0.50378 0.0447 0.46021 0.0
C676 C 0.39624 0.54792 0.45857 0.0
C677 C 0.37503 0.52555 0.45124 0.0
C678 C 0.40865 0.49328 0.5387 0.0
C679 C 0.42655 0.5176 0.56255 0.0
N680 N 0.43012 0.57037 0.56371 0.0
N681 N 0.36076 0.4764 0.48922 0.0
C682 C 0.41881 0.54554 0.52617 0.0
C683 C 0.38136 0.49785 0.49143 0.0
N684 N 0.39376 0.57236 0.40452 0.0
N685 N 0.4176 0.46579 0.5619 0.0
H686 H 0.34111 0.4788 0.45367 0.0
H687 H 0.36251 0.45697 0.52671 0.0
H688 H 0.43722 0.46177 0.59636 0.0
H689 H 0.40694 0.447 0.53964 0.0
H690 H 0.40975 0.58853 0.40238 0.0
H691 H 0.37723 0.57467 0.35504 0.0
H692 H 0.42309 0.5912 0.54476 0.0
H693 H 0.4434 0.57031 0.62222 0.0
C694 C 0.02298 0.43557 0.40131 0.0
C695 C 0.01496 0.40675 0.42831 0.0
C696 C 0.99403 0.42679 0.57398 0.0
C697 C 1.00711 0.45433 0.55504 0.0
N698 N 0.03297 0.48567 0.44834 0.0
N699 N 0.99331 0.37474 0.54311 0.0
C700 C 0.02082 0.45907 0.46712 0.0
C701 C 1.00009 0.40242 0.5147 0.0
N702 N 0.03289 0.44021 0.31244 0.0
N703 N 0.97527 0.42409 0.64793 0.0
H704 H 0.99637 0.35649 0.50096 0.0
H705 H 0.98616 0.36967 0.61034 0.0
H706 H 0.96967 0.44165 0.69059 0.0
H707 H 0.96293 0.40543 0.66099 0.0
H708 H 0.03713 0.46077 0.28451 0.0
H709 H 0.03439 0.42334 0.26379 0.0
H710 H 0.04615 0.48993 0.39059 0.0
H711 H 0.03088 0.50335 0.49355 0.0
C712 C 0.92004 0.98903 0.0771 0.0
C713 C 0.89181 0.99938 0.05295 0.0
C714 C 0.91323 0.02305 0.91382 0.0
C715 C 0.93986 1.00772 0.92769 0.0
N716 N 0.96926 0.97696 0.02587 0.0
N717 N 0.86124 0.02527 0.94372 0.0
C718 C 0.94362 0.99136 1.01132 0.0
C719 C 0.88842 0.01655 0.97082 0.0
N720 N 0.92408 0.97681 0.1632 0.0
N721 N 0.91189 0.0446 0.84791 0.0
H722 H 0.84258 0.02174 0.98391 0.0
H723 H 0.85695 0.03438 0.87845 0.0
H724 H 0.92998 0.05094 0.80857 0.0
H725 H 0.89402 0.05843 0.84024 0.0
H726 H 0.94436 0.97082 0.18936 0.0
H727 H 0.90716 0.97513 0.21196 0.0
H728 H 0.97251 0.96194 0.07948 0.0
H729 H 0.98703 0.97906 0.98086 0.0
C730 C 0.52355 0.89837 0.93139 0.0
C731 C 0.50466 0.90137 1.00972 0.0
C732 C 0.49846 0.95373 0.97074 0.0
C733 C 0.51418 0.94965 0.88571 0.0
N734 N 0.55248 0.92223 0.81119 0.0
N735 N 0.47393 0.93189 0.10491 0.0
C736 C 0.52995 0.92313 0.8738 0.0
C737 C 0.49231 0.92918 0.03002 0.0
N738 N 0.53408 0.87141 0.90841 0.0
N739 N 0.49146 0.98131 0.99875 0.0
H740 H 0.47064 0.91516 0.1534 0.0
H741 H 0.46083 0.95006 0.11666 0.0
H742 H 0.49927 0.99977 0.96457 0.0
H743 H 0.48169 0.98622 0.06246 0.0
H744 H 0.54466 0.86698 0.84557 0.0
H745 H 0.53043 0.85287 0.94915 0.0
H746 H 0.56666 0.9046 0.80467 0.0
H747 H 0.55942 0.94064 0.77448 0.0
C748 C 0.61575 0.5523 0.96299 0.0
C749 C 0.61716 0.52972 0.03093 0.0
C750 C 0.5667 0.51513 0.98991 0.0
C751 C 0.56624 0.53638 0.91661 0.0
N752 N 0.58553 0.58223 0.86204 0.0
N753 N 0.59281 0.49231 0.11965 0.0
C754 C 0.5894 0.55706 0.91191 0.0
C755 C 0.5922 0.51192 0.04741 0.0
N756 N 0.64001 0.56871 0.94489 0.0
N757 N 0.54262 0.49838 1.00591 0.0
H758 H 0.61102 0.48941 0.1621 0.0
H759 H 0.57517 0.47972 0.14114 0.0
H760 H 0.522 0.50488 0.98445 0.0
H761 H 0.5425 0.4792 0.04488 0.0
H762 H 0.64173 0.58293 0.88826 0.0
H763 H 0.65924 0.56672 0.98308 0.0
H764 H 0.6003 0.59947 0.86206 0.0
H765 H 0.56581 0.58739 0.82989 0.0
C766 C 0.97866 0.64388 0.95671 0.0
C767 C 1.00104 0.64231 0.02497 0.0
C768 C 1.00539 0.58918 0.99475 0.0
C769 C 0.9865 0.59195 0.91667 0.0
N770 N 0.94456 0.61772 0.85832 0.0
N771 N 0.03466 0.61312 0.1138 0.0
C772 C 0.96988 0.61808 0.9082 0.0
C773 C 0.01373 0.61467 0.04628 0.0
N774 N 0.96698 0.67036 0.9338 0.0
N775 N 0.01359 0.56199 0.02368 0.0
H776 H 0.03968 0.63077 0.15674 0.0
H777 H 0.04778 0.59493 0.12508 0.0
H778 H 1.0046 0.54313 0.99531 0.0
H779 H 0.02598 0.55791 0.08298 0.0
H780 H 0.9536 0.67363 0.8761 0.0
H781 H 0.97208 0.68951 0.96928 0.0
H782 H 0.93013 0.63524 0.85543 0.0
H783 H 0.93598 0.59854 0.83065 0.0
C784 C 0.03215 0.22027 0.75033 0.0
C785 C 0.0616 0.21111 0.74766 0.0
C786 C 0.04597 0.16077 0.74505 0.0
C787 C 0.01786 0.17043 0.71589 0.0
N788 N 0.98217 0.20931 0.71357 0.0
N789 N 0.09334 0.17475 0.80817 0.0
C790 C 1.01009 0.2001 0.72715 0.0
C791 C 0.0668 0.18197 0.77277 0.0
N792 N 0.02478 0.24788 0.77485 0.0
N793 N 0.05353 0.1321 0.73792 0.0
H794 H 0.10885 0.1909 0.82151 0.0
H795 H 0.09892 0.15371 0.82917 0.0
H796 H 0.03868 0.11591 0.71963 0.0
H797 H 0.07481 0.12468 0.74647 0.0
H798 H 0.03997 0.26289 0.79971 0.0
H799 H 0.03997 0.26289 0.79971 0.0
H800 H 0.97626 0.23124 0.71967 0.0
H801 H 0.96531 0.19507 0.69624 0.0
C802 C 0.35051 0.8369 0.55787 0.0
C803 C 0.32682 0.85238 0.59706 0.0
C804 C 0.36012 0.87925 0.69643 0.0
C805 C 0.38316 0.87091 0.63554 0.0
N806 N 0.40237 0.83476 0.53014 0.0
N807 N 0.31013 0.87002 0.74538 0.0
C808 C 0.37917 0.84663 0.57595 0.0
C809 C 0.33199 0.86726 0.68145 0.0
N810 N 0.34582 0.81597 0.49284 0.0
N811 N 0.36453 0.8999 0.76318 0.0
H812 H 0.29022 0.85943 0.73666 0.0
H813 H 0.31299 0.87947 0.81077 0.0
H814 H 0.38518 0.90776 0.77923 0.0
H815 H 0.34765 0.90945 0.80122 0.0
H816 H 0.32486 0.8092 0.47451 0.0
H817 H 0.32486 0.8092 0.47451 0.0
H818 H 0.40005 0.81756 0.48306 0.0
H819 H 0.42365 0.84189 0.5422 0.0
C820 C 0.63871 0.34654 0.68789 0.0
C821 C 0.65686 0.34059 0.61118 0.0
C822 C 0.66497 0.39292 0.59177 0.0
C823 C 0.63825 0.39759 0.64015 0.0
N824 N 0.59991 0.37803 0.73913 0.0
N825 N 0.69662 0.35682 0.51714 0.0
C826 C 0.6257 0.37445 0.69295 0.0
C827 C 0.67421 0.3636 0.57585 0.0
N828 N 0.63192 0.32488 0.74944 0.0
N829 N 0.68008 0.41625 0.55737 0.0
H830 H 0.70218 0.33504 0.50477 0.0
H831 H 0.70913 0.37215 0.48135 0.0
H832 H 0.67313 0.43764 0.56901 0.0
H833 H 0.70002 0.41459 0.52288 0.0
H834 H 0.61948 0.32845 0.80943 0.0
H835 H 0.64162 0.30434 0.74462 0.0
H836 H 0.5883 0.3605 0.76715 0.0
H837 H 0.58911 0.39796 0.74334 0.0
C838 C 0.14506 0.70057 0.58118 0.0
C839 C 0.1654 0.6789 0.6075 0.0
C840 C 0.12932 0.65916 0.71618 0.0
C841 C 0.10765 0.67146 0.65846 0.0
N842 N 0.09344 0.71063 0.55739 0.0
N843 N 0.1808 0.64836 0.73553 0.0
C844 C 0.11507 0.69533 0.60038 0.0
C845 C 0.15899 0.66217 0.68863 0.0
N846 N 0.15433 0.72335 0.5276 0.0
N847 N 0.12123 0.64455 0.79518 0.0
H848 H 0.20256 0.65391 0.72546 0.0
H849 H 0.17737 0.6327 0.78717 0.0
H850 H 0.09945 0.64314 0.8158 0.0
H851 H 0.13585 0.63598 0.84341 0.0
H852 H 0.14086 0.74042 0.50656 0.0
H853 H 0.17638 0.72557 0.51026 0.0
H854 H 0.09717 0.7267 0.50722 0.0
H855 H 0.07151 0.70652 0.57259 0.0
C856 C 0.15946 0.83627 0.84491 0.0
C857 C 0.17636 0.83511 0.9267 0.0
C858 C 0.17895 0.888 0.92657 0.0
C859 C 0.15259 0.88796 0.8748 0.0
N860 N 0.12135 0.86299 0.7655 0.0
N861 N 0.2172 0.8581 0.99766 0.0
C862 C 0.14438 0.86251 0.82532 0.0
C863 C 0.19215 0.86062 0.94767 0.0
N864 N 0.15805 0.81263 0.78795 0.0
N865 N 0.18954 0.9136 0.96083 0.0
H866 H 0.22514 0.83752 0.01631 0.0
H867 H 0.23036 0.87569 0.0157 0.0
H868 H 0.17996 0.93361 0.94405 0.0
H869 H 0.20746 0.91499 1.00494 0.0
H870 H 0.14699 0.81278 0.7245 0.0
H871 H 0.17083 0.79419 0.80083 0.0
H872 H 0.11275 0.84418 0.73555 0.0
H873 H 0.11046 0.88224 0.74857 0.0
C874 C 0.66454 0.96223 0.70458 0.0
C875 C 0.69383 0.96606 0.72952 0.0
C876 C 0.68507 0.01803 0.7513 0.0
C877 C 0.65506 1.01162 0.76214 0.0
N878 N 0.61533 0.97752 0.74093 0.0
N879 N 0.73229 1.00127 0.70412 0.0
C880 C 0.64426 0.98393 0.73304 0.0
C881 C 0.70432 0.99509 0.7281 0.0
N882 N 0.6562 0.93609 0.6687 0.0
N883 N 0.69548 0.04551 0.76524 0.0
H884 H 0.74668 0.9855 0.67876 0.0
H885 H 0.74668 0.9855 0.67876 0.0
H886 H 0.68198 0.06301 0.78267 0.0
H887 H 0.71765 0.05044 0.75941 0.0
H888 H 0.63496 0.93145 0.64807 0.0
H889 H 0.67166 0.9199 0.65469 0.0
H890 H 0.6071 0.95655 0.73251 0.0
H891 H 0.59977 0.99294 0.7603 0.0
C892 C 0.36885 0.7098 0.81711 0.0
C893 C 0.34745 0.71292 0.88767 0.0
C894 C 0.33836 0.66047 0.88428 0.0
C895 C 0.3657 0.65713 0.83925 0.0
N896 N 0.40455 0.67756 0.74618 0.0
N897 N 0.30474 0.69405 0.96167 0.0
C898 C 0.37971 0.68148 0.79761 0.0
C899 C 0.32909 0.68906 0.90917 0.0
N900 N 0.37939 0.73392 0.77241 0.0
N901 N 0.32262 0.63623 0.90758 0.0
H902 H 0.29868 0.71529 0.97978 0.0
H903 H 0.29068 0.67787 0.98564 0.0
H904 H 0.32953 0.61534 0.88881 0.0
H905 H 0.30244 0.63671 0.94095 0.0
H906 H 0.39402 0.73308 0.7167 0.0
H907 H 0.37092 0.75464 0.78469 0.0
H908 H 0.41785 0.69456 0.72327 0.0
H909 H 0.41234 0.6569 0.72858 0.0
C910 C 0.83945 0.3594 0.95511 0.0
C911 C 0.83462 0.37446 0.04062 0.0
C912 C 0.88709 0.37432 0.06494 0.0
C913 C 0.89145 0.37037 0.9689 0.0
N914 N 0.87246 0.35431 0.82246 0.0
N915 N 0.85725 0.40533 0.15779 0.0
C916 C 0.86786 0.36042 0.91434 0.0
C917 C 0.85928 0.3836 0.09329 0.0
N918 N 0.81707 0.34519 0.91251 0.0
N919 N 0.91021 0.37499 0.1242 0.0
H920 H 0.839 0.41877 0.16229 0.0
H921 H 0.87533 0.41332 0.19352 0.0
H922 H 0.9312 0.36954 0.10174 0.0
H923 H 0.90757 0.37804 0.19595 0.0
H924 H 0.81989 0.33265 0.85258 0.0
H925 H 0.79633 0.34391 0.94264 0.0
H926 H 0.85566 0.34994 0.77576 0.0
H927 H 0.89344 0.35478 0.7937 0.0
C928 C 0.99691 0.14316 0.97764 0.0
C929 C 0.02441 0.1549 1.00409 0.0
C930 C 0.04859 0.11047 0.94101 0.0
C931 C 0.02099 0.09846 0.91755 0.0
N932 N 0.96873 0.10095 0.9276 0.0
N933 N 0.07664 0.14977 1.01152 0.0
C934 C 0.99514 0.11428 0.93925 0.0
C935 C 0.05028 0.13844 0.98582 0.0
N936 N 0.97234 0.15966 0.98937 0.0
N937 N 0.07331 0.09551 0.91679 0.0
H938 H 0.07921 0.17132 0.0331 0.0
H939 H 0.09603 0.13803 0.01289 0.0
H940 H 0.07284 0.07508 0.88503 0.0
H941 H 0.09435 0.10367 0.92286 0.0
H942 H 0.9521 0.1542 0.96192 0.0
H943 H 0.97244 0.17999 0.02166 0.0
H944 H 0.949 0.10957 0.95066 0.0
H945 H 0.96664 0.07997 0.90051 0.0
C946 C 0.3855 0.04376 0.98441 0.0
C947 C 0.3667 0.01949 0.97116 0.0
C948 C 0.3999 1.00103 0.84959 0.0
C949 C 0.41835 0.02591 0.85912 0.0
N950 N 0.42345 0.07483 0.91887 0.0
N951 N 0.35141 0.98076 0.87006 0.0
C952 C 0.4095 0.04853 0.92137 0.0
C953 C 0.37226 1.00043 0.89542 0.0
N954 N 0.38127 0.06156 0.05943 0.0
N955 N 0.40967 0.97658 0.80489 0.0
H956 H 0.33112 0.97981 0.90329 0.0
H957 H 0.35316 0.96787 0.81044 0.0
H958 H 0.43091 0.97407 0.78035 0.0
H959 H 0.39788 0.95719 0.8034 0.0
H960 H 0.39618 0.07748 0.07947 0.0
H961 H 0.36349 0.05924 0.10452 0.0
H962 H 0.41645 0.09288 0.95686 0.0
H963 H 0.44008 0.07949 0.87123 0.0
C964 C 0.52335 0.39671 0.9315 0.0
C965 C 0.49879 0.38666 0.98328 0.0
C966 C 0.46933 0.4256 0.90977 0.0
C967 C 0.49497 0.43831 0.87035 0.0
N968 N 0.54748 0.43776 0.85681 0.0
N969 N 0.44843 0.39266 0.02595 0.0
C970 C 0.52227 0.42411 0.88358 0.0
C971 C 0.47165 0.4012 0.97255 0.0
N972 N 0.54816 0.38022 0.93123 0.0
N973 N 0.44268 0.43661 0.88602 0.0
H974 H 0.44923 0.37445 0.06979 0.0
H975 H 0.42905 0.40441 0.03052 0.0
H976 H 0.44026 0.45412 0.83994 0.0
H977 H 0.42304 0.42683 0.90506 0.0
H978 H 0.5668 0.38558 0.8936 0.0
H979 H 0.54923 0.35978 0.96346 0.0
H980 H 0.56818 0.43031 0.8745 0.0
H981 H 0.54796 0.45821 0.82495 0.0
C982 C 0.12114 0.50175 0.96286 0.0
C983 C 0.14047 0.52552 0.94706 0.0
C984 C 0.1052 0.54619 0.83406 0.0
C985 C 0.08613 0.52197 0.84806 0.0
N986 N 0.08086 0.47265 0.90502 0.0
N987 N 0.15419 0.56611 0.84972 0.0
C988 C 0.09564 0.49853 0.90619 0.0
C989 C 0.13355 0.54622 0.87624 0.0
N990 N 0.12629 0.48288 0.03494 0.0
N991 N 0.0957 0.57016 0.78605 0.0
H992 H 0.17493 0.56663 0.87944 0.0
H993 H 0.15189 0.57993 0.79235 0.0
H994 H 0.07471 0.57229 0.7596 0.0
H995 H 0.10776 0.58923 0.77949 0.0
H996 H 0.11119 0.46737 0.05741 0.0
H997 H 0.14484 0.48404 0.07665 0.0
H998 H 0.0882 0.45391 0.93894 0.0
H999 H 0.06306 0.46895 0.86153 0.0
C1000 C 0.02621 0.88382 0.59353 0.0
C1001 C 1.00548 0.87745 0.52295 0.0
C1002 C 0.97889 0.92235 0.56848 0.0
C1003 C 1.00235 0.93107 0.62732 0.0
N1004 N 0.05206 0.9216 0.67605 0.0
N1005 N 0.96343 0.89323 0.43583 0.0
C1006 C 0.02691 0.91208 0.63531 0.0
C1007 C 0.98204 0.89734 0.5088 0.0
N1008 N 0.04547 0.86275 0.6209 0.0
N1009 N 0.95318 0.93735 0.57142 0.0
H1010 H 0.96486 0.87536 0.39122 0.0
H1011 H 0.94805 0.9087 0.41538 0.0
H1012 H 0.94965 0.95487 0.61636 0.0
H1013 H 0.93446 0.93049 0.53684 0.0
H1014 H 0.05924 0.86521 0.67807 0.0
H1015 H 0.04532 0.84174 0.59298 0.0
H1016 H 0.07139 0.90968 0.67428 0.0
H1017 H 0.05498 0.94272 0.70078 0.0
C1018 C 0.62256 0.97861 0.49085 0.0
C1019 C 0.6401 1.00373 0.47244 0.0
C1020 C 0.60083 0.03487 0.53722 0.0
C1021 C 0.58402 1.00973 0.55971 0.0
N1022 N 0.57883 0.95751 0.56106 0.0
N1023 N 0.64723 0.05555 0.48668 0.0
C1024 C 0.59478 0.98157 0.53631 0.0
C1025 C 0.62962 0.03177 0.49868 0.0
N1026 N 0.63261 0.95176 0.46434 0.0
N1027 N 0.58856 0.06186 0.54815 0.0
H1028 H 0.66769 0.05439 0.45501 0.0
H1029 H 0.64255 0.07611 0.5135 0.0
H1030 H 0.56766 0.06491 0.57549 0.0
H1031 H 0.598 0.08112 0.52421 0.0
H1032 H 0.61992 0.93297 0.46266 0.0
H1033 H 0.65399 0.94817 0.44214 0.0
H1034 H 0.58618 0.93613 0.5555 0.0
H1035 H 0.55839 0.95884 0.59275 0.0
C1036 C 0.49282 0.63936 0.44727 0.0
C1037 C 0.49224 0.66536 0.50058 0.0
C1038 C 0.50485 0.63623 0.64029 0.0
C1039 C 0.50021 0.60971 0.59033 0.0
N1040 N 0.48443 0.5874 0.44511 0.0
N1041 N 0.49544 0.68839 0.65068 0.0
C1042 C 0.49319 0.61159 0.4931 0.0
C1043 C 0.49776 0.66374 0.59793 0.0
N1044 N 0.49242 0.64121 0.35202 0.0
N1045 N 0.51717 0.63536 0.72694 0.0
H1046 H 0.49167 0.70892 0.62129 0.0
H1047 H 0.49556 0.68816 0.72344 0.0
H1048 H 0.52421 0.61605 0.75814 0.0
H1049 H 0.52342 0.654 0.7632 0.0
H1050 H 0.49585 0.62331 0.30864 0.0
H1051 H 0.49173 0.66112 0.31654 0.0
H1052 H 0.47588 0.58835 0.37788 0.0
H1053 H 0.48217 0.5668 0.47465 0.0
C1054 C 0.85649 0.50759 0.64158 0.0
C1055 C 0.84961 0.51608 0.54862 0.0
C1056 C 0.89933 0.53707 0.53981 0.0
C1057 C 0.90798 0.52204 0.62296 0.0
N1058 N 0.89361 0.4841 0.73245 0.0
N1059 N 0.8691 0.53433 0.4019 0.0
C1060 C 0.8862 0.505 0.66896 0.0
C1061 C 0.87226 0.52973 0.49548 0.0
N1062 N 0.83476 0.50151 0.70396 0.0
N1063 N 0.91606 0.55908 0.50413 0.0
H1064 H 0.85087 0.52767 0.36458 0.0
H1065 H 0.88615 0.54186 0.35987 0.0
H1066 H 0.93419 0.56739 0.53859 0.0
H1067 H 0.90944 0.57171 0.4473 0.0
H1068 H 0.83898 0.49675 0.77395 0.0
H1069 H 0.81278 0.50453 0.68774 0.0
H1070 H 0.87816 0.47021 0.76256 0.0
H1071 H 0.91504 0.47737 0.74259 0.0
loop_
_geom_bond_atom_site_label_1
_geom_bond_atom_site_label_2
_geom_bond_distance
_geom_bond_site_symmetry_2
_ccdc_geom_bond_type
C0 C1 1.391 . S
C0 C4 1.391 . S
C0 H42 0.948 . S
C1 C0 1.391 . S
C1 C2 1.391 . S
C2 C1 1.391 . S
C2 H58 0.947 . S
C2 C59 1.392 . S
C3 C4 1.391 . S
C3 C7 1.397 . S
C3 C59 1.419 . S
C4 C0 1.391 . S
C4 C3 1.391 . S
C4 C5 1.399 . S
C5 C4 1.399 . S
C5 C8 1.396 . S
C5 C17 1.453 . S
C5 C18 1.684 . S
H6 C30 0.948 . S
C7 C3 1.397 . S
C7 C8 1.394 . S
C7 C26 1.723 . S
C8 C5 1.396 . S
C8 C7 1.394 . S
C8 C38 1.723 . S
H9 C32 0.947 . S
H10 C33 0.948 . S
H11 C39 0.982 . S
H12 C40 0.979 . S
H13 C40 0.980 . S
H14 C40 0.983 . S
H15 C39 0.979 . S
H16 C39 0.977 . S
C17 C5 1.453 . S
C17 H46 0.982 . S
C17 H47 0.979 . S
C17 H48 0.977 . S
C18 C5 1.684 . S
C18 H43 0.979 . S
C18 H44 0.980 . S
C18 H45 0.983 . S
C19 C20 1.391 . S
C19 C24 1.391 . S
C19 H49 0.948 . S
C20 C19 1.391 . S
C20 C21 1.391 . S
C21 C20 1.391 . S
C21 C22 1.392 . S
C21 H50 0.947 . S
C22 C21 1.392 . S
C22 C23 1.419 . S
C22 H51 0.948 . S
C23 C22 1.419 . S
C23 C24 1.391 . S
C23 C27 1.397 . S
C24 C19 1.391 . S
C24 C23 1.391 . S
C24 C25 1.399 . S
C25 C24 1.399 . S
C25 C26 1.396 . S
C25 C28 1.453 . S
C25 C29 1.684 . S
C26 C7 1.723 . S
C26 C25 1.396 . S
C26 C27 1.394 . S
C27 C23 1.397 . S
C27 C26 1.394 . S
C27 C37 1.723 . S
C28 C25 1.453 . S
C28 H52 0.982 . S
C28 H53 0.979 . S
C28 H54 0.977 . S
C29 C25 1.684 . S
C29 H55 0.979 . S
C29 H56 0.980 . S
C29 H57 0.983 . S
C30 H6 0.948 . S
C30 C31 1.391 . S
C30 C35 1.391 . S
C31 C30 1.391 . S
C31 C32 1.391 . S
C32 H9 0.947 . S
C32 C31 1.391 . S
C32 C33 1.392 . S
C33 H10 0.948 . S
C33 C32 1.392 . S
C33 C34 1.419 . S
C34 C33 1.419 . S
C34 C35 1.391 . S
C34 C38 1.397 . S
C35 C30 1.391 . S
C35 C34 1.391 . S
C35 C36 1.399 . S
C36 C35 1.399 . S
C36 C37 1.396 . S
C36 C39 1.453 . S
C36 C40 1.684 . S
C37 C27 1.723 . S
C37 C36 1.396 . S
C37 C38 1.394 . S
C38 C8 1.723 . S
C38 C34 1.397 . S
C38 C37 1.394 . S
C39 H11 0.982 . S
C39 H15 0.979 . S
C39 H16 0.977 . S
C39 C36 1.453 . S
C40 H12 0.979 . S
C40 H13 0.980 . S
C40 H14 0.983 . S
C40 C36 1.684 . S
H41 C59 0.948 . S
H42 C0 0.948 . S
H43 C18 0.979 . S
H44 C18 0.980 . S
H45 C18 0.983 . S
H46 C17 0.982 . S
H47 C17 0.979 . S
H48 C17 0.977 . S
H49 C19 0.948 . S
H50 C21 0.947 . S
H51 C22 0.948 . S
H52 C28 0.982 . S
H53 C28 0.979 . S
H54 C28 0.977 . S
H55 C29 0.979 . S
H56 C29 0.980 . S
H57 C29 0.983 . S
H58 C2 0.947 . S
C59 C2 1.392 . S
C59 C3 1.419 . S
C59 H41 0.948 . S
C60 C61 1.391 . S
C60 C64 1.391 . S
C60 H102 0.948 . S
C61 C60 1.391 . S
C61 C62 1.391 . S
C62 C61 1.391 . S
C62 H118 0.947 . S
C62 C119 1.392 . S
C63 C64 1.391 . S
C63 C67 1.397 1_655 S
C63 C119 1.419 . S
C64 C60 1.391 . S
C64 C63 1.391 . S
C64 C65 1.399 . S
C65 C64 1.399 . S
C65 C68 1.396 1_655 S
C65 C77 1.453 1_655 S
C65 C78 1.684 . S
H66 C90 0.948 . S
C67 C63 1.397 1_455 S
C67 C68 1.394 . S
C67 C86 1.723 . S
C68 C65 1.396 1_455 S
C68 C67 1.394 . S
C68 C98 1.723 . S
H69 C92 0.947 . S
H70 C93 0.948 . S
H71 C99 0.982 . S
H72 C100 0.979 . S
H73 C100 0.980 . S
H74 C100 0.983 . S
H75 C99 0.979 . S
H76 C99 0.977 . S
C77 C65 1.453 1_455 S
C77 H106 0.982 . S
C77 H107 0.979 . S
C77 H108 0.977 . S
C78 C65 1.684 . S
C78 H103 0.979 . S
C78 H104 0.980 . S
C78 H105 0.983 . S
C79 C80 1.391 . S
C79 C84 1.391 . S
C79 H109 0.948 . S
C80 C79 1.391 . S
C80 C81 1.391 . S
C81 C80 1.391 . S
C81 C82 1.392 . S
C81 H110 0.947 . S
C82 C81 1.392 . S
C82 C83 1.419 . S
C82 H111 0.948 . S
C83 C82 1.419 . S
C83 C84 1.391 . S
C83 C87 1.397 1_655 S
C84 C79 1.391 . S
C84 C83 1.391 . S
C84 C85 1.399 . S
C85 C84 1.399 . S
C85 C86 1.396 1_655 S
C85 C88 1.453 1_655 S
C85 C89 1.684 . S
C86 C67 1.723 . S
C86 C85 1.396 1_455 S
C86 C87 1.394 . S
C87 C83 1.397 1_455 S
C87 C86 1.394 . S
C87 C97 1.723 . S
C88 C85 1.453 1_455 S
C88 H112 0.982 . S
C88 H113 0.979 . S
C88 H114 0.977 . S
C89 C85 1.684 . S
C89 H115 0.979 . S
C89 H116 0.980 . S
C89 H117 0.983 . S
C90 H66 0.948 . S
C90 C91 1.391 . S
C90 C95 1.391 . S
C91 C90 1.391 . S
C91 C92 1.391 . S
C92 H69 0.947 . S
C92 C91 1.391 . S
C92 C93 1.392 . S
C93 H70 0.948 . S
C93 C92 1.392 . S
C93 C94 1.419 . S
C94 C93 1.419 . S
C94 C95 1.391 . S
C94 C98 1.397 1_655 S
C95 C90 1.391 . S
C95 C94 1.391 . S
C95 C96 1.399 . S
C96 C95 1.399 . S
C96 C97 1.396 1_655 S
C96 C99 1.453 1_655 S
C96 C100 1.684 . S
C97 C87 1.723 . S
C97 C96 1.396 1_455 S
C97 C98 1.394 . S
C98 C68 1.723 . S
C98 C94 1.397 1_455 S
C98 C97 1.394 . S
C99 H71 0.982 . S
C99 H75 0.979 . S
C99 H76 0.977 . S
C99 C96 1.453 1_455 S
C100 H72 0.979 . S
C100 H73 0.980 . S
C100 H74 0.983 . S
C100 C96 1.684 . S
H101 C119 0.948 . S
H102 C60 0.948 . S
H103 C78 0.979 . S
H104 C78 0.980 . S
H105 C78 0.983 . S
H106 C77 0.982 . S
H107 C77 0.979 . S
H108 C77 0.977 . S
H109 C79 0.948 . S
H110 C81 0.947 . S
H111 C82 0.948 . S
H112 C88 0.982 . S
H113 C88 0.979 . S
H114 C88 0.977 . S
H115 C89 0.979 . S
H116 C89 0.980 . S
H117 C89 0.983 . S
H118 C62 0.947 . S
C119 C62 1.392 . S
C119 C63 1.419 . S
C119 H101 0.948 . S
C120 C121 1.391 . S
C120 C124 1.391 . S
C120 H162 0.948 . S
C121 C120 1.391 . S
C121 C122 1.391 . S
C122 C121 1.391 . S
C122 H178 0.947 . S
C122 C179 1.392 . S
C123 C124 1.391 . S
C123 C127 1.397 1_565 S
C123 C179 1.419 . S
C124 C120 1.391 . S
C124 C123 1.391 . S
C124 C125 1.399 . S
C125 C124 1.399 . S
C125 C128 1.396 1_565 S
C125 C137 1.453 1_565 S
C125 C138 1.684 . S
H126 C150 0.948 . S
C127 C123 1.397 1_545 S
C127 C128 1.394 . S
C127 C146 1.723 . S
C128 C125 1.396 1_545 S
C128 C127 1.394 . S
C128 C158 1.723 . S
H129 C152 0.947 . S
H130 C153 0.948 . S
H131 C159 0.982 . S
H132 C160 0.979 . S
H133 C160 0.980 . S
H134 C160 0.983 . S
H135 C159 0.979 . S
H136 C159 0.977 . S
C137 C125 1.453 1_545 S
C137 H166 0.982 . S
C137 H167 0.979 . S
C137 H168 0.977 . S
C138 C125 1.684 . S
C138 H163 0.979 . S
C138 H164 0.980 . S
C138 H165 0.983 . S
C139 C140 1.391 . S
C139 C144 1.391 . S
C139 H169 0.948 . S
C140 C139 1.391 . S
C140 C141 1.391 . S
C141 C140 1.391 . S
C141 C142 1.392 . S
C141 H170 0.947 . S
C142 C141 1.392 . S
C142 C143 1.419 . S
C142 H171 0.948 . S
C143 C142 1.419 . S
C143 C144 1.391 . S
C143 C147 1.397 1_565 S
C144 C139 1.391 . S
C144 C143 1.391 . S
C144 C145 1.399 . S
C145 C144 1.399 . S
C145 C146 1.396 1_565 S
C145 C148 1.453 1_565 S
C145 C149 1.684 . S
C146 C127 1.723 . S
C146 C145 1.396 1_545 S
C146 C147 1.394 . S
C147 C143 1.397 1_545 S
C147 C146 1.394 . S
C147 C157 1.723 . S
C148 C145 1.453 1_545 S
C148 H172 0.982 . S
C148 H173 0.979 . S
C148 H174 0.977 . S
C149 C145 1.684 . S
C149 H175 0.979 . S
C149 H176 0.980 . S
C149 H177 0.983 . S
C150 H126 0.948 . S
C150 C151 1.391 . S
C150 C155 1.391 . S
C151 C150 1.391 . S
C151 C152 1.391 . S
C152 H129 0.947 . S
C152 C151 1.391 . S
C152 C153 1.392 . S
C153 H130 0.948 . S
C153 C152 1.392 . S
C153 C154 1.419 . S
C154 C153 1.419 . S
C154 C155 1.391 . S
C154 C158 1.397 1_565 S
C155 C150 1.391 . S
C155 C154 1.391 . S
C155 C156 1.399 . S
C156 C155 1.399 . S
C156 C157 1.396 1_565 S
C156 C159 1.453 1_565 S
C156 C160 1.684 . S
C157 C147 1.723 . S
C157 C156 1.396 1_545 S
C157 C158 1.394 . S
C158 C128 1.723 . S
C158 C154 1.397 1_545 S
C158 C157 1.394 . S
C159 H131 0.982 . S
C159 H135 0.979 . S
C159 H136 0.977 . S
C159 C156 1.453 1_545 S
C160 H132 0.979 . S
C160 H133 0.980 . S
C160 H134 0.983 . S
C160 C156 1.684 . S
H161 C179 0.948 . S
H162 C120 0.948 . S
H163 C138 0.979 . S
H164 C138 0.980 . S
H165 C138 0.983 . S
H166 C137 0.982 . S
H167 C137 0.979 . S
H168 C137 0.977 . S
H169 C139 0.948 . S
H170 C141 0.947 . S
H171 C142 0.948 . S
H172 C148 0.982 . S
H173 C148 0.979 . S
H174 C148 0.977 . S
H175 C149 0.979 . S
H176 C149 0.980 . S
H177 C149 0.983 . S
H178 C122 0.947 . S
C179 C122 1.392 . S
C179 C123 1.419 . S
C179 H161 0.948 . S
C180 C181 1.391 . S
C180 C184 1.391 . S
C180 H222 0.948 . S
C181 C180 1.391 . S
C181 C182 1.391 . S
C182 C181 1.391 . S
C182 H238 0.947 . S
C182 C239 1.392 . S
C183 C184 1.391 . S
C183 C187 1.397 . S
C183 C239 1.419 . S
C184 C180 1.391 . S
C184 C183 1.391 . S
C184 C185 1.399 . S
C185 C184 1.399 . S
C185 C188 1.396 . S
C185 C197 1.453 . S
C185 C198 1.684 . S
H186 C210 0.948 . S
C187 C183 1.397 . S
C187 C188 1.394 . S
C187 C206 1.723 . S
C188 C185 1.396 . S
C188 C187 1.394 . S
C188 C218 1.723 . S
H189 C212 0.947 . S
H190 C213 0.948 . S
H191 C219 0.982 . S
H192 C220 0.979 . S
H193 C220 0.980 . S
H194 C220 0.983 . S
H195 C219 0.979 . S
H196 C219 0.977 . S
C197 C185 1.453 . S
C197 H226 0.982 . S
C197 H227 0.979 . S
C197 H228 0.977 . S
C198 C185 1.684 . S
C198 H223 0.979 . S
C198 H224 0.980 . S
C198 H225 0.983 . S
C199 C200 1.391 . S
C199 C204 1.391 . S
C199 H229 0.948 . S
C200 C199 1.391 . S
C200 C201 1.391 . S
C201 C200 1.391 . S
C201 C202 1.392 . S
C201 H230 0.947 . S
C202 C201 1.392 . S
C202 C203 1.419 . S
C202 H231 0.948 . S
C203 C202 1.419 . S
C203 C204 1.391 . S
C203 C207 1.397 . S
C204 C199 1.391 . S
C204 C203 1.391 . S
C204 C205 1.399 . S
C205 C204 1.399 . S
C205 C206 1.396 . S
C205 C208 1.453 . S
C205 C209 1.684 . S
C206 C187 1.723 . S
C206 C205 1.396 . S
C206 C207 1.394 . S
C207 C203 1.397 . S
C207 C206 1.394 . S
C207 C217 1.723 . S
C208 C205 1.453 . S
C208 H232 0.982 . S
C208 H233 0.979 . S
C208 H234 0.977 . S
C209 C205 1.684 . S
C209 H235 0.979 . S
C209 H236 0.980 . S
C209 H237 0.983 . S
C210 H186 0.948 . S
C210 C211 1.391 . S
C210 C215 1.391 . S
C211 C210 1.391 . S
C211 C212 1.391 . S
C212 H189 0.947 . S
C212 C211 1.391 . S
C212 C213 1.392 . S
C213 H190 0.948 . S
C213 C212 1.392 . S
C213 C214 1.419 . S
C214 C213 1.419 . S
C214 C215 1.391 . S
C214 C218 1.397 . S
C215 C210 1.391 . S
C215 C214 1.391 . S
C215 C216 1.399 . S
C216 C215 1.399 . S
C216 C217 1.396 . S
C216 C219 1.453 . S
C216 C220 1.684 . S
C217 C207 1.723 . S
C217 C216 1.396 . S
C217 C218 1.394 . S
C218 C188 1.723 . S
C218 C214 1.397 . S
C218 C217 1.394 . S
C219 H191 0.982 . S
C219 H195 0.979 . S
C219 H196 0.977 . S
C219 C216 1.453 . S
C220 H192 0.979 . S
C220 H193 0.980 . S
C220 H194 0.983 . S
C220 C216 1.684 . S
H221 C239 0.948 . S
H222 C180 0.948 . S
H223 C198 0.979 . S
H224 C198 0.980 . S
H225 C198 0.983 . S
H226 C197 0.982 . S
H227 C197 0.979 . S
H228 C197 0.977 . S
H229 C199 0.948 . S
H230 C201 0.947 . S
H231 C202 0.948 . S
H232 C208 0.982 . S
H233 C208 0.979 . S
H234 C208 0.977 . S
H235 C209 0.979 . S
H236 C209 0.980 . S
H237 C209 0.983 . S
H238 C182 0.947 . S
C239 C182 1.392 . S
C239 C183 1.419 . S
C239 H221 0.948 . S
C240 C241 1.391 . S
C240 C244 1.391 . S
C240 H282 0.948 . S
C241 C240 1.391 . S
C241 C242 1.391 . S
C242 C241 1.391 . S
C242 H298 0.947 . S
C242 C299 1.392 . S
C243 C244 1.391 . S
C243 C247 1.397 . S
C243 C299 1.419 . S
C244 C240 1.391 . S
C244 C243 1.391 . S
C244 C245 1.399 1_554 S
C245 C244 1.399 1_556 S
C245 C248 1.396 . S
C245 C257 1.453 . S
C245 C258 1.684 . S
H246 C270 0.948 . S
C247 C243 1.397 . S
C247 C248 1.394 1_554 S
C247 C266 1.723 . S
C248 C245 1.396 . S
C248 C247 1.394 1_556 S
C248 C278 1.723 . S
H249 C272 0.947 . S
H250 C273 0.948 . S
H251 C279 0.982 . S
H252 C280 0.979 . S
H253 C280 0.980 . S
H254 C280 0.983 . S
H255 C279 0.979 . S
H256 C279 0.977 1_554 S
C257 C245 1.453 . S
C257 H286 0.982 . S
C257 H287 0.979 . S
C257 H288 0.977 . S
C258 C245 1.684 . S
C258 H283 0.979 . S
C258 H284 0.980 . S
C258 H285 0.983 . S
C259 C260 1.391 . S
C259 C264 1.391 . S
C259 H289 0.948 . S
C260 C259 1.391 . S
C260 C261 1.391 . S
C261 C260 1.391 . S
C261 C262 1.392 . S
C261 H290 0.947 . S
C262 C261 1.392 . S
C262 C263 1.419 . S
C262 H291 0.948 . S
C263 C262 1.419 . S
C263 C264 1.391 . S
C263 C267 1.397 . S
C264 C259 1.391 . S
C264 C263 1.391 . S
C264 C265 1.399 . S
C265 C264 1.399 . S
C265 C266 1.396 . S
C265 C268 1.453 . S
C265 C269 1.684 . S
C266 C247 1.723 . S
C266 C265 1.396 . S
C266 C267 1.394 . S
C267 C263 1.397 . S
C267 C266 1.394 . S
C267 C277 1.723 1_554 S
C268 C265 1.453 . S
C268 H292 0.982 . S
C268 H293 0.979 . S
C268 H294 0.977 . S
C269 C265 1.684 . S
C269 H295 0.979 . S
C269 H296 0.980 . S
C269 H297 0.983 . S
C270 H246 0.948 . S
C270 C271 1.391 . S
C270 C275 1.391 . S
C271 C270 1.391 . S
C271 C272 1.391 . S
C272 H249 0.947 . S
C272 C271 1.391 . S
C272 C273 1.392 . S
C273 H250 0.948 . S
C273 C272 1.392 . S
C273 C274 1.419 . S
C274 C273 1.419 . S
C274 C275 1.391 . S
C274 C278 1.397 . S
C275 C270 1.391 . S
C275 C274 1.391 . S
C275 C276 1.399 . S
C276 C275 1.399 . S
C276 C277 1.396 . S
C276 C279 1.453 . S
C276 C280 1.684 . S
C277 C267 1.723 1_556 S
C277 C276 1.396 . S
C277 C278 1.394 . S
C278 C248 1.723 . S
C278 C274 1.397 . S
C278 C277 1.394 . S
C279 H251 0.982 . S
C279 H255 0.979 . S
C279 H256 0.977 1_556 S
C279 C276 1.453 . S
C280 H252 0.979 . S
C280 H253 0.980 . S
C280 H254 0.983 . S
C280 C276 1.684 . S
H281 C299 0.948 . S
H282 C240 0.948 . S
H283 C258 0.979 . S
H284 C258 0.980 . S
H285 C258 0.983 . S
H286 C257 0.982 . S
H287 C257 0.979 . S
H288 C257 0.977 . S
H289 C259 0.948 . S
H290 C261 0.947 . S
H291 C262 0.948 . S
H292 C268 0.982 . S
H293 C268 0.979 . S
H294 C268 0.977 . S
H295 C269 0.979 . S
H296 C269 0.980 . S
H297 C269 0.983 . S
H298 C242 0.947 . S
C299 C242 1.392 . S
C299 C243 1.419 . S
C299 H281 0.948 . S
C300 C301 1.391 . S
C300 C304 1.391 . S
C300 H342 0.948 . S
C301 C300 1.391 . S
C301 C302 1.391 . S
C302 C301 1.391 . S
C302 H358 0.947 . S
C302 C359 1.392 . S
C303 C304 1.391 . S
C303 C307 1.396 1_655 S
C303 C359 1.419 . S
C304 C300 1.391 . S
C304 C303 1.391 . S
C304 C305 1.399 . S
C305 C304 1.399 . S
C305 C308 1.396 1_655 S
C305 C317 1.453 1_655 S
C305 C318 1.684 . S
H306 C330 0.948 . S
C307 C303 1.396 1_455 S
C307 C308 1.395 . S
C307 C326 1.723 1_554 S
C308 C305 1.396 1_455 S
C308 C307 1.395 . S
C308 C338 1.723 . S
H309 C332 0.947 . S
H310 C333 0.948 . S
H311 C339 0.982 . S
H312 C340 0.979 . S
H313 C340 0.980 . S
H314 C340 0.983 . S
H315 C339 0.979 . S
H316 C339 0.977 . S
C317 C305 1.453 1_455 S
C317 H346 0.982 . S
C317 H347 0.979 . S
C317 H348 0.977 . S
C318 C305 1.684 . S
C318 H343 0.979 . S
C318 H344 0.980 . S
C318 H345 0.983 . S
C319 C320 1.391 . S
C319 C324 1.391 . S
C319 H349 0.948 . S
C320 C319 1.391 . S
C320 C321 1.391 . S
C321 C320 1.391 . S
C321 C322 1.392 . S
C321 H350 0.947 . S
C322 C321 1.392 . S
C322 C323 1.419 . S
C322 H351 0.948 . S
C323 C322 1.419 . S
C323 C324 1.391 . S
C323 C327 1.396 1_655 S
C324 C319 1.391 . S
C324 C323 1.391 . S
C324 C325 1.399 . S
C325 C324 1.399 . S
C325 C326 1.396 1_655 S
C325 C328 1.453 1_655 S
C325 C329 1.684 . S
C326 C307 1.723 1_556 S
C326 C325 1.396 1_455 S
C326 C327 1.395 . S
C327 C323 1.396 1_455 S
C327 C326 1.395 . S
C327 C337 1.723 . S
C328 C325 1.453 1_455 S
C328 H352 0.982 . S
C328 H353 0.979 . S
C328 H354 0.977 1_556 S
C329 C325 1.684 . S
C329 H355 0.979 . S
C329 H356 0.980 1_556 S
C329 H357 0.983 . S
C330 H306 0.948 . S
C330 C331 1.391 . S
C330 C335 1.391 . S
C331 C330 1.391 . S
C331 C332 1.391 . S
C332 H309 0.947 . S
C332 C331 1.391 . S
C332 C333 1.392 . S
C333 H310 0.948 . S
C333 C332 1.392 . S
C333 C334 1.419 . S
C334 C333 1.419 . S
C334 C335 1.391 . S
C334 C338 1.396 1_655 S
C335 C330 1.391 . S
C335 C334 1.391 . S
C335 C336 1.399 1_554 S
C336 C335 1.399 1_556 S
C336 C337 1.396 1_655 S
C336 C339 1.453 1_655 S
C336 C340 1.684 . S
C337 C327 1.723 . S
C337 C336 1.396 1_455 S
C337 C338 1.395 1_556 S
C338 C308 1.723 . S
C338 C334 1.396 1_455 S
C338 C337 1.395 1_554 S
C339 H311 0.982 . S
C339 H315 0.979 . S
C339 H316 0.977 . S
C339 C336 1.453 1_455 S
C340 H312 0.979 . S
C340 H313 0.980 . S
C340 H314 0.983 . S
C340 C336 1.684 . S
H341 C359 0.948 . S
H342 C300 0.948 . S
H343 C318 0.979 . S
H344 C318 0.980 . S
H345 C318 0.983 . S
H346 C317 0.982 . S
H347 C317 0.979 . S
H348 C317 0.977 . S
H349 C319 0.948 . S
H350 C321 0.947 . S
H351 C322 0.948 . S
H352 C328 0.982 . S
H353 C328 0.979 . S
H354 C328 0.977 1_554 S
H355 C329 0.979 . S
H356 C329 0.980 1_554 S
H357 C329 0.983 . S
H358 C302 0.947 . S
C359 C302 1.392 . S
C359 C303 1.419 . S
C359 H341 0.948 . S
C360 C361 1.391 . S
C360 C364 1.391 . S
C360 H402 0.948 . S
C361 C360 1.391 . S
C361 C362 1.391 . S
C362 C361 1.391 . S
C362 H418 0.947 . S
C362 C419 1.392 . S
C363 C364 1.391 . S
C363 C367 1.397 1_545 S
C363 C419 1.419 . S
C364 C360 1.391 . S
C364 C363 1.391 . S
C364 C365 1.399 . S
C365 C364 1.399 . S
C365 C368 1.396 1_545 S
C365 C377 1.453 1_545 S
C365 C378 1.684 . S
H366 C390 0.948 . S
C367 C363 1.397 1_565 S
C367 C368 1.394 . S
C367 C386 1.723 1_556 S
C368 C365 1.396 1_565 S
C368 C367 1.394 . S
C368 C398 1.723 1_556 S
H369 C392 0.947 1_556 S
H370 C393 0.948 . S
H371 C399 0.982 . S
H372 C400 0.979 . S
H373 C400 0.980 . S
H374 C400 0.983 . S
H375 C399 0.979 . S
H376 C399 0.977 . S
C377 C365 1.453 1_565 S
C377 H406 0.982 . S
C377 H407 0.979 . S
C377 H408 0.977 . S
C378 C365 1.684 . S
C378 H403 0.979 . S
C378 H404 0.980 . S
C378 H405 0.983 . S
C379 C380 1.391 . S
C379 C384 1.391 . S
C379 H409 0.948 . S
C380 C379 1.391 . S
C380 C381 1.391 . S
C381 C380 1.391 . S
C381 C382 1.392 . S
C381 H410 0.947 . S
C382 C381 1.392 . S
C382 C383 1.419 . S
C382 H411 0.948 . S
C383 C382 1.419 . S
C383 C384 1.391 . S
C383 C387 1.397 1_545 S
C384 C379 1.391 . S
C384 C383 1.391 . S
C384 C385 1.399 . S
C385 C384 1.399 . S
C385 C386 1.396 1_545 S
C385 C388 1.453 1_545 S
C385 C389 1.684 . S
C386 C367 1.723 1_554 S
C386 C385 1.396 1_565 S
C386 C387 1.394 . S
C387 C383 1.397 1_565 S
C387 C386 1.394 . S
C387 C397 1.723 . S
C388 C385 1.453 1_565 S
C388 H412 0.982 . S
C388 H413 0.979 . S
C388 H414 0.977 1_554 S
C389 C385 1.684 . S
C389 H415 0.979 . S
C389 H416 0.980 1_554 S
C389 H417 0.983 . S
C390 H366 0.948 . S
C390 C391 1.391 . S
C390 C395 1.391 . S
C391 C390 1.391 . S
C391 C392 1.391 . S
C392 H369 0.947 1_554 S
C392 C391 1.391 . S
C392 C393 1.392 1_554 S
C393 H370 0.948 . S
C393 C392 1.392 1_556 S
C393 C394 1.419 1_556 S
C394 C393 1.419 1_554 S
C394 C395 1.391 . S
C394 C398 1.397 1_545 S
C395 C390 1.391 . S
C395 C394 1.391 . S
C395 C396 1.399 . S
C396 C395 1.399 . S
C396 C397 1.396 1_545 S
C396 C399 1.453 1_545 S
C396 C400 1.684 . S
C397 C387 1.723 . S
C397 C396 1.396 1_565 S
C397 C398 1.394 . S
C398 C368 1.723 1_554 S
C398 C394 1.397 1_565 S
C398 C397 1.394 . S
C399 H371 0.982 . S
C399 H375 0.979 . S
C399 H376 0.977 . S
C399 C396 1.453 1_565 S
C400 H372 0.979 . S
C400 H373 0.980 . S
C400 H374 0.983 . S
C400 C396 1.684 . S
H401 C419 0.948 . S
H402 C360 0.948 . S
H403 C378 0.979 . S
H404 C378 0.980 . S
H405 C378 0.983 . S
H406 C377 0.982 . S
H407 C377 0.979 . S
H408 C377 0.977 . S
H409 C379 0.948 . S
H410 C381 0.947 . S
H411 C382 0.948 . S
H412 C388 0.982 . S
H413 C388 0.979 . S
H414 C388 0.977 1_556 S
H415 C389 0.979 . S
H416 C389 0.980 1_556 S
H417 C389 0.983 . S
H418 C362 0.947 . S
C419 C362 1.392 . S
C419 C363 1.419 . S
C419 H401 0.948 . S
C420 C421 1.391 . S
C420 C424 1.391 . S
C420 H462 0.948 . S
C421 C420 1.391 . S
C421 C422 1.391 . S
C422 C421 1.391 . S
C422 H478 0.947 . S
C422 C479 1.392 . S
C423 C424 1.391 . S
C423 C427 1.397 . S
C423 C479 1.419 . S
C424 C420 1.391 . S
C424 C423 1.391 . S
C424 C425 1.399 . S
C425 C424 1.399 . S
C425 C428 1.396 . S
C425 C437 1.453 . S
C425 C438 1.684 . S
H426 C450 0.948 . S
C427 C423 1.397 . S
C427 C428 1.394 . S
C427 C446 1.723 1_556 S
C428 C425 1.396 . S
C428 C427 1.394 . S
C428 C458 1.723 1_556 S
H429 C452 0.947 1_556 S
H430 C453 0.948 . S
H431 C459 0.982 . S
H432 C460 0.979 . S
H433 C460 0.980 . S
H434 C460 0.983 . S
H435 C459 0.979 . S
H436 C459 0.977 . S
C437 C425 1.453 . S
C437 H466 0.982 . S
C437 H467 0.979 . S
C437 H468 0.977 . S
C438 C425 1.684 . S
C438 H463 0.979 . S
C438 H464 0.980 . S
C438 H465 0.983 . S
C439 C440 1.391 . S
C439 C444 1.391 . S
C439 H469 0.948 . S
C440 C439 1.391 . S
C440 C441 1.391 . S
C441 C440 1.391 . S
C441 C442 1.392 . S
C441 H470 0.947 . S
C442 C441 1.392 . S
C442 C443 1.419 . S
C442 H471 0.948 . S
C443 C442 1.419 . S
C443 C444 1.391 . S
C443 C447 1.397 . S
C444 C439 1.391 . S
C444 C443 1.391 . S
C444 C445 1.399 . S
C445 C444 1.399 . S
C445 C446 1.396 . S
C445 C448 1.453 . S
C445 C449 1.684 . S
C446 C427 1.723 1_554 S
C446 C445 1.396 . S
C446 C447 1.394 . S
C447 C443 1.397 . S
C447 C446 1.394 . S
C447 C457 1.723 . S
C448 C445 1.453 . S
C448 H472 0.982 . S
C448 H473 0.979 . S
C448 H474 0.977 1_554 S
C449 C445 1.684 . S
C449 H475 0.979 . S
C449 H476 0.980 1_554 S
C449 H477 0.983 . S
C450 H426 0.948 . S
C450 C451 1.391 . S
C450 C455 1.391 . S
C451 C450 1.391 . S
C451 C452 1.391 . S
C452 H429 0.947 1_554 S
C452 C451 1.391 . S
C452 C453 1.392 1_554 S
C453 H430 0.948 . S
C453 C452 1.392 1_556 S
C453 C454 1.419 1_556 S
C454 C453 1.419 1_554 S
C454 C455 1.391 . S
C454 C458 1.397 . S
C455 C450 1.391 . S
C455 C454 1.391 . S
C455 C456 1.399 . S
C456 C455 1.399 . S
C456 C457 1.396 . S
C456 C459 1.453 . S
C456 C460 1.684 . S
C457 C447 1.723 . S
C457 C456 1.396 . S
C457 C458 1.394 . S
C458 C428 1.723 1_554 S
C458 C454 1.397 . S
C458 C457 1.394 . S
C459 H431 0.982 . S
C459 H435 0.979 . S
C459 H436 0.977 . S
C459 C456 1.453 . S
C460 H432 0.979 . S
C460 H433 0.980 . S
C460 H434 0.983 . S
C460 C456 1.684 . S
H461 C479 0.948 . S
H462 C420 0.948 . S
H463 C438 0.979 . S
H464 C438 0.980 . S
H465 C438 0.983 . S
H466 C437 0.982 . S
H467 C437 0.979 . S
H468 C437 0.977 . S
H469 C439 0.948 . S
H470 C441 0.947 . S
H471 C442 0.948 . S
H472 C448 0.982 . S
H473 C448 0.979 . S
H474 C448 0.977 1_556 S
H475 C449 0.979 . S
H476 C449 0.980 1_556 S
H477 C449 0.983 . S
H478 C422 0.947 . S
C479 C422 1.392 . S
C479 C423 1.419 . S
C479 H461 0.948 . S
Ho480 C483 2.811 . S
Ho480 O500 2.322 . S
Ho480 O502 2.378 . S
Ho480 O503 2.524 . S
Ho480 O504 2.381 . S
Ho480 O505 2.669 1_565 S
Ho480 O507 2.346 1_565 S
Ho480 O511 2.305 1_455 S
Ho481 C492 2.811 . S
Ho481 O501 2.346 1_545 S
Ho481 O505 2.305 1_655 S
Ho481 O506 2.322 . S
Ho481 O508 2.378 . S
Ho481 O509 2.524 . S
Ho481 O510 2.381 . S
Ho481 O511 2.669 1_545 S
C482 O500 1.259 1_655 S
C482 O501 1.268 . S
C483 Ho480 2.811 . S
C483 C484 1.488 . S
C483 O502 1.215 . S
C483 O503 1.289 . S
C484 C483 1.488 . S
C484 C485 1.348 1_556 S
C484 C489 1.413 . S
C485 C484 1.348 1_554 S
C485 C486 1.442 . S
C485 H512 0.930 1_454 S
C486 C485 1.442 . S
C486 C487 1.381 . S
C486 H513 0.931 . S
C487 C486 1.381 . S
C487 C488 1.321 . S
C488 C487 1.321 . S
C488 C489 1.403 1_554 S
C488 H514 0.934 . S
C489 C484 1.413 . S
C489 C488 1.403 1_556 S
C489 H515 0.930 . S
C490 O504 1.275 . S
C490 O505 1.256 1_565 S
C491 O506 1.259 1_455 S
C491 O507 1.268 . S
C492 Ho481 2.811 . S
C492 C493 1.488 . S
C492 O508 1.215 . S
C492 O509 1.289 . S
C493 C492 1.488 . S
C493 C494 1.348 . S
C493 C498 1.413 . S
C494 C493 1.348 . S
C494 C495 1.442 . S
C494 H516 0.930 1_655 S
C495 C494 1.442 . S
C495 C496 1.381 . S
C495 H517 0.931 . S
C496 C495 1.381 . S
C496 C497 1.321 . S
C497 C496 1.321 . S
C497 C498 1.403 . S
C497 H518 0.934 . S
C498 C493 1.413 . S
C498 C497 1.403 . S
C498 H519 0.930 . S
C499 O510 1.275 . S
C499 O511 1.256 1_545 S
O500 Ho480 2.322 . S
O500 C482 1.259 1_455 S
O501 Ho481 2.346 1_565 S
O501 C482 1.268 . S
O502 Ho480 2.378 . S
O502 C483 1.215 . S
O503 Ho480 2.524 . S
O503 C483 1.289 . S
O504 Ho480 2.381 . S
O504 C490 1.275 . S
O505 Ho480 2.669 1_545 S
O505 Ho481 2.305 1_455 S
O505 C490 1.256 1_545 S
O506 Ho481 2.322 . S
O506 C491 1.259 1_655 S
O507 Ho480 2.346 1_545 S
O507 C491 1.268 . S
O508 Ho481 2.378 . S
O508 C492 1.215 . S
O509 Ho481 2.524 . S
O509 C492 1.289 . S
O510 Ho481 2.381 . S
O510 C499 1.275 . S
O511 Ho480 2.305 1_655 S
O511 Ho481 2.669 1_565 S
O511 C499 1.256 1_565 S
H512 C485 0.930 1_656 S
H513 C486 0.931 . S
H514 C488 0.934 . S
H515 C489 0.930 . S
H516 C494 0.930 1_455 S
H517 C495 0.931 . S
H518 C497 0.934 . S
H519 C498 0.930 . S
Ho520 C523 2.811 . S
Ho520 O540 2.322 . S
Ho520 O542 2.378 . S
Ho520 O543 2.524 . S
Ho520 O544 2.381 . S
Ho520 O545 2.669 . S
Ho520 O547 2.346 . S
Ho520 O551 2.305 1_545 S
Ho521 C532 2.811 . S
Ho521 O541 2.346 . S
Ho521 O545 2.305 1_565 S
Ho521 O546 2.322 . S
Ho521 O548 2.378 . S
Ho521 O549 2.524 . S
Ho521 O550 2.381 . S
Ho521 O551 2.669 . S
C522 O540 1.259 1_565 S
C522 O541 1.268 . S
C523 Ho520 2.811 . S
C523 C524 1.488 . S
C523 O542 1.215 . S
C523 O543 1.289 . S
C524 C523 1.488 . S
C524 C525 1.348 1_556 S
C524 C529 1.413 . S
C525 C524 1.348 1_554 S
C525 C526 1.442 . S
C525 H552 0.929 1_544 S
C526 C525 1.442 . S
C526 C527 1.381 . S
C526 H553 0.931 . S
C527 C526 1.381 . S
C527 C528 1.321 . S
C528 C527 1.321 . S
C528 C529 1.403 1_554 S
C528 H554 0.934 . S
C529 C524 1.413 . S
C529 C528 1.403 1_556 S
C529 H555 0.930 . S
C530 O544 1.275 . S
C530 O545 1.256 . S
C531 O546 1.259 1_545 S
C531 O547 1.268 . S
C532 Ho521 2.811 . S
C532 C533 1.488 . S
C532 O548 1.215 . S
C532 O549 1.289 . S
C533 C532 1.488 . S
C533 C534 1.348 . S
C533 C538 1.413 . S
C534 C533 1.348 . S
C534 C535 1.442 . S
C534 H556 0.930 1_565 S
C535 C534 1.442 . S
C535 C536 1.381 . S
C535 H557 0.931 . S
C536 C535 1.381 . S
C536 C537 1.321 . S
C537 C536 1.321 . S
C537 C538 1.403 . S
C537 H558 0.934 . S
C538 C533 1.413 . S
C538 C537 1.403 . S
C538 H559 0.930 . S
C539 O550 1.275 . S
C539 O551 1.256 . S
O540 Ho520 2.322 . S
O540 C522 1.259 1_545 S
O541 Ho521 2.346 . S
O541 C522 1.268 . S
O542 Ho520 2.378 . S
O542 C523 1.215 . S
O543 Ho520 2.524 . S
O543 C523 1.289 . S
O544 Ho520 2.381 . S
O544 C530 1.275 . S
O545 Ho520 2.669 . S
O545 Ho521 2.305 1_545 S
O545 C530 1.256 . S
O546 Ho521 2.322 . S
O546 C531 1.259 1_565 S
O547 Ho520 2.346 . S
O547 C531 1.268 . S
O548 Ho521 2.378 . S
O548 C532 1.215 . S
O549 Ho521 2.524 . S
O549 C532 1.289 . S
O550 Ho521 2.381 . S
O550 C539 1.275 . S
O551 Ho520 2.305 1_565 S
O551 Ho521 2.669 . S
O551 C539 1.256 . S
H552 C525 0.929 1_566 S
H553 C526 0.931 . S
H554 C528 0.934 . S
H555 C529 0.930 . S
H556 C534 0.930 1_545 S
H557 C535 0.931 . S
H558 C537 0.934 . S
H559 C538 0.930 . S
Ho560 C563 2.811 . S
Ho560 O580 2.322 . S
Ho560 O582 2.378 . S
Ho560 O583 2.524 . S
Ho560 O584 2.381 . S
Ho560 O585 2.669 . S
Ho560 O587 2.346 . S
Ho560 O591 2.305 . S
Ho561 C572 2.811 . S
Ho561 O581 2.346 . S
Ho561 O585 2.305 . S
Ho561 O586 2.322 . S
Ho561 O588 2.378 . S
Ho561 O589 2.524 . S
Ho561 O590 2.381 . S
Ho561 O591 2.669 . S
C562 O580 1.259 . S
C562 O581 1.268 . S
C563 Ho560 2.811 . S
C563 C564 1.488 . S
C563 O582 1.215 . S
C563 O583 1.289 . S
C564 C563 1.488 . S
C564 C565 1.348 1_556 S
C564 C569 1.413 . S
C565 C564 1.348 1_554 S
C565 C566 1.442 . S
C565 H592 0.931 . S
C566 C565 1.442 . S
C566 C567 1.381 . S
C566 H593 0.931 . S
C567 C566 1.381 . S
C567 C568 1.321 . S
C568 C567 1.321 . S
C568 C569 1.403 1_554 S
C568 H594 0.934 . S
C569 C564 1.413 . S
C569 C568 1.403 1_556 S
C569 H595 0.930 . S
C570 O584 1.275 . S
C570 O585 1.256 . S
C571 O586 1.259 . S
C571 O587 1.268 . S
C572 Ho561 2.811 . S
C572 C573 1.488 . S
C572 O588 1.215 . S
C572 O589 1.289 . S
C573 C572 1.488 . S
C573 C574 1.348 . S
C573 C578 1.413 . S
C574 C573 1.348 . S
C574 C575 1.442 . S
C574 H596 0.930 . S
C575 C574 1.442 . S
C575 C576 1.381 . S
C575 H597 0.931 . S
C576 C575 1.381 . S
C576 C577 1.321 . S
C577 C576 1.321 . S
C577 C578 1.403 . S
C577 H598 0.934 . S
C578 C573 1.413 . S
C578 C577 1.403 . S
C578 H599 0.930 . S
C579 O590 1.275 . S
C579 O591 1.256 . S
O580 Ho560 2.322 . S
O580 C562 1.259 . S
O581 Ho561 2.346 . S
O581 C562 1.268 . S
O582 Ho560 2.378 . S
O582 C563 1.215 . S
O583 Ho560 2.524 . S
O583 C563 1.289 . S
O584 Ho560 2.381 . S
O584 C570 1.275 . S
O585 Ho560 2.669 . S
O585 Ho561 2.305 . S
O585 C570 1.256 . S
O586 Ho561 2.322 . S
O586 C571 1.259 . S
O587 Ho560 2.346 . S
O587 C571 1.268 . S
O588 Ho561 2.378 . S
O588 C572 1.215 . S
O589 Ho561 2.524 . S
O589 C572 1.289 . S
O590 Ho561 2.381 . S
O590 C579 1.275 . S
O591 Ho560 2.305 . S
O591 Ho561 2.669 . S
O591 C579 1.256 . S
H592 C565 0.931 . S
H593 C566 0.931 . S
H594 C568 0.934 . S
H595 C569 0.930 . S
H596 C574 0.930 . S
H597 C575 0.931 . S
H598 C577 0.934 . S
H599 C578 0.930 . S
Ho600 C603 2.811 . S
Ho600 O620 2.322 . S
Ho600 O622 2.378 . S
Ho600 O623 2.524 . S
Ho600 O624 2.381 . S
Ho600 O625 2.669 1_655 S
Ho600 O627 2.346 1_655 S
Ho600 O631 2.305 . S
Ho601 C612 2.811 . S
Ho601 O621 2.346 1_455 S
Ho601 O625 2.305 . S
Ho601 O626 2.322 . S
Ho601 O628 2.378 . S
Ho601 O629 2.524 . S
Ho601 O630 2.381 . S
Ho601 O631 2.669 1_455 S
C602 O620 1.259 . S
C602 O621 1.268 . S
C603 Ho600 2.811 . S
C603 C604 1.488 . S
C603 O622 1.215 . S
C603 O623 1.289 . S
C604 C603 1.488 . S
C604 C605 1.348 1_556 S
C604 C609 1.413 . S
C605 C604 1.348 1_554 S
C605 C606 1.442 . S
C605 H632 0.930 1_554 S
C606 C605 1.442 . S
C606 C607 1.381 . S
C606 H633 0.931 . S
C607 C606 1.381 . S
C607 C608 1.321 . S
C608 C607 1.321 . S
C608 C609 1.403 1_554 S
C608 H634 0.934 . S
C609 C604 1.413 . S
C609 C608 1.403 1_556 S
C609 H635 0.930 . S
C610 O624 1.281 . S
C610 O625 1.252 1_655 S
C611 O626 1.259 . S
C611 O627 1.268 . S
C612 Ho601 2.811 . S
C612 C613 1.488 . S
C612 O628 1.215 . S
C612 O629 1.289 . S
C613 C612 1.488 . S
C613 C614 1.348 . S
C613 C618 1.413 . S
C614 C613 1.348 . S
C614 C615 1.442 . S
C614 H636 0.930 . S
C615 C614 1.442 . S
C615 C616 1.381 . S
C615 H637 0.931 . S
C616 C615 1.381 . S
C616 C617 1.321 . S
C617 C616 1.321 . S
C617 C618 1.403 . S
C617 H638 0.934 . S
C618 C613 1.413 . S
C618 C617 1.403 . S
C618 H639 0.930 . S
C619 O630 1.286 . S
C619 O631 1.250 1_455 S
O620 Ho600 2.322 . S
O620 C602 1.259 . S
O621 Ho601 2.346 1_655 S
O621 C602 1.268 . S
O622 Ho600 2.378 . S
O622 C603 1.215 . S
O623 Ho600 2.524 . S
O623 C603 1.289 . S
O624 Ho600 2.381 . S
O624 C610 1.281 . S
O625 Ho600 2.669 1_455 S
O625 Ho601 2.305 . S
O625 C610 1.252 1_455 S
O626 Ho601 2.322 . S
O626 C611 1.259 . S
O627 Ho600 2.346 1_455 S
O627 C611 1.268 . S
O628 Ho601 2.378 . S
O628 C612 1.215 . S
O629 Ho601 2.524 . S
O629 C612 1.289 . S
O630 Ho601 2.381 . S
O630 C619 1.286 . S
O631 Ho600 2.305 . S
O631 Ho601 2.669 1_655 S
O631 C619 1.250 1_655 S
H632 C605 0.930 1_556 S
H633 C606 0.931 . S
H634 C608 0.934 . S
H635 C609 0.930 . S
H636 C614 0.930 . S
H637 C615 0.931 . S
H638 C617 0.934 . S
H639 C618 0.930 . S
C640 C641 1.349 1_565 S
C640 C646 1.379 . S
C640 N648 1.356 . S
C641 C640 1.349 1_545 S
C641 C647 1.377 . S
C642 C643 1.363 . S
C642 C647 1.379 . S
C642 N649 1.356 . S
C643 C642 1.363 . S
C643 C646 1.363 1_545 S
N644 C646 1.356 . S
N644 H656 0.984 . S
N644 H657 0.985 . S
N645 C647 1.356 . S
N645 H650 0.984 . S
N645 H651 0.985 . S
C646 C640 1.379 . S
C646 C643 1.363 1_565 S
C646 N644 1.356 . S
C647 C641 1.377 . S
C647 C642 1.379 . S
C647 N645 1.356 . S
N648 C640 1.356 . S
N648 H654 0.984 . S
N648 H655 0.984 . S
N649 C642 1.356 . S
N649 H652 0.984 . S
N649 H653 0.985 . S
H650 N645 0.984 . S
H651 N645 0.985 . S
H652 N649 0.984 . S
H653 N649 0.985 . S
H654 N648 0.984 . S
H655 N648 0.984 . S
H656 N644 0.984 . S
H657 N644 0.985 . S
C658 C659 1.363 . S
C658 C664 1.379 . S
C658 N666 1.356 . S
C659 C658 1.363 . S
C659 C665 1.363 . S
C660 C661 1.363 . S
C660 C665 1.379 . S
C660 N667 1.356 . S
C661 C660 1.363 . S
C661 C664 1.363 . S
N662 C664 1.356 . S
N662 H674 0.984 . S
N662 H675 0.985 . S
N663 C665 1.356 . S
N663 H668 0.984 . S
N663 H669 0.985 . S
C664 C658 1.379 . S
C664 C661 1.363 . S
C664 N662 1.356 . S
C665 C659 1.363 . S
C665 C660 1.379 . S
C665 N663 1.356 . S
N666 C658 1.356 . S
N666 H672 0.984 . S
N666 H673 0.984 . S
N667 C660 1.356 . S
N667 H670 0.984 . S
N667 H671 0.985 . S
H668 N663 0.984 . S
H669 N663 0.985 . S
H670 N667 0.984 . S
H671 N667 0.985 . S
H672 N666 0.984 . S
H673 N666 0.984 . S
H674 N662 0.984 . S
H675 N662 0.985 . S
C676 C677 1.363 . S
C676 C682 1.379 . S
C676 N684 1.356 . S
C677 C676 1.363 . S
C677 C683 1.363 . S
C678 C679 1.363 . S
C678 C683 1.379 . S
C678 N685 1.356 . S
C679 C678 1.363 . S
C679 C682 1.363 . S
N680 C682 1.356 . S
N680 H692 0.984 . S
N680 H693 0.985 . S
N681 C683 1.356 . S
N681 H686 0.984 . S
N681 H687 0.985 . S
C682 C676 1.379 . S
C682 C679 1.363 . S
C682 N680 1.356 . S
C683 C677 1.363 . S
C683 C678 1.379 . S
C683 N681 1.356 . S
N684 C676 1.356 . S
N684 H690 0.984 . S
N684 H691 0.984 . S
N685 C678 1.356 . S
N685 H688 0.984 . S
N685 H689 0.985 . S
H686 N681 0.984 . S
H687 N681 0.985 . S
H688 N685 0.984 . S
H689 N685 0.985 . S
H690 N684 0.984 . S
H691 N684 0.984 . S
H692 N680 0.984 . S
H693 N680 0.985 . S
C694 C695 1.389 . S
C694 C700 1.379 . S
C694 N702 1.356 . S
C695 C694 1.389 . S
C695 C701 1.338 1_455 S
C696 C697 1.363 1_655 S
C696 C701 1.379 . S
C696 N703 1.356 . S
C697 C696 1.363 1_455 S
C697 C700 1.363 . S
N698 C700 1.356 . S
N698 H710 0.984 . S
N698 H711 0.985 . S
N699 C701 1.356 . S
N699 H704 0.984 . S
N699 H705 0.985 . S
C700 C694 1.379 . S
C700 C697 1.363 . S
C700 N698 1.356 . S
C701 C695 1.338 1_655 S
C701 C696 1.379 . S
C701 N699 1.356 . S
N702 C694 1.356 . S
N702 H708 0.984 . S
N702 H709 0.984 . S
N703 C696 1.356 . S
N703 H706 0.984 . S
N703 H707 0.985 . S
H704 N699 0.984 . S
H705 N699 0.985 . S
H706 N703 0.984 . S
H707 N703 0.985 . S
H708 N702 0.984 . S
H709 N702 0.984 . S
H710 N698 0.984 . S
H711 N698 0.985 . S
C712 C713 1.371 . S
C712 C718 1.379 . S
C712 N720 1.356 . S
C713 C712 1.371 . S
C713 C719 1.355 1_565 S
C714 C715 1.337 1_545 S
C714 C719 1.379 . S
C714 N721 1.356 1_554 S
C715 C714 1.337 1_565 S
C715 C718 1.389 . S
N716 C718 1.354 1_556 S
N716 H728 0.983 1_556 S
N716 H729 0.988 . S
N717 C719 1.356 . S
N717 H722 0.984 . S
N717 H723 0.985 . S
C718 C712 1.379 . S
C718 C715 1.389 . S
C718 N716 1.354 1_554 S
C719 C713 1.355 1_545 S
C719 C714 1.379 . S
C719 N717 1.356 . S
N720 C712 1.356 . S
N720 H726 0.984 . S
N720 H727 0.984 . S
N721 C714 1.356 1_556 S
N721 H724 0.984 . S
N721 H725 0.985 . S
H722 N717 0.984 . S
H723 N717 0.985 . S
H724 N721 0.984 . S
H725 N721 0.985 . S
H726 N720 0.984 . S
H727 N720 0.984 . S
H728 N716 0.983 1_554 S
H729 N716 0.988 . S
C730 C731 1.363 . S
C730 C736 1.379 . S
C730 N738 1.356 . S
C731 C730 1.363 . S
C731 C737 1.363 . S
C732 C733 1.363 . S
C732 C737 1.379 . S
C732 N739 1.356 1_554 S
C733 C732 1.363 . S
C733 C736 1.363 . S
N734 C736 1.356 1_556 S
N734 H746 0.984 . S
N734 H747 0.985 . S
N735 C737 1.356 . S
N735 H740 0.984 . S
N735 H741 0.985 . S
C736 C730 1.379 . S
C736 C733 1.363 . S
C736 N734 1.356 1_554 S
C737 C731 1.363 . S
C737 C732 1.379 . S
C737 N735 1.356 . S
N738 C730 1.356 . S
N738 H744 0.984 . S
N738 H745 0.984 . S
N739 C732 1.356 1_556 S
N739 H742 0.984 . S
N739 H743 0.985 1_556 S
H740 N735 0.984 . S
H741 N735 0.985 . S
H742 N739 0.984 . S
H743 N739 0.985 1_554 S
H744 N738 0.984 . S
H745 N738 0.984 . S
H746 N734 0.984 . S
H747 N734 0.985 . S
C748 C749 1.363 . S
C748 C754 1.379 . S
C748 N756 1.356 . S
C749 C748 1.363 . S
C749 C755 1.363 . S
C750 C751 1.363 . S
C750 C755 1.379 . S
C750 N757 1.356 1_554 S
C751 C750 1.363 . S
C751 C754 1.363 . S
N752 C754 1.356 . S
N752 H764 0.984 . S
N752 H765 0.985 1_554 S
N753 C755 1.356 . S
N753 H758 0.984 . S
N753 H759 0.985 . S
C754 C748 1.379 . S
C754 C751 1.363 . S
C754 N752 1.356 . S
C755 C749 1.363 . S
C755 C750 1.379 . S
C755 N753 1.356 . S
N756 C748 1.356 . S
N756 H762 0.984 . S
N756 H763 0.984 . S
N757 C750 1.356 1_556 S
N757 H760 0.984 . S
N757 H761 0.985 . S
H758 N753 0.984 . S
H759 N753 0.985 . S
H760 N757 0.984 . S
H761 N757 0.985 . S
H762 N756 0.984 . S
H763 N756 0.984 . S
H764 N752 0.984 . S
H765 N752 0.985 1_556 S
C766 C767 1.384 . S
C766 C772 1.379 . S
C766 N774 1.356 . S
C767 C766 1.384 . S
C767 C773 1.344 1_655 S
C768 C769 1.363 1_455 S
C768 C773 1.379 . S
C768 N775 1.353 1_554 S
C769 C768 1.363 1_655 S
C769 C772 1.363 . S
N770 C772 1.356 1_556 S
N770 H782 0.984 . S
N770 H783 0.985 . S
N771 C773 1.356 . S
N771 H776 0.984 . S
N771 H777 0.985 . S
C772 C766 1.379 . S
C772 C769 1.363 . S
C772 N770 1.356 1_554 S
C773 C767 1.344 1_455 S
C773 C768 1.379 . S
C773 N771 1.356 . S
N774 C766 1.356 . S
N774 H780 0.984 . S
N774 H781 0.984 . S
N775 C768 1.353 1_556 S
N775 H778 0.989 . S
N775 H779 0.983 1_556 S
H776 N771 0.984 . S
H777 N771 0.985 . S
H778 N775 0.989 . S
H779 N775 0.983 1_554 S
H780 N774 0.984 . S
H781 N774 0.984 . S
H782 N770 0.984 . S
H783 N770 0.985 . S
C784 C785 1.363 . S
C784 C790 1.379 . S
C784 N792 1.356 . S
C785 C784 1.363 . S
C785 C791 1.363 . S
C786 C787 1.363 . S
C786 C791 1.379 . S
C786 N793 1.356 . S
C787 C786 1.363 . S
C787 C790 1.363 . S
N788 C790 1.356 . S
N788 H800 0.984 . S
N788 H801 0.985 . S
N789 C791 1.356 1_455 S
N789 H794 0.984 . S
N789 H795 0.985 . S
C790 C784 1.379 . S
C790 C787 1.363 . S
C790 N788 1.356 . S
C791 C785 1.363 . S
C791 C786 1.379 . S
C791 N789 1.356 1_655 S
N792 C784 1.356 . S
N792 H798 0.984 . S
N792 H799 0.952 1_655 S
N793 C786 1.356 . S
N793 H796 0.984 . S
N793 H797 0.985 . S
H794 N789 0.984 . S
H795 N789 0.985 . S
H796 N793 0.984 . S
H797 N793 0.985 . S
H798 N792 0.984 . S
H799 N792 0.952 1_455 S
H800 N788 0.984 . S
H801 N788 0.985 . S
C802 C803 1.363 . S
C802 C808 1.379 . S
C802 N810 1.356 . S
C803 C802 1.363 . S
C803 C809 1.363 1_565 S
C804 C805 1.363 . S
C804 C809 1.379 1_565 S
C804 N811 1.356 . S
C805 C804 1.363 . S
C805 C808 1.363 . S
N806 C808 1.356 . S
N806 H818 0.984 . S
N806 H819 0.985 . S
N807 C809 1.356 . S
N807 H812 0.984 . S
N807 H813 0.985 . S
C808 C802 1.379 . S
C808 C805 1.363 . S
C808 N806 1.356 . S
C809 C803 1.363 1_545 S
C809 C804 1.379 1_545 S
C809 N807 1.356 . S
N810 C802 1.356 . S
N810 H816 0.984 . S
N810 H817 0.984 . S
N811 C804 1.356 . S
N811 H814 0.984 . S
N811 H815 0.985 . S
H812 N807 0.984 . S
H813 N807 0.985 . S
H814 N811 0.984 . S
H815 N811 0.985 . S
H816 N810 0.984 . S
H817 N810 0.984 . S
H818 N806 0.984 . S
H819 N806 0.985 . S
C820 C821 1.363 . S
C820 C826 1.379 . S
C820 N828 1.356 . S
C821 C820 1.363 . S
C821 C827 1.363 . S
C822 C823 1.363 . S
C822 C827 1.379 . S
C822 N829 1.356 . S
C823 C822 1.363 . S
C823 C826 1.363 . S
N824 C826 1.356 . S
N824 H836 0.984 . S
N824 H837 0.985 . S
N825 C827 1.356 . S
N825 H830 0.984 . S
N825 H831 0.985 . S
C826 C820 1.379 . S
C826 C823 1.363 . S
C826 N824 1.356 . S
C827 C821 1.363 . S
C827 C822 1.379 . S
C827 N825 1.356 . S
N828 C820 1.356 . S
N828 H834 0.984 . S
N828 H835 0.984 . S
N829 C822 1.356 . S
N829 H832 0.984 . S
N829 H833 0.985 . S
H830 N825 0.984 . S
H831 N825 0.985 . S
H832 N829 0.984 . S
H833 N829 0.985 . S
H834 N828 0.984 . S
H835 N828 0.984 . S
H836 N824 0.984 . S
H837 N824 0.985 . S
C838 C839 1.363 . S
C838 C844 1.379 . S
C838 N846 1.356 . S
C839 C838 1.363 . S
C839 C845 1.363 . S
C840 C841 1.363 . S
C840 C845 1.379 . S
C840 N847 1.356 . S
C841 C840 1.363 . S
C841 C844 1.363 . S
N842 C844 1.356 . S
N842 H854 0.984 . S
N842 H855 0.985 . S
N843 C845 1.356 . S
N843 H848 0.984 . S
N843 H849 0.985 . S
C844 C838 1.379 . S
C844 C841 1.363 . S
C844 N842 1.356 . S
C845 C839 1.363 . S
C845 C840 1.379 . S
C845 N843 1.356 . S
N846 C838 1.356 . S
N846 H852 0.984 . S
N846 H853 0.984 . S
N847 C840 1.356 . S
N847 H850 0.984 . S
N847 H851 0.985 . S
H848 N843 0.984 . S
H849 N843 0.985 . S
H850 N847 0.984 . S
H851 N847 0.985 . S
H852 N846 0.984 . S
H853 N846 0.984 . S
H854 N842 0.984 . S
H855 N842 0.985 . S
C856 C857 1.363 . S
C856 C862 1.379 . S
C856 N864 1.356 1_455 S
C857 C856 1.363 . S
C857 C863 1.363 . S
C858 C859 1.363 . S
C858 C863 1.379 . S
C858 N865 1.356 1_554 S
C859 C858 1.363 . S
C859 C862 1.363 . S
N860 C862 1.356 . S
N860 H872 0.984 . S
N860 H873 0.985 . S
N861 C863 1.356 . S
N861 H866 0.984 1_455 S
N861 H867 0.985 1_554 S
C862 C856 1.379 . S
C862 C859 1.363 . S
C862 N860 1.356 . S
C863 C857 1.363 . S
C863 C858 1.379 . S
C863 N861 1.356 . S
N864 C856 1.356 1_655 S
N864 H870 0.984 . S
N864 H871 0.984 . S
N865 C858 1.356 1_556 S
N865 H868 0.984 . S
N865 H869 0.985 . S
H866 N861 0.984 1_655 S
H867 N861 0.985 1_556 S
H868 N865 0.984 . S
H869 N865 0.985 . S
H870 N864 0.984 . S
H871 N864 0.984 . S
H872 N860 0.984 . S
H873 N860 0.985 . S
C874 C875 1.363 . S
C874 C880 1.379 . S
C874 N882 1.356 1_545 S
C875 C874 1.363 . S
C875 C881 1.363 . S
C876 C877 1.363 . S
C876 C881 1.379 . S
C876 N883 1.356 . S
C877 C876 1.363 . S
C877 C880 1.363 . S
N878 C880 1.356 1_556 S
N878 H890 0.984 . S
N878 H891 0.985 . S
N879 C881 1.356 . S
N879 H884 1.009 . S
N879 H885 0.985 . S
C880 C874 1.379 . S
C880 C877 1.363 . S
C880 N878 1.356 1_554 S
C881 C875 1.363 . S
C881 C876 1.379 . S
C881 N879 1.356 . S
N882 C874 1.356 1_565 S
N882 H888 0.984 1_554 S
N882 H889 0.984 . S
N883 C876 1.356 . S
N883 H886 0.984 . S
N883 H887 0.985 . S
H884 N879 1.009 . S
H885 N879 0.985 . S
H886 N883 0.984 . S
H887 N883 0.985 . S
H888 N882 0.984 1_556 S
H889 N882 0.984 . S
H890 N878 0.984 . S
H891 N878 0.985 . S
C892 C893 1.363 . S
C892 C898 1.379 . S
C892 N900 1.356 . S
C893 C892 1.363 . S
C893 C899 1.363 . S
C894 C895 1.363 . S
C894 C899 1.379 . S
C894 N901 1.356 1_554 S
C895 C894 1.363 . S
C895 C898 1.363 . S
N896 C898 1.356 . S
N896 H908 0.984 . S
N896 H909 0.985 . S
N897 C899 1.356 . S
N897 H902 0.984 . S
N897 H903 0.985 1_554 S
C898 C892 1.379 . S
C898 C895 1.363 . S
C898 N896 1.356 . S
C899 C893 1.363 . S
C899 C894 1.379 . S
C899 N897 1.356 . S
N900 C892 1.356 . S
N900 H906 0.984 . S
N900 H907 0.984 . S
N901 C894 1.356 1_556 S
N901 H904 0.984 . S
N901 H905 0.985 . S
H902 N897 0.984 . S
H903 N897 0.985 1_556 S
H904 N901 0.984 . S
H905 N901 0.985 . S
H906 N900 0.984 . S
H907 N900 0.984 . S
H908 N896 0.984 . S
H909 N896 0.985 . S
C910 C911 1.363 . S
C910 C916 1.379 . S
C910 N918 1.361 . S
C911 C910 1.363 . S
C911 C917 1.363 . S
C912 C913 1.363 . S
C912 C917 1.379 . S
C912 N919 1.356 . S
C913 C912 1.363 . S
C913 C916 1.363 . S
N914 C916 1.356 1_556 S
N914 H926 0.984 . S
N914 H927 0.985 . S
N915 C917 1.356 . S
N915 H920 0.984 . S
N915 H921 0.985 . S
C916 C910 1.379 . S
C916 C913 1.363 . S
C916 N914 1.356 1_554 S
C917 C911 1.363 . S
C917 C912 1.379 . S
C917 N915 1.356 . S
N918 C910 1.361 . S
N918 H924 0.975 1_554 S
N918 H925 0.990 . S
N919 C912 1.356 . S
N919 H922 0.984 . S
N919 H923 0.985 . S
H920 N915 0.984 . S
H921 N915 0.985 . S
H922 N919 0.984 . S
H923 N919 0.985 . S
H924 N918 0.975 1_556 S
H925 N918 0.990 . S
H926 N914 0.984 . S
H927 N914 0.985 . S
C928 C929 1.363 1_655 S
C928 C934 1.379 . S
C928 N936 1.356 . S
C929 C928 1.363 1_455 S
C929 C935 1.363 . S
C930 C931 1.363 . S
C930 C935 1.379 . S
C930 N937 1.356 . S
C931 C930 1.363 . S
C931 C934 1.363 1_455 S
N932 C934 1.356 . S
N932 H944 0.984 . S
N932 H945 0.985 . S
N933 C935 1.356 . S
N933 H938 0.984 . S
N933 H939 0.985 . S
C934 C928 1.379 . S
C934 C931 1.363 1_655 S
C934 N932 1.356 . S
C935 C929 1.363 . S
C935 C930 1.379 . S
C935 N933 1.356 . S
N936 C928 1.356 . S
N936 H942 0.984 . S
N936 H943 0.984 . S
N937 C930 1.356 . S
N937 H940 0.984 . S
N937 H941 0.985 . S
H938 N933 0.984 . S
H939 N933 0.985 . S
H940 N937 0.984 . S
H941 N937 0.985 . S
H942 N936 0.984 . S
H943 N936 0.984 . S
H944 N932 0.984 . S
H945 N932 0.985 . S
C946 C947 1.363 . S
C946 C952 1.379 . S
C946 N954 1.356 . S
C947 C946 1.363 . S
C947 C953 1.363 1_545 S
C948 C949 1.363 1_565 S
C948 C953 1.379 . S
C948 N955 1.356 . S
C949 C948 1.363 1_545 S
C949 C952 1.363 . S
N950 C952 1.356 . S
N950 H962 0.984 . S
N950 H963 0.985 . S
N951 C953 1.356 . S
N951 H956 0.984 . S
N951 H957 0.985 . S
C952 C946 1.379 . S
C952 C949 1.363 . S
C952 N950 1.356 . S
C953 C947 1.363 1_565 S
C953 C948 1.379 . S
C953 N951 1.356 . S
N954 C946 1.356 . S
N954 H960 0.984 . S
N954 H961 0.984 . S
N955 C948 1.356 . S
N955 H958 0.984 . S
N955 H959 0.985 . S
H956 N951 0.984 . S
H957 N951 0.985 . S
H958 N955 0.984 . S
H959 N955 0.985 . S
H960 N954 0.984 . S
H961 N954 0.984 . S
H962 N950 0.984 . S
H963 N950 0.985 . S
C964 C965 1.363 . S
C964 C970 1.379 . S
C964 N972 1.356 . S
C965 C964 1.363 . S
C965 C971 1.363 . S
C966 C967 1.363 . S
C966 C971 1.379 . S
C966 N973 1.356 . S
C967 C966 1.363 . S
C967 C970 1.363 . S
N968 C970 1.356 . S
N968 H980 0.984 . S
N968 H981 0.985 . S
N969 C971 1.356 . S
N969 H974 0.984 . S
N969 H975 0.985 . S
C970 C964 1.379 . S
C970 C967 1.363 . S
C970 N968 1.356 . S
C971 C965 1.363 . S
C971 C966 1.379 . S
C971 N969 1.356 . S
N972 C964 1.356 . S
N972 H978 0.984 . S
N972 H979 0.984 . S
N973 C966 1.356 . S
N973 H976 0.984 . S
N973 H977 0.985 . S
H974 N969 0.984 . S
H975 N969 0.985 . S
H976 N973 0.984 . S
H977 N973 0.985 . S
H978 N972 0.984 . S
H979 N972 0.984 . S
H980 N968 0.984 . S
H981 N968 0.985 . S
C982 C983 1.363 . S
C982 C988 1.379 . S
C982 N990 1.356 . S
C983 C982 1.363 . S
C983 C989 1.363 . S
C984 C985 1.363 . S
C984 C989 1.379 . S
C984 N991 1.356 . S
C985 C984 1.363 . S
C985 C988 1.363 . S
N986 C988 1.356 . S
N986 H998 0.984 . S
N986 H999 0.985 . S
N987 C989 1.356 . S
N987 H992 0.984 . S
N987 H993 0.985 . S
C988 C982 1.379 . S
C988 C985 1.363 . S
C988 N986 1.356 . S
C989 C983 1.363 . S
C989 C984 1.379 . S
C989 N987 1.356 . S
N990 C982 1.356 . S
N990 H996 0.984 . S
N990 H997 0.984 . S
N991 C984 1.356 . S
N991 H994 0.984 . S
N991 H995 0.985 . S
H992 N987 0.984 . S
H993 N987 0.985 . S
H994 N991 0.984 . S
H995 N991 0.985 . S
H996 N990 0.984 . S
H997 N990 0.984 . S
H998 N986 0.984 . S
H999 N986 0.985 . S
C1000 C1001 1.363 1_455 S
C1000 C1006 1.379 . S
C1000 N1008 1.356 . S
C1001 C1000 1.363 1_655 S
C1001 C1007 1.363 . S
C1002 C1003 1.363 . S
C1002 C1007 1.379 . S
C1002 N1009 1.356 . S
C1003 C1002 1.363 . S
C1003 C1006 1.363 1_655 S
N1004 C1006 1.356 . S
N1004 H1016 0.984 . S
N1004 H1017 0.985 . S
N1005 C1007 1.356 . S
N1005 H1010 0.984 . S
N1005 H1011 0.985 . S
C1006 C1000 1.379 . S
C1006 C1003 1.363 1_455 S
C1006 N1004 1.356 . S
C1007 C1001 1.363 . S
C1007 C1002 1.379 . S
C1007 N1005 1.356 . S
N1008 C1000 1.356 . S
N1008 H1014 0.984 . S
N1008 H1015 0.984 . S
N1009 C1002 1.356 . S
N1009 H1012 0.984 . S
N1009 H1013 0.985 . S
H1010 N1005 0.984 . S
H1011 N1005 0.985 . S
H1012 N1009 0.984 . S
H1013 N1009 0.985 . S
H1014 N1008 0.984 . S
H1015 N1008 0.984 . S
H1016 N1004 0.984 . S
H1017 N1004 0.985 . S
C1018 C1019 1.363 . S
C1018 C1024 1.379 . S
C1018 N1026 1.356 . S
C1019 C1018 1.363 . S
C1019 C1025 1.363 1_565 S
C1020 C1021 1.363 1_545 S
C1020 C1025 1.379 . S
C1020 N1027 1.356 . S
C1021 C1020 1.363 1_565 S
C1021 C1024 1.363 . S
N1022 C1024 1.356 . S
N1022 H1034 0.984 . S
N1022 H1035 0.985 . S
N1023 C1025 1.356 . S
N1023 H1028 0.984 . S
N1023 H1029 0.985 . S
C1024 C1018 1.379 . S
C1024 C1021 1.363 . S
C1024 N1022 1.356 . S
C1025 C1019 1.363 1_545 S
C1025 C1020 1.379 . S
C1025 N1023 1.356 . S
N1026 C1018 1.356 . S
N1026 H1032 0.984 . S
N1026 H1033 0.984 . S
N1027 C1020 1.356 . S
N1027 H1030 0.984 . S
N1027 H1031 0.985 . S
H1028 N1023 0.984 . S
H1029 N1023 0.985 . S
H1030 N1027 0.984 . S
H1031 N1027 0.985 . S
H1032 N1026 0.984 . S
H1033 N1026 0.984 . S
H1034 N1022 0.984 . S
H1035 N1022 0.985 . S
C1036 C1037 1.363 . S
C1036 C1042 1.379 . S
C1036 N1044 1.356 . S
C1037 C1036 1.363 . S
C1037 C1043 1.363 . S
C1038 C1039 1.363 . S
C1038 C1043 1.379 . S
C1038 N1045 1.356 . S
C1039 C1038 1.363 . S
C1039 C1042 1.363 . S
N1040 C1042 1.356 . S
N1040 H1052 0.984 . S
N1040 H1053 0.985 . S
N1041 C1043 1.356 . S
N1041 H1046 0.984 . S
N1041 H1047 0.985 . S
C1042 C1036 1.379 . S
C1042 C1039 1.363 . S
C1042 N1040 1.356 . S
C1043 C1037 1.363 . S
C1043 C1038 1.379 . S
C1043 N1041 1.356 . S
N1044 C1036 1.356 . S
N1044 H1050 0.984 . S
N1044 H1051 0.984 . S
N1045 C1038 1.356 . S
N1045 H1048 0.984 . S
N1045 H1049 0.985 . S
H1046 N1041 0.984 . S
H1047 N1041 0.985 . S
H1048 N1045 0.984 . S
H1049 N1045 0.985 . S
H1050 N1044 0.984 . S
H1051 N1044 0.984 . S
H1052 N1040 0.984 . S
H1053 N1040 0.985 . S
C1054 C1055 1.363 . S
C1054 C1060 1.379 . S
C1054 N1062 1.356 . S
C1055 C1054 1.363 . S
C1055 C1061 1.363 . S
C1056 C1057 1.363 . S
C1056 C1061 1.379 . S
C1056 N1063 1.356 . S
C1057 C1056 1.363 . S
C1057 C1060 1.363 . S
N1058 C1060 1.356 . S
N1058 H1070 0.984 . S
N1058 H1071 0.985 . S
N1059 C1061 1.356 . S
N1059 H1064 0.984 . S
N1059 H1065 0.985 . S
C1060 C1054 1.379 . S
C1060 C1057 1.363 . S
C1060 N1058 1.356 . S
C1061 C1055 1.363 . S
C1061 C1056 1.379 . S
C1061 N1059 1.356 . S
N1062 C1054 1.356 . S
N1062 H1068 0.984 . S
N1062 H1069 0.984 . S
N1063 C1056 1.356 . S
N1063 H1066 0.984 . S
N1063 H1067 0.985 . S
H1064 N1059 0.984 . S
H1065 N1059 0.985 . S
H1066 N1063 0.984 . S
H1067 N1063 0.985 . S
H1068 N1062 0.984 . S
H1069 N1062 0.984 . S
H1070 N1058 0.984 . S
H1071 N1058 0.985 . S
C641 C391 2.664 . S
C643 C490 2.838 1_545 S
C661 C530 2.853 . S
C659 C451 2.672 . S
C679 C570 2.858 . S
C677 C241 2.329 . S
C697 C610 2.843 1_455 S
C695 C331 2.302 1_455 S
C715 C499 2.838 1_564 S
C713 C121 2.298 . S
C731 C211 2.689 . S
C733 C539 2.855 1_554 S
C749 C31 2.695 . S
C751 C579 2.857 1_554 S
C767 C91 2.302 . S
C769 C619 2.842 1_654 S
C787 C496 0.810 . S
C785 C301 0.788 . S
C805 C536 0.807 . S
C803 C380 0.833 1_565 S
C823 C576 0.781 . S
C821 C440 0.796 . S
C839 C260 0.772 . S
C841 C616 0.780 . S
C857 C61 0.819 1_455 S
C859 C487 0.813 . S
C877 C527 0.807 . S
C875 C140 0.816 1_545 S
C895 C567 0.781 . S
C893 C200 0.783 . S
C911 C20 0.786 . S
C913 C607 0.787 . S
C929 C320 3.436 1_455 S
C931 C491 3.757 . S
C947 C361 2.954 . S
C949 C531 3.734 . S
C967 C571 3.728 . S
C965 C421 2.942 . S
C985 C611 3.754 . S
C983 C271 3.430 . S
C1001 C80 3.414 . S
C1003 C482 3.764 . S
C1021 C522 3.735 . S
C1019 C151 3.387 . S
C1039 C562 3.728 . S
C1037 C181 2.980 . S
C1055 C1 3.006 . S
C1057 C602 3.758 . S
