# Generated by pormake.
# Topology sqc, (4,8)-cn, num edge types: 1
# Building blocks:
#     Node 0, Type 0, BuildingBlock: AZAVOO_clean_linker_0, # of connection points: 4
#     Node 1, Type 0, BuildingBlock: AZAVOO_clean_linker_0, # of connection points: 4
#     Node 2, Type 0, BuildingBlock: AZAVOO_clean_linker_0, # of connection points: 4
#     Node 3, Type 0, BuildingBlock: AZAVOO_clean_linker_0, # of connection points: 4
#     Node 4, Type 0, BuildingBlock: AZAVOO_clean_linker_0, # of connection points: 4
#     Node 5, Type 0, BuildingBlock: AZAVOO_clean_linker_0, # of connection points: 4
#     Node 6, Type 0, BuildingBlock: AZAVOO_clean_linker_0, # of connection points: 4
#     Node 7, Type 0, BuildingBlock: AZAVOO_clean_linker_0, # of connection points: 4
#     Node 8, Type 1, BuildingBlock: VETTIZ_charged_sbu_0, # of connection points: 8
#     Node 9, Type 1, BuildingBlock: VETTIZ_charged_sbu_0, # of connection points: 8
#     Node 10, Type 1, BuildingBlock: VETTIZ_charged_sbu_0, # of connection points: 8
#     Node 11, Type 1, BuildingBlock: VETTIZ_charged_sbu_0, # of connection points: 8
#     Edge 12, Type (0, 1), BuildingBlock: ZUJKAS_clean_linker_0, # of connection points: 2
#     Edge 13, Type (0, 1), BuildingBlock: ZUJKAS_clean_linker_0, # of connection points: 2
#     Edge 14, Type (0, 1), BuildingBlock: ZUJKAS_clean_linker_0, # of connection points: 2
#     Edge 15, Type (0, 1), BuildingBlock: ZUJKAS_clean_linker_0, # of connection points: 2
#     Edge 16, Type (0, 1), BuildingBlock: ZUJKAS_clean_linker_0, # of connection points: 2
#     Edge 17, Type (0, 1), BuildingBlock: ZUJKAS_clean_linker_0, # of connection points: 2
#     Edge 18, Type (0, 1), BuildingBlock: ZUJKAS_clean_linker_0, # of connection points: 2
#     Edge 19, Type (0, 1), BuildingBlock: ZUJKAS_clean_linker_0, # of connection points: 2
#     Edge 20, Type (0, 1), BuildingBlock: ZUJKAS_clean_linker_0, # of connection points: 2
#     Edge 21, Type (0, 1), BuildingBlock: ZUJKAS_clean_linker_0, # of connection points: 2
#     Edge 22, Type (0, 1), BuildingBlock: ZUJKAS_clean_linker_0, # of connection points: 2
#     Edge 23, Type (0, 1), BuildingBlock: ZUJKAS_clean_linker_0, # of connection points: 2
#     Edge 24, Type (0, 1), BuildingBlock: ZUJKAS_clean_linker_0, # of connection points: 2
#     Edge 25, Type (0, 1), BuildingBlock: ZUJKAS_clean_linker_0, # of connection points: 2
#     Edge 26, Type (0, 1), BuildingBlock: ZUJKAS_clean_linker_0, # of connection points: 2
#     Edge 27, Type (0, 1), BuildingBlock: ZUJKAS_clean_linker_0, # of connection points: 2
#     Edge 28, Type (0, 1), BuildingBlock: ZUJKAS_clean_linker_0, # of connection points: 2
#     Edge 29, Type (0, 1), BuildingBlock: ZUJKAS_clean_linker_0, # of connection points: 2
#     Edge 30, Type (0, 1), BuildingBlock: ZUJKAS_clean_linker_0, # of connection points: 2
#     Edge 31, Type (0, 1), BuildingBlock: ZUJKAS_clean_linker_0, # of connection points: 2
#     Edge 32, Type (0, 1), BuildingBlock: ZUJKAS_clean_linker_0, # of connection points: 2
#     Edge 33, Type (0, 1), BuildingBlock: ZUJKAS_clean_linker_0, # of connection points: 2
#     Edge 34, Type (0, 1), BuildingBlock: ZUJKAS_clean_linker_0, # of connection points: 2
#     Edge 35, Type (0, 1), BuildingBlock: ZUJKAS_clean_linker_0, # of connection points: 2
#     Edge 36, Type (0, 1), BuildingBlock: ZUJKAS_clean_linker_0, # of connection points: 2
#     Edge 37, Type (0, 1), BuildingBlock: ZUJKAS_clean_linker_0, # of connection points: 2
#     Edge 38, Type (0, 1), BuildingBlock: ZUJKAS_clean_linker_0, # of connection points: 2
#     Edge 39, Type (0, 1), BuildingBlock: ZUJKAS_clean_linker_0, # of connection points: 2
#     Edge 40, Type (0, 1), BuildingBlock: ZUJKAS_clean_linker_0, # of connection points: 2
#     Edge 41, Type (0, 1), BuildingBlock: ZUJKAS_clean_linker_0, # of connection points: 2
#     Edge 42, Type (0, 1), BuildingBlock: ZUJKAS_clean_linker_0, # of connection points: 2
#     Edge 43, Type (0, 1), BuildingBlock: ZUJKAS_clean_linker_0, # of connection points: 2
# Relax obj value: 0.160
# Max RMSD: 0.277
# Mean RMSD: 0.234
data_MOF--net-sqc--node1-VETTIZ_charged_sbu_0--node2-AZAVOO_clean_linker_0--edge1-ZUJKAS_clean_linker_0
_symmetry_space_group_name_H-M    P1
_symmetry_Int_Tables_number       1
_symmetry_cell_setting            triclinic
loop_
_symmetry_equiv_pos_as_xyz
'x, y, z'
_cell_length_a     32.833865
_cell_length_b     32.834167
_cell_length_c     110.96416
_cell_angle_alpha  90.615835
_cell_angle_beta   89.921131
_cell_angle_gamma 90.260039
loop_
_atom_site_label
_atom_site_type_symbol
_atom_site_fract_x
_atom_site_fract_y
_atom_site_fract_z
_atom_type_partial_charge
H0 H 0.05373 0.14422 0.61712 0.0
H1 H 0.73984 0.90433 0.53611 0.0
H2 H 0.05895 0.08107 0.55331 0.0
H3 H 0.11359 0.11263 0.56511 0.0
H4 H 0.14845 0.99423 0.57808 0.0
H5 H 0.09374 0.96283 0.56611 0.0
H6 H 0.98693 0.08848 0.57094 0.0
H7 H 0.00877 0.12259 0.58958 0.0
H8 H 0.05589 0.00839 0.60256 0.0
H9 H 0.0337 0.97468 0.58389 0.0
H10 H 0.89611 0.05248 0.5603 0.0
H11 H 0.84141 0.06203 0.57492 0.0
H12 H 0.8954 0.97055 0.59761 0.0
H13 H 0.94839 0.95931 0.58245 0.0
H14 H 0.90212 0.02726 0.53439 0.0
H15 H 0.83312 0.01036 0.52766 0.0
H16 H 0.83327 0.90453 0.55053 0.0
H17 H 0.90263 0.92141 0.55702 0.0
H18 H 0.9864 0.02581 0.52131 0.0
H19 H 0.94734 0.01596 0.50274 0.0
H20 H 0.91267 0.89555 0.51435 0.0
H21 H 0.95206 0.90553 0.53287 0.0
H22 H 0.07517 0.03723 0.53199 0.0
H23 H 0.1304 0.01693 0.51832 0.0
H24 H 0.1007 0.89035 0.5243 0.0
H25 H 0.04557 0.91094 0.53782 0.0
O26 O 0.044 0.12986 0.61002 0.0
O27 O 0.06665 0.07017 0.61643 0.0
O28 O 0.76895 0.9661 0.52686 0.0
O29 O 0.76694 0.91198 0.53873 0.0
C30 C 0.03134 0.00426 0.55573 0.0
C31 C 0.99961 0.0098 0.56424 0.0
C32 C 0.95923 0.99908 0.56127 0.0
C33 C 0.95031 0.98429 0.54957 0.0
C34 C 0.98214 0.9783 0.54108 0.0
C35 C 0.0229 0.98706 0.54428 0.0
C36 C 0.07245 0.01971 0.55887 0.0
C37 C 0.07962 0.06175 0.55824 0.0
C38 C 0.11038 0.07978 0.56514 0.0
C39 C 0.13458 0.05596 0.57273 0.0
C40 C 0.13023 0.01332 0.57231 0.0
C41 C 0.09925 0.99527 0.56541 0.0
C42 C 0.00877 0.02919 0.5761 0.0
C43 C 0.00143 0.07082 0.57791 0.0
C44 C 0.01415 0.09024 0.58853 0.0
C45 C 0.03431 0.06826 0.59753 0.0
C46 C 0.04056 0.02623 0.5958 0.0
C47 C 0.02782 0.00688 0.58518 0.0
C48 C 0.92613 0.00506 0.57027 0.0
C49 C 0.89579 0.03416 0.56836 0.0
C50 C 0.86481 0.03991 0.57683 0.0
C51 C 0.86395 0.01725 0.58754 0.0
C52 C 0.8946 0.98815 0.58942 0.0
C53 C 0.92522 0.98197 0.58083 0.0
C54 C 0.90742 0.97541 0.54613 0.0
C55 C 0.88717 1.00046 0.53794 0.0
C56 C 0.84775 0.99076 0.53412 0.0
C57 C 0.82772 0.956 0.53853 0.0
C58 C 0.84785 0.93145 0.54694 0.0
C59 C 0.88738 0.94108 0.5507 0.0
C60 C 0.97152 0.96661 0.5285 0.0
C61 C 0.97197 0.99659 0.51959 0.0
C62 C 0.94949 0.99099 0.509 0.0
C63 C 0.92629 0.95536 0.50726 0.0
C64 C 0.92978 0.92358 0.51559 0.0
C65 C 0.9525 0.92907 0.52611 0.0
C66 C 0.05653 0.97556 0.53597 0.0
C67 C 0.08081 0.00515 0.53039 0.0
C68 C 0.11235 0.99347 0.52259 0.0
C69 C 0.11999 0.95198 0.52019 0.0
C70 C 0.09534 0.92253 0.52578 0.0
C71 C 0.06396 0.93423 0.53357 0.0
C72 C 0.04926 0.0893 0.60859 0.0
C73 C 0.78611 0.94517 0.53434 0.0
H74 H 0.30638 0.68199 0.71717 0.0
H75 H 0.29743 0.0314 0.81309 0.0
H76 H 0.19137 0.69563 0.77321 0.0
H77 H 0.20032 0.63025 0.76296 0.0
H78 H 0.30142 0.60357 0.78647 0.0
H79 H 0.29305 0.67005 0.79636 0.0
H80 H 0.22613 0.76329 0.75787 0.0
H81 H 0.25043 0.73393 0.73882 0.0
H82 H 0.35543 0.68558 0.75721 0.0
H83 H 0.33109 0.71568 0.77614 0.0
H84 H 0.2199 0.85031 0.76822 0.0
H85 H 0.24381 0.88755 0.75058 0.0
H86 H 0.36639 0.84578 0.75722 0.0
H87 H 0.34227 0.80966 0.77507 0.0
H88 H 0.19089 0.87343 0.79133 0.0
H89 H 0.19457 0.94563 0.79698 0.0
H90 H 0.32085 0.9306 0.80698 0.0
H91 H 0.31656 0.85835 0.80138 0.0
H92 H 0.15765 0.81632 0.80742 0.0
H93 H 0.13877 0.86663 0.82291 0.0
H94 H 0.25936 0.85916 0.83811 0.0
H95 H 0.2783 0.80949 0.82242 0.0
H96 H 0.16111 0.70389 0.79927 0.0
H97 H 0.14246 0.64722 0.8123 0.0
H98 H 0.24894 0.67132 0.83418 0.0
H99 H 0.26805 0.72702 0.82081 0.0
O100 O 0.29757 0.69377 0.72477 0.0
O101 O 0.35071 0.66915 0.73469 0.0
O102 O 0.23027 0.00917 0.80539 0.0
O103 O 0.29534 0.00315 0.81058 0.0
C104 C 0.24461 0.73194 0.78866 0.0
C105 C 0.26143 0.75834 0.78 0.0
C106 C 0.26385 0.80047 0.78238 0.0
C107 C 0.25019 0.81645 0.79348 0.0
C108 C 0.23413 0.79021 0.80236 0.0
C109 C 0.2313 0.7478 0.79993 0.0
C110 C 0.24161 0.68774 0.78552 0.0
C111 C 0.21453 0.67503 0.77644 0.0
C112 C 0.21982 0.63755 0.77054 0.0
C113 C 0.25215 0.61176 0.7737 0.0
C114 C 0.27683 0.62303 0.78359 0.0
C115 C 0.27166 0.66073 0.78943 0.0
C116 C 0.27686 0.74158 0.76836 0.0
C117 C 0.25452 0.74663 0.75773 0.0
C118 C 0.26841 0.72969 0.74688 0.0
C119 C 0.30483 0.70731 0.7465 0.0
C120 C 0.32725 0.70259 0.75719 0.0
C121 C 0.31342 0.71971 0.76801 0.0
C122 C 0.27947 0.8277 0.77292 0.0
C123 C 0.25204 0.85004 0.766 0.0
C124 C 0.26563 0.87064 0.75583 0.0
C125 C 0.30686 0.86905 0.75242 0.0
C126 C 0.33449 0.84767 0.75964 0.0
C127 C 0.32086 0.82718 0.76984 0.0
C128 C 0.25344 0.86082 0.79597 0.0
C129 C 0.21937 0.88592 0.79466 0.0
C130 C 0.22154 0.92708 0.79792 0.0
C131 C 0.25799 0.94387 0.80248 0.0
C132 C 0.29231 0.91866 0.80353 0.0
C133 C 0.29003 0.87746 0.80029 0.0
C134 C 0.21921 0.80874 0.81385 0.0
C135 C 0.17948 0.82425 0.81438 0.0
C136 C 0.16895 0.85347 0.82312 0.0
C137 C 0.19775 0.86719 0.83163 0.0
C138 C 0.23649 0.84908 0.83171 0.0
C139 C 0.24722 0.82036 0.82283 0.0
C140 C 0.21586 0.71947 0.80912 0.0
C141 C 0.1799 0.69738 0.80703 0.0
C142 C 0.1693 0.66508 0.81449 0.0
C143 C 0.19448 0.6545 0.8242 0.0
C144 C 0.22933 0.67827 0.82665 0.0
C145 C 0.23999 0.71044 0.81914 0.0
C146 C 0.31923 0.68889 0.73499 0.0
C147 C 0.26021 0.98737 0.80621 0.0
H148 H 0.47701 0.88274 0.11491 0.0
H149 H 0.76207 0.17315 0.04472 0.0
H150 H 0.45068 0.96225 0.05616 0.0
H151 H 0.38507 0.93864 0.064 0.0
H152 H 0.34825 0.06348 0.06978 0.0
H153 H 0.41412 0.08684 0.06199 0.0
H154 H 0.53355 0.95339 0.06967 0.0
H155 H 0.51643 0.91384 0.08756 0.0
H156 H 0.44849 0.01616 0.1018 0.0
H157 H 0.46631 0.05554 0.08394 0.0
H158 H 0.61451 0.99192 0.05874 0.0
H159 H 0.66956 0.97552 0.07271 0.0
H160 H 0.61694 0.05653 0.09937 0.0
H161 H 0.56203 0.0729 0.08529 0.0
H162 H 0.61507 0.03488 0.03629 0.0
H163 H 0.68317 0.06067 0.0315 0.0
H164 H 0.66818 0.15655 0.05814 0.0
H165 H 0.59997 0.13049 0.06279 0.0
H166 H 0.54605 0.05136 0.02104 0.0
H167 H 0.5904 0.08731 0.00695 0.0
H168 H 0.58407 0.19523 0.02948 0.0
H169 H 0.54008 0.15881 0.04357 0.0
H170 H 0.45121 0.00748 0.03118 0.0
H171 H 0.39554 0.01884 0.017 0.0
H172 H 0.39749 0.14721 0.02608 0.0
H173 H 0.45367 0.13551 0.04012 0.0
O174 O 0.48372 0.89905 0.10796 0.0
O175 O 0.44896 0.95244 0.11485 0.0
O176 O 0.7435 0.1094 0.03402 0.0
O177 O 0.7356 0.16185 0.04664 0.0
C178 C 0.47967 0.04005 0.05615 0.0
C179 C 0.51085 0.03086 0.06452 0.0
C180 C 0.55125 0.04387 0.0624 0.0
C181 C 0.56024 0.06692 0.05208 0.0
C182 C 0.52902 0.07708 0.04386 0.0
C183 C 0.48882 0.06293 0.04572 0.0
C184 C 0.4373 0.02624 0.05861 0.0
C185 C 0.42812 0.98449 0.0589 0.0
C186 C 0.39076 0.97108 0.06343 0.0
C187 C 0.36173 0.99921 0.06765 0.0
C188 C 0.36991 0.0411 0.06655 0.0
C189 C 0.40748 0.0545 0.06209 0.0
C190 C 0.50118 0.00729 0.07552 0.0
C191 C 0.51522 0.96727 0.07671 0.0
C192 C 0.50527 0.94472 0.08691 0.0
C193 C 0.48102 0.96181 0.09611 0.0
C194 C 0.46718 0.00206 0.09489 0.0
C195 C 0.47727 0.02461 0.0847 0.0
C196 C 0.58431 0.03364 0.071 0.0
C197 C 0.61503 0.00629 0.06758 0.0
C198 C 0.64652 0.9971 0.07554 0.0
C199 C 0.64771 0.01486 0.08713 0.0
C200 C 0.6167 0.04211 0.09055 0.0
C201 C 0.58537 0.05152 0.08253 0.0
C202 C 0.60267 0.08091 0.04986 0.0
C203 C 0.62669 0.0613 0.04112 0.0
C204 C 0.66553 0.07611 0.03841 0.0
C205 C 0.68107 0.11075 0.04442 0.0
C206 C 0.6571 0.12987 0.05333 0.0
C207 C 0.61824 0.11498 0.05604 0.0
C208 C 0.54003 0.10242 0.03334 0.0
C209 C 0.55249 0.08338 0.0226 0.0
C210 C 0.57811 0.10396 0.0146 0.0
C211 C 0.59149 0.14385 0.01726 0.0
C212 C 0.57492 0.16427 0.02731 0.0
C213 C 0.54926 0.14373 0.03527 0.0
C214 C 0.45656 0.07067 0.03666 0.0
C215 C 0.43973 0.03809 0.03004 0.0
C216 C 0.40771 0.04461 0.02201 0.0
C217 C 0.39181 0.08392 0.02043 0.0
C218 C 0.40925 0.11663 0.02696 0.0
C219 C 0.44132 0.11004 0.035 0.0
C220 C 0.47019 0.93764 0.10688 0.0
C221 C 0.72195 0.12713 0.04136 0.0
H222 H 0.10183 0.24275 0.23957 0.0
H223 H 0.38243 0.53191 0.30835 0.0
H224 H 0.17732 0.22045 0.30039 0.0
H225 H 0.14892 0.15472 0.29395 0.0
H226 H 0.27051 0.11016 0.28711 0.0
H227 H 0.29867 0.17614 0.29357 0.0
H228 H 0.17075 0.29916 0.28542 0.0
H229 H 0.13193 0.28218 0.26722 0.0
H230 H 0.23389 0.21224 0.25372 0.0
H231 H 0.27253 0.22988 0.2719 0.0
H232 H 0.2088 0.37856 0.29687 0.0
H233 H 0.19098 0.43256 0.28284 0.0
H234 H 0.2734 0.38103 0.25643 0.0
H235 H 0.29064 0.32679 0.27052 0.0
H236 H 0.25551 0.3786 0.32083 0.0
H237 H 0.28025 0.44767 0.32509 0.0
H238 H 0.36805 0.43543 0.29619 0.0
H239 H 0.34337 0.36618 0.29215 0.0
H240 H 0.25849 0.29739 0.33442 0.0
H241 H 0.28799 0.32782 0.3526 0.0
H242 H 0.40214 0.34486 0.33377 0.0
H243 H 0.37178 0.3153 0.31551 0.0
H244 H 0.22797 0.20885 0.3242 0.0
H245 H 0.24631 0.15512 0.33835 0.0
H246 H 0.37322 0.17146 0.32915 0.0
H247 H 0.35459 0.22487 0.315 0.0
O248 O 0.11782 0.24931 0.24666 0.0
O249 O 0.17104 0.2136 0.24015 0.0
O250 O 0.32657 0.50931 0.32168 0.0
O251 O 0.372 0.50471 0.30685 0.0
C252 C 0.25621 0.24462 0.29949 0.0
C253 C 0.24773 0.27564 0.29109 0.0
C254 C 0.26133 0.31589 0.29329 0.0
C255 C 0.28353 0.32504 0.30387 0.0
C256 C 0.2923 0.29392 0.3122 0.0
C257 C 0.2791 0.25356 0.30997 0.0
C258 C 0.23996 0.20304 0.29732 0.0
C259 C 0.1978 0.19623 0.29768 0.0
C260 C 0.18167 0.15881 0.29399 0.0
C261 C 0.20751 0.12751 0.28995 0.0
C262 C 0.24992 0.13364 0.29028 0.0
C263 C 0.26604 0.17125 0.29392 0.0
C264 C 0.22445 0.26583 0.27995 0.0
C265 C 0.18471 0.28041 0.27848 0.0
C266 C 0.16258 0.27054 0.26809 0.0
C267 C 0.17979 0.24582 0.25901 0.0
C268 C 0.21971 0.23133 0.26053 0.0
C269 C 0.24184 0.24132 0.2709 0.0
C270 C 0.25107 0.34884 0.28472 0.0
C271 C 0.22312 0.37909 0.28807 0.0
C272 C 0.21312 0.40999 0.28005 0.0
C273 C 0.23085 0.41124 0.2685 0.0
C274 C 0.25884 0.38074 0.26519 0.0
C275 C 0.26887 0.34984 0.27323 0.0
C276 C 0.29778 0.36739 0.30622 0.0
C277 C 0.28016 0.39088 0.31546 0.0
C278 C 0.2943 0.43033 0.31785 0.0
C279 C 0.32619 0.44706 0.31099 0.0
C280 C 0.34349 0.42348 0.30166 0.0
C281 C 0.3294 0.38398 0.2993 0.0
C282 C 0.31293 0.3046 0.32366 0.0
C283 C 0.29017 0.30678 0.33434 0.0
C284 C 0.30717 0.32405 0.34472 0.0
C285 C 0.3473 0.33923 0.34459 0.0
C286 C 0.37091 0.33415 0.33409 0.0
C287 C 0.35379 0.31708 0.32369 0.0
C288 C 0.28991 0.22074 0.31854 0.0
C289 C 0.25968 0.20062 0.32519 0.0
C290 C 0.27022 0.16992 0.33326 0.0
C291 C 0.31125 0.15908 0.3349 0.0
C292 C 0.34141 0.17945 0.32823 0.0
C293 C 0.33082 0.20986 0.32011 0.0
C294 C 0.15611 0.2352 0.24803 0.0
C295 C 0.34146 0.4889 0.31353 0.0
H296 H 0.8702 0.21063 0.2346 0.0
H297 H 0.79255 0.51973 0.3413 0.0
H298 H 0.7431 0.195 0.28919 0.0
H299 H 0.75578 0.13455 0.27668 0.0
H300 H 0.86176 0.10741 0.29811 0.0
H301 H 0.84888 0.16818 0.31056 0.0
H302 H 0.77853 0.27062 0.27634 0.0
H303 H 0.80772 0.25049 0.25687 0.0
H304 H 0.91456 0.20542 0.27508 0.0
H305 H 0.88512 0.22608 0.29447 0.0
H306 H 0.76815 0.35433 0.28835 0.0
H307 H 0.79796 0.40846 0.27609 0.0
H308 H 0.91823 0.37325 0.28774 0.0
H309 H 0.88796 0.31962 0.30013 0.0
H310 H 0.72163 0.35814 0.31082 0.0
H311 H 0.7115 0.42714 0.31879 0.0
H312 H 0.83455 0.42736 0.33266 0.0
H313 H 0.8441 0.35818 0.32469 0.0
H314 H 0.69155 0.29046 0.32451 0.0
H315 H 0.66259 0.33554 0.33996 0.0
H316 H 0.77965 0.3425 0.35757 0.0
H317 H 0.80822 0.2972 0.34212 0.0
H318 H 0.69832 0.20787 0.31832 0.0
H319 H 0.67437 0.14962 0.33009 0.0
H320 H 0.79569 0.13463 0.34442 0.0
H321 H 0.81925 0.19258 0.33253 0.0
O322 O 0.85958 0.21906 0.24237 0.0
O323 O 0.91392 0.19649 0.25215 0.0
O324 O 0.73298 0.491 0.33055 0.0
O325 O 0.79611 0.49289 0.33777 0.0
C326 C 0.79418 0.22814 0.30572 0.0
C327 C 0.81072 0.25965 0.2986 0.0
C328 C 0.80793 0.30049 0.30249 0.0
C329 C 0.78803 0.31007 0.31339 0.0
C330 C 0.77225 0.27865 0.32071 0.0
C331 C 0.77562 0.23755 0.31692 0.0
C332 C 0.7949 0.18584 0.30083 0.0
C333 C 0.76816 0.17516 0.29147 0.0
C334 C 0.77578 0.14095 0.28423 0.0
C335 C 0.81013 0.11661 0.2863 0.0
C336 C 0.83497 0.12548 0.29632 0.0
C337 C 0.8275 0.16 0.30351 0.0
C338 C 0.82975 0.24977 0.28678 0.0
C339 C 0.80841 0.25678 0.27608 0.0
C340 C 0.82508 0.24507 0.26498 0.0
C341 C 0.86341 0.22619 0.26442 0.0
C342 C 0.88495 0.21981 0.27519 0.0
C343 C 0.86826 0.2316 0.28627 0.0
C344 C 0.82596 0.33328 0.29512 0.0
C345 C 0.8009 0.3585 0.28827 0.0
C346 C 0.818 0.38914 0.28123 0.0
C347 C 0.86046 0.39504 0.28095 0.0
C348 C 0.88542 0.36971 0.28788 0.0
C349 C 0.86827 0.339 0.29489 0.0
C350 C 0.78353 0.35328 0.31722 0.0
C351 C 0.74644 0.37333 0.31549 0.0
C352 C 0.74073 0.41267 0.32008 0.0
C353 C 0.77216 0.43269 0.32643 0.0
C354 C 0.80968 0.41278 0.32786 0.0
C355 C 0.81532 0.37339 0.32327 0.0
C356 C 0.75197 0.29041 0.3322 0.0
C357 C 0.71039 0.29996 0.33205 0.0
C358 C 0.6941 0.32633 0.34077 0.0
C359 C 0.71909 0.34327 0.34983 0.0
C360 C 0.7596 0.32995 0.35073 0.0
C361 C 0.77591 0.30372 0.34196 0.0
C362 C 0.76042 0.20434 0.32462 0.0
C363 C 0.71951 0.19217 0.3241 0.0
C364 C 0.70594 0.15899 0.33084 0.0
C365 C 0.73319 0.13739 0.33816 0.0
C366 C 0.77408 0.15023 0.33876 0.0
C367 C 0.78754 0.18346 0.33205 0.0
C368 C 0.88064 0.213 0.25264 0.0
C369 C 0.76577 0.47395 0.33167 0.0
H370 H 0.74636 0.82329 0.71621 0.0
H371 H 0.81036 0.51123 0.82279 0.0
H372 H 0.86075 0.84183 0.77242 0.0
H373 H 0.84369 0.90465 0.76208 0.0
H374 H 0.73877 0.91949 0.78528 0.0
H375 H 0.75524 0.8554 0.79519 0.0
H376 H 0.83984 0.76961 0.75795 0.0
H377 H 0.81103 0.78945 0.73855 0.0
H378 H 0.69634 0.81596 0.75611 0.0
H379 H 0.72544 0.79555 0.77541 0.0
H380 H 0.85481 0.69297 0.76617 0.0
H381 H 0.83417 0.64533 0.75013 0.0
H382 H 0.71113 0.64599 0.76415 0.0
H383 H 0.73193 0.6946 0.77984 0.0
H384 H 0.88198 0.66538 0.79011 0.0
H385 H 0.88975 0.5961 0.79774 0.0
H386 H 0.77057 0.60395 0.81423 0.0
H387 H 0.76318 0.67303 0.80648 0.0
H388 H 0.90687 0.72592 0.80879 0.0
H389 H 0.92509 0.6787 0.82479 0.0
H390 H 0.8039 0.68929 0.8396 0.0
H391 H 0.78592 0.73642 0.82351 0.0
H392 H 0.89524 0.83603 0.79998 0.0
H393 H 0.90812 0.89739 0.81215 0.0
H394 H 0.79436 0.87837 0.83096 0.0
H395 H 0.7816 0.81722 0.81864 0.0
O396 O 0.75705 0.81524 0.72395 0.0
O397 O 0.69887 0.82874 0.73343 0.0
O398 O 0.86709 0.53397 0.80981 0.0
O399 O 0.80729 0.53775 0.81918 0.0
C400 C 0.8132 0.80061 0.78824 0.0
C401 C 0.80231 0.76986 0.77986 0.0
C402 C 0.80623 0.72861 0.78292 0.0
C403 C 0.8196 0.71768 0.79446 0.0
C404 C 0.83003 0.7482 0.80302 0.0
C405 C 0.82692 0.78974 0.79987 0.0
C406 C 0.80925 0.84395 0.78456 0.0
C407 C 0.83473 0.85929 0.7755 0.0
C408 C 0.82485 0.89531 0.76958 0.0
C409 C 0.7894 0.91702 0.77268 0.0
C410 C 0.76575 0.90315 0.78244 0.0
C411 C 0.77549 0.86686 0.78829 0.0
C412 C 0.78463 0.78098 0.76803 0.0
C413 C 0.80841 0.77937 0.75755 0.0
C414 C 0.79192 0.79089 0.7465 0.0
C415 C 0.75137 0.80431 0.74577 0.0
C416 C 0.72764 0.80575 0.75634 0.0
C417 C 0.74415 0.79411 0.76737 0.0
C418 C 0.79475 0.69692 0.77407 0.0
C419 C 0.82351 0.68247 0.76576 0.0
C420 C 0.81168 0.65536 0.75665 0.0
C421 C 0.77094 0.6423 0.7558 0.0
C422 C 0.74252 0.65623 0.76439 0.0
C423 C 0.75435 0.68349 0.77344 0.0
C424 C 0.82206 0.67406 0.79776 0.0
C425 C 0.85735 0.65175 0.7952 0.0
C426 C 0.86177 0.61232 0.79963 0.0
C427 C 0.83087 0.59459 0.80667 0.0
C428 C 0.795 0.61671 0.80888 0.0
C429 C 0.79059 0.65607 0.80441 0.0
C430 C 0.84513 0.73493 0.81499 0.0
C431 C 0.88488 0.71968 0.81582 0.0
C432 C 0.89498 0.69205 0.82485 0.0
C433 C 0.86566 0.67955 0.83331 0.0
C434 C 0.82719 0.6983 0.83323 0.0
C435 C 0.81699 0.72569 0.82412 0.0
C436 C 0.83775 0.82218 0.80856 0.0
C437 C 0.87363 0.84469 0.80692 0.0
C438 C 0.88084 0.87968 0.81384 0.0
C439 C 0.85207 0.89273 0.82242 0.0
C440 C 0.81677 0.86923 0.8243 0.0
C441 C 0.80969 0.83411 0.81741 0.0
C442 C 0.73404 0.81685 0.73404 0.0
C443 C 0.83626 0.55356 0.81192 0.0
H444 H 0.45875 0.42132 0.97769 0.0
H445 H 0.78247 0.5604 0.07179 0.0
H446 H 0.43587 0.55278 0.0294 0.0
H447 H 0.37168 0.5254 0.02153 0.0
H448 H 0.36943 0.43638 0.0499 0.0
H449 H 0.43413 0.46379 0.05768 0.0
H450 H 0.51458 0.53404 0.01543 0.0
H451 H 0.49418 0.49601 0.99732 0.0
H452 H 0.46677 0.39112 0.01919 0.0
H453 H 0.48781 0.42934 0.0372 0.0
H454 H 0.59319 0.56781 0.02512 0.0
H455 H 0.6476 0.54979 0.01098 0.0
H456 H 0.64286 0.42537 0.02332 0.0
H457 H 0.58781 0.44371 0.03727 0.0
H458 H 0.60499 0.61089 0.04689 0.0
H459 H 0.67512 0.62891 0.05229 0.0
H460 H 0.69132 0.50916 0.06737 0.0
H461 H 0.6211 0.49162 0.06191 0.0
H462 H 0.53821 0.6339 0.06229 0.0
H463 H 0.58533 0.67009 0.07577 0.0
H464 H 0.60865 0.55782 0.09444 0.0
H465 H 0.56161 0.52206 0.08094 0.0
H466 H 0.43438 0.59885 0.05374 0.0
H467 H 0.37777 0.61725 0.06707 0.0
H468 H 0.42127 0.53187 0.09344 0.0
H469 H 0.47797 0.51391 0.08005 0.0
O470 O 0.4672 0.43561 0.98495 0.0
O471 O 0.45322 0.38268 0.99662 0.0
O472 O 0.74448 0.61555 0.06189 0.0
O473 O 0.7548 0.55396 0.06942 0.0
C474 C 0.48269 0.52023 0.04685 0.0
C475 C 0.51351 0.50808 0.03864 0.0
C476 C 0.55445 0.51851 0.04092 0.0
C477 C 0.56475 0.54013 0.0515 0.0
C478 C 0.5341 0.55184 0.05981 0.0
C479 C 0.49291 0.54213 0.05748 0.0
C480 C 0.43972 0.50998 0.04402 0.0
C481 C 0.42098 0.52805 0.03409 0.0
C482 C 0.38455 0.51227 0.02958 0.0
C483 C 0.36608 0.47844 0.03502 0.0
C484 C 0.38311 0.46252 0.04557 0.0
C485 C 0.4199 0.47815 0.05003 0.0
C486 C 0.50276 0.48438 0.0276 0.0
C487 C 0.50456 0.50271 0.01626 0.0
C488 C 0.4927 0.48098 0.00595 0.0
C489 C 0.47876 0.44054 0.00681 0.0
C490 C 0.47733 0.42221 0.01821 0.0
C491 C 0.48933 0.44394 0.0285 0.0
C492 C 0.58674 0.50705 0.0322 0.0
C493 C 0.60394 0.53668 0.02473 0.0
C494 C 0.63513 0.52635 0.01672 0.0
C495 C 0.64971 0.48616 0.01605 0.0
C496 C 0.63202 0.45647 0.02351 0.0
C497 C 0.60076 0.46686 0.03151 0.0
C498 C 0.60809 0.55004 0.05404 0.0
C499 C 0.62387 0.58856 0.05129 0.0
C500 C 0.66387 0.59877 0.05441 0.0
C501 C 0.68877 0.57053 0.06032 0.0
C502 C 0.67296 0.53165 0.06286 0.0
C503 C 0.63295 0.52149 0.05972 0.0
C504 C 0.54656 0.5754 0.07065 0.0
C505 C 0.55177 0.61765 0.06971 0.0
C506 C 0.57918 0.63811 0.07729 0.0
C507 C 0.60126 0.61657 0.08598 0.0
C508 C 0.59202 0.57526 0.08785 0.0
C509 C 0.56485 0.5548 0.08021 0.0
C510 C 0.46037 0.55519 0.06595 0.0
C511 C 0.43177 0.58432 0.06243 0.0
C512 C 0.39928 0.59452 0.07001 0.0
C513 C 0.39483 0.57584 0.08129 0.0
C514 C 0.424 0.54711 0.08487 0.0
C515 C 0.45644 0.53684 0.07725 0.0
C516 C 0.46561 0.41774 0.99585 0.0
C517 C 0.73098 0.58152 0.0639 0.0
H518 H 0.98104 0.35356 0.61482 0.0
H519 H 0.26542 0.65581 0.53721 0.0
H520 H 0.97451 0.42377 0.55305 0.0
H521 H 0.91985 0.38994 0.5642 0.0
H522 H 0.88041 0.50664 0.57814 0.0
H523 H 0.93511 0.54014 0.56692 0.0
H524 H 0.04114 0.41711 0.56905 0.0
H525 H 0.02139 0.37967 0.58712 0.0
H526 H 0.98171 0.49231 0.60384 0.0
H527 H 0.00163 0.52931 0.58569 0.0
H528 H 0.11756 0.44869 0.56527 0.0
H529 H 0.17195 0.43931 0.58003 0.0
H530 H 0.14973 0.56014 0.59436 0.0
H531 H 0.09544 0.56924 0.57945 0.0
H532 H 0.13749 0.49761 0.53988 0.0
H533 H 0.20292 0.52629 0.53349 0.0
H534 H 0.17237 0.64019 0.55116 0.0
H535 H 0.10704 0.61104 0.55747 0.0
H536 H 0.07005 0.50911 0.52201 0.0
H537 H 0.11195 0.54489 0.50728 0.0
H538 H 0.08529 0.65916 0.52521 0.0
H539 H 0.04388 0.6229 0.54 0.0
H540 H 0.96957 0.4655 0.53148 0.0
H541 H 0.91309 0.47361 0.51731 0.0
H542 H 0.90969 0.60237 0.52575 0.0
H543 H 0.96622 0.59392 0.53983 0.0
O544 O 0.98991 0.36912 0.60793 0.0
O545 O 0.97131 0.42801 0.6163 0.0
O546 O 0.25532 0.58363 0.53141 0.0
O547 O 0.24053 0.6432 0.54003 0.0
C548 C 0.99896 0.5021 0.55621 0.0
C549 C 0.03074 0.49771 0.56471 0.0
C550 C 0.06937 0.51471 0.56249 0.0
C551 C 0.07638 0.53618 0.55178 0.0
C552 C 0.04456 0.54119 0.54331 0.0
C553 C 0.00567 0.52403 0.54548 0.0
C554 C 0.95861 0.48438 0.55915 0.0
C555 C 0.95293 0.44214 0.55808 0.0
C556 C 0.92216 0.42284 0.56461 0.0
C557 C 0.89639 0.44558 0.57222 0.0
C558 C 0.89972 0.48832 0.57233 0.0
C559 C 0.93071 0.50757 0.56585 0.0
C560 C 0.02292 0.47584 0.57612 0.0
C561 C 0.02874 0.43366 0.5767 0.0
C562 C 0.0172 0.41236 0.587 0.0
C563 C 0.99978 0.43297 0.59691 0.0
C564 C 0.99497 0.4755 0.59637 0.0
C565 C 0.0065 0.49673 0.58606 0.0
C566 C 0.10264 0.50956 0.57134 0.0
C567 C 0.12447 0.47305 0.57162 0.0
C568 C 0.15532 0.46772 0.58009 0.0
C569 C 0.16499 0.49892 0.58842 0.0
C570 C 0.14322 0.53569 0.58801 0.0
C571 C 0.11219 0.5409 0.57955 0.0
C572 C 0.1177 0.55229 0.54913 0.0
C573 C 0.1453 0.52855 0.54249 0.0
C574 C 0.18252 0.54508 0.53882 0.0
C575 C 0.19279 0.58564 0.54177 0.0
C576 C 0.16541 0.60891 0.54872 0.0
C577 C 0.12818 0.59232 0.55239 0.0
C578 C 0.05395 0.5634 0.53207 0.0
C579 C 0.07148 0.54208 0.52237 0.0
C580 C 0.0957 0.56262 0.514 0.0
C581 C 0.10263 0.60478 0.51524 0.0
C582 C 0.08109 0.62657 0.52416 0.0
C583 C 0.05686 0.60601 0.5325 0.0
C584 C 0.97211 0.52914 0.53667 0.0
C585 C 0.95658 0.49544 0.53026 0.0
C586 C 0.9242 0.50011 0.5222 0.0
C587 C 0.90683 0.53866 0.52037 0.0
C588 C 0.9227 0.57237 0.52679 0.0
C589 C 0.95496 0.56762 0.53486 0.0
C590 C 0.98618 0.41006 0.60766 0.0
C591 C 0.2315 0.6039 0.53744 0.0
Fe592 Fe 0.02338 0.78022 0.19091 0.0
O593 O 0.05144 0.8115 0.17805 0.0
Fe594 Fe 0.92952 0.75629 0.17897 0.0
Fe595 Fe 0.11116 0.81241 0.17703 0.0
O596 O 0.98877 0.75865 0.17762 0.0
O597 O 0.98873 0.75864 0.17651 0.0
O598 O 0.05123 0.81175 0.17689 0.0
Fe599 Fe 0.01707 0.78921 0.1634 0.0
C600 C 0.08794 0.83824 0.20228 0.0
O601 O 0.06141 0.73197 0.18836 0.0
O602 O 0.12007 0.76516 0.18918 0.0
O603 O 0.97621 0.76168 0.15114 0.0
O604 O 0.93309 0.72302 0.16304 0.0
O605 O 0.94295 0.7106 0.19095 0.0
O606 O 0.99084 0.7431 0.20282 0.0
O607 O 0.11652 0.77105 0.1632 0.0
O608 O 0.056 0.74058 0.16058 0.0
C609 C 0.96531 0.71351 0.20059 0.0
O610 O 0.97761 0.83783 0.16497 0.0
O611 O 0.91836 0.80558 0.16824 0.0
O612 O 0.06273 0.80779 0.20346 0.0
O613 O 0.10461 0.84896 0.19214 0.0
C614 C 0.099 0.73299 0.19083 0.0
C615 C 0.09459 0.74176 0.15929 0.0
C616 C 0.08196 0.85068 0.15352 0.0
O617 O 0.10161 0.85499 0.16366 0.0
O618 O 0.05254 0.82446 0.15156 0.0
C619 C 0.94782 0.73419 0.15268 0.0
O620 O 0.92636 0.79445 0.19404 0.0
O621 O 0.98502 0.82826 0.1939 0.0
C622 C 0.93875 0.83648 0.1648 0.0
C623 C 0.94823 0.82488 0.19725 0.0
Fe624 Fe 0.54814 0.77539 0.45808 0.0
O625 O 0.54787 0.76646 0.44045 0.0
Fe626 Fe 0.5202 0.81109 0.42978 0.0
Fe627 Fe 0.52156 0.71752 0.43289 0.0
O628 O 0.54752 0.77054 0.44035 0.0
O629 O 0.49409 0.76206 0.4222 0.0
O630 O 0.49455 0.75815 0.42228 0.0
Fe631 Fe 0.49109 0.75255 0.40474 0.0
C632 C 0.58414 0.69209 0.45242 0.0
O633 O 0.50425 0.73177 0.46175 0.0
O634 O 0.47271 0.72199 0.4443 0.0
O635 O 0.45125 0.80147 0.40581 0.0
O636 O 0.48741 0.84719 0.41768 0.0
O637 O 0.47129 0.81538 0.44136 0.0
O638 O 0.50313 0.81892 0.45899 0.0
O639 O 0.48933 0.67183 0.42371 0.0
O640 O 0.452 0.70515 0.40922 0.0
C641 C 0.47128 0.82293 0.45261 0.0
O642 O 0.53466 0.79578 0.40071 0.0
O643 O 0.56806 0.80907 0.41784 0.0
O644 O 0.58907 0.72838 0.45697 0.0
O645 O 0.55478 0.68118 0.44511 0.0
C646 C 0.47255 0.72251 0.45572 0.0
C647 C 0.46057 0.67332 0.41565 0.0
C648 C 0.56574 0.69825 0.41013 0.0
O649 O 0.56961 0.7099 0.42108 0.0
O650 O 0.53507 0.70805 0.40378 0.0
C651 C 0.45915 0.83813 0.40981 0.0
O652 O 0.55308 0.85716 0.43916 0.0
O653 O 0.58695 0.82252 0.45419 0.0
C654 C 0.56487 0.81093 0.40641 0.0
C655 C 0.58106 0.85406 0.44747 0.0
Fe656 Fe 0.50901 0.25606 0.70424 0.0
O657 O 0.51276 0.25044 0.68693 0.0
Fe658 Fe 0.46162 0.26804 0.67576 0.0
Fe659 Fe 0.56186 0.25141 0.67629 0.0
O660 O 0.50869 0.2666 0.68713 0.0
O661 O 0.50866 0.25483 0.66497 0.0
O662 O 0.51702 0.26807 0.66524 0.0
Fe663 Fe 0.51452 0.26382 0.6479 0.0
C664 C 0.57023 0.32134 0.69547 0.0
O665 O 0.55616 0.21458 0.70416 0.0
O666 O 0.6008 0.22631 0.68897 0.0
O667 O 0.45757 0.2367 0.64704 0.0
O668 O 0.41808 0.25937 0.66252 0.0
O669 O 0.45065 0.20883 0.68194 0.0
O670 O 0.46668 0.2096 0.70208 0.0
O671 O 0.55523 0.19377 0.66805 0.0
O672 O 0.54288 0.20777 0.64822 0.0
C673 C 0.45011 0.19323 0.69261 0.0
O674 O 0.48604 0.31962 0.64943 0.0
O675 O 0.46875 0.32766 0.66934 0.0
O676 O 0.55136 0.30287 0.70411 0.0
O677 O 0.57239 0.30843 0.68442 0.0
C678 C 0.59044 0.20876 0.69884 0.0
C679 C 0.55473 0.18389 0.65671 0.0
C680 C 0.60516 0.28362 0.65426 0.0
O681 O 0.6079 0.26256 0.66394 0.0
O682 O 0.57149 0.29082 0.64879 0.0
C683 C 0.42293 0.24098 0.65232 0.0
O684 O 0.42016 0.28989 0.68851 0.0
O685 O 0.46215 0.29758 0.70456 0.0
C686 C 0.47208 0.34078 0.65841 0.0
C687 C 0.42914 0.30545 0.69889 0.0
Fe688 Fe 0.01924 0.27279 0.93878 0.0
O689 O 0.99529 0.24105 0.92517 0.0
Fe690 Fe 0.05592 0.36041 0.92586 0.0
Fe691 Fe 0.99007 0.18169 0.9254 0.0
O692 O 0.05119 0.30082 0.92603 0.0
O693 O 0.05183 0.30048 0.92483 0.0
O694 O 0.99528 0.24113 0.92407 0.0
Fe695 Fe 0.02556 0.27033 0.91105 0.0
C696 C 0.06255 0.19442 0.94265 0.0
O697 O 0.98109 0.24057 0.95059 0.0
O698 O 0.94697 0.19471 0.93838 0.0
O699 O 0.97927 0.31308 0.90973 0.0
O700 O 0.01531 0.37042 0.91224 0.0
O701 O 0.00916 0.37063 0.93826 0.0
O702 O 0.97309 0.31352 0.93728 0.0
O703 O 0.95437 0.19064 0.91028 0.0
O704 O 0.99311 0.23444 0.89857 0.0
C705 C 0.97601 0.35104 0.93987 0.0
O706 O 0.06131 0.30596 0.89947 0.0
O707 O 0.09743 0.34946 0.91216 0.0
O708 O 0.06535 0.23215 0.94052 0.0
O709 O 0.03124 0.17359 0.93956 0.0
C710 C 0.9509 0.21586 0.94826 0.0
C711 C 0.96354 0.20831 0.90016 0.0
C712 C 0.06775 0.18863 0.90978 0.0
O713 O 0.0363 0.16973 0.91347 0.0
O714 O 0.07182 0.22729 0.91073 0.0
C715 C 0.98407 0.35139 0.90843 0.0
O716 O 0.09213 0.35012 0.94066 0.0
O717 O 0.04952 0.30887 0.9517 0.0
C718 C 0.09009 0.33263 0.90168 0.0
C719 C 0.08083 0.33308 0.95065 0.0
H720 H 0.19702 0.98412 0.51874 0.0
H721 H 0.25309 0.9615 0.50581 0.0
H722 H 0.17601 0.86796 0.49041 0.0
H723 H 0.11963 0.89056 0.50324 0.0
H724 H 0.25144 0.83904 0.49725 0.0
H725 H 0.26841 0.97778 0.46964 0.0
H726 H 0.26996 0.988 0.48556 0.0
H727 H 0.22404 0.96824 0.47883 0.0
C728 C 0.19175 0.95916 0.51246 0.0
C729 C 0.15375 0.93924 0.51202 0.0
C730 C 0.22387 0.94625 0.50508 0.0
C731 C 0.21859 0.91338 0.49702 0.0
C732 C 0.18073 0.89345 0.49653 0.0
H733 H 0.3988 0.84435 0.44212 0.0
H734 H 0.3354 0.86388 0.45231 0.0
C735 C 0.1486 0.90631 0.50392 0.0
C736 C 0.25305 0.89885 0.48946 0.0
H737 H 0.32273 0.9297 0.46852 0.0
C738 C 0.26683 0.85876 0.4909 0.0
C739 C 0.27269 0.92435 0.48102 0.0
C740 C 0.25781 0.96686 0.47856 0.0
C741 C 0.30069 0.84402 0.48447 0.0
C742 C 0.32159 0.87025 0.47652 0.0
C743 C 0.3069 0.9098 0.47473 0.0
C744 C 0.35965 0.85774 0.47031 0.0
C745 C 0.31378 0.80049 0.48623 0.0
C746 C 0.39437 0.84835 0.47706 0.0
C747 C 0.43062 0.83749 0.47129 0.0
C748 C 0.43298 0.83583 0.45863 0.0
C749 C 0.3981 0.84538 0.45188 0.0
C750 C 0.36184 0.8565 0.45768 0.0
H751 H 0.28861 0.7815 0.48988 0.0
H752 H 0.32449 0.78671 0.47762 0.0
H753 H 0.33934 0.79978 0.49276 0.0
H754 H 0.39355 0.84976 0.48681 0.0
H755 H 0.45673 0.8301 0.4768 0.0
H756 H 0.26956 0.87107 0.7304 0.0
H757 H 0.28971 0.91149 0.71292 0.0
H758 H 0.39577 0.95438 0.73224 0.0
H759 H 0.37575 0.91461 0.74968 0.0
H760 H 0.2947 0.99367 0.71392 0.0
H761 H 0.44283 0.93321 0.69899 0.0
H762 H 0.40791 0.90395 0.70811 0.0
H763 H 0.44265 0.93986 0.71504 0.0
C764 C 0.29739 0.88885 0.73085 0.0
C765 C 0.32096 0.88998 0.74143 0.0
C766 C 0.30904 0.91149 0.72083 0.0
C767 C 0.34461 0.93524 0.72121 0.0
C768 C 0.36889 0.93522 0.73161 0.0
H769 H 0.41957 0.16205 0.71332 0.0
H770 H 0.38779 0.09569 0.71616 0.0
C771 C 0.35727 0.91269 0.74161 0.0
C772 C 0.35334 0.96515 0.7117 0.0
H773 H 0.4339 0.00753 0.69697 0.0
C774 C 0.32463 0.99596 0.70982 0.0
C775 C 0.39207 0.96782 0.70617 0.0
C776 C 0.4229 0.93411 0.70709 0.0
C777 C 0.33546 0.03171 0.70384 0.0
C778 C 0.37587 0.03654 0.69975 0.0
C779 C 0.40302 0.00381 0.70029 0.0
C780 C 0.3926 0.07731 0.69743 0.0
C781 C 0.30472 0.06546 0.70283 0.0
C782 C 0.40597 0.08857 0.68594 0.0
C783 C 0.42402 0.12677 0.68425 0.0
C784 C 0.4296 0.1536 0.69411 0.0
C785 C 0.41596 0.142 0.70557 0.0
C786 C 0.39754 0.10426 0.70719 0.0
H787 H 0.27306 0.05337 0.70303 0.0
H788 H 0.30847 0.08683 0.71057 0.0
H789 H 0.30931 0.08283 0.69439 0.0
H790 H 0.40268 0.0678 0.67835 0.0
H791 H 0.43443 0.13489 0.67532 0.0
H792 H 0.38035 0.14722 0.00486 0.0
H793 H 0.32263 0.15843 0.9914 0.0
H794 H 0.26732 0.04645 0.00327 0.0
H795 H 0.32417 0.0357 0.01707 0.0
H796 H 0.29446 0.10928 0.97248 0.0
H797 H 0.17515 0.12846 0.00766 0.0
H798 H 0.22885 0.13036 0.01109 0.0
H799 H 0.20395 0.0822 0.00854 0.0
C800 C 0.35568 0.12522 0.00474 0.0
C801 C 0.3569 0.09064 0.01211 0.0
C802 C 0.32283 0.13152 0.99696 0.0
C803 C 0.29039 0.10355 0.99643 0.0
C804 C 0.29165 0.0688 0.00367 0.0
H805 H 0.06477 0.119 0.95344 0.0
H806 H 0.11987 0.09143 0.96591 0.0
C807 C 0.32447 0.06247 0.01146 0.0
C808 C 0.25568 0.11063 0.98814 0.0
H809 H 0.1534 0.12958 0.9874 0.0
C810 C 0.2636 0.11353 0.97574 0.0
C811 C 0.21533 0.11589 0.99239 0.0
C812 C 0.20517 0.11443 0.00565 0.0
C813 C 0.23244 0.12214 0.96751 0.0
C814 C 0.19236 0.12856 0.97179 0.0
C815 C 0.18412 0.12442 0.98413 0.0
C816 C 0.15962 0.14362 0.9638 0.0
C817 C 0.24272 0.12463 0.95428 0.0
C818 C 0.16367 0.18204 0.95855 0.0
C819 C 0.13247 0.19781 0.95151 0.0
C820 C 0.09622 0.1756 0.94955 0.0
C821 C 0.09232 0.13679 0.95471 0.0
C822 C 0.12369 0.12106 0.96185 0.0
H823 H 0.27093 0.1075 0.95208 0.0
H824 H 0.21743 0.11254 0.94863 0.0
H825 H 0.24787 0.15697 0.95188 0.0
H826 H 0.19076 0.2003 0.96011 0.0
H827 H 0.13669 0.22782 0.94773 0.0
H828 H 0.14705 0.12345 0.27333 0.0
H829 H 0.12325 0.0638 0.26215 0.0
H830 H 0.20543 0.98793 0.28219 0.0
H831 H 0.23003 0.04813 0.29333 0.0
H832 H 0.21362 0.97503 0.25893 0.0
H833 H 0.0494 0.97 0.26919 0.0
H834 H 0.06344 0.01984 0.26421 0.0
H835 H 0.08469 1.00043 0.27798 0.0
C836 C 0.15927 0.09392 0.2756 0.0
C837 C 0.19019 0.09034 0.28426 0.0
C838 C 0.14548 0.05976 0.26924 0.0
C839 C 0.16186 0.02121 0.27151 0.0
C840 C 0.19208 0.01735 0.28038 0.0
H841 H 0.06591 0.82282 0.22567 0.0
H842 H 0.08513 0.86151 0.24375 0.0
C843 C 0.20619 0.05168 0.28669 0.0
C844 C 0.15085 0.9863 0.26358 0.0
H845 H 0.06962 0.94013 0.24989 0.0
C846 C 0.18215 0.96677 0.25716 0.0
C847 C 0.10987 0.97489 0.26139 0.0
C848 C 0.07504 0.99213 0.26868 0.0
C849 C 0.17346 0.93829 0.24802 0.0
C850 C 0.13238 0.92998 0.24503 0.0
C851 C 0.10113 0.9472 0.25203 0.0
C852 C 0.12129 0.90592 0.23417 0.0
C853 C 0.20841 0.91803 0.24149 0.0
C854 C 0.13465 0.91855 0.22279 0.0
C855 C 0.12393 0.89653 0.21246 0.0
C856 C 0.09916 0.86162 0.21327 0.0
C857 C 0.08519 0.84944 0.2247 0.0
C858 C 0.09612 0.87147 0.23505 0.0
H859 H 0.23586 0.91653 0.24732 0.0
H860 H 0.20024 0.88668 0.23849 0.0
H861 H 0.21652 0.93614 0.23345 0.0
H862 H 0.15311 0.94578 0.22188 0.0
H863 H 0.13489 0.90714 0.20383 0.0
H864 H 0.21295 0.03699 0.57894 0.0
H865 H 0.25477 0.06934 0.59467 0.0
H866 H 0.15627 0.15113 0.60334 0.0
H867 H 0.11459 0.11927 0.58759 0.0
H868 H 0.22899 0.1909 0.60142 0.0
H869 H 0.24532 0.05712 0.63093 0.0
H870 H 0.26076 0.04653 0.6157 0.0
H871 H 0.20844 0.05884 0.61889 0.0
C872 C 0.20027 0.06178 0.58424 0.0
C873 C 0.16071 0.07583 0.58197 0.0
C874 C 0.22402 0.08007 0.59326 0.0
C875 C 0.20837 0.11223 0.6003 0.0
C876 C 0.16892 0.12635 0.59803 0.0
H877 H 0.34133 0.25804 0.65552 0.0
H878 H 0.2837 0.22816 0.64425 0.0
C879 C 0.14528 0.10829 0.58897 0.0
C880 C 0.23376 0.13214 0.60973 0.0
H881 H 0.29223 0.11242 0.63439 0.0
C882 C 0.24226 0.17394 0.60876 0.0
C883 C 0.25067 0.11002 0.61937 0.0
C884 C 0.2405 0.06575 0.62138 0.0
C885 C 0.26915 0.19366 0.61676 0.0
C886 C 0.28769 0.17099 0.62599 0.0
C887 C 0.27787 0.12965 0.62728 0.0
C888 C 0.32123 0.18824 0.63333 0.0
C889 C 0.27929 0.23803 0.61495 0.0
C890 C 0.36098 0.17515 0.631 0.0
C891 C 0.39363 0.19212 0.6373 0.0
C892 C 0.38728 0.22244 0.64616 0.0
C893 C 0.34719 0.23481 0.64874 0.0
C894 C 0.31434 0.21792 0.6423 0.0
H895 H 0.26458 0.25052 0.60677 0.0
H896 H 0.26897 0.25599 0.6229 0.0
H897 H 0.31278 0.24215 0.61415 0.0
H898 H 0.36684 0.15221 0.62413 0.0
H899 H 0.42399 0.18143 0.63516 0.0
H900 H 0.20911 0.87408 0.85609 0.0
H901 H 0.19369 0.93284 0.86917 0.0
H902 H 0.15318 0.99989 0.83823 0.0
H903 H 0.16712 0.94086 0.82526 0.0
H904 H 0.22166 0.00854 0.87041 0.0
H905 H 0.05721 0.0157 0.85963 0.0
H906 H 0.08856 0.97344 0.85497 0.0
H907 H 0.08844 0.01983 0.84644 0.0
C908 C 0.19661 0.9013 0.85213 0.0
C909 C 0.18853 0.90257 0.8397 0.0
C910 C 0.18789 0.93493 0.85959 0.0
C911 C 0.17129 0.97069 0.85478 0.0
C912 C 0.16454 0.97235 0.84228 0.0
H913 H 0.09904 0.20421 0.88746 0.0
H914 H 0.13039 0.15389 0.87376 0.0
C915 C 0.17262 0.93857 0.83486 0.0
C916 C 0.16133 0.00624 0.86279 0.0
H917 H 0.08459 0.07142 0.87082 0.0
C918 C 0.19164 0.02216 0.87049 0.0
C919 C 0.12208 0.02419 0.863 0.0
C920 C 0.08712 0.00716 0.85566 0.0
C921 C 0.18382 0.05541 0.87829 0.0
C922 C 0.14486 0.07346 0.87835 0.0
C923 C 0.11468 0.05791 0.87061 0.0
C924 C 0.13345 0.10628 0.88705 0.0
C925 C 0.21714 0.07113 0.88645 0.0
C926 C 0.12585 0.09656 0.89912 0.0
C927 C 0.10773 0.12504 0.90689 0.0
C928 C 0.09735 0.16403 0.90279 0.0
C929 C 0.10759 0.17475 0.89094 0.0
C930 C 0.12512 0.14591 0.88308 0.0
H931 H 0.24735 0.05831 0.88402 0.0
H932 H 0.21885 0.10489 0.88609 0.0
H933 H 0.21006 0.06268 0.89589 0.0
H934 H 0.1316 0.06609 0.90234 0.0
H935 H 0.09961 0.11581 0.91593 0.0
H936 H 0.28272 0.0253 0.06532 0.0
H937 H 0.22329 0.00372 0.07715 0.0
H938 H 0.29898 0.92052 0.09683 0.0
H939 H 0.35794 0.94134 0.08497 0.0
H940 H 0.22707 0.88592 0.09071 0.0
H941 H 0.20116 0.03831 0.11162 0.0
H942 H 0.19932 0.03672 0.09545 0.0
H943 H 0.24641 0.02657 0.10306 0.0
C944 C 0.28652 0.00232 0.07215 0.0
C945 C 0.32494 0.98493 0.07419 0.0
C946 C 0.25263 0.99015 0.07893 0.0
C947 C 0.25678 0.96092 0.088 0.0
C948 C 0.29498 0.94304 0.08987 0.0
H949 H 0.14273 0.90802 0.15365 0.0
H950 H 0.17751 0.93688 0.1364 0.0
C951 C 0.32865 0.95487 0.08304 0.0
C952 C 0.22196 0.94909 0.09581 0.0
H953 H 0.15802 0.98513 0.11774 0.0
C954 C 0.21158 0.90765 0.09652 0.0
C955 C 0.20198 0.97751 0.10344 0.0
C956 C 0.21288 0.02222 0.10348 0.0
C957 C 0.18318 0.89355 0.105 0.0
C958 C 0.16367 0.92188 0.11278 0.0
C959 C 0.17273 0.96354 0.1117 0.0
C960 C 0.1382 0.90843 0.12309 0.0
C961 C 0.17631 0.84821 0.10604 0.0
C962 C 0.10331 0.88411 0.12142 0.0
C963 C 0.08335 0.86702 0.13135 0.0
C964 C 0.09777 0.87429 0.14313 0.0
C965 C 0.13087 0.90122 0.14475 0.0
C966 C 0.15086 0.91795 0.13486 0.0
H967 H 0.19973 0.83038 0.10107 0.0
H968 H 0.17667 0.83882 0.11563 0.0
H969 H 0.1461 0.84018 0.10221 0.0
H970 H 0.09233 0.87721 0.11243 0.0
H971 H 0.05774 0.8468 0.12973 0.0
H972 H 0.3741 0.15953 0.35109 0.0
H973 H 0.39427 0.105 0.36471 0.0
H974 H 0.29421 0.03093 0.35194 0.0
H975 H 0.27417 0.08506 0.33814 0.0
H976 H 0.3455 0.06503 0.38334 0.0
H977 H 0.39786 0.95923 0.34708 0.0
H978 H 0.39102 0.01307 0.34466 0.0
H979 H 0.34757 0.97979 0.34533 0.0
C980 C 0.35652 0.13154 0.35113 0.0
C981 C 0.32267 0.12653 0.34348 0.0
C982 C 0.36792 0.10055 0.35897 0.0
C983 C 0.34597 0.06383 0.35924 0.0
C984 C 0.3118 0.05891 0.35177 0.0
H985 H 0.39199 0.83417 0.39512 0.0
H986 H 0.36123 0.88952 0.38382 0.0
C987 C 0.30022 0.08998 0.34397 0.0
C988 C 0.35916 0.03051 0.36726 0.0
H989 H 0.39907 0.93469 0.36695 0.0
C990 C 0.35718 0.03648 0.37979 0.0
C991 C 0.37428 0.99333 0.36257 0.0
C992 C 0.3782 0.98584 0.34918 0.0
C993 C 0.36959 0.00601 0.38778 0.0
C994 C 0.38527 0.96897 0.3831 0.0
C995 C 0.38693 0.96299 0.37055 0.0
C996 C 0.40127 0.93634 0.39097 0.0
C997 C 0.36512 0.01355 0.40115 0.0
C998 C 0.43375 0.94425 0.39889 0.0
C999 C 0.45126 0.91269 0.40546 0.0
C1000 C 0.43706 0.87236 0.40411 0.0
C1001 C 0.40382 0.86476 0.39639 0.0
C1002 C 0.38619 0.89639 0.38989 0.0
H1003 H 0.34161 0.03694 0.40312 0.0
H1004 H 0.35683 0.98514 0.40593 0.0
H1005 H 0.39451 0.02491 0.40483 0.0
H1006 H 0.4466 0.97459 0.39967 0.0
H1007 H 0.47704 0.91974 0.4112 0.0
H1008 H 0.82594 0.9613 0.60217 0.0
H1009 H 0.77315 0.97402 0.61729 0.0
H1010 H 0.77415 0.10159 0.60841 0.0
H1011 H 0.82875 0.0898 0.59399 0.0
H1012 H 0.77164 0.09215 0.63195 0.0
H1013 H 0.65447 0.99155 0.61092 0.0
H1014 H 0.70071 0.96647 0.61511 0.0
H1015 H 0.70159 0.00403 0.60344 0.0
C1016 C 0.81534 0.99218 0.60354 0.0
C1017 C 0.83154 0.02446 0.59674 0.0
C1018 C 0.78465 0.99927 0.61207 0.0
C1019 C 0.76902 0.03862 0.61383 0.0
C1020 C 0.78548 0.07088 0.60717 0.0
H1021 H 0.55302 0.14784 0.63444 0.0
H1022 H 0.60415 0.10215 0.62622 0.0
C1023 C 0.81646 0.06397 0.59879 0.0
C1024 C 0.73571 0.04696 0.62259 0.0
H1025 H 0.63526 0.02773 0.62839 0.0
C1026 C 0.74191 0.07776 0.63127 0.0
C1027 C 0.69694 0.02811 0.62167 0.0
C1028 C 0.68775 0.99595 0.61223 0.0
C1029 C 0.70996 0.09204 0.63855 0.0
C1030 C 0.67091 0.07376 0.63749 0.0
C1031 C 0.66528 0.04135 0.62929 0.0
C1032 C 0.6345 0.09242 0.64324 0.0
C1033 C 0.71778 0.12855 0.64664 0.0
C1034 C 0.63255 0.09979 0.65573 0.0
C1035 C 0.60348 0.12664 0.66049 0.0
C1036 C 0.57568 0.14604 0.65281 0.0
C1037 C 0.57446 0.13417 0.64059 0.0
C1038 C 0.60371 0.10784 0.63585 0.0
H1039 H 0.74737 0.14358 0.64463 0.0
H1040 H 0.69326 0.15147 0.64568 0.0
H1041 H 0.71848 0.11868 0.65617 0.0
H1042 H 0.65521 0.08709 0.66167 0.0
H1043 H 0.60504 0.13466 0.66997 0.0
H1044 H 0.77249 0.06468 0.34078 0.0
H1045 H 0.74934 0.00487 0.35188 0.0
H1046 H 0.63953 0.06817 0.36205 0.0
H1047 H 0.66247 0.12813 0.35098 0.0
H1048 H 0.7306 0.9966 0.37603 0.0
H1049 H 0.59593 0.96192 0.34758 0.0
H1050 H 0.63548 0.99685 0.34299 0.0
H1051 H 0.59652 0.0132 0.35335 0.0
C1052 C 0.74351 0.06597 0.34544 0.0
C1053 C 0.71924 0.10114 0.34497 0.0
C1054 C 0.73027 0.0317 0.35173 0.0
C1055 C 0.69245 0.03183 0.35763 0.0
C1056 C 0.6684 0.06706 0.35732 0.0
H1057 H 0.59718 0.88254 0.41405 0.0
H1058 H 0.63405 0.93277 0.40212 0.0
C1059 C 0.68155 0.10131 0.351 0.0
C1060 C 0.67844 0.9954 0.36428 0.0
H1061 H 0.60003 0.92723 0.36631 0.0
C1062 C 0.70222 0.98118 0.37385 0.0
C1063 C 0.64178 0.9749 0.36129 0.0
C1064 C 0.61612 0.98719 0.35067 0.0
C1065 C 0.6896 0.94785 0.38078 0.0
C1066 C 0.65191 0.92867 0.37817 0.0
C1067 C 0.62882 0.94207 0.36835 0.0
C1068 C 0.63473 0.89597 0.38581 0.0
C1069 C 0.71681 0.93345 0.39081 0.0
C1070 C 0.62274 0.85854 0.38065 0.0
C1071 C 0.60187 0.8297 0.38754 0.0
C1072 C 0.59282 0.83776 0.39971 0.0
C1073 C 0.60571 0.87475 0.40491 0.0
C1074 C 0.62642 0.90362 0.39804 0.0
H1075 H 0.74907 0.94227 0.38922 0.0
H1076 H 0.70697 0.94779 0.39942 0.0
H1077 H 0.71504 0.89987 0.39178 0.0
H1078 H 0.6285 0.85215 0.37121 0.0
H1079 H 0.59171 0.80164 0.38326 0.0
H1080 H 0.64066 0.9975 0.1111 0.0
H1081 H 0.69453 0.97677 0.12494 0.0
H1082 H 0.78302 0.98635 0.09636 0.0
H1083 H 0.72939 0.00774 0.08248 0.0
H1084 H 0.7446 0.90613 0.12079 0.0
H1085 H 0.83654 0.04813 0.12542 0.0
H1086 H 0.78429 0.04817 0.12032 0.0
H1087 H 0.82418 0.032 0.11031 0.0
C1088 C 0.67169 0.99593 0.10781 0.0
C1089 C 0.68075 0.00427 0.09569 0.0
C1090 C 0.7024 0.98394 0.11572 0.0
C1091 C 0.74281 0.98051 0.11171 0.0
C1092 C 0.75214 0.98944 0.09968 0.0
H1093 H 0.96044 0.8801 0.1449 0.0
H1094 H 0.91417 0.91954 0.13219 0.0
C1095 C 0.72139 0.00121 0.09174 0.0
C1096 C 0.77445 0.96447 0.11989 0.0
H1097 H 0.86277 0.98895 0.13463 0.0
C1098 C 0.77034 0.92428 0.12386 0.0
C1099 C 0.80825 0.98809 0.12373 0.0
C1100 C 0.81367 0.03162 0.11982 0.0
C1101 C 0.79917 0.90692 0.13154 0.0
C1102 C 0.83251 0.93079 0.13566 0.0
C1103 C 0.83702 0.97086 0.13155 0.0
C1104 C 0.86261 0.91416 0.14425 0.0
C1105 C 0.79404 0.8628 0.13497 0.0
C1106 C 0.84961 0.90018 0.15553 0.0
C1107 C 0.87574 0.8775 0.16271 0.0
C1108 C 0.91564 0.86909 0.15887 0.0
C1109 C 0.92992 0.88642 0.14812 0.0
C1110 C 0.90347 0.90874 0.14083 0.0
H1111 H 0.77405 0.84608 0.12852 0.0
H1112 H 0.82392 0.84714 0.13533 0.0
H1113 H 0.77974 0.86112 0.14401 0.0
H1114 H 0.8185 0.90489 0.15847 0.0
H1115 H 0.86407 0.8647 0.171 0.0
H1116 H 0.92171 0.9201 0.83323 0.0
H1117 H 0.93162 0.98406 0.84443 0.0
H1118 H 0.80661 0.01667 0.83786 0.0
H1119 H 0.79648 0.9529 0.82651 0.0
H1120 H 0.87606 0.08162 0.83424 0.0
H1121 H 0.86889 0.00226 0.87828 0.0
H1122 H 0.90076 0.97949 0.86687 0.0
H1123 H 0.84665 0.98114 0.86469 0.0
C1124 C 0.89646 0.94107 0.83407 0.0
C1125 C 0.85825 0.93146 0.8291 0.0
C1126 C 0.90215 0.97746 0.84046 0.0
C1127 C 0.8698 0.00477 0.84191 0.0
C1128 C 0.83186 0.99581 0.83676 0.0
H1129 H 0.88458 0.18356 0.89911 0.0
H1130 H 0.85354 0.14216 0.88315 0.0
C1131 C 0.82606 0.95929 0.83042 0.0
C1132 C 0.87521 0.04149 0.84947 0.0
H1133 H 0.89067 0.07088 0.87858 0.0
C1134 C 0.87883 0.07959 0.84396 0.0
C1135 C 0.87819 0.03846 0.8621 0.0
C1136 C 0.87315 0.99823 0.8684 0.0
C1137 C 0.88704 0.11487 0.85083 0.0
C1138 C 0.89196 0.11148 0.86343 0.0
C1139 C 0.88676 0.07347 0.86892 0.0
C1140 C 0.90549 0.14581 0.87118 0.0
C1141 C 0.89066 0.15523 0.84456 0.0
C1142 C 0.94414 0.16331 0.86945 0.0
C1143 C 0.96177 0.18737 0.87851 0.0
C1144 C 0.94121 0.19349 0.88949 0.0
C1145 C 0.90118 0.17892 0.89076 0.0
C1146 C 0.88339 0.15539 0.88165 0.0
H1147 H 0.8737 0.15502 0.8359 0.0
H1148 H 0.8791 0.18047 0.85034 0.0
H1149 H 0.9232 0.16135 0.84252 0.0
H1150 H 0.96205 0.15566 0.86155 0.0
H1151 H 0.99281 0.19801 0.87735 0.0
H1152 H 0.93179 0.9753 0.48328 0.0
H1153 H 0.87582 0.97673 0.46851 0.0
H1154 H 0.79205 0.93568 0.49581 0.0
H1155 H 0.84731 0.93392 0.51047 0.0
H1156 H 0.8183 0.90361 0.46328 0.0
H1157 H 0.74256 0.04372 0.48012 0.0
H1158 H 0.79625 0.03399 0.48227 0.0
H1159 H 0.75908 0.00933 0.49162 0.0
C1160 C 0.90142 0.96644 0.48607 0.0
C1161 C 0.89395 0.954 0.49796 0.0
C1162 C 0.86959 0.9674 0.47766 0.0
C1163 C 0.82988 0.95683 0.48116 0.0
C1164 C 0.82248 0.94435 0.493 0.0
H1165 H 0.59685 0.89022 0.46881 0.0
H1166 H 0.65885 0.92733 0.47409 0.0
C1167 C 0.85416 0.94287 0.50131 0.0
C1168 C 0.79578 0.95678 0.47248 0.0
H1169 H 0.70108 0.99688 0.46873 0.0
C1170 C 0.79302 0.9246 0.46414 0.0
C1171 C 0.76313 0.98434 0.47372 0.0
C1172 C 0.76536 0.02006 0.48235 0.0
C1173 C 0.75678 0.9169 0.45779 0.0
C1174 C 0.72287 0.94288 0.45966 0.0
C1175 C 0.72703 0.97709 0.46727 0.0
C1176 C 0.68134 0.93052 0.45577 0.0
C1177 C 0.75404 0.87893 0.45002 0.0
C1178 C 0.672 0.92234 0.44362 0.0
C1179 C 0.63641 0.90083 0.44061 0.0
C1180 C 0.60962 0.88796 0.44968 0.0
C1181 C 0.61697 0.90006 0.46165 0.0
C1182 C 0.65244 0.92123 0.46467 0.0
H1183 H 0.78118 0.85914 0.45099 0.0
H1184 H 0.72654 0.86087 0.45238 0.0
H1185 H 0.75168 0.88765 0.44042 0.0
H1186 H 0.69354 0.9299 0.43659 0.0
H1187 H 0.63199 0.89104 0.43139 0.0
H1188 H 0.81272 0.12306 0.26187 0.0
H1189 H 0.83437 0.07192 0.24709 0.0
H1190 H 0.8571 0.98712 0.2757 0.0
H1191 H 0.83593 0.03865 0.29061 0.0
H1192 H 0.91869 0.98787 0.25957 0.0
H1193 H 0.77246 0.97338 0.2351 0.0
H1194 H 0.79057 0.02497 0.23576 0.0
H1195 H 0.77666 0.99943 0.24945 0.0
C1196 C 0.82166 0.09327 0.26501 0.0
C1197 C 0.822 0.08463 0.2774 0.0
C1198 C 0.83402 0.06404 0.25654 0.0
C1199 C 0.84651 0.0253 0.26024 0.0
C1200 C 0.84729 0.01669 0.27262 0.0
H1201 H 0.87777 0.82013 0.21048 0.0
H1202 H 0.85385 0.86761 0.22604 0.0
C1203 C 0.83522 0.04611 0.28113 0.0
C1204 C 0.85999 0.99438 0.25119 0.0
H1205 H 0.83075 0.94466 0.2254 0.0
C1206 C 0.89936 0.97818 0.25214 0.0
C1207 C 0.83459 0.98125 0.24159 0.0
C1208 C 0.79108 0.99533 0.24047 0.0
C1209 C 0.91435 0.94999 0.24362 0.0
C1210 C 0.88963 0.93838 0.23369 0.0
C1211 C 0.84992 0.95388 0.23291 0.0
C1212 C 0.90411 0.90994 0.22408 0.0
C1213 C 0.95629 0.93248 0.2455 0.0
C1214 C 0.93984 0.91829 0.21757 0.0
C1215 C 0.9538 0.89102 0.20873 0.0
C1216 C 0.93192 0.85508 0.20605 0.0
C1217 C 0.89538 0.84749 0.21229 0.0
C1218 C 0.88168 0.87459 0.22122 0.0
H1219 H 0.96562 0.93442 0.25511 0.0
H1220 H 0.95767 0.90013 0.24251 0.0
H1221 H 0.97876 0.95015 0.24018 0.0
H1222 H 0.95703 0.94594 0.21932 0.0
H1223 H 0.98187 0.89806 0.20404 0.0
H1224 H 0.6061 0.14353 0.99286 0.0
H1225 H 0.669 0.16439 0.98261 0.0
H1226 H 0.71985 0.20377 0.01661 0.0
H1227 H 0.65756 0.18269 0.02692 0.0
H1228 H 0.715 0.24356 0.98279 0.0
H1229 H 0.79759 0.11306 0.00287 0.0
H1230 H 0.74269 0.11608 0.00281 0.0
H1231 H 0.77178 0.14675 0.0132 0.0
C1232 C 0.6305 0.1571 0.99812 0.0
C1233 C 0.62679 0.1615 0.01069 0.0
C1234 C 0.66629 0.16915 0.99226 0.0
C1235 C 0.69907 0.18537 0.99888 0.0
C1236 C 0.69491 0.19123 0.01135 0.0
H1237 H 0.92858 0.27115 0.96581 0.0
H1238 H 0.86892 0.26744 0.97915 0.0
C1239 C 0.65912 0.17945 0.0172 0.0
C1240 C 0.73859 0.19328 0.99287 0.0
H1241 H 0.83507 0.15594 0.99005 0.0
C1242 C 0.74142 0.22472 0.98443 0.0
C1243 C 0.77287 0.16849 0.99504 0.0
C1244 C 0.77127 0.13396 0.0039 0.0
C1245 C 0.77761 0.2316 0.97796 0.0
C1246 C 0.81163 0.2063 0.97999 0.0
C1247 C 0.80896 0.17539 0.98858 0.0
C1248 C 0.84879 0.20859 0.97244 0.0
C1249 C 0.77887 0.26487 0.96868 0.0
C1250 C 0.85769 0.17633 0.96451 0.0
C1251 C 0.89153 0.17831 0.95693 0.0
C1252 C 0.91753 0.21246 0.9572 0.0
C1253 C 0.90933 0.24429 0.96545 0.0
C1254 C 0.87509 0.24241 0.97299 0.0
H1255 H 0.7483 0.27806 0.96704 0.0
H1256 H 0.79943 0.28966 0.97185 0.0
H1257 H 0.79119 0.25296 0.96002 0.0
H1258 H 0.83786 0.1499 0.964 0.0
H1259 H 0.89703 0.1532 0.95074 0.0
H1260 H 0.71121 0.936 0.76624 0.0
H1261 H 0.68831 0.99037 0.75307 0.0
H1262 H 0.8124 0.02995 0.74811 0.0
H1263 H 0.83579 0.97638 0.76166 0.0
H1264 H 0.71198 0.08294 0.75608 0.0
H1265 H 0.75627 0.00643 0.71294 0.0
H1266 H 0.74458 0.97735 0.72625 0.0
H1267 H 0.79079 0.00643 0.72558 0.0
C1268 C 0.73374 0.95666 0.76258 0.0
C1269 C 0.77545 0.95174 0.76513 0.0
C1270 C 0.72055 0.9875 0.75494 0.0
C1271 C 0.74869 0.0139 0.74954 0.0
C1272 C 0.79025 0.00957 0.7521 0.0
H1273 H 0.6743 0.20078 0.69639 0.0
H1274 H 0.71915 0.15624 0.70824 0.0
C1275 C 0.80353 0.97884 0.75983 0.0
C1276 C 0.734 0.04607 0.74134 0.0
H1277 H 0.71845 0.06703 0.71158 0.0
C1278 C 0.71393 0.07982 0.74635 0.0
C1279 C 0.73692 0.04206 0.72867 0.0
C1280 C 0.7582 0.00616 0.72294 0.0
C1281 C 0.69539 0.10895 0.73902 0.0
C1282 C 0.6961 0.10371 0.72633 0.0
C1283 C 0.71793 0.07102 0.72129 0.0
C1284 C 0.67004 0.12892 0.71842 0.0
C1285 C 0.67426 0.14465 0.74494 0.0
C1286 C 0.62773 0.12718 0.7199 0.0
C1287 C 0.60237 0.15227 0.71324 0.0
C1288 C 0.61852 0.17979 0.70481 0.0
C1289 C 0.6609 0.18014 0.70285 0.0
C1290 C 0.68652 0.15481 0.70962 0.0
H1291 H 0.68696 0.15128 0.75403 0.0
H1292 H 0.67697 0.17244 0.73937 0.0
H1293 H 0.64143 0.13735 0.74603 0.0
H1294 H 0.61423 0.10671 0.7264 0.0
H1295 H 0.56988 0.15036 0.71486 0.0
H1296 H 0.65735 0.4175 0.002 0.0
H1297 H 0.71357 0.39951 0.9885 0.0
H1298 H 0.77366 0.51306 0.99726 0.0
H1299 H 0.71842 0.53059 0.01113 0.0
H1300 H 0.74213 0.44066 0.96836 0.0
H1301 H 0.86253 0.42928 0.00328 0.0
H1302 H 0.809 0.43078 0.00697 0.0
H1303 H 0.8358 0.47688 0.0033 0.0
C1304 C 0.68278 0.43841 0.00118 0.0
C1305 C 0.68348 0.47539 0.0077 0.0
C1306 C 0.71471 0.42822 0.99339 0.0
C1307 C 0.748 0.45471 0.99201 0.0
C1308 C 0.74859 0.49187 0.99836 0.0
H1309 H 0.97146 0.4284 0.94952 0.0
H1310 H 0.91528 0.45738 0.96138 0.0
C1311 C 0.71674 0.50204 0.00617 0.0
C1312 C 0.78182 0.44358 0.98378 0.0
H1313 H 0.88366 0.42311 0.98297 0.0
C1314 C 0.77309 0.43687 0.97154 0.0
C1315 C 0.82218 0.43878 0.98797 0.0
C1316 C 0.83303 0.44393 0.00111 0.0
C1317 C 0.80368 0.42542 0.96336 0.0
C1318 C 0.8439 0.42012 0.96758 0.0
C1319 C 0.8528 0.42751 0.97977 0.0
C1320 C 0.8766 0.40412 0.95968 0.0
C1321 C 0.79274 0.41915 0.95027 0.0
C1322 C 0.87329 0.36469 0.95482 0.0
C1323 C 0.90509 0.34815 0.94807 0.0
C1324 C 0.94114 0.37057 0.9461 0.0
C1325 C 0.94411 0.4104 0.95082 0.0
C1326 C 0.91213 0.42696 0.95761 0.0
H1327 H 0.76423 0.4353 0.9479 0.0
H1328 H 0.81761 0.42991 0.94428 0.0
H1329 H 0.78789 0.38616 0.94848 0.0
H1330 H 0.8465 0.34624 0.95653 0.0
H1331 H 0.90171 0.31731 0.94464 0.0
H1332 H 0.92165 0.44851 0.28689 0.0
H1333 H 0.95052 0.50256 0.27437 0.0
H1334 H 0.86875 0.46885 0.24553 0.0
H1335 H 0.84037 0.41431 0.25785 0.0
H1336 H 0.95325 0.48189 0.23861 0.0
H1337 H 0.88854 0.60921 0.26608 0.0
H1338 H 0.91763 0.57145 0.2739 0.0
H1339 H 0.86979 0.5576 0.26718 0.0
C1340 C 0.9101 0.45242 0.27784 0.0
C1341 C 0.87857 0.42735 0.27337 0.0
C1342 C 0.9264 0.48345 0.27075 0.0
C1343 C 0.91142 0.48985 0.2591 0.0
C1344 C 0.88055 0.46442 0.25453 0.0
H1345 H 0.91627 0.64599 0.19955 0.0
H1346 H 0.91046 0.59175 0.21426 0.0
C1347 C 0.86417 0.43352 0.26161 0.0
C1348 C 0.92721 0.52339 0.25162 0.0
H1349 H 0.92452 0.62666 0.24855 0.0
C1350 C 0.9474 0.51358 0.24083 0.0
C1351 C 0.91976 0.56465 0.25463 0.0
C1352 C 0.89755 0.57663 0.26603 0.0
C1353 C 0.95922 0.54401 0.23276 0.0
C1354 C 0.94991 0.58505 0.23548 0.0
C1355 C 0.93149 0.59506 0.24652 0.0
C1356 C 0.95523 0.61743 0.22647 0.0
C1357 C 0.9809 0.53203 0.22127 0.0
C1358 C 0.98191 0.65016 0.2286 0.0
C1359 C 0.9853 0.68146 0.2202 0.0
C1360 C 0.96166 0.6807 0.20961 0.0
C1361 C 0.93492 0.64774 0.20758 0.0
C1362 C 0.93173 0.61649 0.21594 0.0
H1363 H 0.99567 0.50179 0.22204 0.0
H1364 H 0.95848 0.53022 0.21381 0.0
H1365 H 0.00441 0.55499 0.21886 0.0
H1366 H 1.00011 0.65141 0.23673 0.0
H1367 H 0.00639 0.70621 0.22204 0.0
H1368 H 0.89495 0.60019 0.50431 0.0
H1369 H 0.83675 0.61037 0.49099 0.0
H1370 H 0.78261 0.49856 0.50344 0.0
H1371 H 0.84029 0.48869 0.51708 0.0
H1372 H 0.80527 0.55934 0.47226 0.0
H1373 H 0.6926 0.58367 0.5092 0.0
H1374 H 0.74682 0.58551 0.51181 0.0
H1375 H 0.72162 0.5374 0.50958 0.0
C1376 C 0.87054 0.57789 0.5043 0.0
C1377 C 0.87217 0.54381 0.51186 0.0
C1378 C 0.83745 0.58358 0.4966 0.0
C1379 C 0.80512 0.55547 0.49631 0.0
C1380 C 0.80696 0.52092 0.50363 0.0
H1381 H 0.57376 0.61215 0.45922 0.0
H1382 H 0.62593 0.56833 0.46838 0.0
C1383 C 0.84014 0.51516 0.51134 0.0
C1384 C 0.76937 0.56322 0.48848 0.0
H1385 H 0.6696 0.59226 0.4894 0.0
C1386 C 0.77544 0.56595 0.47599 0.0
C1387 C 0.73032 0.57142 0.49334 0.0
C1388 C 0.72223 0.56967 0.50671 0.0
C1389 C 0.74404 0.5784 0.46829 0.0
C1390 C 0.70576 0.58906 0.47324 0.0
C1391 C 0.69892 0.58394 0.48562 0.0
C1392 C 0.67509 0.61181 0.46619 0.0
C1393 C 0.75249 0.58125 0.45497 0.0
C1394 C 0.68553 0.65037 0.46182 0.0
C1395 C 0.65604 0.67523 0.45675 0.0
C1396 C 0.61534 0.66215 0.45589 0.0
C1397 C 0.60502 0.62274 0.45969 0.0
C1398 C 0.63469 0.59786 0.46495 0.0
H1399 H 0.77649 0.5594 0.45213 0.0
H1400 H 0.72458 0.57522 0.44958 0.0
H1401 H 0.76359 0.61239 0.4529 0.0
H1402 H 0.71621 0.66217 0.46288 0.0
H1403 H 0.66483 0.70548 0.45389 0.0
H1404 H 0.70088 0.64454 0.74264 0.0
H1405 H 0.67494 0.59212 0.72887 0.0
H1406 H 0.7864 0.52449 0.73276 0.0
H1407 H 0.8118 0.57576 0.74705 0.0
H1408 H 0.7008 0.55507 0.70736 0.0
H1409 H 0.6991 0.44789 0.74592 0.0
H1410 H 0.70826 0.5017 0.74788 0.0
H1411 H 0.74804 0.46912 0.74229 0.0
C1412 C 0.71989 0.61851 0.74056 0.0
C1413 C 0.75794 0.61373 0.74615 0.0
C1414 C 0.70526 0.58891 0.73258 0.0
C1415 C 0.72854 0.55424 0.72999 0.0
C1416 C 0.7678 0.55084 0.73482 0.0
H1417 H 0.63563 0.35537 0.68401 0.0
H1418 H 0.67616 0.41389 0.69094 0.0
C1419 C 0.78234 0.58026 0.74291 0.0
C1420 C 0.70959 0.51988 0.72341 0.0
H1421 H 0.67364 0.42354 0.72751 0.0
C1422 C 0.69514 0.52609 0.71168 0.0
C1423 C 0.70189 0.48247 0.7292 0.0
C1424 C 0.71478 0.47482 0.74205 0.0
C1425 C 0.67222 0.49601 0.70565 0.0
C1426 C 0.66429 0.45884 0.71152 0.0
C1427 C 0.67988 0.45222 0.72308 0.0
C1428 C 0.6376 0.42707 0.70631 0.0
C1429 C 0.65525 0.50478 0.69333 0.0
C1430 C 0.60249 0.41549 0.71263 0.0
C1431 C 0.57977 0.3819 0.70884 0.0
C1432 C 0.59166 0.35943 0.6986 0.0
C1433 C 0.62571 0.37227 0.69191 0.0
C1434 C 0.64877 0.40575 0.69581 0.0
H1435 H 0.65734 0.53765 0.69112 0.0
H1436 H 0.67276 0.48742 0.68645 0.0
H1437 H 0.6229 0.49499 0.69271 0.0
H1438 H 0.5934 0.43174 0.72075 0.0
H1439 H 0.55338 0.37301 0.71408 0.0
H1440 H 0.66132 0.66028 0.07509 0.0
H1441 H 0.72598 0.68324 0.08382 0.0
H1442 H 0.68953 0.63609 0.11833 0.0
H1443 H 0.62461 0.61292 0.10965 0.0
H1444 H 0.72685 0.72113 0.11739 0.0
H1445 H 0.81632 0.59807 0.0949 0.0
H1446 H 0.78253 0.62766 0.08574 0.0
H1447 H 0.76181 0.59451 0.09695 0.0
C1448 C 0.66669 0.65552 0.0846 0.0
C1449 C 0.63781 0.63498 0.09172 0.0
C1450 C 0.70379 0.66831 0.08953 0.0
C1451 C 0.71251 0.661 0.10166 0.0
C1452 C 0.68326 0.64183 0.10891 0.0
H1453 H 0.91022 0.66065 0.14993 0.0
H1454 H 0.85749 0.64351 0.13518 0.0
C1455 C 0.64629 0.62865 0.10396 0.0
C1456 C 0.75253 0.67242 0.10678 0.0
H1457 H 0.85232 0.64353 0.10765 0.0
C1458 C 0.75441 0.70454 0.11518 0.0
C1459 C 0.78825 0.65051 0.10385 0.0
C1460 C 0.78743 0.61556 0.09492 0.0
C1461 C 0.79112 0.71494 0.12091 0.0
C1462 C 0.82673 0.69256 0.11815 0.0
C1463 C 0.825 0.66082 0.10962 0.0
C1464 C 0.8646 0.6991 0.12511 0.0
C1465 C 0.79139 0.74878 0.13022 0.0
C1466 C 0.88746 0.73505 0.12389 0.0
C1467 C 0.91795 0.74479 0.13226 0.0
C1468 C 0.92553 0.71883 0.142 0.0
C1469 C 0.9049 0.68128 0.14254 0.0
C1470 C 0.87479 0.67144 0.13413 0.0
H1471 H 0.76039 0.76073 0.13209 0.0
H1472 H 0.80477 0.73789 0.13878 0.0
H1473 H 0.81069 0.7742 0.12696 0.0
H1474 H 0.88004 0.75666 0.11693 0.0
H1475 H 0.93307 0.77409 0.13167 0.0
H1476 H 0.72889 0.35673 0.37419 0.0
H1477 H 0.70707 0.41653 0.38601 0.0
H1478 H 0.65727 0.46961 0.35388 0.0
H1479 H 0.67832 0.41008 0.34215 0.0
H1480 H 0.72725 0.49831 0.38373 0.0
H1481 H 0.56152 0.47658 0.37673 0.0
H1482 H 0.59798 0.43691 0.37359 0.0
H1483 H 0.58974 0.47693 0.36291 0.0
C1484 C 0.71296 0.38105 0.3697 0.0
C1485 C 0.70455 0.37827 0.35729 0.0
C1486 C 0.7006 0.4152 0.37645 0.0
C1487 C 0.67974 0.44721 0.37089 0.0
C1488 C 0.67215 0.4448 0.35846 0.0
H1489 H 0.57922 0.68097 0.38646 0.0
H1490 H 0.61129 0.62032 0.37793 0.0
C1491 C 0.68414 0.41066 0.35175 0.0
C1492 C 0.6663 0.48354 0.37796 0.0
H1493 H 0.58273 0.54164 0.38423 0.0
C1494 C 0.6956 0.50758 0.38397 0.0
C1495 C 0.62495 0.49552 0.37833 0.0
C1496 C 0.59168 0.46993 0.37265 0.0
C1497 C 0.68487 0.54423 0.38986 0.0
C1498 C 0.64376 0.55687 0.38982 0.0
C1499 C 0.61434 0.53213 0.38415 0.0
C1500 C 0.63037 0.59642 0.3951 0.0
C1501 C 0.71768 0.56993 0.39569 0.0
C1502 C 0.63165 0.60393 0.40759 0.0
C1503 C 0.61342 0.63896 0.41253 0.0
C1504 C 0.5933 0.66674 0.40504 0.0
C1505 C 0.59428 0.66015 0.39249 0.0
C1506 C 0.61251 0.6254 0.38759 0.0
H1507 H 0.7487 0.55966 0.39309 0.0
H1508 H 0.71421 0.60239 0.39319 0.0
H1509 H 0.71484 0.56797 0.40563 0.0
H1510 H 0.64483 0.58174 0.41357 0.0
H1511 H 0.61281 0.64285 0.42224 0.0
H1512 H 0.91433 0.38105 0.58653 0.0
H1513 H 0.87027 0.34818 0.60141 0.0
H1514 H 0.77366 0.43152 0.59283 0.0
H1515 H 0.81726 0.46402 0.57777 0.0
H1516 H 0.83191 0.38365 0.62187 0.0
H1517 H 0.71944 0.3187 0.5897 0.0
H1518 H 0.76896 0.33679 0.58502 0.0
H1519 H 0.72827 0.37223 0.58775 0.0
C1520 C 0.88342 0.39186 0.58766 0.0
C1521 C 0.86897 0.42472 0.58085 0.0
C1522 C 0.85847 0.37331 0.59624 0.0
C1523 C 0.81857 0.38705 0.5981 0.0
C1524 C 0.80416 0.42 0.59138 0.0
H1525 H 0.61111 0.35294 0.64146 0.0
H1526 H 0.66786 0.37536 0.629 0.0
C1527 C 0.82913 0.43869 0.58283 0.0
C1528 C 0.79199 0.36748 0.60718 0.0
H1529 H 0.69969 0.32079 0.61041 0.0
C1530 C 0.80323 0.36937 0.61939 0.0
C1531 C 0.75486 0.34852 0.60387 0.0
C1532 C 0.74227 0.34351 0.59086 0.0
C1533 C 0.77711 0.35477 0.62844 0.0
C1534 C 0.73916 0.33764 0.62514 0.0
C1535 C 0.72879 0.33418 0.61291 0.0
C1536 C 0.70787 0.32644 0.63415 0.0
C1537 C 0.78926 0.35937 0.64149 0.0
C1538 C 0.71206 0.29206 0.64148 0.0
C1539 C 0.67947 0.27915 0.64873 0.0
C1540 C 0.64231 0.30027 0.64857 0.0
C1541 C 0.63922 0.33579 0.64167 0.0
C1542 C 0.67161 0.34869 0.63455 0.0
H1543 H 0.81791 0.37714 0.6426 0.0
H1544 H 0.76465 0.37469 0.64667 0.0
H1545 H 0.79372 0.32878 0.64542 0.0
H1546 H 0.73975 0.27428 0.64119 0.0
H1547 H 0.68254 0.25151 0.65388 0.0
H1548 H 0.90043 0.60688 0.82714 0.0
H1549 H 0.91226 0.54787 0.83994 0.0
H1550 H 0.86047 0.61253 0.87025 0.0
H1551 H 0.84841 0.6719 0.85745 0.0
H1552 H 0.9411 0.57266 0.87382 0.0
H1553 H 0.8236 0.46877 0.85436 0.0
H1554 H 0.85636 0.49449 0.84385 0.0
H1555 H 0.82123 0.52347 0.85284 0.0
C1556 C 0.89179 0.6087 0.83655 0.0
C1557 C 0.87377 0.64427 0.8413 0.0
C1558 C 0.89817 0.57475 0.84382 0.0
C1559 C 0.88686 0.57561 0.85602 0.0
C1560 C 0.86916 0.61112 0.86084 0.0
H1561 H 0.9392 0.41546 0.91605 0.0
H1562 H 0.91006 0.46837 0.90331 0.0
C1563 C 0.8623 0.64499 0.85352 0.0
C1564 C 0.89511 0.54005 0.86383 0.0
H1565 H 0.86876 0.44058 0.86865 0.0
C1566 C 0.92508 0.54388 0.87277 0.0
C1567 C 0.87461 0.50234 0.8623 0.0
C1568 C 0.84193 0.49681 0.85288 0.0
C1569 C 0.93563 0.51088 0.88009 0.0
C1570 C 0.91455 0.47326 0.87876 0.0
C1571 C 0.8846 0.46942 0.86977 0.0
C1572 C 0.92415 0.4376 0.88647 0.0
C1573 C 0.97035 0.5163 0.88888 0.0
C1574 C 0.93866 0.40111 0.88131 0.0
C1575 C 0.9542 0.37022 0.88863 0.0
C1576 C 0.95541 0.37544 0.90121 0.0
C1577 C 0.93805 0.41052 0.90638 0.0
C1578 C 0.92203 0.44103 0.89909 0.0
H1579 H 0.99039 0.54227 0.88641 0.0
H1580 H 0.95785 0.52268 0.898 0.0
H1581 H 0.98923 0.48838 0.88932 0.0
H1582 H 0.94045 0.39762 0.87161 0.0
H1583 H 0.96834 0.34391 0.88443 0.0
H1584 H 0.31499 0.58731 0.07499 0.0
H1585 H 0.25846 0.60817 0.08808 0.0
H1586 H 0.33884 0.60809 0.11876 0.0
H1587 H 0.39568 0.58825 0.10573 0.0
H1588 H 0.22496 0.57096 0.10967 0.0
H1589 H 0.29085 0.7247 0.11803 0.0
H1590 H 0.30787 0.69193 0.10588 0.0
H1591 H 0.32502 0.68346 0.12102 0.0
C1592 C 0.32069 0.59194 0.08452 0.0
C1593 C 0.35997 0.58649 0.0893 0.0
C1594 C 0.28827 0.60349 0.09199 0.0
C1595 C 0.29459 0.61005 0.10435 0.0
C1596 C 0.33344 0.60357 0.10921 0.0
H1597 H 0.16594 0.70663 0.16493 0.0
H1598 H 0.21057 0.66836 0.15137 0.0
C1599 C 0.36583 0.59195 0.10177 0.0
C1600 C 0.26111 0.62529 0.11214 0.0
H1601 H 0.23422 0.70593 0.13001 0.0
C1602 C 0.22675 0.60054 0.11409 0.0
C1603 C 0.26343 0.66405 0.11776 0.0
C1604 C 0.29856 0.69281 0.11551 0.0
C1605 C 0.19532 0.613 0.12193 0.0
C1606 C 0.1983 0.6513 0.12781 0.0
C1607 C 0.23219 0.67637 0.12558 0.0
C1608 C 0.16759 0.66615 0.13662 0.0
C1609 C 0.15982 0.58478 0.12415 0.0
C1610 C 0.12783 0.67604 0.13301 0.0
C1611 C 0.10193 0.6976 0.14085 0.0
C1612 C 0.11587 0.70992 0.15229 0.0
C1613 C 0.15455 0.69749 0.15614 0.0
C1614 C 0.18009 0.67573 0.1484 0.0
H1615 H 0.16594 0.55336 0.12083 0.0
H1616 H 0.15249 0.58367 0.13392 0.0
H1617 H 0.13262 0.59638 0.11939 0.0
H1618 H 0.11778 0.66949 0.1239 0.0
H1619 H 0.07245 0.70737 0.13763 0.0
H1620 H 0.24878 0.59796 0.83215 0.0
H1621 H 0.2344 0.53634 0.84355 0.0
H1622 H 0.10614 0.56413 0.8431 0.0
H1623 H 0.12042 0.62682 0.83214 0.0
H1624 H 0.13297 0.54396 0.86532 0.0
H1625 H 0.18526 0.42931 0.83173 0.0
H1626 H 0.22307 0.46721 0.83529 0.0
H1627 H 0.17667 0.48194 0.82797 0.0
C1628 C 0.21754 0.59121 0.83458 0.0
C1629 C 0.18572 0.61739 0.83127 0.0
C1630 C 0.20933 0.5556 0.84091 0.0
C1631 C 0.16915 0.54525 0.84393 0.0
C1632 C 0.13734 0.57138 0.84072 0.0
H1633 H 0.06505 0.33376 0.87818 0.0
H1634 H 0.08856 0.3813 0.86282 0.0
C1635 C 0.14552 0.6071 0.83443 0.0
C1636 C 0.16049 0.50846 0.85109 0.0
H1637 H 0.17207 0.40507 0.85162 0.0
C1638 C 0.14132 0.5136 0.86229 0.0
C1639 C 0.17111 0.46884 0.84704 0.0
C1640 C 0.1898 0.46133 0.8348 0.0
C1641 C 0.13318 0.48029 0.86969 0.0
C1642 C 0.14522 0.44094 0.86586 0.0
C1643 C 0.16356 0.43548 0.85456 0.0
C1644 C 0.13806 0.40543 0.8736 0.0
C1645 C 0.11154 0.48735 0.88154 0.0
C1646 C 0.15974 0.40182 0.8844 0.0
C1647 C 0.14644 0.3748 0.89319 0.0
C1648 C 0.11125 0.35101 0.89129 0.0
C1649 C 0.09227 0.35161 0.87993 0.0
C1650 C 0.10556 0.37883 0.87115 0.0
H1651 H 0.09769 0.51812 0.88213 0.0
H1652 H 0.08721 0.4642 0.88286 0.0
H1653 H 0.13367 0.48445 0.88903 0.0
H1654 H 0.18514 0.42199 0.88636 0.0
H1655 H 0.16202 0.37469 0.90179 0.0
H1656 H 0.22454 0.55304 0.59544 0.0
H1657 H 0.2814 0.54082 0.60925 0.0
H1658 H 0.23643 0.41929 0.61549 0.0
H1659 H 0.17951 0.43127 0.60183 0.0
H1660 H 0.28423 0.5134 0.63446 0.0
H1661 H 0.3537 0.40499 0.60177 0.0
H1662 H 0.31423 0.4402 0.59759 0.0
H1663 H 0.30143 0.394 0.6053 0.0
C1664 C 0.22645 0.52393 0.5999 0.0
C1665 C 0.19783 0.49292 0.59742 0.0
C1666 C 0.25895 0.51702 0.60776 0.0
C1667 C 0.26332 0.47901 0.61325 0.0
C1668 C 0.23388 0.44864 0.61119 0.0
H1669 H 0.40295 0.37196 0.66836 0.0
H1670 H 0.35586 0.41732 0.6582 0.0
C1671 C 0.20152 0.45546 0.60334 0.0
C1672 C 0.29978 0.46989 0.62056 0.0
H1673 H 0.38071 0.40554 0.6216 0.0
C1674 C 0.30571 0.49019 0.63163 0.0
C1675 C 0.32805 0.44014 0.61672 0.0
C1676 C 0.32437 0.4188 0.60465 0.0
C1677 C 0.33837 0.48008 0.63922 0.0
C1678 C 0.36536 0.44869 0.63566 0.0
C1679 C 0.36016 0.42969 0.62436 0.0
C1680 C 0.39735 0.43225 0.64369 0.0
C1681 C 0.34349 0.50292 0.65099 0.0
C1682 C 0.4371 0.42694 0.63927 0.0
C1683 C 0.46387 0.40046 0.64498 0.0
C1684 C 0.45146 0.37911 0.65526 0.0
C1685 C 0.41356 0.3883 0.66052 0.0
C1686 C 0.3865 0.41435 0.65469 0.0
H1687 H 0.33028 0.53395 0.6505 0.0
H1688 H 0.32715 0.4863 0.6582 0.0
H1689 H 0.37608 0.50556 0.65355 0.0
H1690 H 0.44621 0.44055 0.63083 0.0
H1691 H 0.49295 0.39403 0.64075 0.0
H1692 H 0.33671 0.32682 0.36889 0.0
H1693 H 0.35405 0.37423 0.38537 0.0
H1694 H 0.40909 0.45593 0.35985 0.0
H1695 H 0.39126 0.40962 0.34339 0.0
H1696 H 0.45447 0.4429 0.38218 0.0
H1697 H 0.29171 0.48556 0.38883 0.0
H1698 H 0.30486 0.43239 0.38915 0.0
H1699 H 0.30914 0.45988 0.37533 0.0
C1700 C 0.35274 0.35478 0.36681 0.0
C1701 C 0.36254 0.36446 0.35482 0.0
C1702 C 0.36264 0.38171 0.37623 0.0
C1703 C 0.38247 0.4186 0.37376 0.0
C1704 C 0.39388 0.42747 0.36191 0.0
H1705 H 0.408 0.65826 0.39695 0.0
H1706 H 0.38546 0.59187 0.38948 0.0
C1707 C 0.38391 0.40077 0.35252 0.0
C1708 C 0.38946 0.44957 0.38328 0.0
H1709 H 0.3408 0.52466 0.39911 0.0
C1710 C 0.4297 0.46029 0.38612 0.0
C1711 C 0.35689 0.47224 0.38826 0.0
C1712 C 0.31313 0.46229 0.38525 0.0
C1713 C 0.4384 0.49442 0.39339 0.0
C1714 C 0.40585 0.51806 0.398 0.0
C1715 C 0.36555 0.50621 0.39561 0.0
C1716 C 0.41335 0.55797 0.40387 0.0
C1717 C 0.48233 0.50645 0.39542 0.0
C1718 C 0.43483 0.56092 0.41475 0.0
C1719 C 0.44802 0.59889 0.41904 0.0
C1720 C 0.43975 0.63451 0.41253 0.0
C1721 C 0.41526 0.63156 0.40216 0.0
C1722 C 0.40226 0.59359 0.39787 0.0
H1723 H 0.50357 0.48786 0.38988 0.0
H1724 H 0.48713 0.53907 0.39326 0.0
H1725 H 0.49025 0.50216 0.40503 0.0
H1726 H 0.44295 0.53374 0.41963 0.0
H1727 H 0.46629 0.60002 0.42716 0.0
H1728 H 0.29298 0.45413 0.04467 0.0
H1729 H 0.23637 0.41995 0.03399 0.0
H1730 H 0.30645 0.42099 1.00108 0.0
H1731 H 0.36261 0.45485 0.01161 0.0
H1732 H 0.19598 0.45238 0.01249 0.0
H1733 H 0.26521 0.30093 0.00441 0.0
H1734 H 0.28237 0.33534 0.0162 0.0
H1735 H 0.29861 0.34265 1.00089 0.0
C1736 C 0.29619 0.44674 0.03518 0.0
C1737 C 0.33184 0.45742 0.02891 0.0
C1738 C 0.26401 0.42729 0.02911 0.0
C1739 C 0.26759 0.41755 0.01681 0.0
C1740 C 0.30339 0.42774 0.01062 0.0
H1741 H 0.13233 0.3975 0.95415 0.0
H1742 H 0.17141 0.41461 0.97218 0.0
C1743 C 0.3352 0.44748 0.0166 0.0
C1744 C 0.23334 0.39919 0.01003 0.0
H1745 H 0.21118 0.32007 0.99093 0.0
C1746 C 0.19874 0.42301 0.008 0.0
C1747 C 0.2369 0.36072 0.0043 0.0
C1748 C 0.27261 0.3332 0.00664 0.0
C1749 C 0.16908 0.41069 0.99962 0.0
C1750 C 0.17448 0.37385 0.99312 0.0
C1751 C 0.20738 0.34852 0.99586 0.0
C1752 C 0.14921 0.36359 0.9825 0.0
C1753 C 0.13307 0.43795 0.9974 0.0
C1754 C 0.12436 0.32874 0.98229 0.0
C1755 C 0.10178 0.31883 0.97197 0.0
C1756 C 0.10435 0.34329 0.96165 0.0
C1757 C 0.12968 0.37793 0.96191 0.0
C1758 C 0.1518 0.38798 0.97224 0.0
H1759 H 0.12717 0.45844 0.00524 0.0
H1760 H 0.13946 0.45722 0.98946 0.0
H1761 H 0.10519 0.41973 0.9955 0.0
H1762 H 0.12242 0.30933 0.99011 0.0
H1763 H 0.08278 0.29177 0.97202 0.0
H1764 H 0.32786 0.58417 0.76727 0.0
H1765 H 0.34498 0.52767 0.75374 0.0
H1766 H 0.21751 0.502 0.74835 0.0
H1767 H 0.19979 0.55781 0.76226 0.0
H1768 H 0.30984 0.43764 0.75609 0.0
H1769 H 0.27858 0.51994 0.71341 0.0
H1770 H 0.29348 0.54726 0.72694 0.0
H1771 H 0.24398 0.52433 0.72601 0.0
C1772 C 0.30331 0.5661 0.76345 0.0
C1773 C 0.26235 0.57556 0.76599 0.0
C1774 C 0.31322 0.53404 0.7556 0.0
C1775 C 0.28252 0.51091 0.74998 0.0
C1776 C 0.24163 0.51977 0.75252 0.0
H1777 H 0.34594 0.31821 0.69574 0.0
H1778 H 0.30246 0.3654 0.70753 0.0
C1779 C 0.23162 0.55175 0.76046 0.0
C1780 C 0.29384 0.47735 0.74157 0.0
H1781 H 0.31052 0.45594 0.71174 0.0
C1782 C 0.30929 0.4413 0.74639 0.0
C1783 C 0.29278 0.48209 0.72892 0.0
C1784 C 0.27639 0.52043 0.7234 0.0
C1785 C 0.32534 0.41056 0.7389 0.0
C1786 C 0.32679 0.41635 0.72627 0.0
C1787 C 0.30929 0.45146 0.7214 0.0
C1788 C 0.3519 0.3894 0.71841 0.0
C1789 C 0.342 0.37262 0.74461 0.0
C1790 C 0.39397 0.38835 0.72034 0.0
C1791 C 0.41847 0.36181 0.71373 0.0
C1792 C 0.40175 0.33547 0.70491 0.0
C1793 C 0.35972 0.33782 0.70252 0.0
C1794 C 0.33491 0.36467 0.70925 0.0
H1795 H 0.32765 0.36699 0.75352 0.0
H1796 H 0.3371 0.34549 0.73872 0.0
H1797 H 0.37524 0.37647 0.74605 0.0
H1798 H 0.40793 0.40783 0.72713 0.0
H1799 H 0.45081 0.36179 0.71568 0.0
H1800 H 0.16025 0.65686 0.52417 0.0
H1801 H 0.22083 0.68278 0.51397 0.0
H1802 H 0.18389 0.62159 0.48117 0.0
H1803 H 0.12271 0.59583 0.4913 0.0
H1804 H 0.28079 0.63192 0.50358 0.0
H1805 H 0.2159 0.73754 0.47002 0.0
H1806 H 0.18785 0.72079 0.48309 0.0
H1807 H 0.19278 0.6878 0.47015 0.0
C1808 C 0.16435 0.64981 0.51469 0.0
C1809 C 0.13643 0.62453 0.50851 0.0
C1810 C 0.19919 0.66442 0.50891 0.0
C1811 C 0.20664 0.65448 0.49679 0.0
C1812 C 0.17836 0.63017 0.49048 0.0
H1813 H 0.40503 0.68448 0.44654 0.0
H1814 H 0.3411 0.66942 0.45691 0.0
C1815 C 0.14358 0.61527 0.49629 0.0
C1816 C 0.24555 0.66679 0.49106 0.0
H1817 H 0.2858 0.72062 0.4677 0.0
C1818 C 0.28199 0.6516 0.4958 0.0
C1819 C 0.24692 0.69237 0.4809 0.0
C1820 C 0.20884 0.71093 0.47577 0.0
C1821 C 0.31975 0.66035 0.49044 0.0
C1822 C 0.32115 0.68567 0.48021 0.0
C1823 C 0.28469 0.70117 0.47554 0.0
C1824 C 0.36002 0.69546 0.47401 0.0
C1825 C 0.35761 0.64121 0.49556 0.0
C1826 C 0.3918 0.71555 0.48014 0.0
C1827 C 0.42865 0.72377 0.47428 0.0
C1828 C 0.43416 0.71261 0.46211 0.0
C1829 C 0.40192 0.69328 0.45593 0.0
C1830 C 0.36528 0.68476 0.46183 0.0
H1831 H 0.35023 0.61464 0.50129 0.0
H1832 H 0.37851 0.63107 0.48825 0.0
H1833 H 0.37391 0.66401 0.50123 0.0
H1834 H 0.38802 0.72511 0.48944 0.0
H1835 H 0.45255 0.73946 0.47922 0.0
H1836 H 0.21698 0.40471 0.24418 0.0
H1837 H 0.19771 0.45878 0.23031 0.0
H1838 H 0.20005 0.54603 0.25962 0.0
H1839 H 0.21978 0.49233 0.27352 0.0
H1840 H 0.12941 0.54953 0.24542 0.0
H1841 H 0.26933 0.5518 0.21725 0.0
H1842 H 0.24599 0.50252 0.21879 0.0
H1843 H 0.26734 0.52768 0.23179 0.0
C1844 C 0.214 0.43551 0.24765 0.0
C1845 C 0.21999 0.44416 0.25997 0.0
C1846 C 0.20295 0.46637 0.23971 0.0
C1847 C 0.1979 0.5065 0.24391 0.0
C1848 C 0.20383 0.51526 0.25619 0.0
H1849 H 0.173 0.72803 0.20226 0.0
H1850 H 0.19729 0.67247 0.21492 0.0
C1851 C 0.21491 0.48447 0.26413 0.0
C1852 C 0.18507 0.53918 0.23561 0.0
H1853 H 0.21373 0.59145 0.21051 0.0
C1854 C 0.14785 0.55879 0.2378 0.0
C1855 C 0.2094 0.55143 0.22575 0.0
C1856 C 0.25043 0.53257 0.22327 0.0
C1857 C 0.13404 0.59003 0.23032 0.0
C1858 C 0.15789 0.6016 0.22026 0.0
C1859 C 0.19538 0.58234 0.21816 0.0
C1860 C 0.14455 0.63392 0.2119 0.0
C1861 C 0.09433 0.61079 0.2334 0.0
C1862 C 0.10756 0.63008 0.20568 0.0
C1863 C 0.09356 0.66173 0.1985 0.0
C1864 C 0.11651 0.6978 0.19727 0.0
C1865 C 0.15457 0.70074 0.20302 0.0
C1866 C 0.16845 0.66905 0.21028 0.0
H1867 H 0.0859 0.60653 0.243 0.0
H1868 H 0.09595 0.64394 0.23158 0.0
H1869 H 0.06961 0.59739 0.22779 0.0
H1870 H 0.08912 0.60283 0.20654 0.0
H1871 H 0.06427 0.6582 0.19413 0.0
loop_
_geom_bond_atom_site_label_1
_geom_bond_atom_site_label_2
_geom_bond_distance
_geom_bond_site_symmetry_2
_ccdc_geom_bond_type
H0 O26 0.856 . S
H1 O29 0.854 . S
H2 C37 0.930 . S
H3 C38 0.930 . S
H4 C40 0.930 1_565 S
H5 C41 0.930 1_565 S
H6 C43 0.939 . S
H7 C44 0.930 . S
H8 C46 0.930 . S
H9 C47 0.929 . S
H10 C49 0.930 . S
H11 C50 0.931 . S
H12 C52 0.930 . S
H13 C53 0.929 1_565 S
H14 C55 0.931 . S
H15 C56 0.930 . S
H16 C58 0.930 . S
H17 C59 0.932 . S
H18 C61 0.930 1_545 S
H19 C62 0.929 . S
H20 C64 0.931 . S
H21 C65 0.930 . S
H22 C67 0.929 . S
H23 C68 0.931 1_545 S
H24 C70 0.930 . S
H25 C71 0.929 . S
O26 H0 0.856 . S
O26 C72 1.300 . S
O27 C72 1.209 . S
O28 C73 1.199 . S
O29 H1 0.854 . S
O29 C73 1.297 . S
C30 C31 1.404 1_455 S
C30 C35 1.397 . S
C30 C36 1.492 . S
C31 C30 1.404 1_655 S
C31 C32 1.396 . S
C31 C42 1.492 1_655 S
C32 C31 1.396 . S
C32 C33 1.397 . S
C32 C48 1.509 . S
C33 C32 1.397 . S
C33 C34 1.412 1_545 S
C33 C54 1.484 1_545 S
C34 C33 1.412 1_565 S
C34 C35 1.388 1_665 S
C34 C60 1.490 . S
C35 C30 1.397 . S
C35 C34 1.388 1_445 S
C35 C66 1.519 1_545 S
C36 C30 1.492 . S
C36 C37 1.363 . S
C36 C41 1.390 . S
C37 H2 0.930 . S
C37 C36 1.363 . S
C37 C38 1.372 . S
C38 H3 0.930 . S
C38 C37 1.372 . S
C38 C39 1.383 . S
C39 C38 1.383 . S
C39 C40 1.395 . S
C40 H4 0.930 1_545 S
C40 C39 1.395 . S
C40 C41 1.362 . S
C41 H5 0.930 1_545 S
C41 C36 1.390 . S
C41 C40 1.362 . S
C42 C31 1.492 1_455 S
C42 C43 1.374 1_455 S
C42 C47 1.397 . S
C43 H6 0.939 . S
C43 C42 1.374 1_655 S
C43 C44 1.371 1_655 S
C44 H7 0.930 . S
C44 C43 1.371 1_455 S
C44 C45 1.376 . S
C45 C44 1.376 . S
C45 C46 1.378 . S
C45 C72 1.486 . S
C46 H8 0.930 . S
C46 C45 1.378 . S
C46 C47 1.376 . S
C47 H9 0.929 . S
C47 C42 1.397 . S
C47 C46 1.376 . S
C48 C32 1.509 . S
C48 C49 1.391 . S
C48 C53 1.386 . S
C49 H10 0.930 . S
C49 C48 1.391 . S
C49 C50 1.375 . S
C50 H11 0.931 . S
C50 C49 1.375 . S
C50 C51 1.375 . S
C51 C50 1.375 . S
C51 C52 1.361 . S
C52 H12 0.930 . S
C52 C51 1.361 . S
C52 C53 1.399 . S
C53 H13 0.929 1_545 S
C53 C48 1.386 . S
C53 C52 1.399 . S
C54 C33 1.484 1_565 S
C54 C55 1.391 1_565 S
C54 C59 1.364 . S
C55 H14 0.931 . S
C55 C54 1.391 1_545 S
C55 C56 1.372 . S
C56 H15 0.930 . S
C56 C55 1.372 . S
C56 C57 1.397 1_545 S
C57 C56 1.397 1_565 S
C57 C58 1.390 . S
C57 C73 1.476 . S
C58 H16 0.930 . S
C58 C57 1.390 . S
C58 C59 1.366 . S
C59 H17 0.932 . S
C59 C54 1.364 . S
C59 C58 1.366 . S
C60 C34 1.490 . S
C60 C61 1.380 . S
C60 C65 1.386 . S
C61 H18 0.930 1_565 S
C61 C60 1.380 . S
C61 C62 1.381 . S
C62 H19 0.929 . S
C62 C61 1.381 . S
C62 C63 1.371 . S
C63 C62 1.371 . S
C63 C64 1.380 . S
C64 H20 0.931 . S
C64 C63 1.380 . S
C64 C65 1.387 . S
C65 H21 0.930 . S
C65 C60 1.386 . S
C65 C64 1.387 . S
C66 C35 1.519 1_565 S
C66 C67 1.377 1_565 S
C66 C71 1.361 . S
C67 H22 0.929 . S
C67 C66 1.377 1_545 S
C67 C68 1.386 1_545 S
C68 H23 0.931 1_565 S
C68 C67 1.386 1_565 S
C68 C69 1.363 . S
C69 C68 1.363 . S
C69 C70 1.385 . S
C70 H24 0.930 . S
C70 C69 1.385 . S
C70 C71 1.396 . S
C71 H25 0.929 . S
C71 C66 1.361 . S
C71 C70 1.396 . S
C72 O26 1.300 . S
C72 O27 1.209 . S
C72 C45 1.486 . S
C73 O28 1.199 . S
C73 O29 1.297 . S
C73 C57 1.476 . S
H74 O100 0.856 . S
H75 O103 0.854 . S
H76 C111 0.930 . S
H77 C112 0.930 . S
H78 C114 0.930 . S
H79 C115 0.930 . S
H80 C117 0.931 . S
H81 C118 0.930 . S
H82 C120 0.930 . S
H83 C121 0.929 . S
H84 C123 0.930 . S
H85 C124 0.931 . S
H86 C126 0.930 . S
H87 C127 0.929 . S
H88 C129 0.931 . S
H89 C130 0.930 . S
H90 C132 0.930 . S
H91 C133 0.932 . S
H92 C135 0.930 . S
H93 C136 0.929 . S
H94 C138 0.931 . S
H95 C139 0.930 . S
H96 C141 0.929 . S
H97 C142 0.931 . S
H98 C144 0.930 . S
H99 C145 0.929 . S
O100 H74 0.856 . S
O100 C146 1.300 . S
O101 C146 1.209 . S
O102 C147 1.199 . S
O103 H75 0.854 . S
O103 C147 1.297 . S
C104 C105 1.404 . S
C104 C109 1.397 . S
C104 C110 1.492 . S
C105 C104 1.404 . S
C105 C106 1.396 . S
C105 C116 1.492 . S
C106 C105 1.396 . S
C106 C107 1.397 . S
C106 C122 1.509 . S
C107 C106 1.397 . S
C107 C108 1.412 . S
C107 C128 1.485 . S
C108 C107 1.412 . S
C108 C109 1.388 . S
C108 C134 1.490 . S
C109 C104 1.397 . S
C109 C108 1.388 . S
C109 C140 1.519 . S
C110 C104 1.492 . S
C110 C111 1.363 . S
C110 C115 1.390 . S
C111 H76 0.930 . S
C111 C110 1.363 . S
C111 C112 1.372 . S
C112 H77 0.930 . S
C112 C111 1.372 . S
C112 C113 1.383 . S
C113 C112 1.383 . S
C113 C114 1.395 . S
C114 H78 0.930 . S
C114 C113 1.395 . S
C114 C115 1.362 . S
C115 H79 0.930 . S
C115 C110 1.390 . S
C115 C114 1.362 . S
C116 C105 1.492 . S
C116 C117 1.377 . S
C116 C121 1.397 . S
C117 H80 0.931 . S
C117 C116 1.377 . S
C117 C118 1.376 . S
C118 H81 0.930 . S
C118 C117 1.376 . S
C118 C119 1.376 . S
C119 C118 1.376 . S
C119 C120 1.378 . S
C119 C146 1.486 . S
C120 H82 0.930 . S
C120 C119 1.378 . S
C120 C121 1.376 . S
C121 H83 0.929 . S
C121 C116 1.397 . S
C121 C120 1.376 . S
C122 C106 1.509 . S
C122 C123 1.391 . S
C122 C127 1.386 . S
C123 H84 0.930 . S
C123 C122 1.391 . S
C123 C124 1.375 . S
C124 H85 0.931 . S
C124 C123 1.375 . S
C124 C125 1.375 . S
C125 C124 1.375 . S
C125 C126 1.361 . S
C126 H86 0.930 . S
C126 C125 1.361 . S
C126 C127 1.399 . S
C127 H87 0.929 . S
C127 C122 1.386 . S
C127 C126 1.399 . S
C128 C107 1.485 . S
C128 C129 1.394 . S
C128 C133 1.360 . S
C129 H88 0.931 . S
C129 C128 1.394 . S
C129 C130 1.372 . S
C130 H89 0.930 . S
C130 C129 1.372 . S
C130 C131 1.397 . S
C131 C130 1.397 . S
C131 C132 1.390 . S
C131 C147 1.476 1_565 S
C132 H90 0.930 . S
C132 C131 1.390 . S
C132 C133 1.366 . S
C133 H91 0.932 . S
C133 C128 1.360 . S
C133 C132 1.366 . S
C134 C108 1.490 . S
C134 C135 1.380 . S
C134 C139 1.386 . S
C135 H92 0.930 . S
C135 C134 1.380 . S
C135 C136 1.381 . S
C136 H93 0.929 . S
C136 C135 1.381 . S
C136 C137 1.371 . S
C137 C136 1.371 . S
C137 C138 1.380 . S
C138 H94 0.931 . S
C138 C137 1.380 . S
C138 C139 1.387 . S
C139 H95 0.930 . S
C139 C134 1.386 . S
C139 C138 1.387 . S
C140 C109 1.519 . S
C140 C141 1.377 . S
C140 C145 1.361 . S
C141 H96 0.929 . S
C141 C140 1.377 . S
C141 C142 1.386 . S
C142 H97 0.931 . S
C142 C141 1.386 . S
C142 C143 1.363 . S
C143 C142 1.363 . S
C143 C144 1.385 . S
C144 H98 0.930 . S
C144 C143 1.385 . S
C144 C145 1.396 . S
C145 H99 0.929 . S
C145 C140 1.361 . S
C145 C144 1.396 . S
C146 O100 1.300 . S
C146 O101 1.209 . S
C146 C119 1.486 . S
C147 O102 1.199 . S
C147 O103 1.297 . S
C147 C131 1.476 1_545 S
H148 O174 0.856 . S
H149 O177 0.854 . S
H150 C185 0.930 . S
H151 C186 0.930 . S
H152 C188 0.930 . S
H153 C189 0.930 . S
H154 C191 0.931 . S
H155 C192 0.930 . S
H156 C194 0.930 1_545 S
H157 C195 0.929 . S
H158 C197 0.930 . S
H159 C198 0.931 . S
H160 C200 0.930 . S
H161 C201 0.929 . S
H162 C203 0.931 . S
H163 C204 0.930 . S
H164 C206 0.930 . S
H165 C207 0.932 . S
H166 C209 0.930 . S
H167 C210 0.929 . S
H168 C212 0.931 . S
H169 C213 0.930 . S
H170 C215 0.929 . S
H171 C216 0.931 . S
H172 C218 0.930 . S
H173 C219 0.929 . S
O174 H148 0.856 . S
O174 C220 1.300 . S
O175 C220 1.209 . S
O176 C221 1.199 . S
O177 H149 0.854 . S
O177 C221 1.297 . S
C178 C179 1.404 . S
C178 C183 1.397 . S
C178 C184 1.492 . S
C179 C178 1.404 . S
C179 C180 1.396 . S
C179 C190 1.492 1_545 S
C180 C179 1.396 . S
C180 C181 1.397 . S
C180 C196 1.513 . S
C181 C180 1.397 . S
C181 C182 1.412 . S
C181 C202 1.485 . S
C182 C181 1.412 . S
C182 C183 1.388 . S
C182 C208 1.490 . S
C183 C178 1.397 . S
C183 C182 1.388 . S
C183 C214 1.519 . S
C184 C178 1.492 . S
C184 C185 1.363 1_545 S
C184 C189 1.390 . S
C185 H150 0.930 . S
C185 C184 1.363 1_565 S
C185 C186 1.372 . S
C186 H151 0.930 . S
C186 C185 1.372 . S
C186 C187 1.383 . S
C187 C186 1.383 . S
C187 C188 1.395 1_565 S
C188 H152 0.930 . S
C188 C187 1.395 1_545 S
C188 C189 1.362 . S
C189 H153 0.930 . S
C189 C184 1.390 . S
C189 C188 1.362 . S
C190 C179 1.492 1_565 S
C190 C191 1.377 . S
C190 C195 1.397 1_565 S
C191 H154 0.931 . S
C191 C190 1.377 . S
C191 C192 1.376 . S
C192 H155 0.930 . S
C192 C191 1.376 . S
C192 C193 1.376 . S
C193 C192 1.376 . S
C193 C194 1.378 . S
C193 C220 1.486 . S
C194 H156 0.930 1_565 S
C194 C193 1.378 . S
C194 C195 1.376 1_565 S
C195 H157 0.929 . S
C195 C190 1.397 1_545 S
C195 C194 1.376 1_545 S
C196 C180 1.513 . S
C196 C197 1.379 1_545 S
C196 C201 1.394 . S
C197 H158 0.930 . S
C197 C196 1.379 1_565 S
C197 C198 1.375 . S
C198 H159 0.931 . S
C198 C197 1.375 . S
C198 C199 1.375 . S
C199 C198 1.375 . S
C199 C200 1.361 1_565 S
C200 H160 0.930 . S
C200 C199 1.361 1_545 S
C200 C201 1.399 . S
C201 H161 0.929 . S
C201 C196 1.394 . S
C201 C200 1.399 . S
C202 C181 1.485 . S
C202 C203 1.394 . S
C202 C207 1.360 . S
C203 H162 0.931 . S
C203 C202 1.394 . S
C203 C204 1.372 . S
C204 H163 0.930 . S
C204 C203 1.372 . S
C204 C205 1.397 . S
C205 C204 1.397 . S
C205 C206 1.390 . S
C205 C221 1.476 . S
C206 H164 0.930 . S
C206 C205 1.390 . S
C206 C207 1.366 . S
C207 H165 0.932 . S
C207 C202 1.360 . S
C207 C206 1.366 . S
C208 C182 1.490 . S
C208 C209 1.380 . S
C208 C213 1.386 . S
C209 H166 0.930 . S
C209 C208 1.380 . S
C209 C210 1.381 . S
C210 H167 0.929 . S
C210 C209 1.381 . S
C210 C211 1.371 . S
C211 C210 1.371 . S
C211 C212 1.380 . S
C212 H168 0.931 . S
C212 C211 1.380 . S
C212 C213 1.387 . S
C213 H169 0.930 . S
C213 C208 1.386 . S
C213 C212 1.387 . S
C214 C183 1.519 . S
C214 C215 1.377 . S
C214 C219 1.361 . S
C215 H170 0.929 . S
C215 C214 1.377 . S
C215 C216 1.386 . S
C216 H171 0.931 . S
C216 C215 1.386 . S
C216 C217 1.363 . S
C217 C216 1.363 . S
C217 C218 1.385 . S
C218 H172 0.930 . S
C218 C217 1.385 . S
C218 C219 1.396 . S
C219 H173 0.929 . S
C219 C214 1.361 . S
C219 C218 1.396 . S
C220 O174 1.300 . S
C220 O175 1.209 . S
C220 C193 1.486 . S
C221 O176 1.199 . S
C221 O177 1.297 . S
C221 C205 1.476 . S
H222 O248 0.856 . S
H223 O251 0.854 . S
H224 C259 0.930 . S
H225 C260 0.930 . S
H226 C262 0.930 . S
H227 C263 0.930 . S
H228 C265 0.931 . S
H229 C266 0.930 . S
H230 C268 0.930 . S
H231 C269 0.929 . S
H232 C271 0.930 . S
H233 C272 0.931 . S
H234 C274 0.930 . S
H235 C275 0.929 . S
H236 C277 0.931 . S
H237 C278 0.930 . S
H238 C280 0.930 . S
H239 C281 0.932 . S
H240 C283 0.930 . S
H241 C284 0.929 . S
H242 C286 0.931 . S
H243 C287 0.930 . S
H244 C289 0.929 . S
H245 C290 0.931 . S
H246 C292 0.930 . S
H247 C293 0.929 . S
O248 H222 0.856 . S
O248 C294 1.300 . S
O249 C294 1.209 . S
O250 C295 1.199 . S
O251 H223 0.854 . S
O251 C295 1.297 . S
C252 C253 1.404 . S
C252 C257 1.397 . S
C252 C258 1.492 . S
C253 C252 1.404 . S
C253 C254 1.396 . S
C253 C264 1.492 . S
C254 C253 1.396 . S
C254 C255 1.397 . S
C254 C270 1.509 . S
C255 C254 1.397 . S
C255 C256 1.412 . S
C255 C276 1.485 . S
C256 C255 1.412 . S
C256 C257 1.388 . S
C256 C282 1.490 . S
C257 C252 1.397 . S
C257 C256 1.388 . S
C257 C288 1.519 . S
C258 C252 1.492 . S
C258 C259 1.363 . S
C258 C263 1.390 . S
C259 H224 0.930 . S
C259 C258 1.363 . S
C259 C260 1.372 . S
C260 H225 0.930 . S
C260 C259 1.372 . S
C260 C261 1.383 . S
C261 C260 1.383 . S
C261 C262 1.395 . S
C262 H226 0.930 . S
C262 C261 1.395 . S
C262 C263 1.362 . S
C263 H227 0.930 . S
C263 C258 1.390 . S
C263 C262 1.362 . S
C264 C253 1.492 . S
C264 C265 1.377 . S
C264 C269 1.397 . S
C265 H228 0.931 . S
C265 C264 1.377 . S
C265 C266 1.376 . S
C266 H229 0.930 . S
C266 C265 1.376 . S
C266 C267 1.376 . S
C267 C266 1.376 . S
C267 C268 1.378 . S
C267 C294 1.486 . S
C268 H230 0.930 . S
C268 C267 1.378 . S
C268 C269 1.376 . S
C269 H231 0.929 . S
C269 C264 1.397 . S
C269 C268 1.376 . S
C270 C254 1.509 . S
C270 C271 1.391 . S
C270 C275 1.386 . S
C271 H232 0.930 . S
C271 C270 1.391 . S
C271 C272 1.375 . S
C272 H233 0.931 . S
C272 C271 1.375 . S
C272 C273 1.375 . S
C273 C272 1.375 . S
C273 C274 1.361 . S
C274 H234 0.930 . S
C274 C273 1.361 . S
C274 C275 1.399 . S
C275 H235 0.929 . S
C275 C270 1.386 . S
C275 C274 1.399 . S
C276 C255 1.485 . S
C276 C277 1.394 . S
C276 C281 1.360 . S
C277 H236 0.931 . S
C277 C276 1.394 . S
C277 C278 1.372 . S
C278 H237 0.930 . S
C278 C277 1.372 . S
C278 C279 1.397 . S
C279 C278 1.397 . S
C279 C280 1.390 . S
C279 C295 1.476 . S
C280 H238 0.930 . S
C280 C279 1.390 . S
C280 C281 1.366 . S
C281 H239 0.932 . S
C281 C276 1.360 . S
C281 C280 1.366 . S
C282 C256 1.490 . S
C282 C283 1.380 . S
C282 C287 1.386 . S
C283 H240 0.930 . S
C283 C282 1.380 . S
C283 C284 1.381 . S
C284 H241 0.929 . S
C284 C283 1.381 . S
C284 C285 1.371 . S
C285 C284 1.371 . S
C285 C286 1.380 . S
C286 H242 0.931 . S
C286 C285 1.380 . S
C286 C287 1.387 . S
C287 H243 0.930 . S
C287 C282 1.386 . S
C287 C286 1.387 . S
C288 C257 1.519 . S
C288 C289 1.377 . S
C288 C293 1.361 . S
C289 H244 0.929 . S
C289 C288 1.377 . S
C289 C290 1.386 . S
C290 H245 0.931 . S
C290 C289 1.386 . S
C290 C291 1.363 . S
C291 C290 1.363 . S
C291 C292 1.385 . S
C292 H246 0.930 . S
C292 C291 1.385 . S
C292 C293 1.396 . S
C293 H247 0.929 . S
C293 C288 1.361 . S
C293 C292 1.396 . S
C294 O248 1.300 . S
C294 O249 1.209 . S
C294 C267 1.486 . S
C295 O250 1.199 . S
C295 O251 1.297 . S
C295 C279 1.476 . S
H296 O322 0.856 . S
H297 O325 0.854 . S
H298 C333 0.930 . S
H299 C334 0.930 . S
H300 C336 0.930 . S
H301 C337 0.930 . S
H302 C339 0.931 . S
H303 C340 0.930 . S
H304 C342 0.930 . S
H305 C343 0.929 . S
H306 C345 0.930 . S
H307 C346 0.931 . S
H308 C348 0.930 . S
H309 C349 0.929 . S
H310 C351 0.931 . S
H311 C352 0.930 . S
H312 C354 0.930 . S
H313 C355 0.932 . S
H314 C357 0.930 . S
H315 C358 0.929 . S
H316 C360 0.931 . S
H317 C361 0.930 . S
H318 C363 0.929 . S
H319 C364 0.931 . S
H320 C366 0.930 . S
H321 C367 0.929 . S
O322 H296 0.856 . S
O322 C368 1.300 . S
O323 C368 1.209 . S
O324 C369 1.199 . S
O325 H297 0.854 . S
O325 C369 1.297 . S
C326 C327 1.404 . S
C326 C331 1.397 . S
C326 C332 1.492 . S
C327 C326 1.404 . S
C327 C328 1.396 . S
C327 C338 1.492 . S
C328 C327 1.396 . S
C328 C329 1.397 . S
C328 C344 1.509 . S
C329 C328 1.397 . S
C329 C330 1.412 . S
C329 C350 1.485 . S
C330 C329 1.412 . S
C330 C331 1.388 . S
C330 C356 1.490 . S
C331 C326 1.397 . S
C331 C330 1.388 . S
C331 C362 1.519 . S
C332 C326 1.492 . S
C332 C333 1.363 . S
C332 C337 1.390 . S
C333 H298 0.930 . S
C333 C332 1.363 . S
C333 C334 1.372 . S
C334 H299 0.930 . S
C334 C333 1.372 . S
C334 C335 1.383 . S
C335 C334 1.383 . S
C335 C336 1.395 . S
C336 H300 0.930 . S
C336 C335 1.395 . S
C336 C337 1.362 . S
C337 H301 0.930 . S
C337 C332 1.390 . S
C337 C336 1.362 . S
C338 C327 1.492 . S
C338 C339 1.377 . S
C338 C343 1.397 . S
C339 H302 0.931 . S
C339 C338 1.377 . S
C339 C340 1.376 . S
C340 H303 0.930 . S
C340 C339 1.376 . S
C340 C341 1.376 . S
C341 C340 1.376 . S
C341 C342 1.378 . S
C341 C368 1.486 . S
C342 H304 0.930 . S
C342 C341 1.378 . S
C342 C343 1.376 . S
C343 H305 0.929 . S
C343 C338 1.397 . S
C343 C342 1.376 . S
C344 C328 1.509 . S
C344 C345 1.391 . S
C344 C349 1.386 . S
C345 H306 0.930 . S
C345 C344 1.391 . S
C345 C346 1.375 . S
C346 H307 0.931 . S
C346 C345 1.375 . S
C346 C347 1.375 . S
C347 C346 1.375 . S
C347 C348 1.361 . S
C348 H308 0.930 . S
C348 C347 1.361 . S
C348 C349 1.399 . S
C349 H309 0.929 . S
C349 C344 1.386 . S
C349 C348 1.399 . S
C350 C329 1.485 . S
C350 C351 1.394 . S
C350 C355 1.360 . S
C351 H310 0.931 . S
C351 C350 1.394 . S
C351 C352 1.372 . S
C352 H311 0.930 . S
C352 C351 1.372 . S
C352 C353 1.397 . S
C353 C352 1.397 . S
C353 C354 1.390 . S
C353 C369 1.476 . S
C354 H312 0.930 . S
C354 C353 1.390 . S
C354 C355 1.366 . S
C355 H313 0.932 . S
C355 C350 1.360 . S
C355 C354 1.366 . S
C356 C330 1.490 . S
C356 C357 1.380 . S
C356 C361 1.386 . S
C357 H314 0.930 . S
C357 C356 1.380 . S
C357 C358 1.381 . S
C358 H315 0.929 . S
C358 C357 1.381 . S
C358 C359 1.371 . S
C359 C358 1.371 . S
C359 C360 1.380 . S
C360 H316 0.931 . S
C360 C359 1.380 . S
C360 C361 1.387 . S
C361 H317 0.930 . S
C361 C356 1.386 . S
C361 C360 1.387 . S
C362 C331 1.519 . S
C362 C363 1.377 . S
C362 C367 1.361 . S
C363 H318 0.929 . S
C363 C362 1.377 . S
C363 C364 1.386 . S
C364 H319 0.931 . S
C364 C363 1.386 . S
C364 C365 1.363 . S
C365 C364 1.363 . S
C365 C366 1.385 . S
C366 H320 0.930 . S
C366 C365 1.385 . S
C366 C367 1.396 . S
C367 H321 0.929 . S
C367 C362 1.361 . S
C367 C366 1.396 . S
C368 O322 1.300 . S
C368 O323 1.209 . S
C368 C341 1.486 . S
C369 O324 1.199 . S
C369 O325 1.297 . S
C369 C353 1.476 . S
H370 O396 0.856 . S
H371 O399 0.854 . S
H372 C407 0.930 . S
H373 C408 0.930 . S
H374 C410 0.930 . S
H375 C411 0.930 . S
H376 C413 0.931 . S
H377 C414 0.930 . S
H378 C416 0.930 . S
H379 C417 0.929 . S
H380 C419 0.930 . S
H381 C420 0.931 . S
H382 C422 0.930 . S
H383 C423 0.929 . S
H384 C425 0.931 . S
H385 C426 0.930 . S
H386 C428 0.930 . S
H387 C429 0.932 . S
H388 C431 0.930 . S
H389 C432 0.929 . S
H390 C434 0.931 . S
H391 C435 0.930 . S
H392 C437 0.929 . S
H393 C438 0.931 . S
H394 C440 0.930 . S
H395 C441 0.929 . S
O396 H370 0.856 . S
O396 C442 1.300 . S
O397 C442 1.209 . S
O398 C443 1.199 . S
O399 H371 0.854 . S
O399 C443 1.297 . S
C400 C401 1.404 . S
C400 C405 1.397 . S
C400 C406 1.492 . S
C401 C400 1.404 . S
C401 C402 1.396 . S
C401 C412 1.492 . S
C402 C401 1.396 . S
C402 C403 1.397 . S
C402 C418 1.509 . S
C403 C402 1.397 . S
C403 C404 1.412 . S
C403 C424 1.485 . S
C404 C403 1.412 . S
C404 C405 1.388 . S
C404 C430 1.490 . S
C405 C400 1.397 . S
C405 C404 1.388 . S
C405 C436 1.519 . S
C406 C400 1.492 . S
C406 C407 1.363 . S
C406 C411 1.390 . S
C407 H372 0.930 . S
C407 C406 1.363 . S
C407 C408 1.372 . S
C408 H373 0.930 . S
C408 C407 1.372 . S
C408 C409 1.383 . S
C409 C408 1.383 . S
C409 C410 1.395 . S
C410 H374 0.930 . S
C410 C409 1.395 . S
C410 C411 1.362 . S
C411 H375 0.930 . S
C411 C406 1.390 . S
C411 C410 1.362 . S
C412 C401 1.492 . S
C412 C413 1.377 . S
C412 C417 1.397 . S
C413 H376 0.931 . S
C413 C412 1.377 . S
C413 C414 1.376 . S
C414 H377 0.930 . S
C414 C413 1.376 . S
C414 C415 1.376 . S
C415 C414 1.376 . S
C415 C416 1.378 . S
C415 C442 1.486 . S
C416 H378 0.930 . S
C416 C415 1.378 . S
C416 C417 1.376 . S
C417 H379 0.929 . S
C417 C412 1.397 . S
C417 C416 1.376 . S
C418 C402 1.509 . S
C418 C419 1.391 . S
C418 C423 1.386 . S
C419 H380 0.930 . S
C419 C418 1.391 . S
C419 C420 1.375 . S
C420 H381 0.931 . S
C420 C419 1.375 . S
C420 C421 1.375 . S
C421 C420 1.375 . S
C421 C422 1.361 . S
C422 H382 0.930 . S
C422 C421 1.361 . S
C422 C423 1.399 . S
C423 H383 0.929 . S
C423 C418 1.386 . S
C423 C422 1.399 . S
C424 C403 1.485 . S
C424 C425 1.394 . S
C424 C429 1.360 . S
C425 H384 0.931 . S
C425 C424 1.394 . S
C425 C426 1.372 . S
C426 H385 0.930 . S
C426 C425 1.372 . S
C426 C427 1.397 . S
C427 C426 1.397 . S
C427 C428 1.390 . S
C427 C443 1.476 . S
C428 H386 0.930 . S
C428 C427 1.390 . S
C428 C429 1.366 . S
C429 H387 0.932 . S
C429 C424 1.360 . S
C429 C428 1.366 . S
C430 C404 1.490 . S
C430 C431 1.380 . S
C430 C435 1.386 . S
C431 H388 0.930 . S
C431 C430 1.380 . S
C431 C432 1.381 . S
C432 H389 0.929 . S
C432 C431 1.381 . S
C432 C433 1.371 . S
C433 C432 1.371 . S
C433 C434 1.380 . S
C434 H390 0.931 . S
C434 C433 1.380 . S
C434 C435 1.387 . S
C435 H391 0.930 . S
C435 C430 1.386 . S
C435 C434 1.387 . S
C436 C405 1.519 . S
C436 C437 1.377 . S
C436 C441 1.361 . S
C437 H392 0.929 . S
C437 C436 1.377 . S
C437 C438 1.386 . S
C438 H393 0.931 . S
C438 C437 1.386 . S
C438 C439 1.363 . S
C439 C438 1.363 . S
C439 C440 1.385 . S
C440 H394 0.930 . S
C440 C439 1.385 . S
C440 C441 1.396 . S
C441 H395 0.929 . S
C441 C436 1.361 . S
C441 C440 1.396 . S
C442 O396 1.300 . S
C442 O397 1.209 . S
C442 C415 1.486 . S
C443 O398 1.199 . S
C443 O399 1.297 . S
C443 C427 1.476 . S
H444 O470 0.856 . S
H445 O473 0.854 . S
H446 C481 0.930 . S
H447 C482 0.930 . S
H448 C484 0.930 . S
H449 C485 0.930 . S
H450 C487 0.931 . S
H451 C488 0.936 . S
H452 C490 0.930 . S
H453 C491 0.929 . S
H454 C493 0.930 . S
H455 C494 0.931 . S
H456 C496 0.930 . S
H457 C497 0.929 . S
H458 C499 0.931 . S
H459 C500 0.930 . S
H460 C502 0.930 . S
H461 C503 0.932 . S
H462 C505 0.930 . S
H463 C506 0.929 . S
H464 C508 0.931 . S
H465 C509 0.930 . S
H466 C511 0.929 . S
H467 C512 0.931 . S
H468 C514 0.930 . S
H469 C515 0.929 . S
O470 H444 0.856 . S
O470 C516 1.300 . S
O471 C516 1.209 . S
O472 C517 1.199 . S
O473 H445 0.854 . S
O473 C517 1.297 . S
C474 C475 1.404 . S
C474 C479 1.397 . S
C474 C480 1.492 . S
C475 C474 1.404 . S
C475 C476 1.396 . S
C475 C486 1.492 . S
C476 C475 1.396 . S
C476 C477 1.397 . S
C476 C492 1.509 . S
C477 C476 1.397 . S
C477 C478 1.412 . S
C477 C498 1.485 . S
C478 C477 1.412 . S
C478 C479 1.388 . S
C478 C504 1.490 . S
C479 C474 1.397 . S
C479 C478 1.388 . S
C479 C510 1.519 . S
C480 C474 1.492 . S
C480 C481 1.363 . S
C480 C485 1.390 . S
C481 H446 0.930 . S
C481 C480 1.363 . S
C481 C482 1.372 . S
C482 H447 0.930 . S
C482 C481 1.372 . S
C482 C483 1.383 . S
C483 C482 1.383 . S
C483 C484 1.395 . S
C484 H448 0.930 . S
C484 C483 1.395 . S
C484 C485 1.362 . S
C485 H449 0.930 . S
C485 C480 1.390 . S
C485 C484 1.362 . S
C486 C475 1.492 . S
C486 C487 1.377 . S
C486 C491 1.397 . S
C487 H450 0.931 . S
C487 C486 1.377 . S
C487 C488 1.370 1_554 S
C488 H451 0.936 . S
C488 C487 1.370 1_556 S
C488 C489 1.375 1_556 S
C489 C488 1.375 1_554 S
C489 C490 1.378 . S
C489 C516 1.486 1_554 S
C490 H452 0.930 . S
C490 C489 1.378 . S
C490 C491 1.376 . S
C491 H453 0.929 . S
C491 C486 1.397 . S
C491 C490 1.376 . S
C492 C476 1.509 . S
C492 C493 1.391 . S
C492 C497 1.386 . S
C493 H454 0.930 . S
C493 C492 1.391 . S
C493 C494 1.375 . S
C494 H455 0.931 . S
C494 C493 1.375 . S
C494 C495 1.375 . S
C495 C494 1.375 . S
C495 C496 1.361 . S
C496 H456 0.930 . S
C496 C495 1.361 . S
C496 C497 1.399 . S
C497 H457 0.929 . S
C497 C492 1.386 . S
C497 C496 1.399 . S
C498 C477 1.485 . S
C498 C499 1.394 . S
C498 C503 1.360 . S
C499 H458 0.931 . S
C499 C498 1.394 . S
C499 C500 1.372 . S
C500 H459 0.930 . S
C500 C499 1.372 . S
C500 C501 1.397 . S
C501 C500 1.397 . S
C501 C502 1.390 . S
C501 C517 1.476 . S
C502 H460 0.930 . S
C502 C501 1.390 . S
C502 C503 1.366 . S
C503 H461 0.932 . S
C503 C498 1.360 . S
C503 C502 1.366 . S
C504 C478 1.490 . S
C504 C505 1.380 . S
C504 C509 1.386 . S
C505 H462 0.930 . S
C505 C504 1.380 . S
C505 C506 1.381 . S
C506 H463 0.929 . S
C506 C505 1.381 . S
C506 C507 1.371 . S
C507 C506 1.371 . S
C507 C508 1.380 . S
C508 H464 0.931 . S
C508 C507 1.380 . S
C508 C509 1.387 . S
C509 H465 0.930 . S
C509 C504 1.386 . S
C509 C508 1.387 . S
C510 C479 1.519 . S
C510 C511 1.377 . S
C510 C515 1.361 . S
C511 H466 0.929 . S
C511 C510 1.377 . S
C511 C512 1.386 . S
C512 H467 0.931 . S
C512 C511 1.386 . S
C512 C513 1.363 . S
C513 C512 1.363 . S
C513 C514 1.385 . S
C514 H468 0.930 . S
C514 C513 1.385 . S
C514 C515 1.396 . S
C515 H469 0.929 . S
C515 C510 1.361 . S
C515 C514 1.396 . S
C516 O470 1.300 . S
C516 O471 1.209 . S
C516 C489 1.486 1_556 S
C517 O472 1.199 . S
C517 O473 1.297 . S
C517 C501 1.476 . S
H518 O544 0.856 1_655 S
H519 O547 0.854 . S
H520 C555 0.930 . S
H521 C556 0.930 . S
H522 C558 0.930 . S
H523 C559 0.930 . S
H524 C561 0.931 . S
H525 C562 0.930 . S
H526 C564 0.930 . S
H527 C565 0.929 1_655 S
H528 C567 0.930 . S
H529 C568 0.931 . S
H530 C570 0.930 . S
H531 C571 0.929 . S
H532 C573 0.931 . S
H533 C574 0.930 . S
H534 C576 0.930 . S
H535 C577 0.932 . S
H536 C579 0.930 . S
H537 C580 0.929 . S
H538 C582 0.931 . S
H539 C583 0.930 . S
H540 C585 0.929 . S
H541 C586 0.931 . S
H542 C588 0.930 . S
H543 C589 0.929 1_455 S
O544 H518 0.856 1_455 S
O544 C590 1.300 1_455 S
O545 C590 1.209 . S
O546 C591 1.199 . S
O547 H519 0.854 . S
O547 C591 1.297 . S
C548 C549 1.404 . S
C548 C553 1.397 . S
C548 C554 1.492 1_455 S
C549 C548 1.404 . S
C549 C550 1.396 . S
C549 C560 1.492 . S
C550 C549 1.396 . S
C550 C551 1.397 . S
C550 C566 1.509 . S
C551 C550 1.397 . S
C551 C552 1.412 . S
C551 C572 1.485 . S
C552 C551 1.412 . S
C552 C553 1.388 . S
C552 C578 1.490 . S
C553 C548 1.397 . S
C553 C552 1.388 . S
C553 C584 1.519 1_455 S
C554 C548 1.492 1_655 S
C554 C555 1.363 . S
C554 C559 1.390 . S
C555 H520 0.930 . S
C555 C554 1.363 . S
C555 C556 1.372 . S
C556 H521 0.930 . S
C556 C555 1.372 . S
C556 C557 1.383 . S
C557 C556 1.383 . S
C557 C558 1.395 . S
C558 H522 0.930 . S
C558 C557 1.395 . S
C558 C559 1.362 . S
C559 H523 0.930 . S
C559 C554 1.390 . S
C559 C558 1.362 . S
C560 C549 1.492 . S
C560 C561 1.377 . S
C560 C565 1.397 . S
C561 H524 0.931 . S
C561 C560 1.377 . S
C561 C562 1.376 . S
C562 H525 0.930 . S
C562 C561 1.376 . S
C562 C563 1.376 . S
C563 C562 1.376 . S
C563 C564 1.378 1_455 S
C563 C590 1.486 1_455 S
C564 H526 0.930 . S
C564 C563 1.378 1_655 S
C564 C565 1.376 1_655 S
C565 H527 0.929 1_455 S
C565 C560 1.397 . S
C565 C564 1.376 1_455 S
C566 C550 1.509 . S
C566 C567 1.391 . S
C566 C571 1.386 . S
C567 H528 0.930 . S
C567 C566 1.391 . S
C567 C568 1.375 . S
C568 H529 0.931 . S
C568 C567 1.375 . S
C568 C569 1.375 . S
C569 C568 1.375 . S
C569 C570 1.361 . S
C570 H530 0.930 . S
C570 C569 1.361 . S
C570 C571 1.399 . S
C571 H531 0.929 . S
C571 C566 1.386 . S
C571 C570 1.399 . S
C572 C551 1.485 . S
C572 C573 1.394 . S
C572 C577 1.360 . S
C573 H532 0.931 . S
C573 C572 1.394 . S
C573 C574 1.372 . S
C574 H533 0.930 . S
C574 C573 1.372 . S
C574 C575 1.397 . S
C575 C574 1.397 . S
C575 C576 1.390 . S
C575 C591 1.476 . S
C576 H534 0.930 . S
C576 C575 1.390 . S
C576 C577 1.366 . S
C577 H535 0.932 . S
C577 C572 1.360 . S
C577 C576 1.366 . S
C578 C552 1.490 . S
C578 C579 1.380 . S
C578 C583 1.386 . S
C579 H536 0.930 . S
C579 C578 1.380 . S
C579 C580 1.381 . S
C580 H537 0.929 . S
C580 C579 1.381 . S
C580 C581 1.371 . S
C581 C580 1.371 . S
C581 C582 1.380 . S
C582 H538 0.931 . S
C582 C581 1.380 . S
C582 C583 1.387 . S
C583 H539 0.930 . S
C583 C578 1.386 . S
C583 C582 1.387 . S
C584 C553 1.519 1_655 S
C584 C585 1.377 . S
C584 C589 1.361 . S
C585 H540 0.929 . S
C585 C584 1.377 . S
C585 C586 1.386 . S
C586 H541 0.931 . S
C586 C585 1.386 . S
C586 C587 1.363 . S
C587 C586 1.363 . S
C587 C588 1.385 . S
C588 H542 0.930 . S
C588 C587 1.385 . S
C588 C589 1.396 . S
C589 H543 0.929 1_655 S
C589 C584 1.361 . S
C589 C588 1.396 . S
C590 O544 1.300 1_655 S
C590 O545 1.209 . S
C590 C563 1.486 1_655 S
C591 O546 1.199 . S
C591 O547 1.297 . S
C591 C575 1.476 . S
Fe592 O593 1.886 . S
Fe592 O596 1.715 1_455 S
Fe592 O601 2.077 . S
Fe592 O606 1.935 1_455 S
Fe592 O612 2.077 . S
Fe592 O621 1.935 1_455 S
O593 Fe592 1.886 . S
O593 Fe595 1.715 . S
Fe594 O596 1.886 . S
Fe594 O597 1.715 . S
Fe594 O604 1.935 . S
Fe594 O605 2.077 . S
Fe594 O611 1.935 . S
Fe594 O620 2.077 . S
Fe595 O593 1.715 . S
Fe595 O598 1.886 . S
Fe595 O602 1.935 . S
Fe595 O607 2.077 . S
Fe595 O613 1.935 . S
Fe595 O617 2.077 . S
O596 Fe592 1.715 1_655 S
O596 Fe594 1.886 . S
O597 Fe594 1.715 . S
O597 Fe599 1.886 1_655 S
O598 Fe595 1.886 . S
O598 Fe599 1.715 . S
Fe599 O597 1.886 1_455 S
Fe599 O598 1.715 . S
Fe599 O603 2.077 1_455 S
Fe599 O608 1.935 . S
Fe599 O610 2.077 1_455 S
Fe599 O618 1.935 . S
C600 O612 1.381 . S
C600 O613 1.421 . S
O601 Fe592 2.077 . S
O601 C614 1.381 . S
O602 Fe595 1.935 . S
O602 C614 1.421 . S
O603 Fe599 2.077 1_655 S
O603 C619 1.381 . S
O604 Fe594 1.935 . S
O604 C619 1.421 . S
O605 Fe594 2.077 . S
O605 C609 1.381 . S
O606 Fe592 1.935 1_655 S
O606 C609 1.421 . S
O607 Fe595 2.077 . S
O607 C615 1.381 . S
O608 Fe599 1.935 . S
O608 C615 1.421 . S
C609 O605 1.381 . S
C609 O606 1.421 . S
O610 Fe599 2.077 1_655 S
O610 C622 1.381 . S
O611 Fe594 1.935 . S
O611 C622 1.421 . S
O612 Fe592 2.077 . S
O612 C600 1.381 . S
O613 Fe595 1.935 . S
O613 C600 1.421 . S
C614 O601 1.381 . S
C614 O602 1.421 . S
C615 O607 1.381 . S
C615 O608 1.421 . S
C616 O617 1.381 . S
C616 O618 1.421 . S
O617 Fe595 2.077 . S
O617 C616 1.381 . S
O618 Fe599 1.935 . S
O618 C616 1.421 . S
C619 O603 1.381 . S
C619 O604 1.421 . S
O620 Fe594 2.077 . S
O620 C623 1.381 . S
O621 Fe592 1.935 1_655 S
O621 C623 1.421 . S
C622 O610 1.381 . S
C622 O611 1.421 . S
C623 O620 1.381 . S
C623 O621 1.421 . S
Fe624 O625 1.886 . S
Fe624 O628 1.715 . S
Fe624 O633 2.077 . S
Fe624 O638 1.935 . S
Fe624 O644 2.077 . S
Fe624 O653 1.935 . S
O625 Fe624 1.886 . S
O625 Fe627 1.715 . S
Fe626 O628 1.886 . S
Fe626 O629 1.715 . S
Fe626 O636 1.935 . S
Fe626 O637 2.077 . S
Fe626 O643 1.935 . S
Fe626 O652 2.077 . S
Fe627 O625 1.715 . S
Fe627 O630 1.886 . S
Fe627 O634 1.935 . S
Fe627 O639 2.077 . S
Fe627 O645 1.935 . S
Fe627 O649 2.077 . S
O628 Fe624 1.715 . S
O628 Fe626 1.886 . S
O629 Fe626 1.715 . S
O629 Fe631 1.886 . S
O630 Fe627 1.886 . S
O630 Fe631 1.715 . S
Fe631 O629 1.886 . S
Fe631 O630 1.715 . S
Fe631 O635 2.077 . S
Fe631 O640 1.935 . S
Fe631 O642 2.077 . S
Fe631 O650 1.935 . S
C632 O644 1.381 . S
C632 O645 1.421 . S
O633 Fe624 2.077 . S
O633 C646 1.381 . S
O634 Fe627 1.935 . S
O634 C646 1.421 . S
O635 Fe631 2.077 . S
O635 C651 1.381 . S
O636 Fe626 1.935 . S
O636 C651 1.421 . S
O637 Fe626 2.077 . S
O637 C641 1.381 . S
O638 Fe624 1.935 . S
O638 C641 1.421 . S
O639 Fe627 2.077 . S
O639 C647 1.381 . S
O640 Fe631 1.935 . S
O640 C647 1.421 . S
C641 O637 1.381 . S
C641 O638 1.421 . S
O642 Fe631 2.077 . S
O642 C654 1.381 . S
O643 Fe626 1.935 . S
O643 C654 1.421 . S
O644 Fe624 2.077 . S
O644 C632 1.381 . S
O645 Fe627 1.935 . S
O645 C632 1.421 . S
C646 O633 1.381 . S
C646 O634 1.421 . S
C647 O639 1.381 . S
C647 O640 1.421 . S
C648 O649 1.381 . S
C648 O650 1.421 . S
O649 Fe627 2.077 . S
O649 C648 1.381 . S
O650 Fe631 1.935 . S
O650 C648 1.421 . S
C651 O635 1.381 . S
C651 O636 1.421 . S
O652 Fe626 2.077 . S
O652 C655 1.381 . S
O653 Fe624 1.935 . S
O653 C655 1.421 . S
C654 O642 1.381 . S
C654 O643 1.421 . S
C655 O652 1.381 . S
C655 O653 1.421 . S
Fe656 O657 1.886 . S
Fe656 O660 1.715 . S
Fe656 O665 2.077 . S
Fe656 O670 1.935 . S
Fe656 O676 2.077 . S
Fe656 O685 1.935 . S
O657 Fe656 1.886 . S
O657 Fe659 1.715 . S
Fe658 O660 1.886 . S
Fe658 O661 1.715 . S
Fe658 O668 1.935 . S
Fe658 O669 2.077 . S
Fe658 O675 1.935 . S
Fe658 O684 2.077 . S
Fe659 O657 1.715 . S
Fe659 O662 1.886 . S
Fe659 O666 1.935 . S
Fe659 O671 2.077 . S
Fe659 O677 1.935 . S
Fe659 O681 2.077 . S
O660 Fe656 1.715 . S
O660 Fe658 1.886 . S
O661 Fe658 1.715 . S
O661 Fe663 1.886 . S
O662 Fe659 1.886 . S
O662 Fe663 1.715 . S
Fe663 O661 1.886 . S
Fe663 O662 1.715 . S
Fe663 O667 2.077 . S
Fe663 O672 1.935 . S
Fe663 O674 2.077 . S
Fe663 O682 1.935 . S
C664 O676 1.381 . S
C664 O677 1.421 . S
O665 Fe656 2.077 . S
O665 C678 1.381 . S
O666 Fe659 1.935 . S
O666 C678 1.421 . S
O667 Fe663 2.077 . S
O667 C683 1.381 . S
O668 Fe658 1.935 . S
O668 C683 1.421 . S
O669 Fe658 2.077 . S
O669 C673 1.381 . S
O670 Fe656 1.935 . S
O670 C673 1.421 . S
O671 Fe659 2.077 . S
O671 C679 1.381 . S
O672 Fe663 1.935 . S
O672 C679 1.421 . S
C673 O669 1.381 . S
C673 O670 1.421 . S
O674 Fe663 2.077 . S
O674 C686 1.381 . S
O675 Fe658 1.935 . S
O675 C686 1.421 . S
O676 Fe656 2.077 . S
O676 C664 1.381 . S
O677 Fe659 1.935 . S
O677 C664 1.421 . S
C678 O665 1.381 . S
C678 O666 1.421 . S
C679 O671 1.381 . S
C679 O672 1.421 . S
C680 O681 1.381 . S
C680 O682 1.421 . S
O681 Fe659 2.077 . S
O681 C680 1.381 . S
O682 Fe663 1.935 . S
O682 C680 1.421 . S
C683 O667 1.381 . S
C683 O668 1.421 . S
O684 Fe658 2.077 . S
O684 C687 1.381 . S
O685 Fe656 1.935 . S
O685 C687 1.421 . S
C686 O674 1.381 . S
C686 O675 1.421 . S
C687 O684 1.381 . S
C687 O685 1.421 . S
Fe688 O689 1.886 . S
Fe688 O692 1.715 . S
Fe688 O697 2.077 1_455 S
Fe688 O702 1.935 1_455 S
Fe688 O708 2.077 . S
Fe688 O717 1.935 . S
O689 Fe688 1.886 . S
O689 Fe691 1.715 . S
Fe690 O692 1.886 . S
Fe690 O693 1.715 . S
Fe690 O700 1.935 1_455 S
Fe690 O701 2.077 1_455 S
Fe690 O707 1.935 . S
Fe690 O716 2.077 . S
Fe691 O689 1.715 . S
Fe691 O694 1.886 . S
Fe691 O698 1.935 1_455 S
Fe691 O703 2.077 1_455 S
Fe691 O709 1.935 . S
Fe691 O713 2.077 . S
O692 Fe688 1.715 . S
O692 Fe690 1.886 . S
O693 Fe690 1.715 . S
O693 Fe695 1.886 . S
O694 Fe691 1.886 . S
O694 Fe695 1.715 . S
Fe695 O693 1.886 . S
Fe695 O694 1.715 . S
Fe695 O699 2.077 1_455 S
Fe695 O704 1.935 1_455 S
Fe695 O706 2.077 . S
Fe695 O714 1.935 . S
C696 O708 1.381 . S
C696 O709 1.421 . S
O697 Fe688 2.077 1_655 S
O697 C710 1.381 . S
O698 Fe691 1.935 1_655 S
O698 C710 1.421 . S
O699 Fe695 2.077 1_655 S
O699 C715 1.381 . S
O700 Fe690 1.935 1_655 S
O700 C715 1.421 . S
O701 Fe690 2.077 1_655 S
O701 C705 1.381 . S
O702 Fe688 1.935 1_655 S
O702 C705 1.421 . S
O703 Fe691 2.077 1_655 S
O703 C711 1.381 . S
O704 Fe695 1.935 1_655 S
O704 C711 1.421 . S
C705 O701 1.381 . S
C705 O702 1.421 . S
O706 Fe695 2.077 . S
O706 C718 1.381 . S
O707 Fe690 1.935 . S
O707 C718 1.421 . S
O708 Fe688 2.077 . S
O708 C696 1.381 . S
O709 Fe691 1.935 . S
O709 C696 1.421 . S
C710 O697 1.381 . S
C710 O698 1.421 . S
C711 O703 1.381 . S
C711 O704 1.421 . S
C712 O713 1.381 . S
C712 O714 1.421 . S
O713 Fe691 2.077 . S
O713 C712 1.381 . S
O714 Fe695 1.935 . S
O714 C712 1.421 . S
C715 O699 1.381 . S
C715 O700 1.421 . S
O716 Fe690 2.077 . S
O716 C719 1.381 . S
O717 Fe688 1.935 . S
O717 C719 1.421 . S
C718 O706 1.381 . S
C718 O707 1.421 . S
C719 O716 1.381 . S
C719 O717 1.421 . S
H720 C728 0.929 . S
H721 C730 0.930 . S
H722 C732 0.930 . S
H723 C735 0.929 . S
H724 C738 0.930 . S
H725 C740 0.960 . S
H726 C740 0.960 . S
H727 C740 0.960 . S
C728 H720 0.929 . S
C728 C729 1.377 . S
C728 C730 1.384 . S
C729 C728 1.377 . S
C729 C735 1.390 . S
C730 H721 0.930 . S
C730 C728 1.384 . S
C730 C731 1.372 . S
C731 C730 1.372 . S
C731 C732 1.400 . S
C731 C736 1.490 . S
C732 H722 0.930 . S
C732 C731 1.400 . S
C732 C735 1.386 . S
H733 C749 0.930 . S
H734 C750 0.931 . S
C735 H723 0.929 . S
C735 C729 1.390 . S
C735 C732 1.386 . S
C736 C731 1.490 . S
C736 C738 1.395 . S
C736 C739 1.403 . S
H737 C743 0.930 . S
C738 H724 0.930 . S
C738 C736 1.395 . S
C738 C741 1.403 . S
C739 C736 1.403 . S
C739 C740 1.524 . S
C739 C743 1.400 . S
C740 H725 0.960 . S
C740 H726 0.960 . S
C740 H727 0.960 . S
C740 C739 1.524 . S
C741 C738 1.403 . S
C741 C742 1.392 . S
C741 C745 1.495 . S
C742 C741 1.392 . S
C742 C743 1.385 . S
C742 C744 1.478 . S
C743 H737 0.930 . S
C743 C739 1.400 . S
C743 C742 1.385 . S
C744 C742 1.478 . S
C744 C746 1.381 . S
C744 C750 1.383 . S
C745 C741 1.495 . S
C745 H751 0.959 . S
C745 H752 0.961 . S
C745 H753 0.960 . S
C746 C744 1.381 . S
C746 C747 1.394 . S
C746 H754 0.930 . S
C747 C746 1.394 . S
C747 C748 1.383 . S
C747 H755 0.929 . S
C748 C747 1.383 . S
C748 C749 1.377 . S
C749 H733 0.930 . S
C749 C748 1.377 . S
C749 C750 1.379 . S
C750 H734 0.931 . S
C750 C744 1.383 . S
C750 C749 1.379 . S
H751 C745 0.959 . S
H752 C745 0.961 . S
H753 C745 0.960 . S
H754 C746 0.930 . S
H755 C747 0.929 . S
H756 C764 0.929 . S
H757 C766 0.930 . S
H758 C768 0.930 1_545 S
H759 C771 0.929 . S
H760 C774 0.930 . S
H761 C776 0.960 . S
H762 C776 0.960 1_565 S
H763 C776 0.960 . S
C764 H756 0.929 . S
C764 C765 1.377 . S
C764 C766 1.384 . S
C765 C764 1.377 . S
C765 C771 1.390 . S
C766 H757 0.930 . S
C766 C764 1.384 . S
C766 C767 1.372 . S
C767 C766 1.372 . S
C767 C768 1.400 . S
C767 C772 1.490 1_565 S
C768 H758 0.930 1_565 S
C768 C767 1.400 . S
C768 C771 1.386 . S
H769 C785 0.930 . S
H770 C786 0.931 . S
C771 H759 0.929 . S
C771 C765 1.390 . S
C771 C768 1.386 . S
C772 C767 1.490 1_545 S
C772 C774 1.395 . S
C772 C775 1.403 . S
H773 C779 0.930 . S
C774 H760 0.930 . S
C774 C772 1.395 . S
C774 C777 1.403 . S
C775 C772 1.403 . S
C775 C776 1.524 . S
C775 C779 1.400 . S
C776 H761 0.960 . S
C776 H762 0.960 1_545 S
C776 H763 0.960 . S
C776 C775 1.524 . S
C777 C774 1.403 . S
C777 C778 1.392 . S
C777 C781 1.495 . S
C778 C777 1.392 . S
C778 C779 1.385 . S
C778 C780 1.478 . S
C779 H773 0.930 . S
C779 C775 1.400 . S
C779 C778 1.385 . S
C780 C778 1.478 . S
C780 C782 1.381 . S
C780 C786 1.383 . S
C781 C777 1.495 . S
C781 H787 0.959 . S
C781 H788 0.961 . S
C781 H789 0.960 . S
C782 C780 1.381 . S
C782 C783 1.394 . S
C782 H790 0.930 . S
C783 C782 1.394 . S
C783 C784 1.383 . S
C783 H791 0.929 . S
C784 C783 1.383 . S
C784 C785 1.377 . S
C785 H769 0.930 . S
C785 C784 1.377 . S
C785 C786 1.379 . S
C786 H770 0.931 . S
C786 C780 1.383 . S
C786 C785 1.379 . S
H787 C781 0.959 . S
H788 C781 0.961 . S
H789 C781 0.960 . S
H790 C782 0.930 . S
H791 C783 0.929 . S
H792 C800 0.929 . S
H793 C802 0.930 . S
H794 C804 0.930 . S
H795 C807 0.929 . S
H796 C810 0.930 . S
H797 C812 0.960 . S
H798 C812 0.960 . S
H799 C812 0.960 . S
C800 H792 0.929 . S
C800 C801 1.377 . S
C800 C802 1.384 . S
C801 C800 1.377 . S
C801 C807 1.390 . S
C802 H793 0.930 . S
C802 C800 1.384 . S
C802 C803 1.372 . S
C803 C802 1.372 . S
C803 C804 1.400 . S
C803 C808 1.490 1_554 S
C804 H794 0.930 . S
C804 C803 1.400 . S
C804 C807 1.386 . S
H805 C821 0.930 . S
H806 C822 0.931 . S
C807 H795 0.929 . S
C807 C801 1.390 . S
C807 C804 1.386 . S
C808 C803 1.490 1_556 S
C808 C810 1.395 . S
C808 C811 1.411 . S
H809 C815 0.930 . S
C810 H796 0.930 . S
C810 C808 1.395 . S
C810 C813 1.403 . S
C811 C808 1.411 . S
C811 C812 1.499 1_556 S
C811 C815 1.418 . S
C812 H797 0.960 . S
C812 H798 0.960 . S
C812 H799 0.960 . S
C812 C811 1.499 1_554 S
C813 C810 1.403 . S
C813 C814 1.392 . S
C813 C817 1.495 . S
C814 C813 1.392 . S
C814 C815 1.385 . S
C814 C816 1.478 . S
C815 H809 0.930 . S
C815 C811 1.418 . S
C815 C814 1.385 . S
C816 C814 1.478 . S
C816 C818 1.381 . S
C816 C822 1.383 . S
C817 C813 1.495 . S
C817 H823 0.959 . S
C817 H824 0.961 . S
C817 H825 0.960 . S
C818 C816 1.381 . S
C818 C819 1.394 . S
C818 H826 0.930 . S
C819 C818 1.394 . S
C819 C820 1.383 . S
C819 H827 0.929 . S
C820 C819 1.383 . S
C820 C821 1.377 . S
C821 H805 0.930 . S
C821 C820 1.377 . S
C821 C822 1.379 . S
C822 H806 0.931 . S
C822 C816 1.383 . S
C822 C821 1.379 . S
H823 C817 0.959 . S
H824 C817 0.961 . S
H825 C817 0.960 . S
H826 C818 0.930 . S
H827 C819 0.929 . S
H828 C836 0.929 . S
H829 C838 0.930 . S
H830 C840 0.930 1_565 S
H831 C843 0.929 . S
H832 C846 0.930 . S
H833 C848 0.960 . S
H834 C848 0.960 1_545 S
H835 C848 0.960 . S
C836 H828 0.929 . S
C836 C837 1.377 . S
C836 C838 1.384 . S
C837 C836 1.377 . S
C837 C843 1.390 . S
C838 H829 0.930 . S
C838 C836 1.384 . S
C838 C839 1.372 . S
C839 C838 1.372 . S
C839 C840 1.400 . S
C839 C844 1.490 . S
C840 H830 0.930 1_545 S
C840 C839 1.400 . S
C840 C843 1.386 . S
H841 C857 0.930 . S
H842 C858 0.931 . S
C843 H831 0.929 . S
C843 C837 1.390 . S
C843 C840 1.386 . S
C844 C839 1.490 . S
C844 C846 1.395 . S
C844 C847 1.403 1_545 S
H845 C851 0.930 . S
C846 H832 0.930 . S
C846 C844 1.395 . S
C846 C849 1.403 1_545 S
C847 C844 1.403 1_565 S
C847 C848 1.524 . S
C847 C851 1.400 . S
C848 H833 0.960 . S
C848 H834 0.960 1_565 S
C848 H835 0.960 . S
C848 C847 1.524 . S
C849 C846 1.403 1_565 S
C849 C850 1.392 . S
C849 C853 1.495 . S
C850 C849 1.392 . S
C850 C851 1.385 . S
C850 C852 1.478 . S
C851 H845 0.930 . S
C851 C847 1.400 . S
C851 C850 1.385 . S
C852 C850 1.478 . S
C852 C854 1.381 . S
C852 C858 1.383 . S
C853 C849 1.495 . S
C853 H859 0.959 1_565 S
C853 H860 0.961 . S
C853 H861 0.960 . S
C854 C852 1.381 . S
C854 C855 1.394 . S
C854 H862 0.930 . S
C855 C854 1.394 . S
C855 C856 1.383 . S
C855 H863 0.929 . S
C856 C855 1.383 . S
C856 C857 1.377 . S
C857 H841 0.930 . S
C857 C856 1.377 . S
C857 C858 1.379 . S
C858 H842 0.931 . S
C858 C852 1.383 . S
C858 C857 1.379 . S
H859 C853 0.959 1_545 S
H860 C853 0.961 . S
H861 C853 0.960 . S
H862 C854 0.930 . S
H863 C855 0.929 . S
H864 C872 0.929 . S
H865 C874 0.930 . S
H866 C876 0.930 . S
H867 C879 0.929 . S
H868 C882 0.930 . S
H869 C884 0.960 . S
H870 C884 0.960 . S
H871 C884 0.960 . S
C872 H864 0.929 . S
C872 C873 1.377 . S
C872 C874 1.384 . S
C873 C872 1.377 . S
C873 C879 1.390 . S
C874 H865 0.930 . S
C874 C872 1.384 . S
C874 C875 1.372 . S
C875 C874 1.372 . S
C875 C876 1.400 . S
C875 C880 1.490 . S
C876 H866 0.930 . S
C876 C875 1.400 . S
C876 C879 1.386 . S
H877 C893 0.930 . S
H878 C894 0.931 . S
C879 H867 0.929 . S
C879 C873 1.390 . S
C879 C876 1.386 . S
C880 C875 1.490 . S
C880 C882 1.395 . S
C880 C883 1.403 . S
H881 C887 0.930 . S
C882 H868 0.930 . S
C882 C880 1.395 . S
C882 C885 1.403 . S
C883 C880 1.403 . S
C883 C884 1.524 . S
C883 C887 1.400 . S
C884 H869 0.960 . S
C884 H870 0.960 . S
C884 H871 0.960 . S
C884 C883 1.524 . S
C885 C882 1.403 . S
C885 C886 1.392 . S
C885 C889 1.495 . S
C886 C885 1.392 . S
C886 C887 1.385 . S
C886 C888 1.478 . S
C887 H881 0.930 . S
C887 C883 1.400 . S
C887 C886 1.385 . S
C888 C886 1.478 . S
C888 C890 1.381 . S
C888 C894 1.383 . S
C889 C885 1.495 . S
C889 H895 0.959 . S
C889 H896 0.961 . S
C889 H897 0.960 . S
C890 C888 1.381 . S
C890 C891 1.394 . S
C890 H898 0.930 . S
C891 C890 1.394 . S
C891 C892 1.383 . S
C891 H899 0.929 . S
C892 C891 1.383 . S
C892 C893 1.377 . S
C893 H877 0.930 . S
C893 C892 1.377 . S
C893 C894 1.379 . S
C894 H878 0.931 . S
C894 C888 1.383 . S
C894 C893 1.379 . S
H895 C889 0.959 . S
H896 C889 0.961 . S
H897 C889 0.960 . S
H898 C890 0.930 . S
H899 C891 0.929 . S
H900 C908 0.929 . S
H901 C910 0.930 . S
H902 C912 0.930 . S
H903 C915 0.929 . S
H904 C918 0.930 . S
H905 C920 0.960 . S
H906 C920 0.960 . S
H907 C920 0.960 . S
C908 H900 0.929 . S
C908 C909 1.377 . S
C908 C910 1.384 . S
C909 C908 1.377 . S
C909 C915 1.390 . S
C910 H901 0.930 . S
C910 C908 1.384 . S
C910 C911 1.372 . S
C911 C910 1.372 . S
C911 C912 1.400 . S
C911 C916 1.490 . S
C912 H902 0.930 . S
C912 C911 1.400 . S
C912 C915 1.386 . S
H913 C929 0.930 . S
H914 C930 0.931 . S
C915 H903 0.929 . S
C915 C909 1.390 . S
C915 C912 1.386 . S
C916 C911 1.490 . S
C916 C918 1.395 1_565 S
C916 C919 1.403 . S
H917 C923 0.930 . S
C918 H904 0.930 . S
C918 C916 1.395 1_545 S
C918 C921 1.403 . S
C919 C916 1.403 . S
C919 C920 1.524 . S
C919 C923 1.400 1_565 S
C920 H905 0.960 . S
C920 H906 0.960 . S
C920 H907 0.960 . S
C920 C919 1.524 . S
C921 C918 1.403 . S
C921 C922 1.392 . S
C921 C925 1.495 . S
C922 C921 1.392 . S
C922 C923 1.385 . S
C922 C924 1.478 . S
C923 H917 0.930 . S
C923 C919 1.400 1_545 S
C923 C922 1.385 . S
C924 C922 1.478 . S
C924 C926 1.381 . S
C924 C930 1.383 . S
C925 C921 1.495 . S
C925 H931 0.959 . S
C925 H932 0.961 . S
C925 H933 0.960 . S
C926 C924 1.381 . S
C926 C927 1.394 . S
C926 H934 0.930 . S
C927 C926 1.394 . S
C927 C928 1.383 . S
C927 H935 0.929 . S
C928 C927 1.383 . S
C928 C929 1.377 . S
C929 H913 0.930 . S
C929 C928 1.377 . S
C929 C930 1.379 . S
C930 H914 0.931 . S
C930 C924 1.383 . S
C930 C929 1.379 . S
H931 C925 0.959 . S
H932 C925 0.961 . S
H933 C925 0.960 . S
H934 C926 0.930 . S
H935 C927 0.929 . S
H936 C944 0.929 1_545 S
H937 C946 0.930 . S
H938 C948 0.930 . S
H939 C951 0.929 . S
H940 C954 0.930 . S
H941 C956 0.960 . S
H942 C956 0.960 . S
H943 C956 0.960 . S
C944 H936 0.929 1_565 S
C944 C945 1.377 . S
C944 C946 1.384 . S
C945 C944 1.377 . S
C945 C951 1.390 . S
C946 H937 0.930 . S
C946 C944 1.384 . S
C946 C947 1.372 . S
C947 C946 1.372 . S
C947 C948 1.400 . S
C947 C952 1.490 . S
C948 H938 0.930 . S
C948 C947 1.400 . S
C948 C951 1.386 . S
H949 C965 0.930 . S
H950 C966 0.931 . S
C951 H939 0.929 . S
C951 C945 1.390 . S
C951 C948 1.386 . S
C952 C947 1.490 . S
C952 C954 1.395 . S
C952 C955 1.403 . S
H953 C959 0.930 . S
C954 H940 0.930 . S
C954 C952 1.395 . S
C954 C957 1.403 . S
C955 C952 1.403 . S
C955 C956 1.524 . S
C955 C959 1.400 . S
C956 H941 0.960 . S
C956 H942 0.960 . S
C956 H943 0.960 . S
C956 C955 1.524 . S
C957 C954 1.403 . S
C957 C958 1.392 . S
C957 C961 1.495 . S
C958 C957 1.392 . S
C958 C959 1.385 . S
C958 C960 1.478 . S
C959 H953 0.930 . S
C959 C955 1.400 . S
C959 C958 1.385 . S
C960 C958 1.478 . S
C960 C962 1.381 . S
C960 C966 1.383 . S
C961 C957 1.495 . S
C961 H967 0.959 . S
C961 H968 0.961 . S
C961 H969 0.960 . S
C962 C960 1.381 . S
C962 C963 1.394 . S
C962 H970 0.930 . S
C963 C962 1.394 . S
C963 C964 1.383 . S
C963 H971 0.929 . S
C964 C963 1.383 . S
C964 C965 1.377 . S
C965 H949 0.930 . S
C965 C964 1.377 . S
C965 C966 1.379 . S
C966 H950 0.931 . S
C966 C960 1.383 . S
C966 C965 1.379 . S
H967 C961 0.959 . S
H968 C961 0.961 . S
H969 C961 0.960 . S
H970 C962 0.930 . S
H971 C963 0.929 . S
H972 C980 0.929 . S
H973 C982 0.930 . S
H974 C984 0.930 . S
H975 C987 0.929 . S
H976 C990 0.930 . S
H977 C992 0.960 . S
H978 C992 0.960 . S
H979 C992 0.960 . S
C980 H972 0.929 . S
C980 C981 1.377 . S
C980 C982 1.384 . S
C981 C980 1.377 . S
C981 C987 1.390 . S
C982 H973 0.930 . S
C982 C980 1.384 . S
C982 C983 1.372 . S
C983 C982 1.372 . S
C983 C984 1.400 . S
C983 C988 1.490 . S
C984 H974 0.930 . S
C984 C983 1.400 . S
C984 C987 1.386 . S
H985 C1001 0.930 . S
H986 C1002 0.931 . S
C987 H975 0.929 . S
C987 C981 1.390 . S
C987 C984 1.386 . S
C988 C983 1.490 . S
C988 C990 1.395 . S
C988 C991 1.403 1_545 S
H989 C995 0.930 . S
C990 H976 0.930 . S
C990 C988 1.395 . S
C990 C993 1.405 1_545 S
C991 C988 1.403 1_565 S
C991 C992 1.524 . S
C991 C995 1.400 . S
C992 H977 0.960 . S
C992 H978 0.960 . S
C992 H979 0.960 . S
C992 C991 1.524 . S
C993 C990 1.405 1_565 S
C993 C994 1.390 . S
C993 C997 1.496 1_565 S
C994 C993 1.390 . S
C994 C995 1.385 . S
C994 C996 1.478 . S
C995 H989 0.930 . S
C995 C991 1.400 . S
C995 C994 1.385 . S
C996 C994 1.478 . S
C996 C998 1.381 . S
C996 C1002 1.383 . S
C997 C993 1.496 1_545 S
C997 H1003 0.959 . S
C997 H1004 0.961 1_545 S
C997 H1005 0.960 . S
C998 C996 1.381 . S
C998 C999 1.394 . S
C998 H1006 0.930 . S
C999 C998 1.394 . S
C999 C1000 1.383 . S
C999 H1007 0.929 . S
C1000 C999 1.383 . S
C1000 C1001 1.377 . S
C1001 H985 0.930 . S
C1001 C1000 1.377 . S
C1001 C1002 1.379 . S
C1002 H986 0.931 . S
C1002 C996 1.383 . S
C1002 C1001 1.379 . S
H1003 C997 0.959 . S
H1004 C997 0.961 1_565 S
H1005 C997 0.960 . S
H1006 C998 0.930 . S
H1007 C999 0.929 . S
H1008 C1016 0.929 . S
H1009 C1018 0.930 . S
H1010 C1020 0.930 . S
H1011 C1023 0.929 . S
H1012 C1026 0.930 . S
H1013 C1028 0.960 . S
H1014 C1028 0.960 . S
H1015 C1028 0.960 . S
C1016 H1008 0.929 . S
C1016 C1017 1.377 . S
C1016 C1018 1.384 . S
C1017 C1016 1.377 . S
C1017 C1023 1.390 . S
C1018 H1009 0.930 . S
C1018 C1016 1.384 . S
C1018 C1019 1.372 . S
C1019 C1018 1.372 . S
C1019 C1020 1.400 . S
C1019 C1024 1.490 . S
C1020 H1010 0.930 . S
C1020 C1019 1.400 . S
C1020 C1023 1.386 . S
H1021 C1037 0.930 . S
H1022 C1038 0.931 . S
C1023 H1011 0.929 . S
C1023 C1017 1.390 . S
C1023 C1020 1.386 . S
C1024 C1019 1.490 . S
C1024 C1026 1.395 . S
C1024 C1027 1.403 . S
H1025 C1031 0.930 . S
C1026 H1012 0.930 . S
C1026 C1024 1.395 . S
C1026 C1029 1.403 . S
C1027 C1024 1.403 . S
C1027 C1028 1.524 . S
C1027 C1031 1.400 . S
C1028 H1013 0.960 . S
C1028 H1014 0.960 . S
C1028 H1015 0.960 . S
C1028 C1027 1.524 . S
C1029 C1026 1.403 . S
C1029 C1030 1.392 . S
C1029 C1033 1.495 . S
C1030 C1029 1.392 . S
C1030 C1031 1.385 . S
C1030 C1032 1.478 . S
C1031 H1025 0.930 . S
C1031 C1027 1.400 . S
C1031 C1030 1.385 . S
C1032 C1030 1.478 . S
C1032 C1034 1.381 . S
C1032 C1038 1.383 . S
C1033 C1029 1.495 . S
C1033 H1039 0.959 . S
C1033 H1040 0.961 . S
C1033 H1041 0.960 . S
C1034 C1032 1.381 . S
C1034 C1035 1.394 . S
C1034 H1042 0.930 . S
C1035 C1034 1.394 . S
C1035 C1036 1.383 . S
C1035 H1043 0.929 . S
C1036 C1035 1.383 . S
C1036 C1037 1.377 . S
C1037 H1021 0.930 . S
C1037 C1036 1.377 . S
C1037 C1038 1.379 . S
C1038 H1022 0.931 . S
C1038 C1032 1.383 . S
C1038 C1037 1.379 . S
H1039 C1033 0.959 . S
H1040 C1033 0.961 . S
H1041 C1033 0.960 . S
H1042 C1034 0.930 . S
H1043 C1035 0.929 . S
H1044 C1052 0.929 . S
H1045 C1054 0.930 . S
H1046 C1056 0.930 . S
H1047 C1059 0.929 . S
H1048 C1062 0.930 . S
H1049 C1064 0.960 1_565 S
H1050 C1064 0.964 . S
H1051 C1064 0.960 . S
C1052 H1044 0.929 . S
C1052 C1053 1.377 . S
C1052 C1054 1.384 . S
C1053 C1052 1.377 . S
C1053 C1059 1.390 . S
C1054 H1045 0.930 . S
C1054 C1052 1.384 . S
C1054 C1055 1.372 . S
C1055 C1054 1.372 . S
C1055 C1056 1.400 . S
C1055 C1060 1.490 . S
C1056 H1046 0.930 . S
C1056 C1055 1.400 . S
C1056 C1059 1.386 . S
H1057 C1073 0.930 . S
H1058 C1074 0.931 . S
C1059 H1047 0.929 . S
C1059 C1053 1.390 . S
C1059 C1056 1.386 . S
C1060 C1055 1.490 . S
C1060 C1062 1.395 . S
C1060 C1063 1.403 1_545 S
H1061 C1067 0.930 . S
C1062 H1048 0.930 . S
C1062 C1060 1.395 . S
C1062 C1065 1.403 1_545 S
C1063 C1060 1.403 1_565 S
C1063 C1064 1.524 1_565 S
C1063 C1067 1.400 . S
C1064 H1049 0.960 1_545 S
C1064 H1050 0.964 . S
C1064 H1051 0.960 . S
C1064 C1063 1.524 1_545 S
C1065 C1062 1.403 1_565 S
C1065 C1066 1.392 . S
C1065 C1069 1.495 . S
C1066 C1065 1.392 . S
C1066 C1067 1.385 . S
C1066 C1068 1.478 . S
C1067 H1061 0.930 . S
C1067 C1063 1.400 . S
C1067 C1066 1.385 . S
C1068 C1066 1.478 . S
C1068 C1070 1.381 . S
C1068 C1074 1.383 . S
C1069 C1065 1.495 . S
C1069 H1075 0.959 . S
C1069 H1076 0.961 . S
C1069 H1077 0.960 . S
C1070 C1068 1.381 . S
C1070 C1071 1.394 . S
C1070 H1078 0.930 . S
C1071 C1070 1.394 . S
C1071 C1072 1.383 . S
C1071 H1079 0.929 . S
C1072 C1071 1.383 . S
C1072 C1073 1.377 . S
C1073 H1057 0.930 . S
C1073 C1072 1.377 . S
C1073 C1074 1.379 . S
C1074 H1058 0.931 . S
C1074 C1068 1.383 . S
C1074 C1073 1.379 . S
H1075 C1069 0.959 . S
H1076 C1069 0.961 . S
H1077 C1069 0.960 . S
H1078 C1070 0.930 . S
H1079 C1071 0.929 . S
H1080 C1088 0.929 . S
H1081 C1090 0.930 . S
H1082 C1092 0.930 . S
H1083 C1095 0.929 . S
H1084 C1098 0.930 . S
H1085 C1100 0.960 1_545 S
H1086 C1100 0.960 1_545 S
H1087 C1100 0.960 . S
C1088 H1080 0.929 . S
C1088 C1089 1.377 . S
C1088 C1090 1.384 . S
C1089 C1088 1.377 . S
C1089 C1095 1.390 . S
C1090 H1081 0.930 . S
C1090 C1088 1.384 . S
C1090 C1091 1.372 . S
C1091 C1090 1.372 . S
C1091 C1092 1.400 . S
C1091 C1096 1.490 . S
C1092 H1082 0.930 . S
C1092 C1091 1.400 . S
C1092 C1095 1.386 . S
H1093 C1109 0.930 . S
H1094 C1110 0.931 . S
C1095 H1083 0.929 . S
C1095 C1089 1.390 . S
C1095 C1092 1.386 . S
C1096 C1091 1.490 . S
C1096 C1098 1.395 . S
C1096 C1099 1.403 . S
H1097 C1103 0.930 . S
C1098 H1084 0.930 . S
C1098 C1096 1.395 . S
C1098 C1101 1.403 . S
C1099 C1096 1.403 . S
C1099 C1100 1.524 . S
C1099 C1103 1.400 . S
C1100 H1085 0.960 1_565 S
C1100 H1086 0.960 1_565 S
C1100 H1087 0.960 . S
C1100 C1099 1.524 . S
C1101 C1098 1.403 . S
C1101 C1102 1.392 . S
C1101 C1105 1.495 . S
C1102 C1101 1.392 . S
C1102 C1103 1.385 . S
C1102 C1104 1.478 . S
C1103 H1097 0.930 . S
C1103 C1099 1.400 . S
C1103 C1102 1.385 . S
C1104 C1102 1.478 . S
C1104 C1106 1.381 . S
C1104 C1110 1.383 . S
C1105 C1101 1.495 . S
C1105 H1111 0.959 . S
C1105 H1112 0.961 . S
C1105 H1113 0.960 . S
C1106 C1104 1.381 . S
C1106 C1107 1.394 . S
C1106 H1114 0.930 . S
C1107 C1106 1.394 . S
C1107 C1108 1.383 . S
C1107 H1115 0.929 . S
C1108 C1107 1.383 . S
C1108 C1109 1.377 . S
C1109 H1093 0.930 . S
C1109 C1108 1.377 . S
C1109 C1110 1.379 . S
C1110 H1094 0.931 . S
C1110 C1104 1.383 . S
C1110 C1109 1.379 . S
H1111 C1105 0.959 . S
H1112 C1105 0.961 . S
H1113 C1105 0.960 . S
H1114 C1106 0.930 . S
H1115 C1107 0.929 . S
H1116 C1124 0.929 . S
H1117 C1126 0.930 . S
H1118 C1128 0.930 . S
H1119 C1131 0.929 . S
H1120 C1134 0.930 . S
H1121 C1136 0.960 . S
H1122 C1136 0.960 . S
H1123 C1136 0.960 . S
C1124 H1116 0.929 . S
C1124 C1125 1.377 . S
C1124 C1126 1.384 . S
C1125 C1124 1.377 . S
C1125 C1131 1.390 . S
C1126 H1117 0.930 . S
C1126 C1124 1.384 . S
C1126 C1127 1.372 . S
C1127 C1126 1.372 . S
C1127 C1128 1.400 . S
C1127 C1132 1.490 1_565 S
C1128 H1118 0.930 . S
C1128 C1127 1.400 . S
C1128 C1131 1.386 . S
H1129 C1145 0.930 . S
H1130 C1146 0.931 . S
C1131 H1119 0.929 . S
C1131 C1125 1.390 . S
C1131 C1128 1.386 . S
C1132 C1127 1.490 1_545 S
C1132 C1134 1.395 . S
C1132 C1135 1.403 . S
H1133 C1139 0.930 . S
C1134 H1120 0.930 . S
C1134 C1132 1.395 . S
C1134 C1137 1.403 . S
C1135 C1132 1.403 . S
C1135 C1136 1.524 1_545 S
C1135 C1139 1.400 . S
C1136 H1121 0.960 . S
C1136 H1122 0.960 . S
C1136 H1123 0.960 . S
C1136 C1135 1.524 1_565 S
C1137 C1134 1.403 . S
C1137 C1138 1.392 . S
C1137 C1141 1.495 . S
C1138 C1137 1.392 . S
C1138 C1139 1.385 . S
C1138 C1140 1.478 . S
C1139 H1133 0.930 . S
C1139 C1135 1.400 . S
C1139 C1138 1.385 . S
C1140 C1138 1.478 . S
C1140 C1142 1.381 . S
C1140 C1146 1.383 . S
C1141 C1137 1.495 . S
C1141 H1147 0.959 . S
C1141 H1148 0.961 . S
C1141 H1149 0.960 . S
C1142 C1140 1.381 . S
C1142 C1143 1.394 . S
C1142 H1150 0.930 . S
C1143 C1142 1.394 . S
C1143 C1144 1.383 . S
C1143 H1151 0.929 . S
C1144 C1143 1.383 . S
C1144 C1145 1.377 . S
C1145 H1129 0.930 . S
C1145 C1144 1.377 . S
C1145 C1146 1.379 . S
C1146 H1130 0.931 . S
C1146 C1140 1.383 . S
C1146 C1145 1.379 . S
H1147 C1141 0.959 . S
H1148 C1141 0.961 . S
H1149 C1141 0.960 . S
H1150 C1142 0.930 . S
H1151 C1143 0.929 . S
H1152 C1160 0.929 . S
H1153 C1162 0.930 . S
H1154 C1164 0.930 . S
H1155 C1167 0.929 . S
H1156 C1170 0.930 . S
H1157 C1172 0.960 . S
H1158 C1172 0.960 . S
H1159 C1172 0.960 . S
C1160 H1152 0.929 . S
C1160 C1161 1.377 . S
C1160 C1162 1.384 . S
C1161 C1160 1.377 . S
C1161 C1167 1.390 . S
C1162 H1153 0.930 . S
C1162 C1160 1.384 . S
C1162 C1163 1.372 . S
C1163 C1162 1.372 . S
C1163 C1164 1.400 . S
C1163 C1168 1.490 . S
C1164 H1154 0.930 . S
C1164 C1163 1.400 . S
C1164 C1167 1.386 . S
H1165 C1181 0.930 . S
H1166 C1182 0.931 . S
C1167 H1155 0.929 . S
C1167 C1161 1.390 . S
C1167 C1164 1.386 . S
C1168 C1163 1.490 . S
C1168 C1170 1.395 . S
C1168 C1171 1.403 . S
H1169 C1175 0.930 . S
C1170 H1156 0.930 . S
C1170 C1168 1.395 . S
C1170 C1173 1.403 . S
C1171 C1168 1.403 . S
C1171 C1172 1.524 . S
C1171 C1175 1.400 . S
C1172 H1157 0.960 . S
C1172 H1158 0.960 . S
C1172 H1159 0.960 . S
C1172 C1171 1.524 . S
C1173 C1170 1.403 . S
C1173 C1174 1.392 . S
C1173 C1177 1.495 . S
C1174 C1173 1.392 . S
C1174 C1175 1.385 . S
C1174 C1176 1.478 . S
C1175 H1169 0.930 . S
C1175 C1171 1.400 . S
C1175 C1174 1.385 . S
C1176 C1174 1.478 . S
C1176 C1178 1.381 . S
C1176 C1182 1.383 . S
C1177 C1173 1.495 . S
C1177 H1183 0.959 . S
C1177 H1184 0.961 . S
C1177 H1185 0.960 . S
C1178 C1176 1.381 . S
C1178 C1179 1.394 . S
C1178 H1186 0.930 . S
C1179 C1178 1.394 . S
C1179 C1180 1.383 . S
C1179 H1187 0.929 . S
C1180 C1179 1.383 . S
C1180 C1181 1.377 . S
C1181 H1165 0.930 . S
C1181 C1180 1.377 . S
C1181 C1182 1.379 . S
C1182 H1166 0.931 . S
C1182 C1176 1.383 . S
C1182 C1181 1.379 . S
H1183 C1177 0.959 . S
H1184 C1177 0.961 . S
H1185 C1177 0.960 . S
H1186 C1178 0.930 . S
H1187 C1179 0.929 . S
H1188 C1196 0.929 . S
H1189 C1198 0.930 . S
H1190 C1200 0.956 . S
H1191 C1203 0.929 . S
H1192 C1206 0.930 . S
H1193 C1208 0.960 . S
H1194 C1208 0.960 . S
H1195 C1208 0.960 . S
C1196 H1188 0.929 . S
C1196 C1197 1.377 . S
C1196 C1198 1.384 . S
C1197 C1196 1.377 . S
C1197 C1203 1.390 . S
C1198 H1189 0.930 . S
C1198 C1196 1.384 . S
C1198 C1199 1.372 . S
C1199 C1198 1.372 . S
C1199 C1200 1.400 . S
C1199 C1204 1.490 . S
C1200 H1190 0.956 . S
C1200 C1199 1.400 . S
C1200 C1203 1.386 . S
H1201 C1217 0.930 . S
H1202 C1218 0.931 . S
C1203 H1191 0.929 . S
C1203 C1197 1.390 . S
C1203 C1200 1.386 . S
C1204 C1199 1.490 . S
C1204 C1206 1.395 . S
C1204 C1207 1.403 1_545 S
H1205 C1211 0.930 . S
C1206 H1192 0.930 . S
C1206 C1204 1.395 . S
C1206 C1209 1.403 1_545 S
C1207 C1204 1.403 1_565 S
C1207 C1208 1.524 . S
C1207 C1211 1.400 . S
C1208 H1193 0.960 . S
C1208 H1194 0.960 . S
C1208 H1195 0.960 . S
C1208 C1207 1.524 . S
C1209 C1206 1.403 1_565 S
C1209 C1210 1.392 . S
C1209 C1213 1.495 1_565 S
C1210 C1209 1.392 . S
C1210 C1211 1.385 . S
C1210 C1212 1.478 . S
C1211 H1205 0.930 . S
C1211 C1207 1.400 . S
C1211 C1210 1.385 . S
C1212 C1210 1.478 . S
C1212 C1214 1.381 . S
C1212 C1218 1.383 . S
C1213 C1209 1.495 1_545 S
C1213 H1219 0.959 . S
C1213 H1220 0.961 1_545 S
C1213 H1221 0.960 . S
C1214 C1212 1.381 . S
C1214 C1215 1.394 . S
C1214 H1222 0.930 . S
C1215 C1214 1.394 . S
C1215 C1216 1.383 . S
C1215 H1223 0.929 . S
C1216 C1215 1.383 . S
C1216 C1217 1.377 . S
C1217 H1201 0.930 . S
C1217 C1216 1.377 . S
C1217 C1218 1.379 . S
C1218 H1202 0.931 . S
C1218 C1212 1.383 . S
C1218 C1217 1.379 . S
H1219 C1213 0.959 . S
H1220 C1213 0.961 1_565 S
H1221 C1213 0.960 . S
H1222 C1214 0.930 . S
H1223 C1215 0.929 . S
H1224 C1232 0.929 . S
H1225 C1234 0.930 . S
H1226 C1236 0.930 . S
H1227 C1239 0.929 . S
H1228 C1242 0.930 . S
H1229 C1244 0.960 . S
H1230 C1244 0.960 . S
H1231 C1244 0.960 . S
C1232 H1224 0.929 . S
C1232 C1233 1.377 1_556 S
C1232 C1234 1.384 . S
C1233 C1232 1.377 1_554 S
C1233 C1239 1.390 . S
C1234 H1225 0.930 . S
C1234 C1232 1.384 . S
C1234 C1235 1.372 . S
C1235 C1234 1.372 . S
C1235 C1236 1.400 1_556 S
C1235 C1240 1.490 . S
C1236 H1226 0.930 . S
C1236 C1235 1.400 1_554 S
C1236 C1239 1.386 . S
H1237 C1253 0.930 . S
H1238 C1254 0.931 . S
C1239 H1227 0.929 . S
C1239 C1233 1.390 . S
C1239 C1236 1.386 . S
C1240 C1235 1.490 . S
C1240 C1242 1.395 . S
C1240 C1243 1.403 . S
H1241 C1247 0.930 . S
C1242 H1228 0.930 . S
C1242 C1240 1.395 . S
C1242 C1245 1.403 . S
C1243 C1240 1.403 . S
C1243 C1244 1.524 1_556 S
C1243 C1247 1.400 . S
C1244 H1229 0.960 . S
C1244 H1230 0.960 . S
C1244 H1231 0.960 . S
C1244 C1243 1.524 1_554 S
C1245 C1242 1.403 . S
C1245 C1246 1.392 . S
C1245 C1249 1.495 . S
C1246 C1245 1.392 . S
C1246 C1247 1.385 . S
C1246 C1248 1.478 . S
C1247 H1241 0.930 . S
C1247 C1243 1.400 . S
C1247 C1246 1.385 . S
C1248 C1246 1.478 . S
C1248 C1250 1.381 . S
C1248 C1254 1.383 . S
C1249 C1245 1.495 . S
C1249 H1255 0.959 . S
C1249 H1256 0.961 . S
C1249 H1257 0.960 . S
C1250 C1248 1.381 . S
C1250 C1251 1.394 . S
C1250 H1258 0.930 . S
C1251 C1250 1.394 . S
C1251 C1252 1.383 . S
C1251 H1259 0.929 . S
C1252 C1251 1.383 . S
C1252 C1253 1.377 . S
C1253 H1237 0.930 . S
C1253 C1252 1.377 . S
C1253 C1254 1.379 . S
C1254 H1238 0.931 . S
C1254 C1248 1.383 . S
C1254 C1253 1.379 . S
H1255 C1249 0.959 . S
H1256 C1249 0.961 . S
H1257 C1249 0.960 . S
H1258 C1250 0.930 . S
H1259 C1251 0.929 . S
H1260 C1268 0.929 . S
H1261 C1270 0.925 1_545 S
H1262 C1272 0.930 . S
H1263 C1275 0.929 . S
H1264 C1278 0.930 . S
H1265 C1280 0.960 . S
H1266 C1280 0.960 . S
H1267 C1280 0.960 . S
C1268 H1260 0.929 . S
C1268 C1269 1.377 . S
C1268 C1270 1.384 . S
C1269 C1268 1.377 . S
C1269 C1275 1.390 . S
C1270 H1261 0.925 1_565 S
C1270 C1268 1.384 . S
C1270 C1271 1.372 . S
C1271 C1270 1.372 . S
C1271 C1272 1.399 . S
C1271 C1276 1.491 1_565 S
C1272 H1262 0.930 . S
C1272 C1271 1.399 . S
C1272 C1275 1.386 . S
H1273 C1289 0.930 . S
H1274 C1290 0.931 . S
C1275 H1263 0.929 . S
C1275 C1269 1.390 . S
C1275 C1272 1.386 . S
C1276 C1271 1.491 1_545 S
C1276 C1278 1.395 . S
C1276 C1279 1.403 . S
H1277 C1283 0.930 . S
C1278 H1264 0.930 . S
C1278 C1276 1.395 . S
C1278 C1281 1.403 . S
C1279 C1276 1.403 . S
C1279 C1280 1.524 1_545 S
C1279 C1283 1.400 . S
C1280 H1265 0.960 . S
C1280 H1266 0.960 . S
C1280 H1267 0.960 . S
C1280 C1279 1.524 1_565 S
C1281 C1278 1.403 . S
C1281 C1282 1.392 . S
C1281 C1285 1.495 . S
C1282 C1281 1.392 . S
C1282 C1283 1.385 . S
C1282 C1284 1.478 . S
C1283 H1277 0.930 . S
C1283 C1279 1.400 . S
C1283 C1282 1.385 . S
C1284 C1282 1.478 . S
C1284 C1286 1.381 . S
C1284 C1290 1.383 . S
C1285 C1281 1.495 . S
C1285 H1291 0.959 . S
C1285 H1292 0.961 . S
C1285 H1293 0.960 . S
C1286 C1284 1.381 . S
C1286 C1287 1.394 . S
C1286 H1294 0.930 . S
C1287 C1286 1.394 . S
C1287 C1288 1.383 . S
C1287 H1295 0.929 . S
C1288 C1287 1.383 . S
C1288 C1289 1.377 . S
C1289 H1273 0.930 . S
C1289 C1288 1.377 . S
C1289 C1290 1.379 . S
C1290 H1274 0.931 . S
C1290 C1284 1.383 . S
C1290 C1289 1.379 . S
H1291 C1285 0.959 . S
H1292 C1285 0.961 . S
H1293 C1285 0.960 . S
H1294 C1286 0.930 . S
H1295 C1287 0.929 . S
H1296 C1304 0.928 1_556 S
H1297 C1306 0.930 . S
H1298 C1308 0.930 . S
H1299 C1311 0.929 . S
H1300 C1314 0.930 . S
H1301 C1316 0.960 . S
H1302 C1316 0.960 . S
H1303 C1316 0.960 . S
C1304 H1296 0.928 1_554 S
C1304 C1305 1.383 . S
C1304 C1306 1.380 1_554 S
C1305 C1304 1.383 . S
C1305 C1311 1.390 . S
C1306 H1297 0.930 . S
C1306 C1304 1.380 1_556 S
C1306 C1307 1.372 . S
C1307 C1306 1.372 . S
C1307 C1308 1.400 1_556 S
C1307 C1312 1.490 . S
C1308 H1298 0.930 . S
C1308 C1307 1.400 1_554 S
C1308 C1311 1.386 . S
H1309 C1325 0.930 . S
H1310 C1326 0.931 . S
C1311 H1299 0.929 . S
C1311 C1305 1.390 . S
C1311 C1308 1.386 . S
C1312 C1307 1.490 . S
C1312 C1314 1.395 . S
C1312 C1315 1.403 . S
H1313 C1319 0.930 . S
C1314 H1300 0.930 . S
C1314 C1312 1.395 . S
C1314 C1317 1.403 . S
C1315 C1312 1.403 . S
C1315 C1316 1.524 1_556 S
C1315 C1319 1.400 . S
C1316 H1301 0.960 . S
C1316 H1302 0.960 . S
C1316 H1303 0.960 . S
C1316 C1315 1.524 1_554 S
C1317 C1314 1.403 . S
C1317 C1318 1.392 . S
C1317 C1321 1.495 . S
C1318 C1317 1.392 . S
C1318 C1319 1.385 . S
C1318 C1320 1.478 . S
C1319 H1313 0.930 . S
C1319 C1315 1.400 . S
C1319 C1318 1.385 . S
C1320 C1318 1.478 . S
C1320 C1322 1.381 . S
C1320 C1326 1.383 . S
C1321 C1317 1.495 . S
C1321 H1327 0.959 . S
C1321 H1328 0.961 . S
C1321 H1329 0.960 . S
C1322 C1320 1.381 . S
C1322 C1323 1.394 . S
C1322 H1330 0.930 . S
C1323 C1322 1.394 . S
C1323 C1324 1.383 . S
C1323 H1331 0.929 . S
C1324 C1323 1.383 . S
C1324 C1325 1.377 . S
C1325 H1309 0.930 . S
C1325 C1324 1.377 . S
C1325 C1326 1.379 . S
C1326 H1310 0.931 . S
C1326 C1320 1.383 . S
C1326 C1325 1.379 . S
H1327 C1321 0.959 . S
H1328 C1321 0.961 . S
H1329 C1321 0.960 . S
H1330 C1322 0.930 . S
H1331 C1323 0.929 . S
H1332 C1340 0.929 . S
H1333 C1342 0.930 . S
H1334 C1344 0.930 . S
H1335 C1347 0.929 . S
H1336 C1350 0.930 . S
H1337 C1352 0.960 . S
H1338 C1352 0.960 . S
H1339 C1352 0.960 . S
C1340 H1332 0.929 . S
C1340 C1341 1.377 . S
C1340 C1342 1.384 . S
C1341 C1340 1.377 . S
C1341 C1347 1.390 . S
C1342 H1333 0.930 . S
C1342 C1340 1.384 . S
C1342 C1343 1.372 . S
C1343 C1342 1.372 . S
C1343 C1344 1.400 . S
C1343 C1348 1.490 . S
C1344 H1334 0.930 . S
C1344 C1343 1.400 . S
C1344 C1347 1.386 . S
H1345 C1361 0.930 . S
H1346 C1362 0.931 . S
C1347 H1335 0.929 . S
C1347 C1341 1.390 . S
C1347 C1344 1.386 . S
C1348 C1343 1.490 . S
C1348 C1350 1.395 . S
C1348 C1351 1.403 . S
H1349 C1355 0.930 . S
C1350 H1336 0.930 . S
C1350 C1348 1.395 . S
C1350 C1353 1.403 . S
C1351 C1348 1.403 . S
C1351 C1352 1.524 . S
C1351 C1355 1.400 . S
C1352 H1337 0.960 . S
C1352 H1338 0.960 . S
C1352 H1339 0.960 . S
C1352 C1351 1.524 . S
C1353 C1350 1.403 . S
C1353 C1354 1.392 . S
C1353 C1357 1.495 . S
C1354 C1353 1.392 . S
C1354 C1355 1.385 . S
C1354 C1356 1.478 . S
C1355 H1349 0.930 . S
C1355 C1351 1.400 . S
C1355 C1354 1.385 . S
C1356 C1354 1.478 . S
C1356 C1358 1.381 . S
C1356 C1362 1.383 . S
C1357 C1353 1.495 . S
C1357 H1363 0.959 . S
C1357 H1364 0.961 . S
C1357 H1365 0.960 . S
C1358 C1356 1.381 . S
C1358 C1359 1.394 . S
C1358 H1366 0.930 . S
C1359 C1358 1.394 . S
C1359 C1360 1.383 . S
C1359 H1367 0.929 . S
C1360 C1359 1.383 . S
C1360 C1361 1.377 . S
C1361 H1345 0.930 . S
C1361 C1360 1.377 . S
C1361 C1362 1.379 . S
C1362 H1346 0.931 . S
C1362 C1356 1.383 . S
C1362 C1361 1.379 . S
H1363 C1357 0.959 . S
H1364 C1357 0.961 . S
H1365 C1357 0.960 . S
H1366 C1358 0.930 . S
H1367 C1359 0.929 . S
H1368 C1376 0.929 . S
H1369 C1378 0.930 . S
H1370 C1380 0.930 . S
H1371 C1383 0.929 . S
H1372 C1386 0.930 . S
H1373 C1388 0.960 . S
H1374 C1388 0.960 . S
H1375 C1388 0.960 . S
C1376 H1368 0.929 . S
C1376 C1377 1.377 . S
C1376 C1378 1.384 . S
C1377 C1376 1.377 . S
C1377 C1383 1.390 . S
C1378 H1369 0.930 . S
C1378 C1376 1.384 . S
C1378 C1379 1.372 . S
C1379 C1378 1.372 . S
C1379 C1380 1.400 . S
C1379 C1384 1.490 . S
C1380 H1370 0.930 . S
C1380 C1379 1.400 . S
C1380 C1383 1.386 . S
H1381 C1397 0.930 . S
H1382 C1398 0.931 . S
C1383 H1371 0.929 . S
C1383 C1377 1.390 . S
C1383 C1380 1.386 . S
C1384 C1379 1.490 . S
C1384 C1386 1.395 . S
C1384 C1387 1.403 . S
H1385 C1391 0.930 . S
C1386 H1372 0.930 . S
C1386 C1384 1.395 . S
C1386 C1389 1.403 . S
C1387 C1384 1.403 . S
C1387 C1388 1.524 . S
C1387 C1391 1.400 . S
C1388 H1373 0.960 . S
C1388 H1374 0.960 . S
C1388 H1375 0.960 . S
C1388 C1387 1.524 . S
C1389 C1386 1.403 . S
C1389 C1390 1.392 . S
C1389 C1393 1.495 . S
C1390 C1389 1.392 . S
C1390 C1391 1.385 . S
C1390 C1392 1.478 . S
C1391 H1385 0.930 . S
C1391 C1387 1.400 . S
C1391 C1390 1.385 . S
C1392 C1390 1.478 . S
C1392 C1394 1.381 . S
C1392 C1398 1.383 . S
C1393 C1389 1.495 . S
C1393 H1399 0.959 . S
C1393 H1400 0.961 . S
C1393 H1401 0.960 . S
C1394 C1392 1.381 . S
C1394 C1395 1.394 . S
C1394 H1402 0.930 . S
C1395 C1394 1.394 . S
C1395 C1396 1.383 . S
C1395 H1403 0.929 . S
C1396 C1395 1.383 . S
C1396 C1397 1.377 . S
C1397 H1381 0.930 . S
C1397 C1396 1.377 . S
C1397 C1398 1.379 . S
C1398 H1382 0.931 . S
C1398 C1392 1.383 . S
C1398 C1397 1.379 . S
H1399 C1393 0.959 . S
H1400 C1393 0.961 . S
H1401 C1393 0.960 . S
H1402 C1394 0.930 . S
H1403 C1395 0.929 . S
H1404 C1412 0.929 . S
H1405 C1414 0.930 . S
H1406 C1416 0.930 . S
H1407 C1419 0.929 . S
H1408 C1422 0.930 . S
H1409 C1424 0.960 . S
H1410 C1424 0.960 . S
H1411 C1424 0.960 . S
C1412 H1404 0.929 . S
C1412 C1413 1.377 . S
C1412 C1414 1.384 . S
C1413 C1412 1.377 . S
C1413 C1419 1.390 . S
C1414 H1405 0.930 . S
C1414 C1412 1.384 . S
C1414 C1415 1.372 . S
C1415 C1414 1.372 . S
C1415 C1416 1.400 . S
C1415 C1420 1.490 . S
C1416 H1406 0.930 . S
C1416 C1415 1.400 . S
C1416 C1419 1.386 . S
H1417 C1433 0.930 . S
H1418 C1434 0.931 . S
C1419 H1407 0.929 . S
C1419 C1413 1.390 . S
C1419 C1416 1.386 . S
C1420 C1415 1.490 . S
C1420 C1422 1.395 . S
C1420 C1423 1.403 . S
H1421 C1427 0.930 . S
C1422 H1408 0.930 . S
C1422 C1420 1.395 . S
C1422 C1425 1.403 . S
C1423 C1420 1.403 . S
C1423 C1424 1.524 . S
C1423 C1427 1.400 . S
C1424 H1409 0.960 . S
C1424 H1410 0.960 . S
C1424 H1411 0.960 . S
C1424 C1423 1.524 . S
C1425 C1422 1.403 . S
C1425 C1426 1.392 . S
C1425 C1429 1.495 . S
C1426 C1425 1.392 . S
C1426 C1427 1.385 . S
C1426 C1428 1.478 . S
C1427 H1421 0.930 . S
C1427 C1423 1.400 . S
C1427 C1426 1.385 . S
C1428 C1426 1.478 . S
C1428 C1430 1.381 . S
C1428 C1434 1.383 . S
C1429 C1425 1.495 . S
C1429 H1435 0.959 . S
C1429 H1436 0.961 . S
C1429 H1437 0.960 . S
C1430 C1428 1.381 . S
C1430 C1431 1.394 . S
C1430 H1438 0.930 . S
C1431 C1430 1.394 . S
C1431 C1432 1.383 . S
C1431 H1439 0.929 . S
C1432 C1431 1.383 . S
C1432 C1433 1.377 . S
C1433 H1417 0.930 . S
C1433 C1432 1.377 . S
C1433 C1434 1.379 . S
C1434 H1418 0.931 . S
C1434 C1428 1.383 . S
C1434 C1433 1.379 . S
H1435 C1429 0.959 . S
H1436 C1429 0.961 . S
H1437 C1429 0.960 . S
H1438 C1430 0.930 . S
H1439 C1431 0.929 . S
H1440 C1448 0.929 . S
H1441 C1450 0.930 . S
H1442 C1452 0.930 . S
H1443 C1455 0.929 . S
H1444 C1458 0.930 . S
H1445 C1460 0.960 . S
H1446 C1460 0.960 . S
H1447 C1460 0.960 . S
C1448 H1440 0.929 . S
C1448 C1449 1.377 . S
C1448 C1450 1.384 . S
C1449 C1448 1.377 . S
C1449 C1455 1.390 . S
C1450 H1441 0.930 . S
C1450 C1448 1.384 . S
C1450 C1451 1.372 . S
C1451 C1450 1.372 . S
C1451 C1452 1.400 . S
C1451 C1456 1.490 . S
C1452 H1442 0.930 . S
C1452 C1451 1.400 . S
C1452 C1455 1.386 . S
H1453 C1469 0.930 . S
H1454 C1470 0.931 . S
C1455 H1443 0.929 . S
C1455 C1449 1.390 . S
C1455 C1452 1.386 . S
C1456 C1451 1.490 . S
C1456 C1458 1.395 . S
C1456 C1459 1.403 . S
H1457 C1463 0.930 . S
C1458 H1444 0.930 . S
C1458 C1456 1.395 . S
C1458 C1461 1.403 . S
C1459 C1456 1.403 . S
C1459 C1460 1.524 . S
C1459 C1463 1.400 . S
C1460 H1445 0.960 . S
C1460 H1446 0.960 . S
C1460 H1447 0.960 . S
C1460 C1459 1.524 . S
C1461 C1458 1.403 . S
C1461 C1462 1.392 . S
C1461 C1465 1.495 . S
C1462 C1461 1.392 . S
C1462 C1463 1.385 . S
C1462 C1464 1.478 . S
C1463 H1457 0.930 . S
C1463 C1459 1.400 . S
C1463 C1462 1.385 . S
C1464 C1462 1.478 . S
C1464 C1466 1.381 . S
C1464 C1470 1.383 . S
C1465 C1461 1.495 . S
C1465 H1471 0.959 . S
C1465 H1472 0.961 . S
C1465 H1473 0.960 . S
C1466 C1464 1.381 . S
C1466 C1467 1.394 . S
C1466 H1474 0.930 . S
C1467 C1466 1.394 . S
C1467 C1468 1.383 . S
C1467 H1475 0.929 . S
C1468 C1467 1.383 . S
C1468 C1469 1.377 . S
C1469 H1453 0.930 . S
C1469 C1468 1.377 . S
C1469 C1470 1.379 . S
C1470 H1454 0.931 . S
C1470 C1464 1.383 . S
C1470 C1469 1.379 . S
H1471 C1465 0.959 . S
H1472 C1465 0.961 . S
H1473 C1465 0.960 . S
H1474 C1466 0.930 . S
H1475 C1467 0.929 . S
H1476 C1484 0.929 . S
H1477 C1486 0.930 . S
H1478 C1488 0.930 . S
H1479 C1491 0.929 . S
H1480 C1494 0.930 . S
H1481 C1496 0.960 . S
H1482 C1496 0.960 . S
H1483 C1496 0.960 . S
C1484 H1476 0.929 . S
C1484 C1485 1.377 . S
C1484 C1486 1.384 . S
C1485 C1484 1.377 . S
C1485 C1491 1.390 . S
C1486 H1477 0.930 . S
C1486 C1484 1.384 . S
C1486 C1487 1.372 . S
C1487 C1486 1.372 . S
C1487 C1488 1.400 . S
C1487 C1492 1.490 . S
C1488 H1478 0.930 . S
C1488 C1487 1.400 . S
C1488 C1491 1.386 . S
H1489 C1505 0.930 . S
H1490 C1506 0.931 . S
C1491 H1479 0.929 . S
C1491 C1485 1.390 . S
C1491 C1488 1.386 . S
C1492 C1487 1.490 . S
C1492 C1494 1.395 . S
C1492 C1495 1.403 . S
H1493 C1499 0.930 . S
C1494 H1480 0.930 . S
C1494 C1492 1.395 . S
C1494 C1497 1.403 . S
C1495 C1492 1.403 . S
C1495 C1496 1.524 . S
C1495 C1499 1.400 . S
C1496 H1481 0.960 . S
C1496 H1482 0.960 . S
C1496 H1483 0.960 . S
C1496 C1495 1.524 . S
C1497 C1494 1.403 . S
C1497 C1498 1.392 . S
C1497 C1501 1.495 . S
C1498 C1497 1.392 . S
C1498 C1499 1.385 . S
C1498 C1500 1.478 . S
C1499 H1493 0.930 . S
C1499 C1495 1.400 . S
C1499 C1498 1.385 . S
C1500 C1498 1.478 . S
C1500 C1502 1.381 . S
C1500 C1506 1.383 . S
C1501 C1497 1.495 . S
C1501 H1507 0.959 . S
C1501 H1508 0.961 . S
C1501 H1509 0.960 . S
C1502 C1500 1.381 . S
C1502 C1503 1.394 . S
C1502 H1510 0.930 . S
C1503 C1502 1.394 . S
C1503 C1504 1.383 . S
C1503 H1511 0.929 . S
C1504 C1503 1.383 . S
C1504 C1505 1.377 . S
C1505 H1489 0.930 . S
C1505 C1504 1.377 . S
C1505 C1506 1.379 . S
C1506 H1490 0.931 . S
C1506 C1500 1.383 . S
C1506 C1505 1.379 . S
H1507 C1501 0.959 . S
H1508 C1501 0.961 . S
H1509 C1501 0.960 . S
H1510 C1502 0.930 . S
H1511 C1503 0.929 . S
H1512 C1520 0.929 . S
H1513 C1522 0.930 . S
H1514 C1524 0.930 . S
H1515 C1527 0.929 . S
H1516 C1530 0.930 . S
H1517 C1532 0.960 . S
H1518 C1532 0.960 . S
H1519 C1532 0.960 . S
C1520 H1512 0.929 . S
C1520 C1521 1.377 . S
C1520 C1522 1.384 . S
C1521 C1520 1.377 . S
C1521 C1527 1.390 . S
C1522 H1513 0.930 . S
C1522 C1520 1.384 . S
C1522 C1523 1.372 . S
C1523 C1522 1.372 . S
C1523 C1524 1.400 . S
C1523 C1528 1.490 . S
C1524 H1514 0.930 . S
C1524 C1523 1.400 . S
C1524 C1527 1.386 . S
H1525 C1541 0.930 . S
H1526 C1542 0.931 . S
C1527 H1515 0.929 . S
C1527 C1521 1.390 . S
C1527 C1524 1.386 . S
C1528 C1523 1.490 . S
C1528 C1530 1.395 . S
C1528 C1531 1.403 . S
H1529 C1535 0.930 . S
C1530 H1516 0.930 . S
C1530 C1528 1.395 . S
C1530 C1533 1.403 . S
C1531 C1528 1.403 . S
C1531 C1532 1.524 . S
C1531 C1535 1.400 . S
C1532 H1517 0.960 . S
C1532 H1518 0.960 . S
C1532 H1519 0.960 . S
C1532 C1531 1.524 . S
C1533 C1530 1.403 . S
C1533 C1534 1.392 . S
C1533 C1537 1.495 . S
C1534 C1533 1.392 . S
C1534 C1535 1.385 . S
C1534 C1536 1.478 . S
C1535 H1529 0.930 . S
C1535 C1531 1.400 . S
C1535 C1534 1.385 . S
C1536 C1534 1.478 . S
C1536 C1538 1.381 . S
C1536 C1542 1.383 . S
C1537 C1533 1.495 . S
C1537 H1543 0.959 . S
C1537 H1544 0.961 . S
C1537 H1545 0.960 . S
C1538 C1536 1.381 . S
C1538 C1539 1.394 . S
C1538 H1546 0.930 . S
C1539 C1538 1.394 . S
C1539 C1540 1.383 . S
C1539 H1547 0.929 . S
C1540 C1539 1.383 . S
C1540 C1541 1.377 . S
C1541 H1525 0.930 . S
C1541 C1540 1.377 . S
C1541 C1542 1.379 . S
C1542 H1526 0.931 . S
C1542 C1536 1.383 . S
C1542 C1541 1.379 . S
H1543 C1537 0.959 . S
H1544 C1537 0.961 . S
H1545 C1537 0.960 . S
H1546 C1538 0.930 . S
H1547 C1539 0.929 . S
H1548 C1556 0.929 . S
H1549 C1558 0.930 . S
H1550 C1560 0.930 . S
H1551 C1563 0.929 . S
H1552 C1566 0.930 . S
H1553 C1568 0.960 . S
H1554 C1568 0.960 . S
H1555 C1568 0.960 . S
C1556 H1548 0.929 . S
C1556 C1557 1.377 . S
C1556 C1558 1.384 . S
C1557 C1556 1.377 . S
C1557 C1563 1.390 . S
C1558 H1549 0.930 . S
C1558 C1556 1.384 . S
C1558 C1559 1.372 . S
C1559 C1558 1.372 . S
C1559 C1560 1.400 . S
C1559 C1564 1.490 . S
C1560 H1550 0.930 . S
C1560 C1559 1.400 . S
C1560 C1563 1.386 . S
H1561 C1577 0.930 . S
H1562 C1578 0.931 . S
C1563 H1551 0.929 . S
C1563 C1557 1.390 . S
C1563 C1560 1.386 . S
C1564 C1559 1.490 . S
C1564 C1566 1.395 . S
C1564 C1567 1.403 . S
H1565 C1571 0.930 . S
C1566 H1552 0.930 . S
C1566 C1564 1.395 . S
C1566 C1569 1.403 . S
C1567 C1564 1.403 . S
C1567 C1568 1.524 . S
C1567 C1571 1.400 . S
C1568 H1553 0.960 . S
C1568 H1554 0.960 . S
C1568 H1555 0.960 . S
C1568 C1567 1.524 . S
C1569 C1566 1.403 . S
C1569 C1570 1.392 . S
C1569 C1573 1.495 . S
C1570 C1569 1.392 . S
C1570 C1571 1.385 . S
C1570 C1572 1.478 . S
C1571 H1565 0.930 . S
C1571 C1567 1.400 . S
C1571 C1570 1.385 . S
C1572 C1570 1.478 . S
C1572 C1574 1.381 . S
C1572 C1578 1.383 . S
C1573 C1569 1.495 . S
C1573 H1579 0.959 . S
C1573 H1580 0.961 . S
C1573 H1581 0.960 . S
C1574 C1572 1.381 . S
C1574 C1575 1.394 . S
C1574 H1582 0.930 . S
C1575 C1574 1.394 . S
C1575 C1576 1.383 . S
C1575 H1583 0.929 . S
C1576 C1575 1.383 . S
C1576 C1577 1.377 . S
C1577 H1561 0.930 . S
C1577 C1576 1.377 . S
C1577 C1578 1.379 . S
C1578 H1562 0.931 . S
C1578 C1572 1.383 . S
C1578 C1577 1.379 . S
H1579 C1573 0.959 . S
H1580 C1573 0.961 . S
H1581 C1573 0.960 . S
H1582 C1574 0.930 . S
H1583 C1575 0.929 . S
H1584 C1592 0.929 . S
H1585 C1594 0.930 . S
H1586 C1596 0.930 . S
H1587 C1599 0.929 . S
H1588 C1602 0.930 . S
H1589 C1604 0.960 . S
H1590 C1604 0.960 . S
H1591 C1604 0.960 . S
C1592 H1584 0.929 . S
C1592 C1593 1.377 . S
C1592 C1594 1.384 . S
C1593 C1592 1.377 . S
C1593 C1599 1.390 . S
C1594 H1585 0.930 . S
C1594 C1592 1.384 . S
C1594 C1595 1.372 . S
C1595 C1594 1.372 . S
C1595 C1596 1.400 . S
C1595 C1600 1.490 . S
C1596 H1586 0.930 . S
C1596 C1595 1.400 . S
C1596 C1599 1.386 . S
H1597 C1613 0.930 . S
H1598 C1614 0.931 . S
C1599 H1587 0.929 . S
C1599 C1593 1.390 . S
C1599 C1596 1.386 . S
C1600 C1595 1.490 . S
C1600 C1602 1.395 . S
C1600 C1603 1.403 . S
H1601 C1607 0.930 . S
C1602 H1588 0.930 . S
C1602 C1600 1.395 . S
C1602 C1605 1.403 . S
C1603 C1600 1.403 . S
C1603 C1604 1.524 . S
C1603 C1607 1.400 . S
C1604 H1589 0.960 . S
C1604 H1590 0.960 . S
C1604 H1591 0.960 . S
C1604 C1603 1.524 . S
C1605 C1602 1.403 . S
C1605 C1606 1.392 . S
C1605 C1609 1.495 . S
C1606 C1605 1.392 . S
C1606 C1607 1.385 . S
C1606 C1608 1.478 . S
C1607 H1601 0.930 . S
C1607 C1603 1.400 . S
C1607 C1606 1.385 . S
C1608 C1606 1.478 . S
C1608 C1610 1.381 . S
C1608 C1614 1.383 . S
C1609 C1605 1.495 . S
C1609 H1615 0.959 . S
C1609 H1616 0.961 . S
C1609 H1617 0.960 . S
C1610 C1608 1.381 . S
C1610 C1611 1.394 . S
C1610 H1618 0.930 . S
C1611 C1610 1.394 . S
C1611 C1612 1.383 . S
C1611 H1619 0.929 . S
C1612 C1611 1.383 . S
C1612 C1613 1.377 . S
C1613 H1597 0.930 . S
C1613 C1612 1.377 . S
C1613 C1614 1.379 . S
C1614 H1598 0.931 . S
C1614 C1608 1.383 . S
C1614 C1613 1.379 . S
H1615 C1609 0.959 . S
H1616 C1609 0.961 . S
H1617 C1609 0.960 . S
H1618 C1610 0.930 . S
H1619 C1611 0.929 . S
H1620 C1628 0.929 . S
H1621 C1630 0.930 . S
H1622 C1632 0.930 . S
H1623 C1635 0.929 . S
H1624 C1638 0.930 . S
H1625 C1640 0.960 . S
H1626 C1640 0.960 . S
H1627 C1640 0.960 . S
C1628 H1620 0.929 . S
C1628 C1629 1.377 . S
C1628 C1630 1.384 . S
C1629 C1628 1.377 . S
C1629 C1635 1.390 . S
C1630 H1621 0.930 . S
C1630 C1628 1.384 . S
C1630 C1631 1.372 . S
C1631 C1630 1.372 . S
C1631 C1632 1.400 . S
C1631 C1636 1.490 . S
C1632 H1622 0.930 . S
C1632 C1631 1.400 . S
C1632 C1635 1.386 . S
H1633 C1649 0.930 . S
H1634 C1650 0.931 . S
C1635 H1623 0.929 . S
C1635 C1629 1.390 . S
C1635 C1632 1.386 . S
C1636 C1631 1.490 . S
C1636 C1638 1.395 . S
C1636 C1639 1.403 . S
H1637 C1643 0.930 . S
C1638 H1624 0.930 . S
C1638 C1636 1.395 . S
C1638 C1641 1.403 . S
C1639 C1636 1.403 . S
C1639 C1640 1.524 . S
C1639 C1643 1.400 . S
C1640 H1625 0.960 . S
C1640 H1626 0.960 . S
C1640 H1627 0.960 . S
C1640 C1639 1.524 . S
C1641 C1638 1.403 . S
C1641 C1642 1.392 . S
C1641 C1645 1.495 . S
C1642 C1641 1.392 . S
C1642 C1643 1.385 . S
C1642 C1644 1.478 . S
C1643 H1637 0.930 . S
C1643 C1639 1.400 . S
C1643 C1642 1.385 . S
C1644 C1642 1.478 . S
C1644 C1646 1.381 . S
C1644 C1650 1.383 . S
C1645 C1641 1.495 . S
C1645 H1651 0.959 . S
C1645 H1652 0.961 . S
C1645 H1653 0.960 . S
C1646 C1644 1.381 . S
C1646 C1647 1.394 . S
C1646 H1654 0.930 . S
C1647 C1646 1.394 . S
C1647 C1648 1.383 . S
C1647 H1655 0.929 . S
C1648 C1647 1.383 . S
C1648 C1649 1.377 . S
C1649 H1633 0.930 . S
C1649 C1648 1.377 . S
C1649 C1650 1.379 . S
C1650 H1634 0.931 . S
C1650 C1644 1.383 . S
C1650 C1649 1.379 . S
H1651 C1645 0.959 . S
H1652 C1645 0.961 . S
H1653 C1645 0.960 . S
H1654 C1646 0.930 . S
H1655 C1647 0.929 . S
H1656 C1664 0.929 . S
H1657 C1666 0.930 . S
H1658 C1668 0.930 . S
H1659 C1671 0.929 . S
H1660 C1674 0.930 . S
H1661 C1676 0.960 . S
H1662 C1676 0.960 . S
H1663 C1676 0.960 . S
C1664 H1656 0.929 . S
C1664 C1665 1.377 . S
C1664 C1666 1.384 . S
C1665 C1664 1.377 . S
C1665 C1671 1.390 . S
C1666 H1657 0.930 . S
C1666 C1664 1.384 . S
C1666 C1667 1.372 . S
C1667 C1666 1.372 . S
C1667 C1668 1.400 . S
C1667 C1672 1.490 . S
C1668 H1658 0.930 . S
C1668 C1667 1.400 . S
C1668 C1671 1.386 . S
H1669 C1685 0.930 . S
H1670 C1686 0.931 . S
C1671 H1659 0.929 . S
C1671 C1665 1.390 . S
C1671 C1668 1.386 . S
C1672 C1667 1.490 . S
C1672 C1674 1.395 . S
C1672 C1675 1.403 . S
H1673 C1679 0.930 . S
C1674 H1660 0.930 . S
C1674 C1672 1.395 . S
C1674 C1677 1.403 . S
C1675 C1672 1.403 . S
C1675 C1676 1.524 . S
C1675 C1679 1.400 . S
C1676 H1661 0.960 . S
C1676 H1662 0.960 . S
C1676 H1663 0.960 . S
C1676 C1675 1.524 . S
C1677 C1674 1.403 . S
C1677 C1678 1.392 . S
C1677 C1681 1.495 . S
C1678 C1677 1.392 . S
C1678 C1679 1.385 . S
C1678 C1680 1.478 . S
C1679 H1673 0.930 . S
C1679 C1675 1.400 . S
C1679 C1678 1.385 . S
C1680 C1678 1.478 . S
C1680 C1682 1.381 . S
C1680 C1686 1.383 . S
C1681 C1677 1.495 . S
C1681 H1687 0.959 . S
C1681 H1688 0.961 . S
C1681 H1689 0.960 . S
C1682 C1680 1.381 . S
C1682 C1683 1.394 . S
C1682 H1690 0.930 . S
C1683 C1682 1.394 . S
C1683 C1684 1.383 . S
C1683 H1691 0.929 . S
C1684 C1683 1.383 . S
C1684 C1685 1.377 . S
C1685 H1669 0.930 . S
C1685 C1684 1.377 . S
C1685 C1686 1.379 . S
C1686 H1670 0.931 . S
C1686 C1680 1.383 . S
C1686 C1685 1.379 . S
H1687 C1681 0.959 . S
H1688 C1681 0.961 . S
H1689 C1681 0.960 . S
H1690 C1682 0.930 . S
H1691 C1683 0.929 . S
H1692 C1700 0.929 . S
H1693 C1702 0.930 . S
H1694 C1704 0.930 . S
H1695 C1707 0.929 . S
H1696 C1710 0.930 . S
H1697 C1712 0.960 . S
H1698 C1712 0.960 . S
H1699 C1712 0.960 . S
C1700 H1692 0.929 . S
C1700 C1701 1.377 . S
C1700 C1702 1.384 . S
C1701 C1700 1.377 . S
C1701 C1707 1.390 . S
C1702 H1693 0.930 . S
C1702 C1700 1.384 . S
C1702 C1703 1.372 . S
C1703 C1702 1.372 . S
C1703 C1704 1.400 . S
C1703 C1708 1.490 . S
C1704 H1694 0.930 . S
C1704 C1703 1.400 . S
C1704 C1707 1.386 . S
H1705 C1721 0.930 . S
H1706 C1722 0.931 . S
C1707 H1695 0.929 . S
C1707 C1701 1.390 . S
C1707 C1704 1.386 . S
C1708 C1703 1.490 . S
C1708 C1710 1.395 . S
C1708 C1711 1.403 . S
H1709 C1715 0.930 . S
C1710 H1696 0.930 . S
C1710 C1708 1.395 . S
C1710 C1713 1.403 . S
C1711 C1708 1.403 . S
C1711 C1712 1.524 . S
C1711 C1715 1.400 . S
C1712 H1697 0.960 . S
C1712 H1698 0.960 . S
C1712 H1699 0.960 . S
C1712 C1711 1.524 . S
C1713 C1710 1.403 . S
C1713 C1714 1.392 . S
C1713 C1717 1.495 . S
C1714 C1713 1.392 . S
C1714 C1715 1.385 . S
C1714 C1716 1.478 . S
C1715 H1709 0.930 . S
C1715 C1711 1.400 . S
C1715 C1714 1.385 . S
C1716 C1714 1.478 . S
C1716 C1718 1.381 . S
C1716 C1722 1.383 . S
C1717 C1713 1.495 . S
C1717 H1723 0.959 . S
C1717 H1724 0.961 . S
C1717 H1725 0.960 . S
C1718 C1716 1.381 . S
C1718 C1719 1.394 . S
C1718 H1726 0.930 . S
C1719 C1718 1.394 . S
C1719 C1720 1.383 . S
C1719 H1727 0.929 . S
C1720 C1719 1.383 . S
C1720 C1721 1.377 . S
C1721 H1705 0.930 . S
C1721 C1720 1.377 . S
C1721 C1722 1.379 . S
C1722 H1706 0.931 . S
C1722 C1716 1.383 . S
C1722 C1721 1.379 . S
H1723 C1717 0.959 . S
H1724 C1717 0.961 . S
H1725 C1717 0.960 . S
H1726 C1718 0.930 . S
H1727 C1719 0.929 . S
H1728 C1736 0.929 . S
H1729 C1738 0.930 . S
H1730 C1740 0.930 1_556 S
H1731 C1743 0.929 . S
H1732 C1746 0.891 1_554 S
H1733 C1748 0.960 . S
H1734 C1748 0.960 . S
H1735 C1748 0.960 . S
C1736 H1728 0.929 . S
C1736 C1737 1.377 . S
C1736 C1738 1.384 . S
C1737 C1736 1.377 . S
C1737 C1743 1.390 . S
C1738 H1729 0.930 . S
C1738 C1736 1.384 . S
C1738 C1739 1.372 . S
C1739 C1738 1.372 . S
C1739 C1740 1.400 . S
C1739 C1744 1.490 1_554 S
C1740 H1730 0.930 1_554 S
C1740 C1739 1.400 . S
C1740 C1743 1.386 . S
H1741 C1757 0.930 . S
H1742 C1758 0.931 . S
C1743 H1731 0.929 . S
C1743 C1737 1.390 . S
C1743 C1740 1.386 . S
C1744 C1739 1.490 1_556 S
C1744 C1746 1.405 . S
C1744 C1747 1.403 . S
H1745 C1751 0.930 . S
C1746 H1732 0.891 1_556 S
C1746 C1744 1.405 . S
C1746 C1749 1.433 . S
C1747 C1744 1.403 . S
C1747 C1748 1.524 . S
C1747 C1751 1.400 . S
C1748 H1733 0.960 . S
C1748 H1734 0.960 . S
C1748 H1735 0.960 . S
C1748 C1747 1.524 . S
C1749 C1746 1.433 . S
C1749 C1750 1.392 . S
C1749 C1753 1.495 . S
C1750 C1749 1.392 . S
C1750 C1751 1.385 . S
C1750 C1752 1.478 . S
C1751 H1745 0.930 . S
C1751 C1747 1.400 . S
C1751 C1750 1.385 . S
C1752 C1750 1.478 . S
C1752 C1754 1.381 . S
C1752 C1758 1.383 . S
C1753 C1749 1.495 . S
C1753 H1759 0.959 1_556 S
C1753 H1760 0.961 . S
C1753 H1761 0.960 . S
C1754 C1752 1.381 . S
C1754 C1755 1.394 . S
C1754 H1762 0.930 . S
C1755 C1754 1.394 . S
C1755 C1756 1.383 . S
C1755 H1763 0.929 . S
C1756 C1755 1.383 . S
C1756 C1757 1.377 . S
C1757 H1741 0.930 . S
C1757 C1756 1.377 . S
C1757 C1758 1.379 . S
C1758 H1742 0.931 . S
C1758 C1752 1.383 . S
C1758 C1757 1.379 . S
H1759 C1753 0.959 1_554 S
H1760 C1753 0.961 . S
H1761 C1753 0.960 . S
H1762 C1754 0.930 . S
H1763 C1755 0.929 . S
H1764 C1772 0.929 . S
H1765 C1774 0.930 . S
H1766 C1776 0.930 . S
H1767 C1779 0.929 . S
H1768 C1782 0.930 . S
H1769 C1784 0.960 . S
H1770 C1784 0.960 . S
H1771 C1784 0.960 . S
C1772 H1764 0.929 . S
C1772 C1773 1.377 . S
C1772 C1774 1.384 . S
C1773 C1772 1.377 . S
C1773 C1779 1.390 . S
C1774 H1765 0.930 . S
C1774 C1772 1.384 . S
C1774 C1775 1.372 . S
C1775 C1774 1.372 . S
C1775 C1776 1.400 . S
C1775 C1780 1.490 . S
C1776 H1766 0.930 . S
C1776 C1775 1.400 . S
C1776 C1779 1.386 . S
H1777 C1793 0.930 . S
H1778 C1794 0.931 . S
C1779 H1767 0.929 . S
C1779 C1773 1.390 . S
C1779 C1776 1.386 . S
C1780 C1775 1.490 . S
C1780 C1782 1.395 . S
C1780 C1783 1.403 . S
H1781 C1787 0.930 . S
C1782 H1768 0.930 . S
C1782 C1780 1.395 . S
C1782 C1785 1.403 . S
C1783 C1780 1.403 . S
C1783 C1784 1.524 . S
C1783 C1787 1.400 . S
C1784 H1769 0.960 . S
C1784 H1770 0.960 . S
C1784 H1771 0.960 . S
C1784 C1783 1.524 . S
C1785 C1782 1.403 . S
C1785 C1786 1.392 . S
C1785 C1789 1.495 . S
C1786 C1785 1.392 . S
C1786 C1787 1.385 . S
C1786 C1788 1.478 . S
C1787 H1781 0.930 . S
C1787 C1783 1.400 . S
C1787 C1786 1.385 . S
C1788 C1786 1.478 . S
C1788 C1790 1.381 . S
C1788 C1794 1.383 . S
C1789 C1785 1.495 . S
C1789 H1795 0.959 . S
C1789 H1796 0.961 . S
C1789 H1797 0.960 . S
C1790 C1788 1.381 . S
C1790 C1791 1.394 . S
C1790 H1798 0.930 . S
C1791 C1790 1.394 . S
C1791 C1792 1.383 . S
C1791 H1799 0.929 . S
C1792 C1791 1.383 . S
C1792 C1793 1.377 . S
C1793 H1777 0.930 . S
C1793 C1792 1.377 . S
C1793 C1794 1.379 . S
C1794 H1778 0.931 . S
C1794 C1788 1.383 . S
C1794 C1793 1.379 . S
H1795 C1789 0.959 . S
H1796 C1789 0.961 . S
H1797 C1789 0.960 . S
H1798 C1790 0.930 . S
H1799 C1791 0.929 . S
H1800 C1808 0.929 . S
H1801 C1810 0.930 . S
H1802 C1812 0.930 . S
H1803 C1815 0.929 . S
H1804 C1818 0.930 . S
H1805 C1820 0.960 . S
H1806 C1820 0.960 . S
H1807 C1820 0.960 . S
C1808 H1800 0.929 . S
C1808 C1809 1.377 . S
C1808 C1810 1.384 . S
C1809 C1808 1.377 . S
C1809 C1815 1.390 . S
C1810 H1801 0.930 . S
C1810 C1808 1.384 . S
C1810 C1811 1.372 . S
C1811 C1810 1.372 . S
C1811 C1812 1.400 . S
C1811 C1816 1.490 . S
C1812 H1802 0.930 . S
C1812 C1811 1.400 . S
C1812 C1815 1.386 . S
H1813 C1829 0.930 . S
H1814 C1830 0.931 . S
C1815 H1803 0.929 . S
C1815 C1809 1.390 . S
C1815 C1812 1.386 . S
C1816 C1811 1.490 . S
C1816 C1818 1.395 . S
C1816 C1819 1.403 . S
H1817 C1823 0.930 . S
C1818 H1804 0.930 . S
C1818 C1816 1.395 . S
C1818 C1821 1.403 . S
C1819 C1816 1.403 . S
C1819 C1820 1.524 . S
C1819 C1823 1.400 . S
C1820 H1805 0.960 . S
C1820 H1806 0.960 . S
C1820 H1807 0.960 . S
C1820 C1819 1.524 . S
C1821 C1818 1.403 . S
C1821 C1822 1.392 . S
C1821 C1825 1.495 . S
C1822 C1821 1.392 . S
C1822 C1823 1.385 . S
C1822 C1824 1.478 . S
C1823 H1817 0.930 . S
C1823 C1819 1.400 . S
C1823 C1822 1.385 . S
C1824 C1822 1.478 . S
C1824 C1826 1.381 . S
C1824 C1830 1.383 . S
C1825 C1821 1.495 . S
C1825 H1831 0.959 . S
C1825 H1832 0.961 . S
C1825 H1833 0.960 . S
C1826 C1824 1.381 . S
C1826 C1827 1.394 . S
C1826 H1834 0.930 . S
C1827 C1826 1.394 . S
C1827 C1828 1.383 . S
C1827 H1835 0.929 . S
C1828 C1827 1.383 . S
C1828 C1829 1.377 . S
C1829 H1813 0.930 . S
C1829 C1828 1.377 . S
C1829 C1830 1.379 . S
C1830 H1814 0.931 . S
C1830 C1824 1.383 . S
C1830 C1829 1.379 . S
H1831 C1825 0.959 . S
H1832 C1825 0.961 . S
H1833 C1825 0.960 . S
H1834 C1826 0.930 . S
H1835 C1827 0.929 . S
H1836 C1844 0.929 . S
H1837 C1846 0.930 . S
H1838 C1848 0.930 . S
H1839 C1851 0.929 . S
H1840 C1854 0.930 . S
H1841 C1856 0.960 . S
H1842 C1856 0.960 . S
H1843 C1856 0.960 . S
C1844 H1836 0.929 . S
C1844 C1845 1.377 . S
C1844 C1846 1.384 . S
C1845 C1844 1.377 . S
C1845 C1851 1.390 . S
C1846 H1837 0.930 . S
C1846 C1844 1.384 . S
C1846 C1847 1.372 . S
C1847 C1846 1.372 . S
C1847 C1848 1.400 . S
C1847 C1852 1.490 . S
C1848 H1838 0.930 . S
C1848 C1847 1.400 . S
C1848 C1851 1.386 . S
H1849 C1865 0.930 . S
H1850 C1866 0.931 . S
C1851 H1839 0.929 . S
C1851 C1845 1.390 . S
C1851 C1848 1.386 . S
C1852 C1847 1.490 . S
C1852 C1854 1.395 . S
C1852 C1855 1.403 . S
H1853 C1859 0.930 . S
C1854 H1840 0.930 . S
C1854 C1852 1.395 . S
C1854 C1857 1.403 . S
C1855 C1852 1.403 . S
C1855 C1856 1.524 . S
C1855 C1859 1.400 . S
C1856 H1841 0.960 . S
C1856 H1842 0.960 . S
C1856 H1843 0.960 . S
C1856 C1855 1.524 . S
C1857 C1854 1.403 . S
C1857 C1858 1.392 . S
C1857 C1861 1.495 . S
C1858 C1857 1.392 . S
C1858 C1859 1.385 . S
C1858 C1860 1.478 . S
C1859 H1853 0.930 . S
C1859 C1855 1.400 . S
C1859 C1858 1.385 . S
C1860 C1858 1.478 . S
C1860 C1862 1.381 . S
C1860 C1866 1.383 . S
C1861 C1857 1.495 . S
C1861 H1867 0.959 . S
C1861 H1868 0.961 . S
C1861 H1869 0.960 . S
C1862 C1860 1.381 . S
C1862 C1863 1.394 . S
C1862 H1870 0.930 . S
C1863 C1862 1.394 . S
C1863 C1864 1.383 . S
C1863 H1871 0.929 . S
C1864 C1863 1.383 . S
C1864 C1865 1.377 . S
C1865 H1849 0.930 . S
C1865 C1864 1.377 . S
C1865 C1866 1.379 . S
C1866 H1850 0.931 . S
C1866 C1860 1.383 . S
C1866 C1865 1.379 . S
H1867 C1861 0.959 . S
H1868 C1861 0.961 . S
H1869 C1861 0.960 . S
H1870 C1862 0.930 . S
H1871 C1863 0.929 . S
C748 C641 1.946 . S
C729 C69 1.991 . S
C765 C125 0.570 . S
C784 C673 0.606 . S
C801 C217 1.977 . S
C820 C696 1.978 . S
C856 C600 1.481 . S
C837 C261 1.426 . S
C892 C683 1.541 . S
C873 C39 1.622 . S
C928 C712 1.665 . S
C909 C137 1.709 . S
C964 C616 1.582 . S
C945 C187 1.661 . S
C1000 C651 1.966 . S
C981 C291 2.149 . S
C1017 C51 0.545 . S
C1036 C679 0.647 . S
C1053 C365 2.066 . S
C1072 C654 1.904 . S
C1089 C199 0.609 . S
C1108 C622 0.573 . S
C1144 C711 1.649 . S
C1125 C439 1.828 . S
C1180 C655 1.673 . S
C1161 C63 1.595 . S
C1197 C335 1.435 . S
C1216 C623 1.473 . S
C1233 C211 1.572 . S
C1252 C710 1.670 . S
C1288 C678 1.755 . S
C1269 C409 1.719 . S
C1305 C495 0.575 . S
C1324 C705 0.635 . S
C1341 C347 0.748 . S
C1360 C609 0.759 . S
C1377 C587 1.930 . S
C1396 C632 1.930 . S
C1413 C421 0.571 . S
C1432 C664 0.605 . S
C1468 C619 1.491 . S
C1449 C507 1.615 . S
C1485 C359 1.424 . S
C1504 C648 1.389 . S
C1521 C557 1.656 . S
C1540 C680 1.594 . S
C1576 C715 1.491 . S
C1557 C433 1.619 . S
C1593 C513 1.924 . S
C1612 C615 1.795 . S
C1629 C143 1.853 . S
C1648 C718 1.709 . S
C1665 C569 0.571 . S
C1684 C686 0.689 . S
C1720 C647 1.234 . S
C1701 C285 1.334 . S
C1756 C719 1.556 . S
C1737 C483 1.545 . S
C1792 C687 1.736 . S
C1773 C113 1.720 . S
C1828 C646 1.627 . S
C1809 C581 1.539 . S
C1864 C614 0.893 . S
C1845 C273 0.885 . S
