# Generated by pormake.
# Topology pyr, (3,6)-cn, num edge types: 1
# Building blocks:
#     Node 0, Type 0, BuildingBlock: QEWDON_clean_linker_0, # of connection points: 3
#     Node 1, Type 0, BuildingBlock: QEWDON_clean_linker_0, # of connection points: 3
#     Node 2, Type 0, BuildingBlock: QEWDON_clean_linker_0, # of connection points: 3
#     Node 3, Type 0, BuildingBlock: QEWDON_clean_linker_0, # of connection points: 3
#     Node 4, Type 0, BuildingBlock: QEWDON_clean_linker_0, # of connection points: 3
#     Node 5, Type 0, BuildingBlock: QEWDON_clean_linker_0, # of connection points: 3
#     Node 6, Type 0, BuildingBlock: QEWDON_clean_linker_0, # of connection points: 3
#     Node 7, Type 0, BuildingBlock: QEWDON_clean_linker_0, # of connection points: 3
#     Node 8, Type 1, BuildingBlock: INOVEN_clean_sbu_0, # of connection points: 6
#     Node 9, Type 1, BuildingBlock: INOVEN_clean_sbu_0, # of connection points: 6
#     Node 10, Type 1, BuildingBlock: INOVEN_clean_sbu_0, # of connection points: 6
#     Node 11, Type 1, BuildingBlock: INOVEN_clean_sbu_0, # of connection points: 6
#     Edge 12, Type (0, 1), BuildingBlock: XUDNAN_clean_linker_2, # of connection points: 2
#     Edge 13, Type (0, 1), BuildingBlock: XUDNAN_clean_linker_2, # of connection points: 2
#     Edge 14, Type (0, 1), BuildingBlock: XUDNAN_clean_linker_2, # of connection points: 2
#     Edge 15, Type (0, 1), BuildingBlock: XUDNAN_clean_linker_2, # of connection points: 2
#     Edge 16, Type (0, 1), BuildingBlock: XUDNAN_clean_linker_2, # of connection points: 2
#     Edge 17, Type (0, 1), BuildingBlock: XUDNAN_clean_linker_2, # of connection points: 2
#     Edge 18, Type (0, 1), BuildingBlock: XUDNAN_clean_linker_2, # of connection points: 2
#     Edge 19, Type (0, 1), BuildingBlock: XUDNAN_clean_linker_2, # of connection points: 2
#     Edge 20, Type (0, 1), BuildingBlock: XUDNAN_clean_linker_2, # of connection points: 2
#     Edge 21, Type (0, 1), BuildingBlock: XUDNAN_clean_linker_2, # of connection points: 2
#     Edge 22, Type (0, 1), BuildingBlock: XUDNAN_clean_linker_2, # of connection points: 2
#     Edge 23, Type (0, 1), BuildingBlock: XUDNAN_clean_linker_2, # of connection points: 2
#     Edge 24, Type (0, 1), BuildingBlock: XUDNAN_clean_linker_2, # of connection points: 2
#     Edge 25, Type (0, 1), BuildingBlock: XUDNAN_clean_linker_2, # of connection points: 2
#     Edge 26, Type (0, 1), BuildingBlock: XUDNAN_clean_linker_2, # of connection points: 2
#     Edge 27, Type (0, 1), BuildingBlock: XUDNAN_clean_linker_2, # of connection points: 2
#     Edge 28, Type (0, 1), BuildingBlock: XUDNAN_clean_linker_2, # of connection points: 2
#     Edge 29, Type (0, 1), BuildingBlock: XUDNAN_clean_linker_2, # of connection points: 2
#     Edge 30, Type (0, 1), BuildingBlock: XUDNAN_clean_linker_2, # of connection points: 2
#     Edge 31, Type (0, 1), BuildingBlock: XUDNAN_clean_linker_2, # of connection points: 2
#     Edge 32, Type (0, 1), BuildingBlock: XUDNAN_clean_linker_2, # of connection points: 2
#     Edge 33, Type (0, 1), BuildingBlock: XUDNAN_clean_linker_2, # of connection points: 2
#     Edge 34, Type (0, 1), BuildingBlock: XUDNAN_clean_linker_2, # of connection points: 2
#     Edge 35, Type (0, 1), BuildingBlock: XUDNAN_clean_linker_2, # of connection points: 2
# Relax obj value: 0.166
# Max RMSD: 0.266
# Mean RMSD: 0.196
data_MOF--net-pyr--node1-INOVEN_clean_sbu_0--node2-QEWDON_clean_linker_0--edge1-XUDNAN_clean_linker_2
_symmetry_space_group_name_H-M    P1
_symmetry_Int_Tables_number       1
_symmetry_cell_setting            triclinic
loop_
_symmetry_equiv_pos_as_xyz
'x, y, z'
_cell_length_a     38.284887
_cell_length_b     41.993729
_cell_length_c     39.880333
_cell_angle_alpha  91.875798
_cell_angle_beta   89.577902
_cell_angle_gamma 109.11139
loop_
_atom_site_label
_atom_site_type_symbol
_atom_site_fract_x
_atom_site_fract_y
_atom_site_fract_z
_atom_type_partial_charge
H0 H 0.42043 0.34023 0.19512 0.0
C1 C 0.40725 0.32711 0.21719 0.0
C2 C 0.41132 0.29604 0.22428 0.0
C3 C 0.38432 0.3402 0.23697 0.0
H4 H 0.39731 0.255 0.25784 0.0
C5 C 0.39362 0.27878 0.25239 0.0
C6 C 0.36887 0.29032 0.27153 0.0
C7 C 0.36489 0.32148 0.26383 0.0
C8 C 0.37788 0.37163 0.22712 0.0
H9 H 0.34565 0.33074 0.27779 0.0
C10 C 0.34169 0.37293 0.225 0.0
C11 C 0.33483 0.40115 0.21192 0.0
C12 C 0.40762 0.39961 0.21751 0.0
H13 H 0.43577 0.39938 0.21913 0.0
C14 C 0.40129 0.428 0.20537 0.0
H15 H 0.31886 0.35145 0.23272 0.0
C16 C 0.36526 0.42869 0.20217 0.0
H17 H 0.36145 0.45055 0.19118 0.0
H18 H 0.42438 0.44931 0.1977 0.0
H19 H 0.20486 0.85674 0.7506 0.0
C20 C 0.22058 0.84312 0.7372 0.0
C21 C 0.251 0.83796 0.75278 0.0
C22 C 0.20956 0.82961 0.7048 0.0
H23 H 0.29428 0.81597 0.74736 0.0
C24 C 0.27083 0.81991 0.73529 0.0
C25 C 0.26102 0.80728 0.7024 0.0
C26 C 0.23001 0.812 0.68751 0.0
C27 C 0.17636 0.83326 0.68887 0.0
H28 H 0.22213 0.80272 0.66206 0.0
C29 C 0.17289 0.86528 0.68513 0.0
C30 C 0.14244 0.86865 0.6678 0.0
C31 C 0.14863 0.80455 0.67602 0.0
H32 H 0.15073 0.77965 0.67874 0.0
C33 C 0.11795 0.80771 0.65962 0.0
H34 H 0.19464 0.88754 0.69435 0.0
C35 C 0.1149 0.83953 0.65533 0.0
H36 H 0.09098 0.84139 0.64225 0.0
H37 H 0.09663 0.78545 0.64989 0.0
H38 H 0.72159 0.45716 0.88299 0.0
C39 C 0.70791 0.43208 0.89199 0.0
C40 C 0.72663 0.41798 0.91507 0.0
C41 C 0.67116 0.41405 0.88126 0.0
H42 H 0.72141 0.37482 0.94558 0.0
C43 C 0.70788 0.38542 0.92731 0.0
C44 C 0.6713 0.36703 0.91784 0.0
C45 C 0.65364 0.38153 0.89459 0.0
C46 C 0.64787 0.4299 0.86075 0.0
H47 H 0.62537 0.36756 0.88745 0.0
C48 C 0.65812 0.4465 0.82931 0.0
C49 C 0.63204 0.45745 0.81082 0.0
C50 C 0.61252 0.42673 0.87345 0.0
H51 H 0.60379 0.41546 0.89747 0.0
C52 C 0.5876 0.43765 0.85581 0.0
H53 H 0.68527 0.44987 0.81897 0.0
C54 C 0.597 0.45239 0.8249 0.0
H55 H 0.57674 0.46068 0.81215 0.0
H56 H 0.56055 0.43459 0.86625 0.0
H57 H 0.93817 0.81052 0.38505 0.0
C58 C 0.91333 0.79213 0.39447 0.0
C59 C 0.89961 0.79817 0.42622 0.0
C60 C 0.8951 0.76277 0.37445 0.0
H61 H 0.85487 0.7801 0.46096 0.0
C62 C 0.86639 0.77458 0.43749 0.0
C63 C 0.84695 0.74521 0.41832 0.0
C64 C 0.86224 0.73942 0.38694 0.0
C65 C 0.90625 0.76068 0.3381 0.0
H66 H 0.84784 0.71748 0.37141 0.0
C67 C 0.91599 0.73338 0.32264 0.0
C68 C 0.92603 0.73379 0.28771 0.0
C69 C 0.9062 0.78754 0.31813 0.0
H70 H 0.89866 0.80848 0.32874 0.0
C71 C 0.91471 0.78763 0.2842 0.0
H72 H 0.91648 0.71263 0.33781 0.0
C73 C 0.92415 0.76122 0.26918 0.0
H74 H 0.9293 0.7623 0.24247 0.0
H75 H 0.91367 0.80835 0.26924 0.0
H76 H 0.70111 0.77905 0.94983 0.0
C77 C 0.71357 0.79349 0.92824 0.0
C78 C 0.74938 0.79525 0.91821 0.0
C79 C 0.69446 0.81173 0.91174 0.0
H80 H 0.79404 0.81799 0.88446 0.0
C81 C 0.76566 0.81509 0.89089 0.0
C82 C 0.74655 0.83303 0.87352 0.0
C83 C 0.7106 0.8306 0.88394 0.0
C84 C 0.65981 0.81452 0.92612 0.0
H85 H 0.69515 0.84396 0.87097 0.0
C86 C 0.65722 0.8466 0.93359 0.0
C87 C 0.62623 0.85024 0.95035 0.0
C88 C 0.63054 0.78574 0.93468 0.0
H89 H 0.63206 0.76078 0.92928 0.0
C90 C 0.59913 0.78907 0.95038 0.0
H91 H 0.67993 0.86879 0.92704 0.0
C92 C 0.59699 0.82104 0.95838 0.0
H93 H 0.57287 0.82281 0.97163 0.0
H94 H 0.57663 0.76677 0.95696 0.0
H95 H 0.78801 0.19139 0.54772 0.0
C96 C 0.77581 0.18956 0.52304 0.0
C97 C 0.78856 0.17388 0.49604 0.0
C98 C 0.74715 0.20298 0.51861 0.0
H99 H 0.78041 0.15922 0.44332 0.0
C100 C 0.77123 0.17118 0.46447 0.0
C101 C 0.74132 0.18312 0.46008 0.0
C102 C 0.73 0.19952 0.48714 0.0
C103 C 0.73473 0.22046 0.54686 0.0
H104 H 0.70734 0.20927 0.48384 0.0
C105 C 0.72878 0.25126 0.54181 0.0
C106 C 0.71572 0.26754 0.56794 0.0
C107 C 0.72806 0.20632 0.5787 0.0
H108 H 0.7322 0.18252 0.58323 0.0
C109 C 0.71507 0.22243 0.60477 0.0
H110 H 0.73402 0.26245 0.51738 0.0
C111 C 0.70866 0.25278 0.59943 0.0
H112 H 0.69859 0.26489 0.61995 0.0
H113 H 0.70974 0.21126 0.62915 0.0
H114 H 0.44078 0.81891 0.23477 0.0
C115 C 0.41502 0.80149 0.22499 0.0
C116 C 0.39564 0.81275 0.20033 0.0
C117 C 0.40288 0.76776 0.23605 0.0
H118 H 0.34808 0.79765 0.16759 0.0
C119 C 0.36274 0.7894 0.18679 0.0
C120 C 0.34885 0.75562 0.1977 0.0
C121 C 0.3693 0.74551 0.2227 0.0
C122 C 0.42958 0.75478 0.2552 0.0
H123 H 0.35999 0.7198 0.23098 0.0
C124 C 0.42202 0.73662 0.28598 0.0
C125 C 0.4497 0.72518 0.3013 0.0
C126 C 0.46461 0.76076 0.24068 0.0
H127 H 0.47145 0.77386 0.21732 0.0
C128 C 0.4913 0.74986 0.25539 0.0
H129 H 0.39528 0.7316 0.29777 0.0
C130 C 0.4841 0.73253 0.28512 0.0
H131 H 0.50626 0.7254 0.29587 0.0
H132 H 0.51808 0.75505 0.24361 0.0
H133 H 0.2545 0.47731 0.74104 0.0
C134 C 0.23939 0.45228 0.73113 0.0
C135 C 0.25213 0.43981 0.70169 0.0
C136 C 0.20959 0.43214 0.75006 0.0
H137 H 0.24201 0.39631 0.66786 0.0
C138 C 0.23206 0.40669 0.6897 0.0
C139 C 0.20135 0.38573 0.70764 0.0
C140 C 0.19059 0.39907 0.73784 0.0
C141 C 0.20743 0.44199 0.78656 0.0
H142 H 0.16863 0.38307 0.753 0.0
C143 C 0.18089 0.45585 0.80085 0.0
C144 C 0.18399 0.46739 0.83531 0.0
C145 C 0.23562 0.43908 0.80734 0.0
H146 H 0.25615 0.42869 0.79734 0.0
C147 C 0.23833 0.44989 0.84085 0.0
H148 H 0.15893 0.45839 0.78534 0.0
C149 C 0.21308 0.46402 0.8546 0.0
H150 H 0.21605 0.472 0.88085 0.0
H151 H 0.2604 0.44745 0.85629 0.0
Gd152 Gd 0.06334 0.09844 0.54548 0.0
Gd153 Gd 0.03443 0.07376 0.61262 0.0
C154 C 0.08582 0.1504 0.61157 0.0
C155 C 0.08256 0.13021 0.49032 0.0
C156 C 0.11784 0.14917 0.47478 0.0
C157 C 0.14937 0.13971 0.47952 0.0
C158 C 0.11947 0.17512 0.45297 0.0
C159 C 0.18229 0.17906 0.4377 0.0
C160 C 0.15164 0.19016 0.43464 0.0
C161 C 0.18124 0.15435 0.46089 0.0
C162 C 0.10686 0.0709 0.57933 0.0
C163 C 1.01486 0.02037 0.54811 0.0
C164 C 1.01503 0.04184 0.66771 0.0
C165 C 0.9818 0.01706 0.68131 0.0
C166 C 0.94643 1.01515 0.67025 0.0
C167 C 0.98538 0.99637 0.707 0.0
C168 C 0.91849 0.97425 0.71268 0.0
C169 C 0.95396 0.97502 0.72253 0.0
C170 C 0.91501 0.99401 0.68593 0.0
C171 C 0.9901 0.09967 0.57728 0.0
O172 O 0.07951 0.14765 0.57864 0.0
O173 O 0.07653 0.12288 0.62936 0.0
O174 O 0.07661 0.09796 0.49293 0.0
O175 O 0.07272 0.14392 0.51708 0.0
O176 O 0.10375 0.06951 0.54702 0.0
O177 O 0.09002 0.08962 0.59149 0.0
O178 O 0.02025 0.02495 0.58097 0.0
O179 O 0.02362 0.04685 0.52866 0.0
O180 O 1.01284 0.07177 0.66292 0.0
O181 O 0.03177 0.03119 0.64328 0.0
O182 O 0.99437 0.10321 0.60947 0.0
O183 O 1.00721 0.08091 0.56586 0.0
H184 H 0.14885 0.11998 0.49655 0.0
H185 H 0.09543 0.18278 0.44911 0.0
H186 H 0.15183 0.20906 0.41671 0.0
H187 H 0.20467 0.14557 0.46373 0.0
H188 H 0.94315 0.03073 0.65017 0.0
H189 H 1.0125 0.9975 0.71576 0.0
H190 H 0.9575 0.96031 0.74326 0.0
H191 H 0.888 0.99361 0.6776 0.0
Gd192 Gd 0.56088 0.09925 0.08771 0.0
Gd193 Gd 0.50695 0.08336 0.03891 0.0
C194 C 0.49959 0.13235 0.10093 0.0
C195 C 0.6202 0.11609 0.12457 0.0
C196 C 0.62967 0.12668 0.15975 0.0
C197 C 0.60781 0.14116 0.17926 0.0
C198 C 0.65995 0.12072 0.17448 0.0
C199 C 0.64599 0.14274 0.22837 0.0
C200 C 0.66806 0.12865 0.20847 0.0
C201 C 0.616 0.14926 0.21323 0.0
C202 C 0.50263 0.04475 0.10701 0.0
C203 C 0.56688 0.05068 0.02705 0.0
C204 C 0.44793 0.06468 1.00178 0.0
C205 C 0.4245 0.03551 0.98158 0.0
C206 C 0.42166 0.03885 0.94693 0.0
C207 C 0.40404 1.005 0.99613 0.0
C208 C 0.37819 0.98178 0.94142 0.0
C209 C 0.38108 0.97838 0.97621 0.0
C210 C 0.39899 1.01229 0.92705 0.0
C211 C 0.56411 0.14148 0.02323 0.0
O212 O 0.53297 0.13392 0.11014 0.0
O213 O 0.48263 0.11203 0.07594 0.0
O214 O 0.59863 0.08509 0.11965 0.0
O215 O 0.61115 0.13718 0.10596 0.0
O216 O 0.51904 0.07145 0.12533 0.0
O217 O 0.51625 0.04886 0.07754 0.0
O218 O 0.53101 0.04334 0.02527 0.0
O219 O 0.58616 0.07751 0.04487 0.0
O220 O 0.48105 0.07966 0.99027 0.0
O221 O 0.4472 0.06271 0.03445 0.0
O222 O 0.54922 0.11616 1.00274 0.0
O223 O 0.54902 0.13368 0.05149 0.0
H224 H 0.58417 0.14581 0.16835 0.0
H225 H 0.67692 0.1093 0.15982 0.0
H226 H 0.69098 0.12279 0.21935 0.0
H227 H 0.59871 0.1605 0.22766 0.0
H228 H 0.43705 0.06216 0.93513 0.0
H229 H 0.40553 1.00172 0.02284 0.0
H230 H 0.36522 0.95534 0.98814 0.0
H231 H 0.39813 1.01562 0.90029 0.0
Gd232 Gd 0.54135 0.56409 0.53532 0.0
Gd233 Gd 0.55104 0.62404 0.57635 0.0
C234 C 0.58135 0.57026 0.61023 0.0
C235 C 0.55438 0.51525 0.50225 0.0
C236 C 0.57549 0.49271 0.51008 0.0
C237 C 0.56057 0.45802 0.50259 0.0
C238 C 0.61058 0.50557 0.52526 0.0
C239 C 0.61611 0.44956 0.52409 0.0
C240 C 0.63077 0.48422 0.53198 0.0
C241 C 0.58064 0.43655 0.50969 0.0
C242 C 0.4799 0.5591 0.57254 0.0
C243 C 0.50863 0.61718 0.50377 0.0
C244 C 0.53962 0.67342 0.6099 0.0
C245 C 0.50763 0.68544 0.61283 0.0
C246 C 0.51301 0.7201 0.61439 0.0
C247 C 0.47151 0.66246 0.61378 0.0
C248 C 0.44651 0.70874 0.61925 0.0
C249 C 0.44133 0.67397 0.61721 0.0
C250 C 0.48275 0.73168 0.61745 0.0
C251 C 0.61232 0.62884 0.53848 0.0
O252 O 0.57275 0.55356 0.58091 0.0
O253 O 0.57489 0.59904 0.61526 0.0
O254 O 0.52401 0.51117 0.51926 0.0
O255 O 0.57381 0.54698 0.49891 0.0
O256 O 0.47915 0.54838 0.54149 0.0
O257 O 0.51324 0.57186 0.58225 0.0
O258 O 0.51121 0.62879 0.53535 0.0
O259 O 0.52183 0.5925 0.4958 0.0
O260 O 0.55621 0.67715 0.58087 0.0
O261 O 0.53536 0.64406 0.62249 0.0
O262 O 0.61324 0.64012 0.56923 0.0
O263 O 0.5789 0.61643 0.52918 0.0
H264 H 0.53349 0.4476 0.49108 0.0
H265 H 0.62257 0.53217 0.53179 0.0
H266 H 0.65784 0.49479 0.54348 0.0
H267 H 0.56882 0.40992 0.50324 0.0
H268 H 0.54064 0.73821 0.61329 0.0
H269 H 0.46658 0.63552 0.61225 0.0
H270 H 0.414 0.65551 0.61902 0.0
H271 H 0.48778 0.75861 0.61832 0.0
Gd272 Gd 0.03507 0.54908 0.07842 0.0
Gd273 Gd 0.03632 0.61424 0.04624 0.0
C274 C 0.10726 0.61704 0.09138 0.0
C275 C 0.04838 0.49332 0.08589 0.0
C276 C 0.06789 0.47734 0.10775 0.0
C277 C 0.08599 0.49365 0.13709 0.0
C278 C 0.07128 0.44643 0.09714 0.0
C279 C 0.11237 0.44865 0.14411 0.0
C280 C 0.09333 0.43224 0.11503 0.0
C281 C 0.10798 0.47932 0.15524 0.0
C282 C 1.00857 0.58491 0.12541 0.0
C283 C 0.96444 0.54582 0.03201 0.0
C284 C 0.02273 0.66752 0.02797 0.0
C285 C 0.99021 0.67772 0.02103 0.0
C286 C 0.98715 0.70676 0.03735 0.0
C287 C 0.96224 0.65909 0.99862 0.0
C288 C 0.92894 0.6989 1.0087 0.0
C289 C 0.93195 0.66972 0.99238 0.0
C290 C 0.95678 0.71721 0.03135 0.0
C291 C 0.06953 0.57589 1.00956 0.0
O292 O 0.09301 0.5837 0.09164 0.0
O293 O 0.08906 0.63525 0.07749 0.0
O294 O 0.01862 0.4986 0.09774 0.0
O295 O 0.0696 0.51837 0.06869 0.0
O296 O 1.01155 0.55541 0.12971 0.0
O297 O 0.01944 0.59357 0.09589 0.0
O298 O 0.97763 0.57935 0.03102 0.0
O299 O 0.98293 0.52897 0.04761 0.0
O300 O 0.02998 0.64611 1.00674 0.0
O301 O 0.02749 0.66148 0.05928 0.0
O302 O 0.08251 0.60864 1.01232 0.0
O303 O 0.03987 0.56583 0.02616 0.0
H304 H 0.08385 0.51776 0.14542 0.0
H305 H 0.05786 0.43377 0.07427 0.0
H306 H 0.09662 0.40907 0.10516 0.0
H307 H 0.12195 0.4925 0.17766 0.0
H308 H 1.0084 0.72147 0.05473 0.0
H309 H 0.96373 0.63637 0.98592 0.0
H310 H 0.9107 0.65498 0.97504 0.0
H311 H 0.95541 0.73999 0.04399 0.0
H312 H 0.33824 0.30866 0.32953 0.0
H313 H 0.34135 0.22087 0.26993 0.0
H314 H 0.29981 0.18399 0.30967 0.0
H315 H 0.3274 0.27189 0.41213 0.0
H316 H 0.29419 0.29158 0.42587 0.0
H317 H 0.32899 0.31183 0.39569 0.0
H318 H 0.27796 0.31424 0.35448 0.0
H319 H 0.24304 0.29407 0.38451 0.0
H320 H 0.24147 0.2759 0.34274 0.0
H321 H 0.25611 0.15598 0.3538 0.0
H322 H 0.20768 0.13881 0.39702 0.0
H323 H 0.22587 0.24384 0.42441 0.0
C324 C 0.33042 0.28173 0.32471 0.0
C325 C 0.34444 0.26807 0.29676 0.0
C326 C 0.33291 0.23245 0.29174 0.0
C327 C 0.30879 0.21104 0.31408 0.0
C328 C 0.29552 0.22539 0.34104 0.0
C329 C 0.3054 0.25986 0.34624 0.0
C330 C 0.28402 0.26863 0.37528 0.0
C331 C 0.31022 0.28707 0.40394 0.0
C332 C 0.26021 0.28943 0.36354 0.0
C333 C 0.26031 0.23364 0.38516 0.0
C334 C 0.26807 0.20912 0.36546 0.0
C335 C 0.24981 0.17488 0.36949 0.0
C336 C 0.22251 0.16539 0.39412 0.0
C337 C 0.21334 0.19004 0.41396 0.0
C338 C 0.23254 0.22459 0.40951 0.0
H339 H 0.26116 0.90205 0.77734 0.0
H340 H 0.26944 0.80571 0.80485 0.0
H341 H 0.29755 0.83093 0.85911 0.0
H342 H 0.34597 0.9513 0.80881 0.0
H343 H 0.33156 0.98589 0.82413 0.0
H344 H 0.30736 0.95941 0.78961 0.0
H345 H 0.24557 0.94633 0.82199 0.0
H346 H 0.26955 0.9731 0.85657 0.0
H347 H 0.24212 0.92993 0.86355 0.0
H348 H 0.33131 0.868 0.9071 0.0
H349 H 0.36734 0.91402 0.94563 0.0
H350 H 0.33529 0.98591 0.88781 0.0
C351 C 0.26785 0.88606 0.79524 0.0
C352 C 0.26309 0.85195 0.787 0.0
C353 C 0.27307 0.83198 0.81067 0.0
C354 C 0.28885 0.84602 0.8416 0.0
C355 C 0.29421 0.88 0.84858 0.0
C356 C 0.2837 0.89971 0.82622 0.0
C357 C 0.29512 0.93613 0.83867 0.0
C358 C 0.32158 0.95954 0.81383 0.0
C359 C 0.26106 0.947 0.84562 0.0
C360 C 0.31476 0.934 0.87092 0.0
C361 C 0.31357 0.90137 0.8764 0.0
C362 C 0.33183 0.89357 0.90344 0.0
C363 C 0.35213 0.91989 0.92528 0.0
C364 C 0.35415 0.95364 0.91988 0.0
C365 C 0.33459 0.96047 0.89258 0.0
H366 H 0.59355 0.43871 0.75075 0.0
H367 H 0.68315 0.51926 0.79722 0.0
H368 H 0.68236 0.55571 0.74966 0.0
H369 H 0.62392 0.45803 0.66132 0.0
H370 H 0.57695 0.44684 0.64649 0.0
H371 H 0.58753 0.42625 0.68213 0.0
H372 H 0.53942 0.44376 0.71735 0.0
H373 H 0.52904 0.46478 0.68203 0.0
H374 H 0.54334 0.48769 0.72132 0.0
H375 H 0.66461 0.58649 0.70056 0.0
H376 H 0.63796 0.60593 0.65204 0.0
H377 H 0.56256 0.50456 0.63405 0.0
C378 C 0.61409 0.46357 0.75026 0.0
C379 C 0.63917 0.47561 0.77779 0.0
C380 C 0.66452 0.50883 0.77636 0.0
C381 C 0.66386 0.52993 0.74946 0.0
C382 C 0.63798 0.51761 0.72345 0.0
C383 C 0.61415 0.48479 0.72324 0.0
C384 C 0.58819 0.47792 0.69286 0.0
C385 C 0.59453 0.45064 0.6693 0.0
C386 C 0.5476 0.46795 0.70407 0.0
C387 C 0.60034 0.51216 0.67636 0.0
C388 C 0.62896 0.53478 0.69459 0.0
C389 C 0.64282 0.56862 0.68587 0.0
C390 C 0.62738 0.57954 0.65813 0.0
C391 C 0.59857 0.55689 0.63842 0.0
C392 C 0.5852 0.52252 0.64779 0.0
H393 H 0.97333 0.73938 0.23237 0.0
H394 H 0.90529 0.66498 0.29975 0.0
H395 H 0.91947 0.62023 0.26606 0.0
H396 H 0.94275 0.68938 0.15643 0.0
H397 H 0.98712 0.70445 0.13617 0.0
H398 H 0.97413 0.73094 0.16686 0.0
H399 H 0.03322 0.7373 0.20119 0.0
H400 H 0.0465 0.71094 0.17055 0.0
H401 H 0.04248 0.70008 0.21409 0.0
H402 H 0.94029 0.58286 0.22363 0.0
H403 H 0.96535 0.55644 0.17757 0.0
H404 H 0.01594 0.65415 0.13412 0.0
C405 C 0.96076 0.71373 0.24018 0.0
C406 C 0.93748 0.70629 0.26919 0.0
C407 C 0.92332 0.67204 0.27829 0.0
C408 C 0.93103 0.64623 0.25894 0.0
C409 C 0.95291 0.65459 0.23012 0.0
C410 C 0.96757 0.68761 0.22078 0.0
C411 C 0.98947 0.6899 0.18815 0.0
C412 C 0.97234 0.70454 0.16025 0.0
C413 C 0.03034 0.7108 0.19384 0.0
C414 C 0.98492 0.65294 0.18039 0.0
C415 C 0.96392 0.6331 0.20517 0.0
C416 C 0.95655 0.59831 0.20418 0.0
C417 C 0.97101 0.58346 0.17768 0.0
C418 C 0.9925 0.60289 0.1517 0.0
C419 C 0.99927 0.63831 0.15312 0.0
H420 H 0.46085 0.26232 0.23526 0.0
H421 H 0.39715 0.28819 0.15741 0.0
H422 H 0.41443 0.25012 0.1173 0.0
H423 H 0.53588 0.25387 0.17882 0.0
H424 H 0.54048 0.21899 0.20147 0.0
H425 H 0.52636 0.25107 0.22317 0.0
H426 H 0.46789 0.20495 0.24427 0.0
H427 H 0.48143 0.17282 0.22214 0.0
H428 H 0.43678 0.17686 0.21426 0.0
H429 H 0.43065 0.20392 0.08822 0.0
H430 H 0.45356 0.15822 0.06848 0.0
H431 H 0.50993 0.16357 0.16361 0.0
C432 C 0.4514 0.26056 0.20952 0.0
C433 C 0.42794 0.27842 0.19932 0.0
C434 C 0.41573 0.27529 0.16557 0.0
C435 C 0.42511 0.25348 0.14268 0.0
C436 C 0.44712 0.23533 0.15382 0.0
C437 C 0.46091 0.23917 0.18616 0.0
C438 C 0.48321 0.21585 0.19175 0.0
C439 C 0.5239 0.23616 0.19923 0.0
C440 C 0.4663 0.19116 0.21976 0.0
C441 C 0.47888 0.19771 0.15777 0.0
C442 C 0.45769 0.20923 0.13644 0.0
C443 C 0.4478 0.19505 0.10445 0.0
C444 C 0.46061 0.16885 0.09362 0.0
C445 C 0.48344 0.15741 0.11456 0.0
C446 C 0.49266 0.17202 0.14707 0.0
H447 H 0.12574 0.89109 0.6085 0.0
H448 H 0.15401 0.92244 0.71228 0.0
H449 H 0.14926 0.97858 0.70099 0.0
H450 H 0.17638 0.96961 0.57247 0.0
H451 H 0.14241 0.96643 0.54036 0.0
H452 H 0.14744 0.92877 0.5569 0.0
H453 H 0.07781 0.90758 0.57245 0.0
H454 H 0.07262 0.94509 0.55572 0.0
H455 H 0.05922 0.93415 0.59833 0.0
H456 H 0.13826 0.03048 0.67844 0.0
H457 H 0.12562 0.07476 0.64566 0.0
H458 H 0.10809 1.00962 0.55643 0.0
C459 C 0.13067 0.90969 0.62892 0.0
C460 C 0.14 0.90244 0.66132 0.0
C461 C 0.14695 0.92761 0.68725 0.0
C462 C 0.14417 0.95945 0.6811 0.0
C463 C 0.13476 0.96571 0.64883 0.0
C464 C 0.12833 0.94155 0.62315 0.0
C465 C 0.11921 0.95462 0.59059 0.0
C466 C 0.14809 0.95488 0.56349 0.0
C467 C 0.07989 0.93414 0.57858 0.0
C468 C 0.12166 0.98999 0.60186 0.0
C469 C 0.1302 0.99587 0.63561 0.0
C470 C 0.13206 0.0263 0.65191 0.0
C471 C 0.12494 0.05127 0.63317 0.0
C472 C 0.11669 0.04572 0.59852 0.0
C473 C 0.11526 1.01479 0.58274 0.0
H474 H 0.75953 0.48395 0.9429 0.0
H475 H 0.78307 0.39231 0.91512 0.0
H476 H 0.84514 0.41629 0.93999 0.0
H477 H 0.85527 0.54278 0.9284 0.0
H478 H 0.85441 0.57016 0.96394 0.0
H479 H 0.81209 0.54721 0.94215 0.0
H480 H 0.78326 0.52127 0.99788 0.0
H481 H 0.82553 0.54399 0.01979 0.0
H482 H 0.80652 0.49878 0.02221 0.0
H483 H 0.90244 0.44696 0.97096 0.0
H484 H 0.95433 0.48415 1.00389 0.0
H485 H 0.89908 0.55941 1.01255 0.0
C486 C 0.7781 0.46929 0.94145 0.0
C487 C 0.76598 0.43593 0.92681 0.0
C488 C 0.79121 0.41761 0.92613 0.0
C489 C 0.82673 0.4311 0.94025 0.0
C490 C 0.83745 0.46337 0.95514 0.0
C491 C 0.81425 0.48257 0.95566 0.0
C492 C 0.83321 0.51636 0.97436 0.0
C493 C 0.83909 0.54588 0.9508 0.0
C494 C 0.81079 0.52033 1.0054 0.0
C495 C 0.87028 0.51275 0.98453 0.0
C496 C 0.87165 0.48177 0.97301 0.0
C497 C 0.90174 0.47137 0.97988 0.0
C498 C 0.93122 0.49284 0.99895 0.0
C499 C 0.93135 0.52501 1.01128 0.0
C500 C 0.90029 0.53521 1.00351 0.0
H501 H 0.82168 0.73031 0.48408 0.0
H502 H 0.7858 0.70819 0.38028 0.0
H503 H 0.72408 0.67384 0.39946 0.0
H504 H 0.7678 0.64957 0.51774 0.0
H505 H 0.75695 0.66807 0.55616 0.0
H506 H 0.79931 0.68882 0.53437 0.0
H507 H 0.78151 0.7431 0.53218 0.0
H508 H 0.73915 0.72255 0.55398 0.0
H509 H 0.73779 0.74101 0.51404 0.0
H510 H 0.66402 0.64305 0.43039 0.0
H511 H 0.61218 0.62045 0.46984 0.0
H512 H 0.6856 0.66473 0.55347 0.0
C513 C 0.80104 0.71844 0.46513 0.0
C514 C 0.8096 0.72227 0.4303 0.0
C515 C 0.78109 0.70547 0.40697 0.0
C516 C 0.74549 0.68596 0.41769 0.0
C517 C 0.7381 0.68326 0.45203 0.0
C518 C 0.76514 0.69912 0.4754 0.0
C519 C 0.74969 0.69335 0.51086 0.0
C520 C 0.76963 0.67379 0.53097 0.0
C521 C 0.75218 0.72701 0.52881 0.0
C522 C 0.70964 0.67205 0.50383 0.0
C523 C 0.70358 0.66625 0.46971 0.0
C524 C 0.66865 0.64747 0.45712 0.0
C525 C 0.63925 0.63463 0.47979 0.0
C526 C 0.64451 0.64066 0.51489 0.0
C527 C 0.68047 0.6595 0.52687 0.0
H528 H 0.30895 0.45562 0.21376 0.0
H529 H 0.2725 0.34677 0.1968 0.0
H530 H 0.20962 0.34695 0.18608 0.0
H531 H 0.22325 0.4631 0.24907 0.0
H532 H 0.22719 0.50063 0.22653 0.0
H533 H 0.26824 0.49177 0.23872 0.0
H534 H 0.29017 0.49564 0.17688 0.0
H535 H 0.24942 0.50476 0.1646 0.0
H536 H 0.25998 0.46975 0.14492 0.0
H537 H 0.15145 0.35882 0.17338 0.0
H538 H 0.10418 0.3821 0.15385 0.0
H539 H 0.18028 0.48357 0.17202 0.0
C540 C 0.28793 0.43169 0.20791 0.0
C541 C 0.29614 0.40112 0.20685 0.0
C542 C 0.26722 0.37052 0.19913 0.0
C543 C 0.23122 0.37031 0.19271 0.0
C544 C 0.2244 0.4009 0.19359 0.0
C545 C 0.25203 0.43107 0.20059 0.0
C546 C 0.23842 0.46075 0.19613 0.0
C547 C 0.23933 0.48021 0.22962 0.0
C548 C 0.26082 0.48408 0.16902 0.0
C549 C 0.19906 0.44251 0.18475 0.0
C550 C 0.19132 0.40798 0.18424 0.0
C551 C 0.15719 0.38583 0.17364 0.0
C552 C 0.13061 0.39934 0.16234 0.0
C553 C 0.13851 0.43472 0.16102 0.0
C554 C 0.173 0.45646 0.17316 0.0
H555 H 0.68748 0.30646 0.92181 0.0
H556 H 0.60717 0.3538 0.95342 0.0
H557 H 0.57313 0.30298 0.98453 0.0
H558 H 0.61966 0.22205 0.90857 0.0
H559 H 0.64999 0.2003 0.92294 0.0
H560 H 0.66901 0.24079 0.90414 0.0
H561 H 0.7094 0.26366 0.95692 0.0
H562 H 0.69035 0.22329 0.97595 0.0
H563 H 0.68771 0.26083 0.99749 0.0
H564 H 0.54929 0.24769 1.0155 0.0
H565 H 0.5329 0.19017 0.03721 0.0
H566 H 0.62372 0.17424 0.98151 0.0
C567 C 0.66266 0.30606 0.93523 0.0
C568 C 0.6502 0.33459 0.93507 0.0
C569 C 0.61736 0.33258 0.95286 0.0
C570 C 0.59787 0.30372 0.97083 0.0
C571 C 0.61084 0.27621 0.97059 0.0
C572 C 0.64211 0.27681 0.95271 0.0
C573 C 0.64893 0.24301 0.95545 0.0
C574 C 0.64677 0.2255 0.92071 0.0
C575 C 0.68632 0.24801 0.97246 0.0
C576 C 0.61683 0.22346 0.97774 0.0
C577 C 0.59565 0.24347 0.98666 0.0
C578 C 0.56553 0.23181 1.00827 0.0
C579 C 0.55647 0.19898 0.02069 0.0
C580 C 0.57673 0.17727 1.01116 0.0
C581 C 0.60742 0.18994 0.98923 0.0
H582 H 0.92882 0.86671 0.41015 0.0
H583 H 0.9149 0.79927 0.493 0.0
H584 H 0.94329 0.84792 0.53144 0.0
H585 H 0.01776 0.92783 0.43843 0.0
H586 H 1.00667 0.96413 0.42547 0.0
H587 H 0.98673 0.92403 0.40362 0.0
H588 H 0.92126 0.92713 0.41472 0.0
H589 H 0.941 0.96715 0.43672 0.0
H590 H 0.90735 0.93282 0.45717 0.0
H591 H 0.97199 0.90346 0.56182 0.0
H592 H 0.99843 0.96214 0.58245 0.0
H593 H 0.99431 0.99675 0.48155 0.0
C594 C 0.9322 0.86219 0.43631 0.0
C595 C 0.91941 0.82873 0.44835 0.0
C596 C 0.92405 0.82432 0.48297 0.0
C597 C 0.94032 0.85193 0.5051 0.0
C598 C 0.95203 0.88439 0.49266 0.0
C599 C 0.94826 0.88982 0.45909 0.0
C600 C 0.96237 0.9277 0.45285 0.0
C601 C 0.99535 0.93643 0.42865 0.0
C602 C 0.93113 0.93939 0.43957 0.0
C603 C 0.97444 0.94256 0.48811 0.0
C604 C 0.96827 0.91688 0.5105 0.0
C605 C 0.97683 0.92372 0.54446 0.0
C606 C 0.99189 0.95745 0.556 0.0
C607 C 0.99851 0.98469 0.53395 0.0
C608 C 0.98965 0.97684 0.49931 0.0
H609 H 0.33645 0.82144 0.70429 0.0
H610 H 0.23649 0.75247 0.6584 0.0
H611 H 0.27379 0.72257 0.62852 0.0
H612 H 0.39854 0.82457 0.63478 0.0
H613 H 0.43644 0.82482 0.66144 0.0
H614 H 0.40235 0.84278 0.67672 0.0
H615 H 0.38949 0.80368 0.72755 0.0
H616 H 0.42367 0.78578 0.71256 0.0
H617 H 0.37714 0.75874 0.72032 0.0
H618 H 0.32197 0.69897 0.60513 0.0
H619 H 0.37644 0.68165 0.59255 0.0
H620 H 0.44344 0.76316 0.65801 0.0
C621 C 0.32219 0.79996 0.68813 0.0
C622 C 0.28339 0.78948 0.68371 0.0
C623 C 0.26619 0.7615 0.6618 0.0
C624 C 0.28713 0.74421 0.64482 0.0
C625 C 0.32521 0.75506 0.65012 0.0
C626 C 0.34252 0.78216 0.67142 0.0
C627 C 0.38345 0.78754 0.67445 0.0
C628 C 0.40655 0.82197 0.66104 0.0
C629 C 0.39404 0.78369 0.71088 0.0
C630 C 0.38642 0.75893 0.65183 0.0
C631 C 0.35266 0.74077 0.63766 0.0
C632 C 0.34853 0.71295 0.61618 0.0
C633 C 0.37962 0.70315 0.6094 0.0
C634 C 0.41434 0.72084 0.62443 0.0
C635 C 0.4176 0.74932 0.64564 0.0
H636 H 0.79862 0.82639 0.82762 0.0
H637 H 0.73817 0.89377 0.85881 0.0
H638 H 0.77042 0.93342 0.81609 0.0
H639 H 0.88389 0.89126 0.81997 0.0
H640 H 0.89954 0.87191 0.78452 0.0
H641 H 0.86767 0.84603 0.81391 0.0
H642 H 0.82193 0.81877 0.76538 0.0
H643 H 0.85368 0.84466 0.73579 0.0
H644 H 0.80688 0.8453 0.73827 0.0
H645 H 0.81183 0.96786 0.77302 0.0
H646 H 0.86313 0.99664 0.73545 0.0
H647 H 0.90044 0.90954 0.73503 0.0
C648 C 0.79193 0.84936 0.82551 0.0
C649 C 0.7651 0.85634 0.84646 0.0
C650 C 0.75746 0.88691 0.84251 0.0
C651 C 0.7759 0.90988 0.81839 0.0
C652 C 0.80233 0.90231 0.79855 0.0
C653 C 0.81063 0.87296 0.802 0.0
C654 C 0.84275 0.87248 0.77977 0.0
C655 C 0.87539 0.8703 0.80081 0.0
C656 C 0.83056 0.84358 0.75323 0.0
C657 C 0.85168 0.9065 0.76388 0.0
C658 C 0.82752 0.92296 0.77458 0.0
C659 C 0.83074 0.95513 0.7642 0.0
C660 C 0.85985 0.9712 0.74274 0.0
C661 C 0.88561 0.95524 0.73222 0.0
C662 C 0.88112 0.9223 0.74267 0.0
H663 H 0.76914 0.19015 0.39566 0.0
H664 H 0.66641 0.16172 0.45165 0.0
H665 H 0.63116 0.15068 0.39864 0.0
H666 H 0.73842 0.23109 0.32845 0.0
H667 H 0.76298 0.21592 0.29637 0.0
H668 H 0.78038 0.22289 0.33877 0.0
H669 H 0.78022 0.16117 0.33971 0.0
H670 H 0.76283 0.15401 0.29733 0.0
H671 H 0.73812 0.12717 0.33006 0.0
H672 H 0.60689 0.14061 0.33993 0.0
H673 H 0.59512 0.13196 0.2791 0.0
H674 H 0.71342 0.16754 0.26075 0.0
C675 C 0.73924 0.18156 0.39674 0.0
C676 C 0.72055 0.17705 0.42784 0.0
C677 C 0.68136 0.16595 0.42816 0.0
C678 C 0.66107 0.15944 0.39818 0.0
C679 C 0.6803 0.16415 0.36801 0.0
C680 C 0.71848 0.17499 0.36699 0.0
C681 C 0.73224 0.17743 0.33112 0.0
C682 C 0.75484 0.21401 0.32322 0.0
C683 C 0.75467 0.15351 0.32415 0.0
C684 C 0.69581 0.16582 0.31221 0.0
C685 C 0.66623 0.15844 0.334 0.0
C686 C 0.62982 0.1466 0.32257 0.0
C687 C 0.62343 0.142 0.28791 0.0
C688 C 0.65329 0.14925 0.26499 0.0
C689 C 0.68995 0.16151 0.27752 0.0
H690 H 0.47265 0.67098 0.31683 0.0
H691 H 0.42049 0.73908 0.36213 0.0
H692 H 0.4267 0.71708 0.41809 0.0
H693 H 0.43399 0.60025 0.37381 0.0
H694 H 0.47605 0.5898 0.37394 0.0
H695 H 0.4638 0.60843 0.33766 0.0
H696 H 0.52689 0.6562 0.34108 0.0
H697 H 0.53921 0.63791 0.37749 0.0
H698 H 0.54007 0.68111 0.37944 0.0
H699 H 0.44522 0.69072 0.47103 0.0
H700 H 0.46967 0.6616 0.51325 0.0
H701 H 0.51028 0.61056 0.43348 0.0
C702 C 0.46183 0.681 0.33838 0.0
C703 C 0.44579 0.70702 0.33445 0.0
C704 C 0.43224 0.71897 0.3638 0.0
C705 C 0.43607 0.70674 0.39592 0.0
C706 C 0.45335 0.68214 0.39882 0.0
C707 C 0.46554 0.66911 0.37057 0.0
C708 C 0.48446 0.64379 0.38022 0.0
C709 C 0.46331 0.60847 0.36553 0.0
C710 C 0.52506 0.65545 0.36888 0.0
C711 C 0.48167 0.64477 0.41842 0.0
C712 C 0.46356 0.66702 0.4287 0.0
C713 C 0.459 0.67306 0.46291 0.0
C714 C 0.47314 0.65627 0.48691 0.0
C715 C 0.49184 0.63321 0.47723 0.0
C716 C 0.49578 0.62747 0.44218 0.0
H717 H 0.20039 0.52842 0.87005 0.0
H718 H 0.1088 0.43856 0.84407 0.0
H719 H 0.06928 0.45662 0.88506 0.0
H720 H 0.18411 0.53029 0.95632 0.0
H721 H 0.19652 0.57546 0.96129 0.0
H722 H 0.21642 0.55729 0.92784 0.0
H723 H 0.19271 0.58965 0.88413 0.0
H724 H 0.17327 0.60842 0.91751 0.0
H725 H 0.14436 0.58559 0.88329 0.0
H726 H 0.04207 0.48175 0.93495 0.0
H727 H 0.0272 0.51473 0.98221 0.0
H728 H 0.13549 0.59017 0.974 0.0
C729 C 0.17163 0.51306 0.87217 0.0
C730 C 0.15763 0.48217 0.85319 0.0
C731 C 0.12005 0.46257 0.85749 0.0
C732 C 0.09751 0.47254 0.88113 0.0
C733 C 0.11263 0.5025 0.90022 0.0
C734 C 0.14868 0.52288 0.89536 0.0
C735 C 0.15865 0.55355 0.91942 0.0
C736 C 0.19083 0.55417 0.94258 0.0
C737 C 0.16778 0.58624 0.89992 0.0
C738 C 0.12288 0.54713 0.93911 0.0
C739 C 0.09674 0.51737 0.92785 0.0
C740 C 0.06226 0.5053 0.94341 0.0
C741 C 0.05409 0.5242 0.9705 0.0
C742 C 0.07994 0.55532 0.98193 0.0
C743 C 0.11488 0.56672 0.96582 0.0
H744 H 0.56649 0.87322 0.95088 0.0
H745 H 0.6838 0.90449 0.9741 0.0
H746 H 0.6825 0.96084 0.99165 0.0
H747 H 0.56408 0.95292 0.92082 0.0
H748 H 0.52024 0.94905 0.94016 0.0
H749 H 0.53081 0.91178 0.92701 0.0
H750 H 0.51806 0.88922 0.98722 0.0
H751 H 0.50723 0.92629 1.00044 0.0
H752 H 0.54244 0.9151 0.02216 0.0
H753 H 0.66796 1.01311 1.00944 0.0
H754 H 0.6404 0.05635 0.02807 0.0
H755 H 0.53259 0.99034 0.99451 0.0
C756 C 0.59194 0.89185 0.95966 0.0
C757 C 0.62534 0.88438 0.96063 0.0
C758 C 0.65801 0.9097 0.97223 0.0
C759 C 0.65756 0.9418 0.98248 0.0
C760 C 0.6242 0.94826 0.98117 0.0
C761 C 0.59194 0.92395 0.97022 0.0
C762 C 0.55938 0.93678 0.9729 0.0
C763 C 0.54265 0.93769 0.93815 0.0
C764 C 0.53006 0.9156 0.99712 0.0
C765 C 0.57834 0.972 0.98729 0.0
C766 C 0.61576 0.97824 0.99171 0.0
C767 C 0.63872 1.00862 1.00587 0.0
C768 C 0.62285 0.03304 0.01632 0.0
C769 C 0.58442 0.02682 1.0126 0.0
C770 C 0.56214 0.99606 0.9974 0.0
H771 H 0.84776 0.19639 0.54028 0.0
H772 H 0.79855 0.11792 0.46437 0.0
H773 H 0.84783 0.09372 0.47386 0.0
H774 H 0.94368 0.20464 0.52682 0.0
H775 H 0.95477 0.20904 0.57094 0.0
H776 H 0.91833 0.223 0.55538 0.0
H777 H 0.87241 0.18493 0.59718 0.0
H778 H 0.90869 0.17092 0.61292 0.0
H779 H 0.86642 0.14052 0.59723 0.0
H780 H 0.902 0.07723 0.49209 0.0
H781 H 0.95322 0.06638 0.52178 0.0
H782 H 0.96187 0.15067 0.59074 0.0
C783 C 0.8469 0.17399 0.52567 0.0
C784 C 0.81905 0.15953 0.50119 0.0
C785 C 0.8199 0.1304 0.48252 0.0
C786 C 0.84771 0.11617 0.48792 0.0
C787 C 0.87425 0.13088 0.51248 0.0
C788 C 0.87378 0.15886 0.53137 0.0
C789 C 0.90366 0.16816 0.55812 0.0
C790 C 0.93177 0.20329 0.55246 0.0
C791 C 0.88678 0.16599 0.59345 0.0
C792 C 0.92074 0.14075 0.55154 0.0
C793 C 0.90388 0.11997 0.52461 0.0
C794 C 0.91528 0.09322 0.51331 0.0
C795 C 0.94439 0.0873 0.53026 0.0
C796 C 0.9611 0.10755 0.55863 0.0
C797 C 0.94923 0.13468 0.56928 0.0
H798 H 0.28424 0.76542 0.17286 0.0
H799 H 0.33461 0.68752 0.18472 0.0
H800 H 0.2794 0.64553 0.16012 0.0
H801 H 0.18997 0.71393 0.19039 0.0
H802 H 0.16938 0.73216 0.15898 0.0
H803 H 0.21262 0.75678 0.17829 0.0
H804 H 0.243 0.76806 0.11982 0.0
H805 H 0.19984 0.74351 0.10032 0.0
H806 H 0.24111 0.73295 0.0918 0.0
H807 H 0.21835 0.6108 0.13478 0.0
H808 H 0.1569 0.58628 0.10895 0.0
H809 H 0.14438 0.68541 0.10953 0.0
C810 C 0.28392 0.73961 0.17017 0.0
C811 C 0.31438 0.73026 0.18173 0.0
C812 C 0.31191 0.69583 0.17744 0.0
C813 C 0.28052 0.67156 0.16302 0.0
C814 C 0.25121 0.68157 0.15233 0.0
C815 C 0.25258 0.7148 0.15547 0.0
C816 C 0.21708 0.71855 0.14134 0.0
C817 C 0.19602 0.7311 0.16889 0.0
C818 C 0.22578 0.74218 0.11155 0.0
C819 C 0.19566 0.68229 0.12987 0.0
C820 C 0.21604 0.66149 0.1367 0.0
C821 C 0.2023 0.62694 0.12923 0.0
C822 C 0.16704 0.61318 0.11448 0.0
C823 C 0.1452 0.6336 0.10682 0.0
C824 C 0.16012 0.66888 0.11466 0.0
H825 H 0.27504 0.44647 0.63399 0.0
H826 H 0.31456 0.4787 0.73543 0.0
H827 H 0.37401 0.51385 0.71324 0.0
H828 H 0.36278 0.44098 0.60299 0.0
H829 H 0.35819 0.4561 0.56201 0.0
H830 H 0.31752 0.434 0.58543 0.0
H831 H 0.29342 0.48445 0.58018 0.0
H832 H 0.33414 0.50677 0.55691 0.0
H833 H 0.32206 0.52593 0.59438 0.0
H834 H 0.43001 0.54644 0.68085 0.0
H835 H 0.47986 0.57086 0.64027 0.0
H836 H 0.40773 0.51711 0.55889 0.0
C837 C 0.29616 0.46088 0.65157 0.0
C838 C 0.28897 0.4602 0.68672 0.0
C839 C 0.31806 0.47941 0.70849 0.0
C840 C 0.35241 0.49942 0.6961 0.0
C841 C 0.35824 0.50007 0.6616 0.0
C842 C 0.33115 0.48109 0.63954 0.0
C843 C 0.34553 0.48589 0.60357 0.0
C844 C 0.34603 0.45224 0.58756 0.0
C845 C 0.3224 0.5017 0.58251 0.0
C846 C 0.38474 0.51036 0.60903 0.0
C847 C 0.39125 0.5183 0.64279 0.0
C848 C 0.42521 0.5403 0.65435 0.0
C849 C 0.45346 0.55417 0.63103 0.0
C850 C 0.44806 0.54606 0.59627 0.0
C851 C 0.4129 0.524 0.58522 0.0
H852 H 0.79493 0.76076 0.8946 0.0
H853 H 0.75365 0.79347 0.9866 0.0
H854 H 0.79183 0.7687 0.0197 0.0
H855 H 0.80117 0.68163 0.92546 0.0
H856 H 0.84337 0.6855 0.90309 0.0
H857 H 0.81055 0.70344 0.88651 0.0
H858 H 0.86168 0.76184 0.88455 0.0
H859 H 0.89463 0.74409 0.90106 0.0
H860 H 0.88725 0.77994 0.92221 0.0
H861 H 0.8375 0.74407 0.04282 0.0
H862 H 0.88744 0.72067 0.05435 0.0
H863 H 0.8997 0.70451 0.9475 0.0
C864 C 0.79375 0.76251 0.92171 0.0
C865 C 0.771 0.77877 0.93799 0.0
C866 C 0.77024 0.78052 0.97354 0.0
C867 C 0.79198 0.76669 0.99258 0.0
C868 C 0.81428 0.75108 0.97575 0.0
C869 C 0.81527 0.7488 0.94113 0.0
C870 C 0.84282 0.73198 0.92927 0.0
C871 C 0.8233 0.69866 0.90994 0.0
C872 C 0.8734 0.75589 0.90803 0.0
C873 C 0.85768 0.72577 0.96264 0.0
C874 C 0.84069 0.73682 0.98912 0.0
C875 C 0.85081 0.73508 0.02231 0.0
C876 C 0.87929 0.72193 0.0286 0.0
C877 C 0.89731 0.71072 1.00183 0.0
C878 C 0.88599 0.71237 0.96847 0.0
H879 H 0.41579 0.84071 0.13647 0.0
H880 H 0.40764 0.86837 0.24121 0.0
H881 H 0.43078 0.92856 0.22747 0.0
H882 H 0.50192 0.90893 0.12107 0.0
H883 H 0.48998 0.91626 0.07905 0.0
H884 H 0.47087 0.87496 0.09615 0.0
H885 H 0.4049 0.87552 0.08378 0.0
H886 H 0.42388 0.91689 0.06674 0.0
H887 H 0.39067 0.90981 0.10029 0.0
H888 H 0.45391 0.98582 0.20331 0.0
H889 H 0.48073 0.03712 0.1716 0.0
H890 H 0.47971 0.97641 0.08111 0.0
C891 C 0.41862 0.8595 0.15642 0.0
C892 C 0.40938 0.84939 0.19017 0.0
C893 C 0.41426 0.87506 0.21537 0.0
C894 C 0.42738 0.90949 0.20771 0.0
C895 C 0.43632 0.91861 0.17455 0.0
C896 C 0.4326 0.8945 0.14921 0.0
C897 C 0.44613 0.9119 0.11596 0.0
C898 C 0.47919 0.90245 0.10225 0.0
C899 C 0.41451 0.90299 0.09016 0.0
C900 C 0.4579 0.9494 0.12666 0.0
C901 C 0.45141 0.95228 0.1606 0.0
C902 C 0.45928 0.98376 0.17678 0.0
C903 C 0.47463 1.013 0.15831 0.0
C904 C 0.48285 1.01153 0.1236 0.0
C905 C 0.4739 0.97888 0.10749 0.0
H906 H 0.18162 0.35428 0.64357 0.0
H907 H 0.18178 0.33207 0.74916 0.0
H908 H 0.15317 0.27174 0.73531 0.0
H909 H 0.09325 0.28987 0.62303 0.0
H910 H 0.10755 0.27864 0.58243 0.0
H911 H 0.12832 0.32072 0.59992 0.0
H912 H 0.19315 0.31477 0.59334 0.0
H913 H 0.17257 0.27265 0.57584 0.0
H914 H 0.20254 0.27984 0.61195 0.0
H915 H 0.12512 0.21367 0.71129 0.0
H916 H 0.09808 0.16097 0.67876 0.0
H917 H 0.11381 0.21681 0.58689 0.0
C918 C 0.17566 0.33671 0.66378 0.0
C919 C 0.1837 0.34864 0.69777 0.0
C920 C 0.1753 0.32435 0.72315 0.0
C921 C 0.15922 0.2897 0.71547 0.0
C922 C 0.15138 0.27894 0.68209 0.0
C923 C 0.15918 0.30157 0.65651 0.0
C924 C 0.14738 0.28259 0.62277 0.0
C925 C 0.11734 0.29362 0.60605 0.0
C926 C 0.18091 0.28778 0.5996 0.0
C927 C 0.13186 0.24591 0.63352 0.0
C928 C 0.13474 0.24476 0.66795 0.0
C929 C 0.12273 0.21432 0.68432 0.0
C930 C 0.1073 0.18425 0.66534 0.0
C931 C 0.10349 0.18403 0.6299 0.0
C932 C 0.11613 0.21568 0.61382 0.0
H933 H 0.65313 0.28322 0.58209 0.0
H934 H 0.7627 0.32355 0.53932 0.0
H935 H 0.7501 0.37583 0.52585 0.0
H936 H 0.6072 0.31384 0.52101 0.0
H937 H 0.57523 0.32344 0.54979 0.0
H938 H 0.59391 0.29049 0.5588 0.0
H939 H 0.61814 0.31975 0.61625 0.0
H940 H 0.59933 0.35273 0.60749 0.0
H941 H 0.64763 0.36318 0.61776 0.0
H942 H 0.7249 0.42265 0.51537 0.0
H943 H 0.68798 0.46023 0.50675 0.0
H944 H 0.59408 0.38868 0.55475 0.0
C945 C 0.67464 0.30336 0.57045 0.0
C946 C 0.70895 0.29959 0.56189 0.0
C947 C 0.73623 0.32606 0.546 0.0
C948 C 0.72937 0.35583 0.53839 0.0
C949 C 0.69506 0.35859 0.54674 0.0
C950 C 0.66811 0.33308 0.56237 0.0
C951 C 0.63285 0.34165 0.5669 0.0
C952 C 0.60039 0.31582 0.54799 0.0
C953 C 0.62398 0.3445 0.60433 0.0
C954 C 0.644 0.3757 0.5509 0.0
C955 C 0.68015 0.38521 0.53985 0.0
C956 C 0.69662 0.41557 0.52405 0.0
C957 C 0.67551 0.43675 0.51935 0.0
C958 C 0.63827 0.42728 0.53008 0.0
C959 C 0.62242 0.39638 0.5461 0.0
loop_
_geom_bond_atom_site_label_1
_geom_bond_atom_site_label_2
_geom_bond_distance
_geom_bond_site_symmetry_2
_ccdc_geom_bond_type
H0 C1 0.949 . S
C1 H0 0.949 . S
C1 C2 1.395 . S
C1 C3 1.391 . S
C2 C1 1.395 . S
C2 C5 1.390 . S
C3 C1 1.391 . S
C3 C7 1.387 . S
C3 C8 1.491 . S
H4 C5 0.950 . S
C5 C2 1.390 . S
C5 H4 0.950 . S
C5 C6 1.378 . S
C6 C5 1.378 . S
C6 C7 1.409 . S
C7 C3 1.387 . S
C7 C6 1.409 . S
C7 H9 0.951 . S
C8 C3 1.491 . S
C8 C10 1.382 . S
C8 C12 1.404 . S
H9 C7 0.951 . S
C10 C8 1.382 . S
C10 C11 1.390 . S
C10 H15 0.949 . S
C11 C10 1.390 . S
C11 C16 1.399 . S
C12 C8 1.404 . S
C12 H13 0.950 . S
C12 C14 1.375 . S
H13 C12 0.950 . S
C14 C12 1.375 . S
C14 C16 1.382 . S
C14 H18 0.950 . S
H15 C10 0.949 . S
C16 C11 1.399 . S
C16 C14 1.382 . S
C16 H17 0.952 . S
H17 C16 0.952 . S
H18 C14 0.950 . S
H19 C20 0.949 . S
C20 H19 0.949 . S
C20 C21 1.395 . S
C20 C22 1.391 . S
C21 C20 1.395 . S
C21 C24 1.390 . S
C22 C20 1.391 . S
C22 C26 1.387 . S
C22 C27 1.491 . S
H23 C24 0.950 . S
C24 C21 1.390 . S
C24 H23 0.950 . S
C24 C25 1.378 . S
C25 C24 1.378 . S
C25 C26 1.409 . S
C26 C22 1.387 . S
C26 C25 1.409 . S
C26 H28 0.951 . S
C27 C22 1.491 . S
C27 C29 1.382 . S
C27 C31 1.404 . S
H28 C26 0.951 . S
C29 C27 1.382 . S
C29 C30 1.390 . S
C29 H34 0.949 . S
C30 C29 1.390 . S
C30 C35 1.399 . S
C31 C27 1.404 . S
C31 H32 0.950 . S
C31 C33 1.375 . S
H32 C31 0.950 . S
C33 C31 1.375 . S
C33 C35 1.382 . S
C33 H37 0.950 . S
H34 C29 0.949 . S
C35 C30 1.399 . S
C35 C33 1.382 . S
C35 H36 0.952 . S
H36 C35 0.952 . S
H37 C33 0.950 . S
H38 C39 0.949 . S
C39 H38 0.949 . S
C39 C40 1.395 . S
C39 C41 1.391 . S
C40 C39 1.395 . S
C40 C43 1.390 . S
C41 C39 1.391 . S
C41 C45 1.387 . S
C41 C46 1.491 . S
H42 C43 0.950 . S
C43 C40 1.390 . S
C43 H42 0.950 . S
C43 C44 1.378 . S
C44 C43 1.378 . S
C44 C45 1.409 . S
C45 C41 1.387 . S
C45 C44 1.409 . S
C45 H47 0.951 . S
C46 C41 1.491 . S
C46 C48 1.382 . S
C46 C50 1.404 . S
H47 C45 0.951 . S
C48 C46 1.382 . S
C48 C49 1.390 . S
C48 H53 0.949 . S
C49 C48 1.390 . S
C49 C54 1.399 . S
C50 C46 1.404 . S
C50 H51 0.950 . S
C50 C52 1.375 . S
H51 C50 0.950 . S
C52 C50 1.375 . S
C52 C54 1.382 . S
C52 H56 0.950 . S
H53 C48 0.949 . S
C54 C49 1.399 . S
C54 C52 1.382 . S
C54 H55 0.952 . S
H55 C54 0.952 . S
H56 C52 0.950 . S
H57 C58 0.949 . S
C58 H57 0.949 . S
C58 C59 1.395 . S
C58 C60 1.391 . S
C59 C58 1.395 . S
C59 C62 1.390 . S
C60 C58 1.391 . S
C60 C64 1.387 . S
C60 C65 1.491 . S
H61 C62 0.950 . S
C62 C59 1.390 . S
C62 H61 0.950 . S
C62 C63 1.378 . S
C63 C62 1.378 . S
C63 C64 1.409 . S
C64 C60 1.387 . S
C64 C63 1.409 . S
C64 H66 0.951 . S
C65 C60 1.491 . S
C65 C67 1.382 . S
C65 C69 1.404 . S
H66 C64 0.951 . S
C67 C65 1.382 . S
C67 C68 1.390 . S
C67 H72 0.949 . S
C68 C67 1.390 . S
C68 C73 1.399 . S
C69 C65 1.404 . S
C69 H70 0.950 . S
C69 C71 1.375 . S
H70 C69 0.950 . S
C71 C69 1.375 . S
C71 C73 1.382 . S
C71 H75 0.950 . S
H72 C67 0.949 . S
C73 C68 1.399 . S
C73 C71 1.382 . S
C73 H74 0.952 . S
H74 C73 0.952 . S
H75 C71 0.950 . S
H76 C77 0.949 . S
C77 H76 0.949 . S
C77 C78 1.395 . S
C77 C79 1.391 . S
C78 C77 1.395 . S
C78 C81 1.390 . S
C79 C77 1.391 . S
C79 C83 1.387 . S
C79 C84 1.491 . S
H80 C81 0.950 . S
C81 C78 1.390 . S
C81 H80 0.950 . S
C81 C82 1.378 . S
C82 C81 1.378 . S
C82 C83 1.409 . S
C83 C79 1.387 . S
C83 C82 1.409 . S
C83 H85 0.951 . S
C84 C79 1.491 . S
C84 C86 1.382 . S
C84 C88 1.404 . S
H85 C83 0.951 . S
C86 C84 1.382 . S
C86 C87 1.390 . S
C86 H91 0.949 . S
C87 C86 1.390 . S
C87 C92 1.399 . S
C88 C84 1.404 . S
C88 H89 0.950 . S
C88 C90 1.375 . S
H89 C88 0.950 . S
C90 C88 1.375 . S
C90 C92 1.382 . S
C90 H94 0.950 . S
H91 C86 0.949 . S
C92 C87 1.399 . S
C92 C90 1.382 . S
C92 H93 0.952 . S
H93 C92 0.952 . S
H94 C90 0.950 . S
H95 C96 0.949 . S
C96 H95 0.949 . S
C96 C97 1.395 . S
C96 C98 1.391 . S
C97 C96 1.395 . S
C97 C100 1.390 . S
C98 C96 1.391 . S
C98 C102 1.387 . S
C98 C103 1.491 . S
H99 C100 0.950 . S
C100 C97 1.390 . S
C100 H99 0.950 . S
C100 C101 1.378 . S
C101 C100 1.378 . S
C101 C102 1.409 . S
C102 C98 1.387 . S
C102 C101 1.409 . S
C102 H104 0.951 . S
C103 C98 1.491 . S
C103 C105 1.382 . S
C103 C107 1.404 . S
H104 C102 0.951 . S
C105 C103 1.382 . S
C105 C106 1.390 . S
C105 H110 0.949 . S
C106 C105 1.390 . S
C106 C111 1.399 . S
C107 C103 1.404 . S
C107 H108 0.950 . S
C107 C109 1.375 . S
H108 C107 0.950 . S
C109 C107 1.375 . S
C109 C111 1.382 . S
C109 H113 0.950 . S
H110 C105 0.949 . S
C111 C106 1.399 . S
C111 C109 1.382 . S
C111 H112 0.952 . S
H112 C111 0.952 . S
H113 C109 0.950 . S
H114 C115 0.949 . S
C115 H114 0.949 . S
C115 C116 1.395 . S
C115 C117 1.391 . S
C116 C115 1.395 . S
C116 C119 1.390 . S
C117 C115 1.391 . S
C117 C121 1.387 . S
C117 C122 1.491 . S
H118 C119 0.950 . S
C119 C116 1.390 . S
C119 H118 0.950 . S
C119 C120 1.378 . S
C120 C119 1.378 . S
C120 C121 1.409 . S
C121 C117 1.387 . S
C121 C120 1.409 . S
C121 H123 0.951 . S
C122 C117 1.491 . S
C122 C124 1.382 . S
C122 C126 1.404 . S
H123 C121 0.951 . S
C124 C122 1.382 . S
C124 C125 1.390 . S
C124 H129 0.949 . S
C125 C124 1.390 . S
C125 C130 1.399 . S
C126 C122 1.404 . S
C126 H127 0.950 . S
C126 C128 1.375 . S
H127 C126 0.950 . S
C128 C126 1.375 . S
C128 C130 1.382 . S
C128 H132 0.950 . S
H129 C124 0.949 . S
C130 C125 1.399 . S
C130 C128 1.382 . S
C130 H131 0.952 . S
H131 C130 0.952 . S
H132 C128 0.950 . S
H133 C134 0.949 . S
C134 H133 0.949 . S
C134 C135 1.395 . S
C134 C136 1.391 . S
C135 C134 1.395 . S
C135 C138 1.390 . S
C136 C134 1.391 . S
C136 C140 1.387 . S
C136 C141 1.491 . S
H137 C138 0.950 . S
C138 C135 1.390 . S
C138 H137 0.950 . S
C138 C139 1.378 . S
C139 C138 1.378 . S
C139 C140 1.409 . S
C140 C136 1.387 . S
C140 C139 1.409 . S
C140 H142 0.951 . S
C141 C136 1.491 . S
C141 C143 1.382 . S
C141 C145 1.404 . S
H142 C140 0.951 . S
C143 C141 1.382 . S
C143 C144 1.390 . S
C143 H148 0.949 . S
C144 C143 1.390 . S
C144 C149 1.399 . S
C145 C141 1.404 . S
C145 H146 0.950 . S
C145 C147 1.375 . S
H146 C145 0.950 . S
C147 C145 1.375 . S
C147 C149 1.382 . S
C147 H151 0.950 . S
H148 C143 0.949 . S
C149 C144 1.399 . S
C149 C147 1.382 . S
C149 H150 0.952 . S
H150 C149 0.952 . S
H151 C147 0.950 . S
Gd152 C155 2.818 . S
Gd152 O172 2.377 . S
Gd152 O174 2.448 . S
Gd152 O175 2.506 . S
Gd152 O176 2.435 . S
Gd152 O177 2.717 . S
Gd152 O179 2.395 1_545 S
Gd152 O183 2.296 1_455 S
Gd153 C164 2.818 1_545 S
Gd153 O173 2.395 1_655 S
Gd153 O177 2.327 1_655 S
Gd153 O178 2.377 1_545 S
Gd153 O180 2.448 1_545 S
Gd153 O181 2.506 1_545 S
Gd153 O182 2.435 . S
Gd153 O183 2.718 . S
C154 O172 1.240 . S
C154 O173 1.240 . S
C155 Gd152 2.818 . S
C155 C156 1.510 . S
C155 O174 1.249 . S
C155 O175 1.252 . S
C156 C155 1.510 . S
C156 C157 1.404 . S
C156 C158 1.352 . S
C157 C156 1.404 . S
C157 C161 1.389 . S
C157 H184 0.930 . S
C158 C156 1.352 . S
C158 C160 1.374 . S
C158 H185 0.931 . S
C159 C160 1.359 . S
C159 C161 1.364 . S
C160 C158 1.374 . S
C160 C159 1.359 . S
C160 H186 0.931 . S
C161 C157 1.389 . S
C161 C159 1.364 . S
C161 H187 0.931 . S
C162 O176 1.256 . S
C162 O177 1.257 . S
C163 O178 1.240 . S
C163 O179 1.240 1_655 S
C164 Gd153 2.818 1_565 S
C164 C165 1.510 . S
C164 O180 1.249 . S
C164 O181 1.252 . S
C165 C164 1.510 . S
C165 C166 1.404 . S
C165 C167 1.352 . S
C166 C165 1.404 . S
C166 C170 1.389 . S
C166 H188 0.930 . S
C167 C165 1.352 . S
C167 C169 1.374 . S
C167 H189 0.931 . S
C168 C169 1.359 . S
C168 C170 1.364 . S
C169 C167 1.374 . S
C169 C168 1.359 . S
C169 H190 0.931 . S
C170 C166 1.389 . S
C170 C168 1.364 . S
C170 H191 0.931 . S
C171 O182 1.256 . S
C171 O183 1.292 . S
O172 Gd152 2.377 . S
O172 C154 1.240 . S
O173 Gd153 2.395 1_455 S
O173 C154 1.240 . S
O174 Gd152 2.448 . S
O174 C155 1.249 . S
O175 Gd152 2.506 . S
O175 C155 1.252 . S
O176 Gd152 2.435 . S
O176 C162 1.256 . S
O177 Gd152 2.717 . S
O177 Gd153 2.327 1_455 S
O177 C162 1.257 . S
O178 Gd153 2.377 1_565 S
O178 C163 1.240 . S
O179 Gd152 2.395 1_565 S
O179 C163 1.240 1_455 S
O180 Gd153 2.448 1_565 S
O180 C164 1.249 . S
O181 Gd153 2.506 1_565 S
O181 C164 1.252 . S
O182 Gd153 2.435 . S
O182 C171 1.256 . S
O183 Gd152 2.296 1_655 S
O183 Gd153 2.718 . S
O183 C171 1.292 . S
H184 C157 0.930 . S
H185 C158 0.931 . S
H186 C160 0.931 . S
H187 C161 0.931 . S
H188 C166 0.930 . S
H189 C167 0.931 . S
H190 C169 0.931 . S
H191 C170 0.931 . S
Gd192 C195 2.818 . S
Gd192 O212 2.377 . S
Gd192 O214 2.448 . S
Gd192 O215 2.506 . S
Gd192 O216 2.435 1_545 S
Gd192 O217 2.720 . S
Gd192 O219 2.402 . S
Gd192 O223 2.327 . S
Gd193 C204 2.818 1_544 S
Gd193 O213 2.395 . S
Gd193 O217 2.333 . S
Gd193 O218 2.377 . S
Gd193 O220 2.448 1_554 S
Gd193 O221 2.506 1_545 S
Gd193 O222 2.435 . S
Gd193 O223 2.717 . S
C194 O212 1.240 . S
C194 O213 1.240 . S
C195 Gd192 2.818 . S
C195 C196 1.510 . S
C195 O214 1.249 . S
C195 O215 1.252 . S
C196 C195 1.510 . S
C196 C197 1.404 . S
C196 C198 1.352 . S
C197 C196 1.404 . S
C197 C201 1.389 . S
C197 H224 0.930 . S
C198 C196 1.352 . S
C198 C200 1.374 . S
C198 H225 0.931 . S
C199 C200 1.359 . S
C199 C201 1.364 . S
C200 C198 1.374 . S
C200 C199 1.359 . S
C200 H226 0.931 . S
C201 C197 1.389 . S
C201 C199 1.364 . S
C201 H227 0.931 . S
C202 O216 1.256 . S
C202 O217 1.252 1_565 S
C203 O218 1.240 1_565 S
C203 O219 1.240 1_565 S
C204 Gd193 2.818 1_566 S
C204 C205 1.510 . S
C204 O220 1.249 1_565 S
C204 O221 1.252 1_556 S
C205 C204 1.510 . S
C205 C206 1.404 . S
C205 C207 1.352 . S
C206 C205 1.404 . S
C206 C210 1.389 . S
C206 H228 0.893 1_565 S
C207 C205 1.352 . S
C207 C209 1.374 . S
C207 H229 0.931 . S
C208 C209 1.359 . S
C208 C210 1.364 . S
C209 C207 1.374 . S
C209 C208 1.359 . S
C209 H230 0.931 . S
C210 C206 1.389 . S
C210 C208 1.364 . S
C210 H231 0.931 . S
C211 O222 1.256 . S
C211 O223 1.257 . S
O212 Gd192 2.377 . S
O212 C194 1.240 . S
O213 Gd193 2.395 . S
O213 C194 1.240 . S
O214 Gd192 2.448 . S
O214 C195 1.249 . S
O215 Gd192 2.506 . S
O215 C195 1.252 . S
O216 Gd192 2.435 1_565 S
O216 C202 1.256 . S
O217 Gd192 2.720 . S
O217 Gd193 2.333 . S
O217 C202 1.252 1_545 S
O218 Gd193 2.377 . S
O218 C203 1.240 1_545 S
O219 Gd192 2.402 . S
O219 C203 1.240 1_545 S
O220 Gd193 2.448 1_556 S
O220 C204 1.249 1_545 S
O221 Gd193 2.506 1_565 S
O221 C204 1.252 1_554 S
O222 Gd193 2.435 . S
O222 C211 1.256 . S
O223 Gd192 2.327 . S
O223 Gd193 2.717 . S
O223 C211 1.257 . S
H224 C197 0.930 . S
H225 C198 0.931 . S
H226 C200 0.931 . S
H227 C201 0.931 . S
H228 C206 0.893 1_545 S
H229 C207 0.931 . S
H230 C209 0.931 . S
H231 C210 0.931 . S
Gd232 C235 2.818 . S
Gd232 O252 2.377 . S
Gd232 O254 2.448 . S
Gd232 O255 2.506 . S
Gd232 O256 2.435 . S
Gd232 O257 2.717 . S
Gd232 O259 2.395 . S
Gd232 O263 2.327 . S
Gd233 C244 2.818 . S
Gd233 O253 2.395 . S
Gd233 O257 2.327 . S
Gd233 O258 2.377 . S
Gd233 O260 2.448 . S
Gd233 O261 2.506 . S
Gd233 O262 2.435 . S
Gd233 O263 2.717 . S
C234 O252 1.240 . S
C234 O253 1.240 . S
C235 Gd232 2.818 . S
C235 C236 1.510 . S
C235 O254 1.249 . S
C235 O255 1.252 . S
C236 C235 1.510 . S
C236 C237 1.404 . S
C236 C238 1.352 . S
C237 C236 1.404 . S
C237 C241 1.389 . S
C237 H264 0.930 . S
C238 C236 1.352 . S
C238 C240 1.374 . S
C238 H265 0.931 . S
C239 C240 1.359 . S
C239 C241 1.364 . S
C240 C238 1.374 . S
C240 C239 1.359 . S
C240 H266 0.931 . S
C241 C237 1.389 . S
C241 C239 1.364 . S
C241 H267 0.931 . S
C242 O256 1.256 . S
C242 O257 1.257 . S
C243 O258 1.240 . S
C243 O259 1.240 . S
C244 Gd233 2.818 . S
C244 C245 1.510 . S
C244 O260 1.249 . S
C244 O261 1.252 . S
C245 C244 1.510 . S
C245 C246 1.404 . S
C245 C247 1.352 . S
C246 C245 1.404 . S
C246 C250 1.389 . S
C246 H268 0.930 . S
C247 C245 1.352 . S
C247 C249 1.374 . S
C247 H269 0.931 . S
C248 C249 1.359 . S
C248 C250 1.364 . S
C249 C247 1.374 . S
C249 C248 1.359 . S
C249 H270 0.931 . S
C250 C246 1.389 . S
C250 C248 1.364 . S
C250 H271 0.931 . S
C251 O262 1.256 . S
C251 O263 1.257 . S
O252 Gd232 2.377 . S
O252 C234 1.240 . S
O253 Gd233 2.395 . S
O253 C234 1.240 . S
O254 Gd232 2.448 . S
O254 C235 1.249 . S
O255 Gd232 2.506 . S
O255 C235 1.252 . S
O256 Gd232 2.435 . S
O256 C242 1.256 . S
O257 Gd232 2.717 . S
O257 Gd233 2.327 . S
O257 C242 1.257 . S
O258 Gd233 2.377 . S
O258 C243 1.240 . S
O259 Gd232 2.395 . S
O259 C243 1.240 . S
O260 Gd233 2.448 . S
O260 C244 1.249 . S
O261 Gd233 2.506 . S
O261 C244 1.252 . S
O262 Gd233 2.435 . S
O262 C251 1.256 . S
O263 Gd232 2.327 . S
O263 Gd233 2.717 . S
O263 C251 1.257 . S
H264 C237 0.930 . S
H265 C238 0.931 . S
H266 C240 0.931 . S
H267 C241 0.931 . S
H268 C246 0.930 . S
H269 C247 0.931 . S
H270 C249 0.931 . S
H271 C250 0.931 . S
Gd272 C275 2.818 . S
Gd272 O292 2.377 . S
Gd272 O294 2.448 . S
Gd272 O295 2.506 . S
Gd272 O296 2.435 . S
Gd272 O297 2.717 . S
Gd272 O299 2.395 1_455 S
Gd272 O303 2.327 1_554 S
Gd273 C284 2.818 1_455 S
Gd273 O293 2.395 1_556 S
Gd273 O297 2.327 1_556 S
Gd273 O298 2.377 1_455 S
Gd273 O300 2.448 . S
Gd273 O301 2.506 1_455 S
Gd273 O302 2.435 . S
Gd273 O303 2.717 . S
C274 O292 1.240 . S
C274 O293 1.240 . S
C275 Gd272 2.818 . S
C275 C276 1.510 . S
C275 O294 1.249 . S
C275 O295 1.252 . S
C276 C275 1.510 . S
C276 C277 1.404 . S
C276 C278 1.352 . S
C277 C276 1.404 . S
C277 C281 1.389 . S
C277 H304 0.930 . S
C278 C276 1.352 . S
C278 C280 1.374 . S
C278 H305 0.931 . S
C279 C280 1.359 . S
C279 C281 1.364 . S
C280 C278 1.374 . S
C280 C279 1.359 . S
C280 H306 0.931 . S
C281 C277 1.389 . S
C281 C279 1.364 . S
C281 H307 0.931 . S
C282 O296 1.256 . S
C282 O297 1.257 . S
C283 O298 1.240 . S
C283 O299 1.240 1_556 S
C284 Gd273 2.818 1_655 S
C284 C285 1.510 . S
C284 O300 1.249 1_655 S
C284 O301 1.252 . S
C285 C284 1.510 . S
C285 C286 1.404 . S
C285 C287 1.352 . S
C286 C285 1.404 . S
C286 C290 1.389 . S
C286 H308 0.930 . S
C287 C285 1.352 . S
C287 C289 1.374 . S
C287 H309 0.931 . S
C288 C289 1.359 . S
C288 C290 1.364 . S
C289 C287 1.374 . S
C289 C288 1.359 . S
C289 H310 0.931 . S
C290 C286 1.389 . S
C290 C288 1.364 . S
C290 H311 0.931 . S
C291 O302 1.256 . S
C291 O303 1.257 . S
O292 Gd272 2.377 . S
O292 C274 1.240 . S
O293 Gd273 2.395 1_554 S
O293 C274 1.240 . S
O294 Gd272 2.448 . S
O294 C275 1.249 . S
O295 Gd272 2.506 . S
O295 C275 1.252 . S
O296 Gd272 2.435 . S
O296 C282 1.256 . S
O297 Gd272 2.717 . S
O297 Gd273 2.327 1_554 S
O297 C282 1.257 . S
O298 Gd273 2.377 1_655 S
O298 C283 1.240 . S
O299 Gd272 2.395 1_655 S
O299 C283 1.240 1_554 S
O300 Gd273 2.448 . S
O300 C284 1.249 1_455 S
O301 Gd273 2.506 1_655 S
O301 C284 1.252 . S
O302 Gd273 2.435 . S
O302 C291 1.256 . S
O303 Gd272 2.327 1_556 S
O303 Gd273 2.717 . S
O303 C291 1.257 . S
H304 C277 0.930 . S
H305 C278 0.931 . S
H306 C280 0.931 . S
H307 C281 0.931 . S
H308 C286 0.930 . S
H309 C287 0.931 . S
H310 C289 0.931 . S
H311 C290 0.931 . S
H312 C324 0.930 . S
H313 C326 0.930 . S
H314 C327 0.930 . S
H315 C331 0.959 . S
H316 C331 0.959 . S
H317 C331 0.961 . S
H318 C332 0.960 . S
H319 C332 0.961 . S
H320 C332 0.959 . S
H321 C335 0.929 . S
H322 C336 0.931 . S
H323 C338 0.930 . S
C324 H312 0.930 . S
C324 C325 1.399 . S
C324 C329 1.399 . S
C325 C324 1.399 . S
C325 C326 1.376 . S
C326 H313 0.930 . S
C326 C325 1.376 . S
C326 C327 1.388 . S
C327 H314 0.930 . S
C327 C326 1.388 . S
C327 C328 1.390 . S
C328 C327 1.390 . S
C328 C329 1.394 . S
C328 C334 1.465 . S
C329 C324 1.399 . S
C329 C328 1.394 . S
C329 C330 1.516 . S
C330 C329 1.516 . S
C330 C331 1.502 . S
C330 C332 1.561 . S
C330 C333 1.526 . S
C331 H315 0.959 . S
C331 H316 0.959 . S
C331 H317 0.961 . S
C331 C330 1.502 . S
C332 H318 0.960 . S
C332 H319 0.961 . S
C332 H320 0.959 . S
C332 C330 1.561 . S
C333 C330 1.526 . S
C333 C334 1.396 . S
C333 C338 1.390 . S
C334 C328 1.465 . S
C334 C333 1.396 . S
C334 C335 1.399 . S
C335 H321 0.929 . S
C335 C334 1.399 . S
C335 C336 1.385 . S
C336 H322 0.931 . S
C336 C335 1.385 . S
C336 C337 1.389 . S
C337 C336 1.389 . S
C337 C338 1.387 . S
C338 H323 0.930 . S
C338 C333 1.390 . S
C338 C337 1.387 . S
H339 C351 0.930 . S
H340 C353 0.930 . S
H341 C354 0.930 . S
H342 C358 0.959 . S
H343 C358 0.959 . S
H344 C358 0.961 . S
H345 C359 0.960 . S
H346 C359 0.961 . S
H347 C359 0.959 . S
H348 C362 0.929 . S
H349 C363 0.931 . S
H350 C365 0.930 . S
C351 H339 0.930 . S
C351 C352 1.399 . S
C351 C356 1.399 . S
C352 C351 1.399 . S
C352 C353 1.376 . S
C353 H340 0.930 . S
C353 C352 1.376 . S
C353 C354 1.388 . S
C354 H341 0.930 . S
C354 C353 1.388 . S
C354 C355 1.390 . S
C355 C354 1.390 . S
C355 C356 1.394 . S
C355 C361 1.465 . S
C356 C351 1.399 . S
C356 C355 1.394 . S
C356 C357 1.516 . S
C357 C356 1.516 . S
C357 C358 1.502 . S
C357 C359 1.561 . S
C357 C360 1.526 . S
C358 H342 0.959 . S
C358 H343 0.959 . S
C358 H344 0.961 . S
C358 C357 1.502 . S
C359 H345 0.960 . S
C359 H346 0.961 . S
C359 H347 0.959 . S
C359 C357 1.561 . S
C360 C357 1.526 . S
C360 C361 1.396 . S
C360 C365 1.390 . S
C361 C355 1.465 . S
C361 C360 1.396 . S
C361 C362 1.399 . S
C362 H348 0.929 . S
C362 C361 1.399 . S
C362 C363 1.385 . S
C363 H349 0.931 . S
C363 C362 1.385 . S
C363 C364 1.389 . S
C364 C363 1.389 . S
C364 C365 1.387 . S
C365 H350 0.930 . S
C365 C360 1.390 . S
C365 C364 1.387 . S
H366 C378 0.930 . S
H367 C380 0.930 . S
H368 C381 0.930 . S
H369 C385 0.959 . S
H370 C385 0.959 . S
H371 C385 0.961 . S
H372 C386 0.960 . S
H373 C386 0.961 . S
H374 C386 0.959 . S
H375 C389 0.929 . S
H376 C390 0.931 . S
H377 C392 0.930 . S
C378 H366 0.930 . S
C378 C379 1.399 . S
C378 C383 1.399 . S
C379 C378 1.399 . S
C379 C380 1.376 . S
C380 H367 0.930 . S
C380 C379 1.376 . S
C380 C381 1.388 . S
C381 H368 0.930 . S
C381 C380 1.388 . S
C381 C382 1.390 . S
C382 C381 1.390 . S
C382 C383 1.394 . S
C382 C388 1.465 . S
C383 C378 1.399 . S
C383 C382 1.394 . S
C383 C384 1.516 . S
C384 C383 1.516 . S
C384 C385 1.502 . S
C384 C386 1.561 . S
C384 C387 1.526 . S
C385 H369 0.959 . S
C385 H370 0.959 . S
C385 H371 0.961 . S
C385 C384 1.502 . S
C386 H372 0.960 . S
C386 H373 0.961 . S
C386 H374 0.959 . S
C386 C384 1.561 . S
C387 C384 1.526 . S
C387 C388 1.396 . S
C387 C392 1.390 . S
C388 C382 1.465 . S
C388 C387 1.396 . S
C388 C389 1.399 . S
C389 H375 0.929 . S
C389 C388 1.399 . S
C389 C390 1.385 . S
C390 H376 0.931 . S
C390 C389 1.385 . S
C390 C391 1.389 . S
C391 C390 1.389 . S
C391 C392 1.387 . S
C392 H377 0.930 . S
C392 C387 1.390 . S
C392 C391 1.387 . S
H393 C405 0.930 . S
H394 C407 0.930 . S
H395 C408 0.930 . S
H396 C412 0.959 . S
H397 C412 0.959 . S
H398 C412 0.961 . S
H399 C413 0.960 . S
H400 C413 0.961 . S
H401 C413 0.974 . S
H402 C416 0.929 . S
H403 C417 0.931 . S
H404 C419 0.930 . S
C405 H393 0.930 . S
C405 C406 1.399 . S
C405 C410 1.399 . S
C406 C405 1.399 . S
C406 C407 1.376 . S
C407 H394 0.930 . S
C407 C406 1.376 . S
C407 C408 1.388 . S
C408 H395 0.930 . S
C408 C407 1.388 . S
C408 C409 1.390 . S
C409 C408 1.390 . S
C409 C410 1.394 . S
C409 C415 1.465 . S
C410 C405 1.399 . S
C410 C409 1.394 . S
C410 C411 1.516 . S
C411 C410 1.516 . S
C411 C412 1.502 . S
C411 C413 1.561 . S
C411 C414 1.526 . S
C412 H396 0.959 . S
C412 H397 0.959 . S
C412 H398 0.961 . S
C412 C411 1.502 . S
C413 H399 0.960 . S
C413 H400 0.961 . S
C413 H401 0.974 . S
C413 C411 1.561 . S
C414 C411 1.526 . S
C414 C415 1.396 . S
C414 C419 1.390 . S
C415 C409 1.465 . S
C415 C414 1.396 . S
C415 C416 1.399 . S
C416 H402 0.929 . S
C416 C415 1.399 . S
C416 C417 1.385 . S
C417 H403 0.931 . S
C417 C416 1.385 . S
C417 C418 1.389 . S
C418 C417 1.389 . S
C418 C419 1.387 . S
C419 H404 0.930 . S
C419 C414 1.390 . S
C419 C418 1.387 . S
H420 C432 0.930 . S
H421 C434 0.930 . S
H422 C435 0.930 . S
H423 C439 0.959 . S
H424 C439 0.959 . S
H425 C439 0.961 . S
H426 C440 0.960 . S
H427 C440 0.961 . S
H428 C440 0.959 . S
H429 C443 0.929 . S
H430 C444 0.931 . S
H431 C446 0.930 . S
C432 H420 0.930 . S
C432 C433 1.399 . S
C432 C437 1.399 . S
C433 C432 1.399 . S
C433 C434 1.376 . S
C434 H421 0.930 . S
C434 C433 1.376 . S
C434 C435 1.388 . S
C435 H422 0.930 . S
C435 C434 1.388 . S
C435 C436 1.390 . S
C436 C435 1.390 . S
C436 C437 1.394 . S
C436 C442 1.465 . S
C437 C432 1.399 . S
C437 C436 1.394 . S
C437 C438 1.516 . S
C438 C437 1.516 . S
C438 C439 1.502 . S
C438 C440 1.561 . S
C438 C441 1.526 . S
C439 H423 0.959 . S
C439 H424 0.959 . S
C439 H425 0.961 . S
C439 C438 1.502 . S
C440 H426 0.960 . S
C440 H427 0.961 . S
C440 H428 0.959 . S
C440 C438 1.561 . S
C441 C438 1.526 . S
C441 C442 1.396 . S
C441 C446 1.390 . S
C442 C436 1.465 . S
C442 C441 1.396 . S
C442 C443 1.399 . S
C443 H429 0.929 . S
C443 C442 1.399 . S
C443 C444 1.385 . S
C444 H430 0.931 . S
C444 C443 1.385 . S
C444 C445 1.389 . S
C445 C444 1.389 . S
C445 C446 1.387 . S
C446 H431 0.930 . S
C446 C441 1.390 . S
C446 C445 1.387 . S
H447 C459 0.930 . S
H448 C461 0.930 . S
H449 C462 0.930 . S
H450 C466 0.959 . S
H451 C466 0.959 . S
H452 C466 0.961 . S
H453 C467 0.960 . S
H454 C467 0.961 . S
H455 C467 0.959 . S
H456 C470 0.924 1_545 S
H457 C471 0.931 . S
H458 C473 0.930 . S
C459 H447 0.930 . S
C459 C460 1.399 . S
C459 C464 1.399 . S
C460 C459 1.399 . S
C460 C461 1.376 . S
C461 H448 0.930 . S
C461 C460 1.376 . S
C461 C462 1.388 . S
C462 H449 0.930 . S
C462 C461 1.388 . S
C462 C463 1.390 . S
C463 C462 1.390 . S
C463 C464 1.394 . S
C463 C469 1.465 . S
C464 C459 1.399 . S
C464 C463 1.394 . S
C464 C465 1.516 . S
C465 C464 1.516 . S
C465 C466 1.502 . S
C465 C467 1.561 . S
C465 C468 1.526 . S
C466 H450 0.959 . S
C466 H451 0.959 . S
C466 H452 0.961 . S
C466 C465 1.502 . S
C467 H453 0.960 . S
C467 H454 0.961 . S
C467 H455 0.959 . S
C467 C465 1.561 . S
C468 C465 1.526 . S
C468 C469 1.396 . S
C468 C473 1.390 . S
C469 C463 1.465 . S
C469 C468 1.396 . S
C469 C470 1.423 . S
C470 H456 0.924 1_565 S
C470 C469 1.423 . S
C470 C471 1.367 1_565 S
C471 H457 0.931 . S
C471 C470 1.367 1_545 S
C471 C472 1.389 . S
C472 C471 1.389 . S
C472 C473 1.387 1_545 S
C473 H458 0.930 . S
C473 C468 1.390 . S
C473 C472 1.387 1_565 S
H474 C486 0.930 . S
H475 C488 0.930 . S
H476 C489 0.930 . S
H477 C493 0.959 . S
H478 C493 0.959 . S
H479 C493 0.961 . S
H480 C494 0.960 . S
H481 C494 0.961 . S
H482 C494 0.972 . S
H483 C497 0.929 . S
H484 C498 0.931 . S
H485 C500 0.930 . S
C486 H474 0.930 . S
C486 C487 1.399 . S
C486 C491 1.399 . S
C487 C486 1.399 . S
C487 C488 1.376 . S
C488 H475 0.930 . S
C488 C487 1.376 . S
C488 C489 1.388 . S
C489 H476 0.930 . S
C489 C488 1.388 . S
C489 C490 1.390 . S
C490 C489 1.390 . S
C490 C491 1.394 . S
C490 C496 1.465 . S
C491 C486 1.399 . S
C491 C490 1.394 . S
C491 C492 1.516 . S
C492 C491 1.516 . S
C492 C493 1.502 . S
C492 C494 1.561 . S
C492 C495 1.526 . S
C493 H477 0.959 . S
C493 H478 0.959 . S
C493 H479 0.961 . S
C493 C492 1.502 . S
C494 H480 0.960 . S
C494 H481 0.961 . S
C494 H482 0.972 . S
C494 C492 1.561 . S
C495 C492 1.526 . S
C495 C496 1.396 . S
C495 C500 1.390 . S
C496 C490 1.465 . S
C496 C495 1.396 . S
C496 C497 1.399 . S
C497 H483 0.929 . S
C497 C496 1.399 . S
C497 C498 1.385 . S
C498 H484 0.931 . S
C498 C497 1.385 . S
C498 C499 1.389 . S
C499 C498 1.389 . S
C499 C500 1.387 . S
C500 H485 0.930 . S
C500 C495 1.390 . S
C500 C499 1.387 . S
H501 C513 0.930 . S
H502 C515 0.930 . S
H503 C516 0.930 . S
H504 C520 0.959 . S
H505 C520 0.959 . S
H506 C520 0.961 . S
H507 C521 0.960 . S
H508 C521 0.961 . S
H509 C521 0.959 . S
H510 C524 0.929 . S
H511 C525 0.931 . S
H512 C527 0.930 . S
C513 H501 0.930 . S
C513 C514 1.399 . S
C513 C518 1.399 . S
C514 C513 1.399 . S
C514 C515 1.376 . S
C515 H502 0.930 . S
C515 C514 1.376 . S
C515 C516 1.388 . S
C516 H503 0.930 . S
C516 C515 1.388 . S
C516 C517 1.390 . S
C517 C516 1.390 . S
C517 C518 1.394 . S
C517 C523 1.465 . S
C518 C513 1.399 . S
C518 C517 1.394 . S
C518 C519 1.516 . S
C519 C518 1.516 . S
C519 C520 1.502 . S
C519 C521 1.561 . S
C519 C522 1.526 . S
C520 H504 0.959 . S
C520 H505 0.959 . S
C520 H506 0.961 . S
C520 C519 1.502 . S
C521 H507 0.960 . S
C521 H508 0.961 . S
C521 H509 0.959 . S
C521 C519 1.561 . S
C522 C519 1.526 . S
C522 C523 1.396 . S
C522 C527 1.390 . S
C523 C517 1.465 . S
C523 C522 1.396 . S
C523 C524 1.399 . S
C524 H510 0.929 . S
C524 C523 1.399 . S
C524 C525 1.385 . S
C525 H511 0.931 . S
C525 C524 1.385 . S
C525 C526 1.389 . S
C526 C525 1.389 . S
C526 C527 1.387 . S
C527 H512 0.930 . S
C527 C522 1.390 . S
C527 C526 1.387 . S
H528 C540 0.930 . S
H529 C542 0.930 . S
H530 C543 0.930 . S
H531 C547 0.959 . S
H532 C547 0.959 . S
H533 C547 0.961 . S
H534 C548 0.960 . S
H535 C548 0.961 . S
H536 C548 0.959 . S
H537 C551 0.929 . S
H538 C552 0.931 . S
H539 C554 0.930 . S
C540 H528 0.930 . S
C540 C541 1.399 . S
C540 C545 1.399 . S
C541 C540 1.399 . S
C541 C542 1.376 . S
C542 H529 0.930 . S
C542 C541 1.376 . S
C542 C543 1.388 . S
C543 H530 0.930 . S
C543 C542 1.388 . S
C543 C544 1.390 . S
C544 C543 1.390 . S
C544 C545 1.394 . S
C544 C550 1.465 . S
C545 C540 1.399 . S
C545 C544 1.394 . S
C545 C546 1.516 . S
C546 C545 1.516 . S
C546 C547 1.502 . S
C546 C548 1.561 . S
C546 C549 1.526 . S
C547 H531 0.959 . S
C547 H532 0.959 . S
C547 H533 0.961 . S
C547 C546 1.502 . S
C548 H534 0.960 . S
C548 H535 0.961 . S
C548 H536 0.959 . S
C548 C546 1.561 . S
C549 C546 1.526 . S
C549 C550 1.396 . S
C549 C554 1.390 . S
C550 C544 1.465 . S
C550 C549 1.396 . S
C550 C551 1.399 . S
C551 H537 0.929 . S
C551 C550 1.399 . S
C551 C552 1.385 . S
C552 H538 0.931 . S
C552 C551 1.385 . S
C552 C553 1.389 . S
C553 C552 1.389 . S
C553 C554 1.387 . S
C554 H539 0.930 . S
C554 C549 1.390 . S
C554 C553 1.387 . S
H555 C567 0.930 . S
H556 C569 0.930 . S
H557 C570 0.930 . S
H558 C574 0.959 . S
H559 C574 0.959 1_554 S
H560 C574 0.961 . S
H561 C575 0.960 . S
H562 C575 0.961 . S
H563 C575 0.959 . S
H564 C578 0.929 . S
H565 C579 0.931 . S
H566 C581 0.930 . S
C567 H555 0.930 . S
C567 C568 1.399 . S
C567 C572 1.399 . S
C568 C567 1.399 . S
C568 C569 1.376 . S
C569 H556 0.930 . S
C569 C568 1.376 . S
C569 C570 1.388 . S
C570 H557 0.930 . S
C570 C569 1.388 . S
C570 C571 1.390 . S
C571 C570 1.390 . S
C571 C572 1.394 . S
C571 C577 1.465 . S
C572 C567 1.399 . S
C572 C571 1.394 . S
C572 C573 1.516 1_556 S
C573 C572 1.516 1_554 S
C573 C574 1.502 1_554 S
C573 C575 1.561 . S
C573 C576 1.526 . S
C574 H558 0.959 . S
C574 H559 0.959 1_556 S
C574 H560 0.961 . S
C574 C573 1.502 1_556 S
C575 H561 0.960 . S
C575 H562 0.961 . S
C575 H563 0.959 . S
C575 C573 1.561 . S
C576 C573 1.526 . S
C576 C577 1.396 1_554 S
C576 C581 1.390 . S
C577 C571 1.465 . S
C577 C576 1.396 1_556 S
C577 C578 1.399 . S
C578 H564 0.929 . S
C578 C577 1.399 . S
C578 C579 1.385 . S
C579 H565 0.931 . S
C579 C578 1.385 . S
C579 C580 1.389 1_556 S
C580 C579 1.389 1_554 S
C580 C581 1.387 . S
C581 H566 0.930 . S
C581 C576 1.390 . S
C581 C580 1.387 . S
H582 C594 0.930 . S
H583 C596 0.930 . S
H584 C597 0.930 . S
H585 C601 0.959 . S
H586 C601 0.959 . S
H587 C601 0.961 . S
H588 C602 0.960 . S
H589 C602 0.961 . S
H590 C602 0.959 . S
H591 C605 0.929 . S
H592 C606 0.931 . S
H593 C608 0.930 . S
C594 H582 0.930 . S
C594 C595 1.399 . S
C594 C599 1.399 . S
C595 C594 1.399 . S
C595 C596 1.376 . S
C596 H583 0.930 . S
C596 C595 1.376 . S
C596 C597 1.388 . S
C597 H584 0.930 . S
C597 C596 1.388 . S
C597 C598 1.390 . S
C598 C597 1.390 . S
C598 C599 1.394 . S
C598 C604 1.465 . S
C599 C594 1.399 . S
C599 C598 1.394 . S
C599 C600 1.516 . S
C600 C599 1.516 . S
C600 C601 1.502 . S
C600 C602 1.561 . S
C600 C603 1.526 . S
C601 H585 0.959 . S
C601 H586 0.959 . S
C601 H587 0.961 . S
C601 C600 1.502 . S
C602 H588 0.960 . S
C602 H589 0.961 . S
C602 H590 0.959 . S
C602 C600 1.561 . S
C603 C600 1.526 . S
C603 C604 1.396 . S
C603 C608 1.390 . S
C604 C598 1.465 . S
C604 C603 1.396 . S
C604 C605 1.399 . S
C605 H591 0.929 . S
C605 C604 1.399 . S
C605 C606 1.385 . S
C606 H592 0.931 . S
C606 C605 1.385 . S
C606 C607 1.389 . S
C607 C606 1.389 . S
C607 C608 1.387 . S
C608 H593 0.930 . S
C608 C603 1.390 . S
C608 C607 1.387 . S
H609 C621 0.930 . S
H610 C623 0.930 . S
H611 C624 0.930 . S
H612 C628 0.959 . S
H613 C628 0.959 . S
H614 C628 0.961 . S
H615 C629 0.960 . S
H616 C629 0.961 . S
H617 C629 0.959 . S
H618 C632 0.929 . S
H619 C633 0.931 . S
H620 C635 0.930 . S
C621 H609 0.930 . S
C621 C622 1.399 . S
C621 C626 1.399 . S
C622 C621 1.399 . S
C622 C623 1.376 . S
C623 H610 0.930 . S
C623 C622 1.376 . S
C623 C624 1.388 . S
C624 H611 0.930 . S
C624 C623 1.388 . S
C624 C625 1.390 . S
C625 C624 1.390 . S
C625 C626 1.394 . S
C625 C631 1.465 . S
C626 C621 1.399 . S
C626 C625 1.394 . S
C626 C627 1.516 . S
C627 C626 1.516 . S
C627 C628 1.502 . S
C627 C629 1.561 . S
C627 C630 1.526 . S
C628 H612 0.959 . S
C628 H613 0.959 . S
C628 H614 0.961 . S
C628 C627 1.502 . S
C629 H615 0.960 . S
C629 H616 0.961 . S
C629 H617 0.959 . S
C629 C627 1.561 . S
C630 C627 1.526 . S
C630 C631 1.396 . S
C630 C635 1.390 . S
C631 C625 1.465 . S
C631 C630 1.396 . S
C631 C632 1.399 . S
C632 H618 0.929 . S
C632 C631 1.399 . S
C632 C633 1.385 . S
C633 H619 0.931 . S
C633 C632 1.385 . S
C633 C634 1.389 . S
C634 C633 1.389 . S
C634 C635 1.387 . S
C635 H620 0.930 . S
C635 C630 1.390 . S
C635 C634 1.387 . S
H636 C648 0.930 . S
H637 C650 0.930 . S
H638 C651 0.930 . S
H639 C655 0.959 . S
H640 C655 0.959 . S
H641 C655 0.961 . S
H642 C656 0.960 . S
H643 C656 0.961 . S
H644 C656 0.959 . S
H645 C659 0.929 . S
H646 C660 0.931 . S
H647 C662 0.930 . S
C648 H636 0.930 . S
C648 C649 1.399 . S
C648 C653 1.399 . S
C649 C648 1.399 . S
C649 C650 1.376 . S
C650 H637 0.930 . S
C650 C649 1.376 . S
C650 C651 1.388 . S
C651 H638 0.930 . S
C651 C650 1.388 . S
C651 C652 1.390 . S
C652 C651 1.390 . S
C652 C653 1.394 . S
C652 C658 1.465 . S
C653 C648 1.399 . S
C653 C652 1.394 . S
C653 C654 1.516 . S
C654 C653 1.516 . S
C654 C655 1.502 . S
C654 C656 1.561 . S
C654 C657 1.526 . S
C655 H639 0.959 . S
C655 H640 0.959 . S
C655 H641 0.961 . S
C655 C654 1.502 . S
C656 H642 0.960 . S
C656 H643 0.961 . S
C656 H644 0.959 . S
C656 C654 1.561 . S
C657 C654 1.526 . S
C657 C658 1.396 . S
C657 C662 1.390 . S
C658 C652 1.465 . S
C658 C657 1.396 . S
C658 C659 1.399 . S
C659 H645 0.929 . S
C659 C658 1.399 . S
C659 C660 1.385 . S
C660 H646 0.931 . S
C660 C659 1.385 . S
C660 C661 1.389 . S
C661 C660 1.389 . S
C661 C662 1.387 . S
C662 H647 0.930 . S
C662 C657 1.390 . S
C662 C661 1.387 . S
H663 C675 0.930 . S
H664 C677 0.930 . S
H665 C678 0.930 . S
H666 C682 0.959 . S
H667 C682 0.959 . S
H668 C682 0.961 . S
H669 C683 0.960 . S
H670 C683 0.961 . S
H671 C683 0.959 . S
H672 C686 0.929 . S
H673 C687 0.931 . S
H674 C689 0.930 . S
C675 H663 0.930 . S
C675 C676 1.399 . S
C675 C680 1.399 . S
C676 C675 1.399 . S
C676 C677 1.376 . S
C677 H664 0.930 . S
C677 C676 1.376 . S
C677 C678 1.388 . S
C678 H665 0.930 . S
C678 C677 1.388 . S
C678 C679 1.390 . S
C679 C678 1.390 . S
C679 C680 1.394 . S
C679 C685 1.465 . S
C680 C675 1.399 . S
C680 C679 1.394 . S
C680 C681 1.516 . S
C681 C680 1.516 . S
C681 C682 1.502 . S
C681 C683 1.561 . S
C681 C684 1.526 . S
C682 H666 0.959 . S
C682 H667 0.959 . S
C682 H668 0.961 . S
C682 C681 1.502 . S
C683 H669 0.960 . S
C683 H670 0.961 . S
C683 H671 0.959 . S
C683 C681 1.561 . S
C684 C681 1.526 . S
C684 C685 1.396 . S
C684 C689 1.390 . S
C685 C679 1.465 . S
C685 C684 1.396 . S
C685 C686 1.399 . S
C686 H672 0.929 . S
C686 C685 1.399 . S
C686 C687 1.385 . S
C687 H673 0.931 . S
C687 C686 1.385 . S
C687 C688 1.389 . S
C688 C687 1.389 . S
C688 C689 1.387 . S
C689 H674 0.930 . S
C689 C684 1.390 . S
C689 C688 1.387 . S
H690 C702 0.930 . S
H691 C704 0.930 . S
H692 C705 0.930 . S
H693 C709 0.959 . S
H694 C709 0.959 . S
H695 C709 0.961 . S
H696 C710 0.960 . S
H697 C710 0.961 . S
H698 C710 0.959 . S
H699 C713 0.929 . S
H700 C714 0.931 . S
H701 C716 0.930 . S
C702 H690 0.930 . S
C702 C703 1.399 . S
C702 C707 1.399 . S
C703 C702 1.399 . S
C703 C704 1.376 . S
C704 H691 0.930 . S
C704 C703 1.376 . S
C704 C705 1.388 . S
C705 H692 0.930 . S
C705 C704 1.388 . S
C705 C706 1.390 . S
C706 C705 1.390 . S
C706 C707 1.394 . S
C706 C712 1.465 . S
C707 C702 1.399 . S
C707 C706 1.394 . S
C707 C708 1.516 . S
C708 C707 1.516 . S
C708 C709 1.502 . S
C708 C710 1.561 . S
C708 C711 1.526 . S
C709 H693 0.959 . S
C709 H694 0.959 . S
C709 H695 0.961 . S
C709 C708 1.502 . S
C710 H696 0.960 . S
C710 H697 0.961 . S
C710 H698 0.959 . S
C710 C708 1.561 . S
C711 C708 1.526 . S
C711 C712 1.396 . S
C711 C716 1.390 . S
C712 C706 1.465 . S
C712 C711 1.396 . S
C712 C713 1.399 . S
C713 H699 0.929 . S
C713 C712 1.399 . S
C713 C714 1.385 . S
C714 H700 0.931 . S
C714 C713 1.385 . S
C714 C715 1.389 . S
C715 C714 1.389 . S
C715 C716 1.387 . S
C716 H701 0.930 . S
C716 C711 1.390 . S
C716 C715 1.387 . S
H717 C729 0.930 . S
H718 C731 0.930 . S
H719 C732 0.930 . S
H720 C736 0.959 . S
H721 C736 0.959 . S
H722 C736 0.961 . S
H723 C737 0.960 . S
H724 C737 0.961 . S
H725 C737 0.959 . S
H726 C740 0.929 . S
H727 C741 0.931 . S
H728 C743 0.930 . S
C729 H717 0.930 . S
C729 C730 1.399 . S
C729 C734 1.399 . S
C730 C729 1.399 . S
C730 C731 1.376 . S
C731 H718 0.930 . S
C731 C730 1.376 . S
C731 C732 1.388 . S
C732 H719 0.930 . S
C732 C731 1.388 . S
C732 C733 1.390 . S
C733 C732 1.390 . S
C733 C734 1.394 . S
C733 C739 1.465 . S
C734 C729 1.399 . S
C734 C733 1.394 . S
C734 C735 1.516 . S
C735 C734 1.516 . S
C735 C736 1.502 . S
C735 C737 1.561 . S
C735 C738 1.526 . S
C736 H720 0.959 . S
C736 H721 0.959 . S
C736 H722 0.961 . S
C736 C735 1.502 . S
C737 H723 0.960 . S
C737 H724 0.961 . S
C737 H725 0.959 . S
C737 C735 1.561 . S
C738 C735 1.526 . S
C738 C739 1.396 . S
C738 C743 1.390 . S
C739 C733 1.465 . S
C739 C738 1.396 . S
C739 C740 1.399 . S
C740 H726 0.929 . S
C740 C739 1.399 . S
C740 C741 1.385 . S
C741 H727 0.931 . S
C741 C740 1.385 . S
C741 C742 1.389 . S
C742 C741 1.389 . S
C742 C743 1.387 . S
C743 H728 0.930 . S
C743 C738 1.390 . S
C743 C742 1.387 . S
H744 C756 0.930 . S
H745 C758 0.930 . S
H746 C759 0.930 . S
H747 C763 0.959 . S
H748 C763 0.959 . S
H749 C763 0.961 . S
H750 C764 0.960 . S
H751 C764 0.961 . S
H752 C764 0.959 . S
H753 C767 0.929 . S
H754 C768 0.931 . S
H755 C770 0.930 . S
C756 H744 0.930 . S
C756 C757 1.399 . S
C756 C761 1.399 . S
C757 C756 1.399 . S
C757 C758 1.376 . S
C758 H745 0.930 . S
C758 C757 1.376 . S
C758 C759 1.388 . S
C759 H746 0.930 . S
C759 C758 1.388 . S
C759 C760 1.390 . S
C760 C759 1.390 . S
C760 C761 1.394 . S
C760 C766 1.465 . S
C761 C756 1.399 . S
C761 C760 1.394 . S
C761 C762 1.516 . S
C762 C761 1.516 . S
C762 C763 1.502 . S
C762 C764 1.561 . S
C762 C765 1.526 . S
C763 H747 0.959 . S
C763 H748 0.959 . S
C763 H749 0.961 . S
C763 C762 1.502 . S
C764 H750 0.960 . S
C764 H751 0.961 . S
C764 H752 0.959 . S
C764 C762 1.561 . S
C765 C762 1.526 . S
C765 C766 1.396 . S
C765 C770 1.390 . S
C766 C760 1.465 . S
C766 C765 1.396 . S
C766 C767 1.399 1_556 S
C767 H753 0.929 . S
C767 C766 1.399 1_554 S
C767 C768 1.385 . S
C768 H754 0.931 . S
C768 C767 1.385 . S
C768 C769 1.389 . S
C769 C768 1.389 . S
C769 C770 1.387 1_554 S
C770 H755 0.930 . S
C770 C765 1.390 . S
C770 C769 1.387 1_556 S
H771 C783 0.930 . S
H772 C785 0.930 . S
H773 C786 0.930 . S
H774 C790 0.959 . S
H775 C790 0.959 . S
H776 C790 0.961 . S
H777 C791 0.960 . S
H778 C791 0.961 . S
H779 C791 0.959 . S
H780 C794 0.929 . S
H781 C795 0.931 . S
H782 C797 0.930 . S
C783 H771 0.930 . S
C783 C784 1.399 . S
C783 C788 1.399 . S
C784 C783 1.399 . S
C784 C785 1.376 . S
C785 H772 0.930 . S
C785 C784 1.376 . S
C785 C786 1.388 . S
C786 H773 0.930 . S
C786 C785 1.388 . S
C786 C787 1.390 . S
C787 C786 1.390 . S
C787 C788 1.394 . S
C787 C793 1.465 . S
C788 C783 1.399 . S
C788 C787 1.394 . S
C788 C789 1.516 . S
C789 C788 1.516 . S
C789 C790 1.502 . S
C789 C791 1.561 . S
C789 C792 1.526 . S
C790 H774 0.959 . S
C790 H775 0.959 . S
C790 H776 0.961 . S
C790 C789 1.502 . S
C791 H777 0.960 . S
C791 H778 0.961 . S
C791 H779 0.959 . S
C791 C789 1.561 . S
C792 C789 1.526 . S
C792 C793 1.396 . S
C792 C797 1.390 . S
C793 C787 1.465 . S
C793 C792 1.396 . S
C793 C794 1.399 . S
C794 H780 0.929 . S
C794 C793 1.399 . S
C794 C795 1.385 . S
C795 H781 0.931 . S
C795 C794 1.385 . S
C795 C796 1.389 . S
C796 C795 1.389 . S
C796 C797 1.387 . S
C797 H782 0.930 . S
C797 C792 1.390 . S
C797 C796 1.387 . S
H798 C810 0.930 . S
H799 C812 0.930 . S
H800 C813 0.930 . S
H801 C817 0.959 . S
H802 C817 0.959 . S
H803 C817 0.961 . S
H804 C818 0.960 . S
H805 C818 0.961 . S
H806 C818 0.959 . S
H807 C821 0.929 . S
H808 C822 0.931 . S
H809 C824 0.930 . S
C810 H798 0.930 . S
C810 C811 1.399 . S
C810 C815 1.399 . S
C811 C810 1.399 . S
C811 C812 1.376 . S
C812 H799 0.930 . S
C812 C811 1.376 . S
C812 C813 1.388 . S
C813 H800 0.930 . S
C813 C812 1.388 . S
C813 C814 1.390 . S
C814 C813 1.390 . S
C814 C815 1.394 . S
C814 C820 1.465 . S
C815 C810 1.399 . S
C815 C814 1.394 . S
C815 C816 1.516 . S
C816 C815 1.516 . S
C816 C817 1.502 . S
C816 C818 1.561 . S
C816 C819 1.526 . S
C817 H801 0.959 . S
C817 H802 0.959 . S
C817 H803 0.961 . S
C817 C816 1.502 . S
C818 H804 0.960 . S
C818 H805 0.961 . S
C818 H806 0.959 . S
C818 C816 1.561 . S
C819 C816 1.526 . S
C819 C820 1.396 . S
C819 C824 1.390 . S
C820 C814 1.465 . S
C820 C819 1.396 . S
C820 C821 1.399 . S
C821 H807 0.929 . S
C821 C820 1.399 . S
C821 C822 1.385 . S
C822 H808 0.931 . S
C822 C821 1.385 . S
C822 C823 1.389 . S
C823 C822 1.389 . S
C823 C824 1.387 . S
C824 H809 0.930 . S
C824 C819 1.390 . S
C824 C823 1.387 . S
H825 C837 0.930 . S
H826 C839 0.930 . S
H827 C840 0.930 . S
H828 C844 0.959 . S
H829 C844 0.959 . S
H830 C844 0.961 . S
H831 C845 0.960 . S
H832 C845 0.961 . S
H833 C845 0.959 . S
H834 C848 0.929 . S
H835 C849 0.931 . S
H836 C851 0.930 . S
C837 H825 0.930 . S
C837 C838 1.399 . S
C837 C842 1.399 . S
C838 C837 1.399 . S
C838 C839 1.376 . S
C839 H826 0.930 . S
C839 C838 1.376 . S
C839 C840 1.388 . S
C840 H827 0.930 . S
C840 C839 1.388 . S
C840 C841 1.390 . S
C841 C840 1.390 . S
C841 C842 1.394 . S
C841 C847 1.465 . S
C842 C837 1.399 . S
C842 C841 1.394 . S
C842 C843 1.516 . S
C843 C842 1.516 . S
C843 C844 1.502 . S
C843 C845 1.561 . S
C843 C846 1.526 . S
C844 H828 0.959 . S
C844 H829 0.959 . S
C844 H830 0.961 . S
C844 C843 1.502 . S
C845 H831 0.960 . S
C845 H832 0.961 . S
C845 H833 0.959 . S
C845 C843 1.561 . S
C846 C843 1.526 . S
C846 C847 1.396 . S
C846 C851 1.390 . S
C847 C841 1.465 . S
C847 C846 1.396 . S
C847 C848 1.399 . S
C848 H834 0.929 . S
C848 C847 1.399 . S
C848 C849 1.385 . S
C849 H835 0.931 . S
C849 C848 1.385 . S
C849 C850 1.389 . S
C850 C849 1.389 . S
C850 C851 1.387 . S
C851 H836 0.930 . S
C851 C846 1.390 . S
C851 C850 1.387 . S
H852 C864 0.930 . S
H853 C866 0.930 . S
H854 C867 0.930 . S
H855 C871 0.959 . S
H856 C871 0.959 . S
H857 C871 0.961 . S
H858 C872 0.960 . S
H859 C872 0.961 . S
H860 C872 0.959 . S
H861 C875 0.929 . S
H862 C876 0.931 . S
H863 C878 0.930 . S
C864 H852 0.930 . S
C864 C865 1.399 . S
C864 C869 1.399 . S
C865 C864 1.399 . S
C865 C866 1.376 . S
C866 H853 0.930 . S
C866 C865 1.376 . S
C866 C867 1.388 . S
C867 H854 0.930 . S
C867 C866 1.388 . S
C867 C868 1.390 . S
C868 C867 1.390 . S
C868 C869 1.394 . S
C868 C874 1.465 . S
C869 C864 1.399 . S
C869 C868 1.394 . S
C869 C870 1.516 . S
C870 C869 1.516 . S
C870 C871 1.502 . S
C870 C872 1.561 . S
C870 C873 1.526 . S
C871 H855 0.959 . S
C871 H856 0.959 . S
C871 H857 0.961 . S
C871 C870 1.502 . S
C872 H858 0.960 . S
C872 H859 0.961 . S
C872 H860 0.959 . S
C872 C870 1.561 . S
C873 C870 1.526 . S
C873 C874 1.396 . S
C873 C878 1.390 . S
C874 C868 1.465 . S
C874 C873 1.396 . S
C874 C875 1.399 . S
C875 H861 0.929 . S
C875 C874 1.399 . S
C875 C876 1.385 . S
C876 H862 0.931 . S
C876 C875 1.385 . S
C876 C877 1.389 . S
C877 C876 1.389 . S
C877 C878 1.387 . S
C878 H863 0.930 . S
C878 C873 1.390 . S
C878 C877 1.387 . S
H879 C891 0.930 . S
H880 C893 0.930 . S
H881 C894 0.930 . S
H882 C898 0.959 . S
H883 C898 0.959 . S
H884 C898 0.961 . S
H885 C899 0.960 . S
H886 C899 0.961 . S
H887 C899 0.959 . S
H888 C902 0.929 . S
H889 C903 0.931 . S
H890 C905 0.930 . S
C891 H879 0.930 . S
C891 C892 1.399 . S
C891 C896 1.399 . S
C892 C891 1.399 . S
C892 C893 1.376 . S
C893 H880 0.930 . S
C893 C892 1.376 . S
C893 C894 1.388 . S
C894 H881 0.930 . S
C894 C893 1.388 . S
C894 C895 1.390 . S
C895 C894 1.390 . S
C895 C896 1.394 . S
C895 C901 1.465 . S
C896 C891 1.399 . S
C896 C895 1.394 . S
C896 C897 1.516 . S
C897 C896 1.516 . S
C897 C898 1.502 . S
C897 C899 1.561 . S
C897 C900 1.526 . S
C898 H882 0.959 . S
C898 H883 0.959 . S
C898 H884 0.961 . S
C898 C897 1.502 . S
C899 H885 0.960 . S
C899 H886 0.961 . S
C899 H887 0.959 . S
C899 C897 1.561 . S
C900 C897 1.526 . S
C900 C901 1.396 . S
C900 C905 1.390 . S
C901 C895 1.465 . S
C901 C900 1.396 . S
C901 C902 1.399 . S
C902 H888 0.929 . S
C902 C901 1.399 . S
C902 C903 1.385 . S
C903 H889 0.931 . S
C903 C902 1.385 . S
C903 C904 1.389 . S
C904 C903 1.389 . S
C904 C905 1.387 . S
C905 H890 0.930 . S
C905 C900 1.390 . S
C905 C904 1.387 . S
H906 C918 0.930 . S
H907 C920 0.930 . S
H908 C921 0.930 . S
H909 C925 0.959 . S
H910 C925 0.959 . S
H911 C925 0.961 . S
H912 C926 0.960 . S
H913 C926 0.961 . S
H914 C926 0.959 . S
H915 C929 0.929 . S
H916 C930 0.931 . S
H917 C932 0.930 . S
C918 H906 0.930 . S
C918 C919 1.399 . S
C918 C923 1.399 . S
C919 C918 1.399 . S
C919 C920 1.376 . S
C920 H907 0.930 . S
C920 C919 1.376 . S
C920 C921 1.388 . S
C921 H908 0.930 . S
C921 C920 1.388 . S
C921 C922 1.390 . S
C922 C921 1.390 . S
C922 C923 1.394 . S
C922 C928 1.465 . S
C923 C918 1.399 . S
C923 C922 1.394 . S
C923 C924 1.516 . S
C924 C923 1.516 . S
C924 C925 1.502 . S
C924 C926 1.561 . S
C924 C927 1.526 . S
C925 H909 0.959 . S
C925 H910 0.959 . S
C925 H911 0.961 . S
C925 C924 1.502 . S
C926 H912 0.960 . S
C926 H913 0.961 . S
C926 H914 0.959 . S
C926 C924 1.561 . S
C927 C924 1.526 . S
C927 C928 1.396 . S
C927 C932 1.390 . S
C928 C922 1.465 . S
C928 C927 1.396 . S
C928 C929 1.399 . S
C929 H915 0.929 . S
C929 C928 1.399 . S
C929 C930 1.385 . S
C930 H916 0.931 . S
C930 C929 1.385 . S
C930 C931 1.389 . S
C931 C930 1.389 . S
C931 C932 1.387 . S
C932 H917 0.930 . S
C932 C927 1.390 . S
C932 C931 1.387 . S
H933 C945 0.930 . S
H934 C947 0.930 . S
H935 C948 0.930 . S
H936 C952 0.959 . S
H937 C952 0.959 . S
H938 C952 0.961 . S
H939 C953 0.960 . S
H940 C953 0.961 . S
H941 C953 0.959 . S
H942 C956 0.929 . S
H943 C957 0.931 . S
H944 C959 0.930 . S
C945 H933 0.930 . S
C945 C946 1.399 . S
C945 C950 1.399 . S
C946 C945 1.399 . S
C946 C947 1.376 . S
C947 H934 0.930 . S
C947 C946 1.376 . S
C947 C948 1.388 . S
C948 H935 0.930 . S
C948 C947 1.388 . S
C948 C949 1.390 . S
C949 C948 1.390 . S
C949 C950 1.394 . S
C949 C955 1.465 . S
C950 C945 1.399 . S
C950 C949 1.394 . S
C950 C951 1.516 . S
C951 C950 1.516 . S
C951 C952 1.502 . S
C951 C953 1.561 . S
C951 C954 1.526 . S
C952 H936 0.959 . S
C952 H937 0.959 . S
C952 H938 0.961 . S
C952 C951 1.502 . S
C953 H939 0.960 . S
C953 H940 0.961 . S
C953 H941 0.959 . S
C953 C951 1.561 . S
C954 C951 1.526 . S
C954 C955 1.396 . S
C954 C959 1.390 . S
C955 C949 1.465 . S
C955 C954 1.396 . S
C955 C956 1.399 . S
C956 H942 0.929 . S
C956 C955 1.399 . S
C956 C957 1.385 . S
C957 H943 0.931 . S
C957 C956 1.385 . S
C957 C958 1.389 . S
C958 C957 1.389 . S
C958 C959 1.387 . S
C959 H944 0.930 . S
C959 C954 1.390 . S
C959 C958 1.387 . S
C325 C6 1.173 . S
C337 C159 1.197 . S
C352 C21 1.456 . S
C364 C208 1.518 . S
C391 C234 1.835 . S
C379 C49 1.756 . S
C406 C68 2.077 . S
C418 C282 2.088 1_655 S
C445 C194 2.981 . S
C433 C2 2.880 . S
C472 C162 0.528 . S
C460 C30 0.549 . S
C499 C283 1.843 . S
C487 C40 1.902 . S
C526 C251 1.488 . S
C514 C63 1.509 . S
C541 C11 1.474 . S
C553 C279 1.558 . S
C580 C211 2.572 . S
C568 C44 2.657 . S
C595 C59 1.939 . S
C607 C163 1.971 . S
C622 C25 1.363 . S
C634 C248 1.250 . S
C661 C168 1.433 . S
C649 C82 1.445 . S
C676 C101 1.285 . S
C688 C199 1.222 . S
C703 C125 2.240 . S
C715 C243 2.336 . S
C730 C144 1.760 . S
C742 C291 1.879 . S
C757 C87 1.919 . S
C769 C203 2.021 . S
C796 C171 1.816 . S
C784 C97 1.803 . S
C823 C274 1.666 . S
C811 C120 1.708 . S
C850 C242 1.506 . S
C838 C135 1.589 . S
C865 C78 1.889 . S
C877 C288 2.044 . S
C904 C202 1.871 . S
C892 C116 1.925 . S
C931 C154 2.615 . S
C919 C139 2.617 . S
C946 C106 0.926 . S
C958 C239 0.919 . S
