# Generated by pormake.
# Topology scu, (8,4)-cn, num edge types: 1
# Building blocks:
#     Node 0, Type 0, BuildingBlock: GIZVER_clean_sbu_0, # of connection points: 8
#     Node 1, Type 1, BuildingBlock: IZENUY_clean_linker_0, # of connection points: 4
#     Node 2, Type 1, BuildingBlock: IZENUY_clean_linker_0, # of connection points: 4
#     Edge 3, Type (0, 1), BuildingBlock: TEMPAE_clean_linker_10, # of connection points: 2
#     Edge 4, Type (0, 1), BuildingBlock: TEMPAE_clean_linker_10, # of connection points: 2
#     Edge 5, Type (0, 1), BuildingBlock: TEMPAE_clean_linker_10, # of connection points: 2
#     Edge 6, Type (0, 1), BuildingBlock: TEMPAE_clean_linker_10, # of connection points: 2
#     Edge 7, Type (0, 1), BuildingBlock: TEMPAE_clean_linker_10, # of connection points: 2
#     Edge 8, Type (0, 1), BuildingBlock: TEMPAE_clean_linker_10, # of connection points: 2
#     Edge 9, Type (0, 1), BuildingBlock: TEMPAE_clean_linker_10, # of connection points: 2
#     Edge 10, Type (0, 1), BuildingBlock: TEMPAE_clean_linker_10, # of connection points: 2
# Relax obj value: 0.121
# Max RMSD: 0.250
# Mean RMSD: 0.211
data_MOF--net-scu--node1-GIZVER_clean_sbu_0--node2-IZENUY_clean_linker_0--edge1-TEMPAE_clean_linker_10
_symmetry_space_group_name_H-M    P1
_symmetry_Int_Tables_number       1
_symmetry_cell_setting            triclinic
loop_
_symmetry_equiv_pos_as_xyz
'x, y, z'
_cell_length_a     27.41147
_cell_length_b     27.916352
_cell_length_c     21.946334
_cell_angle_alpha  100.58028
_cell_angle_beta   80.847155
_cell_angle_gamma 108.30687
loop_
_atom_site_label
_atom_site_type_symbol
_atom_site_fract_x
_atom_site_fract_y
_atom_site_fract_z
_atom_type_partial_charge
Co0 Co 0.03745 0.96252 0.12448 0.0
Co1 Co 0.11414 0.03889 0.09469 0.0
Co2 Co 1.02208 0.0288 0.01604 0.0
O3 O 0.06223 0.9945 0.05149 0.0
H4 H 0.07733 0.97326 0.0191 0.0
O5 O 0.98257 0.06349 0.97971 0.0
Co6 Co 1.00747 0.09029 0.9026 0.0
Co7 Co 0.93023 1.01783 0.93826 0.0
H8 H 0.96876 0.08653 1.0109 0.0
O9 O 0.17138 1.0204 0.10114 0.0
O10 O 0.09771 1.0098 0.16751 0.0
O11 O 0.11475 0.1092 0.11305 0.0
O12 O 0.03837 0.09372 0.07815 0.0
O13 O 0.08525 0.05567 0.95892 0.0
O14 O 0.02888 0.11969 0.83459 0.0
O15 O 0.97853 0.14251 0.91922 0.0
O16 O 0.04428 0.04111 0.8752 0.0
O17 O 1.00581 0.96346 0.95473 0.0
O18 O 0.93054 0.94822 0.91798 0.0
O19 O 0.94398 0.0445 0.86432 0.0
O20 O 0.87264 0.03556 0.93481 0.0
C21 C 0.04512 0.90048 0.15512 0.0
C22 C 0.95785 1.00794 0.13172 0.0
C23 C 0.07565 0.12277 0.1083 0.0
C24 C 0.14549 1.00836 0.15392 0.0
C25 C 1.00363 0.15085 0.86443 0.0
C26 C 0.08482 0.04528 0.89991 0.0
C27 C 0.96951 0.93463 0.92302 0.0
C28 C 0.8964 0.04631 0.88062 0.0
O29 O 1.01647 0.92725 0.18827 0.0
O30 O 0.07108 0.91426 0.10279 0.0
O31 O 0.95848 1.0018 0.07263 0.0
O32 O 0.99682 1.00776 0.15647 0.0
H33 H 0.0508 0.46154 0.43115 0.0
H34 H 1.01453 0.46957 0.63041 0.0
H35 H 1.01805 0.32723 0.51866 0.0
H36 H 0.04319 0.61143 0.60266 0.0
H37 H 0.04281 0.60034 0.40497 0.0
H38 H 0.06035 0.74522 0.52272 0.0
N39 N 0.03547 0.52408 0.5386 0.0
N40 N 0.04051 0.54741 0.49348 0.0
C41 C 0.04016 0.4429 0.47247 0.0
C42 C 0.03633 0.39075 0.46743 0.0
C43 C 0.0318 0.47136 0.53139 0.0
C44 C 1.02024 0.44752 0.5852 0.0
C45 C 1.01497 0.39539 0.58083 0.0
C46 C 1.02243 0.36753 0.52188 0.0
C47 C 0.04572 0.6294 0.56207 0.0
C48 C 0.05039 0.68167 0.56975 0.0
C49 C 0.04445 0.60035 0.50222 0.0
C50 C 0.04634 0.62383 0.45003 0.0
C51 C 0.05132 0.67641 0.45631 0.0
C52 C 0.05507 0.70475 0.5165 0.0
H53 H 0.59308 0.02748 0.42238 0.0
H54 H 0.59448 0.0343 0.62021 0.0
H55 H 0.73659 0.05775 0.49895 0.0
H56 H 0.44836 1.0197 0.60773 0.0
H57 H 0.44049 1.00349 0.40977 0.0
H58 H 0.30254 0.99055 0.53815 0.0
N59 N 0.53296 1.02312 0.53515 0.0
N60 N 0.50514 1.01841 0.49333 0.0
C61 C 0.61394 0.03332 0.46238 0.0
C62 C 0.66807 0.04346 0.4538 0.0
C63 C 0.58726 0.03105 0.52305 0.0
C64 C 0.61492 0.03701 0.57384 0.0
C65 C 0.66873 0.04703 0.56528 0.0
C66 C 0.69499 0.05095 0.50556 0.0
C67 C 0.42621 1.01228 0.56852 0.0
C68 C 0.37258 1.00446 0.57952 0.0
C69 C 0.45094 1.01108 0.50676 0.0
C70 C 0.42152 1.00336 0.45703 0.0
C71 C 0.36784 0.99531 0.46806 0.0
C72 C 0.34379 0.99535 0.52924 0.0
C73 C 1.02161 0.16835 0.1836 0.0
C74 C 0.069 0.16971 0.14773 0.0
C75 C 1.01664 0.20906 0.22992 0.0
C76 C 0.05964 0.25301 0.23893 0.0
C77 C 0.10636 0.25613 0.19922 0.0
C78 C 0.1109 0.21389 0.15507 0.0
C79 C 0.96664 0.20312 0.27233 0.0
C80 C 0.1524 0.30304 0.2054 0.0
C81 C 0.03167 0.36568 0.35094 0.0
C82 C 0.04709 0.3596 0.40643 0.0
C83 C 0.03761 0.33277 0.29509 0.0
C84 C 0.05795 0.29195 0.29519 0.0
C85 C 0.075 0.28668 0.35047 0.0
C86 C 0.07061 0.32119 0.40462 0.0
C87 C 1.02094 0.34091 0.23646 0.0
C88 C 0.0962 0.24333 0.35329 0.0
H89 H 0.98933 0.13394 0.17841 0.0
H90 H 0.14748 0.21504 0.12705 0.0
H91 H 0.97329 0.20034 0.31999 0.0
H92 H 0.95277 0.23687 0.27577 0.0
H93 H 0.93579 0.16848 0.25597 0.0
H94 H 0.18177 0.30338 0.16414 0.0
H95 H 0.14016 0.33809 0.21138 0.0
H96 H 0.17089 0.30432 0.24732 0.0
H97 H 1.01358 0.39514 0.35141 0.0
H98 H 0.08472 0.31722 0.44625 0.0
H99 H 0.98529 0.31025 0.22454 0.0
H100 H 0.05117 0.33899 0.19669 0.0
H101 H 1.01303 0.37821 0.24175 0.0
H102 H 0.06728 0.2063 0.33981 0.0
H103 H 0.10624 0.24374 0.40051 0.0
H104 H 0.13134 0.2454 0.31973 0.0
C105 C 0.87221 1.02635 0.14786 0.0
C106 C 0.91131 1.01556 0.17235 0.0
C107 C 0.82789 0.03323 0.18615 0.0
C108 C 0.82225 0.0286 0.25025 0.0
C109 C 0.86164 1.01778 0.27515 0.0
C110 C 0.90571 1.01173 0.23606 0.0
C111 C 0.78726 0.04567 0.15815 0.0
C112 C 0.85715 1.01228 0.3432 0.0
C113 C 0.73849 0.08632 0.37794 0.0
C114 C 0.69801 0.04303 0.39145 0.0
C115 C 0.77708 0.0831 0.32831 0.0
C116 C 0.77559 0.03519 0.29216 0.0
C117 C 0.73254 0.99219 0.30267 0.0
C118 C 0.69404 0.99672 0.35217 0.0
C119 C 0.8217 0.13009 0.3182 0.0
C120 C 0.72951 0.94038 0.2655 0.0
H121 H 0.87637 0.02981 0.09877 0.0
H122 H 0.93558 1.00331 0.25544 0.0
H123 H 0.74957 1.01609 0.16474 0.0
H124 H 0.78197 0.08251 0.18245 0.0
H125 H 0.79751 0.04821 0.10755 0.0
H126 H 0.89063 1.0027 0.35493 0.0
H127 H 0.85444 0.04832 0.37277 0.0
H128 H 0.82131 0.98194 0.35542 0.0
H129 H 0.74171 0.12204 0.4088 0.0
H130 H 0.66317 0.96311 0.36332 0.0
H131 H 0.83206 0.13295 0.26776 0.0
H132 H 0.85609 0.1276 0.33668 0.0
H133 H 0.81278 0.16549 0.34227 0.0
H134 H 0.73892 0.94304 0.21496 0.0
H135 H 0.69062 0.91273 0.27323 0.0
H136 H 0.75838 0.9253 0.27949 0.0
C137 C 0.0969 0.85259 0.18876 0.0
C138 C 0.04893 0.85597 0.17912 0.0
C139 C 0.09988 0.81667 0.22436 0.0
C140 C 0.05371 0.78227 0.24855 0.0
C141 C 1.00574 0.78146 0.23137 0.0
C142 C 1.00374 0.81945 0.19876 0.0
C143 C 0.15238 0.81688 0.23719 0.0
C144 C 0.95615 0.7419 0.2499 0.0
C145 C 0.06723 0.68341 0.33993 0.0
C146 C 0.05133 0.70217 0.4015 0.0
C147 C 0.06704 0.70789 0.28915 0.0
C148 C 0.05393 0.75421 0.30027 0.0
C149 C 0.03968 0.77427 0.36217 0.0
C150 C 0.03585 0.74683 0.41095 0.0
C151 C 0.08178 0.68416 0.22415 0.0
C152 C 0.029 0.8254 0.3776 0.0
H153 H 0.13187 0.88008 0.17204 0.0
H154 H 0.96663 0.82127 0.18976 0.0
H155 H 0.16495 0.78736 0.20301 0.0
H156 H 0.18175 0.85413 0.23179 0.0
H157 H 0.15158 0.80795 0.28458 0.0
H158 H 0.92593 0.73755 0.21934 0.0
H159 H 0.96284 0.70435 0.24757 0.0
H160 H 0.94116 0.75346 0.29852 0.0
H161 H 0.08016 0.64967 0.33077 0.0
H162 H 1.02055 0.76118 0.45669 0.0
H163 H 0.12438 0.69776 0.21333 0.0
H164 H 0.06366 0.69423 0.18847 0.0
H165 H 0.07049 0.64197 0.22066 0.0
H166 H 0.05865 0.85411 0.35185 0.0
H167 H 0.02871 0.83997 0.42826 0.0
H168 H 0.9908 0.82198 0.36365 0.0
C169 C 0.16125 1.01254 0.26397 0.0
C170 C 0.17238 0.99714 0.20023 0.0
C171 C 0.19159 1.00837 0.30751 0.0
C172 C 0.23275 0.98674 0.28683 0.0
C173 C 0.24146 0.9676 0.22306 0.0
C174 C 0.21201 0.97421 0.18026 0.0
C175 C 0.1807 0.02849 0.37534 0.0
C176 C 0.28243 0.94094 0.19995 0.0
C177 C 0.34894 0.02797 0.3787 0.0
C178 C 0.33635 0.98998 0.41703 0.0
C179 C 0.31535 1.02725 0.33626 0.0
C180 C 0.26863 0.98694 0.33118 0.0
C181 C 0.25638 0.94787 0.36908 0.0
C182 C 0.29043 0.94996 0.41152 0.0
C183 C 0.3288 0.07086 0.29882 0.0
C184 C 0.20763 0.90362 0.36626 0.0
H185 H 0.13053 0.03019 0.27943 0.0
H186 H 0.21998 0.96139 0.13102 0.0
H187 H 0.17146 0.9972 0.4039 0.0
H188 H 0.21562 0.05816 0.39167 0.0
H189 H 0.14795 0.04515 0.3837 0.0
H190 H 0.27941 0.92205 0.15094 0.0
H191 H 0.32132 0.96891 0.20267 0.0
H192 H 0.27922 0.91182 0.22989 0.0
H193 H 0.38396 0.05947 0.38398 0.0
H194 H 0.28065 0.92056 0.44133 0.0
H195 H 0.29741 0.08934 0.30824 0.0
H196 H 0.33221 0.05639 0.24826 0.0
H197 H 0.36566 0.10014 0.30987 0.0
H198 H 0.17919 0.90809 0.33873 0.0
H199 H 0.18869 0.89806 0.41415 0.0
H200 H 0.21824 0.8684 0.34555 0.0
C201 C 0.95074 0.8676 0.83018 0.0
C202 C 0.97737 0.88804 0.88304 0.0
C203 C 0.96399 0.82953 0.78554 0.0
C204 C 1.00407 0.81042 0.79453 0.0
C205 C 0.02877 0.82841 0.84979 0.0
C206 C 1.0156 0.86748 0.89304 0.0
C207 C 0.9372 0.81212 0.72681 0.0
C208 C 0.07073 0.80813 0.86198 0.0
C209 C 1.0092 0.69133 0.68073 0.0
C210 C 0.04611 0.71209 0.63298 0.0
C211 C 0.99786 0.72224 0.73607 0.0
C212 C 1.02293 0.77536 0.74312 0.0
C213 C 0.0625 0.79595 0.697 0.0
C214 C 0.07436 0.76391 0.64331 0.0
C215 C 0.9568 0.69851 0.78522 0.0
C216 C 0.08973 0.8525 0.70207 0.0
H217 H 0.9214 0.88337 0.82173 0.0
H218 H 0.03624 0.88286 0.93389 0.0
H219 H 0.96564 0.82288 0.68593 0.0
H220 H 0.92099 0.77003 0.71953 0.0
H221 H 0.90542 0.82918 0.7281 0.0
H222 H 0.07915 0.81885 0.91136 0.0
H223 H 0.05965 0.76598 0.85036 0.0
H224 H 0.10675 0.82384 0.83189 0.0
H225 H 0.98701 0.65146 0.67362 0.0
H226 H 0.10424 0.78012 0.60788 0.0
H227 H 0.92088 0.70834 0.7836 0.0
H228 H 0.96929 0.71365 0.83246 0.0
H229 H 0.94766 0.65631 0.77813 0.0
H230 H 0.06154 0.87326 0.70041 0.0
H231 H 0.12137 0.86208 0.66381 0.0
H232 H 0.10601 0.86667 0.74735 0.0
C233 C 0.17478 0.03707 0.88653 0.0
C234 C 0.13117 0.03646 0.85996 0.0
C235 C 0.21936 0.03024 0.84892 0.0
C236 C 0.22051 1.023 0.78323 0.0
C237 C 0.17625 1.02134 0.75622 0.0
C238 C 0.13218 0.02795 0.79484 0.0
C239 C 0.2654 0.03132 0.87941 0.0
C240 C 0.17567 1.01338 0.68632 0.0
C241 C 0.34266 0.05777 0.67191 0.0
C242 C 0.34526 1.00952 0.64284 0.0
C243 C 0.30437 0.06294 0.72127 0.0
C244 C 0.26817 1.0187 0.74198 0.0
C245 C 0.27382 0.97007 0.71636 0.0
C246 C 0.31198 0.96602 0.66639 0.0
C247 C 0.29973 0.1155 0.74707 0.0
C248 C 0.23677 0.92201 0.73773 0.0
H249 H 0.17427 0.04315 0.93682 0.0
H250 H 0.09868 1.02713 0.7738 0.0
H251 H 0.27721 0.99634 0.8614 0.0
H252 H 0.29868 0.06426 0.8676 0.0
H253 H 0.25728 0.0343 0.93099 0.0
H254 H 0.13823 1.01317 0.67276 0.0
H255 H 0.20695 0.04404 0.66564 0.0
H256 H 0.18307 0.97661 0.66569 0.0
H257 H 0.36788 0.09127 0.65269 0.0
H258 H 0.3136 0.92869 0.64303 0.0
H259 H 0.2937 0.12049 0.79875 0.0
H260 H 0.26559 0.12031 0.73047 0.0
H261 H 0.33452 0.14599 0.73214 0.0
H262 H 0.22831 0.92676 0.78925 0.0
H263 H 0.25202 0.88877 0.72226 0.0
H264 H 0.19979 0.91361 0.71784 0.0
C265 C 0.96913 0.2234 0.85703 0.0
C266 C 1.0034 0.19435 0.83435 0.0
C267 C 0.96771 0.2626 0.82546 0.0
C268 C 1.0013 0.27281 0.77006 0.0
C269 C 0.03704 0.24464 0.74839 0.0
C270 C 0.03761 0.20597 0.78065 0.0
C271 C 0.92909 0.29177 0.85011 0.0
C272 C 0.07352 0.25392 0.68951 0.0
C273 C 0.96802 0.32042 0.63594 0.0
C274 C 1.0036 0.36915 0.63701 0.0
C275 C 0.9644 0.29005 0.68166 0.0
C276 C 0.99638 0.30901 0.7306 0.0
C277 C 0.02911 0.35992 0.7351 0.0
C278 C 0.03251 0.38942 0.68803 0.0
C279 C 0.92926 0.23614 0.67467 0.0
C280 C 0.06338 0.38191 0.78692 0.0
H281 H 0.9426 0.21474 0.89848 0.0
H282 H 0.06467 0.18422 0.76295 0.0
H283 H 0.9477 0.33328 0.85018 0.0
H284 H 0.89776 0.27991 0.81924 0.0
H285 H 0.91146 0.28489 0.89811 0.0
H286 H 0.10094 0.23076 0.68094 0.0
H287 H 0.05103 0.24439 0.64886 0.0
H288 H 0.0961 0.29476 0.69216 0.0
H289 H 0.94478 0.30493 0.5973 0.0
H290 H 0.0601 0.42709 0.68921 0.0
H291 H 0.90584 0.22786 0.71963 0.0
H292 H 0.95277 0.20916 0.66176 0.0
H293 H 0.90298 0.22901 0.6382 0.0
H294 H 0.04176 0.37206 0.83236 0.0
H295 H 0.07935 0.42403 0.79035 0.0
H296 H 0.09613 0.36531 0.77811 0.0
C297 C 0.82157 0.06961 0.85694 0.0
C298 C 0.8664 0.05476 0.8354 0.0
C299 C 0.7887 0.07178 0.81535 0.0
C300 C 0.80055 0.05803 0.75067 0.0
C301 C 0.84675 0.04478 0.72842 0.0
C302 C 0.87945 0.04377 0.77112 0.0
C303 C 0.74057 0.08743 0.84078 0.0
C304 C 0.86061 0.02976 0.65971 0.0
C305 C 0.69074 1.00947 0.648 0.0
C306 C 0.69824 0.0516 0.61773 0.0
C307 C 0.72353 1.01114 0.69193 0.0
C308 C 0.76397 0.05634 0.70643 0.0
C309 C 0.77003 0.09959 0.67776 0.0
C310 C 0.73752 0.0965 0.63305 0.0
C311 C 0.71601 0.96409 0.72122 0.0
C312 C 0.81191 0.14856 0.69289 0.0
H313 H 0.81162 0.07875 0.90663 0.0
H314 H 0.91399 0.03217 0.75429 0.0
H315 H 0.73897 0.11882 0.81735 0.0
H316 H 0.70579 0.05487 0.83097 0.0
H317 H 0.73872 0.10017 0.8919 0.0
H318 H 0.89854 1.02176 0.64988 0.0
H319 H 0.83042 0.99519 0.6419 0.0
H320 H 0.86194 0.06052 0.63333 0.0
H321 H 0.66061 0.97459 0.63533 0.0
H322 H 0.7432 0.12893 0.60924 0.0
H323 H 0.71063 0.97305 0.77277 0.0
H324 H 0.75107 0.95101 0.70882 0.0
H325 H 0.68214 0.93236 0.70582 0.0
H326 H 0.80979 0.16111 0.74398 0.0
H327 H 0.80943 0.17968 0.66954 0.0
H328 H 0.85008 0.1419 0.6778 0.0
loop_
_geom_bond_atom_site_label_1
_geom_bond_atom_site_label_2
_geom_bond_distance
_geom_bond_site_symmetry_2
_ccdc_geom_bond_type
Co0 O3 2.042 . S
Co0 O10 2.264 1_565 S
Co0 O29 2.286 1_455 S
Co0 O30 2.069 . S
Co0 O32 2.015 1_455 S
Co1 O3 2.122 1_545 S
Co1 O9 2.073 . S
Co1 O10 2.327 . S
Co1 O11 1.976 . S
Co2 O3 2.087 1_545 S
Co2 O5 2.087 1_454 S
Co2 O12 2.117 . S
Co2 O13 2.148 1_554 S
Co2 O17 2.106 1_444 S
Co2 O31 2.139 1_445 S
O3 Co0 2.042 . S
O3 Co1 2.122 1_565 S
O3 Co2 2.087 1_565 S
O3 H4 0.980 . S
H4 O3 0.980 . S
O5 Co2 2.087 1_656 S
O5 Co6 2.042 . S
O5 Co7 2.122 1_545 S
O5 H8 0.980 . S
Co6 O5 2.042 . S
Co6 O14 2.286 1_655 S
Co6 O15 2.069 . S
Co6 O16 2.015 1_655 S
Co6 O19 2.260 1_545 S
Co7 O5 2.122 1_565 S
Co7 O18 1.976 . S
Co7 O19 2.335 . S
Co7 O20 2.073 . S
H8 O5 0.980 . S
O9 Co1 2.073 . S
O9 C24 1.245 1_545 S
O10 Co0 2.264 1_545 S
O10 Co1 2.327 . S
O10 C24 1.257 1_545 S
O11 Co1 1.976 . S
O11 C23 1.251 . S
O12 Co2 2.117 . S
O12 C23 1.274 . S
O13 Co2 2.148 1_556 S
O13 C26 1.246 . S
O14 Co6 2.286 1_455 S
O14 C25 1.259 1_455 S
O15 Co6 2.069 . S
O15 C25 1.289 . S
O16 Co6 2.015 1_455 S
O16 C26 1.257 . S
O17 Co2 2.106 1_666 S
O17 C27 1.274 . S
O18 Co7 1.976 . S
O18 C27 1.251 . S
O19 Co6 2.260 1_565 S
O19 Co7 2.335 . S
O19 C28 1.252 1_565 S
O20 Co7 2.073 . S
O20 C28 1.245 1_565 S
C21 O29 1.259 1_455 S
C21 O30 1.289 . S
C22 O31 1.246 . S
C22 O32 1.257 . S
C23 O11 1.251 . S
C23 O12 1.274 . S
C24 O9 1.245 1_565 S
C24 O10 1.257 1_565 S
C25 O14 1.259 1_655 S
C25 O15 1.289 . S
C26 O13 1.246 . S
C26 O16 1.257 . S
C27 O17 1.274 . S
C27 O18 1.251 . S
C28 O19 1.252 1_545 S
C28 O20 1.245 1_545 S
O29 Co0 2.286 1_655 S
O29 C21 1.259 1_655 S
O30 Co0 2.069 . S
O30 C21 1.289 . S
O31 Co2 2.139 1_665 S
O31 C22 1.246 . S
O32 Co0 2.015 1_655 S
O32 C22 1.257 . S
H33 C41 0.940 . S
H34 C44 0.940 . S
H35 C46 0.940 . S
H36 C47 0.940 . S
H37 C50 0.940 . S
H38 C52 0.940 . S
N39 N40 1.190 . S
N39 C43 1.477 . S
N40 N39 1.190 . S
N40 C49 1.477 . S
C41 H33 0.940 . S
C41 C42 1.390 1_455 S
C41 C43 1.322 . S
C42 C41 1.390 1_655 S
C42 C46 1.370 . S
C43 N39 1.477 . S
C43 C41 1.322 . S
C43 C44 1.447 . S
C44 H34 0.940 . S
C44 C43 1.447 . S
C44 C45 1.373 . S
C45 C44 1.373 . S
C45 C46 1.417 1_455 S
C46 H35 0.940 . S
C46 C42 1.370 . S
C46 C45 1.417 1_655 S
C47 H36 0.940 . S
C47 C48 1.390 1_455 S
C47 C49 1.322 . S
C48 C47 1.390 1_655 S
C48 C52 1.370 . S
C49 N40 1.477 . S
C49 C47 1.322 . S
C49 C50 1.447 . S
C50 H37 0.940 . S
C50 C49 1.447 . S
C50 C51 1.373 . S
C51 C50 1.373 . S
C51 C52 1.417 1_455 S
C52 H38 0.940 . S
C52 C48 1.370 . S
C52 C51 1.417 1_655 S
H53 C61 0.940 . S
H54 C64 0.940 . S
H55 C66 0.940 . S
H56 C67 0.940 . S
H57 C70 0.940 . S
H58 C72 0.940 . S
N59 N60 1.190 . S
N59 C63 1.477 . S
N60 N59 1.190 . S
N60 C69 1.477 . S
C61 H53 0.940 . S
C61 C62 1.390 1_545 S
C61 C63 1.322 . S
C62 C61 1.390 1_565 S
C62 C66 1.370 . S
C63 N59 1.477 . S
C63 C61 1.322 . S
C63 C64 1.447 . S
C64 H54 0.940 . S
C64 C63 1.447 . S
C64 C65 1.373 . S
C65 C64 1.373 . S
C65 C66 1.417 1_545 S
C66 H55 0.940 . S
C66 C62 1.370 . S
C66 C65 1.417 1_565 S
C67 H56 0.940 . S
C67 C68 1.390 1_545 S
C67 C69 1.322 . S
C68 C67 1.390 1_565 S
C68 C72 1.370 . S
C69 N60 1.477 . S
C69 C67 1.322 . S
C69 C70 1.447 . S
C70 H57 0.940 . S
C70 C69 1.447 . S
C70 C71 1.373 . S
C71 C70 1.373 . S
C71 C72 1.417 1_545 S
C72 H58 0.940 . S
C72 C68 1.370 . S
C72 C71 1.417 1_565 S
C73 C74 1.405 . S
C73 C75 1.394 . S
C73 H89 0.931 . S
C74 C73 1.405 . S
C74 C78 1.364 1_655 S
C75 C73 1.394 . S
C75 C76 1.372 . S
C75 C79 1.531 . S
C76 C75 1.372 . S
C76 C77 1.405 1_655 S
C76 C84 1.505 . S
C77 C76 1.405 1_455 S
C77 C78 1.392 . S
C77 C80 1.511 . S
C78 C74 1.364 1_455 S
C78 C77 1.392 . S
C78 H90 0.929 . S
C79 C75 1.531 . S
C79 H91 0.960 . S
C79 H92 0.962 . S
C79 H93 0.960 . S
C80 C77 1.511 . S
C80 H94 0.961 . S
C80 H95 0.961 . S
C80 H96 0.961 . S
C81 C82 1.370 . S
C81 C83 1.363 . S
C81 H97 0.931 . S
C82 C81 1.370 . S
C82 C86 1.408 1_655 S
C83 C81 1.363 . S
C83 C84 1.370 . S
C83 C87 1.524 . S
C84 C76 1.505 . S
C84 C83 1.370 . S
C84 C85 1.403 1_655 S
C85 C84 1.403 1_455 S
C85 C86 1.404 . S
C85 C88 1.539 . S
C86 C82 1.408 1_455 S
C86 C85 1.404 . S
C86 H98 0.930 . S
C87 C83 1.524 . S
C87 H99 0.956 . S
C87 H100 0.961 . S
C87 H101 0.961 . S
C88 C85 1.539 . S
C88 H102 0.958 . S
C88 H103 0.961 . S
C88 H104 0.960 . S
H89 C73 0.931 . S
H90 C78 0.929 . S
H91 C79 0.960 . S
H92 C79 0.962 . S
H93 C79 0.960 . S
H94 C80 0.961 . S
H95 C80 0.961 . S
H96 C80 0.961 . S
H97 C81 0.931 . S
H98 C86 0.930 . S
H99 C87 0.956 . S
H100 C87 0.961 . S
H101 C87 0.961 . S
H102 C88 0.958 . S
H103 C88 0.961 . S
H104 C88 0.960 . S
C105 C106 1.391 1_545 S
C105 C107 1.394 . S
C105 H121 0.931 . S
C106 C105 1.391 1_565 S
C106 C110 1.376 . S
C107 C105 1.394 . S
C107 C108 1.369 1_545 S
C107 C111 1.531 . S
C108 C107 1.369 1_565 S
C108 C109 1.410 . S
C108 C116 1.503 . S
C109 C108 1.410 . S
C109 C110 1.392 . S
C109 C112 1.511 . S
C110 C106 1.376 . S
C110 C109 1.392 . S
C110 H122 0.929 . S
C111 C107 1.531 . S
C111 H123 0.960 . S
C111 H124 0.962 . S
C111 H125 0.960 . S
C112 C109 1.511 . S
C112 H126 0.961 . S
C112 H127 0.961 . S
C112 H128 0.961 . S
C113 C114 1.370 1_545 S
C113 C115 1.363 . S
C113 H129 0.931 . S
C114 C113 1.370 1_565 S
C114 C118 1.408 . S
C115 C113 1.363 . S
C115 C116 1.370 1_545 S
C115 C119 1.524 . S
C116 C108 1.503 . S
C116 C115 1.370 1_565 S
C116 C117 1.403 . S
C117 C116 1.403 . S
C117 C118 1.404 . S
C117 C120 1.539 . S
C118 C114 1.408 . S
C118 C117 1.404 . S
C118 H130 0.930 . S
C119 C115 1.524 . S
C119 H131 0.956 . S
C119 H132 0.961 1_545 S
C119 H133 0.961 . S
C120 C117 1.539 . S
C120 H134 0.958 . S
C120 H135 0.961 . S
C120 H136 0.960 . S
H121 C105 0.931 . S
H122 C110 0.929 . S
H123 C111 0.960 . S
H124 C111 0.962 . S
H125 C111 0.960 . S
H126 C112 0.961 . S
H127 C112 0.961 . S
H128 C112 0.961 . S
H129 C113 0.931 . S
H130 C118 0.930 . S
H131 C119 0.956 . S
H132 C119 0.961 1_565 S
H133 C119 0.961 . S
H134 C120 0.958 . S
H135 C120 0.961 . S
H136 C120 0.960 . S
C137 C138 1.391 . S
C137 C139 1.394 . S
C137 H153 0.931 . S
C138 C137 1.391 . S
C138 C142 1.376 1_455 S
C139 C137 1.394 . S
C139 C140 1.369 . S
C139 C143 1.531 . S
C140 C139 1.369 . S
C140 C141 1.410 1_455 S
C140 C148 1.503 . S
C141 C140 1.410 1_655 S
C141 C142 1.392 . S
C141 C144 1.511 . S
C142 C138 1.376 1_655 S
C142 C141 1.392 . S
C142 H154 0.929 . S
C143 C139 1.531 . S
C143 H155 0.960 . S
C143 H156 0.962 . S
C143 H157 0.960 . S
C144 C141 1.511 . S
C144 H158 0.961 . S
C144 H159 0.961 . S
C144 H160 0.961 . S
C145 C146 1.370 . S
C145 C147 1.363 . S
C145 H161 0.931 . S
C146 C145 1.370 . S
C146 C150 1.408 1_455 S
C147 C145 1.363 . S
C147 C148 1.370 . S
C147 C151 1.524 . S
C148 C140 1.503 . S
C148 C147 1.370 . S
C148 C149 1.402 1_455 S
C149 C148 1.402 1_655 S
C149 C150 1.400 . S
C149 C152 1.545 . S
C150 C146 1.408 1_655 S
C150 C149 1.400 . S
C150 H162 0.930 . S
C151 C147 1.524 . S
C151 H163 0.956 . S
C151 H164 0.954 1_455 S
C151 H165 0.961 . S
C152 C149 1.545 . S
C152 H166 0.958 1_655 S
C152 H167 0.961 . S
C152 H168 0.960 . S
H153 C137 0.931 . S
H154 C142 0.929 . S
H155 C143 0.960 . S
H156 C143 0.962 . S
H157 C143 0.960 . S
H158 C144 0.961 . S
H159 C144 0.961 . S
H160 C144 0.961 . S
H161 C145 0.931 . S
H162 C150 0.930 . S
H163 C151 0.956 . S
H164 C151 0.954 1_655 S
H165 C151 0.961 . S
H166 C152 0.958 1_455 S
H167 C152 0.961 . S
H168 C152 0.960 . S
C169 C170 1.391 . S
C169 C171 1.394 . S
C169 H185 0.931 1_565 S
C170 C169 1.391 . S
C170 C174 1.376 . S
C171 C169 1.394 . S
C171 C172 1.369 . S
C171 C175 1.531 1_565 S
C172 C171 1.369 . S
C172 C173 1.410 . S
C172 C180 1.503 . S
C173 C172 1.410 . S
C173 C174 1.392 . S
C173 C176 1.511 . S
C174 C170 1.376 . S
C174 C173 1.392 . S
C174 H186 0.929 . S
C175 C171 1.531 1_545 S
C175 H187 0.960 . S
C175 H188 0.962 . S
C175 H189 0.960 . S
C176 C173 1.511 . S
C176 H190 0.961 . S
C176 H191 0.961 . S
C176 H192 0.961 . S
C177 C178 1.391 . S
C177 C179 1.363 . S
C177 H193 0.931 . S
C178 C177 1.391 . S
C178 C182 1.394 1_545 S
C179 C177 1.363 . S
C179 C180 1.370 1_545 S
C179 C183 1.524 . S
C180 C172 1.503 . S
C180 C179 1.370 1_565 S
C180 C181 1.403 . S
C181 C180 1.403 . S
C181 C182 1.404 . S
C181 C184 1.539 . S
C182 C178 1.394 1_565 S
C182 C181 1.404 . S
C182 H194 0.930 . S
C183 C179 1.524 . S
C183 H195 0.956 . S
C183 H196 0.961 . S
C183 H197 0.961 . S
C184 C181 1.539 . S
C184 H198 0.958 . S
C184 H199 0.961 . S
C184 H200 0.960 . S
H185 C169 0.931 1_545 S
H186 C174 0.929 . S
H187 C175 0.960 . S
H188 C175 0.962 . S
H189 C175 0.960 . S
H190 C176 0.961 . S
H191 C176 0.961 . S
H192 C176 0.961 . S
H193 C177 0.931 . S
H194 C182 0.930 . S
H195 C183 0.956 . S
H196 C183 0.961 . S
H197 C183 0.961 . S
H198 C184 0.958 . S
H199 C184 0.961 . S
H200 C184 0.960 . S
C201 C202 1.391 . S
C201 C203 1.394 . S
C201 H217 0.931 . S
C202 C201 1.391 . S
C202 C206 1.376 1_455 S
C203 C201 1.394 . S
C203 C204 1.369 . S
C203 C207 1.531 . S
C204 C203 1.369 . S
C204 C205 1.410 . S
C204 C212 1.503 . S
C205 C204 1.410 . S
C205 C206 1.389 1_455 S
C205 C208 1.514 1_455 S
C206 C202 1.376 1_655 S
C206 C205 1.389 1_655 S
C206 H218 0.929 . S
C207 C203 1.531 . S
C207 H219 0.960 . S
C207 H220 0.962 . S
C207 H221 0.960 . S
C208 C205 1.514 1_655 S
C208 H222 0.961 . S
C208 H223 0.961 . S
C208 H224 0.961 1_655 S
C209 C210 1.370 . S
C209 C211 1.363 . S
C209 H225 0.931 . S
C210 C209 1.370 . S
C210 C214 1.408 1_655 S
C211 C209 1.363 . S
C211 C212 1.370 1_655 S
C211 C215 1.524 . S
C212 C204 1.503 . S
C212 C211 1.370 1_455 S
C212 C213 1.403 . S
C213 C212 1.403 . S
C213 C214 1.404 . S
C213 C216 1.539 . S
C214 C210 1.408 1_455 S
C214 C213 1.404 . S
C214 H226 0.930 . S
C215 C211 1.524 . S
C215 H227 0.956 . S
C215 H228 0.961 . S
C215 H229 0.961 . S
C216 C213 1.539 . S
C216 H230 0.958 . S
C216 H231 0.961 . S
C216 H232 0.960 . S
H217 C201 0.931 . S
H218 C206 0.929 . S
H219 C207 0.960 . S
H220 C207 0.962 . S
H221 C207 0.960 . S
H222 C208 0.961 . S
H223 C208 0.961 . S
H224 C208 0.961 1_455 S
H225 C209 0.931 . S
H226 C214 0.930 . S
H227 C215 0.956 . S
H228 C215 0.961 . S
H229 C215 0.961 . S
H230 C216 0.958 . S
H231 C216 0.961 . S
H232 C216 0.960 . S
C233 C234 1.388 1_545 S
C233 C235 1.394 . S
C233 H249 0.931 . S
C234 C233 1.388 1_565 S
C234 C238 1.380 . S
C235 C233 1.394 . S
C235 C236 1.369 1_545 S
C235 C239 1.531 . S
C236 C235 1.369 1_565 S
C236 C237 1.410 . S
C236 C244 1.503 . S
C237 C236 1.410 . S
C237 C238 1.392 . S
C237 C240 1.511 . S
C238 C234 1.380 . S
C238 C237 1.392 . S
C238 H250 0.929 . S
C239 C235 1.531 . S
C239 H251 0.960 . S
C239 H252 0.962 . S
C239 H253 0.960 . S
C240 C237 1.511 . S
C240 H254 0.961 . S
C240 H255 0.961 . S
C240 H256 0.961 . S
C241 C242 1.370 1_545 S
C241 C243 1.363 . S
C241 H257 0.931 . S
C242 C241 1.370 1_565 S
C242 C246 1.408 . S
C243 C241 1.363 . S
C243 C244 1.370 1_545 S
C243 C247 1.524 . S
C244 C236 1.503 . S
C244 C243 1.370 1_565 S
C244 C245 1.403 . S
C245 C244 1.403 . S
C245 C246 1.404 . S
C245 C248 1.539 . S
C246 C242 1.408 . S
C246 C245 1.404 . S
C246 H258 0.930 . S
C247 C243 1.524 . S
C247 H259 0.956 . S
C247 H260 0.961 . S
C247 H261 0.961 . S
C248 C245 1.539 . S
C248 H262 0.958 . S
C248 H263 0.961 . S
C248 H264 0.960 . S
H249 C233 0.931 . S
H250 C238 0.929 . S
H251 C239 0.960 . S
H252 C239 0.962 . S
H253 C239 0.960 . S
H254 C240 0.961 . S
H255 C240 0.961 . S
H256 C240 0.961 . S
H257 C241 0.931 . S
H258 C246 0.930 . S
H259 C247 0.956 . S
H260 C247 0.961 . S
H261 C247 0.961 . S
H262 C248 0.958 . S
H263 C248 0.961 . S
H264 C248 0.960 . S
C265 C266 1.391 . S
C265 C267 1.394 . S
C265 H281 0.931 . S
C266 C265 1.391 . S
C266 C270 1.376 1_655 S
C267 C265 1.394 . S
C267 C268 1.369 . S
C267 C271 1.531 . S
C268 C267 1.369 . S
C268 C269 1.410 1_655 S
C268 C276 1.498 . S
C269 C268 1.410 1_455 S
C269 C270 1.392 . S
C269 C272 1.511 . S
C270 C266 1.376 1_455 S
C270 C269 1.392 . S
C270 H282 0.929 . S
C271 C267 1.531 . S
C271 H283 0.960 . S
C271 H284 0.962 . S
C271 H285 0.960 . S
C272 C269 1.511 . S
C272 H286 0.961 . S
C272 H287 0.961 . S
C272 H288 0.961 . S
C273 C274 1.370 1_655 S
C273 C275 1.363 . S
C273 H289 0.931 . S
C274 C273 1.370 1_455 S
C274 C278 1.408 . S
C275 C273 1.363 . S
C275 C276 1.376 . S
C275 C279 1.524 . S
C276 C268 1.498 . S
C276 C275 1.376 . S
C276 C277 1.404 1_655 S
C277 C276 1.404 1_455 S
C277 C278 1.404 . S
C277 C280 1.539 . S
C278 C274 1.408 . S
C278 C277 1.404 . S
C278 H290 0.930 . S
C279 C275 1.524 . S
C279 H291 0.956 . S
C279 H292 0.953 1_655 S
C279 H293 0.961 . S
C280 C277 1.539 . S
C280 H294 0.958 1_455 S
C280 H295 0.961 . S
C280 H296 0.960 . S
H281 C265 0.931 . S
H282 C270 0.929 . S
H283 C271 0.960 . S
H284 C271 0.962 . S
H285 C271 0.960 . S
H286 C272 0.961 . S
H287 C272 0.961 . S
H288 C272 0.961 . S
H289 C273 0.931 . S
H290 C278 0.930 . S
H291 C279 0.956 . S
H292 C279 0.953 1_455 S
H293 C279 0.961 . S
H294 C280 0.958 1_655 S
H295 C280 0.961 . S
H296 C280 0.960 . S
C297 C298 1.391 . S
C297 C299 1.394 . S
C297 H313 0.931 . S
C298 C297 1.391 . S
C298 C302 1.376 1_545 S
C299 C297 1.394 . S
C299 C300 1.369 . S
C299 C303 1.531 . S
C300 C299 1.369 . S
C300 C301 1.410 1_545 S
C300 C308 1.503 . S
C301 C300 1.410 1_565 S
C301 C302 1.392 . S
C301 C304 1.511 . S
C302 C298 1.376 1_565 S
C302 C301 1.392 . S
C302 H314 0.929 . S
C303 C299 1.531 . S
C303 H315 0.960 . S
C303 H316 0.962 . S
C303 H317 0.960 . S
C304 C301 1.511 . S
C304 H318 0.961 . S
C304 H319 0.961 . S
C304 H320 0.961 . S
C305 C306 1.370 1_565 S
C305 C307 1.363 . S
C305 H321 0.931 . S
C306 C305 1.370 1_545 S
C306 C310 1.408 . S
C307 C305 1.363 . S
C307 C308 1.370 1_565 S
C307 C311 1.524 . S
C308 C300 1.503 . S
C308 C307 1.370 1_545 S
C308 C309 1.403 . S
C309 C308 1.403 . S
C309 C310 1.404 . S
C309 C312 1.539 . S
C310 C306 1.408 . S
C310 C309 1.404 . S
C310 H322 0.930 . S
C311 C307 1.524 . S
C311 H323 0.956 1_565 S
C311 H324 0.961 . S
C311 H325 0.961 . S
C312 C309 1.539 . S
C312 H326 0.958 . S
C312 H327 0.961 . S
C312 H328 0.960 . S
H313 C297 0.931 . S
H314 C302 0.929 . S
H315 C303 0.960 . S
H316 C303 0.962 . S
H317 C303 0.960 . S
H318 C304 0.961 . S
H319 C304 0.961 . S
H320 C304 0.961 . S
H321 C305 0.931 . S
H322 C310 0.930 . S
H323 C311 0.956 1_545 S
H324 C311 0.961 . S
H325 C311 0.961 . S
H326 C312 0.958 . S
H327 C312 0.961 . S
H328 C312 0.960 . S
C74 C23 1.480 1_655 S
C82 C42 1.558 . S
C106 C22 1.659 . S
C114 C62 1.666 . S
C138 C21 1.934 . S
C146 C51 1.926 . S
C170 C24 1.717 . S
C178 C71 1.747 . S
C202 C27 1.544 1_455 S
C210 C48 1.570 . S
C234 C26 1.673 1_565 S
C242 C68 1.666 . S
C274 C45 1.944 . S
C266 C25 1.944 . S
C298 C28 1.705 . S
C306 C65 1.742 . S
