# Generated by pormake.
# Topology ctn, (3,4)-cn, num edge types: 1
# Building blocks:
#     Node 0, Type 0, BuildingBlock: KAKCAD_clean_linker_0, # of connection points: 3
#     Node 1, Type 0, BuildingBlock: KAKCAD_clean_linker_0, # of connection points: 3
#     Node 2, Type 0, BuildingBlock: KAKCAD_clean_linker_0, # of connection points: 3
#     Node 3, Type 0, BuildingBlock: KAKCAD_clean_linker_0, # of connection points: 3
#     Node 4, Type 0, BuildingBlock: KAKCAD_clean_linker_0, # of connection points: 3
#     Node 5, Type 0, BuildingBlock: KAKCAD_clean_linker_0, # of connection points: 3
#     Node 6, Type 0, BuildingBlock: KAKCAD_clean_linker_0, # of connection points: 3
#     Node 7, Type 0, BuildingBlock: KAKCAD_clean_linker_0, # of connection points: 3
#     Node 8, Type 0, BuildingBlock: KAKCAD_clean_linker_0, # of connection points: 3
#     Node 9, Type 0, BuildingBlock: KAKCAD_clean_linker_0, # of connection points: 3
#     Node 10, Type 0, BuildingBlock: KAKCAD_clean_linker_0, # of connection points: 3
#     Node 11, Type 0, BuildingBlock: KAKCAD_clean_linker_0, # of connection points: 3
#     Node 12, Type 0, BuildingBlock: KAKCAD_clean_linker_0, # of connection points: 3
#     Node 13, Type 0, BuildingBlock: KAKCAD_clean_linker_0, # of connection points: 3
#     Node 14, Type 0, BuildingBlock: KAKCAD_clean_linker_0, # of connection points: 3
#     Node 15, Type 0, BuildingBlock: KAKCAD_clean_linker_0, # of connection points: 3
#     Node 16, Type 1, BuildingBlock: TATPOV_clean_sbu_0, # of connection points: 4
#     Node 17, Type 1, BuildingBlock: TATPOV_clean_sbu_0, # of connection points: 4
#     Node 18, Type 1, BuildingBlock: TATPOV_clean_sbu_0, # of connection points: 4
#     Node 19, Type 1, BuildingBlock: TATPOV_clean_sbu_0, # of connection points: 4
#     Node 20, Type 1, BuildingBlock: TATPOV_clean_sbu_0, # of connection points: 4
#     Node 21, Type 1, BuildingBlock: TATPOV_clean_sbu_0, # of connection points: 4
#     Node 22, Type 1, BuildingBlock: TATPOV_clean_sbu_0, # of connection points: 4
#     Node 23, Type 1, BuildingBlock: TATPOV_clean_sbu_0, # of connection points: 4
#     Node 24, Type 1, BuildingBlock: TATPOV_clean_sbu_0, # of connection points: 4
#     Node 25, Type 1, BuildingBlock: TATPOV_clean_sbu_0, # of connection points: 4
#     Node 26, Type 1, BuildingBlock: TATPOV_clean_sbu_0, # of connection points: 4
#     Node 27, Type 1, BuildingBlock: TATPOV_clean_sbu_0, # of connection points: 4
#     Edge 28, Type (0, 1), None
#     Edge 29, Type (0, 1), None
#     Edge 30, Type (0, 1), None
#     Edge 31, Type (0, 1), None
#     Edge 32, Type (0, 1), None
#     Edge 33, Type (0, 1), None
#     Edge 34, Type (0, 1), None
#     Edge 35, Type (0, 1), None
#     Edge 36, Type (0, 1), None
#     Edge 37, Type (0, 1), None
#     Edge 38, Type (0, 1), None
#     Edge 39, Type (0, 1), None
#     Edge 40, Type (0, 1), None
#     Edge 41, Type (0, 1), None
#     Edge 42, Type (0, 1), None
#     Edge 43, Type (0, 1), None
#     Edge 44, Type (0, 1), None
#     Edge 45, Type (0, 1), None
#     Edge 46, Type (0, 1), None
#     Edge 47, Type (0, 1), None
#     Edge 48, Type (0, 1), None
#     Edge 49, Type (0, 1), None
#     Edge 50, Type (0, 1), None
#     Edge 51, Type (0, 1), None
#     Edge 52, Type (0, 1), None
#     Edge 53, Type (0, 1), None
#     Edge 54, Type (0, 1), None
#     Edge 55, Type (0, 1), None
#     Edge 56, Type (0, 1), None
#     Edge 57, Type (0, 1), None
#     Edge 58, Type (0, 1), None
#     Edge 59, Type (0, 1), None
#     Edge 60, Type (0, 1), None
#     Edge 61, Type (0, 1), None
#     Edge 62, Type (0, 1), None
#     Edge 63, Type (0, 1), None
#     Edge 64, Type (0, 1), None
#     Edge 65, Type (0, 1), None
#     Edge 66, Type (0, 1), None
#     Edge 67, Type (0, 1), None
#     Edge 68, Type (0, 1), None
#     Edge 69, Type (0, 1), None
#     Edge 70, Type (0, 1), None
#     Edge 71, Type (0, 1), None
#     Edge 72, Type (0, 1), None
#     Edge 73, Type (0, 1), None
#     Edge 74, Type (0, 1), None
#     Edge 75, Type (0, 1), None
# Relax obj value: 0.003
# Max RMSD: 0.044
# Mean RMSD: 0.020
data_MOF--net-ctn--node1-TATPOV_clean_sbu_0--node2-KAKCAD_clean_linker_0--edge1-none
_symmetry_space_group_name_H-M    P1
_symmetry_Int_Tables_number       1
_symmetry_cell_setting            triclinic
loop_
_symmetry_equiv_pos_as_xyz
'x, y, z'
_cell_length_a     36.492752
_cell_length_b     36.489401
_cell_length_c     36.435543
_cell_angle_alpha  91.74313
_cell_angle_beta   92.18168
_cell_angle_gamma 91.987497
loop_
_atom_site_label
_atom_site_type_symbol
_atom_site_fract_x
_atom_site_fract_y
_atom_site_fract_z
_atom_type_partial_charge
C0 C 0.02791 0.10255 0.90927 0.0
C1 C 0.0185 0.13845 0.91926 0.0
C2 C 0.03112 0.07577 0.93583 0.0
C3 C 0.02502 0.0843 0.97297 0.0
C4 C 0.01554 0.1202 0.98285 0.0
C5 C 0.01225 0.14689 0.95635 0.0
C6 C 0.02878 0.05612 0.00151 0.0
C7 C 0.0577 0.0316 0.00099 0.0
C8 C 0.06229 0.00613 0.02889 0.0
C9 C 0.03725 0.00507 0.05727 0.0
C10 C 0.0082 0.0293 0.05824 0.0
C11 C 0.00409 0.05455 0.03018 0.0
C12 C 0.98284 0.02911 0.08921 0.0
C13 C 0.96829 0.99593 0.10207 0.0
C14 C 0.97348 0.06225 0.10652 0.0
C15 C 0.95043 0.06223 0.13629 0.0
C16 C 0.93598 0.02907 0.14929 0.0
C17 C 0.09409 0.98167 0.02926 0.0
C18 C 0.1045 0.96357 0.99687 0.0
C19 C 0.11458 0.97663 0.06207 0.0
C20 C 0.14486 0.9542 0.06248 0.0
C21 C 0.15533 0.93612 0.03012 0.0
C22 C 0.1347 0.94093 0.99732 0.0
C23 C 0.94497 0.99591 0.13169 0.0
H24 H 0.03286 0.0951 0.88094 0.0
H25 H 0.03809 0.04829 0.92721 0.0
H26 H 0.01125 0.12795 0.01125 0.0
H27 H 0.00517 0.17429 0.96511 0.0
H28 H 0.07755 0.03332 0.97969 0.0
H29 H 0.9813 0.07281 0.03051 0.0
H30 H 0.04071 0.98569 0.07899 0.0
H31 H 0.97478 0.96998 0.08908 0.0
H32 H 0.98457 0.08823 0.09749 0.0
H33 H 0.94408 0.08825 0.1492 0.0
H34 H 0.08909 0.96668 0.97122 0.0
H35 H 0.10759 0.99056 0.08739 0.0
H36 H 0.93433 0.96988 0.14103 0.0
H37 H 0.14202 0.92742 0.97189 0.0
H38 H 0.16015 0.95118 0.08821 0.0
C39 C 0.37664 0.78425 0.29765 0.0
C40 C 0.39783 0.75546 0.31048 0.0
C41 C 0.3416 0.77724 0.2818 0.0
C42 C 0.32686 0.7412 0.27801 0.0
C43 C 0.34746 0.71247 0.29217 0.0
C44 C 0.38254 0.71956 0.3084 0.0
C45 C 0.29132 0.73351 0.25723 0.0
C46 C 0.28322 0.75223 0.22486 0.0
C47 C 0.25147 0.74305 0.20321 0.0
C48 C 0.22725 0.71521 0.21413 0.0
C49 C 0.2344 0.6966 0.2467 0.0
C50 C 0.26643 0.70605 0.26816 0.0
C51 C 0.20964 0.66573 0.25695 0.0
C52 C 0.1713 0.66807 0.25301 0.0
C53 C 0.22432 0.63309 0.26947 0.0
C54 C 0.20128 0.60328 0.27737 0.0
C55 C 0.16297 0.60538 0.27293 0.0
C56 C 0.24634 0.75941 0.1669 0.0
C57 C 0.2423 0.79735 0.16377 0.0
C58 C 0.24932 0.73735 0.13505 0.0
C59 C 0.25061 0.75324 0.10075 0.0
C60 C 0.24796 0.79132 0.09763 0.0
C61 C 0.24254 0.81318 0.12921 0.0
C62 C 0.14819 0.6382 0.26096 0.0
H63 H 0.38735 0.81234 0.29931 0.0
H64 H 0.32625 0.8001 0.27197 0.0
H65 H 0.33712 0.6843 0.28942 0.0
H66 H 0.39819 0.69681 0.318 0.0
H67 H 0.30266 0.77255 0.2152 0.0
H68 H 0.27203 0.69193 0.29339 0.0
H69 H 0.20348 0.70728 0.19655 0.0
H70 H 0.15916 0.69301 0.24374 0.0
H71 H 0.25372 0.63018 0.27228 0.0
H72 H 0.21362 0.5784 0.28652 0.0
H73 H 0.24015 0.8148 0.18813 0.0
H74 H 0.25275 0.70808 0.13694 0.0
H75 H 0.1188 0.64074 0.25737 0.0
H76 H 0.24098 0.84267 0.12745 0.0
H77 H 0.25505 0.73592 0.07675 0.0
C78 C 0.04924 0.42181 0.18136 0.0
C79 C 0.06386 0.45496 0.19743 0.0
C80 C 0.03523 0.42037 0.14512 0.0
C81 C 0.03509 0.45213 0.12436 0.0
C82 C 0.04971 0.48528 0.14032 0.0
C83 C 0.06419 0.48664 0.17644 0.0
C84 C 0.01917 0.45076 0.08633 0.0
C85 C 0.99403 0.47711 0.07529 0.0
C86 C 0.97848 0.47588 0.03941 0.0
C87 C 0.98866 0.44827 0.01465 0.0
C88 C 0.014 0.42223 0.02497 0.0
C89 C 0.02879 0.42306 0.06105 0.0
C90 C 0.02398 0.39446 0.99712 0.0
C91 C 0.01629 0.357 0.0019 0.0
C92 C 0.03562 0.40616 0.963 0.0
C93 C 0.03675 0.38137 0.93328 0.0
C94 C 0.02618 0.34432 0.93703 0.0
C95 C 0.95072 0.50226 0.02733 0.0
C96 C 0.92221 0.51226 0.05014 0.0
C97 C 0.95078 0.51501 0.9913 0.0
C98 C 0.92176 0.53491 0.9775 0.0
C99 C 0.89243 0.54337 -0.00035 0.0
C100 C 0.89339 0.53294 0.03646 0.0
C101 C 0.01739 0.33202 0.97199 0.0
H102 H 0.04869 0.39687 0.19674 0.0
H103 H 0.02388 0.39453 0.13354 0.0
H104 H 0.05016 0.51011 0.12476 0.0
H105 H 0.07524 0.51259 0.18803 0.0
H106 H 0.98641 0.49834 0.0947 0.0
H107 H 0.04837 0.40283 0.06911 0.0
H108 H 0.9761 0.4463 0.98717 0.0
H109 H 0.00705 0.34749 0.02798 0.0
H110 H 0.04187 0.43495 0.95881 0.0
H111 H 0.04423 0.39168 0.90692 0.0
H112 H 0.92127 0.50274 0.07797 0.0
H113 H 0.97284 0.50874 0.97332 0.0
H114 H 0.00934 0.30359 0.97579 0.0
H115 H 0.87112 0.53933 0.05413 0.0
H116 H 0.92212 0.54334 0.94925 0.0
C117 C 0.71474 0.68694 0.08488 0.0
C118 C 0.75022 0.67551 0.0778 0.0
C119 C 0.70821 0.70719 0.11696 0.0
C120 C 0.7371 0.71679 0.1424 0.0
C121 C 0.77263 0.70565 0.13526 0.0
C122 C 0.7791 0.68495 0.10338 0.0
C123 C 0.73 0.73813 0.17645 0.0
C124 C 0.70038 0.72783 0.19783 0.0
C125 C 0.69284 0.74816 0.22966 0.0
C126 C 0.71528 0.77892 0.24025 0.0
C127 C 0.74381 0.79113 0.21809 0.0
C128 C 0.75148 0.76987 0.18655 0.0
C129 C 0.76302 0.82752 0.22631 0.0
C130 C 0.74382 0.85639 0.24227 0.0
C131 C 0.79998 0.83431 0.21772 0.0
C132 C 0.81722 0.86885 0.22543 0.0
C133 C 0.79807 0.89687 0.24264 0.0
C134 C 0.65845 0.74106 0.24884 0.0
C135 C 0.62477 0.74314 0.22925 0.0
C136 C 0.65873 0.7374 0.28713 0.0
C137 C 0.62585 0.7378 0.30574 0.0
C138 C 0.59253 0.74294 0.28633 0.0
C139 C 0.59214 0.74455 0.24789 0.0
C140 C 0.76126 0.89028 0.25084 0.0
H141 H 0.69193 0.68015 0.06571 0.0
H142 H 0.6806 0.71574 0.12168 0.0
H143 H 0.79531 0.71256 0.15456 0.0
H144 H 0.80679 0.67668 0.0986 0.0
H145 H 0.68289 0.70415 0.18955 0.0
H146 H 0.7728 0.77891 0.16866 0.0
H147 H 0.70906 0.79442 0.26492 0.0
H148 H 0.71502 0.85317 0.24795 0.0
H149 H 0.81584 0.81287 0.20562 0.0
H150 H 0.84574 0.87329 0.21899 0.0
H151 H 0.62391 0.74634 0.19976 0.0
H152 H 0.68447 0.73591 0.30274 0.0
H153 H 0.74568 0.91163 0.26357 0.0
H154 H 0.56674 0.74869 0.23242 0.0
H155 H 0.62681 0.73696 0.33546 0.0
C156 C 0.93646 0.02065 0.37433 0.0
C157 C 0.93901 0.01033 0.33709 0.0
C158 C 0.96672 0.01881 0.39854 0.0
C159 C 0.00024 0.00647 0.3862 0.0
C160 C 0.00381 0.99868 0.34856 0.0
C161 C 0.97333 0.00065 0.32408 0.0
C162 C 0.02882 0.99662 0.4137 0.0
C163 C 0.01867 0.973 0.4414 0.0
C164 C 0.04347 0.96444 0.46988 0.0
C165 C 0.07947 0.97929 0.46995 0.0
C166 C 0.09048 0.00265 0.44196 0.0
C167 C 0.065 0.01093 0.41357 0.0
C168 C 0.12824 0.01924 0.44326 0.0
C169 C 0.14365 0.03478 0.47634 0.0
C170 C 0.14923 0.01945 0.41173 0.0
C171 C 0.18509 0.03449 0.41338 0.0
C172 C 0.20053 0.05001 0.44652 0.0
C173 C 0.03096 0.93982 0.49901 0.0
C174 C 0.99532 0.94264 0.51194 0.0
C175 C 0.05289 0.91156 0.5118 0.0
C176 C 0.03855 0.88539 0.53525 0.0
C177 C 0.00196 0.88689 0.54577 0.0
C178 C 0.98085 0.91626 0.53466 0.0
C179 C 0.1793 0.05011 0.47793 0.0
H180 H 0.91065 0.02888 0.38516 0.0
H181 H 0.96343 0.02531 0.42743 0.0
H182 H 0.02939 0.98895 0.33849 0.0
H183 H 0.97619 0.99276 0.29546 0.0
H184 H 0.99105 0.96095 0.44047 0.0
H185 H 0.07283 0.0295 0.39234 0.0
H186 H 0.09885 0.97289 0.4919 0.0
H187 H 0.12796 0.03541 0.50099 0.0
H188 H 0.1381 0.00748 0.38592 0.0
H189 H 0.20063 0.03408 0.38865 0.0
H190 H 0.97807 0.96471 0.50356 0.0
H191 H 0.08043 0.9086 0.50232 0.0
H192 H 0.19025 0.06193 0.50387 0.0
H193 H 0.9528 0.91848 0.54297 0.0
H194 H 0.05541 0.863 0.54356 0.0
C195 C 0.08625 0.71228 0.69249 0.0
C196 C 0.07772 0.74799 0.68257 0.0
C197 C 0.11911 0.70583 0.71176 0.0
C198 C 0.14396 0.735 0.72184 0.0
C199 C 0.13533 0.77076 0.71226 0.0
C200 C 0.10264 0.77718 0.69259 0.0
C201 C 0.17878 0.72801 0.74231 0.0
C202 C 0.20046 0.69898 0.73108 0.0
C203 C 0.23283 0.69133 0.75085 0.0
C204 C 0.24372 0.71329 0.7819 0.0
C205 C 0.22146 0.74135 0.79486 0.0
C206 C 0.18931 0.74894 0.77427 0.0
C207 C 0.23024 0.76023 0.83134 0.0
C208 C 0.24711 0.74095 0.85991 0.0
C209 C 0.22114 0.79697 0.83853 0.0
C210 C 0.22903 0.81387 0.87319 0.0
C211 C 0.24695 0.79465 0.90099 0.0
C212 C 0.25233 0.65723 0.74277 0.0
C213 C 0.23269 0.62343 0.74217 0.0
C214 C 0.29075 0.65755 0.74061 0.0
C215 C 0.30931 0.62454 0.73989 0.0
C216 C 0.28968 0.59098 0.74223 0.0
C217 C 0.25124 0.59065 0.74237 0.0
C218 C 0.25583 0.75808 0.89397 0.0
H219 H 0.06765 0.6892 0.68522 0.0
H220 H 0.12488 0.67802 0.71917 0.0
H221 H 0.15411 0.7937 0.71957 0.0
H222 H 0.0968 0.80504 0.68545 0.0
H223 H 0.19196 0.68198 0.70712 0.0
H224 H 0.17128 0.76977 0.78403 0.0
H225 H 0.26874 0.70705 0.79703 0.0
H226 H 0.25333 0.71231 0.85635 0.0
H227 H 0.2084 0.81291 0.8173 0.0
H228 H 0.22211 0.84221 0.8779 0.0
H229 H 0.20313 0.6224 0.74422 0.0
H230 H 0.30645 0.68331 0.74113 0.0
H231 H 0.26919 0.74243 0.91511 0.0
H232 H 0.23562 0.56504 0.74452 0.0
H233 H 0.33903 0.62538 0.74031 0.0
C234 C 0.91545 0.682 0.53942 0.0
C235 C 0.94814 0.69745 0.55591 0.0
C236 C 0.9143 0.64625 0.52443 0.0
C237 C 0.94593 0.62544 0.52519 0.0
C238 C 0.97854 0.64074 0.54185 0.0
C239 C 0.97959 0.6763 0.55727 0.0
C240 C 0.94529 0.5882 0.50785 0.0
C241 C 0.97303 0.57858 0.4839 0.0
C242 C 0.97325 0.54324 0.46773 0.0
C243 C 0.94544 0.51762 0.47571 0.0
C244 C 0.91801 0.52642 0.49995 0.0
C245 C 0.91751 0.56203 0.51551 0.0
C246 C 0.89106 0.49717 0.509 0.0
C247 C 0.85323 0.50112 0.50266 0.0
C248 C 0.90388 0.46307 0.51951 0.0
C249 C 0.87981 0.43279 0.52116 0.0
C250 C 0.84224 0.43587 0.51243 0.0
C251 C 0.00204 0.5323 0.44232 0.0
C252 C 0.01357 0.55546 0.41447 0.0
C253 C 0.01594 0.49694 0.444 0.0
C254 C 0.03843 0.48392 0.41693 0.0
C255 C 0.04829 0.50622 0.38797 0.0
C256 C 0.03679 0.54255 0.38757 0.0
C257 C 0.82892 0.47062 0.50438 0.0
H258 H 0.89068 0.69751 0.53811 0.0
H259 H 0.88889 0.63513 0.51157 0.0
H260 H 0.00324 0.62511 0.54309 0.0
H261 H 0.00516 0.68735 0.56985 0.0
H262 H 0.99448 0.59858 0.47797 0.0
H263 H 0.89642 0.56893 0.53444 0.0
H264 H 0.94481 0.49048 0.46265 0.0
H265 H 0.84278 0.52716 0.49439 0.0
H266 H 0.93293 0.45947 0.52492 0.0
H267 H 0.89096 0.40664 0.5281 0.0
H268 H 0.00328 0.58284 0.41245 0.0
H269 H 0.0085 0.4788 0.46573 0.0
H270 H 0.80005 0.4739 0.49779 0.0
H271 H 0.04422 0.5603 0.36553 0.0
H272 H 0.0476 0.45605 0.41832 0.0
C273 C 0.85805 0.70958 0.89869 0.0
C274 C 0.82459 0.69864 0.91328 0.0
C275 C 0.86214 0.74399 0.88318 0.0
C276 C 0.8323 0.76742 0.88062 0.0
C277 C 0.79899 0.75619 0.89609 0.0
C278 C 0.79547 0.72249 0.91284 0.0
C279 C 0.83435 0.80147 0.85888 0.0
C280 C 0.85564 0.80299 0.82748 0.0
C281 C 0.85231 0.83176 0.80296 0.0
C282 C 0.82683 0.85891 0.80959 0.0
C283 C 0.80488 0.85747 0.84029 0.0
C284 C 0.81077 0.83027 0.86603 0.0
C285 C 0.771 0.87878 0.84119 0.0
C286 C 0.77039 0.91518 0.82962 0.0
C287 C 0.73772 0.86069 0.84911 0.0
C288 C 0.70455 0.87782 0.84401 0.0
C289 C 0.70369 0.91349 0.83074 0.0
C290 C 0.87141 0.83031 0.76777 0.0
C291 C 0.9084 0.82093 0.76675 0.0
C292 C 0.85193 0.83624 0.73462 0.0
C293 C 0.86881 0.83232 0.70115 0.0
C294 C 0.90558 0.82224 0.69996 0.0
C295 C 0.92538 0.81701 0.73314 0.0
C296 C 0.73698 0.93246 0.82455 0.0
H297 H 0.88095 0.69145 0.89918 0.0
H298 H 0.88848 0.75174 0.87251 0.0
H299 H 0.77481 0.77243 0.89394 0.0
H300 H 0.76932 0.71425 0.92373 0.0
H301 H 0.87272 0.7804 0.8203 0.0
H302 H 0.79469 0.83024 0.8904 0.0
H303 H 0.82235 0.8797 0.78945 0.0
H304 H 0.7956 0.92987 0.82345 0.0
H305 H 0.73695 0.83241 0.85735 0.0
H306 H 0.67945 0.8625 0.84935 0.0
H307 H 0.92408 0.81632 0.79193 0.0
H308 H 0.8232 0.84278 0.73438 0.0
H309 H 0.73719 0.96011 0.81455 0.0
H310 H 0.95377 0.80928 0.73315 0.0
H311 H 0.85271 0.83654 0.67614 0.0
C312 C 0.35808 0.20962 0.39873 0.0
C313 C 0.32462 0.19867 0.41331 0.0
C314 C 0.36217 0.24403 0.38322 0.0
C315 C 0.33232 0.26746 0.38065 0.0
C316 C 0.29901 0.25623 0.39613 0.0
C317 C 0.29549 0.22253 0.41287 0.0
C318 C 0.33437 0.30151 0.35891 0.0
C319 C 0.35565 0.30302 0.32751 0.0
C320 C 0.35232 0.33178 0.30298 0.0
C321 C 0.32684 0.35893 0.30961 0.0
C322 C 0.30488 0.3575 0.34031 0.0
C323 C 0.31078 0.33031 0.36606 0.0
C324 C 0.271 0.37881 0.3412 0.0
C325 C 0.27039 0.4152 0.32963 0.0
C326 C 0.23772 0.36071 0.34912 0.0
C327 C 0.20455 0.37783 0.34402 0.0
C328 C 0.20368 0.4135 0.33075 0.0
C329 C 0.37142 0.33033 0.2678 0.0
C330 C 0.40841 0.32095 0.26677 0.0
C331 C 0.35193 0.33625 0.23464 0.0
C332 C 0.36881 0.33231 0.20117 0.0
C333 C 0.40558 0.32223 0.19998 0.0
C334 C 0.42538 0.31702 0.23316 0.0
C335 C 0.23698 0.43247 0.32455 0.0
H336 H 0.38098 0.1915 0.39921 0.0
H337 H 0.3885 0.25178 0.37255 0.0
H338 H 0.27483 0.27246 0.39397 0.0
H339 H 0.26934 0.21428 0.42376 0.0
H340 H 0.37274 0.28043 0.32033 0.0
H341 H 0.2947 0.33028 0.39042 0.0
H342 H 0.32235 0.37971 0.28946 0.0
H343 H 0.2956 0.42989 0.32346 0.0
H344 H 0.23695 0.33243 0.35737 0.0
H345 H 0.17946 0.36251 0.34936 0.0
H346 H 0.42409 0.31635 0.29195 0.0
H347 H 0.3232 0.34278 0.2344 0.0
H348 H 0.23718 0.46013 0.31455 0.0
H349 H 0.45377 0.30929 0.23317 0.0
H350 H 0.3527 0.33652 0.17616 0.0
C351 C 0.54925 0.92182 0.68135 0.0
C352 C 0.56387 0.95497 0.69743 0.0
C353 C 0.53525 0.92038 0.64512 0.0
C354 C 0.53512 0.95213 0.62435 0.0
C355 C 0.54973 0.98529 0.64031 0.0
C356 C 0.56421 0.98665 0.67643 0.0
C357 C 0.5192 0.95077 0.58632 0.0
C358 C 0.49407 0.97712 0.57527 0.0
C359 C 0.47851 0.9759 0.5394 0.0
C360 C 0.48869 0.94828 0.51464 0.0
C361 C 0.51403 0.92224 0.52496 0.0
C362 C 0.52882 0.92307 0.56104 0.0
C363 C 0.524 0.89447 0.49711 0.0
C364 C 0.51631 0.85701 0.50189 0.0
C365 C 0.53564 0.90616 0.46299 0.0
C366 C 0.53677 0.88138 0.43328 0.0
C367 C 0.52619 0.84433 0.43702 0.0
C368 C 0.45076 0.00228 0.52732 0.0
C369 C 0.42225 0.01228 0.55014 0.0
C370 C 0.45081 0.01503 0.49129 0.0
C371 C 0.42179 0.03493 0.47749 0.0
C372 C 0.39246 0.04339 0.49964 0.0
C373 C 0.39343 0.03296 0.53645 0.0
C374 C 0.5174 0.83203 0.47199 0.0
H375 H 0.5487 0.89688 0.69674 0.0
H376 H 0.5239 0.89454 0.63353 0.0
H377 H 0.55019 0.01012 0.62475 0.0
H378 H 0.57527 0.01259 0.68803 0.0
H379 H 0.48645 0.99835 0.59469 0.0
H380 H 0.54839 0.90284 0.5691 0.0
H381 H 0.47613 0.94632 0.48716 0.0
H382 H 0.50707 0.8475 0.52797 0.0
H383 H 0.5419 0.93495 0.4588 0.0
H384 H 0.54425 0.89168 0.40691 0.0
H385 H 0.42131 0.00276 0.57796 0.0
H386 H 0.47287 0.00876 0.47331 0.0
H387 H 0.50935 0.8036 0.47579 0.0
H388 H 0.37115 0.03935 0.55412 0.0
H389 H 0.42215 0.04336 0.44924 0.0
C390 C 0.21475 0.18692 0.5849 0.0
C391 C 0.25024 0.1755 0.57782 0.0
C392 C 0.20822 0.20717 0.61698 0.0
C393 C 0.23711 0.21677 0.64242 0.0
C394 C 0.27265 0.20563 0.63527 0.0
C395 C 0.27912 0.18494 0.60339 0.0
C396 C 0.23 0.23811 0.67647 0.0
C397 C 0.20038 0.22781 0.69784 0.0
C398 C 0.19285 0.24815 0.72967 0.0
C399 C 0.21528 0.27891 0.74026 0.0
C400 C 0.24381 0.29112 0.71809 0.0
C401 C 0.25148 0.26986 0.68657 0.0
C402 C 0.26301 0.32751 0.72631 0.0
C403 C 0.24381 0.35639 0.74226 0.0
C404 C 0.29998 0.33431 0.71773 0.0
C405 C 0.31721 0.36885 0.72543 0.0
C406 C 0.29806 0.39687 0.74263 0.0
C407 C 0.15845 0.24104 0.74885 0.0
C408 C 0.12477 0.24313 0.72926 0.0
C409 C 0.15873 0.23739 0.78714 0.0
C410 C 0.12585 0.2378 0.80576 0.0
C411 C 0.09254 0.24293 0.78634 0.0
C412 C 0.09214 0.24454 0.7479 0.0
C413 C 0.26125 0.39028 0.75082 0.0
H414 H 0.19194 0.18012 0.56572 0.0
H415 H 0.18061 0.21571 0.6217 0.0
H416 H 0.29532 0.21255 0.65458 0.0
H417 H 0.3068 0.17668 0.59862 0.0
H418 H 0.1829 0.20413 0.68957 0.0
H419 H 0.2728 0.27889 0.66867 0.0
H420 H 0.20905 0.29441 0.76493 0.0
H421 H 0.21501 0.35316 0.74794 0.0
H422 H 0.31583 0.31286 0.70563 0.0
H423 H 0.34573 0.37328 0.719 0.0
H424 H 0.12392 0.24633 0.69977 0.0
H425 H 0.18447 0.2359 0.80275 0.0
H426 H 0.24566 0.41163 0.76355 0.0
H427 H 0.06675 0.24868 0.73243 0.0
H428 H 0.12681 0.23696 0.83547 0.0
C429 C 0.87664 0.28425 0.79764 0.0
C430 C 0.89783 0.25545 0.81047 0.0
C431 C 0.8416 0.27724 0.78179 0.0
C432 C 0.82687 0.24119 0.778 0.0
C433 C 0.84746 0.21247 0.79216 0.0
C434 C 0.88254 0.21956 0.80839 0.0
C435 C 0.79133 0.2335 0.75721 0.0
C436 C 0.78323 0.25222 0.72485 0.0
C437 C 0.75147 0.24305 0.7032 0.0
C438 C 0.72725 0.21521 0.71412 0.0
C439 C 0.73441 0.19659 0.74669 0.0
C440 C 0.76644 0.20604 0.76815 0.0
C441 C 0.70964 0.16573 0.75694 0.0
C442 C 0.67131 0.16806 0.75299 0.0
C443 C 0.72433 0.13308 0.76946 0.0
C444 C 0.70129 0.10328 0.77736 0.0
C445 C 0.66298 0.10537 0.77291 0.0
C446 C 0.74635 0.25941 0.66688 0.0
C447 C 0.7423 0.29735 0.66376 0.0
C448 C 0.74933 0.23735 0.63504 0.0
C449 C 0.75062 0.25324 0.60074 0.0
C450 C 0.74797 0.29133 0.59762 0.0
C451 C 0.74254 0.31318 0.6292 0.0
C452 C 0.6482 0.13819 0.76094 0.0
H453 H 0.88735 0.31233 0.79931 0.0
H454 H 0.82626 0.3001 0.77196 0.0
H455 H 0.83713 0.1843 0.78941 0.0
H456 H 0.89819 0.1968 0.81799 0.0
H457 H 0.80267 0.27254 0.7152 0.0
H458 H 0.77204 0.19192 0.79338 0.0
H459 H 0.70349 0.20727 0.69653 0.0
H460 H 0.65917 0.19299 0.74372 0.0
H461 H 0.75373 0.13017 0.77227 0.0
H462 H 0.71363 0.0784 0.78651 0.0
H463 H 0.74014 0.3148 0.68813 0.0
H464 H 0.75277 0.20808 0.63692 0.0
H465 H 0.61881 0.14073 0.75735 0.0
H466 H 0.74098 0.34267 0.62745 0.0
H467 H 0.75507 0.23593 0.57674 0.0
C468 C 0.5279 0.60255 0.40927 0.0
C469 C 0.5185 0.63846 0.41926 0.0
C470 C 0.53112 0.57577 0.43583 0.0
C471 C 0.52501 0.5843 0.47297 0.0
C472 C 0.51554 0.62021 0.48285 0.0
C473 C 0.51225 0.64689 0.45635 0.0
C474 C 0.52877 0.55613 0.50151 0.0
C475 C 0.55769 0.5316 0.50099 0.0
C476 C 0.56229 0.50613 0.52889 0.0
C477 C 0.53724 0.50507 0.55727 0.0
C478 C 0.50819 0.5293 0.55824 0.0
C479 C 0.50409 0.55455 0.53018 0.0
C480 C 0.48283 0.52911 0.58921 0.0
C481 C 0.46829 0.49593 0.60207 0.0
C482 C 0.47347 0.56225 0.60652 0.0
C483 C 0.45042 0.56223 0.63629 0.0
C484 C 0.43597 0.52907 0.64929 0.0
C485 C 0.59408 0.48167 0.52926 0.0
C486 C 0.60449 0.46357 0.49687 0.0
C487 C 0.61457 0.47663 0.56207 0.0
C488 C 0.64486 0.4542 0.56248 0.0
C489 C 0.65532 0.43613 0.53011 0.0
C490 C 0.6347 0.44094 0.49731 0.0
C491 C 0.44497 0.49591 0.63169 0.0
H492 H 0.53286 0.59511 0.38093 0.0
H493 H 0.53808 0.5483 0.42721 0.0
H494 H 0.51125 0.62795 0.51125 0.0
H495 H 0.50517 0.6743 0.46511 0.0
H496 H 0.57755 0.53332 0.47969 0.0
H497 H 0.48129 0.57281 0.53051 0.0
H498 H 0.5407 0.48569 0.57899 0.0
H499 H 0.47477 0.46998 0.58908 0.0
H500 H 0.48456 0.58824 0.59749 0.0
H501 H 0.44407 0.58825 0.6492 0.0
H502 H 0.58908 0.46668 0.47122 0.0
H503 H 0.60758 0.49056 0.58739 0.0
H504 H 0.43432 0.46988 0.64103 0.0
H505 H 0.64201 0.42742 0.47189 0.0
H506 H 0.66014 0.45118 0.58821 0.0
C507 C 0.43642 0.52064 0.87434 0.0
C508 C 0.43898 0.51032 0.83709 0.0
C509 C 0.46668 0.51879 0.89855 0.0
C510 C 0.50021 0.50646 0.88622 0.0
C511 C 0.50378 0.49867 0.84857 0.0
C512 C 0.47331 0.50065 0.82409 0.0
C513 C 0.52878 0.4966 0.91372 0.0
C514 C 0.51863 0.47298 0.94141 0.0
C515 C 0.54344 0.46442 0.96989 0.0
C516 C 0.57943 0.47928 0.96997 0.0
C517 C 0.59044 0.50264 0.94197 0.0
C518 C 0.56496 0.51092 0.91359 0.0
C519 C 0.62821 0.51923 0.94328 0.0
C520 C 0.64362 0.53476 0.97635 0.0
C521 C 0.64919 0.51944 0.91174 0.0
C522 C 0.68505 0.53448 0.91339 0.0
C523 C 0.70049 0.54999 0.94653 0.0
C524 C 0.53093 0.4398 0.99902 0.0
C525 C 0.49528 0.44261 0.01196 0.0
C526 C 0.55287 0.41154 0.01182 0.0
C527 C 0.53852 0.38537 0.03526 0.0
C528 C 0.50193 0.38686 0.04578 0.0
C529 C 0.48082 0.41623 0.03467 0.0
C530 C 0.67927 0.5501 0.97794 0.0
H531 H 0.41061 0.52885 0.88517 0.0
H532 H 0.46338 0.52528 0.92744 0.0
H533 H 0.52936 0.48895 0.83851 0.0
H534 H 0.47616 0.49277 0.79547 0.0
H535 H 0.49101 0.46093 0.94049 0.0
H536 H 0.5728 0.52948 0.89235 0.0
H537 H 0.59882 0.47288 0.99191 0.0
H538 H 0.62793 0.5354 0.001 0.0
H539 H 0.63806 0.50746 0.88593 0.0
H540 H 0.70059 0.53406 0.88866 0.0
H541 H 0.47803 0.46468 0.00357 0.0
H542 H 0.5804 0.40859 0.00233 0.0
H543 H 0.69022 0.56191 0.00388 0.0
H544 H 0.45277 0.41844 0.04298 0.0
H545 H 0.55539 0.36298 0.04357 0.0
C546 C 0.58625 0.21226 0.19251 0.0
C547 C 0.57772 0.24798 0.18259 0.0
C548 C 0.61911 0.20581 0.21178 0.0
C549 C 0.64396 0.23498 0.22186 0.0
C550 C 0.63533 0.27075 0.21227 0.0
C551 C 0.60264 0.27717 0.1926 0.0
C552 C 0.67878 0.228 0.24232 0.0
C553 C 0.70046 0.19897 0.23109 0.0
C554 C 0.73284 0.19133 0.25086 0.0
C555 C 0.74372 0.21328 0.28191 0.0
C556 C 0.72147 0.24135 0.29487 0.0
C557 C 0.68931 0.24894 0.27428 0.0
C558 C 0.73025 0.26023 0.33134 0.0
C559 C 0.74713 0.24096 0.35992 0.0
C560 C 0.72114 0.29697 0.33853 0.0
C561 C 0.72904 0.31388 0.37319 0.0
C562 C 0.74696 0.29466 0.40099 0.0
C563 C 0.75233 0.15722 0.24279 0.0
C564 C 0.7327 0.12342 0.24219 0.0
C565 C 0.79075 0.15754 0.24062 0.0
C566 C 0.80932 0.12453 0.23989 0.0
C567 C 0.78969 0.09098 0.24225 0.0
C568 C 0.75125 0.09064 0.2424 0.0
C569 C 0.75584 0.2581 0.39397 0.0
H570 H 0.56765 0.18919 0.18524 0.0
H571 H 0.62489 0.17801 0.21918 0.0
H572 H 0.65411 0.29369 0.21958 0.0
H573 H 0.5968 0.30502 0.18546 0.0
H574 H 0.69196 0.18197 0.20714 0.0
H575 H 0.67128 0.26977 0.28404 0.0
H576 H 0.76874 0.20705 0.29703 0.0
H577 H 0.75334 0.21232 0.35636 0.0
H578 H 0.7084 0.31291 0.3173 0.0
H579 H 0.72211 0.34222 0.3779 0.0
H580 H 0.70314 0.12239 0.24425 0.0
H581 H 0.80645 0.18331 0.24113 0.0
H582 H 0.76921 0.24245 0.41511 0.0
H583 H 0.73564 0.06504 0.24455 0.0
H584 H 0.83904 0.12538 0.24031 0.0
C585 C 0.41545 0.18197 0.03945 0.0
C586 C 0.44814 0.19742 0.05594 0.0
C587 C 0.41431 0.14621 0.02446 0.0
C588 C 0.44594 0.12541 0.02521 0.0
C589 C 0.47855 0.14072 0.04188 0.0
C590 C 0.47959 0.17628 0.05729 0.0
C591 C 0.4453 0.08817 0.00787 0.0
C592 C 0.47305 0.07856 0.98392 0.0
C593 C 0.47327 0.04322 0.96774 0.0
C594 C 0.44545 0.0176 0.97572 0.0
C595 C 0.41802 0.02639 -4e-05 0.0
C596 C 0.41752 0.062 0.01552 0.0
C597 C 0.39107 0.99714 0.00901 0.0
C598 C 0.35324 0.00109 0.00267 0.0
C599 C 0.40389 0.96303 0.0195 0.0
C600 C 0.37982 0.93276 0.02115 0.0
C601 C 0.34225 0.93585 0.01243 0.0
C602 C 0.50205 0.03228 0.94233 0.0
C603 C 0.51358 0.05545 0.91448 0.0
C604 C 0.51596 0.99692 0.94401 0.0
C605 C 0.53845 0.98391 0.91693 0.0
C606 C 0.54831 0.00622 0.88798 0.0
C607 C 0.5368 0.04255 0.88758 0.0
C608 C 0.32893 0.97059 0.00439 0.0
H609 H 0.39068 0.19747 0.03814 0.0
H610 H 0.38889 0.13509 0.01159 0.0
H611 H 0.50324 0.12509 0.04311 0.0
H612 H 0.50516 0.18732 0.06988 0.0
H613 H 0.49449 0.09856 0.97799 0.0
H614 H 0.39643 0.0689 0.03446 0.0
H615 H 0.44482 0.99046 0.96266 0.0
H616 H 0.34279 0.02714 0.99441 0.0
H617 H 0.43294 0.95943 0.0249 0.0
H618 H 0.39097 0.90661 0.02808 0.0
H619 H 0.50329 0.08283 0.91247 0.0
H620 H 0.50852 0.97879 0.96573 0.0
H621 H 0.30006 0.97388 0.99781 0.0
H622 H 0.54422 0.06029 0.86554 0.0
H623 H 0.54762 0.95604 0.91832 0.0
Zn624 Zn 0.30134 0.82439 0.00285 0.0
Zn625 Zn 0.24191 0.86473 0.00263 0.0
O626 O 0.23816 0.83422 0.04992 0.0
O627 O 0.28488 0.79766 0.04669 0.0
O628 O 0.19621 0.89459 0.00207 0.0
O629 O 0.33243 0.87122 0.00952 0.0
O630 O 0.28336 0.90453 0.00633 0.0
C631 C 0.25684 0.80823 0.06275 0.0
C632 C 0.25788 0.81226 0.93696 0.0
O633 O 0.23765 0.83555 0.95244 0.0
O634 O 0.28734 0.80289 0.95288 0.0
C635 C 0.18791 0.91291 0.03063 0.0
O636 O 0.20908 0.91156 0.06051 0.0
C637 C 0.31808 0.90235 0.0097 0.0
Zn638 Zn 0.09071 0.43136 0.30928 0.0
Zn639 Zn 0.1246 0.49662 0.29811 0.0
O640 O 0.09058 0.51013 0.33962 0.0
O641 O 0.06408 0.45635 0.34983 0.0
O642 O 0.15305 0.54328 0.28929 0.0
O643 O 0.13901 0.40957 0.32207 0.0
O644 O 0.16633 0.46303 0.31301 0.0
C645 C 0.06864 0.49031 0.3576 0.0
C646 C 0.07841 0.45631 0.23593 0.0
O647 O 0.09827 0.48372 0.24826 0.0
O648 O 0.07108 0.42994 0.25657 0.0
C649 C 0.1389 0.57309 0.28002 0.0
O650 O 0.10306 0.57452 0.27589 0.0
C651 C 0.16798 0.42962 0.32183 0.0
Zn652 Zn 0.81173 0.58357 0.92408 0.0
Zn653 Zn 0.79744 0.61376 0.99146 0.0
O654 O 0.84156 0.58249 0.00347 0.0
O655 O 0.85306 0.55747 0.94943 0.0
O656 O 0.78732 0.63884 0.03971 0.0
O657 O 0.82368 0.63422 0.90589 0.0
O658 O 0.80815 0.65757 0.95943 0.0
C659 C 0.86069 0.56191 0.98353 0.0
C660 C 0.73833 0.56629 0.94842 0.0
O661 O 0.74993 0.58464 0.97708 0.0
O662 O 0.75901 0.56222 0.92149 0.0
C663 C 0.75711 0.65455 0.04355 0.0
O664 O 0.73248 0.65292 0.01623 0.0
C665 C 0.81912 0.66168 0.92705 0.0
Zn666 Zn 0.82754 0.99849 0.29687 0.0
Zn667 Zn 0.86675 -0.00057 0.23701 0.0
O668 O 0.83475 0.0456 0.23268 0.0
O669 O 0.79938 0.04128 0.28023 0.0
O670 O 0.89654 -0.00032 0.19139 0.0
O671 O 0.87433 0.00644 0.32789 0.0
O672 O 0.90695 0.00386 0.27839 0.0
C673 C 0.80872 0.05746 0.25168 0.0
C674 C 0.8159 0.93268 0.25356 0.0
O675 O 0.83846 0.94873 0.23286 0.0
O676 O 0.80696 0.94814 0.28329 0.0
C677 C 0.91236 0.02916 0.18149 0.0
O678 O 0.90832 0.05961 0.20088 0.0
C679 C 0.90524 0.00721 0.31318 0.0
Zn680 Zn 0.31177 0.08361 0.42408 0.0
Zn681 Zn 0.29747 0.11377 0.49146 0.0
O682 O 0.34159 0.0825 0.50347 0.0
O683 O 0.3531 0.0575 0.44943 0.0
O684 O 0.28735 0.13884 0.53972 0.0
O685 O 0.32371 0.13425 0.40591 0.0
O686 O 0.30818 0.15759 0.45945 0.0
C687 C 0.36073 0.06193 0.48353 0.0
C688 C 0.23837 0.06631 0.44841 0.0
O689 O 0.24997 0.08465 0.47707 0.0
O690 O 0.25905 0.06225 0.42148 0.0
C691 C 0.25713 0.15454 0.54357 0.0
O692 O 0.2325 0.1529 0.51625 0.0
C693 C 0.31915 0.16171 0.42707 0.0
Zn694 Zn 0.32752 0.49849 0.79686 0.0
Zn695 Zn 0.36673 0.49943 0.73701 0.0
O696 O 0.33474 0.5456 0.73267 0.0
O697 O 0.29936 0.54128 0.78022 0.0
O698 O 0.39654 0.49968 0.69138 0.0
O699 O 0.3743 0.50644 0.82788 0.0
O700 O 0.40693 0.50386 0.77839 0.0
C701 C 0.3087 0.55746 0.75167 0.0
C702 C 0.31588 0.43268 0.75355 0.0
O703 O 0.33844 0.44873 0.73285 0.0
O704 O 0.30694 0.44814 0.78327 0.0
C705 C 0.41235 0.52916 0.68149 0.0
O706 O 0.40831 0.55961 0.70087 0.0
C707 C 0.40522 0.50721 0.81318 0.0
Zn708 Zn 0.80135 0.32441 0.50285 0.0
Zn709 Zn 0.74191 0.36474 0.50263 0.0
O710 O 0.73816 0.33423 0.54992 0.0
O711 O 0.78489 0.29768 0.54669 0.0
O712 O 0.69621 0.3946 0.50207 0.0
O713 O 0.83243 0.37125 0.50952 0.0
O714 O 0.78335 0.40455 0.50633 0.0
C715 C 0.75685 0.30825 0.56275 0.0
C716 C 0.75788 0.31228 0.43696 0.0
O717 O 0.73765 0.33556 0.45244 0.0
O718 O 0.78735 0.30291 0.45288 0.0
C719 C 0.6879 0.41291 0.53063 0.0
O720 O 0.70908 0.41157 0.56051 0.0
C721 C 0.81807 0.40238 0.5097 0.0
Zn722 Zn 0.59072 0.93136 0.80928 0.0
Zn723 Zn 0.62461 0.99661 0.79812 0.0
O724 O 0.59059 0.01013 0.83962 0.0
O725 O 0.56409 0.95635 0.84983 0.0
O726 O 0.65307 0.04328 0.7893 0.0
O727 O 0.63901 0.90956 0.82206 0.0
O728 O 0.66634 0.96303 0.81301 0.0
C729 C 0.56865 0.99031 0.8576 0.0
C730 C 0.57842 0.95631 0.73592 0.0
O731 O 0.59828 0.98372 0.74826 0.0
O732 O 0.57108 0.92994 0.75656 0.0
C733 C 0.63891 0.07309 0.78001 0.0
O734 O 0.60307 0.0745 0.77587 0.0
C735 C 0.66799 0.92961 0.82183 0.0
Zn736 Zn 0.00535 0.30182 0.82839 0.0
Zn737 Zn 0.00612 0.24319 0.8683 0.0
O738 O 0.05024 0.23658 0.83465 0.0
O739 O 0.04289 0.28096 0.79564 0.0
O740 O 0.00728 0.19952 0.90112 0.0
O741 O 0.02114 0.3339 0.87247 0.0
O742 O 0.01402 0.28575 0.90663 0.0
C743 C 0.05976 0.25316 0.80602 0.0
C744 C 0.93627 0.26325 0.82383 0.0
O745 O 0.95399 0.24009 0.84248 0.0
O746 O 0.95185 0.29324 0.8156 0.0
C747 C 0.01602 0.16728 0.89151 0.0
O748 O 0.02408 0.16027 0.85722 0.0
C749 C 0.02104 0.31997 0.90387 0.0
Zn750 Zn 0.50535 0.80182 0.32839 0.0
Zn751 Zn 0.50612 0.7432 0.3683 0.0
O752 O 0.55024 0.73659 0.33465 0.0
O753 O 0.54288 0.78096 0.29563 0.0
O754 O 0.50729 0.69952 0.40111 0.0
O755 O 0.52115 0.8339 0.37247 0.0
O756 O 0.51403 0.78575 0.40663 0.0
C757 C 0.55975 0.75317 0.30601 0.0
C758 C 0.43626 0.76325 0.32383 0.0
O759 O 0.45399 0.74009 0.34248 0.0
O760 O 0.45184 0.79324 0.3156 0.0
C761 C 0.51601 0.66728 0.3915 0.0
O762 O 0.52408 0.66027 0.35722 0.0
C763 C 0.52105 0.81998 0.40386 0.0
Zn764 Zn 0.92478 0.80829 0.58597 0.0
Zn765 Zn 0.99003 0.79525 0.62064 0.0
O766 O 0.00374 0.83789 0.58778 0.0
O767 O 0.95055 0.85001 0.56094 0.0
O768 O 0.03766 0.78553 0.64788 0.0
O769 O 0.90281 0.81807 0.63485 0.0
O770 O 0.95593 0.80768 0.66258 0.0
C771 C 0.98466 0.85696 0.56605 0.0
C772 C 0.94939 0.7354 0.57153 0.0
O773 O 0.97656 0.74689 0.59226 0.0
O774 O 0.9233 0.75637 0.56432 0.0
C775 C 0.04293 0.75467 0.66207 0.0
O776 O 0.01701 0.72877 0.65848 0.0
C777 C 0.92238 0.81601 0.6641 0.0
Zn778 Zn 0.42477 0.30825 0.08599 0.0
Zn779 Zn 0.49002 0.29522 0.12066 0.0
O780 O 0.50373 0.33787 0.08779 0.0
O781 O 0.45054 0.34997 0.06096 0.0
O782 O 0.53765 0.28551 0.1479 0.0
O783 O 0.4028 0.31804 0.13487 0.0
O784 O 0.45592 0.30767 0.1626 0.0
C785 C 0.48464 0.35693 0.06606 0.0
C786 C 0.44938 0.23537 0.07156 0.0
O787 O 0.47655 0.24687 0.09228 0.0
O788 O 0.42329 0.25634 0.06435 0.0
C789 C 0.54292 0.25465 0.16209 0.0
O790 O 0.517 0.22875 0.1585 0.0
C791 C 0.42237 0.31599 0.16412 0.0
loop_
_geom_bond_atom_site_label_1
_geom_bond_atom_site_label_2
_geom_bond_distance
_geom_bond_site_symmetry_2
_ccdc_geom_bond_type
C0 C1 1.386 . S
C0 C2 1.397 . S
C0 H24 0.931 . S
C1 C0 1.386 . S
C1 C5 1.397 . S
C2 C0 1.397 . S
C2 C3 1.384 . S
C2 H25 0.930 . S
C3 C2 1.384 . S
C3 C4 1.377 1_556 S
C3 C6 1.481 1_556 S
C4 C3 1.377 1_554 S
C4 C5 1.389 1_554 S
C4 H26 0.929 . S
C5 C1 1.397 . S
C5 C4 1.389 1_556 S
C5 H27 0.931 . S
C6 C3 1.481 1_554 S
C6 C7 1.387 . S
C6 C11 1.390 . S
C7 C6 1.387 . S
C7 C8 1.401 . S
C7 H28 0.930 1_554 S
C8 C7 1.401 . S
C8 C9 1.376 . S
C8 C17 1.511 1_545 S
C9 C8 1.376 . S
C9 C10 1.392 . S
C9 H30 0.931 1_545 S
C10 C9 1.392 . S
C10 C11 1.361 . S
C10 C12 1.500 1_455 S
C11 C6 1.390 . S
C11 C10 1.361 . S
C11 H29 0.931 1_455 S
C12 C10 1.500 1_655 S
C12 C13 1.371 1_545 S
C12 C14 1.365 . S
C13 C12 1.371 1_565 S
C13 C23 1.386 . S
C13 H31 0.931 . S
C14 C12 1.365 . S
C14 C15 1.409 . S
C14 H32 0.929 . S
C15 C14 1.409 . S
C15 C16 1.380 . S
C15 H33 0.930 . S
C16 C15 1.380 . S
C16 C23 1.357 1_545 S
C17 C8 1.511 1_565 S
C17 C18 1.341 1_554 S
C17 C19 1.371 . S
C18 C17 1.341 1_556 S
C18 C22 1.394 . S
C18 H34 0.930 1_565 S
C19 C17 1.371 . S
C19 C20 1.392 . S
C19 H35 0.931 . S
C20 C19 1.392 . S
C20 C21 1.331 . S
C20 H38 0.932 . S
C21 C20 1.331 . S
C21 C22 1.336 1_554 S
C22 C18 1.394 . S
C22 C21 1.336 1_556 S
C22 H37 0.929 . S
C23 C13 1.386 . S
C23 C16 1.357 1_565 S
C23 H36 0.928 . S
H24 C0 0.931 . S
H25 C2 0.930 . S
H26 C4 0.929 . S
H27 C5 0.931 . S
H28 C7 0.930 1_556 S
H29 C11 0.931 1_655 S
H30 C9 0.931 1_565 S
H31 C13 0.931 . S
H32 C14 0.929 . S
H33 C15 0.930 . S
H34 C18 0.930 1_545 S
H35 C19 0.931 . S
H36 C23 0.928 . S
H37 C22 0.929 . S
H38 C20 0.932 . S
C39 C40 1.386 . S
C39 C41 1.397 . S
C39 H63 0.931 . S
C40 C39 1.386 . S
C40 C44 1.397 . S
C41 C39 1.397 . S
C41 C42 1.384 . S
C41 H64 0.930 . S
C42 C41 1.384 . S
C42 C43 1.377 . S
C42 C45 1.481 . S
C43 C42 1.377 . S
C43 C44 1.389 . S
C43 H65 0.929 . S
C44 C40 1.397 . S
C44 C43 1.389 . S
C44 H66 0.931 . S
C45 C42 1.481 . S
C45 C46 1.387 . S
C45 C50 1.390 . S
C46 C45 1.387 . S
C46 C47 1.401 . S
C46 H67 0.930 . S
C47 C46 1.401 . S
C47 C48 1.376 . S
C47 C56 1.511 . S
C48 C47 1.376 . S
C48 C49 1.392 . S
C48 H69 0.931 . S
C49 C48 1.392 . S
C49 C50 1.361 . S
C49 C51 1.500 . S
C50 C45 1.390 . S
C50 C49 1.361 . S
C50 H68 0.931 . S
C51 C49 1.500 . S
C51 C52 1.371 . S
C51 C53 1.365 . S
C52 C51 1.371 . S
C52 C62 1.386 . S
C52 H70 0.931 . S
C53 C51 1.365 . S
C53 C54 1.409 . S
C53 H71 0.929 . S
C54 C53 1.409 . S
C54 C55 1.380 . S
C54 H72 0.930 . S
C55 C54 1.380 . S
C55 C62 1.357 . S
C56 C47 1.511 . S
C56 C57 1.341 . S
C56 C58 1.371 . S
C57 C56 1.341 . S
C57 C61 1.394 . S
C57 H73 0.930 . S
C58 C56 1.371 . S
C58 C59 1.392 . S
C58 H74 0.931 . S
C59 C58 1.392 . S
C59 C60 1.331 . S
C59 H77 0.932 . S
C60 C59 1.331 . S
C60 C61 1.336 . S
C61 C57 1.394 . S
C61 C60 1.336 . S
C61 H76 0.929 . S
C62 C52 1.386 . S
C62 C55 1.357 . S
C62 H75 0.928 . S
H63 C39 0.931 . S
H64 C41 0.930 . S
H65 C43 0.929 . S
H66 C44 0.931 . S
H67 C46 0.930 . S
H68 C50 0.931 . S
H69 C48 0.931 . S
H70 C52 0.931 . S
H71 C53 0.929 . S
H72 C54 0.930 . S
H73 C57 0.930 . S
H74 C58 0.931 . S
H75 C62 0.928 . S
H76 C61 0.929 . S
H77 C59 0.932 . S
C78 C79 1.386 . S
C78 C80 1.397 1_455 S
C78 H102 0.931 . S
C79 C78 1.386 . S
C79 C83 1.397 . S
C80 C78 1.397 1_655 S
C80 C81 1.378 1_655 S
C80 H103 0.930 . S
C81 C80 1.378 1_455 S
C81 C82 1.395 . S
C81 C84 1.469 1_455 S
C82 C81 1.395 . S
C82 C83 1.389 . S
C82 H104 0.929 . S
C83 C79 1.397 . S
C83 C82 1.389 . S
C83 H105 0.931 . S
C84 C81 1.469 1_655 S
C84 C85 1.387 . S
C84 C89 1.390 . S
C85 C84 1.387 . S
C85 C86 1.401 . S
C85 H106 0.930 . S
C86 C85 1.401 . S
C86 C87 1.376 . S
C86 C95 1.511 . S
C87 C86 1.376 . S
C87 C88 1.392 . S
C87 H108 0.931 . S
C88 C87 1.392 . S
C88 C89 1.361 . S
C88 C90 1.500 . S
C89 C84 1.390 . S
C89 C88 1.361 . S
C89 H107 0.943 . S
C90 C88 1.500 . S
C90 C91 1.371 1_554 S
C90 C92 1.365 . S
C91 C90 1.371 1_556 S
C91 C101 1.386 . S
C91 H109 0.931 . S
C92 C90 1.365 . S
C92 C93 1.409 1_654 S
C92 H110 0.929 1_655 S
C93 C92 1.409 1_456 S
C93 C94 1.380 1_455 S
C93 H111 0.930 . S
C94 C93 1.380 1_655 S
C94 C101 1.357 . S
C95 C86 1.511 . S
C95 C96 1.341 . S
C95 C97 1.371 . S
C96 C95 1.341 . S
C96 C100 1.394 . S
C96 H112 0.930 . S
C97 C95 1.371 . S
C97 C98 1.392 . S
C97 H113 0.931 1_554 S
C98 C97 1.392 . S
C98 C99 1.331 . S
C98 H116 0.932 1_554 S
C99 C98 1.331 . S
C99 C100 1.336 . S
C100 C96 1.394 . S
C100 C99 1.336 . S
C100 H115 0.929 . S
C101 C91 1.386 . S
C101 C94 1.357 . S
C101 H114 0.928 . S
H102 C78 0.931 . S
H103 C80 0.930 . S
H104 C82 0.929 . S
H105 C83 0.931 . S
H106 C85 0.930 . S
H107 C89 0.943 . S
H108 C87 0.931 . S
H109 C91 0.931 . S
H110 C92 0.929 1_455 S
H111 C93 0.930 . S
H112 C96 0.930 . S
H113 C97 0.931 1_556 S
H114 C101 0.928 . S
H115 C100 0.929 . S
H116 C98 0.932 1_556 S
C117 C118 1.386 . S
C117 C119 1.397 . S
C117 H141 0.931 . S
C118 C117 1.386 . S
C118 C122 1.397 . S
C119 C117 1.397 . S
C119 C120 1.384 . S
C119 H142 0.930 . S
C120 C119 1.384 . S
C120 C121 1.377 . S
C120 C123 1.481 . S
C121 C120 1.377 . S
C121 C122 1.389 . S
C121 H143 0.929 . S
C122 C118 1.397 . S
C122 C121 1.389 . S
C122 H144 0.931 . S
C123 C120 1.481 . S
C123 C124 1.387 . S
C123 C128 1.390 . S
C124 C123 1.387 . S
C124 C125 1.401 . S
C124 H145 0.930 . S
C125 C124 1.401 . S
C125 C126 1.376 . S
C125 C134 1.511 . S
C126 C125 1.376 . S
C126 C127 1.392 . S
C126 H147 0.931 . S
C127 C126 1.392 . S
C127 C128 1.361 . S
C127 C129 1.500 . S
C128 C123 1.390 . S
C128 C127 1.361 . S
C128 H146 0.931 . S
C129 C127 1.500 . S
C129 C130 1.371 . S
C129 C131 1.365 . S
C130 C129 1.371 . S
C130 C140 1.386 . S
C130 H148 0.931 . S
C131 C129 1.365 . S
C131 C132 1.409 . S
C131 H149 0.929 . S
C132 C131 1.409 . S
C132 C133 1.380 . S
C132 H150 0.930 . S
C133 C132 1.380 . S
C133 C140 1.357 . S
C134 C125 1.511 . S
C134 C135 1.341 . S
C134 C136 1.371 . S
C135 C134 1.341 . S
C135 C139 1.394 . S
C135 H151 0.930 . S
C136 C134 1.371 . S
C136 C137 1.392 . S
C136 H152 0.931 . S
C137 C136 1.392 . S
C137 C138 1.331 . S
C137 H155 0.932 . S
C138 C137 1.331 . S
C138 C139 1.336 . S
C139 C135 1.394 . S
C139 C138 1.336 . S
C139 H154 0.929 . S
C140 C130 1.386 . S
C140 C133 1.357 . S
C140 H153 0.928 . S
H141 C117 0.931 . S
H142 C119 0.930 . S
H143 C121 0.929 . S
H144 C122 0.931 . S
H145 C124 0.930 . S
H146 C128 0.931 . S
H147 C126 0.931 . S
H148 C130 0.931 . S
H149 C131 0.929 . S
H150 C132 0.930 . S
H151 C135 0.930 . S
H152 C136 0.931 . S
H153 C140 0.928 . S
H154 C139 0.929 . S
H155 C137 0.932 . S
C156 C157 1.386 . S
C156 C158 1.397 . S
C156 H180 0.931 . S
C157 C156 1.386 . S
C157 C161 1.397 . S
C158 C156 1.397 . S
C158 C159 1.384 1_655 S
C158 H181 0.930 . S
C159 C158 1.384 1_455 S
C159 C160 1.377 . S
C159 C162 1.481 . S
C160 C159 1.377 . S
C160 C161 1.389 1_455 S
C160 H182 0.929 . S
C161 C157 1.397 . S
C161 C160 1.389 1_655 S
C161 H183 0.931 1_655 S
C162 C159 1.481 . S
C162 C163 1.387 . S
C162 C167 1.390 . S
C163 C162 1.387 . S
C163 C164 1.401 . S
C163 H184 0.930 . S
C164 C163 1.401 . S
C164 C165 1.376 . S
C164 C173 1.511 . S
C165 C164 1.376 . S
C165 C166 1.392 . S
C165 H186 0.931 . S
C166 C165 1.392 . S
C166 C167 1.361 . S
C166 C168 1.500 1_565 S
C167 C162 1.390 . S
C167 C166 1.361 . S
C167 H185 0.906 1_565 S
C168 C166 1.500 1_545 S
C168 C169 1.371 . S
C168 C170 1.365 . S
C169 C168 1.371 . S
C169 C179 1.386 . S
C169 H187 0.925 1_545 S
C170 C168 1.365 . S
C170 C171 1.409 . S
C170 H188 0.929 . S
C171 C170 1.409 . S
C171 C172 1.380 . S
C171 H189 0.930 . S
C172 C171 1.380 . S
C172 C179 1.357 . S
C173 C164 1.511 . S
C173 C174 1.341 . S
C173 C175 1.371 . S
C174 C173 1.341 . S
C174 C178 1.394 . S
C174 H190 0.930 1_455 S
C175 C173 1.371 . S
C175 C176 1.392 . S
C175 H191 0.931 . S
C176 C175 1.392 . S
C176 C177 1.331 . S
C176 H194 0.932 . S
C177 C176 1.331 . S
C177 C178 1.336 . S
C178 C174 1.394 . S
C178 C177 1.336 . S
C178 H193 0.929 1_455 S
C179 C169 1.386 . S
C179 C172 1.357 . S
C179 H192 0.928 . S
H180 C156 0.931 . S
H181 C158 0.930 . S
H182 C160 0.929 . S
H183 C161 0.931 1_455 S
H184 C163 0.930 . S
H185 C167 0.906 1_545 S
H186 C165 0.931 . S
H187 C169 0.925 1_565 S
H188 C170 0.929 . S
H189 C171 0.930 . S
H190 C174 0.930 1_655 S
H191 C175 0.931 . S
H192 C179 0.928 . S
H193 C178 0.929 1_655 S
H194 C176 0.932 . S
C195 C196 1.386 . S
C195 C197 1.397 . S
C195 H219 0.931 . S
C196 C195 1.386 . S
C196 C200 1.397 . S
C197 C195 1.397 . S
C197 C198 1.384 . S
C197 H220 0.930 . S
C198 C197 1.384 . S
C198 C199 1.377 . S
C198 C201 1.481 . S
C199 C198 1.377 . S
C199 C200 1.389 . S
C199 H221 0.929 . S
C200 C196 1.397 . S
C200 C199 1.389 . S
C200 H222 0.931 . S
C201 C198 1.481 . S
C201 C202 1.387 . S
C201 C206 1.390 . S
C202 C201 1.387 . S
C202 C203 1.401 . S
C202 H223 0.930 . S
C203 C202 1.401 . S
C203 C204 1.376 . S
C203 C212 1.511 . S
C204 C203 1.376 . S
C204 C205 1.392 . S
C204 H225 0.931 . S
C205 C204 1.392 . S
C205 C206 1.361 . S
C205 C207 1.500 . S
C206 C201 1.390 . S
C206 C205 1.361 . S
C206 H224 0.931 . S
C207 C205 1.500 . S
C207 C208 1.371 . S
C207 C209 1.365 . S
C208 C207 1.371 . S
C208 C218 1.386 . S
C208 H226 0.931 . S
C209 C207 1.365 . S
C209 C210 1.409 . S
C209 H227 0.929 . S
C210 C209 1.409 . S
C210 C211 1.380 . S
C210 H228 0.930 . S
C211 C210 1.380 . S
C211 C218 1.357 . S
C212 C203 1.511 . S
C212 C213 1.341 . S
C212 C214 1.371 . S
C213 C212 1.341 . S
C213 C217 1.394 . S
C213 H229 0.930 . S
C214 C212 1.371 . S
C214 C215 1.392 . S
C214 H230 0.931 . S
C215 C214 1.392 . S
C215 C216 1.331 . S
C215 H233 0.932 . S
C216 C215 1.331 . S
C216 C217 1.336 . S
C217 C213 1.394 . S
C217 C216 1.336 . S
C217 H232 0.929 . S
C218 C208 1.386 . S
C218 C211 1.357 . S
C218 H231 0.928 . S
H219 C195 0.931 . S
H220 C197 0.930 . S
H221 C199 0.929 . S
H222 C200 0.931 . S
H223 C202 0.930 . S
H224 C206 0.931 . S
H225 C204 0.931 . S
H226 C208 0.931 . S
H227 C209 0.929 . S
H228 C210 0.930 . S
H229 C213 0.930 . S
H230 C214 0.931 . S
H231 C218 0.928 . S
H232 C217 0.929 . S
H233 C215 0.932 . S
C234 C235 1.386 . S
C234 C236 1.397 . S
C234 H258 0.931 . S
C235 C234 1.386 . S
C235 C239 1.397 . S
C236 C234 1.397 . S
C236 C237 1.384 . S
C236 H259 0.930 . S
C237 C236 1.384 . S
C237 C238 1.377 . S
C237 C240 1.481 . S
C238 C237 1.377 . S
C238 C239 1.389 . S
C238 H260 0.929 . S
C239 C235 1.397 . S
C239 C238 1.389 . S
C239 H261 0.931 . S
C240 C237 1.481 . S
C240 C241 1.387 . S
C240 C245 1.390 . S
C241 C240 1.387 . S
C241 C242 1.401 . S
C241 H262 0.930 1_655 S
C242 C241 1.401 . S
C242 C243 1.376 . S
C242 C251 1.511 1_655 S
C243 C242 1.376 . S
C243 C244 1.392 . S
C243 H264 0.931 . S
C244 C243 1.392 . S
C244 C245 1.361 . S
C244 C246 1.500 . S
C245 C240 1.390 . S
C245 C244 1.361 . S
C245 H263 0.931 . S
C246 C244 1.500 . S
C246 C247 1.371 . S
C246 C248 1.365 . S
C247 C246 1.371 . S
C247 C257 1.386 . S
C247 H265 0.931 . S
C248 C246 1.365 . S
C248 C249 1.409 . S
C248 H266 0.929 . S
C249 C248 1.409 . S
C249 C250 1.380 . S
C249 H267 0.930 . S
C250 C249 1.380 . S
C250 C257 1.357 . S
C251 C242 1.511 1_455 S
C251 C252 1.341 . S
C251 C253 1.371 . S
C252 C251 1.341 . S
C252 C256 1.394 . S
C252 H268 0.930 . S
C253 C251 1.371 . S
C253 C254 1.392 . S
C253 H269 0.931 1_455 S
C254 C253 1.392 . S
C254 C255 1.331 . S
C254 H272 0.932 . S
C255 C254 1.331 . S
C255 C256 1.336 . S
C256 C252 1.394 . S
C256 C255 1.336 . S
C256 H271 0.929 . S
C257 C247 1.386 . S
C257 C250 1.357 . S
C257 H270 0.928 . S
H258 C234 0.931 . S
H259 C236 0.930 . S
H260 C238 0.929 . S
H261 C239 0.931 . S
H262 C241 0.930 1_455 S
H263 C245 0.931 . S
H264 C243 0.931 . S
H265 C247 0.931 . S
H266 C248 0.929 . S
H267 C249 0.930 . S
H268 C252 0.930 . S
H269 C253 0.931 1_655 S
H270 C257 0.928 . S
H271 C256 0.929 . S
H272 C254 0.932 . S
C273 C274 1.386 . S
C273 C275 1.397 . S
C273 H297 0.931 . S
C274 C273 1.386 . S
C274 C278 1.397 . S
C275 C273 1.397 . S
C275 C276 1.384 . S
C275 H298 0.930 . S
C276 C275 1.384 . S
C276 C277 1.377 . S
C276 C279 1.481 . S
C277 C276 1.377 . S
C277 C278 1.389 . S
C277 H299 0.929 . S
C278 C274 1.397 . S
C278 C277 1.389 . S
C278 H300 0.931 . S
C279 C276 1.481 . S
C279 C280 1.387 . S
C279 C284 1.390 . S
C280 C279 1.387 . S
C280 C281 1.401 . S
C280 H301 0.930 . S
C281 C280 1.401 . S
C281 C282 1.376 . S
C281 C290 1.511 . S
C282 C281 1.376 . S
C282 C283 1.392 . S
C282 H303 0.931 . S
C283 C282 1.392 . S
C283 C284 1.361 . S
C283 C285 1.500 . S
C284 C279 1.390 . S
C284 C283 1.361 . S
C284 H302 0.931 . S
C285 C283 1.500 . S
C285 C286 1.371 . S
C285 C287 1.365 . S
C286 C285 1.371 . S
C286 C296 1.386 . S
C286 H304 0.931 . S
C287 C285 1.365 . S
C287 C288 1.409 . S
C287 H305 0.929 . S
C288 C287 1.409 . S
C288 C289 1.380 . S
C288 H306 0.930 . S
C289 C288 1.380 . S
C289 C296 1.357 . S
C290 C281 1.511 . S
C290 C291 1.341 . S
C290 C292 1.371 . S
C291 C290 1.341 . S
C291 C295 1.394 . S
C291 H307 0.930 . S
C292 C290 1.371 . S
C292 C293 1.392 . S
C292 H308 0.931 . S
C293 C292 1.392 . S
C293 C294 1.331 . S
C293 H311 0.932 . S
C294 C293 1.331 . S
C294 C295 1.336 . S
C295 C291 1.394 . S
C295 C294 1.336 . S
C295 H310 0.929 . S
C296 C286 1.386 . S
C296 C289 1.357 . S
C296 H309 0.928 . S
H297 C273 0.931 . S
H298 C275 0.930 . S
H299 C277 0.929 . S
H300 C278 0.931 . S
H301 C280 0.930 . S
H302 C284 0.931 . S
H303 C282 0.931 . S
H304 C286 0.931 . S
H305 C287 0.929 . S
H306 C288 0.930 . S
H307 C291 0.930 . S
H308 C292 0.931 . S
H309 C296 0.928 . S
H310 C295 0.929 . S
H311 C293 0.932 . S
C312 C313 1.386 . S
C312 C314 1.397 . S
C312 H336 0.931 . S
C313 C312 1.386 . S
C313 C317 1.397 . S
C314 C312 1.397 . S
C314 C315 1.384 . S
C314 H337 0.930 . S
C315 C314 1.384 . S
C315 C316 1.377 . S
C315 C318 1.481 . S
C316 C315 1.377 . S
C316 C317 1.389 . S
C316 H338 0.929 . S
C317 C313 1.397 . S
C317 C316 1.389 . S
C317 H339 0.931 . S
C318 C315 1.481 . S
C318 C319 1.387 . S
C318 C323 1.390 . S
C319 C318 1.387 . S
C319 C320 1.401 . S
C319 H340 0.930 . S
C320 C319 1.401 . S
C320 C321 1.376 . S
C320 C329 1.511 . S
C321 C320 1.376 . S
C321 C322 1.392 . S
C321 H342 0.931 . S
C322 C321 1.392 . S
C322 C323 1.361 . S
C322 C324 1.500 . S
C323 C318 1.390 . S
C323 C322 1.361 . S
C323 H341 0.931 . S
C324 C322 1.500 . S
C324 C325 1.371 . S
C324 C326 1.365 . S
C325 C324 1.371 . S
C325 C335 1.386 . S
C325 H343 0.931 . S
C326 C324 1.365 . S
C326 C327 1.409 . S
C326 H344 0.929 . S
C327 C326 1.409 . S
C327 C328 1.380 . S
C327 H345 0.930 . S
C328 C327 1.380 . S
C328 C335 1.357 . S
C329 C320 1.511 . S
C329 C330 1.341 . S
C329 C331 1.371 . S
C330 C329 1.341 . S
C330 C334 1.394 . S
C330 H346 0.930 . S
C331 C329 1.371 . S
C331 C332 1.392 . S
C331 H347 0.931 . S
C332 C331 1.392 . S
C332 C333 1.331 . S
C332 H350 0.932 . S
C333 C332 1.331 . S
C333 C334 1.336 . S
C334 C330 1.394 . S
C334 C333 1.336 . S
C334 H349 0.929 . S
C335 C325 1.386 . S
C335 C328 1.357 . S
C335 H348 0.928 . S
H336 C312 0.931 . S
H337 C314 0.930 . S
H338 C316 0.929 . S
H339 C317 0.931 . S
H340 C319 0.930 . S
H341 C323 0.931 . S
H342 C321 0.931 . S
H343 C325 0.931 . S
H344 C326 0.929 . S
H345 C327 0.930 . S
H346 C330 0.930 . S
H347 C331 0.931 . S
H348 C335 0.928 . S
H349 C334 0.929 . S
H350 C332 0.932 . S
C351 C352 1.386 . S
C351 C353 1.397 . S
C351 H375 0.931 . S
C352 C351 1.386 . S
C352 C356 1.397 . S
C353 C351 1.397 . S
C353 C354 1.384 . S
C353 H376 0.930 . S
C354 C353 1.384 . S
C354 C355 1.377 . S
C354 C357 1.481 . S
C355 C354 1.377 . S
C355 C356 1.389 . S
C355 H377 0.929 . S
C356 C352 1.397 . S
C356 C355 1.389 . S
C356 H378 0.931 . S
C357 C354 1.481 . S
C357 C358 1.387 . S
C357 C362 1.390 . S
C358 C357 1.387 . S
C358 C359 1.401 . S
C358 H379 0.930 1_565 S
C359 C358 1.401 . S
C359 C360 1.376 . S
C359 C368 1.511 1_565 S
C360 C359 1.376 . S
C360 C361 1.392 . S
C360 H381 0.931 . S
C361 C360 1.392 . S
C361 C362 1.361 . S
C361 C363 1.500 . S
C362 C357 1.390 . S
C362 C361 1.361 . S
C362 H380 0.931 . S
C363 C361 1.500 . S
C363 C364 1.371 . S
C363 C365 1.365 . S
C364 C363 1.371 . S
C364 C374 1.386 . S
C364 H382 0.931 . S
C365 C363 1.365 . S
C365 C366 1.409 . S
C365 H383 0.929 . S
C366 C365 1.409 . S
C366 C367 1.380 . S
C366 H384 0.930 . S
C367 C366 1.380 . S
C367 C374 1.357 . S
C368 C359 1.511 1_545 S
C368 C369 1.341 . S
C368 C370 1.371 . S
C369 C368 1.341 . S
C369 C373 1.394 . S
C369 H385 0.930 . S
C370 C368 1.371 . S
C370 C371 1.392 . S
C370 H386 0.931 1_545 S
C371 C370 1.392 . S
C371 C372 1.331 . S
C371 H389 0.932 . S
C372 C371 1.331 . S
C372 C373 1.336 . S
C373 C369 1.394 . S
C373 C372 1.336 . S
C373 H388 0.929 . S
C374 C364 1.386 . S
C374 C367 1.357 . S
C374 H387 0.928 . S
H375 C351 0.931 . S
H376 C353 0.930 . S
H377 C355 0.929 . S
H378 C356 0.931 . S
H379 C358 0.930 1_545 S
H380 C362 0.931 . S
H381 C360 0.931 . S
H382 C364 0.931 . S
H383 C365 0.929 . S
H384 C366 0.930 . S
H385 C369 0.930 . S
H386 C370 0.931 1_565 S
H387 C374 0.928 . S
H388 C373 0.929 . S
H389 C371 0.932 . S
C390 C391 1.386 . S
C390 C392 1.397 . S
C390 H414 0.931 . S
C391 C390 1.386 . S
C391 C395 1.397 . S
C392 C390 1.397 . S
C392 C393 1.384 . S
C392 H415 0.930 . S
C393 C392 1.384 . S
C393 C394 1.377 . S
C393 C396 1.481 . S
C394 C393 1.377 . S
C394 C395 1.389 . S
C394 H416 0.929 . S
C395 C391 1.397 . S
C395 C394 1.389 . S
C395 H417 0.931 . S
C396 C393 1.481 . S
C396 C397 1.387 . S
C396 C401 1.390 . S
C397 C396 1.387 . S
C397 C398 1.401 . S
C397 H418 0.930 . S
C398 C397 1.401 . S
C398 C399 1.376 . S
C398 C407 1.511 . S
C399 C398 1.376 . S
C399 C400 1.392 . S
C399 H420 0.931 . S
C400 C399 1.392 . S
C400 C401 1.361 . S
C400 C402 1.500 . S
C401 C396 1.390 . S
C401 C400 1.361 . S
C401 H419 0.931 . S
C402 C400 1.500 . S
C402 C403 1.371 . S
C402 C404 1.365 . S
C403 C402 1.371 . S
C403 C413 1.386 . S
C403 H421 0.931 . S
C404 C402 1.365 . S
C404 C405 1.409 . S
C404 H422 0.929 . S
C405 C404 1.409 . S
C405 C406 1.380 . S
C405 H423 0.930 . S
C406 C405 1.380 . S
C406 C413 1.357 . S
C407 C398 1.511 . S
C407 C408 1.341 . S
C407 C409 1.371 . S
C408 C407 1.341 . S
C408 C412 1.394 . S
C408 H424 0.930 . S
C409 C407 1.371 . S
C409 C410 1.392 . S
C409 H425 0.931 . S
C410 C409 1.392 . S
C410 C411 1.331 . S
C410 H428 0.932 . S
C411 C410 1.331 . S
C411 C412 1.336 . S
C412 C408 1.394 . S
C412 C411 1.336 . S
C412 H427 0.929 . S
C413 C403 1.386 . S
C413 C406 1.357 . S
C413 H426 0.928 . S
H414 C390 0.931 . S
H415 C392 0.930 . S
H416 C394 0.929 . S
H417 C395 0.931 . S
H418 C397 0.930 . S
H419 C401 0.931 . S
H420 C399 0.931 . S
H421 C403 0.931 . S
H422 C404 0.929 . S
H423 C405 0.930 . S
H424 C408 0.930 . S
H425 C409 0.931 . S
H426 C413 0.928 . S
H427 C412 0.929 . S
H428 C410 0.932 . S
C429 C430 1.386 . S
C429 C431 1.397 . S
C429 H453 0.931 . S
C430 C429 1.386 . S
C430 C434 1.397 . S
C431 C429 1.397 . S
C431 C432 1.384 . S
C431 H454 0.930 . S
C432 C431 1.384 . S
C432 C433 1.377 . S
C432 C435 1.481 . S
C433 C432 1.377 . S
C433 C434 1.389 . S
C433 H455 0.929 . S
C434 C430 1.397 . S
C434 C433 1.389 . S
C434 H456 0.931 . S
C435 C432 1.481 . S
C435 C436 1.387 . S
C435 C440 1.390 . S
C436 C435 1.387 . S
C436 C437 1.401 . S
C436 H457 0.930 . S
C437 C436 1.401 . S
C437 C438 1.376 . S
C437 C446 1.511 . S
C438 C437 1.376 . S
C438 C439 1.392 . S
C438 H459 0.931 . S
C439 C438 1.392 . S
C439 C440 1.361 . S
C439 C441 1.500 . S
C440 C435 1.390 . S
C440 C439 1.361 . S
C440 H458 0.931 . S
C441 C439 1.500 . S
C441 C442 1.371 . S
C441 C443 1.365 . S
C442 C441 1.371 . S
C442 C452 1.386 . S
C442 H460 0.931 . S
C443 C441 1.365 . S
C443 C444 1.409 . S
C443 H461 0.929 . S
C444 C443 1.409 . S
C444 C445 1.380 . S
C444 H462 0.930 . S
C445 C444 1.380 . S
C445 C452 1.357 . S
C446 C437 1.511 . S
C446 C447 1.341 . S
C446 C448 1.371 . S
C447 C446 1.341 . S
C447 C451 1.394 . S
C447 H463 0.930 . S
C448 C446 1.371 . S
C448 C449 1.392 . S
C448 H464 0.931 . S
C449 C448 1.392 . S
C449 C450 1.331 . S
C449 H467 0.932 . S
C450 C449 1.331 . S
C450 C451 1.336 . S
C451 C447 1.394 . S
C451 C450 1.336 . S
C451 H466 0.929 . S
C452 C442 1.386 . S
C452 C445 1.357 . S
C452 H465 0.928 . S
H453 C429 0.931 . S
H454 C431 0.930 . S
H455 C433 0.929 . S
H456 C434 0.931 . S
H457 C436 0.930 . S
H458 C440 0.931 . S
H459 C438 0.931 . S
H460 C442 0.931 . S
H461 C443 0.929 . S
H462 C444 0.930 . S
H463 C447 0.930 . S
H464 C448 0.931 . S
H465 C452 0.928 . S
H466 C451 0.929 . S
H467 C449 0.932 . S
C468 C469 1.386 . S
C468 C470 1.397 . S
C468 H492 0.931 . S
C469 C468 1.386 . S
C469 C473 1.397 . S
C470 C468 1.397 . S
C470 C471 1.384 . S
C470 H493 0.930 . S
C471 C470 1.384 . S
C471 C472 1.377 . S
C471 C474 1.481 . S
C472 C471 1.377 . S
C472 C473 1.389 . S
C472 H494 0.929 . S
C473 C469 1.397 . S
C473 C472 1.389 . S
C473 H495 0.931 . S
C474 C471 1.481 . S
C474 C475 1.387 . S
C474 C479 1.390 . S
C475 C474 1.387 . S
C475 C476 1.401 . S
C475 H496 0.930 . S
C476 C475 1.401 . S
C476 C477 1.376 . S
C476 C485 1.511 . S
C477 C476 1.376 . S
C477 C478 1.392 . S
C477 H498 0.931 . S
C478 C477 1.392 . S
C478 C479 1.361 . S
C478 C480 1.500 . S
C479 C474 1.390 . S
C479 C478 1.361 . S
C479 H497 0.931 . S
C480 C478 1.500 . S
C480 C481 1.371 . S
C480 C482 1.365 . S
C481 C480 1.371 . S
C481 C491 1.386 . S
C481 H499 0.931 . S
C482 C480 1.365 . S
C482 C483 1.409 . S
C482 H500 0.929 . S
C483 C482 1.409 . S
C483 C484 1.380 . S
C483 H501 0.930 . S
C484 C483 1.380 . S
C484 C491 1.357 . S
C485 C476 1.511 . S
C485 C486 1.341 . S
C485 C487 1.371 . S
C486 C485 1.341 . S
C486 C490 1.394 . S
C486 H502 0.930 . S
C487 C485 1.371 . S
C487 C488 1.392 . S
C487 H503 0.931 . S
C488 C487 1.392 . S
C488 C489 1.331 . S
C488 H506 0.932 . S
C489 C488 1.331 . S
C489 C490 1.336 . S
C490 C486 1.394 . S
C490 C489 1.336 . S
C490 H505 0.929 . S
C491 C481 1.386 . S
C491 C484 1.357 . S
C491 H504 0.928 . S
H492 C468 0.931 . S
H493 C470 0.930 . S
H494 C472 0.929 . S
H495 C473 0.931 . S
H496 C475 0.930 . S
H497 C479 0.931 . S
H498 C477 0.931 . S
H499 C481 0.931 . S
H500 C482 0.929 . S
H501 C483 0.930 . S
H502 C486 0.930 . S
H503 C487 0.931 . S
H504 C491 0.928 . S
H505 C490 0.929 . S
H506 C488 0.932 . S
C507 C508 1.386 . S
C507 C509 1.397 . S
C507 H531 0.931 . S
C508 C507 1.386 . S
C508 C512 1.397 . S
C509 C507 1.397 . S
C509 C510 1.384 . S
C509 H532 0.930 . S
C510 C509 1.384 . S
C510 C511 1.377 . S
C510 C513 1.481 . S
C511 C510 1.377 . S
C511 C512 1.389 . S
C511 H533 0.929 . S
C512 C508 1.397 . S
C512 C511 1.389 . S
C512 H534 0.931 . S
C513 C510 1.481 . S
C513 C514 1.387 . S
C513 C518 1.390 . S
C514 C513 1.387 . S
C514 C515 1.401 . S
C514 H535 0.930 . S
C515 C514 1.401 . S
C515 C516 1.376 . S
C515 C524 1.511 1_556 S
C516 C515 1.376 . S
C516 C517 1.392 . S
C516 H537 0.931 1_556 S
C517 C516 1.392 . S
C517 C518 1.361 . S
C517 C519 1.500 . S
C518 C513 1.390 . S
C518 C517 1.361 . S
C518 H536 0.931 . S
C519 C517 1.500 . S
C519 C520 1.371 1_556 S
C519 C521 1.365 . S
C520 C519 1.371 1_554 S
C520 C530 1.386 . S
C520 H538 0.931 . S
C521 C519 1.365 . S
C521 C522 1.409 . S
C521 H539 0.929 . S
C522 C521 1.409 . S
C522 C523 1.380 . S
C522 H540 0.930 . S
C523 C522 1.380 . S
C523 C530 1.357 1_556 S
C524 C515 1.511 1_554 S
C524 C525 1.341 . S
C524 C526 1.371 . S
C525 C524 1.341 . S
C525 C529 1.394 . S
C525 H541 0.930 1_554 S
C526 C524 1.371 . S
C526 C527 1.392 . S
C526 H542 0.931 . S
C527 C526 1.392 . S
C527 C528 1.331 . S
C527 H545 0.932 . S
C528 C527 1.331 . S
C528 C529 1.336 . S
C529 C525 1.394 . S
C529 C528 1.336 . S
C529 H544 0.929 . S
C530 C520 1.386 . S
C530 C523 1.357 1_554 S
C530 H543 0.928 . S
H531 C507 0.931 . S
H532 C509 0.930 . S
H533 C511 0.929 . S
H534 C512 0.931 . S
H535 C514 0.930 . S
H536 C518 0.931 . S
H537 C516 0.931 1_554 S
H538 C520 0.931 . S
H539 C521 0.929 . S
H540 C522 0.930 . S
H541 C525 0.930 1_556 S
H542 C526 0.931 . S
H543 C530 0.928 . S
H544 C529 0.929 . S
H545 C527 0.932 . S
C546 C547 1.386 . S
C546 C548 1.397 . S
C546 H570 0.931 . S
C547 C546 1.386 . S
C547 C551 1.397 . S
C548 C546 1.397 . S
C548 C549 1.384 . S
C548 H571 0.930 . S
C549 C548 1.384 . S
C549 C550 1.377 . S
C549 C552 1.481 . S
C550 C549 1.377 . S
C550 C551 1.389 . S
C550 H572 0.929 . S
C551 C547 1.397 . S
C551 C550 1.389 . S
C551 H573 0.931 . S
C552 C549 1.481 . S
C552 C553 1.387 . S
C552 C557 1.390 . S
C553 C552 1.387 . S
C553 C554 1.401 . S
C553 H574 0.930 . S
C554 C553 1.401 . S
C554 C555 1.376 . S
C554 C563 1.511 . S
C555 C554 1.376 . S
C555 C556 1.392 . S
C555 H576 0.931 . S
C556 C555 1.392 . S
C556 C557 1.361 . S
C556 C558 1.500 . S
C557 C552 1.390 . S
C557 C556 1.361 . S
C557 H575 0.931 . S
C558 C556 1.500 . S
C558 C559 1.371 . S
C558 C560 1.365 . S
C559 C558 1.371 . S
C559 C569 1.386 . S
C559 H577 0.931 . S
C560 C558 1.365 . S
C560 C561 1.409 . S
C560 H578 0.929 . S
C561 C560 1.409 . S
C561 C562 1.380 . S
C561 H579 0.930 . S
C562 C561 1.380 . S
C562 C569 1.357 . S
C563 C554 1.511 . S
C563 C564 1.341 . S
C563 C565 1.371 . S
C564 C563 1.341 . S
C564 C568 1.394 . S
C564 H580 0.930 . S
C565 C563 1.371 . S
C565 C566 1.392 . S
C565 H581 0.931 . S
C566 C565 1.392 . S
C566 C567 1.331 . S
C566 H584 0.932 . S
C567 C566 1.331 . S
C567 C568 1.336 . S
C568 C564 1.394 . S
C568 C567 1.336 . S
C568 H583 0.929 . S
C569 C559 1.386 . S
C569 C562 1.357 . S
C569 H582 0.928 . S
H570 C546 0.931 . S
H571 C548 0.930 . S
H572 C550 0.929 . S
H573 C551 0.931 . S
H574 C553 0.930 . S
H575 C557 0.931 . S
H576 C555 0.931 . S
H577 C559 0.931 . S
H578 C560 0.929 . S
H579 C561 0.930 . S
H580 C564 0.930 . S
H581 C565 0.931 . S
H582 C569 0.928 . S
H583 C568 0.929 . S
H584 C566 0.932 . S
C585 C586 1.386 . S
C585 C587 1.397 1_554 S
C585 H609 0.931 . S
C586 C585 1.386 . S
C586 C590 1.397 . S
C587 C585 1.397 1_556 S
C587 C588 1.384 1_556 S
C587 H610 0.930 . S
C588 C587 1.384 1_554 S
C588 C589 1.377 . S
C588 C591 1.481 1_554 S
C589 C588 1.377 . S
C589 C590 1.389 . S
C589 H611 0.929 . S
C590 C586 1.397 . S
C590 C589 1.389 . S
C590 H612 0.931 . S
C591 C588 1.481 1_556 S
C591 C592 1.387 . S
C591 C596 1.390 . S
C592 C591 1.387 . S
C592 C593 1.401 . S
C592 H613 0.930 . S
C593 C592 1.401 . S
C593 C594 1.376 . S
C593 C602 1.511 . S
C594 C593 1.376 . S
C594 C595 1.392 . S
C594 H615 0.931 . S
C595 C594 1.392 . S
C595 C596 1.361 . S
C595 C597 1.500 . S
C596 C591 1.390 . S
C596 C595 1.361 . S
C596 H614 0.922 1_556 S
C597 C595 1.500 . S
C597 C598 1.371 1_545 S
C597 C599 1.386 . S
C598 C597 1.371 1_565 S
C598 C608 1.386 . S
C598 H616 0.931 . S
C599 C597 1.386 . S
C599 C600 1.390 1_546 S
C599 H617 0.929 1_556 S
C600 C599 1.390 1_564 S
C600 C601 1.380 1_554 S
C600 H618 0.930 . S
C601 C600 1.380 1_556 S
C601 C608 1.357 . S
C602 C593 1.511 . S
C602 C603 1.341 . S
C602 C604 1.371 . S
C603 C602 1.341 . S
C603 C607 1.394 . S
C603 H619 0.930 . S
C604 C602 1.371 . S
C604 C605 1.392 . S
C604 H620 0.931 1_545 S
C605 C604 1.392 . S
C605 C606 1.331 . S
C605 H623 0.932 1_545 S
C606 C605 1.331 . S
C606 C607 1.336 . S
C607 C603 1.394 . S
C607 C606 1.336 . S
C607 H622 0.929 . S
C608 C598 1.386 . S
C608 C601 1.357 . S
C608 H621 0.928 . S
H609 C585 0.931 . S
H610 C587 0.930 . S
H611 C589 0.929 . S
H612 C590 0.931 . S
H613 C592 0.930 . S
H614 C596 0.922 1_554 S
H615 C594 0.931 . S
H616 C598 0.931 . S
H617 C599 0.929 1_554 S
H618 C600 0.930 . S
H619 C603 0.930 . S
H620 C604 0.931 1_565 S
H621 C608 0.928 . S
H622 C607 0.929 . S
H623 C605 0.932 1_565 S
Zn624 O627 2.043 . S
Zn624 O629 2.041 1_554 S
Zn624 O634 2.051 1_554 S
Zn625 O626 1.962 . S
Zn625 O628 1.986 . S
Zn625 O630 1.996 . S
Zn625 O633 1.943 1_554 S
O626 Zn625 1.962 . S
O626 C631 1.254 . S
O627 Zn624 2.043 . S
O627 C631 1.269 . S
O628 Zn625 1.986 . S
O628 C635 1.262 . S
O629 Zn624 2.041 1_556 S
O629 C637 1.260 . S
O630 Zn625 1.996 . S
O630 C637 1.257 1_554 S
C631 O626 1.254 . S
C631 O627 1.269 . S
C632 O633 1.249 . S
C632 O634 1.270 . S
O633 Zn625 1.943 1_556 S
O633 C632 1.249 . S
O634 Zn624 2.051 1_556 S
O634 C632 1.270 . S
C635 O628 1.262 . S
C635 O636 1.232 . S
O636 C635 1.232 . S
C637 O629 1.260 . S
C637 O630 1.257 1_556 S
Zn638 O641 2.031 . S
Zn638 O643 2.049 . S
Zn638 O648 2.067 . S
Zn639 O640 1.962 . S
Zn639 O642 1.986 . S
Zn639 O644 1.996 . S
Zn639 O647 1.943 . S
O640 Zn639 1.962 . S
O640 C645 1.254 . S
O641 Zn638 2.031 . S
O641 C645 1.269 . S
O642 Zn639 1.986 . S
O642 C649 1.262 . S
O643 Zn638 2.049 . S
O643 C651 1.260 . S
O644 Zn639 1.996 . S
O644 C651 1.257 . S
C645 O640 1.254 . S
C645 O641 1.269 . S
C646 O647 1.249 . S
C646 O648 1.270 . S
O647 Zn639 1.943 . S
O647 C646 1.249 . S
O648 Zn638 2.067 . S
O648 C646 1.270 . S
C649 O642 1.262 . S
C649 O650 1.232 . S
O650 C649 1.232 . S
C651 O643 1.260 . S
C651 O644 1.257 . S
Zn652 O655 2.031 . S
Zn652 O657 2.049 . S
Zn652 O662 2.067 . S
Zn653 O654 1.962 . S
Zn653 O656 1.986 . S
Zn653 O658 1.996 1_554 S
Zn653 O661 1.943 . S
O654 Zn653 1.962 . S
O654 C659 1.254 . S
O655 Zn652 2.031 . S
O655 C659 1.269 1_556 S
O656 Zn653 1.986 . S
O656 C663 1.262 . S
O657 Zn652 2.049 . S
O657 C665 1.260 . S
O658 Zn653 1.996 1_556 S
O658 C665 1.257 . S
C659 O654 1.254 . S
C659 O655 1.269 1_554 S
C660 O661 1.249 1_556 S
C660 O662 1.270 . S
O661 Zn653 1.943 . S
O661 C660 1.249 1_554 S
O662 Zn652 2.067 . S
O662 C660 1.270 . S
C663 O656 1.262 . S
C663 O664 1.232 . S
O664 C663 1.232 . S
C665 O657 1.260 . S
C665 O658 1.257 . S
Zn666 O669 2.049 . S
Zn666 O671 2.037 1_545 S
Zn666 O676 2.043 1_545 S
Zn667 O668 1.962 . S
Zn667 O670 1.986 . S
Zn667 O672 1.996 . S
Zn667 O675 1.943 1_545 S
O668 Zn667 1.962 . S
O668 C673 1.254 . S
O669 Zn666 2.049 . S
O669 C673 1.269 . S
O670 Zn667 1.986 . S
O670 C677 1.262 . S
O671 Zn666 2.037 1_565 S
O671 C679 1.260 . S
O672 Zn667 1.996 . S
O672 C679 1.257 1_545 S
C673 O668 1.254 . S
C673 O669 1.269 . S
C674 O675 1.249 . S
C674 O676 1.270 . S
O675 Zn667 1.943 1_565 S
O675 C674 1.249 . S
O676 Zn666 2.043 1_565 S
O676 C674 1.270 . S
C677 O670 1.262 . S
C677 O678 1.232 . S
O678 C677 1.232 . S
C679 O671 1.260 . S
C679 O672 1.257 1_565 S
Zn680 O683 2.031 . S
Zn680 O685 2.049 . S
Zn680 O690 2.067 . S
Zn681 O682 1.962 . S
Zn681 O684 1.986 . S
Zn681 O686 1.996 . S
Zn681 O689 1.943 . S
O682 Zn681 1.962 . S
O682 C687 1.254 . S
O683 Zn680 2.031 . S
O683 C687 1.269 . S
O684 Zn681 1.986 . S
O684 C691 1.262 . S
O685 Zn680 2.049 . S
O685 C693 1.260 . S
O686 Zn681 1.996 . S
O686 C693 1.257 . S
C687 O682 1.254 . S
C687 O683 1.269 . S
C688 O689 1.249 . S
C688 O690 1.270 . S
O689 Zn681 1.943 . S
O689 C688 1.249 . S
O690 Zn680 2.067 . S
O690 C688 1.270 . S
C691 O684 1.262 . S
C691 O692 1.232 . S
O692 C691 1.232 . S
C693 O685 1.260 . S
C693 O686 1.257 . S
Zn694 O697 2.031 . S
Zn694 O699 2.049 . S
Zn694 O704 2.067 . S
Zn695 O696 1.962 . S
Zn695 O698 1.986 . S
Zn695 O700 1.996 . S
Zn695 O703 1.943 . S
O696 Zn695 1.962 . S
O696 C701 1.254 . S
O697 Zn694 2.031 . S
O697 C701 1.269 . S
O698 Zn695 1.986 . S
O698 C705 1.262 . S
O699 Zn694 2.049 . S
O699 C707 1.260 . S
O700 Zn695 1.996 . S
O700 C707 1.257 . S
C701 O696 1.254 . S
C701 O697 1.269 . S
C702 O703 1.249 . S
C702 O704 1.270 . S
O703 Zn695 1.943 . S
O703 C702 1.249 . S
O704 Zn694 2.067 . S
O704 C702 1.270 . S
C705 O698 1.262 . S
C705 O706 1.232 . S
O706 C705 1.232 . S
C707 O699 1.260 . S
C707 O700 1.257 . S
Zn708 O711 2.031 . S
Zn708 O713 2.049 . S
Zn708 O718 2.067 . S
Zn709 O710 1.962 . S
Zn709 O712 1.986 . S
Zn709 O714 1.996 . S
Zn709 O717 1.943 . S
O710 Zn709 1.962 . S
O710 C715 1.254 . S
O711 Zn708 2.031 . S
O711 C715 1.269 . S
O712 Zn709 1.986 . S
O712 C719 1.262 . S
O713 Zn708 2.049 . S
O713 C721 1.260 . S
O714 Zn709 1.996 . S
O714 C721 1.257 . S
C715 O710 1.254 . S
C715 O711 1.269 . S
C716 O717 1.249 . S
C716 O718 1.270 . S
O717 Zn709 1.943 . S
O717 C716 1.249 . S
O718 Zn708 2.067 . S
O718 C716 1.270 . S
C719 O712 1.262 . S
C719 O720 1.232 . S
O720 C719 1.232 . S
C721 O713 1.260 . S
C721 O714 1.257 . S
Zn722 O725 2.031 . S
Zn722 O727 2.049 . S
Zn722 O732 2.067 . S
Zn723 O724 1.962 . S
Zn723 O726 1.986 . S
Zn723 O728 1.996 1_545 S
Zn723 O731 1.943 . S
O724 Zn723 1.962 . S
O724 C729 1.254 . S
O725 Zn722 2.031 . S
O725 C729 1.269 1_565 S
O726 Zn723 1.986 . S
O726 C733 1.262 . S
O727 Zn722 2.049 . S
O727 C735 1.260 . S
O728 Zn723 1.996 1_565 S
O728 C735 1.257 . S
C729 O724 1.254 . S
C729 O725 1.269 1_545 S
C730 O731 1.249 1_565 S
C730 O732 1.270 . S
O731 Zn723 1.943 . S
O731 C730 1.249 1_545 S
O732 Zn722 2.067 . S
O732 C730 1.270 . S
C733 O726 1.262 . S
C733 O734 1.232 . S
O734 C733 1.232 . S
C735 O727 1.260 . S
C735 O728 1.257 . S
Zn736 O739 2.026 1_655 S
Zn736 O741 2.053 . S
Zn736 O746 2.074 . S
Zn737 O738 1.962 . S
Zn737 O740 1.986 . S
Zn737 O742 1.996 . S
Zn737 O745 1.943 1_455 S
O738 Zn737 1.962 . S
O738 C743 1.254 . S
O739 Zn736 2.026 1_455 S
O739 C743 1.269 . S
O740 Zn737 1.986 . S
O740 C747 1.262 . S
O741 Zn736 2.053 . S
O741 C749 1.260 . S
O742 Zn737 1.996 . S
O742 C749 1.257 1_455 S
C743 O738 1.254 . S
C743 O739 1.269 . S
C744 O745 1.249 . S
C744 O746 1.270 . S
O745 Zn737 1.943 1_655 S
O745 C744 1.249 . S
O746 Zn736 2.074 . S
O746 C744 1.270 . S
C747 O740 1.262 . S
C747 O748 1.232 . S
O748 C747 1.232 . S
C749 O741 1.260 . S
C749 O742 1.257 1_655 S
Zn750 O753 2.031 . S
Zn750 O755 2.049 . S
Zn750 O760 2.067 . S
Zn751 O752 1.962 . S
Zn751 O754 1.986 . S
Zn751 O756 1.996 . S
Zn751 O759 1.943 . S
O752 Zn751 1.962 . S
O752 C757 1.254 . S
O753 Zn750 2.031 . S
O753 C757 1.269 . S
O754 Zn751 1.986 . S
O754 C761 1.262 . S
O755 Zn750 2.049 . S
O755 C763 1.260 . S
O756 Zn751 1.996 . S
O756 C763 1.257 . S
C757 O752 1.254 . S
C757 O753 1.269 . S
C758 O759 1.249 . S
C758 O760 1.270 . S
O759 Zn751 1.943 . S
O759 C758 1.249 . S
O760 Zn750 2.067 . S
O760 C758 1.270 . S
C761 O754 1.262 . S
C761 O762 1.232 . S
O762 C761 1.232 . S
C763 O755 1.260 . S
C763 O756 1.257 . S
Zn764 O767 2.031 . S
Zn764 O769 2.049 . S
Zn764 O774 2.067 . S
Zn765 O766 1.962 . S
Zn765 O768 1.986 . S
Zn765 O770 1.996 1_455 S
Zn765 O773 1.943 . S
O766 Zn765 1.962 . S
O766 C771 1.254 . S
O767 Zn764 2.031 . S
O767 C771 1.269 1_655 S
O768 Zn765 1.986 . S
O768 C775 1.262 . S
O769 Zn764 2.049 . S
O769 C777 1.260 . S
O770 Zn765 1.996 1_655 S
O770 C777 1.257 . S
C771 O766 1.254 . S
C771 O767 1.269 1_455 S
C772 O773 1.249 1_655 S
C772 O774 1.270 . S
O773 Zn765 1.943 . S
O773 C772 1.249 1_455 S
O774 Zn764 2.067 . S
O774 C772 1.270 . S
C775 O768 1.262 . S
C775 O776 1.232 . S
O776 C775 1.232 . S
C777 O769 1.260 . S
C777 O770 1.257 . S
Zn778 O781 2.031 . S
Zn778 O783 2.049 . S
Zn778 O788 2.067 . S
Zn779 O780 1.962 . S
Zn779 O782 1.986 . S
Zn779 O784 1.996 . S
Zn779 O787 1.943 . S
O780 Zn779 1.962 . S
O780 C785 1.254 . S
O781 Zn778 2.031 . S
O781 C785 1.269 . S
O782 Zn779 1.986 . S
O782 C789 1.262 . S
O783 Zn778 2.049 . S
O783 C791 1.260 . S
O784 Zn779 1.996 . S
O784 C791 1.257 . S
C785 O780 1.254 . S
C785 O781 1.269 . S
C786 O787 1.249 . S
C786 O788 1.270 . S
O787 Zn779 1.943 . S
O787 C786 1.249 . S
O788 Zn778 2.067 . S
O788 C786 1.270 . S
C789 O782 1.262 . S
C789 O790 1.232 . S
O790 C789 1.232 . S
C791 O783 1.260 . S
C791 O784 1.257 . S
C632 C211 1.507 . S
C645 C255 1.546 . S
C274 C665 1.616 . S
C679 C157 1.514 . S
C691 C391 1.534 . S
C705 C484 1.439 . S
C450 C715 1.458 . S
C730 C352 1.602 . S
C430 C744 1.512 . S
C763 C367 1.519 . S
C411 C743 1.489 . S
C761 C469 1.449 . S
C294 C777 1.597 . S
C177 C771 1.537 . S
C196 C775 1.517 . S
C235 C772 1.587 . S
C133 C674 1.519 . S
C567 C673 1.457 . S
C637 C601 1.503 . S
C651 C328 1.618 . S
C172 C688 1.583 . S
C733 C445 1.520 . S
C687 C372 1.570 . S
C719 C489 1.435 . S
C716 C562 1.507 . S
C606 C729 1.546 . S
C313 C693 1.616 . S
C707 C508 1.513 . S
C118 C663 1.533 . S
C677 C16 1.439 . S
C631 C60 1.458 . S
C646 C79 1.602 . S
C40 C758 1.512 . S
C94 C749 1.519 . S
C138 C757 1.488 . S
C1 C747 1.449 . S
C791 C333 1.597 . S
C785 C528 1.537 . S
C789 C547 1.517 . S
C586 C786 1.587 . S
C406 C702 1.519 . S
C701 C216 1.457 . S
C721 C250 1.502 . S
C735 C289 1.618 . S
C523 C660 1.583 . S
C649 C55 1.520 . S
C99 C659 1.570 . S
C635 C21 1.436 . S
