# Generated by pormake.
# Topology anh, (6,3)-cn, num edge types: 1
# Building blocks:
#     Node 0, Type 0, BuildingBlock: BETDIP_clean_sbu_0, # of connection points: 6
#     Node 1, Type 0, BuildingBlock: BETDIP_clean_sbu_0, # of connection points: 6
#     Node 2, Type 0, BuildingBlock: BETDIP_clean_sbu_0, # of connection points: 6
#     Node 3, Type 1, BuildingBlock: ESEHIV_clean_linker_0, # of connection points: 3
#     Node 4, Type 1, BuildingBlock: ESEHIV_clean_linker_0, # of connection points: 3
#     Node 5, Type 1, BuildingBlock: ESEHIV_clean_linker_0, # of connection points: 3
#     Node 6, Type 1, BuildingBlock: ESEHIV_clean_linker_0, # of connection points: 3
#     Node 7, Type 1, BuildingBlock: ESEHIV_clean_linker_0, # of connection points: 3
#     Node 8, Type 1, BuildingBlock: ESEHIV_clean_linker_0, # of connection points: 3
#     Edge 9, Type (0, 1), BuildingBlock: CIFDUS_clean_linker_0, # of connection points: 2
#     Edge 10, Type (0, 1), BuildingBlock: CIFDUS_clean_linker_0, # of connection points: 2
#     Edge 11, Type (0, 1), BuildingBlock: CIFDUS_clean_linker_0, # of connection points: 2
#     Edge 12, Type (0, 1), BuildingBlock: CIFDUS_clean_linker_0, # of connection points: 2
#     Edge 13, Type (0, 1), BuildingBlock: CIFDUS_clean_linker_0, # of connection points: 2
#     Edge 14, Type (0, 1), BuildingBlock: CIFDUS_clean_linker_0, # of connection points: 2
#     Edge 15, Type (0, 1), BuildingBlock: CIFDUS_clean_linker_0, # of connection points: 2
#     Edge 16, Type (0, 1), BuildingBlock: CIFDUS_clean_linker_0, # of connection points: 2
#     Edge 17, Type (0, 1), BuildingBlock: CIFDUS_clean_linker_0, # of connection points: 2
#     Edge 18, Type (0, 1), BuildingBlock: CIFDUS_clean_linker_0, # of connection points: 2
#     Edge 19, Type (0, 1), BuildingBlock: CIFDUS_clean_linker_0, # of connection points: 2
#     Edge 20, Type (0, 1), BuildingBlock: CIFDUS_clean_linker_0, # of connection points: 2
#     Edge 21, Type (0, 1), BuildingBlock: CIFDUS_clean_linker_0, # of connection points: 2
#     Edge 22, Type (0, 1), BuildingBlock: CIFDUS_clean_linker_0, # of connection points: 2
#     Edge 23, Type (0, 1), BuildingBlock: CIFDUS_clean_linker_0, # of connection points: 2
#     Edge 24, Type (0, 1), BuildingBlock: CIFDUS_clean_linker_0, # of connection points: 2
#     Edge 25, Type (0, 1), BuildingBlock: CIFDUS_clean_linker_0, # of connection points: 2
#     Edge 26, Type (0, 1), BuildingBlock: CIFDUS_clean_linker_0, # of connection points: 2
# Relax obj value: 0.362
# Max RMSD: 0.199
# Mean RMSD: 0.170
data_MOF--net-anh--node1-BETDIP_clean_sbu_0--node2-ESEHIV_clean_linker_0--edge1-CIFDUS_clean_linker_0
_symmetry_space_group_name_H-M    P1
_symmetry_Int_Tables_number       1
_symmetry_cell_setting            triclinic
loop_
_symmetry_equiv_pos_as_xyz
'x, y, z'
_cell_length_a     24.546314
_cell_length_b     24.732349
_cell_length_c     45.260959
_cell_angle_alpha  91.040157
_cell_angle_beta   89.224534
_cell_angle_gamma 120.16837
loop_
_atom_site_label
_atom_site_type_symbol
_atom_site_fract_x
_atom_site_fract_y
_atom_site_fract_z
_atom_type_partial_charge
Tb0 Tb 0.1806 0.62889 0.15981 0.0
Tb1 Tb 1.12385 0.49339 0.15481 0.0
C2 C 0.21159 0.73475 0.18061 0.0
C3 C 0.25492 0.80205 0.18377 0.0
C4 C 0.31959 0.82749 0.18868 0.0
C5 C 0.35695 0.891 0.19594 0.0
C6 C 0.32971 0.92917 0.19865 0.0
C7 C 0.26558 0.90387 0.19249 0.0
C8 C 0.22857 0.84085 0.18503 0.0
C9 C 0.17974 0.59022 0.10556 0.0
C10 C 0.27412 0.572 0.14702 0.0
C11 C 1.05213 0.37851 0.14563 0.0
C12 C 0.98793 0.34745 0.13337 0.0
C13 C 0.97377 0.37651 0.11062 0.0
C14 C 0.91642 0.37568 0.11103 0.0
C15 C 0.87457 0.34727 0.13451 0.0
C16 C 0.88213 0.3056 0.15238 0.0
C17 C 0.93884 0.30541 0.15168 0.0
C18 C 0.16175 0.54006 0.20969 0.0
C19 C 1.03104 0.55376 0.14786 0.0
O20 O 0.2254 0.69587 0.19337 0.0
O21 O 0.18232 0.71383 0.15541 0.0
O22 O 1.1377 0.56342 0.12491 0.0
O23 O 0.22217 0.64495 0.11539 0.0
O24 O 0.26866 0.62039 0.15766 0.0
O25 O 0.22171 0.51763 0.14143 0.0
O26 O 1.09881 0.41389 0.12789 0.0
O27 O 1.05642 0.40633 0.17108 0.0
O28 O 1.13374 0.55563 0.19137 0.0
O29 O 0.16957 0.49742 0.19677 0.0
O30 O 1.03882 0.50392 0.14519 0.0
O31 O 1.08097 0.60848 0.15509 0.0
H32 H 0.34063 0.79807 0.18792 0.0
H33 H 0.40638 0.9096 0.20075 0.0
H34 H 0.24376 0.93255 0.19414 0.0
H35 H 0.1786 0.82178 0.18139 0.0
H36 H 1.00974 0.4075 0.0954 0.0
H37 H 0.90919 0.40462 0.09582 0.0
H38 H 0.84915 0.28164 0.1702 0.0
H39 H 0.94802 0.28133 0.16897 0.0
Tb40 Tb 0.68906 1.08581 0.48158 0.0
Tb41 Tb 0.61326 0.14363 0.492 0.0
C42 C 0.75267 1.03237 0.48456 0.0
C43 C 0.76567 0.98738 0.49886 0.0
C44 C 0.77316 0.98909 0.52962 0.0
C45 C 0.80533 0.96219 0.54212 0.0
C46 C 0.82966 0.93219 0.52414 0.0
C47 C 0.81704 0.92579 0.49366 0.0
C48 C 0.78561 0.95354 0.48112 0.0
C49 C 0.66561 0.12948 0.43361 0.0
C50 C 0.53487 0.99597 0.4797 0.0
C51 C 0.56508 0.21224 0.49044 0.0
C52 C 0.59406 0.27761 0.48133 0.0
C53 C 0.64032 0.30031 0.45894 0.0
C54 C 0.68457 0.36396 0.45771 0.0
C55 C 0.68261 0.40516 0.47871 0.0
C56 C 0.63109 0.38371 0.49822 0.0
C57 C 0.58703 0.32001 0.4996 0.0
C58 C 0.63461 0.10006 0.54176 0.0
C59 C 0.76552 0.2343 0.47862 0.0
O60 O 0.76244 1.08085 0.50058 0.0
O61 O 0.70495 1.0131 0.46658 0.0
O62 O 0.62921 0.10209 0.4547 0.0
O63 O 0.71752 0.12926 0.43762 0.0
O64 O 0.59046 0.99877 0.48405 0.0
O65 O 0.53403 1.04945 0.47988 0.0
O66 O 0.55724 0.17162 0.46971 0.0
O67 O 0.58964 0.2042 0.51423 0.0
O68 O 0.67368 0.12753 0.52088 0.0
O69 O 0.5821 0.09675 0.53457 0.0
O70 O 0.70794 0.22769 0.48002 0.0
O71 O 0.77039 0.18361 0.48132 0.0
H72 H 0.75838 1.01516 0.54381 0.0
H73 H 0.81422 0.9682 0.56565 0.0
H74 H 0.83345 0.90133 0.47933 0.0
H75 H 0.78063 0.95205 0.45732 0.0
H76 H 0.64639 0.26854 0.44436 0.0
H77 H 0.72359 0.38021 0.44228 0.0
H78 H 0.62897 0.41494 0.51471 0.0
H79 H 0.5517 0.30337 0.51697 0.0
Tb80 Tb 0.63387 0.59075 0.81359 0.0
Tb81 Tb 0.76347 0.66189 0.82691 0.0
C82 C 0.51689 0.54542 0.81311 0.0
C83 C 0.47158 0.56582 0.80618 0.0
C84 C 0.45338 0.59443 0.82806 0.0
C85 C 0.40058 0.60034 0.824 0.0
C86 C 0.36451 0.57736 0.79801 0.0
C87 C 0.38762 0.55614 0.77468 0.0
C88 C 0.44034 0.54971 0.77886 0.0
C89 C 0.70752 0.61687 0.76688 0.0
C90 C 0.70273 0.74579 0.81105 0.0
C91 C 0.87756 0.69494 0.83118 0.0
C92 C 0.90019 0.64977 0.82993 0.0
C93 C 0.91399 0.63148 0.85659 0.0
C94 C 0.90475 0.57147 0.85926 0.0
C95 C 0.88223 0.52897 0.83522 0.0
C96 C 0.87998 0.55132 0.80728 0.0
C97 C 0.88867 0.61139 0.80462 0.0
C98 C 0.69164 0.63772 0.87495 0.0
C99 C 0.69828 0.50885 0.81457 0.0
O100 O 0.55135 0.56931 0.83685 0.0
O101 O 0.54871 0.54056 0.7909 0.0
O102 O 0.71357 0.65245 0.78822 0.0
O103 O 0.65606 0.56399 0.77034 0.0
O104 O 0.64874 0.6903 0.81207 0.0
O105 O 0.75664 0.74544 0.81422 0.0
O106 O 0.85304 0.70089 0.80698 0.0
O107 O 0.84202 0.68893 0.85406 0.0
O108 O 0.68373 0.59885 0.85418 0.0
O109 O 0.7388 0.69172 0.86802 0.0
O110 O 0.74967 0.56597 0.81412 0.0
O111 O 0.64328 0.50605 0.81872 0.0
H112 H 0.47683 0.60794 0.84926 0.0
H113 H 0.38471 0.61676 0.84271 0.0
H114 H 0.3619 0.5394 0.75414 0.0
H115 H 0.45392 0.5282 0.76141 0.0
H116 H 0.9247 0.66069 0.87625 0.0
H117 H 0.91164 0.5572 0.88072 0.0
H118 H 0.86689 0.52111 0.78796 0.0
H119 H 0.87948 0.62474 0.78341 0.0
H120 H 0.56531 0.22171 0.2933 0.0
H121 H 0.72679 0.40654 0.2932 0.0
H122 H 0.61633 0.32452 0.21409 0.0
C123 C 0.59419 0.26612 0.28252 0.0
C124 C 0.58381 0.27052 0.25267 0.0
C125 C 0.64607 0.31475 0.2973 0.0
C126 C 0.68679 0.36957 0.28168 0.0
C127 C 0.67912 0.37377 0.25095 0.0
C128 C 0.6246 0.32487 0.23746 0.0
H129 H 0.96175 0.75149 0.64869 0.0
H130 H 0.9123 0.56978 0.61268 0.0
H131 H 0.97132 0.72603 0.55594 0.0
C132 C 0.95967 0.72137 0.63065 0.0
C133 C 0.96749 0.74547 0.6022 0.0
C134 C 0.93588 0.65694 0.6351 0.0
C135 C 0.93199 0.61965 0.61032 0.0
C136 C 0.94464 0.64472 0.5817 0.0
C137 C 0.96627 0.70852 0.57816 0.0
H138 H 0.96102 0.35891 0.95888 0.0
H139 H 0.14789 0.49485 0.93024 0.0
H140 H 1.00328 0.40273 0.86643 0.0
C141 C 0.9943 0.38281 0.9412 0.0
C142 C 0.97343 0.3718 0.91161 0.0
C143 C 1.05681 0.42872 0.9482 0.0
C144 C 1.0992 0.46096 0.92527 0.0
C145 C 1.07936 0.45151 0.89597 0.0
C146 C 1.01754 0.40638 0.88923 0.0
H147 H 1.06956 0.51808 0.39024 0.0
H148 H 0.24472 0.69196 0.38977 0.0
H149 H 0.15888 0.60612 0.47319 0.0
C150 C 1.10718 0.55617 0.40262 0.0
C151 C 1.10478 0.55493 0.43392 0.0
C152 C 0.15721 0.60484 0.38666 0.0
C153 C 0.20661 0.65536 0.40238 0.0
C154 C 0.20983 0.65816 0.43371 0.0
C155 C 0.15825 0.60606 0.44929 0.0
H156 H 0.67627 0.20132 0.7252 0.0
H157 H 0.67963 1.02958 0.72266 0.0
H158 H 0.69071 0.12108 0.80691 0.0
C159 C 0.68101 0.16631 0.73711 0.0
C160 C 0.68703 0.17173 0.76828 0.0
C161 C 0.67799 0.11563 0.72063 0.0
C162 C 0.68305 1.06848 0.73557 0.0
C163 C 0.68733 1.06782 0.76687 0.0
C164 C 0.68809 0.12008 0.78305 0.0
H165 H 0.57459 0.57748 0.05548 0.0
H166 H 0.7472 0.57328 0.05575 0.0
H167 H 0.64911 0.55804 0.13824 0.0
C168 C 0.61082 0.57509 0.06783 0.0
C169 C 0.60441 0.5691 0.09901 0.0
C170 C 0.66069 0.5742 0.05201 0.0
C171 C 0.70781 0.57025 0.06812 0.0
C172 C 0.70662 0.5646 0.09936 0.0
C173 C 0.65308 0.5634 0.11451 0.0
H174 H 0.32731 0.4929 0.15469 0.0
H175 H 0.37378 0.67169 0.11932 0.0
H176 H 0.47568 0.6871 0.10215 0.0
H177 H 0.55349 0.6495 0.09509 0.0
H178 H 0.51349 0.47676 0.13518 0.0
H179 H 0.41087 0.46053 0.15226 0.0
C180 C 0.35963 0.53564 0.14341 0.0
C181 C 0.34027 0.58089 0.13849 0.0
C182 C 0.42108 0.54569 0.13423 0.0
C183 C 0.3852 0.63569 0.12388 0.0
C184 C 0.44435 0.64457 0.11384 0.0
C185 C 0.52309 0.60854 0.10798 0.0
C186 C 0.54389 0.56472 0.11364 0.0
C187 C 0.46329 0.6 0.11864 0.0
C188 C 0.50146 0.51225 0.13045 0.0
C189 C 0.4416 0.50261 0.14014 0.0
H190 H 0.89446 0.29634 0.49771 0.0
H191 H 0.77184 0.31805 0.43808 0.0
H192 H 0.86059 0.41633 0.42065 0.0
H193 H 0.9755 0.49659 0.4201 0.0
H194 H 1.09937 0.48017 0.48111 0.0
H195 H 1.00995 0.38262 0.49982 0.0
C196 C 0.8867 0.32257 0.48103 0.0
C197 C 0.824 0.29798 0.46971 0.0
C198 C 0.9395 0.38141 0.47106 0.0
C199 C 0.81742 0.33462 0.44803 0.0
C200 C 0.8691 0.39137 0.43773 0.0
C201 C 0.98357 0.47239 0.43771 0.0
C202 C 1.04655 0.49802 0.44876 0.0
C203 C 0.93073 0.41552 0.44882 0.0
C204 C 1.05315 0.46403 0.47189 0.0
C205 C 1.00128 0.4071 0.48257 0.0
H206 H 0.63459 0.80819 0.83077 0.0
H207 H 0.77755 0.82748 0.76855 0.0
H208 H 0.78614 0.92385 0.75028 0.0
H209 H 0.75352 1.0051 0.75041 0.0
H210 H 0.61848 0.99408 0.81523 0.0
H211 H 0.60776 0.89601 0.83349 0.0
C212 C 0.66774 0.83313 0.81317 0.0
C213 C 0.70495 0.80758 0.80115 0.0
C214 C 0.67449 0.89198 0.80302 0.0
C215 C 0.74787 0.84358 0.77862 0.0
C216 C 0.75292 0.89969 0.76798 0.0
C217 C 0.72189 0.98205 0.76878 0.0
C218 C 0.68702 1.00976 0.78105 0.0
C219 C 0.71667 0.92489 0.77982 0.0
C220 C 0.64695 0.9767 0.80503 0.0
C221 C 0.64036 0.91933 0.81549 0.0
H222 H 0.9459 0.58907 0.17536 0.0
H223 H 0.97507 0.51347 0.09418 0.0
H224 H 0.87964 0.50551 0.07365 0.0
H225 H 0.78746 0.52103 0.07717 0.0
H226 H 0.75695 0.60024 0.15701 0.0
H227 H 0.84964 0.60367 0.17901 0.0
C228 C 0.93159 0.57065 0.15316 0.0
C229 C 0.96911 0.5503 0.13686 0.0
C230 C 0.87499 0.56662 0.1409 0.0
C231 C 0.94783 0.52746 0.10802 0.0
C232 C 0.8928 0.52351 0.096 0.0
C233 C 0.80057 0.54023 0.09929 0.0
C234 C 0.76273 0.56152 0.1146 0.0
C235 C 0.85572 0.54306 0.11199 0.0
C236 C 0.78257 0.58326 0.14389 0.0
C237 C 0.83692 0.58574 0.15664 0.0
H238 H 0.47274 0.86597 0.49889 0.0
H239 H 0.45372 0.98616 0.43711 0.0
H240 H 0.35608 0.89805 0.41878 0.0
H241 H 0.2734 0.78571 0.41881 0.0
H242 H 0.28435 0.66315 0.48175 0.0
H243 H 0.38382 0.75101 0.50065 0.0
C244 C 0.44766 0.87322 0.48132 0.0
C245 C 0.47349 0.93519 0.46955 0.0
C246 C 0.38813 0.82075 0.47091 0.0
C247 C 0.43735 0.941 0.44704 0.0
C248 C 0.38049 0.8898 0.43634 0.0
C249 C 0.29689 0.77741 0.43679 0.0
C250 C 0.26889 0.71537 0.44837 0.0
C251 C 0.35489 0.82923 0.44794 0.0
C252 C 0.30217 0.70873 0.47205 0.0
C253 C 0.36029 0.75973 0.48285 0.0
H254 H 0.64479 0.38395 0.83865 0.0
H255 H 0.76135 0.49704 0.76703 0.0
H256 H 0.77053 0.40898 0.74795 0.0
H257 H 0.74472 0.29771 0.74974 0.0
H258 H 0.63195 0.18266 0.82172 0.0
H259 H 0.6239 0.27146 0.84203 0.0
C260 C 0.67241 0.38978 0.81887 0.0
C261 C 0.70248 0.4498 0.80462 0.0
C262 C 0.67871 0.33731 0.80781 0.0
C263 C 0.73777 0.4536 0.77902 0.0
C264 C 0.74305 0.40233 0.76789 0.0
C265 C 0.71812 0.2911 0.76996 0.0
C266 C 0.68858 0.23054 0.78356 0.0
C267 C 0.71367 0.34355 0.78183 0.0
C268 C 0.65588 0.22669 0.81021 0.0
C269 C 0.65078 0.27829 0.82188 0.0
H270 H 0.81535 0.87784 0.57735 0.0
H271 H 0.93527 0.93721 0.50002 0.0
H272 H 0.99775 0.89504 0.52029 0.0
H273 H 1.01181 0.83274 0.55802 0.0
H274 H 0.886 0.77019 0.63364 0.0
H275 H 0.83698 0.82734 0.61719 0.0
C276 C 0.85594 0.88292 0.56514 0.0
C277 C 0.86979 0.90967 0.53701 0.0
C278 C 0.89198 0.85932 0.57697 0.0
C279 C 0.92229 0.91509 0.5214 0.0
C280 C 0.95859 0.89172 0.53312 0.0
C281 C 0.97433 0.83235 0.57114 0.0
C282 C 0.95286 0.79619 0.59688 0.0
C283 C 0.94291 0.86237 0.56063 0.0
C284 C 0.90509 0.79787 0.61395 0.0
C285 C 0.87558 0.82965 0.60425 0.0
H286 H 0.81455 0.45929 0.88161 0.0
H287 H 0.89806 0.44619 0.79932 0.0
H288 H 0.89615 0.35221 0.81635 0.0
H289 H 0.9131 0.30687 0.86049 0.0
H290 H 0.87049 0.35594 0.94572 0.0
H291 H 0.80747 0.3936 0.9229 0.0
C292 C 0.83136 0.43515 0.86721 0.0
C293 C 0.8606 0.46198 0.84018 0.0
C294 C 0.83686 0.38589 0.87839 0.0
C295 C 0.87781 0.428 0.82079 0.0
C296 C 0.87686 0.37422 0.83061 0.0
C297 C 0.88835 0.32438 0.87405 0.0
C298 C 0.90463 0.33813 0.90413 0.0
C299 C 0.86312 0.35736 0.86041 0.0
C300 C 0.86511 0.35129 0.92197 0.0
C301 C 0.82984 0.37436 0.90883 0.0
H302 H 0.44387 1.01963 0.17925 0.0
H303 H 0.29805 0.98322 0.24325 0.0
H304 H 0.36154 1.08844 0.26415 0.0
H305 H 0.46171 0.18821 0.26633 0.0
H306 H 0.60789 0.22365 0.20261 0.0
H307 H 0.54084 0.1221 0.17917 0.0
C308 C 0.42614 1.03504 0.19769 0.0
C309 C 0.36686 0.99403 0.20984 0.0
C310 C 0.46276 0.09547 0.20954 0.0
C311 C 0.34365 1.01439 0.23349 0.0
C312 C 0.37992 1.07435 0.2455 0.0
C313 C 0.47831 0.17383 0.24707 0.0
C314 C 0.53928 0.2133 0.23612 0.0
C315 C 0.43992 0.11495 0.23397 0.0
C316 C 0.56059 0.19445 0.21114 0.0
C317 C 0.5226 0.13612 0.19791 0.0
H318 H 0.7915 0.41658 0.4964 0.0
H319 H 0.70003 0.52288 0.47964 0.0
H320 H 0.78332 0.61274 0.50642 0.0
H321 H 0.86717 0.65107 0.54237 0.0
H322 H 0.95266 0.54144 0.56441 0.0
H323 H 0.88609 0.46178 0.52767 0.0
C324 C 0.7914 0.4604 0.4977 0.0
C325 C 0.74038 0.46389 0.48608 0.0
C326 C 0.83718 0.51011 0.51463 0.0
C327 C 0.73935 0.51989 0.4883 0.0
C328 C 0.78648 0.57074 0.50384 0.0
C329 C 0.87326 0.61102 0.53843 0.0
C330 C 0.9152 0.60231 0.55593 0.0
C331 C 0.83358 0.56505 0.51828 0.0
C332 C 0.92071 0.54902 0.55118 0.0
C333 C 0.88263 0.50362 0.53027 0.0
H334 H 0.31278 0.64196 0.82404 0.0
H335 H 0.26293 0.47228 0.77484 0.0
H336 H 0.15967 0.42084 0.79774 0.0
H337 H 1.09927 0.41374 0.84245 0.0
H338 H 0.15557 0.57831 0.89679 0.0
H339 H 0.24117 0.64086 0.86238 0.0
C340 C 0.27867 0.59418 0.8178 0.0
C341 C 0.29716 0.56018 0.79911 0.0
C342 C 0.22148 0.56273 0.83323 0.0
C343 C 0.25119 0.49963 0.78976 0.0
C344 C 0.19213 0.46942 0.80335 0.0
C345 C 1.12924 0.46363 0.84629 0.0
C346 C 1.12287 0.49109 0.87251 0.0
C347 C 0.17931 0.49878 0.82693 0.0
C348 C 0.16134 0.55588 0.87717 0.0
C349 C 0.20985 0.59171 0.85741 0.0
H350 H 0.9076 0.41537 0.18384 0.0
H351 H 0.77133 0.35165 0.11376 0.0
H352 H 0.7079 0.3858 0.14262 0.0
H353 H 0.68059 0.40848 0.19203 0.0
H354 H 0.80791 0.44395 0.26453 0.0
H355 H 0.88812 0.45501 0.23011 0.0
C356 C 0.86421 0.40963 0.17479 0.0
C357 C 0.84198 0.37837 0.14759 0.0
C358 C 0.8268 0.42554 0.19208 0.0
C359 C 0.78776 0.37369 0.13521 0.0
C360 C 0.75184 0.39331 0.15169 0.0
C361 C 0.72524 0.41718 0.20064 0.0
C362 C 0.73403 0.41655 0.2315 0.0
C363 C 0.76879 0.4149 0.18101 0.0
C364 C 0.79613 0.43854 0.24137 0.0
C365 C 0.84264 0.44424 0.22156 0.0
H366 H 1.11363 0.47335 0.08458 0.0
H367 H 0.22417 0.66389 0.05665 0.0
H368 H 0.19536 0.63015 0.00509 0.0
H369 H 1.13267 0.54715 0.96916 0.0
H370 H 1.02579 0.35496 -0.00276 0.0
H371 H 1.05747 0.38879 0.04831 0.0
C372 C 1.13134 0.50712 0.06723 0.0
C373 C 0.16998 0.5706 0.07432 0.0
C374 C 1.11444 0.48719 0.03799 0.0
C375 C 0.19425 0.61456 0.05162 0.0
C376 C 0.17743 0.59531 0.02227 0.0
C377 C 1.11728 0.51222 0.98624 0.0
C378 C 1.077 0.44834 0.97925 0.0
C379 C 1.13674 0.53179 0.01533 0.0
C380 C 1.05611 0.40434 0.00199 0.0
C381 C 1.07456 0.42362 0.03114 0.0
H382 H 0.75148 0.22132 0.39801 0.0
H383 H 0.55308 0.11553 0.41865 0.0
H384 H 0.53167 0.17468 0.38269 0.0
H385 H 0.56774 0.25016 0.34283 0.0
H386 H 0.76402 0.34661 0.31731 0.0
H387 H 0.78837 0.30068 0.35872 0.0
C388 C 0.70365 0.2113 0.39449 0.0
C389 C 0.65389 0.1644 0.41095 0.0
C390 C 0.69148 0.24478 0.37329 0.0
C391 C 0.59217 0.15195 0.40642 0.0
C392 C 0.5799 0.18574 0.38588 0.0
C393 C 0.616 0.26156 0.34639 0.0
C394 C 0.66359 0.30114 0.32657 0.0
C395 C 0.62903 0.23161 0.36892 0.0
C396 C 0.72619 0.31674 0.33218 0.0
C397 C 0.74009 0.28949 0.35559 0.0
H398 H 0.71005 0.53739 0.72487 0.0
H399 H 0.81757 0.72515 0.76003 0.0
H400 H 0.90768 0.74376 0.72955 0.0
H401 H 0.95323 0.7097 0.69088 0.0
H402 H 0.832 0.53746 0.64334 0.0
H403 H 0.75374 0.50687 0.68222 0.0
C404 C 0.75323 0.58234 0.72573 0.0
C405 C 0.75831 0.62895 0.74562 0.0
C406 C 0.80333 0.59465 0.70632 0.0
C407 C 0.81371 0.68753 0.74595 0.0
C408 C 0.86515 0.69834 0.72841 0.0
C409 C 0.90925 0.66603 0.68826 0.0
C410 C 0.89863 0.62823 0.66286 0.0
C411 C 0.8602 0.65247 0.70828 0.0
C412 C 0.84296 0.56902 0.66201 0.0
C413 C 0.79681 0.55169 0.68407 0.0
H414 H 0.5671 0.09487 0.59142 0.0
H415 H 0.74169 0.10632 0.5648 0.0
H416 H 0.76982 0.1089 0.617 0.0
H417 H 0.74557 0.11058 0.67123 0.0
H418 H 0.57351 0.10655 0.6962 0.0
H419 H 0.54411 0.09854 0.6443 0.0
C420 C 0.61131 0.09765 0.59689 0.0
C421 C 0.65191 0.09996 0.57377 0.0
C422 C 0.62789 0.10074 0.62707 0.0
C423 C 0.70921 0.10422 0.58179 0.0
C424 C 0.72537 0.10581 0.61181 0.0
C425 C 0.70153 0.10764 0.66528 0.0
C426 C 0.66175 0.10905 0.68801 0.0
C427 C 0.68526 0.10444 0.63481 0.0
C428 C 0.60519 0.10577 0.67952 0.0
C429 C 0.58825 0.10112 0.64968 0.0
H430 H 0.69628 0.55144 0.91199 0.0
H431 H 0.64729 0.69583 0.9107 0.0
H432 H 0.63052 0.68803 0.96427 0.0
H433 H 0.63618 0.64509 0.01268 0.0
H434 H 0.69071 0.50442 0.01432 0.0
H435 H 0.69915 0.50631 0.96049 0.0
C436 C 0.68039 0.58005 0.92334 0.0
C437 C 0.67154 0.6232 0.90688 0.0
C438 C 0.67293 0.57689 0.95473 0.0
C439 C 0.65327 0.66139 0.92245 0.0
C440 C 0.64414 0.65729 0.95329 0.0
C441 C 0.64934 0.61433 0.00135 0.0
C442 C 0.66322 0.57499 0.01825 0.0
C443 C 0.65479 0.61596 0.96989 0.0
C444 C 0.68069 0.53612 0.00252 0.0
C445 C 0.6852 0.53682 0.97144 0.0
H446 H 0.16624 0.63561 0.24563 0.0
H447 H 0.15125 0.45447 0.24939 0.0
H448 H 0.14598 0.45693 0.30311 0.0
H449 H 0.14664 0.51014 0.34996 0.0
H450 H 0.17081 0.69489 0.34757 0.0
H451 H 0.17183 0.69158 0.29332 0.0
C452 C 0.16183 0.59672 0.25819 0.0
C453 C 0.15891 0.54472 0.24298 0.0
C454 C 0.16059 0.59907 0.28974 0.0
C455 C 0.15372 0.49521 0.26005 0.0
C456 C 0.1506 0.49646 0.29101 0.0
C457 C 0.15191 0.54965 0.3376 0.0
C458 C 0.15817 0.60256 0.35316 0.0
C459 C 0.1541 0.54807 0.30622 0.0
C460 C 0.16594 0.65354 0.33645 0.0
C461 C 0.1664 0.65159 0.30528 0.0
loop_
_geom_bond_atom_site_label_1
_geom_bond_atom_site_label_2
_geom_bond_distance
_geom_bond_site_symmetry_2
_ccdc_geom_bond_type
Tb0 C2 2.809 . S
Tb0 O20 2.484 . S
Tb0 O21 2.440 . S
Tb0 O22 2.658 . S
Tb0 O23 2.409 . S
Tb0 O24 2.378 . S
Tb0 O28 2.325 . S
Tb0 O31 2.341 1_455 S
Tb1 C11 2.809 . S
Tb1 O22 2.325 1_655 S
Tb1 O25 2.341 1_655 S
Tb1 O26 2.484 . S
Tb1 O27 2.440 . S
Tb1 O28 2.658 1_655 S
Tb1 O29 2.409 . S
Tb1 O30 2.378 . S
C2 Tb0 2.809 . S
C2 C3 1.514 . S
C2 O20 1.248 . S
C2 O21 1.266 . S
C3 C2 1.514 . S
C3 C4 1.359 . S
C3 C8 1.348 . S
C4 C3 1.359 . S
C4 C5 1.380 . S
C4 H32 0.929 . S
C5 C4 1.380 . S
C5 C6 1.347 . S
C5 H33 0.931 . S
C6 C5 1.347 . S
C6 C7 1.369 . S
C7 C6 1.369 . S
C7 C8 1.408 . S
C7 H34 0.930 . S
C8 C3 1.348 . S
C8 C7 1.408 . S
C8 H35 0.930 . S
C9 O22 1.281 . S
C9 O23 1.254 . S
C10 O24 1.236 . S
C10 O25 1.266 . S
C11 Tb1 2.809 . S
C11 C12 1.514 . S
C11 O26 1.248 . S
C11 O27 1.266 . S
C12 C11 1.514 . S
C12 C13 1.359 . S
C12 C17 1.348 . S
C13 C12 1.359 . S
C13 C14 1.380 . S
C13 H36 0.929 . S
C14 C13 1.380 . S
C14 C15 1.347 . S
C14 H37 0.931 . S
C15 C14 1.347 . S
C15 C16 1.369 . S
C16 C15 1.369 . S
C16 C17 1.408 . S
C16 H38 0.930 . S
C17 C12 1.348 . S
C17 C16 1.408 . S
C17 H39 0.930 . S
C18 O28 1.281 . S
C18 O29 1.254 1_455 S
C19 O30 1.236 . S
C19 O31 1.266 . S
O20 Tb0 2.484 . S
O20 C2 1.248 . S
O21 Tb0 2.440 . S
O21 C2 1.266 . S
O22 Tb0 2.658 . S
O22 Tb1 2.325 1_455 S
O22 C9 1.281 . S
O23 Tb0 2.409 . S
O23 C9 1.254 . S
O24 Tb0 2.378 . S
O24 C10 1.236 . S
O25 Tb1 2.341 1_455 S
O25 C10 1.266 . S
O26 Tb1 2.484 . S
O26 C11 1.248 . S
O27 Tb1 2.440 . S
O27 C11 1.266 . S
O28 Tb0 2.325 . S
O28 Tb1 2.658 1_455 S
O28 C18 1.281 . S
O29 Tb1 2.409 . S
O29 C18 1.254 1_655 S
O30 Tb1 2.378 . S
O30 C19 1.236 . S
O31 Tb0 2.341 1_655 S
O31 C19 1.266 . S
H32 C4 0.929 . S
H33 C5 0.931 . S
H34 C7 0.930 . S
H35 C8 0.930 . S
H36 C13 0.929 . S
H37 C14 0.931 . S
H38 C16 0.930 . S
H39 C17 0.930 . S
Tb40 C42 2.809 . S
Tb40 O60 2.484 . S
Tb40 O61 2.440 . S
Tb40 O62 2.658 1_565 S
Tb40 O63 2.409 . S
Tb40 O64 2.378 . S
Tb40 O68 2.325 1_565 S
Tb40 O71 2.341 1_565 S
Tb41 C51 2.809 . S
Tb41 O62 2.325 . S
Tb41 O65 2.341 1_545 S
Tb41 O66 2.484 . S
Tb41 O67 2.440 . S
Tb41 O68 2.658 . S
Tb41 O69 2.409 . S
Tb41 O70 2.378 . S
C42 Tb40 2.809 . S
C42 C43 1.514 . S
C42 O60 1.248 . S
C42 O61 1.266 . S
C43 C42 1.514 . S
C43 C44 1.359 . S
C43 C48 1.348 . S
C44 C43 1.359 . S
C44 C45 1.380 . S
C44 H72 0.929 . S
C45 C44 1.380 . S
C45 C46 1.347 . S
C45 H73 0.931 . S
C46 C45 1.347 . S
C46 C47 1.369 . S
C47 C46 1.369 . S
C47 C48 1.408 . S
C47 H74 0.930 . S
C48 C43 1.348 . S
C48 C47 1.408 . S
C48 H75 0.930 . S
C49 O62 1.281 . S
C49 O63 1.254 1_545 S
C50 O64 1.236 . S
C50 O65 1.266 . S
C51 Tb41 2.809 . S
C51 C52 1.514 . S
C51 O66 1.248 . S
C51 O67 1.266 . S
C52 C51 1.514 . S
C52 C53 1.359 . S
C52 C57 1.348 . S
C53 C52 1.359 . S
C53 C54 1.380 . S
C53 H76 0.929 . S
C54 C53 1.380 . S
C54 C55 1.347 . S
C54 H77 0.931 . S
C55 C54 1.347 . S
C55 C56 1.369 . S
C56 C55 1.369 . S
C56 C57 1.408 . S
C56 H78 0.930 . S
C57 C52 1.348 . S
C57 C56 1.408 . S
C57 H79 0.930 . S
C58 O68 1.281 . S
C58 O69 1.254 . S
C59 O70 1.236 . S
C59 O71 1.266 . S
O60 Tb40 2.484 . S
O60 C42 1.248 . S
O61 Tb40 2.440 . S
O61 C42 1.266 . S
O62 Tb40 2.658 1_545 S
O62 Tb41 2.325 . S
O62 C49 1.281 . S
O63 Tb40 2.409 . S
O63 C49 1.254 1_565 S
O64 Tb40 2.378 . S
O64 C50 1.236 . S
O65 Tb41 2.341 1_565 S
O65 C50 1.266 . S
O66 Tb41 2.484 . S
O66 C51 1.248 . S
O67 Tb41 2.440 . S
O67 C51 1.266 . S
O68 Tb40 2.325 1_545 S
O68 Tb41 2.658 . S
O68 C58 1.281 . S
O69 Tb41 2.409 . S
O69 C58 1.254 . S
O70 Tb41 2.378 . S
O70 C59 1.236 . S
O71 Tb40 2.341 1_545 S
O71 C59 1.266 . S
H72 C44 0.929 . S
H73 C45 0.931 . S
H74 C47 0.930 . S
H75 C48 0.930 . S
H76 C53 0.929 . S
H77 C54 0.931 . S
H78 C56 0.930 . S
H79 C57 0.930 . S
Tb80 C82 2.809 . S
Tb80 O100 2.484 . S
Tb80 O101 2.440 . S
Tb80 O102 2.658 . S
Tb80 O103 2.409 . S
Tb80 O104 2.378 . S
Tb80 O108 2.325 . S
Tb80 O111 2.341 . S
Tb81 C91 2.809 . S
Tb81 O102 2.325 . S
Tb81 O105 2.341 . S
Tb81 O106 2.484 . S
Tb81 O107 2.440 . S
Tb81 O108 2.658 . S
Tb81 O109 2.409 . S
Tb81 O110 2.378 . S
C82 Tb80 2.809 . S
C82 C83 1.514 . S
C82 O100 1.248 . S
C82 O101 1.266 . S
C83 C82 1.514 . S
C83 C84 1.359 . S
C83 C88 1.348 . S
C84 C83 1.359 . S
C84 C85 1.380 . S
C84 H112 0.929 . S
C85 C84 1.380 . S
C85 C86 1.347 . S
C85 H113 0.931 . S
C86 C85 1.347 . S
C86 C87 1.369 . S
C87 C86 1.369 . S
C87 C88 1.408 . S
C87 H114 0.930 . S
C88 C83 1.348 . S
C88 C87 1.408 . S
C88 H115 0.930 . S
C89 O102 1.281 . S
C89 O103 1.254 . S
C90 O104 1.236 . S
C90 O105 1.266 . S
C91 Tb81 2.809 . S
C91 C92 1.514 . S
C91 O106 1.248 . S
C91 O107 1.266 . S
C92 C91 1.514 . S
C92 C93 1.359 . S
C92 C97 1.348 . S
C93 C92 1.359 . S
C93 C94 1.380 . S
C93 H116 0.929 . S
C94 C93 1.380 . S
C94 C95 1.347 . S
C94 H117 0.931 . S
C95 C94 1.347 . S
C95 C96 1.369 . S
C96 C95 1.369 . S
C96 C97 1.408 . S
C96 H118 0.930 . S
C97 C92 1.348 . S
C97 C96 1.408 . S
C97 H119 0.930 . S
C98 O108 1.281 . S
C98 O109 1.254 . S
C99 O110 1.236 . S
C99 O111 1.266 . S
O100 Tb80 2.484 . S
O100 C82 1.248 . S
O101 Tb80 2.440 . S
O101 C82 1.266 . S
O102 Tb80 2.658 . S
O102 Tb81 2.325 . S
O102 C89 1.281 . S
O103 Tb80 2.409 . S
O103 C89 1.254 . S
O104 Tb80 2.378 . S
O104 C90 1.236 . S
O105 Tb81 2.341 . S
O105 C90 1.266 . S
O106 Tb81 2.484 . S
O106 C91 1.248 . S
O107 Tb81 2.440 . S
O107 C91 1.266 . S
O108 Tb80 2.325 . S
O108 Tb81 2.658 . S
O108 C98 1.281 . S
O109 Tb81 2.409 . S
O109 C98 1.254 . S
O110 Tb81 2.378 . S
O110 C99 1.236 . S
O111 Tb80 2.341 . S
O111 C99 1.266 . S
H112 C84 0.929 . S
H113 C85 0.931 . S
H114 C87 0.930 . S
H115 C88 0.930 . S
H116 C93 0.929 . S
H117 C94 0.931 . S
H118 C96 0.930 . S
H119 C97 0.930 . S
H120 C123 0.931 1_565 S
H121 C126 0.928 . S
H122 C128 0.930 . S
C123 H120 0.931 1_545 S
C123 C124 1.413 . S
C123 C125 1.360 . S
C124 C123 1.413 . S
C124 C128 1.429 . S
C125 C123 1.360 . S
C125 C126 1.372 . S
C126 H121 0.928 . S
C126 C125 1.372 . S
C126 C127 1.404 . S
C127 C126 1.404 . S
C127 C128 1.391 . S
C128 H122 0.930 . S
C128 C124 1.429 . S
C128 C127 1.391 . S
H129 C132 0.931 . S
H130 C135 0.928 . S
H131 C137 0.930 . S
C132 H129 0.931 . S
C132 C133 1.413 . S
C132 C134 1.360 . S
C133 C132 1.413 . S
C133 C137 1.429 . S
C134 C132 1.360 . S
C134 C135 1.372 . S
C135 H130 0.928 . S
C135 C134 1.372 . S
C135 C136 1.404 . S
C136 C135 1.404 . S
C136 C137 1.391 . S
C137 H131 0.930 . S
C137 C133 1.429 . S
C137 C136 1.391 . S
H138 C141 0.931 . S
H139 C144 0.928 . S
H140 C146 0.930 . S
C141 H138 0.931 . S
C141 C142 1.413 . S
C141 C143 1.360 1_655 S
C142 C141 1.413 . S
C142 C146 1.429 1_655 S
C143 C141 1.360 1_455 S
C143 C144 1.372 . S
C144 H139 0.928 . S
C144 C143 1.372 . S
C144 C145 1.404 . S
C145 C144 1.404 . S
C145 C146 1.391 . S
C146 H140 0.930 . S
C146 C142 1.429 1_455 S
C146 C145 1.391 . S
H147 C150 0.931 1_655 S
H148 C153 0.928 . S
H149 C155 0.930 . S
C150 H147 0.931 1_455 S
C150 C151 1.413 . S
C150 C152 1.360 . S
C151 C150 1.413 . S
C151 C155 1.429 . S
C152 C150 1.360 . S
C152 C153 1.372 . S
C153 H148 0.928 . S
C153 C152 1.372 . S
C153 C154 1.404 . S
C154 C153 1.404 . S
C154 C155 1.391 . S
C155 H149 0.930 . S
C155 C151 1.429 . S
C155 C154 1.391 . S
H156 C159 0.931 . S
H157 C162 0.928 . S
H158 C164 0.930 . S
C159 H156 0.931 . S
C159 C160 1.413 . S
C159 C161 1.360 . S
C160 C159 1.413 . S
C160 C164 1.429 . S
C161 C159 1.360 . S
C161 C162 1.372 1_545 S
C162 H157 0.928 . S
C162 C161 1.372 1_565 S
C162 C163 1.404 . S
C163 C162 1.404 . S
C163 C164 1.391 1_565 S
C164 H158 0.930 . S
C164 C160 1.429 . S
C164 C163 1.391 1_545 S
H165 C168 0.931 . S
H166 C171 0.928 . S
H167 C173 0.930 . S
C168 H165 0.931 . S
C168 C169 1.413 . S
C168 C170 1.360 . S
C169 C168 1.413 . S
C169 C173 1.429 . S
C170 C168 1.360 . S
C170 C171 1.372 . S
C171 H166 0.928 . S
C171 C170 1.372 . S
C171 C172 1.404 . S
C172 C171 1.404 . S
C172 C173 1.391 . S
C173 H167 0.930 . S
C173 C169 1.429 . S
C173 C172 1.391 . S
H174 C180 0.930 . S
H175 C183 0.930 . S
H176 C184 0.930 . S
H177 C185 0.930 . S
H178 C188 0.930 . S
H179 C189 0.930 . S
C180 H174 0.930 . S
C180 C181 1.355 . S
C180 C182 1.415 . S
C181 C180 1.355 . S
C181 C183 1.419 . S
C182 C180 1.415 . S
C182 C187 1.425 . S
C182 C189 1.409 . S
C183 H175 0.930 . S
C183 C181 1.419 . S
C183 C184 1.362 . S
C184 H176 0.930 . S
C184 C183 1.362 . S
C184 C187 1.409 . S
C185 H177 0.930 . S
C185 C186 1.355 . S
C185 C187 1.415 . S
C186 C185 1.355 . S
C186 C188 1.419 . S
C187 C182 1.425 . S
C187 C184 1.409 . S
C187 C185 1.415 . S
C188 H178 0.930 . S
C188 C186 1.419 . S
C188 C189 1.362 . S
C189 H179 0.930 . S
C189 C182 1.409 . S
C189 C188 1.362 . S
H190 C196 0.930 . S
H191 C199 0.930 . S
H192 C200 0.930 . S
H193 C201 0.930 . S
H194 C204 0.930 . S
H195 C205 0.930 . S
C196 H190 0.930 . S
C196 C197 1.355 . S
C196 C198 1.415 . S
C197 C196 1.355 . S
C197 C199 1.419 . S
C198 C196 1.415 . S
C198 C203 1.425 . S
C198 C205 1.409 . S
C199 H191 0.930 . S
C199 C197 1.419 . S
C199 C200 1.362 . S
C200 H192 0.930 . S
C200 C199 1.362 . S
C200 C203 1.409 . S
C201 H193 0.930 . S
C201 C202 1.355 . S
C201 C203 1.415 . S
C202 C201 1.355 . S
C202 C204 1.419 . S
C203 C198 1.425 . S
C203 C200 1.409 . S
C203 C201 1.415 . S
C204 H194 0.930 . S
C204 C202 1.419 . S
C204 C205 1.362 . S
C205 H195 0.930 . S
C205 C198 1.409 . S
C205 C204 1.362 . S
H206 C212 0.930 . S
H207 C215 0.930 . S
H208 C216 0.930 . S
H209 C217 0.930 . S
H210 C220 0.930 . S
H211 C221 0.930 . S
C212 H206 0.930 . S
C212 C213 1.355 . S
C212 C214 1.415 . S
C213 C212 1.355 . S
C213 C215 1.419 . S
C214 C212 1.415 . S
C214 C219 1.425 . S
C214 C221 1.409 . S
C215 H207 0.930 . S
C215 C213 1.419 . S
C215 C216 1.362 . S
C216 H208 0.930 . S
C216 C215 1.362 . S
C216 C219 1.409 . S
C217 H209 0.930 . S
C217 C218 1.355 . S
C217 C219 1.415 . S
C218 C217 1.355 . S
C218 C220 1.419 . S
C219 C214 1.425 . S
C219 C216 1.409 . S
C219 C217 1.415 . S
C220 H210 0.930 . S
C220 C218 1.419 . S
C220 C221 1.362 . S
C221 H211 0.930 . S
C221 C214 1.409 . S
C221 C220 1.362 . S
H222 C228 0.930 . S
H223 C231 0.930 . S
H224 C232 0.930 . S
H225 C233 0.930 . S
H226 C236 0.930 . S
H227 C237 0.930 . S
C228 H222 0.930 . S
C228 C229 1.355 . S
C228 C230 1.415 . S
C229 C228 1.355 . S
C229 C231 1.419 . S
C230 C228 1.415 . S
C230 C235 1.425 . S
C230 C237 1.409 . S
C231 H223 0.930 . S
C231 C229 1.419 . S
C231 C232 1.362 . S
C232 H224 0.930 . S
C232 C231 1.362 . S
C232 C235 1.409 . S
C233 H225 0.930 . S
C233 C234 1.355 . S
C233 C235 1.415 . S
C234 C233 1.355 . S
C234 C236 1.419 . S
C235 C230 1.425 . S
C235 C232 1.409 . S
C235 C233 1.415 . S
C236 H226 0.930 . S
C236 C234 1.419 . S
C236 C237 1.362 . S
C237 H227 0.930 . S
C237 C230 1.409 . S
C237 C236 1.362 . S
H238 C244 0.930 . S
H239 C247 0.930 . S
H240 C248 0.930 . S
H241 C249 0.930 . S
H242 C252 0.930 . S
H243 C253 0.930 . S
C244 H238 0.930 . S
C244 C245 1.355 . S
C244 C246 1.415 . S
C245 C244 1.355 . S
C245 C247 1.419 . S
C246 C244 1.415 . S
C246 C251 1.425 . S
C246 C253 1.409 . S
C247 H239 0.930 . S
C247 C245 1.419 . S
C247 C248 1.362 . S
C248 H240 0.930 . S
C248 C247 1.362 . S
C248 C251 1.409 . S
C249 H241 0.930 . S
C249 C250 1.355 . S
C249 C251 1.415 . S
C250 C249 1.355 . S
C250 C252 1.419 . S
C251 C246 1.425 . S
C251 C248 1.409 . S
C251 C249 1.415 . S
C252 H242 0.930 . S
C252 C250 1.419 . S
C252 C253 1.362 . S
C253 H243 0.930 . S
C253 C246 1.409 . S
C253 C252 1.362 . S
H254 C260 0.930 . S
H255 C263 0.930 . S
H256 C264 0.930 . S
H257 C265 0.930 . S
H258 C268 0.930 . S
H259 C269 0.930 . S
C260 H254 0.930 . S
C260 C261 1.355 . S
C260 C262 1.415 . S
C261 C260 1.355 . S
C261 C263 1.419 . S
C262 C260 1.415 . S
C262 C267 1.425 . S
C262 C269 1.409 . S
C263 H255 0.930 . S
C263 C261 1.419 . S
C263 C264 1.362 . S
C264 H256 0.930 . S
C264 C263 1.362 . S
C264 C267 1.409 . S
C265 H257 0.930 . S
C265 C266 1.355 . S
C265 C267 1.415 . S
C266 C265 1.355 . S
C266 C268 1.419 . S
C267 C262 1.425 . S
C267 C264 1.409 . S
C267 C265 1.415 . S
C268 H258 0.930 . S
C268 C266 1.419 . S
C268 C269 1.362 . S
C269 H259 0.930 . S
C269 C262 1.409 . S
C269 C268 1.362 . S
H270 C276 0.930 . S
H271 C279 0.930 . S
H272 C280 0.930 . S
H273 C281 0.930 . S
H274 C284 0.930 . S
H275 C285 0.930 . S
C276 H270 0.930 . S
C276 C277 1.355 . S
C276 C278 1.415 . S
C277 C276 1.355 . S
C277 C279 1.419 . S
C278 C276 1.415 . S
C278 C283 1.425 . S
C278 C285 1.409 . S
C279 H271 0.930 . S
C279 C277 1.419 . S
C279 C280 1.362 . S
C280 H272 0.930 . S
C280 C279 1.362 . S
C280 C283 1.409 . S
C281 H273 0.930 . S
C281 C282 1.355 . S
C281 C283 1.415 . S
C282 C281 1.355 . S
C282 C284 1.419 . S
C283 C278 1.425 . S
C283 C280 1.409 . S
C283 C281 1.415 . S
C284 H274 0.930 . S
C284 C282 1.419 . S
C284 C285 1.362 . S
C285 H275 0.930 . S
C285 C278 1.409 . S
C285 C284 1.362 . S
H286 C292 0.930 . S
H287 C295 0.930 . S
H288 C296 0.930 . S
H289 C297 0.930 . S
H290 C300 0.930 . S
H291 C301 0.930 . S
C292 H286 0.930 . S
C292 C293 1.355 . S
C292 C294 1.415 . S
C293 C292 1.355 . S
C293 C295 1.419 . S
C294 C292 1.415 . S
C294 C299 1.425 . S
C294 C301 1.409 . S
C295 H287 0.930 . S
C295 C293 1.419 . S
C295 C296 1.362 . S
C296 H288 0.930 . S
C296 C295 1.362 . S
C296 C299 1.409 . S
C297 H289 0.930 . S
C297 C298 1.355 . S
C297 C299 1.415 . S
C298 C297 1.355 . S
C298 C300 1.419 . S
C299 C294 1.425 . S
C299 C296 1.409 . S
C299 C297 1.415 . S
C300 H290 0.930 . S
C300 C298 1.419 . S
C300 C301 1.362 . S
C301 H291 0.930 . S
C301 C294 1.409 . S
C301 C300 1.362 . S
H302 C308 0.930 . S
H303 C311 0.930 . S
H304 C312 0.930 . S
H305 C313 0.930 . S
H306 C316 0.924 1_545 S
H307 C317 0.930 . S
C308 H302 0.930 . S
C308 C309 1.355 . S
C308 C310 1.415 . S
C309 C308 1.355 . S
C309 C311 1.419 . S
C310 C308 1.415 . S
C310 C315 1.425 . S
C310 C317 1.409 . S
C311 H303 0.930 . S
C311 C309 1.419 . S
C311 C312 1.362 . S
C312 H304 0.930 . S
C312 C311 1.362 . S
C312 C315 1.409 . S
C313 H305 0.930 . S
C313 C314 1.355 . S
C313 C315 1.415 . S
C314 C313 1.355 . S
C314 C316 1.418 . S
C315 C310 1.425 . S
C315 C312 1.409 . S
C315 C313 1.415 . S
C316 H306 0.924 1_565 S
C316 C314 1.418 . S
C316 C317 1.370 . S
C317 H307 0.930 . S
C317 C310 1.409 . S
C317 C316 1.370 . S
H318 C324 0.930 . S
H319 C327 0.930 . S
H320 C328 0.930 . S
H321 C329 0.930 . S
H322 C332 0.930 . S
H323 C333 0.930 . S
C324 H318 0.930 . S
C324 C325 1.355 . S
C324 C326 1.415 . S
C325 C324 1.355 . S
C325 C327 1.419 . S
C326 C324 1.415 . S
C326 C331 1.425 . S
C326 C333 1.409 . S
C327 H319 0.930 . S
C327 C325 1.419 . S
C327 C328 1.362 . S
C328 H320 0.930 . S
C328 C327 1.362 . S
C328 C331 1.409 . S
C329 H321 0.930 . S
C329 C330 1.355 . S
C329 C331 1.415 . S
C330 C329 1.355 . S
C330 C332 1.419 . S
C331 C326 1.425 . S
C331 C328 1.409 . S
C331 C329 1.415 . S
C332 H322 0.930 . S
C332 C330 1.419 . S
C332 C333 1.362 . S
C333 H323 0.930 . S
C333 C326 1.409 . S
C333 C332 1.362 . S
H334 C340 0.930 . S
H335 C343 0.930 . S
H336 C344 0.930 . S
H337 C345 0.930 . S
H338 C348 0.930 . S
H339 C349 0.930 . S
C340 H334 0.930 . S
C340 C341 1.355 . S
C340 C342 1.415 . S
C341 C340 1.355 . S
C341 C343 1.419 . S
C342 C340 1.415 . S
C342 C347 1.425 . S
C342 C349 1.409 . S
C343 H335 0.930 . S
C343 C341 1.419 . S
C343 C344 1.362 . S
C344 H336 0.930 . S
C344 C343 1.362 . S
C344 C347 1.409 . S
C345 H337 0.930 . S
C345 C346 1.355 . S
C345 C347 1.415 . S
C346 C345 1.355 . S
C346 C348 1.419 . S
C347 C342 1.425 . S
C347 C344 1.409 . S
C347 C345 1.415 . S
C348 H338 0.930 . S
C348 C346 1.419 . S
C348 C349 1.362 . S
C349 H339 0.930 . S
C349 C342 1.409 . S
C349 C348 1.362 . S
H350 C356 0.930 . S
H351 C359 0.930 . S
H352 C360 0.930 . S
H353 C361 0.930 . S
H354 C364 0.930 . S
H355 C365 0.930 . S
C356 H350 0.930 . S
C356 C357 1.355 . S
C356 C358 1.415 . S
C357 C356 1.355 . S
C357 C359 1.419 . S
C358 C356 1.415 . S
C358 C363 1.425 . S
C358 C365 1.409 . S
C359 H351 0.930 . S
C359 C357 1.419 . S
C359 C360 1.362 . S
C360 H352 0.930 . S
C360 C359 1.362 . S
C360 C363 1.409 . S
C361 H353 0.930 . S
C361 C362 1.355 . S
C361 C363 1.415 . S
C362 C361 1.355 . S
C362 C364 1.419 . S
C363 C358 1.425 . S
C363 C360 1.409 . S
C363 C361 1.415 . S
C364 H354 0.930 . S
C364 C362 1.419 . S
C364 C365 1.362 . S
C365 H355 0.930 . S
C365 C358 1.409 . S
C365 C364 1.362 . S
H366 C372 0.930 1_655 S
H367 C375 0.930 . S
H368 C376 0.930 . S
H369 C377 0.930 . S
H370 C380 0.930 . S
H371 C381 0.930 . S
C372 H366 0.930 1_455 S
C372 C373 1.355 . S
C372 C374 1.415 . S
C373 C372 1.355 . S
C373 C375 1.419 . S
C374 C372 1.415 . S
C374 C379 1.425 . S
C374 C381 1.409 1_455 S
C375 H367 0.930 . S
C375 C373 1.419 . S
C375 C376 1.362 . S
C376 H368 0.930 . S
C376 C375 1.362 . S
C376 C379 1.409 . S
C377 H369 0.930 . S
C377 C378 1.355 . S
C377 C379 1.415 1_556 S
C378 C377 1.355 . S
C378 C380 1.419 1_455 S
C379 C374 1.425 . S
C379 C376 1.409 . S
C379 C377 1.415 1_554 S
C380 H370 0.930 . S
C380 C378 1.419 1_655 S
C380 C381 1.362 1_556 S
C381 H371 0.930 . S
C381 C374 1.409 1_655 S
C381 C380 1.362 1_554 S
H382 C388 0.930 . S
H383 C391 0.930 . S
H384 C392 0.930 . S
H385 C393 0.930 . S
H386 C396 0.930 . S
H387 C397 0.930 1_565 S
C388 H382 0.930 . S
C388 C389 1.355 . S
C388 C390 1.415 . S
C389 C388 1.355 . S
C389 C391 1.419 . S
C390 C388 1.415 . S
C390 C395 1.425 . S
C390 C397 1.409 . S
C391 H383 0.930 . S
C391 C389 1.419 . S
C391 C392 1.362 . S
C392 H384 0.930 . S
C392 C391 1.362 . S
C392 C395 1.409 . S
C393 H385 0.930 . S
C393 C394 1.355 . S
C393 C395 1.415 . S
C394 C393 1.355 . S
C394 C396 1.419 . S
C395 C390 1.425 . S
C395 C392 1.409 . S
C395 C393 1.415 . S
C396 H386 0.930 . S
C396 C394 1.419 . S
C396 C397 1.362 . S
C397 H387 0.930 1_545 S
C397 C390 1.409 . S
C397 C396 1.362 . S
H398 C404 0.930 . S
H399 C407 0.930 . S
H400 C408 0.930 . S
H401 C409 0.930 . S
H402 C412 0.930 . S
H403 C413 0.930 . S
C404 H398 0.930 . S
C404 C405 1.355 . S
C404 C406 1.415 . S
C405 C404 1.355 . S
C405 C407 1.419 . S
C406 C404 1.415 . S
C406 C411 1.425 . S
C406 C413 1.409 . S
C407 H399 0.930 . S
C407 C405 1.419 . S
C407 C408 1.362 . S
C408 H400 0.930 . S
C408 C407 1.362 . S
C408 C411 1.409 . S
C409 H401 0.930 . S
C409 C410 1.355 . S
C409 C411 1.415 . S
C410 C409 1.355 . S
C410 C412 1.419 . S
C411 C406 1.425 . S
C411 C408 1.409 . S
C411 C409 1.415 . S
C412 H402 0.930 . S
C412 C410 1.419 . S
C412 C413 1.362 . S
C413 H403 0.930 . S
C413 C406 1.409 . S
C413 C412 1.362 . S
H414 C420 0.930 . S
H415 C423 0.930 . S
H416 C424 0.930 . S
H417 C425 0.930 . S
H418 C428 0.930 . S
H419 C429 0.930 . S
C420 H414 0.930 . S
C420 C421 1.355 1_565 S
C420 C422 1.415 . S
C421 C420 1.355 1_545 S
C421 C423 1.419 . S
C422 C420 1.415 . S
C422 C427 1.425 1_565 S
C422 C429 1.409 . S
C423 H415 0.930 . S
C423 C421 1.419 . S
C423 C424 1.362 . S
C424 H416 0.930 . S
C424 C423 1.362 . S
C424 C427 1.409 . S
C425 H417 0.930 . S
C425 C426 1.355 . S
C425 C427 1.415 . S
C426 C425 1.355 . S
C426 C428 1.419 1_545 S
C427 C422 1.425 1_545 S
C427 C424 1.409 . S
C427 C425 1.415 . S
C428 H418 0.930 . S
C428 C426 1.419 1_565 S
C428 C429 1.362 . S
C429 H419 0.930 . S
C429 C422 1.409 . S
C429 C428 1.362 . S
H430 C436 0.930 . S
H431 C439 0.930 . S
H432 C440 0.930 . S
H433 C441 0.930 . S
H434 C444 0.930 . S
H435 C445 0.930 . S
C436 H430 0.930 . S
C436 C437 1.355 . S
C436 C438 1.415 . S
C437 C436 1.355 . S
C437 C439 1.419 . S
C438 C436 1.415 . S
C438 C443 1.425 . S
C438 C445 1.409 . S
C439 H431 0.930 . S
C439 C437 1.419 . S
C439 C440 1.362 . S
C440 H432 0.930 . S
C440 C439 1.362 . S
C440 C443 1.409 . S
C441 H433 0.930 . S
C441 C442 1.355 . S
C441 C443 1.415 1_554 S
C442 C441 1.355 . S
C442 C444 1.419 . S
C443 C438 1.425 . S
C443 C440 1.409 . S
C443 C441 1.415 1_556 S
C444 H434 0.930 . S
C444 C442 1.419 . S
C444 C445 1.362 1_554 S
C445 H435 0.930 . S
C445 C438 1.409 . S
C445 C444 1.362 1_556 S
H446 C452 0.930 . S
H447 C455 0.930 . S
H448 C456 0.930 . S
H449 C457 0.930 1_655 S
H450 C460 0.930 . S
H451 C461 0.930 . S
C452 H446 0.930 . S
C452 C453 1.355 . S
C452 C454 1.415 . S
C453 C452 1.355 . S
C453 C455 1.419 1_455 S
C454 C452 1.415 . S
C454 C459 1.425 . S
C454 C461 1.409 . S
C455 H447 0.930 . S
C455 C453 1.419 1_655 S
C455 C456 1.362 . S
C456 H448 0.930 . S
C456 C455 1.362 . S
C456 C459 1.409 1_655 S
C457 H449 0.930 1_455 S
C457 C458 1.355 . S
C457 C459 1.415 . S
C458 C457 1.355 . S
C458 C460 1.419 . S
C459 C454 1.425 . S
C459 C456 1.409 1_455 S
C459 C457 1.415 . S
C460 H450 0.930 . S
C460 C458 1.419 . S
C460 C461 1.362 . S
C461 H451 0.930 . S
C461 C454 1.409 . S
C461 C460 1.362 . S
C181 C10 2.928 . S
C186 C169 2.915 . S
C197 C59 3.011 . S
C202 C151 2.979 1_655 S
C213 C90 2.896 . S
C218 C163 2.907 . S
C229 C19 2.995 . S
C234 C172 2.969 . S
C250 C154 2.915 . S
C245 C50 2.892 . S
C266 C160 2.967 . S
C261 C99 3.006 . S
C277 C46 0.598 . S
C282 C133 0.621 . S
C293 C95 0.819 . S
C298 C142 0.738 . S
C309 C6 0.602 . S
C314 C124 0.641 1_565 S
C330 C136 0.693 . S
C325 C55 0.711 . S
C346 C145 0.651 . S
C341 C86 0.727 . S
C357 C15 0.690 . S
C362 C127 0.669 . S
C378 C143 0.979 . S
C373 C9 0.909 . S
C389 C49 0.993 . S
C394 C125 0.956 . S
C405 C89 0.971 . S
C410 C134 0.965 . S
C426 C161 1.817 . S
C421 C58 1.705 . S
C442 C170 1.815 . S
C437 C98 1.722 . S
C453 C18 1.697 . S
C458 C152 1.817 . S
