# Generated by pormake.
# Topology zzz, (3,6)-cn, num edge types: 1
# Building blocks:
#     Node 0, Type 0, BuildingBlock: ESEHIV_clean_linker_0, # of connection points: 3
#     Node 1, Type 0, BuildingBlock: ESEHIV_clean_linker_0, # of connection points: 3
#     Node 2, Type 0, BuildingBlock: ESEHIV_clean_linker_0, # of connection points: 3
#     Node 3, Type 0, BuildingBlock: ESEHIV_clean_linker_0, # of connection points: 3
#     Node 4, Type 0, BuildingBlock: ESEHIV_clean_linker_0, # of connection points: 3
#     Node 5, Type 0, BuildingBlock: ESEHIV_clean_linker_0, # of connection points: 3
#     Node 6, Type 0, BuildingBlock: ESEHIV_clean_linker_0, # of connection points: 3
#     Node 7, Type 0, BuildingBlock: ESEHIV_clean_linker_0, # of connection points: 3
#     Node 8, Type 1, BuildingBlock: GEDQOX_clean_sbu_0, # of connection points: 6
#     Node 9, Type 1, BuildingBlock: GEDQOX_clean_sbu_0, # of connection points: 6
#     Node 10, Type 1, BuildingBlock: GEDQOX_clean_sbu_0, # of connection points: 6
#     Node 11, Type 1, BuildingBlock: GEDQOX_clean_sbu_0, # of connection points: 6
#     Edge 12, Type (0, 1), BuildingBlock: TEMPAE_clean_linker_10, # of connection points: 2
#     Edge 13, Type (0, 1), BuildingBlock: TEMPAE_clean_linker_10, # of connection points: 2
#     Edge 14, Type (0, 1), BuildingBlock: TEMPAE_clean_linker_10, # of connection points: 2
#     Edge 15, Type (0, 1), BuildingBlock: TEMPAE_clean_linker_10, # of connection points: 2
#     Edge 16, Type (0, 1), BuildingBlock: TEMPAE_clean_linker_10, # of connection points: 2
#     Edge 17, Type (0, 1), BuildingBlock: TEMPAE_clean_linker_10, # of connection points: 2
#     Edge 18, Type (0, 1), BuildingBlock: TEMPAE_clean_linker_10, # of connection points: 2
#     Edge 19, Type (0, 1), BuildingBlock: TEMPAE_clean_linker_10, # of connection points: 2
#     Edge 20, Type (0, 1), BuildingBlock: TEMPAE_clean_linker_10, # of connection points: 2
#     Edge 21, Type (0, 1), BuildingBlock: TEMPAE_clean_linker_10, # of connection points: 2
#     Edge 22, Type (0, 1), BuildingBlock: TEMPAE_clean_linker_10, # of connection points: 2
#     Edge 23, Type (0, 1), BuildingBlock: TEMPAE_clean_linker_10, # of connection points: 2
#     Edge 24, Type (0, 1), BuildingBlock: TEMPAE_clean_linker_10, # of connection points: 2
#     Edge 25, Type (0, 1), BuildingBlock: TEMPAE_clean_linker_10, # of connection points: 2
#     Edge 26, Type (0, 1), BuildingBlock: TEMPAE_clean_linker_10, # of connection points: 2
#     Edge 27, Type (0, 1), BuildingBlock: TEMPAE_clean_linker_10, # of connection points: 2
#     Edge 28, Type (0, 1), BuildingBlock: TEMPAE_clean_linker_10, # of connection points: 2
#     Edge 29, Type (0, 1), BuildingBlock: TEMPAE_clean_linker_10, # of connection points: 2
#     Edge 30, Type (0, 1), BuildingBlock: TEMPAE_clean_linker_10, # of connection points: 2
#     Edge 31, Type (0, 1), BuildingBlock: TEMPAE_clean_linker_10, # of connection points: 2
#     Edge 32, Type (0, 1), BuildingBlock: TEMPAE_clean_linker_10, # of connection points: 2
#     Edge 33, Type (0, 1), BuildingBlock: TEMPAE_clean_linker_10, # of connection points: 2
#     Edge 34, Type (0, 1), BuildingBlock: TEMPAE_clean_linker_10, # of connection points: 2
#     Edge 35, Type (0, 1), BuildingBlock: TEMPAE_clean_linker_10, # of connection points: 2
# Relax obj value: 0.313
# Max RMSD: 0.318
# Mean RMSD: 0.196
data_MOF--net-zzz--node1-GEDQOX_clean_sbu_0--node2-ESEHIV_clean_linker_0--edge1-TEMPAE_clean_linker_10
_symmetry_space_group_name_H-M    P1
_symmetry_Int_Tables_number       1
_symmetry_cell_setting            triclinic
loop_
_symmetry_equiv_pos_as_xyz
'x, y, z'
_cell_length_a     49.08177
_cell_length_b     46.189768
_cell_length_c     18.041993
_cell_angle_alpha  79.88164
_cell_angle_beta   90.493086
_cell_angle_gamma 104.33708
loop_
_atom_site_label
_atom_site_type_symbol
_atom_site_fract_x
_atom_site_fract_y
_atom_site_fract_z
_atom_type_partial_charge
H0 H 0.81242 0.44223 0.11312 0.0
H1 H 0.74996 0.45006 0.94808 0.0
H2 H 0.74681 0.48492 0.15336 0.0
C3 C 0.79292 0.44825 0.09683 0.0
C4 C 0.78104 0.46404 0.14192 0.0
C5 C 0.78239 0.44381 0.02632 0.0
C6 C 0.75766 0.45243 0.00375 0.0
C7 C 0.74406 0.46615 0.05098 0.0
C8 C 0.75609 0.47237 0.11958 0.0
H9 H 0.92154 0.80112 0.16854 0.0
H10 H 0.92509 0.73557 0.03247 0.0
H11 H 0.95348 0.72418 0.26097 0.0
C12 C 0.92475 0.77903 0.16434 0.0
C13 C 0.93609 0.76323 0.22518 0.0
C14 C 0.92157 0.76948 0.09491 0.0
C15 C 0.92693 0.74192 0.08774 0.0
C16 C 0.93828 0.72486 0.14663 0.0
C17 C 0.94367 0.73616 0.21569 0.0
H18 H 0.69327 0.96573 0.09834 0.0
H19 H 0.75977 0.96623 0.94851 0.0
H20 H 0.77877 0.98696 0.17063 0.0
C21 C 0.7155 0.96798 0.08861 0.0
C22 C 0.7345 0.97526 0.14534 0.0
C23 C 0.72498 0.96742 0.01628 0.0
C24 C 0.75315 0.96832 0.00406 0.0
C25 C 0.77319 0.97651 0.05774 0.0
C26 C 0.76366 0.97955 0.12949 0.0
H27 H 0.61096 0.77303 0.40636 0.0
H28 H 0.57086 0.83902 0.46634 0.0
H29 H 0.61798 0.85653 0.25517 0.0
C30 C 0.60812 0.79596 0.39587 0.0
C31 C 0.61596 0.81412 0.32527 0.0
C32 C 0.59243 0.8048 0.44841 0.0
C33 C 0.58486 0.83295 0.42907 0.0
C34 C 0.59514 0.85271 0.35973 0.0
C35 C 0.612 0.84331 0.31111 0.0
H36 H 0.23721 0.62839 0.55841 0.0
H37 H 0.29869 0.633 0.73061 0.0
H38 H 0.30596 0.58768 0.54471 0.0
C39 C 0.25707 0.62476 0.57975 0.0
C40 C 0.27099 0.60819 0.5427 0.0
C41 C 0.26668 0.63382 0.64763 0.0
C42 C 0.29152 0.62705 0.67699 0.0
C43 C 0.30606 0.61082 0.63931 0.0
C44 C 0.29559 0.60132 0.57222 0.0
H45 H 0.12909 0.27161 0.52305 0.0
H46 H 0.12532 0.33814 0.65776 0.0
H47 H 0.08703 0.34145 0.44085 0.0
C48 C 0.1241 0.29274 0.52855 0.0
C49 C 0.10932 0.30602 0.47117 0.0
C50 C 0.12945 0.30372 0.59619 0.0
C51 C 0.12155 0.32996 0.60484 0.0
C52 C 0.10623 0.34389 0.54972 0.0
C53 C 0.09946 0.33142 0.48293 0.0
H54 H 0.35854 0.12761 0.59109 0.0
H55 H 0.28847 0.1043 0.74188 0.0
H56 H 0.27552 0.09547 0.50868 0.0
C57 C 0.33584 0.12074 0.59862 0.0
C58 C 0.31889 0.11231 0.53871 0.0
C59 C 0.32482 0.11161 0.67234 0.0
C60 C 0.29622 0.10744 0.68427 0.0
C61 C 0.27769 0.10116 0.62593 0.0
C62 C 0.28923 0.10301 0.55254 0.0
H63 H 0.4294 0.28669 0.27862 0.0
H64 H 0.48418 0.23651 0.2062 0.0
H65 H 0.44201 0.20863 0.4247 0.0
C66 C 0.4368 0.26613 0.28554 0.0
C67 C 0.43431 0.2483 0.3574 0.0
C68 C 0.45417 0.26198 0.22863 0.0
C69 C 0.46845 0.23839 0.24555 0.0
C70 C 0.4633 0.21839 0.31618 0.0
C71 C 0.44404 0.22213 0.36833 0.0
Nd72 Nd 0.01972 0.03389 0.75175 0.0
Nd73 Nd 0.03058 0.04492 0.91424 0.0
C74 C 0.00036 0.01732 0.6231 0.0
C75 C 0.99356 0.98843 0.59099 0.0
C76 C 0.9722 0.96263 0.62235 0.0
C77 C 0.96628 0.93605 0.59018 0.0
C78 C 0.98137 0.93444 0.52526 0.0
C79 C 0.00282 0.96024 0.49467 0.0
C80 C 0.00876 0.98666 0.52687 0.0
C81 C 0.07289 0.0315 0.79823 0.0
C82 C 0.0104 0.97533 0.88581 0.0
C83 C 0.04978 0.06041 0.04404 0.0
C84 C 0.05581 0.08841 0.07956 0.0
C85 C 0.07663 0.11499 0.05005 0.0
C86 C 0.08217 0.14059 0.08582 0.0
C87 C 0.06718 0.14043 0.15249 0.0
C88 C 0.04625 0.11388 0.18122 0.0
C89 C 0.04072 0.08839 0.14551 0.0
C90 C 0.97674 0.0454 0.86943 0.0
C91 C 0.04288 0.10345 0.77915 0.0
O92 O 0.984 0.01982 0.67751 0.0
O93 O 0.02693 0.02939 0.63292 0.0
O94 O 0.05714 0.01252 0.76094 0.0
O95 O 0.05965 0.05017 0.81292 0.0
O96 O 0.0075 0.98695 0.81572 0.0
O97 O 0.02135 0.99232 0.93601 0.0
O98 O 0.06621 0.05981 0.98773 0.0
O99 O 0.02337 0.04745 0.03463 0.0
O100 O 0.99223 0.06493 0.90577 0.0
O101 O 0.99072 0.02749 0.85423 0.0
O102 O 0.04195 0.09244 0.85127 0.0
O103 O 0.03288 0.08652 0.72807 0.0
H104 H 0.9599 0.96296 0.67159 0.0
H105 H 0.94945 0.91695 0.61545 0.0
H106 H 0.01536 0.96001 0.44581 0.0
H107 H 0.02539 0.00591 0.50122 0.0
H108 H 0.08884 0.11601 0.99954 0.0
H109 H 0.09863 0.16032 0.06189 0.0
H110 H 0.03381 0.11277 0.23137 0.0
H111 H 0.02455 0.06845 0.16989 0.0
Nd112 Nd 0.52675 0.01394 0.79874 0.0
Nd113 Nd 0.52543 0.05911 0.9015 0.0
C114 C 0.54417 0.97107 0.74712 0.0
C115 C 0.56611 0.97241 0.68975 0.0
C116 C 0.57867 0.9481 0.69249 0.0
C117 C 0.60041 0.94973 0.64079 0.0
C118 C 0.61021 0.97579 0.58503 0.0
C119 C 0.5976 1.00021 0.58281 0.0
C120 C 0.57589 0.99858 0.63472 0.0
C121 C 0.51833 0.06411 0.70395 0.0
C122 C 0.58455 0.06316 0.81849 0.0
C123 C 0.51763 0.10299 0.96821 0.0
C124 C 0.49464 0.10365 0.0208 0.0
C125 C 0.48047 0.12688 0.00584 0.0
C126 C 0.45775 0.12694 0.05249 0.0
C127 C 0.44851 0.10368 0.11535 0.0
C128 C 0.4626 0.08026 0.12983 0.0
C129 C 0.48529 0.08019 0.0831 0.0
C130 C 0.52536 1.00213 0.97971 0.0
C131 C 0.46634 0.01298 0.87238 0.0
O132 O 0.55348 0.98115 0.80823 0.0
O133 O 0.5218 0.97995 0.72302 0.0
O134 O 0.5202 0.03933 0.68265 0.0
O135 O 0.52088 0.06236 0.77506 0.0
O136 O 0.5694 0.04709 0.7726 0.0
O137 O 0.5729 0.07051 0.87586 0.0
O138 O 0.51034 0.1008 0.89897 0.0
O139 O 0.5348 0.08606 0.99333 0.0
O140 O 0.51037 0.01931 0.99869 0.0
O141 O 0.53968 0.01554 0.91983 0.0
O142 O 0.47986 0.03476 0.90653 0.0
O143 O 0.47941 0.99866 0.8325 0.0
H144 H 0.57183 0.92791 0.73523 0.0
H145 H 0.60987 0.93068 0.64539 0.0
H146 H 0.60433 0.02055 0.54053 0.0
H147 H 0.56685 0.01786 0.6321 0.0
H148 H 0.48683 0.14491 0.95745 0.0
H149 H 0.44719 0.14509 0.03875 0.0
H150 H 0.45635 0.06213 0.17803 0.0
H151 H 0.49541 0.06163 0.09565 0.0
Nd152 Nd 0.51699 0.54309 0.91264 0.0
Nd153 Nd 0.53133 0.52345 0.76203 0.0
C154 C 0.49805 0.55867 0.03086 0.0
C155 C 0.51204 0.58473 0.06457 0.0
C156 C 0.49659 0.60361 0.08728 0.0
C157 C 0.51066 0.63159 0.10517 0.0
C158 C 0.54016 0.64095 0.09873 0.0
C159 C 0.55552 0.62176 0.07777 0.0
C160 C 0.54159 0.59377 0.06143 0.0
C161 C 0.57245 0.54183 0.89257 0.0
C162 C 0.54316 0.59607 0.76761 0.0
C163 C 0.55145 0.49816 0.6638 0.0
C164 C 0.53534 0.47063 0.63823 0.0
C165 C 0.54629 0.445 0.64476 0.0
C166 C 0.52887 0.41695 0.63593 0.0
C167 C 0.50029 0.41424 0.62075 0.0
C168 C 0.4895 0.43993 0.61371 0.0
C169 C 0.50683 0.46781 0.62212 0.0
C170 C 0.47747 0.53269 0.75814 0.0
C171 C 0.49974 0.46991 0.90265 0.0
O172 O 0.48918 0.56602 0.96317 0.0
O173 O 0.51115 0.53691 0.0363 0.0
O174 O 0.56463 0.56142 0.92549 0.0
O175 O 0.551 0.5233 0.8751 0.0
O176 O 0.5266 0.58849 0.82921 0.0
O177 O 0.55217 0.57534 0.73881 0.0
O178 O 0.55755 0.49373 0.73493 0.0
O179 O 0.54234 0.52269 0.64355 0.0
O180 O 0.48889 0.52437 0.70361 0.0
O181 O 0.49443 0.53443 0.81034 0.0
O182 O 0.51055 0.47649 0.83294 0.0
O183 O 0.49827 0.49129 0.94165 0.0
H184 H 0.47379 0.59722 0.08854 0.0
H185 H 0.49859 0.64627 0.12174 0.0
H186 H 0.57832 0.62851 0.07376 0.0
H187 H 0.55401 0.57967 0.0439 0.0
H188 H 0.56803 0.4465 0.65904 0.0
H189 H 0.53774 0.39747 0.64047 0.0
H190 H 0.46752 0.43839 0.60246 0.0
H191 H 0.49753 0.48691 0.61844 0.0
Nd192 Nd 0.0115 0.55415 0.76597 0.0
Nd193 Nd 0.03858 0.52147 0.91757 0.0
C194 C 0.97825 0.57983 0.67636 0.0
C195 C 0.95603 0.56746 0.6263 0.0
C196 C 0.93113 0.57727 0.6211 0.0
C197 C 0.90932 0.56455 0.57703 0.0
C198 C 0.91196 0.54174 0.53699 0.0
C199 C 0.93697 0.53189 0.54266 0.0
C200 C 0.95869 0.5445 0.58708 0.0
C201 C 0.03357 0.50732 0.73447 0.0
C202 C 0.97451 0.49093 0.87417 0.0
C203 C 0.07171 0.49645 0.00952 0.0
C204 C 0.0941 0.50858 0.06015 0.0
C205 C 0.12247 0.5115 0.04109 0.0
C206 C 0.14392 0.5239 0.08654 0.0
C207 C 0.13755 0.53354 0.15265 0.0
C208 C 0.10912 0.53057 0.1718 0.0
C209 C 0.08767 0.51829 0.12613 0.0
C210 C 0.01591 0.56812 0.94784 0.0
C211 C 0.07593 0.58368 0.80606 0.0
O212 O 0.97258 0.5703 0.74874 0.0
O213 O 0.00426 0.581 0.65662 0.0
O214 O 0.02271 0.52477 0.68493 0.0
O215 O 0.03236 0.51568 0.79716 0.0
O216 O 0.97533 0.51491 0.82118 0.0
O217 O 0.99624 0.48662 0.91501 0.0
O218 O 0.07743 0.50537 0.93699 0.0
O219 O 0.04564 0.49533 0.02832 0.0
O220 O 0.0263 0.55068 0.99849 0.0
O221 O 0.01816 0.55989 0.88566 0.0
O222 O 0.07515 0.5594 0.85813 0.0
O223 O 0.05389 0.5888 0.76796 0.0
H224 H 0.92844 0.59458 0.65183 0.0
H225 H 0.89023 0.57237 0.57507 0.0
H226 H 0.93999 0.51471 0.51196 0.0
H227 H 0.97754 0.53618 0.59088 0.0
H228 H 0.12813 0.5044 0.99047 0.0
H229 H 0.16555 0.5262 0.06939 0.0
H230 H 0.10336 0.53733 0.2228 0.0
H231 H 0.06606 0.51648 0.14265 0.0
C232 C 0.2261 0.09673 0.6006 0.0
C233 C 0.24708 0.08876 0.64709 0.0
C234 C 0.19757 0.08739 0.62554 0.0
C235 C 0.19011 0.07075 0.69957 0.0
C236 C 0.21116 0.06241 0.74613 0.0
C237 C 0.23897 0.07025 0.71814 0.0
C238 C 0.17545 0.09543 0.573 0.0
C239 C 0.20447 0.04557 0.82623 0.0
C240 C 0.1199 0.06911 0.79108 0.0
C241 C 0.10372 0.04026 0.78299 0.0
C242 C 0.14807 0.07947 0.76401 0.0
C243 C 0.16022 0.06057 0.72778 0.0
C244 C 0.14421 0.03109 0.72174 0.0
C245 C 0.11628 0.02124 0.74992 0.0
C246 C 0.16472 0.11071 0.77359 0.0
C247 C 0.15633 0.0102 0.68361 0.0
H248 H 0.23198 0.11068 0.54551 0.0
H249 H 0.25454 0.06225 0.75334 0.0
H250 H 0.15909 0.07458 0.56747 0.0
H251 H 0.16485 0.11058 0.59658 0.0
H252 H 0.18445 0.10698 0.51604 0.0
H253 H 0.22372 0.04347 0.85734 0.0
H254 H 0.19259 0.05752 0.8573 0.0
H255 H 0.19097 0.02244 0.8264 0.0
H256 H 0.11032 0.08395 0.81643 0.0
H257 H 0.1039 0.99892 0.74358 0.0
H258 H 0.17188 0.12494 0.71774 0.0
H259 H 0.18382 0.10895 0.80565 0.0
H260 H 0.15227 0.12247 0.80355 0.0
H261 H 0.16384 0.02155 0.62538 0.0
H262 H 0.14076 0.98841 0.68108 0.0
H263 H 0.17476 0.00507 0.71414 0.0
C264 C 0.49938 0.2084 0.40635 0.0
C265 C 0.48213 0.19892 0.34814 0.0
C266 C 0.50818 0.18747 0.46147 0.0
C267 C 0.50089 0.15628 0.45641 0.0
C268 C 0.48613 0.14702 0.39296 0.0
C269 C 0.47643 0.16838 0.34029 0.0
C270 C 0.52278 0.19841 0.52909 0.0
C271 C 0.47889 0.11418 0.3838 0.0
C272 C 0.53607 0.10353 0.59004 0.0
C273 C 0.51542 0.09084 0.6479 0.0
C274 C 0.53172 0.12478 0.5275 0.0
C275 C 0.50582 0.13326 0.52169 0.0
C276 C 0.48478 0.12026 0.57982 0.0
C277 C 0.48992 0.0993 0.64175 0.0
C278 C 0.55455 0.13756 0.46663 0.0
C279 C 0.45658 0.12801 0.57775 0.0
H280 H 0.50334 0.2319 0.41352 0.0
H281 H 0.46283 0.16083 0.29622 0.0
H282 H 0.50828 0.18969 0.5794 0.0
H283 H 0.54168 0.18951 0.5408 0.0
H284 H 0.5292 0.22359 0.52146 0.0
H285 H 0.46691 0.11047 0.33229 0.0
H286 H 0.49849 0.10651 0.38075 0.0
H287 H 0.46625 0.09976 0.43364 0.0
H288 H 0.55548 0.09622 0.59289 0.0
H289 H 0.47328 0.08839 0.68308 0.0
H290 H 0.56066 0.16271 0.45886 0.0
H291 H 0.54653 0.13148 0.41227 0.0
H292 H 0.57359 0.12897 0.47971 0.0
H293 H 0.45715 0.14545 0.61332 0.0
H294 H 0.43964 0.10769 0.6014 0.0
H295 H 0.45081 0.13696 0.5203 0.0
C296 C 0.35633 0.62213 0.67694 0.0
C297 C 0.33061 0.60102 0.6732 0.0
C298 C 0.38055 0.61242 0.70045 0.0
C299 C 0.37875 0.58091 0.72161 0.0
C300 C 0.35229 0.55976 0.72258 0.0
C301 C 0.32862 0.57006 0.69753 0.0
C302 C 0.40834 0.63572 0.69798 0.0
C303 C 0.34925 0.52606 0.74613 0.0
C304 C 0.44072 0.55011 0.67992 0.0
C305 C 0.45211 0.54475 0.75099 0.0
C306 C 0.41744 0.56269 0.66966 0.0
C307 C 0.40478 0.56965 0.73231 0.0
C308 C 0.41619 0.56431 0.80447 0.0
C309 C 0.4399 0.55208 0.81287 0.0
C310 C 0.40628 0.56838 0.59153 0.0
C311 C 0.40323 0.57126 0.87269 0.0
H312 H 0.35776 0.6461 0.65812 0.0
H313 H 0.30859 0.55382 0.69525 0.0
H314 H 0.4198 0.63124 0.75028 0.0
H315 H 0.42171 0.63421 0.65023 0.0
H316 H 0.40561 0.65922 0.69056 0.0
H317 H 0.32685 0.51305 0.75298 0.0
H318 H 0.35968 0.51768 0.70291 0.0
H319 H 0.35974 0.52131 0.80002 0.0
H320 H 0.45026 0.54478 0.63172 0.0
H321 H 0.44868 0.54795 0.86784 0.0
H322 H 0.40554 0.59249 0.57581 0.0
H323 H 0.38447 0.55423 0.59055 0.0
H324 H 0.41934 0.56309 0.54824 0.0
H325 H 0.40358 0.59573 0.86401 0.0
H326 H 0.41442 0.56554 0.9249 0.0
H327 H 0.38086 0.55832 0.88074 0.0
C328 C 0.11537 0.39433 0.59102 0.0
C329 C 0.096 0.36968 0.56885 0.0
C330 C 0.10645 0.41604 0.62406 0.0
C331 C 0.07733 0.41313 0.63605 0.0
C332 C 0.05765 0.38827 0.61371 0.0
C333 C 0.0672 0.36695 0.5802 0.0
C334 C 0.12828 0.44207 0.64635 0.0
C335 C 0.02644 0.38405 0.62597 0.0
C336 C 0.0525 0.4601 0.76651 0.0
C337 C 0.04683 0.48389 0.7138 0.0
C338 C 0.06264 0.43687 0.74261 0.0
C339 C 0.06744 0.43771 0.66443 0.0
C340 C 0.06255 0.46228 0.61184 0.0
C341 C 0.05225 0.48476 0.637 0.0
C342 C 0.06771 0.41119 0.80074 0.0
C343 C 0.06783 0.46469 0.52831 0.0
H344 H 0.13769 0.39616 0.58407 0.0
H345 H 0.05217 0.34743 0.5657 0.0
H346 H 0.12558 0.46396 0.61449 0.0
H347 H 0.12548 0.44246 0.70707 0.0
H348 H 0.1501 0.44058 0.63554 0.0
H349 H 0.01389 0.3628 0.60928 0.0
H350 H 0.02151 0.38348 0.68619 0.0
H351 H 0.0198 0.40358 0.59279 0.0
H352 H 0.04832 0.45919 0.82588 0.0
H353 H 0.04816 0.50313 0.5957 0.0
H354 H 0.08986 0.40985 0.79591 0.0
H355 H 0.05417 0.38928 0.79046 0.0
H356 H 0.06328 0.41388 0.8591 0.0
H357 H 0.08999 0.46462 0.51685 0.0
H358 H 0.06366 0.48563 0.49477 0.0
H359 H 0.05421 0.44474 0.50851 0.0
C360 C 0.81113 1.00141 0.95797 0.0
C361 C 0.8036 0.98596 0.03232 0.0
C362 C 0.83882 0.00859 0.92912 0.0
C363 C 0.86028 1.00199 0.97674 0.0
C364 C 0.85326 0.98737 0.05265 0.0
C365 C 0.82493 0.97923 0.0794 0.0
C366 C 0.84509 0.02358 0.8475 0.0
C367 C 0.87573 0.98065 0.10568 0.0
C368 C 0.93091 0.0054 0.88381 0.0
C369 C 0.94608 0.03512 0.88798 0.0
C370 C 0.90306 0.99405 0.91324 0.0
C371 C 0.89017 0.01282 0.94794 0.0
C372 C 0.90525 0.04299 0.95071 0.0
C373 C 0.93286 0.05379 0.9203 0.0
C374 C 0.88755 0.96194 0.90781 0.0
C375 C 0.89233 0.06383 0.98683 0.0
H376 H 0.79529 0.00812 0.92149 0.0
H377 H 0.81949 0.96744 0.13678 0.0
H378 H 0.85821 0.04711 0.84401 0.0
H379 H 0.85723 0.01111 0.81896 0.0
H380 H 0.82565 0.02447 0.81614 0.0
H381 H 0.86691 0.96906 0.16277 0.0
H382 H 0.88722 0.96609 0.08282 0.0
H383 H 0.89131 1.00212 0.11072 0.0
H384 H 0.94107 0.99071 0.85957 0.0
H385 H 0.94446 0.07672 0.92392 0.0
H386 H 0.86762 0.96192 0.8783 0.0
H387 H 0.88191 0.94834 0.9651 0.0
H388 H 0.90025 0.95057 0.87736 0.0
H389 H 0.87372 0.06797 0.9555 0.0
H390 H 0.90737 0.08609 0.98801 0.0
H391 H 0.88493 0.05297 0.04543 0.0
C392 C 0.55611 0.87869 0.32412 0.0
C393 C 0.58499 0.88018 0.32691 0.0
C394 C 0.54583 0.8997 0.27186 0.0
C395 C 0.56481 0.92245 0.22046 0.0
C396 C 0.59405 0.92541 0.22696 0.0
C397 C 0.60368 0.9047 0.28066 0.0
C398 C 0.51451 0.89627 0.26823 0.0
C399 C 0.61522 0.94889 0.1732 0.0
C400 C 0.54029 0.9539 0.0275 0.0
C401 C 0.53569 0.98145 0.03972 0.0
C402 C 0.54915 0.93413 0.0863 0.0
C403 C 0.55426 0.94254 0.15826 0.0
C404 C 0.55039 0.97079 0.16979 0.0
C405 C 0.54082 0.98963 0.11091 0.0
C406 C 0.55305 0.90422 0.07154 0.0
C407 C 0.55673 0.98134 0.24414 0.0
H408 H 0.54139 0.85979 0.35852 0.0
H409 H 0.62599 0.90597 0.2813 0.0
H410 H 0.50954 0.91853 0.26667 0.0
H411 H 0.50692 0.88812 0.21563 0.0
H412 H 0.50283 0.87991 0.31699 0.0
H413 H 0.63721 0.95038 0.1908 0.0
H414 H 0.61342 0.94288 0.11614 0.0
H415 H 0.61098 0.97162 0.16855 0.0
H416 H 0.53644 0.94758 0.97255 0.0
H417 H 0.53777 0.01118 0.12033 0.0
H418 H 0.53989 0.88524 0.1125 0.0
H419 H 0.57529 0.90335 0.07962 0.0
H420 H 0.54736 0.90053 0.01359 0.0
H421 H 0.54386 0.96459 0.29027 0.0
H422 H 0.5525 0.00387 0.24425 0.0
H423 H 0.57916 0.98289 0.25686 0.0
C424 C 0.69316 0.45666 0.02011 0.0
C425 C 0.71919 0.47718 0.02442 0.0
C426 C 0.66934 0.46704 0.996 0.0
C427 C 0.67188 0.49865 0.97384 0.0
C428 C 0.69843 0.51933 0.97623 0.0
C429 C 0.72168 0.50835 1.00239 0.0
C430 C 0.64135 0.44425 0.99594 0.0
C431 C 0.70225 0.55309 0.9515 0.0
C432 C 0.61377 0.52382 0.85712 0.0
C433 C 0.59882 0.53267 0.91124 0.0
C434 C 0.63792 0.5132 0.87617 0.0
C435 C 0.64657 0.51027 0.95179 0.0
C436 C 0.63114 0.51877 0.00674 0.0
C437 C 0.60776 0.53035 0.98551 0.0
C438 C 0.65419 0.50519 0.81547 0.0
C439 C 0.63895 0.51502 0.0884 0.0
H440 H 0.69138 0.43253 0.03704 0.0
H441 H 0.74196 0.52412 0.00506 0.0
H442 H 0.6259 0.44908 0.03355 0.0
H443 H 0.63294 0.4462 0.93854 0.0
H444 H 0.6429 0.42052 0.01501 0.0
H445 H 0.7246 0.56593 0.95194 0.0
H446 H 0.69451 0.5579 0.89378 0.0
H447 H 0.68962 0.56164 0.98939 0.0
H448 H 0.60669 0.52545 0.7998 0.0
H449 H 0.59582 0.53659 0.02775 0.0
H450 H 0.65378 0.48071 0.82834 0.0
H451 H 0.67656 0.5181 0.81372 0.0
H452 H 0.64552 0.51015 0.75889 0.0
H453 H 0.63896 0.49099 0.1099 0.0
H454 H 0.62422 0.52172 0.12458 0.0
H455 H 0.66052 0.529 0.09386 0.0
C456 C 0.93013 0.67991 0.08047 0.0
C457 C 0.94687 0.69772 0.1281 0.0
C458 C 0.9403 0.65961 0.04526 0.0
C459 C 0.96737 0.65516 0.0614 0.0
C460 C 0.98369 0.6714 0.11345 0.0
C461 C 0.97346 0.69276 0.1453 0.0
C462 C 0.92222 0.64351 0.98924 0.0
C463 C 0.01231 0.66669 0.13415 0.0
C464 C 0.98307 0.58083 0.03334 0.0
C465 C 0.00015 0.58958 0.96726 0.0
C466 C 0.97164 0.60166 0.0629 0.0
C467 C 0.97794 0.63245 0.02668 0.0
C468 C 0.99439 0.64126 0.9581 0.0
C469 C 0.00517 0.61965 0.92886 0.0
C470 C 0.95357 0.59082 0.13457 0.0
C471 C 0.00127 0.67371 0.91687 0.0
H472 H 0.90929 0.68294 0.06763 0.0
H473 H 0.98676 0.70641 0.18114 0.0
H474 H 0.9345 0.64611 0.93608 0.0
H475 H 0.91521 0.61886 0.01226 0.0
H476 H 0.9033 0.65229 0.97577 0.0
H477 H 0.02201 0.68011 0.1773 0.0
H478 H 0.0106 0.64228 0.15615 0.0
H479 H 0.02652 0.67331 0.08323 0.0
H480 H 0.97914 0.55759 0.06319 0.0
H481 H 0.01868 0.62661 0.87836 0.0
H482 H 0.93276 0.59594 0.12539 0.0
H483 H 0.96364 0.60306 0.17933 0.0
H484 H 0.95015 0.56602 0.15501 0.0
H485 H 0.98161 0.68114 0.90459 0.0
H486 H 0.01338 0.67677 0.8631 0.0
H487 H 0.01379 0.68882 0.95302 0.0
C488 C 0.11555 0.27414 0.72289 0.0
C489 C 0.1354 0.28267 0.66251 0.0
C490 C 0.10639 0.24364 0.75676 0.0
C491 C 0.1178 0.22216 0.7294 0.0
C492 C 0.14256 0.23189 0.68306 0.0
C493 C 0.15185 0.26273 0.6518 0.0
C494 C 0.08148 0.23402 0.81188 0.0
C495 C 0.15634 0.20951 0.6567 0.0
C496 C 0.08508 0.14039 0.80789 0.0
C497 C 0.06282 0.13332 0.75894 0.0
C498 C 0.10382 0.16879 0.79772 0.0
C499 C 0.10062 0.19075 0.7361 0.0
C500 C 0.07945 0.18338 0.68311 0.0
C501 C 0.06062 0.15444 0.69522 0.0
C502 C 0.12575 0.17539 0.85598 0.0
C503 C 0.07617 0.2064 0.61518 0.0
H504 H 0.10368 0.28981 0.73472 0.0
H505 H 0.16837 0.26989 0.60807 0.0
H506 H 0.06204 0.22592 0.78168 0.0
H507 H 0.08371 0.21507 0.85673 0.0
H508 H 0.0789 0.25316 0.83852 0.0
H509 H 0.17831 0.22046 0.63551 0.0
H510 H 0.15642 0.1901 0.70263 0.0
H511 H 0.14424 0.2003 0.61009 0.0
H512 H 0.08776 0.12374 0.85597 0.0
H513 H 0.04386 0.14876 0.65673 0.0
H514 H 0.11691 0.18453 0.90061 0.0
H515 H 0.14512 0.19237 0.8316 0.0
H516 H 0.13157 0.15438 0.88345 0.0
H517 H 0.07029 0.22577 0.6338 0.0
H518 H 0.05983 0.19656 0.57734 0.0
H519 H 0.09646 0.21555 0.5825 0.0
C520 C 0.34205 0.06523 0.69375 0.0
C521 C 0.33771 0.09017 0.72219 0.0
C522 C 0.35591 0.04518 0.73473 0.0
C523 C 0.36488 0.04956 0.80742 0.0
C524 C 0.35673 0.07187 0.84105 0.0
C525 C 0.34343 0.09239 0.79734 0.0
C526 C 0.36448 0.02228 0.69541 0.0
C527 C 0.3645 0.07621 0.92011 0.0
C528 C 0.41321 0.99886 0.88165 0.0
C529 C 0.43885 0.01771 0.85046 0.0
C530 C 0.38843 0.00927 0.87199 0.0
C531 C 0.39008 0.03917 0.83272 0.0
C532 C 0.41632 0.05845 0.80499 0.0
C533 C 0.43995 0.04711 0.81238 0.0
C534 C 0.36077 0.98896 0.9054 0.0
C535 C 0.41965 0.0912 0.76727 0.0
H536 H 0.3357 0.06213 0.63739 0.0
H537 H 0.33856 0.11065 0.82083 0.0
H538 H 0.38709 0.0307 0.67761 0.0
H539 H 0.36178 1.00015 0.73374 0.0
H540 H 0.3522 0.01858 0.64439 0.0
H541 H 0.34681 0.08116 0.94942 0.0
H542 H 0.36993 0.05597 0.95356 0.0
H543 H 0.38281 0.09608 0.91801 0.0
H544 H 0.41269 0.97675 0.91482 0.0
H545 H 0.46019 0.06224 0.79371 0.0
H546 H 0.34549 0.98484 0.86043 0.0
H547 H 0.35169 1.00042 0.94459 0.0
H548 H 0.3631 0.96674 0.93637 0.0
H549 H 0.40777 0.0922 0.7147 0.0
H550 H 0.44194 0.10355 0.75347 0.0
H551 H 0.41113 0.10365 0.80485 0.0
C552 C 0.41605 0.26643 0.46654 0.0
C553 C 0.43819 0.26495 0.42041 0.0
C554 C 0.42123 0.28553 0.52065 0.0
C555 C 0.44882 0.30377 0.52582 0.0
C556 C 0.47138 0.30042 0.48256 0.0
C557 C 0.46572 0.28087 0.43093 0.0
C558 C 0.39708 0.28744 0.56905 0.0
C559 C 0.50115 0.31953 0.48516 0.0
C560 C 0.46617 0.38561 0.54145 0.0
C561 C 0.48215 0.38537 0.60602 0.0
C562 C 0.45211 0.35854 0.51914 0.0
C563 C 0.45391 0.33055 0.56315 0.0
C564 C 0.46747 0.33011 0.63274 0.0
C565 C 0.48195 0.35768 0.65288 0.0
C566 C 0.43837 0.36017 0.44372 0.0
C567 C 0.46878 0.30065 0.68258 0.0
H568 H 0.39487 0.25352 0.45892 0.0
H569 H 0.48277 0.27921 0.39526 0.0
H570 H 0.40395 0.29039 0.62662 0.0
H571 H 0.38919 0.30739 0.54408 0.0
H572 H 0.37937 0.26682 0.5731 0.0
H573 H 0.51629 0.31285 0.45024 0.0
H574 H 0.5019 0.3438 0.46422 0.0
H575 H 0.50832 0.31751 0.5438 0.0
H576 H 0.46635 0.40703 0.50515 0.0
H577 H 0.49387 0.35754 0.70375 0.0
H578 H 0.41728 0.34415 0.44827 0.0
H579 H 0.45138 0.35359 0.40264 0.0
H580 H 0.43606 0.38337 0.42086 0.0
H581 H 0.449 0.28285 0.68094 0.0
H582 H 0.47262 0.30367 0.74186 0.0
H583 H 0.48629 0.29245 0.66239 0.0
C584 C 0.23729 0.62724 0.76374 0.0
C585 C 0.247 0.64424 0.69258 0.0
C586 C 0.2104 0.62608 0.792 0.0
C587 C 0.19304 0.64206 0.74743 0.0
C588 C 0.20478 0.66333 0.68241 0.0
C589 C 0.23188 0.66441 0.65604 0.0
C590 C 0.19915 0.60417 0.86361 0.0
C591 C 0.18734 0.68147 0.63429 0.0
C592 C 0.11994 0.59255 0.73285 0.0
C593 C 0.10404 0.60275 0.7817 0.0
C594 C 0.14873 0.60593 0.71966 0.0
C595 C 0.16192 0.63028 0.7563 0.0
C596 C 0.14557 0.64163 0.80317 0.0
C597 C 0.11671 0.62739 0.81615 0.0
C598 C 0.16523 0.5929 0.66931 0.0
C599 C 0.15868 0.66764 0.84264 0.0
H600 H 0.24902 0.61191 0.79291 0.0
H601 H 0.23968 0.67816 0.60176 0.0
H602 H 0.18527 0.61333 0.89635 0.0
H603 H 0.18648 0.58255 0.84918 0.0
H604 H 0.21645 0.59907 0.89965 0.0
H605 H 0.20081 0.70163 0.59729 0.0
H606 H 0.17418 0.66692 0.5979 0.0
H607 H 0.17303 0.68908 0.66957 0.0
H608 H 0.11003 0.57305 0.70763 0.0
H609 H 0.10433 0.63474 0.85524 0.0
H610 H 0.18099 0.58314 0.70258 0.0
H611 H 0.17683 0.61106 0.62383 0.0
H612 H 0.15153 0.57477 0.64297 0.0
H613 H 0.1691 0.65898 0.89359 0.0
H614 H 0.14262 0.67847 0.86064 0.0
H615 H 0.17494 0.68515 0.80593 0.0
C616 C 0.9067 0.8144 0.02753 0.0
C617 C 0.92238 0.79283 0.02746 0.0
C618 C 0.91779 0.84443 0.99175 0.0
C619 C 0.94477 0.85221 0.95621 0.0
C620 C 0.95774 0.82941 0.94334 0.0
C621 C 0.94601 0.79959 0.9784 0.0
C622 C 0.90221 0.86824 0.99871 0.0
C623 C 0.98575 0.83698 0.90093 0.0
C624 C 0.9797 0.92933 0.8505 0.0
C625 C 0.99565 0.94302 0.90634 0.0
C626 C 0.9618 0.90058 0.86691 0.0
C627 C 0.96097 0.88398 0.94021 0.0
C628 C 0.97748 0.89689 0.99703 0.0
C629 C 0.99442 0.92672 0.97962 0.0
C630 C 0.9443 0.88854 0.80427 0.0
C631 C 0.97733 0.8791 0.07581 0.0
H632 H 0.88784 0.80878 0.06345 0.0
H633 H 0.95783 0.78277 0.97643 0.0
H634 H 0.9121 0.88161 0.04168 0.0
H635 H 0.90349 0.88424 0.94441 0.0
H636 H 0.87973 0.85792 0.01583 0.0
H637 H 0.99218 0.81631 0.89257 0.0
H638 H 0.98479 0.85107 0.84494 0.0
H639 H 0.00224 0.85041 0.93256 0.0
H640 H 0.98022 0.94132 0.79305 0.0
H641 H 0.00648 0.93717 0.02286 0.0
H642 H 0.93433 0.90617 0.77416 0.0
H643 H 0.92751 0.86764 0.82398 0.0
H644 H 0.95831 0.8838 0.76241 0.0
H645 H 0.95577 0.87273 0.10174 0.0
H646 H 0.99186 0.89214 0.11268 0.0
H647 H 0.98354 0.85771 0.07368 0.0
C648 C 0.72106 0.00386 0.90117 0.0
C649 C 0.70843 0.97717 0.95191 0.0
C650 C 0.70474 0.02147 0.86017 0.0
C651 C 0.67519 0.01175 0.86918 0.0
C652 C 0.66232 0.98266 0.91131 0.0
C653 C 0.67919 0.96571 0.95288 0.0
C654 C 0.71921 0.05219 0.81534 0.0
C655 C 0.63071 0.97091 0.919 0.0
C656 C 0.62892 0.06438 0.88569 0.0
C657 C 0.61462 0.06337 0.81837 0.0
C658 C 0.65069 0.0497 0.9003 0.0
C659 C 0.65797 0.03372 0.84633 0.0
C660 C 0.6464 0.03642 0.77437 0.0
C661 C 0.62536 0.05209 0.76045 0.0
C662 C 0.66364 0.04848 0.97671 0.0
C663 C 0.65333 0.01969 0.71527 0.0
H664 H 0.74366 0.01302 0.90001 0.0
H665 H 0.6694 0.94489 0.99117 0.0
H666 H 0.70844 0.05727 0.76213 0.0
H667 H 0.71847 0.06996 0.84893 0.0
H668 H 0.74162 0.05375 0.80167 0.0
H669 H 0.6222 0.98291 0.95796 0.0
H670 H 0.62101 0.97534 0.8637 0.0
H671 H 0.62428 0.94616 0.94185 0.0
H672 H 0.62112 0.07351 0.93027 0.0
H673 H 0.61487 0.05194 0.7073 0.0
H674 H 0.6868 0.05221 0.97105 0.0
H675 H 0.65515 0.02566 0.01147 0.0
H676 H 0.65898 0.0657 0.00722 0.0
H677 H 0.64979 0.0312 0.65797 0.0
H678 H 0.63928 0.9964 0.72497 0.0
H679 H 0.67535 0.01762 0.71759 0.0
C680 C 0.63336 0.77808 0.26107 0.0
C681 C 0.61697 0.79892 0.26057 0.0
C682 C 0.62643 0.75572 0.21592 0.0
C683 C 0.60207 0.75386 0.17261 0.0
C684 C 0.5878 0.7772 0.16473 0.0
C685 C 0.59575 0.79978 0.20814 0.0
C686 C 0.64286 0.73185 0.22235 0.0
C687 C 0.56126 0.7757 0.12078 0.0
C688 C 0.57422 0.6911 0.06223 0.0
C689 C 0.55535 0.67033 0.11584 0.0
C690 C 0.5902 0.71843 0.07997 0.0
C691 C 0.58725 0.72453 0.15309 0.0
C692 C 0.56826 0.70339 0.20744 0.0
C693 C 0.55236 0.67654 0.18776 0.0
C694 C 0.61009 0.74068 0.02094 0.0
C695 C 0.56453 0.70915 0.28629 0.0
H696 H 0.6499 0.77765 0.30117 0.0
H697 H 0.58282 0.81574 0.20796 0.0
H698 H 0.63185 0.7116 0.26356 0.0
H699 H 0.64442 0.72457 0.16746 0.0
H700 H 0.6644 0.74026 0.24211 0.0
H701 H 0.55598 0.79807 0.1086 0.0
H702 H 0.56317 0.76788 0.06687 0.0
H703 H 0.54344 0.75915 0.15445 0.0
H704 H 0.57637 0.68591 0.00656 0.0
H705 H 0.53798 0.66003 0.22902 0.0
H706 H 0.63186 0.74486 0.04138 0.0
H707 H 0.60448 0.76284 0.01059 0.0
H708 H 0.6098 0.73242 0.96663 0.0
H709 H 0.5849 0.71227 0.31477 0.0
H710 H 0.54894 0.69021 0.32143 0.0
H711 H 0.55744 0.73031 0.28386 0.0
C712 C 0.81338 0.41308 0.98944 0.0
C713 C 0.80209 0.43844 0.97196 0.0
C714 C 0.84042 0.41415 0.96235 0.0
C715 C 0.85661 0.4415 0.91908 0.0
C716 C 0.84381 0.46563 0.89356 0.0
C717 C 0.81642 0.46353 0.91944 0.0
C718 C 0.85276 0.38734 0.98734 0.0
C719 C 0.86024 0.49537 0.84788 0.0
C720 C 0.93325 0.47021 0.96165 0.0
C721 C 0.94652 0.47043 0.89329 0.0
C722 C 0.90396 0.45932 0.9722 0.0
C723 C 0.88782 0.44745 0.91367 0.0
C724 C 0.90161 0.44503 0.84728 0.0
C725 C 0.9308 0.45729 0.83708 0.0
C726 C 0.89012 0.46308 0.04326 0.0
C727 C 0.88539 0.43145 0.78495 0.0
H728 H 0.80229 0.39368 0.03029 0.0
H729 H 0.8078 0.48325 0.9066 0.0
H730 H 0.86664 0.38459 0.9422 0.0
H731 H 0.86568 0.39107 0.03718 0.0
H732 H 0.83602 0.36598 0.00337 0.0
H733 H 0.84631 0.51006 0.8241 0.0
H734 H 0.87537 0.50778 0.88457 0.0
H735 H 0.87253 0.4915 0.80099 0.0
H736 H 0.94543 0.48108 0.00418 0.0
H737 H 0.94116 0.45792 0.78375 0.0
H738 H 0.87638 0.44107 0.07123 0.0
H739 H 0.8766 0.47916 0.02888 0.0
H740 H 0.90572 0.47185 0.08409 0.0
H741 H 0.86854 0.41104 0.80835 0.0
H742 H 0.89936 0.42509 0.74589 0.0
H743 H 0.87522 0.44823 0.75188 0.0
C744 C 0.12466 0.28008 0.37377 0.0
C745 C 0.1031 0.29012 0.40454 0.0
C746 C 0.11885 0.25736 0.32892 0.0
C747 C 0.09075 0.24491 0.31075 0.0
C748 C 0.06909 0.25678 0.33618 0.0
C749 C 0.07543 0.27892 0.38341 0.0
C750 C 0.14271 0.2452 0.3056 0.0
C751 C 0.03893 0.24489 0.31678 0.0
C752 C 0.08003 0.19749 0.15235 0.0
C753 C 0.07333 0.16745 0.19257 0.0
C754 C 0.08527 0.22276 0.18969 0.0
C755 C 0.08405 0.21825 0.2696 0.0
C756 C 0.07759 0.18806 0.31054 0.0
C757 C 0.0723 0.16325 0.27185 0.0
C758 C 0.09212 0.2544 0.14349 0.0
C759 C 0.0767 0.18188 0.39565 0.0
H760 H 0.14615 0.28854 0.38958 0.0
H761 H 0.05854 0.28606 0.40735 0.0
H762 H 0.13955 0.22112 0.33338 0.0
H763 H 0.14302 0.24576 0.24393 0.0
H764 H 0.16354 0.25823 0.32105 0.0
H765 H 0.02512 0.25875 0.33267 0.0
H766 H 0.03746 0.2446 0.25549 0.0
H767 H 0.03093 0.22117 0.34682 0.0
H768 H 0.08073 0.20134 0.09133 0.0
H769 H 0.06779 0.14039 0.30415 0.0
H770 H 0.11354 0.267 0.15565 0.0
H771 H 0.07721 0.26708 0.15918 0.0
H772 H 0.09115 0.25427 0.08201 0.0
H773 H 0.09748 0.19245 0.41649 0.0
H774 H 0.07115 0.1572 0.41943 0.0
H775 H 0.06106 0.19228 0.41756 0.0
C776 C 0.32257 0.11332 0.39675 0.0
C777 C 0.3333 0.1083 0.46906 0.0
C778 C 0.33773 0.11109 0.33233 0.0
C779 C 0.36458 0.10467 0.34011 0.0
C780 C 0.37495 0.09868 0.41295 0.0
C781 C 0.35888 0.09946 0.47583 0.0
C782 C 0.32524 0.11599 0.25592 0.0
C783 C 0.40381 0.09292 0.42478 0.0
C784 C 0.40472 0.07751 0.19728 0.0
C785 C 0.42488 0.1043 0.16677 0.0
C786 C 0.38364 0.07762 0.24975 0.0
C787 C 0.38274 0.10511 0.27323 0.0
C788 C 0.40232 0.13239 0.24045 0.0
C789 C 0.42299 0.13167 0.18763 0.0
C790 C 0.36317 0.04801 0.28284 0.0
C791 C 0.40254 0.16215 0.26449 0.0
H792 H 0.30267 0.11949 0.39025 0.0
H793 H 0.36696 0.09348 0.53085 0.0
H794 H 0.33824 0.13682 0.2204 0.0
H795 H 0.32534 0.0967 0.22699 0.0
H796 H 0.30332 0.11829 0.25967 0.0
H797 H 0.40812 0.08679 0.48531 0.0
H798 H 0.40637 0.07448 0.39565 0.0
H799 H 0.41989 0.11381 0.40014 0.0
H800 H 0.40559 0.0563 0.18074 0.0
H801 H 0.43852 0.15247 0.16517 0.0
H802 H 0.3414 0.05091 0.28367 0.0
H803 H 0.36841 0.04069 0.34199 0.0
H804 H 0.36376 0.02966 0.25096 0.0
H805 H 0.3812 0.16622 0.26153 0.0
H806 H 0.41738 0.1817 0.22908 0.0
H807 H 0.40878 0.16119 0.32398 0.0
C808 C 0.48852 0.30134 0.13548 0.0
C809 C 0.46065 0.28654 0.15979 0.0
C810 C 0.49491 0.32938 0.08469 0.0
C811 C 0.47303 0.3433 0.05833 0.0
C812 C 0.44478 0.32735 0.07846 0.0
C813 C 0.43898 0.29916 0.12778 0.0
C814 C 0.5253 0.3451 0.0635 0.0
C815 C 0.42067 0.3411 0.05261 0.0
C816 C 0.48883 0.43007 0.02028 0.0
C817 C 0.49123 0.43736 0.94124 0.0
C818 C 0.48331 0.39976 0.05852 0.0
C819 C 0.47961 0.37571 0.01716 0.0
C820 C 0.48149 0.38281 0.93727 0.0
C821 C 0.48753 0.41346 0.90039 0.0
C822 C 0.48166 0.3935 0.14362 0.0
C823 C 0.47735 0.35805 0.89068 0.0
H824 H 0.5055 0.29212 0.15991 0.0
H825 H 0.41733 0.28783 0.1454 0.0
H826 H 0.52792 0.35443 1.00225 0.0
H827 H 0.53216 0.36445 0.09384 0.0
H828 H 0.53931 0.32954 0.07813 0.0
H829 H 0.39989 0.32465 0.06646 0.0
H830 H 0.42134 0.36089 0.08033 0.0
H831 H 0.42255 0.34952 0.99092 0.0
H832 H 0.49199 0.44819 0.05277 0.0
H833 H 0.48941 0.4187 0.83939 0.0
H834 H 0.49756 0.38108 0.1656 0.0
H835 H 0.46067 0.3788 0.1641 0.0
H836 H 0.4853 0.41464 0.16763 0.0
H837 H 0.49371 0.34525 0.90338 0.0
H838 H 0.47844 0.36717 0.82928 0.0
H839 H 0.45663 0.34165 0.90536 0.0
C840 C 0.23268 0.57057 0.4965 0.0
C841 C 0.25676 0.59461 0.48004 0.0
C842 C 0.21522 0.56077 0.43923 0.0
C843 C 0.22198 0.57549 0.36354 0.0
C844 C 0.24696 0.59911 0.34636 0.0
C845 C 0.26406 0.6085 0.40512 0.0
C846 C 0.18882 0.53561 0.46028 0.0
C847 C 0.25489 0.61539 0.26653 0.0
C848 C 0.18323 0.53269 0.21645 0.0
C849 C 0.16038 0.5459 0.20241 0.0
C850 C 0.20409 0.54296 0.26629 0.0
C851 C 0.20206 0.5669 0.30354 0.0
C852 C 0.17956 0.58099 0.28796 0.0
C853 C 0.15904 0.57036 0.23759 0.0
C854 C 0.22778 0.52742 0.28119 0.0
C855 C 0.1767 0.60671 0.32626 0.0
H856 H 0.22691 0.56029 0.55484 0.0
H857 H 0.28243 0.62751 0.39294 0.0
H858 H 0.17005 0.54466 0.44724 0.0
H859 H 0.18791 0.51748 0.42665 0.0
H860 H 0.18752 0.52533 0.52104 0.0
H861 H 0.27645 0.63065 0.26155 0.0
H862 H 0.25364 0.59883 0.22815 0.0
H863 H 0.23981 0.62924 0.24712 0.0
H864 H 0.18438 0.51361 0.1903 0.0
H865 H 0.14182 0.58113 0.2261 0.0
H866 H 0.22586 0.51508 0.34026 0.0
H867 H 0.24837 0.54448 0.27424 0.0
H868 H 0.22775 0.51097 0.24304 0.0
H869 H 0.17308 0.59844 0.38781 0.0
H870 H 0.15903 0.61648 0.30464 0.0
H871 H 0.19645 0.62506 0.31807 0.0
C872 C 0.96988 0.78972 0.31346 0.0
C873 C 0.94216 0.77883 0.29228 0.0
C874 C 0.97674 0.81284 0.3579 0.0
C875 C 0.95555 0.82601 0.38052 0.0
C876 C 0.92733 0.81387 0.36255 0.0
C877 C 0.921 0.79025 0.32028 0.0
C878 C 0.00701 0.82441 0.37684 0.0
C879 C 0.90397 0.82739 0.38281 0.0
C880 C 0.96738 0.87689 0.53197 0.0
C881 C 0.97474 0.90641 0.4887 0.0
C882 C 0.9616 0.8507 0.49791 0.0
C883 C 0.9629 0.85368 0.41824 0.0
C884 C 0.9701 0.88336 0.37425 0.0
C885 C 0.97596 0.9091 0.40971 0.0
C886 C 0.95409 0.8197 0.54731 0.0
C887 C 0.97121 0.888 0.28923 0.0
H888 H 0.98651 0.78169 0.29107 0.0
H889 H 0.89955 0.78236 0.30348 0.0
H890 H 0.01557 0.84755 0.34389 0.0
H891 H 0.00853 0.82609 0.43741 0.0
H892 H 0.02031 0.80953 0.36396 0.0
H893 H 0.88293 0.81426 0.36901 0.0
H894 H 0.90386 0.82842 0.44373 0.0
H895 H 0.90755 0.85102 0.35149 0.0
H896 H 0.96654 0.87418 0.59285 0.0
H897 H 0.98103 0.93153 0.37504 0.0
H898 H 0.9686 0.80617 0.53403 0.0
H899 H 0.93251 0.80729 0.53586 0.0
H900 H 0.95507 0.82097 0.60823 0.0
H901 H 0.98646 0.87656 0.26969 0.0
H902 H 0.97738 0.9124 0.26284 0.0
H903 H 0.95031 0.87754 0.2688 0.0
C904 C 0.70026 0.99489 0.21313 0.0
C905 C 0.72302 0.98122 0.21657 0.0
C906 C 0.68487 0.99509 0.27801 0.0
C907 C 0.69362 0.98356 0.3497 0.0
C908 C 0.7184 0.97274 0.35437 0.0
C909 C 0.7325 0.97114 0.28775 0.0
C910 C 0.65808 0.00578 0.26905 0.0
C911 C 0.72941 0.96146 0.4293 0.0
C912 C 0.65416 0.00428 0.50569 0.0
C913 C 0.63319 0.97729 0.52907 0.0
C914 C 0.67529 0.00602 0.45148 0.0
C915 C 0.67509 0.98047 0.4178 0.0
C916 C 0.65478 0.95281 0.44361 0.0
C917 C 0.63419 0.95158 0.49864 0.0
C918 C 0.6979 0.03519 0.43038 0.0
C919 C 0.6547 0.92421 0.414 0.0
H920 H 0.6935 0.00432 0.15887 0.0
H921 H 0.75023 0.96094 0.29159 0.0
H922 H 0.63999 0.9873 0.29553 0.0
H923 H 0.65944 0.02532 0.29799 0.0
H924 H 0.65357 0.01278 0.20902 0.0
H925 H 0.75257 0.9646 0.42539 0.0
H926 H 0.72437 0.9733 0.47389 0.0
H927 H 0.71967 0.93681 0.44641 0.0
H928 H 0.65418 0.02413 0.52992 0.0
H929 H 0.61833 0.93051 0.51626 0.0
H930 H 0.69478 0.04666 0.37277 0.0
H931 H 0.71893 0.03027 0.43009 0.0
H932 H 0.69783 0.05115 0.46976 0.0
H933 H 0.66115 0.92908 0.35347 0.0
H934 H 0.63372 0.90782 0.42244 0.0
H935 H 0.66994 0.91304 0.44547 0.0
C936 C 0.59997 0.77252 0.56929 0.0
C937 C 0.58113 0.78112 0.51594 0.0
C938 C 0.59329 0.74384 0.61703 0.0
C939 C 0.56721 0.72283 0.61084 0.0
C940 C 0.54736 0.73223 0.5605 0.0
C941 C 0.55456 0.76117 0.51373 0.0
C942 C 0.61507 0.73525 0.67011 0.0
C943 C 0.51928 0.71086 0.55175 0.0
C944 C 0.56428 0.63765 0.65716 0.0
C945 C 0.55065 0.62873 0.72871 0.0
C946 C 0.5698 0.66805 0.61861 0.0
C947 C 0.56169 0.69042 0.65214 0.0
C948 C 0.54832 0.68165 0.72478 0.0
C949 C 0.54294 0.65111 0.76186 0.0
C950 C 0.5841 0.67619 0.54134 0.0
C951 C 0.53946 0.70453 0.76323 0.0
H952 H 0.62084 0.78742 0.56983 0.0
H953 H 0.54025 0.76719 0.47105 0.0
H954 H 0.60538 0.72462 0.72683 0.0
H955 H 0.62398 0.71827 0.64883 0.0
H956 H 0.63258 0.75517 0.67561 0.0
H957 H 0.50492 0.72261 0.51768 0.0
H958 H 0.52254 0.69242 0.52352 0.0
H959 H 0.50893 0.70009 0.60767 0.0
H960 H 0.57028 0.62076 0.63052 0.0
H961 H 0.53245 0.64477 0.81706 0.0
H962 H 0.60382 0.69426 0.54108 0.0
H963 H 0.57029 0.68536 0.49943 0.0
H964 H 0.58929 0.65639 0.52302 0.0
H965 H 0.55794 0.72343 0.76869 0.0
H966 H 0.52969 0.69432 0.82018 0.0
H967 H 0.52415 0.71452 0.72853 0.0
C968 C 0.82652 0.48819 0.1942 0.0
C969 C 0.79745 0.47527 0.20541 0.0
C970 C 0.84325 0.49763 0.25292 0.0
C971 C 0.83062 0.49472 0.32492 0.0
C972 C 0.80118 0.48225 0.33661 0.0
C973 C 0.78488 0.47267 0.27652 0.0
C974 C 0.87451 0.51073 0.23764 0.0
C975 C 0.78699 0.4789 0.41256 0.0
C976 C 0.8825 0.4979 0.48287 0.0
C977 C 0.8891 0.52887 0.48793 0.0
C978 C 0.86246 0.48607 0.43266 0.0
C979 C 0.8485 0.50561 0.38665 0.0
C980 C 0.85416 0.53655 0.39378 0.0
C981 C 0.87444 0.54781 0.44392 0.0
C982 C 0.85715 0.45297 0.42649 0.0
C983 C 0.83976 0.55815 0.34578 0.0
H984 H 0.83632 0.49097 0.13889 0.0
H985 H 0.76246 0.4627 0.28543 0.0
H986 H 0.88053 0.53451 0.24737 0.0
H987 H 0.88643 0.49761 0.27701 0.0
H988 H 0.88113 0.5105 0.17904 0.0
H989 H 0.76393 0.46899 0.41235 0.0
H990 H 0.79617 0.46412 0.45556 0.0
H991 H 0.79076 0.50138 0.43003 0.0
H992 H 0.89326 0.48289 0.51758 0.0
H993 H 0.87952 0.57181 0.4465 0.0
H994 H 0.86513 0.45103 0.37067 0.0
H995 H 0.83424 0.44211 0.43043 0.0
H996 H 0.86764 0.44018 0.47095 0.0
H997 H 0.84714 0.5617 0.28615 0.0
H998 H 0.84411 0.5806 0.36381 0.0
H999 H 0.81666 0.54839 0.34812 0.0
loop_
_geom_bond_atom_site_label_1
_geom_bond_atom_site_label_2
_geom_bond_distance
_geom_bond_site_symmetry_2
_ccdc_geom_bond_type
H0 C3 0.931 . S
H1 C6 0.928 . S
H2 C8 0.930 . S
C3 H0 0.931 . S
C3 C4 1.413 . S
C3 C5 1.360 1_554 S
C4 C3 1.413 . S
C4 C8 1.429 . S
C5 C3 1.360 1_556 S
C5 C6 1.372 . S
C6 H1 0.928 . S
C6 C5 1.372 . S
C6 C7 1.404 1_556 S
C7 C6 1.404 1_554 S
C7 C8 1.391 . S
C8 H2 0.930 . S
C8 C4 1.429 . S
C8 C7 1.391 . S
H9 C12 0.931 . S
H10 C15 0.928 . S
H11 C17 0.930 . S
C12 H9 0.931 . S
C12 C13 1.413 . S
C12 C14 1.360 1_554 S
C13 C12 1.413 . S
C13 C17 1.429 . S
C14 C12 1.360 1_556 S
C14 C15 1.372 . S
C15 H10 0.928 . S
C15 C14 1.372 . S
C15 C16 1.404 1_556 S
C16 C15 1.404 1_554 S
C16 C17 1.391 . S
C17 H11 0.930 . S
C17 C13 1.429 . S
C17 C16 1.391 . S
H18 C21 0.931 . S
H19 C24 0.928 . S
H20 C26 0.930 . S
C21 H18 0.931 . S
C21 C22 1.413 . S
C21 C23 1.360 1_554 S
C22 C21 1.413 . S
C22 C26 1.429 . S
C23 C21 1.360 1_556 S
C23 C24 1.372 . S
C24 H19 0.928 . S
C24 C23 1.372 . S
C24 C25 1.404 . S
C25 C24 1.404 . S
C25 C26 1.391 1_556 S
C26 H20 0.930 . S
C26 C22 1.429 . S
C26 C25 1.391 1_554 S
H27 C30 0.931 . S
H28 C33 0.928 . S
H29 C35 0.930 . S
C30 H27 0.931 . S
C30 C31 1.413 . S
C30 C32 1.360 . S
C31 C30 1.413 . S
C31 C35 1.429 . S
C32 C30 1.360 . S
C32 C33 1.372 . S
C33 H28 0.928 . S
C33 C32 1.372 . S
C33 C34 1.404 . S
C34 C33 1.404 . S
C34 C35 1.391 . S
C35 H29 0.930 . S
C35 C31 1.429 . S
C35 C34 1.391 . S
H36 C39 0.931 . S
H37 C42 0.928 . S
H38 C44 0.930 . S
C39 H36 0.931 . S
C39 C40 1.413 . S
C39 C41 1.360 . S
C40 C39 1.413 . S
C40 C44 1.429 . S
C41 C39 1.360 . S
C41 C42 1.372 . S
C42 H37 0.928 . S
C42 C41 1.372 . S
C42 C43 1.404 . S
C43 C42 1.404 . S
C43 C44 1.391 . S
C44 H38 0.930 . S
C44 C40 1.429 . S
C44 C43 1.391 . S
H45 C48 0.931 . S
H46 C51 0.928 . S
H47 C53 0.930 . S
C48 H45 0.931 . S
C48 C49 1.413 . S
C48 C50 1.360 . S
C49 C48 1.413 . S
C49 C53 1.429 . S
C50 C48 1.360 . S
C50 C51 1.372 . S
C51 H46 0.928 . S
C51 C50 1.372 . S
C51 C52 1.404 . S
C52 C51 1.404 . S
C52 C53 1.391 . S
C53 H47 0.930 . S
C53 C49 1.429 . S
C53 C52 1.391 . S
H54 C57 0.931 . S
H55 C60 0.928 . S
H56 C62 0.930 . S
C57 H54 0.931 . S
C57 C58 1.413 . S
C57 C59 1.360 . S
C58 C57 1.413 . S
C58 C62 1.429 . S
C59 C57 1.360 . S
C59 C60 1.372 . S
C60 H55 0.928 . S
C60 C59 1.372 . S
C60 C61 1.404 . S
C61 C60 1.404 . S
C61 C62 1.391 . S
C62 H56 0.930 . S
C62 C58 1.429 . S
C62 C61 1.391 . S
H63 C66 0.931 . S
H64 C69 0.928 . S
H65 C71 0.930 . S
C66 H63 0.931 . S
C66 C67 1.413 . S
C66 C68 1.360 . S
C67 C66 1.413 . S
C67 C71 1.429 . S
C68 C66 1.360 . S
C68 C69 1.372 . S
C69 H64 0.928 . S
C69 C68 1.372 . S
C69 C70 1.404 . S
C70 C69 1.404 . S
C70 C71 1.391 . S
C71 H65 0.930 . S
C71 C67 1.429 . S
C71 C70 1.391 . S
Nd72 C74 2.842 1_545 S
Nd72 O92 2.500 1_445 S
Nd72 O93 2.492 1_545 S
Nd72 O94 2.487 . S
Nd72 O95 2.682 . S
Nd72 O96 2.410 1_545 S
Nd72 O101 2.414 1_455 S
Nd72 O103 2.424 . S
Nd73 C83 2.836 1_556 S
Nd73 O95 2.414 . S
Nd73 O97 2.424 1_545 S
Nd73 O98 2.500 . S
Nd73 O99 2.492 1_556 S
Nd73 O100 2.487 1_455 S
Nd73 O101 2.682 1_455 S
Nd73 O102 2.410 . S
C74 Nd72 2.842 1_565 S
C74 C75 1.493 1_455 S
C74 O92 1.233 1_455 S
C74 O93 1.269 . S
C75 C74 1.493 1_655 S
C75 C76 1.366 . S
C75 C80 1.407 1_655 S
C76 C75 1.366 . S
C76 C77 1.392 . S
C76 H104 0.930 . S
C77 C76 1.392 . S
C77 C78 1.398 . S
C77 H105 0.929 . S
C78 C77 1.398 . S
C78 C79 1.352 . S
C79 C78 1.352 . S
C79 C80 1.384 1_655 S
C79 H106 0.930 1_655 S
C80 C75 1.407 1_455 S
C80 C79 1.384 1_455 S
C80 H107 0.929 . S
C81 O94 1.241 . S
C81 O95 1.273 . S
C82 O96 1.251 . S
C82 O97 1.268 . S
C83 Nd73 2.836 1_554 S
C83 C84 1.498 . S
C83 O98 1.258 1_554 S
C83 O99 1.239 . S
C84 C83 1.498 . S
C84 C85 1.366 . S
C84 C89 1.407 . S
C85 C84 1.366 . S
C85 C86 1.392 . S
C85 H108 0.930 . S
C86 C85 1.392 . S
C86 C87 1.398 . S
C86 H109 0.929 . S
C87 C86 1.398 . S
C87 C88 1.352 . S
C88 C87 1.352 . S
C88 C89 1.384 . S
C88 H110 0.930 . S
C89 C84 1.407 . S
C89 C88 1.384 . S
C89 H111 0.929 . S
C90 O100 1.241 . S
C90 O101 1.273 . S
C91 O102 1.251 . S
C91 O103 1.268 . S
O92 Nd72 2.500 1_665 S
O92 C74 1.233 1_655 S
O93 Nd72 2.492 1_565 S
O93 C74 1.269 . S
O94 Nd72 2.487 . S
O94 C81 1.241 . S
O95 Nd72 2.682 . S
O95 Nd73 2.414 . S
O95 C81 1.273 . S
O96 Nd72 2.410 1_565 S
O96 C82 1.251 . S
O97 Nd73 2.424 1_565 S
O97 C82 1.268 . S
O98 Nd73 2.500 . S
O98 C83 1.258 1_556 S
O99 Nd73 2.492 1_554 S
O99 C83 1.239 . S
O100 Nd73 2.487 1_655 S
O100 C90 1.241 . S
O101 Nd72 2.414 1_655 S
O101 Nd73 2.682 1_655 S
O101 C90 1.273 . S
O102 Nd73 2.410 . S
O102 C91 1.251 . S
O103 Nd72 2.424 . S
O103 C91 1.268 . S
H104 C76 0.930 . S
H105 C77 0.929 . S
H106 C79 0.930 1_455 S
H107 C80 0.929 . S
H108 C85 0.930 . S
H109 C86 0.929 . S
H110 C88 0.930 . S
H111 C89 0.929 . S
Nd112 C114 2.836 1_545 S
Nd112 O132 2.500 1_545 S
Nd112 O133 2.492 . S
Nd112 O134 2.487 . S
Nd112 O135 2.682 . S
Nd112 O136 2.410 . S
Nd112 O141 2.414 . S
Nd112 O143 2.424 . S
Nd113 C123 2.836 1_556 S
Nd113 O135 2.414 . S
Nd113 O137 2.424 . S
Nd113 O138 2.500 . S
Nd113 O139 2.492 1_556 S
Nd113 O140 2.489 1_545 S
Nd113 O141 2.682 . S
Nd113 O142 2.410 . S
C114 Nd112 2.836 1_565 S
C114 C115 1.498 . S
C114 O132 1.258 . S
C114 O133 1.239 1_565 S
C115 C114 1.498 . S
C115 C116 1.366 . S
C115 C120 1.407 1_565 S
C116 C115 1.366 . S
C116 C117 1.392 . S
C116 H144 0.930 . S
C117 C116 1.392 . S
C117 C118 1.398 . S
C117 H145 0.929 . S
C118 C117 1.398 . S
C118 C119 1.352 . S
C119 C118 1.352 . S
C119 C120 1.384 1_565 S
C119 H146 0.932 . S
C120 C115 1.407 1_545 S
C120 C119 1.384 1_545 S
C120 H147 0.929 . S
C121 O134 1.241 . S
C121 O135 1.273 . S
C122 O136 1.251 . S
C122 O137 1.268 . S
C123 Nd113 2.836 1_554 S
C123 C124 1.498 . S
C123 O138 1.258 1_554 S
C123 O139 1.239 . S
C124 C123 1.498 . S
C124 C125 1.366 . S
C124 C129 1.407 . S
C125 C124 1.366 . S
C125 C126 1.392 . S
C125 H148 0.930 1_554 S
C126 C125 1.392 . S
C126 C127 1.398 . S
C126 H149 0.929 . S
C127 C126 1.398 . S
C127 C128 1.352 . S
C128 C127 1.352 . S
C128 C129 1.384 . S
C128 H150 0.930 . S
C129 C124 1.407 . S
C129 C128 1.384 . S
C129 H151 0.929 . S
C130 O140 1.247 . S
C130 O141 1.273 1_565 S
C131 O142 1.251 . S
C131 O143 1.268 . S
O132 Nd112 2.500 1_565 S
O132 C114 1.258 . S
O133 Nd112 2.492 . S
O133 C114 1.239 1_545 S
O134 Nd112 2.487 . S
O134 C121 1.241 . S
O135 Nd112 2.682 . S
O135 Nd113 2.414 . S
O135 C121 1.273 . S
O136 Nd112 2.410 . S
O136 C122 1.251 . S
O137 Nd113 2.424 . S
O137 C122 1.268 . S
O138 Nd113 2.500 . S
O138 C123 1.258 1_556 S
O139 Nd113 2.492 1_554 S
O139 C123 1.239 . S
O140 Nd113 2.489 1_565 S
O140 C130 1.247 . S
O141 Nd112 2.414 . S
O141 Nd113 2.682 . S
O141 C130 1.273 1_545 S
O142 Nd113 2.410 . S
O142 C131 1.251 . S
O143 Nd112 2.424 . S
O143 C131 1.268 . S
H144 C116 0.930 . S
H145 C117 0.929 . S
H146 C119 0.932 . S
H147 C120 0.929 . S
H148 C125 0.930 1_556 S
H149 C126 0.929 . S
H150 C128 0.930 . S
H151 C129 0.929 . S
Nd152 C154 2.836 . S
Nd152 O172 2.500 . S
Nd152 O173 2.492 . S
Nd152 O174 2.487 . S
Nd152 O175 2.682 . S
Nd152 O176 2.410 . S
Nd152 O181 2.414 . S
Nd152 O183 2.424 . S
Nd153 C163 2.836 . S
Nd153 O175 2.414 . S
Nd153 O177 2.424 . S
Nd153 O178 2.500 . S
Nd153 O179 2.492 . S
Nd153 O180 2.487 . S
Nd153 O181 2.682 . S
Nd153 O182 2.410 . S
C154 Nd152 2.836 . S
C154 C155 1.498 1_556 S
C154 O172 1.258 . S
C154 O173 1.239 . S
C155 C154 1.498 1_554 S
C155 C156 1.366 1_554 S
C155 C160 1.407 . S
C156 C155 1.366 1_556 S
C156 C157 1.392 . S
C156 H184 0.930 . S
C157 C156 1.392 . S
C157 C158 1.398 1_556 S
C157 H185 0.929 . S
C158 C157 1.398 1_554 S
C158 C159 1.352 . S
C159 C158 1.352 . S
C159 C160 1.384 . S
C159 H186 0.930 . S
C160 C155 1.407 . S
C160 C159 1.384 . S
C160 H187 0.929 . S
C161 O174 1.241 . S
C161 O175 1.273 . S
C162 O176 1.251 . S
C162 O177 1.268 . S
C163 Nd153 2.836 . S
C163 C164 1.498 . S
C163 O178 1.258 . S
C163 O179 1.239 . S
C164 C163 1.498 . S
C164 C165 1.366 . S
C164 C169 1.407 . S
C165 C164 1.366 . S
C165 C166 1.392 . S
C165 H188 0.930 . S
C166 C165 1.392 . S
C166 C167 1.398 . S
C166 H189 0.929 . S
C167 C166 1.398 . S
C167 C168 1.352 . S
C168 C167 1.352 . S
C168 C169 1.384 . S
C168 H190 0.930 . S
C169 C164 1.407 . S
C169 C168 1.384 . S
C169 H191 0.929 . S
C170 O180 1.241 . S
C170 O181 1.273 . S
C171 O182 1.251 . S
C171 O183 1.268 . S
O172 Nd152 2.500 . S
O172 C154 1.258 . S
O173 Nd152 2.492 . S
O173 C154 1.239 . S
O174 Nd152 2.487 . S
O174 C161 1.241 . S
O175 Nd152 2.682 . S
O175 Nd153 2.414 . S
O175 C161 1.273 . S
O176 Nd152 2.410 . S
O176 C162 1.251 . S
O177 Nd153 2.424 . S
O177 C162 1.268 . S
O178 Nd153 2.500 . S
O178 C163 1.258 . S
O179 Nd153 2.492 . S
O179 C163 1.239 . S
O180 Nd153 2.487 . S
O180 C170 1.241 . S
O181 Nd152 2.414 . S
O181 Nd153 2.682 . S
O181 C170 1.273 . S
O182 Nd153 2.410 . S
O182 C171 1.251 . S
O183 Nd152 2.424 . S
O183 C171 1.268 . S
H184 C156 0.930 . S
H185 C157 0.929 . S
H186 C159 0.930 . S
H187 C160 0.929 . S
H188 C165 0.930 . S
H189 C166 0.929 . S
H190 C168 0.930 . S
H191 C169 0.929 . S
Nd192 C194 2.836 1_455 S
Nd192 O212 2.500 1_455 S
Nd192 O213 2.492 1_455 S
Nd192 O214 2.487 . S
Nd192 O215 2.682 . S
Nd192 O216 2.410 1_455 S
Nd192 O221 2.414 . S
Nd192 O223 2.424 . S
Nd193 C203 2.836 1_556 S
Nd193 O215 2.414 . S
Nd193 O217 2.424 1_455 S
Nd193 O218 2.500 . S
Nd193 O219 2.492 1_556 S
Nd193 O220 2.487 . S
Nd193 O221 2.682 . S
Nd193 O222 2.410 . S
C194 Nd192 2.836 1_655 S
C194 C195 1.498 . S
C194 O212 1.258 . S
C194 O213 1.239 . S
C195 C194 1.498 . S
C195 C196 1.366 . S
C195 C200 1.407 . S
C196 C195 1.366 . S
C196 C197 1.392 . S
C196 H224 0.930 . S
C197 C196 1.392 . S
C197 C198 1.398 . S
C197 H225 0.929 . S
C198 C197 1.398 . S
C198 C199 1.352 . S
C199 C198 1.352 . S
C199 C200 1.384 . S
C199 H226 0.930 . S
C200 C195 1.407 . S
C200 C199 1.384 . S
C200 H227 0.929 . S
C201 O214 1.241 . S
C201 O215 1.273 . S
C202 O216 1.251 . S
C202 O217 1.268 . S
C203 Nd193 2.836 1_554 S
C203 C204 1.498 . S
C203 O218 1.258 1_554 S
C203 O219 1.239 . S
C204 C203 1.498 . S
C204 C205 1.366 . S
C204 C209 1.407 . S
C205 C204 1.366 . S
C205 C206 1.392 . S
C205 H228 0.930 . S
C206 C205 1.392 . S
C206 C207 1.398 . S
C206 H229 0.929 . S
C207 C206 1.398 . S
C207 C208 1.352 . S
C208 C207 1.352 . S
C208 C209 1.384 . S
C208 H230 0.930 . S
C209 C204 1.407 . S
C209 C208 1.384 . S
C209 H231 0.929 . S
C210 O220 1.241 . S
C210 O221 1.273 . S
C211 O222 1.251 . S
C211 O223 1.268 . S
O212 Nd192 2.500 1_655 S
O212 C194 1.258 . S
O213 Nd192 2.492 1_655 S
O213 C194 1.239 . S
O214 Nd192 2.487 . S
O214 C201 1.241 . S
O215 Nd192 2.682 . S
O215 Nd193 2.414 . S
O215 C201 1.273 . S
O216 Nd192 2.410 1_655 S
O216 C202 1.251 . S
O217 Nd193 2.424 1_655 S
O217 C202 1.268 . S
O218 Nd193 2.500 . S
O218 C203 1.258 1_556 S
O219 Nd193 2.492 1_554 S
O219 C203 1.239 . S
O220 Nd193 2.487 . S
O220 C210 1.241 . S
O221 Nd192 2.414 . S
O221 Nd193 2.682 . S
O221 C210 1.273 . S
O222 Nd193 2.410 . S
O222 C211 1.251 . S
O223 Nd192 2.424 . S
O223 C211 1.268 . S
H224 C196 0.930 . S
H225 C197 0.929 . S
H226 C199 0.930 . S
H227 C200 0.929 . S
H228 C205 0.930 . S
H229 C206 0.929 . S
H230 C208 0.930 . S
H231 C209 0.929 . S
C232 C233 1.391 . S
C232 C234 1.394 . S
C232 H248 0.931 . S
C233 C232 1.391 . S
C233 C237 1.376 . S
C234 C232 1.394 . S
C234 C235 1.369 . S
C234 C238 1.531 . S
C235 C234 1.369 . S
C235 C236 1.410 . S
C235 C243 1.503 . S
C236 C235 1.410 . S
C236 C237 1.392 . S
C236 C239 1.511 . S
C237 C233 1.376 . S
C237 C236 1.392 . S
C237 H249 0.929 . S
C238 C234 1.531 . S
C238 H250 0.960 . S
C238 H251 0.962 . S
C238 H252 0.960 . S
C239 C236 1.511 . S
C239 H253 0.961 . S
C239 H254 0.961 . S
C239 H255 0.961 . S
C240 C241 1.370 . S
C240 C242 1.363 . S
C240 H256 0.931 . S
C241 C240 1.370 . S
C241 C245 1.408 . S
C242 C240 1.363 . S
C242 C243 1.370 . S
C242 C246 1.524 . S
C243 C235 1.503 . S
C243 C242 1.370 . S
C243 C244 1.403 . S
C244 C243 1.403 . S
C244 C245 1.404 . S
C244 C247 1.539 1_545 S
C245 C241 1.408 . S
C245 C244 1.404 . S
C245 H257 0.930 1_545 S
C246 C242 1.524 . S
C246 H258 0.956 . S
C246 H259 0.961 . S
C246 H260 0.961 . S
C247 C244 1.539 1_565 S
C247 H261 0.958 . S
C247 H262 0.961 . S
C247 H263 0.960 1_565 S
H248 C232 0.931 . S
H249 C237 0.929 . S
H250 C238 0.960 . S
H251 C238 0.962 . S
H252 C238 0.960 . S
H253 C239 0.961 . S
H254 C239 0.961 . S
H255 C239 0.961 . S
H256 C240 0.931 . S
H257 C245 0.930 1_565 S
H258 C246 0.956 . S
H259 C246 0.961 . S
H260 C246 0.961 . S
H261 C247 0.958 . S
H262 C247 0.961 . S
H263 C247 0.960 1_545 S
C264 C265 1.391 . S
C264 C266 1.394 . S
C264 H280 0.931 . S
C265 C264 1.391 . S
C265 C269 1.376 . S
C266 C264 1.394 . S
C266 C267 1.369 . S
C266 C270 1.531 . S
C267 C266 1.369 . S
C267 C268 1.410 . S
C267 C275 1.503 . S
C268 C267 1.410 . S
C268 C269 1.392 . S
C268 C271 1.511 . S
C269 C265 1.376 . S
C269 C268 1.392 . S
C269 H281 0.929 . S
C270 C266 1.531 . S
C270 H282 0.960 . S
C270 H283 0.962 . S
C270 H284 0.960 . S
C271 C268 1.511 . S
C271 H285 0.961 . S
C271 H286 0.961 . S
C271 H287 0.961 . S
C272 C273 1.370 . S
C272 C274 1.363 . S
C272 H288 0.931 . S
C273 C272 1.370 . S
C273 C277 1.408 . S
C274 C272 1.363 . S
C274 C275 1.370 . S
C274 C278 1.524 . S
C275 C267 1.503 . S
C275 C274 1.370 . S
C275 C276 1.403 . S
C276 C275 1.403 . S
C276 C277 1.404 . S
C276 C279 1.539 . S
C277 C273 1.408 . S
C277 C276 1.404 . S
C277 H289 0.930 . S
C278 C274 1.524 . S
C278 H290 0.956 . S
C278 H291 0.961 . S
C278 H292 0.961 . S
C279 C276 1.539 . S
C279 H293 0.958 . S
C279 H294 0.961 . S
C279 H295 0.960 . S
H280 C264 0.931 . S
H281 C269 0.929 . S
H282 C270 0.960 . S
H283 C270 0.962 . S
H284 C270 0.960 . S
H285 C271 0.961 . S
H286 C271 0.961 . S
H287 C271 0.961 . S
H288 C272 0.931 . S
H289 C277 0.930 . S
H290 C278 0.956 . S
H291 C278 0.961 . S
H292 C278 0.961 . S
H293 C279 0.958 . S
H294 C279 0.961 . S
H295 C279 0.960 . S
C296 C297 1.391 . S
C296 C298 1.394 . S
C296 H312 0.931 . S
C297 C296 1.391 . S
C297 C301 1.376 . S
C298 C296 1.394 . S
C298 C299 1.369 . S
C298 C302 1.531 . S
C299 C298 1.369 . S
C299 C300 1.410 . S
C299 C307 1.503 . S
C300 C299 1.410 . S
C300 C301 1.392 . S
C300 C303 1.511 . S
C301 C297 1.376 . S
C301 C300 1.392 . S
C301 H313 0.929 . S
C302 C298 1.531 . S
C302 H314 0.960 . S
C302 H315 0.962 . S
C302 H316 0.960 . S
C303 C300 1.511 . S
C303 H317 0.961 . S
C303 H318 0.961 . S
C303 H319 0.961 . S
C304 C305 1.370 . S
C304 C306 1.363 . S
C304 H320 0.931 . S
C305 C304 1.370 . S
C305 C309 1.408 . S
C306 C304 1.363 . S
C306 C307 1.370 . S
C306 C310 1.524 . S
C307 C299 1.503 . S
C307 C306 1.370 . S
C307 C308 1.403 . S
C308 C307 1.403 . S
C308 C309 1.404 . S
C308 C311 1.539 . S
C309 C305 1.408 . S
C309 C308 1.404 . S
C309 H321 0.930 . S
C310 C306 1.524 . S
C310 H322 0.956 . S
C310 H323 0.961 . S
C310 H324 0.961 . S
C311 C308 1.539 . S
C311 H325 0.958 . S
C311 H326 0.961 . S
C311 H327 0.960 . S
H312 C296 0.931 . S
H313 C301 0.929 . S
H314 C302 0.960 . S
H315 C302 0.962 . S
H316 C302 0.960 . S
H317 C303 0.961 . S
H318 C303 0.961 . S
H319 C303 0.961 . S
H320 C304 0.931 . S
H321 C309 0.930 . S
H322 C310 0.956 . S
H323 C310 0.961 . S
H324 C310 0.961 . S
H325 C311 0.958 . S
H326 C311 0.961 . S
H327 C311 0.960 . S
C328 C329 1.391 . S
C328 C330 1.394 . S
C328 H344 0.931 . S
C329 C328 1.391 . S
C329 C333 1.376 . S
C330 C328 1.394 . S
C330 C331 1.369 . S
C330 C334 1.531 . S
C331 C330 1.369 . S
C331 C332 1.410 . S
C331 C339 1.503 . S
C332 C331 1.410 . S
C332 C333 1.392 . S
C332 C335 1.511 . S
C333 C329 1.376 . S
C333 C332 1.392 . S
C333 H345 0.929 . S
C334 C330 1.531 . S
C334 H346 0.960 . S
C334 H347 0.962 . S
C334 H348 0.960 . S
C335 C332 1.511 . S
C335 H349 0.961 . S
C335 H350 0.961 . S
C335 H351 0.961 . S
C336 C337 1.370 . S
C336 C338 1.363 . S
C336 H352 0.931 . S
C337 C336 1.370 . S
C337 C341 1.408 . S
C338 C336 1.363 . S
C338 C339 1.370 . S
C338 C342 1.524 . S
C339 C331 1.503 . S
C339 C338 1.370 . S
C339 C340 1.403 . S
C340 C339 1.403 . S
C340 C341 1.404 . S
C340 C343 1.539 . S
C341 C337 1.408 . S
C341 C340 1.404 . S
C341 H353 0.930 . S
C342 C338 1.524 . S
C342 H354 0.956 . S
C342 H355 0.961 . S
C342 H356 0.961 . S
C343 C340 1.539 . S
C343 H357 0.958 . S
C343 H358 0.961 . S
C343 H359 0.960 . S
H344 C328 0.931 . S
H345 C333 0.929 . S
H346 C334 0.960 . S
H347 C334 0.962 . S
H348 C334 0.960 . S
H349 C335 0.961 . S
H350 C335 0.961 . S
H351 C335 0.961 . S
H352 C336 0.931 . S
H353 C341 0.930 . S
H354 C342 0.956 . S
H355 C342 0.961 . S
H356 C342 0.961 . S
H357 C343 0.958 . S
H358 C343 0.961 . S
H359 C343 0.960 . S
C360 C361 1.391 . S
C360 C362 1.394 1_565 S
C360 H376 0.933 . S
C361 C360 1.391 . S
C361 C365 1.376 1_556 S
C362 C360 1.394 1_545 S
C362 C363 1.369 . S
C362 C366 1.531 . S
C363 C362 1.369 . S
C363 C364 1.410 1_546 S
C363 C371 1.503 . S
C364 C363 1.410 1_564 S
C364 C365 1.392 . S
C364 C367 1.511 . S
C365 C361 1.376 1_554 S
C365 C364 1.392 . S
C365 H377 0.929 . S
C366 C362 1.531 . S
C366 H378 0.960 . S
C366 H379 0.962 . S
C366 H380 0.960 . S
C367 C364 1.511 . S
C367 H381 0.961 . S
C367 H382 0.961 . S
C367 H383 0.961 1_565 S
C368 C369 1.370 1_565 S
C368 C370 1.363 . S
C368 H384 0.931 . S
C369 C368 1.370 1_545 S
C369 C373 1.408 . S
C370 C368 1.363 . S
C370 C371 1.370 1_565 S
C370 C374 1.524 . S
C371 C363 1.503 . S
C371 C370 1.370 1_545 S
C371 C372 1.403 . S
C372 C371 1.403 . S
C372 C373 1.404 . S
C372 C375 1.539 . S
C373 C369 1.408 . S
C373 C372 1.404 . S
C373 H385 0.930 . S
C374 C370 1.524 . S
C374 H386 0.956 . S
C374 H387 0.961 . S
C374 H388 0.961 . S
C375 C372 1.539 . S
C375 H389 0.958 . S
C375 H390 0.961 . S
C375 H391 0.960 . S
H376 C360 0.933 . S
H377 C365 0.929 . S
H378 C366 0.960 . S
H379 C366 0.962 . S
H380 C366 0.960 . S
H381 C367 0.961 . S
H382 C367 0.961 . S
H383 C367 0.961 1_545 S
H384 C368 0.931 . S
H385 C373 0.930 . S
H386 C374 0.956 . S
H387 C374 0.961 . S
H388 C374 0.961 . S
H389 C375 0.958 . S
H390 C375 0.961 . S
H391 C375 0.960 . S
C392 C393 1.391 . S
C392 C394 1.394 . S
C392 H408 0.931 . S
C393 C392 1.391 . S
C393 C397 1.376 . S
C394 C392 1.394 . S
C394 C395 1.369 . S
C394 C398 1.531 . S
C395 C394 1.369 . S
C395 C396 1.410 . S
C395 C403 1.503 . S
C396 C395 1.410 . S
C396 C397 1.392 . S
C396 C399 1.511 . S
C397 C393 1.376 . S
C397 C396 1.392 . S
C397 H409 0.929 . S
C398 C394 1.531 . S
C398 H410 0.960 . S
C398 H411 0.962 . S
C398 H412 0.960 . S
C399 C396 1.511 . S
C399 H413 0.961 . S
C399 H414 0.961 . S
C399 H415 0.961 . S
C400 C401 1.370 1_554 S
C400 C402 1.363 . S
C400 H416 0.931 1_554 S
C401 C400 1.370 1_556 S
C401 C405 1.408 1_556 S
C402 C400 1.363 . S
C402 C403 1.370 . S
C402 C406 1.524 . S
C403 C395 1.503 . S
C403 C402 1.370 . S
C403 C404 1.403 . S
C404 C403 1.403 . S
C404 C405 1.404 . S
C404 C407 1.539 . S
C405 C401 1.408 1_554 S
C405 C404 1.404 . S
C405 H417 0.930 1_565 S
C406 C402 1.524 . S
C406 H418 0.956 . S
C406 H419 0.961 . S
C406 H420 0.961 . S
C407 C404 1.539 . S
C407 H421 0.958 . S
C407 H422 0.961 1_565 S
C407 H423 0.960 . S
H408 C392 0.931 . S
H409 C397 0.929 . S
H410 C398 0.960 . S
H411 C398 0.962 . S
H412 C398 0.960 . S
H413 C399 0.961 . S
H414 C399 0.961 . S
H415 C399 0.961 . S
H416 C400 0.931 1_556 S
H417 C405 0.930 1_545 S
H418 C406 0.956 . S
H419 C406 0.961 . S
H420 C406 0.961 . S
H421 C407 0.958 . S
H422 C407 0.961 1_545 S
H423 C407 0.960 . S
C424 C425 1.392 . S
C424 C426 1.394 . S
C424 H440 0.931 1_556 S
C425 C424 1.392 . S
C425 C429 1.376 . S
C426 C424 1.394 . S
C426 C427 1.369 . S
C426 C430 1.531 . S
C427 C426 1.369 . S
C427 C428 1.410 . S
C427 C435 1.503 . S
C428 C427 1.410 . S
C428 C429 1.392 . S
C428 C431 1.511 . S
C429 C425 1.376 . S
C429 C428 1.392 . S
C429 H441 0.929 . S
C430 C426 1.531 . S
C430 H442 0.960 . S
C430 H443 0.962 . S
C430 H444 0.960 1_556 S
C431 C428 1.511 . S
C431 H445 0.961 . S
C431 H446 0.961 . S
C431 H447 0.963 . S
C432 C433 1.370 . S
C432 C434 1.363 . S
C432 H448 0.931 . S
C433 C432 1.370 . S
C433 C437 1.408 . S
C434 C432 1.363 . S
C434 C435 1.370 . S
C434 C438 1.524 . S
C435 C427 1.503 . S
C435 C434 1.370 . S
C435 C436 1.403 . S
C436 C435 1.403 . S
C436 C437 1.404 . S
C436 C439 1.539 1_556 S
C437 C433 1.408 . S
C437 C436 1.404 . S
C437 H449 0.930 . S
C438 C434 1.524 . S
C438 H450 0.956 . S
C438 H451 0.961 . S
C438 H452 0.961 . S
C439 C436 1.539 1_554 S
C439 H453 0.958 . S
C439 H454 0.961 . S
C439 H455 0.960 . S
H440 C424 0.931 1_554 S
H441 C429 0.929 . S
H442 C430 0.960 . S
H443 C430 0.962 . S
H444 C430 0.960 1_554 S
H445 C431 0.961 . S
H446 C431 0.961 . S
H447 C431 0.963 . S
H448 C432 0.931 . S
H449 C437 0.930 . S
H450 C438 0.956 . S
H451 C438 0.961 . S
H452 C438 0.961 . S
H453 C439 0.958 . S
H454 C439 0.961 . S
H455 C439 0.960 . S
C456 C457 1.391 1_556 S
C456 C458 1.394 . S
C456 H472 0.931 . S
C457 C456 1.391 1_554 S
C457 C461 1.376 . S
C458 C456 1.394 . S
C458 C459 1.369 . S
C458 C462 1.531 . S
C459 C458 1.369 . S
C459 C460 1.410 1_556 S
C459 C467 1.503 . S
C460 C459 1.410 1_554 S
C460 C461 1.392 . S
C460 C463 1.511 . S
C461 C457 1.376 . S
C461 C460 1.392 . S
C461 H473 0.929 . S
C462 C458 1.531 . S
C462 H474 0.960 . S
C462 H475 0.962 . S
C462 H476 0.960 . S
C463 C460 1.511 . S
C463 H477 0.961 . S
C463 H478 0.961 . S
C463 H479 0.961 1_655 S
C464 C465 1.370 . S
C464 C466 1.363 . S
C464 H480 0.931 . S
C465 C464 1.370 . S
C465 C469 1.408 1_655 S
C466 C464 1.363 . S
C466 C467 1.370 . S
C466 C470 1.524 . S
C467 C459 1.503 . S
C467 C466 1.370 . S
C467 C468 1.433 . S
C468 C467 1.433 . S
C468 C469 1.381 1_655 S
C468 C471 1.530 1_655 S
C469 C465 1.408 1_455 S
C469 C468 1.381 1_455 S
C469 H481 0.930 . S
C470 C466 1.524 . S
C470 H482 0.956 . S
C470 H483 0.961 1_556 S
C470 H484 0.961 1_556 S
C471 C468 1.530 1_455 S
C471 H485 0.958 . S
C471 H486 0.961 . S
C471 H487 0.960 . S
H472 C456 0.931 . S
H473 C461 0.929 . S
H474 C462 0.960 . S
H475 C462 0.962 . S
H476 C462 0.960 . S
H477 C463 0.961 . S
H478 C463 0.961 . S
H479 C463 0.961 1_455 S
H480 C464 0.931 . S
H481 C469 0.930 . S
H482 C470 0.956 . S
H483 C470 0.961 1_554 S
H484 C470 0.961 1_554 S
H485 C471 0.958 . S
H486 C471 0.961 . S
H487 C471 0.960 . S
C488 C489 1.391 . S
C488 C490 1.394 . S
C488 H504 0.931 . S
C489 C488 1.391 . S
C489 C493 1.376 . S
C490 C488 1.394 . S
C490 C491 1.369 . S
C490 C494 1.531 . S
C491 C490 1.369 . S
C491 C492 1.410 . S
C491 C499 1.503 . S
C492 C491 1.410 . S
C492 C493 1.392 . S
C492 C495 1.511 . S
C493 C489 1.376 . S
C493 C492 1.392 . S
C493 H505 0.929 . S
C494 C490 1.531 . S
C494 H506 0.960 . S
C494 H507 0.962 . S
C494 H508 0.960 . S
C495 C492 1.511 . S
C495 H509 0.961 . S
C495 H510 0.961 . S
C495 H511 0.961 . S
C496 C497 1.370 . S
C496 C498 1.363 . S
C496 H512 0.931 . S
C497 C496 1.370 . S
C497 C501 1.408 . S
C498 C496 1.363 . S
C498 C499 1.370 . S
C498 C502 1.524 . S
C499 C491 1.503 . S
C499 C498 1.370 . S
C499 C500 1.403 . S
C500 C499 1.403 . S
C500 C501 1.404 . S
C500 C503 1.539 . S
C501 C497 1.408 . S
C501 C500 1.404 . S
C501 H513 0.930 . S
C502 C498 1.524 . S
C502 H514 0.956 . S
C502 H515 0.961 . S
C502 H516 0.961 . S
C503 C500 1.539 . S
C503 H517 0.958 . S
C503 H518 0.961 . S
C503 H519 0.960 . S
H504 C488 0.931 . S
H505 C493 0.929 . S
H506 C494 0.960 . S
H507 C494 0.962 . S
H508 C494 0.960 . S
H509 C495 0.961 . S
H510 C495 0.961 . S
H511 C495 0.961 . S
H512 C496 0.931 . S
H513 C501 0.930 . S
H514 C502 0.956 . S
H515 C502 0.961 . S
H516 C502 0.961 . S
H517 C503 0.958 . S
H518 C503 0.961 . S
H519 C503 0.960 . S
C520 C521 1.391 . S
C520 C522 1.394 . S
C520 H536 0.931 . S
C521 C520 1.391 . S
C521 C525 1.376 . S
C522 C520 1.394 . S
C522 C523 1.369 . S
C522 C526 1.531 . S
C523 C522 1.369 . S
C523 C524 1.410 . S
C523 C531 1.503 . S
C524 C523 1.410 . S
C524 C525 1.392 . S
C524 C527 1.511 . S
C525 C521 1.376 . S
C525 C524 1.392 . S
C525 H537 0.929 . S
C526 C522 1.531 . S
C526 H538 0.960 . S
C526 H539 0.962 . S
C526 H540 0.960 . S
C527 C524 1.511 . S
C527 H541 0.961 . S
C527 H542 0.961 . S
C527 H543 0.961 . S
C528 C529 1.370 . S
C528 C530 1.363 . S
C528 H544 0.931 1_545 S
C529 C528 1.370 . S
C529 C533 1.408 . S
C530 C528 1.363 . S
C530 C531 1.370 . S
C530 C534 1.524 . S
C531 C523 1.503 . S
C531 C530 1.370 . S
C531 C532 1.403 . S
C532 C531 1.403 . S
C532 C533 1.404 . S
C532 C535 1.539 . S
C533 C529 1.408 . S
C533 C532 1.404 . S
C533 H545 0.930 . S
C534 C530 1.524 . S
C534 H546 0.956 . S
C534 H547 0.961 . S
C534 H548 0.961 1_545 S
C535 C532 1.539 . S
C535 H549 0.958 . S
C535 H550 0.961 . S
C535 H551 0.960 . S
H536 C520 0.931 . S
H537 C525 0.929 . S
H538 C526 0.960 . S
H539 C526 0.962 . S
H540 C526 0.960 . S
H541 C527 0.961 . S
H542 C527 0.961 . S
H543 C527 0.961 . S
H544 C528 0.931 1_565 S
H545 C533 0.930 . S
H546 C534 0.956 . S
H547 C534 0.961 . S
H548 C534 0.961 1_565 S
H549 C535 0.958 . S
H550 C535 0.961 . S
H551 C535 0.960 . S
C552 C553 1.391 . S
C552 C554 1.394 . S
C552 H568 0.931 . S
C553 C552 1.391 . S
C553 C557 1.376 . S
C554 C552 1.394 . S
C554 C555 1.369 . S
C554 C558 1.531 . S
C555 C554 1.369 . S
C555 C556 1.410 . S
C555 C563 1.503 . S
C556 C555 1.410 . S
C556 C557 1.392 . S
C556 C559 1.511 . S
C557 C553 1.376 . S
C557 C556 1.392 . S
C557 H569 0.929 . S
C558 C554 1.531 . S
C558 H570 0.960 . S
C558 H571 0.962 . S
C558 H572 0.960 . S
C559 C556 1.511 . S
C559 H573 0.961 . S
C559 H574 0.961 . S
C559 H575 0.961 . S
C560 C561 1.370 . S
C560 C562 1.363 . S
C560 H576 0.931 . S
C561 C560 1.370 . S
C561 C565 1.408 . S
C562 C560 1.363 . S
C562 C563 1.370 . S
C562 C566 1.524 . S
C563 C555 1.503 . S
C563 C562 1.370 . S
C563 C564 1.403 . S
C564 C563 1.403 . S
C564 C565 1.404 . S
C564 C567 1.539 . S
C565 C561 1.408 . S
C565 C564 1.404 . S
C565 H577 0.930 . S
C566 C562 1.524 . S
C566 H578 0.956 . S
C566 H579 0.961 . S
C566 H580 0.961 . S
C567 C564 1.539 . S
C567 H581 0.958 . S
C567 H582 0.961 . S
C567 H583 0.960 . S
H568 C552 0.931 . S
H569 C557 0.929 . S
H570 C558 0.960 . S
H571 C558 0.962 . S
H572 C558 0.960 . S
H573 C559 0.961 . S
H574 C559 0.961 . S
H575 C559 0.961 . S
H576 C560 0.931 . S
H577 C565 0.930 . S
H578 C566 0.956 . S
H579 C566 0.961 . S
H580 C566 0.961 . S
H581 C567 0.958 . S
H582 C567 0.961 . S
H583 C567 0.960 . S
C584 C585 1.391 . S
C584 C586 1.394 . S
C584 H600 0.931 . S
C585 C584 1.391 . S
C585 C589 1.376 . S
C586 C584 1.394 . S
C586 C587 1.369 . S
C586 C590 1.531 . S
C587 C586 1.369 . S
C587 C588 1.410 . S
C587 C595 1.503 . S
C588 C587 1.410 . S
C588 C589 1.392 . S
C588 C591 1.511 . S
C589 C585 1.376 . S
C589 C588 1.392 . S
C589 H601 0.929 . S
C590 C586 1.531 . S
C590 H602 0.960 . S
C590 H603 0.962 . S
C590 H604 0.960 . S
C591 C588 1.511 . S
C591 H605 0.961 . S
C591 H606 0.961 . S
C591 H607 0.961 . S
C592 C593 1.370 . S
C592 C594 1.363 . S
C592 H608 0.931 . S
C593 C592 1.370 . S
C593 C597 1.408 . S
C594 C592 1.363 . S
C594 C595 1.370 . S
C594 C598 1.524 . S
C595 C587 1.503 . S
C595 C594 1.370 . S
C595 C596 1.403 . S
C596 C595 1.403 . S
C596 C597 1.404 . S
C596 C599 1.539 . S
C597 C593 1.408 . S
C597 C596 1.404 . S
C597 H609 0.930 . S
C598 C594 1.524 . S
C598 H610 0.956 . S
C598 H611 0.961 . S
C598 H612 0.961 . S
C599 C596 1.539 . S
C599 H613 0.958 . S
C599 H614 0.961 . S
C599 H615 0.960 . S
H600 C584 0.931 . S
H601 C589 0.929 . S
H602 C590 0.960 . S
H603 C590 0.962 . S
H604 C590 0.960 . S
H605 C591 0.961 . S
H606 C591 0.961 . S
H607 C591 0.961 . S
H608 C592 0.931 . S
H609 C597 0.930 . S
H610 C598 0.956 . S
H611 C598 0.961 . S
H612 C598 0.961 . S
H613 C599 0.958 . S
H614 C599 0.961 . S
H615 C599 0.960 . S
C616 C617 1.391 . S
C616 C618 1.394 . S
C616 H632 0.931 1_556 S
C617 C616 1.391 . S
C617 C621 1.376 . S
C618 C616 1.394 . S
C618 C619 1.369 . S
C618 C622 1.531 . S
C619 C618 1.369 . S
C619 C620 1.410 . S
C619 C627 1.503 . S
C620 C619 1.410 . S
C620 C621 1.392 . S
C620 C623 1.511 . S
C621 C617 1.376 . S
C621 C620 1.392 . S
C621 H633 0.929 . S
C622 C618 1.531 . S
C622 H634 0.960 1_556 S
C622 H635 0.962 . S
C622 H636 0.960 1_556 S
C623 C620 1.511 . S
C623 H637 0.961 1_655 S
C623 H638 0.961 1_655 S
C623 H639 0.961 1_655 S
C624 C625 1.370 1_655 S
C624 C626 1.363 . S
C624 H640 0.931 . S
C625 C624 1.370 1_455 S
C625 C629 1.408 . S
C626 C624 1.363 . S
C626 C627 1.370 . S
C626 C630 1.524 . S
C627 C619 1.503 . S
C627 C626 1.370 . S
C627 C628 1.403 . S
C628 C627 1.403 . S
C628 C629 1.404 1_655 S
C628 C631 1.539 1_556 S
C629 C625 1.408 . S
C629 C628 1.404 1_455 S
C629 H641 0.930 . S
C630 C626 1.524 . S
C630 H642 0.956 . S
C630 H643 0.961 . S
C630 H644 0.961 . S
C631 C628 1.539 1_554 S
C631 H645 0.958 . S
C631 H646 0.961 1_655 S
C631 H647 0.960 . S
H632 C616 0.931 1_554 S
H633 C621 0.929 . S
H634 C622 0.960 1_554 S
H635 C622 0.962 . S
H636 C622 0.960 1_554 S
H637 C623 0.961 1_455 S
H638 C623 0.961 1_455 S
H639 C623 0.961 1_455 S
H640 C624 0.931 . S
H641 C629 0.930 . S
H642 C630 0.956 . S
H643 C630 0.961 . S
H644 C630 0.961 . S
H645 C631 0.958 . S
H646 C631 0.961 1_455 S
H647 C631 0.960 . S
C648 C649 1.393 . S
C648 C650 1.392 1_565 S
C648 H664 0.931 1_565 S
C649 C648 1.393 . S
C649 C653 1.376 . S
C650 C648 1.392 1_545 S
C650 C651 1.369 . S
C650 C654 1.531 . S
C651 C650 1.369 . S
C651 C652 1.394 1_545 S
C651 C659 1.521 . S
C652 C651 1.394 1_565 S
C652 C653 1.392 . S
C652 C655 1.511 . S
C653 C649 1.376 . S
C653 C652 1.392 . S
C653 H665 0.932 . S
C654 C650 1.531 . S
C654 H666 0.960 . S
C654 H667 0.962 . S
C654 H668 0.960 . S
C655 C652 1.511 . S
C655 H669 0.961 1_556 S
C655 H670 0.961 . S
C655 H671 0.961 . S
C656 C657 1.370 . S
C656 C658 1.363 . S
C656 H672 0.931 . S
C657 C656 1.370 . S
C657 C661 1.408 . S
C658 C656 1.363 . S
C658 C659 1.370 . S
C658 C662 1.524 . S
C659 C651 1.521 . S
C659 C658 1.370 . S
C659 C660 1.403 . S
C660 C659 1.403 . S
C660 C661 1.404 . S
C660 C663 1.539 1_545 S
C661 C657 1.408 . S
C661 C660 1.404 . S
C661 H673 0.930 . S
C662 C658 1.524 . S
C662 H674 0.956 . S
C662 H675 0.961 . S
C662 H676 0.961 . S
C663 C660 1.539 1_565 S
C663 H677 0.958 . S
C663 H678 0.961 . S
C663 H679 0.960 . S
H664 C648 0.931 1_545 S
H665 C653 0.932 . S
H666 C654 0.960 . S
H667 C654 0.962 . S
H668 C654 0.960 . S
H669 C655 0.961 1_554 S
H670 C655 0.961 . S
H671 C655 0.961 . S
H672 C656 0.931 . S
H673 C661 0.930 . S
H674 C662 0.956 . S
H675 C662 0.961 . S
H676 C662 0.961 . S
H677 C663 0.958 . S
H678 C663 0.961 . S
H679 C663 0.960 . S
C680 C681 1.391 . S
C680 C682 1.394 . S
C680 H696 0.931 . S
C681 C680 1.391 . S
C681 C685 1.376 . S
C682 C680 1.394 . S
C682 C683 1.369 . S
C682 C686 1.531 . S
C683 C682 1.369 . S
C683 C684 1.410 . S
C683 C691 1.503 . S
C684 C683 1.410 . S
C684 C685 1.392 . S
C684 C687 1.511 . S
C685 C681 1.376 . S
C685 C684 1.392 . S
C685 H697 0.929 . S
C686 C682 1.531 . S
C686 H698 0.960 . S
C686 H699 0.962 . S
C686 H700 0.960 . S
C687 C684 1.511 . S
C687 H701 0.961 . S
C687 H702 0.961 . S
C687 H703 0.961 . S
C688 C689 1.370 . S
C688 C690 1.363 . S
C688 H704 0.931 1_554 S
C689 C688 1.370 . S
C689 C693 1.408 . S
C690 C688 1.363 . S
C690 C691 1.370 . S
C690 C694 1.524 . S
C691 C683 1.503 . S
C691 C690 1.370 . S
C691 C692 1.403 . S
C692 C691 1.403 . S
C692 C693 1.404 . S
C692 C695 1.539 . S
C693 C689 1.408 . S
C693 C692 1.404 . S
C693 H705 0.930 . S
C694 C690 1.524 . S
C694 H706 0.956 . S
C694 H707 0.961 . S
C694 H708 0.961 . S
C695 C692 1.539 . S
C695 H709 0.958 . S
C695 H710 0.961 . S
C695 H711 0.960 . S
H696 C680 0.931 . S
H697 C685 0.929 . S
H698 C686 0.960 . S
H699 C686 0.962 . S
H700 C686 0.960 . S
H701 C687 0.961 . S
H702 C687 0.961 . S
H703 C687 0.961 . S
H704 C688 0.931 1_556 S
H705 C693 0.930 . S
H706 C694 0.956 . S
H707 C694 0.961 . S
H708 C694 0.961 . S
H709 C695 0.958 . S
H710 C695 0.961 . S
H711 C695 0.960 . S
C712 C713 1.391 . S
C712 C714 1.394 . S
C712 H728 0.931 . S
C713 C712 1.391 . S
C713 C717 1.376 . S
C714 C712 1.394 . S
C714 C715 1.369 . S
C714 C718 1.531 . S
C715 C714 1.369 . S
C715 C716 1.410 . S
C715 C723 1.503 . S
C716 C715 1.410 . S
C716 C717 1.392 . S
C716 C719 1.511 . S
C717 C713 1.376 . S
C717 C716 1.392 . S
C717 H729 0.929 . S
C718 C714 1.531 . S
C718 H730 0.960 . S
C718 H731 0.962 1_556 S
C718 H732 0.960 . S
C719 C716 1.511 . S
C719 H733 0.961 . S
C719 H734 0.961 . S
C719 H735 0.961 . S
C720 C721 1.370 . S
C720 C722 1.363 . S
C720 H736 0.931 . S
C721 C720 1.370 . S
C721 C725 1.408 . S
C722 C720 1.363 . S
C722 C723 1.370 . S
C722 C726 1.524 1_556 S
C723 C715 1.503 . S
C723 C722 1.370 . S
C723 C724 1.403 . S
C724 C723 1.403 . S
C724 C725 1.404 . S
C724 C727 1.539 . S
C725 C721 1.408 . S
C725 C724 1.404 . S
C725 H737 0.930 . S
C726 C722 1.524 1_554 S
C726 H738 0.956 . S
C726 H739 0.961 1_554 S
C726 H740 0.961 . S
C727 C724 1.539 . S
C727 H741 0.958 . S
C727 H742 0.961 . S
C727 H743 0.960 . S
H728 C712 0.931 . S
H729 C717 0.929 . S
H730 C718 0.960 . S
H731 C718 0.962 1_554 S
H732 C718 0.960 . S
H733 C719 0.961 . S
H734 C719 0.961 . S
H735 C719 0.961 . S
H736 C720 0.931 . S
H737 C725 0.930 . S
H738 C726 0.956 . S
H739 C726 0.961 1_556 S
H740 C726 0.961 . S
H741 C727 0.958 . S
H742 C727 0.961 . S
H743 C727 0.960 . S
C744 C745 1.391 . S
C744 C746 1.394 . S
C744 H760 0.931 . S
C745 C744 1.391 . S
C745 C749 1.376 . S
C746 C744 1.394 . S
C746 C747 1.369 . S
C746 C750 1.531 . S
C747 C746 1.369 . S
C747 C748 1.410 . S
C747 C755 1.503 . S
C748 C747 1.410 . S
C748 C749 1.392 . S
C748 C751 1.511 . S
C749 C745 1.376 . S
C749 C748 1.392 . S
C749 H761 0.929 . S
C750 C746 1.531 . S
C750 H762 0.960 . S
C750 H763 0.962 . S
C750 H764 0.960 . S
C751 C748 1.511 . S
C751 H765 0.961 . S
C751 H766 0.961 . S
C751 H767 0.961 . S
C752 C753 1.370 . S
C752 C754 1.363 . S
C752 H768 0.931 . S
C753 C752 1.370 . S
C753 C757 1.408 . S
C754 C752 1.363 . S
C754 C755 1.370 . S
C754 C758 1.524 . S
C755 C747 1.503 . S
C755 C754 1.370 . S
C755 C756 1.403 . S
C756 C755 1.403 . S
C756 C757 1.404 . S
C756 C759 1.539 . S
C757 C753 1.408 . S
C757 C756 1.404 . S
C757 H769 0.930 . S
C758 C754 1.524 . S
C758 H770 0.956 . S
C758 H771 0.961 . S
C758 H772 0.961 . S
C759 C756 1.539 . S
C759 H773 0.958 . S
C759 H774 0.961 . S
C759 H775 0.960 . S
H760 C744 0.931 . S
H761 C749 0.929 . S
H762 C750 0.960 . S
H763 C750 0.962 . S
H764 C750 0.960 . S
H765 C751 0.961 . S
H766 C751 0.961 . S
H767 C751 0.961 . S
H768 C752 0.931 . S
H769 C757 0.930 . S
H770 C758 0.956 . S
H771 C758 0.961 . S
H772 C758 0.961 . S
H773 C759 0.958 . S
H774 C759 0.961 . S
H775 C759 0.960 . S
C776 C777 1.391 . S
C776 C778 1.394 . S
C776 H792 0.931 . S
C777 C776 1.391 . S
C777 C781 1.376 . S
C778 C776 1.394 . S
C778 C779 1.369 . S
C778 C782 1.531 . S
C779 C778 1.369 . S
C779 C780 1.410 . S
C779 C787 1.503 . S
C780 C779 1.410 . S
C780 C781 1.392 . S
C780 C783 1.511 . S
C781 C777 1.376 . S
C781 C780 1.392 . S
C781 H793 0.929 . S
C782 C778 1.531 . S
C782 H794 0.960 . S
C782 H795 0.962 . S
C782 H796 0.960 . S
C783 C780 1.511 . S
C783 H797 0.961 . S
C783 H798 0.961 . S
C783 H799 0.961 . S
C784 C785 1.370 . S
C784 C786 1.363 . S
C784 H800 0.931 . S
C785 C784 1.370 . S
C785 C789 1.408 . S
C786 C784 1.363 . S
C786 C787 1.370 . S
C786 C790 1.524 . S
C787 C779 1.503 . S
C787 C786 1.370 . S
C787 C788 1.403 . S
C788 C787 1.403 . S
C788 C789 1.404 . S
C788 C791 1.539 . S
C789 C785 1.408 . S
C789 C788 1.404 . S
C789 H801 0.930 . S
C790 C786 1.524 . S
C790 H802 0.956 . S
C790 H803 0.961 . S
C790 H804 0.961 . S
C791 C788 1.539 . S
C791 H805 0.958 . S
C791 H806 0.961 . S
C791 H807 0.960 . S
H792 C776 0.931 . S
H793 C781 0.929 . S
H794 C782 0.960 . S
H795 C782 0.962 . S
H796 C782 0.960 . S
H797 C783 0.961 . S
H798 C783 0.961 . S
H799 C783 0.961 . S
H800 C784 0.931 . S
H801 C789 0.930 . S
H802 C790 0.956 . S
H803 C790 0.961 . S
H804 C790 0.961 . S
H805 C791 0.958 . S
H806 C791 0.961 . S
H807 C791 0.960 . S
C808 C809 1.391 . S
C808 C810 1.394 . S
C808 H824 0.931 . S
C809 C808 1.391 . S
C809 C813 1.376 . S
C810 C808 1.394 . S
C810 C811 1.369 . S
C810 C814 1.531 1_554 S
C811 C810 1.369 . S
C811 C812 1.410 . S
C811 C819 1.503 . S
C812 C811 1.410 . S
C812 C813 1.392 . S
C812 C815 1.511 . S
C813 C809 1.376 . S
C813 C812 1.392 . S
C813 H825 0.929 . S
C814 C810 1.531 1_556 S
C814 H826 0.960 . S
C814 H827 0.962 1_556 S
C814 H828 0.960 . S
C815 C812 1.511 . S
C815 H829 0.961 . S
C815 H830 0.961 . S
C815 H831 0.961 . S
C816 C817 1.370 1_554 S
C816 C818 1.363 . S
C816 H832 0.931 . S
C817 C816 1.370 1_556 S
C817 C821 1.408 . S
C818 C816 1.363 . S
C818 C819 1.370 . S
C818 C822 1.524 . S
C819 C811 1.503 . S
C819 C818 1.370 . S
C819 C820 1.403 1_554 S
C820 C819 1.403 1_556 S
C820 C821 1.404 . S
C820 C823 1.539 . S
C821 C817 1.408 . S
C821 C820 1.404 . S
C821 H833 0.930 . S
C822 C818 1.524 . S
C822 H834 0.956 . S
C822 H835 0.961 . S
C822 H836 0.961 . S
C823 C820 1.539 . S
C823 H837 0.958 . S
C823 H838 0.961 . S
C823 H839 0.960 . S
H824 C808 0.931 . S
H825 C813 0.929 . S
H826 C814 0.960 . S
H827 C814 0.962 1_554 S
H828 C814 0.960 . S
H829 C815 0.961 . S
H830 C815 0.961 . S
H831 C815 0.961 . S
H832 C816 0.931 . S
H833 C821 0.930 . S
H834 C822 0.956 . S
H835 C822 0.961 . S
H836 C822 0.961 . S
H837 C823 0.958 . S
H838 C823 0.961 . S
H839 C823 0.960 . S
C840 C841 1.391 . S
C840 C842 1.394 . S
C840 H856 0.931 . S
C841 C840 1.391 . S
C841 C845 1.376 . S
C842 C840 1.394 . S
C842 C843 1.369 . S
C842 C846 1.531 . S
C843 C842 1.369 . S
C843 C844 1.410 . S
C843 C851 1.503 . S
C844 C843 1.410 . S
C844 C845 1.392 . S
C844 C847 1.511 . S
C845 C841 1.376 . S
C845 C844 1.392 . S
C845 H857 0.929 . S
C846 C842 1.531 . S
C846 H858 0.960 . S
C846 H859 0.962 . S
C846 H860 0.960 . S
C847 C844 1.511 . S
C847 H861 0.961 . S
C847 H862 0.961 . S
C847 H863 0.961 . S
C848 C849 1.370 . S
C848 C850 1.363 . S
C848 H864 0.931 . S
C849 C848 1.370 . S
C849 C853 1.408 . S
C850 C848 1.363 . S
C850 C851 1.370 . S
C850 C854 1.524 . S
C851 C843 1.503 . S
C851 C850 1.370 . S
C851 C852 1.403 . S
C852 C851 1.403 . S
C852 C853 1.404 . S
C852 C855 1.539 . S
C853 C849 1.408 . S
C853 C852 1.404 . S
C853 H865 0.930 . S
C854 C850 1.524 . S
C854 H866 0.956 . S
C854 H867 0.961 . S
C854 H868 0.961 . S
C855 C852 1.539 . S
C855 H869 0.958 . S
C855 H870 0.961 . S
C855 H871 0.960 . S
H856 C840 0.931 . S
H857 C845 0.929 . S
H858 C846 0.960 . S
H859 C846 0.962 . S
H860 C846 0.960 . S
H861 C847 0.961 . S
H862 C847 0.961 . S
H863 C847 0.961 . S
H864 C848 0.931 . S
H865 C853 0.930 . S
H866 C854 0.956 . S
H867 C854 0.961 . S
H868 C854 0.961 . S
H869 C855 0.958 . S
H870 C855 0.961 . S
H871 C855 0.960 . S
C872 C873 1.391 . S
C872 C874 1.394 . S
C872 H888 0.931 . S
C873 C872 1.391 . S
C873 C877 1.376 . S
C874 C872 1.394 . S
C874 C875 1.369 . S
C874 C878 1.531 . S
C875 C874 1.369 . S
C875 C876 1.410 . S
C875 C883 1.503 . S
C876 C875 1.410 . S
C876 C877 1.392 . S
C876 C879 1.511 . S
C877 C873 1.376 . S
C877 C876 1.392 . S
C877 H889 0.929 . S
C878 C874 1.531 . S
C878 H890 0.960 . S
C878 H891 0.962 . S
C878 H892 0.960 1_655 S
C879 C876 1.511 . S
C879 H893 0.961 . S
C879 H894 0.961 . S
C879 H895 0.961 . S
C880 C881 1.370 . S
C880 C882 1.363 . S
C880 H896 0.931 . S
C881 C880 1.370 . S
C881 C885 1.408 . S
C882 C880 1.363 . S
C882 C883 1.370 . S
C882 C886 1.524 . S
C883 C875 1.503 . S
C883 C882 1.370 . S
C883 C884 1.403 . S
C884 C883 1.403 . S
C884 C885 1.404 . S
C884 C887 1.539 . S
C885 C881 1.408 . S
C885 C884 1.404 . S
C885 H897 0.930 . S
C886 C882 1.524 . S
C886 H898 0.956 . S
C886 H899 0.961 . S
C886 H900 0.961 . S
C887 C884 1.539 . S
C887 H901 0.958 . S
C887 H902 0.961 . S
C887 H903 0.960 . S
H888 C872 0.931 . S
H889 C877 0.929 . S
H890 C878 0.960 . S
H891 C878 0.962 . S
H892 C878 0.960 1_455 S
H893 C879 0.961 . S
H894 C879 0.961 . S
H895 C879 0.961 . S
H896 C880 0.931 . S
H897 C885 0.930 . S
H898 C886 0.956 . S
H899 C886 0.961 . S
H900 C886 0.961 . S
H901 C887 0.958 . S
H902 C887 0.961 . S
H903 C887 0.960 . S
C904 C905 1.391 . S
C904 C906 1.394 . S
C904 H920 0.931 . S
C905 C904 1.391 . S
C905 C909 1.376 . S
C906 C904 1.394 . S
C906 C907 1.369 . S
C906 C910 1.531 . S
C907 C906 1.369 . S
C907 C908 1.410 . S
C907 C915 1.503 . S
C908 C907 1.410 . S
C908 C909 1.392 . S
C908 C911 1.511 . S
C909 C905 1.376 . S
C909 C908 1.392 . S
C909 H921 0.929 . S
C910 C906 1.531 . S
C910 H922 0.960 . S
C910 H923 0.962 1_565 S
C910 H924 0.960 . S
C911 C908 1.511 . S
C911 H925 0.961 . S
C911 H926 0.961 . S
C911 H927 0.961 . S
C912 C913 1.370 . S
C912 C914 1.363 . S
C912 H928 0.931 1_565 S
C913 C912 1.370 . S
C913 C917 1.408 . S
C914 C912 1.363 . S
C914 C915 1.370 . S
C914 C918 1.524 1_565 S
C915 C907 1.503 . S
C915 C914 1.370 . S
C915 C916 1.403 . S
C916 C915 1.403 . S
C916 C917 1.404 . S
C916 C919 1.539 . S
C917 C913 1.408 . S
C917 C916 1.404 . S
C917 H929 0.930 . S
C918 C914 1.524 1_545 S
C918 H930 0.956 . S
C918 H931 0.961 . S
C918 H932 0.961 . S
C919 C916 1.539 . S
C919 H933 0.958 . S
C919 H934 0.961 . S
C919 H935 0.960 . S
H920 C904 0.931 . S
H921 C909 0.929 . S
H922 C910 0.960 . S
H923 C910 0.962 1_545 S
H924 C910 0.960 . S
H925 C911 0.961 . S
H926 C911 0.961 . S
H927 C911 0.961 . S
H928 C912 0.931 1_545 S
H929 C917 0.930 . S
H930 C918 0.956 . S
H931 C918 0.961 . S
H932 C918 0.961 . S
H933 C919 0.958 . S
H934 C919 0.961 . S
H935 C919 0.960 . S
C936 C937 1.391 . S
C936 C938 1.394 . S
C936 H952 0.931 . S
C937 C936 1.391 . S
C937 C941 1.376 . S
C938 C936 1.394 . S
C938 C939 1.369 . S
C938 C942 1.531 . S
C939 C938 1.369 . S
C939 C940 1.410 . S
C939 C947 1.503 . S
C940 C939 1.410 . S
C940 C941 1.392 . S
C940 C943 1.511 . S
C941 C937 1.376 . S
C941 C940 1.392 . S
C941 H953 0.929 . S
C942 C938 1.531 . S
C942 H954 0.960 . S
C942 H955 0.962 . S
C942 H956 0.960 . S
C943 C940 1.511 . S
C943 H957 0.961 . S
C943 H958 0.961 . S
C943 H959 0.961 . S
C944 C945 1.370 . S
C944 C946 1.363 . S
C944 H960 0.931 . S
C945 C944 1.370 . S
C945 C949 1.408 . S
C946 C944 1.363 . S
C946 C947 1.370 . S
C946 C950 1.524 . S
C947 C939 1.503 . S
C947 C946 1.370 . S
C947 C948 1.403 . S
C948 C947 1.403 . S
C948 C949 1.404 . S
C948 C951 1.539 . S
C949 C945 1.408 . S
C949 C948 1.404 . S
C949 H961 0.930 . S
C950 C946 1.524 . S
C950 H962 0.956 . S
C950 H963 0.961 . S
C950 H964 0.961 . S
C951 C948 1.539 . S
C951 H965 0.958 . S
C951 H966 0.961 . S
C951 H967 0.960 . S
H952 C936 0.931 . S
H953 C941 0.929 . S
H954 C942 0.960 . S
H955 C942 0.962 . S
H956 C942 0.960 . S
H957 C943 0.961 . S
H958 C943 0.961 . S
H959 C943 0.961 . S
H960 C944 0.931 . S
H961 C949 0.930 . S
H962 C950 0.956 . S
H963 C950 0.961 . S
H964 C950 0.961 . S
H965 C951 0.958 . S
H966 C951 0.961 . S
H967 C951 0.960 . S
C968 C969 1.391 . S
C968 C970 1.394 . S
C968 H984 0.931 . S
C969 C968 1.391 . S
C969 C973 1.376 . S
C970 C968 1.394 . S
C970 C971 1.369 . S
C970 C974 1.531 . S
C971 C970 1.369 . S
C971 C972 1.410 . S
C971 C979 1.503 . S
C972 C971 1.410 . S
C972 C973 1.392 . S
C972 C975 1.511 . S
C973 C969 1.376 . S
C973 C972 1.392 . S
C973 H985 0.929 . S
C974 C970 1.531 . S
C974 H986 0.960 . S
C974 H987 0.962 . S
C974 H988 0.960 . S
C975 C972 1.511 . S
C975 H989 0.961 . S
C975 H990 0.961 . S
C975 H991 0.961 . S
C976 C977 1.370 . S
C976 C978 1.363 . S
C976 H992 0.931 . S
C977 C976 1.370 . S
C977 C981 1.408 . S
C978 C976 1.363 . S
C978 C979 1.370 . S
C978 C982 1.524 . S
C979 C971 1.503 . S
C979 C978 1.370 . S
C979 C980 1.403 . S
C980 C979 1.403 . S
C980 C981 1.404 . S
C980 C983 1.539 . S
C981 C977 1.408 . S
C981 C980 1.404 . S
C981 H993 0.930 . S
C982 C978 1.524 . S
C982 H994 0.956 . S
C982 H995 0.961 . S
C982 H996 0.961 . S
C983 C980 1.539 . S
C983 H997 0.958 . S
C983 H998 0.961 . S
C983 H999 0.960 . S
H984 C968 0.931 . S
H985 C973 0.929 . S
H986 C974 0.960 . S
H987 C974 0.962 . S
H988 C974 0.960 . S
H989 C975 0.961 . S
H990 C975 0.961 . S
H991 C975 0.961 . S
H992 C976 0.931 . S
H993 C981 0.930 . S
H994 C982 0.956 . S
H995 C982 0.961 . S
H996 C982 0.961 . S
H997 C983 0.958 . S
H998 C983 0.961 . S
H999 C983 0.960 . S
C233 C61 1.233 . S
C241 C81 1.220 . S
C273 C121 1.446 . S
C265 C70 1.500 . S
C305 C170 1.308 . S
C297 C43 1.320 . S
C337 C201 1.708 . S
C329 C52 1.774 . S
C369 C90 1.213 . S
C361 C25 1.240 . S
C393 C34 1.526 . S
C401 C130 1.431 . S
C425 C7 1.313 1_556 S
C433 C161 1.279 . S
C457 C16 1.751 . S
C465 C210 1.727 1_655 S
C497 C91 0.780 . S
C489 C50 0.689 . S
C529 C131 0.853 . S
C521 C59 0.852 . S
C561 C167 0.682 . S
C553 C67 0.656 . S
C585 C41 0.994 . S
C593 C211 1.018 . S
C617 C14 0.684 . S
C625 C82 0.777 . S
C657 C122 0.858 . S
C649 C23 0.910 . S
C689 C158 0.647 . S
C681 C31 0.648 . S
C713 C5 1.027 . S
C721 C202 1.021 . S
C745 C49 1.698 . S
C753 C87 1.761 . S
C777 C58 1.619 . S
C785 C127 1.606 . S
C817 C171 2.058 . S
C809 C68 1.915 . S
C849 C207 1.465 . S
C841 C40 1.474 . S
C873 C13 1.701 . S
C881 C78 1.762 . S
C913 C118 1.604 . S
C905 C22 1.607 . S
C945 C162 2.059 . S
C937 C32 1.904 . S
C969 C4 1.450 . S
C977 C198 1.482 . S
