# Generated by pormake.
# Topology anh, (6,3)-cn, num edge types: 1
# Building blocks:
#     Node 0, Type 0, BuildingBlock: GEDQOX_clean_sbu_0, # of connection points: 6
#     Node 1, Type 0, BuildingBlock: GEDQOX_clean_sbu_0, # of connection points: 6
#     Node 2, Type 0, BuildingBlock: GEDQOX_clean_sbu_0, # of connection points: 6
#     Node 3, Type 1, BuildingBlock: QEWDON_clean_linker_0, # of connection points: 3
#     Node 4, Type 1, BuildingBlock: QEWDON_clean_linker_0, # of connection points: 3
#     Node 5, Type 1, BuildingBlock: QEWDON_clean_linker_0, # of connection points: 3
#     Node 6, Type 1, BuildingBlock: QEWDON_clean_linker_0, # of connection points: 3
#     Node 7, Type 1, BuildingBlock: QEWDON_clean_linker_0, # of connection points: 3
#     Node 8, Type 1, BuildingBlock: QEWDON_clean_linker_0, # of connection points: 3
#     Edge 9, Type (0, 1), BuildingBlock: OJICUG_clean_linker_0, # of connection points: 2
#     Edge 10, Type (0, 1), BuildingBlock: OJICUG_clean_linker_0, # of connection points: 2
#     Edge 11, Type (0, 1), BuildingBlock: OJICUG_clean_linker_0, # of connection points: 2
#     Edge 12, Type (0, 1), BuildingBlock: OJICUG_clean_linker_0, # of connection points: 2
#     Edge 13, Type (0, 1), BuildingBlock: OJICUG_clean_linker_0, # of connection points: 2
#     Edge 14, Type (0, 1), BuildingBlock: OJICUG_clean_linker_0, # of connection points: 2
#     Edge 15, Type (0, 1), BuildingBlock: OJICUG_clean_linker_0, # of connection points: 2
#     Edge 16, Type (0, 1), BuildingBlock: OJICUG_clean_linker_0, # of connection points: 2
#     Edge 17, Type (0, 1), BuildingBlock: OJICUG_clean_linker_0, # of connection points: 2
#     Edge 18, Type (0, 1), BuildingBlock: OJICUG_clean_linker_0, # of connection points: 2
#     Edge 19, Type (0, 1), BuildingBlock: OJICUG_clean_linker_0, # of connection points: 2
#     Edge 20, Type (0, 1), BuildingBlock: OJICUG_clean_linker_0, # of connection points: 2
#     Edge 21, Type (0, 1), BuildingBlock: OJICUG_clean_linker_0, # of connection points: 2
#     Edge 22, Type (0, 1), BuildingBlock: OJICUG_clean_linker_0, # of connection points: 2
#     Edge 23, Type (0, 1), BuildingBlock: OJICUG_clean_linker_0, # of connection points: 2
#     Edge 24, Type (0, 1), BuildingBlock: OJICUG_clean_linker_0, # of connection points: 2
#     Edge 25, Type (0, 1), BuildingBlock: OJICUG_clean_linker_0, # of connection points: 2
#     Edge 26, Type (0, 1), BuildingBlock: OJICUG_clean_linker_0, # of connection points: 2
# Relax obj value: 0.185
# Max RMSD: 0.200
# Mean RMSD: 0.126
data_MOF--net-anh--node1-GEDQOX_clean_sbu_0--node2-QEWDON_clean_linker_0--edge1-OJICUG_clean_linker_0
_symmetry_space_group_name_H-M    P1
_symmetry_Int_Tables_number       1
_symmetry_cell_setting            triclinic
loop_
_symmetry_equiv_pos_as_xyz
'x, y, z'
_cell_length_a     24.09767
_cell_length_b     23.09166
_cell_length_c     35.10777
_cell_angle_alpha  95.219092
_cell_angle_beta   95.353608
_cell_angle_gamma 96.920807
loop_
_atom_site_label
_atom_site_type_symbol
_atom_site_fract_x
_atom_site_fract_y
_atom_site_fract_z
_atom_type_partial_charge
Nd0 Nd 0.14943 0.62887 0.1376 0.0
Nd1 Nd 0.13523 0.50416 0.15359 0.0
C2 C 0.18177 0.73329 0.11584 0.0
C3 C 0.23382 0.77528 0.12412 0.0
C4 C 0.28689 0.7575 0.11986 0.0
C5 C 0.336 0.79592 0.13227 0.0
C6 C 0.33299 0.85278 0.14937 0.0
C7 C 0.2798 0.87114 0.15222 0.0
C8 C 0.23077 0.83279 0.13969 0.0
C9 C 0.14125 0.61272 0.21332 0.0
C10 C 0.26609 0.56056 0.14969 0.0
C11 C 1.10299 0.40315 0.17996 0.0
C12 C 1.04811 0.36909 0.18374 0.0
C13 C 1.00641 0.39457 0.20238 0.0
C14 C 0.95319 0.363 0.20291 0.0
C15 C 0.94044 0.30569 0.18443 0.0
C16 C 0.98251 0.27989 0.16651 0.0
C17 C 1.0359 0.31119 0.16635 0.0
C18 C 0.14578 0.52035 0.07853 0.0
C19 C 1.01854 0.57001 0.13504 0.0
O20 O 0.18446 0.68412 0.09476 0.0
O21 O 0.15278 0.72565 0.14503 0.0
O22 O 0.11633 0.65073 0.19562 0.0
O23 O 0.17057 0.58576 0.19163 0.0
O24 O 0.24269 0.60559 0.13699 0.0
O25 O 0.23369 0.51705 0.16232 0.0
O26 O 0.1169 0.45247 0.2022 0.0
O27 O 0.11556 0.40724 0.14479 0.0
O28 O 0.16894 0.48076 0.09601 0.0
O29 O 0.11584 0.54728 0.09978 0.0
O30 O 1.04145 0.52764 0.15175 0.0
O31 O 1.05208 0.6117 0.12161 0.0
H32 H 0.29054 0.71339 0.10796 0.0
H33 H 0.37629 0.78032 0.12988 0.0
H34 H 0.27608 0.91498 0.1647 0.0
H35 H 0.19035 0.84754 0.1432 0.0
H36 H 1.01433 0.43935 0.21575 0.0
H37 H 0.92135 0.38424 0.21652 0.0
H38 H 0.9739 0.23566 0.15223 0.0
H39 H 1.06732 0.29065 0.15179 0.0
Nd40 Nd 0.58636 0.05291 0.51208 0.0
Nd41 Nd 0.70818 0.06893 0.49955 0.0
C42 C 0.48648 1.02171 0.53454 0.0
C43 C 0.44401 0.96958 0.52659 0.0
C44 C 0.45941 0.91265 0.52519 0.0
C45 C 0.4192 0.86395 0.51332 0.0
C46 C 0.36325 0.87157 0.50219 0.0
C47 C 0.34768 0.9284 0.50485 0.0
C48 C 0.38772 0.97696 0.51706 0.0
C49 C 0.60503 0.06214 0.43706 0.0
C50 C 0.65325 0.93563 0.49929 0.0
C51 C 0.80737 0.10384 0.47721 0.0
C52 C 0.83693 0.16171 0.47177 0.0
C53 C 0.80895 0.20244 0.45263 0.0
C54 C 0.83579 0.25898 0.45067 0.0
C55 C 0.89097 0.27625 0.46816 0.0
C56 C 0.91929 0.23485 0.48651 0.0
C57 C 0.89251 0.1781 0.48822 0.0
C58 C 0.68653 0.06403 0.57494 0.0
C59 C 0.64208 0.18529 0.5123 0.0
O60 O 0.53364 1.01577 0.55466 0.0
O61 O 0.49399 0.05224 0.50543 0.0
O62 O 0.56613 0.08579 0.45351 0.0
O63 O 0.631 0.03229 0.45942 0.0
O64 O 0.61026 0.95837 0.51287 0.0
O65 O 0.69527 0.96909 0.48755 0.0
O66 O 0.76283 0.08422 0.4532 0.0
O67 O 0.8002 0.09484 0.51275 0.0
O68 O 0.72585 0.03829 0.56023 0.0
O69 O 0.66244 0.09189 0.55067 0.0
O70 O 0.68166 0.16203 0.49472 0.0
O71 O 0.60454 0.15177 0.52836 0.0
H72 H 0.50273 0.90582 0.5321 0.0
H73 H 0.43231 0.82062 0.51123 0.0
H74 H 0.30467 0.93533 0.49675 0.0
H75 H 0.37507 1.02049 0.5179 0.0
H76 H 0.76589 0.19111 0.43981 0.0
H77 H 0.81299 0.28935 0.43579 0.0
H78 H 0.96149 0.24679 0.50075 0.0
H79 H 0.91468 0.14748 0.50335 0.0
Nd80 Nd 0.59771 0.55951 0.81329 0.0
Nd81 Nd 0.71917 0.57224 0.83165 0.0
C82 C 0.4965 0.57192 0.78227 0.0
C83 C 0.46097 0.61954 0.78299 0.0
C84 C 0.4429 0.64127 0.74852 0.0
C85 C 0.40673 0.68429 0.74853 0.0
C86 C 0.38748 0.70583 0.78301 0.0
C87 C 0.40828 0.68604 0.81771 0.0
C88 C 0.44478 0.64365 0.81771 0.0
C89 C 0.62934 0.56013 0.89078 0.0
C90 C 0.66865 0.69242 0.83157 0.0
C91 C 0.82404 0.55967 0.85244 0.0
C92 C 0.86035 0.51809 0.83717 0.0
C93 C 0.84839 0.45724 0.839 0.0
C94 C 0.88486 0.41918 0.82549 0.0
C95 C 0.93363 0.44131 0.80976 0.0
C96 C 0.9429 0.50176 0.80548 0.0
C97 C 0.90694 0.53961 0.81927 0.0
C98 C 0.6852 0.56909 0.75435 0.0
C99 C 0.64914 0.43873 0.81591 0.0
O100 O 0.54147 0.58071 0.7644 0.0
O101 O 0.50535 0.54731 0.81408 0.0
O102 O 0.58629 0.52655 0.87237 0.0
O103 O 0.65248 0.59398 0.86897 0.0
O104 O 0.62518 0.65924 0.81168 0.0
O105 O 0.7089 0.66794 0.84944 0.0
O106 O 0.78244 0.53838 0.87066 0.0
O107 O 0.81003 0.59812 0.8294 0.0
O108 O 0.72681 0.60517 0.77195 0.0
O109 O 0.66441 0.5357 0.77707 0.0
O110 O 0.69349 0.47239 0.8344 0.0
O111 O 0.60727 0.46259 0.79943 0.0
H112 H 0.45567 0.62392 0.72144 0.0
H113 H 0.39213 0.69893 0.72136 0.0
H114 H 0.3938 0.70041 0.84484 0.0
H115 H 0.45872 0.62846 0.84485 0.0
H116 H 0.812 0.43918 0.85198 0.0
H117 H 0.87691 0.37308 0.82954 0.0
H118 H 0.98057 0.52103 0.7944 0.0
H119 H 0.91665 0.58617 0.81706 0.0
H120 H 0.65106 0.12866 0.26459 0.0
C121 C 0.61981 0.09362 0.2506 0.0
C122 C 0.59437 0.05235 0.27277 0.0
C123 C 0.60338 0.09104 0.21086 0.0
H124 H 0.53114 0.97809 0.27268 0.0
C125 C 0.55183 1.00875 0.25522 0.0
C126 C 0.53368 1.00637 0.21589 0.0
C127 C 0.56065 0.04668 0.19375 0.0
C128 C 0.62792 0.13661 0.18756 0.0
H129 H 0.54687 0.04473 0.16334 0.0
C130 C 0.6858 0.158 0.19289 0.0
C131 C 0.70854 0.19972 0.16976 0.0
C132 C 0.5931 0.15899 0.15952 0.0
H133 H 0.54824 0.1449 0.15534 0.0
C134 C 0.61552 0.20048 0.13676 0.0
H135 H 0.71342 0.14111 0.21414 0.0
C136 C 0.67287 0.2205 0.14163 0.0
H137 H 0.6893 0.25296 0.12373 0.0
H138 H 0.58827 0.21729 0.1153 0.0
H139 H 0.63795 0.60135 0.5725 0.0
C140 C 0.64182 0.5565 0.56247 0.0
C141 C 0.64662 0.51639 0.58997 0.0
C142 C 0.6397 0.53835 0.52272 0.0
H143 H 0.6513 0.42611 0.59904 0.0
C144 C 0.6477 0.45719 0.57783 0.0
C145 C 0.64508 0.43734 0.53882 0.0
C146 C 0.64306 0.47818 0.51145 0.0
C147 C 0.63137 0.58124 0.49328 0.0
H148 H 0.64294 0.46219 0.48153 0.0
C149 C 0.64548 0.64288 0.50251 0.0
C150 C 0.63565 0.68221 0.47484 0.0
C151 C 0.60697 0.56087 0.45557 0.0
H152 H 0.59275 0.51494 0.44707 0.0
C153 C 0.59878 0.59969 0.42798 0.0
H154 H 0.66469 0.66096 0.53082 0.0
C155 C 0.61311 0.65983 0.43742 0.0
H156 H 0.60503 0.68911 0.41571 0.0
H157 H 0.58016 0.58304 0.39922 0.0
H158 H 0.16723 0.64761 0.92132 0.0
C159 C 0.15745 0.60609 0.90347 0.0
C160 C 0.16077 0.55317 0.91981 0.0
C161 C 0.13845 0.60547 0.86458 0.0
H162 H 0.1504 0.45906 0.90901 0.0
C163 C 0.14851 0.49976 0.89618 0.0
C164 C 0.12637 0.49816 0.85756 0.0
C165 C 0.12288 0.55193 0.84189 0.0
C166 C 0.13396 0.66067 0.84727 0.0
H167 H 1.10486 0.55293 0.81255 0.0
C168 C 0.18272 0.69248 0.83773 0.0
C169 C 0.17965 0.73946 0.81529 0.0
C170 C 1.08146 0.67786 0.836 0.0
H171 H 1.04313 0.65315 0.84277 0.0
C172 C 1.07831 0.72628 0.81492 0.0
H173 H 0.22303 0.67757 0.84513 0.0
C174 C 0.12724 0.75642 0.80385 0.0
H175 H 0.12416 0.79159 0.78565 0.0
H176 H 1.03774 0.73904 0.8059 0.0
H177 H 1.07087 0.57003 0.38524 0.0
C178 C 1.10753 0.59834 0.39942 0.0
C179 C 0.14961 0.62017 0.37742 0.0
C180 C 0.1117 0.61493 0.4393 0.0
H181 H 0.22699 0.67777 0.37806 0.0
C182 C 0.1956 0.65919 0.3953 0.0
C183 C 0.19967 0.67731 0.43475 0.0
C184 C 0.15846 0.6539 0.45676 0.0
C185 C 1.06577 0.59489 0.46242 0.0
H186 H 0.16171 0.66798 0.48728 0.0
C187 C 1.03964 0.53639 0.45716 0.0
C188 C 0.99654 0.5175 0.47947 0.0
C189 C 1.04773 0.63458 0.48999 0.0
H190 H 1.06611 0.68016 0.49421 0.0
C191 C 1.00522 0.61614 0.51218 0.0
H192 H 1.05297 0.50563 0.43578 0.0
C193 C 0.9799 0.55806 0.50715 0.0
H194 H 0.94773 0.5448 0.52533 0.0
H195 H 0.9919 0.64701 0.53345 0.0
H196 H 0.65573 1.02213 0.75319 0.0
C197 C 0.65796 0.06802 0.76339 0.0
C198 C 0.65961 0.10874 0.73598 0.0
C199 C 0.65668 0.08619 0.80287 0.0
H200 H 0.65919 0.19959 0.72658 0.0
C201 C 0.65821 0.16814 0.74773 0.0
C202 C 0.6568 0.18796 0.78643 0.0
C203 C 0.65812 0.14729 0.81397 0.0
C204 C 0.65131 0.04171 0.83196 0.0
H205 H 0.65919 0.16395 0.84383 0.0
C206 C 0.66531 0.98376 0.82475 0.0
C207 C 0.65832 0.94267 0.85199 0.0
C208 C 0.62976 0.05627 0.86718 0.0
H209 H 0.6154 0.09817 0.87388 0.0
C210 C 0.62456 1.01626 0.89448 0.0
H211 H 0.68214 0.96999 0.79842 0.0
C212 C 0.63884 0.96004 0.88709 0.0
H213 H 0.63282 0.92934 0.90838 0.0
H214 H 0.60814 0.02859 0.9213 0.0
H215 H 0.60986 0.56831 0.06939 0.0
C216 C 0.65262 0.56672 0.08101 0.0
C217 C 0.69379 0.567 0.05503 0.0
C218 C 0.66594 0.56602 0.12094 0.0
H219 H 0.78171 0.56795 0.04842 0.0
C220 C 0.75066 0.56821 0.06885 0.0
C221 C 0.76834 0.56799 0.10814 0.0
C222 C 0.72524 0.56559 0.13399 0.0
C223 C 0.61802 0.56731 0.14794 0.0
H224 H 0.739 0.56424 0.16396 0.0
C225 C 0.5578 0.56183 0.13523 0.0
C226 C 0.51583 0.56351 0.16208 0.0
C227 C 0.63275 0.57552 0.18805 0.0
H228 H 0.67595 0.5817 0.20041 0.0
C229 C 0.5923 0.57698 0.21395 0.0
H230 H 0.5427 0.55515 0.10506 0.0
C231 C 0.5352 0.57087 0.20133 0.0
H232 H 0.50567 0.57268 0.22275 0.0
H233 H 0.60557 0.58328 0.24453 0.0
C234 C 0.35692 0.5152 0.16664 0.0
C235 C 0.32992 0.55898 0.14962 0.0
H236 H 0.4344 0.48157 0.18306 0.0
C237 C 0.36524 0.60109 0.13277 0.0
H238 H 0.33247 0.48165 0.17993 0.0
C239 C 0.42459 0.60038 0.13395 0.0
C240 C 0.4516 0.55753 0.15209 0.0
H241 H 0.34716 0.63557 0.11907 0.0
H242 H 0.44969 0.63513 0.12212 0.0
C243 C 0.41602 0.5148 0.16809 0.0
C244 C 0.88589 0.38459 0.47434 0.0
C245 C 0.91777 0.33791 0.46892 0.0
H246 H 0.88528 0.47738 0.48097 0.0
C247 C 0.97555 0.35082 0.46554 0.0
H248 H 0.84146 0.37646 0.47758 0.0
C249 C 1.00102 0.40897 0.46836 0.0
C250 C 0.96924 0.45559 0.47444 0.0
H251 H 1.00124 0.31597 0.46088 0.0
H252 H 1.04587 0.41731 0.46668 0.0
C253 C 0.91124 0.44262 0.47688 0.0
C254 C 0.70355 0.793 0.86521 0.0
C255 C 0.67054 0.75737 0.83475 0.0
H256 H 0.72553 0.8797 0.89452 0.0
C257 C 0.63763 0.7843 0.80799 0.0
H258 H 0.72933 0.77376 0.88632 0.0
C259 C 0.63654 0.84514 0.8122 0.0
C260 C 0.66748 0.8803 0.84367 0.0
H261 H 0.61196 0.7582 0.78404 0.0
H262 H 0.6094 0.86434 0.79187 0.0
C263 C 0.70151 0.85367 0.86986 0.0
C264 C 0.91633 0.53033 0.14711 0.0
C265 C 0.95427 0.57061 0.13075 0.0
H266 H 0.82977 0.49811 0.15411 0.0
C267 C 0.92959 0.61206 0.10976 0.0
H268 H 0.93261 0.49759 0.16367 0.0
C269 C 0.8705 0.61228 0.10433 0.0
C270 C 0.83226 0.57151 0.11986 0.0
H271 H 0.95606 0.64423 0.09667 0.0
H272 H 0.85447 0.64444 0.08711 0.0
C273 C 0.85675 0.53095 0.14195 0.0
C274 C 0.31519 0.76898 0.50313 0.0
C275 C 0.32201 0.82104 0.48525 0.0
H276 H 0.27049 0.68226 0.50117 0.0
C277 C 0.28949 0.82474 0.45046 0.0
H278 H 0.3398 0.76517 0.53001 0.0
C279 C 0.25066 0.77752 0.4339 0.0
C280 C 0.24317 0.7257 0.45191 0.0
H281 H 0.2944 0.86413 0.43586 0.0
H282 H 0.22566 0.78195 0.40728 0.0
C283 C 0.27561 0.7218 0.48676 0.0
C284 C 0.60934 0.3388 0.78367 0.0
C285 C 0.64858 0.3738 0.81105 0.0
H286 H 0.58126 0.25308 0.75471 0.0
C287 C 0.68866 0.34633 0.83225 0.0
H288 H 0.57788 0.35821 0.76679 0.0
C289 C 0.6902 0.28559 0.82552 0.0
C290 C 0.65224 0.25121 0.79706 0.0
H291 H 0.71935 0.37184 0.85371 0.0
H292 H 0.7223 0.26591 0.84159 0.0
C293 C 0.61137 0.27848 0.77663 0.0
C294 C 0.6839 0.84352 0.46892 0.0
C295 C 0.65278 0.87086 0.49565 0.0
H296 H 0.70264 0.76231 0.44134 0.0
C297 C 0.61961 0.83545 0.51774 0.0
H298 H 0.70973 0.86939 0.45136 0.0
C299 C 0.61666 0.77413 0.51258 0.0
C300 C 0.64591 0.74691 0.4847 0.0
H301 H 0.59537 0.85509 0.53873 0.0
H302 H 0.58959 0.74788 0.52921 0.0
C303 C 0.67996 0.78224 0.46319 0.0
C304 C 1.00204 0.38973 0.84397 0.0
C305 C 0.98218 0.40756 0.80862 0.0
H306 H 1.06808 0.40614 0.8892 0.0
C307 C 1.02181 0.42137 0.78277 0.0
H308 H 0.97298 0.3742 0.8637 0.0
C309 C 1.07781 0.4397 0.79738 0.0
C310 C 1.0926 0.44357 0.8374 0.0
H311 H 1.00796 0.43104 0.75406 0.0
H312 H 1.10566 0.46126 0.77901 0.0
C313 C 1.05754 0.40885 0.85886 0.0
C314 C 0.43318 0.8971 0.14638 0.0
C315 C 0.38484 0.89178 0.16605 0.0
H316 H 0.51833 0.9374 0.14671 0.0
C317 C 0.38643 0.92344 0.20234 0.0
H318 H 0.43317 0.87342 0.11829 0.0
C319 C 0.43495 0.95979 0.21854 0.0
C320 C 0.48318 0.96556 0.19885 0.0
H321 H 0.35021 0.91973 0.21848 0.0
H322 H 0.43434 0.98422 0.24631 0.0
C323 C 0.48178 0.93391 0.16253 0.0
C324 C 0.60108 0.27415 0.53699 0.0
C325 C 0.64104 0.24989 0.51592 0.0
H326 H 0.57085 0.35195 0.56005 0.0
C327 C 0.68018 0.28809 0.49958 0.0
H328 H 0.57002 0.24638 0.54979 0.0
C329 C 0.68027 0.34922 0.50531 0.0
C330 C 0.64156 0.3731 0.52774 0.0
H331 H 0.71139 0.27091 0.48302 0.0
H332 H 0.71186 0.37777 0.49351 0.0
C333 C 0.60145 0.33479 0.54287 0.0
C334 C 0.33168 0.77744 0.81517 0.0
C335 C 0.33862 0.73954 0.7827 0.0
H336 H 0.27247 0.80867 0.85131 0.0
C337 C 0.29244 0.72257 0.75466 0.0
H338 H 0.36683 0.79329 0.83659 0.0
C339 C 0.2388 0.73367 0.76248 0.0
C340 C 0.23088 0.76084 0.79855 0.0
H341 H 0.29596 0.69392 0.72907 0.0
H342 H 0.20298 0.71281 0.74299 0.0
C343 C 0.27782 0.78733 0.82335 0.0
C344 C 0.85237 0.27278 0.2141 0.0
C345 C 0.88241 0.27446 0.18166 0.0
H346 H 0.77375 0.24658 0.23586 0.0
C347 C 0.85576 0.24836 0.14586 0.0
H348 H 0.87203 0.29235 0.24207 0.0
C349 C 0.79973 0.22282 0.14229 0.0
C350 C 0.76933 0.22209 0.17453 0.0
H351 H 0.87769 0.24943 0.12031 0.0
H352 H 0.77982 0.20426 0.11417 0.0
C353 C 0.79642 0.24631 0.21063 0.0
C354 C 0.12671 0.57582 0.02223 0.0
C355 C 0.15466 0.53327 0.0392 0.0
H356 H 1.10732 0.61587 0.97102 0.0
C357 C 0.19052 0.50257 0.0181 0.0
H358 H 1.09921 0.60047 0.03807 0.0
C359 C 0.19591 0.51197 0.97982 0.0
C360 C 0.16548 0.55222 0.96208 0.0
H361 H 0.21322 0.47013 0.03082 0.0
H362 H 0.22222 0.48623 0.96367 0.0
C363 C 0.13204 0.58521 0.984 0.0
C364 C 0.59402 0.10957 0.3766 0.0
C365 C 0.61055 0.06258 0.39567 0.0
H366 H 0.57769 0.14363 0.32244 0.0
C367 C 0.62778 1.01473 0.37437 0.0
H368 H 0.58082 0.14705 0.39251 0.0
C369 C 0.62489 1.0123 0.33421 0.0
C370 C 0.60645 0.05849 0.31508 0.0
H371 H 0.64054 0.97794 0.38851 0.0
H372 H 0.6354 0.97366 0.31797 0.0
C373 C 0.59259 0.10784 0.33666 0.0
C374 C 0.62949 0.51489 0.69584 0.0
C375 C 0.67119 0.56026 0.71229 0.0
H376 H 0.58829 0.4662 0.64405 0.0
C377 C 0.70083 0.59511 0.68816 0.0
H378 H 0.60556 0.48776 0.71378 0.0
C379 C 0.6908 0.58286 0.64815 0.0
C380 C 0.65117 0.53542 0.63176 0.0
H381 H 0.73294 0.63064 0.70019 0.0
H382 H 0.71584 0.6087 0.63014 0.0
C383 C 0.61963 0.50254 0.65597 0.0
C384 C 0.63386 0.10085 0.6277 0.0
C385 C 0.67651 0.06904 0.61591 0.0
H386 H 0.59456 0.13733 0.67479 0.0
C387 C 0.71029 0.04525 0.6437 0.0
H388 H 0.60666 0.11914 0.60692 0.0
C389 C 0.70315 0.05563 0.68285 0.0
C390 C 0.66232 0.09015 0.69465 0.0
H391 H 0.74327 1.02029 0.63533 0.0
H392 H 0.73111 0.03891 0.70395 0.0
C393 C 0.6269 0.11134 0.66658 0.0
C394 C 0.69279 0.60035 0.95052 0.0
C395 C 0.64566 0.56244 0.93271 0.0
H396 H 0.74464 0.63201 0.00304 0.0
C397 C 0.61444 0.52626 0.9553 0.0
H398 H 0.71771 0.62872 0.93384 0.0
C399 C 0.62988 0.528 -0.00511 0.0
C400 C 0.67709 0.56582 0.01285 0.0
H401 H 0.57806 0.49639 0.94237 0.0
H402 H 0.60527 0.49903 0.01137 0.0
C403 C 0.70838 0.60197 0.99013 0.0
C404 C 0.18376 0.58487 0.27569 0.0
C405 C 0.14012 0.60717 0.25469 0.0
H406 H 0.2211 0.57191 0.33174 0.0
C407 C 1.09655 0.6275 0.27392 0.0
H408 H 0.21776 0.56888 0.26144 0.0
C409 C 1.09772 0.62779 0.31377 0.0
C410 C 0.14303 0.60879 0.33507 0.0
H411 H 1.06223 0.64451 0.25824 0.0
H412 H 1.06482 0.64582 0.32818 0.0
C413 C 0.1856 0.58643 0.31573 0.0
loop_
_geom_bond_atom_site_label_1
_geom_bond_atom_site_label_2
_geom_bond_distance
_geom_bond_site_symmetry_2
_ccdc_geom_bond_type
Nd0 C2 2.836 . S
Nd0 O20 2.500 . S
Nd0 O21 2.492 . S
Nd0 O22 2.487 . S
Nd0 O23 2.682 . S
Nd0 O24 2.410 . S
Nd0 O29 2.414 . S
Nd0 O31 2.424 1_455 S
Nd1 C11 2.836 1_455 S
Nd1 O23 2.414 . S
Nd1 O25 2.424 . S
Nd1 O26 2.500 1_455 S
Nd1 O27 2.492 1_455 S
Nd1 O28 2.487 . S
Nd1 O29 2.682 . S
Nd1 O30 2.410 1_455 S
C2 Nd0 2.836 . S
C2 C3 1.498 . S
C2 O20 1.258 . S
C2 O21 1.239 . S
C3 C2 1.498 . S
C3 C4 1.366 . S
C3 C8 1.407 . S
C4 C3 1.366 . S
C4 C5 1.392 . S
C4 H32 0.930 . S
C5 C4 1.392 . S
C5 C6 1.398 . S
C5 H33 0.929 . S
C6 C5 1.398 . S
C6 C7 1.352 . S
C7 C6 1.352 . S
C7 C8 1.384 . S
C7 H34 0.930 . S
C8 C3 1.407 . S
C8 C7 1.384 . S
C8 H35 0.929 . S
C9 O22 1.241 . S
C9 O23 1.273 . S
C10 O24 1.251 . S
C10 O25 1.268 . S
C11 Nd1 2.836 1_655 S
C11 C12 1.498 . S
C11 O26 1.258 . S
C11 O27 1.239 . S
C12 C11 1.498 . S
C12 C13 1.366 . S
C12 C17 1.407 . S
C13 C12 1.366 . S
C13 C14 1.392 . S
C13 H36 0.930 . S
C14 C13 1.392 . S
C14 C15 1.398 . S
C14 H37 0.929 . S
C15 C14 1.398 . S
C15 C16 1.352 . S
C16 C15 1.352 . S
C16 C17 1.384 . S
C16 H38 0.930 . S
C17 C12 1.407 . S
C17 C16 1.384 . S
C17 H39 0.929 . S
C18 O28 1.241 . S
C18 O29 1.273 . S
C19 O30 1.251 . S
C19 O31 1.268 . S
O20 Nd0 2.500 . S
O20 C2 1.258 . S
O21 Nd0 2.492 . S
O21 C2 1.239 . S
O22 Nd0 2.487 . S
O22 C9 1.241 . S
O23 Nd0 2.682 . S
O23 Nd1 2.414 . S
O23 C9 1.273 . S
O24 Nd0 2.410 . S
O24 C10 1.251 . S
O25 Nd1 2.424 . S
O25 C10 1.268 . S
O26 Nd1 2.500 1_655 S
O26 C11 1.258 . S
O27 Nd1 2.492 1_655 S
O27 C11 1.239 . S
O28 Nd1 2.487 . S
O28 C18 1.241 . S
O29 Nd0 2.414 . S
O29 Nd1 2.682 . S
O29 C18 1.273 . S
O30 Nd1 2.410 1_655 S
O30 C19 1.251 . S
O31 Nd0 2.424 1_655 S
O31 C19 1.268 . S
H32 C4 0.930 . S
H33 C5 0.929 . S
H34 C7 0.930 . S
H35 C8 0.929 . S
H36 C13 0.930 . S
H37 C14 0.929 . S
H38 C16 0.930 . S
H39 C17 0.929 . S
Nd40 C42 2.836 1_545 S
Nd40 O60 2.500 1_545 S
Nd40 O61 2.492 1_545 S
Nd40 O62 2.487 . S
Nd40 O63 2.682 . S
Nd40 O64 2.410 1_545 S
Nd40 O69 2.414 . S
Nd40 O71 2.424 . S
Nd41 C51 2.836 . S
Nd41 O63 2.414 . S
Nd41 O65 2.424 1_545 S
Nd41 O66 2.500 . S
Nd41 O67 2.492 . S
Nd41 O68 2.487 . S
Nd41 O69 2.682 . S
Nd41 O70 2.410 . S
C42 Nd40 2.836 1_565 S
C42 C43 1.498 . S
C42 O60 1.258 . S
C42 O61 1.239 . S
C43 C42 1.498 . S
C43 C44 1.366 . S
C43 C48 1.407 . S
C44 C43 1.366 . S
C44 C45 1.392 . S
C44 H72 0.930 . S
C45 C44 1.392 . S
C45 C46 1.398 . S
C45 H73 0.929 . S
C46 C45 1.398 . S
C46 C47 1.352 . S
C47 C46 1.352 . S
C47 C48 1.384 . S
C47 H74 0.930 . S
C48 C43 1.407 . S
C48 C47 1.384 . S
C48 H75 0.929 . S
C49 O62 1.241 . S
C49 O63 1.273 . S
C50 O64 1.251 . S
C50 O65 1.268 . S
C51 Nd41 2.836 . S
C51 C52 1.498 . S
C51 O66 1.258 . S
C51 O67 1.239 . S
C52 C51 1.498 . S
C52 C53 1.366 . S
C52 C57 1.407 . S
C53 C52 1.366 . S
C53 C54 1.392 . S
C53 H76 0.930 . S
C54 C53 1.392 . S
C54 C55 1.398 . S
C54 H77 0.929 . S
C55 C54 1.398 . S
C55 C56 1.352 . S
C56 C55 1.352 . S
C56 C57 1.384 . S
C56 H78 0.930 . S
C57 C52 1.407 . S
C57 C56 1.384 . S
C57 H79 0.929 . S
C58 O68 1.241 . S
C58 O69 1.273 . S
C59 O70 1.251 . S
C59 O71 1.268 . S
O60 Nd40 2.500 1_565 S
O60 C42 1.258 . S
O61 Nd40 2.492 1_565 S
O61 C42 1.239 . S
O62 Nd40 2.487 . S
O62 C49 1.241 . S
O63 Nd40 2.682 . S
O63 Nd41 2.414 . S
O63 C49 1.273 . S
O64 Nd40 2.410 1_565 S
O64 C50 1.251 . S
O65 Nd41 2.424 1_565 S
O65 C50 1.268 . S
O66 Nd41 2.500 . S
O66 C51 1.258 . S
O67 Nd41 2.492 . S
O67 C51 1.239 . S
O68 Nd41 2.487 . S
O68 C58 1.241 . S
O69 Nd40 2.414 . S
O69 Nd41 2.682 . S
O69 C58 1.273 . S
O70 Nd41 2.410 . S
O70 C59 1.251 . S
O71 Nd40 2.424 . S
O71 C59 1.268 . S
H72 C44 0.930 . S
H73 C45 0.929 . S
H74 C47 0.930 . S
H75 C48 0.929 . S
H76 C53 0.930 . S
H77 C54 0.929 . S
H78 C56 0.930 . S
H79 C57 0.929 . S
Nd80 C82 2.836 . S
Nd80 O100 2.500 . S
Nd80 O101 2.492 . S
Nd80 O102 2.487 . S
Nd80 O103 2.682 . S
Nd80 O104 2.410 . S
Nd80 O109 2.414 . S
Nd80 O111 2.424 . S
Nd81 C91 2.836 . S
Nd81 O103 2.414 . S
Nd81 O105 2.424 . S
Nd81 O106 2.500 . S
Nd81 O107 2.492 . S
Nd81 O108 2.487 . S
Nd81 O109 2.682 . S
Nd81 O110 2.410 . S
C82 Nd80 2.836 . S
C82 C83 1.498 . S
C82 O100 1.258 . S
C82 O101 1.239 . S
C83 C82 1.498 . S
C83 C84 1.366 . S
C83 C88 1.407 . S
C84 C83 1.366 . S
C84 C85 1.392 . S
C84 H112 0.930 . S
C85 C84 1.392 . S
C85 C86 1.398 . S
C85 H113 0.929 . S
C86 C85 1.398 . S
C86 C87 1.352 . S
C87 C86 1.352 . S
C87 C88 1.384 . S
C87 H114 0.930 . S
C88 C83 1.407 . S
C88 C87 1.384 . S
C88 H115 0.929 . S
C89 O102 1.241 . S
C89 O103 1.273 . S
C90 O104 1.251 . S
C90 O105 1.268 . S
C91 Nd81 2.836 . S
C91 C92 1.498 . S
C91 O106 1.258 . S
C91 O107 1.239 . S
C92 C91 1.498 . S
C92 C93 1.366 . S
C92 C97 1.407 . S
C93 C92 1.366 . S
C93 C94 1.392 . S
C93 H116 0.930 . S
C94 C93 1.392 . S
C94 C95 1.398 . S
C94 H117 0.929 . S
C95 C94 1.398 . S
C95 C96 1.352 . S
C96 C95 1.352 . S
C96 C97 1.384 . S
C96 H118 0.930 . S
C97 C92 1.407 . S
C97 C96 1.384 . S
C97 H119 0.929 . S
C98 O108 1.241 . S
C98 O109 1.273 . S
C99 O110 1.251 . S
C99 O111 1.268 . S
O100 Nd80 2.500 . S
O100 C82 1.258 . S
O101 Nd80 2.492 . S
O101 C82 1.239 . S
O102 Nd80 2.487 . S
O102 C89 1.241 . S
O103 Nd80 2.682 . S
O103 Nd81 2.414 . S
O103 C89 1.273 . S
O104 Nd80 2.410 . S
O104 C90 1.251 . S
O105 Nd81 2.424 . S
O105 C90 1.268 . S
O106 Nd81 2.500 . S
O106 C91 1.258 . S
O107 Nd81 2.492 . S
O107 C91 1.239 . S
O108 Nd81 2.487 . S
O108 C98 1.241 . S
O109 Nd80 2.414 . S
O109 Nd81 2.682 . S
O109 C98 1.273 . S
O110 Nd81 2.410 . S
O110 C99 1.251 . S
O111 Nd80 2.424 . S
O111 C99 1.268 . S
H112 C84 0.930 . S
H113 C85 0.929 . S
H114 C87 0.930 . S
H115 C88 0.929 . S
H116 C93 0.930 . S
H117 C94 0.929 . S
H118 C96 0.930 . S
H119 C97 0.929 . S
H120 C121 0.949 . S
C121 H120 0.949 . S
C121 C122 1.395 . S
C121 C123 1.391 . S
C122 C121 1.395 . S
C122 C125 1.390 . S
C123 C121 1.391 . S
C123 C127 1.387 . S
C123 C128 1.491 . S
H124 C125 0.950 1_565 S
C125 C122 1.390 . S
C125 H124 0.950 1_545 S
C125 C126 1.378 1_545 S
C126 C125 1.378 1_565 S
C126 C127 1.409 1_565 S
C127 C123 1.387 . S
C127 C126 1.409 1_545 S
C127 H129 0.951 . S
C128 C123 1.491 . S
C128 C130 1.382 . S
C128 C132 1.404 . S
H129 C127 0.951 . S
C130 C128 1.382 . S
C130 C131 1.390 . S
C130 H135 0.949 . S
C131 C130 1.390 . S
C131 C136 1.399 . S
C132 C128 1.404 . S
C132 H133 0.950 . S
C132 C134 1.375 . S
H133 C132 0.950 . S
C134 C132 1.375 . S
C134 C136 1.382 . S
C134 H138 0.950 . S
H135 C130 0.949 . S
C136 C131 1.399 . S
C136 C134 1.382 . S
C136 H137 0.952 . S
H137 C136 0.952 . S
H138 C134 0.950 . S
H139 C140 0.949 . S
C140 H139 0.949 . S
C140 C141 1.395 . S
C140 C142 1.391 . S
C141 C140 1.395 . S
C141 C144 1.390 . S
C142 C140 1.391 . S
C142 C146 1.387 . S
C142 C147 1.491 . S
H143 C144 0.950 . S
C144 C141 1.390 . S
C144 H143 0.950 . S
C144 C145 1.378 . S
C145 C144 1.378 . S
C145 C146 1.409 . S
C146 C142 1.387 . S
C146 C145 1.409 . S
C146 H148 0.951 . S
C147 C142 1.491 . S
C147 C149 1.382 . S
C147 C151 1.404 . S
H148 C146 0.951 . S
C149 C147 1.382 . S
C149 C150 1.390 . S
C149 H154 0.949 . S
C150 C149 1.390 . S
C150 C155 1.399 . S
C151 C147 1.404 . S
C151 H152 0.950 . S
C151 C153 1.375 . S
H152 C151 0.950 . S
C153 C151 1.375 . S
C153 C155 1.382 . S
C153 H157 0.950 . S
H154 C149 0.949 . S
C155 C150 1.399 . S
C155 C153 1.382 . S
C155 H156 0.952 . S
H156 C155 0.952 . S
H157 C153 0.950 . S
H158 C159 0.949 . S
C159 H158 0.949 . S
C159 C160 1.395 . S
C159 C161 1.391 . S
C160 C159 1.395 . S
C160 C163 1.390 1_455 S
C161 C159 1.391 . S
C161 C165 1.387 . S
C161 C166 1.491 . S
H162 C163 0.950 . S
C163 C160 1.390 1_655 S
C163 H162 0.950 . S
C163 C164 1.378 . S
C164 C163 1.378 . S
C164 C165 1.409 1_655 S
C165 C161 1.387 . S
C165 C164 1.409 1_455 S
C165 H167 0.951 . S
C166 C161 1.491 . S
C166 C168 1.382 . S
C166 C170 1.404 . S
H167 C165 0.951 . S
C168 C166 1.382 . S
C168 C169 1.390 . S
C168 H173 0.949 . S
C169 C168 1.390 . S
C169 C174 1.399 . S
C170 C166 1.404 . S
C170 H171 0.950 . S
C170 C172 1.375 . S
H171 C170 0.950 . S
C172 C170 1.375 . S
C172 C174 1.382 . S
C172 H176 0.950 . S
H173 C168 0.949 . S
C174 C169 1.399 . S
C174 C172 1.382 . S
C174 H175 0.952 . S
H175 C174 0.952 . S
H176 C172 0.950 . S
H177 C178 0.951 1_655 S
C178 H177 0.951 1_455 S
C178 C179 1.393 . S
C178 C180 1.391 . S
C179 C178 1.393 . S
C179 C182 1.390 . S
C180 C178 1.391 . S
C180 C184 1.387 . S
C180 C185 1.491 1_455 S
H181 C182 0.950 . S
C182 C179 1.390 . S
C182 H181 0.950 . S
C182 C183 1.378 . S
C183 C182 1.378 . S
C183 C184 1.409 . S
C184 C180 1.387 . S
C184 C183 1.409 . S
C184 H186 0.951 . S
C185 C180 1.491 1_655 S
C185 C187 1.382 . S
C185 C189 1.404 . S
H186 C184 0.951 . S
C187 C185 1.382 . S
C187 C188 1.390 . S
C187 H192 0.949 . S
C188 C187 1.390 . S
C188 C193 1.399 . S
C189 C185 1.404 . S
C189 H190 0.950 . S
C189 C191 1.375 . S
H190 C189 0.950 . S
C191 C189 1.375 . S
C191 C193 1.382 . S
C191 H195 0.950 . S
H192 C187 0.949 . S
C193 C188 1.399 . S
C193 C191 1.382 . S
C193 H194 0.952 . S
H194 C193 0.952 . S
H195 C191 0.950 . S
H196 C197 0.949 1_565 S
C197 H196 0.949 1_545 S
C197 C198 1.395 . S
C197 C199 1.391 . S
C198 C197 1.395 . S
C198 C201 1.390 . S
C199 C197 1.391 . S
C199 C203 1.387 . S
C199 C204 1.491 1_545 S
H200 C201 0.950 . S
C201 C198 1.390 . S
C201 H200 0.950 . S
C201 C202 1.378 . S
C202 C201 1.378 . S
C202 C203 1.409 . S
C203 C199 1.387 . S
C203 C202 1.409 . S
C203 H205 0.951 . S
C204 C199 1.491 1_565 S
C204 C206 1.382 . S
C204 C208 1.404 . S
H205 C203 0.951 . S
C206 C204 1.382 . S
C206 C207 1.390 . S
C206 H211 0.949 . S
C207 C206 1.390 . S
C207 C212 1.399 . S
C208 C204 1.404 . S
C208 H209 0.950 1_565 S
C208 C210 1.375 . S
H209 C208 0.950 1_545 S
C210 C208 1.375 . S
C210 C212 1.382 . S
C210 H214 0.950 . S
H211 C206 0.949 . S
C212 C207 1.399 . S
C212 C210 1.382 . S
C212 H213 0.952 . S
H213 C212 0.952 . S
H214 C210 0.950 . S
H215 C216 0.949 . S
C216 H215 0.949 . S
C216 C217 1.395 . S
C216 C218 1.391 . S
C217 C216 1.395 . S
C217 C220 1.390 . S
C218 C216 1.391 . S
C218 C222 1.387 . S
C218 C223 1.491 . S
H219 C220 0.950 . S
C220 C217 1.390 . S
C220 H219 0.950 . S
C220 C221 1.378 . S
C221 C220 1.378 . S
C221 C222 1.409 . S
C222 C218 1.387 . S
C222 C221 1.409 . S
C222 H224 0.951 . S
C223 C218 1.491 . S
C223 C225 1.382 . S
C223 C227 1.404 . S
H224 C222 0.951 . S
C225 C223 1.382 . S
C225 C226 1.390 . S
C225 H230 0.949 . S
C226 C225 1.390 . S
C226 C231 1.399 . S
C227 C223 1.404 . S
C227 H228 0.950 . S
C227 C229 1.375 . S
H228 C227 0.950 . S
C229 C227 1.375 . S
C229 C231 1.382 . S
C229 H233 0.950 . S
H230 C225 0.949 . S
C231 C226 1.399 . S
C231 C229 1.382 . S
C231 H232 0.952 . S
H232 C231 0.952 . S
H233 C229 0.950 . S
C234 C235 1.387 . S
C234 H238 0.950 . S
C234 C243 1.390 . S
C235 C234 1.387 . S
C235 C237 1.387 . S
H236 C243 0.950 . S
C237 C235 1.387 . S
C237 C239 1.390 . S
C237 H241 0.950 . S
H238 C234 0.950 . S
C239 C237 1.390 . S
C239 C240 1.387 . S
C239 H242 0.950 . S
C240 C239 1.387 . S
C240 C243 1.387 . S
H241 C237 0.950 . S
H242 C239 0.950 . S
C243 C234 1.390 . S
C243 H236 0.950 . S
C243 C240 1.387 . S
C244 C245 1.387 . S
C244 H248 0.950 . S
C244 C253 1.390 . S
C245 C244 1.387 . S
C245 C247 1.387 . S
H246 C253 0.950 . S
C247 C245 1.387 . S
C247 C249 1.390 . S
C247 H251 0.950 . S
H248 C244 0.950 . S
C249 C247 1.390 . S
C249 C250 1.387 . S
C249 H252 0.950 . S
C250 C249 1.387 . S
C250 C253 1.387 . S
H251 C247 0.950 . S
H252 C249 0.950 . S
C253 C244 1.390 . S
C253 H246 0.950 . S
C253 C250 1.387 . S
C254 C255 1.387 . S
C254 H258 0.950 . S
C254 C263 1.390 . S
C255 C254 1.387 . S
C255 C257 1.387 . S
H256 C263 0.950 . S
C257 C255 1.387 . S
C257 C259 1.390 . S
C257 H261 0.950 . S
H258 C254 0.950 . S
C259 C257 1.390 . S
C259 C260 1.387 . S
C259 H262 0.950 . S
C260 C259 1.387 . S
C260 C263 1.387 . S
H261 C257 0.950 . S
H262 C259 0.950 . S
C263 C254 1.390 . S
C263 H256 0.950 . S
C263 C260 1.387 . S
C264 C265 1.387 . S
C264 H268 0.950 . S
C264 C273 1.390 . S
C265 C264 1.387 . S
C265 C267 1.387 . S
H266 C273 0.950 . S
C267 C265 1.387 . S
C267 C269 1.390 . S
C267 H271 0.950 . S
H268 C264 0.950 . S
C269 C267 1.390 . S
C269 C270 1.387 . S
C269 H272 0.950 . S
C270 C269 1.387 . S
C270 C273 1.387 . S
H271 C267 0.950 . S
H272 C269 0.950 . S
C273 C264 1.390 . S
C273 H266 0.950 . S
C273 C270 1.387 . S
C274 C275 1.387 . S
C274 H278 0.950 . S
C274 C283 1.390 . S
C275 C274 1.387 . S
C275 C277 1.387 . S
H276 C283 0.950 . S
C277 C275 1.387 . S
C277 C279 1.390 . S
C277 H281 0.950 . S
H278 C274 0.950 . S
C279 C277 1.390 . S
C279 C280 1.387 . S
C279 H282 0.950 . S
C280 C279 1.387 . S
C280 C283 1.387 . S
H281 C277 0.950 . S
H282 C279 0.950 . S
C283 C274 1.390 . S
C283 H276 0.950 . S
C283 C280 1.387 . S
C284 C285 1.387 . S
C284 H288 0.950 . S
C284 C293 1.390 . S
C285 C284 1.387 . S
C285 C287 1.387 . S
H286 C293 0.950 . S
C287 C285 1.387 . S
C287 C289 1.390 . S
C287 H291 0.950 . S
H288 C284 0.950 . S
C289 C287 1.390 . S
C289 C290 1.387 . S
C289 H292 0.950 . S
C290 C289 1.387 . S
C290 C293 1.387 . S
H291 C287 0.950 . S
H292 C289 0.950 . S
C293 C284 1.390 . S
C293 H286 0.950 . S
C293 C290 1.387 . S
C294 C295 1.387 . S
C294 H298 0.950 . S
C294 C303 1.390 . S
C295 C294 1.387 . S
C295 C297 1.387 . S
H296 C303 0.950 . S
C297 C295 1.387 . S
C297 C299 1.390 . S
C297 H301 0.950 . S
H298 C294 0.950 . S
C299 C297 1.390 . S
C299 C300 1.387 . S
C299 H302 0.950 . S
C300 C299 1.387 . S
C300 C303 1.387 . S
H301 C297 0.950 . S
H302 C299 0.950 . S
C303 C294 1.390 . S
C303 H296 0.950 . S
C303 C300 1.387 . S
C304 C305 1.387 . S
C304 H308 0.950 . S
C304 C313 1.390 . S
C305 C304 1.387 . S
C305 C307 1.387 . S
H306 C313 0.950 . S
C307 C305 1.387 . S
C307 C309 1.390 . S
C307 H311 0.950 . S
H308 C304 0.950 . S
C309 C307 1.390 . S
C309 C310 1.387 . S
C309 H312 0.950 . S
C310 C309 1.387 . S
C310 C313 1.387 . S
H311 C307 0.950 . S
H312 C309 0.950 . S
C313 C304 1.390 . S
C313 H306 0.950 . S
C313 C310 1.387 . S
C314 C315 1.387 . S
C314 H318 0.950 . S
C314 C323 1.390 . S
C315 C314 1.387 . S
C315 C317 1.387 . S
H316 C323 0.950 . S
C317 C315 1.387 . S
C317 C319 1.390 . S
C317 H321 0.950 . S
H318 C314 0.950 . S
C319 C317 1.390 . S
C319 C320 1.387 . S
C319 H322 0.950 . S
C320 C319 1.387 . S
C320 C323 1.387 . S
H321 C317 0.950 . S
H322 C319 0.950 . S
C323 C314 1.390 . S
C323 H316 0.950 . S
C323 C320 1.387 . S
C324 C325 1.387 . S
C324 H328 0.950 . S
C324 C333 1.390 . S
C325 C324 1.387 . S
C325 C327 1.387 . S
H326 C333 0.950 . S
C327 C325 1.387 . S
C327 C329 1.390 . S
C327 H331 0.950 . S
H328 C324 0.950 . S
C329 C327 1.390 . S
C329 C330 1.387 . S
C329 H332 0.950 . S
C330 C329 1.387 . S
C330 C333 1.387 . S
H331 C327 0.950 . S
H332 C329 0.950 . S
C333 C324 1.390 . S
C333 H326 0.950 . S
C333 C330 1.387 . S
C334 C335 1.387 . S
C334 H338 0.950 . S
C334 C343 1.390 . S
C335 C334 1.387 . S
C335 C337 1.387 . S
H336 C343 0.950 . S
C337 C335 1.387 . S
C337 C339 1.390 . S
C337 H341 0.950 . S
H338 C334 0.950 . S
C339 C337 1.390 . S
C339 C340 1.387 . S
C339 H342 0.950 . S
C340 C339 1.387 . S
C340 C343 1.387 . S
H341 C337 0.950 . S
H342 C339 0.950 . S
C343 C334 1.390 . S
C343 H336 0.950 . S
C343 C340 1.387 . S
C344 C345 1.387 . S
C344 H348 0.950 . S
C344 C353 1.390 . S
C345 C344 1.387 . S
C345 C347 1.387 . S
H346 C353 0.950 . S
C347 C345 1.387 . S
C347 C349 1.390 . S
C347 H351 0.950 . S
H348 C344 0.950 . S
C349 C347 1.390 . S
C349 C350 1.387 . S
C349 H352 0.950 . S
C350 C349 1.387 . S
C350 C353 1.387 . S
H351 C347 0.950 . S
H352 C349 0.950 . S
C353 C344 1.390 . S
C353 H346 0.950 . S
C353 C350 1.387 . S
C354 C355 1.387 . S
C354 H358 0.950 . S
C354 C363 1.390 1_554 S
C355 C354 1.387 . S
C355 C357 1.387 . S
H356 C363 0.950 . S
C357 C355 1.387 . S
C357 C359 1.390 1_554 S
C357 H361 0.950 . S
H358 C354 0.950 . S
C359 C357 1.390 1_556 S
C359 C360 1.387 . S
C359 H362 0.950 . S
C360 C359 1.387 . S
C360 C363 1.387 . S
H361 C357 0.950 . S
H362 C359 0.950 . S
C363 C354 1.390 1_556 S
C363 H356 0.950 . S
C363 C360 1.387 . S
C364 C365 1.387 . S
C364 H368 0.950 . S
C364 C373 1.390 . S
C365 C364 1.387 . S
C365 C367 1.387 . S
H366 C373 0.950 . S
C367 C365 1.387 . S
C367 C369 1.390 . S
C367 H371 0.950 1_545 S
H368 C364 0.950 . S
C369 C367 1.390 . S
C369 C370 1.387 . S
C369 H372 0.950 1_545 S
C370 C369 1.387 . S
C370 C373 1.387 . S
H371 C367 0.950 1_565 S
H372 C369 0.950 1_565 S
C373 C364 1.390 . S
C373 H366 0.950 . S
C373 C370 1.387 . S
C374 C375 1.387 . S
C374 H378 0.950 . S
C374 C383 1.390 . S
C375 C374 1.387 . S
C375 C377 1.387 . S
H376 C383 0.950 . S
C377 C375 1.387 . S
C377 C379 1.390 . S
C377 H381 0.950 . S
H378 C374 0.950 . S
C379 C377 1.390 . S
C379 C380 1.387 . S
C379 H382 0.950 . S
C380 C379 1.387 . S
C380 C383 1.387 . S
H381 C377 0.950 . S
H382 C379 0.950 . S
C383 C374 1.390 . S
C383 H376 0.950 . S
C383 C380 1.387 . S
C384 C385 1.387 . S
C384 H388 0.950 1_545 S
C384 C393 1.390 . S
C385 C384 1.387 . S
C385 C387 1.387 . S
H386 C393 0.950 1_565 S
C387 C385 1.387 . S
C387 C389 1.390 . S
C387 H391 0.950 . S
H388 C384 0.950 1_565 S
C389 C387 1.390 . S
C389 C390 1.387 . S
C389 H392 0.950 . S
C390 C389 1.387 . S
C390 C393 1.387 . S
H391 C387 0.950 . S
H392 C389 0.950 . S
C393 C384 1.390 . S
C393 H386 0.950 1_545 S
C393 C390 1.387 . S
C394 C395 1.387 . S
C394 H398 0.950 . S
C394 C403 1.390 1_556 S
C395 C394 1.387 . S
C395 C397 1.387 . S
H396 C403 0.950 . S
C397 C395 1.387 . S
C397 C399 1.369 1_556 S
C397 H401 0.950 . S
H398 C394 0.950 . S
C399 C397 1.369 1_554 S
C399 C400 1.396 . S
C399 H402 0.963 . S
C400 C399 1.396 . S
C400 C403 1.387 . S
H401 C397 0.950 . S
H402 C399 0.963 . S
C403 C394 1.390 1_554 S
C403 H396 0.950 . S
C403 C400 1.387 . S
C404 C405 1.387 . S
C404 H408 0.950 . S
C404 C413 1.390 . S
C405 C404 1.387 . S
C405 C407 1.387 . S
H406 C413 0.950 . S
C407 C405 1.387 . S
C407 C409 1.390 . S
C407 H411 0.950 . S
H408 C404 0.950 . S
C409 C407 1.390 . S
C409 C410 1.387 . S
C409 H412 0.950 . S
C410 C409 1.387 . S
C410 C413 1.387 . S
H411 C407 0.950 . S
H412 C409 0.950 . S
C413 C404 1.390 . S
C413 H406 0.950 . S
C413 C410 1.387 . S
C235 C10 3.227 . S
C240 C226 3.158 . S
C245 C55 1.352 . S
C250 C188 1.257 . S
C255 C90 2.015 . S
C260 C207 1.983 . S
C265 C19 3.039 . S
C270 C221 3.010 . S
C280 C183 1.161 . S
C275 C46 1.155 . S
C290 C202 1.966 . S
C285 C99 1.966 . S
C295 C50 2.010 . S
C300 C150 1.959 . S
C305 C95 0.744 . S
C310 C164 0.746 . S
C315 C6 1.224 . S
C320 C126 1.215 . S
C330 C145 1.892 . S
C325 C59 1.935 . S
C340 C169 0.757 . S
C335 C86 0.769 . S
C345 C15 1.358 . S
C350 C131 1.290 . S
C360 C160 1.274 . S
C355 C18 1.218 . S
C365 C49 1.563 . S
C370 C122 1.548 . S
C375 C98 1.493 . S
C380 C141 1.502 . S
C390 C198 1.512 . S
C385 C58 1.441 . S
C400 C217 1.796 . S
C395 C89 1.703 . S
C405 C9 1.575 . S
C410 C179 1.562 . S
