# Generated by pormake.
# Topology wbl, (4,4)-cn, num edge types: 1
# Building blocks:
#     Node 0, Type 0, BuildingBlock: MUDLON_clean_linker_0, # of connection points: 4
#     Node 1, Type 0, BuildingBlock: MUDLON_clean_linker_0, # of connection points: 4
#     Node 2, Type 0, BuildingBlock: MUDLON_clean_linker_0, # of connection points: 4
#     Node 3, Type 0, BuildingBlock: MUDLON_clean_linker_0, # of connection points: 4
#     Node 4, Type 0, BuildingBlock: MUDLON_clean_linker_0, # of connection points: 4
#     Node 5, Type 0, BuildingBlock: MUDLON_clean_linker_0, # of connection points: 4
#     Node 6, Type 0, BuildingBlock: MUDLON_clean_linker_0, # of connection points: 4
#     Node 7, Type 0, BuildingBlock: MUDLON_clean_linker_0, # of connection points: 4
#     Node 8, Type 1, BuildingBlock: QUQFOY_clean_sbu_3, # of connection points: 4
#     Node 9, Type 1, BuildingBlock: QUQFOY_clean_sbu_3, # of connection points: 4
#     Node 10, Type 1, BuildingBlock: QUQFOY_clean_sbu_3, # of connection points: 4
#     Node 11, Type 1, BuildingBlock: QUQFOY_clean_sbu_3, # of connection points: 4
#     Node 12, Type 1, BuildingBlock: QUQFOY_clean_sbu_3, # of connection points: 4
#     Node 13, Type 1, BuildingBlock: QUQFOY_clean_sbu_3, # of connection points: 4
#     Node 14, Type 1, BuildingBlock: QUQFOY_clean_sbu_3, # of connection points: 4
#     Node 15, Type 1, BuildingBlock: QUQFOY_clean_sbu_3, # of connection points: 4
#     Edge 16, Type (0, 1), BuildingBlock: ZUJKAS_clean_linker_0, # of connection points: 2
#     Edge 17, Type (0, 1), BuildingBlock: ZUJKAS_clean_linker_0, # of connection points: 2
#     Edge 18, Type (0, 1), BuildingBlock: ZUJKAS_clean_linker_0, # of connection points: 2
#     Edge 19, Type (0, 1), BuildingBlock: ZUJKAS_clean_linker_0, # of connection points: 2
#     Edge 20, Type (0, 1), BuildingBlock: ZUJKAS_clean_linker_0, # of connection points: 2
#     Edge 21, Type (0, 1), BuildingBlock: ZUJKAS_clean_linker_0, # of connection points: 2
#     Edge 22, Type (0, 1), BuildingBlock: ZUJKAS_clean_linker_0, # of connection points: 2
#     Edge 23, Type (0, 1), BuildingBlock: ZUJKAS_clean_linker_0, # of connection points: 2
#     Edge 24, Type (0, 1), BuildingBlock: ZUJKAS_clean_linker_0, # of connection points: 2
#     Edge 25, Type (0, 1), BuildingBlock: ZUJKAS_clean_linker_0, # of connection points: 2
#     Edge 26, Type (0, 1), BuildingBlock: ZUJKAS_clean_linker_0, # of connection points: 2
#     Edge 27, Type (0, 1), BuildingBlock: ZUJKAS_clean_linker_0, # of connection points: 2
#     Edge 28, Type (0, 1), BuildingBlock: ZUJKAS_clean_linker_0, # of connection points: 2
#     Edge 29, Type (0, 1), BuildingBlock: ZUJKAS_clean_linker_0, # of connection points: 2
#     Edge 30, Type (0, 1), BuildingBlock: ZUJKAS_clean_linker_0, # of connection points: 2
#     Edge 31, Type (0, 1), BuildingBlock: ZUJKAS_clean_linker_0, # of connection points: 2
#     Edge 32, Type (0, 1), BuildingBlock: ZUJKAS_clean_linker_0, # of connection points: 2
#     Edge 33, Type (0, 1), BuildingBlock: ZUJKAS_clean_linker_0, # of connection points: 2
#     Edge 34, Type (0, 1), BuildingBlock: ZUJKAS_clean_linker_0, # of connection points: 2
#     Edge 35, Type (0, 1), BuildingBlock: ZUJKAS_clean_linker_0, # of connection points: 2
#     Edge 36, Type (0, 1), BuildingBlock: ZUJKAS_clean_linker_0, # of connection points: 2
#     Edge 37, Type (0, 1), BuildingBlock: ZUJKAS_clean_linker_0, # of connection points: 2
#     Edge 38, Type (0, 1), BuildingBlock: ZUJKAS_clean_linker_0, # of connection points: 2
#     Edge 39, Type (0, 1), BuildingBlock: ZUJKAS_clean_linker_0, # of connection points: 2
#     Edge 40, Type (0, 1), BuildingBlock: ZUJKAS_clean_linker_0, # of connection points: 2
#     Edge 41, Type (0, 1), BuildingBlock: ZUJKAS_clean_linker_0, # of connection points: 2
#     Edge 42, Type (0, 1), BuildingBlock: ZUJKAS_clean_linker_0, # of connection points: 2
#     Edge 43, Type (0, 1), BuildingBlock: ZUJKAS_clean_linker_0, # of connection points: 2
#     Edge 44, Type (0, 1), BuildingBlock: ZUJKAS_clean_linker_0, # of connection points: 2
#     Edge 45, Type (0, 1), BuildingBlock: ZUJKAS_clean_linker_0, # of connection points: 2
#     Edge 46, Type (0, 1), BuildingBlock: ZUJKAS_clean_linker_0, # of connection points: 2
#     Edge 47, Type (0, 1), BuildingBlock: ZUJKAS_clean_linker_0, # of connection points: 2
# Relax obj value: 0.127
# Max RMSD: 0.145
# Mean RMSD: 0.129
data_MOF--net-wbl--node1-QUQFOY_clean_sbu_3--node2-MUDLON_clean_linker_0--edge1-ZUJKAS_clean_linker_0
_symmetry_space_group_name_H-M    P1
_symmetry_Int_Tables_number       1
_symmetry_cell_setting            triclinic
loop_
_symmetry_equiv_pos_as_xyz
'x, y, z'
_cell_length_a     65.477543
_cell_length_b     66.104457
_cell_length_c     93.985329
_cell_angle_alpha  90.740406
_cell_angle_beta   90.247229
_cell_angle_gamma 89.992545
loop_
_atom_site_label
_atom_site_type_symbol
_atom_site_fract_x
_atom_site_fract_y
_atom_site_fract_z
_atom_type_partial_charge
H0 H 0.0975 0.96108 0.3109 0.0
N1 N 0.06188 0.95133 0.29691 0.0
H2 H 0.10773 0.95029 0.33454 0.0
H3 H 0.04009 0.92983 0.3152 0.0
H4 H 0.05037 0.91879 0.33903 0.0
H5 H 0.06807 0.91515 0.28527 0.0
H6 H 0.09792 0.90385 0.27185 0.0
H7 H 0.0909 0.97635 0.28502 0.0
H8 H 0.12031 0.96532 0.27134 0.0
H9 H 0.07481 0.98885 0.30619 0.0
H10 H 0.02522 0.95713 0.28546 0.0
H11 H 0.05532 0.0201 0.30567 0.0
H12 H 0.00511 0.98838 0.28538 0.0
H13 H 0.98288 0.11495 0.31292 0.0
H14 H 0.97061 0.12589 0.3364 0.0
H15 H 0.94718 0.06573 0.34347 0.0
H16 H 0.96014 0.05485 0.3204 0.0
H17 H 0.94689 0.05144 0.29748 0.0
H18 H 0.91391 0.05791 0.28622 0.0
H19 H 0.93581 0.11587 0.2721 0.0
H20 H 0.96883 0.10937 0.28357 0.0
H21 H 0.00653 0.06474 0.31931 0.0
H22 H 0.02701 0.03445 0.31749 0.0
H23 H 0.00176 0.02191 0.27579 0.0
N24 N 0.97828 0.07873 0.30047 0.0
H25 H 0.98058 0.05194 0.27773 0.0
C26 C 0.06797 0.94613 0.3112 0.0
C27 C 0.08703 0.95194 0.31693 0.0
C28 C 0.09294 0.94565 0.33044 0.0
C29 C 0.07994 0.93353 0.33859 0.0
C30 C 0.06068 0.92819 0.33303 0.0
C31 C 0.0548 0.93442 0.31944 0.0
C32 C 0.07712 0.9465 0.2863 0.0
C33 C 0.07915 0.92625 0.28191 0.0
C34 C 0.09623 0.91984 0.27421 0.0
C35 C 0.11168 0.93364 0.27069 0.0
C36 C 0.10889 0.95423 0.27414 0.0
C37 C 0.09185 0.96061 0.28191 0.0
C38 C 0.05148 0.97052 0.29579 0.0
C39 C 0.05976 0.98858 0.30143 0.0
C40 C 0.04846 0.0065 0.30125 0.0
C41 C 0.02851 0.00678 0.29562 0.0
C42 C 0.02048 0.98881 0.28966 0.0
C43 C 0.03189 0.97091 0.28975 0.0
C44 C 0.97247 0.08417 0.31487 0.0
C45 C 0.97536 0.10412 0.31967 0.0
C46 C 0.96817 0.11036 0.33301 0.0
C47 C 0.95783 0.09671 0.34181 0.0
C48 C 0.95529 0.07659 0.33708 0.0
C49 C 0.96252 0.07037 0.32379 0.0
C50 C 0.96036 0.08006 0.29145 0.0
C51 C 0.94475 0.06542 0.29181 0.0
C52 C 0.92587 0.06914 0.28539 0.0
C53 C 0.92222 0.0875 0.27844 0.0
C54 C 0.93822 0.10155 0.27732 0.0
C55 C 0.95708 0.09786 0.28383 0.0
C56 C 0.9904 0.06022 0.29922 0.0
C57 C 0.00475 0.05531 0.30989 0.0
C58 C 0.01691 0.03804 0.30872 0.0
C59 C 0.01584 0.02548 0.29658 0.0
C60 C 0.00249 0.03087 0.2855 0.0
C61 C 0.99019 0.04814 0.2867 0.0
H62 H 0.96103 0.43313 0.55957 0.0
N63 N 0.94908 0.4683 0.54672 0.0
H64 H 0.95089 0.42157 0.58297 0.0
H65 H 0.92696 0.48831 0.56602 0.0
H66 H 0.91658 0.47667 0.58962 0.0
H67 H 0.91231 0.4609 0.536 0.0
H68 H 0.90144 0.43087 0.5226 0.0
H69 H 0.97492 0.44092 0.53336 0.0
H70 H 0.96427 0.41133 0.51972 0.0
H71 H 0.98776 0.45657 0.55468 0.0
H72 H 0.9532 0.50506 0.53601 0.0
H73 H 0.01866 0.47674 0.55348 0.0
H74 H 0.9841 0.5259 0.53534 0.0
H75 H 0.11229 0.5525 0.5603 0.0
H76 H 0.12194 0.56734 0.58342 0.0
H77 H 0.05988 0.58789 0.58937 0.0
H78 H 0.05035 0.57287 0.56641 0.0
H79 H 0.05092 0.58646 0.5431 0.0
H80 H 0.05985 0.61681 0.53002 0.0
H81 H 0.11585 0.58827 0.51617 0.0
H82 H 0.10699 0.55809 0.52968 0.0
H83 H 0.06371 0.52563 0.56611 0.0
H84 H 0.03336 0.50478 0.56518 0.0
H85 H 0.01701 0.53051 0.52469 0.0
N86 N 0.07595 0.55385 0.5475 0.0
H87 H 0.04698 0.55198 0.52579 0.0
C88 C 0.94464 0.46166 0.56097 0.0
C89 C 0.95147 0.44287 0.56603 0.0
C90 C 0.94553 0.43617 0.57941 0.0
C91 C 0.93276 0.44812 0.58807 0.0
C92 C 0.92649 0.46717 0.5832 0.0
C93 C 0.93236 0.47383 0.56975 0.0
C94 C 0.94433 0.45327 0.53588 0.0
C95 C 0.92378 0.45043 0.5321 0.0
C96 C 0.91761 0.43324 0.52442 0.0
C97 C 0.93196 0.41851 0.52028 0.0
C98 C 0.95278 0.42219 0.52302 0.0
C99 C 0.95892 0.43933 0.53077 0.0
C100 C 0.96803 0.47929 0.54536 0.0
C101 C 0.98677 0.47155 0.55026 0.0
C102 C 0.00449 0.48325 0.5497 0.0
C103 C 0.00391 0.50309 0.54445 0.0
C104 C 0.98522 0.51063 0.5393 0.0
C105 C 0.96752 0.4988 0.53973 0.0
C106 C 0.08067 0.56146 0.56165 0.0
C107 C 0.10078 0.56003 0.56669 0.0
C108 C 0.10627 0.56865 0.57982 0.0
C109 C 0.09167 0.57882 0.58818 0.0
C110 C 0.07142 0.57998 0.58323 0.0
C111 C 0.06598 0.57149 0.57006 0.0
C112 C 0.0784 0.56998 0.53741 0.0
C113 C 0.06492 0.58657 0.53704 0.0
C114 C 0.07001 0.6039 0.52946 0.0
C115 C 0.08868 0.60505 0.52216 0.0
C116 C 0.1015 0.58798 0.52185 0.0
C117 C 0.09638 0.57065 0.52942 0.0
C118 C 0.05737 0.54169 0.54657 0.0
C119 C 0.05342 0.52729 0.55714 0.0
C120 C 0.03613 0.515 0.55649 0.0
C121 C 0.02252 0.51608 0.54493 0.0
C122 C 0.02683 0.52969 0.53396 0.0
C123 C 0.04411 0.54216 0.53467 0.0
H124 H 0.58358 0.46124 0.81059 0.0
N125 N 0.54895 0.44945 0.79612 0.0
H126 H 0.59365 0.45128 0.83442 0.0
H127 H 0.52855 0.42577 0.8138 0.0
H128 H 0.53871 0.41557 0.83787 0.0
H129 H 0.55185 0.41403 0.78275 0.0
H130 H 0.5801 0.40181 0.76797 0.0
H131 H 0.58023 0.47281 0.78558 0.0
H132 H 0.60858 0.46066 0.77135 0.0
H133 H 0.56211 0.48754 0.80412 0.0
H134 H 0.51166 0.4545 0.78553 0.0
H135 H 0.54256 0.5186 0.80314 0.0
H136 H 0.49141 0.48565 0.78512 0.0
H137 H 0.4683 0.61273 0.81198 0.0
H138 H 0.45412 0.62221 0.83523 0.0
H139 H 0.43232 0.56105 0.84034 0.0
H140 H 0.44677 0.55167 0.81728 0.0
H141 H 0.43242 0.55254 0.79407 0.0
H142 H 0.40106 0.56212 0.78181 0.0
H143 H 0.42939 0.61796 0.7689 0.0
H144 H 0.46063 0.60843 0.78159 0.0
H145 H 0.49467 0.56402 0.81681 0.0
H146 H 0.51502 0.53353 0.81531 0.0
H147 H 0.48716 0.51858 0.77479 0.0
N148 N 0.46568 0.57703 0.79862 0.0
H149 H 0.46618 0.54874 0.77646 0.0
C150 C 0.55511 0.44436 0.8104 0.0
C151 C 0.5735 0.45149 0.81645 0.0
C152 C 0.57928 0.44578 0.83013 0.0
C153 C 0.56694 0.43269 0.83802 0.0
C154 C 0.54859 0.42556 0.83198 0.0
C155 C 0.54272 0.43144 0.81832 0.0
C156 C 0.56381 0.44425 0.78537 0.0
C157 C 0.56394 0.4244 0.77994 0.0
C158 C 0.58019 0.41741 0.77163 0.0
C159 C 0.59676 0.43017 0.76862 0.0
C160 C 0.59601 0.45045 0.77334 0.0
C161 C 0.57972 0.45743 0.78161 0.0
C162 C 0.5384 0.46852 0.79479 0.0
C163 C 0.54688 0.48689 0.7997 0.0
C164 C 0.53551 0.50475 0.79929 0.0
C165 C 0.51527 0.50467 0.7942 0.0
C166 C 0.507 0.48637 0.78898 0.0
C167 C 0.5185 0.46852 0.78926 0.0
C168 C 0.45869 0.58157 0.8129 0.0
C169 C 0.46068 0.60137 0.81823 0.0
C170 C 0.45242 0.60676 0.83143 0.0
C171 C 0.44204 0.59238 0.83958 0.0
C172 C 0.4404 0.57242 0.83437 0.0
C173 C 0.44856 0.56707 0.82114 0.0
C174 C 0.44891 0.57986 0.78878 0.0
C175 C 0.43205 0.56664 0.78836 0.0
C176 C 0.41413 0.57212 0.78126 0.0
C177 C 0.41264 0.59092 0.77449 0.0
C178 C 0.42995 0.60351 0.77419 0.0
C179 C 0.44787 0.598 0.78128 0.0
C180 C 0.47756 0.55841 0.79732 0.0
C181 C 0.49243 0.55402 0.80772 0.0
C182 C 0.50444 0.53665 0.80673 0.0
C183 C 0.5026 0.52339 0.795 0.0
C184 C 0.48855 0.52813 0.78419 0.0
C185 C 0.47637 0.54552 0.78523 0.0
H186 H 0.48116 0.94758 0.06928 0.0
N187 N 0.45445 0.96238 0.04946 0.0
H188 H 0.47252 0.93633 0.09314 0.0
H189 H 0.41911 0.96723 0.0628 0.0
H190 H 0.41042 0.95676 0.0869 0.0
H191 H 0.42647 0.96048 0.02888 0.0
H192 H 0.41504 0.93018 0.01569 0.0
H193 H 0.47279 0.92504 0.04973 0.0
H194 H 0.46167 0.8951 0.03666 0.0
H195 H 0.49302 0.9506 0.0404 0.0
H196 H 0.45644 0.00212 0.05281 0.0
H197 H 0.52233 0.97241 0.03731 0.0
H198 H 0.48616 0.02405 0.05042 0.0
H199 H 0.61455 0.05448 0.05595 0.0
H200 H 0.62457 0.06633 0.07971 0.0
H201 H 0.56088 0.07232 0.09102 0.0
H202 H 0.5511 0.06136 0.06711 0.0
H203 H 0.55612 0.08821 0.04838 0.0
H204 H 0.56346 0.11988 0.03655 0.0
H205 H 0.60917 0.08976 0.01092 0.0
H206 H 0.60139 0.05777 0.02272 0.0
H207 H 0.57598 0.01338 0.05065 0.0
H208 H 0.54642 0.99094 0.05067 0.0
H209 H 0.50885 0.03938 0.03457 0.0
N210 N 0.57705 0.05256 0.04502 0.0
H211 H 0.53796 0.06183 0.0352 0.0
C212 C 0.45067 0.95816 0.06423 0.0
C213 C 0.46574 0.9498 0.07309 0.0
C214 C 0.46078 0.94346 0.08679 0.0
C215 C 0.4407 0.94545 0.09191 0.0
C216 C 0.42592 0.95462 0.08321 0.0
C217 C 0.43087 0.96082 0.0695 0.0
C218 C 0.4506 0.94522 0.04016 0.0
C219 C 0.43452 0.94634 0.03032 0.0
C220 C 0.42792 0.92903 0.0229 0.0
C221 C 0.43748 0.91029 0.02514 0.0
C222 C 0.4542 0.90937 0.03452 0.0
C223 C 0.4606 0.92658 0.04203 0.0
C224 C 0.47222 0.97472 0.04677 0.0
C225 C 0.49112 0.96658 0.04246 0.0
C226 C 0.50811 0.97915 0.04079 0.0
C227 C 0.50675 7e-05 0.04362 0.0
C228 C 0.48779 0.00812 0.04785 0.0
C229 C 0.47078 0.9956 0.04933 0.0
C230 C 0.58217 0.0569 0.05972 0.0
C231 C 0.6028 0.05807 0.06366 0.0
C232 C 0.60847 0.0648 0.07726 0.0
C233 C 0.59353 0.0704 0.08729 0.0
C234 C 0.5728 0.06849 0.0835 0.0
C235 C 0.56716 0.06196 0.06985 0.0
C236 C 0.57822 0.07049 0.0364 0.0
C237 C 0.56738 0.08822 0.04 0.0
C238 C 0.57173 0.10641 0.0333 0.0
C239 C 0.58713 0.1074 0.02296 0.0
C240 C 0.59715 0.08947 0.01879 0.0
C241 C 0.59273 0.0712 0.0255 0.0
C242 C 0.5595 0.03941 0.04308 0.0
C243 C 0.56138 0.01908 0.047 0.0
C244 C 0.54444 0.00624 0.04693 0.0
C245 C 0.52511 0.01333 0.04272 0.0
C246 C 0.52336 0.03348 0.03821 0.0
C247 C 0.54026 0.04642 0.03848 0.0
H248 H 0.08438 0.56031 0.94259 0.0
N249 N 0.04791 0.57013 0.95523 0.0
H250 H 0.09601 0.57083 0.91928 0.0
H251 H 0.02708 0.59102 0.93594 0.0
H252 H 0.03881 0.60188 0.91247 0.0
H253 H 0.05345 0.60682 0.96629 0.0
H254 H 0.08264 0.61874 0.98032 0.0
H255 H 0.07621 0.54569 0.96864 0.0
H256 H 0.10489 0.55736 0.98294 0.0
H257 H 0.06176 0.53261 0.94667 0.0
H258 H 0.01108 0.56395 0.96609 0.0
H259 H 0.04306 0.50095 0.9476 0.0
H260 H 0.99177 0.53223 0.96658 0.0
H261 H 0.96996 0.40501 0.93988 0.0
H262 H 0.95543 0.39548 0.91664 0.0
H263 H 0.93327 0.45654 0.91159 0.0
H264 H 0.94798 0.46596 0.93464 0.0
H265 H 0.93481 0.46583 0.95806 0.0
H266 H 0.90369 0.45697 0.97069 0.0
H267 H 0.931 0.40028 0.983 0.0
H268 H 0.96206 0.40916 0.97002 0.0
H269 H 0.99545 0.45439 0.93456 0.0
H270 H 0.01522 0.48528 0.93584 0.0
H271 H 0.98942 0.49911 0.97704 0.0
N272 N 0.96748 0.44074 0.95323 0.0
H273 H 0.96909 0.46851 0.97565 0.0
C274 C 0.05477 0.57497 0.94108 0.0
C275 C 0.07421 0.56923 0.9361 0.0
C276 C 0.08094 0.57539 0.92278 0.0
C277 C 0.06842 0.58735 0.91409 0.0
C278 C 0.04877 0.59258 0.91889 0.0
C279 C 0.04206 0.58646 0.93228 0.0
C280 C 0.06254 0.57545 0.96623 0.0
C281 C 0.06434 0.59588 0.97024 0.0
C282 C 0.08103 0.60266 0.9783 0.0
C283 C 0.09629 0.58903 0.98258 0.0
C284 C 0.09362 0.56831 0.97955 0.0
C285 C 0.077 0.56157 0.97142 0.0
C286 C 0.0378 0.5508 0.95634 0.0
C287 C 0.0466 0.53274 0.95117 0.0
C288 C 0.03578 0.51456 0.95161 0.0
C289 C 0.01579 0.51401 0.95704 0.0
C290 C 0.0072 0.53201 0.96247 0.0
C291 C 0.01814 0.55018 0.96214 0.0
C292 C 0.96018 0.43613 0.93899 0.0
C293 C 0.96216 0.41633 0.93366 0.0
C294 C 0.95372 0.41091 0.92047 0.0
C295 C 0.94317 0.42526 0.91233 0.0
C296 C 0.94148 0.4452 0.91756 0.0
C297 C 0.94979 0.45058 0.93078 0.0
C298 C 0.95083 0.43809 0.96309 0.0
C299 C 0.93429 0.45169 0.96371 0.0
C300 C 0.91652 0.44663 0.97102 0.0
C301 C 0.91482 0.42783 0.97776 0.0
C302 C 0.93176 0.41477 0.97777 0.0
C303 C 0.94957 0.41988 0.97051 0.0
C304 C 0.97928 0.45944 0.95443 0.0
C305 C 0.99351 0.46422 0.94377 0.0
C306 C 0.0052 0.48183 0.94462 0.0
C307 C 0.00369 0.49493 0.95644 0.0
C308 C 0.99046 0.48971 0.96755 0.0
C309 C 0.97864 0.47208 0.96667 0.0
H310 H 0.54856 0.42139 0.19288 0.0
N311 N 0.55966 0.4566 0.20663 0.0
H312 H 0.55829 0.41081 0.16899 0.0
H313 H 0.58105 0.47756 0.18786 0.0
H314 H 0.59073 0.46711 0.16366 0.0
H315 H 0.59684 0.45301 0.21749 0.0
H316 H 0.6106 0.42436 0.2306 0.0
H317 H 0.53671 0.42655 0.21905 0.0
H318 H 0.55021 0.39821 0.23235 0.0
H319 H 0.52126 0.44266 0.19957 0.0
H320 H 0.55419 0.49344 0.21751 0.0
H321 H 0.48961 0.4617 0.20088 0.0
H322 H 0.52248 0.51307 0.21834 0.0
H323 H 0.39511 0.53723 0.19168 0.0
H324 H 0.386 0.55059 0.1683 0.0
H325 H 0.44873 0.56868 0.16211 0.0
H326 H 0.45755 0.55571 0.1855 0.0
H327 H 0.45799 0.57078 0.20843 0.0
H328 H 0.45075 0.60276 0.22058 0.0
H329 H 0.39261 0.5792 0.2343 0.0
H330 H 0.39984 0.54727 0.22175 0.0
H331 H 0.44403 0.50946 0.18683 0.0
H332 H 0.47444 0.48883 0.18854 0.0
H333 H 0.48917 0.517 0.229 0.0
N334 N 0.43127 0.53917 0.20478 0.0
H335 H 0.45905 0.53813 0.22719 0.0
C336 C 0.56409 0.45038 0.19219 0.0
C337 C 0.55756 0.43161 0.18658 0.0
C338 C 0.5631 0.42557 0.17285 0.0
C339 C 0.57529 0.43812 0.16442 0.0
C340 C 0.58152 0.45701 0.16995 0.0
C341 C 0.57591 0.46307 0.18371 0.0
C342 C 0.56583 0.44202 0.21714 0.0
C343 C 0.5865 0.44137 0.22107 0.0
C344 C 0.59431 0.42498 0.22859 0.0
C345 C 0.58154 0.40884 0.23235 0.0
C346 C 0.56052 0.41023 0.22936 0.0
C347 C 0.55272 0.42661 0.22181 0.0
C348 C 0.54024 0.46661 0.20852 0.0
C349 C 0.52173 0.45784 0.20394 0.0
C350 C 0.50356 0.46888 0.20455 0.0
C351 C 0.50347 0.48903 0.20956 0.0
C352 C 0.5219 0.49753 0.21455 0.0
C353 C 0.54005 0.48639 0.21404 0.0
C354 C 0.42693 0.54541 0.19036 0.0
C355 C 0.40688 0.54389 0.18518 0.0
C356 C 0.40174 0.5515 0.17182 0.0
C357 C 0.41662 0.56082 0.16337 0.0
C358 C 0.43683 0.56194 0.16845 0.0
C359 C 0.44193 0.55441 0.18181 0.0
C360 C 0.42938 0.55657 0.21417 0.0
C361 C 0.44384 0.57234 0.21424 0.0
C362 C 0.43972 0.59061 0.22129 0.0
C363 C 0.42102 0.59359 0.22833 0.0
C364 C 0.40704 0.57746 0.22882 0.0
C365 C 0.41121 0.55917 0.2218 0.0
C366 C 0.44964 0.5268 0.20625 0.0
C367 C 0.45395 0.5117 0.19596 0.0
C368 C 0.47128 0.49953 0.19707 0.0
C369 C 0.48452 0.50146 0.20881 0.0
C370 C 0.47967 0.51557 0.21958 0.0
C371 C 0.46234 0.52786 0.21845 0.0
H372 H 0.4241 0.96981 0.44348 0.0
N373 N 0.45968 0.95872 0.45679 0.0
H374 H 0.41211 0.95829 0.42027 0.0
H375 H 0.47941 0.93515 0.43823 0.0
H376 H 0.46709 0.92279 0.41504 0.0
H377 H 0.45375 0.92229 0.46741 0.0
H378 H 0.42395 0.91069 0.48051 0.0
H379 H 0.4315 0.98364 0.47023 0.0
H380 H 0.40221 0.9723 0.48364 0.0
H381 H 0.44584 0.99643 0.44909 0.0
H382 H 0.49726 0.96452 0.46678 0.0
H383 H 0.46512 0.0277 0.44972 0.0
H384 H 0.51721 0.99587 0.46685 0.0
H385 H 0.53943 0.12177 0.43922 0.0
H386 H 0.55335 0.12981 0.4158 0.0
H387 H 0.5735 0.06786 0.4108 0.0
H388 H 0.55996 0.06013 0.43423 0.0
H389 H 0.57552 0.06281 0.457 0.0
H390 H 0.60675 0.07277 0.4694 0.0
H391 H 0.5779 0.12853 0.48299 0.0
H392 H 0.54681 0.11863 0.47008 0.0
H393 H 0.51212 0.07313 0.43532 0.0
H394 H 0.492 0.04258 0.43716 0.0
H395 H 0.52154 0.02911 0.47711 0.0
N396 N 0.54187 0.08676 0.45288 0.0
H397 H 0.54225 0.0593 0.47509 0.0
C398 C 0.45283 0.95343 0.44259 0.0
C399 C 0.43383 0.9599 0.43727 0.0
C400 C 0.42682 0.95306 0.42402 0.0
C401 C 0.43853 0.93945 0.41583 0.0
C402 C 0.45776 0.93342 0.421 0.0
C403 C 0.46481 0.94038 0.43425 0.0
C404 C 0.44496 0.95374 0.46762 0.0
C405 C 0.44285 0.93335 0.4713 0.0
C406 C 0.42578 0.92676 0.47881 0.0
C407 C 0.41046 0.94053 0.4829 0.0
C408 C 0.41348 0.96123 0.48033 0.0
C409 C 0.43047 0.96779 0.47271 0.0
C410 C 0.47007 0.97796 0.45798 0.0
C411 C 0.46126 0.99608 0.45319 0.0
C412 C 0.47245 0.01405 0.45343 0.0
C413 C 0.49285 0.01435 0.45819 0.0
C414 C 0.50148 0.99631 0.46326 0.0
C415 C 0.49016 0.97835 0.46317 0.0
C416 C 0.5486 0.09044 0.43849 0.0
C417 C 0.54669 0.10994 0.43297 0.0
C418 C 0.5546 0.11446 0.41959 0.0
C419 C 0.56464 0.0995 0.41146 0.0
C420 C 0.56619 0.07983 0.41689 0.0
C421 C 0.55834 0.07535 0.43027 0.0
C422 C 0.55879 0.09008 0.46257 0.0
C423 C 0.57577 0.07701 0.46283 0.0
C424 C 0.59361 0.0827 0.47004 0.0
C425 C 0.5949 0.10156 0.47709 0.0
C426 C 0.57751 0.11405 0.47748 0.0
C427 C 0.55967 0.10834 0.47027 0.0
C428 C 0.52999 0.06825 0.45448 0.0
C429 C 0.51473 0.06346 0.44436 0.0
C430 C 0.50288 0.04604 0.44555 0.0
C431 C 0.50528 0.03316 0.45721 0.0
C432 C 0.51971 0.03836 0.46776 0.0
C433 C 0.53173 0.05576 0.46652 0.0
H434 H 0.05116 0.93024 0.69687 0.0
N435 N 0.06449 0.96518 0.71006 0.0
H436 H 0.06073 0.91789 0.67343 0.0
H437 H 0.0886 0.98321 0.69137 0.0
H438 H 0.09895 0.97048 0.66786 0.0
H439 H 0.10038 0.96371 0.72313 0.0
H440 H 0.11346 0.93654 0.73807 0.0
H441 H 0.04137 0.93484 0.72182 0.0
H442 H 0.05441 0.90739 0.73608 0.0
H443 H 0.02548 0.95215 0.70372 0.0
H444 H 0.06056 0.00322 0.71901 0.0
H445 H 0.99467 0.97244 0.70417 0.0
H446 H 0.02964 0.0241 0.71893 0.0
H447 H 0.90285 0.04655 0.69085 0.0
H448 H 0.89436 0.06008 0.66738 0.0
H449 H 0.95603 0.08249 0.66347 0.0
H450 H 0.96441 0.06883 0.68682 0.0
H451 H 0.9621 0.08378 0.70957 0.0
H452 H 0.95156 0.11512 0.7213 0.0
H453 H 0.89522 0.08666 0.73406 0.0
H454 H 0.90568 0.05546 0.72177 0.0
H455 H 0.95041 0.01975 0.68814 0.0
H456 H 0.98059 -0.00115 0.69047 0.0
H457 H 0.99651 0.03032 0.72951 0.0
N458 N 0.93794 0.05037 0.70507 0.0
H459 H 0.96662 0.05167 0.72705 0.0
C460 C 0.06911 0.95783 0.69591 0.0
C461 C 0.06136 0.93934 0.69062 0.0
C462 C 0.06705 0.93213 0.6772 0.0
C463 C 0.08075 0.9431 0.66878 0.0
C464 C 0.08821 0.96174 0.67399 0.0
C465 C 0.08241 0.969 0.68743 0.0
C466 C 0.07 0.95136 0.72121 0.0
C467 C 0.09013 0.95175 0.72632 0.0
C468 C 0.09762 0.93608 0.73471 0.0
C469 C 0.08512 0.91953 0.73808 0.0
C470 C 0.06449 0.9199 0.7338 0.0
C471 C 0.05698 0.93567 0.7255 0.0
C472 C 0.04551 0.97612 0.71143 0.0
C473 C 0.02663 0.96766 0.70734 0.0
C474 C 0.00892 0.97944 0.70743 0.0
C475 C 0.00965 2e-05 0.71142 0.0
C476 C 0.02844 0.00827 0.71592 0.0
C477 C 0.04614 0.9964 0.71593 0.0
C478 C 0.93414 0.05673 0.69062 0.0
C479 C 0.91456 0.05414 0.68481 0.0
C480 C 0.90978 0.06185 0.67143 0.0
C481 C 0.92451 0.07246 0.66365 0.0
C482 C 0.94429 0.07464 0.66933 0.0
C483 C 0.9491 0.06681 0.68266 0.0
C484 C 0.93456 0.06724 0.71472 0.0
C485 C 0.94766 0.08414 0.7151 0.0
C486 C 0.94164 0.10206 0.72192 0.0
C487 C 0.92241 0.1035 0.72848 0.0
C488 C 0.90997 0.08616 0.7289 0.0
C489 C 0.916 0.06826 0.72205 0.0
C490 C 0.95647 0.03839 0.70685 0.0
C491 C 0.96054 0.02257 0.69708 0.0
C492 C 0.97773 0.01031 0.69855 0.0
C493 C 0.99114 0.01299 0.71012 0.0
C494 C 0.98678 0.02819 0.72026 0.0
C495 C 0.96957 0.04058 0.71876 0.0
C496 C 0.37556 0.64679 0.02642 0.0
O497 O 0.39046 0.64687 0.01782 0.0
Cd498 Cd 0.38844 0.65798 0.99375 0.0
O499 O 0.35793 0.6528 0.02247 0.0
Cd500 Cd 0.34118 0.66589 0.00058 0.0
C501 C 0.37217 0.70696 -0.00069 0.0
O502 O 0.35821 0.64285 0.98411 0.0
O503 O 0.34101 0.66669 0.97431 0.0
O504 O 0.31176 0.64554 0.00703 0.0
C505 C 0.35166 0.6508 0.9728 0.0
O506 O 0.38596 0.69472 0.99507 0.0
C507 C 0.2986 0.65947 0.00566 0.0
O508 O 0.35464 0.70049 0.00295 0.0
O509 O 0.30526 0.67676 0.00218 0.0
C510 C 0.39128 0.86388 0.22872 0.0
O511 O 0.4057 0.86255 0.23774 0.0
Cd512 Cd 0.40167 0.8512 0.26158 0.0
O513 O 0.37304 0.85923 0.23212 0.0
Cd514 Cd 0.3545 0.84752 0.25372 0.0
C515 C 0.38163 0.80383 0.2553 0.0
O516 O 0.37281 0.86943 0.27041 0.0
O517 O 0.3537 0.84692 0.27998 0.0
O518 O 0.32664 0.86993 0.2468 0.0
C519 C 0.36511 0.86227 0.2816 0.0
O520 O 0.3963 0.81469 0.25999 0.0
C521 C 0.3125 0.85699 0.2482 0.0
O522 O 0.36492 0.81195 0.25134 0.0
O523 O 0.31792 0.83931 0.25178 0.0
C524 C 0.14605 0.88507 0.48003 0.0
O525 O 0.14638 0.8999 0.48876 0.0
Cd526 Cd 0.1569 0.89781 0.51308 0.0
O527 O 0.15105 0.86738 0.48406 0.0
Cd528 Cd 0.16184 0.85035 0.50646 0.0
C529 C 0.2053 0.87821 0.50851 0.0
O530 O 0.13938 0.86929 0.52235 0.0
O531 O 0.16217 0.85106 0.53266 0.0
O532 O 0.13947 0.82245 0.49942 0.0
C533 C 0.14677 0.86257 0.53382 0.0
O534 O 0.19383 0.8928 0.51243 0.0
C535 C 0.15251 0.80853 0.50136 0.0
O536 O 0.19766 0.86117 0.50485 0.0
O537 O 0.17022 0.81407 0.50539 0.0
C538 C 0.14347 0.64054 0.77605 0.0
O539 O 0.14358 0.62632 0.76684 0.0
Cd540 Cd 0.15522 0.62969 0.74293 0.0
O541 O 0.14936 0.65828 0.77278 0.0
Cd542 Cd 0.16187 0.67649 0.75137 0.0
C543 C 0.20417 0.64695 0.74953 0.0
O544 O 0.13929 0.65957 0.73432 0.0
O545 O 0.16317 0.67756 0.72521 0.0
O546 O 0.14049 0.70441 0.75967 0.0
C547 C 0.14741 0.66674 0.72327 0.0
O548 O 0.19227 0.6332 0.74473 0.0
C549 C 0.15363 0.71819 0.75772 0.0
O550 O 0.19711 0.66401 0.75366 0.0
O551 O 0.17098 0.71257 0.75313 0.0
C552 C 0.86622 0.14107 0.47706 0.0
O553 O 0.86441 0.12584 0.48506 0.0
Cd554 Cd 0.85226 0.12724 0.509 0.0
O555 O 0.86158 0.15874 0.48162 0.0
Cd556 Cd 0.84917 0.17501 0.50407 0.0
C557 C 0.80478 0.14813 0.50394 0.0
O558 O 0.87044 0.15482 0.51969 0.0
O559 O 0.84895 0.17426 0.53041 0.0
O560 O 0.87189 0.20297 0.49836 0.0
C561 C 0.86349 0.16167 0.53133 0.0
O562 O 0.81553 0.13299 0.50758 0.0
C563 C 0.85875 0.21685 0.50024 0.0
O564 O 0.8132 0.16502 0.5012 0.0
O565 O 0.84089 0.21129 0.50369 0.0
C566 C 0.87836 0.37156 0.7254 0.0
O567 O 0.89276 0.37057 0.73445 0.0
Cd568 Cd 0.88907 0.35914 0.75829 0.0
O569 O 0.86021 0.36649 0.72875 0.0
Cd570 Cd 0.84173 0.3545 0.75032 0.0
C571 C 0.8698 0.31137 0.75199 0.0
O572 O 0.85974 0.3765 0.7671 0.0
O573 O 0.84087 0.35374 0.77657 0.0
O574 O 0.81369 0.37625 0.74277 0.0
C575 C 0.85233 0.36904 0.77828 0.0
O576 O 0.88424 0.32254 0.75669 0.0
C577 C 0.79969 0.36326 0.74455 0.0
O578 O 0.85293 0.31913 0.74799 0.0
O579 O 0.80526 0.34589 0.7487 0.0
C580 C 0.64581 0.38426 0.97615 0.0
O581 O 0.64704 0.39923 0.98471 0.0
Cd582 Cd 0.65745 0.3971 0.00906 0.0
O583 O 0.65043 0.36649 0.98023 0.0
Cd584 Cd 0.66247 0.34973 0.00241 0.0
C585 C 0.70581 0.37796 0.00447 0.0
O586 O 0.63946 0.36857 0.01799 0.0
O587 O 0.66152 0.34991 0.02865 0.0
O588 O 0.64144 0.32145 0.99404 0.0
C589 C 0.6462 0.36155 0.02956 0.0
O590 O 0.69436 0.39243 0.00861 0.0
C591 C 0.65428 0.30775 0.99703 0.0
O592 O 0.69816 0.36101 0.00063 0.0
O593 O 0.67125 0.31356 0.00226 0.0
C594 C 0.65392 0.13654 0.27471 0.0
O595 O 0.6551 0.12145 0.26626 0.0
Cd596 Cd 0.66638 0.12336 0.24211 0.0
O597 O 0.65901 0.15415 0.27063 0.0
Cd598 Cd 0.6719 0.17045 0.24868 0.0
C599 C 0.71485 0.14181 0.24759 0.0
O600 O 0.64943 0.15202 0.23242 0.0
O601 O 0.67321 0.1692 0.22244 0.0
O602 O 0.64989 0.19876 0.25515 0.0
C603 C 0.65734 0.15836 0.22105 0.0
O604 O 0.70338 0.12764 0.2429 0.0
C605 C 0.6632 0.21246 0.25346 0.0
O606 O 0.7073 0.15869 0.25168 0.0
O607 O 0.68093 0.20664 0.24978 0.0
H608 H 0.1499 0.94625 0.27832 0.0
H609 H 0.18257 0.93191 0.27105 0.0
H610 H 0.15143 0.88908 0.24362 0.0
H611 H 0.11849 0.90381 0.25051 0.0
H612 H 0.19301 0.89122 0.27567 0.0
H613 H 0.19817 0.91109 0.21845 0.0
H614 H 0.18114 0.92398 0.23063 0.0
H615 H 0.17488 0.89916 0.224 0.0
C616 C 0.14994 0.93418 0.27042 0.0
C617 C 0.13152 0.92626 0.26495 0.0
C618 C 0.16865 0.92587 0.26638 0.0
C619 C 0.16943 0.90951 0.25675 0.0
C620 C 0.15118 0.90187 0.25093 0.0
H621 H 0.2788 0.8332 0.25218 0.0
H622 H 0.24302 0.84404 0.25268 0.0
C623 C 0.13237 0.9102 0.25498 0.0
C624 C 0.1893 0.89964 0.25377 0.0
H625 H 0.22475 0.89097 0.22783 0.0
C626 C 0.19991 0.89104 0.26519 0.0
C627 C 0.19823 0.89953 0.2401 0.0
C628 C 0.18766 0.90904 0.22757 0.0
C629 C 0.21941 0.88264 0.2634 0.0
C630 C 0.2284 0.88253 0.24974 0.0
C631 C 0.21769 0.8909 0.23825 0.0
C632 C 0.24955 0.87517 0.24753 0.0
C633 C 0.23052 0.87463 0.27626 0.0
C634 C 0.26493 0.88889 0.24387 0.0
C635 C 0.28534 0.88274 0.24352 0.0
C636 C 0.29073 0.86273 0.24679 0.0
C637 C 0.27516 0.84875 0.24971 0.0
C638 C 0.25473 0.85492 0.25005 0.0
H639 H 0.22322 0.87955 0.28638 0.0
H640 H 0.23043 0.85785 0.27585 0.0
H641 H 0.24668 0.87974 0.27639 0.0
H642 H 0.26124 0.90457 0.24186 0.0
H643 H 0.29695 0.89386 0.24116 0.0
H644 H 0.12676 0.6218 0.52393 0.0
H645 H 0.13727 0.65555 0.51667 0.0
H646 H 0.07693 0.66663 0.49996 0.0
H647 H 0.06625 0.63274 0.50714 0.0
H648 H 0.13707 0.67601 0.4903 0.0
H649 H 0.08513 0.71178 0.52997 0.0
H650 H 0.09114 0.68514 0.53008 0.0
H651 H 0.07305 0.69481 0.51745 0.0
C652 C 0.11581 0.63121 0.51843 0.0
C653 C 0.09561 0.6246 0.51618 0.0
C654 C 0.12184 0.65055 0.51435 0.0
C655 C 0.1078 0.66369 0.508 0.0
C656 C 0.0879 0.65684 0.5051 0.0
H657 H 0.11609 0.79285 0.49229 0.0
H658 H 0.10557 0.75738 0.49193 0.0
C659 C 0.08182 0.63749 0.50921 0.0
C660 C 0.11374 0.6849 0.5052 0.0
H661 H 0.10413 0.73363 0.51557 0.0
C662 C 0.12983 0.68865 0.49576 0.0
C663 C 0.10431 0.70132 0.5124 0.0
C664 C 0.08756 0.69815 0.52314 0.0
C665 C 0.13669 0.70844 0.49328 0.0
C666 C 0.12742 0.72481 0.50063 0.0
C667 C 0.11116 0.72106 0.50991 0.0
C668 C 0.13467 0.74597 0.4993 0.0
C669 C 0.15366 0.71164 0.48275 0.0
C670 C 0.1546 0.75133 0.50345 0.0
C671 C 0.16068 0.77162 0.50363 0.0
C672 C 0.14687 0.78692 0.49981 0.0
C673 C 0.12709 0.78144 0.49531 0.0
C674 C 0.12105 0.76117 0.4951 0.0
H675 H 0.15499 0.69869 0.47515 0.0
H676 H 0.15122 0.72571 0.47663 0.0
H677 H 0.16837 0.71306 0.48858 0.0
H678 H 0.16523 0.7399 0.50703 0.0
H679 H 0.17599 0.77536 0.50722 0.0
H680 H 0.38361 0.56941 0.75953 0.0
H681 H 0.34908 0.58046 0.7532 0.0
H682 H 0.36163 0.63952 0.77118 0.0
H683 H 0.39603 0.62862 0.7776 0.0
H684 H 0.3203 0.59341 0.77284 0.0
H685 H 0.3346 0.65333 0.73329 0.0
H686 H 0.35378 0.63503 0.7382 0.0
H687 H 0.34869 0.65646 0.74961 0.0
C688 C 0.37909 0.58482 0.76199 0.0
C689 C 0.39261 0.59814 0.76904 0.0
C690 C 0.35939 0.59113 0.75832 0.0
C691 C 0.35287 0.61089 0.76156 0.0
C692 C 0.36649 0.62437 0.76826 0.0
H693 H 0.23453 0.67122 0.7607 0.0
H694 H 0.27085 0.66286 0.76337 0.0
C695 C 0.38618 0.61809 0.77192 0.0
C696 C 0.33132 0.61681 0.75912 0.0
H697 H 0.30076 0.65107 0.74236 0.0
C698 C 0.31601 0.60591 0.76608 0.0
C699 C 0.3258 0.63327 0.75043 0.0
C700 C 0.34155 0.64511 0.74235 0.0
C701 C 0.29535 0.61116 0.76473 0.0
C702 C 0.28981 0.62753 0.75599 0.0
C703 C 0.30509 0.63853 0.74906 0.0
C704 C 0.26814 0.6331 0.7537 0.0
C705 C 0.27965 0.59936 0.77291 0.0
C706 C 0.25475 0.61931 0.74712 0.0
C707 C 0.23408 0.62397 0.74562 0.0
C708 C 0.22635 0.64262 0.7506 0.0
C709 C 0.23995 0.65669 0.75681 0.0
C710 C 0.26069 0.65197 0.75832 0.0
H711 H 0.28668 0.59091 0.78183 0.0
H712 H 0.26766 0.60953 0.77728 0.0
H713 H 0.27219 0.58822 0.76565 0.0
H714 H 0.26028 0.60481 0.74325 0.0
H715 H 0.22414 0.61282 0.74065 0.0
H716 H 0.45848 0.87903 0.01272 0.0
H717 H 0.44512 0.84573 0.00584 0.0
H718 H 0.3843 0.86513 0.017 0.0
H719 H 0.39754 0.89848 0.02382 0.0
H720 H 0.42642 0.82085 0.02495 0.0
H721 H 0.37444 0.83529 0.97936 0.0
H722 H 0.39342 0.85337 0.98531 0.0
H723 H 0.36977 0.85092 0.99478 0.0
C724 C 0.44221 0.87629 0.01347 0.0
C725 C 0.42906 0.89134 0.01883 0.0
C726 C 0.4346 0.8573 0.00951 0.0
C727 C 0.4137 0.853 0.01081 0.0
C728 C 0.4004 0.86825 0.01561 0.0
H729 H 0.34742 0.73813 0.00842 0.0
H730 H 0.35653 0.77402 0.01095 0.0
C731 C 0.408 0.8873 0.01951 0.0
C732 C 0.4063 0.83199 0.00864 0.0
H733 H 0.37308 0.80245 0.98943 0.0
C734 C 0.41484 0.81683 0.01713 0.0
C735 C 0.391 0.82683 -0.00145 0.0
C736 C 0.38172 0.84241 0.98888 0.0
C737 C 0.40852 0.79664 0.01581 0.0
C738 C 0.39345 0.79142 0.00561 0.0
C739 C 0.38464 0.80657 0.99724 0.0
C740 C 0.38734 0.77011 0.00319 0.0
C741 C 0.41792 0.78105 0.02544 0.0
C742 C 0.40154 0.75622 -0.00226 0.0
C743 C 0.39645 0.73581 0.9963 0.0
C744 C 0.377 0.72885 0.00026 0.0
C745 C 0.36256 0.74295 0.00534 0.0
C746 C 0.3677 0.76345 0.00676 0.0
H747 H 0.42553 0.78814 0.03484 0.0
H748 H 0.40618 0.77026 0.0292 0.0
H749 H 0.42958 0.77232 0.01942 0.0
H750 H 0.4167 0.76115 0.99476 0.0
H751 H 0.40791 0.72545 0.99224 0.0
H752 H 0.13466 0.57601 0.97607 0.0
H753 H 0.16711 0.59066 0.98365 0.0
H754 H 0.1353 0.63485 0.00939 0.0
H755 H 0.10251 0.61984 0.00216 0.0
H756 H 0.17726 0.63187 0.97833 0.0
H757 H 0.18166 0.61302 0.03585 0.0
H758 H 0.16527 0.59942 0.02352 0.0
H759 H 0.15839 0.62436 0.02951 0.0
C760 C 0.13448 0.58846 0.98367 0.0
C761 C 0.11593 0.59667 0.98857 0.0
C762 C 0.15307 0.59694 0.98788 0.0
C763 C 0.15359 0.61376 0.99711 0.0
C764 C 0.13521 0.62172 0.00238 0.0
H765 H 0.26655 0.6855 0.00163 0.0
H766 H 0.23008 0.67709 0.0013 0.0
C767 C 0.11651 0.61322 -0.00185 0.0
C768 C 0.1734 0.62367 0.00023 0.0
H769 H 0.20914 0.63141 0.0263 0.0
C770 C 0.18418 0.63198 0.98884 0.0
C771 C 0.18231 0.62369 0.01395 0.0
C772 C 0.17145 0.61456 0.02645 0.0
C773 C 0.20392 0.63979 0.99069 0.0
C774 C 0.213 0.63957 0.00438 0.0
C775 C 0.20203 0.63171 0.01586 0.0
C776 C 0.23458 0.64562 0.00657 0.0
C777 C 0.21526 0.64734 0.97785 0.0
C778 C 0.24906 0.63094 0.01023 0.0
C779 C 0.26983 0.63569 0.01048 0.0
C780 C 0.27651 0.65526 0.0071 0.0
C781 C 0.26189 0.67025 0.00418 0.0
C782 C 0.24107 0.66547 0.00395 0.0
H783 H 0.20756 0.64291 0.96772 0.0
H784 H 0.21609 0.66409 0.97835 0.0
H785 H 0.23111 0.64137 0.97767 0.0
H786 H 0.24435 0.61555 0.01231 0.0
H787 H 0.28069 0.62383 0.01286 0.0
H788 H 0.44528 0.62035 0.2432 0.0
H789 H 0.43715 0.6553 0.25002 0.0
H790 H 0.37642 0.64796 0.23278 0.0
H791 H 0.38442 0.61313 0.22589 0.0
H792 H 0.42628 0.68491 0.23085 0.0
H793 H 0.36539 0.67554 0.27111 0.0
H794 H 0.3821 0.65511 0.26576 0.0
H795 H 0.3608 0.66203 0.25471 0.0
C796 C 0.43013 0.62612 0.241 0.0
C797 C 0.4155 0.61394 0.23402 0.0
C798 C 0.42548 0.64605 0.24495 0.0
C799 C 0.40611 0.65415 0.24206 0.0
C800 C 0.3913 0.64188 0.23542 0.0
H801 H 0.35484 0.77554 0.24443 0.0
H802 H 0.36051 0.73906 0.24159 0.0
C803 C 0.39592 0.62195 0.23149 0.0
C804 C 0.40201 0.67591 0.24478 0.0
H805 H 0.37033 0.70882 0.26228 0.0
C806 C 0.41416 0.69014 0.23781 0.0
C807 C 0.38604 0.68267 0.25376 0.0
C808 C 0.37293 0.66806 0.26187 0.0
C809 C 0.41063 0.71097 0.23941 0.0
C810 C 0.39473 0.71775 0.24842 0.0
C811 C 0.3825 0.70354 0.25537 0.0
C812 C 0.39081 0.73959 0.25084 0.0
C813 C 0.42368 0.72553 0.23119 0.0
C814 C 0.4058 0.75184 0.25725 0.0
C815 C 0.40267 0.77263 0.25885 0.0
C816 C 0.38439 0.7816 0.25414 0.0
C817 C 0.36912 0.76916 0.24811 0.0
C818 C 0.3723 0.74831 0.2465 0.0
H819 H 0.43154 0.71792 0.22213 0.0
H820 H 0.41436 0.73818 0.22701 0.0
H821 H 0.43555 0.73201 0.23837 0.0
H822 H 0.42004 0.74533 0.26091 0.0
H823 H 0.41469 0.78168 0.26367 0.0
H824 H 0.3725 0.95419 0.47582 0.0
H825 H 0.33957 0.94031 0.48259 0.0
H826 H 0.3698 0.89518 0.50784 0.0
H827 H 0.40306 0.90951 0.50152 0.0
H828 H 0.32682 0.90075 0.47661 0.0
H829 H 0.32547 0.91783 0.53474 0.0
H830 H 0.34288 0.93017 0.52279 0.0
H831 H 0.34758 0.90462 0.52815 0.0
C832 C 0.37224 0.94167 0.48314 0.0
C833 C 0.39049 0.93309 0.48822 0.0
C834 C 0.35336 0.93361 0.48686 0.0
C835 C 0.35224 0.91679 0.49576 0.0
C836 C 0.37033 0.90833 0.5011 0.0
H837 H 0.23514 0.85125 0.50028 0.0
H838 H 0.27185 0.85777 0.49815 0.0
C839 C 0.38931 0.91644 0.49739 0.0
C840 C 0.33204 0.90772 0.49875 0.0
H841 H 0.29702 0.90062 0.52503 0.0
C842 C 0.32034 0.90052 0.48721 0.0
C843 C 0.32369 0.90753 0.51259 0.0
C844 C 0.33543 0.91556 0.52531 0.0
C845 C 0.30024 0.89373 0.48904 0.0
C846 C 0.29175 0.8938 0.50286 0.0
C847 C 0.30366 0.90046 0.51447 0.0
C848 C 0.26993 0.88899 0.50522 0.0
C849 C 0.28796 0.88745 0.47609 0.0
C850 C 0.25683 0.90417 0.51033 0.0
C851 C 0.23594 0.9005 0.51162 0.0
C852 C 0.22768 0.88151 0.50785 0.0
C853 C 0.24096 0.86609 0.50316 0.0
C854 C 0.26193 0.86979 0.50189 0.0
H855 H 0.29543 0.89201 0.46604 0.0
H856 H 0.28627 0.87075 0.47588 0.0
H857 H 0.27244 0.89421 0.47645 0.0
H858 H 0.26269 0.91909 0.51297 0.0
H859 H 0.22624 0.91271 0.51535 0.0
H860 H 0.0677 0.89428 0.7577 0.0
H861 H 0.08046 0.86134 0.7654 0.0
H862 H 0.13513 0.86983 0.7408 0.0
H863 H 0.1224 0.90239 0.73278 0.0
H864 H 0.08947 0.82993 0.74541 0.0
H865 H 0.15689 0.84829 0.77911 0.0
H866 H 0.13698 0.86645 0.77542 0.0
H867 H 0.15623 0.86104 0.76234 0.0
C868 C 0.08253 0.88925 0.75404 0.0
C869 C 0.09397 0.90104 0.74458 0.0
C870 C 0.08985 0.87048 0.75853 0.0
C871 C 0.10883 0.86327 0.7538 0.0
C872 C 0.12065 0.87532 0.74484 0.0
H873 H 0.17516 0.75124 0.74901 0.0
H874 H 0.16408 0.78663 0.74968 0.0
C875 C 0.11332 0.89399 0.74028 0.0
C876 C 0.11527 0.84226 0.7568 0.0
H877 H 0.15388 0.81404 0.77092 0.0
C878 C 0.10339 0.82641 0.75117 0.0
C879 C 0.13356 0.83779 0.76416 0.0
C880 C 0.1466 0.85427 0.77072 0.0
C881 C 0.10965 0.80619 0.75225 0.0
C882 C 0.12805 0.80166 0.75952 0.0
C883 C 0.13976 0.81753 0.76539 0.0
C884 C 0.13571 0.7806 0.76058 0.0
C885 C 0.09693 0.78998 0.74502 0.0
C886 C 0.12379 0.76558 0.76692 0.0
C887 C 0.12996 0.74535 0.7664 0.0
C888 C 0.14836 0.73981 0.75975 0.0
C889 C 0.16088 0.75503 0.75417 0.0
C890 C 0.15458 0.77525 0.75456 0.0
H891 H 0.08647 0.79638 0.73689 0.0
H892 H 0.10676 0.77844 0.73977 0.0
H893 H 0.08744 0.78231 0.75308 0.0
H894 H 0.10943 0.76943 0.77195 0.0
H895 H 0.1201 0.734 0.77094 0.0
H896 H 0.61503 0.39366 0.77339 0.0
H897 H 0.64814 0.38191 0.76481 0.0
H898 H 0.65491 0.43639 0.74057 0.0
H899 H 0.62151 0.44821 0.74891 0.0
H900 H 0.66542 0.3766 0.7362 0.0
H901 H 0.70388 0.436 0.76923 0.0
H902 H 0.67752 0.42903 0.77181 0.0
H903 H 0.68454 0.4445 0.75705 0.0
C904 C 0.62325 0.40296 0.76594 0.0
C905 C 0.61562 0.42197 0.76191 0.0
C906 C 0.64225 0.39623 0.76111 0.0
C907 C 0.65404 0.4084 0.75222 0.0
C908 C 0.64611 0.42692 0.74759 0.0
H909 H 0.78384 0.39796 0.73359 0.0
H910 H 0.74803 0.40839 0.73306 0.0
C911 C 0.62707 0.43366 0.7524 0.0
C912 C 0.67522 0.40231 0.74874 0.0
H913 H 0.72492 0.41395 0.75616 0.0
C914 C 0.67847 0.38481 0.74045 0.0
C915 C 0.69215 0.41307 0.75434 0.0
C916 C 0.68948 0.43162 0.76369 0.0
C917 C 0.69832 0.37774 0.73763 0.0
C918 C 0.71526 0.38822 0.74354 0.0
C919 C 0.71194 0.40595 0.75159 0.0
C920 C 0.73655 0.38073 0.74215 0.0
C921 C 0.70092 0.35922 0.72827 0.0
C922 C 0.742 0.3616 0.74727 0.0
C923 C 0.76247 0.35554 0.74749 0.0
C924 C 0.77788 0.36862 0.74279 0.0
C925 C 0.77233 0.38754 0.73731 0.0
C926 C 0.75187 0.39353 0.737 0.0
H927 H 0.68761 0.35702 0.72105 0.0
H928 H 0.71498 0.36021 0.72176 0.0
H929 H 0.7021 0.34566 0.73507 0.0
H930 H 0.73055 0.35166 0.75163 0.0
H931 H 0.76627 0.34092 0.75187 0.0
H932 H 0.59321 0.14213 0.03822 0.0
H933 H 0.60426 0.17496 0.02964 0.0
H934 H 0.6078 0.15077 0.98689 0.0
H935 H 0.59668 0.11757 0.99546 0.0
H936 H 0.64153 0.17434 0.99452 0.0
H937 H 0.56978 0.21472 0.00718 0.0
H938 H 0.57965 0.20148 0.02226 0.0
H939 H 0.57147 0.18747 0.00669 0.0
C940 C 0.59602 0.14382 0.02694 0.0
C941 C 0.59373 0.12732 0.01747 0.0
C942 C 0.60236 0.16261 0.02206 0.0
C943 C 0.60641 0.16542 0.00759 0.0
C944 C 0.60458 0.14893 -0.00191 0.0
H945 H 0.62202 0.29121 0.98254 0.0
H946 H 0.61127 0.25579 0.98207 0.0
C947 C 0.59826 0.13001 0.003 0.0
C948 C 0.61291 0.1856 0.0026 0.0
H949 H 0.59953 0.23542 0.00415 0.0
C950 C 0.63225 0.1877 0.99641 0.0
C951 C 0.60063 0.20295 0.0048 0.0
C952 C 0.57914 0.20154 0.01046 0.0
C953 C 0.64008 0.20686 0.99307 0.0
C954 C 0.6284 0.22434 0.99631 0.0
C955 C 0.60863 0.22208 0.0018 0.0
C956 C 0.63658 0.24518 0.99486 0.0
C957 C 0.66078 0.20813 0.98616 0.0
C958 C 0.65457 0.251 0.00201 0.0
C959 C 0.66088 0.27122 0.00215 0.0
C960 C 0.64909 0.28606 0.99538 0.0
C961 C 0.6314 0.28013 0.9879 0.0
C962 C 0.62524 0.25988 0.98761 0.0
H963 H 0.66423 0.19415 0.97993 0.0
H964 H 0.6618 0.22131 0.97899 0.0
H965 H 0.67266 0.20973 0.99455 0.0
H966 H 0.6633 0.24009 0.00801 0.0
H967 H 0.67449 0.27534 0.0081 0.0
H968 H 0.88666 0.08308 0.2929 0.0
H969 H 0.85235 0.09289 0.28549 0.0
H970 H 0.87611 0.11377 0.24553 0.0
H971 H 0.91073 0.10431 0.25308 0.0
H972 H 0.84949 0.14048 0.25675 0.0
H973 H 0.81524 0.06409 0.25786 0.0
H974 H 0.82681 0.07071 0.2746 0.0
H975 H 0.84245 0.06813 0.25895 0.0
C976 C 0.88455 0.08946 0.28244 0.0
C977 C 0.90134 0.09268 0.27348 0.0
C978 C 0.86492 0.09505 0.27821 0.0
C979 C 0.86157 0.10365 0.26483 0.0
C980 C 0.87832 0.10703 0.25587 0.0
H981 H 0.73711 0.11374 0.23294 0.0
H982 H 0.77336 0.10603 0.23555 0.0
C983 C 0.89806 0.10162 0.26018 0.0
C984 C 0.84063 0.10961 0.26045 0.0
H985 H 0.79182 0.09191 0.25774 0.0
C986 C 0.8369 0.12982 0.2568 0.0
C987 C 0.82426 0.09564 0.26027 0.0
C988 C 0.82742 0.0734 0.26298 0.0
C989 C 0.81712 0.13658 0.25345 0.0
C990 C 0.80056 0.12286 0.25415 0.0
C991 C 0.80444 0.10253 0.25737 0.0
C992 C 0.77903 0.12909 0.25166 0.0
C993 C 0.81428 0.15826 0.24903 0.0
C994 C 0.77011 0.14479 0.25973 0.0
C995 C 0.74938 0.14946 0.25808 0.0
C996 C 0.73711 0.13818 0.24858 0.0
C997 C 0.74613 0.12264 0.24042 0.0
C998 C 0.76687 0.11822 0.24189 0.0
H999 H 0.82856 0.16456 0.24452 0.0
H1000 H 0.80189 0.15969 0.241 0.0
H1001 H 0.81023 0.16759 0.2585 0.0
H1002 H 0.779 0.15305 0.26761 0.0
H1003 H 0.74283 0.1614 0.26461 0.0
H1004 H 0.94671 0.38142 0.52745 0.0
H1005 H 0.93303 0.34833 0.52082 0.0
H1006 H 0.887 0.37668 0.4949 0.0
H1007 H 0.90101 0.41006 0.50116 0.0
H1008 H 0.89237 0.33698 0.52701 0.0
H1009 H 0.90958 0.33007 0.46922 0.0
H1010 H 0.92283 0.34767 0.48088 0.0
H1011 H 0.8973 0.35306 0.47505 0.0
C1012 C 0.93406 0.38068 0.51999 0.0
C1013 C 0.92503 0.39844 0.51478 0.0
C1014 C 0.92615 0.36173 0.51632 0.0
C1015 C 0.90909 0.36006 0.50733 0.0
C1016 C 0.90035 0.37764 0.50173 0.0
H1017 H 0.83453 0.24996 0.5052 0.0
H1018 H 0.84495 0.28557 0.50562 0.0
C1019 C 0.90827 0.39669 0.50541 0.0
C1020 C 0.89964 0.33996 0.50483 0.0
H1021 H 0.89068 0.30353 0.47947 0.0
C1022 C 0.89187 0.3297 0.51661 0.0
C1023 C 0.89913 0.33054 0.49125 0.0
C1024 C 0.90777 0.34076 0.47835 0.0
C1025 C 0.88388 0.3101 0.51523 0.0
C1026 C 0.88337 0.30062 0.50166 0.0
C1027 C 0.89094 0.31095 0.48983 0.0
C1028 C 0.87631 0.27946 0.49981 0.0
C1029 C 0.8767 0.29942 0.5284 0.0
C1030 C 0.89032 0.26434 0.49591 0.0
C1031 C 0.88442 0.24403 0.49563 0.0
C1032 C 0.86436 0.23848 0.4992 0.0
C1033 C 0.85012 0.25374 0.50249 0.0
C1034 C 0.85605 0.27408 0.50277 0.0
H1035 H 0.88189 0.30722 0.53832 0.0
H1036 H 0.85976 0.299 0.52845 0.0
H1037 H 0.88234 0.28357 0.52851 0.0
H1038 H 0.90602 0.2682 0.49357 0.0
H1039 H 0.89573 0.23265 0.49298 0.0
H1040 H 0.62395 0.08011 0.49169 0.0
H1041 H 0.65835 0.09125 0.49834 0.0
H1042 H 0.64535 0.15065 0.48217 0.0
H1043 H 0.61123 0.13946 0.47504 0.0
H1044 H 0.68077 0.13447 0.47154 0.0
H1045 H 0.6797 0.12788 0.53025 0.0
H1046 H 0.67152 0.10526 0.52112 0.0
H1047 H 0.65666 0.12803 0.51961 0.0
C1048 C 0.62835 0.09559 0.48966 0.0
C1049 C 0.61481 0.10888 0.48284 0.0
C1050 C 0.64794 0.102 0.49362 0.0
C1051 C 0.65432 0.12186 0.49092 0.0
C1052 C 0.64067 0.13531 0.48446 0.0
H1053 H 0.77648 0.17659 0.49601 0.0
H1054 H 0.73951 0.17204 0.49342 0.0
C1055 C 0.6211 0.12892 0.48049 0.0
C1056 C 0.67576 0.12803 0.49366 0.0
H1057 H 0.71258 0.13093 0.51944 0.0
C1058 C 0.68767 0.13397 0.48205 0.0
C1059 C 0.68471 0.12732 0.50736 0.0
C1060 C 0.67244 0.12196 0.52033 0.0
C1061 C 0.7085 0.13847 0.48367 0.0
C1062 C 0.71757 0.1373 0.49732 0.0
C1063 C 0.70557 0.1318 0.50899 0.0
C1064 C 0.73974 0.14059 0.49953 0.0
C1065 C 0.72082 0.14363 0.47067 0.0
C1066 C 0.75201 0.12459 0.50418 0.0
C1067 C 0.77307 0.12713 0.50572 0.0
C1068 C 0.78231 0.14581 0.50269 0.0
C1069 C 0.7699 0.16198 0.49833 0.0
C1070 C 0.74878 0.1594 0.4968 0.0
H1071 H 0.71258 0.13972 0.46064 0.0
H1072 H 0.72396 0.16012 0.4707 0.0
H1073 H 0.73569 0.13556 0.47071 0.0
H1074 H 0.74532 0.10997 0.50637 0.0
H1075 H 0.78211 0.11436 0.50916 0.0
H1076 H 0.88393 0.11891 0.72525 0.0
H1077 H 0.87202 0.15296 0.73124 0.0
H1078 H 0.93136 0.16778 0.74848 0.0
H1079 H 0.94327 0.13345 0.74296 0.0
H1080 H 0.89779 0.1826 0.76499 0.0
H1081 H 0.89045 0.20176 0.70775 0.0
H1082 H 0.87667 0.17966 0.71312 0.0
H1083 H 0.9041 0.17971 0.71373 0.0
C1084 C 0.89436 0.12922 0.73061 0.0
C1085 C 0.91462 0.12345 0.73357 0.0
C1086 C 0.88757 0.14877 0.73387 0.0
C1087 C 0.90093 0.16297 0.74005 0.0
C1088 C 0.92086 0.15706 0.74361 0.0
H1089 H 0.90343 0.28997 0.76025 0.0
H1090 H 0.90919 0.25363 0.75815 0.0
C1091 C 0.92768 0.13748 0.74037 0.0
C1092 C 0.8944 0.18424 0.74224 0.0
H1093 H 0.88016 0.22668 0.7244 0.0
C1094 C 0.89389 0.19225 0.75613 0.0
C1095 C 0.88927 0.19675 0.73065 0.0
C1096 C 0.89028 0.18915 0.71545 0.0
C1097 C 0.88836 0.21249 0.75875 0.0
C1098 C 0.88359 0.22508 0.74714 0.0
C1099 C 0.88376 0.21696 0.73328 0.0
C1100 C 0.87951 0.24701 0.74902 0.0
C1101 C 0.88754 0.22016 0.77392 0.0
C1102 C 0.86104 0.25544 0.7443 0.0
C1103 C 0.85772 0.27632 0.74539 0.0
C1104 C 0.8729 0.28916 0.75111 0.0
C1105 C 0.89136 0.28058 0.75583 0.0
C1106 C 0.89464 0.25975 0.75475 0.0
H1107 H 0.8856 0.20758 0.78153 0.0
H1108 H 0.90209 0.22798 0.77657 0.0
H1109 H 0.87484 0.23111 0.77543 0.0
H1110 H 0.84924 0.24586 0.73972 0.0
H1111 H 0.84334 0.28241 0.74163 0.0
H1112 H 0.89677 0.39077 0.97461 0.0
H1113 H 0.86217 0.38107 0.9814 0.0
H1114 H 0.85283 0.44007 0.00036 0.0
H1115 H 0.88749 0.44993 0.99362 0.0
H1116 H 0.84099 0.3803 0.00766 0.0
H1117 H 0.80754 0.43549 0.97005 0.0
H1118 H 0.83419 0.42853 0.96974 0.0
H1119 H 0.82496 0.4463 0.98285 0.0
C1120 C 0.88753 0.40156 0.98049 0.0
C1121 C 0.89483 0.42119 0.98349 0.0
C1122 C 0.86773 0.39601 0.98431 0.0
C1123 C 0.85485 0.40997 0.99114 0.0
C1124 C 0.86241 0.42922 0.99481 0.0
H1125 H 0.72697 0.4117 0.01281 0.0
H1126 H 0.76344 0.4182 0.0105 0.0
C1127 C 0.8822 0.43482 0.99097 0.0
C1128 C 0.83319 0.40475 0.99373 0.0
H1129 H 0.78449 0.41812 0.98481 0.0
C1130 C 0.8286 0.38853 0.00267 0.0
C1131 C 0.81711 0.41542 0.98709 0.0
C1132 C 0.82112 0.43229 0.97679 0.0
C1133 C 0.80828 0.38299 0.00541 0.0
C1134 C 0.79222 0.39381 -0.00114 0.0
C1135 C 0.79685 0.40993 0.98986 0.0
C1136 C 0.77043 0.38891 0.00123 0.0
C1137 C 0.80413 0.36593 0.01549 0.0
C1138 C 0.76225 0.37022 0.99681 0.0
C1139 C 0.74131 0.36641 -0.00189 0.0
C1140 C 0.72818 0.38131 0.00376 0.0
C1141 C 0.73656 0.39988 0.00837 0.0
C1142 C 0.75744 0.40364 0.00708 0.0
H1143 H 0.8177 0.36241 0.02215 0.0
H1144 H 0.79111 0.36966 0.02259 0.0
H1145 H 0.80007 0.35212 0.00926 0.0
H1146 H 0.77196 0.35878 0.99202 0.0
H1147 H 0.73536 0.35197 0.99442 0.0
H1148 H 0.61227 0.40417 0.25214 0.0
H1149 H 0.62951 0.37258 0.25863 0.0
H1150 H 0.58836 0.33894 0.23134 0.0
H1151 H 0.57142 0.37023 0.22456 0.0
H1152 H 0.61326 0.33471 0.2703 0.0
H1153 H 0.64698 0.32558 0.21655 0.0
H1154 H 0.63674 0.34934 0.22302 0.0
H1155 H 0.61988 0.32985 0.21646 0.0
C1156 C 0.60685 0.39002 0.24758 0.0
C1157 C 0.59049 0.38975 0.23781 0.0
C1158 C 0.61665 0.37202 0.25134 0.0
C1159 C 0.61037 0.35353 0.24529 0.0
C1160 C 0.59357 0.35311 0.23599 0.0
H1161 H 0.62656 0.22855 0.26137 0.0
H1162 H 0.61641 0.26405 0.26129 0.0
C1163 C 0.58376 0.37102 0.23226 0.0
C1164 C 0.62166 0.33462 0.24819 0.0
H1165 H 0.64793 0.29669 0.23147 0.0
C1166 C 0.62107 0.32648 0.26189 0.0
C1167 C 0.63217 0.32414 0.23724 0.0
C1168 C 0.6342 0.33273 0.22251 0.0
C1169 C 0.62984 0.30753 0.26473 0.0
C1170 C 0.63916 0.29644 0.25353 0.0
C1171 C 0.64065 0.30512 0.24003 0.0
C1172 C 0.64614 0.27525 0.2552 0.0
C1173 C 0.62886 0.2995 0.27966 0.0
C1174 C 0.66622 0.26966 0.2517 0.0
C1175 C 0.67205 0.24929 0.25162 0.0
C1176 C 0.65783 0.23414 0.25493 0.0
C1177 C 0.6379 0.23985 0.25881 0.0
C1178 C 0.63211 0.26018 0.25889 0.0
H1179 H 0.62754 0.31199 0.28763 0.0
H1180 H 0.61516 0.28975 0.28066 0.0
H1181 H 0.64257 0.29032 0.28221 0.0
H1182 H 0.67725 0.28105 0.24871 0.0
H1183 H 0.6875 0.24538 0.24857 0.0
H1184 H 0.11713 0.91799 0.34583 0.0
H1185 H 0.12868 0.90703 0.36927 0.0
H1186 H 0.06972 0.922 0.3868 0.0
H1187 H 0.05801 0.93284 0.36332 0.0
H1188 H 0.13198 0.92943 0.39338 0.0
H1189 H 0.07884 0.86557 0.40201 0.0
H1190 H 0.08218 0.87699 0.38483 0.0
H1191 H 0.06594 0.88875 0.39793 0.0
C1192 C 0.10662 0.91892 0.35468 0.0
C1193 C 0.08666 0.92629 0.35274 0.0
C1194 C 0.11321 0.91257 0.36805 0.0
C1195 C 0.09998 0.91342 0.37974 0.0
C1196 C 0.08002 0.92072 0.37785 0.0
H1197 H 0.13271 0.92035 0.46837 0.0
H1198 H 0.12227 0.92622 0.44384 0.0
C1199 C 0.07337 0.92698 0.36445 0.0
C1200 C 0.10747 0.90773 0.39406 0.0
H1201 H 0.09757 0.87743 0.42237 0.0
C1202 C 0.12455 0.91795 0.39967 0.0
C1203 C 0.09796 0.89253 0.40217 0.0
C1204 C 0.08035 0.88018 0.39638 0.0
C1205 C 0.13202 0.9138 0.41334 0.0
C1206 C 0.12186 0.89935 0.42173 0.0
C1207 C 0.10518 0.88867 0.41597 0.0
C1208 C 0.12802 0.89553 0.43664 0.0
C1209 C 0.15079 0.92486 0.41862 0.0
C1210 C 0.13417 0.87615 0.44085 0.0
C1211 C 0.14003 0.87267 0.45494 0.0
C1212 C 0.13974 0.88851 0.46509 0.0
C1213 C 0.13329 0.90783 0.46084 0.0
C1214 C 0.12741 0.91126 0.44679 0.0
H1215 H 0.16004 0.93067 0.40966 0.0
H1216 H 0.14605 0.93802 0.42527 0.0
H1217 H 0.16057 0.9149 0.4252 0.0
H1218 H 0.13461 0.86378 0.43318 0.0
H1219 H 0.14484 0.8576 0.45786 0.0
H1220 H 0.12538 0.60199 0.59377 0.0
H1221 H 0.13492 0.61852 0.61627 0.0
H1222 H 0.08093 0.59443 0.63599 0.0
H1223 H 0.07121 0.57797 0.61348 0.0
H1224 H 0.08684 0.63491 0.64214 0.0
H1225 H 0.15824 0.59161 0.65139 0.0
H1226 H 0.15727 0.60395 0.6345 0.0
H1227 H 0.1395 0.58399 0.63824 0.0
C1228 C 0.11567 0.60002 0.60295 0.0
C1229 C 0.09762 0.58857 0.60189 0.0
C1230 C 0.12114 0.60946 0.61579 0.0
C1231 C 0.1088 0.60743 0.62786 0.0
C1232 C 0.09069 0.59614 0.62681 0.0
H1233 H 0.11405 0.64395 0.71622 0.0
H1234 H 0.10429 0.63113 0.69264 0.0
C1235 C 0.08515 0.58679 0.61395 0.0
C1236 C 0.11455 0.61735 0.64152 0.0
H1237 H 0.15179 0.61925 0.66705 0.0
C1238 C 0.10102 0.63146 0.6476 0.0
C1239 C 0.13308 0.61284 0.64861 0.0
C1240 C 0.14779 0.59714 0.64294 0.0
C1241 C 0.10558 0.64128 0.66056 0.0
C1242 C 0.12406 0.63671 0.66764 0.0
C1243 C 0.13768 0.62277 0.66152 0.0
C1244 C 0.12924 0.64562 0.68172 0.0
C1245 C 0.09073 0.65661 0.66651 0.0
C1246 C 0.14656 0.65792 0.68337 0.0
C1247 C 0.15218 0.6653 0.69683 0.0
C1248 C 0.14069 0.66026 0.70888 0.0
C1249 C 0.12319 0.64813 0.70715 0.0
C1250 C 0.11753 0.64087 0.69368 0.0
H1251 H 0.07985 0.66194 0.65827 0.0
H1252 H 0.08177 0.64956 0.67514 0.0
H1253 H 0.09894 0.66988 0.67111 0.0
H1254 H 0.15583 0.66165 0.67425 0.0
H1255 H 0.16577 0.67456 0.69783 0.0
H1256 H 0.41964 0.62632 0.84552 0.0
H1257 H 0.4035 0.63583 0.8681 0.0
H1258 H 0.42606 0.58106 0.88702 0.0
H1259 H 0.44257 0.57162 0.86458 0.0
H1260 H 0.37373 0.61262 0.88379 0.0
H1261 H 0.44514 0.62725 0.91444 0.0
H1262 H 0.44448 0.62622 0.89523 0.0
H1263 H 0.44397 0.60327 0.90524 0.0
C1264 C 0.42137 0.61642 0.85455 0.0
C1265 C 0.43248 0.59827 0.85331 0.0
C1266 C 0.41202 0.6218 0.86738 0.0
C1267 C 0.41377 0.60923 0.87922 0.0
C1268 C 0.42475 0.59107 0.87803 0.0
H1269 H 0.37411 0.61708 0.96675 0.0
H1270 H 0.3877 0.60641 0.94367 0.0
C1271 C 0.43404 0.58563 0.86518 0.0
C1272 C 0.40392 0.61501 0.89281 0.0
H1273 H 0.41423 0.62795 0.92734 0.0
C1274 C 0.38253 0.61605 0.89333 0.0
C1275 C 0.41551 0.61942 0.90518 0.0
C1276 C 0.43856 0.61917 0.90505 0.0
C1277 C 0.37236 0.62102 0.90602 0.0
C1278 C 0.38397 0.62546 0.9184 0.0
C1279 C 0.40537 0.62448 0.91784 0.0
C1280 C 0.37433 0.63124 0.93209 0.0
C1281 C 0.34932 0.621 0.90614 0.0
C1282 C 0.3622 0.64869 0.93322 0.0
C1283 C 0.3543 0.65478 0.94639 0.0
C1284 C 0.35863 0.64363 0.95868 0.0
C1285 C 0.37053 0.626 0.95747 0.0
C1286 C 0.37833 0.61989 0.94431 0.0
H1287 H 0.34291 0.61199 0.89711 0.0
H1288 H 0.34339 0.61482 0.91624 0.0
H1289 H 0.34373 0.63677 0.90514 0.0
H1290 H 0.35929 0.65791 0.92399 0.0
H1291 H 0.34528 0.66847 0.947 0.0
H1292 H 0.46288 0.94657 0.11678 0.0
H1293 H 0.45381 0.93181 0.13964 0.0
H1294 H 0.39623 0.91179 0.12202 0.0
H1295 H 0.40554 0.92562 0.09899 0.0
H1296 H 0.42161 0.94044 0.15716 0.0
H1297 H 0.41805 0.86021 0.13921 0.0
H1298 H 0.42922 0.87978 0.12854 0.0
H1299 H 0.40194 0.87671 0.12913 0.0
C1300 C 0.4484 0.9388 0.11771 0.0
C1301 C 0.43498 0.93723 0.10601 0.0
C1302 C 0.44318 0.93049 0.13081 0.0
C1303 C 0.4245 0.9204 0.13246 0.0
C1304 C 0.41091 0.91912 0.1209 0.0
H1305 H 0.36522 0.86666 0.20585 0.0
H1306 H 0.37276 0.88046 0.18235 0.0
C1307 C 0.41615 0.92733 0.10779 0.0
C1308 C 0.41904 0.91161 0.14637 0.0
H1309 H 0.40606 0.86747 0.16256 0.0
C1310 C 0.41829 0.92447 0.15835 0.0
C1311 C 0.41467 0.89076 0.14788 0.0
C1312 C 0.41618 0.87601 0.13554 0.0
C1313 C 0.41312 0.91709 0.17179 0.0
C1314 C 0.40875 0.8963 0.17328 0.0
C1315 C 0.40933 0.88343 0.16132 0.0
C1316 C 0.40426 0.88754 0.18732 0.0
C1317 C 0.41219 0.9316 0.1843 0.0
C1318 C 0.4196 0.88667 0.19773 0.0
C1319 C 0.41541 0.87874 0.21109 0.0
C1320 C 0.39575 0.87154 0.21431 0.0
C1321 C 0.38048 0.87215 0.20375 0.0
C1322 C 0.38475 0.88 0.19032 0.0
H1323 H 0.41166 0.94761 0.18087 0.0
H1324 H 0.39859 0.9285 0.19095 0.0
H1325 H 0.42598 0.92957 0.19104 0.0
H1326 H 0.43482 0.89219 0.19552 0.0
H1327 H 0.42756 0.87847 0.21894 0.0
H1328 H 0.10609 0.60284 0.90831 0.0
H1329 H 0.11911 0.61415 0.8854 0.0
H1330 H 0.0613 0.5996 0.86563 0.0
H1331 H 0.04812 0.58832 0.88855 0.0
H1332 H 0.12364 0.5921 0.86099 0.0
H1333 H 0.07152 0.65675 0.85177 0.0
H1334 H 0.07399 0.64483 0.86886 0.0
H1335 H 0.05837 0.63349 0.85514 0.0
C1336 C 0.09615 0.60203 0.89908 0.0
C1337 C 0.07608 0.59466 0.90023 0.0
C1338 C 0.10358 0.60859 0.88602 0.0
C1339 C 0.09109 0.60799 0.87386 0.0
C1340 C 0.07104 0.60066 0.87495 0.0
H1341 H 0.12889 0.60486 0.78627 0.0
H1342 H 0.11691 0.59784 0.81023 0.0
C1343 C 0.06355 0.59416 0.88804 0.0
C1344 C 0.09943 0.61409 0.85991 0.0
H1345 H 0.09158 0.64573 0.83197 0.0
C1346 C 0.11671 0.60392 0.85469 0.0
C1347 C 0.09056 0.62973 0.8518 0.0
C1348 C 0.07271 0.64198 0.85722 0.0
C1349 C 0.12504 0.60857 0.8414 0.0
C1350 C 0.11559 0.62353 0.833 0.0
C1351 C 0.09867 0.63412 0.83838 0.0
C1352 C 0.12276 0.62802 0.81845 0.0
C1353 C 0.14398 0.59751 0.83653 0.0
C1354 C 0.12952 0.64749 0.81501 0.0
C1355 C 0.13629 0.65163 0.80125 0.0
C1356 C 0.1363 0.63637 0.79067 0.0
C1357 C 0.12926 0.61695 0.79415 0.0
C1358 C 0.12249 0.61285 0.80788 0.0
H1359 H 0.15254 0.59104 0.84564 0.0
H1360 H 0.13949 0.58482 0.82933 0.0
H1361 H 0.15432 0.60769 0.83062 0.0
H1362 H 0.12972 0.65944 0.82301 0.0
H1363 H 0.14154 0.66676 0.79892 0.0
H1364 H 0.39066 0.54546 0.14293 0.0
H1365 H 0.38168 0.56042 0.12005 0.0
H1366 H 0.42131 0.61105 0.1293 0.0
H1367 H 0.42976 0.59663 0.15239 0.0
H1368 H 0.38381 0.62256 0.11823 0.0
H1369 H 0.41915 0.56157 0.08541 0.0
H1370 H 0.40051 0.55296 0.09792 0.0
H1371 H 0.42385 0.56426 0.10427 0.0
C1372 C 0.39733 0.55986 0.14015 0.0
C1373 C 0.41106 0.56977 0.14945 0.0
C1374 C 0.39234 0.56828 0.12701 0.0
C1375 C 0.40109 0.58667 0.1229 0.0
C1376 C 0.4145 0.59676 0.13224 0.0
H1377 H 0.41154 0.63576 0.0389 0.0
H1378 H 0.41671 0.62189 0.06257 0.0
C1379 C 0.41946 0.5884 0.14538 0.0
C1380 C 0.39639 0.59545 0.10883 0.0
H1381 H 0.40078 0.58675 0.07311 0.0
C1382 C 0.38748 0.61475 0.10835 0.0
C1383 C 0.40143 0.58528 0.09598 0.0
C1384 C 0.41193 0.56496 0.09585 0.0
C1385 C 0.38345 0.62418 0.09533 0.0
C1386 C 0.38816 0.61386 0.08248 0.0
C1387 C 0.39705 0.59455 0.08298 0.0
C1388 C 0.38479 0.62307 0.06838 0.0
C1389 C 0.37472 0.64531 0.09545 0.0
C1390 C 0.36509 0.62836 0.06378 0.0
C1391 C 0.36207 0.63641 0.05024 0.0
C1392 C 0.37869 0.63912 0.04101 0.0
C1393 C 0.39839 0.63386 0.04571 0.0
C1394 C 0.40139 0.62591 0.05924 0.0
H1395 H 0.37668 0.65289 0.10599 0.0
H1396 H 0.38205 0.65474 0.08723 0.0
H1397 H 0.35812 0.64453 0.09307 0.0
H1398 H 0.35202 0.62593 0.07057 0.0
H1399 H 0.34669 0.64018 0.04693 0.0
H1400 H 0.39933 0.92756 0.4099 0.0
H1401 H 0.38576 0.91394 0.3875 0.0
H1402 H 0.44544 0.91821 0.36859 0.0
H1403 H 0.45914 0.9323 0.39089 0.0
H1404 H 0.38707 0.93268 0.35989 0.0
H1405 H 0.42688 0.85844 0.36132 0.0
H1406 H 0.42379 0.87435 0.37694 0.0
H1407 H 0.44289 0.88027 0.36399 0.0
C1408 C 0.40957 0.92583 0.40095 0.0
C1409 C 0.43034 0.93109 0.40219 0.0
C1410 C 0.40179 0.91791 0.3882 0.0
C1411 C 0.41465 0.91489 0.37649 0.0
C1412 C 0.43536 0.92013 0.37762 0.0
H1413 H 0.38747 0.89605 0.28769 0.0
H1414 H 0.39814 0.90875 0.3111 0.0
C1415 C 0.44315 0.92815 0.39036 0.0
C1416 C 0.40626 0.90664 0.36298 0.0
H1417 H 0.40913 0.86631 0.34003 0.0
C1418 C 0.39181 0.91814 0.35555 0.0
C1419 C 0.41233 0.88757 0.35749 0.0
C1420 C 0.4272 0.8743 0.36537 0.0
C1421 C 0.38363 0.91127 0.34254 0.0
C1422 C 0.39019 0.8925 0.33683 0.0
C1423 C 0.40425 0.88076 0.34443 0.0
C1424 C 0.3831 0.88506 0.32276 0.0
C1425 C 0.36801 0.92409 0.335 0.0
C1426 C 0.37126 0.86742 0.3216 0.0
C1427 C 0.36508 0.86013 0.30823 0.0
C1428 C 0.37088 0.87025 0.29581 0.0
C1429 C 0.38273 0.88793 0.29705 0.0
C1430 C 0.38878 0.89526 0.31041 0.0
H1431 H 0.36119 0.93566 0.34223 0.0
H1432 H 0.37548 0.93205 0.3261 0.0
H1433 H 0.35558 0.91453 0.33046 0.0
H1434 H 0.36683 0.85932 0.33105 0.0
H1435 H 0.356 0.84645 0.3076 0.0
H1436 H 0.08683 0.96362 0.64394 0.0
H1437 H 0.09786 0.9497 0.62095 0.0
H1438 H 0.10076 0.89008 0.63889 0.0
H1439 H 0.09021 0.90384 0.66196 0.0
H1440 H 0.13478 0.92659 0.6149 0.0
H1441 H 0.06341 0.88399 0.60293 0.0
H1442 H 0.06456 0.90423 0.61601 0.0
H1443 H 0.07447 0.87966 0.62017 0.0
C1444 C 0.08997 0.94758 0.64304 0.0
C1445 C 0.08749 0.93483 0.65478 0.0
C1446 C 0.09616 0.93965 0.62988 0.0
C1447 C 0.09983 0.91885 0.62821 0.0
C1448 C 0.09762 0.90612 0.63991 0.0
H1449 H 0.163 0.85488 0.56009 0.0
H1450 H 0.15163 0.86849 0.5831 0.0
C1451 C 0.09152 0.91402 0.65307 0.0
C1452 C 0.10624 0.91044 0.61428 0.0
H1453 H 0.09133 0.87845 0.58739 0.0
C1454 C 0.1253 0.9161 0.60885 0.0
C1455 C 0.09372 0.89689 0.60642 0.0
C1456 C 0.07281 0.89091 0.61157 0.0
C1457 C 0.13232 0.90829 0.5958 0.0
C1458 C 0.11999 0.89438 0.58809 0.0
C1459 C 0.1008 0.88897 0.59342 0.0
C1460 C 0.12656 0.88566 0.57429 0.0
C1461 C 0.15273 0.91515 0.59026 0.0
C1462 C 0.1159 0.89045 0.56181 0.0
C1463 C 0.12233 0.88272 0.54868 0.0
C1464 C 0.13945 0.86992 0.54782 0.0
C1465 C 0.14981 0.86476 0.5604 0.0
C1466 C 0.14341 0.87259 0.57353 0.0
H1467 H 0.15835 0.9289 0.59595 0.0
H1468 H 0.16412 0.90291 0.59174 0.0
H1469 H 0.15177 0.91836 0.5787 0.0
H1470 H 0.10279 0.90045 0.56222 0.0
H1471 H 0.11399 0.88692 0.53919 0.0
H1472 H 0.56648 0.39459 0.84907 0.0
H1473 H 0.57858 0.38412 0.87261 0.0
H1474 H 0.59457 0.4459 0.88283 0.0
H1475 H 0.58236 0.4565 0.85944 0.0
H1476 H 0.61999 0.39121 0.88413 0.0
H1477 H 0.55863 0.42634 0.91676 0.0
H1478 H 0.55563 0.42093 0.89797 0.0
H1479 H 0.57002 0.44264 0.90384 0.0
C1480 C 0.57234 0.40596 0.85641 0.0
C1481 C 0.57346 0.42637 0.85244 0.0
C1482 C 0.57934 0.39994 0.86979 0.0
C1483 C 0.58728 0.41427 0.87945 0.0
C1484 C 0.58827 0.43466 0.87556 0.0
H1485 H 0.63923 0.42033 0.96309 0.0
H1486 H 0.62538 0.42596 0.93934 0.0
C1487 C 0.58143 0.44066 0.86217 0.0
C1488 C 0.59516 0.40797 0.89348 0.0
H1489 H 0.58789 0.41457 0.92915 0.0
C1490 C 0.61291 0.39611 0.89401 0.0
C1491 C 0.58584 0.41445 0.90628 0.0
C1492 C 0.56638 0.42666 0.90627 0.0
C1493 C 0.62208 0.39119 0.90705 0.0
C1494 C 0.61296 0.39799 0.91987 0.0
C1495 C 0.5949 0.40944 0.91931 0.0
C1496 C 0.62223 0.39417 0.934 0.0
C1497 C 0.64186 0.37947 0.90697 0.0
C1498 C 0.62513 0.37439 0.93889 0.0
C1499 C 0.63322 0.37109 0.95247 0.0
C1500 C 0.6383 0.38754 0.96146 0.0
C1501 C 0.63545 0.40731 0.95647 0.0
C1502 C 0.62751 0.41057 0.94289 0.0
H1503 H 0.64936 0.37977 0.89639 0.0
H1504 H 0.65267 0.38562 0.91507 0.0
H1505 H 0.63869 0.36345 0.90956 0.0
H1506 H 0.62078 0.36151 0.93232 0.0
H1507 H 0.63508 0.35568 0.95603 0.0
H1508 H 0.62563 0.05933 0.10445 0.0
H1509 H 0.63634 0.07499 0.12696 0.0
H1510 H 0.5855 0.11634 0.1248 0.0
H1511 H 0.57535 0.10159 0.10193 0.0
H1512 H 0.62012 0.13565 0.13202 0.0
H1513 H 0.6111 0.06793 0.16559 0.0
H1514 H 0.62789 0.06376 0.15081 0.0
H1515 H 0.6013 0.06903 0.14765 0.0
C1516 C 0.61678 0.07183 0.10871 0.0
C1517 C 0.59954 0.0791 0.10138 0.0
C1518 C 0.62278 0.08059 0.12168 0.0
C1519 C 0.61151 0.0966 0.12769 0.0
C1520 C 0.59433 0.1039 0.12041 0.0
H1521 H 0.62182 0.13855 0.21509 0.0
H1522 H 0.6104 0.12484 0.19215 0.0
C1523 C 0.58842 0.09528 0.1074 0.0
C1524 C 0.61789 0.10615 0.14136 0.0
H1525 H 0.62804 0.09617 0.17621 0.0
C1526 C 0.62177 0.12705 0.14171 0.0
C1527 C 0.61977 0.09495 0.15402 0.0
C1528 C 0.6146 0.07272 0.15458 0.0
C1529 C 0.62768 0.13703 0.15434 0.0
C1530 C 0.63028 0.12568 0.16688 0.0
C1531 C 0.62622 0.10482 0.16656 0.0
C1532 C 0.63685 0.13512 0.18055 0.0
C1533 C 0.63061 0.15967 0.15418 0.0
C1534 C 0.6555 0.14555 0.18166 0.0
C1535 C 0.66195 0.15363 0.19475 0.0
C1536 C 0.65003 0.15109 0.207 0.0
C1537 C 0.63135 0.14073 0.20585 0.0
C1538 C 0.62482 0.13285 0.19275 0.0
H1539 H 0.62234 0.16665 0.14513 0.0
H1540 H 0.62522 0.16683 0.16423 0.0
H1541 H 0.64709 0.16309 0.15296 0.0
H1542 H 0.66527 0.14706 0.17247 0.0
H1543 H 0.6765 0.16139 0.19534 0.0
H1544 H 0.95725 0.07611 0.36691 0.0
H1545 H 0.94054 0.08611 0.38913 0.0
H1546 H 0.92237 0.14263 0.37055 0.0
H1547 H 0.93853 0.13256 0.3481 0.0
H1548 H 0.94133 0.14337 0.40028 0.0
H1549 H 0.87578 0.09078 0.39269 0.0
H1550 H 0.90077 0.08019 0.38983 0.0
H1551 H 0.89133 0.09926 0.37808 0.0
C1552 C 0.9496 0.09062 0.36749 0.0
C1553 C 0.9491 0.10345 0.35566 0.0
C1554 C 0.94015 0.09633 0.38021 0.0
C1555 C 0.93008 0.11498 0.38137 0.0
C1556 C 0.93006 0.12815 0.3698 0.0
H1557 H 0.87015 0.1694 0.45613 0.0
H1558 H 0.88472 0.16451 0.43237 0.0
C1559 C 0.93942 0.1224 0.35702 0.0
C1560 C 0.9193 0.12048 0.39464 0.0
H1561 H 0.87891 0.10691 0.41523 0.0
C1562 C 0.92757 0.13559 0.40354 0.0
C1563 C 0.90138 0.11024 0.39876 0.0
C1564 C 0.89163 0.0943 0.38933 0.0
C1565 C 0.91881 0.14019 0.41681 0.0
C1566 C 0.90106 0.12967 0.42107 0.0
C1567 C 0.89252 0.11493 0.41195 0.0
C1568 C 0.89174 0.13283 0.43527 0.0
C1569 C 0.92911 0.15563 0.42638 0.0
C1570 C 0.89025 0.1165 0.44459 0.0
C1571 C 0.88172 0.11916 0.45806 0.0
C1572 C 0.8745 0.13825 0.46252 0.0
C1573 C 0.8757 0.15454 0.45307 0.0
C1574 C 0.88415 0.15182 0.43953 0.0
H1575 H 0.94503 0.15872 0.423 0.0
H1576 H 0.92047 0.17006 0.42599 0.0
H1577 H 0.92937 0.15049 0.43758 0.0
H1578 H 0.89593 0.1017 0.4415 0.0
H1579 H 0.88104 0.10627 0.46504 0.0
H1580 H 0.93092 0.46851 0.61359 0.0
H1581 H 0.92031 0.4552 0.63664 0.0
H1582 H 0.90769 0.39726 0.61689 0.0
H1583 H 0.91841 0.41039 0.59389 0.0
H1584 H 0.88378 0.43863 0.64549 0.0
H1585 H 0.9465 0.38243 0.64901 0.0
H1586 H 0.94641 0.40243 0.63613 0.0
H1587 H 0.93136 0.38001 0.63311 0.0
C1588 C 0.92579 0.45297 0.61417 0.0
C1589 C 0.92573 0.44042 0.60198 0.0
C1590 C 0.91977 0.44538 0.62732 0.0
C1591 C 0.91358 0.42514 0.62851 0.0
C1592 C 0.91291 0.41277 0.61628 0.0
H1593 H 0.85245 0.37351 0.70237 0.0
H1594 H 0.86017 0.38632 0.67865 0.0
C1595 C 0.91904 0.4203 0.60316 0.0
C1596 C 0.90795 0.41692 0.64256 0.0
H1597 H 0.92062 0.38055 0.66649 0.0
C1598 C 0.89182 0.42595 0.65011 0.0
C1599 C 0.91864 0.40051 0.64861 0.0
C1600 C 0.93681 0.39088 0.64138 0.0
C1601 C 0.88601 0.41893 0.66354 0.0
C1602 C 0.89638 0.4022 0.66943 0.0
C1603 C 0.91255 0.39324 0.66189 0.0
C1604 C 0.89145 0.39433 0.68371 0.0
C1605 C 0.86919 0.42982 0.67146 0.0
C1606 C 0.90661 0.39408 0.69429 0.0
C1607 C 0.90234 0.38657 0.70775 0.0
C1608 C 0.88278 0.37913 0.71095 0.0
C1609 C 0.86763 0.37924 0.70029 0.0
C1610 C 0.87197 0.38668 0.68676 0.0
H1611 H 0.86639 0.44515 0.66715 0.0
H1612 H 0.85483 0.42102 0.67038 0.0
H1613 H 0.87292 0.43131 0.68296 0.0
H1614 H 0.92177 0.39985 0.69215 0.0
H1615 H 0.91439 0.38674 0.71569 0.0
H1616 H 0.54892 0.12351 0.39048 0.0
H1617 H 0.56439 0.13153 0.36757 0.0
H1618 H 0.61641 0.09439 0.37785 0.0
H1619 H 0.60146 0.0869 0.40096 0.0
H1620 H 0.62717 0.13133 0.36636 0.0
H1621 H 0.56786 0.09261 0.3335 0.0
H1622 H 0.55816 0.11141 0.34567 0.0
H1623 H 0.57015 0.08902 0.35244 0.0
C1624 C 0.56373 0.11718 0.38792 0.0
C1625 C 0.57388 0.10443 0.39751 0.0
C1626 C 0.57244 0.12161 0.37476 0.0
C1627 C 0.59139 0.11329 0.37094 0.0
C1628 C 0.60171 0.10085 0.38057 0.0
H1629 H 0.64399 0.10094 0.28742 0.0
H1630 H 0.62952 0.09621 0.31103 0.0
C1631 C 0.59305 0.09644 0.39372 0.0
C1632 C 0.60054 0.11747 0.35689 0.0
H1633 H 0.59302 0.11105 0.32117 0.0
C1634 C 0.61972 0.12693 0.35646 0.0
C1635 C 0.59086 0.11149 0.34403 0.0
C1636 C 0.57071 0.1004 0.34386 0.0
C1637 C 0.62949 0.13061 0.34348 0.0
C1638 C 0.61964 0.12496 0.33061 0.0
C1639 C 0.60047 0.11549 0.33106 0.0
C1640 C 0.62919 0.12807 0.31655 0.0
C1641 C 0.65049 0.14003 0.34368 0.0
C1642 C 0.63382 0.14759 0.31183 0.0
C1643 C 0.64221 0.15037 0.29833 0.0
C1644 C 0.64593 0.13367 0.28927 0.0
C1645 C 0.64133 0.11414 0.2941 0.0
C1646 C 0.63302 0.11139 0.30759 0.0
H1647 H 0.65791 0.13882 0.35428 0.0
H1648 H 0.66051 0.13275 0.3356 0.0
H1649 H 0.64917 0.15632 0.34113 0.0
H1650 H 0.63062 0.16071 0.31848 0.0
H1651 H 0.64545 0.16562 0.29492 0.0
H1652 H 0.90274 0.05564 0.64159 0.0
H1653 H 0.8932 0.07147 0.6191 0.0
H1654 H 0.92383 0.12636 0.63238 0.0
H1655 H 0.93364 0.11053 0.65477 0.0
H1656 H 0.86998 0.1047 0.61447 0.0
H1657 H 0.94791 0.11676 0.59333 0.0
H1658 H 0.94298 0.10082 0.60838 0.0
H1659 H 0.94415 0.12786 0.61065 0.0
C1660 C 0.90747 0.07106 0.63968 0.0
C1661 C 0.91906 0.0818 0.64988 0.0
C1662 C 0.90205 0.08007 0.62684 0.0
C1663 C 0.90809 0.09998 0.62397 0.0
C1664 C 0.91947 0.11081 0.6342 0.0
H1665 H 0.85282 0.17463 0.55807 0.0
H1666 H 0.86375 0.16042 0.58081 0.0
C1667 C 0.92504 0.10176 0.647 0.0
C1668 C 0.90194 0.10959 0.61044 0.0
H1669 H 0.92068 0.1326 0.58092 0.0
C1670 C 0.88106 0.11076 0.60711 0.0
C1671 C 0.91644 0.11729 0.60079 0.0
C1672 C 0.93913 0.11547 0.60337 0.0
C1673 C 0.87425 0.11952 0.59442 0.0
C1674 C 0.88871 0.12776 0.58497 0.0
C1675 C 0.9096 0.12648 0.58826 0.0
C1676 C 0.88257 0.13699 0.57131 0.0
C1677 C 0.85167 0.11937 0.5911 0.0
C1678 C 0.89009 0.129 0.55846 0.0
C1679 C 0.88411 0.13725 0.5455 0.0
C1680 C 0.87045 0.15365 0.54513 0.0
C1681 C 0.86323 0.1619 0.55802 0.0
C1682 C 0.86935 0.15371 0.57101 0.0
H1683 H 0.84341 0.1079 0.59743 0.0
H1684 H 0.84512 0.13442 0.59375 0.0
H1685 H 0.84886 0.11619 0.57963 0.0
H1686 H 0.90038 0.11616 0.55845 0.0
H1687 H 0.88997 0.13057 0.53576 0.0
H1688 H 0.92063 0.39141 0.90629 0.0
H1689 H 0.90433 0.382 0.88363 0.0
H1690 H 0.92715 0.43663 0.86481 0.0
H1691 H 0.94375 0.44601 0.88735 0.0
H1692 H 0.87462 0.40607 0.86768 0.0
H1693 H 0.94587 0.38969 0.83767 0.0
H1694 H 0.94506 0.39053 0.85687 0.0
H1695 H 0.9452 0.4136 0.847 0.0
C1696 C 0.92237 0.40129 0.89727 0.0
C1697 C 0.93356 0.41939 0.89856 0.0
C1698 C 0.91294 0.39598 0.8844 0.0
C1699 C 0.91471 0.40855 0.87257 0.0
C1700 C 0.92581 0.42664 0.87381 0.0
H1701 H 0.87587 0.40188 0.78472 0.0
H1702 H 0.88952 0.41196 0.80799 0.0
C1703 C 0.93515 0.43203 0.8867 0.0
C1704 C 0.9048 0.40286 0.85894 0.0
H1705 H 0.91502 0.38961 0.82452 0.0
C1706 C 0.8834 0.40239 0.85823 0.0
C1707 C 0.91636 0.39813 0.84669 0.0
C1708 C 0.9394 0.39782 0.84703 0.0
C1709 C 0.87319 0.3977 0.84543 0.0
C1710 C 0.88476 0.39295 0.83316 0.0
C1711 C 0.90618 0.39332 0.83393 0.0
C1712 C 0.87509 0.38758 0.81934 0.0
C1713 C 0.85016 0.39838 0.84509 0.0
C1714 C 0.86233 0.37058 0.81801 0.0
C1715 C 0.85437 0.36485 0.80473 0.0
C1716 C 0.85928 0.37588 0.79252 0.0
C1717 C 0.87183 0.39306 0.79393 0.0
C1718 C 0.87966 0.39883 0.8072 0.0
H1719 H 0.84394 0.40756 0.85407 0.0
H1720 H 0.8445 0.40476 0.83494 0.0
H1721 H 0.84409 0.38279 0.84602 0.0
H1722 H 0.85896 0.36142 0.82718 0.0
H1723 H 0.84486 0.35149 0.80397 0.0
H1724 H 0.61319 0.44166 0.15257 0.0
H1725 H 0.62454 0.42883 0.12939 0.0
H1726 H 0.56411 0.40566 0.12082 0.0
H1727 H 0.55259 0.41851 0.14397 0.0
H1728 H 0.59501 0.37765 0.11535 0.0
H1729 H 0.6114 0.45121 0.08996 0.0
H1730 H 0.62389 0.44787 0.10682 0.0
H1731 H 0.59649 0.44924 0.106 0.0
C1732 C 0.60222 0.43413 0.14566 0.0
C1733 C 0.58196 0.43116 0.15009 0.0
C1734 C 0.60875 0.42679 0.13242 0.0
C1735 C 0.5951 0.41651 0.12333 0.0
C1736 C 0.57486 0.41358 0.12769 0.0
H1737 H 0.61422 0.38716 0.03428 0.0
H1738 H 0.60137 0.3996 0.05715 0.0
C1739 C 0.56833 0.42087 0.14092 0.0
C1740 C 0.60208 0.40823 0.10947 0.0
H1741 H 0.62256 0.42166 0.07762 0.0
C1742 C 0.60097 0.38726 0.10707 0.0
C1743 C 0.60965 0.42085 0.09866 0.0
C1744 C 0.61028 0.44356 0.10039 0.0
C1745 C 0.60751 0.3785 0.09418 0.0
C1746 C 0.61563 0.39106 0.08353 0.0
C1747 C 0.61648 0.41206 0.08587 0.0
C1748 C 0.62307 0.38279 0.06978 0.0
C1749 C 0.60534 0.35595 0.09199 0.0
C1750 C 0.63956 0.36924 0.06931 0.0
C1751 C 0.64692 0.36204 0.05625 0.0
C1752 C 0.63799 0.36842 0.04343 0.0
C1753 C 0.62142 0.38194 0.04396 0.0
C1754 C 0.61407 0.38909 0.05701 0.0
H1755 H 0.59419 0.34935 0.09951 0.0
H1756 H 0.60037 0.35227 0.08095 0.0
H1757 H 0.62035 0.34862 0.09384 0.0
H1758 H 0.64697 0.36449 0.07904 0.0
H1759 H 0.65977 0.35172 0.05618 0.0
loop_
_geom_bond_atom_site_label_1
_geom_bond_atom_site_label_2
_geom_bond_distance
_geom_bond_site_symmetry_2
_ccdc_geom_bond_type
H0 C27 0.929 . S
N1 C26 1.433 . S
N1 C32 1.435 . S
N1 C38 1.423 . S
H2 C28 0.930 . S
H3 C31 0.931 . S
H4 C30 0.929 . S
H5 C33 0.930 . S
H6 C34 0.932 . S
H7 C37 0.929 . S
H8 C36 0.931 . S
H9 C39 0.929 . S
H10 C43 0.932 . S
H11 C40 0.931 . S
H12 C42 0.929 . S
H13 C45 0.929 . S
H14 C46 0.930 . S
H15 C48 0.929 . S
H16 C49 0.931 . S
H17 C51 0.930 . S
H18 C52 0.932 . S
H19 C54 0.931 . S
H20 C55 0.929 . S
H21 C57 0.929 . S
H22 C58 0.931 . S
H23 C60 0.929 . S
N24 C44 1.433 . S
N24 C50 1.435 . S
N24 C56 1.423 . S
H25 C61 0.932 . S
C26 N1 1.433 . S
C26 C27 1.363 . S
C26 C31 1.370 . S
C27 H0 0.929 . S
C27 C26 1.363 . S
C27 C28 1.385 . S
C28 H2 0.930 . S
C28 C27 1.385 . S
C28 C29 1.357 . S
C29 C28 1.357 . S
C29 C30 1.406 . S
C30 H4 0.929 . S
C30 C29 1.406 . S
C30 C31 1.391 . S
C31 H3 0.931 . S
C31 C26 1.370 . S
C31 C30 1.391 . S
C32 N1 1.435 . S
C32 C33 1.358 . S
C32 C37 1.371 . S
C33 H5 0.930 . S
C33 C32 1.358 . S
C33 C34 1.405 . S
C34 H6 0.932 . S
C34 C33 1.405 . S
C34 C35 1.383 . S
C35 C34 1.383 . S
C35 C36 1.393 . S
C36 H8 0.931 . S
C36 C35 1.393 . S
C36 C37 1.382 . S
C37 H7 0.929 . S
C37 C32 1.371 . S
C37 C36 1.382 . S
C38 N1 1.423 . S
C38 C39 1.362 1_565 S
C38 C43 1.388 . S
C39 H9 0.929 . S
C39 C38 1.362 1_545 S
C39 C40 1.376 . S
C40 H11 0.931 . S
C40 C39 1.376 . S
C40 C41 1.396 . S
C41 C40 1.396 . S
C41 C42 1.348 1_545 S
C41 C59 1.472 . S
C42 H12 0.929 . S
C42 C41 1.348 1_565 S
C42 C43 1.443 . S
C43 H10 0.932 . S
C43 C38 1.388 . S
C43 C42 1.443 . S
C44 N24 1.433 . S
C44 C45 1.363 . S
C44 C49 1.370 . S
C45 H13 0.929 . S
C45 C44 1.363 . S
C45 C46 1.385 . S
C46 H14 0.930 . S
C46 C45 1.385 . S
C46 C47 1.357 . S
C47 C46 1.357 . S
C47 C48 1.406 . S
C48 H15 0.929 . S
C48 C47 1.406 . S
C48 C49 1.391 . S
C49 H16 0.931 . S
C49 C44 1.370 . S
C49 C48 1.391 . S
C50 N24 1.435 . S
C50 C51 1.358 . S
C50 C55 1.371 . S
C51 H17 0.930 . S
C51 C50 1.358 . S
C51 C52 1.405 . S
C52 H18 0.932 . S
C52 C51 1.405 . S
C52 C53 1.383 . S
C53 C52 1.383 . S
C53 C54 1.393 . S
C54 H19 0.931 . S
C54 C53 1.393 . S
C54 C55 1.382 . S
C55 H20 0.929 . S
C55 C50 1.371 . S
C55 C54 1.382 . S
C56 N24 1.423 . S
C56 C57 1.362 . S
C56 C61 1.388 . S
C57 H21 0.929 . S
C57 C56 1.362 . S
C57 C58 1.376 1_655 S
C58 H22 0.931 . S
C58 C57 1.376 1_455 S
C58 C59 1.396 . S
C59 C41 1.472 . S
C59 C58 1.396 . S
C59 C60 1.348 1_455 S
C60 H23 0.929 . S
C60 C59 1.348 1_655 S
C60 C61 1.443 . S
C61 H25 0.932 . S
C61 C56 1.388 . S
C61 C60 1.443 . S
H62 C89 0.929 . S
N63 C88 1.433 . S
N63 C94 1.435 . S
N63 C100 1.423 . S
H64 C90 0.930 . S
H65 C93 0.931 . S
H66 C92 0.929 . S
H67 C95 0.930 . S
H68 C96 0.932 . S
H69 C99 0.929 . S
H70 C98 0.931 . S
H71 C101 0.929 . S
H72 C105 0.932 . S
H73 C102 0.931 . S
H74 C104 0.931 . S
H75 C107 0.929 . S
H76 C108 0.930 . S
H77 C110 0.929 . S
H78 C111 0.931 . S
H79 C113 0.930 . S
H80 C114 0.932 . S
H81 C116 0.931 . S
H82 C117 0.929 . S
H83 C119 0.929 . S
H84 C120 0.931 . S
H85 C122 0.929 . S
N86 C106 1.433 . S
N86 C112 1.435 . S
N86 C118 1.423 . S
H87 C123 0.932 . S
C88 N63 1.433 . S
C88 C89 1.363 . S
C88 C93 1.370 . S
C89 H62 0.929 . S
C89 C88 1.363 . S
C89 C90 1.385 . S
C90 H64 0.930 . S
C90 C89 1.385 . S
C90 C91 1.357 . S
C91 C90 1.357 . S
C91 C92 1.406 . S
C92 H66 0.929 . S
C92 C91 1.406 . S
C92 C93 1.391 . S
C93 H65 0.931 . S
C93 C88 1.370 . S
C93 C92 1.391 . S
C94 N63 1.435 . S
C94 C95 1.358 . S
C94 C99 1.371 . S
C95 H67 0.930 . S
C95 C94 1.358 . S
C95 C96 1.405 . S
C96 H68 0.932 . S
C96 C95 1.405 . S
C96 C97 1.383 . S
C97 C96 1.383 . S
C97 C98 1.393 . S
C98 H70 0.931 . S
C98 C97 1.393 . S
C98 C99 1.382 . S
C99 H69 0.929 . S
C99 C94 1.371 . S
C99 C98 1.382 . S
C100 N63 1.423 . S
C100 C101 1.362 1_655 S
C100 C105 1.388 . S
C101 H71 0.929 . S
C101 C100 1.362 1_455 S
C101 C102 1.376 . S
C102 H73 0.931 . S
C102 C101 1.376 . S
C102 C103 1.396 . S
C103 C102 1.396 . S
C103 C104 1.329 1_455 S
C103 C121 1.472 . S
C104 H74 0.931 . S
C104 C103 1.329 1_655 S
C104 C105 1.460 . S
C105 H72 0.932 . S
C105 C100 1.388 . S
C105 C104 1.460 . S
C106 N86 1.433 . S
C106 C107 1.363 . S
C106 C111 1.370 . S
C107 H75 0.929 . S
C107 C106 1.363 . S
C107 C108 1.385 . S
C108 H76 0.930 . S
C108 C107 1.385 . S
C108 C109 1.357 . S
C109 C108 1.357 . S
C109 C110 1.406 . S
C110 H77 0.929 . S
C110 C109 1.406 . S
C110 C111 1.391 . S
C111 H78 0.931 . S
C111 C106 1.370 . S
C111 C110 1.391 . S
C112 N86 1.435 . S
C112 C113 1.358 . S
C112 C117 1.371 . S
C113 H79 0.930 . S
C113 C112 1.358 . S
C113 C114 1.405 . S
C114 H80 0.932 . S
C114 C113 1.405 . S
C114 C115 1.383 . S
C115 C114 1.383 . S
C115 C116 1.393 . S
C116 H81 0.931 . S
C116 C115 1.393 . S
C116 C117 1.382 . S
C117 H82 0.929 . S
C117 C112 1.371 . S
C117 C116 1.382 . S
C118 N86 1.423 . S
C118 C119 1.362 . S
C118 C123 1.388 . S
C119 H83 0.929 . S
C119 C118 1.362 . S
C119 C120 1.376 . S
C120 H84 0.931 . S
C120 C119 1.376 . S
C120 C121 1.396 . S
C121 C103 1.472 . S
C121 C120 1.396 . S
C121 C122 1.348 . S
C122 H85 0.929 . S
C122 C121 1.348 . S
C122 C123 1.443 . S
C123 H87 0.932 . S
C123 C118 1.388 . S
C123 C122 1.443 . S
H124 C151 0.929 . S
N125 C150 1.433 . S
N125 C156 1.435 . S
N125 C162 1.423 . S
H126 C152 0.930 . S
H127 C155 0.931 . S
H128 C154 0.929 . S
H129 C157 0.930 . S
H130 C158 0.932 . S
H131 C161 0.929 . S
H132 C160 0.931 . S
H133 C163 0.929 . S
H134 C167 0.932 . S
H135 C164 0.931 . S
H136 C166 0.929 . S
H137 C169 0.929 . S
H138 C170 0.930 . S
H139 C172 0.929 . S
H140 C173 0.931 . S
H141 C175 0.930 . S
H142 C176 0.932 . S
H143 C178 0.931 . S
H144 C179 0.929 . S
H145 C181 0.929 . S
H146 C182 0.931 . S
H147 C184 0.929 . S
N148 C168 1.433 . S
N148 C174 1.435 . S
N148 C180 1.423 . S
H149 C185 0.932 . S
C150 N125 1.433 . S
C150 C151 1.363 . S
C150 C155 1.370 . S
C151 H124 0.929 . S
C151 C150 1.363 . S
C151 C152 1.385 . S
C152 H126 0.930 . S
C152 C151 1.385 . S
C152 C153 1.357 . S
C153 C152 1.357 . S
C153 C154 1.406 . S
C154 H128 0.929 . S
C154 C153 1.406 . S
C154 C155 1.391 . S
C155 H127 0.931 . S
C155 C150 1.370 . S
C155 C154 1.391 . S
C156 N125 1.435 . S
C156 C157 1.358 . S
C156 C161 1.371 . S
C157 H129 0.930 . S
C157 C156 1.358 . S
C157 C158 1.405 . S
C158 H130 0.932 . S
C158 C157 1.405 . S
C158 C159 1.383 . S
C159 C158 1.383 . S
C159 C160 1.393 . S
C160 H132 0.931 . S
C160 C159 1.393 . S
C160 C161 1.382 . S
C161 H131 0.929 . S
C161 C156 1.371 . S
C161 C160 1.382 . S
C162 N125 1.423 . S
C162 C163 1.362 . S
C162 C167 1.388 . S
C163 H133 0.929 . S
C163 C162 1.362 . S
C163 C164 1.376 . S
C164 H135 0.931 . S
C164 C163 1.376 . S
C164 C165 1.396 . S
C165 C164 1.396 . S
C165 C166 1.348 . S
C165 C183 1.472 . S
C166 H136 0.929 . S
C166 C165 1.348 . S
C166 C167 1.443 . S
C167 H134 0.932 . S
C167 C162 1.388 . S
C167 C166 1.443 . S
C168 N148 1.433 . S
C168 C169 1.363 . S
C168 C173 1.370 . S
C169 H137 0.929 . S
C169 C168 1.363 . S
C169 C170 1.385 . S
C170 H138 0.930 . S
C170 C169 1.385 . S
C170 C171 1.357 . S
C171 C170 1.357 . S
C171 C172 1.406 . S
C172 H139 0.929 . S
C172 C171 1.406 . S
C172 C173 1.391 . S
C173 H140 0.931 . S
C173 C168 1.370 . S
C173 C172 1.391 . S
C174 N148 1.435 . S
C174 C175 1.358 . S
C174 C179 1.371 . S
C175 H141 0.930 . S
C175 C174 1.358 . S
C175 C176 1.405 . S
C176 H142 0.932 . S
C176 C175 1.405 . S
C176 C177 1.383 . S
C177 C176 1.383 . S
C177 C178 1.393 . S
C178 H143 0.931 . S
C178 C177 1.393 . S
C178 C179 1.382 . S
C179 H144 0.929 . S
C179 C174 1.371 . S
C179 C178 1.382 . S
C180 N148 1.423 . S
C180 C181 1.362 . S
C180 C185 1.388 . S
C181 H145 0.929 . S
C181 C180 1.362 . S
C181 C182 1.376 . S
C182 H146 0.931 . S
C182 C181 1.376 . S
C182 C183 1.396 . S
C183 C165 1.472 . S
C183 C182 1.396 . S
C183 C184 1.348 . S
C184 H147 0.929 . S
C184 C183 1.348 . S
C184 C185 1.443 . S
C185 H149 0.932 . S
C185 C180 1.388 . S
C185 C184 1.443 . S
H186 C213 0.929 . S
N187 C212 1.433 . S
N187 C218 1.435 . S
N187 C224 1.423 . S
H188 C214 0.930 . S
H189 C217 0.931 . S
H190 C216 0.929 . S
H191 C219 0.930 . S
H192 C220 0.932 . S
H193 C223 0.929 . S
H194 C222 0.931 . S
H195 C225 0.929 . S
H196 C229 0.932 . S
H197 C226 0.931 . S
H198 C228 0.929 . S
H199 C231 0.929 . S
H200 C232 0.930 . S
H201 C234 0.929 . S
H202 C235 0.931 . S
H203 C237 0.930 . S
H204 C238 0.932 . S
H205 C240 0.931 . S
H206 C241 0.929 . S
H207 C243 0.929 . S
H208 C244 0.931 1_565 S
H209 C246 0.929 . S
N210 C230 1.433 . S
N210 C236 1.435 . S
N210 C242 1.423 . S
H211 C247 0.932 . S
C212 N187 1.433 . S
C212 C213 1.363 . S
C212 C217 1.370 . S
C213 H186 0.929 . S
C213 C212 1.363 . S
C213 C214 1.385 . S
C214 H188 0.930 . S
C214 C213 1.385 . S
C214 C215 1.357 . S
C215 C214 1.357 . S
C215 C216 1.406 . S
C216 H190 0.929 . S
C216 C215 1.406 . S
C216 C217 1.391 . S
C217 H189 0.931 . S
C217 C212 1.370 . S
C217 C216 1.391 . S
C218 N187 1.435 . S
C218 C219 1.358 . S
C218 C223 1.371 . S
C219 H191 0.930 . S
C219 C218 1.358 . S
C219 C220 1.405 . S
C220 H192 0.932 . S
C220 C219 1.405 . S
C220 C221 1.383 . S
C221 C220 1.383 . S
C221 C222 1.393 . S
C222 H194 0.931 . S
C222 C221 1.393 . S
C222 C223 1.382 . S
C223 H193 0.929 . S
C223 C218 1.371 . S
C223 C222 1.382 . S
C224 N187 1.423 . S
C224 C225 1.362 . S
C224 C229 1.388 . S
C225 H195 0.929 . S
C225 C224 1.362 . S
C225 C226 1.376 . S
C226 H197 0.931 . S
C226 C225 1.376 . S
C226 C227 1.396 . S
C227 C226 1.396 . S
C227 C228 1.348 . S
C227 C245 1.472 1_565 S
C228 H198 0.929 . S
C228 C227 1.348 . S
C228 C229 1.443 . S
C229 H196 0.932 . S
C229 C224 1.388 . S
C229 C228 1.443 . S
C230 N210 1.433 . S
C230 C231 1.363 . S
C230 C235 1.370 . S
C231 H199 0.929 . S
C231 C230 1.363 . S
C231 C232 1.385 . S
C232 H200 0.930 . S
C232 C231 1.385 . S
C232 C233 1.357 . S
C233 C232 1.357 . S
C233 C234 1.406 . S
C234 H201 0.929 . S
C234 C233 1.406 . S
C234 C235 1.391 . S
C235 H202 0.931 . S
C235 C230 1.370 . S
C235 C234 1.391 . S
C236 N210 1.435 . S
C236 C237 1.358 . S
C236 C241 1.371 . S
C237 H203 0.930 . S
C237 C236 1.358 . S
C237 C238 1.405 . S
C238 H204 0.932 . S
C238 C237 1.405 . S
C238 C239 1.383 . S
C239 C238 1.383 . S
C239 C240 1.393 . S
C240 H205 0.931 . S
C240 C239 1.393 . S
C240 C241 1.382 . S
C241 H206 0.929 . S
C241 C236 1.371 . S
C241 C240 1.382 . S
C242 N210 1.423 . S
C242 C243 1.362 . S
C242 C247 1.388 . S
C243 H207 0.929 . S
C243 C242 1.362 . S
C243 C244 1.376 . S
C244 H208 0.931 1_545 S
C244 C243 1.376 . S
C244 C245 1.396 . S
C245 C227 1.472 1_545 S
C245 C244 1.396 . S
C245 C246 1.348 . S
C246 H209 0.929 . S
C246 C245 1.348 . S
C246 C247 1.443 . S
C247 H211 0.932 . S
C247 C242 1.388 . S
C247 C246 1.443 . S
H248 C275 0.929 . S
N249 C274 1.433 . S
N249 C280 1.435 . S
N249 C286 1.423 . S
H250 C276 0.930 . S
H251 C279 0.931 . S
H252 C278 0.929 . S
H253 C281 0.930 . S
H254 C282 0.932 . S
H255 C285 0.929 . S
H256 C284 0.931 . S
H257 C287 0.929 . S
H258 C291 0.932 . S
H259 C288 0.931 . S
H260 C290 0.929 . S
H261 C293 0.929 . S
H262 C294 0.930 . S
H263 C296 0.929 . S
H264 C297 0.931 . S
H265 C299 0.930 . S
H266 C300 0.932 . S
H267 C302 0.931 . S
H268 C303 0.929 . S
H269 C305 0.929 . S
H270 C306 0.893 1_455 S
H271 C308 0.929 . S
N272 C292 1.433 . S
N272 C298 1.435 . S
N272 C304 1.423 . S
H273 C309 0.932 . S
C274 N249 1.433 . S
C274 C275 1.363 . S
C274 C279 1.370 . S
C275 H248 0.929 . S
C275 C274 1.363 . S
C275 C276 1.385 . S
C276 H250 0.930 . S
C276 C275 1.385 . S
C276 C277 1.357 . S
C277 C276 1.357 . S
C277 C278 1.406 . S
C278 H252 0.929 . S
C278 C277 1.406 . S
C278 C279 1.391 . S
C279 H251 0.931 . S
C279 C274 1.370 . S
C279 C278 1.391 . S
C280 N249 1.435 . S
C280 C281 1.358 . S
C280 C285 1.371 . S
C281 H253 0.930 . S
C281 C280 1.358 . S
C281 C282 1.405 . S
C282 H254 0.932 . S
C282 C281 1.405 . S
C282 C283 1.383 . S
C283 C282 1.383 . S
C283 C284 1.393 . S
C284 H256 0.931 . S
C284 C283 1.393 . S
C284 C285 1.382 . S
C285 H255 0.929 . S
C285 C280 1.371 . S
C285 C284 1.382 . S
C286 N249 1.423 . S
C286 C287 1.362 . S
C286 C291 1.388 . S
C287 H257 0.929 . S
C287 C286 1.362 . S
C287 C288 1.376 . S
C288 H259 0.931 . S
C288 C287 1.376 . S
C288 C289 1.396 . S
C289 C288 1.396 . S
C289 C290 1.348 . S
C289 C307 1.472 . S
C290 H260 0.929 . S
C290 C289 1.348 . S
C290 C291 1.443 . S
C291 H258 0.932 . S
C291 C286 1.388 . S
C291 C290 1.443 . S
C292 N272 1.433 . S
C292 C293 1.363 . S
C292 C297 1.370 . S
C293 H261 0.929 . S
C293 C292 1.363 . S
C293 C294 1.385 . S
C294 H262 0.930 . S
C294 C293 1.385 . S
C294 C295 1.357 . S
C295 C294 1.357 . S
C295 C296 1.406 . S
C296 H263 0.929 . S
C296 C295 1.406 . S
C296 C297 1.391 . S
C297 H264 0.931 . S
C297 C292 1.370 . S
C297 C296 1.391 . S
C298 N272 1.435 . S
C298 C299 1.358 . S
C298 C303 1.371 . S
C299 H265 0.930 . S
C299 C298 1.358 . S
C299 C300 1.405 . S
C300 H266 0.932 . S
C300 C299 1.405 . S
C300 C301 1.383 . S
C301 C300 1.383 . S
C301 C302 1.393 . S
C302 H267 0.931 . S
C302 C301 1.393 . S
C302 C303 1.382 . S
C303 H268 0.929 . S
C303 C298 1.371 . S
C303 C302 1.382 . S
C304 N272 1.423 . S
C304 C305 1.362 . S
C304 C309 1.388 . S
C305 H269 0.929 . S
C305 C304 1.362 . S
C305 C306 1.419 . S
C306 H270 0.893 1_655 S
C306 C305 1.419 . S
C306 C307 1.392 1_655 S
C307 C289 1.472 . S
C307 C306 1.392 1_455 S
C307 C308 1.348 1_455 S
C308 H271 0.929 . S
C308 C307 1.348 1_655 S
C308 C309 1.443 . S
C309 H273 0.932 . S
C309 C304 1.388 . S
C309 C308 1.443 . S
H310 C337 0.929 . S
N311 C336 1.433 . S
N311 C342 1.435 . S
N311 C348 1.423 . S
H312 C338 0.930 . S
H313 C341 0.931 . S
H314 C340 0.929 . S
H315 C343 0.930 . S
H316 C344 0.932 . S
H317 C347 0.929 . S
H318 C346 0.931 . S
H319 C349 0.929 . S
H320 C353 0.932 . S
H321 C350 0.931 . S
H322 C352 0.929 . S
H323 C355 0.929 . S
H324 C356 0.930 . S
H325 C358 0.929 . S
H326 C359 0.931 . S
H327 C361 0.930 . S
H328 C362 0.932 . S
H329 C364 0.931 . S
H330 C365 0.929 . S
H331 C367 0.929 . S
H332 C368 0.931 . S
H333 C370 0.929 . S
N334 C354 1.433 . S
N334 C360 1.435 . S
N334 C366 1.423 . S
H335 C371 0.932 . S
C336 N311 1.433 . S
C336 C337 1.363 . S
C336 C341 1.370 . S
C337 H310 0.929 . S
C337 C336 1.363 . S
C337 C338 1.385 . S
C338 H312 0.930 . S
C338 C337 1.385 . S
C338 C339 1.357 . S
C339 C338 1.357 . S
C339 C340 1.406 . S
C340 H314 0.929 . S
C340 C339 1.406 . S
C340 C341 1.391 . S
C341 H313 0.931 . S
C341 C336 1.370 . S
C341 C340 1.391 . S
C342 N311 1.435 . S
C342 C343 1.358 . S
C342 C347 1.371 . S
C343 H315 0.930 . S
C343 C342 1.358 . S
C343 C344 1.405 . S
C344 H316 0.932 . S
C344 C343 1.405 . S
C344 C345 1.383 . S
C345 C344 1.383 . S
C345 C346 1.393 . S
C346 H318 0.931 . S
C346 C345 1.393 . S
C346 C347 1.382 . S
C347 H317 0.929 . S
C347 C342 1.371 . S
C347 C346 1.382 . S
C348 N311 1.423 . S
C348 C349 1.362 . S
C348 C353 1.388 . S
C349 H319 0.929 . S
C349 C348 1.362 . S
C349 C350 1.376 . S
C350 H321 0.931 . S
C350 C349 1.376 . S
C350 C351 1.396 . S
C351 C350 1.396 . S
C351 C352 1.348 . S
C351 C369 1.472 . S
C352 H322 0.929 . S
C352 C351 1.348 . S
C352 C353 1.443 . S
C353 H320 0.932 . S
C353 C348 1.388 . S
C353 C352 1.443 . S
C354 N334 1.433 . S
C354 C355 1.363 . S
C354 C359 1.370 . S
C355 H323 0.929 . S
C355 C354 1.363 . S
C355 C356 1.385 . S
C356 H324 0.930 . S
C356 C355 1.385 . S
C356 C357 1.357 . S
C357 C356 1.357 . S
C357 C358 1.406 . S
C358 H325 0.929 . S
C358 C357 1.406 . S
C358 C359 1.391 . S
C359 H326 0.931 . S
C359 C354 1.370 . S
C359 C358 1.391 . S
C360 N334 1.435 . S
C360 C361 1.358 . S
C360 C365 1.371 . S
C361 H327 0.930 . S
C361 C360 1.358 . S
C361 C362 1.405 . S
C362 H328 0.932 . S
C362 C361 1.405 . S
C362 C363 1.383 . S
C363 C362 1.383 . S
C363 C364 1.393 . S
C364 H329 0.931 . S
C364 C363 1.393 . S
C364 C365 1.382 . S
C365 H330 0.929 . S
C365 C360 1.371 . S
C365 C364 1.382 . S
C366 N334 1.423 . S
C366 C367 1.362 . S
C366 C371 1.388 . S
C367 H331 0.929 . S
C367 C366 1.362 . S
C367 C368 1.376 . S
C368 H332 0.931 . S
C368 C367 1.376 . S
C368 C369 1.396 . S
C369 C351 1.472 . S
C369 C368 1.396 . S
C369 C370 1.348 . S
C370 H333 0.929 . S
C370 C369 1.348 . S
C370 C371 1.443 . S
C371 H335 0.932 . S
C371 C366 1.388 . S
C371 C370 1.443 . S
H372 C399 0.929 . S
N373 C398 1.433 . S
N373 C404 1.435 . S
N373 C410 1.423 . S
H374 C400 0.930 . S
H375 C403 0.931 . S
H376 C402 0.929 . S
H377 C405 0.930 . S
H378 C406 0.932 . S
H379 C409 0.929 . S
H380 C408 0.931 . S
H381 C411 0.929 . S
H382 C415 0.932 . S
H383 C412 0.931 . S
H384 C414 0.933 . S
H385 C417 0.929 . S
H386 C418 0.930 . S
H387 C420 0.929 . S
H388 C421 0.931 . S
H389 C423 0.930 . S
H390 C424 0.932 . S
H391 C426 0.931 . S
H392 C427 0.929 . S
H393 C429 0.929 . S
H394 C430 0.931 . S
H395 C432 0.929 . S
N396 C416 1.433 . S
N396 C422 1.435 . S
N396 C428 1.423 . S
H397 C433 0.932 . S
C398 N373 1.433 . S
C398 C399 1.363 . S
C398 C403 1.370 . S
C399 H372 0.929 . S
C399 C398 1.363 . S
C399 C400 1.385 . S
C400 H374 0.930 . S
C400 C399 1.385 . S
C400 C401 1.357 . S
C401 C400 1.357 . S
C401 C402 1.406 . S
C402 H376 0.929 . S
C402 C401 1.406 . S
C402 C403 1.391 . S
C403 H375 0.931 . S
C403 C398 1.370 . S
C403 C402 1.391 . S
C404 N373 1.435 . S
C404 C405 1.358 . S
C404 C409 1.371 . S
C405 H377 0.930 . S
C405 C404 1.358 . S
C405 C406 1.405 . S
C406 H378 0.932 . S
C406 C405 1.405 . S
C406 C407 1.383 . S
C407 C406 1.383 . S
C407 C408 1.393 . S
C408 H380 0.931 . S
C408 C407 1.393 . S
C408 C409 1.382 . S
C409 H379 0.929 . S
C409 C404 1.371 . S
C409 C408 1.382 . S
C410 N373 1.423 . S
C410 C411 1.362 1_565 S
C410 C415 1.388 . S
C411 H381 0.929 . S
C411 C410 1.362 1_545 S
C411 C412 1.376 . S
C412 H383 0.931 . S
C412 C411 1.376 . S
C412 C413 1.396 . S
C413 C412 1.396 . S
C413 C414 1.321 1_545 S
C413 C431 1.472 . S
C414 H384 0.933 . S
C414 C413 1.321 1_565 S
C414 C415 1.468 . S
C415 H382 0.932 . S
C415 C410 1.388 . S
C415 C414 1.468 . S
C416 N396 1.433 . S
C416 C417 1.363 . S
C416 C421 1.370 . S
C417 H385 0.929 . S
C417 C416 1.363 . S
C417 C418 1.385 . S
C418 H386 0.930 . S
C418 C417 1.385 . S
C418 C419 1.357 . S
C419 C418 1.357 . S
C419 C420 1.406 . S
C420 H387 0.929 . S
C420 C419 1.406 . S
C420 C421 1.391 . S
C421 H388 0.931 . S
C421 C416 1.370 . S
C421 C420 1.391 . S
C422 N396 1.435 . S
C422 C423 1.358 . S
C422 C427 1.371 . S
C423 H389 0.930 . S
C423 C422 1.358 . S
C423 C424 1.405 . S
C424 H390 0.932 . S
C424 C423 1.405 . S
C424 C425 1.383 . S
C425 C424 1.383 . S
C425 C426 1.393 . S
C426 H391 0.931 . S
C426 C425 1.393 . S
C426 C427 1.382 . S
C427 H392 0.929 . S
C427 C422 1.371 . S
C427 C426 1.382 . S
C428 N396 1.423 . S
C428 C429 1.362 . S
C428 C433 1.388 . S
C429 H393 0.929 . S
C429 C428 1.362 . S
C429 C430 1.376 . S
C430 H394 0.931 . S
C430 C429 1.376 . S
C430 C431 1.396 . S
C431 C413 1.472 . S
C431 C430 1.396 . S
C431 C432 1.348 . S
C432 H395 0.929 . S
C432 C431 1.348 . S
C432 C433 1.443 . S
C433 H397 0.932 . S
C433 C428 1.388 . S
C433 C432 1.443 . S
H434 C461 0.929 . S
N435 C460 1.433 . S
N435 C466 1.435 . S
N435 C472 1.423 . S
H436 C462 0.930 . S
H437 C465 0.931 . S
H438 C464 0.929 . S
H439 C467 0.930 . S
H440 C468 0.932 . S
H441 C471 0.929 . S
H442 C470 0.931 . S
H443 C473 0.929 . S
H444 C477 0.932 . S
H445 C474 0.931 1_655 S
H446 C476 0.929 . S
H447 C479 0.929 . S
H448 C480 0.930 . S
H449 C482 0.929 . S
H450 C483 0.931 . S
H451 C485 0.930 . S
H452 C486 0.932 . S
H453 C488 0.931 . S
H454 C489 0.929 . S
H455 C491 0.929 . S
H456 C492 0.931 . S
H457 C494 0.929 1_455 S
N458 C478 1.433 . S
N458 C484 1.435 . S
N458 C490 1.423 . S
H459 C495 0.932 . S
C460 N435 1.433 . S
C460 C461 1.363 . S
C460 C465 1.370 . S
C461 H434 0.929 . S
C461 C460 1.363 . S
C461 C462 1.385 . S
C462 H436 0.930 . S
C462 C461 1.385 . S
C462 C463 1.357 . S
C463 C462 1.357 . S
C463 C464 1.406 . S
C464 H438 0.929 . S
C464 C463 1.406 . S
C464 C465 1.391 . S
C465 H437 0.931 . S
C465 C460 1.370 . S
C465 C464 1.391 . S
C466 N435 1.435 . S
C466 C467 1.358 . S
C466 C471 1.371 . S
C467 H439 0.930 . S
C467 C466 1.358 . S
C467 C468 1.405 . S
C468 H440 0.932 . S
C468 C467 1.405 . S
C468 C469 1.383 . S
C469 C468 1.383 . S
C469 C470 1.393 . S
C470 H442 0.931 . S
C470 C469 1.393 . S
C470 C471 1.382 . S
C471 H441 0.929 . S
C471 C466 1.371 . S
C471 C470 1.382 . S
C472 N435 1.423 . S
C472 C473 1.362 . S
C472 C477 1.388 . S
C473 H443 0.929 . S
C473 C472 1.362 . S
C473 C474 1.376 . S
C474 H445 0.931 1_455 S
C474 C473 1.376 . S
C474 C475 1.396 1_565 S
C475 C474 1.396 1_545 S
C475 C476 1.348 . S
C475 C493 1.472 1_455 S
C476 H446 0.929 . S
C476 C475 1.348 . S
C476 C477 1.443 1_545 S
C477 H444 0.932 . S
C477 C472 1.388 . S
C477 C476 1.443 1_565 S
C478 N458 1.433 . S
C478 C479 1.363 . S
C478 C483 1.370 . S
C479 H447 0.929 . S
C479 C478 1.363 . S
C479 C480 1.385 . S
C480 H448 0.930 . S
C480 C479 1.385 . S
C480 C481 1.357 . S
C481 C480 1.357 . S
C481 C482 1.406 . S
C482 H449 0.929 . S
C482 C481 1.406 . S
C482 C483 1.391 . S
C483 H450 0.931 . S
C483 C478 1.370 . S
C483 C482 1.391 . S
C484 N458 1.435 . S
C484 C485 1.358 . S
C484 C489 1.371 . S
C485 H451 0.930 . S
C485 C484 1.358 . S
C485 C486 1.405 . S
C486 H452 0.932 . S
C486 C485 1.405 . S
C486 C487 1.383 . S
C487 C486 1.383 . S
C487 C488 1.393 . S
C488 H453 0.931 . S
C488 C487 1.393 . S
C488 C489 1.382 . S
C489 H454 0.929 . S
C489 C484 1.371 . S
C489 C488 1.382 . S
C490 N458 1.423 . S
C490 C491 1.362 . S
C490 C495 1.388 . S
C491 H455 0.929 . S
C491 C490 1.362 . S
C491 C492 1.376 . S
C492 H456 0.931 . S
C492 C491 1.376 . S
C492 C493 1.396 . S
C493 C475 1.472 1_655 S
C493 C492 1.396 . S
C493 C494 1.348 . S
C494 H457 0.929 1_655 S
C494 C493 1.348 . S
C494 C495 1.443 . S
C495 H459 0.932 . S
C495 C490 1.388 . S
C495 C494 1.443 . S
C496 O497 1.306 . S
C496 O499 1.160 . S
O497 C496 1.306 . S
O497 Cd498 2.228 . S
Cd498 O497 2.228 . S
Cd498 O502 2.273 1_554 S
Cd498 O506 2.277 . S
O499 C496 1.160 . S
O499 Cd500 2.203 . S
Cd500 O499 2.203 . S
Cd500 O502 2.411 1_554 S
Cd500 O503 2.333 1_554 S
Cd500 O504 2.352 . S
Cd500 O508 2.277 . S
Cd500 O509 2.356 . S
C501 O506 1.209 . S
C501 O508 1.226 . S
O502 Cd498 2.273 1_556 S
O502 Cd500 2.411 1_556 S
O502 C505 1.320 . S
O503 Cd500 2.333 1_556 S
O503 C505 1.214 . S
O504 Cd500 2.352 . S
O504 C507 1.258 . S
C505 O502 1.320 . S
C505 O503 1.214 . S
O506 Cd498 2.277 . S
O506 C501 1.209 . S
C507 O504 1.258 . S
C507 O509 1.282 . S
O508 Cd500 2.277 . S
O508 C501 1.226 . S
O509 Cd500 2.356 . S
O509 C507 1.282 . S
C510 O511 1.306 . S
C510 O513 1.160 . S
O511 C510 1.306 . S
O511 Cd512 2.228 . S
Cd512 O511 2.228 . S
Cd512 O516 2.273 . S
Cd512 O520 2.277 . S
O513 C510 1.160 . S
O513 Cd514 2.203 . S
Cd514 O513 2.203 . S
Cd514 O516 2.411 . S
Cd514 O517 2.333 . S
Cd514 O518 2.352 . S
Cd514 O522 2.277 . S
Cd514 O523 2.356 . S
C515 O520 1.209 . S
C515 O522 1.226 . S
O516 Cd512 2.273 . S
O516 Cd514 2.411 . S
O516 C519 1.320 . S
O517 Cd514 2.333 . S
O517 C519 1.214 . S
O518 Cd514 2.352 . S
O518 C521 1.258 . S
C519 O516 1.320 . S
C519 O517 1.214 . S
O520 Cd512 2.277 . S
O520 C515 1.209 . S
C521 O518 1.258 . S
C521 O523 1.282 . S
O522 Cd514 2.277 . S
O522 C515 1.226 . S
O523 Cd514 2.356 . S
O523 C521 1.282 . S
C524 O525 1.306 . S
C524 O527 1.160 . S
O525 C524 1.306 . S
O525 Cd526 2.228 . S
Cd526 O525 2.228 . S
Cd526 O530 2.273 . S
Cd526 O534 2.277 . S
O527 C524 1.160 . S
O527 Cd528 2.203 . S
Cd528 O527 2.203 . S
Cd528 O530 2.411 . S
Cd528 O531 2.333 . S
Cd528 O532 2.352 . S
Cd528 O536 2.277 . S
Cd528 O537 2.356 . S
C529 O534 1.209 . S
C529 O536 1.226 . S
O530 Cd526 2.273 . S
O530 Cd528 2.411 . S
O530 C533 1.320 . S
O531 Cd528 2.333 . S
O531 C533 1.214 . S
O532 Cd528 2.352 . S
O532 C535 1.258 . S
C533 O530 1.320 . S
C533 O531 1.214 . S
O534 Cd526 2.277 . S
O534 C529 1.209 . S
C535 O532 1.258 . S
C535 O537 1.282 . S
O536 Cd528 2.277 . S
O536 C529 1.226 . S
O537 Cd528 2.356 . S
O537 C535 1.282 . S
C538 O539 1.306 . S
C538 O541 1.160 . S
O539 C538 1.306 . S
O539 Cd540 2.228 . S
Cd540 O539 2.228 . S
Cd540 O544 2.273 . S
Cd540 O548 2.277 . S
O541 C538 1.160 . S
O541 Cd542 2.203 . S
Cd542 O541 2.203 . S
Cd542 O544 2.411 . S
Cd542 O545 2.333 . S
Cd542 O546 2.352 . S
Cd542 O550 2.277 . S
Cd542 O551 2.356 . S
C543 O548 1.209 . S
C543 O550 1.226 . S
O544 Cd540 2.273 . S
O544 Cd542 2.411 . S
O544 C547 1.320 . S
O545 Cd542 2.333 . S
O545 C547 1.214 . S
O546 Cd542 2.352 . S
O546 C549 1.258 . S
C547 O544 1.320 . S
C547 O545 1.214 . S
O548 Cd540 2.277 . S
O548 C543 1.209 . S
C549 O546 1.258 . S
C549 O551 1.282 . S
O550 Cd542 2.277 . S
O550 C543 1.226 . S
O551 Cd542 2.356 . S
O551 C549 1.282 . S
C552 O553 1.306 . S
C552 O555 1.160 . S
O553 C552 1.306 . S
O553 Cd554 2.228 . S
Cd554 O553 2.228 . S
Cd554 O558 2.273 . S
Cd554 O562 2.277 . S
O555 C552 1.160 . S
O555 Cd556 2.203 . S
Cd556 O555 2.203 . S
Cd556 O558 2.411 . S
Cd556 O559 2.333 . S
Cd556 O560 2.352 . S
Cd556 O564 2.277 . S
Cd556 O565 2.356 . S
C557 O562 1.209 . S
C557 O564 1.226 . S
O558 Cd554 2.273 . S
O558 Cd556 2.411 . S
O558 C561 1.320 . S
O559 Cd556 2.333 . S
O559 C561 1.214 . S
O560 Cd556 2.352 . S
O560 C563 1.258 . S
C561 O558 1.320 . S
C561 O559 1.214 . S
O562 Cd554 2.277 . S
O562 C557 1.209 . S
C563 O560 1.258 . S
C563 O565 1.282 . S
O564 Cd556 2.277 . S
O564 C557 1.226 . S
O565 Cd556 2.356 . S
O565 C563 1.282 . S
C566 O567 1.306 . S
C566 O569 1.160 . S
O567 C566 1.306 . S
O567 Cd568 2.228 . S
Cd568 O567 2.228 . S
Cd568 O572 2.273 . S
Cd568 O576 2.277 . S
O569 C566 1.160 . S
O569 Cd570 2.203 . S
Cd570 O569 2.203 . S
Cd570 O572 2.411 . S
Cd570 O573 2.333 . S
Cd570 O574 2.352 . S
Cd570 O578 2.277 . S
Cd570 O579 2.356 . S
C571 O576 1.209 . S
C571 O578 1.226 . S
O572 Cd568 2.273 . S
O572 Cd570 2.411 . S
O572 C575 1.320 . S
O573 Cd570 2.333 . S
O573 C575 1.214 . S
O574 Cd570 2.352 . S
O574 C577 1.258 . S
C575 O572 1.320 . S
C575 O573 1.214 . S
O576 Cd568 2.277 . S
O576 C571 1.209 . S
C577 O574 1.258 . S
C577 O579 1.282 . S
O578 Cd570 2.277 . S
O578 C571 1.226 . S
O579 Cd570 2.356 . S
O579 C577 1.282 . S
C580 O581 1.306 . S
C580 O583 1.160 . S
O581 C580 1.306 . S
O581 Cd582 2.228 1_556 S
Cd582 O581 2.228 1_554 S
Cd582 O586 2.273 . S
Cd582 O590 2.272 1_554 S
O583 C580 1.160 . S
O583 Cd584 2.203 1_556 S
Cd584 O583 2.203 1_554 S
Cd584 O586 2.411 . S
Cd584 O587 2.333 . S
Cd584 O588 2.352 . S
Cd584 O592 2.277 1_554 S
Cd584 O593 2.356 . S
C585 O590 1.219 . S
C585 O592 1.226 . S
O586 Cd582 2.273 . S
O586 Cd584 2.411 . S
O586 C589 1.320 . S
O587 Cd584 2.333 . S
O587 C589 1.214 . S
O588 Cd584 2.352 . S
O588 C591 1.258 . S
C589 O586 1.320 . S
C589 O587 1.214 . S
O590 Cd582 2.272 1_556 S
O590 C585 1.219 . S
C591 O588 1.258 . S
C591 O593 1.282 . S
O592 Cd584 2.277 1_556 S
O592 C585 1.226 . S
O593 Cd584 2.356 . S
O593 C591 1.282 . S
C594 O595 1.306 . S
C594 O597 1.160 . S
O595 C594 1.306 . S
O595 Cd596 2.228 . S
Cd596 O595 2.228 . S
Cd596 O600 2.273 . S
Cd596 O604 2.277 . S
O597 C594 1.160 . S
O597 Cd598 2.203 . S
Cd598 O597 2.203 . S
Cd598 O600 2.411 . S
Cd598 O601 2.333 . S
Cd598 O602 2.352 . S
Cd598 O606 2.277 . S
Cd598 O607 2.356 . S
C599 O604 1.209 . S
C599 O606 1.226 . S
O600 Cd596 2.273 . S
O600 Cd598 2.411 . S
O600 C603 1.320 . S
O601 Cd598 2.333 . S
O601 C603 1.214 . S
O602 Cd598 2.352 . S
O602 C605 1.258 . S
C603 O600 1.320 . S
C603 O601 1.214 . S
O604 Cd596 2.277 . S
O604 C599 1.209 . S
C605 O602 1.258 . S
C605 O607 1.282 . S
O606 Cd598 2.277 . S
O606 C599 1.226 . S
O607 Cd598 2.356 . S
O607 C605 1.282 . S
H608 C616 0.929 . S
H609 C618 0.930 . S
H610 C620 0.930 . S
H611 C623 0.929 . S
H612 C626 0.930 . S
H613 C628 0.960 . S
H614 C628 0.960 . S
H615 C628 0.960 . S
C616 H608 0.929 . S
C616 C617 1.377 . S
C616 C618 1.384 . S
C617 C616 1.377 . S
C617 C623 1.390 . S
C618 H609 0.930 . S
C618 C616 1.384 . S
C618 C619 1.372 . S
C619 C618 1.372 . S
C619 C620 1.400 . S
C619 C624 1.490 . S
C620 H610 0.930 . S
C620 C619 1.400 . S
C620 C623 1.386 . S
H621 C637 0.930 . S
H622 C638 0.931 . S
C623 H611 0.929 . S
C623 C617 1.390 . S
C623 C620 1.386 . S
C624 C619 1.490 . S
C624 C626 1.395 . S
C624 C627 1.403 . S
H625 C631 0.930 . S
C626 H612 0.930 . S
C626 C624 1.395 . S
C626 C629 1.403 . S
C627 C624 1.403 . S
C627 C628 1.524 . S
C627 C631 1.400 . S
C628 H613 0.960 . S
C628 H614 0.960 . S
C628 H615 0.960 . S
C628 C627 1.524 . S
C629 C626 1.403 . S
C629 C630 1.392 . S
C629 C633 1.495 . S
C630 C629 1.392 . S
C630 C631 1.385 . S
C630 C632 1.478 . S
C631 H625 0.930 . S
C631 C627 1.400 . S
C631 C630 1.385 . S
C632 C630 1.478 . S
C632 C634 1.381 . S
C632 C638 1.383 . S
C633 C629 1.495 . S
C633 H639 0.959 . S
C633 H640 0.961 . S
C633 H641 0.960 . S
C634 C632 1.381 . S
C634 C635 1.394 . S
C634 H642 0.930 . S
C635 C634 1.394 . S
C635 C636 1.383 . S
C635 H643 0.929 . S
C636 C635 1.383 . S
C636 C637 1.377 . S
C637 H621 0.930 . S
C637 C636 1.377 . S
C637 C638 1.379 . S
C638 H622 0.931 . S
C638 C632 1.383 . S
C638 C637 1.379 . S
H639 C633 0.959 . S
H640 C633 0.961 . S
H641 C633 0.960 . S
H642 C634 0.930 . S
H643 C635 0.929 . S
H644 C652 0.929 . S
H645 C654 0.930 . S
H646 C656 0.930 . S
H647 C659 0.929 . S
H648 C662 0.930 . S
H649 C664 0.960 . S
H650 C664 0.960 . S
H651 C664 0.960 . S
C652 H644 0.929 . S
C652 C653 1.377 . S
C652 C654 1.384 . S
C653 C652 1.377 . S
C653 C659 1.390 . S
C654 H645 0.930 . S
C654 C652 1.384 . S
C654 C655 1.372 . S
C655 C654 1.372 . S
C655 C656 1.400 . S
C655 C660 1.490 . S
C656 H646 0.930 . S
C656 C655 1.400 . S
C656 C659 1.386 . S
H657 C673 0.930 . S
H658 C674 0.931 . S
C659 H647 0.929 . S
C659 C653 1.390 . S
C659 C656 1.386 . S
C660 C655 1.490 . S
C660 C662 1.395 . S
C660 C663 1.403 . S
H661 C667 0.930 . S
C662 H648 0.930 . S
C662 C660 1.395 . S
C662 C665 1.403 . S
C663 C660 1.403 . S
C663 C664 1.524 . S
C663 C667 1.400 . S
C664 H649 0.960 . S
C664 H650 0.960 . S
C664 H651 0.960 . S
C664 C663 1.524 . S
C665 C662 1.403 . S
C665 C666 1.392 . S
C665 C669 1.495 . S
C666 C665 1.392 . S
C666 C667 1.385 . S
C666 C668 1.478 . S
C667 H661 0.930 . S
C667 C663 1.400 . S
C667 C666 1.385 . S
C668 C666 1.478 . S
C668 C670 1.381 . S
C668 C674 1.383 . S
C669 C665 1.495 . S
C669 H675 0.959 . S
C669 H676 0.961 . S
C669 H677 0.960 . S
C670 C668 1.381 . S
C670 C671 1.394 . S
C670 H678 0.930 . S
C671 C670 1.394 . S
C671 C672 1.383 . S
C671 H679 0.929 . S
C672 C671 1.383 . S
C672 C673 1.377 . S
C673 H657 0.930 . S
C673 C672 1.377 . S
C673 C674 1.379 . S
C674 H658 0.931 . S
C674 C668 1.383 . S
C674 C673 1.379 . S
H675 C669 0.959 . S
H676 C669 0.961 . S
H677 C669 0.960 . S
H678 C670 0.930 . S
H679 C671 0.929 . S
H680 C688 0.929 . S
H681 C690 0.930 . S
H682 C692 0.930 . S
H683 C695 0.929 . S
H684 C698 0.930 . S
H685 C700 0.960 . S
H686 C700 0.960 . S
H687 C700 0.960 . S
C688 H680 0.929 . S
C688 C689 1.377 . S
C688 C690 1.384 . S
C689 C688 1.377 . S
C689 C695 1.390 . S
C690 H681 0.930 . S
C690 C688 1.384 . S
C690 C691 1.372 . S
C691 C690 1.372 . S
C691 C692 1.400 . S
C691 C696 1.490 . S
C692 H682 0.930 . S
C692 C691 1.400 . S
C692 C695 1.386 . S
H693 C709 0.930 . S
H694 C710 0.931 . S
C695 H683 0.929 . S
C695 C689 1.390 . S
C695 C692 1.386 . S
C696 C691 1.490 . S
C696 C698 1.395 . S
C696 C699 1.403 . S
H697 C703 0.930 . S
C698 H684 0.930 . S
C698 C696 1.395 . S
C698 C701 1.403 . S
C699 C696 1.403 . S
C699 C700 1.524 . S
C699 C703 1.400 . S
C700 H685 0.960 . S
C700 H686 0.960 . S
C700 H687 0.960 . S
C700 C699 1.524 . S
C701 C698 1.403 . S
C701 C702 1.392 . S
C701 C705 1.495 . S
C702 C701 1.392 . S
C702 C703 1.385 . S
C702 C704 1.478 . S
C703 H697 0.930 . S
C703 C699 1.400 . S
C703 C702 1.385 . S
C704 C702 1.478 . S
C704 C706 1.381 . S
C704 C710 1.383 . S
C705 C701 1.495 . S
C705 H711 0.959 . S
C705 H712 0.961 . S
C705 H713 0.960 . S
C706 C704 1.381 . S
C706 C707 1.394 . S
C706 H714 0.930 . S
C707 C706 1.394 . S
C707 C708 1.383 . S
C707 H715 0.929 . S
C708 C707 1.383 . S
C708 C709 1.377 . S
C709 H693 0.930 . S
C709 C708 1.377 . S
C709 C710 1.379 . S
C710 H694 0.931 . S
C710 C704 1.383 . S
C710 C709 1.379 . S
H711 C705 0.959 . S
H712 C705 0.961 . S
H713 C705 0.960 . S
H714 C706 0.930 . S
H715 C707 0.929 . S
H716 C724 0.929 . S
H717 C726 0.930 . S
H718 C728 0.930 . S
H719 C731 0.929 . S
H720 C734 0.930 . S
H721 C736 0.960 . S
H722 C736 0.960 . S
H723 C736 0.960 . S
C724 H716 0.929 . S
C724 C725 1.377 . S
C724 C726 1.384 . S
C725 C724 1.377 . S
C725 C731 1.390 . S
C726 H717 0.930 . S
C726 C724 1.384 . S
C726 C727 1.372 . S
C727 C726 1.372 . S
C727 C728 1.400 . S
C727 C732 1.490 . S
C728 H718 0.930 . S
C728 C727 1.400 . S
C728 C731 1.386 . S
H729 C745 0.930 . S
H730 C746 0.931 . S
C731 H719 0.929 . S
C731 C725 1.390 . S
C731 C728 1.386 . S
C732 C727 1.490 . S
C732 C734 1.395 . S
C732 C735 1.403 . S
H733 C739 0.930 . S
C734 H720 0.930 . S
C734 C732 1.395 . S
C734 C737 1.403 . S
C735 C732 1.403 . S
C735 C736 1.524 . S
C735 C739 1.400 . S
C736 H721 0.960 . S
C736 H722 0.960 . S
C736 H723 0.960 . S
C736 C735 1.524 . S
C737 C734 1.403 . S
C737 C738 1.392 . S
C737 C741 1.495 . S
C738 C737 1.392 . S
C738 C739 1.385 . S
C738 C740 1.478 . S
C739 H733 0.930 . S
C739 C735 1.400 . S
C739 C738 1.385 . S
C740 C738 1.478 . S
C740 C742 1.381 . S
C740 C746 1.383 . S
C741 C737 1.495 . S
C741 H747 0.959 . S
C741 H748 0.961 . S
C741 H749 0.960 . S
C742 C740 1.381 . S
C742 C743 1.394 . S
C742 H750 0.930 1_554 S
C743 C742 1.394 . S
C743 C744 1.383 . S
C743 H751 0.929 1_554 S
C744 C743 1.383 . S
C744 C745 1.377 . S
C745 H729 0.930 . S
C745 C744 1.377 . S
C745 C746 1.379 . S
C746 H730 0.931 . S
C746 C740 1.383 . S
C746 C745 1.379 . S
H747 C741 0.959 . S
H748 C741 0.961 . S
H749 C741 0.960 . S
H750 C742 0.930 1_556 S
H751 C743 0.929 1_556 S
H752 C760 0.929 . S
H753 C762 0.930 . S
H754 C764 0.957 . S
H755 C767 0.886 1_554 S
H756 C770 0.930 . S
H757 C772 0.960 . S
H758 C772 0.960 . S
H759 C772 0.960 . S
C760 H752 0.929 . S
C760 C761 1.377 . S
C760 C762 1.384 . S
C761 C760 1.377 . S
C761 C767 1.442 . S
C762 H753 0.930 . S
C762 C760 1.384 . S
C762 C763 1.372 . S
C763 C762 1.372 . S
C763 C764 1.377 1_556 S
C763 C768 1.490 . S
C764 H754 0.957 . S
C764 C763 1.377 1_554 S
C764 C767 1.381 1_554 S
H765 C781 0.930 . S
H766 C782 0.931 . S
C767 H755 0.886 1_556 S
C767 C761 1.442 . S
C767 C764 1.381 1_556 S
C768 C763 1.490 . S
C768 C770 1.395 . S
C768 C771 1.403 1_556 S
H769 C775 0.930 . S
C770 H756 0.930 . S
C770 C768 1.395 . S
C770 C773 1.403 . S
C771 C768 1.403 1_554 S
C771 C772 1.524 . S
C771 C775 1.400 . S
C772 H757 0.960 . S
C772 H758 0.960 . S
C772 H759 0.960 . S
C772 C771 1.524 . S
C773 C770 1.403 . S
C773 C774 1.392 . S
C773 C777 1.495 . S
C774 C773 1.392 . S
C774 C775 1.385 1_556 S
C774 C776 1.478 . S
C775 H769 0.930 . S
C775 C771 1.400 . S
C775 C774 1.385 1_554 S
C776 C774 1.478 . S
C776 C778 1.381 . S
C776 C782 1.383 1_556 S
C777 C773 1.495 . S
C777 H783 0.959 . S
C777 H784 0.961 . S
C777 H785 0.960 . S
C778 C776 1.381 . S
C778 C779 1.394 . S
C778 H786 0.930 . S
C779 C778 1.394 . S
C779 C780 1.369 1_556 S
C779 H787 0.929 . S
C780 C779 1.369 1_554 S
C780 C781 1.388 . S
C781 H765 0.930 . S
C781 C780 1.388 . S
C781 C782 1.379 . S
C782 H766 0.931 . S
C782 C776 1.383 1_554 S
C782 C781 1.379 . S
H783 C777 0.959 . S
H784 C777 0.961 . S
H785 C777 0.960 . S
H786 C778 0.930 . S
H787 C779 0.929 . S
H788 C796 0.929 . S
H789 C798 0.930 . S
H790 C800 0.930 . S
H791 C803 0.929 . S
H792 C806 0.930 . S
H793 C808 0.960 . S
H794 C808 0.960 . S
H795 C808 0.960 . S
C796 H788 0.929 . S
C796 C797 1.377 . S
C796 C798 1.384 . S
C797 C796 1.377 . S
C797 C803 1.390 . S
C798 H789 0.930 . S
C798 C796 1.384 . S
C798 C799 1.372 . S
C799 C798 1.372 . S
C799 C800 1.400 . S
C799 C804 1.490 . S
C800 H790 0.930 . S
C800 C799 1.400 . S
C800 C803 1.386 . S
H801 C817 0.930 . S
H802 C818 0.931 . S
C803 H791 0.929 . S
C803 C797 1.390 . S
C803 C800 1.386 . S
C804 C799 1.490 . S
C804 C806 1.395 . S
C804 C807 1.403 . S
H805 C811 0.930 . S
C806 H792 0.930 . S
C806 C804 1.395 . S
C806 C809 1.403 . S
C807 C804 1.403 . S
C807 C808 1.524 . S
C807 C811 1.400 . S
C808 H793 0.960 . S
C808 H794 0.960 . S
C808 H795 0.960 . S
C808 C807 1.524 . S
C809 C806 1.403 . S
C809 C810 1.392 . S
C809 C813 1.495 . S
C810 C809 1.392 . S
C810 C811 1.385 . S
C810 C812 1.478 . S
C811 H805 0.930 . S
C811 C807 1.400 . S
C811 C810 1.385 . S
C812 C810 1.478 . S
C812 C814 1.381 . S
C812 C818 1.383 . S
C813 C809 1.495 . S
C813 H819 0.959 . S
C813 H820 0.961 . S
C813 H821 0.960 . S
C814 C812 1.381 . S
C814 C815 1.394 . S
C814 H822 0.930 . S
C815 C814 1.394 . S
C815 C816 1.383 . S
C815 H823 0.929 . S
C816 C815 1.383 . S
C816 C817 1.377 . S
C817 H801 0.930 . S
C817 C816 1.377 . S
C817 C818 1.379 . S
C818 H802 0.931 . S
C818 C812 1.383 . S
C818 C817 1.379 . S
H819 C813 0.959 . S
H820 C813 0.961 . S
H821 C813 0.960 . S
H822 C814 0.930 . S
H823 C815 0.929 . S
H824 C832 0.929 . S
H825 C834 0.930 . S
H826 C836 0.930 . S
H827 C839 0.929 . S
H828 C842 0.930 . S
H829 C844 0.960 . S
H830 C844 0.960 . S
H831 C844 0.960 . S
C832 H824 0.929 . S
C832 C833 1.377 . S
C832 C834 1.384 . S
C833 C832 1.377 . S
C833 C839 1.390 . S
C834 H825 0.930 . S
C834 C832 1.384 . S
C834 C835 1.372 . S
C835 C834 1.372 . S
C835 C836 1.400 . S
C835 C840 1.490 . S
C836 H826 0.930 . S
C836 C835 1.400 . S
C836 C839 1.386 . S
H837 C853 0.930 . S
H838 C854 0.931 . S
C839 H827 0.929 . S
C839 C833 1.390 . S
C839 C836 1.386 . S
C840 C835 1.490 . S
C840 C842 1.395 . S
C840 C843 1.403 . S
H841 C847 0.930 . S
C842 H828 0.930 . S
C842 C840 1.395 . S
C842 C845 1.403 . S
C843 C840 1.403 . S
C843 C844 1.524 . S
C843 C847 1.400 . S
C844 H829 0.960 . S
C844 H830 0.960 . S
C844 H831 0.960 . S
C844 C843 1.524 . S
C845 C842 1.403 . S
C845 C846 1.392 . S
C845 C849 1.495 . S
C846 C845 1.392 . S
C846 C847 1.385 . S
C846 C848 1.478 . S
C847 H841 0.930 . S
C847 C843 1.400 . S
C847 C846 1.385 . S
C848 C846 1.478 . S
C848 C850 1.381 . S
C848 C854 1.383 . S
C849 C845 1.495 . S
C849 H855 0.959 . S
C849 H856 0.961 . S
C849 H857 0.960 . S
C850 C848 1.381 . S
C850 C851 1.394 . S
C850 H858 0.930 . S
C851 C850 1.394 . S
C851 C852 1.383 . S
C851 H859 0.929 . S
C852 C851 1.383 . S
C852 C853 1.377 . S
C853 H837 0.930 . S
C853 C852 1.377 . S
C853 C854 1.379 . S
C854 H838 0.931 . S
C854 C848 1.383 . S
C854 C853 1.379 . S
H855 C849 0.959 . S
H856 C849 0.961 . S
H857 C849 0.960 . S
H858 C850 0.930 . S
H859 C851 0.929 . S
H860 C868 0.929 . S
H861 C870 0.930 . S
H862 C872 0.930 . S
H863 C875 0.929 . S
H864 C878 0.930 . S
H865 C880 0.960 . S
H866 C880 0.960 . S
H867 C880 0.960 . S
C868 H860 0.929 . S
C868 C869 1.377 . S
C868 C870 1.384 . S
C869 C868 1.377 . S
C869 C875 1.390 . S
C870 H861 0.930 . S
C870 C868 1.384 . S
C870 C871 1.372 . S
C871 C870 1.372 . S
C871 C872 1.400 . S
C871 C876 1.490 . S
C872 H862 0.930 . S
C872 C871 1.400 . S
C872 C875 1.386 . S
H873 C889 0.930 . S
H874 C890 0.931 . S
C875 H863 0.929 . S
C875 C869 1.390 . S
C875 C872 1.386 . S
C876 C871 1.490 . S
C876 C878 1.395 . S
C876 C879 1.403 . S
H877 C883 0.930 . S
C878 H864 0.930 . S
C878 C876 1.395 . S
C878 C881 1.403 . S
C879 C876 1.403 . S
C879 C880 1.524 . S
C879 C883 1.400 . S
C880 H865 0.960 . S
C880 H866 0.960 . S
C880 H867 0.960 . S
C880 C879 1.524 . S
C881 C878 1.403 . S
C881 C882 1.392 . S
C881 C885 1.495 . S
C882 C881 1.392 . S
C882 C883 1.385 . S
C882 C884 1.478 . S
C883 H877 0.930 . S
C883 C879 1.400 . S
C883 C882 1.385 . S
C884 C882 1.478 . S
C884 C886 1.381 . S
C884 C890 1.383 . S
C885 C881 1.495 . S
C885 H891 0.959 . S
C885 H892 0.961 . S
C885 H893 0.960 . S
C886 C884 1.381 . S
C886 C887 1.394 . S
C886 H894 0.930 . S
C887 C886 1.394 . S
C887 C888 1.383 . S
C887 H895 0.929 . S
C888 C887 1.383 . S
C888 C889 1.377 . S
C889 H873 0.930 . S
C889 C888 1.377 . S
C889 C890 1.379 . S
C890 H874 0.931 . S
C890 C884 1.383 . S
C890 C889 1.379 . S
H891 C885 0.959 . S
H892 C885 0.961 . S
H893 C885 0.960 . S
H894 C886 0.930 . S
H895 C887 0.929 . S
H896 C904 0.929 . S
H897 C906 0.930 . S
H898 C908 0.930 . S
H899 C911 0.929 . S
H900 C914 0.930 . S
H901 C916 0.960 . S
H902 C916 0.960 . S
H903 C916 0.960 . S
C904 H896 0.929 . S
C904 C905 1.377 . S
C904 C906 1.384 . S
C905 C904 1.377 . S
C905 C911 1.390 . S
C906 H897 0.930 . S
C906 C904 1.384 . S
C906 C907 1.372 . S
C907 C906 1.372 . S
C907 C908 1.400 . S
C907 C912 1.490 . S
C908 H898 0.930 . S
C908 C907 1.400 . S
C908 C911 1.386 . S
H909 C925 0.930 . S
H910 C926 0.931 . S
C911 H899 0.929 . S
C911 C905 1.390 . S
C911 C908 1.386 . S
C912 C907 1.490 . S
C912 C914 1.395 . S
C912 C915 1.403 . S
H913 C919 0.930 . S
C914 H900 0.930 . S
C914 C912 1.395 . S
C914 C917 1.403 . S
C915 C912 1.403 . S
C915 C916 1.524 . S
C915 C919 1.400 . S
C916 H901 0.960 . S
C916 H902 0.960 . S
C916 H903 0.960 . S
C916 C915 1.524 . S
C917 C914 1.403 . S
C917 C918 1.392 . S
C917 C921 1.495 . S
C918 C917 1.392 . S
C918 C919 1.385 . S
C918 C920 1.478 . S
C919 H913 0.930 . S
C919 C915 1.400 . S
C919 C918 1.385 . S
C920 C918 1.478 . S
C920 C922 1.381 . S
C920 C926 1.383 . S
C921 C917 1.495 . S
C921 H927 0.959 . S
C921 H928 0.961 . S
C921 H929 0.960 . S
C922 C920 1.381 . S
C922 C923 1.394 . S
C922 H930 0.930 . S
C923 C922 1.394 . S
C923 C924 1.383 . S
C923 H931 0.929 . S
C924 C923 1.383 . S
C924 C925 1.377 . S
C925 H909 0.930 . S
C925 C924 1.377 . S
C925 C926 1.379 . S
C926 H910 0.931 . S
C926 C920 1.383 . S
C926 C925 1.379 . S
H927 C921 0.959 . S
H928 C921 0.961 . S
H929 C921 0.960 . S
H930 C922 0.930 . S
H931 C923 0.929 . S
H932 C940 0.929 . S
H933 C942 0.930 . S
H934 C944 0.930 1_556 S
H935 C947 0.883 1_556 S
H936 C950 0.930 . S
H937 C952 0.960 . S
H938 C952 0.960 . S
H939 C952 0.960 . S
C940 H932 0.929 . S
C940 C941 1.377 . S
C940 C942 1.384 . S
C941 C940 1.377 . S
C941 C947 1.390 . S
C942 H933 0.930 . S
C942 C940 1.384 . S
C942 C943 1.372 . S
C943 C942 1.372 . S
C943 C944 1.400 . S
C943 C948 1.490 . S
C944 H934 0.930 1_554 S
C944 C943 1.400 . S
C944 C947 1.386 . S
H945 C961 0.930 . S
H946 C962 0.931 . S
C947 H935 0.883 1_554 S
C947 C941 1.390 . S
C947 C944 1.386 . S
C948 C943 1.490 . S
C948 C950 1.395 . S
C948 C951 1.403 . S
H949 C955 0.930 . S
C950 H936 0.930 . S
C950 C948 1.395 . S
C950 C953 1.403 . S
C951 C948 1.403 . S
C951 C952 1.524 . S
C951 C955 1.400 . S
C952 H937 0.960 . S
C952 H938 0.960 . S
C952 H939 0.960 . S
C952 C951 1.524 . S
C953 C950 1.403 . S
C953 C954 1.392 . S
C953 C957 1.495 . S
C954 C953 1.392 . S
C954 C955 1.385 . S
C954 C956 1.478 . S
C955 H949 0.930 . S
C955 C951 1.400 . S
C955 C954 1.385 . S
C956 C954 1.478 . S
C956 C958 1.381 . S
C956 C962 1.383 1_554 S
C957 C953 1.495 . S
C957 H963 0.959 . S
C957 H964 0.961 . S
C957 H965 0.960 . S
C958 C956 1.381 . S
C958 C959 1.394 . S
C958 H966 0.930 . S
C959 C958 1.394 . S
C959 C960 1.383 . S
C959 H967 0.929 . S
C960 C959 1.383 . S
C960 C961 1.377 1_554 S
C961 H945 0.930 . S
C961 C960 1.377 1_556 S
C961 C962 1.379 . S
C962 H946 0.931 . S
C962 C956 1.383 1_556 S
C962 C961 1.379 . S
H963 C957 0.959 . S
H964 C957 0.961 . S
H965 C957 0.960 . S
H966 C958 0.930 . S
H967 C959 0.929 . S
H968 C976 0.929 . S
H969 C978 0.930 . S
H970 C980 0.930 . S
H971 C983 0.929 . S
H972 C986 0.930 . S
H973 C988 0.960 . S
H974 C988 0.960 . S
H975 C988 0.960 . S
C976 H968 0.929 . S
C976 C977 1.377 . S
C976 C978 1.384 . S
C977 C976 1.377 . S
C977 C983 1.390 . S
C978 H969 0.930 . S
C978 C976 1.384 . S
C978 C979 1.372 . S
C979 C978 1.372 . S
C979 C980 1.400 . S
C979 C984 1.490 . S
C980 H970 0.930 . S
C980 C979 1.400 . S
C980 C983 1.386 . S
H981 C997 0.930 . S
H982 C998 0.931 . S
C983 H971 0.929 . S
C983 C977 1.390 . S
C983 C980 1.386 . S
C984 C979 1.490 . S
C984 C986 1.395 . S
C984 C987 1.403 . S
H985 C991 0.930 . S
C986 H972 0.930 . S
C986 C984 1.395 . S
C986 C989 1.403 . S
C987 C984 1.403 . S
C987 C988 1.524 . S
C987 C991 1.400 . S
C988 H973 0.960 . S
C988 H974 0.960 . S
C988 H975 0.960 . S
C988 C987 1.524 . S
C989 C986 1.403 . S
C989 C990 1.392 . S
C989 C993 1.495 . S
C990 C989 1.392 . S
C990 C991 1.385 . S
C990 C992 1.478 . S
C991 H985 0.930 . S
C991 C987 1.400 . S
C991 C990 1.385 . S
C992 C990 1.478 . S
C992 C994 1.381 . S
C992 C998 1.383 . S
C993 C989 1.495 . S
C993 H999 0.959 . S
C993 H1000 0.961 . S
C993 H1001 0.960 . S
C994 C992 1.381 . S
C994 C995 1.394 . S
C994 H1002 0.930 . S
C995 C994 1.394 . S
C995 C996 1.383 . S
C995 H1003 0.929 . S
C996 C995 1.383 . S
C996 C997 1.377 . S
C997 H981 0.930 . S
C997 C996 1.377 . S
C997 C998 1.379 . S
C998 H982 0.931 . S
C998 C992 1.383 . S
C998 C997 1.379 . S
H999 C993 0.959 . S
H1000 C993 0.961 . S
H1001 C993 0.960 . S
H1002 C994 0.930 . S
H1003 C995 0.929 . S
H1004 C1012 0.929 . S
H1005 C1014 0.930 . S
H1006 C1016 0.930 . S
H1007 C1019 0.929 . S
H1008 C1022 0.930 . S
H1009 C1024 0.960 . S
H1010 C1024 0.960 . S
H1011 C1024 0.960 . S
C1012 H1004 0.929 . S
C1012 C1013 1.377 . S
C1012 C1014 1.384 . S
C1013 C1012 1.377 . S
C1013 C1019 1.390 . S
C1014 H1005 0.930 . S
C1014 C1012 1.384 . S
C1014 C1015 1.372 . S
C1015 C1014 1.372 . S
C1015 C1016 1.400 . S
C1015 C1020 1.490 . S
C1016 H1006 0.930 . S
C1016 C1015 1.400 . S
C1016 C1019 1.386 . S
H1017 C1033 0.930 . S
H1018 C1034 0.931 . S
C1019 H1007 0.929 . S
C1019 C1013 1.390 . S
C1019 C1016 1.386 . S
C1020 C1015 1.490 . S
C1020 C1022 1.395 . S
C1020 C1023 1.403 . S
H1021 C1027 0.930 . S
C1022 H1008 0.930 . S
C1022 C1020 1.395 . S
C1022 C1025 1.403 . S
C1023 C1020 1.403 . S
C1023 C1024 1.524 . S
C1023 C1027 1.400 . S
C1024 H1009 0.960 . S
C1024 H1010 0.960 . S
C1024 H1011 0.960 . S
C1024 C1023 1.524 . S
C1025 C1022 1.403 . S
C1025 C1026 1.392 . S
C1025 C1029 1.495 . S
C1026 C1025 1.392 . S
C1026 C1027 1.385 . S
C1026 C1028 1.478 . S
C1027 H1021 0.930 . S
C1027 C1023 1.400 . S
C1027 C1026 1.385 . S
C1028 C1026 1.478 . S
C1028 C1030 1.381 . S
C1028 C1034 1.383 . S
C1029 C1025 1.495 . S
C1029 H1035 0.959 . S
C1029 H1036 0.961 . S
C1029 H1037 0.960 . S
C1030 C1028 1.381 . S
C1030 C1031 1.394 . S
C1030 H1038 0.930 . S
C1031 C1030 1.394 . S
C1031 C1032 1.383 . S
C1031 H1039 0.929 . S
C1032 C1031 1.383 . S
C1032 C1033 1.377 . S
C1033 H1017 0.930 . S
C1033 C1032 1.377 . S
C1033 C1034 1.379 . S
C1034 H1018 0.931 . S
C1034 C1028 1.383 . S
C1034 C1033 1.379 . S
H1035 C1029 0.959 . S
H1036 C1029 0.961 . S
H1037 C1029 0.960 . S
H1038 C1030 0.930 . S
H1039 C1031 0.929 . S
H1040 C1048 0.929 . S
H1041 C1050 0.930 . S
H1042 C1052 0.930 . S
H1043 C1055 0.929 . S
H1044 C1058 0.930 . S
H1045 C1060 0.960 . S
H1046 C1060 0.960 . S
H1047 C1060 0.960 . S
C1048 H1040 0.929 . S
C1048 C1049 1.377 . S
C1048 C1050 1.384 . S
C1049 C1048 1.377 . S
C1049 C1055 1.390 . S
C1050 H1041 0.930 . S
C1050 C1048 1.384 . S
C1050 C1051 1.372 . S
C1051 C1050 1.372 . S
C1051 C1052 1.400 . S
C1051 C1056 1.490 . S
C1052 H1042 0.930 . S
C1052 C1051 1.400 . S
C1052 C1055 1.386 . S
H1053 C1069 0.930 . S
H1054 C1070 0.931 . S
C1055 H1043 0.929 . S
C1055 C1049 1.390 . S
C1055 C1052 1.386 . S
C1056 C1051 1.490 . S
C1056 C1058 1.395 . S
C1056 C1059 1.403 . S
H1057 C1063 0.930 . S
C1058 H1044 0.930 . S
C1058 C1056 1.395 . S
C1058 C1061 1.403 . S
C1059 C1056 1.403 . S
C1059 C1060 1.524 . S
C1059 C1063 1.400 . S
C1060 H1045 0.960 . S
C1060 H1046 0.960 . S
C1060 H1047 0.960 . S
C1060 C1059 1.524 . S
C1061 C1058 1.403 . S
C1061 C1062 1.392 . S
C1061 C1065 1.495 . S
C1062 C1061 1.392 . S
C1062 C1063 1.385 . S
C1062 C1064 1.478 . S
C1063 H1057 0.930 . S
C1063 C1059 1.400 . S
C1063 C1062 1.385 . S
C1064 C1062 1.478 . S
C1064 C1066 1.381 . S
C1064 C1070 1.383 . S
C1065 C1061 1.495 . S
C1065 H1071 0.959 . S
C1065 H1072 0.961 . S
C1065 H1073 0.960 . S
C1066 C1064 1.381 . S
C1066 C1067 1.394 . S
C1066 H1074 0.930 . S
C1067 C1066 1.394 . S
C1067 C1068 1.383 . S
C1067 H1075 0.929 . S
C1068 C1067 1.383 . S
C1068 C1069 1.377 . S
C1069 H1053 0.930 . S
C1069 C1068 1.377 . S
C1069 C1070 1.379 . S
C1070 H1054 0.931 . S
C1070 C1064 1.383 . S
C1070 C1069 1.379 . S
H1071 C1065 0.959 . S
H1072 C1065 0.961 . S
H1073 C1065 0.960 . S
H1074 C1066 0.930 . S
H1075 C1067 0.929 . S
H1076 C1084 0.929 . S
H1077 C1086 0.930 . S
H1078 C1088 0.930 . S
H1079 C1091 0.929 . S
H1080 C1094 0.930 . S
H1081 C1096 0.960 . S
H1082 C1096 0.960 . S
H1083 C1096 0.960 . S
C1084 H1076 0.929 . S
C1084 C1085 1.377 . S
C1084 C1086 1.384 . S
C1085 C1084 1.377 . S
C1085 C1091 1.390 . S
C1086 H1077 0.930 . S
C1086 C1084 1.384 . S
C1086 C1087 1.372 . S
C1087 C1086 1.372 . S
C1087 C1088 1.400 . S
C1087 C1092 1.490 . S
C1088 H1078 0.930 . S
C1088 C1087 1.400 . S
C1088 C1091 1.386 . S
H1089 C1105 0.930 . S
H1090 C1106 0.931 . S
C1091 H1079 0.929 . S
C1091 C1085 1.390 . S
C1091 C1088 1.386 . S
C1092 C1087 1.490 . S
C1092 C1094 1.395 . S
C1092 C1095 1.403 . S
H1093 C1099 0.930 . S
C1094 H1080 0.930 . S
C1094 C1092 1.395 . S
C1094 C1097 1.403 . S
C1095 C1092 1.403 . S
C1095 C1096 1.524 . S
C1095 C1099 1.400 . S
C1096 H1081 0.960 . S
C1096 H1082 0.960 . S
C1096 H1083 0.960 . S
C1096 C1095 1.524 . S
C1097 C1094 1.403 . S
C1097 C1098 1.392 . S
C1097 C1101 1.495 . S
C1098 C1097 1.392 . S
C1098 C1099 1.385 . S
C1098 C1100 1.478 . S
C1099 H1093 0.930 . S
C1099 C1095 1.400 . S
C1099 C1098 1.385 . S
C1100 C1098 1.478 . S
C1100 C1102 1.381 . S
C1100 C1106 1.383 . S
C1101 C1097 1.495 . S
C1101 H1107 0.959 . S
C1101 H1108 0.961 . S
C1101 H1109 0.960 . S
C1102 C1100 1.381 . S
C1102 C1103 1.394 . S
C1102 H1110 0.930 . S
C1103 C1102 1.394 . S
C1103 C1104 1.383 . S
C1103 H1111 0.929 . S
C1104 C1103 1.383 . S
C1104 C1105 1.377 . S
C1105 H1089 0.930 . S
C1105 C1104 1.377 . S
C1105 C1106 1.379 . S
C1106 H1090 0.931 . S
C1106 C1100 1.383 . S
C1106 C1105 1.379 . S
H1107 C1101 0.959 . S
H1108 C1101 0.961 . S
H1109 C1101 0.960 . S
H1110 C1102 0.930 . S
H1111 C1103 0.929 . S
H1112 C1120 0.929 . S
H1113 C1122 0.930 . S
H1114 C1124 0.930 . S
H1115 C1127 0.929 . S
H1116 C1130 0.927 . S
H1117 C1132 0.960 . S
H1118 C1132 0.960 . S
H1119 C1132 0.960 . S
C1120 H1112 0.929 . S
C1120 C1121 1.377 . S
C1120 C1122 1.384 . S
C1121 C1120 1.377 . S
C1121 C1127 1.390 . S
C1122 H1113 0.930 . S
C1122 C1120 1.384 . S
C1122 C1123 1.372 . S
C1123 C1122 1.372 . S
C1123 C1124 1.400 . S
C1123 C1128 1.490 . S
C1124 H1114 0.930 . S
C1124 C1123 1.400 . S
C1124 C1127 1.386 . S
H1125 C1141 0.930 . S
H1126 C1142 0.931 . S
C1127 H1115 0.929 . S
C1127 C1121 1.390 . S
C1127 C1124 1.386 . S
C1128 C1123 1.490 . S
C1128 C1130 1.395 . S
C1128 C1131 1.403 . S
H1129 C1135 0.930 . S
C1130 H1116 0.927 . S
C1130 C1128 1.395 . S
C1130 C1133 1.403 . S
C1131 C1128 1.403 . S
C1131 C1132 1.524 . S
C1131 C1135 1.400 . S
C1132 H1117 0.960 . S
C1132 H1118 0.960 . S
C1132 H1119 0.960 . S
C1132 C1131 1.524 . S
C1133 C1130 1.403 . S
C1133 C1134 1.392 . S
C1133 C1137 1.495 1_556 S
C1134 C1133 1.392 . S
C1134 C1135 1.385 . S
C1134 C1136 1.478 . S
C1135 H1129 0.930 . S
C1135 C1131 1.400 . S
C1135 C1134 1.385 . S
C1136 C1134 1.478 . S
C1136 C1138 1.381 . S
C1136 C1142 1.383 1_556 S
C1137 C1133 1.495 1_554 S
C1137 H1143 0.959 . S
C1137 H1144 0.961 . S
C1137 H1145 0.991 . S
C1138 C1136 1.381 . S
C1138 C1139 1.394 . S
C1138 H1146 0.930 . S
C1139 C1138 1.394 . S
C1139 C1140 1.383 . S
C1139 H1147 0.929 . S
C1140 C1139 1.383 . S
C1140 C1141 1.377 1_556 S
C1141 H1125 0.930 . S
C1141 C1140 1.377 1_554 S
C1141 C1142 1.379 . S
C1142 H1126 0.931 . S
C1142 C1136 1.383 1_554 S
C1142 C1141 1.379 . S
H1143 C1137 0.959 . S
H1144 C1137 0.961 . S
H1145 C1137 0.991 . S
H1146 C1138 0.930 . S
H1147 C1139 0.929 . S
H1148 C1156 0.929 . S
H1149 C1158 0.930 . S
H1150 C1160 0.930 . S
H1151 C1163 0.929 . S
H1152 C1166 0.930 . S
H1153 C1168 0.960 . S
H1154 C1168 0.960 . S
H1155 C1168 0.960 . S
C1156 H1148 0.929 . S
C1156 C1157 1.377 . S
C1156 C1158 1.384 . S
C1157 C1156 1.377 . S
C1157 C1163 1.390 . S
C1158 H1149 0.930 . S
C1158 C1156 1.384 . S
C1158 C1159 1.372 . S
C1159 C1158 1.372 . S
C1159 C1160 1.400 . S
C1159 C1164 1.490 . S
C1160 H1150 0.930 . S
C1160 C1159 1.400 . S
C1160 C1163 1.386 . S
H1161 C1177 0.930 . S
H1162 C1178 0.931 . S
C1163 H1151 0.929 . S
C1163 C1157 1.390 . S
C1163 C1160 1.386 . S
C1164 C1159 1.490 . S
C1164 C1166 1.395 . S
C1164 C1167 1.403 . S
H1165 C1171 0.930 . S
C1166 H1152 0.930 . S
C1166 C1164 1.395 . S
C1166 C1169 1.403 . S
C1167 C1164 1.403 . S
C1167 C1168 1.524 . S
C1167 C1171 1.400 . S
C1168 H1153 0.960 . S
C1168 H1154 0.960 . S
C1168 H1155 0.960 . S
C1168 C1167 1.524 . S
C1169 C1166 1.403 . S
C1169 C1170 1.392 . S
C1169 C1173 1.495 . S
C1170 C1169 1.392 . S
C1170 C1171 1.385 . S
C1170 C1172 1.478 . S
C1171 H1165 0.930 . S
C1171 C1167 1.400 . S
C1171 C1170 1.385 . S
C1172 C1170 1.478 . S
C1172 C1174 1.381 . S
C1172 C1178 1.383 . S
C1173 C1169 1.495 . S
C1173 H1179 0.959 . S
C1173 H1180 0.961 . S
C1173 H1181 0.960 . S
C1174 C1172 1.381 . S
C1174 C1175 1.394 . S
C1174 H1182 0.930 . S
C1175 C1174 1.394 . S
C1175 C1176 1.383 . S
C1175 H1183 0.929 . S
C1176 C1175 1.383 . S
C1176 C1177 1.377 . S
C1177 H1161 0.930 . S
C1177 C1176 1.377 . S
C1177 C1178 1.379 . S
C1178 H1162 0.931 . S
C1178 C1172 1.383 . S
C1178 C1177 1.379 . S
H1179 C1173 0.959 . S
H1180 C1173 0.961 . S
H1181 C1173 0.960 . S
H1182 C1174 0.930 . S
H1183 C1175 0.929 . S
H1184 C1192 0.929 . S
H1185 C1194 0.930 . S
H1186 C1196 0.930 . S
H1187 C1199 0.929 . S
H1188 C1202 0.930 . S
H1189 C1204 0.960 . S
H1190 C1204 0.960 . S
H1191 C1204 0.960 . S
C1192 H1184 0.929 . S
C1192 C1193 1.377 . S
C1192 C1194 1.384 . S
C1193 C1192 1.377 . S
C1193 C1199 1.390 . S
C1194 H1185 0.930 . S
C1194 C1192 1.384 . S
C1194 C1195 1.372 . S
C1195 C1194 1.372 . S
C1195 C1196 1.400 . S
C1195 C1200 1.490 . S
C1196 H1186 0.930 . S
C1196 C1195 1.400 . S
C1196 C1199 1.386 . S
H1197 C1213 0.930 . S
H1198 C1214 0.931 . S
C1199 H1187 0.929 . S
C1199 C1193 1.390 . S
C1199 C1196 1.386 . S
C1200 C1195 1.490 . S
C1200 C1202 1.395 . S
C1200 C1203 1.403 . S
H1201 C1207 0.930 . S
C1202 H1188 0.930 . S
C1202 C1200 1.395 . S
C1202 C1205 1.403 . S
C1203 C1200 1.403 . S
C1203 C1204 1.524 . S
C1203 C1207 1.400 . S
C1204 H1189 0.960 . S
C1204 H1190 0.960 . S
C1204 H1191 0.960 . S
C1204 C1203 1.524 . S
C1205 C1202 1.403 . S
C1205 C1206 1.392 . S
C1205 C1209 1.495 . S
C1206 C1205 1.392 . S
C1206 C1207 1.385 . S
C1206 C1208 1.478 . S
C1207 H1201 0.930 . S
C1207 C1203 1.400 . S
C1207 C1206 1.385 . S
C1208 C1206 1.478 . S
C1208 C1210 1.381 . S
C1208 C1214 1.383 . S
C1209 C1205 1.495 . S
C1209 H1215 0.959 . S
C1209 H1216 0.961 . S
C1209 H1217 0.960 . S
C1210 C1208 1.381 . S
C1210 C1211 1.394 . S
C1210 H1218 0.930 . S
C1211 C1210 1.394 . S
C1211 C1212 1.383 . S
C1211 H1219 0.929 . S
C1212 C1211 1.383 . S
C1212 C1213 1.377 . S
C1213 H1197 0.930 . S
C1213 C1212 1.377 . S
C1213 C1214 1.379 . S
C1214 H1198 0.931 . S
C1214 C1208 1.383 . S
C1214 C1213 1.379 . S
H1215 C1209 0.959 . S
H1216 C1209 0.961 . S
H1217 C1209 0.960 . S
H1218 C1210 0.930 . S
H1219 C1211 0.929 . S
H1220 C1228 0.929 . S
H1221 C1230 0.930 . S
H1222 C1232 0.930 . S
H1223 C1235 0.929 . S
H1224 C1238 0.930 . S
H1225 C1240 0.960 . S
H1226 C1240 0.960 . S
H1227 C1240 0.960 . S
C1228 H1220 0.929 . S
C1228 C1229 1.377 . S
C1228 C1230 1.384 . S
C1229 C1228 1.377 . S
C1229 C1235 1.390 . S
C1230 H1221 0.930 . S
C1230 C1228 1.384 . S
C1230 C1231 1.372 . S
C1231 C1230 1.372 . S
C1231 C1232 1.400 . S
C1231 C1236 1.490 . S
C1232 H1222 0.930 . S
C1232 C1231 1.400 . S
C1232 C1235 1.386 . S
H1233 C1249 0.930 . S
H1234 C1250 0.931 . S
C1235 H1223 0.929 . S
C1235 C1229 1.390 . S
C1235 C1232 1.386 . S
C1236 C1231 1.490 . S
C1236 C1238 1.395 . S
C1236 C1239 1.403 . S
H1237 C1243 0.930 . S
C1238 H1224 0.930 . S
C1238 C1236 1.395 . S
C1238 C1241 1.403 . S
C1239 C1236 1.403 . S
C1239 C1240 1.524 . S
C1239 C1243 1.400 . S
C1240 H1225 0.960 . S
C1240 H1226 0.960 . S
C1240 H1227 0.960 . S
C1240 C1239 1.524 . S
C1241 C1238 1.403 . S
C1241 C1242 1.392 . S
C1241 C1245 1.495 . S
C1242 C1241 1.392 . S
C1242 C1243 1.385 . S
C1242 C1244 1.478 . S
C1243 H1237 0.930 . S
C1243 C1239 1.400 . S
C1243 C1242 1.385 . S
C1244 C1242 1.478 . S
C1244 C1246 1.381 . S
C1244 C1250 1.383 . S
C1245 C1241 1.495 . S
C1245 H1251 0.959 . S
C1245 H1252 0.961 . S
C1245 H1253 0.960 . S
C1246 C1244 1.381 . S
C1246 C1247 1.394 . S
C1246 H1254 0.930 . S
C1247 C1246 1.394 . S
C1247 C1248 1.383 . S
C1247 H1255 0.929 . S
C1248 C1247 1.383 . S
C1248 C1249 1.377 . S
C1249 H1233 0.930 . S
C1249 C1248 1.377 . S
C1249 C1250 1.379 . S
C1250 H1234 0.931 . S
C1250 C1244 1.383 . S
C1250 C1249 1.379 . S
H1251 C1245 0.959 . S
H1252 C1245 0.961 . S
H1253 C1245 0.960 . S
H1254 C1246 0.930 . S
H1255 C1247 0.929 . S
H1256 C1264 0.929 . S
H1257 C1266 0.930 . S
H1258 C1268 0.930 . S
H1259 C1271 0.929 . S
H1260 C1274 0.930 . S
H1261 C1276 0.960 . S
H1262 C1276 0.960 . S
H1263 C1276 0.960 . S
C1264 H1256 0.929 . S
C1264 C1265 1.377 . S
C1264 C1266 1.384 . S
C1265 C1264 1.377 . S
C1265 C1271 1.390 . S
C1266 H1257 0.930 . S
C1266 C1264 1.384 . S
C1266 C1267 1.372 . S
C1267 C1266 1.372 . S
C1267 C1268 1.400 . S
C1267 C1272 1.490 . S
C1268 H1258 0.930 . S
C1268 C1267 1.400 . S
C1268 C1271 1.386 . S
H1269 C1285 0.930 . S
H1270 C1286 0.931 . S
C1271 H1259 0.929 . S
C1271 C1265 1.390 . S
C1271 C1268 1.386 . S
C1272 C1267 1.490 . S
C1272 C1274 1.395 . S
C1272 C1275 1.403 . S
H1273 C1279 0.930 . S
C1274 H1260 0.930 . S
C1274 C1272 1.395 . S
C1274 C1277 1.403 . S
C1275 C1272 1.403 . S
C1275 C1276 1.524 . S
C1275 C1279 1.400 . S
C1276 H1261 0.960 . S
C1276 H1262 0.960 . S
C1276 H1263 0.960 . S
C1276 C1275 1.524 . S
C1277 C1274 1.403 . S
C1277 C1278 1.392 . S
C1277 C1281 1.495 . S
C1278 C1277 1.392 . S
C1278 C1279 1.385 . S
C1278 C1280 1.478 . S
C1279 H1273 0.930 . S
C1279 C1275 1.400 . S
C1279 C1278 1.385 . S
C1280 C1278 1.478 . S
C1280 C1282 1.381 . S
C1280 C1286 1.383 . S
C1281 C1277 1.495 . S
C1281 H1287 0.959 . S
C1281 H1288 0.961 . S
C1281 H1289 0.960 . S
C1282 C1280 1.381 . S
C1282 C1283 1.394 . S
C1282 H1290 0.930 . S
C1283 C1282 1.394 . S
C1283 C1284 1.383 . S
C1283 H1291 0.929 . S
C1284 C1283 1.383 . S
C1284 C1285 1.377 . S
C1285 H1269 0.930 . S
C1285 C1284 1.377 . S
C1285 C1286 1.379 . S
C1286 H1270 0.931 . S
C1286 C1280 1.383 . S
C1286 C1285 1.379 . S
H1287 C1281 0.959 . S
H1288 C1281 0.961 . S
H1289 C1281 0.960 . S
H1290 C1282 0.930 . S
H1291 C1283 0.929 . S
H1292 C1300 0.929 . S
H1293 C1302 0.930 . S
H1294 C1304 0.930 . S
H1295 C1307 0.929 . S
H1296 C1310 0.930 . S
H1297 C1312 0.960 . S
H1298 C1312 0.960 . S
H1299 C1312 0.960 . S
C1300 H1292 0.929 . S
C1300 C1301 1.377 . S
C1300 C1302 1.384 . S
C1301 C1300 1.377 . S
C1301 C1307 1.390 . S
C1302 H1293 0.930 . S
C1302 C1300 1.384 . S
C1302 C1303 1.372 . S
C1303 C1302 1.372 . S
C1303 C1304 1.400 . S
C1303 C1308 1.490 . S
C1304 H1294 0.930 . S
C1304 C1303 1.400 . S
C1304 C1307 1.386 . S
H1305 C1321 0.930 . S
H1306 C1322 0.931 . S
C1307 H1295 0.929 . S
C1307 C1301 1.390 . S
C1307 C1304 1.386 . S
C1308 C1303 1.490 . S
C1308 C1310 1.395 . S
C1308 C1311 1.403 . S
H1309 C1315 0.930 . S
C1310 H1296 0.930 . S
C1310 C1308 1.395 . S
C1310 C1313 1.403 . S
C1311 C1308 1.403 . S
C1311 C1312 1.524 . S
C1311 C1315 1.400 . S
C1312 H1297 0.960 . S
C1312 H1298 0.960 . S
C1312 H1299 0.960 . S
C1312 C1311 1.524 . S
C1313 C1310 1.403 . S
C1313 C1314 1.392 . S
C1313 C1317 1.495 . S
C1314 C1313 1.392 . S
C1314 C1315 1.385 . S
C1314 C1316 1.478 . S
C1315 H1309 0.930 . S
C1315 C1311 1.400 . S
C1315 C1314 1.385 . S
C1316 C1314 1.478 . S
C1316 C1318 1.381 . S
C1316 C1322 1.383 . S
C1317 C1313 1.495 . S
C1317 H1323 0.959 . S
C1317 H1324 0.961 . S
C1317 H1325 0.960 . S
C1318 C1316 1.381 . S
C1318 C1319 1.394 . S
C1318 H1326 0.930 . S
C1319 C1318 1.394 . S
C1319 C1320 1.383 . S
C1319 H1327 0.929 . S
C1320 C1319 1.383 . S
C1320 C1321 1.377 . S
C1321 H1305 0.930 . S
C1321 C1320 1.377 . S
C1321 C1322 1.379 . S
C1322 H1306 0.931 . S
C1322 C1316 1.383 . S
C1322 C1321 1.379 . S
H1323 C1317 0.959 . S
H1324 C1317 0.961 . S
H1325 C1317 0.960 . S
H1326 C1318 0.930 . S
H1327 C1319 0.929 . S
H1328 C1336 0.929 . S
H1329 C1338 0.930 . S
H1330 C1340 0.930 . S
H1331 C1343 0.929 . S
H1332 C1346 0.930 . S
H1333 C1348 0.960 . S
H1334 C1348 0.960 . S
H1335 C1348 0.960 . S
C1336 H1328 0.929 . S
C1336 C1337 1.377 . S
C1336 C1338 1.384 . S
C1337 C1336 1.377 . S
C1337 C1343 1.390 . S
C1338 H1329 0.930 . S
C1338 C1336 1.384 . S
C1338 C1339 1.372 . S
C1339 C1338 1.372 . S
C1339 C1340 1.400 . S
C1339 C1344 1.490 . S
C1340 H1330 0.930 . S
C1340 C1339 1.400 . S
C1340 C1343 1.386 . S
H1341 C1357 0.930 . S
H1342 C1358 0.931 . S
C1343 H1331 0.929 . S
C1343 C1337 1.390 . S
C1343 C1340 1.386 . S
C1344 C1339 1.490 . S
C1344 C1346 1.395 . S
C1344 C1347 1.403 . S
H1345 C1351 0.930 . S
C1346 H1332 0.930 . S
C1346 C1344 1.395 . S
C1346 C1349 1.403 . S
C1347 C1344 1.403 . S
C1347 C1348 1.524 . S
C1347 C1351 1.400 . S
C1348 H1333 0.960 . S
C1348 H1334 0.960 . S
C1348 H1335 0.960 . S
C1348 C1347 1.524 . S
C1349 C1346 1.403 . S
C1349 C1350 1.392 . S
C1349 C1353 1.495 . S
C1350 C1349 1.392 . S
C1350 C1351 1.385 . S
C1350 C1352 1.478 . S
C1351 H1345 0.930 . S
C1351 C1347 1.400 . S
C1351 C1350 1.385 . S
C1352 C1350 1.478 . S
C1352 C1354 1.381 . S
C1352 C1358 1.383 . S
C1353 C1349 1.495 . S
C1353 H1359 0.959 . S
C1353 H1360 0.961 . S
C1353 H1361 0.960 . S
C1354 C1352 1.381 . S
C1354 C1355 1.394 . S
C1354 H1362 0.930 . S
C1355 C1354 1.394 . S
C1355 C1356 1.383 . S
C1355 H1363 0.929 . S
C1356 C1355 1.383 . S
C1356 C1357 1.377 . S
C1357 H1341 0.930 . S
C1357 C1356 1.377 . S
C1357 C1358 1.379 . S
C1358 H1342 0.931 . S
C1358 C1352 1.383 . S
C1358 C1357 1.379 . S
H1359 C1353 0.959 . S
H1360 C1353 0.961 . S
H1361 C1353 0.960 . S
H1362 C1354 0.930 . S
H1363 C1355 0.929 . S
H1364 C1372 0.929 . S
H1365 C1374 0.930 . S
H1366 C1376 0.930 . S
H1367 C1379 0.929 . S
H1368 C1382 0.930 . S
H1369 C1384 0.960 . S
H1370 C1384 0.960 . S
H1371 C1384 0.960 . S
C1372 H1364 0.929 . S
C1372 C1373 1.377 . S
C1372 C1374 1.384 . S
C1373 C1372 1.377 . S
C1373 C1379 1.390 . S
C1374 H1365 0.930 . S
C1374 C1372 1.384 . S
C1374 C1375 1.372 . S
C1375 C1374 1.372 . S
C1375 C1376 1.400 . S
C1375 C1380 1.490 . S
C1376 H1366 0.930 . S
C1376 C1375 1.400 . S
C1376 C1379 1.386 . S
H1377 C1393 0.930 . S
H1378 C1394 0.931 . S
C1379 H1367 0.929 . S
C1379 C1373 1.390 . S
C1379 C1376 1.386 . S
C1380 C1375 1.490 . S
C1380 C1382 1.395 . S
C1380 C1383 1.403 . S
H1381 C1387 0.930 . S
C1382 H1368 0.930 . S
C1382 C1380 1.395 . S
C1382 C1385 1.403 . S
C1383 C1380 1.403 . S
C1383 C1384 1.524 . S
C1383 C1387 1.400 . S
C1384 H1369 0.960 . S
C1384 H1370 0.960 . S
C1384 H1371 0.960 . S
C1384 C1383 1.524 . S
C1385 C1382 1.403 . S
C1385 C1386 1.392 . S
C1385 C1389 1.495 . S
C1386 C1385 1.392 . S
C1386 C1387 1.385 . S
C1386 C1388 1.478 . S
C1387 H1381 0.930 . S
C1387 C1383 1.400 . S
C1387 C1386 1.385 . S
C1388 C1386 1.478 . S
C1388 C1390 1.381 . S
C1388 C1394 1.383 . S
C1389 C1385 1.495 . S
C1389 H1395 0.959 . S
C1389 H1396 0.961 . S
C1389 H1397 0.960 . S
C1390 C1388 1.381 . S
C1390 C1391 1.394 . S
C1390 H1398 0.930 . S
C1391 C1390 1.394 . S
C1391 C1392 1.383 . S
C1391 H1399 0.929 . S
C1392 C1391 1.383 . S
C1392 C1393 1.377 . S
C1393 H1377 0.930 . S
C1393 C1392 1.377 . S
C1393 C1394 1.379 . S
C1394 H1378 0.931 . S
C1394 C1388 1.383 . S
C1394 C1393 1.379 . S
H1395 C1389 0.959 . S
H1396 C1389 0.961 . S
H1397 C1389 0.960 . S
H1398 C1390 0.930 . S
H1399 C1391 0.929 . S
H1400 C1408 0.929 . S
H1401 C1410 0.930 . S
H1402 C1412 0.930 . S
H1403 C1415 0.929 . S
H1404 C1418 0.930 . S
H1405 C1420 0.960 . S
H1406 C1420 0.960 . S
H1407 C1420 0.960 . S
C1408 H1400 0.929 . S
C1408 C1409 1.377 . S
C1408 C1410 1.384 . S
C1409 C1408 1.377 . S
C1409 C1415 1.390 . S
C1410 H1401 0.930 . S
C1410 C1408 1.384 . S
C1410 C1411 1.372 . S
C1411 C1410 1.372 . S
C1411 C1412 1.400 . S
C1411 C1416 1.490 . S
C1412 H1402 0.930 . S
C1412 C1411 1.400 . S
C1412 C1415 1.386 . S
H1413 C1429 0.930 . S
H1414 C1430 0.931 . S
C1415 H1403 0.929 . S
C1415 C1409 1.390 . S
C1415 C1412 1.386 . S
C1416 C1411 1.490 . S
C1416 C1418 1.395 . S
C1416 C1419 1.403 . S
H1417 C1423 0.930 . S
C1418 H1404 0.930 . S
C1418 C1416 1.395 . S
C1418 C1421 1.403 . S
C1419 C1416 1.403 . S
C1419 C1420 1.524 . S
C1419 C1423 1.400 . S
C1420 H1405 0.960 . S
C1420 H1406 0.960 . S
C1420 H1407 0.960 . S
C1420 C1419 1.524 . S
C1421 C1418 1.403 . S
C1421 C1422 1.392 . S
C1421 C1425 1.495 . S
C1422 C1421 1.392 . S
C1422 C1423 1.385 . S
C1422 C1424 1.478 . S
C1423 H1417 0.930 . S
C1423 C1419 1.400 . S
C1423 C1422 1.385 . S
C1424 C1422 1.478 . S
C1424 C1426 1.381 . S
C1424 C1430 1.383 . S
C1425 C1421 1.495 . S
C1425 H1431 0.959 . S
C1425 H1432 0.961 . S
C1425 H1433 0.960 . S
C1426 C1424 1.381 . S
C1426 C1427 1.394 . S
C1426 H1434 0.930 . S
C1427 C1426 1.394 . S
C1427 C1428 1.383 . S
C1427 H1435 0.929 . S
C1428 C1427 1.383 . S
C1428 C1429 1.377 . S
C1429 H1413 0.930 . S
C1429 C1428 1.377 . S
C1429 C1430 1.379 . S
C1430 H1414 0.931 . S
C1430 C1424 1.383 . S
C1430 C1429 1.379 . S
H1431 C1425 0.959 . S
H1432 C1425 0.961 . S
H1433 C1425 0.960 . S
H1434 C1426 0.930 . S
H1435 C1427 0.929 . S
H1436 C1444 0.929 . S
H1437 C1446 0.930 . S
H1438 C1448 0.930 . S
H1439 C1451 0.929 . S
H1440 C1454 0.930 . S
H1441 C1456 0.960 . S
H1442 C1456 0.960 . S
H1443 C1456 0.960 . S
C1444 H1436 0.929 . S
C1444 C1445 1.377 . S
C1444 C1446 1.384 . S
C1445 C1444 1.377 . S
C1445 C1451 1.390 . S
C1446 H1437 0.930 . S
C1446 C1444 1.384 . S
C1446 C1447 1.372 . S
C1447 C1446 1.372 . S
C1447 C1448 1.400 . S
C1447 C1452 1.490 . S
C1448 H1438 0.930 . S
C1448 C1447 1.400 . S
C1448 C1451 1.386 . S
H1449 C1465 0.930 . S
H1450 C1466 0.931 . S
C1451 H1439 0.929 . S
C1451 C1445 1.390 . S
C1451 C1448 1.386 . S
C1452 C1447 1.490 . S
C1452 C1454 1.395 . S
C1452 C1455 1.403 . S
H1453 C1459 0.930 . S
C1454 H1440 0.930 . S
C1454 C1452 1.395 . S
C1454 C1457 1.403 . S
C1455 C1452 1.403 . S
C1455 C1456 1.524 . S
C1455 C1459 1.400 . S
C1456 H1441 0.960 . S
C1456 H1442 0.960 . S
C1456 H1443 0.960 . S
C1456 C1455 1.524 . S
C1457 C1454 1.403 . S
C1457 C1458 1.392 . S
C1457 C1461 1.495 . S
C1458 C1457 1.392 . S
C1458 C1459 1.385 . S
C1458 C1460 1.478 . S
C1459 H1453 0.930 . S
C1459 C1455 1.400 . S
C1459 C1458 1.385 . S
C1460 C1458 1.478 . S
C1460 C1462 1.381 . S
C1460 C1466 1.383 . S
C1461 C1457 1.495 . S
C1461 H1467 0.959 . S
C1461 H1468 0.961 . S
C1461 H1469 0.960 . S
C1462 C1460 1.381 . S
C1462 C1463 1.394 . S
C1462 H1470 0.930 . S
C1463 C1462 1.394 . S
C1463 C1464 1.383 . S
C1463 H1471 0.929 . S
C1464 C1463 1.383 . S
C1464 C1465 1.377 . S
C1465 H1449 0.930 . S
C1465 C1464 1.377 . S
C1465 C1466 1.379 . S
C1466 H1450 0.931 . S
C1466 C1460 1.383 . S
C1466 C1465 1.379 . S
H1467 C1461 0.959 . S
H1468 C1461 0.961 . S
H1469 C1461 0.960 . S
H1470 C1462 0.930 . S
H1471 C1463 0.929 . S
H1472 C1480 0.929 . S
H1473 C1482 0.930 . S
H1474 C1484 0.930 . S
H1475 C1487 0.929 . S
H1476 C1490 0.930 . S
H1477 C1492 0.960 . S
H1478 C1492 0.960 . S
H1479 C1492 0.960 . S
C1480 H1472 0.929 . S
C1480 C1481 1.377 . S
C1480 C1482 1.384 . S
C1481 C1480 1.377 . S
C1481 C1487 1.390 . S
C1482 H1473 0.930 . S
C1482 C1480 1.384 . S
C1482 C1483 1.372 . S
C1483 C1482 1.372 . S
C1483 C1484 1.400 . S
C1483 C1488 1.490 . S
C1484 H1474 0.930 . S
C1484 C1483 1.400 . S
C1484 C1487 1.386 . S
H1485 C1501 0.930 . S
H1486 C1502 0.931 . S
C1487 H1475 0.929 . S
C1487 C1481 1.390 . S
C1487 C1484 1.386 . S
C1488 C1483 1.490 . S
C1488 C1490 1.395 . S
C1488 C1491 1.403 . S
H1489 C1495 0.930 . S
C1490 H1476 0.930 . S
C1490 C1488 1.395 . S
C1490 C1493 1.403 . S
C1491 C1488 1.403 . S
C1491 C1492 1.524 . S
C1491 C1495 1.400 . S
C1492 H1477 0.960 . S
C1492 H1478 0.960 . S
C1492 H1479 0.960 . S
C1492 C1491 1.524 . S
C1493 C1490 1.403 . S
C1493 C1494 1.392 . S
C1493 C1497 1.495 . S
C1494 C1493 1.392 . S
C1494 C1495 1.385 . S
C1494 C1496 1.478 . S
C1495 H1489 0.930 . S
C1495 C1491 1.400 . S
C1495 C1494 1.385 . S
C1496 C1494 1.478 . S
C1496 C1498 1.381 . S
C1496 C1502 1.383 . S
C1497 C1493 1.495 . S
C1497 H1503 0.959 . S
C1497 H1504 0.961 . S
C1497 H1505 0.960 . S
C1498 C1496 1.381 . S
C1498 C1499 1.394 . S
C1498 H1506 0.930 . S
C1499 C1498 1.394 . S
C1499 C1500 1.383 . S
C1499 H1507 0.929 . S
C1500 C1499 1.383 . S
C1500 C1501 1.377 . S
C1501 H1485 0.930 . S
C1501 C1500 1.377 . S
C1501 C1502 1.379 . S
C1502 H1486 0.931 . S
C1502 C1496 1.383 . S
C1502 C1501 1.379 . S
H1503 C1497 0.959 . S
H1504 C1497 0.961 . S
H1505 C1497 0.960 . S
H1506 C1498 0.930 . S
H1507 C1499 0.929 . S
H1508 C1516 0.929 . S
H1509 C1518 0.930 . S
H1510 C1520 0.930 . S
H1511 C1523 0.929 . S
H1512 C1526 0.930 . S
H1513 C1528 0.960 . S
H1514 C1528 0.960 . S
H1515 C1528 0.960 . S
C1516 H1508 0.929 . S
C1516 C1517 1.377 . S
C1516 C1518 1.384 . S
C1517 C1516 1.377 . S
C1517 C1523 1.390 . S
C1518 H1509 0.930 . S
C1518 C1516 1.384 . S
C1518 C1519 1.372 . S
C1519 C1518 1.372 . S
C1519 C1520 1.400 . S
C1519 C1524 1.490 . S
C1520 H1510 0.930 . S
C1520 C1519 1.400 . S
C1520 C1523 1.386 . S
H1521 C1537 0.930 . S
H1522 C1538 0.931 . S
C1523 H1511 0.929 . S
C1523 C1517 1.390 . S
C1523 C1520 1.386 . S
C1524 C1519 1.490 . S
C1524 C1526 1.395 . S
C1524 C1527 1.403 . S
H1525 C1531 0.930 . S
C1526 H1512 0.930 . S
C1526 C1524 1.395 . S
C1526 C1529 1.403 . S
C1527 C1524 1.403 . S
C1527 C1528 1.524 . S
C1527 C1531 1.400 . S
C1528 H1513 0.960 . S
C1528 H1514 0.960 . S
C1528 H1515 0.960 . S
C1528 C1527 1.524 . S
C1529 C1526 1.403 . S
C1529 C1530 1.392 . S
C1529 C1533 1.495 . S
C1530 C1529 1.392 . S
C1530 C1531 1.385 . S
C1530 C1532 1.478 . S
C1531 H1525 0.930 . S
C1531 C1527 1.400 . S
C1531 C1530 1.385 . S
C1532 C1530 1.478 . S
C1532 C1534 1.381 . S
C1532 C1538 1.383 . S
C1533 C1529 1.495 . S
C1533 H1539 0.959 . S
C1533 H1540 0.961 . S
C1533 H1541 0.960 . S
C1534 C1532 1.381 . S
C1534 C1535 1.394 . S
C1534 H1542 0.930 . S
C1535 C1534 1.394 . S
C1535 C1536 1.383 . S
C1535 H1543 0.929 . S
C1536 C1535 1.383 . S
C1536 C1537 1.377 . S
C1537 H1521 0.930 . S
C1537 C1536 1.377 . S
C1537 C1538 1.379 . S
C1538 H1522 0.931 . S
C1538 C1532 1.383 . S
C1538 C1537 1.379 . S
H1539 C1533 0.959 . S
H1540 C1533 0.961 . S
H1541 C1533 0.960 . S
H1542 C1534 0.930 . S
H1543 C1535 0.929 . S
H1544 C1552 0.929 . S
H1545 C1554 0.930 . S
H1546 C1556 0.930 . S
H1547 C1559 0.929 . S
H1548 C1562 0.930 . S
H1549 C1564 0.960 . S
H1550 C1564 0.960 . S
H1551 C1564 0.960 . S
C1552 H1544 0.929 . S
C1552 C1553 1.377 . S
C1552 C1554 1.384 . S
C1553 C1552 1.377 . S
C1553 C1559 1.390 . S
C1554 H1545 0.930 . S
C1554 C1552 1.384 . S
C1554 C1555 1.372 . S
C1555 C1554 1.372 . S
C1555 C1556 1.400 . S
C1555 C1560 1.490 . S
C1556 H1546 0.930 . S
C1556 C1555 1.400 . S
C1556 C1559 1.386 . S
H1557 C1573 0.930 . S
H1558 C1574 0.931 . S
C1559 H1547 0.929 . S
C1559 C1553 1.390 . S
C1559 C1556 1.386 . S
C1560 C1555 1.490 . S
C1560 C1562 1.395 . S
C1560 C1563 1.403 . S
H1561 C1567 0.930 . S
C1562 H1548 0.930 . S
C1562 C1560 1.395 . S
C1562 C1565 1.403 . S
C1563 C1560 1.403 . S
C1563 C1564 1.524 . S
C1563 C1567 1.400 . S
C1564 H1549 0.960 . S
C1564 H1550 0.960 . S
C1564 H1551 0.960 . S
C1564 C1563 1.524 . S
C1565 C1562 1.403 . S
C1565 C1566 1.392 . S
C1565 C1569 1.495 . S
C1566 C1565 1.392 . S
C1566 C1567 1.385 . S
C1566 C1568 1.478 . S
C1567 H1561 0.930 . S
C1567 C1563 1.400 . S
C1567 C1566 1.385 . S
C1568 C1566 1.478 . S
C1568 C1570 1.381 . S
C1568 C1574 1.383 . S
C1569 C1565 1.495 . S
C1569 H1575 0.959 . S
C1569 H1576 0.961 . S
C1569 H1577 0.960 . S
C1570 C1568 1.381 . S
C1570 C1571 1.394 . S
C1570 H1578 0.930 . S
C1571 C1570 1.394 . S
C1571 C1572 1.383 . S
C1571 H1579 0.929 . S
C1572 C1571 1.383 . S
C1572 C1573 1.377 . S
C1573 H1557 0.930 . S
C1573 C1572 1.377 . S
C1573 C1574 1.379 . S
C1574 H1558 0.931 . S
C1574 C1568 1.383 . S
C1574 C1573 1.379 . S
H1575 C1569 0.959 . S
H1576 C1569 0.961 . S
H1577 C1569 0.960 . S
H1578 C1570 0.930 . S
H1579 C1571 0.929 . S
H1580 C1588 0.929 . S
H1581 C1590 0.930 . S
H1582 C1592 0.930 . S
H1583 C1595 0.929 . S
H1584 C1598 0.930 . S
H1585 C1600 0.960 . S
H1586 C1600 0.960 . S
H1587 C1600 0.960 . S
C1588 H1580 0.929 . S
C1588 C1589 1.377 . S
C1588 C1590 1.384 . S
C1589 C1588 1.377 . S
C1589 C1595 1.390 . S
C1590 H1581 0.930 . S
C1590 C1588 1.384 . S
C1590 C1591 1.372 . S
C1591 C1590 1.372 . S
C1591 C1592 1.400 . S
C1591 C1596 1.490 . S
C1592 H1582 0.930 . S
C1592 C1591 1.400 . S
C1592 C1595 1.386 . S
H1593 C1609 0.930 . S
H1594 C1610 0.931 . S
C1595 H1583 0.929 . S
C1595 C1589 1.390 . S
C1595 C1592 1.386 . S
C1596 C1591 1.490 . S
C1596 C1598 1.395 . S
C1596 C1599 1.403 . S
H1597 C1603 0.930 . S
C1598 H1584 0.930 . S
C1598 C1596 1.395 . S
C1598 C1601 1.403 . S
C1599 C1596 1.403 . S
C1599 C1600 1.524 . S
C1599 C1603 1.400 . S
C1600 H1585 0.960 . S
C1600 H1586 0.960 . S
C1600 H1587 0.960 . S
C1600 C1599 1.524 . S
C1601 C1598 1.403 . S
C1601 C1602 1.392 . S
C1601 C1605 1.495 . S
C1602 C1601 1.392 . S
C1602 C1603 1.385 . S
C1602 C1604 1.478 . S
C1603 H1597 0.930 . S
C1603 C1599 1.400 . S
C1603 C1602 1.385 . S
C1604 C1602 1.478 . S
C1604 C1606 1.381 . S
C1604 C1610 1.383 . S
C1605 C1601 1.495 . S
C1605 H1611 0.959 . S
C1605 H1612 0.961 . S
C1605 H1613 0.960 . S
C1606 C1604 1.381 . S
C1606 C1607 1.394 . S
C1606 H1614 0.930 . S
C1607 C1606 1.394 . S
C1607 C1608 1.383 . S
C1607 H1615 0.929 . S
C1608 C1607 1.383 . S
C1608 C1609 1.377 . S
C1609 H1593 0.930 . S
C1609 C1608 1.377 . S
C1609 C1610 1.379 . S
C1610 H1594 0.931 . S
C1610 C1604 1.383 . S
C1610 C1609 1.379 . S
H1611 C1605 0.959 . S
H1612 C1605 0.961 . S
H1613 C1605 0.960 . S
H1614 C1606 0.930 . S
H1615 C1607 0.929 . S
H1616 C1624 0.929 . S
H1617 C1626 0.930 . S
H1618 C1628 0.930 . S
H1619 C1631 0.929 . S
H1620 C1634 0.930 . S
H1621 C1636 0.960 . S
H1622 C1636 0.960 . S
H1623 C1636 0.960 . S
C1624 H1616 0.929 . S
C1624 C1625 1.377 . S
C1624 C1626 1.384 . S
C1625 C1624 1.377 . S
C1625 C1631 1.390 . S
C1626 H1617 0.930 . S
C1626 C1624 1.384 . S
C1626 C1627 1.372 . S
C1627 C1626 1.372 . S
C1627 C1628 1.400 . S
C1627 C1632 1.490 . S
C1628 H1618 0.930 . S
C1628 C1627 1.400 . S
C1628 C1631 1.386 . S
H1629 C1645 0.930 . S
H1630 C1646 0.931 . S
C1631 H1619 0.929 . S
C1631 C1625 1.390 . S
C1631 C1628 1.386 . S
C1632 C1627 1.490 . S
C1632 C1634 1.395 . S
C1632 C1635 1.403 . S
H1633 C1639 0.930 . S
C1634 H1620 0.930 . S
C1634 C1632 1.395 . S
C1634 C1637 1.403 . S
C1635 C1632 1.403 . S
C1635 C1636 1.524 . S
C1635 C1639 1.400 . S
C1636 H1621 0.960 . S
C1636 H1622 0.960 . S
C1636 H1623 0.960 . S
C1636 C1635 1.524 . S
C1637 C1634 1.403 . S
C1637 C1638 1.392 . S
C1637 C1641 1.495 . S
C1638 C1637 1.392 . S
C1638 C1639 1.385 . S
C1638 C1640 1.478 . S
C1639 H1633 0.930 . S
C1639 C1635 1.400 . S
C1639 C1638 1.385 . S
C1640 C1638 1.478 . S
C1640 C1642 1.381 . S
C1640 C1646 1.383 . S
C1641 C1637 1.495 . S
C1641 H1647 0.959 . S
C1641 H1648 0.961 . S
C1641 H1649 0.960 . S
C1642 C1640 1.381 . S
C1642 C1643 1.394 . S
C1642 H1650 0.930 . S
C1643 C1642 1.394 . S
C1643 C1644 1.383 . S
C1643 H1651 0.929 . S
C1644 C1643 1.383 . S
C1644 C1645 1.377 . S
C1645 H1629 0.930 . S
C1645 C1644 1.377 . S
C1645 C1646 1.379 . S
C1646 H1630 0.931 . S
C1646 C1640 1.383 . S
C1646 C1645 1.379 . S
H1647 C1641 0.959 . S
H1648 C1641 0.961 . S
H1649 C1641 0.960 . S
H1650 C1642 0.930 . S
H1651 C1643 0.929 . S
H1652 C1660 0.929 . S
H1653 C1662 0.930 . S
H1654 C1664 0.930 . S
H1655 C1667 0.929 . S
H1656 C1670 0.930 . S
H1657 C1672 0.960 . S
H1658 C1672 0.960 . S
H1659 C1672 0.960 . S
C1660 H1652 0.929 . S
C1660 C1661 1.377 . S
C1660 C1662 1.384 . S
C1661 C1660 1.377 . S
C1661 C1667 1.390 . S
C1662 H1653 0.930 . S
C1662 C1660 1.384 . S
C1662 C1663 1.372 . S
C1663 C1662 1.372 . S
C1663 C1664 1.400 . S
C1663 C1668 1.490 . S
C1664 H1654 0.930 . S
C1664 C1663 1.400 . S
C1664 C1667 1.386 . S
H1665 C1681 0.930 . S
H1666 C1682 0.931 . S
C1667 H1655 0.929 . S
C1667 C1661 1.390 . S
C1667 C1664 1.386 . S
C1668 C1663 1.490 . S
C1668 C1670 1.395 . S
C1668 C1671 1.403 . S
H1669 C1675 0.930 . S
C1670 H1656 0.930 . S
C1670 C1668 1.395 . S
C1670 C1673 1.403 . S
C1671 C1668 1.403 . S
C1671 C1672 1.524 . S
C1671 C1675 1.400 . S
C1672 H1657 0.960 . S
C1672 H1658 0.960 . S
C1672 H1659 0.960 . S
C1672 C1671 1.524 . S
C1673 C1670 1.403 . S
C1673 C1674 1.392 . S
C1673 C1677 1.495 . S
C1674 C1673 1.392 . S
C1674 C1675 1.385 . S
C1674 C1676 1.478 . S
C1675 H1669 0.930 . S
C1675 C1671 1.400 . S
C1675 C1674 1.385 . S
C1676 C1674 1.478 . S
C1676 C1678 1.381 . S
C1676 C1682 1.383 . S
C1677 C1673 1.495 . S
C1677 H1683 0.959 . S
C1677 H1684 0.961 . S
C1677 H1685 0.960 . S
C1678 C1676 1.381 . S
C1678 C1679 1.394 . S
C1678 H1686 0.930 . S
C1679 C1678 1.394 . S
C1679 C1680 1.383 . S
C1679 H1687 0.929 . S
C1680 C1679 1.383 . S
C1680 C1681 1.377 . S
C1681 H1665 0.930 . S
C1681 C1680 1.377 . S
C1681 C1682 1.379 . S
C1682 H1666 0.931 . S
C1682 C1676 1.383 . S
C1682 C1681 1.379 . S
H1683 C1677 0.959 . S
H1684 C1677 0.961 . S
H1685 C1677 0.960 . S
H1686 C1678 0.930 . S
H1687 C1679 0.929 . S
H1688 C1696 0.929 . S
H1689 C1698 0.930 . S
H1690 C1700 0.930 . S
H1691 C1703 0.929 . S
H1692 C1706 0.930 . S
H1693 C1708 0.960 . S
H1694 C1708 0.960 . S
H1695 C1708 0.960 . S
C1696 H1688 0.929 . S
C1696 C1697 1.377 . S
C1696 C1698 1.384 . S
C1697 C1696 1.377 . S
C1697 C1703 1.390 . S
C1698 H1689 0.930 . S
C1698 C1696 1.384 . S
C1698 C1699 1.372 . S
C1699 C1698 1.372 . S
C1699 C1700 1.400 . S
C1699 C1704 1.490 . S
C1700 H1690 0.930 . S
C1700 C1699 1.400 . S
C1700 C1703 1.386 . S
H1701 C1717 0.930 . S
H1702 C1718 0.931 . S
C1703 H1691 0.929 . S
C1703 C1697 1.390 . S
C1703 C1700 1.386 . S
C1704 C1699 1.490 . S
C1704 C1706 1.395 . S
C1704 C1707 1.403 . S
H1705 C1711 0.930 . S
C1706 H1692 0.930 . S
C1706 C1704 1.395 . S
C1706 C1709 1.403 . S
C1707 C1704 1.403 . S
C1707 C1708 1.524 . S
C1707 C1711 1.400 . S
C1708 H1693 0.960 . S
C1708 H1694 0.960 . S
C1708 H1695 0.960 . S
C1708 C1707 1.524 . S
C1709 C1706 1.403 . S
C1709 C1710 1.392 . S
C1709 C1713 1.495 . S
C1710 C1709 1.392 . S
C1710 C1711 1.385 . S
C1710 C1712 1.478 . S
C1711 H1705 0.930 . S
C1711 C1707 1.400 . S
C1711 C1710 1.385 . S
C1712 C1710 1.478 . S
C1712 C1714 1.381 . S
C1712 C1718 1.383 . S
C1713 C1709 1.495 . S
C1713 H1719 0.959 . S
C1713 H1720 0.961 . S
C1713 H1721 0.960 . S
C1714 C1712 1.381 . S
C1714 C1715 1.394 . S
C1714 H1722 0.930 . S
C1715 C1714 1.394 . S
C1715 C1716 1.383 . S
C1715 H1723 0.929 . S
C1716 C1715 1.383 . S
C1716 C1717 1.377 . S
C1717 H1701 0.930 . S
C1717 C1716 1.377 . S
C1717 C1718 1.379 . S
C1718 H1702 0.931 . S
C1718 C1712 1.383 . S
C1718 C1717 1.379 . S
H1719 C1713 0.959 . S
H1720 C1713 0.961 . S
H1721 C1713 0.960 . S
H1722 C1714 0.930 . S
H1723 C1715 0.929 . S
H1724 C1732 0.929 . S
H1725 C1734 0.930 . S
H1726 C1736 0.930 . S
H1727 C1739 0.929 . S
H1728 C1742 0.930 . S
H1729 C1744 0.960 . S
H1730 C1744 0.960 . S
H1731 C1744 0.960 . S
C1732 H1724 0.929 . S
C1732 C1733 1.377 . S
C1732 C1734 1.384 . S
C1733 C1732 1.377 . S
C1733 C1739 1.390 . S
C1734 H1725 0.930 . S
C1734 C1732 1.384 . S
C1734 C1735 1.372 . S
C1735 C1734 1.372 . S
C1735 C1736 1.400 . S
C1735 C1740 1.490 . S
C1736 H1726 0.930 . S
C1736 C1735 1.400 . S
C1736 C1739 1.386 . S
H1737 C1753 0.930 . S
H1738 C1754 0.931 . S
C1739 H1727 0.929 . S
C1739 C1733 1.390 . S
C1739 C1736 1.386 . S
C1740 C1735 1.490 . S
C1740 C1742 1.395 . S
C1740 C1743 1.403 . S
H1741 C1747 0.930 . S
C1742 H1728 0.930 . S
C1742 C1740 1.395 . S
C1742 C1745 1.403 . S
C1743 C1740 1.403 . S
C1743 C1744 1.524 . S
C1743 C1747 1.400 . S
C1744 H1729 0.960 . S
C1744 H1730 0.960 . S
C1744 H1731 0.960 . S
C1744 C1743 1.524 . S
C1745 C1742 1.403 . S
C1745 C1746 1.392 . S
C1745 C1749 1.495 . S
C1746 C1745 1.392 . S
C1746 C1747 1.385 . S
C1746 C1748 1.478 . S
C1747 H1741 0.930 . S
C1747 C1743 1.400 . S
C1747 C1746 1.385 . S
C1748 C1746 1.478 . S
C1748 C1750 1.381 . S
C1748 C1754 1.383 . S
C1749 C1745 1.495 . S
C1749 H1755 0.959 . S
C1749 H1756 0.961 . S
C1749 H1757 0.960 . S
C1750 C1748 1.381 . S
C1750 C1751 1.394 . S
C1750 H1758 0.930 . S
C1751 C1750 1.394 . S
C1751 C1752 1.383 . S
C1751 H1759 0.929 . S
C1752 C1751 1.383 . S
C1752 C1753 1.377 . S
C1753 H1737 0.930 . S
C1753 C1752 1.377 . S
C1753 C1754 1.379 . S
C1754 H1738 0.931 . S
C1754 C1748 1.383 . S
C1754 C1753 1.379 . S
H1755 C1749 0.959 . S
H1756 C1749 0.961 . S
H1757 C1749 0.960 . S
H1758 C1750 0.930 . S
H1759 C1751 0.929 . S
C636 C521 1.357 . S
C617 C35 1.240 . S
C672 C535 1.355 . S
C653 C115 1.234 . S
C708 C543 1.382 . S
C689 C177 1.286 . S
C725 C221 1.245 . S
C744 C501 1.347 . S
C761 C283 1.204 . S
C780 C507 1.331 . S
C797 C363 1.246 . S
C816 C515 1.342 . S
C852 C529 1.463 . S
C833 C407 1.332 . S
C888 C549 1.397 . S
C869 C469 1.278 . S
C905 C159 1.201 . S
C924 C577 1.336 . S
C960 C591 1.434 . S
C941 C239 1.307 . S
C977 C53 1.239 . S
C996 C599 1.369 . S
C1032 C563 1.283 . S
C1013 C97 1.181 . S
C1049 C425 1.272 . S
C1068 C557 1.392 . S
C1085 C487 1.272 . S
C1104 C571 1.380 . S
C1140 C585 1.394 . S
C1121 C301 1.267 . S
C1157 C345 1.283 . S
C1176 C605 1.421 . S
C1212 C524 1.838 . S
C1193 C29 1.866 . S
C1248 C547 1.862 . S
C1229 C109 1.832 . S
C1265 C171 1.830 . S
C1284 C505 1.866 . S
C1301 C215 1.883 . S
C1320 C510 1.844 . S
C1337 C277 1.861 . S
C1356 C538 1.833 . S
C1392 C496 1.864 . S
C1373 C357 1.839 . S
C1428 C519 1.864 . S
C1409 C401 1.867 . S
C1464 C533 1.894 . S
C1445 C463 1.880 . S
C1500 C580 1.862 . S
C1481 C153 1.869 . S
C1536 C603 1.874 . S
C1517 C233 1.838 . S
C1553 C47 1.823 . S
C1572 C552 1.843 . S
C1608 C566 1.839 . S
C1589 C91 1.850 . S
C1644 C594 1.885 . S
C1625 C419 1.865 . S
C1661 C481 1.854 . S
C1680 C561 1.906 . S
C1716 C575 1.873 . S
C1697 C295 1.839 . S
C1752 C589 1.886 . S
C1733 C339 1.880 . S
