# Generated by pormake.
# Topology zzz, (3,6)-cn, num edge types: 1
# Building blocks:
#     Node 0, Type 0, BuildingBlock: ESEHIV_clean_linker_0, # of connection points: 3
#     Node 1, Type 0, BuildingBlock: ESEHIV_clean_linker_0, # of connection points: 3
#     Node 2, Type 0, BuildingBlock: ESEHIV_clean_linker_0, # of connection points: 3
#     Node 3, Type 0, BuildingBlock: ESEHIV_clean_linker_0, # of connection points: 3
#     Node 4, Type 0, BuildingBlock: ESEHIV_clean_linker_0, # of connection points: 3
#     Node 5, Type 0, BuildingBlock: ESEHIV_clean_linker_0, # of connection points: 3
#     Node 6, Type 0, BuildingBlock: ESEHIV_clean_linker_0, # of connection points: 3
#     Node 7, Type 0, BuildingBlock: ESEHIV_clean_linker_0, # of connection points: 3
#     Node 8, Type 1, BuildingBlock: HISSIN_clean_sbu_0, # of connection points: 6
#     Node 9, Type 1, BuildingBlock: HISSIN_clean_sbu_0, # of connection points: 6
#     Node 10, Type 1, BuildingBlock: HISSIN_clean_sbu_0, # of connection points: 6
#     Node 11, Type 1, BuildingBlock: HISSIN_clean_sbu_0, # of connection points: 6
#     Edge 12, Type (0, 1), BuildingBlock: AJUNOK_clean_linker_0, # of connection points: 2
#     Edge 13, Type (0, 1), BuildingBlock: AJUNOK_clean_linker_0, # of connection points: 2
#     Edge 14, Type (0, 1), BuildingBlock: AJUNOK_clean_linker_0, # of connection points: 2
#     Edge 15, Type (0, 1), BuildingBlock: AJUNOK_clean_linker_0, # of connection points: 2
#     Edge 16, Type (0, 1), BuildingBlock: AJUNOK_clean_linker_0, # of connection points: 2
#     Edge 17, Type (0, 1), BuildingBlock: AJUNOK_clean_linker_0, # of connection points: 2
#     Edge 18, Type (0, 1), BuildingBlock: AJUNOK_clean_linker_0, # of connection points: 2
#     Edge 19, Type (0, 1), BuildingBlock: AJUNOK_clean_linker_0, # of connection points: 2
#     Edge 20, Type (0, 1), BuildingBlock: AJUNOK_clean_linker_0, # of connection points: 2
#     Edge 21, Type (0, 1), BuildingBlock: AJUNOK_clean_linker_0, # of connection points: 2
#     Edge 22, Type (0, 1), BuildingBlock: AJUNOK_clean_linker_0, # of connection points: 2
#     Edge 23, Type (0, 1), BuildingBlock: AJUNOK_clean_linker_0, # of connection points: 2
#     Edge 24, Type (0, 1), BuildingBlock: AJUNOK_clean_linker_0, # of connection points: 2
#     Edge 25, Type (0, 1), BuildingBlock: AJUNOK_clean_linker_0, # of connection points: 2
#     Edge 26, Type (0, 1), BuildingBlock: AJUNOK_clean_linker_0, # of connection points: 2
#     Edge 27, Type (0, 1), BuildingBlock: AJUNOK_clean_linker_0, # of connection points: 2
#     Edge 28, Type (0, 1), BuildingBlock: AJUNOK_clean_linker_0, # of connection points: 2
#     Edge 29, Type (0, 1), BuildingBlock: AJUNOK_clean_linker_0, # of connection points: 2
#     Edge 30, Type (0, 1), BuildingBlock: AJUNOK_clean_linker_0, # of connection points: 2
#     Edge 31, Type (0, 1), BuildingBlock: AJUNOK_clean_linker_0, # of connection points: 2
#     Edge 32, Type (0, 1), BuildingBlock: AJUNOK_clean_linker_0, # of connection points: 2
#     Edge 33, Type (0, 1), BuildingBlock: AJUNOK_clean_linker_0, # of connection points: 2
#     Edge 34, Type (0, 1), BuildingBlock: AJUNOK_clean_linker_0, # of connection points: 2
#     Edge 35, Type (0, 1), BuildingBlock: AJUNOK_clean_linker_0, # of connection points: 2
# Relax obj value: 0.579
# Max RMSD: 0.267
# Mean RMSD: 0.200
data_MOF--net-zzz--node1-HISSIN_clean_sbu_0--node2-ESEHIV_clean_linker_0--edge1-AJUNOK_clean_linker_0
_symmetry_space_group_name_H-M    P1
_symmetry_Int_Tables_number       1
_symmetry_cell_setting            triclinic
loop_
_symmetry_equiv_pos_as_xyz
'x, y, z'
_cell_length_a     31.017495
_cell_length_b     31.055638
_cell_length_c     12.358754
_cell_angle_alpha  89.985357
_cell_angle_beta   91.670064
_cell_angle_gamma 90.79994
loop_
_atom_site_label
_atom_site_type_symbol
_atom_site_fract_x
_atom_site_fract_y
_atom_site_fract_z
_atom_type_partial_charge
H0 H 0.82318 0.45674 0.34913 0.0
H1 H 0.71606 0.44352 0.12404 0.0
H2 H 0.73497 0.56135 0.30744 0.0
C3 C 0.79359 0.46928 0.31329 0.0
C4 C 0.78125 0.51058 0.34246 0.0
C5 C 0.7702 0.44464 0.23678 0.0
C6 C 0.73396 0.46251 0.18415 0.0
C7 C 0.72034 0.50448 0.20792 0.0
C8 C 0.74475 0.52908 0.28733 0.0
H9 H 0.08127 0.8398 0.31803 0.0
H10 H 0.0687 0.72941 0.11361 0.0
H11 H 0.96949 0.75557 0.34287 0.0
C12 C 0.06335 0.81072 0.29574 0.0
C13 C 0.02474 0.80084 0.34762 0.0
C14 C 0.07793 0.78568 0.21046 0.0
C15 C 0.05597 0.74841 0.17897 0.0
C16 C 1.01668 0.7367 0.22291 0.0
C17 C 1.00019 0.76356 0.3081 0.0
H18 H 0.71795 0.93648 0.34983 0.0
H19 H 0.83071 0.94015 0.15876 0.0
H20 H 0.78983 0.05523 0.32073 0.0
C21 C 0.74574 0.95383 0.3206 0.0
C22 C 0.75179 0.9967 0.35486 0.0
C23 C 0.77042 0.93538 0.23873 0.0
C24 C 0.80916 0.95612 0.21293 0.0
C25 C 0.81561 1.0001 0.23281 0.0
C26 C 0.78605 0.02115 0.30432 0.0
H27 H 0.44962 0.72916 0.35248 0.0
H28 H 0.56516 0.80824 0.33714 0.0
H29 H 0.4594 0.82356 0.10472 0.0
C30 C 0.46728 0.75649 0.31999 0.0
C31 C 0.45198 0.77469 0.22358 0.0
C32 C 0.50839 0.76656 0.36241 0.0
C33 C 0.53255 0.80052 0.30946 0.0
C34 C 0.51365 0.82335 0.21757 0.0
C35 C 0.47297 0.80973 0.17871 0.0
H36 H 0.20841 0.59977 0.17246 0.0
H37 H 0.31767 0.58732 0.38687 0.0
H38 H 0.29902 0.49732 0.12188 0.0
C39 C 0.2379 0.58304 0.19426 0.0
C40 C 0.24937 0.54641 0.13569 0.0
C41 C 0.26263 0.59737 0.28365 0.0
C42 C 0.29973 0.57584 0.31553 0.0
C43 C 0.315 0.54098 0.25679 0.0
C44 C 0.2886 0.52482 0.16755 0.0
H45 H 0.10393 0.23551 0.14524 0.0
H46 H 0.10706 0.35396 0.32243 0.0
H47 H 0.99374 0.31737 0.13099 0.0
C48 C 0.08941 0.26581 0.16562 0.0
C49 C 0.04912 0.27497 0.11698 0.0
C50 C 0.10755 0.29137 0.25024 0.0
C51 C 0.09074 0.33247 0.26493 0.0
C52 C 0.04831 0.34151 0.23181 0.0
C53 C 0.02672 0.31186 0.15723 0.0
H54 H 0.32061 0.96162 0.16883 0.0
H55 H 0.21265 0.9725 0.37353 0.0
H56 H 0.25037 0.081 0.1759 0.0
C57 C 0.29396 0.9806 0.19642 0.0
C58 C 0.28857 0.02239 0.15522 0.0
C59 C 0.2671 0.96319 0.27503 0.0
C60 C 0.23344 0.98718 0.31425 0.0
C61 C 0.22684 0.02992 0.2839 0.0
C62 C 0.25476 0.04807 0.20208 0.0
H63 H 0.60353 0.3301 0.17447 0.0
H64 H 0.48243 0.25945 0.15885 0.0
H65 H 0.58769 0.21707 0.36752 0.0
C66 C 0.58403 0.30227 0.1958 0.0
C67 C 0.59904 0.27481 0.27852 0.0
C68 C 0.54279 0.29665 0.14647 0.0
C69 C 0.51546 0.26287 0.1886 0.0
C70 C 0.53189 0.23369 0.27035 0.0
C71 C 0.57469 0.2388 0.30624 0.0
Eu72 Eu 0.98354 0.05419 0.66348 0.0
Eu73 Eu 0.0525 0.01994 0.82815 0.0
C74 C 0.02343 0.11839 0.8477 0.0
C75 C 0.95906 0.13733 0.48994 0.0
C76 C 0.97144 0.16946 0.56547 0.0
C77 C 1.01942 0.15905 0.38062 0.0
C78 C 1.00997 0.19246 0.55469 0.0
C79 C 0.98184 0.13461 0.39383 0.0
C80 C 0.03566 0.18607 0.46436 0.0
C81 C 0.93738 0.09805 0.53009 0.0
O82 O 0.99173 0.01545 0.93125 0.0
O83 O 0.94059 0.0385 0.80807 0.0
C84 C 0.9513 0.02597 0.9075 0.0
O85 O 0.97843 0.98219 0.62266 0.0
O86 O 0.07969 0.97589 0.94707 0.0
O87 O 0.11557 0.03393 0.90397 0.0
O88 O 0.03976 0.96102 0.71401 0.0
C89 C 1.00794 0.95266 0.64216 0.0
O90 O 0.04356 0.05214 0.55776 0.0
O91 O 0.09463 0.04609 0.69168 0.0
O92 O 0.03127 0.08331 0.90303 0.0
O93 O 0.95521 0.06226 0.50084 0.0
O94 O 0.92955 0.09782 0.63327 0.0
O95 O 1.01615 0.11441 0.74264 0.0
C96 C 0.15505 0.97301 0.96037 0.0
C97 C 0.16572 0.94781 0.8711 0.0
C98 C 0.194 0.92515 0.07878 0.0
C99 C 0.18713 0.90891 0.88901 0.0
C100 C 0.17432 0.96441 0.06112 0.0
C101 C 0.19244 0.89387 0.99615 0.0
C102 C 0.11565 0.99817 0.95916 0.0
C103 C 0.08461 0.05146 0.58822 0.0
H104 H 0.9544 0.17317 0.64013 0.0
H105 H 0.03624 0.15557 0.30572 0.0
H106 H 0.02039 0.21349 0.6204 0.0
H107 H 0.97312 0.1104 0.33368 0.0
H108 H 0.15271 0.95507 0.79095 0.0
H109 H 0.20062 0.91666 0.16231 0.0
H110 H 0.19065 0.88724 0.82132 0.0
H111 H 0.16784 0.98406 0.13041 0.0
Eu112 Eu 0.53883 0.06191 0.81677 0.0
Eu113 Eu 0.49702 0.99374 0.65605 0.0
C114 C 0.53322 0.96139 0.89591 0.0
C115 C 0.6265 0.07814 0.98663 0.0
C116 C 0.65579 0.06245 0.91165 0.0
C117 C 0.64428 0.01765 0.10403 0.0
C118 C 0.67529 0.02264 0.92745 0.0
C119 C 0.62297 0.05642 0.0856 0.0
C120 C 0.66849 0.99869 1.02222 0.0
C121 C 0.58958 0.10382 0.94575 0.0
O122 O 0.4415 1.00713 0.77531 0.0
O123 O 0.46863 0.06501 0.87193 0.0
C124 C 0.43682 0.03701 0.8515 0.0
O125 O 0.51541 0.10648 0.68028 0.0
O126 O 0.50493 0.93203 0.57425 0.0
O127 O 0.44717 0.96971 0.54358 0.0
O128 O 0.49201 0.05588 0.55609 0.0
C129 C 0.50102 0.09638 0.58175 0.0
O130 O 0.59553 0.03014 0.72904 0.0
O131 O 0.55984 1.01382 0.5733 0.0
O132 O 0.52425 0.95104 0.79402 0.0
O133 O 0.58878 0.11196 0.84202 0.0
O134 O 0.5521 0.08984 0.97699 0.0
O135 O 0.53684 1.0021 0.92319 0.0
C136 C 0.44166 0.89501 0.51029 0.0
C137 C 0.43508 0.87831 0.40616 0.0
C138 C 0.38084 0.85256 0.57031 0.0
C139 C 0.39887 0.85281 0.38197 0.0
C140 C 0.41685 0.87897 0.59461 0.0
C141 C 0.36758 0.84578 0.46108 0.0
C142 C 0.46784 0.93442 0.52229 0.0
C143 C 0.59662 0.02253 0.62423 0.0
H144 H 0.65999 0.07839 0.83461 0.0
H145 H 0.64063 1.00226 0.1818 0.0
H146 H 0.6941 1.01015 0.86252 0.0
H147 H 0.6006 0.06731 0.14491 0.0
H148 H 0.45458 0.88931 0.3403 0.0
H149 H 0.35953 0.84434 0.63524 0.0
H150 H 0.39237 0.84603 0.29733 0.0
H151 H 0.42252 0.8903 0.67676 0.0
Eu152 Eu 0.47909 0.53756 0.79415 0.0
Eu153 Eu 0.5577 0.51054 0.65474 0.0
C154 C 0.57606 0.53879 0.9032 0.0
C155 C 0.37338 0.58383 0.8835 0.0
C156 C 0.37718 0.61799 0.80981 0.0
C157 C 0.33247 0.62893 1.00034 0.0
C158 C 0.36301 0.65877 0.83901 0.0
C159 C 0.34669 0.58816 0.97191 0.0
C160 C 0.34795 0.66493 0.94391 0.0
C161 C 0.40722 0.55166 0.89106 0.0
O162 O 0.55328 0.45432 0.77694 0.0
O163 O 0.48455 0.46545 0.82882 0.0
C164 C 0.51951 0.44188 0.83259 0.0
O165 O 0.45288 0.53845 0.62196 0.0
O166 O 0.62338 0.52589 0.60655 0.0
O167 O 0.58883 0.47073 0.53689 0.0
O168 O 0.49851 0.4913 0.54688 0.0
C169 C 0.46173 0.51212 0.54356 0.0
O170 O 0.50202 0.60356 0.7253 0.0
O171 O 0.54072 0.57683 0.58647 0.0
O172 O 0.58982 0.5409 0.80406 0.0
O173 O 0.40998 0.52531 0.80964 0.0
O174 O 0.44493 0.56649 0.92479 0.0
O175 O 0.5346 0.5331 0.92013 0.0
C176 C 0.66387 0.46617 0.55172 0.0
C177 C 0.68434 0.45858 0.45546 0.0
C178 C 0.69425 0.40077 0.62543 0.0
C179 C 0.70253 0.41872 0.43776 0.0
C180 C 0.6724 0.4394 0.64087 0.0
C181 C 0.702 0.38689 0.51898 0.0
C182 C 0.62521 0.49235 0.54399 0.0
C183 C 0.52264 0.60983 0.63351 0.0
H184 H 0.39716 0.61496 0.73979 0.0
H185 H 0.31906 0.63291 0.0797 0.0
H186 H 0.37361 0.68621 0.79203 0.0
H187 H 0.34316 0.5619 0.02838 0.0
H188 H 0.6795 0.48031 0.38848 0.0
H189 H 0.69827 0.37915 0.69348 0.0
H190 H 0.70881 0.41076 0.35507 0.0
H191 H 0.6583 0.44584 0.71829 0.0
Eu192 Eu 0.02894 0.57433 0.66266 0.0
Eu193 Eu 0.99599 0.49807 0.81485 0.0
C194 C 0.09745 0.53085 0.83947 0.0
C195 C 0.08065 0.67767 0.54991 0.0
C196 C 0.10964 0.68355 0.63796 0.0
C197 C 0.12847 0.71761 0.4356 0.0
C198 C 0.14972 0.70327 0.62102 0.0
C199 C 0.08802 0.69941 0.45323 0.0
C200 C 0.16185 0.71229 0.51407 0.0
C201 C 0.05105 0.64065 0.54558 0.0
O202 O 1.00188 0.55508 0.93329 0.0
O203 O 1.00048 0.60894 0.80825 0.0
C204 C 0.99831 0.59631 0.90989 0.0
O205 O 0.96352 0.55836 0.58853 0.0
O206 O 1.00124 0.4306 0.86283 0.0
O207 O 0.95451 0.47277 0.94075 0.0
O208 O 0.93353 0.52077 0.72673 0.0
C209 C 0.92965 0.54067 0.63219 0.0
O210 O 0.03576 0.51442 0.55247 0.0
O211 O 0.99914 0.46435 0.65108 0.0
O212 O 0.06833 0.50048 0.85674 0.0
O213 O 0.06948 0.60316 0.54129 0.0
O214 O 1.01862 0.64074 0.61005 0.0
O215 O 0.08848 0.56306 0.77304 0.0
C216 C 0.95734 0.39845 1.00042 0.0
C217 C 0.93968 0.36137 0.95076 0.0
C218 C 0.92331 0.37932 0.16676 0.0
C219 C 0.91009 0.33587 1.00629 0.0
C220 C 0.95197 0.40522 0.11079 0.0
C221 C 0.89791 0.34808 0.11056 0.0
C222 C 0.97133 0.43456 0.93394 0.0
C223 C 1.01808 0.47546 0.56112 0.0
H224 H 0.10385 0.66805 0.71486 0.0
H225 H 0.13512 0.72698 0.35344 0.0
H226 H 0.17399 0.70198 0.68576 0.0
H227 H 0.06523 0.69645 0.38591 0.0
H228 H 0.94414 0.35544 0.86544 0.0
H229 H 0.9158 0.38924 0.24799 0.0
H230 H 0.89173 0.31139 0.96185 0.0
H231 H 0.96597 0.43343 0.15055 0.0
C232 C 0.19888 0.05509 0.46401 0.0
C233 C 0.19185 0.05149 0.35026 0.0
C234 C 0.16467 0.05666 0.53836 0.0
C235 C 0.12064 0.05479 0.50476 0.0
H236 H 0.23155 0.05319 0.497 0.0
H237 H 0.17311 0.05754 0.62397 0.0
S238 S 0.08291 0.05099 0.21585 0.0
N239 N 0.13601 0.0503 0.20875 0.0
N240 N 0.07243 0.05316 0.34601 0.0
C241 C 0.1129 0.0537 0.39097 0.0
C242 C 0.14797 0.05203 0.31512 0.0
C243 C 0.5005 0.20871 0.4455 0.0
C244 C 0.50709 0.20028 0.33452 0.0
C245 C 0.49659 0.17537 0.52336 0.0
C246 C 0.49824 0.13137 0.49495 0.0
H247 H 0.50237 0.24165 0.4743 0.0
H248 H 0.49414 0.18436 0.6076 0.0
S249 S 0.51101 0.09097 0.21454 0.0
N250 N 0.51285 0.14387 0.20074 0.0
N251 N 0.50354 0.08161 0.34421 0.0
C252 C 0.50166 0.1224 0.38311 0.0
C253 C 0.5065 0.1565 0.30415 0.0
C254 C 0.36502 0.48654 0.35017 0.0
C255 C 0.35942 0.52592 0.29427 0.0
C256 C 0.40077 0.47996 0.42332 0.0
C257 C 0.43212 0.51266 0.44462 0.0
H258 H 0.33975 0.46216 0.34493 0.0
H259 H 0.40188 0.45045 0.46995 0.0
S260 S 0.43245 0.62143 0.32245 0.0
N261 N 0.39042 0.59703 0.26341 0.0
N262 N 0.45478 0.58539 0.40347 0.0
C263 C 0.42797 0.551 0.38538 0.0
C264 C 0.39272 0.55727 0.30927 0.0
C265 C 0.04568 0.42034 0.28833 0.0
C266 C 0.02839 0.37795 0.29563 0.0
C267 C 0.041 0.45172 0.37115 0.0
C268 C 1.01943 0.44253 0.46804 0.0
H269 H 0.06541 0.42861 0.22029 0.0
H270 H 0.05614 0.483 0.36073 0.0
S271 S 0.96688 0.33666 0.52798 0.0
N272 N 0.9876 0.32932 0.40793 0.0
N273 N 0.97854 0.38703 0.56189 0.0
C274 C 1.00043 0.40065 0.47432 0.0
C275 C 1.00498 0.36894 0.38933 0.0
C276 C 0.8402 0.02743 0.04989 0.0
C277 C 0.85003 0.02058 0.16142 0.0
C278 C 0.87254 0.03 0.97011 0.0
C279 C 0.91705 0.02496 0.9958 0.0
H280 H 0.8067 0.02807 1.02266 0.0
H281 H 0.86216 0.03432 0.88646 0.0
S282 S 0.96137 1.00872 0.27586 0.0
N283 N 0.90872 1.01051 0.2921 0.0
N284 N 0.96876 0.01554 0.1452 0.0
C285 C 0.92747 0.01975 0.10757 0.0
C286 C 0.89447 0.0174 0.18875 0.0
C287 C 0.53901 0.84956 0.03559 0.0
C288 C 0.53404 0.85812 0.14738 0.0
C289 C 0.54021 0.88264 0.95627 0.0
C290 C 0.53708 0.92663 0.98352 0.0
H291 H 0.53842 0.81646 1.00786 0.0
H292 H 0.54195 0.87335 0.87207 0.0
S293 S 0.53021 0.96778 0.26579 0.0
N294 N 0.53025 0.91492 0.28076 0.0
N295 N 0.53356 0.97676 0.13452 0.0
C296 C 0.53523 0.93591 0.09583 0.0
C297 C 0.53345 0.902 0.17643 0.0
C298 C 0.68245 0.55302 0.06981 0.0
C299 C 0.68013 0.51998 0.1479 0.0
C300 C 0.648 0.5605 0.99416 0.0
C301 C 0.60911 0.53614 0.995 0.0
H302 H 0.71216 0.57139 0.06243 0.0
H303 H 0.65242 0.58468 0.93215 0.0
S304 S 0.58607 0.44587 0.18233 0.0
N305 N 0.63518 0.46232 0.21888 0.0
N306 N 0.57051 0.47806 0.08279 0.0
C307 C 0.60566 0.50445 0.07578 0.0
C308 C 0.64102 0.49595 0.15031 0.0
C309 C 1.01223 0.65622 0.18551 0.0
C310 C 0.99567 0.69795 0.16553 0.0
C311 C 1.01072 0.62304 0.10571 0.0
C312 C 0.99357 0.6298 0.99974 0.0
H313 H 0.02972 0.65003 0.26077 0.0
H314 H 0.02583 0.59268 0.12531 0.0
S315 S 0.94255 0.73145 0.90636 0.0
N316 N 0.95856 0.74221 0.03221 0.0
N317 N 0.9561 0.68107 0.88368 0.0
C318 C 0.97471 0.67043 0.98068 0.0
C319 C 0.97557 0.70385 0.06259 0.0
C320 C 0.11147 0.28115 0.4466 0.0
C321 C 0.12922 0.27 0.34647 0.0
C322 C 0.0817 0.25274 0.49237 0.0
C323 C 0.07701 0.2104 0.45209 0.0
H324 H 0.11091 0.31435 0.47302 0.0
H325 H 0.05992 0.26573 0.55036 0.0
S326 S 0.15618 0.15855 0.27605 0.0
N327 N 0.16718 0.21059 0.26716 0.0
N328 N 0.11588 0.15372 0.36018 0.0
C329 C 0.11008 0.19565 0.38587 0.0
C330 C 0.13816 0.22611 0.3368 0.0
C331 C 0.27846 0.91759 0.43945 0.0
C332 C 0.27715 0.9213 0.32602 0.0
C333 C 0.29879 0.88278 0.48991 0.0
C334 C 0.32113 0.85252 0.42804 0.0
H335 H 0.26776 0.94362 0.48996 0.0
H336 H 0.3033 0.88465 0.5769 0.0
S337 S 0.302 0.83488 0.13389 0.0
N338 N 0.28365 0.8835 0.15605 0.0
N339 N 0.31843 0.8161 0.25329 0.0
C340 C 0.30847 0.84966 0.31769 0.0
C341 C 0.28907 0.88565 0.26527 0.0
C342 C 0.67397 0.30389 0.31298 0.0
C343 C 0.63474 0.28898 0.35298 0.0
C344 C 0.70251 0.3284 0.37865 0.0
C345 C 0.69112 0.34168 0.48347 0.0
H346 H 0.68118 0.29931 0.22853 0.0
H347 H 0.73035 0.3421 0.34078 0.0
S348 S 0.59889 0.29718 0.63645 0.0
N349 N 0.59161 0.27839 0.51255 0.0
N350 N 0.64432 0.32522 0.63426 0.0
C351 C 0.65599 0.31977 0.53 0.0
C352 C 0.62743 0.29403 0.46412 0.0
C353 C 0.23703 0.62348 0.45862 0.0
C354 C 0.24755 0.63253 0.35167 0.0
C355 C 0.21518 0.65339 0.51953 0.0
C356 C 0.20268 0.69348 0.47533 0.0
H357 H 0.24257 0.59176 0.49248 0.0
H358 H 0.2036 0.64231 0.5964 0.0
S359 S 0.23744 0.73721 0.21181 0.0
N360 N 0.25406 0.68693 0.21227 0.0
N361 N 0.2144 0.7446 0.32919 0.0
C362 C 0.2197 0.7052 0.37472 0.0
C363 C 0.24129 0.67418 0.3116 0.0
C364 C 0.15304 0.81232 0.1905 0.0
C365 C 0.11296 0.80169 0.14325 0.0
C366 C 0.18374 0.83495 0.13211 0.0
C367 C 0.17416 0.85087 1.02711 0.0
H368 H 0.15955 0.80565 0.27533 0.0
H369 H 0.21241 0.8451 0.17632 0.0
S370 S 0.07527 0.82293 0.86135 0.0
N371 N 0.06726 0.80088 0.98051 0.0
N372 N 0.12366 0.84547 0.87125 0.0
C373 C 0.13587 0.83518 0.97454 0.0
C374 C 0.10518 0.81089 0.03341 0.0
C375 C 0.75807 0.91822 0.04756 0.0
C376 C 0.74904 0.90598 0.15475 0.0
C377 C 0.73067 0.9482 0.99695 0.0
C378 C 0.68996 0.9564 0.04082 0.0
H379 H 0.79036 0.91543 1.0176 0.0
H380 H 0.74344 0.96716 0.93163 0.0
S381 S 0.63825 0.8837 0.23919 0.0
N382 N 0.68975 0.8708 0.24506 0.0
N383 N 0.63351 0.92228 0.14738 0.0
C384 C 0.67495 0.9258 0.11623 0.0
C385 C 0.70501 0.89765 0.16804 0.0
C386 C 0.38614 0.76306 0.10474 0.0
C387 C 0.42463 0.74794 0.15172 0.0
C388 C 0.36004 0.73642 0.03728 0.0
C389 C 0.37389 0.69501 1.01133 0.0
H390 H 0.37738 0.79579 0.11935 0.0
H391 H 0.32966 0.74822 1.00454 0.0
S392 S 0.48018 0.64731 0.08358 0.0
N393 N 0.47996 0.69355 0.14877 0.0
N394 N 0.43274 0.644 1.02034 0.0
C395 C 0.41473 0.68163 0.04971 0.0
C396 C 0.44004 0.70808 0.11964 0.0
C397 C 0.79108 0.39213 0.09575 0.0
C398 C 0.78712 0.4019 0.20592 0.0
C399 C 0.82249 0.36351 0.06257 0.0
C400 C 0.8518 0.34543 0.13873 0.0
H401 H 0.77427 0.41079 0.0341 0.0
H402 H 0.82864 0.36228 0.9768 0.0
S403 S 0.84074 0.34459 0.43566 0.0
N404 N 0.80403 0.3788 0.39093 0.0
N405 N 0.86378 0.32572 0.32691 0.0
C406 C 0.84089 0.34654 0.24794 0.0
C407 C 0.80888 0.37553 0.28226 0.0
C408 C 0.0556 0.23453 0.9385 0.0
C409 C 0.0323 0.2415 0.03406 0.0
C410 C 0.05087 0.19628 0.87524 0.0
C411 C 0.02348 0.16193 0.90556 0.0
H412 H 0.07968 0.25811 0.91537 0.0
H413 H 0.07078 0.19262 0.80538 0.0
S414 S 0.95079 0.16462 0.13906 0.0
N415 N 0.97731 0.2111 0.1482 0.0
N416 N 0.96936 0.13958 0.03248 0.0
C417 C 0.99851 0.16912 0.99771 0.0
C418 C 1.00264 0.2085 0.0608 0.0
C419 C 0.35668 0.06241 0.085 0.0
C420 C 0.32036 0.03493 0.06538 0.0
C421 C 0.39274 0.06412 1.01452 0.0
C422 C 0.39551 0.03792 0.92029 0.0
H423 H 0.35842 0.08122 0.15879 0.0
H424 H 0.41965 0.08514 0.03711 0.0
S425 S 0.30903 0.96044 0.82964 0.0
N426 N 0.29001 0.98142 0.94104 0.0
N427 N 0.35631 0.98415 0.81217 0.0
C428 C 0.35886 1.01112 0.89871 0.0
C429 C 0.32214 1.00974 0.96965 0.0
C430 C 0.55819 0.33563 0.96911 0.0
C431 C 0.5305 0.32901 0.05725 0.0
C432 C 0.55381 0.37087 0.89616 0.0
C433 C 0.52138 0.40202 0.90626 0.0
H434 H 0.58475 0.31391 0.95843 0.0
H435 H 0.57682 0.37414 0.83232 0.0
S436 S 0.44161 0.40202 0.12633 0.0
N437 N 0.47014 0.35842 0.15137 0.0
N438 N 0.4614 0.42371 1.01589 0.0
C439 C 0.49301 0.39552 0.99336 0.0
C440 C 0.49764 0.35955 0.06788 0.0
C441 C 0.185 0.50323 0.05918 0.0
C442 C 0.21833 0.53382 0.04321 0.0
C443 C 0.14741 0.50108 0.99036 0.0
C444 C 0.14062 0.52991 0.90256 0.0
H445 H 0.18663 0.48253 0.12968 0.0
H446 H 0.12245 0.47788 1.00994 0.0
S447 S 0.21916 0.6149 0.82239 0.0
N448 N 0.2424 0.59237 0.92955 0.0
N449 N 0.17303 0.58859 0.80137 0.0
C450 C 0.17471 0.55938 0.88319 0.0
C451 C 0.21293 0.56128 0.95289 0.0
C452 C 0.04258 0.842 0.52347 0.0
C453 C 1.01268 0.8328 0.43696 0.0
C454 C 0.03979 0.87911 0.59087 0.0
C455 C 1.00699 0.91008 0.57654 0.0
H456 H 0.07003 0.82119 0.53599 0.0
H457 H 0.06486 0.88433 0.65245 0.0
S458 S 0.91908 0.90137 0.36454 0.0
N459 N 0.94826 0.85823 0.34366 0.0
N460 N 0.94229 0.92673 0.4689 0.0
C461 C 0.97582 0.9004 0.49276 0.0
C462 C 0.9788 0.86244 0.42402 0.0
C463 C 0.70983 0.98751 0.5297 0.0
C464 C 0.71809 1.01248 0.43565 0.0
C465 C 0.67213 0.99212 0.59199 0.0
C466 C 0.63932 0.02145 0.5635 0.0
H467 H 0.7321 0.96234 0.55287 0.0
H468 H 0.66778 0.97094 0.66055 0.0
S469 S 0.64644 0.1001 0.33737 0.0
N470 N 0.69085 0.07173 0.32658 0.0
N471 N 0.6205 0.07975 0.44098 0.0
C472 C 0.64791 0.04829 0.47344 0.0
C473 C 0.68684 0.04408 0.41082 0.0
C474 C 0.54686 0.69764 0.41656 0.0
C475 C 0.52414 0.73444 0.44847 0.0
C476 C 0.54736 0.6589 0.47848 0.0
C477 C 0.52476 0.65396 0.57631 0.0
H478 H 0.56186 0.69759 0.3385 0.0
H479 H 0.56434 0.63178 0.44607 0.0
S480 S 0.46089 0.74084 0.69922 0.0
N481 N 0.47911 0.76316 0.58778 0.0
N482 N 0.48029 0.69155 0.70328 0.0
C483 C 0.50333 0.69114 0.61155 0.0
C484 C 0.50293 0.73065 0.54834 0.0
C485 C 0.81343 0.51234 0.53198 0.0
C486 C 0.8101 0.53161 0.42819 0.0
C487 C 0.85082 0.51716 0.60001 0.0
C488 C 0.88711 0.5413 0.56755 0.0
H489 H 0.78822 0.49033 0.55713 0.0
H490 H 0.85212 0.49973 0.6759 0.0
S491 S 0.89351 0.60171 0.30731 0.0
N492 N 0.84549 0.57809 0.30022 0.0
N493 N 0.91485 0.5882 0.42626 0.0
C494 C 0.88284 0.5632 0.46687 0.0
C495 C 0.84474 0.55817 0.39806 0.0
loop_
_geom_bond_atom_site_label_1
_geom_bond_atom_site_label_2
_geom_bond_distance
_geom_bond_site_symmetry_2
_ccdc_geom_bond_type
H0 C3 0.931 . S
H1 C6 0.928 . S
H2 C8 0.930 . S
C3 H0 0.931 . S
C3 C4 1.413 . S
C3 C5 1.360 . S
C4 C3 1.413 . S
C4 C8 1.429 . S
C5 C3 1.360 . S
C5 C6 1.372 . S
C6 H1 0.928 . S
C6 C5 1.372 . S
C6 C7 1.404 . S
C7 C6 1.404 . S
C7 C8 1.391 . S
C8 H2 0.930 . S
C8 C4 1.429 . S
C8 C7 1.391 . S
H9 C12 0.931 . S
H10 C15 0.928 . S
H11 C17 0.930 . S
C12 H9 0.931 . S
C12 C13 1.413 . S
C12 C14 1.360 . S
C13 C12 1.413 . S
C13 C17 1.429 . S
C14 C12 1.360 . S
C14 C15 1.372 . S
C15 H10 0.928 . S
C15 C14 1.372 . S
C15 C16 1.404 . S
C16 C15 1.404 . S
C16 C17 1.391 . S
C17 H11 0.930 . S
C17 C13 1.429 . S
C17 C16 1.391 . S
H18 C21 0.931 . S
H19 C24 0.928 . S
H20 C26 0.930 . S
C21 H18 0.931 . S
C21 C22 1.413 . S
C21 C23 1.360 . S
C22 C21 1.413 . S
C22 C26 1.429 . S
C23 C21 1.360 . S
C23 C24 1.372 . S
C24 H19 0.928 . S
C24 C23 1.372 . S
C24 C25 1.404 . S
C25 C24 1.404 . S
C25 C26 1.391 . S
C26 H20 0.930 . S
C26 C22 1.429 . S
C26 C25 1.391 . S
H27 C30 0.931 . S
H28 C33 0.928 . S
H29 C35 0.930 . S
C30 H27 0.931 . S
C30 C31 1.413 . S
C30 C32 1.360 . S
C31 C30 1.413 . S
C31 C35 1.429 . S
C32 C30 1.360 . S
C32 C33 1.372 . S
C33 H28 0.928 . S
C33 C32 1.372 . S
C33 C34 1.404 . S
C34 C33 1.404 . S
C34 C35 1.391 . S
C35 H29 0.930 . S
C35 C31 1.429 . S
C35 C34 1.391 . S
H36 C39 0.931 . S
H37 C42 0.928 . S
H38 C44 0.930 . S
C39 H36 0.931 . S
C39 C40 1.413 1_554 S
C39 C41 1.360 . S
C40 C39 1.413 1_556 S
C40 C44 1.429 . S
C41 C39 1.360 . S
C41 C42 1.372 . S
C42 H37 0.928 . S
C42 C41 1.372 . S
C42 C43 1.404 . S
C43 C42 1.404 . S
C43 C44 1.391 1_554 S
C44 H38 0.930 . S
C44 C40 1.429 . S
C44 C43 1.391 1_556 S
H45 C48 0.931 1_556 S
H46 C51 0.928 . S
H47 C53 0.930 . S
C48 H45 0.931 1_554 S
C48 C49 1.413 1_554 S
C48 C50 1.360 . S
C49 C48 1.413 1_556 S
C49 C53 1.429 . S
C50 C48 1.360 . S
C50 C51 1.372 . S
C51 H46 0.928 . S
C51 C50 1.372 . S
C51 C52 1.404 . S
C52 C51 1.404 . S
C52 C53 1.391 1_554 S
C53 H47 0.930 . S
C53 C49 1.429 . S
C53 C52 1.391 1_556 S
H54 C57 0.931 . S
H55 C60 0.928 . S
H56 C62 0.930 . S
C57 H54 0.931 . S
C57 C58 1.413 . S
C57 C59 1.360 1_556 S
C58 C57 1.413 . S
C58 C62 1.429 . S
C59 C57 1.360 1_554 S
C59 C60 1.372 . S
C60 H55 0.928 . S
C60 C59 1.372 . S
C60 C61 1.404 . S
C61 C60 1.404 . S
C61 C62 1.391 1_554 S
C62 H56 0.930 . S
C62 C58 1.429 . S
C62 C61 1.391 1_556 S
H63 C66 0.931 . S
H64 C69 0.928 . S
H65 C71 0.930 . S
C66 H63 0.931 . S
C66 C67 1.413 . S
C66 C68 1.360 1_554 S
C67 C66 1.413 . S
C67 C71 1.429 . S
C68 C66 1.360 1_556 S
C68 C69 1.372 . S
C69 H64 0.928 . S
C69 C68 1.372 . S
C69 C70 1.404 1_556 S
C70 C69 1.404 1_554 S
C70 C71 1.391 . S
C71 H65 0.930 . S
C71 C67 1.429 . S
C71 C70 1.391 . S
Eu72 C81 2.828 . S
Eu72 O83 2.392 . S
Eu72 O85 2.418 1_545 S
Eu72 O90 2.373 1_655 S
Eu72 O93 2.488 . S
Eu72 O94 2.471 . S
Eu72 O95 2.349 1_655 S
Eu73 O82 2.373 1_455 S
Eu73 O86 2.488 . S
Eu73 O87 2.471 . S
Eu73 O88 2.349 . S
Eu73 O91 2.392 1_565 S
Eu73 O92 2.418 1_565 S
Eu73 C102 2.828 . S
C74 O92 1.244 . S
C74 O95 1.265 . S
C75 C76 1.379 . S
C75 C79 1.373 . S
C75 C81 1.505 . S
C76 C75 1.379 . S
C76 C78 1.369 . S
C76 H104 0.930 1_655 S
C77 C79 1.383 . S
C77 C80 1.382 . S
C77 H105 0.930 . S
C78 C76 1.369 . S
C78 C80 1.392 . S
C78 H106 0.930 1_655 S
C79 C75 1.373 . S
C79 C77 1.383 . S
C79 H107 0.931 . S
C80 C77 1.382 . S
C80 C78 1.392 . S
C81 Eu72 2.828 . S
C81 C75 1.505 . S
C81 O93 1.249 . S
C81 O94 1.244 . S
O82 Eu73 2.373 1_655 S
O82 C84 1.258 . S
O83 Eu72 2.392 . S
O83 C84 1.242 1_545 S
C84 O82 1.258 . S
C84 O83 1.242 1_565 S
O85 Eu72 2.418 1_565 S
O85 C89 1.244 . S
O86 Eu73 2.488 . S
O86 C102 1.249 . S
O87 Eu73 2.471 . S
O87 C102 1.244 . S
O88 Eu73 2.349 . S
O88 C89 1.265 1_455 S
C89 O85 1.244 . S
C89 O88 1.265 1_655 S
O90 Eu72 2.373 1_455 S
O90 C103 1.258 . S
O91 Eu73 2.392 1_545 S
O91 C103 1.242 . S
O92 Eu73 2.418 1_545 S
O92 C74 1.244 . S
O93 Eu72 2.488 . S
O93 C81 1.249 . S
O94 Eu72 2.471 . S
O94 C81 1.244 . S
O95 Eu72 2.349 1_455 S
O95 C74 1.265 . S
C96 C97 1.379 . S
C96 C100 1.373 . S
C96 C102 1.505 1_554 S
C97 C96 1.379 . S
C97 C99 1.369 . S
C97 H108 0.930 . S
C98 C100 1.383 . S
C98 C101 1.382 . S
C98 H109 0.930 . S
C99 C97 1.369 . S
C99 C101 1.392 . S
C99 H110 0.930 . S
C100 C96 1.373 . S
C100 C98 1.383 . S
C100 H111 0.931 . S
C101 C98 1.382 . S
C101 C99 1.392 . S
C102 Eu73 2.828 . S
C102 O86 1.249 . S
C102 O87 1.244 . S
C102 C96 1.505 1_556 S
C103 O90 1.258 . S
C103 O91 1.242 . S
H104 C76 0.930 1_455 S
H105 C77 0.930 . S
H106 C78 0.930 1_455 S
H107 C79 0.931 . S
H108 C97 0.930 . S
H109 C98 0.930 . S
H110 C99 0.930 . S
H111 C100 0.931 . S
Eu112 C121 2.828 . S
Eu112 O123 2.392 . S
Eu112 O125 2.418 . S
Eu112 O130 2.373 . S
Eu112 O133 2.488 . S
Eu112 O134 2.471 . S
Eu112 O135 2.349 1_545 S
Eu113 O122 2.359 1_565 S
Eu113 O126 2.488 . S
Eu113 O127 2.471 . S
Eu113 O128 2.349 1_565 S
Eu113 O131 2.392 . S
Eu113 O132 2.418 . S
Eu113 C142 2.828 . S
C114 O132 1.244 . S
C114 O135 1.265 . S
C115 C116 1.379 1_556 S
C115 C119 1.373 . S
C115 C121 1.505 . S
C116 C115 1.379 1_554 S
C116 C118 1.369 . S
C116 H144 0.930 1_545 S
C117 C119 1.383 1_554 S
C117 C120 1.382 . S
C117 H145 0.930 . S
C118 C116 1.369 . S
C118 C120 1.392 . S
C118 H146 0.930 1_545 S
C119 C115 1.373 . S
C119 C117 1.383 1_556 S
C119 H147 0.931 . S
C120 C117 1.382 . S
C120 C118 1.392 . S
C121 Eu112 2.828 . S
C121 C115 1.505 . S
C121 O133 1.249 . S
C121 O134 1.244 . S
O122 Eu113 2.359 1_545 S
O122 C124 1.281 . S
O123 Eu112 2.392 . S
O123 C124 1.242 . S
C124 O122 1.281 . S
C124 O123 1.242 . S
O125 Eu112 2.418 . S
O125 C129 1.244 . S
O126 Eu113 2.488 . S
O126 C142 1.249 . S
O127 Eu113 2.471 . S
O127 C142 1.244 . S
O128 Eu113 2.349 1_545 S
O128 C129 1.265 . S
C129 O125 1.244 . S
C129 O128 1.265 . S
O130 Eu112 2.373 . S
O130 C143 1.258 1_545 S
O131 Eu113 2.392 . S
O131 C143 1.242 . S
O132 Eu113 2.418 . S
O132 C114 1.244 . S
O133 Eu112 2.488 . S
O133 C121 1.249 . S
O134 Eu112 2.471 . S
O134 C121 1.244 . S
O135 Eu112 2.349 1_565 S
O135 C114 1.265 . S
C136 C137 1.379 . S
C136 C140 1.373 . S
C136 C142 1.505 . S
C137 C136 1.379 . S
C137 C139 1.369 . S
C137 H148 0.930 1_565 S
C138 C140 1.383 . S
C138 C141 1.382 . S
C138 H149 0.930 . S
C139 C137 1.369 . S
C139 C141 1.392 . S
C139 H150 0.930 1_565 S
C140 C136 1.373 . S
C140 C138 1.383 . S
C140 H151 0.931 . S
C141 C138 1.382 . S
C141 C139 1.392 . S
C142 Eu113 2.828 . S
C142 O126 1.249 . S
C142 O127 1.244 . S
C142 C136 1.505 . S
C143 O130 1.258 1_565 S
C143 O131 1.242 . S
H144 C116 0.930 1_565 S
H145 C117 0.930 . S
H146 C118 0.930 1_565 S
H147 C119 0.931 . S
H148 C137 0.930 1_545 S
H149 C138 0.930 . S
H150 C139 0.930 1_545 S
H151 C140 0.931 . S
Eu152 C161 2.828 . S
Eu152 O163 2.392 . S
Eu152 O165 2.418 . S
Eu152 O170 2.373 . S
Eu152 O173 2.488 . S
Eu152 O174 2.471 . S
Eu152 O175 2.349 . S
Eu153 O162 2.373 . S
Eu153 O166 2.488 . S
Eu153 O167 2.471 . S
Eu153 O168 2.349 . S
Eu153 O171 2.392 . S
Eu153 O172 2.418 . S
Eu153 C182 2.828 . S
C154 O172 1.244 . S
C154 O175 1.265 . S
C155 C156 1.379 1_556 S
C155 C159 1.373 . S
C155 C161 1.505 . S
C156 C155 1.379 1_554 S
C156 C158 1.369 . S
C156 H184 0.930 . S
C157 C159 1.383 1_554 S
C157 C160 1.382 . S
C157 H185 0.930 . S
C158 C156 1.369 . S
C158 C160 1.392 . S
C158 H186 0.930 . S
C159 C155 1.373 . S
C159 C157 1.383 1_556 S
C159 H187 0.931 . S
C160 C157 1.382 . S
C160 C158 1.392 . S
C161 Eu152 2.828 . S
C161 C155 1.505 . S
C161 O173 1.249 . S
C161 O174 1.244 . S
O162 Eu153 2.373 . S
O162 C164 1.258 . S
O163 Eu152 2.392 . S
O163 C164 1.242 . S
C164 O162 1.258 . S
C164 O163 1.242 . S
O165 Eu152 2.418 . S
O165 C169 1.244 . S
O166 Eu153 2.488 . S
O166 C182 1.249 . S
O167 Eu153 2.471 . S
O167 C182 1.244 . S
O168 Eu153 2.349 . S
O168 C169 1.265 . S
C169 O165 1.244 . S
C169 O168 1.265 . S
O170 Eu152 2.373 . S
O170 C183 1.258 . S
O171 Eu153 2.392 . S
O171 C183 1.242 . S
O172 Eu153 2.418 . S
O172 C154 1.244 . S
O173 Eu152 2.488 . S
O173 C161 1.249 . S
O174 Eu152 2.471 . S
O174 C161 1.244 . S
O175 Eu152 2.349 . S
O175 C154 1.265 . S
C176 C177 1.379 . S
C176 C180 1.373 . S
C176 C182 1.505 . S
C177 C176 1.379 . S
C177 C179 1.369 . S
C177 H188 0.930 . S
C178 C180 1.383 . S
C178 C181 1.382 . S
C178 H189 0.930 . S
C179 C177 1.369 . S
C179 C181 1.392 . S
C179 H190 0.930 . S
C180 C176 1.373 . S
C180 C178 1.383 . S
C180 H191 0.931 . S
C181 C178 1.382 . S
C181 C179 1.392 . S
C182 Eu153 2.828 . S
C182 O166 1.249 . S
C182 O167 1.244 . S
C182 C176 1.505 . S
C183 O170 1.258 . S
C183 O171 1.242 . S
H184 C156 0.930 . S
H185 C157 0.930 . S
H186 C158 0.930 . S
H187 C159 0.931 . S
H188 C177 0.930 . S
H189 C178 0.930 . S
H190 C179 0.930 . S
H191 C180 0.931 . S
Eu192 C201 2.828 . S
Eu192 O203 2.392 . S
Eu192 O205 2.418 1_455 S
Eu192 O210 2.373 . S
Eu192 O213 2.488 . S
Eu192 O214 2.471 . S
Eu192 O215 2.349 . S
Eu193 O202 2.373 . S
Eu193 O206 2.488 . S
Eu193 O207 2.471 . S
Eu193 O208 2.349 . S
Eu193 O211 2.392 1_655 S
Eu193 O212 2.418 1_655 S
Eu193 C222 2.828 . S
C194 O212 1.244 . S
C194 O215 1.265 . S
C195 C196 1.379 . S
C195 C199 1.373 . S
C195 C201 1.505 . S
C196 C195 1.379 . S
C196 C198 1.369 . S
C196 H224 0.930 . S
C197 C199 1.383 . S
C197 C200 1.382 . S
C197 H225 0.930 . S
C198 C196 1.369 . S
C198 C200 1.392 . S
C198 H226 0.930 . S
C199 C195 1.373 . S
C199 C197 1.383 . S
C199 H227 0.931 . S
C200 C197 1.382 . S
C200 C198 1.392 . S
C201 Eu192 2.828 . S
C201 C195 1.505 . S
C201 O213 1.249 . S
C201 O214 1.244 . S
O202 Eu193 2.373 . S
O202 C204 1.258 . S
O203 Eu192 2.392 . S
O203 C204 1.242 1_455 S
C204 O202 1.258 . S
C204 O203 1.242 1_655 S
O205 Eu192 2.418 1_655 S
O205 C209 1.244 . S
O206 Eu193 2.488 . S
O206 C222 1.249 . S
O207 Eu193 2.471 . S
O207 C222 1.244 . S
O208 Eu193 2.349 . S
O208 C209 1.265 . S
C209 O205 1.244 . S
C209 O208 1.265 . S
O210 Eu192 2.373 . S
O210 C223 1.258 . S
O211 Eu193 2.392 1_455 S
O211 C223 1.242 . S
O212 Eu193 2.418 1_455 S
O212 C194 1.244 . S
O213 Eu192 2.488 . S
O213 C201 1.249 . S
O214 Eu192 2.471 . S
O214 C201 1.244 . S
O215 Eu192 2.349 . S
O215 C194 1.265 . S
C216 C217 1.379 . S
C216 C220 1.373 . S
C216 C222 1.505 1_554 S
C217 C216 1.379 . S
C217 C219 1.369 . S
C217 H228 0.930 1_554 S
C218 C220 1.383 . S
C218 C221 1.382 . S
C218 H229 0.930 . S
C219 C217 1.369 . S
C219 C221 1.392 . S
C219 H230 0.930 . S
C220 C216 1.373 . S
C220 C218 1.383 . S
C220 H231 0.931 . S
C221 C218 1.382 . S
C221 C219 1.392 . S
C222 Eu193 2.828 . S
C222 O206 1.249 . S
C222 O207 1.244 . S
C222 C216 1.505 1_556 S
C223 O210 1.258 . S
C223 O211 1.242 . S
H224 C196 0.930 . S
H225 C197 0.930 . S
H226 C198 0.930 . S
H227 C199 0.931 . S
H228 C217 0.930 1_556 S
H229 C218 0.930 . S
H230 C219 0.930 . S
H231 C220 0.931 . S
C232 C233 1.369 . S
C232 C234 1.419 . S
C232 H236 0.930 . S
C233 C232 1.369 . S
C233 C242 1.429 . S
C234 C232 1.419 . S
C234 C235 1.363 . S
C234 H237 0.929 . S
C235 C234 1.363 . S
C235 C241 1.428 . S
H236 C232 0.930 . S
H237 C234 0.929 . S
S238 N239 1.613 . S
S238 N240 1.610 . S
N239 S238 1.613 . S
N239 C242 1.350 . S
N240 S238 1.610 . S
N240 C241 1.351 . S
C241 C235 1.428 . S
C241 N240 1.351 . S
C241 C242 1.434 . S
C242 C233 1.429 . S
C242 N239 1.350 . S
C242 C241 1.434 . S
C243 C244 1.369 . S
C243 C245 1.419 . S
C243 H247 0.930 . S
C244 C243 1.369 . S
C244 C253 1.429 . S
C245 C243 1.419 . S
C245 C246 1.363 . S
C245 H248 0.929 . S
C246 C245 1.363 . S
C246 C252 1.428 . S
H247 C243 0.930 . S
H248 C245 0.929 . S
S249 N250 1.613 . S
S249 N251 1.610 . S
N250 S249 1.613 . S
N250 C253 1.350 . S
N251 S249 1.610 . S
N251 C252 1.351 . S
C252 C246 1.428 . S
C252 N251 1.351 . S
C252 C253 1.434 . S
C253 C244 1.429 . S
C253 N250 1.350 . S
C253 C252 1.434 . S
C254 C255 1.369 . S
C254 C256 1.419 . S
C254 H258 0.930 . S
C255 C254 1.369 . S
C255 C264 1.429 . S
C256 C254 1.419 . S
C256 C257 1.363 . S
C256 H259 0.929 . S
C257 C256 1.363 . S
C257 C263 1.428 . S
H258 C254 0.930 . S
H259 C256 0.929 . S
S260 N261 1.613 . S
S260 N262 1.610 . S
N261 S260 1.613 . S
N261 C264 1.350 . S
N262 S260 1.610 . S
N262 C263 1.351 . S
C263 C257 1.428 . S
C263 N262 1.351 . S
C263 C264 1.434 . S
C264 C255 1.429 . S
C264 N261 1.350 . S
C264 C263 1.434 . S
C265 C266 1.369 . S
C265 C267 1.419 . S
C265 H269 0.930 . S
C266 C265 1.369 . S
C266 C275 1.429 . S
C267 C265 1.419 . S
C267 C268 1.363 . S
C267 H270 0.929 . S
C268 C267 1.363 . S
C268 C274 1.428 . S
H269 C265 0.930 . S
H270 C267 0.929 . S
S271 N272 1.613 . S
S271 N273 1.610 . S
N272 S271 1.613 . S
N272 C275 1.350 1_655 S
N273 S271 1.610 . S
N273 C274 1.351 1_655 S
C274 C268 1.428 . S
C274 N273 1.351 1_455 S
C274 C275 1.434 . S
C275 C266 1.429 . S
C275 N272 1.350 1_455 S
C275 C274 1.434 . S
C276 C277 1.369 . S
C276 C278 1.419 . S
C276 H280 0.930 . S
C277 C276 1.369 . S
C277 C286 1.429 1_565 S
C278 C276 1.419 . S
C278 C279 1.363 . S
C278 H281 0.929 . S
C279 C278 1.363 . S
C279 C285 1.428 1_565 S
H280 C276 0.930 . S
H281 C278 0.929 . S
S282 N283 1.613 . S
S282 N284 1.610 . S
N283 S282 1.613 . S
N283 C286 1.350 . S
N284 S282 1.610 . S
N284 C285 1.351 . S
C285 C279 1.428 1_545 S
C285 N284 1.351 . S
C285 C286 1.434 . S
C286 C277 1.429 1_545 S
C286 N283 1.350 . S
C286 C285 1.434 . S
C287 C288 1.369 . S
C287 C289 1.419 . S
C287 H291 0.930 . S
C288 C287 1.369 . S
C288 C297 1.429 . S
C289 C287 1.419 . S
C289 C290 1.363 1_554 S
C289 H292 0.929 . S
C290 C289 1.363 1_556 S
C290 C296 1.428 1_556 S
H291 C287 0.930 . S
H292 C289 0.929 . S
S293 N294 1.613 . S
S293 N295 1.610 1_554 S
N294 S293 1.613 . S
N294 C297 1.350 . S
N295 S293 1.610 1_556 S
N295 C296 1.351 1_556 S
C296 C290 1.428 1_554 S
C296 N295 1.351 1_554 S
C296 C297 1.434 . S
C297 C288 1.429 . S
C297 N294 1.350 . S
C297 C296 1.434 . S
C298 C299 1.369 . S
C298 C300 1.419 . S
C298 H302 0.930 . S
C299 C298 1.369 . S
C299 C308 1.429 . S
C300 C298 1.419 . S
C300 C301 1.363 1_554 S
C300 H303 0.929 . S
C301 C300 1.363 1_556 S
C301 C307 1.428 1_556 S
H302 C298 0.930 . S
H303 C300 0.929 . S
S304 N305 1.613 . S
S304 N306 1.610 1_554 S
N305 S304 1.613 . S
N305 C308 1.350 . S
N306 S304 1.610 1_556 S
N306 C307 1.351 1_556 S
C307 C301 1.428 1_554 S
C307 N306 1.351 1_554 S
C307 C308 1.434 . S
C308 C299 1.429 . S
C308 N305 1.350 . S
C308 C307 1.434 . S
C309 C310 1.369 1_455 S
C309 C311 1.419 . S
C309 H313 0.930 . S
C310 C309 1.369 1_655 S
C310 C319 1.429 . S
C311 C309 1.419 . S
C311 C312 1.363 1_455 S
C311 H314 0.929 . S
C312 C311 1.363 1_655 S
C312 C318 1.428 . S
H313 C309 0.930 . S
H314 C311 0.929 . S
S315 N316 1.613 . S
S315 N317 1.610 . S
N316 S315 1.613 . S
N316 C319 1.350 . S
N317 S315 1.610 . S
N317 C318 1.351 . S
C318 C312 1.428 . S
C318 N317 1.351 . S
C318 C319 1.434 . S
C319 C310 1.429 . S
C319 N316 1.350 . S
C319 C318 1.434 . S
C320 C321 1.369 . S
C320 C322 1.419 1_455 S
C320 H324 0.930 1_455 S
C321 C320 1.369 . S
C321 C330 1.429 . S
C322 C320 1.419 1_655 S
C322 C323 1.363 . S
C322 H325 0.929 . S
C323 C322 1.363 . S
C323 C329 1.428 1_655 S
H324 C320 0.930 1_655 S
H325 C322 0.929 . S
S326 N327 1.613 . S
S326 N328 1.610 . S
N327 S326 1.613 . S
N327 C330 1.350 . S
N328 S326 1.610 . S
N328 C329 1.351 . S
C329 C323 1.428 1_455 S
C329 N328 1.351 . S
C329 C330 1.434 . S
C330 C321 1.429 . S
C330 N327 1.350 . S
C330 C329 1.434 . S
C331 C332 1.369 . S
C331 C333 1.419 . S
C331 H335 0.930 . S
C332 C331 1.369 . S
C332 C341 1.429 1_545 S
C333 C331 1.419 . S
C333 C334 1.363 1_545 S
C333 H336 0.929 . S
C334 C333 1.363 1_565 S
C334 C340 1.428 . S
H335 C331 0.930 . S
H336 C333 0.929 . S
S337 N338 1.613 . S
S337 N339 1.610 . S
N338 S337 1.613 . S
N338 C341 1.350 . S
N339 S337 1.610 . S
N339 C340 1.351 . S
C340 C334 1.428 . S
C340 N339 1.351 . S
C340 C341 1.434 . S
C341 C332 1.429 1_565 S
C341 N338 1.350 . S
C341 C340 1.434 . S
C342 C343 1.369 . S
C342 C344 1.419 . S
C342 H346 0.930 . S
C343 C342 1.369 . S
C343 C352 1.429 . S
C344 C342 1.419 . S
C344 C345 1.363 . S
C344 H347 0.929 . S
C345 C344 1.363 . S
C345 C351 1.428 . S
H346 C342 0.930 . S
H347 C344 0.929 . S
S348 N349 1.613 . S
S348 N350 1.610 . S
N349 S348 1.613 . S
N349 C352 1.350 . S
N350 S348 1.610 . S
N350 C351 1.351 . S
C351 C345 1.428 . S
C351 N350 1.351 . S
C351 C352 1.434 . S
C352 C343 1.429 . S
C352 N349 1.350 . S
C352 C351 1.434 . S
C353 C354 1.369 . S
C353 C355 1.419 . S
C353 H357 0.930 . S
C354 C353 1.369 . S
C354 C363 1.429 . S
C355 C353 1.419 . S
C355 C356 1.363 . S
C355 H358 0.929 . S
C356 C355 1.363 . S
C356 C362 1.428 . S
H357 C353 0.930 . S
H358 C355 0.929 . S
S359 N360 1.613 . S
S359 N361 1.610 . S
N360 S359 1.613 . S
N360 C363 1.350 . S
N361 S359 1.610 . S
N361 C362 1.351 . S
C362 C356 1.428 . S
C362 N361 1.351 . S
C362 C363 1.434 . S
C363 C354 1.429 . S
C363 N360 1.350 . S
C363 C362 1.434 . S
C364 C365 1.369 1_455 S
C364 C366 1.419 . S
C364 H368 0.930 . S
C365 C364 1.369 1_655 S
C365 C374 1.429 . S
C366 C364 1.419 . S
C366 C367 1.363 . S
C366 H369 0.929 . S
C367 C366 1.363 . S
C367 C373 1.413 1_455 S
H368 C364 0.930 . S
H369 C366 0.929 . S
S370 N371 1.613 . S
S370 N372 1.610 . S
N371 S370 1.613 . S
N371 C374 1.350 . S
N372 S370 1.610 . S
N372 C373 1.355 . S
C373 C367 1.413 1_655 S
C373 N372 1.355 . S
C373 C374 1.447 . S
C374 C365 1.429 . S
C374 N371 1.350 . S
C374 C373 1.447 . S
C375 C376 1.369 1_545 S
C375 C377 1.419 . S
C375 H379 0.930 1_545 S
C376 C375 1.369 1_565 S
C376 C385 1.429 1_565 S
C377 C375 1.419 . S
C377 C378 1.363 . S
C377 H380 0.929 . S
C378 C377 1.363 . S
C378 C384 1.428 . S
H379 C375 0.930 1_565 S
H380 C377 0.929 . S
S381 N382 1.613 1_545 S
S381 N383 1.610 . S
N382 S381 1.613 1_565 S
N382 C385 1.350 1_565 S
N383 S381 1.610 . S
N383 C384 1.351 . S
C384 C378 1.428 . S
C384 N383 1.351 . S
C384 C385 1.434 . S
C385 C376 1.429 1_545 S
C385 N382 1.350 1_545 S
C385 C384 1.434 . S
C386 C387 1.369 . S
C386 C388 1.419 . S
C386 H390 0.930 . S
C387 C386 1.369 . S
C387 C396 1.429 . S
C388 C386 1.419 . S
C388 C389 1.363 . S
C388 H391 0.929 . S
C389 C388 1.363 . S
C389 C395 1.428 . S
H390 C386 0.930 . S
H391 C388 0.929 . S
S392 N393 1.613 . S
S392 N394 1.610 . S
N393 S392 1.613 . S
N393 C396 1.350 . S
N394 S392 1.610 . S
N394 C395 1.351 . S
C395 C389 1.428 . S
C395 N394 1.351 . S
C395 C396 1.434 . S
C396 C387 1.429 . S
C396 N393 1.350 . S
C396 C395 1.434 . S
C397 C398 1.369 . S
C397 C399 1.419 . S
C397 H401 0.930 . S
C398 C397 1.369 . S
C398 C407 1.429 . S
C399 C397 1.419 . S
C399 C400 1.363 . S
C399 H402 0.929 . S
C400 C399 1.363 . S
C400 C406 1.428 . S
H401 C397 0.930 . S
H402 C399 0.929 . S
S403 N404 1.613 . S
S403 N405 1.610 . S
N404 S403 1.613 . S
N404 C407 1.350 . S
N405 S403 1.610 . S
N405 C406 1.351 . S
C406 C400 1.428 . S
C406 N405 1.351 . S
C406 C407 1.434 . S
C407 C398 1.429 . S
C407 N404 1.350 . S
C407 C406 1.434 . S
C408 C409 1.369 . S
C408 C410 1.419 . S
C408 H412 0.930 . S
C409 C408 1.369 . S
C409 C418 1.429 . S
C410 C408 1.419 . S
C410 C411 1.363 . S
C410 H413 0.929 . S
C411 C410 1.363 . S
C411 C417 1.428 . S
H412 C408 0.930 . S
H413 C410 0.929 . S
S414 N415 1.613 . S
S414 N416 1.610 . S
N415 S414 1.613 . S
N415 C418 1.350 1_655 S
N416 S414 1.610 . S
N416 C417 1.351 1_655 S
C417 C411 1.428 . S
C417 N416 1.351 1_455 S
C417 C418 1.434 . S
C418 C409 1.429 . S
C418 N415 1.350 1_455 S
C418 C417 1.434 . S
C419 C420 1.369 . S
C419 C421 1.419 . S
C419 H423 0.930 . S
C420 C419 1.369 . S
C420 C429 1.429 . S
C421 C419 1.419 . S
C421 C422 1.363 . S
C421 H424 0.929 . S
C422 C421 1.363 . S
C422 C428 1.428 . S
H423 C419 0.930 . S
H424 C421 0.929 . S
S425 N426 1.613 . S
S425 N427 1.610 . S
N426 S425 1.613 . S
N426 C429 1.350 1_565 S
N427 S425 1.610 . S
N427 C428 1.351 1_565 S
C428 C422 1.428 . S
C428 N427 1.351 1_545 S
C428 C429 1.434 . S
C429 C420 1.429 . S
C429 N426 1.350 1_545 S
C429 C428 1.434 . S
C430 C431 1.369 . S
C430 C432 1.419 . S
C430 H434 0.930 . S
C431 C430 1.369 . S
C431 C440 1.429 . S
C432 C430 1.419 . S
C432 C433 1.363 . S
C432 H435 0.929 . S
C433 C432 1.363 . S
C433 C439 1.428 . S
H434 C430 0.930 . S
H435 C432 0.929 . S
S436 N437 1.613 . S
S436 N438 1.610 . S
N437 S436 1.613 . S
N437 C440 1.350 . S
N438 S436 1.610 . S
N438 C439 1.351 . S
C439 C433 1.428 . S
C439 N438 1.351 . S
C439 C440 1.434 . S
C440 C431 1.429 . S
C440 N437 1.350 . S
C440 C439 1.434 . S
C441 C442 1.369 . S
C441 C443 1.419 . S
C441 H445 0.930 . S
C442 C441 1.369 . S
C442 C451 1.429 . S
C443 C441 1.419 . S
C443 C444 1.363 . S
C443 H446 0.929 . S
C444 C443 1.363 . S
C444 C450 1.428 . S
H445 C441 0.930 . S
H446 C443 0.929 . S
S447 N448 1.613 . S
S447 N449 1.610 . S
N448 S447 1.613 . S
N448 C451 1.350 . S
N449 S447 1.610 . S
N449 C450 1.351 . S
C450 C444 1.428 . S
C450 N449 1.351 . S
C450 C451 1.434 . S
C451 C442 1.429 . S
C451 N448 1.350 . S
C451 C450 1.434 . S
C452 C453 1.369 1_455 S
C452 C454 1.419 . S
C452 H456 0.930 . S
C453 C452 1.369 1_655 S
C453 C462 1.429 . S
C454 C452 1.419 . S
C454 C455 1.363 1_455 S
C454 H457 0.929 . S
C455 C454 1.363 1_655 S
C455 C461 1.428 . S
H456 C452 0.930 . S
H457 C454 0.929 . S
S458 N459 1.613 . S
S458 N460 1.610 . S
N459 S458 1.613 . S
N459 C462 1.350 . S
N460 S458 1.610 . S
N460 C461 1.351 . S
C461 C455 1.428 . S
C461 N460 1.351 . S
C461 C462 1.434 . S
C462 C453 1.429 . S
C462 N459 1.350 . S
C462 C461 1.434 . S
C463 C464 1.369 . S
C463 C465 1.419 . S
C463 H467 0.930 . S
C464 C463 1.369 . S
C464 C473 1.429 . S
C465 C463 1.419 . S
C465 C466 1.363 . S
C465 H468 0.929 . S
C466 C465 1.363 . S
C466 C472 1.428 . S
H467 C463 0.930 . S
H468 C465 0.929 . S
S469 N470 1.613 . S
S469 N471 1.610 . S
N470 S469 1.613 . S
N470 C473 1.350 1_545 S
N471 S469 1.610 . S
N471 C472 1.351 1_545 S
C472 C466 1.428 . S
C472 N471 1.351 1_565 S
C472 C473 1.434 . S
C473 C464 1.429 . S
C473 N470 1.350 1_565 S
C473 C472 1.434 . S
C474 C475 1.369 . S
C474 C476 1.419 . S
C474 H478 0.930 . S
C475 C474 1.369 . S
C475 C484 1.429 . S
C476 C474 1.419 . S
C476 C477 1.363 . S
C476 H479 0.929 . S
C477 C476 1.363 . S
C477 C483 1.428 . S
H478 C474 0.930 . S
H479 C476 0.929 . S
S480 N481 1.613 . S
S480 N482 1.610 . S
N481 S480 1.613 . S
N481 C484 1.350 . S
N482 S480 1.610 . S
N482 C483 1.351 . S
C483 C477 1.428 . S
C483 N482 1.351 . S
C483 C484 1.434 . S
C484 C475 1.429 . S
C484 N481 1.350 . S
C484 C483 1.434 . S
C485 C486 1.369 . S
C485 C487 1.419 . S
C485 H489 0.930 . S
C486 C485 1.369 . S
C486 C495 1.429 . S
C487 C485 1.419 . S
C487 C488 1.363 . S
C487 H490 0.929 . S
C488 C487 1.363 . S
C488 C494 1.428 . S
H489 C485 0.930 . S
H490 C487 0.929 . S
S491 N492 1.613 . S
S491 N493 1.610 . S
N492 S491 1.613 . S
N492 C495 1.350 . S
N493 S491 1.610 . S
N493 C494 1.351 . S
C494 C488 1.428 . S
C494 N493 1.351 . S
C494 C495 1.434 . S
C495 C486 1.429 . S
C495 N492 1.350 . S
C495 C494 1.434 . S
C233 C61 2.257 . S
C235 C103 2.512 . S
C246 C129 2.264 . S
C244 C70 1.990 . S
C257 C169 2.254 . S
C255 C43 2.005 . S
C268 C223 2.498 . S
C266 C52 2.274 . S
C279 C84 2.509 1_554 S
C277 C25 2.265 . S
C288 C34 1.985 . S
C290 C114 2.265 . S
C299 C7 1.996 . S
C301 C154 2.255 . S
C310 C16 2.282 . S
C312 C204 2.497 1_554 S
C323 C80 0.863 . S
C321 C50 0.860 . S
C334 C141 0.980 . S
C332 C59 0.989 . S
C345 C181 0.822 . S
C343 C67 0.860 . S
C354 C41 0.762 . S
C356 C200 0.759 . S
C365 C14 0.879 . S
C367 C101 0.852 . S
C378 C120 0.964 . S
C376 C23 1.016 . S
C389 C160 0.822 . S
C387 C31 0.858 . S
C398 C5 0.749 . S
C400 C221 0.769 . S
C409 C49 2.046 . S
C411 C74 2.394 . S
C420 C58 2.464 . S
C422 C124 2.744 . S
C433 C164 2.614 . S
C431 C68 2.347 . S
C444 C194 2.240 . S
C442 C40 1.913 . S
C453 C13 2.048 . S
C455 C89 2.393 . S
C466 C143 2.744 . S
C464 C22 2.464 . S
C477 C183 2.613 . S
C475 C32 2.354 . S
C486 C4 1.915 . S
C488 C209 2.239 . S
