# Generated by pormake.
# Topology nom, (4,4)-cn, num edge types: 1
# Building blocks:
#     Node 0, Type 0, BuildingBlock: NAHDIM_clean_linker_0, # of connection points: 4
#     Node 1, Type 0, BuildingBlock: NAHDIM_clean_linker_0, # of connection points: 4
#     Node 2, Type 0, BuildingBlock: NAHDIM_clean_linker_0, # of connection points: 4
#     Node 3, Type 0, BuildingBlock: NAHDIM_clean_linker_0, # of connection points: 4
#     Node 4, Type 0, BuildingBlock: NAHDIM_clean_linker_0, # of connection points: 4
#     Node 5, Type 0, BuildingBlock: NAHDIM_clean_linker_0, # of connection points: 4
#     Node 6, Type 1, BuildingBlock: CEKHIL_clean_sbu_0, # of connection points: 4
#     Node 7, Type 1, BuildingBlock: CEKHIL_clean_sbu_0, # of connection points: 4
#     Node 8, Type 1, BuildingBlock: CEKHIL_clean_sbu_0, # of connection points: 4
#     Node 9, Type 1, BuildingBlock: CEKHIL_clean_sbu_0, # of connection points: 4
#     Node 10, Type 1, BuildingBlock: CEKHIL_clean_sbu_0, # of connection points: 4
#     Node 11, Type 1, BuildingBlock: CEKHIL_clean_sbu_0, # of connection points: 4
#     Edge 12, Type (0, 1), None
#     Edge 13, Type (0, 1), None
#     Edge 14, Type (0, 1), None
#     Edge 15, Type (0, 1), None
#     Edge 16, Type (0, 1), None
#     Edge 17, Type (0, 1), None
#     Edge 18, Type (0, 1), None
#     Edge 19, Type (0, 1), None
#     Edge 20, Type (0, 1), None
#     Edge 21, Type (0, 1), None
#     Edge 22, Type (0, 1), None
#     Edge 23, Type (0, 1), None
#     Edge 24, Type (0, 1), None
#     Edge 25, Type (0, 1), None
#     Edge 26, Type (0, 1), None
#     Edge 27, Type (0, 1), None
#     Edge 28, Type (0, 1), None
#     Edge 29, Type (0, 1), None
#     Edge 30, Type (0, 1), None
#     Edge 31, Type (0, 1), None
#     Edge 32, Type (0, 1), None
#     Edge 33, Type (0, 1), None
#     Edge 34, Type (0, 1), None
#     Edge 35, Type (0, 1), None
# Relax obj value: 0.045
# Max RMSD: 0.132
# Mean RMSD: 0.098
data_MOF--net-nom--node1-CEKHIL_clean_sbu_0--node2-NAHDIM_clean_linker_0--edge1-none
_symmetry_space_group_name_H-M    P1
_symmetry_Int_Tables_number       1
_symmetry_cell_setting            triclinic
loop_
_symmetry_equiv_pos_as_xyz
'x, y, z'
_cell_length_a     35.412987
_cell_length_b     34.894686
_cell_length_c     42.162003
_cell_angle_alpha  89.963614
_cell_angle_beta   90.139625
_cell_angle_gamma 121.55385
loop_
_atom_site_label
_atom_site_type_symbol
_atom_site_fract_x
_atom_site_fract_y
_atom_site_fract_z
_atom_type_partial_charge
C0 C 0.30664 0.82148 0.20067 0.0
C1 C 0.2982 0.77743 0.21508 0.0
C2 C 0.23749 0.73508 0.25192 0.0
C3 C 0.22669 0.69097 0.24581 0.0
C4 C 0.18486 0.65409 0.25395 0.0
C5 C 0.15283 0.66166 0.26773 0.0
C6 C 0.16381 0.70637 0.27369 0.0
C7 C 0.20649 0.74239 0.26651 0.0
C8 C 0.17495 0.60714 0.24762 0.0
C9 C 0.13044 0.7165 0.28711 0.0
C10 C 0.91257 0.53035 0.1156 0.0
C11 C 0.89023 0.48692 0.13548 0.0
C12 C 0.9483 0.50238 0.17466 0.0
C13 C 0.94665 0.53651 0.19113 0.0
C14 C 0.97564 0.5592 0.21647 0.0
C15 C 0.00559 0.54623 0.22635 0.0
C16 C 0.00693 0.51153 0.21009 0.0
C17 C 0.97848 0.49037 0.18425 0.0
C18 C 0.97391 0.59674 0.23283 0.0
C19 C 0.03815 0.49656 0.22016 0.0
C20 C 0.8248 0.45066 0.38694 0.0
C21 C 0.8469 0.49661 0.37936 0.0
C22 C 0.89341 0.52289 0.37865 0.0
C23 C 0.91846 0.50277 0.38528 0.0
C24 C 0.89633 0.45702 0.39442 0.0
C25 C 0.84974 0.43171 0.39552 0.0
C26 C 0.91575 0.57201 0.36995 0.0
C27 C 0.92186 0.43451 0.40181 0.0
C28 C 0.26002 0.72374 0.48733 0.0
C29 C 0.21729 0.67804 0.49148 0.0
C30 C 0.14432 0.65415 0.46813 0.0
C31 C 0.11854 0.67067 0.45661 0.0
C32 C 0.08225 0.64466 0.43652 0.0
C33 C 0.07152 0.60091 0.42789 0.0
C34 C 0.09512 0.58254 0.44164 0.0
C35 C 0.13126 0.6093 0.46178 0.0
C36 C 0.0573 0.66504 0.4228 0.0
C37 C 0.08376 0.53558 0.43352 0.0
C38 C 0.10744 0.62316 0.27485 0.0
C39 C 0.07849 0.60169 0.24939 0.0
C40 C 0.03435 0.56774 0.25441 0.0
C41 C 0.01791 0.55559 0.28564 0.0
C42 C 0.97327 0.52272 0.29151 0.0
C43 C 0.95669 0.51343 0.32224 0.0
C44 C 0.98435 0.53576 0.34838 0.0
C45 C 0.9672 0.52864 0.37957 0.0
C46 C 0.99619 0.54946 0.40522 0.0
C47 C 0.04184 0.5782 0.40033 0.0
C48 C 0.05902 0.58748 0.36911 0.0
C49 C 0.10442 0.61783 0.36323 0.0
C50 C 0.12053 0.6289 0.33243 0.0
C51 C 0.09201 0.60991 0.30627 0.0
C52 C 0.04676 0.57709 0.31165 0.0
C53 C 0.0301 0.56644 0.34309 0.0
C54 C 0.74991 0.40005 0.33464 0.0
C55 C 0.75129 0.42542 0.36469 0.0
O56 O 0.27763 0.77116 0.24416 0.0
O57 O 0.18162 0.68285 0.48471 0.0
O58 O 0.77978 0.42387 0.38667 0.0
O59 O 0.92204 0.4805 0.14928 0.0
H60 H 0.27656 0.75 0.1982 0.0
H61 H 0.27458 0.81949 0.19701 0.0
H62 H 0.32749 0.85018 0.21679 0.0
H63 H 0.32331 0.82765 0.1773 0.0
H64 H 0.25113 0.68538 0.23501 0.0
H65 H 0.21536 0.77666 0.27122 0.0
H66 H 0.15281 0.59314 0.22665 0.0
H67 H 0.20552 0.60668 0.24271 0.0
H68 H 0.15757 0.58481 0.26812 0.0
H69 H 0.14072 0.75221 0.28342 0.0
H70 H 0.09733 0.6947 0.27611 0.0
H71 H 0.12716 0.70992 0.31301 0.0
H72 H 0.86906 0.48897 0.15401 0.0
H73 H 0.93634 0.55981 0.13003 0.0
H74 H 0.93103 0.52731 0.09545 0.0
H75 H 0.88738 0.53723 0.10617 0.0
H76 H 0.92312 0.54592 0.18435 0.0
H77 H 0.97947 0.46398 0.17144 0.0
H78 H 0.95826 0.5851 0.25645 0.0
H79 H 0.00789 0.62617 0.23659 0.0
H80 H 0.95446 0.60776 0.21906 0.0
H81 H 0.03279 0.46688 0.20652 0.0
H82 H 0.07288 0.52452 0.2166 0.0
H83 H 0.03388 0.48807 0.24581 0.0
H84 H 0.76222 0.46049 0.35812 0.0
H85 H 0.82819 0.51236 0.37425 0.0
H86 H 0.83247 0.39645 0.40197 0.0
H87 H 0.92915 0.57699 0.34552 0.0
H88 H 0.89248 0.5843 0.3708 0.0
H89 H 0.94398 0.5928 0.3862 0.0
H90 H 0.89981 0.39868 0.40863 0.0
H91 H 0.94153 0.4363 0.38077 0.0
H92 H 0.94553 0.45258 0.42149 0.0
H93 H 0.21944 0.65467 0.47469 0.0
H94 H 0.28945 0.72112 0.49221 0.0
H95 H 0.26234 0.73563 0.46255 0.0
H96 H 0.26057 0.74906 0.50364 0.0
H97 H 0.12821 0.70494 0.46226 0.0
H98 H 0.14958 0.59529 0.47185 0.0
H99 H 0.06501 0.67176 0.39715 0.0
H100 H 0.02104 0.64112 0.42501 0.0
H101 H 0.06616 0.69711 0.43468 0.0
H102 H 0.10125 0.52407 0.44909 0.0
H103 H 0.04747 0.51165 0.43556 0.0
H104 H 0.0932 0.53479 0.40854 0.0
H105 H 0.09028 0.61196 0.22532 0.0
H106 H 0.95033 0.50451 0.27238 0.0
H107 H 0.92182 0.48859 0.32521 0.0
H108 H 0.98302 0.54412 0.42909 0.0
H109 H 0.12804 0.63411 0.38233 0.0
H110 H 0.15561 0.65289 0.32937 0.0
H111 H 0.73762 0.36425 0.34018 0.0
H112 H 0.72801 0.40171 0.31648 0.0
H113 H 0.78369 0.41561 0.32442 0.0
C114 C 0.23296 0.73415 0.62722 0.0
C115 C 0.27118 0.7427 0.60555 0.0
C116 C 0.30384 0.80601 0.56848 0.0
C117 C 0.34864 0.8197 0.57184 0.0
C118 C 0.38235 0.86314 0.56285 0.0
C119 C 0.371 0.89347 0.55031 0.0
C120 C 0.32586 0.87897 0.54551 0.0
C121 C 0.29286 0.8351 0.55426 0.0
C122 C 0.43013 0.877 0.56743 0.0
C123 C 0.31249 0.91027 0.53212 0.0
C124 C 0.49335 0.19128 0.6841 0.0
C125 C 0.5263 0.17901 0.67143 0.0
C126 C 0.49328 0.10427 0.64837 0.0
C127 C 0.46851 0.10763 0.62376 0.0
C128 C 0.45376 0.07755 0.59815 0.0
C129 C 0.46584 0.04476 0.5965 0.0
C130 C 0.49025 0.04091 0.62165 0.0
C131 C 0.50279 0.0702 0.64765 0.0
C132 C 0.42564 0.08133 0.57282 0.0
C133 C 0.50373 0.00642 0.62094 0.0
C134 C 0.62973 0.22587 0.43711 0.0
C135 C 0.58561 0.21252 0.4434 0.0
C136 C 0.55249 0.16672 0.44573 0.0
C137 C 0.56409 0.13358 0.44297 0.0
C138 C 0.60857 0.14713 0.43624 0.0
C139 C 0.64055 0.19307 0.43274 0.0
C140 C 0.50521 0.15399 0.45127 0.0
C141 C 0.62264 0.11325 0.43323 0.0
C142 C 0.39821 0.81566 0.33271 0.0
C143 C 0.42724 0.857 0.31203 0.0
C144 C 0.43726 0.9207 0.34441 0.0
C145 C 0.42176 0.94975 0.34917 0.0
C146 C 0.43685 0.98005 0.3747 0.0
C147 C 0.46892 0.98181 0.39569 0.0
C148 C 0.48601 0.95366 0.39041 0.0
C149 C 0.4696 0.92295 0.3651 0.0
C150 C 0.41773 0.00938 0.37969 0.0
C151 C 0.52096 0.95533 0.41195 0.0
C152 C 0.40615 0.94128 0.54482 0.0
C153 C 0.42011 0.97032 0.5709 0.0
C154 C 0.45393 0.01542 0.56812 0.0
C155 C 0.47479 0.0323 0.5385 0.0
C156 C 0.51045 0.07689 0.53518 0.0
C157 C 0.52906 0.094 0.50565 0.0
C158 C 0.51282 0.06721 0.47824 0.0
C159 C 0.53004 0.08501 0.44783 0.0
C160 C 0.5147 0.05649 0.42137 0.0
C161 C 0.48239 0.01075 0.4244 0.0
C162 C 0.46352 0.99296 0.45441 0.0
C163 C 0.42982 0.94749 0.45813 0.0
C164 C 0.41137 0.9303 0.48774 0.0
C165 C 0.42544 0.95803 0.51472 0.0
C166 C 0.45967 0.00385 0.51156 0.0
C167 C 0.47872 0.02134 0.48138 0.0
C168 C 0.71409 0.33344 0.46458 0.0
C169 C 0.66658 0.30538 0.45205 0.0
O170 O 0.27048 0.76516 0.5786 0.0
O171 O 0.41973 0.89109 0.31984 0.0
O172 O 0.66241 0.26986 0.43433 0.0
O173 O 0.50791 0.13298 0.67334 0.0
H174 H 0.30248 0.7634 0.61914 0.0
H175 H 0.23788 0.76678 0.63524 0.0
H176 H 0.20081 0.7154 0.61443 0.0
H177 H 0.23178 0.71473 0.64849 0.0
H178 H 0.35736 0.79659 0.58152 0.0
H179 H 0.25818 0.82388 0.55118 0.0
H180 H 0.44513 0.90274 0.58646 0.0
H181 H 0.4336 0.84817 0.57408 0.0
H182 H 0.44914 0.89243 0.54535 0.0
H183 H 0.27595 0.89397 0.53012 0.0
H184 H 0.32547 0.94044 0.54751 0.0
H185 H 0.32727 0.92195 0.50825 0.0
H186 H 0.53474 0.19066 0.64639 0.0
H187 H 0.50868 0.22838 0.68412 0.0
H188 H 0.46339 0.17635 0.66883 0.0
H189 H 0.48283 0.1784 0.70862 0.0
H190 H 0.4602 0.13335 0.62468 0.0
H191 H 0.52147 0.06764 0.66707 0.0
H192 H 0.44675 0.09992 0.5522 0.0
H193 H 0.39916 0.04757 0.56448 0.0
H194 H 0.41001 0.09987 0.58149 0.0
H195 H 0.52829 0.01245 0.63974 0.0
H196 H 0.47401 0.97245 0.62457 0.0
H197 H 0.51809 0.00656 0.59752 0.0
H198 H 0.64429 0.29267 0.47305 0.0
H199 H 0.5768 0.23777 0.44598 0.0
H200 H 0.67462 0.20372 0.42747 0.0
H201 H 0.49684 0.14561 0.47667 0.0
H202 H 0.50011 0.18198 0.44523 0.0
H203 H 0.48184 0.12399 0.43702 0.0
H204 H 0.65926 0.12954 0.43252 0.0
H205 H 0.6096 0.08923 0.45338 0.0
H206 H 0.6087 0.09365 0.41104 0.0
H207 H 0.46271 0.8683 0.31535 0.0
H208 H 0.40474 0.78846 0.32739 0.0
H209 H 0.40569 0.82451 0.35818 0.0
H210 H 0.36254 0.80291 0.32852 0.0
H211 H 0.39695 0.94791 0.33308 0.0
H212 H 0.48204 0.90077 0.36199 0.0
H213 H 0.403 0.00354 0.40375 0.0
H214 H 0.44457 0.04532 0.37825 0.0
H215 H 0.39188 0.00286 0.36185 0.0
H216 H 0.53539 0.93625 0.40211 0.0
H217 H 0.54805 0.99072 0.41597 0.0
H218 H 0.50603 0.94071 0.43534 0.0
H219 H 0.40433 0.9576 0.59372 0.0
H220 H 0.52422 0.09925 0.55537 0.0
H221 H 0.5562 0.12865 0.50459 0.0
H222 H 0.52823 0.06998 0.39813 0.0
H223 H 0.41713 0.92462 0.43816 0.0
H224 H 0.38557 0.89511 0.48918 0.0
H225 H 0.73793 0.34834 0.4446 0.0
H226 H 0.71785 0.36086 0.48022 0.0
H227 H 0.72224 0.31179 0.47868 0.0
C228 C 0.52339 0.27399 0.81109 0.0
C229 C 0.54687 0.29279 0.77939 0.0
C230 C 0.50887 0.31071 0.73841 0.0
C231 C 0.54351 0.35431 0.73061 0.0
C232 C 0.53475 0.38431 0.71479 0.0
C233 C 0.49066 0.37021 0.70628 0.0
C234 C 0.4563 0.32528 0.71201 0.0
C235 C 0.466 0.296 0.72779 0.0
C236 C 0.57232 0.43164 0.70824 0.0
C237 C 0.40898 0.30887 0.70291 0.0
C238 C 0.39477 0.48701 0.86041 0.0
C239 C 0.39888 0.52489 0.83923 0.0
C240 C 0.43905 0.52047 0.79304 0.0
C241 C 0.40348 0.48051 0.78026 0.0
C242 C 0.40954 0.46016 0.75365 0.0
C243 C 0.45188 0.48019 0.73948 0.0
C244 C 0.48746 0.52085 0.75185 0.0
C245 C 0.48048 0.54048 0.77844 0.0
C246 C 0.37089 0.41687 0.7409 0.0
C247 C 0.533 0.54312 0.73724 0.0
C248 C 0.38316 0.57382 0.56891 0.0
C249 C 0.35478 0.52874 0.57735 0.0
C250 C 0.37087 0.4997 0.58043 0.0
C251 C 0.41659 0.51658 0.57574 0.0
C252 C 0.44487 0.5617 0.56586 0.0
C253 C 0.42754 0.58964 0.56211 0.0
C254 C 0.33924 0.45139 0.5898 0.0
C255 C 0.49367 0.58091 0.56058 0.0
C256 C 0.51579 0.29846 0.48502 0.0
C257 C 0.53957 0.34766 0.47448 0.0
C258 C 0.49767 0.38063 0.4924 0.0
C259 C 0.45306 0.36275 0.49977 0.0
C260 C 0.44051 0.38163 0.52391 0.0
C261 C 0.47349 0.42006 0.54043 0.0
C262 C 0.51858 0.43964 0.53187 0.0
C263 C 0.5302 0.41956 0.50804 0.0
C264 C 0.39215 0.35996 0.53224 0.0
C265 C 0.55456 0.48157 0.54809 0.0
C266 C 0.47952 0.40382 0.69591 0.0
C267 C 0.47184 0.42665 0.71979 0.0
C268 C 0.45943 0.45758 0.71261 0.0
C269 C 0.45411 0.46603 0.68065 0.0
C270 C 0.44097 0.49646 0.67269 0.0
C271 C 0.4351 0.50404 0.6412 0.0
C272 C 0.4423 0.48161 0.6164 0.0
C273 C 0.43533 0.4884 0.58433 0.0
C274 C 0.44537 0.46763 0.56017 0.0
C275 C 0.46115 0.43917 0.5672 0.0
C276 C 0.46578 0.42999 0.59926 0.0
C277 C 0.4791 0.3996 0.60735 0.0
C278 C 0.48356 0.39085 0.63898 0.0
C279 C 0.47525 0.41242 0.6637 0.0
C280 C 0.46213 0.44344 0.65609 0.0
C281 C 0.45677 0.4517 0.62388 0.0
C282 C 0.39032 0.65646 0.60924 0.0
C283 C 0.3525 0.61359 0.59411 0.0
O284 O 0.51522 0.28182 0.75596 0.0
O285 O 0.50851 0.35999 0.47004 0.0
O286 O 0.3683 0.6026 0.56774 0.0
O287 O 0.43534 0.54054 0.81952 0.0
H288 H 0.56886 0.32977 0.78218 0.0
H289 H 0.50428 0.28992 0.81747 0.0
H290 H 0.50002 0.23702 0.80956 0.0
H291 H 0.54801 0.28147 0.83019 0.0
H292 H 0.57731 0.36527 0.73697 0.0
H293 H 0.43968 0.26191 0.73317 0.0
H294 H 0.56892 0.4554 0.72371 0.0
H295 H 0.60523 0.43588 0.71272 0.0
H296 H 0.57086 0.44087 0.68325 0.0
H297 H 0.38659 0.27222 0.70707 0.0
H298 H 0.39687 0.3272 0.71697 0.0
H299 H 0.40717 0.31607 0.67748 0.0
H300 H 0.36814 0.51239 0.82501 0.0
H301 H 0.36452 0.47271 0.8753 0.0
H302 H 0.39212 0.45927 0.84579 0.0
H303 H 0.4243 0.49992 0.87606 0.0
H304 H 0.37105 0.46463 0.79104 0.0
H305 H 0.50767 0.57136 0.78834 0.0
H306 H 0.36576 0.42089 0.71542 0.0
H307 H 0.37829 0.38971 0.7427 0.0
H308 H 0.33967 0.40626 0.75391 0.0
H309 H 0.55691 0.57534 0.74911 0.0
H310 H 0.54583 0.52017 0.7388 0.0
H311 H 0.53103 0.54974 0.71171 0.0
H312 H 0.33964 0.58655 0.61237 0.0
H313 H 0.32016 0.51651 0.58184 0.0
H314 H 0.449 0.6245 0.55523 0.0
H315 H 0.34433 0.44689 0.61519 0.0
H316 H 0.3041 0.44139 0.58647 0.0
H317 H 0.34563 0.42849 0.5757 0.0
H318 H 0.51146 0.61705 0.55393 0.0
H319 H 0.50896 0.57714 0.58246 0.0
H320 H 0.49827 0.56192 0.54142 0.0
H321 H 0.56392 0.36837 0.49327 0.0
H322 H 0.53997 0.28756 0.4882 0.0
H323 H 0.49897 0.29455 0.50806 0.0
H324 H 0.49045 0.27627 0.46726 0.0
H325 H 0.42815 0.33305 0.4872 0.0
H326 H 0.56465 0.43442 0.50147 0.0
H327 H 0.38732 0.35167 0.55792 0.0
H328 H 0.38117 0.38397 0.52758 0.0
H329 H 0.37082 0.32877 0.5184 0.0
H330 H 0.58715 0.49562 0.5362 0.0
H331 H 0.5456 0.50769 0.54854 0.0
H332 H 0.55795 0.47362 0.57304 0.0
H333 H 0.47526 0.41998 0.74446 0.0
H334 H 0.43481 0.51458 0.69074 0.0
H335 H 0.42493 0.52786 0.6366 0.0
H336 H 0.44087 0.4737 0.53561 0.0
H337 H 0.48591 0.38198 0.58931 0.0
H338 H 0.49373 0.36708 0.64386 0.0
H339 H 0.40398 0.68484 0.59211 0.0
H340 H 0.37849 0.66562 0.63066 0.0
H341 H 0.41732 0.65102 0.61658 0.0
C342 C 0.25364 0.45902 0.95272 0.0
C343 C 0.25462 0.49441 0.93069 0.0
C344 C 0.19846 0.47322 0.88952 0.0
C345 C 0.19361 0.51062 0.89069 0.0
C346 C 0.15546 0.50811 0.87842 0.0
C347 C 0.12134 0.46721 0.86509 0.0
C348 C 0.12689 0.42991 0.86306 0.0
C349 C 0.1659 0.43382 0.87474 0.0
C350 C 0.15122 0.54888 0.8803 0.0
C351 C 0.091 0.38537 0.84966 0.0
C352 C 0.95113 0.455 0.02374 0.0
C353 C 0.90992 0.41356 0.00989 0.0
C354 C 0.92277 0.42773 0.95395 0.0
C355 C 0.92723 0.39212 0.94362 0.0
C356 C 0.95392 0.39733 0.91745 0.0
C357 C 0.97675 0.43916 0.90149 0.0
C358 C 0.97135 0.47477 0.91143 0.0
C359 C 0.94382 0.46833 0.93736 0.0
C360 C 0.9579 0.35827 0.90692 0.0
C361 C 0.99522 0.51983 0.89501 0.0
C362 C 0.80718 0.359 0.74099 0.0
C363 C 0.82933 0.33551 0.73793 0.0
C364 C 0.87571 0.35844 0.73743 0.0
C365 C 0.90058 0.40594 0.73939 0.0
C366 C 0.87843 0.4299 0.73931 0.0
C367 C 0.83187 0.40602 0.74016 0.0
C368 C 0.89813 0.33168 0.73685 0.0
C369 C 0.90397 0.48055 0.74065 0.0
C370 C 0.18731 0.52505 0.5812 0.0
C371 C 0.17082 0.53754 0.6106 0.0
C372 C 0.10684 0.49184 0.64557 0.0
C373 C 0.07258 0.44751 0.65054 0.0
C374 C 0.04707 0.43482 0.67829 0.0
C375 C 0.05407 0.46808 0.70085 0.0
C376 C 0.0887 0.51336 0.69578 0.0
C377 C 0.11586 0.5243 0.66888 0.0
C378 C 0.0122 0.3858 0.68288 0.0
C379 C 0.09671 0.55081 0.71807 0.0
C380 C 0.07826 0.46195 0.85611 0.0
C381 C 0.04886 0.45518 0.88065 0.0
C382 C 0.00605 0.44559 0.87427 0.0
C383 C 0.99164 0.44174 0.84255 0.0
C384 C 0.94779 0.42885 0.83539 0.0
C385 C 0.93363 0.42449 0.80417 0.0
C386 C 0.96306 0.43404 0.77883 0.0
C387 C 0.94861 0.42915 0.74702 0.0
C388 C 0.97917 0.44156 0.72238 0.0
C389 C 0.02364 0.45586 0.72851 0.0
C390 C 0.03778 0.4574 0.76027 0.0
C391 C 0.08092 0.46764 0.76752 0.0
C392 C 0.09446 0.46953 0.79886 0.0
C393 C 0.06527 0.46093 0.82418 0.0
C394 C 0.02162 0.45038 0.81742 0.0
C395 C 0.00761 0.44769 0.78547 0.0
C396 C 0.74751 0.28784 0.79031 0.0
C397 C 0.73526 0.29375 0.75636 0.0
O398 O 0.23406 0.47399 0.90232 0.0
O399 O 0.12849 0.50202 0.61732 0.0
O400 O 0.76269 0.33777 0.74618 0.0
O401 O 0.89989 0.42419 0.98066 0.0
H402 H 0.23659 0.50837 0.94293 0.0
H403 H 0.27228 0.44465 0.94212 0.0
H404 H 0.26832 0.47406 0.97616 0.0
H405 H 0.21881 0.43135 0.95655 0.0
H406 H 0.21955 0.54174 0.90117 0.0
H407 H 0.17034 0.40538 0.8736 0.0
H408 H 0.12653 0.54332 0.89875 0.0
H409 H 0.18318 0.57984 0.88645 0.0
H410 H 0.13915 0.55419 0.85735 0.0
H411 H 0.09871 0.35855 0.85272 0.0
H412 H 0.05886 0.37448 0.86138 0.0
H413 H 0.08688 0.38906 0.82397 0.0
H414 H 0.9172 0.38626 0.00766 0.0
H415 H 0.95924 0.4472 0.04745 0.0
H416 H 0.98006 0.46556 0.00799 0.0
H417 H 0.94566 0.48347 0.02609 0.0
H418 H 0.90986 0.36029 0.95605 0.0
H419 H 0.93993 0.4955 0.94554 0.0
H420 H 0.95039 0.35193 0.8812 0.0
H421 H 0.99247 0.36665 0.91057 0.0
H422 H 0.93526 0.32696 0.9202 0.0
H423 H 0.99023 0.54508 0.90716 0.0
H424 H 0.03129 0.5328 0.89396 0.0
H425 H 0.98303 0.51594 0.87024 0.0
H426 H 0.73823 0.27057 0.73993 0.0
H427 H 0.81083 0.29917 0.73724 0.0
H428 H 0.81462 0.42403 0.74181 0.0
H429 H 0.91622 0.33662 0.7595 0.0
H430 H 0.87422 0.29511 0.73349 0.0
H431 H 0.92276 0.34385 0.7174 0.0
H432 H 0.88248 0.49434 0.73579 0.0
H433 H 0.91883 0.49178 0.7646 0.0
H434 H 0.93148 0.49471 0.72321 0.0
H435 H 0.19348 0.54262 0.63067 0.0
H436 H 0.22177 0.55168 0.57538 0.0
H437 H 0.18682 0.4934 0.58562 0.0
H438 H 0.1657 0.5199 0.56046 0.0
H439 H 0.06604 0.42256 0.63256 0.0
H440 H 0.1428 0.55865 0.6657 0.0
H441 H 0.00883 0.37609 0.70828 0.0
H442 H 0.97984 0.37968 0.67433 0.0
H443 H 0.02 0.36367 0.6691 0.0
H444 H 0.1139 0.58396 0.70591 0.0
H445 H 0.06526 0.54513 0.72817 0.0
H446 H 0.11823 0.55267 0.73791 0.0
H447 H 0.05917 0.45657 0.9051 0.0
H448 H 0.92368 0.42135 0.85385 0.0
H449 H 0.89931 0.41393 0.80027 0.0
H450 H 0.96786 0.43877 0.69809 0.0
H451 H 0.10464 0.47398 0.74902 0.0
H452 H 0.12809 0.47781 0.80306 0.0
H453 H 0.74641 0.31217 0.8067 0.0
H454 H 0.72411 0.25307 0.79881 0.0
H455 H 0.7813 0.29337 0.79119 0.0
C456 C 0.35919 0.7078 0.88714 0.0
C457 C 0.38876 0.70715 0.91356 0.0
C458 C 0.45442 0.78383 0.91259 0.0
C459 C 0.43301 0.80548 0.92407 0.0
C460 C 0.45625 0.85229 0.92815 0.0
C461 C 0.50221 0.878 0.92163 0.0
C462 C 0.52398 0.8564 0.9103 0.0
C463 C 0.49966 0.8096 0.90571 0.0
C464 C 0.43159 0.87419 0.93964 0.0
C465 C 0.57299 0.88267 0.90333 0.0
C466 C 0.61645 0.08752 0.75415 0.0
C467 C 0.62859 0.12783 0.77579 0.0
C468 C 0.58876 0.08866 0.82456 0.0
C469 C 0.61803 0.07496 0.83416 0.0
C470 C 0.60847 0.04678 0.86057 0.0
C471 C 0.56886 0.0318 0.87771 0.0
C472 C 0.53934 0.04545 0.86813 0.0
C473 C 0.54988 0.07397 0.84181 0.0
C474 C 0.64087 0.03318 0.87034 0.0
C475 C 0.49672 0.03001 0.8858 0.0
C476 C 0.67819 0.2184 0.04075 0.0
C477 C 0.69913 0.19351 0.0395 0.0
C478 C 0.67428 0.14647 0.03726 0.0
C479 C 0.62749 0.12365 0.03655 0.0
C480 C 0.6062 0.14829 0.03921 0.0
C481 C 0.6319 0.19543 0.04127 0.0
C482 C 0.69809 0.12119 0.03465 0.0
C483 C 0.55635 0.12488 0.03881 0.0
C484 C 0.50508 0.83313 0.19837 0.0
C485 C 0.49083 0.85435 0.17297 0.0
C486 C 0.53597 0.91769 0.13687 0.0
C487 C 0.58006 0.94815 0.12889 0.0
C488 C 0.59122 0.9733 0.1008 0.0
C489 C 0.55714 0.96992 0.08103 0.0
C490 C 0.51217 0.9398 0.08949 0.0
C491 C 0.50216 0.91275 0.11662 0.0
C492 C 0.63962 0.00369 0.09265 0.0
C493 C 0.4743 0.93633 0.07043 0.0
C494 C 0.52753 0.92727 0.9276 0.0
C495 C 0.53732 0.95626 0.90181 0.0
C496 C 0.55895 0.00282 0.90615 0.0
C497 C 0.57047 0.02108 0.9371 0.0
C498 C 0.59188 0.06766 0.94236 0.0
C499 C 0.60223 0.08522 0.97292 0.0
C500 C 0.59143 0.05688 -0.00056 0.0
C501 C 0.60134 0.07443 0.0306 0.0
C502 C 0.58887 0.04527 0.0565 0.0
C503 C 0.56868 -0.00125 0.05222 0.0
C504 C 0.56032 0.98082 0.02106 0.0
C505 C 0.54244 0.93472 0.01554 0.0
C506 C 0.53208 0.91714 0.98496 0.0
C507 C 0.53977 0.94508 0.95863 0.0
C508 C 0.56033 0.99201 0.96344 0.0
C509 C 0.57058 0.0099 0.99468 0.0
C510 C 0.7587 0.29285 0.00151 0.0
C511 C 0.74629 0.29285 0.03641 0.0
O512 O 0.43293 0.73861 0.90758 0.0
O513 O 0.52767 0.89554 0.16496 0.0
O514 O 0.7011 0.26425 0.0408 0.0
O515 O 0.59636 0.11553 0.79888 0.0
H516 H 0.37873 0.71401 0.93684 0.0
H517 H 0.36196 0.74091 0.88594 0.0
H518 H 0.36895 0.70116 0.8637 0.0
H519 H 0.32391 0.6818 0.89169 0.0
H520 H 0.39813 0.78632 0.9298 0.0
H521 H 0.51599 0.79277 0.89689 0.0
H522 H 0.44042 0.9043 0.92511 0.0
H523 H 0.39508 0.85081 0.93876 0.0
H524 H 0.44123 0.88546 0.96454 0.0
H525 H 0.58565 0.86048 0.89709 0.0
H526 H 0.5797 0.90598 0.88325 0.0
H527 H 0.59162 0.90337 0.92424 0.0
H528 H 0.66144 0.13977 0.78685 0.0
H529 H 0.64296 0.09648 0.73641 0.0
H530 H 0.61255 0.05876 0.76819 0.0
H531 H 0.58476 0.07648 0.74154 0.0
H532 H 0.64842 0.08606 0.82132 0.0
H533 H 0.52749 0.08466 0.83435 0.0
H534 H 0.65146 0.04349 0.89528 0.0
H535 H 0.62445 0.99602 0.8692 0.0
H536 H 0.67076 0.04845 0.85501 0.0
H537 H 0.47609 0.04149 0.87429 0.0
H538 H 0.47718 0.99272 0.88728 0.0
H539 H 0.50436 0.04323 0.91042 0.0
H540 H 0.765 0.28231 0.05159 0.0
H541 H 0.73485 0.21035 0.03964 0.0
H542 H 0.6159 0.21469 0.04254 0.0
H543 H 0.68995 0.10321 0.01158 0.0
H544 H 0.73464 0.14372 0.03646 0.0
H545 H 0.68669 0.09554 0.0537 0.0
H546 H 0.54477 0.14848 0.0432 0.0
H547 H 0.54356 0.10853 0.01541 0.0
H548 H 0.54199 0.09805 0.05711 0.0
H549 H 0.47898 0.83166 0.15196 0.0
H550 H 0.47792 0.79854 0.20391 0.0
H551 H 0.53363 0.8312 0.18966 0.0
H552 H 0.51522 0.85358 0.22045 0.0
H553 H 0.60594 0.95171 0.14465 0.0
H554 H 0.46784 0.88906 0.12239 0.0
H555 H 0.64517 0.00335 0.06676 0.0
H556 H 0.65064 0.03866 0.0997 0.0
H557 H 0.66066 0.99373 0.10541 0.0
H558 H 0.44426 0.9242 0.08527 0.0
H559 H 0.48316 0.96915 0.05987 0.0
H560 H 0.46558 0.91174 0.05092 0.0
H561 H 0.52774 0.94238 0.87809 0.0
H562 H 0.60071 0.09112 0.92292 0.0
H563 H 0.61846 0.12134 0.97545 0.0
H564 H 0.59586 0.05912 0.08031 0.0
H565 H 0.53593 0.91157 0.03481 0.0
H566 H 0.51781 0.88128 0.98225 0.0
H567 H 0.73941 0.302 0.98576 0.0
H568 H 0.79465 0.31723 -0.00213 0.0
H569 H 0.75167 0.25915 0.99435 0.0
C570 C 0.77594 0.51454 0.09514 0.0
C571 C 0.75116 0.48694 0.06552 0.0
C572 C 0.67858 0.47873 0.07531 0.0
C573 C 0.63508 0.44855 0.08494 0.0
C574 C 0.60593 0.46325 0.09195 0.0
C575 C 0.62132 0.50972 0.09035 0.0
C576 C 0.66486 0.54029 0.07947 0.0
C577 C 0.69262 0.52431 0.07132 0.0
C578 C 0.55892 0.42906 0.10144 0.0
C579 C 0.68238 0.59 0.0768 0.0
C580 C 0.54538 0.65425 0.94344 0.0
C581 C 0.50276 0.64576 0.95967 0.0
C582 C 0.49816 0.59586 0.00318 0.0
C583 C 0.53485 0.62848 0.02071 0.0
C584 C 0.55096 0.61611 0.04681 0.0
C585 C 0.52918 0.57042 0.05615 0.0
C586 C 0.49122 0.53783 0.03932 0.0
C587 C 0.47634 0.55102 0.013 0.0
C588 C 0.59162 0.65179 0.06416 0.0
C589 C 0.46666 0.48897 0.04892 0.0
C590 C 0.43167 0.63158 0.2287 0.0
C591 C 0.47635 0.65948 0.22067 0.0
C592 C 0.50365 0.64172 0.21698 0.0
C593 C 0.48527 0.59477 0.22039 0.0
C594 C 0.44041 0.56688 0.22968 0.0
C595 C 0.41434 0.58591 0.23425 0.0
C596 C 0.55174 0.673 0.20847 0.0
C597 C 0.41956 0.51682 0.23379 0.0
C598 C 0.62201 0.50554 0.37725 0.0
C599 C 0.62354 0.47428 0.35242 0.0
C600 C 0.58185 0.47917 0.30678 0.0
C601 C 0.613 0.52366 0.29773 0.0
C602 C 0.60433 0.54393 0.27211 0.0
C603 C 0.56412 0.51908 0.25496 0.0
C604 C 0.53329 0.47402 0.26363 0.0
C605 C 0.54252 0.45486 0.28948 0.0
C606 C 0.63789 0.59199 0.26344 0.0
C607 C 0.49028 0.44616 0.24575 0.0
C608 C 0.59206 0.52647 0.09991 0.0
C609 C 0.57365 0.53944 0.07592 0.0
C610 C 0.54671 0.55653 0.08303 0.0
C611 C 0.53726 0.56041 0.11503 0.0
C612 C 0.50964 0.57665 0.12299 0.0
C613 C 0.50108 0.58106 0.1545 0.0
C614 C 0.51974 0.56935 0.17937 0.0
C615 C 0.51177 0.57452 0.21152 0.0
C616 C 0.52829 0.55956 0.23559 0.0
C617 C 0.55322 0.54006 0.22849 0.0
C618 C 0.56387 0.53736 0.19652 0.0
C619 C 0.59103 0.52053 0.18854 0.0
C620 C 0.60111 0.51784 0.157 0.0
C621 C 0.58316 0.53037 0.13212 0.0
C622 C 0.55568 0.54743 0.13965 0.0
C623 C 0.5466 0.55158 0.17189 0.0
C624 C 0.34686 0.63373 0.19501 0.0
C625 C 0.39478 0.66641 0.20522 0.0
O626 O 0.70576 0.46251 0.0707 0.0
O627 O 0.58752 0.4583 0.33204 0.0
O628 O 0.40475 0.64821 0.2308 0.0
O629 O 0.48304 0.60566 0.97652 0.0
H630 H 0.75952 0.50961 0.04473 0.0
H631 H 0.76725 0.49228 0.1162 0.0
H632 H 0.81234 0.53227 0.09138 0.0
H633 H 0.76783 0.54047 0.10054 0.0
H634 H 0.62408 0.41328 0.08726 0.0
H635 H 0.72544 0.5478 0.06238 0.0
H636 H 0.53524 0.43642 0.08979 0.0
H637 H 0.54969 0.39428 0.09519 0.0
H638 H 0.55536 0.43058 0.12747 0.0
H639 H 0.71865 0.60995 0.07236 0.0
H640 H 0.66544 0.59588 0.05691 0.0
H641 H 0.67534 0.60256 0.09884 0.0
H642 H 0.51084 0.67427 0.9758 0.0
H643 H 0.56216 0.68716 0.93098 0.0
H644 H 0.56923 0.65517 0.96095 0.0
H645 H 0.53751 0.62715 0.92602 0.0
H646 H 0.55147 0.66352 0.01395 0.0
H647 H 0.44779 0.52612 -0.0004 0.0
H648 H 0.58271 0.65467 0.08889 0.0
H649 H 0.61687 0.64208 0.06531 0.0
H650 H 0.60658 0.68526 0.05262 0.0
H651 H 0.43558 0.46845 0.03514 0.0
H652 H 0.48823 0.47507 0.04515 0.0
H653 H 0.45842 0.48574 0.07456 0.0
H654 H 0.41673 0.67176 0.18464 0.0
H655 H 0.48965 0.69507 0.21709 0.0
H656 H 0.3798 0.56489 0.24087 0.0
H657 H 0.5563 0.66997 0.18276 0.0
H658 H 0.563 0.70865 0.21359 0.0
H659 H 0.57313 0.66392 0.2217 0.0
H660 H 0.38323 0.49931 0.23776 0.0
H661 H 0.42577 0.5021 0.21256 0.0
H662 H 0.43486 0.51037 0.2545 0.0
H663 H 0.65508 0.49244 0.3389 0.0
H664 H 0.65127 0.51929 0.39323 0.0
H665 H 0.62251 0.53433 0.36562 0.0
H666 H 0.59132 0.48706 0.39166 0.0
H667 H 0.6438 0.5429 0.31068 0.0
H668 H 0.51877 0.42055 0.29649 0.0
H669 H 0.64848 0.59362 0.23846 0.0
H670 H 0.6225 0.61264 0.26521 0.0
H671 H 0.66764 0.6069 0.279 0.0
H672 H 0.47063 0.41105 0.25466 0.0
H673 H 0.46999 0.46176 0.24795 0.0
H674 H 0.49712 0.44537 0.22015 0.0
H675 H 0.58063 0.53643 0.0513 0.0
H676 H 0.49436 0.58625 0.10493 0.0
H677 H 0.47944 0.59367 0.15905 0.0
H678 H 0.52079 0.56219 0.26013 0.0
H679 H 0.60524 0.50978 0.20664 0.0
H680 H 0.62282 0.50535 0.15238 0.0
H681 H 0.32366 0.62832 0.21463 0.0
H682 H 0.3383 0.64693 0.17397 0.0
H683 H 0.34259 0.60083 0.18851 0.0
Co684 Co 0.63358 0.37745 0.40182 0.0
O685 O 0.6697 0.38096 0.36407 0.0
O686 O 0.69992 0.41218 0.40814 0.0
C687 C 0.65428 0.33338 0.43246 0.0
O688 O 0.60604 0.38049 0.44274 0.0
Co689 Co 0.59688 0.34918 0.38876 0.0
O690 O 0.54663 0.33051 0.41978 0.0
C691 C 0.62166 0.43467 0.36855 0.0
C692 C 0.70595 0.40551 0.3791 0.0
C693 C 0.56456 0.35389 0.44423 0.0
O694 O 0.64548 0.4388 0.39231 0.0
O695 O 0.59638 0.39482 0.35865 0.0
O696 O 0.67479 0.37651 0.43412 0.0
O697 O 0.6231 0.31628 0.41203 0.0
Co698 Co 0.26095 0.63182 0.57269 0.0
O699 O 0.28878 0.61975 0.60685 0.0
O700 O 0.30945 0.62865 0.55582 0.0
C701 C 0.26825 0.69972 0.59613 0.0
O702 O 0.23902 0.64609 0.53254 0.0
Co703 Co 0.17017 0.64675 0.58928 0.0
O704 O 0.18972 0.66782 0.54426 0.0
C705 C 0.17156 0.58058 0.60502 0.0
C706 C 0.31544 0.62058 0.58511 0.0
C707 C 0.21453 0.66215 0.52501 0.0
O708 O 0.20659 0.61748 0.59632 0.0
O709 O 0.13823 0.5843 0.60883 0.0
O710 O 0.29923 0.69838 0.58246 0.0
O711 O 0.23313 0.66066 0.59723 0.0
Co712 Co 0.61344 0.24327 0.75316 0.0
O713 O 0.60544 0.29356 0.74881 0.0
O714 O 0.5679 0.23613 0.78173 0.0
C715 C 0.68786 0.2817 0.75471 0.0
O716 O 0.61335 0.18656 0.76516 0.0
Co717 Co 0.65934 0.22086 0.69994 0.0
O718 O 0.65821 0.17831 0.73187 0.0
C719 C 0.56864 0.20092 0.69026 0.0
C720 C 0.5748 0.27386 0.7702 0.0
C721 C 0.6336 0.1666 0.75639 0.0
O722 O 0.56726 0.20983 0.71962 0.0
O723 O 0.60349 0.20625 0.67688 0.0
O724 O 0.66532 0.27834 0.78 0.0
O725 O 0.6651 0.2669 0.72881 0.0
Co726 Co 0.37031 0.59115 0.91544 0.0
O727 O 0.30919 0.56162 0.90204 0.0
O728 O 0.33455 0.53894 0.94135 0.0
C729 C 0.38256 0.66128 0.91527 0.0
O730 O 0.42939 0.61224 0.93733 0.0
Co731 Co 0.44796 0.65996 0.8739 0.0
O732 O 0.48532 0.67115 0.91202 0.0
C733 C 0.40413 0.5633 0.85912 0.0
C734 C 0.30106 0.53266 0.92438 0.0
C735 C 0.47049 0.64346 0.93505 0.0
O736 O 0.38096 0.55395 0.88455 0.0
O737 O 0.42992 0.60355 0.84918 0.0
O738 O 0.36373 0.63495 0.93944 0.0
O739 O 0.39067 0.64373 0.89122 0.0
Co740 Co 0.79825 0.41341 0.05742 0.0
O741 O 0.75147 0.4185 0.07599 0.0
O742 O 0.79959 0.46549 0.04041 0.0
C743 C 0.75966 0.3395 0.04665 0.0
O744 O 0.85028 0.4184 0.03291 0.0
Co745 Co 0.82998 0.35583 0.0915 0.0
O746 O 0.86613 0.36829 0.0527 0.0
C747 C 0.86039 0.44683 0.11496 0.0
C748 C 0.7665 0.4549 0.05926 0.0
C749 C 0.872 0.39812 0.03252 0.0
O750 O 0.83976 0.45229 0.09202 0.0
O751 O 0.85812 0.40957 0.12045 0.0
O752 O 0.75707 0.36751 0.02773 0.0
O753 O 0.77988 0.35611 0.07324 0.0
Co754 Co 0.40879 0.77668 0.22629 0.0
O755 O 0.39678 0.73555 0.19234 0.0
O756 O 0.40994 0.7263 0.24299 0.0
C757 C 0.34034 0.77731 0.21902 0.0
O758 O 0.42112 0.81304 0.26656 0.0
Co759 Co 0.40316 0.87474 0.21302 0.0
O760 O 0.4074 0.86984 0.26056 0.0
C761 C 0.45369 0.85967 0.18488 0.0
C762 C 0.40105 0.71111 0.21389 0.0
C763 C 0.41718 0.84542 0.27738 0.0
O764 O 0.41936 0.82845 0.19955 0.0
O765 O 0.4537 0.8957 0.18185 0.0
O766 O 0.3426 0.74663 0.23305 0.0
O767 O 0.37817 0.80745 0.2084 0.0
loop_
_geom_bond_atom_site_label_1
_geom_bond_atom_site_label_2
_geom_bond_distance
_geom_bond_site_symmetry_2
_ccdc_geom_bond_type
C0 C1 1.560 . S
C0 H61 0.959 . S
C0 H62 0.959 . S
C0 H63 0.960 . S
C1 C0 1.560 . S
C1 O56 1.426 . S
C1 H60 0.980 . S
C2 C3 1.407 . S
C2 C7 1.418 . S
C2 O56 1.334 . S
C3 C2 1.407 . S
C3 C4 1.360 . S
C3 H64 0.929 . S
C4 C3 1.360 . S
C4 C5 1.401 . S
C4 C8 1.527 . S
C5 C4 1.401 . S
C5 C6 1.405 . S
C5 C38 1.587 . S
C6 C5 1.405 . S
C6 C7 1.332 . S
C6 C9 1.496 . S
C7 C2 1.418 . S
C7 C6 1.332 . S
C7 H65 0.929 . S
C8 C4 1.527 . S
C8 H66 0.959 . S
C8 H67 0.961 . S
C8 H68 0.961 . S
C9 C6 1.496 . S
C9 H69 0.960 . S
C9 H70 0.960 . S
C9 H71 0.961 . S
C10 C11 1.517 . S
C10 H73 0.961 . S
C10 H74 0.960 . S
C10 H75 0.959 . S
C11 C10 1.517 . S
C11 O59 1.468 . S
C11 H72 0.980 . S
C12 C13 1.349 . S
C12 C17 1.367 . S
C12 O59 1.408 . S
C13 C12 1.349 . S
C13 C14 1.407 . S
C13 H76 0.930 . S
C14 C13 1.407 . S
C14 C15 1.449 . S
C14 C18 1.535 . S
C15 C14 1.449 . S
C15 C16 1.384 . S
C15 C40 1.553 1_655 S
C16 C15 1.384 . S
C16 C17 1.364 . S
C16 C19 1.450 . S
C17 C12 1.367 . S
C17 C16 1.364 . S
C17 H77 0.931 . S
C18 C14 1.535 . S
C18 H78 0.959 1_655 S
C18 H79 0.961 1_655 S
C18 H80 0.959 . S
C19 C16 1.450 . S
C19 H81 0.960 . S
C19 H82 0.960 1_655 S
C19 H83 0.960 . S
C20 C21 1.309 . S
C20 C25 1.304 . S
C20 O58 1.435 . S
C21 C20 1.309 . S
C21 C22 1.476 . S
C21 H85 0.930 . S
C22 C21 1.476 . S
C22 C23 1.400 . S
C22 C26 1.567 . S
C23 C22 1.400 . S
C23 C24 1.373 . S
C23 C45 1.432 . S
C24 C23 1.373 . S
C24 C25 1.339 . S
C24 C27 1.530 . S
C25 C20 1.304 . S
C25 C24 1.339 . S
C25 H86 0.930 . S
C26 C22 1.567 . S
C26 H87 0.961 . S
C26 H88 0.960 . S
C26 H89 0.958 . S
C27 C24 1.530 . S
C27 H90 0.961 . S
C27 H91 0.960 . S
C27 H92 0.960 . S
C28 C29 1.530 . S
C28 H94 0.961 . S
C28 H95 0.961 . S
C28 H96 0.959 . S
C29 C28 1.530 . S
C29 O57 1.412 . S
C29 H93 0.980 . S
C30 C31 1.288 . S
C30 C35 1.377 . S
C30 O57 1.393 . S
C31 C30 1.288 . S
C31 C32 1.369 . S
C31 H97 0.932 . S
C32 C31 1.369 . S
C32 C33 1.398 . S
C32 C36 1.527 . S
C33 C32 1.398 . S
C33 C34 1.380 . S
C33 C47 1.497 . S
C34 C33 1.380 . S
C34 C35 1.383 . S
C34 C37 1.603 . S
C35 C30 1.377 . S
C35 C34 1.383 . S
C35 H98 0.929 . S
C36 C32 1.527 . S
C36 H99 0.961 . S
C36 H100 0.959 . S
C36 H101 0.959 . S
C37 C34 1.603 . S
C37 H102 0.960 . S
C37 H103 0.962 . S
C37 H104 0.961 . S
C38 C5 1.587 . S
C38 C39 1.360 . S
C38 C51 1.412 . S
C39 C38 1.360 . S
C39 C40 1.365 . S
C39 H105 0.929 . S
C40 C15 1.553 1_455 S
C40 C39 1.365 . S
C40 C41 1.399 1_455 S
C41 C40 1.399 1_655 S
C41 C42 1.407 . S
C41 C52 1.444 1_655 S
C42 C41 1.407 . S
C42 C43 1.322 . S
C42 H106 0.930 . S
C43 C42 1.322 . S
C43 C44 1.459 . S
C43 H107 0.929 . S
C44 C43 1.459 . S
C44 C45 1.445 . S
C44 C53 1.395 1_655 S
C45 C23 1.432 . S
C45 C44 1.445 . S
C45 C46 1.370 . S
C46 C45 1.370 . S
C46 C47 1.438 1_655 S
C46 H108 0.930 . S
C47 C33 1.497 . S
C47 C46 1.438 1_455 S
C47 C48 1.360 . S
C48 C47 1.360 . S
C48 C49 1.401 . S
C48 C53 1.446 . S
C49 C48 1.401 . S
C49 C50 1.347 . S
C49 H109 0.929 . S
C50 C49 1.347 . S
C50 C51 1.455 . S
C50 H110 0.930 . S
C51 C38 1.412 . S
C51 C50 1.455 . S
C51 C52 1.331 . S
C52 C41 1.444 1_455 S
C52 C51 1.331 . S
C52 C53 1.497 . S
C53 C44 1.395 1_455 S
C53 C48 1.446 . S
C53 C52 1.497 . S
C54 C55 1.582 . S
C54 H111 0.962 . S
C54 H112 0.959 . S
C54 H113 0.958 . S
C55 C54 1.582 . S
C55 O58 1.458 . S
C55 H84 0.980 . S
O56 C1 1.426 . S
O56 C2 1.334 . S
O57 C29 1.412 . S
O57 C30 1.393 . S
O58 C20 1.435 . S
O58 C55 1.458 . S
O59 C11 1.468 . S
O59 C12 1.408 . S
H60 C1 0.980 . S
H61 C0 0.959 . S
H62 C0 0.959 . S
H63 C0 0.960 . S
H64 C3 0.929 . S
H65 C7 0.929 . S
H66 C8 0.959 . S
H67 C8 0.961 . S
H68 C8 0.961 . S
H69 C9 0.960 . S
H70 C9 0.960 . S
H71 C9 0.961 . S
H72 C11 0.980 . S
H73 C10 0.961 . S
H74 C10 0.960 . S
H75 C10 0.959 . S
H76 C13 0.930 . S
H77 C17 0.931 . S
H78 C18 0.959 1_455 S
H79 C18 0.961 1_455 S
H80 C18 0.959 . S
H81 C19 0.960 . S
H82 C19 0.960 1_455 S
H83 C19 0.960 . S
H84 C55 0.980 . S
H85 C21 0.930 . S
H86 C25 0.930 . S
H87 C26 0.961 . S
H88 C26 0.960 . S
H89 C26 0.958 . S
H90 C27 0.961 . S
H91 C27 0.960 . S
H92 C27 0.960 . S
H93 C29 0.980 . S
H94 C28 0.961 . S
H95 C28 0.961 . S
H96 C28 0.959 . S
H97 C31 0.932 . S
H98 C35 0.929 . S
H99 C36 0.961 . S
H100 C36 0.959 . S
H101 C36 0.959 . S
H102 C37 0.960 . S
H103 C37 0.962 . S
H104 C37 0.961 . S
H105 C39 0.929 . S
H106 C42 0.930 . S
H107 C43 0.929 . S
H108 C46 0.930 . S
H109 C49 0.929 . S
H110 C50 0.930 . S
H111 C54 0.962 . S
H112 C54 0.959 . S
H113 C54 0.958 . S
C114 C115 1.560 . S
C114 H175 0.959 . S
C114 H176 0.959 . S
C114 H177 0.960 . S
C115 C114 1.560 . S
C115 O170 1.426 . S
C115 H174 0.980 . S
C116 C117 1.407 . S
C116 C121 1.418 . S
C116 O170 1.334 . S
C117 C116 1.407 . S
C117 C118 1.360 . S
C117 H178 0.929 . S
C118 C117 1.360 . S
C118 C119 1.401 . S
C118 C122 1.527 . S
C119 C118 1.401 . S
C119 C120 1.405 . S
C119 C152 1.587 . S
C120 C119 1.405 . S
C120 C121 1.332 . S
C120 C123 1.496 . S
C121 C116 1.418 . S
C121 C120 1.332 . S
C121 H179 0.929 . S
C122 C118 1.527 . S
C122 H180 0.959 . S
C122 H181 0.961 . S
C122 H182 0.961 . S
C123 C120 1.496 . S
C123 H183 0.960 . S
C123 H184 0.960 . S
C123 H185 0.961 . S
C124 C125 1.517 . S
C124 H187 0.961 . S
C124 H188 0.960 . S
C124 H189 0.959 . S
C125 C124 1.517 . S
C125 O173 1.468 . S
C125 H186 0.980 . S
C126 C127 1.349 . S
C126 C131 1.367 . S
C126 O173 1.408 . S
C127 C126 1.349 . S
C127 C128 1.407 . S
C127 H190 0.930 . S
C128 C127 1.407 . S
C128 C129 1.449 . S
C128 C132 1.535 . S
C129 C128 1.449 . S
C129 C130 1.384 . S
C129 C154 1.553 . S
C130 C129 1.384 . S
C130 C131 1.364 . S
C130 C133 1.450 . S
C131 C126 1.367 . S
C131 C130 1.364 . S
C131 H191 0.931 . S
C132 C128 1.535 . S
C132 H192 0.959 . S
C132 H193 0.961 . S
C132 H194 0.959 . S
C133 C130 1.450 . S
C133 H195 0.960 . S
C133 H196 0.960 . S
C133 H197 0.960 . S
C134 C135 1.309 . S
C134 C139 1.304 . S
C134 O172 1.435 . S
C135 C134 1.309 . S
C135 C136 1.476 . S
C135 H199 0.930 . S
C136 C135 1.476 . S
C136 C137 1.400 . S
C136 C140 1.567 . S
C137 C136 1.400 . S
C137 C138 1.373 . S
C137 C159 1.432 . S
C138 C137 1.373 . S
C138 C139 1.339 . S
C138 C141 1.530 . S
C139 C134 1.304 . S
C139 C138 1.339 . S
C139 H200 0.930 . S
C140 C136 1.567 . S
C140 H201 0.961 . S
C140 H202 0.960 . S
C140 H203 0.958 . S
C141 C138 1.530 . S
C141 H204 0.961 . S
C141 H205 0.960 . S
C141 H206 0.960 . S
C142 C143 1.530 . S
C142 H208 0.961 . S
C142 H209 0.961 . S
C142 H210 0.959 . S
C143 C142 1.530 . S
C143 O171 1.412 . S
C143 H207 0.980 . S
C144 C145 1.288 . S
C144 C149 1.377 . S
C144 O171 1.393 . S
C145 C144 1.288 . S
C145 C146 1.369 . S
C145 H211 0.932 . S
C146 C145 1.369 . S
C146 C147 1.398 . S
C146 C150 1.527 1_565 S
C147 C146 1.398 . S
C147 C148 1.380 . S
C147 C161 1.497 1_565 S
C148 C147 1.380 . S
C148 C149 1.383 . S
C148 C151 1.603 . S
C149 C144 1.377 . S
C149 C148 1.383 . S
C149 H212 0.929 . S
C150 C146 1.527 1_545 S
C150 H213 0.961 1_545 S
C150 H214 0.959 . S
C150 H215 0.959 1_545 S
C151 C148 1.603 . S
C151 H216 0.960 . S
C151 H217 0.962 . S
C151 H218 0.961 . S
C152 C119 1.587 . S
C152 C153 1.360 . S
C152 C165 1.412 . S
C153 C152 1.360 . S
C153 C154 1.365 1_565 S
C153 H219 0.929 . S
C154 C129 1.553 . S
C154 C153 1.365 1_545 S
C154 C155 1.404 . S
C155 C154 1.404 . S
C155 C156 1.395 . S
C155 C166 1.448 1_545 S
C156 C155 1.395 . S
C156 C157 1.322 . S
C156 H220 0.930 . S
C157 C156 1.322 . S
C157 C158 1.459 . S
C157 H221 0.929 . S
C158 C157 1.459 . S
C158 C159 1.445 . S
C158 C167 1.395 . S
C159 C137 1.432 . S
C159 C158 1.445 . S
C159 C160 1.370 . S
C160 C159 1.370 . S
C160 C161 1.438 . S
C160 H222 0.930 . S
C161 C147 1.497 1_545 S
C161 C160 1.438 . S
C161 C162 1.360 1_545 S
C162 C161 1.360 1_565 S
C162 C163 1.401 . S
C162 C167 1.446 1_565 S
C163 C162 1.401 . S
C163 C164 1.347 . S
C163 H223 0.929 . S
C164 C163 1.347 . S
C164 C165 1.455 . S
C164 H224 0.930 . S
C165 C152 1.412 . S
C165 C164 1.455 . S
C165 C166 1.336 . S
C166 C155 1.448 1_565 S
C166 C165 1.336 . S
C166 C167 1.494 1_565 S
C167 C158 1.395 . S
C167 C162 1.446 1_545 S
C167 C166 1.494 1_545 S
C168 C169 1.582 . S
C168 H225 0.962 . S
C168 H226 0.959 . S
C168 H227 0.958 . S
C169 C168 1.582 . S
C169 O172 1.458 . S
C169 H198 0.980 . S
O170 C115 1.426 . S
O170 C116 1.334 . S
O171 C143 1.412 . S
O171 C144 1.393 . S
O172 C134 1.435 . S
O172 C169 1.458 . S
O173 C125 1.468 . S
O173 C126 1.408 . S
H174 C115 0.980 . S
H175 C114 0.959 . S
H176 C114 0.959 . S
H177 C114 0.960 . S
H178 C117 0.929 . S
H179 C121 0.929 . S
H180 C122 0.959 . S
H181 C122 0.961 . S
H182 C122 0.961 . S
H183 C123 0.960 . S
H184 C123 0.960 . S
H185 C123 0.961 . S
H186 C125 0.980 . S
H187 C124 0.961 . S
H188 C124 0.960 . S
H189 C124 0.959 . S
H190 C127 0.930 . S
H191 C131 0.931 . S
H192 C132 0.959 . S
H193 C132 0.961 . S
H194 C132 0.959 . S
H195 C133 0.960 . S
H196 C133 0.960 . S
H197 C133 0.960 . S
H198 C169 0.980 . S
H199 C135 0.930 . S
H200 C139 0.930 . S
H201 C140 0.961 . S
H202 C140 0.960 . S
H203 C140 0.958 . S
H204 C141 0.961 . S
H205 C141 0.960 . S
H206 C141 0.960 . S
H207 C143 0.980 . S
H208 C142 0.961 . S
H209 C142 0.961 . S
H210 C142 0.959 . S
H211 C145 0.932 . S
H212 C149 0.929 . S
H213 C150 0.961 1_565 S
H214 C150 0.959 . S
H215 C150 0.959 1_565 S
H216 C151 0.960 . S
H217 C151 0.962 . S
H218 C151 0.961 . S
H219 C153 0.929 . S
H220 C156 0.930 . S
H221 C157 0.929 . S
H222 C160 0.930 . S
H223 C163 0.929 . S
H224 C164 0.930 . S
H225 C168 0.962 . S
H226 C168 0.959 . S
H227 C168 0.958 . S
C228 C229 1.560 . S
C228 H289 0.959 . S
C228 H290 0.959 . S
C228 H291 0.960 . S
C229 C228 1.560 . S
C229 O284 1.426 . S
C229 H288 0.980 . S
C230 C231 1.407 . S
C230 C235 1.418 . S
C230 O284 1.334 . S
C231 C230 1.407 . S
C231 C232 1.360 . S
C231 H292 0.929 . S
C232 C231 1.360 . S
C232 C233 1.401 . S
C232 C236 1.527 . S
C233 C232 1.401 . S
C233 C234 1.405 . S
C233 C266 1.587 . S
C234 C233 1.405 . S
C234 C235 1.332 . S
C234 C237 1.496 . S
C235 C230 1.418 . S
C235 C234 1.332 . S
C235 H293 0.929 . S
C236 C232 1.527 . S
C236 H294 0.959 . S
C236 H295 0.961 . S
C236 H296 0.961 . S
C237 C234 1.496 . S
C237 H297 0.960 . S
C237 H298 0.960 . S
C237 H299 0.961 . S
C238 C239 1.517 . S
C238 H301 0.961 . S
C238 H302 0.960 . S
C238 H303 0.959 . S
C239 C238 1.517 . S
C239 O287 1.468 . S
C239 H300 0.980 . S
C240 C241 1.349 . S
C240 C245 1.367 . S
C240 O287 1.408 . S
C241 C240 1.349 . S
C241 C242 1.407 . S
C241 H304 0.930 . S
C242 C241 1.407 . S
C242 C243 1.449 . S
C242 C246 1.535 . S
C243 C242 1.449 . S
C243 C244 1.384 . S
C243 C268 1.553 . S
C244 C243 1.384 . S
C244 C245 1.364 . S
C244 C247 1.450 . S
C245 C240 1.367 . S
C245 C244 1.364 . S
C245 H305 0.931 . S
C246 C242 1.535 . S
C246 H306 0.959 . S
C246 H307 0.961 . S
C246 H308 0.959 . S
C247 C244 1.450 . S
C247 H309 0.960 . S
C247 H310 0.960 . S
C247 H311 0.960 . S
C248 C249 1.309 . S
C248 C253 1.304 . S
C248 O286 1.435 . S
C249 C248 1.309 . S
C249 C250 1.476 . S
C249 H313 0.930 . S
C250 C249 1.476 . S
C250 C251 1.400 . S
C250 C254 1.567 . S
C251 C250 1.400 . S
C251 C252 1.373 . S
C251 C273 1.432 . S
C252 C251 1.373 . S
C252 C253 1.339 . S
C252 C255 1.530 . S
C253 C248 1.304 . S
C253 C252 1.339 . S
C253 H314 0.930 . S
C254 C250 1.567 . S
C254 H315 0.961 . S
C254 H316 0.960 . S
C254 H317 0.958 . S
C255 C252 1.530 . S
C255 H318 0.961 . S
C255 H319 0.960 . S
C255 H320 0.960 . S
C256 C257 1.530 . S
C256 H322 0.961 . S
C256 H323 0.961 . S
C256 H324 0.959 . S
C257 C256 1.530 . S
C257 O285 1.412 . S
C257 H321 0.980 . S
C258 C259 1.288 . S
C258 C263 1.377 . S
C258 O285 1.393 . S
C259 C258 1.288 . S
C259 C260 1.369 . S
C259 H325 0.932 . S
C260 C259 1.369 . S
C260 C261 1.398 . S
C260 C264 1.527 . S
C261 C260 1.398 . S
C261 C262 1.380 . S
C261 C275 1.497 . S
C262 C261 1.380 . S
C262 C263 1.383 . S
C262 C265 1.603 . S
C263 C258 1.377 . S
C263 C262 1.383 . S
C263 H326 0.929 . S
C264 C260 1.527 . S
C264 H327 0.961 . S
C264 H328 0.959 . S
C264 H329 0.959 . S
C265 C262 1.603 . S
C265 H330 0.960 . S
C265 H331 0.962 . S
C265 H332 0.961 . S
C266 C233 1.587 . S
C266 C267 1.360 . S
C266 C279 1.412 . S
C267 C266 1.360 . S
C267 C268 1.365 . S
C267 H333 0.929 . S
C268 C243 1.553 . S
C268 C267 1.365 . S
C268 C269 1.404 . S
C269 C268 1.404 . S
C269 C270 1.395 . S
C269 C280 1.451 . S
C270 C269 1.395 . S
C270 C271 1.322 . S
C270 H334 0.930 . S
C271 C270 1.322 . S
C271 C272 1.459 . S
C271 H335 0.929 . S
C272 C271 1.459 . S
C272 C273 1.445 . S
C272 C281 1.395 . S
C273 C251 1.432 . S
C273 C272 1.445 . S
C273 C274 1.370 . S
C274 C273 1.370 . S
C274 C275 1.438 . S
C274 H336 0.930 . S
C275 C261 1.497 . S
C275 C274 1.438 . S
C275 C276 1.360 . S
C276 C275 1.360 . S
C276 C277 1.401 . S
C276 C281 1.446 . S
C277 C276 1.401 . S
C277 C278 1.347 . S
C277 H337 0.929 . S
C278 C277 1.347 . S
C278 C279 1.455 . S
C278 H338 0.930 . S
C279 C266 1.412 . S
C279 C278 1.455 . S
C279 C280 1.331 . S
C280 C269 1.451 . S
C280 C279 1.331 . S
C280 C281 1.497 . S
C281 C272 1.395 . S
C281 C276 1.446 . S
C281 C280 1.497 . S
C282 C283 1.582 . S
C282 H339 0.962 . S
C282 H340 0.959 . S
C282 H341 0.958 . S
C283 C282 1.582 . S
C283 O286 1.458 . S
C283 H312 0.980 . S
O284 C229 1.426 . S
O284 C230 1.334 . S
O285 C257 1.412 . S
O285 C258 1.393 . S
O286 C248 1.435 . S
O286 C283 1.458 . S
O287 C239 1.468 . S
O287 C240 1.408 . S
H288 C229 0.980 . S
H289 C228 0.959 . S
H290 C228 0.959 . S
H291 C228 0.960 . S
H292 C231 0.929 . S
H293 C235 0.929 . S
H294 C236 0.959 . S
H295 C236 0.961 . S
H296 C236 0.961 . S
H297 C237 0.960 . S
H298 C237 0.960 . S
H299 C237 0.961 . S
H300 C239 0.980 . S
H301 C238 0.961 . S
H302 C238 0.960 . S
H303 C238 0.959 . S
H304 C241 0.930 . S
H305 C245 0.931 . S
H306 C246 0.959 . S
H307 C246 0.961 . S
H308 C246 0.959 . S
H309 C247 0.960 . S
H310 C247 0.960 . S
H311 C247 0.960 . S
H312 C283 0.980 . S
H313 C249 0.930 . S
H314 C253 0.930 . S
H315 C254 0.961 . S
H316 C254 0.960 . S
H317 C254 0.958 . S
H318 C255 0.961 . S
H319 C255 0.960 . S
H320 C255 0.960 . S
H321 C257 0.980 . S
H322 C256 0.961 . S
H323 C256 0.961 . S
H324 C256 0.959 . S
H325 C259 0.932 . S
H326 C263 0.929 . S
H327 C264 0.961 . S
H328 C264 0.959 . S
H329 C264 0.959 . S
H330 C265 0.960 . S
H331 C265 0.962 . S
H332 C265 0.961 . S
H333 C267 0.929 . S
H334 C270 0.930 . S
H335 C271 0.929 . S
H336 C274 0.930 . S
H337 C277 0.929 . S
H338 C278 0.930 . S
H339 C282 0.962 . S
H340 C282 0.959 . S
H341 C282 0.958 . S
C342 C343 1.560 . S
C342 H403 0.959 . S
C342 H404 0.959 . S
C342 H405 0.960 . S
C343 C342 1.560 . S
C343 O398 1.426 . S
C343 H402 0.980 . S
C344 C345 1.407 . S
C344 C349 1.418 . S
C344 O398 1.334 . S
C345 C344 1.407 . S
C345 C346 1.360 . S
C345 H406 0.929 . S
C346 C345 1.360 . S
C346 C347 1.401 . S
C346 C350 1.527 . S
C347 C346 1.401 . S
C347 C348 1.405 . S
C347 C380 1.587 . S
C348 C347 1.405 . S
C348 C349 1.332 . S
C348 C351 1.496 . S
C349 C344 1.418 . S
C349 C348 1.332 . S
C349 H407 0.929 . S
C350 C346 1.527 . S
C350 H408 0.959 . S
C350 H409 0.961 . S
C350 H410 0.961 . S
C351 C348 1.496 . S
C351 H411 0.960 . S
C351 H412 0.960 . S
C351 H413 0.961 . S
C352 C353 1.517 . S
C352 H415 0.961 . S
C352 H416 0.960 . S
C352 H417 0.959 . S
C353 C352 1.517 . S
C353 O401 1.468 1_554 S
C353 H414 0.980 . S
C354 C355 1.349 . S
C354 C359 1.367 . S
C354 O401 1.408 . S
C355 C354 1.349 . S
C355 C356 1.407 . S
C355 H418 0.930 . S
C356 C355 1.407 . S
C356 C357 1.449 . S
C356 C360 1.535 . S
C357 C356 1.449 . S
C357 C358 1.384 . S
C357 C382 1.553 1_655 S
C358 C357 1.384 . S
C358 C359 1.364 . S
C358 C361 1.450 . S
C359 C354 1.367 . S
C359 C358 1.364 . S
C359 H419 0.931 . S
C360 C356 1.535 . S
C360 H420 0.959 1_655 S
C360 H421 0.961 . S
C360 H422 0.959 . S
C361 C358 1.450 . S
C361 H423 0.960 . S
C361 H424 0.960 1_655 S
C361 H425 0.960 . S
C362 C363 1.309 . S
C362 C367 1.304 . S
C362 O400 1.435 . S
C363 C362 1.309 . S
C363 C364 1.476 . S
C363 H427 0.930 . S
C364 C363 1.476 . S
C364 C365 1.400 . S
C364 C368 1.567 . S
C365 C364 1.400 . S
C365 C366 1.373 . S
C365 C387 1.432 . S
C366 C365 1.373 . S
C366 C367 1.339 . S
C366 C369 1.530 . S
C367 C362 1.304 . S
C367 C366 1.339 . S
C367 H428 0.930 . S
C368 C364 1.567 . S
C368 H429 0.961 . S
C368 H430 0.960 . S
C368 H431 0.958 . S
C369 C366 1.530 . S
C369 H432 0.961 . S
C369 H433 0.960 . S
C369 H434 0.960 . S
C370 C371 1.530 . S
C370 H436 0.961 . S
C370 H437 0.961 . S
C370 H438 0.959 . S
C371 C370 1.530 . S
C371 O399 1.412 . S
C371 H435 0.980 . S
C372 C373 1.288 . S
C372 C377 1.377 . S
C372 O399 1.393 . S
C373 C372 1.288 . S
C373 C374 1.369 . S
C373 H439 0.932 . S
C374 C373 1.369 . S
C374 C375 1.398 . S
C374 C378 1.527 . S
C375 C374 1.398 . S
C375 C376 1.380 . S
C375 C389 1.497 . S
C376 C375 1.380 . S
C376 C377 1.383 . S
C376 C379 1.603 . S
C377 C372 1.377 . S
C377 C376 1.383 . S
C377 H440 0.929 . S
C378 C374 1.527 . S
C378 H441 0.961 . S
C378 H442 0.959 1_455 S
C378 H443 0.959 . S
C379 C376 1.603 . S
C379 H444 0.960 . S
C379 H445 0.962 . S
C379 H446 0.961 . S
C380 C347 1.587 . S
C380 C381 1.360 . S
C380 C393 1.412 . S
C381 C380 1.360 . S
C381 C382 1.365 . S
C381 H447 0.929 . S
C382 C357 1.553 1_455 S
C382 C381 1.365 . S
C382 C383 1.404 . S
C383 C382 1.404 . S
C383 C384 1.397 1_455 S
C383 C394 1.450 . S
C384 C383 1.397 1_655 S
C384 C385 1.322 . S
C384 H448 0.930 . S
C385 C384 1.322 . S
C385 C386 1.459 . S
C385 H449 0.929 . S
C386 C385 1.459 . S
C386 C387 1.445 . S
C386 C395 1.395 1_655 S
C387 C365 1.432 . S
C387 C386 1.445 . S
C387 C388 1.370 . S
C388 C387 1.370 . S
C388 C389 1.438 1_655 S
C388 H450 0.930 . S
C389 C375 1.497 . S
C389 C388 1.438 1_455 S
C389 C390 1.360 . S
C390 C389 1.360 . S
C390 C391 1.401 . S
C390 C395 1.446 . S
C391 C390 1.401 . S
C391 C392 1.347 . S
C391 H451 0.929 . S
C392 C391 1.347 . S
C392 C393 1.455 . S
C392 H452 0.930 . S
C393 C380 1.412 . S
C393 C392 1.455 . S
C393 C394 1.331 . S
C394 C383 1.450 . S
C394 C393 1.331 . S
C394 C395 1.497 . S
C395 C386 1.395 1_455 S
C395 C390 1.446 . S
C395 C394 1.497 . S
C396 C397 1.582 . S
C396 H453 0.962 . S
C396 H454 0.959 . S
C396 H455 0.958 . S
C397 C396 1.582 . S
C397 O400 1.458 . S
C397 H426 0.980 . S
O398 C343 1.426 . S
O398 C344 1.334 . S
O399 C371 1.412 . S
O399 C372 1.393 . S
O400 C362 1.435 . S
O400 C397 1.458 . S
O401 C353 1.468 1_556 S
O401 C354 1.408 . S
H402 C343 0.980 . S
H403 C342 0.959 . S
H404 C342 0.959 . S
H405 C342 0.960 . S
H406 C345 0.929 . S
H407 C349 0.929 . S
H408 C350 0.959 . S
H409 C350 0.961 . S
H410 C350 0.961 . S
H411 C351 0.960 . S
H412 C351 0.960 . S
H413 C351 0.961 . S
H414 C353 0.980 . S
H415 C352 0.961 . S
H416 C352 0.960 . S
H417 C352 0.959 . S
H418 C355 0.930 . S
H419 C359 0.931 . S
H420 C360 0.959 1_455 S
H421 C360 0.961 . S
H422 C360 0.959 . S
H423 C361 0.960 . S
H424 C361 0.960 1_455 S
H425 C361 0.960 . S
H426 C397 0.980 . S
H427 C363 0.930 . S
H428 C367 0.930 . S
H429 C368 0.961 . S
H430 C368 0.960 . S
H431 C368 0.958 . S
H432 C369 0.961 . S
H433 C369 0.960 . S
H434 C369 0.960 . S
H435 C371 0.980 . S
H436 C370 0.961 . S
H437 C370 0.961 . S
H438 C370 0.959 . S
H439 C373 0.932 . S
H440 C377 0.929 . S
H441 C378 0.961 . S
H442 C378 0.959 1_655 S
H443 C378 0.959 . S
H444 C379 0.960 . S
H445 C379 0.962 . S
H446 C379 0.961 . S
H447 C381 0.929 . S
H448 C384 0.930 . S
H449 C385 0.929 . S
H450 C388 0.930 . S
H451 C391 0.929 . S
H452 C392 0.930 . S
H453 C396 0.962 . S
H454 C396 0.959 . S
H455 C396 0.958 . S
C456 C457 1.560 . S
C456 H517 0.959 . S
C456 H518 0.959 . S
C456 H519 0.960 . S
C457 C456 1.560 . S
C457 O512 1.426 . S
C457 H516 0.980 . S
C458 C459 1.407 . S
C458 C463 1.418 . S
C458 O512 1.334 . S
C459 C458 1.407 . S
C459 C460 1.360 . S
C459 H520 0.929 . S
C460 C459 1.360 . S
C460 C461 1.401 . S
C460 C464 1.527 . S
C461 C460 1.401 . S
C461 C462 1.405 . S
C461 C494 1.587 . S
C462 C461 1.405 . S
C462 C463 1.332 . S
C462 C465 1.496 . S
C463 C458 1.418 . S
C463 C462 1.332 . S
C463 H521 0.929 . S
C464 C460 1.527 . S
C464 H522 0.959 . S
C464 H523 0.961 . S
C464 H524 0.961 . S
C465 C462 1.496 . S
C465 H525 0.960 . S
C465 H526 0.960 . S
C465 H527 0.961 . S
C466 C467 1.517 . S
C466 H529 0.961 . S
C466 H530 0.960 . S
C466 H531 0.959 . S
C467 C466 1.517 . S
C467 O515 1.468 . S
C467 H528 0.980 . S
C468 C469 1.349 . S
C468 C473 1.367 . S
C468 O515 1.408 . S
C469 C468 1.349 . S
C469 C470 1.407 . S
C469 H532 0.930 . S
C470 C469 1.407 . S
C470 C471 1.449 . S
C470 C474 1.535 . S
C471 C470 1.449 . S
C471 C472 1.384 . S
C471 C496 1.553 . S
C472 C471 1.384 . S
C472 C473 1.364 . S
C472 C475 1.450 . S
C473 C468 1.367 . S
C473 C472 1.364 . S
C473 H533 0.931 . S
C474 C470 1.535 . S
C474 H534 0.959 . S
C474 H535 0.961 . S
C474 H536 0.959 . S
C475 C472 1.450 . S
C475 H537 0.960 . S
C475 H538 0.960 1_545 S
C475 H539 0.960 . S
C476 C477 1.309 . S
C476 C481 1.304 . S
C476 O514 1.435 . S
C477 C476 1.309 . S
C477 C478 1.476 . S
C477 H541 0.930 . S
C478 C477 1.476 . S
C478 C479 1.400 . S
C478 C482 1.567 . S
C479 C478 1.400 . S
C479 C480 1.373 . S
C479 C501 1.432 . S
C480 C479 1.373 . S
C480 C481 1.339 . S
C480 C483 1.530 . S
C481 C476 1.304 . S
C481 C480 1.339 . S
C481 H542 0.930 . S
C482 C478 1.567 . S
C482 H543 0.961 . S
C482 H544 0.960 . S
C482 H545 0.958 . S
C483 C480 1.530 . S
C483 H546 0.961 . S
C483 H547 0.960 . S
C483 H548 0.960 . S
C484 C485 1.530 . S
C484 H550 0.961 . S
C484 H551 0.961 . S
C484 H552 0.959 . S
C485 C484 1.530 . S
C485 O513 1.412 . S
C485 H549 0.980 . S
C486 C487 1.288 . S
C486 C491 1.377 . S
C486 O513 1.393 . S
C487 C486 1.288 . S
C487 C488 1.369 . S
C487 H553 0.932 . S
C488 C487 1.369 . S
C488 C489 1.398 . S
C488 C492 1.527 . S
C489 C488 1.398 . S
C489 C490 1.380 . S
C489 C503 1.497 1_565 S
C490 C489 1.380 . S
C490 C491 1.383 . S
C490 C493 1.603 . S
C491 C486 1.377 . S
C491 C490 1.383 . S
C491 H554 0.929 . S
C492 C488 1.527 . S
C492 H555 0.961 . S
C492 H556 0.959 1_565 S
C492 H557 0.959 . S
C493 C490 1.603 . S
C493 H558 0.960 . S
C493 H559 0.962 . S
C493 H560 0.961 . S
C494 C461 1.587 . S
C494 C495 1.360 . S
C494 C507 1.412 . S
C495 C494 1.360 . S
C495 C496 1.365 1_565 S
C495 H561 0.929 . S
C496 C471 1.553 . S
C496 C495 1.365 1_545 S
C496 C497 1.404 . S
C497 C496 1.404 . S
C497 C498 1.395 . S
C497 C508 1.451 1_545 S
C498 C497 1.395 . S
C498 C499 1.322 . S
C498 H562 0.930 . S
C499 C498 1.322 . S
C499 C500 1.459 1_556 S
C499 H563 0.929 . S
C500 C499 1.459 1_554 S
C500 C501 1.445 . S
C500 C509 1.393 1_554 S
C501 C479 1.432 . S
C501 C500 1.445 . S
C501 C502 1.370 . S
C502 C501 1.370 . S
C502 C503 1.438 . S
C502 H564 0.930 . S
C503 C489 1.497 1_545 S
C503 C502 1.438 . S
C503 C504 1.360 1_545 S
C504 C503 1.360 1_565 S
C504 C505 1.401 . S
C504 C509 1.432 1_564 S
C505 C504 1.401 . S
C505 C506 1.347 1_554 S
C505 H565 0.929 . S
C506 C505 1.347 1_556 S
C506 C507 1.455 . S
C506 H566 0.930 . S
C507 C494 1.412 . S
C507 C506 1.455 . S
C507 C508 1.331 . S
C508 C497 1.451 1_565 S
C508 C507 1.331 . S
C508 C509 1.513 1_565 S
C509 C500 1.393 1_556 S
C509 C504 1.432 1_546 S
C509 C508 1.513 1_545 S
C510 C511 1.582 . S
C510 H567 0.962 . S
C510 H568 0.959 . S
C510 H569 0.958 . S
C511 C510 1.582 . S
C511 O514 1.458 . S
C511 H540 0.980 . S
O512 C457 1.426 . S
O512 C458 1.334 . S
O513 C485 1.412 . S
O513 C486 1.393 . S
O514 C476 1.435 . S
O514 C511 1.458 . S
O515 C467 1.468 . S
O515 C468 1.408 . S
H516 C457 0.980 . S
H517 C456 0.959 . S
H518 C456 0.959 . S
H519 C456 0.960 . S
H520 C459 0.929 . S
H521 C463 0.929 . S
H522 C464 0.959 . S
H523 C464 0.961 . S
H524 C464 0.961 . S
H525 C465 0.960 . S
H526 C465 0.960 . S
H527 C465 0.961 . S
H528 C467 0.980 . S
H529 C466 0.961 . S
H530 C466 0.960 . S
H531 C466 0.959 . S
H532 C469 0.930 . S
H533 C473 0.931 . S
H534 C474 0.959 . S
H535 C474 0.961 . S
H536 C474 0.959 . S
H537 C475 0.960 . S
H538 C475 0.960 1_565 S
H539 C475 0.960 . S
H540 C511 0.980 . S
H541 C477 0.930 . S
H542 C481 0.930 . S
H543 C482 0.961 . S
H544 C482 0.960 . S
H545 C482 0.958 . S
H546 C483 0.961 . S
H547 C483 0.960 . S
H548 C483 0.960 . S
H549 C485 0.980 . S
H550 C484 0.961 . S
H551 C484 0.961 . S
H552 C484 0.959 . S
H553 C487 0.932 . S
H554 C491 0.929 . S
H555 C492 0.961 . S
H556 C492 0.959 1_545 S
H557 C492 0.959 . S
H558 C493 0.960 . S
H559 C493 0.962 . S
H560 C493 0.961 . S
H561 C495 0.929 . S
H562 C498 0.930 . S
H563 C499 0.929 . S
H564 C502 0.930 . S
H565 C505 0.929 . S
H566 C506 0.930 . S
H567 C510 0.962 . S
H568 C510 0.959 . S
H569 C510 0.958 . S
C570 C571 1.560 . S
C570 H631 0.959 . S
C570 H632 0.959 . S
C570 H633 0.960 . S
C571 C570 1.560 . S
C571 O626 1.426 . S
C571 H630 0.980 . S
C572 C573 1.407 . S
C572 C577 1.418 . S
C572 O626 1.334 . S
C573 C572 1.407 . S
C573 C574 1.360 . S
C573 H634 0.929 . S
C574 C573 1.360 . S
C574 C575 1.401 . S
C574 C578 1.527 . S
C575 C574 1.401 . S
C575 C576 1.405 . S
C575 C608 1.587 . S
C576 C575 1.405 . S
C576 C577 1.332 . S
C576 C579 1.496 . S
C577 C572 1.418 . S
C577 C576 1.332 . S
C577 H635 0.929 . S
C578 C574 1.527 . S
C578 H636 0.959 . S
C578 H637 0.961 . S
C578 H638 0.961 . S
C579 C576 1.496 . S
C579 H639 0.960 . S
C579 H640 0.960 . S
C579 H641 0.961 . S
C580 C581 1.517 . S
C580 H643 0.961 . S
C580 H644 0.960 . S
C580 H645 0.959 . S
C581 C580 1.517 . S
C581 O629 1.468 . S
C581 H642 0.980 . S
C582 C583 1.354 . S
C582 C587 1.379 . S
C582 O629 1.393 1_554 S
C583 C582 1.354 . S
C583 C584 1.407 . S
C583 H646 0.930 1_554 S
C584 C583 1.407 . S
C584 C585 1.449 . S
C584 C588 1.535 . S
C585 C584 1.449 . S
C585 C586 1.384 . S
C585 C610 1.553 . S
C586 C585 1.384 . S
C586 C587 1.364 . S
C586 C589 1.450 . S
C587 C582 1.379 . S
C587 C586 1.364 . S
C587 H647 0.931 . S
C588 C584 1.535 . S
C588 H648 0.959 . S
C588 H649 0.961 . S
C588 H650 0.959 . S
C589 C586 1.450 . S
C589 H651 0.960 . S
C589 H652 0.960 . S
C589 H653 0.960 . S
C590 C591 1.309 . S
C590 C595 1.304 . S
C590 O628 1.435 . S
C591 C590 1.309 . S
C591 C592 1.476 . S
C591 H655 0.930 . S
C592 C591 1.476 . S
C592 C593 1.400 . S
C592 C596 1.567 . S
C593 C592 1.400 . S
C593 C594 1.373 . S
C593 C615 1.432 . S
C594 C593 1.373 . S
C594 C595 1.339 . S
C594 C597 1.530 . S
C595 C590 1.304 . S
C595 C594 1.339 . S
C595 H656 0.930 . S
C596 C592 1.567 . S
C596 H657 0.961 . S
C596 H658 0.960 . S
C596 H659 0.958 . S
C597 C594 1.530 . S
C597 H660 0.961 . S
C597 H661 0.960 . S
C597 H662 0.960 . S
C598 C599 1.530 . S
C598 H664 0.961 . S
C598 H665 0.961 . S
C598 H666 0.959 . S
C599 C598 1.530 . S
C599 O627 1.412 . S
C599 H663 0.980 . S
C600 C601 1.288 . S
C600 C605 1.377 . S
C600 O627 1.393 . S
C601 C600 1.288 . S
C601 C602 1.369 . S
C601 H667 0.932 . S
C602 C601 1.369 . S
C602 C603 1.398 . S
C602 C606 1.527 . S
C603 C602 1.398 . S
C603 C604 1.380 . S
C603 C617 1.497 . S
C604 C603 1.380 . S
C604 C605 1.383 . S
C604 C607 1.603 . S
C605 C600 1.377 . S
C605 C604 1.383 . S
C605 H668 0.929 . S
C606 C602 1.527 . S
C606 H669 0.961 . S
C606 H670 0.959 . S
C606 H671 0.959 . S
C607 C604 1.603 . S
C607 H672 0.960 . S
C607 H673 0.962 . S
C607 H674 0.961 . S
C608 C575 1.587 . S
C608 C609 1.360 . S
C608 C621 1.412 . S
C609 C608 1.360 . S
C609 C610 1.365 . S
C609 H675 0.929 . S
C610 C585 1.553 . S
C610 C609 1.365 . S
C610 C611 1.404 . S
C611 C610 1.404 . S
C611 C612 1.395 . S
C611 C622 1.451 . S
C612 C611 1.395 . S
C612 C613 1.322 . S
C612 H676 0.930 . S
C613 C612 1.322 . S
C613 C614 1.459 . S
C613 H677 0.929 . S
C614 C613 1.459 . S
C614 C615 1.445 . S
C614 C623 1.395 . S
C615 C593 1.432 . S
C615 C614 1.445 . S
C615 C616 1.370 . S
C616 C615 1.370 . S
C616 C617 1.438 . S
C616 H678 0.930 . S
C617 C603 1.497 . S
C617 C616 1.438 . S
C617 C618 1.360 . S
C618 C617 1.360 . S
C618 C619 1.401 . S
C618 C623 1.446 . S
C619 C618 1.401 . S
C619 C620 1.347 . S
C619 H679 0.929 . S
C620 C619 1.347 . S
C620 C621 1.455 . S
C620 H680 0.930 . S
C621 C608 1.412 . S
C621 C620 1.455 . S
C621 C622 1.331 . S
C622 C611 1.451 . S
C622 C621 1.331 . S
C622 C623 1.497 . S
C623 C614 1.395 . S
C623 C618 1.446 . S
C623 C622 1.497 . S
C624 C625 1.582 . S
C624 H681 0.962 . S
C624 H682 0.959 . S
C624 H683 0.958 . S
C625 C624 1.582 . S
C625 O628 1.458 . S
C625 H654 0.980 . S
O626 C571 1.426 . S
O626 C572 1.334 . S
O627 C599 1.412 . S
O627 C600 1.393 . S
O628 C590 1.435 . S
O628 C625 1.458 . S
O629 C581 1.468 . S
O629 C582 1.393 1_556 S
H630 C571 0.980 . S
H631 C570 0.959 . S
H632 C570 0.959 . S
H633 C570 0.960 . S
H634 C573 0.929 . S
H635 C577 0.929 . S
H636 C578 0.959 . S
H637 C578 0.961 . S
H638 C578 0.961 . S
H639 C579 0.960 . S
H640 C579 0.960 . S
H641 C579 0.961 . S
H642 C581 0.980 . S
H643 C580 0.961 . S
H644 C580 0.960 . S
H645 C580 0.959 . S
H646 C583 0.930 1_556 S
H647 C587 0.931 . S
H648 C588 0.959 . S
H649 C588 0.961 . S
H650 C588 0.959 . S
H651 C589 0.960 . S
H652 C589 0.960 . S
H653 C589 0.960 . S
H654 C625 0.980 . S
H655 C591 0.930 . S
H656 C595 0.930 . S
H657 C596 0.961 . S
H658 C596 0.960 . S
H659 C596 0.958 . S
H660 C597 0.961 . S
H661 C597 0.960 . S
H662 C597 0.960 . S
H663 C599 0.980 . S
H664 C598 0.961 . S
H665 C598 0.961 . S
H666 C598 0.959 . S
H667 C601 0.932 . S
H668 C605 0.929 . S
H669 C606 0.961 . S
H670 C606 0.959 . S
H671 C606 0.959 . S
H672 C607 0.960 . S
H673 C607 0.962 . S
H674 C607 0.961 . S
H675 C609 0.929 . S
H676 C612 0.930 . S
H677 C613 0.929 . S
H678 C616 0.930 . S
H679 C619 0.929 . S
H680 C620 0.930 . S
H681 C624 0.962 . S
H682 C624 0.959 . S
H683 C624 0.958 . S
Co684 O685 2.216 . S
Co684 O686 2.091 . S
Co684 O688 2.004 . S
Co684 O694 2.021 . S
Co684 O696 2.137 . S
Co684 O697 2.244 . S
O685 Co684 2.216 . S
O685 C692 1.247 . S
O686 Co684 2.091 . S
O686 C692 1.261 . S
C687 O696 1.247 . S
C687 O697 1.272 . S
O688 Co684 2.004 . S
O688 C693 1.259 . S
Co689 O690 2.061 . S
Co689 O695 2.052 . S
Co689 O697 2.135 . S
O690 Co689 2.061 . S
O690 C693 1.235 . S
C691 O694 1.238 . S
C691 O695 1.241 . S
C692 O685 1.247 . S
C692 O686 1.261 . S
C693 O688 1.259 . S
C693 O690 1.235 . S
O694 Co684 2.021 . S
O694 C691 1.238 . S
O695 Co689 2.052 . S
O695 C691 1.241 . S
O696 Co684 2.137 . S
O696 C687 1.247 . S
O697 Co684 2.244 . S
O697 C687 1.272 . S
O697 Co689 2.135 . S
Co698 O699 2.216 . S
Co698 O700 2.091 . S
Co698 O702 2.004 . S
Co698 O708 2.021 . S
Co698 O710 2.137 . S
Co698 O711 2.244 . S
O699 Co698 2.216 . S
O699 C706 1.247 . S
O700 Co698 2.091 . S
O700 C706 1.261 . S
C701 O710 1.247 . S
C701 O711 1.272 . S
O702 Co698 2.004 . S
O702 C707 1.259 . S
Co703 O704 2.061 . S
Co703 O709 2.052 . S
Co703 O711 2.135 . S
O704 Co703 2.061 . S
O704 C707 1.235 . S
C705 O708 1.238 . S
C705 O709 1.241 . S
C706 O699 1.247 . S
C706 O700 1.261 . S
C707 O702 1.259 . S
C707 O704 1.235 . S
O708 Co698 2.021 . S
O708 C705 1.238 . S
O709 Co703 2.052 . S
O709 C705 1.241 . S
O710 Co698 2.137 . S
O710 C701 1.247 . S
O711 Co698 2.244 . S
O711 C701 1.272 . S
O711 Co703 2.135 . S
Co712 O713 2.216 . S
Co712 O714 2.091 . S
Co712 O716 2.004 . S
Co712 O722 2.021 . S
Co712 O724 2.137 . S
Co712 O725 2.244 . S
O713 Co712 2.216 . S
O713 C720 1.247 . S
O714 Co712 2.091 . S
O714 C720 1.261 . S
C715 O724 1.247 . S
C715 O725 1.272 . S
O716 Co712 2.004 . S
O716 C721 1.259 . S
Co717 O718 2.061 . S
Co717 O723 2.052 . S
Co717 O725 2.135 . S
O718 Co717 2.061 . S
O718 C721 1.235 . S
C719 O722 1.238 . S
C719 O723 1.241 . S
C720 O713 1.247 . S
C720 O714 1.261 . S
C721 O716 1.259 . S
C721 O718 1.235 . S
O722 Co712 2.021 . S
O722 C719 1.238 . S
O723 Co717 2.052 . S
O723 C719 1.241 . S
O724 Co712 2.137 . S
O724 C715 1.247 . S
O725 Co712 2.244 . S
O725 C715 1.272 . S
O725 Co717 2.135 . S
Co726 O727 2.216 . S
Co726 O728 2.091 . S
Co726 O730 2.004 . S
Co726 O736 2.021 . S
Co726 O738 2.137 . S
Co726 O739 2.244 . S
O727 Co726 2.216 . S
O727 C734 1.247 . S
O728 Co726 2.091 . S
O728 C734 1.261 . S
C729 O738 1.247 . S
C729 O739 1.272 . S
O730 Co726 2.004 . S
O730 C735 1.259 . S
Co731 O732 2.061 . S
Co731 O737 2.052 . S
Co731 O739 2.135 . S
O732 Co731 2.061 . S
O732 C735 1.235 . S
C733 O736 1.238 . S
C733 O737 1.241 . S
C734 O727 1.247 . S
C734 O728 1.261 . S
C735 O730 1.259 . S
C735 O732 1.235 . S
O736 Co726 2.021 . S
O736 C733 1.238 . S
O737 Co731 2.052 . S
O737 C733 1.241 . S
O738 Co726 2.137 . S
O738 C729 1.247 . S
O739 Co726 2.244 . S
O739 C729 1.272 . S
O739 Co731 2.135 . S
Co740 O741 2.216 . S
Co740 O742 2.091 . S
Co740 O744 2.004 . S
Co740 O750 2.021 . S
Co740 O752 2.137 . S
Co740 O753 2.244 . S
O741 Co740 2.216 . S
O741 C748 1.247 . S
O742 Co740 2.091 . S
O742 C748 1.261 . S
C743 O752 1.247 . S
C743 O753 1.272 . S
O744 Co740 2.004 . S
O744 C749 1.259 . S
Co745 O746 2.061 . S
Co745 O751 2.052 . S
Co745 O753 2.135 . S
O746 Co745 2.061 . S
O746 C749 1.235 . S
C747 O750 1.238 . S
C747 O751 1.241 . S
C748 O741 1.247 . S
C748 O742 1.261 . S
C749 O744 1.259 . S
C749 O746 1.235 . S
O750 Co740 2.021 . S
O750 C747 1.238 . S
O751 Co745 2.052 . S
O751 C747 1.241 . S
O752 Co740 2.137 . S
O752 C743 1.247 . S
O753 Co740 2.244 . S
O753 C743 1.272 . S
O753 Co745 2.135 . S
Co754 O755 2.216 . S
Co754 O756 2.091 . S
Co754 O758 2.004 . S
Co754 O764 2.021 . S
Co754 O766 2.137 . S
Co754 O767 2.244 . S
O755 Co754 2.216 . S
O755 C762 1.247 . S
O756 Co754 2.091 . S
O756 C762 1.261 . S
C757 O766 1.247 . S
C757 O767 1.272 . S
O758 Co754 2.004 . S
O758 C763 1.259 . S
Co759 O760 2.061 . S
Co759 O765 2.052 . S
Co759 O767 2.135 . S
O760 Co759 2.061 . S
O760 C763 1.235 . S
C761 O764 1.238 . S
C761 O765 1.241 . S
C762 O755 1.247 . S
C762 O756 1.261 . S
C763 O758 1.259 . S
C763 O760 1.235 . S
O764 Co754 2.021 . S
O764 C761 1.238 . S
O765 Co759 2.052 . S
O765 C761 1.241 . S
O766 Co754 2.137 . S
O766 C757 1.247 . S
O767 Co754 2.244 . S
O767 C757 1.272 . S
O767 Co759 2.135 . S
C757 C1 2.374 . S
C169 C687 2.677 . S
C283 C706 2.784 . S
C397 C715 2.594 . S
C729 C457 2.091 . S
C571 C748 2.220 . S
C115 C701 2.281 . S
C229 C720 2.196 . S
C343 C734 2.113 . S
C743 C511 2.339 . S
C762 C625 2.830 . S
C692 C55 2.694 . S
C29 C707 1.037 . S
C125 C719 0.689 . S
C733 C239 0.636 . S
C353 C749 0.925 . S
C761 C485 1.282 . S
C691 C599 1.094 . S
C763 C143 1.089 . S
C257 C693 0.991 . S
C705 C371 1.085 . S
C467 C721 0.841 . S
C581 C735 1.057 . S
C11 C747 0.755 . S
