# Generated by pormake.
# Topology eea, (3,6)-cn, num edge types: 1
# Building blocks:
#     Node 0, Type 0, BuildingBlock: KAKCAD_clean_linker_0, # of connection points: 3
#     Node 1, Type 0, BuildingBlock: KAKCAD_clean_linker_0, # of connection points: 3
#     Node 2, Type 0, BuildingBlock: KAKCAD_clean_linker_0, # of connection points: 3
#     Node 3, Type 0, BuildingBlock: KAKCAD_clean_linker_0, # of connection points: 3
#     Node 4, Type 0, BuildingBlock: KAKCAD_clean_linker_0, # of connection points: 3
#     Node 5, Type 0, BuildingBlock: KAKCAD_clean_linker_0, # of connection points: 3
#     Node 6, Type 0, BuildingBlock: KAKCAD_clean_linker_0, # of connection points: 3
#     Node 7, Type 0, BuildingBlock: KAKCAD_clean_linker_0, # of connection points: 3
#     Node 8, Type 0, BuildingBlock: KAKCAD_clean_linker_0, # of connection points: 3
#     Node 9, Type 0, BuildingBlock: KAKCAD_clean_linker_0, # of connection points: 3
#     Node 10, Type 0, BuildingBlock: KAKCAD_clean_linker_0, # of connection points: 3
#     Node 11, Type 0, BuildingBlock: KAKCAD_clean_linker_0, # of connection points: 3
#     Node 12, Type 0, BuildingBlock: KAKCAD_clean_linker_0, # of connection points: 3
#     Node 13, Type 0, BuildingBlock: KAKCAD_clean_linker_0, # of connection points: 3
#     Node 14, Type 0, BuildingBlock: KAKCAD_clean_linker_0, # of connection points: 3
#     Node 15, Type 0, BuildingBlock: KAKCAD_clean_linker_0, # of connection points: 3
#     Node 16, Type 0, BuildingBlock: KAKCAD_clean_linker_0, # of connection points: 3
#     Node 17, Type 0, BuildingBlock: KAKCAD_clean_linker_0, # of connection points: 3
#     Node 18, Type 1, BuildingBlock: KUMBOL_clean_sbu_0, # of connection points: 6
#     Node 19, Type 1, BuildingBlock: KUMBOL_clean_sbu_0, # of connection points: 6
#     Node 20, Type 1, BuildingBlock: KUMBOL_clean_sbu_0, # of connection points: 6
#     Node 21, Type 1, BuildingBlock: KUMBOL_clean_sbu_0, # of connection points: 6
#     Node 22, Type 1, BuildingBlock: KUMBOL_clean_sbu_0, # of connection points: 6
#     Node 23, Type 1, BuildingBlock: KUMBOL_clean_sbu_0, # of connection points: 6
#     Node 24, Type 1, BuildingBlock: KUMBOL_clean_sbu_0, # of connection points: 6
#     Node 25, Type 1, BuildingBlock: KUMBOL_clean_sbu_0, # of connection points: 6
#     Node 26, Type 1, BuildingBlock: KUMBOL_clean_sbu_0, # of connection points: 6
#     Edge 27, Type (0, 1), BuildingBlock: OJICUG_clean_linker_0, # of connection points: 2
#     Edge 28, Type (0, 1), BuildingBlock: OJICUG_clean_linker_0, # of connection points: 2
#     Edge 29, Type (0, 1), BuildingBlock: OJICUG_clean_linker_0, # of connection points: 2
#     Edge 30, Type (0, 1), BuildingBlock: OJICUG_clean_linker_0, # of connection points: 2
#     Edge 31, Type (0, 1), BuildingBlock: OJICUG_clean_linker_0, # of connection points: 2
#     Edge 32, Type (0, 1), BuildingBlock: OJICUG_clean_linker_0, # of connection points: 2
#     Edge 33, Type (0, 1), BuildingBlock: OJICUG_clean_linker_0, # of connection points: 2
#     Edge 34, Type (0, 1), BuildingBlock: OJICUG_clean_linker_0, # of connection points: 2
#     Edge 35, Type (0, 1), BuildingBlock: OJICUG_clean_linker_0, # of connection points: 2
#     Edge 36, Type (0, 1), BuildingBlock: OJICUG_clean_linker_0, # of connection points: 2
#     Edge 37, Type (0, 1), BuildingBlock: OJICUG_clean_linker_0, # of connection points: 2
#     Edge 38, Type (0, 1), BuildingBlock: OJICUG_clean_linker_0, # of connection points: 2
#     Edge 39, Type (0, 1), BuildingBlock: OJICUG_clean_linker_0, # of connection points: 2
#     Edge 40, Type (0, 1), BuildingBlock: OJICUG_clean_linker_0, # of connection points: 2
#     Edge 41, Type (0, 1), BuildingBlock: OJICUG_clean_linker_0, # of connection points: 2
#     Edge 42, Type (0, 1), BuildingBlock: OJICUG_clean_linker_0, # of connection points: 2
#     Edge 43, Type (0, 1), BuildingBlock: OJICUG_clean_linker_0, # of connection points: 2
#     Edge 44, Type (0, 1), BuildingBlock: OJICUG_clean_linker_0, # of connection points: 2
#     Edge 45, Type (0, 1), BuildingBlock: OJICUG_clean_linker_0, # of connection points: 2
#     Edge 46, Type (0, 1), BuildingBlock: OJICUG_clean_linker_0, # of connection points: 2
#     Edge 47, Type (0, 1), BuildingBlock: OJICUG_clean_linker_0, # of connection points: 2
#     Edge 48, Type (0, 1), BuildingBlock: OJICUG_clean_linker_0, # of connection points: 2
#     Edge 49, Type (0, 1), BuildingBlock: OJICUG_clean_linker_0, # of connection points: 2
#     Edge 50, Type (0, 1), BuildingBlock: OJICUG_clean_linker_0, # of connection points: 2
#     Edge 51, Type (0, 1), BuildingBlock: OJICUG_clean_linker_0, # of connection points: 2
#     Edge 52, Type (0, 1), BuildingBlock: OJICUG_clean_linker_0, # of connection points: 2
#     Edge 53, Type (0, 1), BuildingBlock: OJICUG_clean_linker_0, # of connection points: 2
#     Edge 54, Type (0, 1), BuildingBlock: OJICUG_clean_linker_0, # of connection points: 2
#     Edge 55, Type (0, 1), BuildingBlock: OJICUG_clean_linker_0, # of connection points: 2
#     Edge 56, Type (0, 1), BuildingBlock: OJICUG_clean_linker_0, # of connection points: 2
#     Edge 57, Type (0, 1), BuildingBlock: OJICUG_clean_linker_0, # of connection points: 2
#     Edge 58, Type (0, 1), BuildingBlock: OJICUG_clean_linker_0, # of connection points: 2
#     Edge 59, Type (0, 1), BuildingBlock: OJICUG_clean_linker_0, # of connection points: 2
#     Edge 60, Type (0, 1), BuildingBlock: OJICUG_clean_linker_0, # of connection points: 2
#     Edge 61, Type (0, 1), BuildingBlock: OJICUG_clean_linker_0, # of connection points: 2
#     Edge 62, Type (0, 1), BuildingBlock: OJICUG_clean_linker_0, # of connection points: 2
#     Edge 63, Type (0, 1), BuildingBlock: OJICUG_clean_linker_0, # of connection points: 2
#     Edge 64, Type (0, 1), BuildingBlock: OJICUG_clean_linker_0, # of connection points: 2
#     Edge 65, Type (0, 1), BuildingBlock: OJICUG_clean_linker_0, # of connection points: 2
#     Edge 66, Type (0, 1), BuildingBlock: OJICUG_clean_linker_0, # of connection points: 2
#     Edge 67, Type (0, 1), BuildingBlock: OJICUG_clean_linker_0, # of connection points: 2
#     Edge 68, Type (0, 1), BuildingBlock: OJICUG_clean_linker_0, # of connection points: 2
#     Edge 69, Type (0, 1), BuildingBlock: OJICUG_clean_linker_0, # of connection points: 2
#     Edge 70, Type (0, 1), BuildingBlock: OJICUG_clean_linker_0, # of connection points: 2
#     Edge 71, Type (0, 1), BuildingBlock: OJICUG_clean_linker_0, # of connection points: 2
#     Edge 72, Type (0, 1), BuildingBlock: OJICUG_clean_linker_0, # of connection points: 2
#     Edge 73, Type (0, 1), BuildingBlock: OJICUG_clean_linker_0, # of connection points: 2
#     Edge 74, Type (0, 1), BuildingBlock: OJICUG_clean_linker_0, # of connection points: 2
#     Edge 75, Type (0, 1), BuildingBlock: OJICUG_clean_linker_0, # of connection points: 2
#     Edge 76, Type (0, 1), BuildingBlock: OJICUG_clean_linker_0, # of connection points: 2
#     Edge 77, Type (0, 1), BuildingBlock: OJICUG_clean_linker_0, # of connection points: 2
#     Edge 78, Type (0, 1), BuildingBlock: OJICUG_clean_linker_0, # of connection points: 2
#     Edge 79, Type (0, 1), BuildingBlock: OJICUG_clean_linker_0, # of connection points: 2
#     Edge 80, Type (0, 1), BuildingBlock: OJICUG_clean_linker_0, # of connection points: 2
# Relax obj value: 0.008
# Max RMSD: 0.088
# Mean RMSD: 0.072
data_MOF--net-eea--node1-KUMBOL_clean_sbu_0--node2-KAKCAD_clean_linker_0--edge1-OJICUG_clean_linker_0
_symmetry_space_group_name_H-M    P1
_symmetry_Int_Tables_number       1
_symmetry_cell_setting            triclinic
loop_
_symmetry_equiv_pos_as_xyz
'x, y, z'
_cell_length_a     48.360932
_cell_length_b     49.584975
_cell_length_c     71.653717
_cell_angle_alpha  90.104357
_cell_angle_beta   89.875377
_cell_angle_gamma 119.96807
loop_
_atom_site_label
_atom_site_type_symbol
_atom_site_fract_x
_atom_site_fract_y
_atom_site_fract_z
_atom_type_partial_charge
C0 C 0.29431 0.16332 0.49667 0.0
C1 C 0.31341 0.15063 0.50179 0.0
C2 C 0.2786 0.1558 0.47947 0.0
C3 C 0.28224 0.13596 0.46687 0.0
C4 C 0.30173 0.12356 0.47207 0.0
C5 C 0.31683 0.13055 0.48943 0.0
C6 C 0.26615 0.1284 0.4483 0.0
C7 C 0.26208 0.15068 0.43847 0.0
C8 C 0.24715 0.14376 0.42092 0.0
C9 C 0.23776 0.11466 0.41276 0.0
C10 C 0.24182 0.09204 0.42222 0.0
C11 C 0.25516 0.09893 0.44022 0.0
C12 C 0.23272 0.06151 0.41322 0.0
C13 C 0.20721 0.04762 0.40051 0.0
C14 C 0.25004 0.04625 0.41699 0.0
C15 C 0.24194 0.01793 0.40848 0.0
C16 C 0.21694 0.0044 0.39541 0.0
C17 C 0.24062 0.16663 0.41135 0.0
C18 C 0.23079 0.18449 0.42172 0.0
C19 C 0.24303 0.17009 0.39181 0.0
C20 C 0.2353 0.1905 0.38288 0.0
C21 C 0.2255 0.20823 0.39332 0.0
C22 C 0.22352 0.20519 0.41282 0.0
C23 C 0.19978 0.01979 0.39151 0.0
H24 H 0.29117 0.17868 0.50611 0.0
H25 H 0.26336 0.16534 0.47618 0.0
H26 H 0.30579 0.10879 0.46265 0.0
H27 H 0.33174 0.12076 0.49306 0.0
H28 H 0.27105 0.17372 0.44431 0.0
H29 H 0.25667 0.08113 0.44811 0.0
H30 H 0.22715 0.10965 0.39901 0.0
H31 H 0.19276 0.0581 0.39743 0.0
H32 H 0.27024 0.05627 0.42639 0.0
H33 H 0.25537 0.00669 0.41229 0.0
H34 H 0.22801 0.18203 0.43673 0.0
H35 H 0.25106 0.15716 0.38338 0.0
H36 H 0.18071 0.01064 0.38135 0.0
H37 H 0.21566 0.21836 0.42117 0.0
H38 H 0.23735 0.19272 0.36783 0.0
C39 C 0.87541 0.17745 0.48458 0.0
C40 C 0.8697 0.15788 0.50012 0.0
C41 C 0.88395 0.17065 0.46726 0.0
C42 C 0.88635 0.14381 0.46491 0.0
C43 C 0.88106 0.12439 0.48032 0.0
C44 C 0.87323 0.13151 0.49775 0.0
C45 C 0.89246 0.13504 0.4462 0.0
C46 C 0.91986 0.1554 0.43597 0.0
C47 C 0.925 0.14713 0.41804 0.0
C48 C 0.9025 0.11828 0.41044 0.0
C49 C 0.87479 0.09762 0.42043 0.0
C50 C 0.87013 0.10634 0.43836 0.0
C51 C 0.85065 0.06723 0.41208 0.0
C52 C 0.84485 0.06443 0.39271 0.0
C53 C 0.83311 0.04071 0.42335 0.0
C54 C 0.8104 0.01235 0.4155 0.0
C55 C 0.80523 0.00968 0.39617 0.0
C56 C 0.95367 0.16869 0.40705 0.0
C57 C 0.95041 0.17738 0.38888 0.0
C58 C 0.98438 0.18063 0.41459 0.0
C59 C 0.01134 0.20103 0.40418 0.0
C60 C 0.00803 0.21037 0.38621 0.0
C61 C 0.97732 0.19833 0.37864 0.0
C62 C 0.82267 0.0359 0.38484 0.0
H63 H 0.87242 0.19762 0.48557 0.0
H64 H 0.88757 0.18579 0.4555 0.0
H65 H 0.88296 0.10362 0.47885 0.0
H66 H 0.86992 0.11622 0.50934 0.0
H67 H 0.93701 0.17772 0.44189 0.0
H68 H 0.84859 0.09127 0.44612 0.0
H69 H 0.90708 0.1118 0.39682 0.0
H70 H 0.85717 0.08432 0.38356 0.0
H71 H 0.83721 0.04161 0.43824 0.0
H72 H 0.79739 0.99229 0.42447 0.0
H73 H 0.92696 0.16852 0.38278 0.0
H74 H 0.9875 0.1741 0.42852 0.0
H75 H 0.81884 0.03438 0.36989 0.0
H76 H 0.97418 0.20532 0.36485 0.0
H77 H 0.03476 0.21032 0.41041 0.0
C78 C 0.89494 0.73978 0.4921 0.0
C79 C 0.86316 0.71862 0.49725 0.0
C80 C 0.90216 0.75411 0.47446 0.0
C81 C 0.87782 0.74754 0.4614 0.0
C82 C 0.84608 0.72662 0.4667 0.0
C83 C 0.83888 0.71273 0.48434 0.0
C84 C 0.88509 0.76158 0.44219 0.0
C85 C 0.91293 0.76729 0.43251 0.0
C86 C 0.91826 0.77798 0.41392 0.0
C87 C 0.8952 0.78266 0.40484 0.0
C88 C 0.86745 0.77768 0.41427 0.0
C89 C 0.86319 0.7679 0.43304 0.0
C90 C 0.84225 0.7817 0.40462 0.0
C91 C 0.85012 0.80583 0.39167 0.0
C92 C 0.80978 0.76136 0.40858 0.0
C93 C 0.78599 0.76544 0.40031 0.0
C94 C 0.79372 0.7897 0.38751 0.0
C95 C 0.94766 0.78344 0.40389 0.0
C96 C 0.97791 0.80234 0.41185 0.0
C97 C 0.94568 0.76933 0.38651 0.0
C98 C 0.97333 0.77336 0.37755 0.0
C99 C 1.00357 0.79217 0.38556 0.0
C100 C 0.00557 0.80692 0.4027 0.0
C101 C 0.82617 0.80975 0.38321 0.0
H102 H 0.91443 0.74483 0.50151 0.0
H103 H 0.92686 0.77034 0.47111 0.0
H104 H 0.82655 0.72031 0.45709 0.0
H105 H 0.81404 0.69718 0.48777 0.0
H106 H 0.93 0.7623 0.43913 0.0
H107 H 0.8426 0.76527 0.44061 0.0
H108 H 0.89888 0.79002 0.39038 0.0
H109 H 0.87482 0.82208 0.3883 0.0
H110 H 0.80256 0.7421 0.41815 0.0
H111 H 0.76146 0.74976 0.4043 0.0
H112 H 0.98015 0.8136 0.42517 0.0
H113 H 0.92268 0.75454 0.38009 0.0
H114 H 0.83313 0.82849 0.37327 0.0
H115 H 0.02852 0.82131 0.40928 0.0
H116 H 0.9711 0.76173 0.36436 0.0
C117 C 0.14682 0.25379 0.5311 0.0
C118 C 0.14481 0.28066 0.52725 0.0
C119 C 0.14036 0.24064 0.54905 0.0
C120 C 0.13122 0.25369 0.56357 0.0
C121 C 0.12904 0.28035 0.55976 0.0
C122 C 0.13597 0.29377 0.54197 0.0
C123 C 0.12441 0.24009 0.58275 0.0
C124 C 0.14573 0.23281 0.59168 0.0
C125 C 0.14078 0.22253 0.61034 0.0
C126 C 0.11368 0.21886 0.61996 0.0
C127 C 0.0914 0.22507 0.61114 0.0
C128 C 0.09719 0.23574 0.59251 0.0
C129 C 0.06236 0.22091 0.62133 0.0
C130 C 0.04579 0.19633 0.63408 0.0
C131 C 0.0506 0.24135 0.61813 0.0
C132 C 0.02292 0.23705 0.62703 0.0
C133 C 0.00619 0.21242 0.63971 0.0
C134 C 0.16466 0.21677 0.61995 0.0
C135 C 0.17527 0.19783 0.61166 0.0
C136 C 0.17773 0.23096 0.6372 0.0
C137 C 0.20155 0.22699 0.64572 0.0
C138 C 0.21231 0.20822 0.63736 0.0
C139 C 0.1986 0.19334 0.62037 0.0
C140 C 0.01816 0.19219 0.64318 0.0
H141 H 0.15304 0.24259 0.52021 0.0
H142 H 0.14207 0.21998 0.55151 0.0
H143 H 0.1226 0.2913 0.57072 0.0
H144 H 0.13495 0.31487 0.53993 0.0
H145 H 0.16699 0.23648 0.58438 0.0
H146 H 0.08025 0.24035 0.58539 0.0
H147 H 0.11014 0.21136 0.63439 0.0
H148 H 0.0538 0.17987 0.63684 0.0
H149 H 0.06282 0.26089 0.60871 0.0
H150 H 0.01437 0.25287 0.62363 0.0
H151 H 0.16554 0.18651 0.59842 0.0
H152 H 0.17015 0.24582 0.64386 0.0
H153 H 0.00626 0.17314 0.65295 0.0
H154 H 0.2066 0.17893 0.61354 0.0
H155 H 0.21165 0.23867 0.65883 0.0
C156 C 0.68589 0.82298 0.53954 0.0
C157 C 0.69419 0.84763 0.52702 0.0
C158 C 0.7004 0.82859 0.55712 0.0
C159 C 0.72383 0.85891 0.56238 0.0
C160 C 0.7328 0.88326 0.54944 0.0
C161 C 0.71792 0.87773 0.53207 0.0
C162 C 0.73857 0.86557 0.58133 0.0
C163 C 0.74524 0.84433 0.59042 0.0
C164 C 0.76018 0.8514 0.60799 0.0
C165 C 0.76896 0.88026 0.61634 0.0
C166 C 0.76215 0.90165 0.60762 0.0
C167 C 0.7464 0.89372 0.59032 0.0
C168 C 0.77149 0.93234 0.6164 0.0
C169 C 0.77009 0.93525 0.63588 0.0
C170 C 0.78168 0.95905 0.60525 0.0
C171 C 0.78958 0.98767 0.61331 0.0
C172 C 0.7881 0.99043 0.63272 0.0
C173 C 0.76676 0.82872 0.61766 0.0
C174 C 0.743 0.79725 0.61904 0.0
C175 C 0.79665 0.83849 0.62587 0.0
C176 C 0.80269 0.81725 0.63522 0.0
C177 C 0.77889 0.78573 0.63675 0.0
C178 C 0.74893 0.77603 0.62854 0.0
C179 C 0.77857 0.96406 0.64396 0.0
H180 H 0.66753 0.79956 0.53594 0.0
H181 H 0.69264 0.8093 0.56672 0.0
H182 H 0.75139 0.90675 0.55269 0.0
H183 H 0.72507 0.89703 0.52252 0.0
H184 H 0.73965 0.82263 0.58366 0.0
H185 H 0.73976 0.90943 0.58392 0.0
H186 H 0.78108 0.88597 0.62968 0.0
H187 H 0.76192 0.9152 0.64491 0.0
H188 H 0.78385 0.95799 0.59026 0.0
H189 H 0.7973 0.0078 0.60438 0.0
H190 H 0.7196 0.78914 0.61305 0.0
H191 H 0.81555 0.86253 0.62484 0.0
H192 H 0.77706 0.96562 0.65897 0.0
H193 H 0.72986 0.75209 0.62964 0.0
H194 H 0.82626 0.82551 0.64097 0.0
C195 C 0.11843 0.83446 0.53162 0.0
C196 C 0.15006 0.84713 0.52541 0.0
C197 C 0.11187 0.84136 0.54949 0.0
C198 C 0.13687 0.86056 0.56174 0.0
C199 C 0.16855 0.87292 0.55541 0.0
C200 C 0.17502 0.86658 0.53742 0.0
C201 C 0.13023 0.86751 0.58106 0.0
C202 C 0.10356 0.84542 0.59126 0.0
C203 C 0.09806 0.8517 0.60961 0.0
C204 C 0.11998 0.87995 0.61804 0.0
C205 C 0.14634 0.90282 0.60803 0.0
C206 C 0.15084 0.89644 0.58946 0.0
C207 C 0.16876 0.93355 0.61677 0.0
C208 C 0.1578 0.94721 0.62992 0.0
C209 C 0.20134 0.9497 0.61193 0.0
C210 C 0.22213 0.97882 0.61969 0.0
C211 C 0.21121 0.99239 0.63293 0.0
C212 C 0.06831 0.82971 0.61962 0.0
C213 C 0.03864 0.81941 0.61102 0.0
C214 C 0.06912 0.82044 0.63807 0.0
C215 C 0.04069 0.80131 0.64775 0.0
C216 C 0.01106 0.79181 0.63927 0.0
C217 C 0.01034 0.80086 0.62079 0.0
C218 C 0.17876 0.97594 0.63805 0.0
H219 H 0.09877 0.8195 0.52254 0.0
H220 H 0.08718 0.83182 0.55359 0.0
H221 H 0.18855 0.88712 0.56445 0.0
H222 H 0.19964 0.87628 0.53304 0.0
H223 H 0.08718 0.82304 0.58514 0.0
H224 H 0.17011 0.91438 0.58133 0.0
H225 H 0.11594 0.88425 0.63233 0.0
H226 H 0.13288 0.936 0.63385 0.0
H227 H 0.21101 0.93988 0.60215 0.0
H228 H 0.24673 0.99075 0.61507 0.0
H229 H 0.03732 0.82644 0.5969 0.0
H230 H 0.09173 0.82808 0.64499 0.0
H231 H 0.16933 0.98507 0.64844 0.0
H232 H 0.98778 0.79353 0.61386 0.0
H233 H 0.04182 0.79453 0.66196 0.0
C234 C 0.96365 0.50084 0.82718 0.0
C235 C 0.98035 0.4861 0.83326 0.0
C236 C 0.9495 0.49432 0.80952 0.0
C237 C 0.95235 0.47342 0.79741 0.0
C238 C 0.96935 0.4589 0.8036 0.0
C239 C 0.98287 0.46492 0.8214 0.0
C240 C 0.93808 0.46701 0.77833 0.0
C241 C 0.93708 0.49056 0.76798 0.0
C242 C 0.92379 0.48473 0.74997 0.0
C243 C 0.91306 0.45526 0.74189 0.0
C244 C 0.91427 0.4314 0.75183 0.0
C245 C 0.92583 0.43736 0.77026 0.0
C246 C 0.90418 0.4005 0.74299 0.0
C247 C 0.8797 0.3877 0.72956 0.0
C248 C 0.91946 0.38364 0.74777 0.0
C249 C 0.9103 0.3548 0.73963 0.0
C250 C 0.88626 0.34222 0.72595 0.0
C251 C 0.92038 0.50921 0.73988 0.0
C252 C 0.91216 0.5288 0.74973 0.0
C253 C 0.9242 0.51261 0.72038 0.0
C254 C 0.91916 0.53449 0.71097 0.0
C255 C 0.91072 0.55378 0.72088 0.0
C256 C 0.90761 0.55093 0.74036 0.0
C257 C 0.87116 0.3592 0.721 0.0
H258 H 0.96123 0.51711 0.8362 0.0
H259 H 0.93611 0.50552 0.80547 0.0
H260 H 0.97276 0.44324 0.79461 0.0
H261 H 0.99597 0.45355 0.82575 0.0
H262 H 0.94718 0.51374 0.77381 0.0
H263 H 0.92502 0.41869 0.77849 0.0
H264 H 0.90368 0.45092 0.72784 0.0
H265 H 0.86689 0.39953 0.72564 0.0
H266 H 0.93887 0.39276 0.75771 0.0
H267 H 0.92214 0.34237 0.74426 0.0
H268 H 0.90834 0.52651 0.76468 0.0
H269 H 0.93109 0.49839 0.71234 0.0
H270 H 0.85287 0.35075 0.71036 0.0
H271 H 0.90063 0.56518 0.74832 0.0
H272 H 0.92193 0.53639 0.69594 0.0
C273 C 0.54019 0.5151 0.81676 0.0
C274 C 0.53488 0.49525 0.83208 0.0
C275 C 0.54709 0.508 0.79904 0.0
C276 C 0.54819 0.48058 0.79612 0.0
C277 C 0.54329 0.46087 0.81132 0.0
C278 C 0.53709 0.46827 0.82912 0.0
C279 C 0.55289 0.47171 0.77711 0.0
C280 C 0.58 0.49163 0.76654 0.0
C281 C 0.5846 0.48293 0.74856 0.0
C282 C 0.56122 0.45405 0.74128 0.0
C283 C 0.53377 0.43389 0.75161 0.0
C284 C 0.52995 0.44303 0.76957 0.0
C285 C 0.50931 0.40327 0.74369 0.0
C286 C 0.50256 0.39996 0.72443 0.0
C287 C 0.49281 0.37691 0.75524 0.0
C288 C 0.47045 0.34811 0.7477 0.0
C289 C 0.46459 0.34489 0.72845 0.0
C290 C 0.614 0.50352 0.73751 0.0
C291 C 0.62819 0.53613 0.73829 0.0
C292 C 0.62834 0.49068 0.72616 0.0
C293 C 0.65614 0.50983 0.71607 0.0
C294 C 0.67085 0.54244 0.71727 0.0
C295 C 0.65629 0.55531 0.7284 0.0
C296 C 0.48075 0.37102 0.71688 0.0
H297 H 0.53816 0.53577 0.81823 0.0
H298 H 0.5505 0.52341 0.78747 0.0
H299 H 0.54429 0.43969 0.80942 0.0
H300 H 0.53401 0.45273 0.84052 0.0
H301 H 0.59791 0.51344 0.77263 0.0
H302 H 0.50872 0.42821 0.77765 0.0
H303 H 0.56451 0.44716 0.72749 0.0
H304 H 0.51404 0.41973 0.71511 0.0
H305 H 0.49765 0.37826 0.77005 0.0
H306 H 0.45841 0.32813 0.75684 0.0
H307 H 0.61767 0.54695 0.74661 0.0
H308 H 0.61854 0.46574 0.72533 0.0
H309 H 0.47636 0.36905 0.70199 0.0
H310 H 0.66704 0.58027 0.72996 0.0
H311 H 0.66629 0.49895 0.70748 0.0
C312 C 0.55926 0.07128 0.8263 0.0
C313 C 0.52737 0.05068 0.83156 0.0
C314 C 0.56661 0.08591 0.80876 0.0
C315 C 0.54233 0.08017 0.79583 0.0
C316 C 0.51049 0.05975 0.80121 0.0
C317 C 0.50315 0.04563 0.81879 0.0
C318 C 0.54975 0.09456 0.77668 0.0
C319 C 0.57757 0.10029 0.76696 0.0
C320 C 0.58307 0.1114 0.74846 0.0
C321 C 0.56018 0.11646 0.73949 0.0
C322 C 0.53246 0.11149 0.74895 0.0
C323 C 0.52804 0.10131 0.76764 0.0
C324 C 0.50745 0.11587 0.73934 0.0
C325 C 0.51556 0.14016 0.72646 0.0
C326 C 0.47491 0.09561 0.74317 0.0
C327 C 0.45129 0.09981 0.73477 0.0
C328 C 0.45926 0.12414 0.72197 0.0
C329 C 0.61244 0.11694 0.73836 0.0
C330 C 0.64273 0.13582 0.74627 0.0
C331 C 0.6104 0.10306 0.72089 0.0
C332 C 0.63801 0.10731 0.71178 0.0
C333 C 0.6683 0.12613 0.71974 0.0
C334 C 0.67037 0.14064 0.73697 0.0
C335 C 0.49178 0.14421 0.71788 0.0
H336 H 0.57873 0.07569 0.83556 0.0
H337 H 0.5914 0.10173 0.80538 0.0
H338 H 0.49094 0.05403 0.79171 0.0
H339 H 0.47825 0.0306 0.82228 0.0
H340 H 0.59452 0.09501 0.77345 0.0
H341 H 0.50749 0.09873 0.77523 0.0
H342 H 0.56398 0.12411 0.72508 0.0
H343 H 0.54031 0.15638 0.72321 0.0
H344 H 0.4675 0.07625 0.75269 0.0
H345 H 0.42668 0.08412 0.73861 0.0
H346 H 0.64502 0.14691 0.75967 0.0
H347 H 0.58736 0.0883 0.71449 0.0
H348 H 0.49893 0.16302 0.70797 0.0
H349 H 0.69336 0.15502 0.74352 0.0
H350 H 0.63572 0.09583 0.69853 0.0
C351 C 0.8133 0.58622 0.8646 0.0
C352 C 0.81201 0.61347 0.86074 0.0
C353 C 0.8066 0.5731 0.88256 0.0
C354 C 0.79791 0.58654 0.89707 0.0
C355 C 0.79632 0.6135 0.89325 0.0
C356 C 0.80352 0.62691 0.87544 0.0
C357 C 0.79117 0.57311 0.9163 0.0
C358 C 0.81242 0.56565 0.92514 0.0
C359 C 0.80764 0.55552 0.94381 0.0
C360 C 0.78074 0.5521 0.95354 0.0
C361 C 0.75851 0.55848 0.94482 0.0
C362 C 0.76417 0.56912 0.92618 0.0
C363 C 0.72967 0.55448 0.95515 0.0
C364 C 0.71305 0.52978 0.96782 0.0
C365 C 0.71823 0.57524 0.95222 0.0
C366 C 0.69082 0.57117 0.96138 0.0
C367 C 0.67405 0.54643 0.97398 0.0
C368 C 0.83152 0.54971 0.95335 0.0
C369 C 0.84171 0.53038 0.94514 0.0
C370 C 0.84504 0.56428 0.97045 0.0
C371 C 0.8689 0.56029 0.97888 0.0
C372 C 0.87923 0.54113 0.97059 0.0
C373 C 0.86507 0.52587 0.95377 0.0
C374 C 0.68568 0.52584 0.97712 0.0
H375 H 0.8192 0.57475 0.85374 0.0
H376 H 0.80784 0.55219 0.88504 0.0
H377 H 0.79023 0.62473 0.90419 0.0
H378 H 0.80304 0.64829 0.87339 0.0
H379 H 0.83353 0.56908 0.91775 0.0
H380 H 0.74731 0.57394 0.91915 0.0
H381 H 0.77732 0.54467 0.96798 0.0
H382 H 0.72084 0.51309 0.97035 0.0
H383 H 0.7305 0.59484 0.94286 0.0
H384 H 0.68249 0.58727 0.95824 0.0
H385 H 0.83161 0.51879 0.93201 0.0
H386 H 0.83778 0.57944 0.97704 0.0
H387 H 0.6737 0.50668 0.98682 0.0
H388 H 0.87275 0.51115 0.94701 0.0
H389 H 0.87938 0.57227 0.99185 0.0
C390 C 0.34544 0.16247 0.8741 0.0
C391 C 0.35913 0.18125 0.8582 0.0
C392 C 0.36223 0.16951 0.89095 0.0
C393 C 0.39273 0.19581 0.89237 0.0
C394 C 0.4065 0.21461 0.87664 0.0
C395 C 0.39008 0.20724 0.8597 0.0
C396 C 0.41007 0.20415 0.91032 0.0
C397 C 0.41707 0.1832 0.91934 0.0
C398 C 0.43481 0.19175 0.93597 0.0
C399 C 0.44481 0.22124 0.94372 0.0
C400 C 0.43702 0.24211 0.93519 0.0
C401 C 0.41992 0.2334 0.91832 0.0
C402 C 0.44597 0.27254 0.94412 0.0
C403 C 0.44492 0.27493 0.96366 0.0
C404 C 0.455 0.2993 0.93324 0.0
C405 C 0.46237 0.32755 0.94167 0.0
C406 C 0.46138 0.32978 0.96116 0.0
C407 C 0.44294 0.16995 0.94531 0.0
C408 C 0.41944 0.13879 0.94828 0.0
C409 C 0.47419 0.1803 0.95154 0.0
C410 C 0.48184 0.15984 0.96046 0.0
C411 C 0.45833 0.12861 0.96353 0.0
C412 C 0.42699 0.1184 0.95738 0.0
C413 C 0.45278 0.30328 0.97208 0.0
H414 H 0.32152 0.1426 0.8737 0.0
H415 H 0.35109 0.15483 0.903 0.0
H416 H 0.43017 0.23488 0.87741 0.0
H417 H 0.40189 0.22186 0.84775 0.0
H418 H 0.40957 0.16064 0.9131 0.0
H419 H 0.41339 0.24897 0.91158 0.0
H420 H 0.4585 0.22779 0.95654 0.0
H421 H 0.43743 0.25475 0.9725 0.0
H422 H 0.45663 0.29853 0.91819 0.0
H423 H 0.46929 0.34779 0.93297 0.0
H424 H 0.39507 0.13032 0.94384 0.0
H425 H 0.49286 0.20414 0.94924 0.0
H426 H 0.4515 0.30435 0.98714 0.0
H427 H 0.40811 0.09471 0.95979 0.0
H428 H 0.50633 0.16842 0.96468 0.0
C429 C 0.77745 0.16777 0.8651 0.0
C430 C 0.80922 0.17935 0.85946 0.0
C431 C 0.77053 0.17511 0.88276 0.0
C432 C 0.79526 0.19367 0.89531 0.0
C433 C 0.82704 0.20456 0.88964 0.0
C434 C 0.83391 0.1978 0.87187 0.0
C435 C 0.78823 0.20202 0.91413 0.0
C436 C 0.76059 0.18122 0.92419 0.0
C437 C 0.75462 0.18902 0.94207 0.0
C438 C 0.77636 0.21791 0.9499 0.0
C439 C 0.80385 0.23892 0.94008 0.0
C440 C 0.80955 0.23096 0.92227 0.0
C441 C 0.82689 0.26923 0.94843 0.0
C442 C 0.81694 0.29005 0.95423 0.0
C443 C 0.85902 0.27756 0.9505 0.0
C444 C 0.88083 0.30612 0.9585 0.0
C445 C 0.87111 0.3273 0.96425 0.0
C446 C 0.72598 0.16677 0.95278 0.0
C447 C 0.69538 0.15478 0.94508 0.0
C448 C 0.72912 0.15735 0.97077 0.0
C449 C 0.70216 0.13565 0.98068 0.0
C450 C 0.67156 0.12362 0.97296 0.0
C451 C 0.66837 0.13364 0.95517 0.0
C452 C 0.83885 0.31891 0.96185 0.0
H453 H 0.75801 0.15352 0.8557 0.0
H454 H 0.74581 0.16663 0.8864 0.0
H455 H 0.8468 0.2181 0.89897 0.0
H456 H 0.85859 0.20658 0.86792 0.0
H457 H 0.74413 0.15853 0.91847 0.0
H458 H 0.83047 0.24783 0.91467 0.0
H459 H 0.77195 0.22401 0.9637 0.0
H460 H 0.7923 0.2842 0.95256 0.0
H461 H 0.86713 0.26169 0.94621 0.0
H462 H 0.9052 0.31129 0.96041 0.0
H463 H 0.69238 0.16184 0.93129 0.0
H464 H 0.7525 0.16625 0.97696 0.0
H465 H 0.83046 0.33473 0.96565 0.0
H466 H 0.64503 0.12439 0.94885 0.0
H467 H 0.70517 0.12813 0.99434 0.0
C468 C 0.62719 0.83229 0.16387 0.0
C469 C 0.64778 0.82103 0.16839 0.0
C470 C 0.61088 0.82437 0.14686 0.0
C471 C 0.61539 0.80556 0.13385 0.0
C472 C 0.63676 0.79503 0.13834 0.0
C473 C 0.65246 0.80238 0.15552 0.0
C474 C 0.59735 0.79635 0.1159 0.0
C475 C 0.58976 0.81678 0.10656 0.0
C476 C 0.57183 0.80779 0.08996 0.0
C477 C 0.56201 0.77813 0.08251 0.0
C478 C 0.57021 0.75787 0.09129 0.0
C479 C 0.58742 0.7669 0.10804 0.0
C480 C 0.56162 0.72754 0.08267 0.0
C481 C 0.53037 0.70733 0.07656 0.0
C482 C 0.58501 0.719 0.08016 0.0
C483 C 0.57741 0.69091 0.07148 0.0
C484 C 0.54611 0.67051 0.06534 0.0
C485 C 0.5636 0.82945 0.08033 0.0
C486 C 0.5556 0.84872 0.09068 0.0
C487 C 0.56363 0.83101 0.0607 0.0
C488 C 0.55578 0.85126 0.05169 0.0
C489 C 0.54818 0.87069 0.0621 0.0
C490 C 0.54816 0.86924 0.08167 0.0
C491 C 0.52262 0.679 0.0681 0.0
H492 H 0.62312 0.84658 0.1737 0.0
H493 H 0.59425 0.83249 0.14413 0.0
H494 H 0.64156 0.78118 0.12857 0.0
H495 H 0.66854 0.79374 0.15869 0.0
H496 H 0.59846 0.84003 0.112 0.0
H497 H 0.59247 0.75053 0.11509 0.0
H498 H 0.5482 0.77079 0.06974 0.0
H499 H 0.51185 0.71332 0.0785 0.0
H500 H 0.60941 0.73441 0.08454 0.0
H501 H 0.59628 0.68552 0.06928 0.0
H502 H 0.55472 0.84774 0.10578 0.0
H503 H 0.57022 0.81697 0.05226 0.0
H504 H 0.49814 0.66367 0.06388 0.0
H505 H 0.54202 0.88374 0.09001 0.0
H506 H 0.55632 0.85222 0.03659 0.0
C507 C 0.20153 0.8416 0.15008 0.0
C508 C 0.19632 0.82224 0.16554 0.0
C509 C 0.21044 0.83496 0.13283 0.0
C510 C 0.21357 0.80846 0.13066 0.0
C511 C 0.20849 0.78916 0.14614 0.0
C512 C 0.20031 0.79621 0.1635 0.0
C513 C 0.22068 0.8002 0.11206 0.0
C514 C 0.24777 0.82155 0.102 0.0
C515 C 0.25408 0.8142 0.08405 0.0
C516 C 0.23269 0.78483 0.0764 0.0
C517 C 0.20523 0.76318 0.08624 0.0
C518 C 0.19962 0.7712 0.10413 0.0
C519 C 0.18196 0.7326 0.07769 0.0
C520 C 0.17595 0.73002 0.05835 0.0
C521 C 0.16512 0.70577 0.08883 0.0
C522 C 0.14272 0.67737 0.08088 0.0
C523 C 0.13717 0.67498 0.06159 0.0
C524 C 0.28252 0.83739 0.07317 0.0
C525 C 0.29302 0.86937 0.07454 0.0
C526 C 0.29928 0.82792 0.06121 0.0
C527 C 0.32572 0.84982 0.05096 0.0
C528 C 0.33642 0.88184 0.05254 0.0
C529 C 0.31968 0.89122 0.06457 0.0
C530 C 0.15409 0.70146 0.05038 0.0
H531 H 0.1987 0.86186 0.15135 0.0
H532 H 0.21406 0.85006 0.12106 0.0
H533 H 0.21079 0.76861 0.14478 0.0
H534 H 0.19629 0.78089 0.17522 0.0
H535 H 0.26412 0.84372 0.10838 0.0
H536 H 0.17819 0.75537 0.11175 0.0
H537 H 0.23725 0.77895 0.06262 0.0
H538 H 0.18773 0.75014 0.04932 0.0
H539 H 0.16943 0.70652 0.10369 0.0
H540 H 0.13015 0.6571 0.08975 0.0
H541 H 0.28057 0.8777 0.08329 0.0
H542 H 0.2923 0.80359 0.05991 0.0
H543 H 0.14999 0.70014 0.03546 0.0
H544 H 0.32741 0.9156 0.06661 0.0
H545 H 0.33768 0.84154 0.04176 0.0
C546 C 0.23242 0.40976 0.15947 0.0
C547 C 0.20116 0.38986 0.16582 0.0
C548 C 0.23798 0.42303 0.14159 0.0
C549 C 0.21243 0.4162 0.12939 0.0
C550 C 0.18113 0.39622 0.13592 0.0
C551 C 0.17559 0.38355 0.15392 0.0
C552 C 0.21821 0.42899 0.10983 0.0
C553 C 0.24562 0.43449 0.09972 0.0
C554 C 0.25024 0.44483 0.08109 0.0
C555 C 0.22681 0.44924 0.07231 0.0
C556 C 0.19938 0.4444 0.08208 0.0
C557 C 0.19576 0.43486 0.10091 0.0
C558 C 0.17412 0.44862 0.07266 0.0
C559 C 0.18197 0.47239 0.05943 0.0
C560 C 0.14166 0.4287 0.07689 0.0
C561 C 0.11789 0.43265 0.06843 0.0
C562 C 0.12564 0.4564 0.05523 0.0
C563 C 0.27946 0.45055 0.07074 0.0
C564 C 0.30988 0.46968 0.07845 0.0
C565 C 0.27719 0.43657 0.05328 0.0
C566 C 0.30471 0.44092 0.04401 0.0
C567 C 0.33512 0.45992 0.05179 0.0
C568 C 0.3374 0.47456 0.069 0.0
C569 C 0.15807 0.47618 0.05081 0.0
H570 H 0.2526 0.41521 0.1684 0.0
H571 H 0.26241 0.43873 0.13742 0.0
H572 H 0.1607 0.38958 0.12699 0.0
H573 H 0.15125 0.36793 0.15832 0.0
H574 H 0.26306 0.42975 0.10606 0.0
H575 H 0.17543 0.43234 0.10872 0.0
H576 H 0.23 0.45638 0.05782 0.0
H577 H 0.20665 0.48842 0.05589 0.0
H578 H 0.13444 0.40977 0.08671 0.0
H579 H 0.09335 0.41722 0.07252 0.0
H580 H 0.31235 0.48088 0.09183 0.0
H581 H 0.25407 0.42163 0.04704 0.0
H582 H 0.16507 0.49454 0.0406 0.0
H583 H 0.36047 0.48907 0.07543 0.0
H584 H 0.30225 0.42936 0.03077 0.0
C585 C 0.49285 0.92387 0.19833 0.0
C586 C 0.48311 0.94476 0.19222 0.0
C587 C 0.48469 0.9106 0.21619 0.0
C588 C 0.46703 0.91829 0.22863 0.0
C589 C 0.45703 0.93899 0.22233 0.0
C590 C 0.46472 0.95181 0.20435 0.0
C591 C 0.45999 0.90571 0.24823 0.0
C592 C 0.48195 0.90023 0.25806 0.0
C593 C 0.47638 0.89002 0.27672 0.0
C594 C 0.44856 0.88554 0.28577 0.0
C595 C 0.42586 0.89031 0.27626 0.0
C596 C 0.43175 0.90001 0.25744 0.0
C597 C 0.39633 0.8858 0.28599 0.0
C598 C 0.38008 0.86178 0.29913 0.0
C599 C 0.3841 0.90568 0.28219 0.0
C600 C 0.35641 0.90153 0.29102 0.0
C601 C 0.34012 0.87758 0.30417 0.0
C602 C 0.50008 0.88456 0.28677 0.0
C603 C 0.51052 0.86513 0.279 0.0
C604 C 0.51301 0.89926 0.30393 0.0
C605 C 0.53657 0.89532 0.31283 0.0
C606 C 0.54712 0.87602 0.30498 0.0
C607 C 0.53353 0.86064 0.2881 0.0
C608 C 0.3524 0.85775 0.3081 0.0
H609 H 0.50676 0.9177 0.18924 0.0
H610 H 0.49231 0.89429 0.2202 0.0
H611 H 0.44398 0.94613 0.23145 0.0
H612 H 0.45719 0.96813 0.20016 0.0
H613 H 0.5041 0.90491 0.25149 0.0
H614 H 0.41399 0.90274 0.24983 0.0
H615 H 0.44472 0.87841 0.30027 0.0
H616 H 0.38847 0.84576 0.30234 0.0
H617 H 0.39604 0.92475 0.27242 0.0
H618 H 0.34756 0.91699 0.28728 0.0
H619 H 0.50086 0.85341 0.26584 0.0
H620 H 0.50549 0.91446 0.3102 0.0
H621 H 0.34077 0.83919 0.31822 0.0
H622 H 0.54139 0.84584 0.28165 0.0
H623 H 0.54663 0.90742 0.32584 0.0
C624 C 0.01071 0.49203 0.20813 0.0
C625 C 0.02582 0.50955 0.19211 0.0
C626 C 0.02685 0.4994 0.2252 0.0
C627 C 0.05799 0.52483 0.22651 0.0
C628 C 0.07303 0.54239 0.21052 0.0
C629 C 0.05719 0.53459 0.19339 0.0
C630 C 0.07468 0.5336 0.24461 0.0
C631 C 0.08176 0.51302 0.25403 0.0
C632 C 0.09921 0.52209 0.27077 0.0
C633 C 0.10887 0.55172 0.2782 0.0
C634 C 0.10101 0.57207 0.26915 0.0
C635 C 0.0842 0.56299 0.25225 0.0
C636 C 0.10966 0.6025 0.27759 0.0
C637 C 0.08642 0.61128 0.27991 0.0
C638 C 0.14096 0.62267 0.28363 0.0
C639 C 0.14891 0.65123 0.29183 0.0
C640 C 0.12558 0.65998 0.29442 0.0
C641 C 0.10753 0.50075 0.28047 0.0
C642 C 0.08434 0.46946 0.28336 0.0
C643 C 0.13875 0.51158 0.2869 0.0
C644 C 0.14674 0.49141 0.29586 0.0
C645 C 0.12359 0.46001 0.29874 0.0
C646 C 0.09223 0.44935 0.29249 0.0
C647 C 0.09422 0.63959 0.28836 0.0
H648 H 0.98652 0.47258 0.20739 0.0
H649 H 0.01487 0.48566 0.23743 0.0
H650 H 0.09708 0.56206 0.21128 0.0
H651 H 0.06918 0.54846 0.1812 0.0
H652 H 0.07457 0.49038 0.24802 0.0
H653 H 0.0785 0.57879 0.24502 0.0
H654 H 0.12167 0.5586 0.29133 0.0
H655 H 0.062 0.5959 0.27556 0.0
H656 H 0.15935 0.61649 0.28182 0.0
H657 H 0.17344 0.66654 0.29597 0.0
H658 H 0.05998 0.46063 0.27877 0.0
H659 H 0.15717 0.53555 0.28467 0.0
H660 H 0.07546 0.64517 0.29043 0.0
H661 H 0.07363 0.42549 0.29478 0.0
H662 H 0.17124 0.50032 0.30017 0.0
C663 C 0.44387 0.50276 0.19838 0.0
C664 C 0.47551 0.51408 0.19256 0.0
C665 C 0.4373 0.51067 0.21597 0.0
C666 C 0.46226 0.52955 0.22832 0.0
C667 C 0.49393 0.54035 0.22244 0.0
C668 C 0.50045 0.53302 0.20472 0.0
C669 C 0.45552 0.53808 0.24718 0.0
C670 C 0.42799 0.51733 0.25736 0.0
C671 C 0.42222 0.52519 0.27527 0.0
C672 C 0.44406 0.5541 0.28303 0.0
C673 C 0.47147 0.57509 0.27312 0.0
C674 C 0.47697 0.56706 0.25527 0.0
C675 C 0.49463 0.60538 0.28151 0.0
C676 C 0.48459 0.62581 0.28798 0.0
C677 C 0.52689 0.61391 0.28317 0.0
C678 C 0.5487 0.64223 0.29145 0.0
C679 C 0.53885 0.66297 0.29792 0.0
C680 C 0.39374 0.50292 0.28612 0.0
C681 C 0.36302 0.49055 0.27851 0.0
C682 C 0.39716 0.49381 0.30414 0.0
C683 C 0.37039 0.47203 0.31416 0.0
C684 C 0.33969 0.45958 0.30652 0.0
C685 C 0.3362 0.46931 0.28871 0.0
C686 C 0.50649 0.65442 0.29589 0.0
H687 H 0.42422 0.48819 0.18918 0.0
H688 H 0.41264 0.50226 0.21974 0.0
H689 H 0.51388 0.55418 0.23159 0.0
H690 H 0.52505 0.54165 0.20065 0.0
H691 H 0.41148 0.49459 0.25171 0.0
H692 H 0.49782 0.58386 0.2476 0.0
H693 H 0.43981 0.5602 0.29686 0.0
H694 H 0.45985 0.61982 0.28665 0.0
H695 H 0.53509 0.59835 0.27841 0.0
H696 H 0.57315 0.64751 0.29304 0.0
H697 H 0.3598 0.49735 0.26469 0.0
H698 H 0.42062 0.50299 0.31027 0.0
H699 H 0.49798 0.66992 0.30024 0.0
H700 H 0.31279 0.45973 0.28243 0.0
H701 H 0.37365 0.46475 0.32783 0.0
Gd702 Gd 0.51741 0.02288 0.03474 0.0
Gd703 Gd 0.49333 0.97826 0.99028 0.0
C704 C 0.39904 0.88695 0.98454 0.0
C705 C 0.41692 0.84938 0.98044 0.0
C706 C 0.45557 0.90444 0.98396 0.0
C707 C 0.43112 0.91101 0.98576 0.0
C708 C 0.44881 0.87366 0.98083 0.0
C709 C 0.39207 0.85602 0.98233 0.0
C710 C 0.375 0.89483 0.98495 0.0
C711 C 0.38333 0.92612 0.98575 0.0
N712 N 0.43875 0.94118 0.9876 0.0
C713 C 0.41553 0.94915 0.98677 0.0
H714 H 0.42161 0.97323 0.98745 0.0
C715 C 0.51091 0.92366 0.98027 0.0
N716 N 0.48605 0.92847 0.98427 0.0
C717 C 0.50543 0.89353 0.97712 0.0
C718 C 0.47427 0.86835 0.97765 0.0
H719 H 0.53506 0.94298 0.97992 0.0
H720 H 0.36757 0.83718 0.98153 0.0
H721 H 0.58773 0.02431 0.03772 0.0
H722 H 0.35006 0.87704 0.9841 0.0
H723 H 0.36498 0.93253 0.98565 0.0
H724 H 0.41122 0.82553 0.97824 0.0
H725 H 0.47923 0.06125 0.04539 0.0
H726 H 0.66253 0.11911 0.04095 0.0
H727 H 0.64486 0.06295 0.03948 0.0
H728 H 0.60608 0.17529 0.04687 0.0
H729 H 0.52524 0.88975 0.97434 0.0
H730 H 0.47009 0.84504 0.97517 0.0
H731 H 0.64782 0.16099 0.0435 0.0
H732 H 0.4917 0.11539 0.05099 0.0
N733 N 0.57268 0.05804 0.03756 0.0
C734 C 0.63729 0.1022 0.04014 0.0
C735 C 0.62741 0.07053 0.03938 0.0
C736 C 0.61441 0.11158 0.04057 0.0
C737 C 0.58188 0.08861 0.03939 0.0
C738 C 0.59482 0.04863 0.03838 0.0
N739 N 0.52768 0.0736 0.04113 0.0
C740 C 0.55857 0.09665 0.0413 0.0
C741 C 0.51075 0.11047 0.04822 0.0
C742 C 0.54242 0.13468 0.04762 0.0
C743 C 0.50378 0.07985 0.04511 0.0
C744 C 0.56686 0.12789 0.04439 0.0
H745 H 0.54778 0.15838 0.05007 0.0
O746 O 0.49391 0.01771 0.06159 0.0
O747 O 0.47976 0.9824 0.01935 0.0
O748 O 0.47724 0.01415 0.99196 0.0
O749 O 0.51084 0.0524 0.01316 0.0
O750 O 0.46457 0.00589 0.03636 0.0
O751 O 0.52966 0.00405 0.05859 0.0
O752 O 0.52115 0.99047 0.96468 0.0
O753 O 0.53039 0.01942 1.00553 0.0
O754 O 0.53282 0.98646 0.03272 0.0
O755 O 0.49851 0.94811 0.01186 0.0
O756 O 0.5464 0.9961 0.98895 0.0
O757 O 0.47532 0.98804 0.9648 0.0
C758 C 0.45524 0.9824 0.02534 0.0
C759 C 0.5992 0.15111 0.04469 0.0
C760 C 0.62295 0.14296 0.04276 0.0
C761 C 0.51037 0.00706 0.07 0.0
C762 C 0.52351 0.02007 0.08853 0.0
C763 C 0.54907 0.0506 0.09018 0.0
C764 C 0.51154 0.00132 0.10462 0.0
C765 C 0.52559 0.01284 0.12223 0.0
C766 C 0.56283 0.06222 0.10759 0.0
C767 C 0.55138 0.04348 0.12347 0.0
C768 C 0.49069 0.04278 0.99889 0.0
C769 C 0.55522 0.01988 0.99969 0.0
C770 C 0.49977 0.99253 0.95475 0.0
C771 C 0.49305 0.97752 0.93623 0.0
C772 C 0.48018 0.94527 0.93479 0.0
C773 C 0.50073 0.99566 0.91984 0.0
C774 C 0.49587 0.98164 0.90201 0.0
C775 C 0.47555 0.93126 0.91733 0.0
C776 C 0.4835 0.94918 0.90111 0.0
C777 C 0.51873 0.95763 0.02605 0.0
H778 H 0.5586 0.0653 0.07799 0.0
H779 H 0.49195 0.97761 0.10337 0.0
H780 H 0.58263 0.08578 0.10875 0.0
H781 H 0.56252 0.05304 0.13681 0.0
H782 H 0.47407 0.93096 0.94716 0.0
H783 H 0.51025 0.02054 0.92104 0.0
H784 H 0.46599 0.90636 0.91635 0.0
H785 H 0.48026 0.93749 0.88785 0.0
Gd786 Gd 0.97829 0.4918 0.03377 0.0
Gd787 Gd 0.02978 0.51133 0.99198 0.0
C788 C 0.12213 0.50747 0.99217 0.0
C789 C 0.16236 0.56202 0.98861 0.0
C790 C 0.10603 0.54632 0.98926 0.0
C791 C 0.09808 0.51564 0.99164 0.0
C792 C 0.13819 0.56977 0.98717 0.0
C793 C 0.15434 0.53092 0.99115 0.0
C794 C 0.11304 0.47593 0.99308 0.0
C795 C 0.08069 0.45344 0.99264 0.0
N796 N 0.06674 0.49358 0.9923 0.0
C797 C 0.05774 0.46273 0.99196 0.0
H798 H 0.03282 0.44511 0.99174 0.0
C799 C 0.08841 0.58204 0.98278 0.0
N800 N 0.08207 0.5529 0.98776 0.0
C801 C 0.11995 0.60613 0.98057 0.0
C802 C 0.14499 0.60007 0.98305 0.0
H803 H 0.06916 0.58689 0.98095 0.0
H804 H 0.17317 0.52514 0.99174 0.0
H805 H 0.97583 0.5583 0.03388 0.0
H806 H 0.13078 0.46868 0.99358 0.0
H807 H 0.0734 0.42896 0.99292 0.0
H808 H 0.18725 0.57976 0.98725 0.0
H809 H 0.93825 0.41631 0.04493 0.0
H810 H 0.87813 0.53544 0.03123 0.0
H811 H 0.93557 0.57486 0.03236 0.0
H812 H 0.82083 0.42432 0.03735 0.0
H813 H 0.12492 0.62933 0.97702 0.0
H814 H 0.1694 0.61875 0.9813 0.0
H815 H 0.8354 0.47907 0.03281 0.0
H816 H 0.88228 0.37411 0.04852 0.0
N817 N 0.94166 0.50991 0.0331 0.0
C818 C 0.89571 0.52802 0.0319 0.0
C819 C 0.9281 0.55033 0.0326 0.0
C820 C 0.88637 0.4964 0.03276 0.0
C821 C 0.91024 0.48801 0.03351 0.0
C822 C 0.95087 0.54082 0.03347 0.0
N823 N 0.9258 0.45047 0.03771 0.0
C824 C 0.90202 0.45726 0.03592 0.0
C825 C 0.88749 0.39736 0.04486 0.0
C826 C 0.86265 0.40361 0.04206 0.0
C827 C 0.91914 0.42129 0.04284 0.0
C828 C 0.86976 0.43397 0.03783 0.0
H829 H 0.83816 0.38505 0.04368 0.0
O830 O 0.98457 0.47579 0.06072 0.0
O831 O 0.02211 0.49543 0.0214 0.0
O832 O 0.99135 0.45992 0.9929 0.0
O833 O 0.95014 0.4563 0.01174 0.0
O834 O 0.99536 0.45724 0.03804 0.0
O835 O 0.9848 0.51951 0.05864 0.0
O836 O 0.02323 0.52713 0.96503 0.0
O837 O 0.98611 0.50765 1.00442 0.0
O838 O 0.01709 0.54311 0.03303 0.0
O839 O 0.05815 0.54674 0.01403 0.0
O840 O 0.01229 0.54565 0.98766 0.0
O841 O 0.02243 0.48315 0.96721 0.0
C842 C 0.02116 0.47161 0.02831 0.0
C843 C 0.84579 0.44194 0.03614 0.0
C844 C 0.85409 0.47311 0.03357 0.0
C845 C 0.98549 0.49904 0.06974 0.0
C846 C 0.96574 0.49081 0.08666 0.0
C847 C 0.93246 0.4767 0.08558 0.0
C848 C 0.98047 0.49583 0.10414 0.0
C849 C 0.96213 0.48608 0.12064 0.0
C850 C 0.91403 0.46708 0.10181 0.0
C851 C 0.92865 0.47147 0.11922 0.0
C852 C 0.96108 0.44541 0.99849 0.0
C853 C 0.98658 0.53119 0.99745 0.0
C854 C 0.02162 0.50351 0.95607 0.0
C855 C 0.04065 0.51108 0.9389 0.0
C856 C 0.0741 0.52671 0.93952 0.0
C857 C 0.02509 0.50402 0.9216 0.0
C858 C 0.04281 0.51324 0.90494 0.0
C859 C 0.09181 0.53578 0.923 0.0
C860 C 0.0763 0.52934 0.90577 0.0
C861 C 0.04733 0.55759 0.02737 0.0
H862 H 0.92071 0.47287 0.07227 0.0
H863 H 0.00628 0.50745 0.10476 0.0
H864 H 0.8883 0.45588 0.10088 0.0
H865 H 0.91362 0.46301 0.13149 0.0
H866 H 0.0865 0.53218 0.9527 0.0
H867 H 0.99922 0.49208 0.92109 0.0
H868 H 0.11763 0.54801 0.92355 0.0
H869 H 0.0904 0.53662 0.89308 0.0
Gd870 Gd 0.49163 0.51243 0.9911 0.0
Gd871 Gd 0.5148 0.48813 0.0343 0.0
C872 C 0.60943 0.48922 0.03922 0.0
C873 C 0.59192 0.43413 0.04199 0.0
C874 C 0.55298 0.45129 0.03926 0.0
C875 C 0.57729 0.48186 0.03809 0.0
C876 C 0.55996 0.4271 0.04169 0.0
C877 C 0.61662 0.46514 0.04072 0.0
C878 C 0.6333 0.52059 0.0394 0.0
C879 C 0.62475 0.54363 0.03925 0.0
N880 N 0.56945 0.50452 0.03691 0.0
C881 C 0.5925 0.53513 0.03829 0.0
H882 H 0.58625 0.55318 0.03811 0.0
C883 C 0.49766 0.41607 0.04247 0.0
N884 N 0.52242 0.44538 0.03903 0.0
C885 C 0.50335 0.39128 0.04494 0.0
C886 C 0.53462 0.39674 0.0443 0.0
H887 H 0.47344 0.41166 0.0429 0.0
H888 H 0.64118 0.47032 0.04143 0.0
H889 H 0.4205 0.44699 0.98739 0.0
H890 H 0.65828 0.52723 0.04019 0.0
H891 H 0.64297 0.56796 0.0398 0.0
H892 H 0.59778 0.41584 0.04367 0.0
H893 H 0.53216 0.58887 0.98238 0.0
H894 H 0.34771 0.47199 0.98613 0.0
H895 H 0.36359 0.43167 0.98605 0.0
H896 H 0.4072 0.58343 0.9829 0.0
H897 H 0.48364 0.36798 0.04728 0.0
H898 H 0.53897 0.37751 0.04624 0.0
H899 H 0.36423 0.52878 0.98517 0.0
H900 H 0.52133 0.63222 0.97834 0.0
N901 N 0.43682 0.49554 0.98879 0.0
C902 C 0.37277 0.47887 0.98674 0.0
C903 C 0.38164 0.45605 0.98663 0.0
C904 C 0.39641 0.51032 0.98696 0.0
C905 C 0.42866 0.51799 0.98787 0.0
C906 C 0.41398 0.46486 0.98738 0.0
N907 N 0.48339 0.55486 0.98665 0.0
C908 C 0.45273 0.54866 0.9867 0.0
C909 C 0.50183 0.60885 0.98079 0.0
C910 C 0.47048 0.6031 0.98176 0.0
C911 C 0.50787 0.58426 0.98306 0.0
C912 C 0.4454 0.57264 0.98446 0.0
H913 H 0.46585 0.62218 0.97995 0.0
O914 O 0.51931 0.52985 0.96564 0.0
O915 O 0.52894 0.50669 1.00555 0.0
O916 O 0.53045 0.53977 0.03419 0.0
O917 O 0.49678 0.54622 0.01365 0.0
O918 O 0.54461 0.54676 0.99018 0.0
O919 O 0.47379 0.4871 0.96498 0.0
O920 O 0.48697 0.4711 0.05972 0.0
O921 O 0.47771 0.49394 0.01979 0.0
O922 O 0.4765 0.46084 0.99105 0.0
O923 O 0.51006 0.45452 0.01178 0.0
O924 O 0.46161 0.45405 0.03524 0.0
O925 O 0.53256 0.51381 0.06033 0.0
C926 C 0.55369 0.53105 1.00019 0.0
C927 C 0.41334 0.56531 0.98441 0.0
C928 C 0.38887 0.53419 0.9857 0.0
C929 C 0.49796 0.50768 0.95526 0.0
C930 C 0.49081 0.51756 0.93744 0.0
C931 C 0.47565 0.53539 0.93708 0.0
C932 C 0.5009 0.51056 0.92062 0.0
C933 C 0.49666 0.52203 0.90355 0.0
C934 C 0.47123 0.54665 0.92016 0.0
C935 C 0.4819 0.54028 0.9035 0.0
C936 C 0.51658 0.55536 0.02802 0.0
C937 C 0.45274 0.46989 0.02519 0.0
C938 C 0.50823 0.49346 0.07004 0.0
C939 C 0.51503 0.48396 0.0881 0.0
C940 C 0.52886 0.46498 0.08893 0.0
C941 C 0.50581 0.4925 0.1047 0.0
C942 C 0.50957 0.48141 0.12203 0.0
C943 C 0.53285 0.45412 0.10611 0.0
C944 C 0.52303 0.46203 0.12257 0.0
C945 C 0.49036 0.44529 0.99735 0.0
H946 H 0.46757 0.54087 0.94983 0.0
H947 H 0.51275 0.49689 0.92085 0.0
H948 H 0.45967 0.56055 0.91999 0.0
H949 H 0.4783 0.54928 0.89052 0.0
H950 H 0.5362 0.45826 0.07633 0.0
H951 H 0.49497 0.50705 0.1041 0.0
H952 H 0.54338 0.43933 0.10666 0.0
H953 H 0.52626 0.4533 0.13575 0.0
Gd954 Gd 0.18551 0.35544 0.36843 0.0
Gd955 Gd 0.16318 0.3121 0.32355 0.0
C956 C 0.07026 0.21963 0.31718 0.0
C957 C 0.08954 0.18337 0.31205 0.0
C958 C 0.12708 0.23858 0.31618 0.0
C959 C 0.10208 0.24423 0.31847 0.0
C960 C 0.12115 0.20821 0.31248 0.0
C961 C 0.06413 0.18907 0.31443 0.0
C962 C 0.04563 0.22666 0.31803 0.0
C963 C 0.05313 0.25768 0.3193 0.0
N964 N 0.10891 0.27408 0.32079 0.0
C965 C 0.0851 0.28127 0.32036 0.0
H966 H 0.09054 0.30514 0.32138 0.0
C967 C 0.18257 0.25934 0.31201 0.0
N968 N 0.15724 0.26314 0.31652 0.0
C969 C 0.17793 0.22966 0.30829 0.0
C970 C 0.14712 0.2039 0.30878 0.0
H971 H 0.20645 0.27912 0.31168 0.0
H972 H 0.03985 0.16982 0.31357 0.0
H973 H 0.25789 0.36168 0.37078 0.0
H974 H 0.02086 0.20844 0.31714 0.0
H975 H 0.0343 0.26346 0.31951 0.0
H976 H 0.08449 0.15981 0.30942 0.0
H977 H 0.14288 0.38919 0.38002 0.0
H978 H 0.32824 0.45814 0.37499 0.0
H979 H 0.31424 0.40295 0.37271 0.0
H980 H 0.26553 0.50781 0.38231 0.0
H981 H 0.19811 0.22666 0.30509 0.0
H982 H 0.14358 0.18094 0.30585 0.0
H983 H 0.30982 0.49721 0.37837 0.0
H984 H 0.15174 0.44189 0.38638 0.0
N985 N 0.23993 0.39309 0.37131 0.0
C986 C 0.3034 0.44009 0.3741 0.0
C987 C 0.29559 0.40897 0.37288 0.0
C988 C 0.279 0.44743 0.37487 0.0
C989 C 0.24708 0.42305 0.37357 0.0
C990 C 0.26353 0.3856 0.37179 0.0
N991 N 0.19204 0.40465 0.3754 0.0
C992 C 0.2223 0.42903 0.37575 0.0
C993 C 0.1718 0.43863 0.38332 0.0
C994 C 0.20274 0.46418 0.38286 0.0
C995 C 0.16687 0.4088 0.37974 0.0
C996 C 0.22853 0.45953 0.37931 0.0
H997 H 0.20651 0.48725 0.38568 0.0
O998 O 0.15789 0.34254 0.39415 0.0
O999 O 0.14908 0.31433 0.3528 0.0
O1000 O 0.14579 0.34699 0.32587 0.0
O1001 O 0.17857 0.38519 0.34734 0.0
O1002 O 0.13243 0.33688 0.36965 0.0
O1003 O 0.20324 0.34399 0.39337 0.0
O1004 O 0.19134 0.32645 0.29807 0.0
O1005 O 0.19939 0.35314 0.33922 0.0
O1006 O 0.20282 0.32049 0.36609 0.0
O1007 O 0.1704 0.28235 0.3445 0.0
O1008 O 0.21641 0.33109 0.32228 0.0
O1009 O 0.14454 0.32184 0.29833 0.0
C1010 C 0.12401 0.31343 0.35869 0.0
C1011 C 0.26024 0.48416 0.37976 0.0
C1012 C 0.28545 0.47812 0.37751 0.0
C1013 C 0.17902 0.33942 0.40366 0.0
C1014 C 0.18615 0.35326 0.4225 0.0
C1015 C 0.20172 0.38567 0.42475 0.0
C1016 C 0.17607 0.33392 0.43842 0.0
C1017 C 0.18086 0.34698 0.45643 0.0
C1018 C 0.20673 0.39866 0.44259 0.0
C1019 C 0.19616 0.37949 0.45832 0.0
C1020 C 0.15857 0.37546 0.33302 0.0
C1021 C 0.22462 0.35443 0.33331 0.0
C1022 C 0.16952 0.328 0.28829 0.0
C1023 C 0.16389 0.31436 0.26942 0.0
C1024 C 0.15123 0.28223 0.26707 0.0
C1025 C 0.17294 0.33382 0.25357 0.0
C1026 C 0.17018 0.32128 0.23552 0.0
C1027 C 0.1482 0.2697 0.24923 0.0
C1028 C 0.15784 0.28906 0.23357 0.0
C1029 C 0.19033 0.29213 0.35884 0.0
H1030 H 0.20971 0.40089 0.41273 0.0
H1031 H 0.16388 0.30884 0.43678 0.0
H1032 H 0.21861 0.4237 0.44422 0.0
H1033 H 0.20006 0.39005 0.47203 0.0
H1034 H 0.14406 0.26691 0.27903 0.0
H1035 H 0.18287 0.3587 0.25529 0.0
H1036 H 0.13857 0.2449 0.24754 0.0
H1037 H 0.15539 0.27883 0.21987 0.0
Gd1038 Gd 0.64633 0.82652 0.36863 0.0
Gd1039 Gd 0.69742 0.84627 0.32663 0.0
C1040 C 0.78977 0.84242 0.32615 0.0
C1041 C 0.83 0.89706 0.32309 0.0
C1042 C 0.77367 0.88135 0.32394 0.0
C1043 C 0.76572 0.8506 0.32593 0.0
C1044 C 0.80584 0.90486 0.32194 0.0
C1045 C 0.82197 0.86589 0.32524 0.0
C1046 C 0.78068 0.81085 0.32665 0.0
C1047 C 0.74833 0.78838 0.32613 0.0
N1048 N 0.73437 0.82852 0.32649 0.0
C1049 C 0.72537 0.79768 0.32578 0.0
H1050 H 0.70045 0.78007 0.32548 0.0
C1051 C 0.75607 0.91726 0.31803 0.0
N1052 N 0.74972 0.88799 0.32269 0.0
C1053 C 0.78761 0.9414 0.31594 0.0
C1054 C 0.81264 0.93527 0.31819 0.0
H1055 H 0.73681 0.92215 0.31637 0.0
H1056 H 0.8408 0.86009 0.32561 0.0
H1057 H 0.64534 0.89391 0.36918 0.0
H1058 H 0.79841 0.80359 0.32691 0.0
H1059 H 0.74104 0.76389 0.3261 0.0
H1060 H 0.85489 0.91484 0.32181 0.0
H1061 H 0.60516 0.75117 0.37963 0.0
H1062 H 0.54826 0.87295 0.36707 0.0
H1063 H 0.60597 0.91151 0.368 0.0
H1064 H 0.48912 0.76186 0.37319 0.0
H1065 H 0.79258 0.9647 0.31266 0.0
H1066 H 0.83704 0.95399 0.31652 0.0
H1067 H 0.50472 0.8169 0.36875 0.0
H1068 H 0.54891 0.70968 0.38348 0.0
N1069 N 0.61048 0.84569 0.36837 0.0
C1070 C 0.56546 0.86504 0.36758 0.0
C1071 C 0.59801 0.88687 0.36817 0.0
C1072 C 0.55551 0.83329 0.36838 0.0
C1073 C 0.57892 0.82427 0.36892 0.0
C1074 C 0.6203 0.87674 0.36884 0.0
N1075 N 0.5935 0.78606 0.37295 0.0
C1076 C 0.57013 0.79341 0.37137 0.0
C1077 C 0.55453 0.7331 0.37999 0.0
C1078 C 0.53007 0.73998 0.37747 0.0
C1079 C 0.58633 0.75664 0.37785 0.0
C1080 C 0.53772 0.77055 0.37339 0.0
H1081 H 0.50546 0.72174 0.37916 0.0
O1082 O 0.64878 0.80867 0.3959 0.0
O1083 O 0.68971 0.82981 0.35592 0.0
O1084 O 0.65903 0.79487 0.32739 0.0
O1085 O 0.61805 0.79092 0.3466 0.0
O1086 O 0.66345 0.79193 0.3728 0.0
O1087 O 0.6584 0.85612 0.39306 0.0
O1088 O 0.69113 0.8627 0.29984 0.0
O1089 O 0.65361 0.84223 0.33923 0.0
O1090 O 0.68508 0.87779 0.36779 0.0
O1091 O 0.72603 0.88116 0.34887 0.0
O1092 O 0.67977 0.88053 0.32267 0.0
O1093 O 0.6901 0.81858 0.30162 0.0
C1094 C 0.68891 0.80606 0.36279 0.0
C1095 C 0.51418 0.77913 0.37188 0.0
C1096 C 0.52307 0.81046 0.36935 0.0
C1097 C 0.65474 0.83417 0.40453 0.0
C1098 C 0.63598 0.83048 0.42144 0.0
C1099 C 0.60505 0.82609 0.4203 0.0
C1100 C 0.64961 0.8323 0.439 0.0
C1101 C 0.63276 0.83049 0.45541 0.0
C1102 C 0.58807 0.82394 0.43655 0.0
C1103 C 0.60189 0.82636 0.45403 0.0
C1104 C 0.62887 0.78019 0.33318 0.0
C1105 C 0.65403 0.86585 0.33242 0.0
C1106 C 0.68955 0.83927 0.29066 0.0
C1107 C 0.70885 0.84719 0.27357 0.0
C1108 C 0.7423 0.86352 0.27432 0.0
C1109 C 0.6935 0.83977 0.2562 0.0
C1110 C 0.71143 0.84935 0.23963 0.0
C1111 C 0.76021 0.87294 0.25787 0.0
C1112 C 0.74489 0.86617 0.24058 0.0
C1113 C 0.71532 0.89212 0.36219 0.0
H1114 H 0.59418 0.82466 0.40692 0.0
H1115 H 0.67365 0.836 0.43989 0.0
H1116 H 0.56425 0.82067 0.43559 0.0
H1117 H 0.58844 0.82487 0.46648 0.0
H1118 H 0.75456 0.86927 0.28754 0.0
H1119 H 0.66763 0.82726 0.25556 0.0
H1120 H 0.78602 0.88572 0.25854 0.0
H1121 H 0.7591 0.87377 0.22794 0.0
Gd1122 Gd 0.15721 0.84326 0.32396 0.0
Gd1123 Gd 0.18439 0.82126 0.36655 0.0
C1124 C 0.27881 0.82145 0.36907 0.0
C1125 C 0.26101 0.76641 0.37267 0.0
C1126 C 0.22232 0.784 0.37081 0.0
C1127 C 0.24671 0.81437 0.36881 0.0
C1128 C 0.22916 0.75973 0.37325 0.0
C1129 C 0.2858 0.79723 0.37055 0.0
C1130 C 0.3029 0.85271 0.36845 0.0
C1131 C 0.29466 0.87597 0.36837 0.0
N1132 N 0.23908 0.83718 0.36769 0.0
C1133 C 0.26245 0.86775 0.36829 0.0
H1134 H 0.25644 0.88597 0.36816 0.0
C1135 C 0.16726 0.74946 0.37574 0.0
N1136 N 0.19189 0.77845 0.37144 0.0
C1137 C 0.17283 0.7246 0.37825 0.0
C1138 C 0.20387 0.72966 0.37674 0.0
H1139 H 0.14319 0.74533 0.37685 0.0
H1140 H 0.3103 0.80217 0.37059 0.0
H1141 H 0.08636 0.77721 0.32121 0.0
H1142 H 0.32785 0.85913 0.36854 0.0
H1143 H 0.31308 0.90025 0.36829 0.0
H1144 H 0.26676 0.74805 0.37432 0.0
H1145 H 0.19655 0.92009 0.31624 0.0
H1146 H 0.01265 0.80097 0.32189 0.0
H1147 H 0.02925 0.76119 0.32096 0.0
H1148 H 0.07066 0.91252 0.31952 0.0
H1149 H 0.15318 0.70156 0.38128 0.0
H1150 H 0.20813 0.71038 0.37872 0.0
H1151 H 0.02835 0.85756 0.32154 0.0
H1152 H 0.18478 0.96308 0.31386 0.0
N1153 N 0.10217 0.82566 0.32265 0.0
C1154 C 0.03781 0.80817 0.32196 0.0
C1155 C 0.04709 0.78566 0.32138 0.0
C1156 C 0.06114 0.83973 0.32206 0.0
C1157 C 0.09355 0.84782 0.32224 0.0
C1158 C 0.07955 0.79487 0.32151 0.0
N1159 N 0.14806 0.88533 0.3205 0.0
C1160 C 0.11726 0.87866 0.32113 0.0
C1161 C 0.16558 0.93945 0.31599 0.0
C1162 C 0.13409 0.93315 0.31746 0.0
C1163 C 0.17215 0.91507 0.31727 0.0
C1164 C 0.10939 0.90239 0.31979 0.0
H1165 H 0.12905 0.95206 0.3164 0.0
O1166 O 0.18267 0.86089 0.29787 0.0
O1167 O 0.19584 0.83834 0.33734 0.0
O1168 O 0.20063 0.87306 0.36525 0.0
O1169 O 0.1629 0.87667 0.34682 0.0
O1170 O 0.21006 0.87757 0.32132 0.0
O1171 O 0.13824 0.81689 0.29827 0.0
O1172 O 0.15861 0.80642 0.39277 0.0
O1173 O 0.14592 0.8259 0.35293 0.0
O1174 O 0.14245 0.79181 0.32445 0.0
O1175 O 0.17754 0.78634 0.3444 0.0
O1176 O 0.13125 0.78732 0.36938 0.0
O1177 O 0.20469 0.84852 0.39183 0.0
C1178 C 0.22004 0.86235 0.3311 0.0
C1179 C 0.0772 0.8946 0.32036 0.0
C1180 C 0.05311 0.86331 0.32151 0.0
C1181 C 0.16125 0.83783 0.28801 0.0
C1182 C 0.15227 0.84638 0.27035 0.0
C1183 C 0.13659 0.86367 0.27023 0.0
C1184 C 0.16123 0.83864 0.25338 0.0
C1185 C 0.15538 0.84877 0.2362 0.0
C1186 C 0.13043 0.87363 0.25335 0.0
C1187 C 0.13996 0.86654 0.23649 0.0
C1188 C 0.18518 0.88754 0.35985 0.0
C1189 C 0.12146 0.80225 0.35919 0.0
C1190 C 0.18105 0.82911 0.40234 0.0
C1191 C 0.18914 0.82024 0.4202 0.0
C1192 C 0.20434 0.80247 0.42067 0.0
C1193 C 0.17971 0.82802 0.437 0.0
C1194 C 0.18467 0.81738 0.45417 0.0
C1195 C 0.20951 0.79205 0.43769 0.0
C1196 C 0.19951 0.7992 0.45435 0.0
C1197 C 0.15674 0.77652 0.3305 0.0
H1198 H 0.12952 0.86983 0.28314 0.0
H1199 H 0.17282 0.82476 0.25369 0.0
H1200 H 0.11865 0.88732 0.25334 0.0
H1201 H 0.13568 0.87554 0.22374 0.0
H1202 H 0.21185 0.79634 0.40791 0.0
H1203 H 0.16778 0.8416 0.43667 0.0
H1204 H 0.2211 0.77819 0.43796 0.0
H1205 H 0.20367 0.79083 0.46741 0.0
Gd1206 Gd 0.85263 0.6844 0.70244 0.0
Gd1207 Gd 0.83168 0.65063 0.65606 0.0
C1208 C 0.76079 0.54759 0.64815 0.0
C1209 C 0.79559 0.52705 0.63997 0.0
C1210 C 0.81804 0.58223 0.64637 0.0
C1211 C 0.78773 0.57756 0.6499 0.0
C1212 C 0.8222 0.55719 0.64085 0.0
C1213 C 0.76496 0.52224 0.64367 0.0
C1214 C 0.73042 0.54422 0.65018 0.0
C1215 C 0.72747 0.57058 0.65289 0.0
N1216 N 0.78441 0.60267 0.65361 0.0
C1217 C 0.75492 0.59991 0.65417 0.0
H1218 H 0.75257 0.6203 0.65597 0.0
C1219 C 0.8729 0.61821 0.64131 0.0
N1220 N 0.84331 0.61169 0.64728 0.0
C1221 C 0.87821 0.59409 0.63582 0.0
C1222 C 0.85285 0.5634 0.63581 0.0
H1223 H 0.89245 0.642 0.64137 0.0
H1224 H 0.74456 0.49899 0.64242 0.0
H1225 H 0.93205 0.72043 0.70159 0.0
H1226 H 0.70911 0.52157 0.649 0.0
H1227 H 0.70409 0.56836 0.65392 0.0
H1228 H 0.79832 0.50743 0.63596 0.0
H1229 H 0.78801 0.68633 0.71645 0.0
H1230 H 0.96829 0.81751 0.71208 0.0
H1231 H 0.97784 0.77402 0.7047 0.0
H1232 H 0.87387 0.82177 0.72729 0.0
H1233 H 0.90182 0.59917 0.63157 0.0
H1234 H 0.85702 0.54479 0.63148 0.0
H1235 H 0.92923 0.83512 0.72056 0.0
H1236 H 0.77389 0.72538 0.72765 0.0
N1237 N 0.89735 0.73416 0.70547 0.0
C1238 C 0.9482 0.7942 0.71034 0.0
C1239 C 0.95369 0.76971 0.7062 0.0
C1240 C 0.91687 0.78806 0.71299 0.0
C1241 C 0.8916 0.75734 0.71048 0.0
C1242 C 0.9278 0.73952 0.70423 0.0
N1243 N 0.83686 0.71981 0.7123 0.0
C1244 C 0.86047 0.74987 0.71436 0.0
C1245 C 0.79828 0.73257 0.72385 0.0
C1246 C 0.82203 0.76387 0.72529 0.0
C1247 C 0.80624 0.71058 0.71755 0.0
C1248 C 0.85366 0.77282 0.72071 0.0
H1249 H 0.8158 0.78082 0.73022 0.0
O1250 O 0.83001 0.6653 0.72913 0.0
O1251 O 0.81192 0.65115 0.68396 0.0
O1252 O 0.80188 0.67253 0.66352 0.0
O1253 O 0.8346 0.71075 0.68455 0.0
O1254 O 0.81512 0.63566 0.70986 0.0
O1255 O 0.8814 0.68626 0.7263 0.0
O1256 O 0.85617 0.66742 0.62953 0.0
O1257 O 0.87236 0.68413 0.67445 0.0
O1258 O 0.88363 0.66408 0.69441 0.0
O1259 O 0.85043 0.62504 0.67408 0.0
O1260 O 0.86848 0.69973 0.64873 0.0
O1261 O 0.8052 0.65009 0.63138 0.0
C1262 C 0.79914 0.62802 0.69474 0.0
C1263 C 0.87862 0.80371 0.72256 0.0
C1264 C 0.91015 0.81132 0.71868 0.0
C1265 C 0.85687 0.6733 0.73762 0.0
C1266 C 0.86043 0.68709 0.75638 0.0
C1267 C 0.87326 0.71927 0.75855 0.0
C1268 C 0.84934 0.66765 0.77225 0.0
C1269 C 0.85032 0.68029 0.79006 0.0
C1270 C 0.87438 0.73187 0.77615 0.0
C1271 C 0.86278 0.71256 0.79178 0.0
C1272 C 0.81308 0.70056 0.67096 0.0
C1273 C 0.88478 0.70736 0.66375 0.0
C1274 C 0.83023 0.66109 0.62046 0.0
C1275 C 0.82621 0.64619 0.60203 0.0
C1276 C 0.81497 0.61419 0.60071 0.0
C1277 C 0.8346 0.66427 0.58558 0.0
C1278 C 0.83195 0.65042 0.56789 0.0
C1279 C 0.81285 0.60042 0.58341 0.0
C1280 C 0.82144 0.6183 0.56718 0.0
C1281 C 0.87257 0.63588 0.6873 0.0
H1282 H 0.88224 0.73465 0.74668 0.0
H1283 H 0.83931 0.64273 0.7707 0.0
H1284 H 0.88415 0.75672 0.77767 0.0
H1285 H 0.86384 0.72287 0.80529 0.0
H1286 H 0.80795 0.59982 0.61301 0.0
H1287 H 0.84273 0.68892 0.58661 0.0
H1288 H 0.80457 0.57574 0.58259 0.0
H1289 H 0.81999 0.60686 0.55404 0.0
Gd1290 Gd 0.31055 0.15853 0.70045 0.0
Gd1291 Gd 0.36424 0.17995 0.65951 0.0
C1292 C 0.45896 0.1805 0.6604 0.0
C1293 C 0.49753 0.23562 0.65721 0.0
C1294 C 0.44066 0.21768 0.65742 0.0
C1295 C 0.43398 0.18738 0.65972 0.0
C1296 C 0.47247 0.24208 0.65562 0.0
C1297 C 0.49078 0.20487 0.65964 0.0
C1298 C 0.45118 0.1493 0.66118 0.0
C1299 C 0.4192 0.12589 0.66047 0.0
N1300 N 0.40298 0.16442 0.66012 0.0
C1301 C 0.39529 0.13391 0.65965 0.0
H1302 H 0.37068 0.11558 0.65919 0.0
C1303 C 0.42109 0.25184 0.65093 0.0
N1304 N 0.41587 0.22299 0.65574 0.0
C1305 C 0.45222 0.27683 0.64902 0.0
C1306 C 0.47806 0.27203 0.65164 0.0
H1307 H 0.40126 0.25578 0.64897 0.0
H1308 H 0.5103 0.20009 0.66035 0.0
H1309 H 0.30708 0.22453 0.70171 0.0
H1310 H 0.46965 0.14303 0.66179 0.0
H1311 H 0.41291 0.10166 0.66064 0.0
H1312 H 0.52216 0.25409 0.65607 0.0
H1313 H 0.27048 0.08174 0.70826 0.0
H1314 H 0.20924 0.20069 0.69753 0.0
H1315 H 0.2664 0.2405 0.70007 0.0
H1316 H 0.15286 0.08914 0.69965 0.0
H1317 H 0.45627 0.29977 0.64559 0.0
H1318 H 0.50215 0.29141 0.65012 0.0
H1319 H 0.16702 0.14409 0.69715 0.0
H1320 H 0.21452 0.03869 0.70916 0.0
N1321 N 0.27346 0.17608 0.6998 0.0
C1322 C 0.22701 0.19351 0.69832 0.0
C1323 C 0.25924 0.21604 0.6998 0.0
C1324 C 0.21805 0.16196 0.69841 0.0
C1325 C 0.24214 0.1539 0.69935 0.0
C1326 C 0.28226 0.20686 0.70074 0.0
N1327 N 0.25804 0.11641 0.70254 0.0
C1328 C 0.23417 0.12306 0.70074 0.0
C1329 C 0.21971 0.0623 0.7067 0.0
C1330 C 0.19488 0.06856 0.70395 0.0
C1331 C 0.25134 0.0867 0.70625 0.0
C1332 C 0.20191 0.0993 0.70123 0.0
H1333 H 0.17039 0.04963 0.70439 0.0
O1334 O 0.31464 0.14074 0.72725 0.0
O1335 O 0.35542 0.16351 0.68883 0.0
O1336 O 0.32754 0.128 0.66065 0.0
O1337 O 0.28445 0.12459 0.67732 0.0
O1338 O 0.32856 0.12477 0.70513 0.0
O1339 O 0.31609 0.18513 0.72572 0.0
O1340 O 0.35728 0.19487 0.63238 0.0
O1341 O 0.31976 0.17529 0.67134 0.0
O1342 O 0.34862 0.21013 0.70035 0.0
O1343 O 0.39095 0.21517 0.68195 0.0
O1344 O 0.3456 0.21331 0.65462 0.0
O1345 O 0.35806 0.1517 0.63493 0.0
C1346 C 0.35477 0.13987 0.69583 0.0
C1347 C 0.1778 0.10707 0.69948 0.0
C1348 C 0.18586 0.13836 0.69806 0.0
C1349 C 0.31593 0.16394 0.73656 0.0
C1350 C 0.29604 0.15558 0.7534 0.0
C1351 C 0.26263 0.13841 0.75233 0.0
C1352 C 0.31093 0.1632 0.77091 0.0
C1353 C 0.29267 0.15302 0.78733 0.0
C1354 C 0.24435 0.12845 0.76864 0.0
C1355 C 0.25926 0.13543 0.78609 0.0
C1356 C 0.29682 0.11338 0.66522 0.0
C1357 C 0.31981 0.19857 0.66431 0.0
C1358 C 0.35666 0.17155 0.62362 0.0
C1359 C 0.376 0.17947 0.60658 0.0
C1360 C 0.40944 0.19648 0.60732 0.0
C1361 C 0.36062 0.17141 0.58923 0.0
C1362 C 0.37844 0.18098 0.57264 0.0
C1363 C 0.42728 0.20587 0.59084 0.0
C1364 C 0.41189 0.19844 0.57355 0.0
C1365 C 0.37905 0.2254 0.69504 0.0
H1366 H 0.25076 0.13234 0.73896 0.0
H1367 H 0.33677 0.17624 0.77175 0.0
H1368 H 0.21858 0.11502 0.76776 0.0
H1369 H 0.24476 0.12733 0.7986 0.0
H1370 H 0.4217 0.20279 0.62055 0.0
H1371 H 0.33474 0.15845 0.58864 0.0
H1372 H 0.45308 0.21917 0.59147 0.0
H1373 H 0.42605 0.20604 0.56089 0.0
Gd1374 Gd 0.82245 0.17647 0.65788 0.0
Gd1375 Gd 0.84889 0.15555 0.70113 0.0
C1376 C 0.9433 0.15584 0.70463 0.0
C1377 C 0.92547 0.10091 0.70887 0.0
C1378 C 0.88679 0.11842 0.70632 0.0
C1379 C 0.9112 0.14874 0.70411 0.0
C1380 C 0.89362 0.09425 0.70925 0.0
C1381 C 0.95028 0.13166 0.70652 0.0
C1382 C 0.96739 0.18709 0.7039 0.0
C1383 C 0.95914 0.21034 0.70351 0.0
N1384 N 0.90358 0.17152 0.70264 0.0
C1385 C 0.92694 0.2021 0.70319 0.0
H1386 H 0.92091 0.2203 0.70283 0.0
C1387 C 0.83174 0.08411 0.71145 0.0
N1388 N 0.85636 0.11289 0.70678 0.0
C1389 C 0.8373 0.05935 0.71445 0.0
C1390 C 0.86833 0.06432 0.71307 0.0
H1391 H 0.80769 0.08004 0.71247 0.0
H1392 H 0.97478 0.13662 0.70677 0.0
H1393 H 0.75169 0.1102 0.65545 0.0
H1394 H 0.99234 0.19352 0.70419 0.0
H1395 H 0.97756 0.23461 0.70338 0.0
H1396 H 0.93121 0.08261 0.71089 0.0
H1397 H 0.86161 0.25293 0.6489 0.0
H1398 H 0.67781 0.13372 0.65502 0.0
H1399 H 0.69455 0.09404 0.65491 0.0
H1400 H 0.73559 0.24515 0.65118 0.0
H1401 H 0.81766 0.03644 0.71777 0.0
H1402 H 0.87258 0.04512 0.71544 0.0
H1403 H 0.69337 0.19025 0.65383 0.0
H1404 H 0.84971 0.2957 0.64557 0.0
N1405 N 0.76738 0.15867 0.65626 0.0
C1406 C 0.70299 0.14099 0.65522 0.0
C1407 C 0.71234 0.11853 0.65511 0.0
C1408 C 0.72626 0.17256 0.65502 0.0
C1409 C 0.75868 0.18075 0.65539 0.0
C1410 C 0.74483 0.12782 0.6554 0.0
N1411 N 0.81317 0.21828 0.65346 0.0
C1412 C 0.78234 0.21156 0.65392 0.0
C1413 C 0.83055 0.27216 0.648 0.0
C1414 C 0.79904 0.26584 0.64933 0.0
C1415 C 0.8372 0.24789 0.64983 0.0
C1416 C 0.7744 0.23517 0.65203 0.0
H1417 H 0.79394 0.28466 0.64783 0.0
O1418 O 0.84887 0.1932 0.63199 0.0
O1419 O 0.86088 0.17184 0.6718 0.0
O1420 O 0.86514 0.20736 0.69935 0.0
O1421 O 0.82828 0.211 0.68009 0.0
O1422 O 0.87525 0.21092 0.65556 0.0
O1423 O 0.80369 0.15001 0.63218 0.0
O1424 O 0.82241 0.14144 0.72715 0.0
O1425 O 0.81067 0.16005 0.68703 0.0
O1426 O 0.8077 0.12496 0.6589 0.0
O1427 O 0.8421 0.11977 0.67958 0.0
O1428 O 0.79579 0.12157 0.70363 0.0
O1429 O 0.86901 0.18286 0.72641 0.0
C1430 C 0.88512 0.19589 0.66562 0.0
C1431 C 0.74218 0.22732 0.65244 0.0
C1432 C 0.71815 0.19606 0.65395 0.0
C1433 C 0.82739 0.17035 0.62205 0.0
C1434 C 0.8196 0.17917 0.60408 0.0
C1435 C 0.80354 0.19613 0.60337 0.0
C1436 C 0.83035 0.17235 0.58744 0.0
C1437 C 0.82588 0.18315 0.57019 0.0
C1438 C 0.7988 0.20667 0.58626 0.0
C1439 C 0.81014 0.20049 0.56977 0.0
C1440 C 0.85033 0.2221 0.69327 0.0
C1441 C 0.78614 0.13641 0.69324 0.0
C1442 C 0.84495 0.16385 0.7368 0.0
C1443 C 0.85229 0.15464 0.75478 0.0
C1444 C 0.86767 0.13704 0.75548 0.0
C1445 C 0.84192 0.16185 0.77142 0.0
C1446 C 0.84612 0.15082 0.78865 0.0
C1447 C 0.87204 0.12618 0.77257 0.0
C1448 C 0.8611 0.13277 0.78906 0.0
C1449 C 0.8215 0.10957 0.66558 0.0
H1450 H 0.7951 0.20159 0.61602 0.0
H1451 H 0.84301 0.15945 0.58797 0.0
H1452 H 0.78656 0.21991 0.5858 0.0
H1453 H 0.80636 0.20899 0.55665 0.0
H1454 H 0.87595 0.1314 0.74287 0.0
H1455 H 0.82989 0.17534 0.77093 0.0
H1456 H 0.88376 0.11245 0.77301 0.0
H1457 H 0.86468 0.12412 0.80218 0.0
C1458 C 0.36808 0.93403 0.03681 0.0
C1459 C 0.36554 0.90566 0.04242 0.0
H1460 H 0.39871 0.98054 0.02703 0.0
C1461 C 0.39201 0.90145 0.03956 0.0
H1462 H 0.34804 0.93792 0.03812 0.0
C1463 C 0.42078 0.92568 0.0325 0.0
C1464 C 0.4237 0.95463 0.02833 0.0
H1465 H 0.39124 0.88013 0.04376 0.0
H1466 H 0.44125 0.92239 0.03145 0.0
C1467 C 0.39696 0.95837 0.03019 0.0
C1468 C 0.06969 0.43461 0.04274 0.0
C1469 C 0.09987 0.46059 0.04651 0.0
H1470 H 0.02141 0.41796 0.03404 0.0
C1471 C 0.10452 0.49049 0.04274 0.0
H1472 H 0.06523 0.41119 0.04499 0.0
C1473 C 0.07938 0.49424 0.03606 0.0
C1474 C 0.04909 0.4682 0.03292 0.0
H1475 H 0.12721 0.51111 0.04562 0.0
H1476 H 0.08338 0.51754 0.03397 0.0
C1477 C 0.04458 0.43841 0.03628 0.0
C1478 C 0.51623 0.6293 0.04109 0.0
C1479 C 0.53816 0.64071 0.05593 0.0
H1480 H 0.49164 0.59323 0.02103 0.0
C1481 C 0.55267 0.62355 0.06159 0.0
H1482 H 0.50484 0.642 0.03618 0.0
C1483 C 0.54581 0.59598 0.05248 0.0
C1484 C 0.52401 0.5847 0.03759 0.0
H1485 H 0.56916 0.63122 0.07321 0.0
H1486 H 0.55755 0.5835 0.0572 0.0
C1487 C 0.50903 0.6015 0.03216 0.0
C1488 C 0.88437 0.37118 0.98677 0.0
C1489 C 0.89434 0.35777 0.97289 0.0
H1490 H 0.897 0.40952 1.00504 0.0
C1491 C 0.92665 0.37377 0.9674 0.0
H1492 H 0.85992 0.35957 0.99165 0.0
C1493 C 0.94839 0.40206 0.97576 0.0
C1494 C 0.93829 0.41533 0.98963 0.0
H1495 H 0.93523 0.36468 0.95648 0.0
H1496 H 0.97306 0.41359 0.97124 0.0
C1497 C 0.90592 0.39973 0.9948 0.0
C1498 C 0.64105 0.56783 0.98807 0.0
C1499 C 0.64418 0.54193 0.98325 0.0
H1500 H 0.60999 0.58443 0.99726 0.0
C1501 C 0.6178 0.51193 0.98628 0.0
H1502 H 0.66092 0.59128 0.9865 0.0
C1503 C 0.58868 0.50808 0.99292 0.0
C1504 C 0.58535 0.53413 0.99668 0.0
H1505 H 0.61905 0.49136 0.98266 0.0
H1506 H 0.56843 0.48478 0.99422 0.0
C1507 C 0.61195 0.56397 0.99446 0.0
C1508 C 0.45234 0.07552 0.96693 0.0
C1509 C 0.46651 0.10666 0.97285 0.0
H1510 H 0.44855 0.03109 0.97048 0.0
C1511 C 0.48873 0.11663 0.98756 0.0
H1512 H 0.43563 0.0671 0.95541 0.0
C1513 C 0.49666 0.096 0.99603 0.0
C1514 C 0.48225 0.06481 0.99018 0.0
H1515 H 0.49991 0.14035 0.99264 0.0
H1516 H 0.51425 0.10462 1.00707 0.0
C1517 C 0.45999 0.05486 0.97552 0.0
C1518 C 0.64189 0.07078 0.98728 0.0
C1519 C 0.64317 0.09889 0.98269 0.0
H1520 H 0.61256 0.02352 0.99626 0.0
C1521 C 0.6162 0.10199 0.9859 0.0
H1522 H 0.66231 0.06778 0.98482 0.0
C1523 C 0.58799 0.07691 0.99285 0.0
C1524 C 0.58622 0.04823 0.9964 0.0
H1525 H 0.6167 0.12349 0.98247 0.0
H1526 H 0.56714 0.07944 0.99444 0.0
C1527 C 0.61351 0.04553 0.9938 0.0
C1528 C 0.93512 0.56512 0.98288 0.0
C1529 C 0.90583 0.5383 0.9789 0.0
H1530 H 0.9837 0.58369 0.99171 0.0
C1531 C 0.90276 0.50893 0.98203 0.0
H1532 H 0.93825 0.58803 0.98043 0.0
C1533 C 0.92859 0.50647 0.98882 0.0
C1534 C 0.95806 0.53334 0.99243 0.0
H1535 H 0.88045 0.48788 0.97908 0.0
H1536 H 0.92573 0.48357 0.99071 0.0
C1537 C 0.96111 0.56265 0.98928 0.0
C1538 C 0.45474 0.37657 0.96406 0.0
C1539 C 0.46917 0.35964 0.97015 0.0
H1540 H 0.44967 0.41665 0.96803 0.0
C1541 C 0.49089 0.37119 0.98502 0.0
H1542 H 0.4378 0.36804 0.95265 0.0
C1543 C 0.49804 0.39917 0.99368 0.0
C1544 C 0.4831 0.41587 0.98792 0.0
H1545 H 0.50265 0.35875 0.98981 0.0
H1546 H 0.51543 0.4077 1.00481 0.0
C1547 C 0.46148 0.40433 0.97293 0.0
C1548 C 0.08217 0.6287 0.05898 0.0
C1549 C 0.11413 0.64481 0.05307 0.0
H1550 H 0.03576 0.5888 0.05526 0.0
C1551 C 0.1241 0.63199 0.03894 0.0
H1552 H 0.074 0.63821 0.06989 0.0
C1553 C 0.10252 0.60349 0.03085 0.0
C1554 C 0.07024 0.58759 0.03631 0.0
H1555 H 0.14876 0.64383 0.03435 0.0
H1556 H 0.11133 0.59391 0.0204 0.0
C1557 C 0.06033 0.60048 0.05056 0.0
C1558 C 0.39161 0.49239 0.04009 0.0
C1559 C 0.36428 0.463 0.04268 0.0
H1560 H 0.44096 0.51777 0.03207 0.0
C1561 C 0.3657 0.43627 0.03776 0.0
H1562 H 0.39117 0.51338 0.04372 0.0
C1563 C 0.39425 0.43877 0.03133 0.0
C1564 C 0.42175 0.46806 0.02915 0.0
H1565 H 0.34512 0.41333 0.03973 0.0
H1566 H 0.39507 0.41772 0.02844 0.0
C1567 C 0.42003 0.49491 0.03329 0.0
C1568 C 0.55564 0.92402 0.05842 0.0
C1569 C 0.54082 0.89286 0.0526 0.0
H1570 H 0.56079 0.96892 0.05447 0.0
C1571 C 0.51891 0.88307 0.03779 0.0
H1572 H 0.57285 0.93223 0.0697 0.0
C1573 C 0.51163 0.90402 0.02914 0.0
C1574 C 0.52658 0.93531 0.0349 0.0
H1575 H 0.50693 0.85906 0.03316 0.0
H1576 H 0.49404 0.89555 0.01811 0.0
C1577 C 0.54875 0.94505 0.04962 0.0
C1578 C 0.03743 0.26244 0.37096 0.0
C1579 C 0.03636 0.23467 0.37616 0.0
H1580 H 0.06648 0.30931 0.3613 0.0
C1581 C 0.06345 0.23163 0.37325 0.0
H1582 H 0.01694 0.26542 0.37317 0.0
C1583 C 0.09158 0.25651 0.366 0.0
C1584 C 0.09312 0.28493 0.36192 0.0
H1585 H 0.06313 0.21037 0.37714 0.0
H1586 H 0.11257 0.25413 0.36466 0.0
C1587 C 0.06569 0.28749 0.36417 0.0
C1588 C 0.7376 0.76842 0.37541 0.0
C1589 C 0.76788 0.79424 0.37923 0.0
H1590 H 0.68912 0.75215 0.36729 0.0
C1591 C 0.77248 0.82429 0.37611 0.0
H1592 H 0.73316 0.74491 0.37717 0.0
C1593 C 0.74721 0.82831 0.37002 0.0
C1594 C 0.71685 0.80241 0.36684 0.0
H1595 H 0.79523 0.84479 0.37907 0.0
H1596 H 0.75118 0.85169 0.36842 0.0
C1597 C 0.71235 0.77248 0.36957 0.0
C1598 C 0.23255 0.96639 0.3826 0.0
C1599 C 0.20886 0.97448 0.38595 0.0
H1600 H 0.24349 0.93232 0.37201 0.0
C1601 C 0.17734 0.95356 0.38025 0.0
H1602 H 0.25726 0.98205 0.38619 0.0
C1603 C 0.16986 0.92563 0.37141 0.0
C1604 C 0.19344 0.91745 0.3686 0.0
H1605 H 0.15817 0.95834 0.38287 0.0
H1606 H 0.14542 0.91006 0.36718 0.0
C1607 C 0.22481 0.93797 0.3743 0.0
C1608 C 0.55224 0.70586 0.32127 0.0
C1609 C 0.56208 0.69315 0.30689 0.0
H1610 H 0.56498 0.74344 0.34022 0.0
C1611 C 0.59428 0.70958 0.3012 0.0
H1612 H 0.52788 0.69388 0.32632 0.0
C1613 C 0.61601 0.73762 0.30982 0.0
C1614 C 0.60604 0.75023 0.32416 0.0
H1615 H 0.60276 0.70106 0.28992 0.0
H1616 H 0.64058 0.7495 0.30509 0.0
C1617 C 0.57379 0.73417 0.32958 0.0
C1618 C 0.30686 0.89922 0.31753 0.0
C1619 C 0.31024 0.87325 0.31332 0.0
H1620 H 0.27574 0.91587 0.32652 0.0
C1621 C 0.28417 0.84331 0.31696 0.0
H1622 H 0.32649 0.92265 0.31544 0.0
C1623 C 0.25515 0.83952 0.32373 0.0
C1624 C 0.25161 0.86558 0.32705 0.0
H1625 H 0.28564 0.82271 0.3138 0.0
H1626 H 0.23513 0.81622 0.32558 0.0
C1627 C 0.27786 0.8954 0.32408 0.0
C1628 C 0.1189 0.40742 0.30157 0.0
C1629 C 0.13225 0.4383 0.30786 0.0
H1630 H 0.11644 0.36348 0.30457 0.0
C1631 C 0.15426 0.44831 0.32267 0.0
H1632 H 0.10237 0.39903 0.28997 0.0
C1633 C 0.16285 0.42799 0.33088 0.0
C1634 C 0.14932 0.39707 0.32462 0.0
H1635 H 0.16478 0.47183 0.32802 0.0
H1636 H 0.18026 0.43665 0.34201 0.0
C1637 C 0.12722 0.38705 0.30989 0.0
C1638 C 0.31103 0.40687 0.32107 0.0
C1639 C 0.31156 0.43458 0.31633 0.0
H1640 H 0.28261 0.35959 0.33019 0.0
C1641 C 0.28415 0.43696 0.31944 0.0
H1642 H 0.33179 0.40441 0.31868 0.0
C1643 C 0.25623 0.41155 0.32646 0.0
C1644 C 0.25524 0.38325 0.33013 0.0
H1645 H 0.28406 0.45814 0.3159 0.0
H1646 H 0.23501 0.41349 0.32796 0.0
C1647 C 0.28298 0.3813 0.32764 0.0
C1648 C 0.60272 0.89994 0.31777 0.0
C1649 C 0.57342 0.87316 0.31375 0.0
H1650 H 0.65125 0.91842 0.32667 0.0
C1651 C 0.5702 0.84377 0.31708 0.0
H1652 H 0.60598 0.92287 0.31517 0.0
C1653 C 0.59592 0.84125 0.324 0.0
C1654 C 0.62547 0.86808 0.32752 0.0
H1655 H 0.54788 0.82275 0.31411 0.0
H1656 H 0.59297 0.81833 0.32598 0.0
C1657 C 0.62861 0.89741 0.32429 0.0
C1658 C 0.15603 0.70179 0.31824 0.0
C1659 C 0.1338 0.69005 0.30356 0.0
H1660 H 0.18131 0.73845 0.33783 0.0
C1661 C 0.11936 0.70721 0.29777 0.0
H1662 H 0.16737 0.68911 0.32327 0.0
C1663 C 0.12662 0.73512 0.30658 0.0
C1664 C 0.14879 0.74677 0.32128 0.0
H1665 H 0.10263 0.69929 0.28627 0.0
H1666 H 0.11494 0.74761 0.30176 0.0
C1667 C 0.16366 0.72994 0.32684 0.0
C1668 C 0.75006 0.96372 0.39338 0.0
C1669 C 0.78216 0.97946 0.38773 0.0
H1670 H 0.70355 0.92408 0.3895 0.0
C1671 C 0.79227 0.9662 0.37394 0.0
H1672 H 0.74179 0.97357 0.40403 0.0
C1673 C 0.77068 0.93763 0.36592 0.0
C1674 C 0.73827 0.92212 0.37111 0.0
H1675 H 0.81703 0.97775 0.36956 0.0
H1676 H 0.77956 0.9277 0.35575 0.0
C1677 C 0.72823 0.93544 0.38503 0.0
C1678 C 0.06011 0.82452 0.374 0.0
C1679 C 0.03286 0.79513 0.37671 0.0
H1680 H 0.10939 0.84991 0.36594 0.0
C1681 C 0.03444 0.76838 0.37208 0.0
H1682 H 0.05956 0.84553 0.37743 0.0
C1683 C 0.06306 0.77089 0.36574 0.0
C1684 C 0.09042 0.80021 0.3633 0.0
H1685 H 0.01392 0.74544 0.37417 0.0
H1686 H 0.064 0.74986 0.36302 0.0
C1687 C 0.08856 0.82703 0.36727 0.0
C1688 C 0.19601 0.21987 0.36884 0.0
C1689 C 0.21723 0.22985 0.38399 0.0
H1690 H 0.17007 0.23135 0.34934 0.0
C1691 C 0.22993 0.26044 0.39056 0.0
H1692 H 0.18562 0.19625 0.36365 0.0
C1693 C 0.22151 0.28069 0.3822 0.0
C1694 C 0.19989 0.27071 0.36718 0.0
H1695 H 0.24651 0.26874 0.40215 0.0
H1696 H 0.23182 0.30412 0.38767 0.0
C1697 C 0.18718 0.24002 0.36062 0.0
C1698 C 0.72565 0.5537 0.70751 0.0
C1699 C 0.70239 0.56287 0.70814 0.0
H1700 H 0.77454 0.56731 0.7022 0.0
C1701 C 0.7106 0.59267 0.7014 0.0
H1702 H 0.72061 0.53127 0.71282 0.0
C1703 C 0.74179 0.61342 0.69546 0.0
C1704 C 0.76512 0.6045 0.69574 0.0
H1705 H 0.69326 0.60041 0.70134 0.0
H1706 H 0.74806 0.6369 0.69156 0.0
C1707 C 0.75664 0.57433 0.70144 0.0
C1708 C 0.40352 0.10269 0.70927 0.0
C1709 C 0.43357 0.1286 0.71341 0.0
H1710 H 0.35529 0.08619 0.70053 0.0
C1711 C 0.43807 0.1586 0.71024 0.0
H1712 H 0.39919 0.07922 0.71105 0.0
C1713 C 0.41288 0.16248 0.70378 0.0
C1714 C 0.38273 0.13647 0.7003 0.0
H1715 H 0.46066 0.17915 0.71341 0.0
H1716 H 0.41673 0.18581 0.70212 0.0
C1717 C 0.37836 0.1066 0.70307 0.0
C1718 C 0.8997 0.30179 0.71479 0.0
C1719 C 0.87708 0.3116 0.71702 0.0
H1720 H 0.90884 0.26572 0.70585 0.0
C1721 C 0.84562 0.29163 0.71084 0.0
H1722 H 0.92439 0.31666 0.71873 0.0
C1723 C 0.83709 0.26282 0.70278 0.0
C1724 C 0.85956 0.2529 0.70118 0.0
H1725 H 0.82726 0.29784 0.71254 0.0
H1726 H 0.81269 0.24795 0.69823 0.0
C1727 C 0.89091 0.27262 0.70723 0.0
C1728 C 0.22219 0.0438 0.64658 0.0
C1729 C 0.2334 0.02359 0.64122 0.0
H1730 H 0.2333 0.08766 0.65856 0.0
C1731 C 0.26603 0.03359 0.6438 0.0
H1732 H 0.19755 0.03755 0.64447 0.0
C1733 C 0.28678 0.06297 0.6513 0.0
C1734 C 0.27528 0.08271 0.65683 0.0
H1735 H 0.27562 0.01863 0.64031 0.0
H1736 H 0.31169 0.06992 0.65315 0.0
C1737 C 0.24278 0.07278 0.65452 0.0
C1738 C 0.94998 0.17762 0.65206 0.0
C1739 C 0.97605 0.20771 0.64875 0.0
H1740 H 0.90072 0.15012 0.66022 0.0
C1741 C 0.97239 0.23347 0.6531 0.0
H1742 H 0.95163 0.15714 0.6488 0.0
C1743 C 0.94311 0.22933 0.65935 0.0
C1744 C 0.91689 0.19939 0.66195 0.0
H1745 H 0.99198 0.25701 0.65133 0.0
H1746 H 0.94077 0.24966 0.66184 0.0
C1747 C 0.92071 0.17351 0.65861 0.0
C1748 C 0.80531 0.77195 0.66237 0.0
C1749 C 0.78562 0.76305 0.64648 0.0
H1750 H 0.8295 0.75946 0.68247 0.0
C1751 C 0.77332 0.7326 0.63957 0.0
H1752 H 0.81476 0.79498 0.66832 0.0
C1753 C 0.78121 0.71194 0.64801 0.0
C1754 C 0.80179 0.72124 0.66349 0.0
H1755 H 0.75844 0.72497 0.62724 0.0
H1756 H 0.77193 0.68897 0.64198 0.0
C1757 C 0.81345 0.75138 0.67069 0.0
C1758 C 0.97338 0.7434 0.65689 0.0
C1759 C 0.98066 0.77239 0.64938 0.0
H1760 H 0.93653 0.6995 0.66756 0.0
C1761 C 0.95733 0.78135 0.64974 0.0
H1762 H 0.99092 0.73591 0.65663 0.0
C1763 C 0.92664 0.7609 0.65629 0.0
C1764 C 0.91869 0.73115 0.66262 0.0
H1765 H 0.96245 0.80365 0.64413 0.0
H1766 H 0.90851 0.7676 0.65536 0.0
C1767 C 0.94242 0.72271 0.66325 0.0
C1768 C 0.26783 0.23222 0.6503 0.0
C1769 C 0.23887 0.20539 0.64578 0.0
H1770 H 0.31622 0.2509 0.65957 0.0
C1771 C 0.23615 0.17606 0.64843 0.0
H1772 H 0.27072 0.25513 0.64822 0.0
C1773 C 0.26199 0.17366 0.65525 0.0
C1774 C 0.29114 0.20055 0.6594 0.0
H1775 H 0.21411 0.155 0.64506 0.0
H1776 H 0.25943 0.15081 0.6567 0.0
C1777 C 0.29384 0.22983 0.65675 0.0
C1778 C 0.78254 0.03791 0.6346 0.0
C1779 C 0.79652 0.02082 0.64118 0.0
H1780 H 0.77903 0.07906 0.6373 0.0
C1781 C 0.81888 0.03311 0.65569 0.0
H1782 H 0.76516 0.02885 0.62343 0.0
C1783 C 0.8273 0.06209 0.66342 0.0
C1784 C 0.81292 0.07905 0.65714 0.0
H1785 H 0.83032 0.02055 0.66081 0.0
H1786 H 0.84529 0.07122 0.67421 0.0
C1787 C 0.79048 0.06663 0.64259 0.0
C1788 C 0.45381 0.30148 0.70671 0.0
C1789 C 0.4426 0.31412 0.72026 0.0
H1790 H 0.44305 0.26309 0.68884 0.0
C1791 C 0.41053 0.29723 0.72588 0.0
H1792 H 0.47859 0.31393 0.70237 0.0
C1793 C 0.38975 0.26842 0.71768 0.0
C1794 C 0.40088 0.25577 0.70395 0.0
H1795 H 0.40146 0.30658 0.73638 0.0
H1796 H 0.36502 0.25615 0.72209 0.0
C1797 C 0.43331 0.27244 0.69886 0.0
C1798 C 0.72465 0.15861 0.70784 0.0
C1799 C 0.69753 0.12919 0.71075 0.0
H1800 H 0.77386 0.18409 0.69953 0.0
C1801 C 0.69921 0.10246 0.70621 0.0
H1802 H 0.724 0.1796 0.71119 0.0
C1803 C 0.72781 0.10503 0.69981 0.0
C1804 C 0.75507 0.13437 0.69722 0.0
H1805 H 0.67879 0.0795 0.70845 0.0
H1806 H 0.72883 0.08401 0.69721 0.0
C1807 C 0.75309 0.16118 0.70102 0.0
C1808 C 0.88243 0.56571 0.69583 0.0
C1809 C 0.90364 0.57585 0.71099 0.0
H1810 H 0.85547 0.57643 0.67675 0.0
C1811 C 0.91628 0.60655 0.71742 0.0
H1812 H 0.87204 0.54204 0.69074 0.0
C1813 C 0.90722 0.62648 0.70918 0.0
C1814 C 0.88502 0.616 0.69447 0.0
H1815 H 0.93282 0.61499 0.72902 0.0
H1816 H 0.91693 0.64981 0.71474 0.0
C1817 C 0.873 0.58549 0.68778 0.0
C1818 C 0.52548 0.97429 0.1681 0.0
C1819 C 0.49333 0.96029 0.17363 0.0
H1820 H 0.56079 0.00189 0.14762 0.0
C1821 C 0.47146 0.96235 0.16161 0.0
H1822 H 0.54296 0.97333 0.17707 0.0
C1823 C 0.48162 0.97837 0.14457 0.0
C1824 C 0.51399 0.99324 0.13938 0.0
H1825 H 0.4465 0.95167 0.16543 0.0
H1826 H 0.46437 0.98 0.13573 0.0
C1827 C 0.53572 0.99078 0.15128 0.0
C1828 C 0.02173 0.4957 0.15834 0.0
C1829 C 0.00883 0.5022 0.1741 0.0
H1830 H 0.01653 0.48415 0.12938 0.0
C1831 C 0.9802 0.50268 0.17244 0.0
H1832 H 0.0437 0.49499 0.15939 0.0
C1833 C 0.96505 0.49747 0.15514 0.0
C1834 C 0.97791 0.49104 0.1392 0.0
H1835 H 0.97003 0.50795 0.18443 0.0
H1836 H 0.94365 0.49919 0.15423 0.0
C1837 C 0.00625 0.4898 0.14113 0.0
C1838 C 0.50364 0.52909 0.16165 0.0
C1839 C 0.48272 0.50576 0.174 0.0
H1840 H 0.52803 0.53958 0.13527 0.0
C1841 C 0.46974 0.4744 0.16884 0.0
H1842 H 0.51388 0.55344 0.16531 0.0
C1843 C 0.4783 0.46651 0.15188 0.0
C1844 C 0.49941 0.48983 0.13959 0.0
H1845 H 0.45369 0.45601 0.17816 0.0
H1846 H 0.46849 0.44216 0.14836 0.0
C1847 C 0.51162 0.5212 0.14449 0.0
C1848 C 0.98876 0.46902 0.86452 0.0
C1849 C 0.99563 0.49313 0.85183 0.0
H1850 H 0.9981 0.45669 0.89152 0.0
C1851 C 0.01779 0.52393 0.85679 0.0
H1852 H 0.97168 0.44511 0.86098 0.0
C1853 C 0.0333 0.53045 0.87403 0.0
C1854 C 0.02636 0.50635 0.88673 0.0
H1855 H 0.02354 0.54285 0.84716 0.0
H1856 H 0.05055 0.55434 0.87751 0.0
C1857 C 1.00374 0.47562 0.88193 0.0
C1858 C 0.53782 0.53311 0.8568 0.0
C1859 C 0.52624 0.50218 0.85088 0.0
H1860 H 0.53733 0.56353 0.87798 0.0
C1861 C 0.50563 0.47789 0.86294 0.0
H1862 H 0.55429 0.55254 0.84825 0.0
C1863 C 0.49677 0.48436 0.88025 0.0
C1864 C 0.50768 0.5152 0.88577 0.0
H1865 H 0.49559 0.45376 0.85888 0.0
H1866 H 0.48056 0.46521 0.8891 0.0
C1867 C 0.52835 0.53951 0.87393 0.0
C1868 C 0.49279 0.00337 0.85131 0.0
C1869 C 0.5192 0.03369 0.8499 0.0
H1870 H 0.46408 0.96411 0.86856 0.0
C1871 C 0.53754 0.04719 0.8661 0.0
H1872 H 0.47825 0.99168 0.83925 0.0
C1873 C 0.52989 0.03069 0.88304 0.0
C1874 C 0.50356 0.00027 0.88432 0.0
H1875 H 0.5578 0.07059 0.86577 0.0
H1876 H 0.54505 0.04163 0.89501 0.0
C1877 C 0.48493 0.98715 0.86821 0.0
C1878 C 0.13694 0.31135 0.50163 0.0
C1879 C 0.15233 0.29541 0.50821 0.0
H1880 H 0.13406 0.34012 0.48024 0.0
C1881 C 0.17569 0.29476 0.49666 0.0
H1882 H 0.11822 0.31179 0.50968 0.0
C1883 C 0.18397 0.3103 0.47941 0.0
C1884 C 0.16946 0.32721 0.47342 0.0
H1885 H 0.18846 0.28319 0.50116 0.0
H1886 H 0.20263 0.31015 0.47109 0.0
C1887 C 0.14568 0.32732 0.48461 0.0
C1888 C 0.66396 0.86048 0.50388 0.0
C1889 C 0.67767 0.84237 0.50887 0.0
H1890 H 0.63866 0.87059 0.48308 0.0
C1891 C 0.67608 0.81985 0.49632 0.0
H1892 H 0.66478 0.8779 0.51338 0.0
C1893 C 0.66156 0.816 0.47887 0.0
C1894 C 0.64781 0.83412 0.47391 0.0
H1895 H 0.68663 0.80572 0.49985 0.0
H1896 H 0.6609 0.79875 0.4693 0.0
C1897 C 0.64891 0.8562 0.48663 0.0
C1898 C 0.17718 0.86333 0.49426 0.0
C1899 C 0.15728 0.83951 0.50666 0.0
H1900 H 0.20094 0.87487 0.46767 0.0
C1901 C 0.14545 0.80836 0.50138 0.0
H1902 H 0.18653 0.88752 0.49802 0.0
C1903 C 0.15418 0.80118 0.48425 0.0
C1904 C 0.1743 0.82499 0.47192 0.0
H1905 H 0.13022 0.78961 0.51076 0.0
H1906 H 0.1453 0.777 0.48064 0.0
C1907 C 0.18531 0.85612 0.47693 0.0
C1908 C 0.68451 0.8594 0.19193 0.0
C1909 C 0.66405 0.82836 0.18664 0.0
H1910 H 0.71614 0.89032 0.2129 0.0
C1911 C 0.65922 0.80426 0.19884 0.0
H1912 H 0.68858 0.87829 0.18267 0.0
C1913 C 0.67438 0.81112 0.21619 0.0
C1914 C 0.69518 0.84214 0.22138 0.0
H1915 H 0.64341 0.78016 0.19502 0.0
H1916 H 0.6702 0.79222 0.22548 0.0
C1917 C 0.70028 0.86623 0.2091 0.0
C1918 C 0.15832 0.83133 0.18457 0.0
C1919 C 0.18586 0.82873 0.18363 0.0
H1920 H 0.12629 0.83818 0.2018 0.0
C1921 C 0.20319 0.83224 0.20001 0.0
H1922 H 0.14434 0.82832 0.17214 0.0
C1923 C 0.19346 0.83884 0.21701 0.0
C1924 C 0.16573 0.84139 0.21809 0.0
H1925 H 0.22464 0.8305 0.19958 0.0
H1926 H 0.20811 0.84249 0.22919 0.0
C1927 C 0.14816 0.83722 0.20161 0.0
C1928 C 0.17291 0.37514 0.19694 0.0
C1929 C 0.19511 0.37453 0.18445 0.0
H1930 H 0.14826 0.35938 0.22318 0.0
C1931 C 0.21039 0.35782 0.18947 0.0
H1932 H 0.16085 0.3879 0.19347 0.0
C1933 C 0.20277 0.34113 0.20625 0.0
C1934 C 0.18025 0.34135 0.2186 0.0
H1935 H 0.22741 0.35675 0.18009 0.0
H1936 H 0.21419 0.32767 0.20949 0.0
C1937 C 0.16584 0.359 0.21396 0.0
C1938 C 0.80541 0.64496 0.83512 0.0
C1939 C 0.81999 0.62829 0.84171 0.0
H1940 H 0.80363 0.67437 0.81378 0.0
C1941 C 0.84304 0.62698 0.8302 0.0
H1942 H 0.78692 0.64591 0.84312 0.0
C1943 C 0.85184 0.64262 0.81299 0.0
C1944 C 0.83824 0.66036 0.807 0.0
H1945 H 0.8552 0.61481 0.83472 0.0
H1946 H 0.87027 0.64194 0.80473 0.0
C1947 C 0.81469 0.66105 0.81814 0.0
C1948 C 0.34558 0.19797 0.82796 0.0
C1949 C 0.34131 0.17393 0.84018 0.0
H1950 H 0.33373 0.21007 0.80162 0.0
C1951 C 0.32007 0.14289 0.83491 0.0
H1952 H 0.36101 0.22217 0.83162 0.0
C1953 C 0.3037 0.13614 0.81793 0.0
C1954 C 0.30868 0.1602 0.80569 0.0
H1955 H 0.3165 0.12366 0.84368 0.0
H1956 H 0.28777 0.11206 0.81414 0.0
C1957 C 0.32974 0.19114 0.81082 0.0
C1958 C 0.80496 0.14091 0.83529 0.0
C1959 C 0.81688 0.17197 0.84078 0.0
H1960 H 0.80535 0.1099 0.81447 0.0
C1961 C 0.8374 0.19601 0.82869 0.0
H1962 H 0.78924 0.12201 0.84444 0.0
C1963 C 0.84609 0.18911 0.81146 0.0
C1964 C 0.83502 0.15807 0.80624 0.0
H1965 H 0.84682 0.22014 0.83263 0.0
H1966 H 0.86222 0.20802 0.80244 0.0
C1967 C 0.81426 0.13402 0.81825 0.0
C1968 C 0.35094 0.18959 0.52479 0.0
C1969 C 0.32994 0.15842 0.51997 0.0
H1970 H 0.38332 0.22109 0.54528 0.0
C1971 C 0.32508 0.1347 0.53249 0.0
H1972 H 0.35511 0.20821 0.51528 0.0
C1973 C 0.34071 0.14207 0.5497 0.0
C1974 C 0.36201 0.17321 0.55443 0.0
H1975 H 0.3089 0.11052 0.52904 0.0
H1976 H 0.33646 0.12345 0.55925 0.0
C1977 C 0.36714 0.19691 0.54183 0.0
C1978 C 0.83871 0.13997 0.53043 0.0
C1979 C 0.85934 0.16446 0.51849 0.0
H1980 H 0.81237 0.12675 0.55617 0.0
C1981 C 0.86936 0.19525 0.52414 0.0
H1982 H 0.82978 0.11592 0.52655 0.0
C1983 C 0.85849 0.20126 0.5409 0.0
C1984 C 0.83793 0.17674 0.55266 0.0
H1985 H 0.88577 0.21486 0.51569 0.0
H1986 H 0.8664 0.22516 0.54477 0.0
C1987 C 0.82845 0.14608 0.54739 0.0
C1988 C 0.82972 0.67097 0.5169 0.0
C1989 C 0.85517 0.70181 0.51562 0.0
H1990 H 0.80181 0.63141 0.5341 0.0
C1991 C 0.87266 0.71602 0.53196 0.0
H1992 H 0.8159 0.65881 0.50471 0.0
C1993 C 0.86505 0.69972 0.54897 0.0
C1994 C 0.83967 0.66878 0.55012 0.0
H1995 H 0.89219 0.73983 0.53168 0.0
H1996 H 0.87946 0.71121 0.56112 0.0
C1997 C 0.82193 0.6549 0.53384 0.0
loop_
_geom_bond_atom_site_label_1
_geom_bond_atom_site_label_2
_geom_bond_distance
_geom_bond_site_symmetry_2
_ccdc_geom_bond_type
C0 C1 1.386 . S
C0 C2 1.397 . S
C0 H24 0.931 . S
C1 C0 1.386 . S
C1 C5 1.397 . S
C2 C0 1.397 . S
C2 C3 1.384 . S
C2 H25 0.930 . S
C3 C2 1.384 . S
C3 C4 1.377 . S
C3 C6 1.481 . S
C4 C3 1.377 . S
C4 C5 1.389 . S
C4 H26 0.929 . S
C5 C1 1.397 . S
C5 C4 1.389 . S
C5 H27 0.931 . S
C6 C3 1.481 . S
C6 C7 1.387 . S
C6 C11 1.390 . S
C7 C6 1.387 . S
C7 C8 1.401 . S
C7 H28 0.930 . S
C8 C7 1.401 . S
C8 C9 1.376 . S
C8 C17 1.511 . S
C9 C8 1.376 . S
C9 C10 1.392 . S
C9 H30 0.931 . S
C10 C9 1.392 . S
C10 C11 1.361 . S
C10 C12 1.500 . S
C11 C6 1.390 . S
C11 C10 1.361 . S
C11 H29 0.931 . S
C12 C10 1.500 . S
C12 C13 1.371 . S
C12 C14 1.365 . S
C13 C12 1.371 . S
C13 C23 1.386 . S
C13 H31 0.931 . S
C14 C12 1.365 . S
C14 C15 1.409 . S
C14 H32 0.929 . S
C15 C14 1.409 . S
C15 C16 1.380 . S
C15 H33 0.930 . S
C16 C15 1.380 . S
C16 C23 1.357 . S
C17 C8 1.511 . S
C17 C18 1.341 . S
C17 C19 1.371 . S
C18 C17 1.341 . S
C18 C22 1.394 . S
C18 H34 0.930 . S
C19 C17 1.371 . S
C19 C20 1.392 . S
C19 H35 0.931 . S
C20 C19 1.392 . S
C20 C21 1.331 . S
C20 H38 0.932 . S
C21 C20 1.331 . S
C21 C22 1.336 . S
C22 C18 1.394 . S
C22 C21 1.336 . S
C22 H37 0.929 . S
C23 C13 1.386 . S
C23 C16 1.357 . S
C23 H36 0.928 . S
H24 C0 0.931 . S
H25 C2 0.930 . S
H26 C4 0.929 . S
H27 C5 0.931 . S
H28 C7 0.930 . S
H29 C11 0.931 . S
H30 C9 0.931 . S
H31 C13 0.931 . S
H32 C14 0.929 . S
H33 C15 0.930 . S
H34 C18 0.930 . S
H35 C19 0.931 . S
H36 C23 0.928 . S
H37 C22 0.929 . S
H38 C20 0.932 . S
C39 C40 1.386 . S
C39 C41 1.397 . S
C39 H63 0.931 . S
C40 C39 1.386 . S
C40 C44 1.397 . S
C41 C39 1.397 . S
C41 C42 1.384 . S
C41 H64 0.930 . S
C42 C41 1.384 . S
C42 C43 1.377 . S
C42 C45 1.481 . S
C43 C42 1.377 . S
C43 C44 1.389 . S
C43 H65 0.929 . S
C44 C40 1.397 . S
C44 C43 1.389 . S
C44 H66 0.931 . S
C45 C42 1.481 . S
C45 C46 1.387 . S
C45 C50 1.390 . S
C46 C45 1.387 . S
C46 C47 1.401 . S
C46 H67 0.930 . S
C47 C46 1.401 . S
C47 C48 1.376 . S
C47 C56 1.511 . S
C48 C47 1.376 . S
C48 C49 1.392 . S
C48 H69 0.931 . S
C49 C48 1.392 . S
C49 C50 1.361 . S
C49 C51 1.500 . S
C50 C45 1.390 . S
C50 C49 1.361 . S
C50 H68 0.931 . S
C51 C49 1.500 . S
C51 C52 1.371 . S
C51 C53 1.365 . S
C52 C51 1.371 . S
C52 C62 1.386 . S
C52 H70 0.931 . S
C53 C51 1.365 . S
C53 C54 1.409 . S
C53 H71 0.929 . S
C54 C53 1.409 . S
C54 C55 1.380 . S
C54 H72 0.930 1_545 S
C55 C54 1.380 . S
C55 C62 1.357 . S
C56 C47 1.511 . S
C56 C57 1.341 . S
C56 C58 1.371 . S
C57 C56 1.341 . S
C57 C61 1.394 . S
C57 H73 0.930 . S
C58 C56 1.371 . S
C58 C59 1.392 . S
C58 H74 0.931 . S
C59 C58 1.392 . S
C59 C60 1.331 . S
C59 H77 0.932 . S
C60 C59 1.331 . S
C60 C61 1.336 . S
C61 C57 1.394 . S
C61 C60 1.336 . S
C61 H76 0.929 . S
C62 C52 1.386 . S
C62 C55 1.357 . S
C62 H75 0.928 . S
H63 C39 0.931 . S
H64 C41 0.930 . S
H65 C43 0.929 . S
H66 C44 0.931 . S
H67 C46 0.930 . S
H68 C50 0.931 . S
H69 C48 0.931 . S
H70 C52 0.931 . S
H71 C53 0.929 . S
H72 C54 0.930 1_565 S
H73 C57 0.930 . S
H74 C58 0.931 . S
H75 C62 0.928 . S
H76 C61 0.929 . S
H77 C59 0.932 . S
C78 C79 1.386 . S
C78 C80 1.397 . S
C78 H102 0.931 . S
C79 C78 1.386 . S
C79 C83 1.397 . S
C80 C78 1.397 . S
C80 C81 1.384 . S
C80 H103 0.930 . S
C81 C80 1.384 . S
C81 C82 1.377 . S
C81 C84 1.481 . S
C82 C81 1.377 . S
C82 C83 1.389 . S
C82 H104 0.929 . S
C83 C79 1.397 . S
C83 C82 1.389 . S
C83 H105 0.931 . S
C84 C81 1.481 . S
C84 C85 1.387 . S
C84 C89 1.390 . S
C85 C84 1.387 . S
C85 C86 1.401 . S
C85 H106 0.930 . S
C86 C85 1.401 . S
C86 C87 1.376 . S
C86 C95 1.511 . S
C87 C86 1.376 . S
C87 C88 1.392 . S
C87 H108 0.931 . S
C88 C87 1.392 . S
C88 C89 1.361 . S
C88 C90 1.500 . S
C89 C84 1.390 . S
C89 C88 1.361 . S
C89 H107 0.931 . S
C90 C88 1.500 . S
C90 C91 1.371 . S
C90 C92 1.365 . S
C91 C90 1.371 . S
C91 C101 1.386 . S
C91 H109 0.931 . S
C92 C90 1.365 . S
C92 C93 1.409 . S
C92 H110 0.929 . S
C93 C92 1.409 . S
C93 C94 1.380 . S
C93 H111 0.930 . S
C94 C93 1.380 . S
C94 C101 1.357 . S
C95 C86 1.511 . S
C95 C96 1.341 . S
C95 C97 1.371 . S
C96 C95 1.341 . S
C96 C100 1.394 . S
C96 H112 0.930 . S
C97 C95 1.371 . S
C97 C98 1.392 . S
C97 H113 0.931 . S
C98 C97 1.392 . S
C98 C99 1.331 . S
C98 H116 0.932 . S
C99 C98 1.331 . S
C99 C100 1.336 . S
C100 C96 1.394 . S
C100 C99 1.336 . S
C100 H115 0.929 1_655 S
C101 C91 1.386 . S
C101 C94 1.357 . S
C101 H114 0.928 . S
H102 C78 0.931 . S
H103 C80 0.930 . S
H104 C82 0.929 . S
H105 C83 0.931 . S
H106 C85 0.930 . S
H107 C89 0.931 . S
H108 C87 0.931 . S
H109 C91 0.931 . S
H110 C92 0.929 . S
H111 C93 0.930 . S
H112 C96 0.930 . S
H113 C97 0.931 . S
H114 C101 0.928 . S
H115 C100 0.929 1_455 S
H116 C98 0.932 . S
C117 C118 1.386 . S
C117 C119 1.397 . S
C117 H141 0.931 . S
C118 C117 1.386 . S
C118 C122 1.397 . S
C119 C117 1.397 . S
C119 C120 1.384 . S
C119 H142 0.930 . S
C120 C119 1.384 . S
C120 C121 1.377 . S
C120 C123 1.481 . S
C121 C120 1.377 . S
C121 C122 1.389 . S
C121 H143 0.929 . S
C122 C118 1.397 . S
C122 C121 1.389 . S
C122 H144 0.931 . S
C123 C120 1.481 . S
C123 C124 1.387 . S
C123 C128 1.390 . S
C124 C123 1.387 . S
C124 C125 1.401 . S
C124 H145 0.930 . S
C125 C124 1.401 . S
C125 C126 1.376 . S
C125 C134 1.511 . S
C126 C125 1.376 . S
C126 C127 1.392 . S
C126 H147 0.931 . S
C127 C126 1.392 . S
C127 C128 1.361 . S
C127 C129 1.500 . S
C128 C123 1.390 . S
C128 C127 1.361 . S
C128 H146 0.931 . S
C129 C127 1.500 . S
C129 C130 1.371 . S
C129 C131 1.365 . S
C130 C129 1.371 . S
C130 C140 1.386 . S
C130 H148 0.931 . S
C131 C129 1.365 . S
C131 C132 1.409 . S
C131 H149 0.929 . S
C132 C131 1.409 . S
C132 C133 1.380 . S
C132 H150 0.930 . S
C133 C132 1.380 . S
C133 C140 1.357 . S
C134 C125 1.511 . S
C134 C135 1.341 . S
C134 C136 1.371 . S
C135 C134 1.341 . S
C135 C139 1.394 . S
C135 H151 0.930 . S
C136 C134 1.371 . S
C136 C137 1.392 . S
C136 H152 0.931 . S
C137 C136 1.392 . S
C137 C138 1.331 . S
C137 H155 0.932 . S
C138 C137 1.331 . S
C138 C139 1.336 . S
C139 C135 1.394 . S
C139 C138 1.336 . S
C139 H154 0.929 . S
C140 C130 1.386 . S
C140 C133 1.357 . S
C140 H153 0.928 . S
H141 C117 0.931 . S
H142 C119 0.930 . S
H143 C121 0.929 . S
H144 C122 0.931 . S
H145 C124 0.930 . S
H146 C128 0.931 . S
H147 C126 0.931 . S
H148 C130 0.931 . S
H149 C131 0.929 . S
H150 C132 0.930 . S
H151 C135 0.930 . S
H152 C136 0.931 . S
H153 C140 0.928 . S
H154 C139 0.929 . S
H155 C137 0.932 . S
C156 C157 1.386 . S
C156 C158 1.397 . S
C156 H180 0.931 . S
C157 C156 1.386 . S
C157 C161 1.397 . S
C158 C156 1.397 . S
C158 C159 1.384 . S
C158 H181 0.930 . S
C159 C158 1.384 . S
C159 C160 1.377 . S
C159 C162 1.481 . S
C160 C159 1.377 . S
C160 C161 1.389 . S
C160 H182 0.929 . S
C161 C157 1.397 . S
C161 C160 1.389 . S
C161 H183 0.931 . S
C162 C159 1.481 . S
C162 C163 1.387 . S
C162 C167 1.390 . S
C163 C162 1.387 . S
C163 C164 1.401 . S
C163 H184 0.930 . S
C164 C163 1.401 . S
C164 C165 1.376 . S
C164 C173 1.511 . S
C165 C164 1.376 . S
C165 C166 1.392 . S
C165 H186 0.931 . S
C166 C165 1.392 . S
C166 C167 1.361 . S
C166 C168 1.500 . S
C167 C162 1.390 . S
C167 C166 1.361 . S
C167 H185 0.931 . S
C168 C166 1.500 . S
C168 C169 1.371 . S
C168 C170 1.365 . S
C169 C168 1.371 . S
C169 C179 1.386 . S
C169 H187 0.931 . S
C170 C168 1.365 . S
C170 C171 1.409 . S
C170 H188 0.929 . S
C171 C170 1.409 . S
C171 C172 1.380 . S
C171 H189 0.930 1_565 S
C172 C171 1.380 . S
C172 C179 1.357 . S
C173 C164 1.511 . S
C173 C174 1.341 . S
C173 C175 1.371 . S
C174 C173 1.341 . S
C174 C178 1.394 . S
C174 H190 0.930 . S
C175 C173 1.371 . S
C175 C176 1.392 . S
C175 H191 0.931 . S
C176 C175 1.392 . S
C176 C177 1.331 . S
C176 H194 0.932 . S
C177 C176 1.331 . S
C177 C178 1.336 . S
C178 C174 1.394 . S
C178 C177 1.336 . S
C178 H193 0.929 . S
C179 C169 1.386 . S
C179 C172 1.357 . S
C179 H192 0.928 . S
H180 C156 0.931 . S
H181 C158 0.930 . S
H182 C160 0.929 . S
H183 C161 0.931 . S
H184 C163 0.930 . S
H185 C167 0.931 . S
H186 C165 0.931 . S
H187 C169 0.931 . S
H188 C170 0.929 . S
H189 C171 0.930 1_545 S
H190 C174 0.930 . S
H191 C175 0.931 . S
H192 C179 0.928 . S
H193 C178 0.929 . S
H194 C176 0.932 . S
C195 C196 1.386 . S
C195 C197 1.397 . S
C195 H219 0.931 . S
C196 C195 1.386 . S
C196 C200 1.397 . S
C197 C195 1.397 . S
C197 C198 1.384 . S
C197 H220 0.930 . S
C198 C197 1.384 . S
C198 C199 1.377 . S
C198 C201 1.481 . S
C199 C198 1.377 . S
C199 C200 1.389 . S
C199 H221 0.929 . S
C200 C196 1.397 . S
C200 C199 1.389 . S
C200 H222 0.931 . S
C201 C198 1.481 . S
C201 C202 1.387 . S
C201 C206 1.390 . S
C202 C201 1.387 . S
C202 C203 1.401 . S
C202 H223 0.930 . S
C203 C202 1.401 . S
C203 C204 1.376 . S
C203 C212 1.511 . S
C204 C203 1.376 . S
C204 C205 1.392 . S
C204 H225 0.931 . S
C205 C204 1.392 . S
C205 C206 1.361 . S
C205 C207 1.500 . S
C206 C201 1.390 . S
C206 C205 1.361 . S
C206 H224 0.931 . S
C207 C205 1.500 . S
C207 C208 1.371 . S
C207 C209 1.365 . S
C208 C207 1.371 . S
C208 C218 1.386 . S
C208 H226 0.931 . S
C209 C207 1.365 . S
C209 C210 1.409 . S
C209 H227 0.929 . S
C210 C209 1.409 . S
C210 C211 1.380 . S
C210 H228 0.930 . S
C211 C210 1.380 . S
C211 C218 1.357 . S
C212 C203 1.511 . S
C212 C213 1.341 . S
C212 C214 1.371 . S
C213 C212 1.341 . S
C213 C217 1.394 . S
C213 H229 0.930 . S
C214 C212 1.371 . S
C214 C215 1.392 . S
C214 H230 0.931 . S
C215 C214 1.392 . S
C215 C216 1.331 . S
C215 H233 0.932 . S
C216 C215 1.331 . S
C216 C217 1.336 . S
C217 C213 1.394 . S
C217 C216 1.336 . S
C217 H232 0.929 1_455 S
C218 C208 1.386 . S
C218 C211 1.357 . S
C218 H231 0.928 . S
H219 C195 0.931 . S
H220 C197 0.930 . S
H221 C199 0.929 . S
H222 C200 0.931 . S
H223 C202 0.930 . S
H224 C206 0.931 . S
H225 C204 0.931 . S
H226 C208 0.931 . S
H227 C209 0.929 . S
H228 C210 0.930 . S
H229 C213 0.930 . S
H230 C214 0.931 . S
H231 C218 0.928 . S
H232 C217 0.929 1_655 S
H233 C215 0.932 . S
C234 C235 1.386 . S
C234 C236 1.397 . S
C234 H258 0.931 . S
C235 C234 1.386 . S
C235 C239 1.397 . S
C236 C234 1.397 . S
C236 C237 1.384 . S
C236 H259 0.930 . S
C237 C236 1.384 . S
C237 C238 1.377 . S
C237 C240 1.481 . S
C238 C237 1.377 . S
C238 C239 1.389 . S
C238 H260 0.929 . S
C239 C235 1.397 . S
C239 C238 1.389 . S
C239 H261 0.931 . S
C240 C237 1.481 . S
C240 C241 1.387 . S
C240 C245 1.390 . S
C241 C240 1.387 . S
C241 C242 1.401 . S
C241 H262 0.930 . S
C242 C241 1.401 . S
C242 C243 1.376 . S
C242 C251 1.511 . S
C243 C242 1.376 . S
C243 C244 1.392 . S
C243 H264 0.931 . S
C244 C243 1.392 . S
C244 C245 1.361 . S
C244 C246 1.500 . S
C245 C240 1.390 . S
C245 C244 1.361 . S
C245 H263 0.931 . S
C246 C244 1.500 . S
C246 C247 1.371 . S
C246 C248 1.365 . S
C247 C246 1.371 . S
C247 C257 1.386 . S
C247 H265 0.931 . S
C248 C246 1.365 . S
C248 C249 1.409 . S
C248 H266 0.929 . S
C249 C248 1.409 . S
C249 C250 1.380 . S
C249 H267 0.930 . S
C250 C249 1.380 . S
C250 C257 1.357 . S
C251 C242 1.511 . S
C251 C252 1.341 . S
C251 C253 1.371 . S
C252 C251 1.341 . S
C252 C256 1.394 . S
C252 H268 0.930 . S
C253 C251 1.371 . S
C253 C254 1.392 . S
C253 H269 0.931 . S
C254 C253 1.392 . S
C254 C255 1.331 . S
C254 H272 0.932 . S
C255 C254 1.331 . S
C255 C256 1.336 . S
C256 C252 1.394 . S
C256 C255 1.336 . S
C256 H271 0.929 . S
C257 C247 1.386 . S
C257 C250 1.357 . S
C257 H270 0.928 . S
H258 C234 0.931 . S
H259 C236 0.930 . S
H260 C238 0.929 . S
H261 C239 0.931 . S
H262 C241 0.930 . S
H263 C245 0.931 . S
H264 C243 0.931 . S
H265 C247 0.931 . S
H266 C248 0.929 . S
H267 C249 0.930 . S
H268 C252 0.930 . S
H269 C253 0.931 . S
H270 C257 0.928 . S
H271 C256 0.929 . S
H272 C254 0.932 . S
C273 C274 1.386 . S
C273 C275 1.397 . S
C273 H297 0.931 . S
C274 C273 1.386 . S
C274 C278 1.397 . S
C275 C273 1.397 . S
C275 C276 1.384 . S
C275 H298 0.930 . S
C276 C275 1.384 . S
C276 C277 1.377 . S
C276 C279 1.481 . S
C277 C276 1.377 . S
C277 C278 1.389 . S
C277 H299 0.929 . S
C278 C274 1.397 . S
C278 C277 1.389 . S
C278 H300 0.931 . S
C279 C276 1.481 . S
C279 C280 1.387 . S
C279 C284 1.390 . S
C280 C279 1.387 . S
C280 C281 1.401 . S
C280 H301 0.930 . S
C281 C280 1.401 . S
C281 C282 1.376 . S
C281 C290 1.511 . S
C282 C281 1.376 . S
C282 C283 1.392 . S
C282 H303 0.931 . S
C283 C282 1.392 . S
C283 C284 1.361 . S
C283 C285 1.500 . S
C284 C279 1.390 . S
C284 C283 1.361 . S
C284 H302 0.931 . S
C285 C283 1.500 . S
C285 C286 1.371 . S
C285 C287 1.365 . S
C286 C285 1.371 . S
C286 C296 1.386 . S
C286 H304 0.931 . S
C287 C285 1.365 . S
C287 C288 1.409 . S
C287 H305 0.929 . S
C288 C287 1.409 . S
C288 C289 1.380 . S
C288 H306 0.930 . S
C289 C288 1.380 . S
C289 C296 1.357 . S
C290 C281 1.511 . S
C290 C291 1.341 . S
C290 C292 1.371 . S
C291 C290 1.341 . S
C291 C295 1.394 . S
C291 H307 0.930 . S
C292 C290 1.371 . S
C292 C293 1.392 . S
C292 H308 0.931 . S
C293 C292 1.392 . S
C293 C294 1.331 . S
C293 H311 0.932 . S
C294 C293 1.331 . S
C294 C295 1.336 . S
C295 C291 1.394 . S
C295 C294 1.336 . S
C295 H310 0.929 . S
C296 C286 1.386 . S
C296 C289 1.357 . S
C296 H309 0.928 . S
H297 C273 0.931 . S
H298 C275 0.930 . S
H299 C277 0.929 . S
H300 C278 0.931 . S
H301 C280 0.930 . S
H302 C284 0.931 . S
H303 C282 0.931 . S
H304 C286 0.931 . S
H305 C287 0.929 . S
H306 C288 0.930 . S
H307 C291 0.930 . S
H308 C292 0.931 . S
H309 C296 0.928 . S
H310 C295 0.929 . S
H311 C293 0.932 . S
C312 C313 1.386 . S
C312 C314 1.397 . S
C312 H336 0.931 . S
C313 C312 1.386 . S
C313 C317 1.397 . S
C314 C312 1.397 . S
C314 C315 1.384 . S
C314 H337 0.930 . S
C315 C314 1.384 . S
C315 C316 1.377 . S
C315 C318 1.481 . S
C316 C315 1.377 . S
C316 C317 1.389 . S
C316 H338 0.929 . S
C317 C313 1.397 . S
C317 C316 1.389 . S
C317 H339 0.931 . S
C318 C315 1.481 . S
C318 C319 1.387 . S
C318 C323 1.390 . S
C319 C318 1.387 . S
C319 C320 1.401 . S
C319 H340 0.930 . S
C320 C319 1.401 . S
C320 C321 1.376 . S
C320 C329 1.511 . S
C321 C320 1.376 . S
C321 C322 1.392 . S
C321 H342 0.931 . S
C322 C321 1.392 . S
C322 C323 1.361 . S
C322 C324 1.500 . S
C323 C318 1.390 . S
C323 C322 1.361 . S
C323 H341 0.931 . S
C324 C322 1.500 . S
C324 C325 1.371 . S
C324 C326 1.365 . S
C325 C324 1.371 . S
C325 C335 1.386 . S
C325 H343 0.931 . S
C326 C324 1.365 . S
C326 C327 1.409 . S
C326 H344 0.929 . S
C327 C326 1.409 . S
C327 C328 1.380 . S
C327 H345 0.930 . S
C328 C327 1.380 . S
C328 C335 1.357 . S
C329 C320 1.511 . S
C329 C330 1.341 . S
C329 C331 1.371 . S
C330 C329 1.341 . S
C330 C334 1.394 . S
C330 H346 0.930 . S
C331 C329 1.371 . S
C331 C332 1.392 . S
C331 H347 0.931 . S
C332 C331 1.392 . S
C332 C333 1.331 . S
C332 H350 0.932 . S
C333 C332 1.331 . S
C333 C334 1.336 . S
C334 C330 1.394 . S
C334 C333 1.336 . S
C334 H349 0.929 . S
C335 C325 1.386 . S
C335 C328 1.357 . S
C335 H348 0.928 . S
H336 C312 0.931 . S
H337 C314 0.930 . S
H338 C316 0.929 . S
H339 C317 0.931 . S
H340 C319 0.930 . S
H341 C323 0.931 . S
H342 C321 0.931 . S
H343 C325 0.931 . S
H344 C326 0.929 . S
H345 C327 0.930 . S
H346 C330 0.930 . S
H347 C331 0.931 . S
H348 C335 0.928 . S
H349 C334 0.929 . S
H350 C332 0.932 . S
C351 C352 1.386 . S
C351 C353 1.397 . S
C351 H375 0.931 . S
C352 C351 1.386 . S
C352 C356 1.397 . S
C353 C351 1.397 . S
C353 C354 1.384 . S
C353 H376 0.930 . S
C354 C353 1.384 . S
C354 C355 1.377 . S
C354 C357 1.481 . S
C355 C354 1.377 . S
C355 C356 1.389 . S
C355 H377 0.929 . S
C356 C352 1.397 . S
C356 C355 1.389 . S
C356 H378 0.931 . S
C357 C354 1.481 . S
C357 C358 1.387 . S
C357 C362 1.390 . S
C358 C357 1.387 . S
C358 C359 1.401 . S
C358 H379 0.930 . S
C359 C358 1.401 . S
C359 C360 1.376 . S
C359 C368 1.511 . S
C360 C359 1.376 . S
C360 C361 1.392 . S
C360 H381 0.931 . S
C361 C360 1.392 . S
C361 C362 1.361 . S
C361 C363 1.500 . S
C362 C357 1.390 . S
C362 C361 1.361 . S
C362 H380 0.931 . S
C363 C361 1.500 . S
C363 C364 1.371 . S
C363 C365 1.365 . S
C364 C363 1.371 . S
C364 C374 1.386 . S
C364 H382 0.931 . S
C365 C363 1.365 . S
C365 C366 1.409 . S
C365 H383 0.929 . S
C366 C365 1.409 . S
C366 C367 1.380 . S
C366 H384 0.930 . S
C367 C366 1.380 . S
C367 C374 1.357 . S
C368 C359 1.511 . S
C368 C369 1.341 . S
C368 C370 1.371 . S
C369 C368 1.341 . S
C369 C373 1.394 . S
C369 H385 0.930 . S
C370 C368 1.371 . S
C370 C371 1.392 . S
C370 H386 0.931 . S
C371 C370 1.392 . S
C371 C372 1.331 . S
C371 H389 0.932 . S
C372 C371 1.331 . S
C372 C373 1.336 . S
C373 C369 1.394 . S
C373 C372 1.336 . S
C373 H388 0.929 . S
C374 C364 1.386 . S
C374 C367 1.357 . S
C374 H387 0.928 . S
H375 C351 0.931 . S
H376 C353 0.930 . S
H377 C355 0.929 . S
H378 C356 0.931 . S
H379 C358 0.930 . S
H380 C362 0.931 . S
H381 C360 0.931 . S
H382 C364 0.931 . S
H383 C365 0.929 . S
H384 C366 0.930 . S
H385 C369 0.930 . S
H386 C370 0.931 . S
H387 C374 0.928 . S
H388 C373 0.929 . S
H389 C371 0.932 . S
C390 C391 1.386 . S
C390 C392 1.397 . S
C390 H414 0.931 . S
C391 C390 1.386 . S
C391 C395 1.397 . S
C392 C390 1.397 . S
C392 C393 1.384 . S
C392 H415 0.930 . S
C393 C392 1.384 . S
C393 C394 1.377 . S
C393 C396 1.481 . S
C394 C393 1.377 . S
C394 C395 1.389 . S
C394 H416 0.929 . S
C395 C391 1.397 . S
C395 C394 1.389 . S
C395 H417 0.931 . S
C396 C393 1.481 . S
C396 C397 1.387 . S
C396 C401 1.390 . S
C397 C396 1.387 . S
C397 C398 1.401 . S
C397 H418 0.930 . S
C398 C397 1.401 . S
C398 C399 1.376 . S
C398 C407 1.511 . S
C399 C398 1.376 . S
C399 C400 1.392 . S
C399 H420 0.931 . S
C400 C399 1.392 . S
C400 C401 1.361 . S
C400 C402 1.500 . S
C401 C396 1.390 . S
C401 C400 1.361 . S
C401 H419 0.931 . S
C402 C400 1.500 . S
C402 C403 1.371 . S
C402 C404 1.365 . S
C403 C402 1.371 . S
C403 C413 1.386 . S
C403 H421 0.931 . S
C404 C402 1.365 . S
C404 C405 1.409 . S
C404 H422 0.929 . S
C405 C404 1.409 . S
C405 C406 1.380 . S
C405 H423 0.930 . S
C406 C405 1.380 . S
C406 C413 1.357 . S
C407 C398 1.511 . S
C407 C408 1.341 . S
C407 C409 1.371 . S
C408 C407 1.341 . S
C408 C412 1.394 . S
C408 H424 0.930 . S
C409 C407 1.371 . S
C409 C410 1.392 . S
C409 H425 0.931 . S
C410 C409 1.392 . S
C410 C411 1.331 . S
C410 H428 0.932 . S
C411 C410 1.331 . S
C411 C412 1.336 . S
C412 C408 1.394 . S
C412 C411 1.336 . S
C412 H427 0.929 . S
C413 C403 1.386 . S
C413 C406 1.357 . S
C413 H426 0.928 . S
H414 C390 0.931 . S
H415 C392 0.930 . S
H416 C394 0.929 . S
H417 C395 0.931 . S
H418 C397 0.930 . S
H419 C401 0.931 . S
H420 C399 0.931 . S
H421 C403 0.931 . S
H422 C404 0.929 . S
H423 C405 0.930 . S
H424 C408 0.930 . S
H425 C409 0.931 . S
H426 C413 0.928 . S
H427 C412 0.929 . S
H428 C410 0.932 . S
C429 C430 1.386 . S
C429 C431 1.397 . S
C429 H453 0.931 . S
C430 C429 1.386 . S
C430 C434 1.397 . S
C431 C429 1.397 . S
C431 C432 1.384 . S
C431 H454 0.930 . S
C432 C431 1.384 . S
C432 C433 1.377 . S
C432 C435 1.481 . S
C433 C432 1.377 . S
C433 C434 1.389 . S
C433 H455 0.929 . S
C434 C430 1.397 . S
C434 C433 1.389 . S
C434 H456 0.931 . S
C435 C432 1.481 . S
C435 C436 1.387 . S
C435 C440 1.390 . S
C436 C435 1.387 . S
C436 C437 1.401 . S
C436 H457 0.930 . S
C437 C436 1.401 . S
C437 C438 1.376 . S
C437 C446 1.511 . S
C438 C437 1.376 . S
C438 C439 1.392 . S
C438 H459 0.931 . S
C439 C438 1.392 . S
C439 C440 1.361 . S
C439 C441 1.500 . S
C440 C435 1.390 . S
C440 C439 1.361 . S
C440 H458 0.931 . S
C441 C439 1.500 . S
C441 C442 1.371 . S
C441 C443 1.365 . S
C442 C441 1.371 . S
C442 C452 1.386 . S
C442 H460 0.931 . S
C443 C441 1.365 . S
C443 C444 1.409 . S
C443 H461 0.929 . S
C444 C443 1.409 . S
C444 C445 1.380 . S
C444 H462 0.930 . S
C445 C444 1.380 . S
C445 C452 1.357 . S
C446 C437 1.511 . S
C446 C447 1.341 . S
C446 C448 1.371 . S
C447 C446 1.341 . S
C447 C451 1.394 . S
C447 H463 0.930 . S
C448 C446 1.371 . S
C448 C449 1.392 . S
C448 H464 0.931 . S
C449 C448 1.392 . S
C449 C450 1.331 . S
C449 H467 0.932 . S
C450 C449 1.331 . S
C450 C451 1.336 . S
C451 C447 1.394 . S
C451 C450 1.336 . S
C451 H466 0.929 . S
C452 C442 1.386 . S
C452 C445 1.357 . S
C452 H465 0.928 . S
H453 C429 0.931 . S
H454 C431 0.930 . S
H455 C433 0.929 . S
H456 C434 0.931 . S
H457 C436 0.930 . S
H458 C440 0.931 . S
H459 C438 0.931 . S
H460 C442 0.931 . S
H461 C443 0.929 . S
H462 C444 0.930 . S
H463 C447 0.930 . S
H464 C448 0.931 . S
H465 C452 0.928 . S
H466 C451 0.929 . S
H467 C449 0.932 . S
C468 C469 1.386 . S
C468 C470 1.397 . S
C468 H492 0.931 . S
C469 C468 1.386 . S
C469 C473 1.397 . S
C470 C468 1.397 . S
C470 C471 1.384 . S
C470 H493 0.930 . S
C471 C470 1.384 . S
C471 C472 1.377 . S
C471 C474 1.481 . S
C472 C471 1.377 . S
C472 C473 1.389 . S
C472 H494 0.929 . S
C473 C469 1.397 . S
C473 C472 1.389 . S
C473 H495 0.931 . S
C474 C471 1.481 . S
C474 C475 1.387 . S
C474 C479 1.390 . S
C475 C474 1.387 . S
C475 C476 1.401 . S
C475 H496 0.930 . S
C476 C475 1.401 . S
C476 C477 1.376 . S
C476 C485 1.511 . S
C477 C476 1.376 . S
C477 C478 1.392 . S
C477 H498 0.931 . S
C478 C477 1.392 . S
C478 C479 1.361 . S
C478 C480 1.500 . S
C479 C474 1.390 . S
C479 C478 1.361 . S
C479 H497 0.931 . S
C480 C478 1.500 . S
C480 C481 1.371 . S
C480 C482 1.365 . S
C481 C480 1.371 . S
C481 C491 1.386 . S
C481 H499 0.931 . S
C482 C480 1.365 . S
C482 C483 1.409 . S
C482 H500 0.929 . S
C483 C482 1.409 . S
C483 C484 1.380 . S
C483 H501 0.930 . S
C484 C483 1.380 . S
C484 C491 1.357 . S
C485 C476 1.511 . S
C485 C486 1.341 . S
C485 C487 1.371 . S
C486 C485 1.341 . S
C486 C490 1.394 . S
C486 H502 0.930 . S
C487 C485 1.371 . S
C487 C488 1.392 . S
C487 H503 0.931 . S
C488 C487 1.392 . S
C488 C489 1.331 . S
C488 H506 0.932 . S
C489 C488 1.331 . S
C489 C490 1.336 . S
C490 C486 1.394 . S
C490 C489 1.336 . S
C490 H505 0.929 . S
C491 C481 1.386 . S
C491 C484 1.357 . S
C491 H504 0.928 . S
H492 C468 0.931 . S
H493 C470 0.930 . S
H494 C472 0.929 . S
H495 C473 0.931 . S
H496 C475 0.930 . S
H497 C479 0.931 . S
H498 C477 0.931 . S
H499 C481 0.931 . S
H500 C482 0.929 . S
H501 C483 0.930 . S
H502 C486 0.930 . S
H503 C487 0.931 . S
H504 C491 0.928 . S
H505 C490 0.929 . S
H506 C488 0.932 . S
C507 C508 1.386 . S
C507 C509 1.397 . S
C507 H531 0.931 . S
C508 C507 1.386 . S
C508 C512 1.397 . S
C509 C507 1.397 . S
C509 C510 1.384 . S
C509 H532 0.930 . S
C510 C509 1.384 . S
C510 C511 1.377 . S
C510 C513 1.481 . S
C511 C510 1.377 . S
C511 C512 1.389 . S
C511 H533 0.929 . S
C512 C508 1.397 . S
C512 C511 1.389 . S
C512 H534 0.931 . S
C513 C510 1.481 . S
C513 C514 1.387 . S
C513 C518 1.390 . S
C514 C513 1.387 . S
C514 C515 1.401 . S
C514 H535 0.930 . S
C515 C514 1.401 . S
C515 C516 1.376 . S
C515 C524 1.511 . S
C516 C515 1.376 . S
C516 C517 1.392 . S
C516 H537 0.931 . S
C517 C516 1.392 . S
C517 C518 1.361 . S
C517 C519 1.500 . S
C518 C513 1.390 . S
C518 C517 1.361 . S
C518 H536 0.931 . S
C519 C517 1.500 . S
C519 C520 1.371 . S
C519 C521 1.365 . S
C520 C519 1.371 . S
C520 C530 1.386 . S
C520 H538 0.931 . S
C521 C519 1.365 . S
C521 C522 1.409 . S
C521 H539 0.929 . S
C522 C521 1.409 . S
C522 C523 1.380 . S
C522 H540 0.930 . S
C523 C522 1.380 . S
C523 C530 1.357 . S
C524 C515 1.511 . S
C524 C525 1.341 . S
C524 C526 1.371 . S
C525 C524 1.341 . S
C525 C529 1.394 . S
C525 H541 0.930 . S
C526 C524 1.371 . S
C526 C527 1.392 . S
C526 H542 0.931 . S
C527 C526 1.392 . S
C527 C528 1.331 . S
C527 H545 0.932 . S
C528 C527 1.331 . S
C528 C529 1.336 . S
C529 C525 1.394 . S
C529 C528 1.336 . S
C529 H544 0.929 . S
C530 C520 1.386 . S
C530 C523 1.357 . S
C530 H543 0.928 . S
H531 C507 0.931 . S
H532 C509 0.930 . S
H533 C511 0.929 . S
H534 C512 0.931 . S
H535 C514 0.930 . S
H536 C518 0.931 . S
H537 C516 0.931 . S
H538 C520 0.931 . S
H539 C521 0.929 . S
H540 C522 0.930 . S
H541 C525 0.930 . S
H542 C526 0.931 . S
H543 C530 0.928 . S
H544 C529 0.929 . S
H545 C527 0.932 . S
C546 C547 1.386 . S
C546 C548 1.397 . S
C546 H570 0.931 . S
C547 C546 1.386 . S
C547 C551 1.397 . S
C548 C546 1.397 . S
C548 C549 1.384 . S
C548 H571 0.930 . S
C549 C548 1.384 . S
C549 C550 1.377 . S
C549 C552 1.481 . S
C550 C549 1.377 . S
C550 C551 1.389 . S
C550 H572 0.929 . S
C551 C547 1.397 . S
C551 C550 1.389 . S
C551 H573 0.931 . S
C552 C549 1.481 . S
C552 C553 1.387 . S
C552 C557 1.390 . S
C553 C552 1.387 . S
C553 C554 1.401 . S
C553 H574 0.930 . S
C554 C553 1.401 . S
C554 C555 1.376 . S
C554 C563 1.511 . S
C555 C554 1.376 . S
C555 C556 1.392 . S
C555 H576 0.931 . S
C556 C555 1.392 . S
C556 C557 1.361 . S
C556 C558 1.500 . S
C557 C552 1.390 . S
C557 C556 1.361 . S
C557 H575 0.931 . S
C558 C556 1.500 . S
C558 C559 1.371 . S
C558 C560 1.365 . S
C559 C558 1.371 . S
C559 C569 1.386 . S
C559 H577 0.931 . S
C560 C558 1.365 . S
C560 C561 1.409 . S
C560 H578 0.929 . S
C561 C560 1.409 . S
C561 C562 1.380 . S
C561 H579 0.930 . S
C562 C561 1.380 . S
C562 C569 1.357 . S
C563 C554 1.511 . S
C563 C564 1.341 . S
C563 C565 1.371 . S
C564 C563 1.341 . S
C564 C568 1.394 . S
C564 H580 0.930 . S
C565 C563 1.371 . S
C565 C566 1.392 . S
C565 H581 0.931 . S
C566 C565 1.392 . S
C566 C567 1.331 . S
C566 H584 0.932 . S
C567 C566 1.331 . S
C567 C568 1.336 . S
C568 C564 1.394 . S
C568 C567 1.336 . S
C568 H583 0.929 . S
C569 C559 1.386 . S
C569 C562 1.357 . S
C569 H582 0.928 . S
H570 C546 0.931 . S
H571 C548 0.930 . S
H572 C550 0.929 . S
H573 C551 0.931 . S
H574 C553 0.930 . S
H575 C557 0.931 . S
H576 C555 0.931 . S
H577 C559 0.931 . S
H578 C560 0.929 . S
H579 C561 0.930 . S
H580 C564 0.930 . S
H581 C565 0.931 . S
H582 C569 0.928 . S
H583 C568 0.929 . S
H584 C566 0.932 . S
C585 C586 1.386 . S
C585 C587 1.397 . S
C585 H609 0.931 . S
C586 C585 1.386 . S
C586 C590 1.397 . S
C587 C585 1.397 . S
C587 C588 1.384 . S
C587 H610 0.930 . S
C588 C587 1.384 . S
C588 C589 1.377 . S
C588 C591 1.481 . S
C589 C588 1.377 . S
C589 C590 1.389 . S
C589 H611 0.929 . S
C590 C586 1.397 . S
C590 C589 1.389 . S
C590 H612 0.931 . S
C591 C588 1.481 . S
C591 C592 1.387 . S
C591 C596 1.390 . S
C592 C591 1.387 . S
C592 C593 1.401 . S
C592 H613 0.930 . S
C593 C592 1.401 . S
C593 C594 1.376 . S
C593 C602 1.511 . S
C594 C593 1.376 . S
C594 C595 1.392 . S
C594 H615 0.931 . S
C595 C594 1.392 . S
C595 C596 1.361 . S
C595 C597 1.500 . S
C596 C591 1.390 . S
C596 C595 1.361 . S
C596 H614 0.931 . S
C597 C595 1.500 . S
C597 C598 1.371 . S
C597 C599 1.365 . S
C598 C597 1.371 . S
C598 C608 1.386 . S
C598 H616 0.931 . S
C599 C597 1.365 . S
C599 C600 1.409 . S
C599 H617 0.929 . S
C600 C599 1.409 . S
C600 C601 1.380 . S
C600 H618 0.930 . S
C601 C600 1.380 . S
C601 C608 1.357 . S
C602 C593 1.511 . S
C602 C603 1.341 . S
C602 C604 1.371 . S
C603 C602 1.341 . S
C603 C607 1.394 . S
C603 H619 0.930 . S
C604 C602 1.371 . S
C604 C605 1.392 . S
C604 H620 0.931 . S
C605 C604 1.392 . S
C605 C606 1.331 . S
C605 H623 0.932 . S
C606 C605 1.331 . S
C606 C607 1.336 . S
C607 C603 1.394 . S
C607 C606 1.336 . S
C607 H622 0.929 . S
C608 C598 1.386 . S
C608 C601 1.357 . S
C608 H621 0.928 . S
H609 C585 0.931 . S
H610 C587 0.930 . S
H611 C589 0.929 . S
H612 C590 0.931 . S
H613 C592 0.930 . S
H614 C596 0.931 . S
H615 C594 0.931 . S
H616 C598 0.931 . S
H617 C599 0.929 . S
H618 C600 0.930 . S
H619 C603 0.930 . S
H620 C604 0.931 . S
H621 C608 0.928 . S
H622 C607 0.929 . S
H623 C605 0.932 . S
C624 C625 1.386 . S
C624 C626 1.397 . S
C624 H648 0.931 . S
C625 C624 1.386 . S
C625 C629 1.397 . S
C626 C624 1.397 . S
C626 C627 1.384 . S
C626 H649 0.930 . S
C627 C626 1.384 . S
C627 C628 1.377 . S
C627 C630 1.481 . S
C628 C627 1.377 . S
C628 C629 1.389 . S
C628 H650 0.929 . S
C629 C625 1.397 . S
C629 C628 1.389 . S
C629 H651 0.931 . S
C630 C627 1.481 . S
C630 C631 1.387 . S
C630 C635 1.390 . S
C631 C630 1.387 . S
C631 C632 1.401 . S
C631 H652 0.930 . S
C632 C631 1.401 . S
C632 C633 1.376 . S
C632 C641 1.511 . S
C633 C632 1.376 . S
C633 C634 1.392 . S
C633 H654 0.931 . S
C634 C633 1.392 . S
C634 C635 1.361 . S
C634 C636 1.500 . S
C635 C630 1.390 . S
C635 C634 1.361 . S
C635 H653 0.931 . S
C636 C634 1.500 . S
C636 C637 1.371 . S
C636 C638 1.365 . S
C637 C636 1.371 . S
C637 C647 1.386 . S
C637 H655 0.931 . S
C638 C636 1.365 . S
C638 C639 1.409 . S
C638 H656 0.929 . S
C639 C638 1.409 . S
C639 C640 1.380 . S
C639 H657 0.930 . S
C640 C639 1.380 . S
C640 C647 1.357 . S
C641 C632 1.511 . S
C641 C642 1.341 . S
C641 C643 1.371 . S
C642 C641 1.341 . S
C642 C646 1.394 . S
C642 H658 0.930 . S
C643 C641 1.371 . S
C643 C644 1.392 . S
C643 H659 0.931 . S
C644 C643 1.392 . S
C644 C645 1.331 . S
C644 H662 0.932 . S
C645 C644 1.331 . S
C645 C646 1.336 . S
C646 C642 1.394 . S
C646 C645 1.336 . S
C646 H661 0.929 . S
C647 C637 1.386 . S
C647 C640 1.357 . S
C647 H660 0.928 . S
H648 C624 0.931 . S
H649 C626 0.930 . S
H650 C628 0.929 . S
H651 C629 0.931 . S
H652 C631 0.930 . S
H653 C635 0.931 . S
H654 C633 0.931 . S
H655 C637 0.931 . S
H656 C638 0.929 . S
H657 C639 0.930 . S
H658 C642 0.930 . S
H659 C643 0.931 . S
H660 C647 0.928 . S
H661 C646 0.929 . S
H662 C644 0.932 . S
C663 C664 1.386 . S
C663 C665 1.397 . S
C663 H687 0.931 . S
C664 C663 1.386 . S
C664 C668 1.397 . S
C665 C663 1.397 . S
C665 C666 1.384 . S
C665 H688 0.930 . S
C666 C665 1.384 . S
C666 C667 1.377 . S
C666 C669 1.481 . S
C667 C666 1.377 . S
C667 C668 1.389 . S
C667 H689 0.929 . S
C668 C664 1.397 . S
C668 C667 1.389 . S
C668 H690 0.931 . S
C669 C666 1.481 . S
C669 C670 1.387 . S
C669 C674 1.390 . S
C670 C669 1.387 . S
C670 C671 1.401 . S
C670 H691 0.930 . S
C671 C670 1.401 . S
C671 C672 1.376 . S
C671 C680 1.511 . S
C672 C671 1.376 . S
C672 C673 1.392 . S
C672 H693 0.931 . S
C673 C672 1.392 . S
C673 C674 1.361 . S
C673 C675 1.500 . S
C674 C669 1.390 . S
C674 C673 1.361 . S
C674 H692 0.931 . S
C675 C673 1.500 . S
C675 C676 1.371 . S
C675 C677 1.365 . S
C676 C675 1.371 . S
C676 C686 1.386 . S
C676 H694 0.931 . S
C677 C675 1.365 . S
C677 C678 1.409 . S
C677 H695 0.929 . S
C678 C677 1.409 . S
C678 C679 1.380 . S
C678 H696 0.930 . S
C679 C678 1.380 . S
C679 C686 1.357 . S
C680 C671 1.511 . S
C680 C681 1.341 . S
C680 C682 1.371 . S
C681 C680 1.341 . S
C681 C685 1.394 . S
C681 H697 0.930 . S
C682 C680 1.371 . S
C682 C683 1.392 . S
C682 H698 0.931 . S
C683 C682 1.392 . S
C683 C684 1.331 . S
C683 H701 0.932 . S
C684 C683 1.331 . S
C684 C685 1.336 . S
C685 C681 1.394 . S
C685 C684 1.336 . S
C685 H700 0.929 . S
C686 C676 1.386 . S
C686 C679 1.357 . S
C686 H699 0.928 . S
H687 C663 0.931 . S
H688 C665 0.930 . S
H689 C667 0.929 . S
H690 C668 0.931 . S
H691 C670 0.930 . S
H692 C674 0.931 . S
H693 C672 0.931 . S
H694 C676 0.931 . S
H695 C677 0.929 . S
H696 C678 0.930 . S
H697 C681 0.930 . S
H698 C682 0.931 . S
H699 C686 0.928 . S
H700 C685 0.929 . S
H701 C683 0.932 . S
Gd702 N733 2.661 . S
Gd702 N739 2.601 . S
Gd702 O746 2.545 . S
Gd702 O747 2.606 1_545 S
Gd702 O749 2.429 . S
Gd702 O750 2.545 1_545 S
Gd702 O751 2.412 . S
Gd702 O753 2.362 1_554 S
Gd702 O754 2.324 1_545 S
Gd702 C761 2.828 . S
Gd703 N712 2.661 . S
Gd703 N716 2.601 . S
Gd703 O747 2.362 1_556 S
Gd703 O748 2.324 1_565 S
Gd703 O752 2.545 . S
Gd703 O753 2.606 1_565 S
Gd703 O755 2.429 . S
Gd703 O756 2.545 1_565 S
Gd703 O757 2.412 . S
Gd703 C770 2.828 . S
C704 C707 1.417 . S
C704 C709 1.431 . S
C704 C710 1.412 . S
C705 C708 1.437 . S
C705 C709 1.317 . S
C705 H724 0.929 . S
C706 C707 1.426 . S
C706 C708 1.413 . S
C706 N716 1.359 . S
C707 C704 1.417 . S
C707 C706 1.426 . S
C707 N712 1.350 . S
C708 C705 1.437 . S
C708 C706 1.413 . S
C708 C718 1.391 . S
C709 C704 1.431 . S
C709 C705 1.317 . S
C709 H720 0.930 . S
C710 C704 1.412 . S
C710 C711 1.355 . S
C710 H722 0.930 . S
C711 C710 1.355 . S
C711 C713 1.402 . S
C711 H723 0.930 . S
N712 Gd703 2.661 . S
N712 C707 1.350 . S
N712 C713 1.307 . S
C713 C711 1.402 . S
C713 N712 1.307 . S
C713 H714 0.930 . S
H714 C713 0.930 . S
C715 N716 1.334 . S
C715 C717 1.394 . S
C715 H719 0.930 . S
N716 Gd703 2.601 . S
N716 C706 1.359 . S
N716 C715 1.334 . S
C717 C715 1.394 . S
C717 C718 1.359 . S
C717 H729 0.930 . S
C718 C708 1.391 . S
C718 C717 1.359 . S
C718 H730 0.929 . S
H719 C715 0.930 . S
H720 C709 0.930 . S
H721 C738 0.930 . S
H722 C710 0.930 . S
H723 C711 0.930 . S
H724 C705 0.929 . S
H725 C743 0.930 . S
H726 C734 0.930 . S
H727 C735 0.930 . S
H728 C759 0.929 . S
H729 C717 0.930 . S
H730 C718 0.929 . S
H731 C760 0.930 . S
H732 C741 0.930 . S
N733 Gd702 2.661 . S
N733 C737 1.350 . S
N733 C738 1.307 . S
C734 H726 0.930 . S
C734 C735 1.355 . S
C734 C736 1.412 . S
C735 H727 0.930 . S
C735 C734 1.355 . S
C735 C738 1.402 . S
C736 C734 1.412 . S
C736 C737 1.417 . S
C736 C760 1.431 . S
C737 N733 1.350 . S
C737 C736 1.417 . S
C737 C740 1.426 . S
C738 H721 0.930 . S
C738 N733 1.307 . S
C738 C735 1.402 . S
N739 Gd702 2.601 . S
N739 C740 1.359 . S
N739 C743 1.334 . S
C740 C737 1.426 . S
C740 N739 1.359 . S
C740 C744 1.413 . S
C741 H732 0.930 . S
C741 C742 1.359 . S
C741 C743 1.394 . S
C742 C741 1.359 . S
C742 C744 1.391 . S
C742 H745 0.929 . S
C743 H725 0.930 . S
C743 N739 1.334 . S
C743 C741 1.394 . S
C744 C740 1.413 . S
C744 C742 1.391 . S
C744 C759 1.437 . S
H745 C742 0.929 . S
O746 Gd702 2.545 . S
O746 C761 1.258 . S
O747 Gd702 2.606 1_565 S
O747 Gd703 2.362 1_554 S
O747 C758 1.284 . S
O748 Gd703 2.324 1_545 S
O748 C768 1.254 . S
O749 Gd702 2.429 . S
O749 C768 1.268 1_554 S
O750 Gd702 2.545 1_565 S
O750 C758 1.250 . S
O751 Gd702 2.412 . S
O751 C761 1.252 . S
O752 Gd703 2.545 . S
O752 C770 1.258 . S
O753 Gd702 2.362 1_556 S
O753 Gd703 2.606 1_545 S
O753 C769 1.284 . S
O754 Gd702 2.324 1_565 S
O754 C777 1.254 . S
O755 Gd703 2.429 . S
O755 C777 1.268 1_556 S
O756 Gd703 2.545 1_545 S
O756 C769 1.250 . S
O757 Gd703 2.412 . S
O757 C770 1.252 . S
C758 O747 1.284 . S
C758 O750 1.250 . S
C759 H728 0.929 . S
C759 C744 1.437 . S
C759 C760 1.317 . S
C760 H731 0.930 . S
C760 C736 1.431 . S
C760 C759 1.317 . S
C761 Gd702 2.828 . S
C761 O746 1.258 . S
C761 O751 1.252 . S
C761 C762 1.497 . S
C762 C761 1.497 . S
C762 C763 1.395 . S
C762 C764 1.380 1_545 S
C763 C762 1.395 . S
C763 C766 1.398 . S
C763 H778 0.930 . S
C764 C762 1.380 1_565 S
C764 C765 1.391 . S
C764 H779 0.930 . S
C765 C764 1.391 . S
C765 C767 1.387 1_565 S
C766 C763 1.398 . S
C766 C767 1.380 . S
C766 H780 0.930 . S
C767 C765 1.387 1_545 S
C767 C766 1.380 . S
C767 H781 0.930 . S
C768 O748 1.254 . S
C768 O749 1.268 1_556 S
C769 O753 1.284 . S
C769 O756 1.250 . S
C770 Gd703 2.828 . S
C770 O752 1.258 . S
C770 O757 1.252 . S
C770 C771 1.497 . S
C771 C770 1.497 . S
C771 C772 1.395 . S
C771 C773 1.380 1_565 S
C772 C771 1.395 . S
C772 C775 1.398 . S
C772 H782 0.930 . S
C773 C771 1.380 1_545 S
C773 C774 1.391 . S
C773 H783 0.930 . S
C774 C773 1.391 . S
C774 C776 1.387 1_545 S
C775 C772 1.398 . S
C775 C776 1.380 . S
C775 H784 0.930 . S
C776 C774 1.387 1_565 S
C776 C775 1.380 . S
C776 H785 0.930 . S
C777 O754 1.254 . S
C777 O755 1.268 1_554 S
H778 C763 0.930 . S
H779 C764 0.930 . S
H780 C766 0.930 . S
H781 C767 0.930 . S
H782 C772 0.930 . S
H783 C773 0.930 . S
H784 C775 0.930 . S
H785 C776 0.930 . S
Gd786 N817 2.661 . S
Gd786 N823 2.601 . S
Gd786 O830 2.545 . S
Gd786 O831 2.606 1_655 S
Gd786 O833 2.429 . S
Gd786 O834 2.545 1_655 S
Gd786 O835 2.412 . S
Gd786 O837 2.362 1_554 S
Gd786 O838 2.324 1_655 S
Gd786 C845 2.828 . S
Gd787 N796 2.661 . S
Gd787 N800 2.601 . S
Gd787 O831 2.362 1_556 S
Gd787 O832 2.324 1_455 S
Gd787 O836 2.545 . S
Gd787 O837 2.606 1_455 S
Gd787 O839 2.429 . S
Gd787 O840 2.545 1_455 S
Gd787 O841 2.412 . S
Gd787 C854 2.828 . S
C788 C791 1.417 . S
C788 C793 1.431 . S
C788 C794 1.412 . S
C789 C792 1.437 . S
C789 C793 1.317 . S
C789 H808 0.929 . S
C790 C791 1.426 . S
C790 C792 1.413 . S
C790 N800 1.359 . S
C791 C788 1.417 . S
C791 C790 1.426 . S
C791 N796 1.350 . S
C792 C789 1.437 . S
C792 C790 1.413 . S
C792 C802 1.391 . S
C793 C788 1.431 . S
C793 C789 1.317 . S
C793 H804 0.930 . S
C794 C788 1.412 . S
C794 C795 1.355 . S
C794 H806 0.930 . S
C795 C794 1.355 . S
C795 C797 1.402 . S
C795 H807 0.930 . S
N796 Gd787 2.661 . S
N796 C791 1.350 . S
N796 C797 1.307 . S
C797 C795 1.402 . S
C797 N796 1.307 . S
C797 H798 0.930 . S
H798 C797 0.930 . S
C799 N800 1.334 . S
C799 C801 1.394 . S
C799 H803 0.930 . S
N800 Gd787 2.601 . S
N800 C790 1.359 . S
N800 C799 1.334 . S
C801 C799 1.394 . S
C801 C802 1.359 . S
C801 H813 0.930 . S
C802 C792 1.391 . S
C802 C801 1.359 . S
C802 H814 0.929 . S
H803 C799 0.930 . S
H804 C793 0.930 . S
H805 C822 0.930 . S
H806 C794 0.930 . S
H807 C795 0.930 . S
H808 C789 0.929 . S
H809 C827 0.930 . S
H810 C818 0.930 . S
H811 C819 0.930 . S
H812 C843 0.929 . S
H813 C801 0.930 . S
H814 C802 0.929 . S
H815 C844 0.930 . S
H816 C825 0.930 . S
N817 Gd786 2.661 . S
N817 C821 1.350 . S
N817 C822 1.307 . S
C818 H810 0.930 . S
C818 C819 1.355 . S
C818 C820 1.412 . S
C819 H811 0.930 . S
C819 C818 1.355 . S
C819 C822 1.402 . S
C820 C818 1.412 . S
C820 C821 1.417 . S
C820 C844 1.431 . S
C821 N817 1.350 . S
C821 C820 1.417 . S
C821 C824 1.426 . S
C822 H805 0.930 . S
C822 N817 1.307 . S
C822 C819 1.402 . S
N823 Gd786 2.601 . S
N823 C824 1.359 . S
N823 C827 1.334 . S
C824 C821 1.426 . S
C824 N823 1.359 . S
C824 C828 1.413 . S
C825 H816 0.930 . S
C825 C826 1.359 . S
C825 C827 1.394 . S
C826 C825 1.359 . S
C826 C828 1.391 . S
C826 H829 0.929 . S
C827 H809 0.930 . S
C827 N823 1.334 . S
C827 C825 1.394 . S
C828 C824 1.413 . S
C828 C826 1.391 . S
C828 C843 1.437 . S
H829 C826 0.929 . S
O830 Gd786 2.545 . S
O830 C845 1.258 . S
O831 Gd786 2.606 1_455 S
O831 Gd787 2.362 1_554 S
O831 C842 1.284 . S
O832 Gd787 2.324 1_655 S
O832 C852 1.254 . S
O833 Gd786 2.429 . S
O833 C852 1.268 1_554 S
O834 Gd786 2.545 1_455 S
O834 C842 1.250 . S
O835 Gd786 2.412 . S
O835 C845 1.252 . S
O836 Gd787 2.545 . S
O836 C854 1.258 . S
O837 Gd786 2.362 1_556 S
O837 Gd787 2.606 1_655 S
O837 C853 1.284 . S
O838 Gd786 2.324 1_455 S
O838 C861 1.254 . S
O839 Gd787 2.429 . S
O839 C861 1.268 1_556 S
O840 Gd787 2.545 1_655 S
O840 C853 1.250 . S
O841 Gd787 2.412 . S
O841 C854 1.252 . S
C842 O831 1.284 . S
C842 O834 1.250 . S
C843 H812 0.929 . S
C843 C828 1.437 . S
C843 C844 1.317 . S
C844 H815 0.930 . S
C844 C820 1.431 . S
C844 C843 1.317 . S
C845 Gd786 2.828 . S
C845 O830 1.258 . S
C845 O835 1.252 . S
C845 C846 1.497 . S
C846 C845 1.497 . S
C846 C847 1.395 . S
C846 C848 1.380 1_655 S
C847 C846 1.395 . S
C847 C850 1.398 . S
C847 H862 0.930 . S
C848 C846 1.380 1_455 S
C848 C849 1.391 . S
C848 H863 0.930 . S
C849 C848 1.391 . S
C849 C851 1.387 1_455 S
C850 C847 1.398 . S
C850 C851 1.380 . S
C850 H864 0.930 . S
C851 C849 1.387 1_655 S
C851 C850 1.380 . S
C851 H865 0.930 . S
C852 O832 1.254 . S
C852 O833 1.268 1_556 S
C853 O837 1.284 . S
C853 O840 1.250 . S
C854 Gd787 2.828 . S
C854 O836 1.258 . S
C854 O841 1.252 . S
C854 C855 1.497 . S
C855 C854 1.497 . S
C855 C856 1.395 . S
C855 C857 1.380 1_455 S
C856 C855 1.395 . S
C856 C859 1.398 . S
C856 H866 0.930 . S
C857 C855 1.380 1_655 S
C857 C858 1.391 . S
C857 H867 0.930 . S
C858 C857 1.391 . S
C858 C860 1.387 1_655 S
C859 C856 1.398 . S
C859 C860 1.380 . S
C859 H868 0.930 . S
C860 C858 1.387 1_455 S
C860 C859 1.380 . S
C860 H869 0.930 . S
C861 O838 1.254 . S
C861 O839 1.268 1_554 S
H862 C847 0.930 . S
H863 C848 0.930 . S
H864 C850 0.930 . S
H865 C851 0.930 . S
H866 C856 0.930 . S
H867 C857 0.930 . S
H868 C859 0.930 . S
H869 C860 0.930 . S
Gd870 N901 2.661 . S
Gd870 N907 2.601 . S
Gd870 O914 2.545 . S
Gd870 O915 2.606 . S
Gd870 O917 2.429 . S
Gd870 O918 2.545 . S
Gd870 O919 2.412 . S
Gd870 O921 2.362 1_556 S
Gd870 O922 2.324 . S
Gd870 C929 2.828 . S
Gd871 N880 2.661 . S
Gd871 N884 2.601 . S
Gd871 O915 2.362 1_554 S
Gd871 O916 2.324 . S
Gd871 O920 2.545 . S
Gd871 O921 2.606 . S
Gd871 O923 2.429 . S
Gd871 O924 2.545 . S
Gd871 O925 2.412 . S
Gd871 C938 2.828 . S
C872 C875 1.417 . S
C872 C877 1.431 . S
C872 C878 1.412 . S
C873 C876 1.437 . S
C873 C877 1.317 . S
C873 H892 0.929 . S
C874 C875 1.426 . S
C874 C876 1.413 . S
C874 N884 1.359 . S
C875 C872 1.417 . S
C875 C874 1.426 . S
C875 N880 1.350 . S
C876 C873 1.437 . S
C876 C874 1.413 . S
C876 C886 1.391 . S
C877 C872 1.431 . S
C877 C873 1.317 . S
C877 H888 0.930 . S
C878 C872 1.412 . S
C878 C879 1.355 . S
C878 H890 0.930 . S
C879 C878 1.355 . S
C879 C881 1.402 . S
C879 H891 0.930 . S
N880 Gd871 2.661 . S
N880 C875 1.350 . S
N880 C881 1.307 . S
C881 C879 1.402 . S
C881 N880 1.307 . S
C881 H882 0.930 . S
H882 C881 0.930 . S
C883 N884 1.334 . S
C883 C885 1.394 . S
C883 H887 0.930 . S
N884 Gd871 2.601 . S
N884 C874 1.359 . S
N884 C883 1.334 . S
C885 C883 1.394 . S
C885 C886 1.359 . S
C885 H897 0.930 . S
C886 C876 1.391 . S
C886 C885 1.359 . S
C886 H898 0.929 . S
H887 C883 0.930 . S
H888 C877 0.930 . S
H889 C906 0.930 . S
H890 C878 0.930 . S
H891 C879 0.930 . S
H892 C873 0.929 . S
H893 C911 0.930 . S
H894 C902 0.930 . S
H895 C903 0.930 . S
H896 C927 0.929 . S
H897 C885 0.930 . S
H898 C886 0.929 . S
H899 C928 0.930 . S
H900 C909 0.930 . S
N901 Gd870 2.661 . S
N901 C905 1.350 . S
N901 C906 1.307 . S
C902 H894 0.930 . S
C902 C903 1.355 . S
C902 C904 1.412 . S
C903 H895 0.930 . S
C903 C902 1.355 . S
C903 C906 1.402 . S
C904 C902 1.412 . S
C904 C905 1.417 . S
C904 C928 1.431 . S
C905 N901 1.350 . S
C905 C904 1.417 . S
C905 C908 1.426 . S
C906 H889 0.930 . S
C906 N901 1.307 . S
C906 C903 1.402 . S
N907 Gd870 2.601 . S
N907 C908 1.359 . S
N907 C911 1.334 . S
C908 C905 1.426 . S
C908 N907 1.359 . S
C908 C912 1.413 . S
C909 H900 0.930 . S
C909 C910 1.359 . S
C909 C911 1.394 . S
C910 C909 1.359 . S
C910 C912 1.391 . S
C910 H913 0.929 . S
C911 H893 0.930 . S
C911 N907 1.334 . S
C911 C909 1.394 . S
C912 C908 1.413 . S
C912 C910 1.391 . S
C912 C927 1.437 . S
H913 C910 0.929 . S
O914 Gd870 2.545 . S
O914 C929 1.258 . S
O915 Gd870 2.606 . S
O915 Gd871 2.362 1_556 S
O915 C926 1.284 . S
O916 Gd871 2.324 . S
O916 C936 1.254 . S
O917 Gd870 2.429 . S
O917 C936 1.268 1_556 S
O918 Gd870 2.545 . S
O918 C926 1.250 . S
O919 Gd870 2.412 . S
O919 C929 1.252 . S
O920 Gd871 2.545 . S
O920 C938 1.258 . S
O921 Gd870 2.362 1_554 S
O921 Gd871 2.606 . S
O921 C937 1.284 . S
O922 Gd870 2.324 . S
O922 C945 1.254 . S
O923 Gd871 2.429 . S
O923 C945 1.268 1_554 S
O924 Gd871 2.545 . S
O924 C937 1.250 . S
O925 Gd871 2.412 . S
O925 C938 1.252 . S
C926 O915 1.284 . S
C926 O918 1.250 . S
C927 H896 0.929 . S
C927 C912 1.437 . S
C927 C928 1.317 . S
C928 H899 0.930 . S
C928 C904 1.431 . S
C928 C927 1.317 . S
C929 Gd870 2.828 . S
C929 O914 1.258 . S
C929 O919 1.252 . S
C929 C930 1.497 . S
C930 C929 1.497 . S
C930 C931 1.395 . S
C930 C932 1.380 . S
C931 C930 1.395 . S
C931 C934 1.398 . S
C931 H946 0.930 . S
C932 C930 1.380 . S
C932 C933 1.391 . S
C932 H947 0.930 . S
C933 C932 1.391 . S
C933 C935 1.387 . S
C934 C931 1.398 . S
C934 C935 1.380 . S
C934 H948 0.930 . S
C935 C933 1.387 . S
C935 C934 1.380 . S
C935 H949 0.930 . S
C936 O916 1.254 . S
C936 O917 1.268 1_554 S
C937 O921 1.284 . S
C937 O924 1.250 . S
C938 Gd871 2.828 . S
C938 O920 1.258 . S
C938 O925 1.252 . S
C938 C939 1.497 . S
C939 C938 1.497 . S
C939 C940 1.395 . S
C939 C941 1.380 . S
C940 C939 1.395 . S
C940 C943 1.398 . S
C940 H950 0.930 . S
C941 C939 1.380 . S
C941 C942 1.391 . S
C941 H951 0.930 . S
C942 C941 1.391 . S
C942 C944 1.387 . S
C943 C940 1.398 . S
C943 C944 1.380 . S
C943 H952 0.930 . S
C944 C942 1.387 . S
C944 C943 1.380 . S
C944 H953 0.930 . S
C945 O922 1.254 . S
C945 O923 1.268 1_556 S
H946 C931 0.930 . S
H947 C932 0.930 . S
H948 C934 0.930 . S
H949 C935 0.930 . S
H950 C940 0.930 . S
H951 C941 0.930 . S
H952 C943 0.930 . S
H953 C944 0.930 . S
Gd954 N985 2.661 . S
Gd954 N991 2.601 . S
Gd954 O998 2.545 . S
Gd954 O999 2.606 . S
Gd954 O1001 2.429 . S
Gd954 O1002 2.545 . S
Gd954 O1003 2.412 . S
Gd954 O1005 2.362 . S
Gd954 O1006 2.324 . S
Gd954 C1013 2.828 . S
Gd955 N964 2.661 . S
Gd955 N968 2.601 . S
Gd955 O999 2.362 . S
Gd955 O1000 2.324 . S
Gd955 O1004 2.545 . S
Gd955 O1005 2.606 . S
Gd955 O1007 2.429 . S
Gd955 O1008 2.545 . S
Gd955 O1009 2.412 . S
Gd955 C1022 2.828 . S
C956 C959 1.417 . S
C956 C961 1.431 . S
C956 C962 1.412 . S
C957 C960 1.437 . S
C957 C961 1.317 . S
C957 H976 0.929 . S
C958 C959 1.426 . S
C958 C960 1.413 . S
C958 N968 1.359 . S
C959 C956 1.417 . S
C959 C958 1.426 . S
C959 N964 1.350 . S
C960 C957 1.437 . S
C960 C958 1.413 . S
C960 C970 1.391 . S
C961 C956 1.431 . S
C961 C957 1.317 . S
C961 H972 0.930 . S
C962 C956 1.412 . S
C962 C963 1.355 . S
C962 H974 0.930 . S
C963 C962 1.355 . S
C963 C965 1.402 . S
C963 H975 0.930 . S
N964 Gd955 2.661 . S
N964 C959 1.350 . S
N964 C965 1.307 . S
C965 C963 1.402 . S
C965 N964 1.307 . S
C965 H966 0.930 . S
H966 C965 0.930 . S
C967 N968 1.334 . S
C967 C969 1.394 . S
C967 H971 0.930 . S
N968 Gd955 2.601 . S
N968 C958 1.359 . S
N968 C967 1.334 . S
C969 C967 1.394 . S
C969 C970 1.359 . S
C969 H981 0.930 . S
C970 C960 1.391 . S
C970 C969 1.359 . S
C970 H982 0.929 . S
H971 C967 0.930 . S
H972 C961 0.930 . S
H973 C990 0.930 . S
H974 C962 0.930 . S
H975 C963 0.930 . S
H976 C957 0.929 . S
H977 C995 0.930 . S
H978 C986 0.930 . S
H979 C987 0.930 . S
H980 C1011 0.929 . S
H981 C969 0.930 . S
H982 C970 0.929 . S
H983 C1012 0.930 . S
H984 C993 0.930 . S
N985 Gd954 2.661 . S
N985 C989 1.350 . S
N985 C990 1.307 . S
C986 H978 0.930 . S
C986 C987 1.355 . S
C986 C988 1.412 . S
C987 H979 0.930 . S
C987 C986 1.355 . S
C987 C990 1.402 . S
C988 C986 1.412 . S
C988 C989 1.417 . S
C988 C1012 1.431 . S
C989 N985 1.350 . S
C989 C988 1.417 . S
C989 C992 1.426 . S
C990 H973 0.930 . S
C990 N985 1.307 . S
C990 C987 1.402 . S
N991 Gd954 2.601 . S
N991 C992 1.359 . S
N991 C995 1.334 . S
C992 C989 1.426 . S
C992 N991 1.359 . S
C992 C996 1.413 . S
C993 H984 0.930 . S
C993 C994 1.359 . S
C993 C995 1.394 . S
C994 C993 1.359 . S
C994 C996 1.391 . S
C994 H997 0.929 . S
C995 H977 0.930 . S
C995 N991 1.334 . S
C995 C993 1.394 . S
C996 C992 1.413 . S
C996 C994 1.391 . S
C996 C1011 1.437 . S
H997 C994 0.929 . S
O998 Gd954 2.545 . S
O998 C1013 1.258 . S
O999 Gd954 2.606 . S
O999 Gd955 2.362 . S
O999 C1010 1.284 . S
O1000 Gd955 2.324 . S
O1000 C1020 1.254 . S
O1001 Gd954 2.429 . S
O1001 C1020 1.268 . S
O1002 Gd954 2.545 . S
O1002 C1010 1.250 . S
O1003 Gd954 2.412 . S
O1003 C1013 1.252 . S
O1004 Gd955 2.545 . S
O1004 C1022 1.258 . S
O1005 Gd954 2.362 . S
O1005 Gd955 2.606 . S
O1005 C1021 1.284 . S
O1006 Gd954 2.324 . S
O1006 C1029 1.254 . S
O1007 Gd955 2.429 . S
O1007 C1029 1.268 . S
O1008 Gd955 2.545 . S
O1008 C1021 1.250 . S
O1009 Gd955 2.412 . S
O1009 C1022 1.252 . S
C1010 O999 1.284 . S
C1010 O1002 1.250 . S
C1011 H980 0.929 . S
C1011 C996 1.437 . S
C1011 C1012 1.317 . S
C1012 H983 0.930 . S
C1012 C988 1.431 . S
C1012 C1011 1.317 . S
C1013 Gd954 2.828 . S
C1013 O998 1.258 . S
C1013 O1003 1.252 . S
C1013 C1014 1.497 . S
C1014 C1013 1.497 . S
C1014 C1015 1.395 . S
C1014 C1016 1.380 . S
C1015 C1014 1.395 . S
C1015 C1018 1.398 . S
C1015 H1030 0.930 . S
C1016 C1014 1.380 . S
C1016 C1017 1.391 . S
C1016 H1031 0.930 . S
C1017 C1016 1.391 . S
C1017 C1019 1.387 . S
C1018 C1015 1.398 . S
C1018 C1019 1.380 . S
C1018 H1032 0.930 . S
C1019 C1017 1.387 . S
C1019 C1018 1.380 . S
C1019 H1033 0.930 . S
C1020 O1000 1.254 . S
C1020 O1001 1.268 . S
C1021 O1005 1.284 . S
C1021 O1008 1.250 . S
C1022 Gd955 2.828 . S
C1022 O1004 1.258 . S
C1022 O1009 1.252 . S
C1022 C1023 1.497 . S
C1023 C1022 1.497 . S
C1023 C1024 1.395 . S
C1023 C1025 1.380 . S
C1024 C1023 1.395 . S
C1024 C1027 1.398 . S
C1024 H1034 0.930 . S
C1025 C1023 1.380 . S
C1025 C1026 1.391 . S
C1025 H1035 0.930 . S
C1026 C1025 1.391 . S
C1026 C1028 1.387 . S
C1027 C1024 1.398 . S
C1027 C1028 1.380 . S
C1027 H1036 0.930 . S
C1028 C1026 1.387 . S
C1028 C1027 1.380 . S
C1028 H1037 0.930 . S
C1029 O1006 1.254 . S
C1029 O1007 1.268 . S
H1030 C1015 0.930 . S
H1031 C1016 0.930 . S
H1032 C1018 0.930 . S
H1033 C1019 0.930 . S
H1034 C1024 0.930 . S
H1035 C1025 0.930 . S
H1036 C1027 0.930 . S
H1037 C1028 0.930 . S
Gd1038 N1069 2.661 . S
Gd1038 N1075 2.601 . S
Gd1038 O1082 2.545 . S
Gd1038 O1083 2.606 . S
Gd1038 O1085 2.429 . S
Gd1038 O1086 2.545 . S
Gd1038 O1087 2.412 . S
Gd1038 O1089 2.362 . S
Gd1038 O1090 2.324 . S
Gd1038 C1097 2.828 . S
Gd1039 N1048 2.661 . S
Gd1039 N1052 2.601 . S
Gd1039 O1083 2.362 . S
Gd1039 O1084 2.324 . S
Gd1039 O1088 2.545 . S
Gd1039 O1089 2.606 . S
Gd1039 O1091 2.429 . S
Gd1039 O1092 2.545 . S
Gd1039 O1093 2.412 . S
Gd1039 C1106 2.828 . S
C1040 C1043 1.417 . S
C1040 C1045 1.431 . S
C1040 C1046 1.412 . S
C1041 C1044 1.437 . S
C1041 C1045 1.317 . S
C1041 H1060 0.929 . S
C1042 C1043 1.426 . S
C1042 C1044 1.413 . S
C1042 N1052 1.359 . S
C1043 C1040 1.417 . S
C1043 C1042 1.426 . S
C1043 N1048 1.350 . S
C1044 C1041 1.437 . S
C1044 C1042 1.413 . S
C1044 C1054 1.391 . S
C1045 C1040 1.431 . S
C1045 C1041 1.317 . S
C1045 H1056 0.930 . S
C1046 C1040 1.412 . S
C1046 C1047 1.355 . S
C1046 H1058 0.930 . S
C1047 C1046 1.355 . S
C1047 C1049 1.402 . S
C1047 H1059 0.930 . S
N1048 Gd1039 2.661 . S
N1048 C1043 1.350 . S
N1048 C1049 1.307 . S
C1049 C1047 1.402 . S
C1049 N1048 1.307 . S
C1049 H1050 0.930 . S
H1050 C1049 0.930 . S
C1051 N1052 1.334 . S
C1051 C1053 1.394 . S
C1051 H1055 0.930 . S
N1052 Gd1039 2.601 . S
N1052 C1042 1.359 . S
N1052 C1051 1.334 . S
C1053 C1051 1.394 . S
C1053 C1054 1.359 . S
C1053 H1065 0.930 . S
C1054 C1044 1.391 . S
C1054 C1053 1.359 . S
C1054 H1066 0.929 . S
H1055 C1051 0.930 . S
H1056 C1045 0.930 . S
H1057 C1074 0.930 . S
H1058 C1046 0.930 . S
H1059 C1047 0.930 . S
H1060 C1041 0.929 . S
H1061 C1079 0.930 . S
H1062 C1070 0.930 . S
H1063 C1071 0.930 . S
H1064 C1095 0.929 . S
H1065 C1053 0.930 . S
H1066 C1054 0.929 . S
H1067 C1096 0.930 . S
H1068 C1077 0.930 . S
N1069 Gd1038 2.661 . S
N1069 C1073 1.350 . S
N1069 C1074 1.307 . S
C1070 H1062 0.930 . S
C1070 C1071 1.355 . S
C1070 C1072 1.412 . S
C1071 H1063 0.930 . S
C1071 C1070 1.355 . S
C1071 C1074 1.402 . S
C1072 C1070 1.412 . S
C1072 C1073 1.417 . S
C1072 C1096 1.431 . S
C1073 N1069 1.350 . S
C1073 C1072 1.417 . S
C1073 C1076 1.426 . S
C1074 H1057 0.930 . S
C1074 N1069 1.307 . S
C1074 C1071 1.402 . S
N1075 Gd1038 2.601 . S
N1075 C1076 1.359 . S
N1075 C1079 1.334 . S
C1076 C1073 1.426 . S
C1076 N1075 1.359 . S
C1076 C1080 1.413 . S
C1077 H1068 0.930 . S
C1077 C1078 1.359 . S
C1077 C1079 1.394 . S
C1078 C1077 1.359 . S
C1078 C1080 1.391 . S
C1078 H1081 0.929 . S
C1079 H1061 0.930 . S
C1079 N1075 1.334 . S
C1079 C1077 1.394 . S
C1080 C1076 1.413 . S
C1080 C1078 1.391 . S
C1080 C1095 1.437 . S
H1081 C1078 0.929 . S
O1082 Gd1038 2.545 . S
O1082 C1097 1.258 . S
O1083 Gd1038 2.606 . S
O1083 Gd1039 2.362 . S
O1083 C1094 1.284 . S
O1084 Gd1039 2.324 . S
O1084 C1104 1.254 . S
O1085 Gd1038 2.429 . S
O1085 C1104 1.268 . S
O1086 Gd1038 2.545 . S
O1086 C1094 1.250 . S
O1087 Gd1038 2.412 . S
O1087 C1097 1.252 . S
O1088 Gd1039 2.545 . S
O1088 C1106 1.258 . S
O1089 Gd1038 2.362 . S
O1089 Gd1039 2.606 . S
O1089 C1105 1.284 . S
O1090 Gd1038 2.324 . S
O1090 C1113 1.254 . S
O1091 Gd1039 2.429 . S
O1091 C1113 1.268 . S
O1092 Gd1039 2.545 . S
O1092 C1105 1.250 . S
O1093 Gd1039 2.412 . S
O1093 C1106 1.252 . S
C1094 O1083 1.284 . S
C1094 O1086 1.250 . S
C1095 H1064 0.929 . S
C1095 C1080 1.437 . S
C1095 C1096 1.317 . S
C1096 H1067 0.930 . S
C1096 C1072 1.431 . S
C1096 C1095 1.317 . S
C1097 Gd1038 2.828 . S
C1097 O1082 1.258 . S
C1097 O1087 1.252 . S
C1097 C1098 1.497 . S
C1098 C1097 1.497 . S
C1098 C1099 1.395 . S
C1098 C1100 1.380 . S
C1099 C1098 1.395 . S
C1099 C1102 1.398 . S
C1099 H1114 0.930 . S
C1100 C1098 1.380 . S
C1100 C1101 1.391 . S
C1100 H1115 0.930 . S
C1101 C1100 1.391 . S
C1101 C1103 1.387 . S
C1102 C1099 1.398 . S
C1102 C1103 1.380 . S
C1102 H1116 0.930 . S
C1103 C1101 1.387 . S
C1103 C1102 1.380 . S
C1103 H1117 0.930 . S
C1104 O1084 1.254 . S
C1104 O1085 1.268 . S
C1105 O1089 1.284 . S
C1105 O1092 1.250 . S
C1106 Gd1039 2.828 . S
C1106 O1088 1.258 . S
C1106 O1093 1.252 . S
C1106 C1107 1.497 . S
C1107 C1106 1.497 . S
C1107 C1108 1.395 . S
C1107 C1109 1.380 . S
C1108 C1107 1.395 . S
C1108 C1111 1.398 . S
C1108 H1118 0.930 . S
C1109 C1107 1.380 . S
C1109 C1110 1.391 . S
C1109 H1119 0.930 . S
C1110 C1109 1.391 . S
C1110 C1112 1.387 . S
C1111 C1108 1.398 . S
C1111 C1112 1.380 . S
C1111 H1120 0.930 . S
C1112 C1110 1.387 . S
C1112 C1111 1.380 . S
C1112 H1121 0.930 . S
C1113 O1090 1.254 . S
C1113 O1091 1.268 . S
H1114 C1099 0.930 . S
H1115 C1100 0.930 . S
H1116 C1102 0.930 . S
H1117 C1103 0.930 . S
H1118 C1108 0.930 . S
H1119 C1109 0.930 . S
H1120 C1111 0.930 . S
H1121 C1112 0.930 . S
Gd1122 N1153 2.661 . S
Gd1122 N1159 2.601 . S
Gd1122 O1166 2.545 . S
Gd1122 O1167 2.606 . S
Gd1122 O1169 2.429 . S
Gd1122 O1170 2.545 . S
Gd1122 O1171 2.412 . S
Gd1122 O1173 2.362 . S
Gd1122 O1174 2.324 . S
Gd1122 C1181 2.828 . S
Gd1123 N1132 2.661 . S
Gd1123 N1136 2.601 . S
Gd1123 O1167 2.362 . S
Gd1123 O1168 2.324 . S
Gd1123 O1172 2.545 . S
Gd1123 O1173 2.606 . S
Gd1123 O1175 2.429 . S
Gd1123 O1176 2.545 . S
Gd1123 O1177 2.412 . S
Gd1123 C1190 2.828 . S
C1124 C1127 1.417 . S
C1124 C1129 1.431 . S
C1124 C1130 1.412 . S
C1125 C1128 1.437 . S
C1125 C1129 1.317 . S
C1125 H1144 0.929 . S
C1126 C1127 1.426 . S
C1126 C1128 1.413 . S
C1126 N1136 1.359 . S
C1127 C1124 1.417 . S
C1127 C1126 1.426 . S
C1127 N1132 1.350 . S
C1128 C1125 1.437 . S
C1128 C1126 1.413 . S
C1128 C1138 1.391 . S
C1129 C1124 1.431 . S
C1129 C1125 1.317 . S
C1129 H1140 0.930 . S
C1130 C1124 1.412 . S
C1130 C1131 1.355 . S
C1130 H1142 0.930 . S
C1131 C1130 1.355 . S
C1131 C1133 1.402 . S
C1131 H1143 0.930 . S
N1132 Gd1123 2.661 . S
N1132 C1127 1.350 . S
N1132 C1133 1.307 . S
C1133 C1131 1.402 . S
C1133 N1132 1.307 . S
C1133 H1134 0.930 . S
H1134 C1133 0.930 . S
C1135 N1136 1.334 . S
C1135 C1137 1.394 . S
C1135 H1139 0.930 . S
N1136 Gd1123 2.601 . S
N1136 C1126 1.359 . S
N1136 C1135 1.334 . S
C1137 C1135 1.394 . S
C1137 C1138 1.359 . S
C1137 H1149 0.930 . S
C1138 C1128 1.391 . S
C1138 C1137 1.359 . S
C1138 H1150 0.929 . S
H1139 C1135 0.930 . S
H1140 C1129 0.930 . S
H1141 C1158 0.930 . S
H1142 C1130 0.930 . S
H1143 C1131 0.930 . S
H1144 C1125 0.929 . S
H1145 C1163 0.930 . S
H1146 C1154 0.930 . S
H1147 C1155 0.930 . S
H1148 C1179 0.929 . S
H1149 C1137 0.930 . S
H1150 C1138 0.929 . S
H1151 C1180 0.930 . S
H1152 C1161 0.930 . S
N1153 Gd1122 2.661 . S
N1153 C1157 1.350 . S
N1153 C1158 1.307 . S
C1154 H1146 0.930 . S
C1154 C1155 1.355 . S
C1154 C1156 1.412 . S
C1155 H1147 0.930 . S
C1155 C1154 1.355 . S
C1155 C1158 1.402 . S
C1156 C1154 1.412 . S
C1156 C1157 1.417 . S
C1156 C1180 1.431 . S
C1157 N1153 1.350 . S
C1157 C1156 1.417 . S
C1157 C1160 1.426 . S
C1158 H1141 0.930 . S
C1158 N1153 1.307 . S
C1158 C1155 1.402 . S
N1159 Gd1122 2.601 . S
N1159 C1160 1.359 . S
N1159 C1163 1.334 . S
C1160 C1157 1.426 . S
C1160 N1159 1.359 . S
C1160 C1164 1.413 . S
C1161 H1152 0.930 . S
C1161 C1162 1.359 . S
C1161 C1163 1.394 . S
C1162 C1161 1.359 . S
C1162 C1164 1.391 . S
C1162 H1165 0.929 . S
C1163 H1145 0.930 . S
C1163 N1159 1.334 . S
C1163 C1161 1.394 . S
C1164 C1160 1.413 . S
C1164 C1162 1.391 . S
C1164 C1179 1.437 . S
H1165 C1162 0.929 . S
O1166 Gd1122 2.545 . S
O1166 C1181 1.258 . S
O1167 Gd1122 2.606 . S
O1167 Gd1123 2.362 . S
O1167 C1178 1.284 . S
O1168 Gd1123 2.324 . S
O1168 C1188 1.254 . S
O1169 Gd1122 2.429 . S
O1169 C1188 1.268 . S
O1170 Gd1122 2.545 . S
O1170 C1178 1.250 . S
O1171 Gd1122 2.412 . S
O1171 C1181 1.252 . S
O1172 Gd1123 2.545 . S
O1172 C1190 1.258 . S
O1173 Gd1122 2.362 . S
O1173 Gd1123 2.606 . S
O1173 C1189 1.284 . S
O1174 Gd1122 2.324 . S
O1174 C1197 1.254 . S
O1175 Gd1123 2.429 . S
O1175 C1197 1.268 . S
O1176 Gd1123 2.545 . S
O1176 C1189 1.250 . S
O1177 Gd1123 2.412 . S
O1177 C1190 1.252 . S
C1178 O1167 1.284 . S
C1178 O1170 1.250 . S
C1179 H1148 0.929 . S
C1179 C1164 1.437 . S
C1179 C1180 1.317 . S
C1180 H1151 0.930 . S
C1180 C1156 1.431 . S
C1180 C1179 1.317 . S
C1181 Gd1122 2.828 . S
C1181 O1166 1.258 . S
C1181 O1171 1.252 . S
C1181 C1182 1.497 . S
C1182 C1181 1.497 . S
C1182 C1183 1.395 . S
C1182 C1184 1.380 . S
C1183 C1182 1.395 . S
C1183 C1186 1.398 . S
C1183 H1198 0.930 . S
C1184 C1182 1.380 . S
C1184 C1185 1.391 . S
C1184 H1199 0.930 . S
C1185 C1184 1.391 . S
C1185 C1187 1.387 . S
C1186 C1183 1.398 . S
C1186 C1187 1.380 . S
C1186 H1200 0.930 . S
C1187 C1185 1.387 . S
C1187 C1186 1.380 . S
C1187 H1201 0.930 . S
C1188 O1168 1.254 . S
C1188 O1169 1.268 . S
C1189 O1173 1.284 . S
C1189 O1176 1.250 . S
C1190 Gd1123 2.828 . S
C1190 O1172 1.258 . S
C1190 O1177 1.252 . S
C1190 C1191 1.497 . S
C1191 C1190 1.497 . S
C1191 C1192 1.395 . S
C1191 C1193 1.380 . S
C1192 C1191 1.395 . S
C1192 C1195 1.398 . S
C1192 H1202 0.930 . S
C1193 C1191 1.380 . S
C1193 C1194 1.391 . S
C1193 H1203 0.930 . S
C1194 C1193 1.391 . S
C1194 C1196 1.387 . S
C1195 C1192 1.398 . S
C1195 C1196 1.380 . S
C1195 H1204 0.930 . S
C1196 C1194 1.387 . S
C1196 C1195 1.380 . S
C1196 H1205 0.930 . S
C1197 O1174 1.254 . S
C1197 O1175 1.268 . S
H1198 C1183 0.930 . S
H1199 C1184 0.930 . S
H1200 C1186 0.930 . S
H1201 C1187 0.930 . S
H1202 C1192 0.930 . S
H1203 C1193 0.930 . S
H1204 C1195 0.930 . S
H1205 C1196 0.930 . S
Gd1206 N1237 2.661 . S
Gd1206 N1243 2.601 . S
Gd1206 O1250 2.545 . S
Gd1206 O1251 2.606 . S
Gd1206 O1253 2.429 . S
Gd1206 O1254 2.545 . S
Gd1206 O1255 2.412 . S
Gd1206 O1257 2.362 . S
Gd1206 O1258 2.324 . S
Gd1206 C1265 2.828 . S
Gd1207 N1216 2.661 . S
Gd1207 N1220 2.601 . S
Gd1207 O1251 2.362 . S
Gd1207 O1252 2.324 . S
Gd1207 O1256 2.545 . S
Gd1207 O1257 2.606 . S
Gd1207 O1259 2.429 . S
Gd1207 O1260 2.545 . S
Gd1207 O1261 2.412 . S
Gd1207 C1274 2.828 . S
C1208 C1211 1.417 . S
C1208 C1213 1.431 . S
C1208 C1214 1.412 . S
C1209 C1212 1.437 . S
C1209 C1213 1.317 . S
C1209 H1228 0.929 . S
C1210 C1211 1.426 . S
C1210 C1212 1.413 . S
C1210 N1220 1.359 . S
C1211 C1208 1.417 . S
C1211 C1210 1.426 . S
C1211 N1216 1.350 . S
C1212 C1209 1.437 . S
C1212 C1210 1.413 . S
C1212 C1222 1.391 . S
C1213 C1208 1.431 . S
C1213 C1209 1.317 . S
C1213 H1224 0.930 . S
C1214 C1208 1.412 . S
C1214 C1215 1.355 . S
C1214 H1226 0.930 . S
C1215 C1214 1.355 . S
C1215 C1217 1.402 . S
C1215 H1227 0.930 . S
N1216 Gd1207 2.661 . S
N1216 C1211 1.350 . S
N1216 C1217 1.307 . S
C1217 C1215 1.402 . S
C1217 N1216 1.307 . S
C1217 H1218 0.930 . S
H1218 C1217 0.930 . S
C1219 N1220 1.334 . S
C1219 C1221 1.394 . S
C1219 H1223 0.930 . S
N1220 Gd1207 2.601 . S
N1220 C1210 1.359 . S
N1220 C1219 1.334 . S
C1221 C1219 1.394 . S
C1221 C1222 1.359 . S
C1221 H1233 0.930 . S
C1222 C1212 1.391 . S
C1222 C1221 1.359 . S
C1222 H1234 0.929 . S
H1223 C1219 0.930 . S
H1224 C1213 0.930 . S
H1225 C1242 0.930 . S
H1226 C1214 0.930 . S
H1227 C1215 0.930 . S
H1228 C1209 0.929 . S
H1229 C1247 0.930 . S
H1230 C1238 0.930 . S
H1231 C1239 0.930 . S
H1232 C1263 0.929 . S
H1233 C1221 0.930 . S
H1234 C1222 0.929 . S
H1235 C1264 0.930 . S
H1236 C1245 0.930 . S
N1237 Gd1206 2.661 . S
N1237 C1241 1.350 . S
N1237 C1242 1.307 . S
C1238 H1230 0.930 . S
C1238 C1239 1.355 . S
C1238 C1240 1.412 . S
C1239 H1231 0.930 . S
C1239 C1238 1.355 . S
C1239 C1242 1.402 . S
C1240 C1238 1.412 . S
C1240 C1241 1.417 . S
C1240 C1264 1.431 . S
C1241 N1237 1.350 . S
C1241 C1240 1.417 . S
C1241 C1244 1.426 . S
C1242 H1225 0.930 . S
C1242 N1237 1.307 . S
C1242 C1239 1.402 . S
N1243 Gd1206 2.601 . S
N1243 C1244 1.359 . S
N1243 C1247 1.334 . S
C1244 C1241 1.426 . S
C1244 N1243 1.359 . S
C1244 C1248 1.413 . S
C1245 H1236 0.930 . S
C1245 C1246 1.359 . S
C1245 C1247 1.394 . S
C1246 C1245 1.359 . S
C1246 C1248 1.391 . S
C1246 H1249 0.929 . S
C1247 H1229 0.930 . S
C1247 N1243 1.334 . S
C1247 C1245 1.394 . S
C1248 C1244 1.413 . S
C1248 C1246 1.391 . S
C1248 C1263 1.437 . S
H1249 C1246 0.929 . S
O1250 Gd1206 2.545 . S
O1250 C1265 1.258 . S
O1251 Gd1206 2.606 . S
O1251 Gd1207 2.362 . S
O1251 C1262 1.284 . S
O1252 Gd1207 2.324 . S
O1252 C1272 1.254 . S
O1253 Gd1206 2.429 . S
O1253 C1272 1.268 . S
O1254 Gd1206 2.545 . S
O1254 C1262 1.250 . S
O1255 Gd1206 2.412 . S
O1255 C1265 1.252 . S
O1256 Gd1207 2.545 . S
O1256 C1274 1.258 . S
O1257 Gd1206 2.362 . S
O1257 Gd1207 2.606 . S
O1257 C1273 1.284 . S
O1258 Gd1206 2.324 . S
O1258 C1281 1.254 . S
O1259 Gd1207 2.429 . S
O1259 C1281 1.268 . S
O1260 Gd1207 2.545 . S
O1260 C1273 1.250 . S
O1261 Gd1207 2.412 . S
O1261 C1274 1.252 . S
C1262 O1251 1.284 . S
C1262 O1254 1.250 . S
C1263 H1232 0.929 . S
C1263 C1248 1.437 . S
C1263 C1264 1.317 . S
C1264 H1235 0.930 . S
C1264 C1240 1.431 . S
C1264 C1263 1.317 . S
C1265 Gd1206 2.828 . S
C1265 O1250 1.258 . S
C1265 O1255 1.252 . S
C1265 C1266 1.497 . S
C1266 C1265 1.497 . S
C1266 C1267 1.395 . S
C1266 C1268 1.380 . S
C1267 C1266 1.395 . S
C1267 C1270 1.398 . S
C1267 H1282 0.930 . S
C1268 C1266 1.380 . S
C1268 C1269 1.391 . S
C1268 H1283 0.930 . S
C1269 C1268 1.391 . S
C1269 C1271 1.387 . S
C1270 C1267 1.398 . S
C1270 C1271 1.380 . S
C1270 H1284 0.930 . S
C1271 C1269 1.387 . S
C1271 C1270 1.380 . S
C1271 H1285 0.930 . S
C1272 O1252 1.254 . S
C1272 O1253 1.268 . S
C1273 O1257 1.284 . S
C1273 O1260 1.250 . S
C1274 Gd1207 2.828 . S
C1274 O1256 1.258 . S
C1274 O1261 1.252 . S
C1274 C1275 1.497 . S
C1275 C1274 1.497 . S
C1275 C1276 1.395 . S
C1275 C1277 1.380 . S
C1276 C1275 1.395 . S
C1276 C1279 1.398 . S
C1276 H1286 0.930 . S
C1277 C1275 1.380 . S
C1277 C1278 1.391 . S
C1277 H1287 0.930 . S
C1278 C1277 1.391 . S
C1278 C1280 1.387 . S
C1279 C1276 1.398 . S
C1279 C1280 1.380 . S
C1279 H1288 0.930 . S
C1280 C1278 1.387 . S
C1280 C1279 1.380 . S
C1280 H1289 0.930 . S
C1281 O1258 1.254 . S
C1281 O1259 1.268 . S
H1282 C1267 0.930 . S
H1283 C1268 0.930 . S
H1284 C1270 0.930 . S
H1285 C1271 0.930 . S
H1286 C1276 0.930 . S
H1287 C1277 0.930 . S
H1288 C1279 0.930 . S
H1289 C1280 0.930 . S
Gd1290 N1321 2.661 . S
Gd1290 N1327 2.601 . S
Gd1290 O1334 2.545 . S
Gd1290 O1335 2.606 . S
Gd1290 O1337 2.429 . S
Gd1290 O1338 2.545 . S
Gd1290 O1339 2.412 . S
Gd1290 O1341 2.362 . S
Gd1290 O1342 2.324 . S
Gd1290 C1349 2.828 . S
Gd1291 N1300 2.661 . S
Gd1291 N1304 2.601 . S
Gd1291 O1335 2.362 . S
Gd1291 O1336 2.324 . S
Gd1291 O1340 2.545 . S
Gd1291 O1341 2.606 . S
Gd1291 O1343 2.429 . S
Gd1291 O1344 2.545 . S
Gd1291 O1345 2.412 . S
Gd1291 C1358 2.828 . S
C1292 C1295 1.417 . S
C1292 C1297 1.431 . S
C1292 C1298 1.412 . S
C1293 C1296 1.437 . S
C1293 C1297 1.317 . S
C1293 H1312 0.929 . S
C1294 C1295 1.426 . S
C1294 C1296 1.413 . S
C1294 N1304 1.359 . S
C1295 C1292 1.417 . S
C1295 C1294 1.426 . S
C1295 N1300 1.350 . S
C1296 C1293 1.437 . S
C1296 C1294 1.413 . S
C1296 C1306 1.391 . S
C1297 C1292 1.431 . S
C1297 C1293 1.317 . S
C1297 H1308 0.930 . S
C1298 C1292 1.412 . S
C1298 C1299 1.355 . S
C1298 H1310 0.930 . S
C1299 C1298 1.355 . S
C1299 C1301 1.402 . S
C1299 H1311 0.930 . S
N1300 Gd1291 2.661 . S
N1300 C1295 1.350 . S
N1300 C1301 1.307 . S
C1301 C1299 1.402 . S
C1301 N1300 1.307 . S
C1301 H1302 0.930 . S
H1302 C1301 0.930 . S
C1303 N1304 1.334 . S
C1303 C1305 1.394 . S
C1303 H1307 0.930 . S
N1304 Gd1291 2.601 . S
N1304 C1294 1.359 . S
N1304 C1303 1.334 . S
C1305 C1303 1.394 . S
C1305 C1306 1.359 . S
C1305 H1317 0.930 . S
C1306 C1296 1.391 . S
C1306 C1305 1.359 . S
C1306 H1318 0.929 . S
H1307 C1303 0.930 . S
H1308 C1297 0.930 . S
H1309 C1326 0.930 . S
H1310 C1298 0.930 . S
H1311 C1299 0.930 . S
H1312 C1293 0.929 . S
H1313 C1331 0.930 . S
H1314 C1322 0.930 . S
H1315 C1323 0.930 . S
H1316 C1347 0.929 . S
H1317 C1305 0.930 . S
H1318 C1306 0.929 . S
H1319 C1348 0.930 . S
H1320 C1329 0.930 . S
N1321 Gd1290 2.661 . S
N1321 C1325 1.350 . S
N1321 C1326 1.307 . S
C1322 H1314 0.930 . S
C1322 C1323 1.355 . S
C1322 C1324 1.412 . S
C1323 H1315 0.930 . S
C1323 C1322 1.355 . S
C1323 C1326 1.402 . S
C1324 C1322 1.412 . S
C1324 C1325 1.417 . S
C1324 C1348 1.431 . S
C1325 N1321 1.350 . S
C1325 C1324 1.417 . S
C1325 C1328 1.426 . S
C1326 H1309 0.930 . S
C1326 N1321 1.307 . S
C1326 C1323 1.402 . S
N1327 Gd1290 2.601 . S
N1327 C1328 1.359 . S
N1327 C1331 1.334 . S
C1328 C1325 1.426 . S
C1328 N1327 1.359 . S
C1328 C1332 1.413 . S
C1329 H1320 0.930 . S
C1329 C1330 1.359 . S
C1329 C1331 1.394 . S
C1330 C1329 1.359 . S
C1330 C1332 1.391 . S
C1330 H1333 0.929 . S
C1331 H1313 0.930 . S
C1331 N1327 1.334 . S
C1331 C1329 1.394 . S
C1332 C1328 1.413 . S
C1332 C1330 1.391 . S
C1332 C1347 1.437 . S
H1333 C1330 0.929 . S
O1334 Gd1290 2.545 . S
O1334 C1349 1.258 . S
O1335 Gd1290 2.606 . S
O1335 Gd1291 2.362 . S
O1335 C1346 1.284 . S
O1336 Gd1291 2.324 . S
O1336 C1356 1.254 . S
O1337 Gd1290 2.429 . S
O1337 C1356 1.268 . S
O1338 Gd1290 2.545 . S
O1338 C1346 1.250 . S
O1339 Gd1290 2.412 . S
O1339 C1349 1.252 . S
O1340 Gd1291 2.545 . S
O1340 C1358 1.258 . S
O1341 Gd1290 2.362 . S
O1341 Gd1291 2.606 . S
O1341 C1357 1.284 . S
O1342 Gd1290 2.324 . S
O1342 C1365 1.254 . S
O1343 Gd1291 2.429 . S
O1343 C1365 1.268 . S
O1344 Gd1291 2.545 . S
O1344 C1357 1.250 . S
O1345 Gd1291 2.412 . S
O1345 C1358 1.252 . S
C1346 O1335 1.284 . S
C1346 O1338 1.250 . S
C1347 H1316 0.929 . S
C1347 C1332 1.437 . S
C1347 C1348 1.317 . S
C1348 H1319 0.930 . S
C1348 C1324 1.431 . S
C1348 C1347 1.317 . S
C1349 Gd1290 2.828 . S
C1349 O1334 1.258 . S
C1349 O1339 1.252 . S
C1349 C1350 1.497 . S
C1350 C1349 1.497 . S
C1350 C1351 1.395 . S
C1350 C1352 1.380 . S
C1351 C1350 1.395 . S
C1351 C1354 1.398 . S
C1351 H1366 0.930 . S
C1352 C1350 1.380 . S
C1352 C1353 1.391 . S
C1352 H1367 0.930 . S
C1353 C1352 1.391 . S
C1353 C1355 1.387 . S
C1354 C1351 1.398 . S
C1354 C1355 1.380 . S
C1354 H1368 0.930 . S
C1355 C1353 1.387 . S
C1355 C1354 1.380 . S
C1355 H1369 0.930 . S
C1356 O1336 1.254 . S
C1356 O1337 1.268 . S
C1357 O1341 1.284 . S
C1357 O1344 1.250 . S
C1358 Gd1291 2.828 . S
C1358 O1340 1.258 . S
C1358 O1345 1.252 . S
C1358 C1359 1.497 . S
C1359 C1358 1.497 . S
C1359 C1360 1.395 . S
C1359 C1361 1.380 . S
C1360 C1359 1.395 . S
C1360 C1363 1.398 . S
C1360 H1370 0.930 . S
C1361 C1359 1.380 . S
C1361 C1362 1.391 . S
C1361 H1371 0.930 . S
C1362 C1361 1.391 . S
C1362 C1364 1.387 . S
C1363 C1360 1.398 . S
C1363 C1364 1.380 . S
C1363 H1372 0.930 . S
C1364 C1362 1.387 . S
C1364 C1363 1.380 . S
C1364 H1373 0.930 . S
C1365 O1342 1.254 . S
C1365 O1343 1.268 . S
H1366 C1351 0.930 . S
H1367 C1352 0.930 . S
H1368 C1354 0.930 . S
H1369 C1355 0.930 . S
H1370 C1360 0.930 . S
H1371 C1361 0.930 . S
H1372 C1363 0.930 . S
H1373 C1364 0.930 . S
Gd1374 N1405 2.661 . S
Gd1374 N1411 2.601 . S
Gd1374 O1418 2.545 . S
Gd1374 O1419 2.606 . S
Gd1374 O1421 2.429 . S
Gd1374 O1422 2.545 . S
Gd1374 O1423 2.412 . S
Gd1374 O1425 2.362 . S
Gd1374 O1426 2.324 . S
Gd1374 C1433 2.828 . S
Gd1375 N1384 2.661 . S
Gd1375 N1388 2.601 . S
Gd1375 O1419 2.362 . S
Gd1375 O1420 2.324 . S
Gd1375 O1424 2.545 . S
Gd1375 O1425 2.606 . S
Gd1375 O1427 2.429 . S
Gd1375 O1428 2.545 . S
Gd1375 O1429 2.412 . S
Gd1375 C1442 2.828 . S
C1376 C1379 1.417 . S
C1376 C1381 1.431 . S
C1376 C1382 1.412 . S
C1377 C1380 1.437 . S
C1377 C1381 1.317 . S
C1377 H1396 0.929 . S
C1378 C1379 1.426 . S
C1378 C1380 1.413 . S
C1378 N1388 1.359 . S
C1379 C1376 1.417 . S
C1379 C1378 1.426 . S
C1379 N1384 1.350 . S
C1380 C1377 1.437 . S
C1380 C1378 1.413 . S
C1380 C1390 1.391 . S
C1381 C1376 1.431 . S
C1381 C1377 1.317 . S
C1381 H1392 0.930 . S
C1382 C1376 1.412 . S
C1382 C1383 1.355 . S
C1382 H1394 0.930 . S
C1383 C1382 1.355 . S
C1383 C1385 1.402 . S
C1383 H1395 0.930 . S
N1384 Gd1375 2.661 . S
N1384 C1379 1.350 . S
N1384 C1385 1.307 . S
C1385 C1383 1.402 . S
C1385 N1384 1.307 . S
C1385 H1386 0.930 . S
H1386 C1385 0.930 . S
C1387 N1388 1.334 . S
C1387 C1389 1.394 . S
C1387 H1391 0.930 . S
N1388 Gd1375 2.601 . S
N1388 C1378 1.359 . S
N1388 C1387 1.334 . S
C1389 C1387 1.394 . S
C1389 C1390 1.359 . S
C1389 H1401 0.930 . S
C1390 C1380 1.391 . S
C1390 C1389 1.359 . S
C1390 H1402 0.929 . S
H1391 C1387 0.930 . S
H1392 C1381 0.930 . S
H1393 C1410 0.930 . S
H1394 C1382 0.930 . S
H1395 C1383 0.930 . S
H1396 C1377 0.929 . S
H1397 C1415 0.930 . S
H1398 C1406 0.930 . S
H1399 C1407 0.930 . S
H1400 C1431 0.929 . S
H1401 C1389 0.930 . S
H1402 C1390 0.929 . S
H1403 C1432 0.930 . S
H1404 C1413 0.930 . S
N1405 Gd1374 2.661 . S
N1405 C1409 1.350 . S
N1405 C1410 1.307 . S
C1406 H1398 0.930 . S
C1406 C1407 1.355 . S
C1406 C1408 1.412 . S
C1407 H1399 0.930 . S
C1407 C1406 1.355 . S
C1407 C1410 1.402 . S
C1408 C1406 1.412 . S
C1408 C1409 1.417 . S
C1408 C1432 1.431 . S
C1409 N1405 1.350 . S
C1409 C1408 1.417 . S
C1409 C1412 1.426 . S
C1410 H1393 0.930 . S
C1410 N1405 1.307 . S
C1410 C1407 1.402 . S
N1411 Gd1374 2.601 . S
N1411 C1412 1.359 . S
N1411 C1415 1.334 . S
C1412 C1409 1.426 . S
C1412 N1411 1.359 . S
C1412 C1416 1.413 . S
C1413 H1404 0.930 . S
C1413 C1414 1.359 . S
C1413 C1415 1.394 . S
C1414 C1413 1.359 . S
C1414 C1416 1.391 . S
C1414 H1417 0.929 . S
C1415 H1397 0.930 . S
C1415 N1411 1.334 . S
C1415 C1413 1.394 . S
C1416 C1412 1.413 . S
C1416 C1414 1.391 . S
C1416 C1431 1.437 . S
H1417 C1414 0.929 . S
O1418 Gd1374 2.545 . S
O1418 C1433 1.258 . S
O1419 Gd1374 2.606 . S
O1419 Gd1375 2.362 . S
O1419 C1430 1.284 . S
O1420 Gd1375 2.324 . S
O1420 C1440 1.254 . S
O1421 Gd1374 2.429 . S
O1421 C1440 1.268 . S
O1422 Gd1374 2.545 . S
O1422 C1430 1.250 . S
O1423 Gd1374 2.412 . S
O1423 C1433 1.252 . S
O1424 Gd1375 2.545 . S
O1424 C1442 1.258 . S
O1425 Gd1374 2.362 . S
O1425 Gd1375 2.606 . S
O1425 C1441 1.284 . S
O1426 Gd1374 2.324 . S
O1426 C1449 1.254 . S
O1427 Gd1375 2.429 . S
O1427 C1449 1.268 . S
O1428 Gd1375 2.545 . S
O1428 C1441 1.250 . S
O1429 Gd1375 2.412 . S
O1429 C1442 1.252 . S
C1430 O1419 1.284 . S
C1430 O1422 1.250 . S
C1431 H1400 0.929 . S
C1431 C1416 1.437 . S
C1431 C1432 1.317 . S
C1432 H1403 0.930 . S
C1432 C1408 1.431 . S
C1432 C1431 1.317 . S
C1433 Gd1374 2.828 . S
C1433 O1418 1.258 . S
C1433 O1423 1.252 . S
C1433 C1434 1.497 . S
C1434 C1433 1.497 . S
C1434 C1435 1.395 . S
C1434 C1436 1.380 . S
C1435 C1434 1.395 . S
C1435 C1438 1.398 . S
C1435 H1450 0.930 . S
C1436 C1434 1.380 . S
C1436 C1437 1.391 . S
C1436 H1451 0.930 . S
C1437 C1436 1.391 . S
C1437 C1439 1.387 . S
C1438 C1435 1.398 . S
C1438 C1439 1.380 . S
C1438 H1452 0.930 . S
C1439 C1437 1.387 . S
C1439 C1438 1.380 . S
C1439 H1453 0.930 . S
C1440 O1420 1.254 . S
C1440 O1421 1.268 . S
C1441 O1425 1.284 . S
C1441 O1428 1.250 . S
C1442 Gd1375 2.828 . S
C1442 O1424 1.258 . S
C1442 O1429 1.252 . S
C1442 C1443 1.497 . S
C1443 C1442 1.497 . S
C1443 C1444 1.395 . S
C1443 C1445 1.380 . S
C1444 C1443 1.395 . S
C1444 C1447 1.398 . S
C1444 H1454 0.930 . S
C1445 C1443 1.380 . S
C1445 C1446 1.391 . S
C1445 H1455 0.930 . S
C1446 C1445 1.391 . S
C1446 C1448 1.387 . S
C1447 C1444 1.398 . S
C1447 C1448 1.380 . S
C1447 H1456 0.930 . S
C1448 C1446 1.387 . S
C1448 C1447 1.380 . S
C1448 H1457 0.930 . S
C1449 O1426 1.254 . S
C1449 O1427 1.268 . S
H1450 C1435 0.930 . S
H1451 C1436 0.930 . S
H1452 C1438 0.930 . S
H1453 C1439 0.930 . S
H1454 C1444 0.930 . S
H1455 C1445 0.930 . S
H1456 C1447 0.930 . S
H1457 C1448 0.930 . S
C1458 C1459 1.387 . S
C1458 H1462 0.950 . S
C1458 C1467 1.390 . S
C1459 C1458 1.387 . S
C1459 C1461 1.387 . S
H1460 C1467 0.950 . S
C1461 C1459 1.387 . S
C1461 C1463 1.390 . S
C1461 H1465 0.950 . S
H1462 C1458 0.950 . S
C1463 C1461 1.390 . S
C1463 C1464 1.387 . S
C1463 H1466 0.950 . S
C1464 C1463 1.387 . S
C1464 C1467 1.387 . S
H1465 C1461 0.950 . S
H1466 C1463 0.950 . S
C1467 C1458 1.390 . S
C1467 H1460 0.950 . S
C1467 C1464 1.387 . S
C1468 C1469 1.387 . S
C1468 H1472 0.950 . S
C1468 C1477 1.390 . S
C1469 C1468 1.387 . S
C1469 C1471 1.387 . S
H1470 C1477 0.950 . S
C1471 C1469 1.387 . S
C1471 C1473 1.390 . S
C1471 H1475 0.950 . S
H1472 C1468 0.950 . S
C1473 C1471 1.390 . S
C1473 C1474 1.387 . S
C1473 H1476 0.950 . S
C1474 C1473 1.387 . S
C1474 C1477 1.387 . S
H1475 C1471 0.950 . S
H1476 C1473 0.950 . S
C1477 C1468 1.390 . S
C1477 H1470 0.950 . S
C1477 C1474 1.387 . S
C1478 C1479 1.387 . S
C1478 H1482 0.950 . S
C1478 C1487 1.390 . S
C1479 C1478 1.387 . S
C1479 C1481 1.387 . S
H1480 C1487 0.950 . S
C1481 C1479 1.387 . S
C1481 C1483 1.390 . S
C1481 H1485 0.950 . S
H1482 C1478 0.950 . S
C1483 C1481 1.390 . S
C1483 C1484 1.387 . S
C1483 H1486 0.950 . S
C1484 C1483 1.387 . S
C1484 C1487 1.387 . S
H1485 C1481 0.950 . S
H1486 C1483 0.950 . S
C1487 C1478 1.390 . S
C1487 H1480 0.950 . S
C1487 C1484 1.387 . S
C1488 C1489 1.387 . S
C1488 H1492 0.950 . S
C1488 C1497 1.390 . S
C1489 C1488 1.387 . S
C1489 C1491 1.387 . S
H1490 C1497 0.950 . S
C1491 C1489 1.387 . S
C1491 C1493 1.390 . S
C1491 H1495 0.950 . S
H1492 C1488 0.950 . S
C1493 C1491 1.390 . S
C1493 C1494 1.387 . S
C1493 H1496 0.950 . S
C1494 C1493 1.387 . S
C1494 C1497 1.387 . S
H1495 C1491 0.950 . S
H1496 C1493 0.950 . S
C1497 C1488 1.390 . S
C1497 H1490 0.950 . S
C1497 C1494 1.387 . S
C1498 C1499 1.387 . S
C1498 H1502 0.950 . S
C1498 C1507 1.390 . S
C1499 C1498 1.387 . S
C1499 C1501 1.387 . S
H1500 C1507 0.950 . S
C1501 C1499 1.387 . S
C1501 C1503 1.390 . S
C1501 H1505 0.950 . S
H1502 C1498 0.950 . S
C1503 C1501 1.390 . S
C1503 C1504 1.387 . S
C1503 H1506 0.950 . S
C1504 C1503 1.387 . S
C1504 C1507 1.387 . S
H1505 C1501 0.950 . S
H1506 C1503 0.950 . S
C1507 C1498 1.390 . S
C1507 H1500 0.950 . S
C1507 C1504 1.387 . S
C1508 C1509 1.387 . S
C1508 H1512 0.950 . S
C1508 C1517 1.390 . S
C1509 C1508 1.387 . S
C1509 C1511 1.387 . S
H1510 C1517 0.950 . S
C1511 C1509 1.387 . S
C1511 C1513 1.390 . S
C1511 H1515 0.964 . S
H1512 C1508 0.950 . S
C1513 C1511 1.390 . S
C1513 C1514 1.387 . S
C1513 H1516 0.950 1_556 S
C1514 C1513 1.387 . S
C1514 C1517 1.387 . S
H1515 C1511 0.964 . S
H1516 C1513 0.950 1_554 S
C1517 C1508 1.390 . S
C1517 H1510 0.950 . S
C1517 C1514 1.387 . S
C1518 C1519 1.387 . S
C1518 H1522 0.950 . S
C1518 C1527 1.390 . S
C1519 C1518 1.387 . S
C1519 C1521 1.387 . S
H1520 C1527 0.950 . S
C1521 C1519 1.387 . S
C1521 C1523 1.390 . S
C1521 H1525 0.950 . S
H1522 C1518 0.950 . S
C1523 C1521 1.390 . S
C1523 C1524 1.387 . S
C1523 H1526 0.950 1_556 S
C1524 C1523 1.387 . S
C1524 C1527 1.387 . S
H1525 C1521 0.950 . S
H1526 C1523 0.950 1_554 S
C1527 C1518 1.390 . S
C1527 H1520 0.950 . S
C1527 C1524 1.387 . S
C1528 C1529 1.387 . S
C1528 H1532 0.950 . S
C1528 C1537 1.390 . S
C1529 C1528 1.387 . S
C1529 C1531 1.387 . S
H1530 C1537 0.950 1_554 S
C1531 C1529 1.387 . S
C1531 C1533 1.390 . S
C1531 H1535 0.950 . S
H1532 C1528 0.950 . S
C1533 C1531 1.390 . S
C1533 C1534 1.387 . S
C1533 H1536 0.950 . S
C1534 C1533 1.387 . S
C1534 C1537 1.387 . S
H1535 C1531 0.950 . S
H1536 C1533 0.950 . S
C1537 C1528 1.390 . S
C1537 H1530 0.950 1_556 S
C1537 C1534 1.387 . S
C1538 C1539 1.387 . S
C1538 H1542 0.950 . S
C1538 C1547 1.390 . S
C1539 C1538 1.387 . S
C1539 C1541 1.387 . S
H1540 C1547 0.950 . S
C1541 C1539 1.387 . S
C1541 C1543 1.390 . S
C1541 H1545 0.950 . S
H1542 C1538 0.950 . S
C1543 C1541 1.390 . S
C1543 C1544 1.387 . S
C1543 H1546 0.950 . S
C1544 C1543 1.387 . S
C1544 C1547 1.387 . S
H1545 C1541 0.950 . S
H1546 C1543 0.950 . S
C1547 C1538 1.390 . S
C1547 H1540 0.950 . S
C1547 C1544 1.387 . S
C1548 C1549 1.387 . S
C1548 H1552 0.950 . S
C1548 C1557 1.390 . S
C1549 C1548 1.387 . S
C1549 C1551 1.387 . S
H1550 C1557 0.950 . S
C1551 C1549 1.387 . S
C1551 C1553 1.390 . S
C1551 H1555 0.950 . S
H1552 C1548 0.950 . S
C1553 C1551 1.390 . S
C1553 C1554 1.387 . S
C1553 H1556 0.950 . S
C1554 C1553 1.387 . S
C1554 C1557 1.387 . S
H1555 C1551 0.950 . S
H1556 C1553 0.950 . S
C1557 C1548 1.390 . S
C1557 H1550 0.950 . S
C1557 C1554 1.387 . S
C1558 C1559 1.387 . S
C1558 H1562 0.950 . S
C1558 C1567 1.390 . S
C1559 C1558 1.387 . S
C1559 C1561 1.387 . S
H1560 C1567 0.950 . S
C1561 C1559 1.387 . S
C1561 C1563 1.390 . S
C1561 H1565 0.950 . S
H1562 C1558 0.950 . S
C1563 C1561 1.390 . S
C1563 C1564 1.387 . S
C1563 H1566 0.932 1_554 S
C1564 C1563 1.387 . S
C1564 C1567 1.387 . S
H1565 C1561 0.950 . S
H1566 C1563 0.932 1_556 S
C1567 C1558 1.390 . S
C1567 H1560 0.950 . S
C1567 C1564 1.387 . S
C1568 C1569 1.387 . S
C1568 H1572 0.950 . S
C1568 C1577 1.390 . S
C1569 C1568 1.387 . S
C1569 C1571 1.387 . S
H1570 C1577 0.950 . S
C1571 C1569 1.387 . S
C1571 C1573 1.390 . S
C1571 H1575 0.950 . S
H1572 C1568 0.950 . S
C1573 C1571 1.390 . S
C1573 C1574 1.387 . S
C1573 H1576 0.950 . S
C1574 C1573 1.387 . S
C1574 C1577 1.387 . S
H1575 C1571 0.950 . S
H1576 C1573 0.950 . S
C1577 C1568 1.390 . S
C1577 H1570 0.950 . S
C1577 C1574 1.387 . S
C1578 C1579 1.387 . S
C1578 H1582 0.950 . S
C1578 C1587 1.390 . S
C1579 C1578 1.387 . S
C1579 C1581 1.387 . S
H1580 C1587 0.950 . S
C1581 C1579 1.387 . S
C1581 C1583 1.390 . S
C1581 H1585 0.950 . S
H1582 C1578 0.950 . S
C1583 C1581 1.390 . S
C1583 C1584 1.387 . S
C1583 H1586 0.950 . S
C1584 C1583 1.387 . S
C1584 C1587 1.387 . S
H1585 C1581 0.950 . S
H1586 C1583 0.950 . S
C1587 C1578 1.390 . S
C1587 H1580 0.950 . S
C1587 C1584 1.387 . S
C1588 C1589 1.387 . S
C1588 H1592 0.950 . S
C1588 C1597 1.390 . S
C1589 C1588 1.387 . S
C1589 C1591 1.387 . S
H1590 C1597 0.950 . S
C1591 C1589 1.387 . S
C1591 C1593 1.390 . S
C1591 H1595 0.950 . S
H1592 C1588 0.950 . S
C1593 C1591 1.390 . S
C1593 C1594 1.387 . S
C1593 H1596 0.950 . S
C1594 C1593 1.387 . S
C1594 C1597 1.387 . S
H1595 C1591 0.950 . S
H1596 C1593 0.950 . S
C1597 C1588 1.390 . S
C1597 H1590 0.950 . S
C1597 C1594 1.387 . S
C1598 C1599 1.387 . S
C1598 H1602 0.950 . S
C1598 C1607 1.390 . S
C1599 C1598 1.387 . S
C1599 C1601 1.387 . S
H1600 C1607 0.950 . S
C1601 C1599 1.387 . S
C1601 C1603 1.390 . S
C1601 H1605 0.950 . S
H1602 C1598 0.950 . S
C1603 C1601 1.390 . S
C1603 C1604 1.387 . S
C1603 H1606 0.950 . S
C1604 C1603 1.387 . S
C1604 C1607 1.387 . S
H1605 C1601 0.950 . S
H1606 C1603 0.950 . S
C1607 C1598 1.390 . S
C1607 H1600 0.950 . S
C1607 C1604 1.387 . S
C1608 C1609 1.387 . S
C1608 H1612 0.950 . S
C1608 C1617 1.390 . S
C1609 C1608 1.387 . S
C1609 C1611 1.387 . S
H1610 C1617 0.950 . S
C1611 C1609 1.387 . S
C1611 C1613 1.390 . S
C1611 H1615 0.950 . S
H1612 C1608 0.950 . S
C1613 C1611 1.390 . S
C1613 C1614 1.387 . S
C1613 H1616 0.950 . S
C1614 C1613 1.387 . S
C1614 C1617 1.387 . S
H1615 C1611 0.950 . S
H1616 C1613 0.950 . S
C1617 C1608 1.390 . S
C1617 H1610 0.950 . S
C1617 C1614 1.387 . S
C1618 C1619 1.387 . S
C1618 H1622 0.950 . S
C1618 C1627 1.390 . S
C1619 C1618 1.387 . S
C1619 C1621 1.387 . S
H1620 C1627 0.950 . S
C1621 C1619 1.387 . S
C1621 C1623 1.390 . S
C1621 H1625 0.950 . S
H1622 C1618 0.950 . S
C1623 C1621 1.390 . S
C1623 C1624 1.387 . S
C1623 H1626 0.950 . S
C1624 C1623 1.387 . S
C1624 C1627 1.387 . S
H1625 C1621 0.950 . S
H1626 C1623 0.950 . S
C1627 C1618 1.390 . S
C1627 H1620 0.950 . S
C1627 C1624 1.387 . S
C1628 C1629 1.387 . S
C1628 H1632 0.950 . S
C1628 C1637 1.390 . S
C1629 C1628 1.387 . S
C1629 C1631 1.387 . S
H1630 C1637 0.950 . S
C1631 C1629 1.387 . S
C1631 C1633 1.390 . S
C1631 H1635 0.950 . S
H1632 C1628 0.950 . S
C1633 C1631 1.390 . S
C1633 C1634 1.387 . S
C1633 H1636 0.950 . S
C1634 C1633 1.387 . S
C1634 C1637 1.387 . S
H1635 C1631 0.950 . S
H1636 C1633 0.950 . S
C1637 C1628 1.390 . S
C1637 H1630 0.950 . S
C1637 C1634 1.387 . S
C1638 C1639 1.387 . S
C1638 H1642 0.950 . S
C1638 C1647 1.390 . S
C1639 C1638 1.387 . S
C1639 C1641 1.387 . S
H1640 C1647 0.950 . S
C1641 C1639 1.387 . S
C1641 C1643 1.390 . S
C1641 H1645 0.950 . S
H1642 C1638 0.950 . S
C1643 C1641 1.390 . S
C1643 C1644 1.387 . S
C1643 H1646 0.950 . S
C1644 C1643 1.387 . S
C1644 C1647 1.387 . S
H1645 C1641 0.950 . S
H1646 C1643 0.950 . S
C1647 C1638 1.390 . S
C1647 H1640 0.950 . S
C1647 C1644 1.387 . S
C1648 C1649 1.387 . S
C1648 H1652 0.950 . S
C1648 C1657 1.390 . S
C1649 C1648 1.387 . S
C1649 C1651 1.387 . S
H1650 C1657 0.950 . S
C1651 C1649 1.387 . S
C1651 C1653 1.390 . S
C1651 H1655 0.950 . S
H1652 C1648 0.950 . S
C1653 C1651 1.390 . S
C1653 C1654 1.387 . S
C1653 H1656 0.950 . S
C1654 C1653 1.387 . S
C1654 C1657 1.387 . S
H1655 C1651 0.950 . S
H1656 C1653 0.950 . S
C1657 C1648 1.390 . S
C1657 H1650 0.950 . S
C1657 C1654 1.387 . S
C1658 C1659 1.387 . S
C1658 H1662 0.950 . S
C1658 C1667 1.390 . S
C1659 C1658 1.387 . S
C1659 C1661 1.387 . S
H1660 C1667 0.950 . S
C1661 C1659 1.387 . S
C1661 C1663 1.390 . S
C1661 H1665 0.950 . S
H1662 C1658 0.950 . S
C1663 C1661 1.390 . S
C1663 C1664 1.387 . S
C1663 H1666 0.950 . S
C1664 C1663 1.387 . S
C1664 C1667 1.387 . S
H1665 C1661 0.950 . S
H1666 C1663 0.950 . S
C1667 C1658 1.390 . S
C1667 H1660 0.950 . S
C1667 C1664 1.387 . S
C1668 C1669 1.387 . S
C1668 H1672 0.950 . S
C1668 C1677 1.390 . S
C1669 C1668 1.387 . S
C1669 C1671 1.387 . S
H1670 C1677 0.950 . S
C1671 C1669 1.387 . S
C1671 C1673 1.390 . S
C1671 H1675 0.950 . S
H1672 C1668 0.950 . S
C1673 C1671 1.390 . S
C1673 C1674 1.387 . S
C1673 H1676 0.950 . S
C1674 C1673 1.387 . S
C1674 C1677 1.387 . S
H1675 C1671 0.950 . S
H1676 C1673 0.950 . S
C1677 C1668 1.390 . S
C1677 H1670 0.950 . S
C1677 C1674 1.387 . S
C1678 C1679 1.387 . S
C1678 H1682 0.950 . S
C1678 C1687 1.390 . S
C1679 C1678 1.387 . S
C1679 C1681 1.387 . S
H1680 C1687 0.950 . S
C1681 C1679 1.387 . S
C1681 C1683 1.390 . S
C1681 H1685 0.950 . S
H1682 C1678 0.950 . S
C1683 C1681 1.390 . S
C1683 C1684 1.387 . S
C1683 H1686 0.950 . S
C1684 C1683 1.387 . S
C1684 C1687 1.387 . S
H1685 C1681 0.950 . S
H1686 C1683 0.950 . S
C1687 C1678 1.390 . S
C1687 H1680 0.950 . S
C1687 C1684 1.387 . S
C1688 C1689 1.387 . S
C1688 H1692 0.950 . S
C1688 C1697 1.390 . S
C1689 C1688 1.387 . S
C1689 C1691 1.387 . S
H1690 C1697 0.950 . S
C1691 C1689 1.387 . S
C1691 C1693 1.390 . S
C1691 H1695 0.950 . S
H1692 C1688 0.950 . S
C1693 C1691 1.390 . S
C1693 C1694 1.387 . S
C1693 H1696 0.950 . S
C1694 C1693 1.387 . S
C1694 C1697 1.387 . S
H1695 C1691 0.950 . S
H1696 C1693 0.950 . S
C1697 C1688 1.390 . S
C1697 H1690 0.950 . S
C1697 C1694 1.387 . S
C1698 C1699 1.387 . S
C1698 H1702 0.950 . S
C1698 C1707 1.390 . S
C1699 C1698 1.387 . S
C1699 C1701 1.387 . S
H1700 C1707 0.950 . S
C1701 C1699 1.387 . S
C1701 C1703 1.390 . S
C1701 H1705 0.950 . S
H1702 C1698 0.950 . S
C1703 C1701 1.390 . S
C1703 C1704 1.387 . S
C1703 H1706 0.950 . S
C1704 C1703 1.387 . S
C1704 C1707 1.387 . S
H1705 C1701 0.950 . S
H1706 C1703 0.950 . S
C1707 C1698 1.390 . S
C1707 H1700 0.950 . S
C1707 C1704 1.387 . S
C1708 C1709 1.387 . S
C1708 H1712 0.950 . S
C1708 C1717 1.390 . S
C1709 C1708 1.387 . S
C1709 C1711 1.387 . S
H1710 C1717 0.950 . S
C1711 C1709 1.387 . S
C1711 C1713 1.390 . S
C1711 H1715 0.950 . S
H1712 C1708 0.950 . S
C1713 C1711 1.390 . S
C1713 C1714 1.387 . S
C1713 H1716 0.950 . S
C1714 C1713 1.387 . S
C1714 C1717 1.387 . S
H1715 C1711 0.950 . S
H1716 C1713 0.950 . S
C1717 C1708 1.390 . S
C1717 H1710 0.950 . S
C1717 C1714 1.387 . S
C1718 C1719 1.387 . S
C1718 H1722 0.950 . S
C1718 C1727 1.390 . S
C1719 C1718 1.387 . S
C1719 C1721 1.387 . S
H1720 C1727 0.950 . S
C1721 C1719 1.387 . S
C1721 C1723 1.390 . S
C1721 H1725 0.950 . S
H1722 C1718 0.950 . S
C1723 C1721 1.390 . S
C1723 C1724 1.387 . S
C1723 H1726 0.950 . S
C1724 C1723 1.387 . S
C1724 C1727 1.387 . S
H1725 C1721 0.950 . S
H1726 C1723 0.950 . S
C1727 C1718 1.390 . S
C1727 H1720 0.950 . S
C1727 C1724 1.387 . S
C1728 C1729 1.387 . S
C1728 H1732 0.950 . S
C1728 C1737 1.390 . S
C1729 C1728 1.387 . S
C1729 C1731 1.387 . S
H1730 C1737 0.950 . S
C1731 C1729 1.387 . S
C1731 C1733 1.390 . S
C1731 H1735 0.950 . S
H1732 C1728 0.950 . S
C1733 C1731 1.390 . S
C1733 C1734 1.387 . S
C1733 H1736 0.950 . S
C1734 C1733 1.387 . S
C1734 C1737 1.387 . S
H1735 C1731 0.950 . S
H1736 C1733 0.950 . S
C1737 C1728 1.390 . S
C1737 H1730 0.950 . S
C1737 C1734 1.387 . S
C1738 C1739 1.387 . S
C1738 H1742 0.950 . S
C1738 C1747 1.390 . S
C1739 C1738 1.387 . S
C1739 C1741 1.387 . S
H1740 C1747 0.950 . S
C1741 C1739 1.387 . S
C1741 C1743 1.390 . S
C1741 H1745 0.950 . S
H1742 C1738 0.950 . S
C1743 C1741 1.390 . S
C1743 C1744 1.387 . S
C1743 H1746 0.950 . S
C1744 C1743 1.387 . S
C1744 C1747 1.387 . S
H1745 C1741 0.950 . S
H1746 C1743 0.950 . S
C1747 C1738 1.390 . S
C1747 H1740 0.950 . S
C1747 C1744 1.387 . S
C1748 C1749 1.387 . S
C1748 H1752 0.950 . S
C1748 C1757 1.390 . S
C1749 C1748 1.387 . S
C1749 C1751 1.387 . S
H1750 C1757 0.950 . S
C1751 C1749 1.387 . S
C1751 C1753 1.390 . S
C1751 H1755 0.950 . S
H1752 C1748 0.950 . S
C1753 C1751 1.390 . S
C1753 C1754 1.387 . S
C1753 H1756 0.950 . S
C1754 C1753 1.387 . S
C1754 C1757 1.387 . S
H1755 C1751 0.950 . S
H1756 C1753 0.950 . S
C1757 C1748 1.390 . S
C1757 H1750 0.950 . S
C1757 C1754 1.387 . S
C1758 C1759 1.387 . S
C1758 H1762 0.950 . S
C1758 C1767 1.390 . S
C1759 C1758 1.387 . S
C1759 C1761 1.387 . S
H1760 C1767 0.950 . S
C1761 C1759 1.387 . S
C1761 C1763 1.390 . S
C1761 H1765 0.950 . S
H1762 C1758 0.950 . S
C1763 C1761 1.390 . S
C1763 C1764 1.387 . S
C1763 H1766 0.950 . S
C1764 C1763 1.387 . S
C1764 C1767 1.387 . S
H1765 C1761 0.950 . S
H1766 C1763 0.950 . S
C1767 C1758 1.390 . S
C1767 H1760 0.950 . S
C1767 C1764 1.387 . S
C1768 C1769 1.387 . S
C1768 H1772 0.950 . S
C1768 C1777 1.390 . S
C1769 C1768 1.387 . S
C1769 C1771 1.387 . S
H1770 C1777 0.950 . S
C1771 C1769 1.387 . S
C1771 C1773 1.390 . S
C1771 H1775 0.950 . S
H1772 C1768 0.950 . S
C1773 C1771 1.390 . S
C1773 C1774 1.387 . S
C1773 H1776 0.950 . S
C1774 C1773 1.387 . S
C1774 C1777 1.387 . S
H1775 C1771 0.950 . S
H1776 C1773 0.950 . S
C1777 C1768 1.390 . S
C1777 H1770 0.950 . S
C1777 C1774 1.387 . S
C1778 C1779 1.387 . S
C1778 H1782 0.950 . S
C1778 C1787 1.390 . S
C1779 C1778 1.387 . S
C1779 C1781 1.387 . S
H1780 C1787 0.950 . S
C1781 C1779 1.387 . S
C1781 C1783 1.390 . S
C1781 H1785 0.950 . S
H1782 C1778 0.950 . S
C1783 C1781 1.390 . S
C1783 C1784 1.387 . S
C1783 H1786 0.950 . S
C1784 C1783 1.387 . S
C1784 C1787 1.387 . S
H1785 C1781 0.950 . S
H1786 C1783 0.950 . S
C1787 C1778 1.390 . S
C1787 H1780 0.950 . S
C1787 C1784 1.387 . S
C1788 C1789 1.387 . S
C1788 H1792 0.950 . S
C1788 C1797 1.390 . S
C1789 C1788 1.387 . S
C1789 C1791 1.387 . S
H1790 C1797 0.950 . S
C1791 C1789 1.387 . S
C1791 C1793 1.390 . S
C1791 H1795 0.950 . S
H1792 C1788 0.950 . S
C1793 C1791 1.390 . S
C1793 C1794 1.387 . S
C1793 H1796 0.950 . S
C1794 C1793 1.387 . S
C1794 C1797 1.387 . S
H1795 C1791 0.950 . S
H1796 C1793 0.950 . S
C1797 C1788 1.390 . S
C1797 H1790 0.950 . S
C1797 C1794 1.387 . S
C1798 C1799 1.387 . S
C1798 H1802 0.950 . S
C1798 C1807 1.390 . S
C1799 C1798 1.387 . S
C1799 C1801 1.387 . S
H1800 C1807 0.950 . S
C1801 C1799 1.387 . S
C1801 C1803 1.390 . S
C1801 H1805 0.950 . S
H1802 C1798 0.950 . S
C1803 C1801 1.390 . S
C1803 C1804 1.387 . S
C1803 H1806 0.950 . S
C1804 C1803 1.387 . S
C1804 C1807 1.387 . S
H1805 C1801 0.950 . S
H1806 C1803 0.950 . S
C1807 C1798 1.390 . S
C1807 H1800 0.950 . S
C1807 C1804 1.387 . S
C1808 C1809 1.387 . S
C1808 H1812 0.950 . S
C1808 C1817 1.390 . S
C1809 C1808 1.387 . S
C1809 C1811 1.387 . S
H1810 C1817 0.950 . S
C1811 C1809 1.387 . S
C1811 C1813 1.390 . S
C1811 H1815 0.950 . S
H1812 C1808 0.950 . S
C1813 C1811 1.390 . S
C1813 C1814 1.387 . S
C1813 H1816 0.950 . S
C1814 C1813 1.387 . S
C1814 C1817 1.387 . S
H1815 C1811 0.950 . S
H1816 C1813 0.950 . S
C1817 C1808 1.390 . S
C1817 H1810 0.950 . S
C1817 C1814 1.387 . S
C1818 C1819 1.387 . S
C1818 H1822 0.950 . S
C1818 C1827 1.390 . S
C1819 C1818 1.387 . S
C1819 C1821 1.387 . S
H1820 C1827 0.950 . S
C1821 C1819 1.387 . S
C1821 C1823 1.390 . S
C1821 H1825 0.950 . S
H1822 C1818 0.950 . S
C1823 C1821 1.390 . S
C1823 C1824 1.387 . S
C1823 H1826 0.950 . S
C1824 C1823 1.387 . S
C1824 C1827 1.387 . S
H1825 C1821 0.950 . S
H1826 C1823 0.950 . S
C1827 C1818 1.390 . S
C1827 H1820 0.950 . S
C1827 C1824 1.387 . S
C1828 C1829 1.387 . S
C1828 H1832 0.950 . S
C1828 C1837 1.390 . S
C1829 C1828 1.387 . S
C1829 C1831 1.387 . S
H1830 C1837 0.950 . S
C1831 C1829 1.387 . S
C1831 C1833 1.390 . S
C1831 H1835 0.950 1_455 S
H1832 C1828 0.950 . S
C1833 C1831 1.390 . S
C1833 C1834 1.387 . S
C1833 H1836 0.950 1_455 S
C1834 C1833 1.387 . S
C1834 C1837 1.387 . S
H1835 C1831 0.950 1_655 S
H1836 C1833 0.950 1_655 S
C1837 C1828 1.390 . S
C1837 H1830 0.950 . S
C1837 C1834 1.387 . S
C1838 C1839 1.387 . S
C1838 H1842 0.950 . S
C1838 C1847 1.390 . S
C1839 C1838 1.387 . S
C1839 C1841 1.387 . S
H1840 C1847 0.950 . S
C1841 C1839 1.387 . S
C1841 C1843 1.390 . S
C1841 H1845 0.950 . S
H1842 C1838 0.950 . S
C1843 C1841 1.390 . S
C1843 C1844 1.387 . S
C1843 H1846 0.950 . S
C1844 C1843 1.387 . S
C1844 C1847 1.387 . S
H1845 C1841 0.950 . S
H1846 C1843 0.950 . S
C1847 C1838 1.390 . S
C1847 H1840 0.950 . S
C1847 C1844 1.387 . S
C1848 C1849 1.387 . S
C1848 H1852 0.950 . S
C1848 C1857 1.390 . S
C1849 C1848 1.387 . S
C1849 C1851 1.387 . S
H1850 C1857 0.950 . S
C1851 C1849 1.387 . S
C1851 C1853 1.390 . S
C1851 H1855 0.950 . S
H1852 C1848 0.950 . S
C1853 C1851 1.390 . S
C1853 C1854 1.387 . S
C1853 H1856 0.950 . S
C1854 C1853 1.387 . S
C1854 C1857 1.387 . S
H1855 C1851 0.950 . S
H1856 C1853 0.950 . S
C1857 C1848 1.390 . S
C1857 H1850 0.950 . S
C1857 C1854 1.387 . S
C1858 C1859 1.387 . S
C1858 H1862 0.950 . S
C1858 C1867 1.390 . S
C1859 C1858 1.387 . S
C1859 C1861 1.387 . S
H1860 C1867 0.950 . S
C1861 C1859 1.387 . S
C1861 C1863 1.390 . S
C1861 H1865 0.950 . S
H1862 C1858 0.950 . S
C1863 C1861 1.390 . S
C1863 C1864 1.387 . S
C1863 H1866 0.950 . S
C1864 C1863 1.387 . S
C1864 C1867 1.387 . S
H1865 C1861 0.950 . S
H1866 C1863 0.950 . S
C1867 C1858 1.390 . S
C1867 H1860 0.950 . S
C1867 C1864 1.387 . S
C1868 C1869 1.387 . S
C1868 H1872 0.950 . S
C1868 C1877 1.390 . S
C1869 C1868 1.387 . S
C1869 C1871 1.387 . S
H1870 C1877 0.950 1_565 S
C1871 C1869 1.387 . S
C1871 C1873 1.390 . S
C1871 H1875 0.950 . S
H1872 C1868 0.950 . S
C1873 C1871 1.390 . S
C1873 C1874 1.387 . S
C1873 H1876 0.950 . S
C1874 C1873 1.387 . S
C1874 C1877 1.387 . S
H1875 C1871 0.950 . S
H1876 C1873 0.950 . S
C1877 C1868 1.390 . S
C1877 H1870 0.950 1_545 S
C1877 C1874 1.387 . S
C1878 C1879 1.387 . S
C1878 H1882 0.950 . S
C1878 C1887 1.390 . S
C1879 C1878 1.387 . S
C1879 C1881 1.387 . S
H1880 C1887 0.950 . S
C1881 C1879 1.387 . S
C1881 C1883 1.390 . S
C1881 H1885 0.950 . S
H1882 C1878 0.950 . S
C1883 C1881 1.390 . S
C1883 C1884 1.387 . S
C1883 H1886 0.950 . S
C1884 C1883 1.387 . S
C1884 C1887 1.387 . S
H1885 C1881 0.950 . S
H1886 C1883 0.950 . S
C1887 C1878 1.390 . S
C1887 H1880 0.950 . S
C1887 C1884 1.387 . S
C1888 C1889 1.387 . S
C1888 H1892 0.950 . S
C1888 C1897 1.390 . S
C1889 C1888 1.387 . S
C1889 C1891 1.387 . S
H1890 C1897 0.950 . S
C1891 C1889 1.387 . S
C1891 C1893 1.390 . S
C1891 H1895 0.950 . S
H1892 C1888 0.950 . S
C1893 C1891 1.390 . S
C1893 C1894 1.387 . S
C1893 H1896 0.950 . S
C1894 C1893 1.387 . S
C1894 C1897 1.387 . S
H1895 C1891 0.950 . S
H1896 C1893 0.950 . S
C1897 C1888 1.390 . S
C1897 H1890 0.950 . S
C1897 C1894 1.387 . S
C1898 C1899 1.387 . S
C1898 H1902 0.950 . S
C1898 C1907 1.390 . S
C1899 C1898 1.387 . S
C1899 C1901 1.387 . S
H1900 C1907 0.950 . S
C1901 C1899 1.387 . S
C1901 C1903 1.390 . S
C1901 H1905 0.950 . S
H1902 C1898 0.950 . S
C1903 C1901 1.390 . S
C1903 C1904 1.387 . S
C1903 H1906 0.950 . S
C1904 C1903 1.387 . S
C1904 C1907 1.387 . S
H1905 C1901 0.950 . S
H1906 C1903 0.950 . S
C1907 C1898 1.390 . S
C1907 H1900 0.950 . S
C1907 C1904 1.387 . S
C1908 C1909 1.387 . S
C1908 H1912 0.950 . S
C1908 C1917 1.390 . S
C1909 C1908 1.387 . S
C1909 C1911 1.387 . S
H1910 C1917 0.950 . S
C1911 C1909 1.387 . S
C1911 C1913 1.390 . S
C1911 H1915 0.950 . S
H1912 C1908 0.950 . S
C1913 C1911 1.390 . S
C1913 C1914 1.387 . S
C1913 H1916 0.950 . S
C1914 C1913 1.387 . S
C1914 C1917 1.387 . S
H1915 C1911 0.950 . S
H1916 C1913 0.950 . S
C1917 C1908 1.390 . S
C1917 H1910 0.950 . S
C1917 C1914 1.387 . S
C1918 C1919 1.387 . S
C1918 H1922 0.950 . S
C1918 C1927 1.390 . S
C1919 C1918 1.387 . S
C1919 C1921 1.387 . S
H1920 C1927 0.950 . S
C1921 C1919 1.387 . S
C1921 C1923 1.390 . S
C1921 H1925 0.950 . S
H1922 C1918 0.950 . S
C1923 C1921 1.390 . S
C1923 C1924 1.387 . S
C1923 H1926 0.950 . S
C1924 C1923 1.387 . S
C1924 C1927 1.387 . S
H1925 C1921 0.950 . S
H1926 C1923 0.950 . S
C1927 C1918 1.390 . S
C1927 H1920 0.950 . S
C1927 C1924 1.387 . S
C1928 C1929 1.387 . S
C1928 H1932 0.950 . S
C1928 C1937 1.390 . S
C1929 C1928 1.387 . S
C1929 C1931 1.387 . S
H1930 C1937 0.950 . S
C1931 C1929 1.387 . S
C1931 C1933 1.390 . S
C1931 H1935 0.950 . S
H1932 C1928 0.950 . S
C1933 C1931 1.390 . S
C1933 C1934 1.387 . S
C1933 H1936 0.950 . S
C1934 C1933 1.387 . S
C1934 C1937 1.387 . S
H1935 C1931 0.950 . S
H1936 C1933 0.950 . S
C1937 C1928 1.390 . S
C1937 H1930 0.950 . S
C1937 C1934 1.387 . S
C1938 C1939 1.387 . S
C1938 H1942 0.950 . S
C1938 C1947 1.390 . S
C1939 C1938 1.387 . S
C1939 C1941 1.387 . S
H1940 C1947 0.950 . S
C1941 C1939 1.387 . S
C1941 C1943 1.390 . S
C1941 H1945 0.950 . S
H1942 C1938 0.950 . S
C1943 C1941 1.390 . S
C1943 C1944 1.387 . S
C1943 H1946 0.950 . S
C1944 C1943 1.387 . S
C1944 C1947 1.387 . S
H1945 C1941 0.950 . S
H1946 C1943 0.950 . S
C1947 C1938 1.390 . S
C1947 H1940 0.950 . S
C1947 C1944 1.387 . S
C1948 C1949 1.387 . S
C1948 H1952 0.950 . S
C1948 C1957 1.390 . S
C1949 C1948 1.387 . S
C1949 C1951 1.387 . S
H1950 C1957 0.950 . S
C1951 C1949 1.387 . S
C1951 C1953 1.390 . S
C1951 H1955 0.950 . S
H1952 C1948 0.950 . S
C1953 C1951 1.390 . S
C1953 C1954 1.387 . S
C1953 H1956 0.950 . S
C1954 C1953 1.387 . S
C1954 C1957 1.387 . S
H1955 C1951 0.950 . S
H1956 C1953 0.950 . S
C1957 C1948 1.390 . S
C1957 H1950 0.950 . S
C1957 C1954 1.387 . S
C1958 C1959 1.387 . S
C1958 H1962 0.950 . S
C1958 C1967 1.390 . S
C1959 C1958 1.387 . S
C1959 C1961 1.387 . S
H1960 C1967 0.950 . S
C1961 C1959 1.387 . S
C1961 C1963 1.390 . S
C1961 H1965 0.950 . S
H1962 C1958 0.950 . S
C1963 C1961 1.390 . S
C1963 C1964 1.387 . S
C1963 H1966 0.950 . S
C1964 C1963 1.387 . S
C1964 C1967 1.387 . S
H1965 C1961 0.950 . S
H1966 C1963 0.950 . S
C1967 C1958 1.390 . S
C1967 H1960 0.950 . S
C1967 C1964 1.387 . S
C1968 C1969 1.387 . S
C1968 H1972 0.950 . S
C1968 C1977 1.390 . S
C1969 C1968 1.387 . S
C1969 C1971 1.387 . S
H1970 C1977 0.950 . S
C1971 C1969 1.387 . S
C1971 C1973 1.390 . S
C1971 H1975 0.950 . S
H1972 C1968 0.950 . S
C1973 C1971 1.390 . S
C1973 C1974 1.387 . S
C1973 H1976 0.950 . S
C1974 C1973 1.387 . S
C1974 C1977 1.387 . S
H1975 C1971 0.950 . S
H1976 C1973 0.950 . S
C1977 C1968 1.390 . S
C1977 H1970 0.950 . S
C1977 C1974 1.387 . S
C1978 C1979 1.387 . S
C1978 H1982 0.950 . S
C1978 C1987 1.390 . S
C1979 C1978 1.387 . S
C1979 C1981 1.387 . S
H1980 C1987 0.950 . S
C1981 C1979 1.387 . S
C1981 C1983 1.390 . S
C1981 H1985 0.950 . S
H1982 C1978 0.950 . S
C1983 C1981 1.390 . S
C1983 C1984 1.387 . S
C1983 H1986 0.950 . S
C1984 C1983 1.387 . S
C1984 C1987 1.387 . S
H1985 C1981 0.950 . S
H1986 C1983 0.950 . S
C1987 C1978 1.390 . S
C1987 H1980 0.950 . S
C1987 C1984 1.387 . S
C1988 C1989 1.387 . S
C1988 H1992 0.950 . S
C1988 C1997 1.390 . S
C1989 C1988 1.387 . S
C1989 C1991 1.387 . S
H1990 C1997 0.950 . S
C1991 C1989 1.387 . S
C1991 C1993 1.390 . S
C1991 H1995 0.950 . S
H1992 C1988 0.950 . S
C1993 C1991 1.390 . S
C1993 C1994 1.387 . S
C1993 H1996 0.950 . S
C1994 C1993 1.387 . S
C1994 C1997 1.387 . S
H1995 C1991 0.950 . S
H1996 C1993 0.950 . S
C1997 C1988 1.390 . S
C1997 H1990 0.950 . S
C1997 C1994 1.387 . S
C1459 C528 1.462 . S
C1464 C758 1.384 . S
C1469 C562 1.512 . S
C1474 C842 1.438 . S
C1479 C484 1.510 . S
C1484 C936 1.452 . S
C1489 C445 1.467 . S
C1494 C852 1.414 . S
C1504 C926 1.381 . S
C1499 C367 1.461 . S
C1509 C411 1.449 . S
C1514 C768 1.390 . S
C1524 C769 1.400 . S
C1519 C450 1.471 . S
C1534 C853 1.430 . S
C1529 C372 1.495 . S
C1539 C406 1.507 . S
C1544 C945 1.451 . S
C1549 C523 1.464 . S
C1554 C861 1.413 . S
C1559 C567 1.442 . S
C1564 C937 1.368 . S
C1574 C777 1.406 . S
C1569 C489 1.457 . S
C1584 C1010 1.386 . S
C1579 C60 1.462 1_455 S
C1589 C94 1.513 . S
C1594 C1094 1.439 . S
C1599 C16 1.512 1_565 S
C1604 C1188 1.455 . S
C1609 C679 1.467 . S
C1614 C1104 1.414 . S
C1619 C601 1.461 . S
C1624 C1178 1.380 . S
C1629 C645 1.449 . S
C1634 C1020 1.391 . S
C1639 C684 1.471 . S
C1644 C1021 1.401 . S
C1649 C606 1.495 . S
C1654 C1105 1.430 . S
C1664 C1197 1.452 . S
C1659 C640 1.508 . S
C1669 C55 1.464 1_565 S
C1674 C1113 1.413 . S
C1684 C1189 1.368 . S
C1679 C99 1.443 1_455 S
C1689 C21 1.457 . S
C1694 C1029 1.406 . S
C1704 C1262 1.386 . S
C1699 C294 1.461 . S
C1709 C328 1.512 . S
C1714 C1346 1.438 . S
C1724 C1440 1.453 . S
C1719 C250 1.511 . S
C1734 C1356 1.415 . S
C1729 C211 1.467 1_545 S
C1744 C1430 1.384 . S
C1739 C133 1.462 1_655 S
C1749 C177 1.447 . S
C1754 C1272 1.387 . S
C1759 C216 1.471 1_655 S
C1764 C1273 1.402 . S
C1769 C138 1.495 . S
C1774 C1357 1.430 . S
C1784 C1449 1.452 . S
C1779 C172 1.508 1_545 S
C1789 C289 1.466 . S
C1794 C1365 1.416 . S
C1799 C333 1.443 . S
C1804 C1441 1.368 . S
C1809 C255 1.458 . S
C1814 C1281 1.407 . S
C1819 C586 1.491 . S
C1824 C765 1.385 . S
C1834 C849 1.360 . S
C1829 C625 1.507 . S
C1839 C664 1.495 . S
C1844 C942 1.362 . S
C1849 C235 1.516 . S
C1854 C858 1.366 . S
C1859 C274 1.484 . S
C1864 C933 1.353 . S
C1874 C774 1.384 . S
C1869 C313 1.491 . S
C1879 C118 1.491 . S
C1884 C1017 1.381 . S
C1889 C157 1.507 . S
C1894 C1101 1.363 . S
C1899 C196 1.495 . S
C1904 C1194 1.362 . S
C1909 C469 1.517 . S
C1914 C1110 1.370 . S
C1924 C1185 1.357 . S
C1919 C508 1.484 . S
C1929 C547 1.491 . S
C1934 C1026 1.383 . S
C1939 C352 1.491 . S
C1944 C1269 1.381 . S
C1949 C391 1.507 . S
C1954 C1353 1.362 . S
C1964 C1446 1.364 . S
C1959 C430 1.495 . S
C1969 C1 1.517 . S
C1974 C1362 1.370 . S
C1979 C40 1.484 . S
C1984 C1437 1.358 . S
C1989 C79 1.491 . S
C1994 C1278 1.383 . S
