# Generated by pormake.
# Topology ptr, (4,4)-cn, num edge types: 1
# Building blocks:
#     Node 0, Type 0, BuildingBlock: UXUYUI_clean_sbu_0, # of connection points: 4
#     Node 1, Type 0, BuildingBlock: UXUYUI_clean_sbu_0, # of connection points: 4
#     Node 2, Type 0, BuildingBlock: UXUYUI_clean_sbu_0, # of connection points: 4
#     Node 3, Type 0, BuildingBlock: UXUYUI_clean_sbu_0, # of connection points: 4
#     Node 4, Type 0, BuildingBlock: UXUYUI_clean_sbu_0, # of connection points: 4
#     Node 5, Type 0, BuildingBlock: UXUYUI_clean_sbu_0, # of connection points: 4
#     Node 6, Type 0, BuildingBlock: UXUYUI_clean_sbu_0, # of connection points: 4
#     Node 7, Type 0, BuildingBlock: UXUYUI_clean_sbu_0, # of connection points: 4
#     Node 8, Type 0, BuildingBlock: UXUYUI_clean_sbu_0, # of connection points: 4
#     Node 9, Type 0, BuildingBlock: UXUYUI_clean_sbu_0, # of connection points: 4
#     Node 10, Type 0, BuildingBlock: UXUYUI_clean_sbu_0, # of connection points: 4
#     Node 11, Type 0, BuildingBlock: UXUYUI_clean_sbu_0, # of connection points: 4
#     Node 12, Type 0, BuildingBlock: UXUYUI_clean_sbu_0, # of connection points: 4
#     Node 13, Type 0, BuildingBlock: UXUYUI_clean_sbu_0, # of connection points: 4
#     Node 14, Type 0, BuildingBlock: UXUYUI_clean_sbu_0, # of connection points: 4
#     Node 15, Type 0, BuildingBlock: UXUYUI_clean_sbu_0, # of connection points: 4
#     Node 16, Type 0, BuildingBlock: UXUYUI_clean_sbu_0, # of connection points: 4
#     Node 17, Type 0, BuildingBlock: UXUYUI_clean_sbu_0, # of connection points: 4
#     Node 18, Type 1, BuildingBlock: MUDLON_clean_linker_0, # of connection points: 4
#     Node 19, Type 1, BuildingBlock: MUDLON_clean_linker_0, # of connection points: 4
#     Node 20, Type 1, BuildingBlock: MUDLON_clean_linker_0, # of connection points: 4
#     Node 21, Type 1, BuildingBlock: MUDLON_clean_linker_0, # of connection points: 4
#     Node 22, Type 1, BuildingBlock: MUDLON_clean_linker_0, # of connection points: 4
#     Node 23, Type 1, BuildingBlock: MUDLON_clean_linker_0, # of connection points: 4
#     Node 24, Type 1, BuildingBlock: MUDLON_clean_linker_0, # of connection points: 4
#     Node 25, Type 1, BuildingBlock: MUDLON_clean_linker_0, # of connection points: 4
#     Node 26, Type 1, BuildingBlock: MUDLON_clean_linker_0, # of connection points: 4
#     Node 27, Type 1, BuildingBlock: MUDLON_clean_linker_0, # of connection points: 4
#     Node 28, Type 1, BuildingBlock: MUDLON_clean_linker_0, # of connection points: 4
#     Node 29, Type 1, BuildingBlock: MUDLON_clean_linker_0, # of connection points: 4
#     Node 30, Type 1, BuildingBlock: MUDLON_clean_linker_0, # of connection points: 4
#     Node 31, Type 1, BuildingBlock: MUDLON_clean_linker_0, # of connection points: 4
#     Node 32, Type 1, BuildingBlock: MUDLON_clean_linker_0, # of connection points: 4
#     Node 33, Type 1, BuildingBlock: MUDLON_clean_linker_0, # of connection points: 4
#     Node 34, Type 1, BuildingBlock: MUDLON_clean_linker_0, # of connection points: 4
#     Node 35, Type 1, BuildingBlock: MUDLON_clean_linker_0, # of connection points: 4
#     Edge 36, Type (0, 1), BuildingBlock: UVAHIK_clean_linker_0, # of connection points: 2
#     Edge 37, Type (0, 1), BuildingBlock: UVAHIK_clean_linker_0, # of connection points: 2
#     Edge 38, Type (0, 1), BuildingBlock: UVAHIK_clean_linker_0, # of connection points: 2
#     Edge 39, Type (0, 1), BuildingBlock: UVAHIK_clean_linker_0, # of connection points: 2
#     Edge 40, Type (0, 1), BuildingBlock: UVAHIK_clean_linker_0, # of connection points: 2
#     Edge 41, Type (0, 1), BuildingBlock: UVAHIK_clean_linker_0, # of connection points: 2
#     Edge 42, Type (0, 1), BuildingBlock: UVAHIK_clean_linker_0, # of connection points: 2
#     Edge 43, Type (0, 1), BuildingBlock: UVAHIK_clean_linker_0, # of connection points: 2
#     Edge 44, Type (0, 1), BuildingBlock: UVAHIK_clean_linker_0, # of connection points: 2
#     Edge 45, Type (0, 1), BuildingBlock: UVAHIK_clean_linker_0, # of connection points: 2
#     Edge 46, Type (0, 1), BuildingBlock: UVAHIK_clean_linker_0, # of connection points: 2
#     Edge 47, Type (0, 1), BuildingBlock: UVAHIK_clean_linker_0, # of connection points: 2
#     Edge 48, Type (0, 1), BuildingBlock: UVAHIK_clean_linker_0, # of connection points: 2
#     Edge 49, Type (0, 1), BuildingBlock: UVAHIK_clean_linker_0, # of connection points: 2
#     Edge 50, Type (0, 1), BuildingBlock: UVAHIK_clean_linker_0, # of connection points: 2
#     Edge 51, Type (0, 1), BuildingBlock: UVAHIK_clean_linker_0, # of connection points: 2
#     Edge 52, Type (0, 1), BuildingBlock: UVAHIK_clean_linker_0, # of connection points: 2
#     Edge 53, Type (0, 1), BuildingBlock: UVAHIK_clean_linker_0, # of connection points: 2
#     Edge 54, Type (0, 1), BuildingBlock: UVAHIK_clean_linker_0, # of connection points: 2
#     Edge 55, Type (0, 1), BuildingBlock: UVAHIK_clean_linker_0, # of connection points: 2
#     Edge 56, Type (0, 1), BuildingBlock: UVAHIK_clean_linker_0, # of connection points: 2
#     Edge 57, Type (0, 1), BuildingBlock: UVAHIK_clean_linker_0, # of connection points: 2
#     Edge 58, Type (0, 1), BuildingBlock: UVAHIK_clean_linker_0, # of connection points: 2
#     Edge 59, Type (0, 1), BuildingBlock: UVAHIK_clean_linker_0, # of connection points: 2
#     Edge 60, Type (0, 1), BuildingBlock: UVAHIK_clean_linker_0, # of connection points: 2
#     Edge 61, Type (0, 1), BuildingBlock: UVAHIK_clean_linker_0, # of connection points: 2
#     Edge 62, Type (0, 1), BuildingBlock: UVAHIK_clean_linker_0, # of connection points: 2
#     Edge 63, Type (0, 1), BuildingBlock: UVAHIK_clean_linker_0, # of connection points: 2
#     Edge 64, Type (0, 1), BuildingBlock: UVAHIK_clean_linker_0, # of connection points: 2
#     Edge 65, Type (0, 1), BuildingBlock: UVAHIK_clean_linker_0, # of connection points: 2
#     Edge 66, Type (0, 1), BuildingBlock: UVAHIK_clean_linker_0, # of connection points: 2
#     Edge 67, Type (0, 1), BuildingBlock: UVAHIK_clean_linker_0, # of connection points: 2
#     Edge 68, Type (0, 1), BuildingBlock: UVAHIK_clean_linker_0, # of connection points: 2
#     Edge 69, Type (0, 1), BuildingBlock: UVAHIK_clean_linker_0, # of connection points: 2
#     Edge 70, Type (0, 1), BuildingBlock: UVAHIK_clean_linker_0, # of connection points: 2
#     Edge 71, Type (0, 1), BuildingBlock: UVAHIK_clean_linker_0, # of connection points: 2
#     Edge 72, Type (0, 1), BuildingBlock: UVAHIK_clean_linker_0, # of connection points: 2
#     Edge 73, Type (0, 1), BuildingBlock: UVAHIK_clean_linker_0, # of connection points: 2
#     Edge 74, Type (0, 1), BuildingBlock: UVAHIK_clean_linker_0, # of connection points: 2
#     Edge 75, Type (0, 1), BuildingBlock: UVAHIK_clean_linker_0, # of connection points: 2
#     Edge 76, Type (0, 1), BuildingBlock: UVAHIK_clean_linker_0, # of connection points: 2
#     Edge 77, Type (0, 1), BuildingBlock: UVAHIK_clean_linker_0, # of connection points: 2
#     Edge 78, Type (0, 1), BuildingBlock: UVAHIK_clean_linker_0, # of connection points: 2
#     Edge 79, Type (0, 1), BuildingBlock: UVAHIK_clean_linker_0, # of connection points: 2
#     Edge 80, Type (0, 1), BuildingBlock: UVAHIK_clean_linker_0, # of connection points: 2
#     Edge 81, Type (0, 1), BuildingBlock: UVAHIK_clean_linker_0, # of connection points: 2
#     Edge 82, Type (0, 1), BuildingBlock: UVAHIK_clean_linker_0, # of connection points: 2
#     Edge 83, Type (0, 1), BuildingBlock: UVAHIK_clean_linker_0, # of connection points: 2
#     Edge 84, Type (0, 1), BuildingBlock: UVAHIK_clean_linker_0, # of connection points: 2
#     Edge 85, Type (0, 1), BuildingBlock: UVAHIK_clean_linker_0, # of connection points: 2
#     Edge 86, Type (0, 1), BuildingBlock: UVAHIK_clean_linker_0, # of connection points: 2
#     Edge 87, Type (0, 1), BuildingBlock: UVAHIK_clean_linker_0, # of connection points: 2
#     Edge 88, Type (0, 1), BuildingBlock: UVAHIK_clean_linker_0, # of connection points: 2
#     Edge 89, Type (0, 1), BuildingBlock: UVAHIK_clean_linker_0, # of connection points: 2
#     Edge 90, Type (0, 1), BuildingBlock: UVAHIK_clean_linker_0, # of connection points: 2
#     Edge 91, Type (0, 1), BuildingBlock: UVAHIK_clean_linker_0, # of connection points: 2
#     Edge 92, Type (0, 1), BuildingBlock: UVAHIK_clean_linker_0, # of connection points: 2
#     Edge 93, Type (0, 1), BuildingBlock: UVAHIK_clean_linker_0, # of connection points: 2
#     Edge 94, Type (0, 1), BuildingBlock: UVAHIK_clean_linker_0, # of connection points: 2
#     Edge 95, Type (0, 1), BuildingBlock: UVAHIK_clean_linker_0, # of connection points: 2
#     Edge 96, Type (0, 1), BuildingBlock: UVAHIK_clean_linker_0, # of connection points: 2
#     Edge 97, Type (0, 1), BuildingBlock: UVAHIK_clean_linker_0, # of connection points: 2
#     Edge 98, Type (0, 1), BuildingBlock: UVAHIK_clean_linker_0, # of connection points: 2
#     Edge 99, Type (0, 1), BuildingBlock: UVAHIK_clean_linker_0, # of connection points: 2
#     Edge 100, Type (0, 1), BuildingBlock: UVAHIK_clean_linker_0, # of connection points: 2
#     Edge 101, Type (0, 1), BuildingBlock: UVAHIK_clean_linker_0, # of connection points: 2
#     Edge 102, Type (0, 1), BuildingBlock: UVAHIK_clean_linker_0, # of connection points: 2
#     Edge 103, Type (0, 1), BuildingBlock: UVAHIK_clean_linker_0, # of connection points: 2
#     Edge 104, Type (0, 1), BuildingBlock: UVAHIK_clean_linker_0, # of connection points: 2
#     Edge 105, Type (0, 1), BuildingBlock: UVAHIK_clean_linker_0, # of connection points: 2
#     Edge 106, Type (0, 1), BuildingBlock: UVAHIK_clean_linker_0, # of connection points: 2
#     Edge 107, Type (0, 1), BuildingBlock: UVAHIK_clean_linker_0, # of connection points: 2
# Relax obj value: 0.080
# Max RMSD: 0.220
# Mean RMSD: 0.103
data_MOF--net-ptr--node1-UXUYUI_clean_sbu_0--node2-MUDLON_clean_linker_0--edge1-UVAHIK_clean_linker_0
_symmetry_space_group_name_H-M    P1
_symmetry_Int_Tables_number       1
_symmetry_cell_setting            triclinic
loop_
_symmetry_equiv_pos_as_xyz
'x, y, z'
_cell_length_a     146.72808
_cell_length_b     146.72986
_cell_length_c     82.954697
_cell_angle_alpha  89.992893
_cell_angle_beta   90.002141
_cell_angle_gamma 120.02255
loop_
_atom_site_label
_atom_site_type_symbol
_atom_site_fract_x
_atom_site_fract_y
_atom_site_fract_z
_atom_type_partial_charge
Li0 Li 0.99289 0.35214 0.00922 0.0
Li1 Li 0.01194 0.363 0.01105 0.0
Li2 Li 0.00044 0.36839 0.02405 0.0
Li3 Li 0.00237 0.36893 0.99491 0.0
C4 C 0.99748 0.3466 0.03667 0.0
N5 N 0.98824 0.32701 0.05113 0.0
C6 C 0.00227 0.34043 0.03566 0.0
C7 C 0.98802 0.34282 0.04509 0.0
C8 C 0.99747 0.33055 0.04305 0.0
C9 C 0.98346 0.33289 0.05229 0.0
C10 C 0.00284 0.35539 0.97545 0.0
C11 C 0.01057 0.36148 0.94918 0.0
N12 N 0.0012 0.3546 0.94224 0.0
C13 C 0.9933 0.34838 0.96806 0.0
C14 C 0.01156 0.36199 0.96596 0.0
C15 C 0.99263 0.34809 0.95125 0.0
C16 C 0.97161 0.33478 0.00833 0.0
N17 N 0.98201 0.33786 0.00748 0.0
C18 C 0.97799 0.32029 0.00179 0.0
C19 C 0.98529 0.33087 0.00435 0.0
C20 C 0.96717 0.31686 0.00218 0.0
C21 C 0.964 0.32423 0.00574 0.0
H22 H 0.96922 0.34054 0.01057 0.0
H23 H 0.99362 0.33359 0.00354 0.0
C24 C 0.02831 0.3635 0.02894 0.0
N25 N 0.02444 0.36232 0.01373 0.0
C26 C 0.03685 0.36207 0.03207 0.0
C27 C 0.03749 0.35857 0.00372 0.0
C28 C 0.02887 0.36 0.00116 0.0
C29 C 0.04144 0.35941 0.01941 0.0
H30 H 0.02455 0.36526 0.03871 0.0
H31 H 0.02553 0.35895 0.98924 0.0
C32 C 0.98307 0.36707 0.0133 0.0
N33 N 0.97151 0.37549 0.02609 0.0
C34 C 0.98419 0.37643 0.0071 0.0
C35 C 0.97603 0.36196 0.02594 0.0
C36 C 0.97828 0.38057 0.01374 0.0
C37 C 0.97028 0.36636 0.03226 0.0
C38 C 0.02363 0.3831 0.01469 0.0
C39 C 0.02672 0.38637 0.03057 0.0
C40 C 0.03128 0.38554 0.00282 0.0
C41 C 0.03744 0.39204 0.03431 0.0
C42 C 0.04191 0.39121 0.00705 0.0
N43 N 0.04475 0.39431 0.02258 0.0
C44 C 0.99686 0.37226 0.05677 0.0
C45 C 0.00153 0.38607 0.03796 0.0
C46 C 0.99673 0.37859 0.06927 0.0
N47 N 0.99927 0.37612 0.04151 0.0
C48 C 0.00146 0.39264 0.05003 0.0
C49 C 0.99916 0.38898 0.06598 0.0
H50 H 0.99527 0.36438 0.0593 0.0
H51 H 0.00354 0.38895 0.02573 0.0
C52 C 0.99316 0.37218 0.96756 0.0
N53 N 0.00221 0.37637 0.97627 0.0
C54 C 0.99219 0.37778 0.95472 0.0
C55 C 0.00997 0.39181 0.95982 0.0
C56 C 0.01058 0.38595 0.97262 0.0
C57 C 0.00062 0.3878 0.95087 0.0
H58 H 0.98659 0.3646 0.97089 0.0
H59 H 0.0176 0.38917 0.97994 0.0
O60 O 0.00194 0.3562 0.02924 0.0
O61 O 0.0036 0.35595 0.9919 0.0
O62 O 0.98896 0.363 0.0072 0.0
O63 O 0.01318 0.37731 0.01085 0.0
H64 H 0.00953 0.34317 0.02905 0.0
H65 H 0.98417 0.34745 0.04591 0.0
H66 H 0.00106 0.32568 0.04229 0.0
H67 H 0.9761 0.32984 0.05877 0.0
H68 H 0.01723 0.36659 0.94169 0.0
H69 H 0.98644 0.34328 0.9752 0.0
H70 H 0.01896 0.36756 0.97148 0.0
H71 H 0.98529 0.34273 0.94537 0.0
H72 H 0.98081 0.31488 0.99933 0.0
H73 H 0.95575 0.32196 0.00595 0.0
H74 H 0.03973 0.36288 0.0443 0.0
H75 H 0.04075 0.35643 0.99368 0.0
H76 H 0.98967 0.38055 0.99742 0.0
H77 H 0.9751 0.35473 0.03092 0.0
H78 H 0.9791 0.38784 0.00912 0.0
H79 H 0.96485 0.36252 0.04211 0.0
H80 H 0.02093 0.38446 0.03995 0.0
H81 H 0.02902 0.38295 0.99051 0.0
H82 H 0.03994 0.39459 0.04656 0.0
H83 H 0.04791 0.3931 0.99801 0.0
H84 H 0.99505 0.3755 0.08143 0.0
H85 H 0.00324 0.40052 0.04688 0.0
H86 H 0.98488 0.37436 0.94803 0.0
H87 H 0.01659 0.39956 0.95737 0.0
Li88 Li 0.64927 0.64042 0.00807 0.0
Li89 Li 0.63929 0.64955 0.01278 0.0
Li90 Li 0.63361 0.63165 0.02493 0.0
Li91 Li 0.63102 0.63334 0.99633 0.0
C92 C 0.65575 0.65037 0.03753 0.0
N93 N 0.67444 0.66052 0.05454 0.0
C94 C 0.66161 0.66136 0.03785 0.0
C95 C 0.6593 0.64455 0.04612 0.0
C96 C 0.67106 0.66635 0.04645 0.0
C97 C 0.66879 0.64982 0.05457 0.0
C98 C 0.64681 0.65434 0.98018 0.0
C99 C 0.64189 0.66344 0.9609 0.0
N100 N 0.65219 0.66964 0.95682 0.0
C101 C 0.65733 0.66074 0.97567 0.0
C102 C 0.63901 0.65564 0.97264 0.0
C103 C 0.6599 0.66846 0.96389 0.0
C104 C 0.66451 0.63467 -0.00046 0.0
N105 N 0.66311 0.64274 0.00443 0.0
C106 C 0.68168 0.6546 0.00423 0.0
C107 C 0.67143 0.65259 0.00658 0.0
C108 C 0.68339 0.64642 0.99931 0.0
C109 C 0.67464 0.63636 0.99687 0.0
H110 H 0.65776 0.62695 0.99761 0.0
H111 H 0.6701 0.65895 0.00989 0.0
C112 C 0.63403 0.66355 0.02761 0.0
N113 N 0.64049 0.66295 0.01644 0.0
C114 C 0.63496 0.67325 0.03141 0.0
C115 C 0.64905 0.68152 0.01195 0.0
C116 C 0.64794 0.67169 0.00868 0.0
C117 C 0.64257 0.6824 0.02356 0.0
H118 H 0.62826 0.65649 0.03374 0.0
H119 H 0.65325 0.67112 0.00031 0.0
C120 C 0.63596 0.61612 0.01144 0.0
N121 N 0.63258 0.59683 0.02212 0.0
C122 C 0.62769 0.60682 0.00511 0.0
C123 C 0.64261 0.6156 0.023 0.0
C124 C 0.62608 0.59714 0.01072 0.0
C125 C 0.64075 0.60578 0.02831 0.0
C126 C 0.61546 0.63616 0.01118 0.0
C127 C 0.60611 0.62749 0.01657 0.0
C128 C 0.61505 0.64402 0.00226 0.0
C129 C 0.59649 0.62668 0.01254 0.0
C130 C 0.60528 0.64295 0.99849 0.0
N131 N 0.59627 0.63436 0.00364 0.0
C132 C 0.63078 0.62518 0.05794 0.0
C133 C 0.61842 0.61303 0.03933 0.0
C134 C 0.62579 0.61815 0.07065 0.0
N135 N 0.62706 0.62247 0.04266 0.0
C136 C 0.61326 0.60574 0.05159 0.0
C137 C 0.61689 0.60825 0.06755 0.0
H138 H 0.63758 0.6328 0.06027 0.0
H139 H 0.61557 0.61114 0.02709 0.0
C140 C 0.62422 0.62869 0.96342 0.0
N141 N 0.62165 0.62596 0.97912 0.0
C142 C 0.61711 0.62284 0.9512 0.0
C143 C 0.60499 0.61141 0.97156 0.0
C144 C 0.61229 0.61748 0.98333 0.0
C145 C 0.60737 0.61404 0.95523 0.0
H146 H 0.63183 0.63528 0.96034 0.0
H147 H 0.61057 0.61532 0.99588 0.0
O148 O 0.64649 0.64536 0.02912 0.0
O149 O 0.64419 0.64682 0.99181 0.0
O150 O 0.63755 0.62567 0.00631 0.0
O151 O 0.62496 0.63706 0.015 0.0
H152 H 0.65896 0.66601 0.0314 0.0
H153 H 0.65477 0.63606 0.04633 0.0
H154 H 0.67571 0.67485 0.04668 0.0
H155 H 0.67166 0.64541 0.06119 0.0
H156 H 0.63593 0.66453 0.95499 0.0
H157 H 0.66347 0.6598 0.98126 0.0
H158 H 0.63082 0.6506 0.97565 0.0
H159 H 0.66802 0.6735 0.96036 0.0
H160 H 0.6882 0.66253 0.00588 0.0
H161 H 0.67564 0.62985 0.99304 0.0
H162 H 0.62982 0.67362 0.04045 0.0
H163 H 0.65517 0.68841 0.0059 0.0
H164 H 0.62254 0.60705 0.99601 0.0
H165 H 0.64915 0.62271 0.0278 0.0
H166 H 0.61967 0.58988 0.006 0.0
H167 H 0.64581 0.60527 0.03732 0.0
H168 H 0.60627 0.6214 0.0237 0.0
H169 H 0.62219 0.65094 0.99841 0.0
H170 H 0.58919 0.61996 0.01651 0.0
H171 H 0.60486 0.64896 0.99154 0.0
H172 H 0.62877 0.6205 0.08277 0.0
H173 H 0.60655 0.59817 0.04853 0.0
H174 H 0.61932 0.62503 0.93873 0.0
H175 H 0.59756 0.60471 0.9752 0.0
Li176 Li 0.3669 0.99738 0.99576 0.0
Li177 Li 0.36826 0.00112 0.02453 0.0
Li178 Li 0.35109 0.99051 0.01164 0.0
Li179 Li 0.36156 0.0094 0.00708 0.0
C180 C 0.36602 0.98066 0.00934 0.0
N181 N 0.37384 0.968 0.99899 0.0
C182 C 0.37512 0.98158 0.01634 0.0
C183 C 0.36086 0.97324 0.99716 0.0
C184 C 0.37895 0.97512 0.01093 0.0
C185 C 0.36496 0.96693 0.99206 0.0
C186 C 0.38149 0.02107 0.00148 0.0
C187 C 0.3893 0.03975 0.00596 0.0
N188 N 0.39211 0.04152 0.99015 0.0
C189 C 0.38448 0.02308 0.98529 0.0
C190 C 0.38395 0.02947 0.01193 0.0
C191 C 0.38984 0.03347 0.97979 0.0
C192 C 0.36986 0.99327 0.96315 0.0
N193 N 0.37393 0.99516 0.9783 0.0
C194 C 0.38913 0.99472 0.96914 0.0
C195 C 0.38343 0.99604 0.98145 0.0
C196 C 0.38514 0.99277 0.95337 0.0
C197 C 0.3754 0.99209 0.95039 0.0
H198 H 0.36239 0.99284 0.96094 0.0
H199 H 0.38661 0.99787 0.99352 0.0
C200 C 0.37272 0.99441 0.05381 0.0
N201 N 0.37637 0.00254 0.04318 0.0
C202 C 0.37875 0.99499 0.0672 0.0
C203 C 0.39214 0.01232 0.0585 0.0
C204 C 0.38586 0.01139 0.04526 0.0
C205 C 0.38864 0.00401 0.06961 0.0
H206 H 0.36519 0.98742 0.05174 0.0
H207 H 0.38864 0.01766 0.03648 0.0
C208 C 0.3446 0.99337 0.98366 0.0
N209 N 0.32462 0.98318 0.9705 0.0
C210 C 0.33822 0.99793 0.98457 0.0
C211 C 0.34084 0.98366 0.97598 0.0
C212 C 0.32814 0.99265 0.97785 0.0
C213 C 0.3307 0.97862 0.96943 0.0
C214 C 0.35505 0.00247 0.04379 0.0
C215 C 0.34841 0.99337 0.05252 0.0
C216 C 0.36174 0.01179 0.052 0.0
C217 C 0.34857 0.99376 0.06935 0.0
C218 C 0.36169 0.01185 0.06884 0.0
N219 N 0.35516 0.00291 0.07709 0.0
C220 C 0.33405 0.96918 0.01435 0.0
C221 C 0.3299 0.98273 0.0177 0.0
C222 C 0.32359 0.9615 0.01732 0.0
N223 N 0.33697 0.97955 0.01465 0.0
C224 C 0.31938 0.97536 0.02065 0.0
C225 C 0.31612 0.96458 0.02071 0.0
H226 H 0.33987 0.96687 0.0121 0.0
H227 H 0.33248 0.99104 0.01801 0.0
C228 C 0.36127 0.02455 0.98701 0.0
N229 N 0.36043 0.02148 0.00264 0.0
C230 C 0.35954 0.03276 0.98274 0.0
C231 C 0.35639 0.03467 0.01082 0.0
C232 C 0.35812 0.02637 0.01454 0.0
C233 C 0.35692 0.03783 0.9947 0.0
H234 H 0.36301 0.02043 0.9778 0.0
H235 H 0.35733 0.02365 0.02683 0.0
O236 O 0.36223 0.98703 0.01429 0.0
O237 O 0.37602 0.01094 0.00701 0.0
O238 O 0.3544 0.9983 0.99047 0.0
O239 O 0.35517 0.0022 0.02731 0.0
H240 H 0.37925 0.98732 0.02571 0.0
H241 H 0.35385 0.97244 0.99157 0.0
H242 H 0.38601 0.97579 0.01618 0.0
H243 H 0.36109 0.96121 0.98258 0.0
H244 H 0.39118 0.04631 0.01388 0.0
H245 H 0.38259 0.01669 0.977 0.0
H246 H 0.38158 0.02805 0.02445 0.0
H247 H 0.39216 0.03514 0.96728 0.0
H248 H 0.39671 0.99548 0.97183 0.0
H249 H 0.37209 0.9906 0.93836 0.0
H250 H 0.37571 0.98844 0.07555 0.0
H251 H 0.39977 0.01934 0.05977 0.0
H252 H 0.34095 0.00538 0.9906 0.0
H253 H 0.34565 0.98001 0.9752 0.0
H254 H 0.3231 0.99605 0.97855 0.0
H255 H 0.32767 0.97108 0.96353 0.0
H256 H 0.34325 0.98606 0.04639 0.0
H257 H 0.36704 0.01887 0.04544 0.0
H258 H 0.3435 0.98677 0.07626 0.0
H259 H 0.36687 0.01899 0.07534 0.0
H260 H 0.32144 0.95329 0.01745 0.0
H261 H 0.31389 0.9781 0.02296 0.0
H262 H 0.36012 0.03503 0.97019 0.0
H263 H 0.35428 0.03831 0.02036 0.0
Li264 Li 0.00669 0.64882 0.01543 0.0
Li265 Li 0.99474 0.63228 0.02859 0.0
Li266 Li 0.99767 0.6328 0.99922 0.0
Li267 Li 0.98752 0.64037 0.011 0.0
C268 C 0.01663 0.6363 0.02272 0.0
N269 N 0.03456 0.63701 0.03467 0.0
C270 C 0.01876 0.63754 0.03925 0.0
C271 C 0.02355 0.63527 0.0123 0.0
C272 C 0.02788 0.63792 0.04505 0.0
C273 C 0.0326 0.6357 0.01857 0.0
C274 C 0.99717 0.6502 0.04634 0.0
C275 C 0.99099 0.65494 0.07009 0.0
N276 N 0.00059 0.65857 0.07706 0.0
C277 C 0.007 0.65407 0.05367 0.0
C278 C 0.98912 0.65072 0.05455 0.0
C279 C 0.00856 0.65824 0.06922 0.0
C280 C 0.01731 0.67057 0.01825 0.0
N281 N 0.019 0.66229 0.01736 0.0
C282 C 0.03757 0.67379 0.01973 0.0
C283 C 0.0289 0.66371 0.01786 0.0
C284 C 0.03604 0.68249 0.02091 0.0
C285 C 0.02576 0.6808 0.01999 0.0
H286 H 0.00934 0.66919 0.01776 0.0
H287 H 0.0301 0.65706 0.01685 0.0
C288 C 0.99411 0.61536 0.04432 0.0
N289 N 0.99226 0.62345 0.04679 0.0
C290 C 0.99268 0.60839 0.05679 0.0
C291 C 0.98729 0.6181 0.07411 0.0
C292 C 0.9888 0.62487 0.06126 0.0
C293 C 0.98929 0.60975 0.07197 0.0
H294 H 0.9968 0.6144 0.03264 0.0
H295 H 0.98715 0.63119 0.06286 0.0
C296 C 0.00599 0.65196 0.98244 0.0
N297 N 0.02017 0.66258 0.95798 0.0
C298 C 0.00401 0.65795 0.97137 0.0
C299 C 0.01518 0.6514 0.9811 0.0
C300 C 0.01128 0.66325 0.95907 0.0
C301 C 0.02226 0.65682 0.96865 0.0
C302 C 0.97438 0.61895 0.01782 0.0
C303 C 0.96805 0.60875 0.0119 0.0
C304 C 0.97083 0.62249 0.03071 0.0
C305 C 0.95823 0.60226 0.01896 0.0
C306 C 0.96098 0.61576 0.03744 0.0
N307 N 0.95493 0.60587 0.03148 0.0
C308 C 0.0012 0.61751 0.98552 0.0
C309 C 0.99691 0.6268 0.96641 0.0
C310 C 0.0019 0.61132 0.97336 0.0
N311 N 0.99875 0.62506 0.98185 0.0
C312 C 0.99758 0.62083 0.95385 0.0
C313 C 6e-05 0.61293 0.95727 0.0
H314 H 0.00254 0.61627 0.99795 0.0
H315 H 0.99482 0.63275 0.96387 0.0
C316 C 0.97727 0.65206 0.01377 0.0
N317 N 0.97633 0.64306 0.00756 0.0
C318 C 0.96936 0.65454 0.01126 0.0
C319 C 0.95965 0.63841 0.99604 0.0
C320 C 0.96777 0.63625 0.99883 0.0
C321 C 0.96041 0.64769 0.00221 0.0
H322 H 0.98425 0.65737 0.02052 0.0
H323 H 0.96727 0.62918 0.99397 0.0
O324 O 0.00773 0.63586 0.01674 0.0
O325 O 0.99545 0.64613 0.03108 0.0
O326 O 0.99897 0.64679 0.99459 0.0
O327 O 0.98404 0.62535 0.01109 0.0
H328 H 0.0134 0.63811 0.04755 0.0
H329 H 0.02199 0.6342 -0.00052 0.0
H330 H 0.02963 0.6389 0.05781 0.0
H331 H 0.03805 0.63497 0.01063 0.0
H332 H 0.98481 0.65533 0.07662 0.0
H333 H 0.01339 0.65396 0.0474 0.0
H334 H 0.98149 0.64784 0.049 0.0
H335 H 0.01613 0.66124 0.07505 0.0
H336 H 0.0454 0.67479 0.02018 0.0
H337 H 0.02424 0.68728 0.02101 0.0
H338 H 0.99442 0.60214 0.05466 0.0
H339 H 0.98452 0.61933 0.08555 0.0
H340 H 0.99693 0.65848 0.97228 0.0
H341 H 0.01685 0.64684 0.98958 0.0
H342 H 0.00985 0.66791 0.95041 0.0
H343 H 0.02941 0.65645 0.96747 0.0
H344 H 0.97071 0.60589 0.00196 0.0
H345 H 0.97564 0.63034 0.03547 0.0
H346 H 0.95324 0.59435 0.0145 0.0
H347 H 0.95814 0.6184 0.04742 0.0
H348 H 0.00391 0.60538 0.97651 0.0
H349 H 0.99595 0.62221 0.94164 0.0
H350 H 0.97037 0.66186 0.01601 0.0
H351 H 0.95285 0.63287 0.98914 0.0
Li352 Li 0.35318 0.36337 0.01161 0.0
Li353 Li 0.37035 0.37001 0.02325 0.0
Li354 Li 0.36851 0.37158 0.99479 0.0
Li355 Li 0.36307 0.35462 0.00653 0.0
C356 C 0.36265 0.38375 0.02369 0.0
N357 N 0.3585 0.3949 0.04652 0.0
C358 C 0.35696 0.37872 0.0376 0.0
C359 C 0.3662 0.39444 0.02139 0.0
C360 C 0.35495 0.3845 0.049 0.0
C361 C 0.36403 0.39995 0.03307 0.0
C362 C 0.35947 0.35079 0.03912 0.0
C363 C 0.37106 0.34584 0.05209 0.0
N364 N 0.36323 0.33969 0.06254 0.0
C365 C 0.35153 0.34442 0.04998 0.0
C366 C 0.36932 0.35152 0.04017 0.0
C367 C 0.35359 0.33887 0.06174 0.0
C368 C 0.33205 0.35041 0.01851 0.0
N369 N 0.33915 0.36048 0.01439 0.0
C370 C 0.32563 0.365 0.01323 0.0
C371 C 0.33619 0.36777 0.01173 0.0
C372 C 0.31808 0.35462 0.01741 0.0
C373 C 0.32143 0.3473 0.02012 0.0
H374 H 0.33466 0.34478 0.02043 0.0
H375 H 0.34199 0.37569 0.00825 0.0
C376 C 0.38951 0.38388 0.03765 0.0
N377 N 0.37925 0.37702 0.04108 0.0
C378 C 0.39664 0.38929 0.05003 0.0
C379 C 0.38247 0.38052 0.06926 0.0
C380 C 0.37562 0.37527 0.0565 0.0
C381 C 0.39316 0.38762 0.06611 0.0
H382 H 0.39216 0.38512 0.02526 0.0
H383 H 0.3674 0.3698 0.0589 0.0
C384 C 0.34936 0.35943 0.97907 0.0
N385 N 0.33729 0.36183 0.95572 0.0
C386 C 0.34314 0.35112 0.96866 0.0
C387 C 0.34944 0.36896 0.97761 0.0
C388 C 0.33709 0.35249 0.95693 0.0
C389 C 0.34328 0.37002 0.96573 0.0
C390 C 0.38343 0.36536 0.99431 0.0
C391 C 0.37866 0.35955 0.98038 0.0
C392 C 0.39424 0.3696 0.99659 0.0
C393 C 0.3848 0.3581 0.96894 0.0
C394 C 0.40012 0.36797 0.98487 0.0
N395 N 0.39531 0.3623 0.9714 0.0
C396 C 0.38147 0.391 0.9804 0.0
C397 C 0.37349 0.37704 0.96152 0.0
C398 C 0.38661 0.39825 0.96805 0.0
N399 N 0.37506 0.38065 0.97694 0.0
C400 C 0.37848 0.38402 0.94877 0.0
C401 C 0.38516 0.39479 0.95197 0.0
H402 H 0.38257 0.39362 0.9928 0.0
H403 H 0.36838 0.36876 0.9591 0.0
C404 C 0.35108 0.3333 0.00069 0.0
N405 N 0.36114 0.34092 0.00381 0.0
C406 C 0.34858 0.32284 0.99913 0.0
C407 C 0.36686 0.32827 0.00394 0.0
C408 C 0.369 0.33865 0.00552 0.0
C409 C 0.35651 0.32021 0.00079 0.0
H410 H 0.34499 0.33536 -0.00047 0.0
H411 H 0.37691 0.34485 0.00827 0.0
O412 O 0.36477 0.37831 0.01231 0.0
O413 O 0.3575 0.35622 0.02752 0.0
O414 O 0.35525 0.35813 0.99065 0.0
O415 O 0.37763 0.36696 0.00571 0.0
H416 H 0.3541 0.37045 0.03961 0.0
H417 H 0.3706 0.39845 0.01068 0.0
H418 H 0.35057 0.3807 0.05981 0.0
H419 H 0.36674 0.40823 0.03145 0.0
H420 H 0.37865 0.34633 0.05304 0.0
H421 H 0.34386 0.34378 0.04931 0.0
H422 H 0.37557 0.35641 0.0319 0.0
H423 H 0.34751 0.33391 0.07022 0.0
H424 H 0.32337 0.37086 0.01086 0.0
H425 H 0.31591 0.33927 0.02359 0.0
H426 H 0.40482 0.39458 0.04704 0.0
H427 H 0.37942 0.3791 0.08144 0.0
H428 H 0.34299 0.34369 0.96965 0.0
H429 H 0.35419 0.37549 0.98554 0.0
H430 H 0.33224 0.34612 0.94879 0.0
H431 H 0.34327 0.37735 0.96447 0.0
H432 H 0.3703 0.35616 0.97839 0.0
H433 H 0.39805 0.37411 0.00732 0.0
H434 H 0.38121 0.35362 0.95811 0.0
H435 H 0.40849 0.37121 0.98649 0.0
H436 H 0.39158 0.40648 0.97106 0.0
H437 H 0.37724 0.38098 0.93659 0.0
H438 H 0.34053 0.31688 0.9965 0.0
H439 H 0.37318 0.32655 0.00545 0.0
Li440 Li 0.63961 0.98904 0.01607 0.0
Li441 Li 0.63279 0.99936 0.02857 0.0
Li442 Li 0.63156 0.99685 0.99907 0.0
Li443 Li 0.64822 0.00815 0.01207 0.0
C444 C 0.61857 0.97786 0.02653 0.0
N445 N 0.606 0.96171 0.04739 0.0
C446 C 0.62294 0.97594 0.04017 0.0
C447 C 0.60781 0.97154 0.02346 0.0
C448 C 0.61646 0.96775 0.05058 0.0
C449 C 0.60158 0.96342 0.03416 0.0
C450 C 0.64925 0.00299 0.04808 0.0
C451 C 0.65233 0.01459 0.0706 0.0
N452 N 0.65417 0.00816 0.08018 0.0
C453 C 0.65113 0.99648 0.05818 0.0
C454 C 0.64982 0.0121 0.05435 0.0
C455 C 0.65362 0.99924 0.07436 0.0
C456 C 0.65183 0.9799 0.02341 0.0
N457 N 0.64218 0.97761 0.018 0.0
C458 C 0.63704 0.95945 0.01506 0.0
C459 C 0.63481 0.96764 0.01377 0.0
C460 C 0.64692 0.96155 0.02081 0.0
C461 C 0.65435 0.97196 0.02505 0.0
H462 H 0.65756 0.98793 0.0265 0.0
H463 H 0.62723 0.96605 0.00932 0.0
C464 C 0.61902 0.00474 0.04309 0.0
N465 N 0.62503 0.00032 0.04638 0.0
C466 C 0.61265 0.00539 0.05502 0.0
C467 C 0.61886 0.99701 0.07361 0.0
C468 C 0.62499 0.9964 0.06126 0.0
C469 C 0.6125 0.00149 0.07056 0.0
H470 H 0.61903 0.0076 0.03108 0.0
H471 H 0.62966 0.99274 0.06359 0.0
C472 C 0.64394 0.99009 0.98362 0.0
N473 N 0.64183 0.97581 0.96009 0.0
C474 C 0.65262 0.99183 0.97435 0.0
C475 C 0.63419 0.98104 0.98097 0.0
C476 C 0.65139 0.98453 0.9625 0.0
C477 C 0.63328 0.97394 0.96901 0.0
C478 C 0.64028 0.02025 0.00792 0.0
C479 C 0.64357 0.02371 0.99217 0.0
C480 C 0.64207 0.02757 0.02005 0.0
C481 C 0.64876 0.03449 0.98885 0.0
C482 C 0.64727 0.03828 0.01624 0.0
N483 N 0.65049 0.04149 0.00085 0.0
C484 C 0.61246 0.9908 0.98364 0.0
C485 C 0.62714 0.9983 0.96599 0.0
C486 C 0.60567 0.9895 0.97095 0.0
N487 N 0.62295 0.99511 0.98094 0.0
C488 C 0.62064 0.9972 0.95294 0.0
C489 C 0.60974 0.99276 0.95536 0.0
H490 H 0.60939 0.98849 0.99572 0.0
H491 H 0.63553 0.00174 0.96422 0.0
C492 C 0.66646 0.02801 0.02019 0.0
N493 N 0.66161 0.02052 0.00863 0.0
C494 C 0.67636 0.03677 0.01731 0.0
C495 C 0.67607 0.03003 0.99063 0.0
C496 C 0.66615 0.02144 0.99399 0.0
C497 C 0.68134 0.03779 0.00242 0.0
H498 H 0.6627 0.02721 0.03167 0.0
H499 H 0.66206 0.0155 0.9849 0.0
O500 O 0.62475 0.98586 0.01617 0.0
O501 O 0.64676 0.00038 0.0322 0.0
O502 O 0.64509 0.99713 0.9954 0.0
O503 O 0.63548 0.00976 0.01148 0.0
H504 H 0.63124 0.98072 0.04273 0.0
H505 H 0.60429 0.97288 0.01292 0.0
H506 H 0.61975 0.96619 0.0612 0.0
H507 H 0.59324 0.95847 0.03194 0.0
H508 H 0.65273 0.02159 0.07561 0.0
H509 H 0.65063 0.98934 0.05361 0.0
H510 H 0.64807 0.01705 0.04686 0.0
H511 H 0.6551 0.99427 0.08231 0.0
H512 H 0.63112 0.9516 0.0114 0.0
H513 H 0.662 0.97396 0.02979 0.0
H514 H 0.60774 0.0087 0.05193 0.0
H515 H 0.61912 0.99401 0.08541 0.0
H516 H 0.66026 0.99872 0.97634 0.0
H517 H 0.62739 0.97946 0.98809 0.0
H518 H 0.65805 0.98579 0.95524 0.0
H519 H 0.62578 0.96691 0.96684 0.0
H520 H 0.6423 0.01814 0.98267 0.0
H521 H 0.6395 0.02501 0.03228 0.0
H522 H 0.65144 0.03729 0.97674 0.0
H523 H 0.64875 0.04404 0.02551 0.0
H524 H 0.59735 0.9862 0.9734 0.0
H525 H 0.62408 0.99973 0.94109 0.0
H526 H 0.68017 0.04256 0.02675 0.0
H527 H 0.67954 0.03061 0.97888 0.0
Li528 Li 0.65618 0.68608 0.34191 0.0
Li529 Li 0.67572 0.69646 0.34702 0.0
Li530 Li 0.664 0.70159 0.35928 0.0
Li531 Li 0.66797 0.70466 0.33141 0.0
C532 C 0.66213 0.68633 0.37811 0.0
N533 N 0.65839 0.68352 0.41085 0.0
C534 C 0.67052 0.69092 0.38897 0.0
C535 C 0.65185 0.68027 0.38386 0.0
C536 C 0.66847 0.68942 0.4055 0.0
C537 C 0.65012 0.67895 0.40047 0.0
C538 C 0.67327 0.68714 0.31847 0.0
C539 C 0.68878 0.68891 0.30542 0.0
N540 N 0.684 0.67826 0.30414 0.0
C541 C 0.66849 0.67622 0.31689 0.0
C542 C 0.68347 0.69355 0.31256 0.0
C543 C 0.67405 0.67188 0.30965 0.0
C544 C 0.63777 0.67055 0.32591 0.0
N545 N 0.6449 0.67232 0.3377 0.0
C546 C 0.63708 0.65389 0.34274 0.0
C547 C 0.64466 0.66428 0.34616 0.0
C548 C 0.62967 0.65177 0.33049 0.0
C549 C 0.62998 0.66027 0.32216 0.0
H550 H 0.63826 0.67712 0.31925 0.0
H551 H 0.65054 0.66593 0.35531 0.0
C552 C 0.69726 0.70277 0.35296 0.0
N553 N 0.68745 0.69448 0.35032 0.0
C554 C 0.70576 0.7011 0.35513 0.0
C555 C 0.69385 0.68241 0.35207 0.0
C556 C 0.68558 0.68443 0.35013 0.0
C557 C 0.70411 0.69081 0.35456 0.0
H558 H 0.69849 0.71066 0.35345 0.0
H559 H 0.67765 0.67797 0.34844 0.0
C560 C 0.64591 0.69974 0.34759 0.0
N561 N 0.63015 0.70277 0.36004 0.0
C562 C 0.64788 0.7099 0.35095 0.0
C563 C 0.63592 0.69111 0.35056 0.0
C564 C 0.63981 0.71127 0.35726 0.0
C565 C 0.62806 0.69281 0.35685 0.0
C566 C 0.68409 0.72082 0.34409 0.0
C567 C 0.68196 0.72873 0.34873 0.0
C568 C 0.69232 0.7232 0.33333 0.0
C569 C 0.68808 0.73887 0.3425 0.0
C570 C 0.69824 0.73344 0.32733 0.0
N571 N 0.69602 0.741 0.332 0.0
C572 C 0.67051 0.71551 0.38558 0.0
C573 C 0.65223 0.70329 0.38598 0.0
C574 C 0.66957 0.7207 0.39899 0.0
N575 N 0.66185 0.70722 0.37897 0.0
C576 C 0.6509 0.70827 0.39939 0.0
C577 C 0.65961 0.71727 0.40582 0.0
H578 H 0.67817 0.7182 0.38026 0.0
H579 H 0.64551 0.69642 0.381 0.0
C580 C 0.6736 0.71202 0.29919 0.0
N581 N 0.6701 0.71372 0.31343 0.0
C582 C 0.67564 0.71883 0.28619 0.0
C583 C 0.67033 0.72895 0.30268 0.0
C584 C 0.66828 0.72188 0.31526 0.0
C585 C 0.67411 0.72749 0.28794 0.0
H586 H 0.67486 0.70541 0.29793 0.0
H587 H 0.6654 0.72302 0.32658 0.0
O588 O 0.66396 0.68792 0.36193 0.0
O589 O 0.66802 0.69153 0.32581 0.0
O590 O 0.65366 0.69821 0.34125 0.0
O591 O 0.67809 0.71078 0.34988 0.0
H592 H 0.67852 0.69567 0.38467 0.0
H593 H 0.64526 0.67675 0.37559 0.0
H594 H 0.67487 0.69297 0.41406 0.0
H595 H 0.6422 0.67433 0.40511 0.0
H596 H 0.69671 0.69378 0.30093 0.0
H597 H 0.66059 0.67112 0.32128 0.0
H598 H 0.68729 0.70201 0.31362 0.0
H599 H 0.67046 0.66343 0.30844 0.0
H600 H 0.63707 0.64757 0.3495 0.0
H601 H 0.62449 0.65896 0.3125 0.0
H602 H 0.71355 0.70779 0.35707 0.0
H603 H 0.69221 0.67434 0.35189 0.0
H604 H 0.6556 0.71665 0.34913 0.0
H605 H 0.63426 0.68319 0.34816 0.0
H606 H 0.64125 0.71908 0.36003 0.0
H607 H 0.6203 0.68621 0.35923 0.0
H608 H 0.67551 0.72703 0.35679 0.0
H609 H 0.69408 0.71721 0.32955 0.0
H610 H 0.68646 0.74504 0.34591 0.0
H611 H 0.7046 0.73537 0.31894 0.0
H612 H 0.67656 0.7274 0.40387 0.0
H613 H 0.64307 0.70529 0.40429 0.0
H614 H 0.67856 0.71745 0.275 0.0
H615 H 0.6689 0.73544 0.30444 0.0
Li616 Li 0.29125 0.96786 0.33123 0.0
Li617 Li 0.29215 0.96499 0.36009 0.0
Li618 Li 0.2983 0.98242 0.34874 0.0
Li619 Li 0.30812 0.97323 0.34365 0.0
C620 C 0.27796 0.97437 0.35538 0.0
N621 N 0.2667 0.98306 0.36852 0.0
C622 C 0.27484 0.97256 0.37154 0.0
C623 C 0.27521 0.98049 0.34586 0.0
C624 C 0.26919 0.97704 0.37797 0.0
C625 C 0.26956 0.98485 0.35274 0.0
C626 C 0.29882 0.9518 0.34723 0.0
C627 C 0.30736 0.94652 0.36694 0.0
N628 N 0.30448 0.93758 0.35836 0.0
C629 C 0.29595 0.94258 0.33861 0.0
C630 C 0.30458 0.95381 0.36151 0.0
C631 C 0.29889 0.93548 0.34444 0.0
C632 C 0.28635 0.95724 0.3013 0.0
N633 N 0.28293 0.96153 0.31263 0.0
C634 C 0.26703 0.95616 0.29799 0.0
C635 C 0.2735 0.9611 0.31123 0.0
C636 C 0.27027 0.95155 0.28612 0.0
C637 C 0.28012 0.95221 0.28785 0.0
H638 H 0.29386 0.95764 0.30284 0.0
H639 H 0.27096 0.96452 0.32048 0.0
C640 C 0.28755 0.95836 0.39282 0.0
N641 N 0.28529 0.95535 0.37716 0.0
C642 C 0.28233 0.9511 0.40516 0.0
C643 C 0.27274 0.93779 0.38496 0.0
C644 C 0.27805 0.94533 0.37304 0.0
C645 C 0.27483 0.94066 0.40126 0.0
H646 H 0.29333 0.9664 0.39571 0.0
H647 H 0.27641 0.9432 0.36045 0.0
C648 C 0.30379 0.98323 0.3123 0.0
N649 N 0.30157 0.98633 0.27998 0.0
C650 C 0.31038 0.9825 0.30085 0.0
C651 C 0.29622 0.98577 0.30732 0.0
C652 C 0.3091 0.98404 0.28457 0.0
C653 C 0.29518 0.98724 0.29094 0.0
C654 C 0.31414 0.98679 0.37085 0.0
C655 C 0.32094 0.99478 0.36035 0.0
C656 C 0.31616 0.98791 0.38741 0.0
C657 C 0.32965 0.00374 0.36661 0.0
C658 C 0.32496 0.99699 0.3932 0.0
N659 N 0.33147 0.00465 0.38277 0.0
C660 C 0.29732 0.99795 0.36779 0.0
C661 C 0.30484 0.00372 0.3419 0.0
C662 C 0.29911 0.00799 0.37153 0.0
N663 N 0.30009 0.99599 0.35312 0.0
C664 C 0.30693 0.01391 0.34521 0.0
C665 C 0.30408 0.01619 0.36022 0.0
H666 H 0.29385 0.99176 0.37669 0.0
H667 H 0.30731 0.00206 0.33055 0.0
C668 C 0.32273 0.97021 0.3263 0.0
N669 N 0.32141 0.97393 0.34059 0.0
C670 C 0.33231 0.97083 0.32261 0.0
C671 C 0.33878 0.97842 0.34889 0.0
C672 C 0.32908 0.97766 0.35205 0.0
C673 C 0.34057 0.97516 0.33388 0.0
H674 H 0.31632 0.96678 0.31774 0.0
H675 H 0.32774 0.9801 0.36365 0.0
O676 O 0.28357 0.97009 0.34889 0.0
O677 O 0.29602 0.95882 0.34159 0.0
O678 O 0.30475 0.98153 0.3283 0.0
O679 O 0.30541 0.97804 0.36508 0.0
H680 H 0.27681 0.96781 0.3791 0.0
H681 H 0.27742 0.9819 0.33331 0.0
H682 H 0.26679 0.97575 0.39048 0.0
H683 H 0.26746 0.98966 0.34552 0.0
H684 H 0.31182 0.94797 0.37796 0.0
H685 H 0.29151 0.94093 0.32751 0.0
H686 H 0.3069 0.96092 0.36834 0.0
H687 H 0.29672 0.9283 0.33789 0.0
H688 H 0.25957 0.95597 0.29705 0.0
H689 H 0.28288 0.94865 0.2791 0.0
H690 H 0.2842 0.95359 0.4176 0.0
H691 H 0.26694 0.92985 0.38147 0.0
H692 H 0.31646 0.98084 0.30445 0.0
H693 H 0.29116 0.9865 0.31602 0.0
H694 H 0.31412 0.98344 0.27558 0.0
H695 H 0.28928 0.98909 0.28693 0.0
H696 H 0.31953 0.99409 0.34751 0.0
H697 H 0.31097 0.98184 0.39573 0.0
H698 H 0.33496 0.00998 0.35862 0.0
H699 H 0.32662 0.99795 0.40599 0.0
H700 H 0.29668 0.00931 0.3832 0.0
H701 H 0.31103 0.01998 0.33626 0.0
H702 H 0.33323 0.96793 0.31107 0.0
H703 H 0.3449 0.98175 0.35797 0.0
Li704 Li 0.03326 0.32958 0.32832 0.0
Li705 Li 0.03453 0.33137 0.35815 0.0
Li706 Li 0.0181 0.32196 0.34408 0.0
Li707 Li 0.02792 0.3411 0.34122 0.0
C708 C 0.02429 0.30807 0.34841 0.0
N709 N 0.01315 0.28687 0.35593 0.0
C710 C 0.02467 0.30466 0.364 0.0
C711 C 0.01838 0.30066 0.33658 0.0
C712 C 0.01895 0.29392 0.36758 0.0
C713 C 0.01276 0.28999 0.34063 0.0
C714 C 0.04927 0.35201 0.34727 0.0
C715 C 0.05483 0.3653 0.36793 0.0
N716 N 0.06379 0.37147 0.35946 0.0
C717 C 0.05851 0.35848 0.33875 0.0
C718 C 0.04739 0.35544 0.36197 0.0
C719 C 0.06576 0.3683 0.34512 0.0
C720 C 0.04633 0.3376 0.30119 0.0
N721 N 0.04066 0.32876 0.31014 0.0
C722 C 0.04677 0.31936 0.29416 0.0
C723 C 0.04072 0.31972 0.30686 0.0
C724 C 0.0529 0.32844 0.28491 0.0
C725 C 0.05254 0.33762 0.28844 0.0
H726 H 0.04614 0.34469 0.30415 0.0
H727 H 0.03626 0.31285 0.31433 0.0
C728 C 0.03859 0.32843 0.39077 0.0
N729 N 0.04302 0.3324 0.37618 0.0
C730 C 0.04481 0.32856 0.40362 0.0
C731 C 0.0601 0.33726 0.38636 0.0
C732 C 0.05356 0.33674 0.37377 0.0
C733 C 0.0557 0.33302 0.40144 0.0
H734 H 0.03018 0.32484 0.39227 0.0
H735 H 0.05686 0.33965 0.36197 0.0
C736 C 0.0199 0.32979 0.30787 0.0
N737 N 0.01982 0.32876 0.27458 0.0
C738 C 0.02226 0.33867 0.29864 0.0
C739 C 0.01726 0.32032 0.30013 0.0
C740 C 0.02224 0.33801 0.28184 0.0
C741 C 0.01734 0.31998 0.2833 0.0
C742 C 0.01247 0.33055 0.36778 0.0
C743 C 0.0048 0.33054 0.35776 0.0
C744 C 0.01018 0.32786 0.38404 0.0
C745 C 0.99492 0.32771 0.36412 0.0
C746 C 0.00021 0.32508 0.38995 0.0
N747 N 0.99284 0.32505 0.37995 0.0
C748 C 0.00134 0.3053 0.36106 0.0
C749 C 0.99715 0.30739 0.33421 0.0
C750 C 0.991 0.29734 0.3638 0.0
N751 N 0.00417 0.31022 0.34652 0.0
C752 C 0.98673 0.29939 0.33638 0.0
C753 C 0.98352 0.29438 0.35141 0.0
H754 H 0.00706 0.30775 0.37068 0.0
H755 H 0.99955 0.31154 0.32286 0.0
C756 C 0.03442 0.36089 0.32758 0.0
N757 N 0.02828 0.35424 0.33941 0.0
C758 C 0.03483 0.3705 0.32519 0.0
C759 C 0.02304 0.36654 0.34779 0.0
C760 C 0.02284 0.35698 0.34971 0.0
C761 C 0.02898 0.37339 0.33525 0.0
H762 H 0.0389 0.35865 0.31984 0.0
H763 H 0.01836 0.35179 0.35945 0.0
O764 O 0.02974 0.31859 0.34476 0.0
O765 O 0.04203 0.34245 0.34106 0.0
O766 O 0.02009 0.33033 0.32437 0.0
O767 O 0.02208 0.33298 0.3616 0.0
H768 H 0.02928 0.31022 0.37327 0.0
H769 H 0.01807 0.30309 0.32442 0.0
H770 H 0.01913 0.29119 0.37963 0.0
H771 H 0.00809 0.28419 0.33161 0.0
H772 H 0.05348 0.36806 0.37928 0.0
H773 H 0.06005 0.35595 0.32732 0.0
H774 H 0.04024 0.35056 0.36868 0.0
H775 H 0.07295 0.37339 0.33866 0.0
H776 H 0.04693 0.31217 0.29196 0.0
H777 H 0.05706 0.34475 0.28149 0.0
H778 H 0.04116 0.32521 0.41511 0.0
H779 H 0.06846 0.34063 0.38421 0.0
H780 H 0.02403 0.34598 0.30434 0.0
H781 H 0.01525 0.31333 0.30703 0.0
H782 H 0.02411 0.34485 0.27457 0.0
H783 H 0.01541 0.31272 0.27719 0.0
H784 H 0.00643 0.33258 0.34514 0.0
H785 H 0.01601 0.32787 0.392 0.0
H786 H 0.98889 0.32759 0.35647 0.0
H787 H 0.99831 0.32294 0.40248 0.0
H788 H 0.98886 0.2936 0.37552 0.0
H789 H 0.98116 0.29739 0.32659 0.0
H790 H 0.03948 0.37549 0.31532 0.0
H791 H 0.01862 0.36855 0.35608 0.0
Li792 Li 0.67451 0.9785 0.34038 0.0
Li793 Li 0.66277 0.96041 0.35191 0.0
Li794 Li 0.66726 0.96267 0.32379 0.0
Li795 Li 0.65514 0.96749 0.33407 0.0
C796 C 0.68352 0.96293 0.3384 0.0
N797 N 0.69625 0.95504 0.3288 0.0
C798 C 0.68023 0.95228 0.34067 0.0
C799 C 0.6933 0.96958 0.33136 0.0
C800 C 0.68677 0.94844 0.3357 0.0
C801 C 0.69962 0.96544 0.32656 0.0
C802 C 0.66146 0.97348 0.3716 0.0
C803 C 0.65183 0.96621 0.39631 0.0
N804 N 0.66057 0.97284 0.4049 0.0
C805 C 0.67032 0.98025 0.38069 0.0
C806 C 0.65212 0.96643 0.37947 0.0
C807 C 0.66972 0.9798 0.3975 0.0
C808 C 0.6846 0.00048 0.33917 0.0
N809 N 0.68576 0.99231 0.34422 0.0
C810 C 0.70264 0.00415 0.35539 0.0
C811 C 0.69455 0.99391 0.35215 0.0
C812 C 0.70168 0.01275 0.35026 0.0
C813 C 0.69255 0.01083 0.34195 0.0
H814 H 0.67747 0.99893 0.33301 0.0
H815 H 0.6952 0.98724 0.35615 0.0
C816 C 0.65201 0.94239 0.37179 0.0
N817 N 0.66099 0.95184 0.3702 0.0
C818 C 0.65067 0.93593 0.38496 0.0
C819 C 0.66797 0.94889 0.3944 0.0
C820 C 0.66894 0.95516 0.38111 0.0
C821 C 0.65873 0.93914 0.39644 0.0
H822 H 0.64595 0.93979 0.36272 0.0
H823 H 0.67604 0.96266 0.37942 0.0
C824 C 0.67054 0.97824 0.30364 0.0
N825 N 0.67736 0.9828 0.27206 0.0
C826 C 0.66411 0.97197 0.29108 0.0
C827 C 0.68045 0.98685 0.30011 0.0
C828 C 0.6677 0.9744 0.2752 0.0
C829 C 0.68374 0.98903 0.28407 0.0
C830 C 0.64311 0.94786 0.32867 0.0
C831 C 0.64058 0.94509 0.31248 0.0
C832 C 0.63505 0.9455 0.33976 0.0
C833 C 0.63004 0.94 0.30768 0.0
C834 C 0.62461 0.94043 0.33448 0.0
N835 N 0.62234 0.9378 0.31868 0.0
C836 C 0.66506 0.94557 0.30548 0.0
C837 C 0.67955 0.96184 0.29725 0.0
C838 C 0.6674 0.94022 0.29378 0.0
N839 N 0.67097 0.95621 0.30678 0.0
C840 C 0.68219 0.95681 0.28538 0.0
C841 C 0.67602 0.94586 0.28345 0.0
H842 H 0.6586 0.94119 0.3137 0.0
H843 H 0.68445 0.97022 0.29897 0.0
C844 C 0.63834 0.97079 0.34278 0.0
N845 N 0.64291 0.96869 0.33015 0.0
C846 C 0.62912 0.97119 0.34054 0.0
C847 C 0.62959 0.9675 0.31227 0.0
C848 C 0.63882 0.96721 0.31504 0.0
C849 C 0.62457 0.96944 0.32514 0.0
H850 H 0.64179 0.97205 0.35463 0.0
H851 H 0.64261 0.96564 0.30517 0.0
O852 O 0.6771 0.96676 0.34278 0.0
O853 O 0.66198 0.97363 0.35512 0.0
O854 O 0.66716 0.97604 0.31929 0.0
O855 O 0.65342 0.95304 0.33357 0.0
H856 H 0.67265 0.94703 0.34604 0.0
H857 H 0.69591 0.97783 0.32941 0.0
H858 H 0.68431 0.94021 0.33728 0.0
H859 H 0.70718 0.97048 0.321 0.0
H860 H 0.64468 0.96073 0.40254 0.0
H861 H 0.67761 0.98576 0.37485 0.0
H862 H 0.6452 0.96108 0.37267 0.0
H863 H 0.67653 0.98497 0.40468 0.0
H864 H 0.70959 0.00533 0.3618 0.0
H865 H 0.69146 0.01725 0.33799 0.0
H866 H 0.6435 0.92838 0.38595 0.0
H867 H 0.67435 0.95165 0.40303 0.0
H868 H 0.65652 0.96518 0.29356 0.0
H869 H 0.68559 0.99175 0.30964 0.0
H870 H 0.66282 0.96956 0.26539 0.0
H871 H 0.6914 0.99564 0.28118 0.0
H872 H 0.64667 0.94698 0.30362 0.0
H873 H 0.63683 0.94776 0.35227 0.0
H874 H 0.62799 0.93786 0.29518 0.0
H875 H 0.61831 0.93864 0.34293 0.0
H876 H 0.66261 0.93173 0.29302 0.0
H877 H 0.68893 0.96147 0.27772 0.0
H878 H 0.62548 0.97267 0.35081 0.0
H879 H 0.62645 0.96628 0.30014 0.0
Li880 Li 0.03771 0.70228 0.36336 0.0
Li881 Li 0.01979 0.69575 0.35209 0.0
Li882 Li 0.02984 0.68765 0.34516 0.0
Li883 Li 0.03509 0.70468 0.33496 0.0
C884 C 0.02304 0.67935 0.37351 0.0
N885 N 0.01973 0.66034 0.3854 0.0
C886 C 0.01282 0.67079 0.37481 0.0
C887 C 0.03157 0.67827 0.37838 0.0
C888 C 0.01131 0.66124 0.38082 0.0
C889 C 0.02973 0.66859 0.38434 0.0
C890 C 0.03008 0.71623 0.36563 0.0
C891 C 0.03059 0.73205 0.37491 0.0
N892 N 0.02702 0.72751 0.38958 0.0
C893 C 0.02644 0.71172 0.38082 0.0
C894 C 0.03221 0.72648 0.36265 0.0
C895 C 0.02493 0.71755 0.39275 0.0
C896 C 0.0556 0.71833 0.37809 0.0
N897 N 0.04694 0.70882 0.38098 0.0
C898 C 0.05214 0.70918 0.40836 0.0
C899 C 0.04501 0.70424 0.39577 0.0
C900 C 0.0612 0.71899 0.40571 0.0
C901 C 0.06285 0.72362 0.39038 0.0
H902 H 0.05687 0.72178 0.36619 0.0
H903 H 0.03795 0.69677 0.39782 0.0
C904 C 0.99817 0.68274 0.35184 0.0
N905 N 0.00566 0.69279 0.35537 0.0
C906 C 0.98752 0.67953 0.35344 0.0
C907 C 0.99242 0.69715 0.36194 0.0
C908 C 0.003 0.70004 0.36005 0.0
C909 C 0.9845 0.68674 0.35872 0.0
H910 H 0.0005 0.67724 0.3476 0.0
H911 H 0.00901 0.70808 0.36225 0.0
C912 C 0.0504 0.69911 0.33259 0.0
N913 N 0.06277 0.698 0.30843 0.0
C914 C 0.04577 0.6936 0.31838 0.0
C915 C 0.06131 0.70407 0.3345 0.0
C916 C 0.05216 0.69312 0.30631 0.0
C917 C 0.06743 0.70341 0.32215 0.0
C918 C 0.01593 0.69344 0.31956 0.0
C919 C 0.01016 0.68608 0.30762 0.0
C920 C 0.01562 0.7028 0.3205 0.0
C921 C 0.00418 0.6882 0.29676 0.0
C922 C 0.00954 0.70463 0.30942 0.0
N923 N 0.00399 0.69735 0.29788 0.0
C924 C 0.01884 0.66649 0.33563 0.0
C925 C 0.03664 0.67254 0.34254 0.0
C926 C 0.01718 0.65642 0.33254 0.0
N927 N 0.02844 0.67428 0.34053 0.0
C928 C 0.03536 0.66261 0.33948 0.0
C929 C 0.02552 0.65439 0.33443 0.0
H930 H 0.01245 0.6681 0.33423 0.0
H931 H 0.04416 0.67884 0.34672 0.0
C932 C 0.04842 0.72441 0.32124 0.0
N933 N 0.04152 0.7142 0.31754 0.0
C934 C 0.05399 0.73164 0.30904 0.0
C935 C 0.04513 0.71772 0.28945 0.0
C936 C 0.03973 0.71077 0.30203 0.0
C937 C 0.05245 0.72829 0.29289 0.0
H938 H 0.04972 0.72688 0.33372 0.0
H939 H 0.03429 0.70257 0.29942 0.0
O940 O 0.02471 0.6887 0.36726 0.0
O941 O 0.03179 0.71077 0.35377 0.0
O942 O 0.04435 0.69982 0.34454 0.0
O943 O 0.02174 0.69137 0.3303 0.0
H944 H 0.00612 0.6715 0.37119 0.0
H945 H 0.03954 0.68478 0.37725 0.0
H946 H 0.00345 0.65454 0.38182 0.0
H947 H 0.03627 0.66762 0.38802 0.0
H948 H 0.03218 0.73998 0.37276 0.0
H949 H 0.02474 0.7038 0.38337 0.0
H950 H 0.03508 0.73009 0.35098 0.0
H951 H 0.0221 0.71416 0.40455 0.0
H952 H 0.05054 0.70544 0.42009 0.0
H953 H 0.06977 0.73115 0.38787 0.0
H954 H 0.98171 0.67151 0.3504 0.0
H955 H 0.9905 0.70298 0.36608 0.0
H956 H 0.03735 0.68974 0.31664 0.0
H957 H 0.065 0.7084 0.34541 0.0
H958 H 0.04869 0.68889 0.29526 0.0
H959 H 0.07588 0.70722 0.32346 0.0
H960 H 0.01031 0.67879 0.30676 0.0
H961 H 0.02 0.70861 0.32965 0.0
H962 H 0.99968 0.68256 0.28744 0.0
H963 H 0.00922 0.71183 0.31001 0.0
H964 H 0.0095 0.65033 0.3285 0.0
H965 H 0.04195 0.66134 0.34128 0.0
H966 H 0.05948 0.73973 0.31223 0.0
H967 H 0.04381 0.71475 0.27721 0.0
Li968 Li 0.30206 0.33752 0.35838 0.0
Li969 Li 0.30702 0.3251 0.34724 0.0
Li970 Li 0.31764 0.34463 0.3418 0.0
Li971 Li 0.30047 0.3338 0.32878 0.0
C972 C 0.31601 0.33789 0.37891 0.0
N973 N 0.31742 0.33983 0.41207 0.0
C974 C 0.31245 0.32895 0.38859 0.0
C975 C 0.32041 0.34783 0.38607 0.0
C976 C 0.3132 0.33009 0.40534 0.0
C977 C 0.32101 0.34864 0.40286 0.0
C978 C 0.28504 0.31375 0.34569 0.0
C979 C 0.27598 0.2976 0.33049 0.0
N980 N 0.26913 0.29303 0.34293 0.0
C981 C 0.27785 0.30892 0.35826 0.0
C982 C 0.28405 0.30807 0.33164 0.0
C983 C 0.26989 0.29843 0.35666 0.0
C984 C 0.29481 0.34901 0.37629 0.0
N985 N 0.29545 0.34009 0.37617 0.0
C986 C 0.28573 0.33432 0.40078 0.0
C987 C 0.29108 0.3328 0.38809 0.0
C988 C 0.28487 0.34343 0.40116 0.0
C989 C 0.28957 0.35088 0.38878 0.0
H990 H 0.29816 0.35459 0.36653 0.0
H991 H 0.29164 0.32573 0.38764 0.0
C992 C 0.31688 0.31309 0.34485 0.0
N993 N 0.30818 0.31291 0.35092 0.0
C994 C 0.31852 0.30462 0.34736 0.0
C995 C 0.30226 0.29592 0.36244 0.0
C996 C 0.30094 0.30458 0.35966 0.0
C997 C 0.31118 0.29588 0.35631 0.0
H998 H 0.3226 0.3199 0.33818 0.0
H999 H 0.29424 0.30471 0.36473 0.0
C1000 C 0.3105 0.35798 0.33648 0.0
N1001 N 0.32032 0.37917 0.32909 0.0
C1002 C 0.30914 0.36125 0.3213 0.0
C1003 C 0.31676 0.36549 0.34797 0.0
C1004 C 0.31419 0.372 0.31778 0.0
C1005 C 0.32169 0.37616 0.34399 0.0
C1006 C 0.31474 0.32977 0.31165 0.0
C1007 C 0.32118 0.33745 0.30049 0.0
C1008 C 0.31003 0.31913 0.30745 0.0
C1009 C 0.32257 0.33438 0.28517 0.0
C1010 C 0.31162 0.31637 0.29202 0.0
N1011 N 0.31778 0.32399 0.28128 0.0
C1012 C 0.339 0.35652 0.34985 0.0
C1013 C 0.33457 0.36259 0.32629 0.0
C1014 C 0.3496 0.36412 0.34806 0.0
N1015 N 0.33175 0.35586 0.339 0.0
C1016 C 0.34507 0.37038 0.32412 0.0
C1017 C 0.35275 0.37113 0.33499 0.0
H1018 H 0.33658 0.351 0.35975 0.0
H1019 H 0.32871 0.36181 0.31765 0.0
C1020 C 0.28139 0.32652 0.3121 0.0
N1021 N 0.29202 0.33195 0.3102 0.0
C1022 C 0.27477 0.32498 0.29906 0.0
C1023 C 0.29014 0.33511 0.28244 0.0
C1024 C 0.29647 0.33631 0.29577 0.0
C1025 C 0.27914 0.32932 0.28401 0.0
H1026 H 0.27802 0.32348 0.32381 0.0
H1027 H 0.30492 0.34091 0.29466 0.0
O1028 O 0.31519 0.33692 0.3625 0.0
O1029 O 0.29295 0.32399 0.34713 0.0
O1030 O 0.30566 0.34748 0.34011 0.0
O1031 O 0.31338 0.33265 0.32676 0.0
H1032 H 0.30905 0.32121 0.38325 0.0
H1033 H 0.32331 0.35483 0.37875 0.0
H1034 H 0.31041 0.32324 0.41299 0.0
H1035 H 0.32434 0.35627 0.40857 0.0
H1036 H 0.27514 0.29312 0.31968 0.0
H1037 H 0.27842 0.31322 0.36916 0.0
H1038 H 0.28936 0.31175 0.32166 0.0
H1039 H 0.2643 0.29459 0.36633 0.0
H1040 H 0.2823 0.32842 0.41016 0.0
H1041 H 0.28895 0.35793 0.38848 0.0
H1042 H 0.32562 0.30504 0.34268 0.0
H1043 H 0.29637 0.28934 0.36935 0.0
H1044 H 0.30424 0.35557 0.31232 0.0
H1045 H 0.31784 0.3631 0.3598 0.0
H1046 H 0.31324 0.37464 0.30605 0.0
H1047 H 0.32661 0.38205 0.35273 0.0
H1048 H 0.32499 0.3457 0.30356 0.0
H1049 H 0.30529 0.31305 0.31604 0.0
H1050 H 0.32745 0.34025 0.27638 0.0
H1051 H 0.30798 0.30817 0.2886 0.0
H1052 H 0.35527 0.36446 0.35675 0.0
H1053 H 0.3472 0.37553 0.31374 0.0
H1054 H 0.26632 0.32066 0.30081 0.0
H1055 H 0.29379 0.33863 0.27103 0.0
Li1056 Li 0.32466 0.02053 0.67186 0.0
Li1057 Li 0.34347 0.02861 0.67739 0.0
Li1058 Li 0.33273 0.0352 0.68985 0.0
Li1059 Li 0.33712 0.03801 0.66122 0.0
C1060 C 0.33096 0.02042 0.7089 0.0
N1061 N 0.33016 0.01991 0.74218 0.0
C1062 C 0.33988 0.02255 0.71785 0.0
C1063 C 0.32162 0.01801 0.71687 0.0
C1064 C 0.33932 0.02225 0.73467 0.0
C1065 C 0.32138 0.01781 0.73371 0.0
C1066 C 0.34112 0.01986 0.6487 0.0
C1067 C 0.35614 0.02105 0.63485 0.0
N1068 N 0.35138 0.01037 0.63478 0.0
C1069 C 0.33637 0.00888 0.64844 0.0
C1070 C 0.35107 0.02599 0.64179 0.0
C1071 C 0.34169 0.00424 0.64135 0.0
C1072 C 0.31002 0.0051 0.65098 0.0
N1073 N 0.31255 0.00741 0.66679 0.0
C1074 C 0.29914 0.99016 0.67458 0.0
C1075 C 0.30723 0.00025 0.67858 0.0
C1076 C 0.29667 0.98741 0.65831 0.0
C1077 C 0.30209 0.99508 0.64644 0.0
H1078 H 0.31446 0.01094 0.64187 0.0
H1079 H 0.3095 0.00225 0.69103 0.0
C1080 C 0.36463 0.03315 0.68261 0.0
N1081 N 0.35443 0.02546 0.68074 0.0
C1082 C 0.37244 0.03053 0.68537 0.0
C1083 C 0.35908 0.01214 0.68415 0.0
C1084 C 0.35154 0.01512 0.68165 0.0
C1085 C 0.36971 0.01988 0.68618 0.0
H1086 H 0.36668 0.04132 0.68221 0.0
H1087 H 0.34334 0.00917 0.68045 0.0
C1088 C 0.31339 0.0291 0.66569 0.0
N1089 N 0.29328 0.01951 0.65308 0.0
C1090 C 0.31186 0.03016 0.64933 0.0
C1091 C 0.30471 0.02319 0.67566 0.0
C1092 C 0.30162 0.02525 0.64318 0.0
C1093 C 0.2946 0.01839 0.66905 0.0
C1094 C 0.35383 0.05344 0.67594 0.0
C1095 C 0.35287 0.06164 0.68273 0.0
C1096 C 0.36173 0.05572 0.66458 0.0
C1097 C 0.3598 0.07199 0.67795 0.0
C1098 C 0.36848 0.06617 0.66009 0.0
N1099 N 0.36738 0.07402 0.66681 0.0
C1100 C 0.33963 0.0465 0.71879 0.0
C1101 C 0.32253 0.04261 0.71088 0.0
C1102 C 0.33945 0.05239 0.73185 0.0
N1103 N 0.33131 0.04188 0.70853 0.0
C1104 C 0.32196 0.04836 0.72388 0.0
C1105 C 0.33059 0.0535 0.73438 0.0
H1106 H 0.34654 0.04584 0.71652 0.0
H1107 H 0.31608 0.03898 0.70241 0.0
C1108 C 0.34265 0.04586 0.62908 0.0
N1109 N 0.34017 0.04772 0.64404 0.0
C1110 C 0.34499 0.05318 0.61672 0.0
C1111 C 0.34212 0.06413 0.63542 0.0
C1112 C 0.33967 0.05652 0.6473 0.0
C1113 C 0.34483 0.06254 0.61983 0.0
H1114 H 0.34274 0.03867 0.6267 0.0
H1115 H 0.33743 0.05768 0.65921 0.0
O1116 O 0.33141 0.0209 0.69243 0.0
O1117 O 0.33612 0.02457 0.65582 0.0
O1118 O 0.32336 0.03362 0.67185 0.0
O1119 O 0.34702 0.04323 0.68027 0.0
H1120 H 0.34719 0.0245 0.71189 0.0
H1121 H 0.31469 0.01649 0.71015 0.0
H1122 H 0.34617 0.02391 0.74175 0.0
H1123 H 0.31424 0.01603 0.74004 0.0
H1124 H 0.36386 0.02571 0.62954 0.0
H1125 H 0.32873 0.004 0.65388 0.0
H1126 H 0.35487 0.03448 0.6419 0.0
H1127 H 0.33813 0.99576 0.64115 0.0
H1128 H 0.29521 0.98443 0.68406 0.0
H1129 H 0.30036 0.99327 0.63376 0.0
H1130 H 0.38047 0.03678 0.68718 0.0
H1131 H 0.35658 0.00383 0.68444 0.0
H1132 H 0.31849 0.03464 0.64142 0.0
H1133 H 0.30577 0.02218 0.68831 0.0
H1134 H 0.30031 0.02597 0.63053 0.0
H1135 H 0.28781 0.01374 0.67659 0.0
H1136 H 0.34676 0.06004 0.69141 0.0
H1137 H 0.36257 0.04948 0.65918 0.0
H1138 H 0.35911 0.07841 0.68304 0.0
H1139 H 0.37459 0.06804 0.65125 0.0
H1140 H 0.34622 0.05615 0.73976 0.0
H1141 H 0.31504 0.04912 0.72534 0.0
H1142 H 0.34676 0.05144 0.60484 0.0
H1143 H 0.34201 0.07124 0.63855 0.0
Li1144 Li 0.97834 0.30323 0.6737 0.0
Li1145 Li 0.96707 0.31089 0.67799 0.0
Li1146 Li 0.96278 0.29445 0.69105 0.0
Li1147 Li 0.96091 0.29577 0.66185 0.0
C1148 C 0.98386 0.3176 0.69948 0.0
N1149 N 0.00064 0.33655 0.70952 0.0
C1150 C 0.98977 0.32549 0.68823 0.0
C1151 C 0.98647 0.31937 0.71582 0.0
C1152 C 0.99823 0.33501 0.69355 0.0
C1153 C 0.99499 0.329 0.72065 0.0
C1154 C 0.97264 0.31108 0.6414 0.0
C1155 C 0.96301 0.31219 0.61862 0.0
N1156 N 0.97081 0.31323 0.60862 0.0
C1157 C 0.98065 0.31234 0.63091 0.0
C1158 C 0.96384 0.31119 0.63522 0.0
C1159 C 0.97955 0.31335 0.61438 0.0
C1160 C 0.99375 0.30188 0.65598 0.0
N1161 N 0.99214 0.30529 0.67035 0.0
C1162 C 0.01009 0.31183 0.67787 0.0
C1163 C 0.99996 0.30984 0.6815 0.0
C1164 C 0.01213 0.309 0.6627 0.0
C1165 C 0.00375 0.30376 0.65181 0.0
H1166 H 0.98727 0.29785 0.64765 0.0
H1167 H 0.99843 0.31205 0.69315 0.0
C1168 C 0.96705 0.3269 0.69668 0.0
N1169 N 0.96754 0.32399 0.68129 0.0
C1170 C 0.96832 0.33681 0.69985 0.0
C1171 C 0.97033 0.34047 0.67126 0.0
C1172 C 0.96909 0.33051 0.66864 0.0
C1173 C 0.9701 0.34378 0.68706 0.0
H1174 H 0.96591 0.3216 0.70652 0.0
H1175 H 0.96964 0.3281 0.65656 0.0
C1176 C 0.97105 0.28225 0.67925 0.0
N1177 N 0.97887 0.26997 0.69129 0.0
C1178 C 0.96901 0.27304 0.67126 0.0
C1179 C 0.97708 0.28524 0.69334 0.0
C1180 C 0.97303 0.26693 0.67755 0.0
C1181 C 0.98096 0.27892 0.69924 0.0
C1182 C 0.94721 0.30215 0.68502 0.0
C1183 C 0.94527 0.30208 0.70152 0.0
C1184 C 0.94337 0.30683 0.67437 0.0
C1185 C 0.93965 0.30682 0.70712 0.0
C1186 C 0.9378 0.3115 0.68043 0.0
N1187 N 0.93608 0.31141 0.69655 0.0
C1188 C 0.95868 0.28957 0.72436 0.0
C1189 C 0.95103 0.27496 0.70656 0.0
C1190 C 0.95402 0.28296 0.7376 0.0
N1191 N 0.95699 0.28549 0.70922 0.0
C1192 C 0.9464 0.26805 0.71947 0.0
C1193 C 0.94778 0.27206 0.73518 0.0
H1194 H 0.96346 0.29798 0.72608 0.0
H1195 H 0.9498 0.27195 0.69437 0.0
C1196 C 0.95687 0.28378 0.63359 0.0
N1197 N 0.95272 0.28794 0.64389 0.0
C1198 C 0.95091 0.27756 0.62065 0.0
C1199 C 0.93662 0.28021 0.62904 0.0
C1200 C 0.94281 0.28629 0.6419 0.0
C1201 C 0.94063 0.27567 0.61831 0.0
H1202 H 0.96477 0.28522 0.63555 0.0
H1203 H 0.93967 0.28959 0.65041 0.0
O1204 O 0.9754 0.30828 0.69465 0.0
O1205 O 0.97353 0.30997 0.65764 0.0
O1206 O 0.9672 0.28832 0.67315 0.0
O1207 O 0.95292 0.29775 0.67937 0.0
H1208 H 0.98789 0.32431 0.67554 0.0
H1209 H 0.98196 0.31337 0.72468 0.0
H1210 H 0.00287 0.34118 0.68499 0.0
H1211 H 0.99711 0.33047 0.73326 0.0
H1212 H 0.95616 0.31215 0.6137 0.0
H1213 H 0.98771 0.31269 0.63545 0.0
H1214 H 0.95765 0.31038 0.64315 0.0
H1215 H 0.98567 0.31429 0.60613 0.0
H1216 H 0.01631 0.31581 0.68666 0.0
H1217 H 0.00493 0.30119 0.64015 0.0
H1218 H 0.96798 0.33901 0.7122 0.0
H1219 H 0.97182 0.34565 0.66108 0.0
H1220 H 0.96438 0.27064 0.66031 0.0
H1221 H 0.97877 0.29236 0.69967 0.0
H1222 H 0.97151 0.25977 0.6715 0.0
H1223 H 0.98564 0.28113 0.71013 0.0
H1224 H 0.94813 0.29851 0.70996 0.0
H1225 H 0.94472 0.30693 0.66156 0.0
H1226 H 0.93816 0.30688 0.71988 0.0
H1227 H 0.93486 0.31521 0.67232 0.0
H1228 H 0.95527 0.28631 0.74958 0.0
H1229 H 0.94157 0.25969 0.71716 0.0
H1230 H 0.95432 0.27428 0.61256 0.0
H1231 H 0.92868 0.27883 0.62777 0.0
Li1232 Li 0.69666 0.67729 0.67079 0.0
Li1233 Li 0.68782 0.659 0.67545 0.0
Li1234 Li 0.70468 0.67002 0.68832 0.0
Li1235 Li 0.70306 0.66648 0.65792 0.0
C1236 C 0.68303 0.67093 0.69681 0.0
N1237 N 0.66584 0.67242 0.70671 0.0
C1238 C 0.67495 0.66891 0.68596 0.0
C1239 C 0.68237 0.67372 0.7127 0.0
C1240 C 0.66632 0.6697 0.69119 0.0
C1241 C 0.67361 0.67443 0.71747 0.0
C1242 C 0.68278 0.66089 0.64229 0.0
C1243 C 0.67669 0.64813 0.62076 0.0
N1244 N 0.66893 0.65034 0.61741 0.0
C1245 C 0.6748 0.66311 0.63852 0.0
C1246 C 0.68379 0.6534 0.63325 0.0
C1247 C 0.66785 0.65766 0.62595 0.0
C1248 C 0.69326 0.6915 0.65246 0.0
N1249 N 0.69506 0.68925 0.66761 0.0
C1250 C 0.69377 0.70366 0.6784 0.0
C1251 C 0.69549 0.69519 0.68047 0.0
C1252 C 0.69172 0.70608 0.66292 0.0
C1253 C 0.6916 0.69995 0.64981 0.0
H1254 H 0.69303 0.68666 0.64246 0.0
H1255 H 0.69708 0.6933 0.69236 0.0
C1256 C 0.6715 0.64484 0.69567 0.0
N1257 N 0.67433 0.64669 0.67987 0.0
C1258 C 0.6617 0.63646 0.70012 0.0
C1259 C 0.65801 0.63168 0.67204 0.0
C1260 C 0.66788 0.64019 0.66814 0.0
C1261 C 0.65475 0.62982 0.6882 0.0
H1262 H 0.67685 0.64993 0.70486 0.0
H1263 H 0.67029 0.64154 0.65573 0.0
C1264 C 0.71669 0.69064 0.66869 0.0
N1265 N 0.72656 0.71228 0.66598 0.0
C1266 C 0.71872 0.69536 0.65348 0.0
C1267 C 0.71972 0.69692 0.68252 0.0
C1268 C 0.72371 0.70632 0.65237 0.0
C1269 C 0.72469 0.70785 0.6809 0.0
C1270 C 0.69504 0.64628 0.68061 0.0
C1271 C 0.69373 0.64342 0.69688 0.0
C1272 C 0.69089 0.63847 0.66875 0.0
C1273 C 0.68816 0.63277 0.70102 0.0
C1274 C 0.68537 0.62791 0.67338 0.0
N1275 N 0.68412 0.62529 0.68929 0.0
C1276 C 0.70997 0.671 0.72146 0.0
C1277 C 0.72389 0.67577 0.7028 0.0
C1278 C 0.71682 0.67292 0.73438 0.0
N1279 N 0.71363 0.67245 0.70609 0.0
C1280 C 0.73099 0.67779 0.71531 0.0
C1281 C 0.72749 0.67635 0.73137 0.0
H1282 H 0.70175 0.66831 0.72366 0.0
H1283 H 0.72654 0.6769 0.69041 0.0
C1284 C 0.71081 0.66947 0.62583 0.0
N1285 N 0.71011 0.66468 0.64017 0.0
C1286 C 0.71608 0.66807 0.61287 0.0
C1287 C 0.71976 0.65685 0.62974 0.0
C1288 C 0.71445 0.65848 0.64236 0.0
C1289 C 0.72063 0.66168 0.61475 0.0
H1290 H 0.70722 0.67431 0.62446 0.0
H1291 H 0.71381 0.65483 0.65394 0.0
O1292 O 0.6916 0.67027 0.69198 0.0
O1293 O 0.6898 0.66635 0.65433 0.0
O1294 O 0.71151 0.67993 0.67005 0.0
O1295 O 0.70017 0.65667 0.67635 0.0
H1296 H 0.67531 0.66672 0.67367 0.0
H1297 H 0.68858 0.67534 0.72124 0.0
H1298 H 0.66 0.66814 0.68291 0.0
H1299 H 0.67301 0.67658 0.72973 0.0
H1300 H 0.67734 0.64226 0.61375 0.0
H1301 H 0.67401 0.66902 0.64518 0.0
H1302 H 0.68987 0.65154 0.63598 0.0
H1303 H 0.66162 0.65927 0.62295 0.0
H1304 H 0.69407 0.70828 0.68878 0.0
H1305 H 0.68996 0.7015 0.6377 0.0
H1306 H 0.65961 0.63517 0.71277 0.0
H1307 H 0.65291 0.62678 0.66246 0.0
H1308 H 0.71636 0.69059 0.64267 0.0
H1309 H 0.71812 0.69337 0.69438 0.0
H1310 H 0.72528 0.71008 0.64068 0.0
H1311 H 0.72703 0.7128 0.6915 0.0
H1312 H 0.69686 0.64938 0.7062 0.0
H1313 H 0.69185 0.64056 0.65611 0.0
H1314 H 0.68702 0.63044 0.71356 0.0
H1315 H 0.68205 0.62178 0.66434 0.0
H1316 H 0.71377 0.6716 0.74657 0.0
H1317 H 0.73917 0.68057 0.71244 0.0
H1318 H 0.71646 0.67184 0.60147 0.0
H1319 H 0.72327 0.65198 0.63178 0.0
Li1320 Li 0.34172 0.31232 0.67746 0.0
Li1321 Li 0.3289 0.2945 0.68889 0.0
Li1322 Li 0.33446 0.29741 0.65966 0.0
Li1323 Li 0.32338 0.3035 0.67016 0.0
C1324 C 0.35291 0.30335 0.68581 0.0
N1325 N 0.37265 0.3115 0.69948 0.0
C1326 C 0.35394 0.30138 0.70201 0.0
C1327 C 0.36193 0.3094 0.67654 0.0
C1328 C 0.36398 0.30558 0.7087 0.0
C1329 C 0.37184 0.31348 0.68369 0.0
C1330 C 0.32429 0.31288 0.69763 0.0
C1331 C 0.30918 0.31202 0.71063 0.0
N1332 N 0.31306 0.3224 0.70737 0.0
C1333 C 0.32815 0.32355 0.69446 0.0
C1334 C 0.31475 0.30706 0.70582 0.0
C1335 C 0.32234 0.32822 0.69947 0.0
C1336 C 0.35695 0.3334 0.67119 0.0
N1337 N 0.35356 0.32566 0.68245 0.0
C1338 C 0.36652 0.33736 0.70116 0.0
C1339 C 0.35805 0.32747 0.69729 0.0
C1340 C 0.37022 0.34556 0.68978 0.0
C1341 C 0.3653 0.34345 0.67461 0.0
H1342 H 0.35303 0.33185 0.65966 0.0
H1343 H 0.35501 0.32124 0.70617 0.0
C1344 C 0.3256 0.27608 0.7035 0.0
N1345 N 0.32561 0.28518 0.70644 0.0
C1346 C 0.32373 0.26899 0.716 0.0
C1347 C 0.32172 0.28073 0.73425 0.0
C1348 C 0.32372 0.28764 0.7214 0.0
C1349 C 0.32181 0.27131 0.73163 0.0
H1350 H 0.32717 0.27439 0.69145 0.0
H1351 H 0.32395 0.29503 0.7234 0.0
C1352 C 0.33803 0.31241 0.63993 0.0
N1353 N 0.34276 0.31413 0.60744 0.0
C1354 C 0.33015 0.30994 0.62846 0.0
C1355 C 0.34833 0.31581 0.63487 0.0
C1356 C 0.3327 0.31085 0.61209 0.0
C1357 C 0.35056 0.3166 0.61839 0.0
C1358 C 0.30966 0.28269 0.6665 0.0
C1359 C 0.30545 0.28293 0.6515 0.0
C1360 C 0.303 0.27622 0.67872 0.0
C1361 C 0.29462 0.27674 0.649 0.0
C1362 C 0.29221 0.27013 0.67573 0.0
N1363 N 0.28827 0.27052 0.66106 0.0
C1364 C 0.34598 0.28947 0.64366 0.0
C1365 C 0.33113 0.28728 0.6291 0.0
C1366 C 0.34835 0.28441 0.63152 0.0
N1367 N 0.33751 0.29083 0.64224 0.0
C1368 C 0.33323 0.28221 0.61663 0.0
C1369 C 0.34192 0.28066 0.61778 0.0
H1370 H 0.35081 0.29217 0.65435 0.0
H1371 H 0.32439 0.28835 0.62828 0.0
C1372 C 0.3156 0.31585 0.65765 0.0
N1373 N 0.31241 0.30667 0.66568 0.0
C1374 C 0.30847 0.31921 0.6541 0.0
C1375 C 0.29487 0.30375 0.6675 0.0
C1376 C 0.30232 0.30074 0.67095 0.0
C1377 C 0.2979 0.31307 0.65884 0.0
H1378 H 0.32375 0.32066 0.65417 0.0
H1379 H 0.30003 0.29374 0.67798 0.0
O1380 O 0.34314 0.29939 0.67908 0.0
O1381 O 0.32971 0.3081 0.69241 0.0
O1382 O 0.33567 0.31142 0.65602 0.0
O1383 O 0.32026 0.28861 0.66918 0.0
H1384 H 0.34706 0.29672 0.70938 0.0
H1385 H 0.36129 0.31101 0.664 0.0
H1386 H 0.36489 0.30415 0.72123 0.0
H1387 H 0.37888 0.31822 0.67668 0.0
H1388 H 0.30175 0.3076 0.71688 0.0
H1389 H 0.33549 0.32814 0.68804 0.0
H1390 H 0.31159 0.29876 0.70817 0.0
H1391 H 0.3252 0.33645 0.69702 0.0
H1392 H 0.3701 0.33855 0.71295 0.0
H1393 H 0.36766 0.34956 0.66558 0.0
H1394 H 0.32377 0.26177 0.71346 0.0
H1395 H 0.32041 0.28286 0.74617 0.0
H1396 H 0.32212 0.3072 0.63213 0.0
H1397 H 0.35452 0.31775 0.64357 0.0
H1398 H 0.32667 0.30891 0.60309 0.0
H1399 H 0.35848 0.31917 0.61431 0.0
H1400 H 0.31046 0.28799 0.642 0.0
H1401 H 0.30612 0.27592 0.6904 0.0
H1402 H 0.29124 0.27691 0.63749 0.0
H1403 H 0.28696 0.2651 0.68508 0.0
H1404 H 0.35502 0.28323 0.63307 0.0
H1405 H 0.32812 0.27957 0.60618 0.0
H1406 H 0.31127 0.32662 0.64786 0.0
H1407 H 0.28682 0.29876 0.67144 0.0
Li1408 Li 0.68793 0.03017 0.68064 0.0
Li1409 Li 0.70552 0.03596 0.69173 0.0
Li1410 Li 0.70327 0.03829 0.66217 0.0
Li1411 Li 0.69792 0.02102 0.67401 0.0
C1412 C 0.69888 0.0531 0.68212 0.0
N1413 N 0.69632 0.0705 0.68402 0.0
C1414 C 0.69981 0.05801 0.69695 0.0
C1415 C 0.69684 0.05716 0.66821 0.0
C1416 C 0.69843 0.06676 0.69768 0.0
C1417 C 0.69552 0.06593 0.66944 0.0
C1418 C 0.69218 0.02067 0.71136 0.0
C1419 C 0.69919 0.01676 0.73498 0.0
N1420 N 0.69212 0.01779 0.74427 0.0
C1421 C 0.68495 0.02163 0.72113 0.0
C1422 C 0.69932 0.01814 0.7183 0.0
C1423 C 0.68506 0.02016 0.73775 0.0
C1424 C 0.66601 0.01909 0.67863 0.0
N1425 N 0.67422 0.02805 0.68468 0.0
C1426 C 0.66241 0.03306 0.69611 0.0
C1427 C 0.67262 0.03498 0.69337 0.0
C1428 C 0.65377 0.02388 0.68993 0.0
C1429 C 0.65569 0.01686 0.68104 0.0
H1430 H 0.6675 0.01366 0.67189 0.0
H1431 H 0.67923 0.04191 0.6984 0.0
C1432 C 0.72509 0.04609 0.70752 0.0
N1433 N 0.71468 0.04271 0.70951 0.0
C1434 C 0.73226 0.05168 0.71977 0.0
C1435 C 0.71784 0.05007 0.736 0.0
C1436 C 0.71097 0.04459 0.72339 0.0
C1437 C 0.72866 0.05379 0.7342 0.0
H1438 H 0.72785 0.04459 0.69629 0.0
H1439 H 0.7027 0.04202 0.72456 0.0
C1440 C 0.68371 0.02454 0.64645 0.0
N1441 N 0.67151 0.02373 0.62051 0.0
C1442 C 0.68131 0.01711 0.63424 0.0
C1443 C 0.67983 0.03149 0.64553 0.0
C1444 C 0.67515 0.01685 0.6212 0.0
C1445 C 0.67369 0.03098 0.63231 0.0
C1446 C 0.71802 0.02914 0.66744 0.0
C1447 C 0.72067 0.02979 0.65114 0.0
C1448 C 0.72106 0.02379 0.67814 0.0
C1449 C 0.72625 0.02496 0.64576 0.0
C1450 C 0.72661 0.01905 0.67228 0.0
N1451 N 0.72906 0.01972 0.65634 0.0
C1452 C 0.71859 0.05684 0.64831 0.0
C1453 C 0.70616 0.04532 0.62917 0.0
C1454 C 0.72407 0.06429 0.63634 0.0
N1455 N 0.70981 0.0476 0.64456 0.0
C1456 C 0.71132 0.0526 0.61685 0.0
C1457 C 0.7204 0.06222 0.62039 0.0
H1458 H 0.72132 0.05841 0.66066 0.0
H1459 H 0.69931 0.03785 0.62636 0.0
C1460 C 0.69369 0.00031 0.6811 0.0
N1461 N 0.69649 0.00767 0.66931 0.0
C1462 C 0.69226 0.99038 0.67753 0.0
C1463 C 0.69672 0.99583 0.64978 0.0
C1464 C 0.69804 0.00564 0.65389 0.0
C1465 C 0.69369 0.988 0.66164 0.0
H1466 H 0.69237 0.00209 0.69323 0.0
H1467 H 0.70023 0.01163 0.64474 0.0
O1468 O 0.70033 0.04459 0.68119 0.0
O1469 O 0.69222 0.02212 0.69507 0.0
O1470 O 0.68974 0.02489 0.65928 0.0
O1471 O 0.7124 0.03365 0.67289 0.0
H1472 H 0.70148 0.05506 0.70781 0.0
H1473 H 0.69636 0.05367 0.65656 0.0
H1474 H 0.69905 0.07058 0.7091 0.0
H1475 H 0.6939 0.06912 0.65877 0.0
H1476 H 0.70472 0.01487 0.74053 0.0
H1477 H 0.67934 0.02353 0.71594 0.0
H1478 H 0.70497 0.01737 0.7109 0.0
H1479 H 0.67953 0.02092 0.74547 0.0
H1480 H 0.66129 0.03859 0.70329 0.0
H1481 H 0.64929 0.00974 0.67592 0.0
H1482 H 0.74053 0.05437 0.71795 0.0
H1483 H 0.71477 0.05167 0.74684 0.0
H1484 H 0.68417 0.01161 0.63482 0.0
H1485 H 0.68142 0.03714 0.65499 0.0
H1486 H 0.67326 0.01116 0.61165 0.0
H1487 H 0.67064 0.03631 0.63145 0.0
H1488 H 0.71836 0.0339 0.64271 0.0
H1489 H 0.71909 0.02325 0.6908 0.0
H1490 H 0.7283 0.02534 0.63316 0.0
H1491 H 0.72897 0.01483 0.68039 0.0
H1492 H 0.73101 0.07164 0.63955 0.0
H1493 H 0.70834 0.05066 0.60464 0.0
H1494 H 0.68978 0.98454 0.687 0.0
H1495 H 0.69804 0.9944 0.63742 0.0
Li1496 Li 0.9662 0.67412 0.68769 0.0
Li1497 Li 0.97232 0.66335 0.67473 0.0
Li1498 Li 0.9819 0.68245 0.67017 0.0
Li1499 Li 0.96479 0.67121 0.65831 0.0
C1500 C 0.98568 0.68179 0.70274 0.0
N1501 N 0.99765 0.69624 0.72619 0.0
C1502 C 0.99263 0.68018 0.71219 0.0
C1503 C 0.98484 0.69077 0.70518 0.0
C1504 C 0.9986 0.68757 0.724 0.0
C1505 C 0.99095 0.69797 0.7171 0.0
C1506 C 0.95265 0.6505 0.68009 0.0
C1507 C 0.94342 0.6321 0.67298 0.0
N1508 N 0.94318 0.62955 0.6888 0.0
C1509 C 0.95225 0.64771 0.69628 0.0
C1510 C 0.94816 0.64265 0.66833 0.0
C1511 C 0.94745 0.63707 0.70044 0.0
C1512 C 0.95233 0.6791 0.70282 0.0
N1513 N 0.95927 0.67575 0.70586 0.0
C1514 C 0.95565 0.67478 0.73409 0.0
C1515 C 0.96099 0.67354 0.72109 0.0
C1516 C 0.94853 0.67839 0.73132 0.0
C1517 C 0.9469 0.68055 0.71543 0.0
H1518 H 0.95096 0.68058 0.69054 0.0
H1519 H 0.9665 0.67079 0.72314 0.0
C1520 C 0.97301 0.64482 0.66615 0.0
N1521 N 0.97409 0.65148 0.67834 0.0
C1522 C 0.97425 0.63613 0.66908 0.0
C1523 C 0.97782 0.64138 0.69703 0.0
C1524 C 0.97645 0.64993 0.69357 0.0
C1525 C 0.97671 0.63433 0.68469 0.0
H1526 H 0.97118 0.64622 0.65415 0.0
H1527 H 0.97718 0.6553 0.70307 0.0
C1528 C 0.97056 0.69246 0.65995 0.0
N1529 N 0.97232 0.70802 0.63922 0.0
C1530 C 0.97718 0.69528 0.64653 0.0
C1531 C 0.96488 0.6976 0.66287 0.0
C1532 C 0.97795 0.70315 0.63618 0.0
C1533 C 0.96586 0.70543 0.65224 0.0
C1534 C 0.978 0.66911 0.63815 0.0
C1535 C 0.98591 0.6765 0.62812 0.0
C1536 C 0.96996 0.65976 0.63152 0.0
C1537 C 0.98561 0.67444 0.61163 0.0
C1538 C 0.96993 0.658 0.61497 0.0
N1539 N 0.97769 0.66531 0.60545 0.0
C1540 C 0.00329 0.69235 0.66299 0.0
C1541 C 0.9978 0.70424 0.67163 0.0
C1542 C 0.01363 0.70057 0.66127 0.0
N1543 N 0.99564 0.69432 0.66797 0.0
C1544 C 0.00806 0.71271 0.67016 0.0
C1545 C 0.01615 0.71093 0.66492 0.0
H1546 H 0.00134 0.68436 0.66031 0.0
H1547 H 0.99157 0.70557 0.67577 0.0
C1548 C 0.94513 0.66284 0.64352 0.0
N1549 N 0.95557 0.66925 0.64063 0.0
C1550 C 0.93774 0.66091 0.63148 0.0
C1551 C 0.95195 0.67236 0.61371 0.0
C1552 C 0.95907 0.67407 0.62611 0.0
C1553 C 0.94112 0.66568 0.61631 0.0
H1554 H 0.94252 0.65924 0.65524 0.0
H1555 H 0.96739 0.67916 0.62403 0.0
O1556 O 0.97987 0.67465 0.69104 0.0
O1557 O 0.95765 0.66089 0.67574 0.0
O1558 O 0.96969 0.68479 0.67027 0.0
O1559 O 0.97818 0.671 0.65435 0.0
H1560 H 0.99342 0.6733 0.71039 0.0
H1561 H 0.97955 0.6922 0.69795 0.0
H1562 H 0.00401 0.68641 0.7314 0.0
H1563 H 0.99037 0.70495 0.71911 0.0
H1564 H 0.93996 0.62594 0.664 0.0
H1565 H 0.95576 0.65369 0.70551 0.0
H1566 H 0.94837 0.64468 0.65575 0.0
H1567 H 0.94715 0.63479 0.71292 0.0
H1568 H 0.95716 0.67308 0.74618 0.0
H1569 H 0.94135 0.68317 0.71276 0.0
H1570 H 0.97342 0.63095 0.65919 0.0
H1571 H 0.97957 0.6402 0.70929 0.0
H1572 H 0.98164 0.69141 0.64408 0.0
H1573 H 0.95977 0.6956 0.67326 0.0
H1574 H 0.98303 0.70537 0.62572 0.0
H1575 H 0.96149 0.70946 0.65435 0.0
H1576 H 0.99222 0.68376 0.633 0.0
H1577 H 0.96367 0.65405 0.63901 0.0
H1578 H 0.99167 0.6801 0.60374 0.0
H1579 H 0.9637 0.65084 0.60969 0.0
H1580 H 0.01955 0.69882 0.65695 0.0
H1581 H 0.00965 0.72053 0.67332 0.0
H1582 H 0.92946 0.65586 0.63412 0.0
H1583 H 0.95492 0.67612 0.60216 0.0
H1584 H 0.21184 0.33081 0.11711 0.0
N1585 N 0.19236 0.31417 0.10958 0.0
H1586 H 0.22212 0.33264 0.14104 0.0
H1587 H 0.18648 0.30143 0.13507 0.0
H1588 H 0.19655 0.30348 0.15968 0.0
H1589 H 0.19863 0.30165 0.09677 0.0
H1590 H 0.21218 0.3062 0.07625 0.0
H1591 H 0.20052 0.3317 0.08953 0.0
H1592 H 0.21365 0.33606 0.06883 0.0
H1593 H 0.19682 0.33416 0.11741 0.0
H1594 H 0.1718 0.30339 0.10368 0.0
H1595 H 0.18447 0.34058 0.11851 0.0
H1596 H 0.15914 0.30957 0.10569 0.0
H1597 H 0.14037 0.35561 0.13502 0.0
H1598 H 0.12956 0.35229 0.1591 0.0
H1599 H 0.12014 0.3193 0.15673 0.0
H1600 H 0.13083 0.3227 0.13241 0.0
H1601 H 0.12402 0.32438 0.10612 0.0
H1602 H 0.11189 0.32441 0.08605 0.0
H1603 H 0.13311 0.35755 0.07753 0.0
H1604 H 0.14533 0.35735 0.09743 0.0
H1605 H 0.15888 0.34684 0.1349 0.0
H1606 H 0.1709 0.33994 0.1337 0.0
H1607 H 0.15326 0.32012 0.09358 0.0
N1608 N 0.14204 0.34162 0.11691 0.0
H1609 H 0.14098 0.32651 0.09547 0.0
C1610 C 0.19839 0.31585 0.12417 0.0
C1611 C 0.20842 0.32478 0.12629 0.0
C1612 C 0.21428 0.32588 0.14014 0.0
C1613 C 0.21021 0.31819 0.15235 0.0
C1614 C 0.20004 0.30945 0.15042 0.0
C1615 C 0.19422 0.30829 0.13644 0.0
C1616 C 0.19854 0.31628 0.095 0.0
C1617 C 0.2017 0.30907 0.09043 0.0
C1618 C 0.20943 0.31168 0.07865 0.0
C1619 C 0.21413 0.32158 0.07107 0.0
C1620 C 0.21037 0.32847 0.07472 0.0
C1621 C 0.20272 0.3259 0.08659 0.0
C1622 C 0.18524 0.31827 0.11029 0.0
C1623 C 0.18863 0.32874 0.11473 0.0
C1624 C 0.1815 0.33239 0.11551 0.0
C1625 C 0.17074 0.3256 0.11228 0.0
C1626 C 0.16737 0.3151 0.10799 0.0
C1627 C 0.17457 0.31151 0.10693 0.0
C1628 C 0.13642 0.33945 0.13198 0.0
C1629 C 0.13607 0.3477 0.13986 0.0
C1630 C 0.12992 0.34578 0.15364 0.0
C1631 C 0.12398 0.33552 0.15986 0.0
C1632 C 0.12452 0.32726 0.15215 0.0
C1633 C 0.13068 0.3292 0.13831 0.0
C1634 C 0.13561 0.34091 0.10328 0.0
C1635 C 0.12617 0.3316 0.09971 0.0
C1636 C 0.11921 0.33164 0.08828 0.0
C1637 C 0.12147 0.34101 0.08032 0.0
C1638 C 0.13116 0.35017 0.08331 0.0
C1639 C 0.13815 0.3501 0.09469 0.0
C1640 C 0.14894 0.33726 0.11543 0.0
C1641 C 0.15757 0.34094 0.12592 0.0
C1642 C 0.1645 0.33705 0.12509 0.0
C1643 C 0.16313 0.3295 0.11345 0.0
C1644 C 0.15449 0.3258 0.10288 0.0
C1645 C 0.14744 0.32956 0.10391 0.0
H1646 H 0.71051 0.81693 0.13348 0.0
N1647 N 0.6963 0.81351 0.11084 0.0
H1648 H 0.70758 0.80739 0.159 0.0
H1649 H 0.67713 0.79981 0.12414 0.0
H1650 H 0.67415 0.79036 0.1495 0.0
H1651 H 0.67761 0.80606 0.09441 0.0
H1652 H 0.66927 0.79012 0.07779 0.0
H1653 H 0.70511 0.80285 0.09967 0.0
H1654 H 0.6967 0.78681 0.08331 0.0
H1655 H 0.71047 0.8308 0.09591 0.0
H1656 H 0.68059 0.81741 0.12037 0.0
H1657 H 0.71056 0.84742 0.0928 0.0
H1658 H 0.68082 0.83405 0.11803 0.0
H1659 H 0.7107 0.90157 0.11775 0.0
H1660 H 0.70916 0.90877 0.14355 0.0
H1661 H 0.68274 0.87842 0.15621 0.0
H1662 H 0.68417 0.87141 0.1303 0.0
H1663 H 0.67761 0.87826 0.10742 0.0
H1664 H 0.66939 0.88499 0.08932 0.0
H1665 H 0.69706 0.8983 0.05893 0.0
H1666 H 0.70549 0.89198 0.07782 0.0
H1667 H 0.71382 0.87871 0.10914 0.0
H1668 H 0.71306 0.8617 0.10927 0.0
H1669 H 0.67955 0.84615 0.1004 0.0
N1670 N 0.69805 0.88246 0.10598 0.0
H1671 H 0.68034 0.86314 0.10098 0.0
C1672 C 0.6941 0.80909 0.12687 0.0
C1673 C 0.70255 0.81131 0.13713 0.0
C1674 C 0.70085 0.80586 0.15168 0.0
C1675 C 0.69064 0.79805 0.15613 0.0
C1676 C 0.68212 0.79623 0.14625 0.0
C1677 C 0.68382 0.8017 0.13178 0.0
C1678 C 0.69204 0.80567 0.09828 0.0
C1679 C 0.68199 0.80214 0.0916 0.0
C1680 C 0.67721 0.79302 0.08213 0.0
C1681 C 0.68234 0.78725 0.07944 0.0
C1682 C 0.69259 0.79113 0.0853 0.0
C1683 C 0.69741 0.80029 0.09453 0.0
C1684 C 0.69565 0.82291 0.10853 0.0
C1685 C 0.70394 0.83147 0.10061 0.0
C1686 C 0.704 0.84097 0.09897 0.0
C1687 C 0.69576 0.84214 0.10534 0.0
C1688 C 0.68727 0.83343 0.11285 0.0
C1689 C 0.68717 0.82389 0.11436 0.0
C1690 C 0.69761 0.88599 0.12207 0.0
C1691 C 0.70469 0.89646 0.12623 0.0
C1692 C 0.70381 0.90053 0.14099 0.0
C1693 C 0.69579 0.89418 0.15193 0.0
C1694 C 0.68891 0.88356 0.14797 0.0
C1695 C 0.68979 0.87951 0.13318 0.0
C1696 C 0.6923 0.8848 0.09413 0.0
C1697 C 0.6819 0.88254 0.09683 0.0
C1698 C 0.67714 0.88633 0.0863 0.0
C1699 C 0.68258 0.89232 0.07269 0.0
C1700 C 0.69271 0.89394 0.06948 0.0
C1701 C 0.69752 0.89025 0.08015 0.0
C1702 C 0.69722 0.87226 0.10493 0.0
C1703 C 0.70634 0.87162 0.10712 0.0
C1704 C 0.70588 0.86189 0.10708 0.0
C1705 C 0.69624 0.85252 0.10475 0.0
C1706 C 0.68709 0.85318 0.10239 0.0
C1707 C 0.68755 0.86294 0.10256 0.0
H1708 H 0.14031 0.79453 0.14362 0.0
N1709 N 0.13537 0.80148 0.11736 0.0
H1710 H 0.12969 0.78723 0.168 0.0
H1711 H 0.11688 0.80109 0.12441 0.0
H1712 H 0.10645 0.79417 0.14878 0.0
H1713 H 0.12217 0.80419 0.09704 0.0
H1714 H 0.11092 0.79175 0.07628 0.0
H1715 H 0.13602 0.78485 0.10653 0.0
H1716 H 0.12496 0.77249 0.08559 0.0
H1717 H 0.15554 0.81024 0.10976 0.0
H1718 H 0.13109 0.8177 0.11895 0.0
H1719 H 0.16825 0.82894 0.10613 0.0
H1720 H 0.14376 0.83637 0.11611 0.0
H1721 H 0.20517 0.87986 0.12036 0.0
H1722 H 0.21493 0.88898 0.14431 0.0
H1723 H 0.19123 0.89715 0.15604 0.0
H1724 H 0.18128 0.88778 0.13185 0.0
H1725 H 0.19095 0.89599 0.09347 0.0
H1726 H 0.20526 0.90585 0.07432 0.0
H1727 H 0.21276 0.88088 0.07508 0.0
H1728 H 0.19831 0.87099 0.09374 0.0
H1729 H 0.19016 0.86291 0.12106 0.0
H1730 H 0.17738 0.84429 0.12206 0.0
H1731 H 0.15467 0.85007 0.0978 0.0
N1732 N 0.18694 0.87866 0.10923 0.0
H1733 H 0.1675 0.86895 0.09751 0.0
C1734 C 0.12946 0.79837 0.13219 0.0
C1735 C 0.13299 0.79459 0.14482 0.0
C1736 C 0.12692 0.79046 0.15875 0.0
C1737 C 0.11718 0.79006 0.16031 0.0
C1738 C 0.11383 0.79421 0.14786 0.0
C1739 C 0.11988 0.79828 0.13392 0.0
C1740 C 0.12984 0.79533 0.10345 0.0
C1741 C 0.1229 0.79735 0.0945 0.0
C1742 C 0.11649 0.79026 0.08264 0.0
C1743 C 0.11705 0.78114 0.07938 0.0
C1744 C 0.12443 0.77949 0.08772 0.0
C1745 C 0.13072 0.7865 0.0997 0.0
C1746 C 0.14243 0.81255 0.11483 0.0
C1747 C 0.15294 0.81593 0.11105 0.0
C1748 C 0.16019 0.82663 0.1091 0.0
C1749 C 0.15707 0.8342 0.11101 0.0
C1750 C 0.14644 0.83077 0.11441 0.0
C1751 C 0.13916 0.82004 0.11621 0.0
C1752 C 0.19243 0.88314 0.12419 0.0
C1753 C 0.20194 0.88349 0.12806 0.0
C1754 C 0.2076 0.88879 0.14177 0.0
C1755 C 0.20393 0.8939 0.15195 0.0
C1756 C 0.19424 0.89325 0.14844 0.0
C1757 C 0.18856 0.88793 0.13465 0.0
C1758 C 0.1936 0.88283 0.09521 0.0
C1759 C 0.19547 0.8925 0.08905 0.0
C1760 C 0.2037 0.89815 0.07824 0.0
C1761 C 0.21029 0.89424 0.07345 0.0
C1762 C 0.20782 0.88411 0.07848 0.0
C1763 C 0.19954 0.87844 0.08925 0.0
C1764 C 0.17975 0.86743 0.10936 0.0
C1765 C 0.18246 0.86027 0.116 0.0
C1766 C 0.17512 0.84952 0.11641 0.0
C1767 C 0.16496 0.84564 0.11003 0.0
C1768 C 0.16236 0.85279 0.10308 0.0
C1769 C 0.16969 0.86356 0.10278 0.0
H1770 H 0.32942 0.2098 0.89907 0.0
N1771 N 0.31293 0.19208 0.91238 0.0
H1772 H 0.32926 0.21819 0.87387 0.0
H1773 H 0.29694 0.18598 0.89187 0.0
H1774 H 0.29671 0.19453 0.86649 0.0
H1775 H 0.30158 0.19846 0.9286 0.0
H1776 H 0.30789 0.21298 0.9478 0.0
H1777 H 0.33269 0.20228 0.9265 0.0
H1778 H 0.33891 0.21646 0.94598 0.0
H1779 H 0.33164 0.1951 0.89983 0.0
H1780 H 0.30266 0.17222 0.92251 0.0
H1781 H 0.33723 0.18219 0.89795 0.0
H1782 H 0.30812 0.15896 0.92017 0.0
H1783 H 0.35393 0.1401 0.88601 0.0
H1784 H 0.35175 0.12956 0.86202 0.0
H1785 H 0.31837 0.11863 0.86219 0.0
H1786 H 0.32064 0.129 0.88651 0.0
H1787 H 0.32116 0.12335 0.91396 0.0
H1788 H 0.32055 0.11017 0.93266 0.0
H1789 H 0.35406 0.12948 0.94044 0.0
H1790 H 0.35454 0.14265 0.92188 0.0
H1791 H 0.34026 0.15481 0.88147 0.0
H1792 H 0.33338 0.16676 0.88337 0.0
H1793 H 0.32073 0.15435 0.93049 0.0
N1794 N 0.33902 0.14077 0.90318 0.0
H1795 H 0.32723 0.14215 0.92842 0.0
C1796 C 0.31317 0.19714 0.89732 0.0
C1797 C 0.32226 0.20629 0.89201 0.0
C1798 C 0.32218 0.2111 0.87756 0.0
C1799 C 0.31299 0.20697 0.8682 0.0
C1800 C 0.30389 0.19788 0.87352 0.0
C1801 C 0.30402 0.19298 0.88792 0.0
C1802 C 0.31657 0.19922 0.92596 0.0
C1803 C 0.30968 0.20221 0.93265 0.0
C1804 C 0.31331 0.2105 0.94367 0.0
C1805 C 0.32395 0.21598 0.94831 0.0
C1806 C 0.33071 0.21254 0.94241 0.0
C1807 C 0.3271 0.2043 0.9313 0.0
C1808 C 0.31665 0.18465 0.91135 0.0
C1809 C 0.32641 0.18728 0.90435 0.0
C1810 C 0.32959 0.17981 0.90316 0.0
C1811 C 0.32309 0.16948 0.90875 0.0
C1812 C 0.31337 0.16687 0.91586 0.0
C1813 C 0.31022 0.1744 0.91715 0.0
C1814 C 0.3375 0.13537 0.888 0.0
C1815 C 0.34619 0.13553 0.88071 0.0
C1816 C 0.34491 0.12953 0.86696 0.0
C1817 C 0.33487 0.12323 0.86014 0.0
C1818 C 0.32618 0.12328 0.86725 0.0
C1819 C 0.32747 0.12925 0.88108 0.0
C1820 C 0.33795 0.13396 0.91649 0.0
C1821 C 0.32832 0.12483 0.91997 0.0
C1822 C 0.328 0.11729 0.93062 0.0
C1823 C 0.33728 0.11872 0.9379 0.0
C1824 C 0.34675 0.12818 0.93519 0.0
C1825 C 0.34706 0.13571 0.92457 0.0
C1826 C 0.33406 0.14719 0.90443 0.0
C1827 C 0.33579 0.15445 0.89208 0.0
C1828 C 0.33197 0.16141 0.89328 0.0
C1829 C 0.32651 0.16154 0.90711 0.0
C1830 C 0.32473 0.15432 0.91953 0.0
C1831 C 0.3285 0.14728 0.91829 0.0
H1832 H 0.79634 0.14455 0.87881 0.0
N1833 N 0.80076 0.13921 0.90715 0.0
H1834 H 0.78964 0.13359 0.85455 0.0
H1835 H 0.79854 0.11964 0.90279 0.0
H1836 H 0.79194 0.10875 0.87874 0.0
H1837 H 0.80338 0.12718 0.92998 0.0
H1838 H 0.79039 0.11614 0.95023 0.0
H1839 H 0.78325 0.13916 0.91499 0.0
H1840 H 0.77021 0.12816 0.93517 0.0
H1841 H 0.81022 0.15938 0.91513 0.0
H1842 H 0.81636 0.13402 0.9061 0.0
H1843 H 0.82907 0.17152 0.91869 0.0
H1844 H 0.83517 0.14612 0.90878 0.0
H1845 H 0.88146 0.20745 0.90303 0.0
H1846 H 0.88942 0.21648 0.87817 0.0
H1847 H 0.89195 0.18977 0.86222 0.0
H1848 H 0.88444 0.18093 0.88794 0.0
H1849 H 0.89645 0.1922 0.92655 0.0
H1850 H 0.90711 0.20639 0.94546 0.0
H1851 H 0.88241 0.2142 0.9483 0.0
H1852 H 0.87174 0.1999 0.92986 0.0
H1853 H 0.86306 0.19227 0.90234 0.0
H1854 H 0.84424 0.1801 0.90245 0.0
H1855 H 0.84935 0.15681 0.92626 0.0
N1856 N 0.87849 0.18824 0.91285 0.0
H1857 H 0.86838 0.16899 0.92536 0.0
C1858 C 0.79786 0.13294 0.89265 0.0
C1859 C 0.79551 0.13679 0.87875 0.0
C1860 C 0.79173 0.13054 0.86492 0.0
C1861 C 0.79019 0.12028 0.8648 0.0
C1862 C 0.7929 0.11656 0.87856 0.0
C1863 C 0.79672 0.12283 0.89233 0.0
C1864 C 0.79423 0.13397 0.92092 0.0
C1865 C 0.79626 0.1276 0.93125 0.0
C1866 C 0.78881 0.12125 0.94277 0.0
C1867 C 0.77925 0.12123 0.94423 0.0
C1868 C 0.77753 0.12807 0.93449 0.0
C1869 C 0.78495 0.13434 0.92293 0.0
C1870 C 0.81186 0.14586 0.91011 0.0
C1871 C 0.81565 0.15645 0.91391 0.0
C1872 C 0.82643 0.16338 0.9158 0.0
C1873 C 0.83369 0.15986 0.9138 0.0
C1874 C 0.82983 0.14912 0.91054 0.0
C1875 C 0.81903 0.14217 0.90883 0.0
C1876 C 0.88247 0.19349 0.89755 0.0
C1877 C 0.88374 0.20349 0.89432 0.0
C1878 C 0.8882 0.20863 0.87987 0.0
C1879 C 0.89134 0.20388 0.86807 0.0
C1880 C 0.88979 0.19376 0.87111 0.0
C1881 C 0.88542 0.18865 0.88573 0.0
C1882 C 0.88335 0.195 0.92663 0.0
C1883 C 0.89322 0.19677 0.93168 0.0
C1884 C 0.89933 0.20494 0.94236 0.0
C1885 C 0.89569 0.21156 0.94815 0.0
C1886 C 0.88543 0.20923 0.94414 0.0
C1887 C 0.87931 0.20102 0.93351 0.0
C1888 C 0.8672 0.18148 0.91364 0.0
C1889 C 0.8602 0.18456 0.90754 0.0
C1890 C 0.84936 0.17759 0.90779 0.0
C1891 C 0.84523 0.16743 0.91434 0.0
C1892 C 0.85224 0.1645 0.92086 0.0
C1893 C 0.86311 0.17145 0.92047 0.0
H1894 H 0.81049 0.7109 0.89572 0.0
N1895 N 0.81278 0.6956 0.90849 0.0
H1896 H 0.80165 0.71046 0.87041 0.0
H1897 H 0.80543 0.67987 0.88581 0.0
H1898 H 0.79648 0.67927 0.86086 0.0
H1899 H 0.79835 0.67465 0.91209 0.0
H1900 H 0.78332 0.66727 0.93034 0.0
H1901 H 0.80954 0.70539 0.93271 0.0
H1902 H 0.79462 0.69802 0.95139 0.0
H1903 H 0.83165 0.71178 0.9146 0.0
H1904 H 0.81546 0.67843 0.90527 0.0
H1905 H 0.84839 0.71203 0.91567 0.0
H1906 H 0.83215 0.67868 0.90501 0.0
H1907 H 0.90001 0.71059 0.89391 0.0
H1908 H 0.90698 0.70808 0.8685 0.0
H1909 H 0.87828 0.67844 0.86146 0.0
H1910 H 0.87133 0.68108 0.88683 0.0
H1911 H 0.87679 0.67672 0.91162 0.0
H1912 H 0.88429 0.66995 0.93108 0.0
H1913 H 0.90138 0.70069 0.95317 0.0
H1914 H 0.89396 0.70751 0.93321 0.0
H1915 H 0.87763 0.71204 0.89887 0.0
H1916 H 0.86068 0.71133 0.89906 0.0
H1917 H 0.84625 0.68012 0.91983 0.0
N1918 N 0.88193 0.69734 0.90805 0.0
H1919 H 0.86303 0.68064 0.91852 0.0
C1920 C 0.80867 0.69549 0.89268 0.0
C1921 C 0.8076 0.70407 0.88797 0.0
C1922 C 0.80248 0.70375 0.8736 0.0
C1923 C 0.79831 0.6948 0.86366 0.0
C1924 C 0.79971 0.68634 0.86814 0.0
C1925 C 0.80483 0.68666 0.88251 0.0
C1926 C 0.80504 0.69062 0.92099 0.0
C1927 C 0.79775 0.67977 0.92083 0.0
C1928 C 0.78914 0.67554 0.93135 0.0
C1929 C 0.78769 0.68208 0.94218 0.0
C1930 C 0.7954 0.6928 0.94299 0.0
C1931 C 0.80397 0.69701 0.93246 0.0
C1932 C 0.82235 0.69518 0.90957 0.0
C1933 C 0.83175 0.70453 0.91263 0.0
C1934 C 0.84132 0.70465 0.91305 0.0
C1935 C 0.84172 0.6954 0.91014 0.0
C1936 C 0.8322 0.68596 0.90742 0.0
C1937 C 0.8226 0.68582 0.90731 0.0
C1938 C 0.88523 0.69604 0.89227 0.0
C1939 C 0.89518 0.70364 0.88673 0.0
C1940 C 0.89912 0.7022 0.87222 0.0
C1941 C 0.89318 0.69304 0.86304 0.0
C1942 C 0.88306 0.68552 0.86839 0.0
C1943 C 0.87908 0.68703 0.88284 0.0
C1944 C 0.88487 0.69269 0.9209 0.0
C1945 C 0.88201 0.68199 0.92076 0.0
C1946 C 0.88627 0.67809 0.93202 0.0
C1947 C 0.89349 0.68479 0.94364 0.0
C1948 C 0.89594 0.69536 0.94424 0.0
C1949 C 0.89166 0.69925 0.93295 0.0
C1950 C 0.87172 0.69651 0.90883 0.0
C1951 C 0.87078 0.70505 0.90344 0.0
C1952 C 0.86108 0.70465 0.90371 0.0
C1953 C 0.85204 0.69571 0.90966 0.0
C1954 C 0.85297 0.6871 0.915 0.0
C1955 C 0.86267 0.68744 0.91443 0.0
H1956 H 0.76681 0.62876 0.44967 0.0
N1957 N 0.78561 0.64136 0.43687 0.0
H1958 H 0.75976 0.63115 0.47504 0.0
H1959 H 0.79657 0.6566 0.45941 0.0
H1960 H 0.78963 0.65905 0.48489 0.0
H1961 H 0.79443 0.66272 0.43356 0.0
H1962 H 0.78798 0.67172 0.41628 0.0
H1963 H 0.77136 0.63286 0.41362 0.0
H1964 H 0.76457 0.64172 0.39663 0.0
H1965 H 0.79042 0.62878 0.4533 0.0
H1966 H 0.80369 0.65446 0.4191 0.0
H1967 H 0.80696 0.62874 0.45378 0.0
H1968 H 0.82 0.65412 0.4191 0.0
H1969 H 0.85844 0.6273 0.45515 0.0
H1970 H 0.86791 0.6303 0.48065 0.0
H1971 H 0.86734 0.65924 0.48715 0.0
H1972 H 0.85815 0.65631 0.46157 0.0
H1973 H 0.86881 0.66072 0.43651 0.0
H1974 H 0.88381 0.66712 0.41835 0.0
H1975 H 0.87073 0.636 0.39779 0.0
H1976 H 0.85577 0.6296 0.41634 0.0
H1977 H 0.83393 0.62392 0.44014 0.0
H1978 H 0.81745 0.62419 0.43815 0.0
H1979 H 0.8351 0.65816 0.43491 0.0
N1980 N 0.85333 0.64013 0.44033 0.0
H1981 H 0.85147 0.65772 0.43606 0.0
C1982 C 0.78215 0.64248 0.45265 0.0
C1983 C 0.77185 0.6353 0.45744 0.0
C1984 C 0.76787 0.63667 0.47195 0.0
C1985 C 0.77414 0.64531 0.48196 0.0
C1986 C 0.78457 0.65239 0.47734 0.0
C1987 C 0.78856 0.65098 0.46282 0.0
C1988 C 0.78338 0.64708 0.42481 0.0
C1989 C 0.78808 0.65811 0.42526 0.0
C1990 C 0.78431 0.66324 0.41545 0.0
C1991 C 0.77566 0.65745 0.40518 0.0
C1992 C 0.77133 0.64647 0.40421 0.0
C1993 C 0.77518 0.64137 0.41392 0.0
C1994 C 0.79569 0.64175 0.43656 0.0
C1995 C 0.79687 0.63443 0.44592 0.0
C1996 C 0.80633 0.63433 0.44603 0.0
C1997 C 0.81486 0.64143 0.43646 0.0
C1998 C 0.81368 0.64867 0.42686 0.0
C1999 C 0.80423 0.64885 0.42688 0.0
C2000 C 0.85755 0.64151 0.45642 0.0
C2001 C 0.86021 0.63418 0.46226 0.0
C2002 C 0.86558 0.63591 0.47684 0.0
C2003 C 0.86843 0.64505 0.48591 0.0
C2004 C 0.8654 0.6522 0.48034 0.0
C2005 C 0.86004 0.65047 0.46573 0.0
C2006 C 0.86116 0.64462 0.42781 0.0
C2007 C 0.86899 0.65532 0.42784 0.0
C2008 C 0.87759 0.65898 0.41739 0.0
C2009 C 0.87853 0.65204 0.40674 0.0
C2010 C 0.87033 0.64151 0.40603 0.0
C2011 C 0.86174 0.63786 0.41649 0.0
C2012 C 0.8439 0.64075 0.4384 0.0
C2013 C 0.8342 0.6314 0.43887 0.0
C2014 C 0.8248 0.6316 0.43787 0.0
C2015 C 0.82491 0.64122 0.43657 0.0
C2016 C 0.83469 0.6506 0.43577 0.0
C2017 C 0.8441 0.65037 0.43658 0.0
H2018 H 0.37869 0.14486 0.45497 0.0
N2019 N 0.36353 0.14823 0.44452 0.0
H2020 H 0.37945 0.13704 0.48062 0.0
H2021 H 0.35017 0.14391 0.47029 0.0
H2022 H 0.35044 0.13555 0.49527 0.0
H2023 H 0.34282 0.13277 0.44777 0.0
H2024 H 0.33342 0.11737 0.43085 0.0
H2025 H 0.36979 0.14466 0.41638 0.0
H2026 H 0.36016 0.12944 0.39865 0.0
H2027 H 0.3794 0.16718 0.43768 0.0
H2028 H 0.34614 0.15052 0.44784 0.0
H2029 H 0.37911 0.18362 0.43525 0.0
H2030 H 0.34587 0.16694 0.44666 0.0
H2031 H 0.37461 0.2353 0.45199 0.0
H2032 H 0.37307 0.24242 0.47784 0.0
H2033 H 0.34765 0.21165 0.49135 0.0
H2034 H 0.3491 0.2047 0.46528 0.0
H2035 H 0.34115 0.20848 0.44157 0.0
H2036 H 0.33153 0.21462 0.42514 0.0
H2037 H 0.35995 0.23466 0.39841 0.0
H2038 H 0.36947 0.22822 0.41472 0.0
H2039 H 0.37792 0.21281 0.44958 0.0
H2040 H 0.37806 0.19629 0.4505 0.0
H2041 H 0.34672 0.18017 0.43012 0.0
N2042 N 0.36242 0.21599 0.44065 0.0
H2043 H 0.3464 0.19649 0.4302 0.0
C2044 C 0.36437 0.14491 0.46056 0.0
C2045 C 0.37264 0.14304 0.46392 0.0
C2046 C 0.37298 0.13846 0.47852 0.0
C2047 C 0.36492 0.13549 0.49002 0.0
C2048 C 0.35687 0.13781 0.48688 0.0
C2049 C 0.35664 0.14254 0.47239 0.0
C2050 C 0.35715 0.13982 0.4335 0.0
C2051 C 0.34668 0.1322 0.43706 0.0
C2052 C 0.34123 0.12338 0.42719 0.0
C2053 C 0.34604 0.12205 0.41341 0.0
C2054 C 0.35628 0.13005 0.40935 0.0
C2055 C 0.36177 0.13881 0.41936 0.0
C2056 C 0.36289 0.15767 0.44319 0.0
C2057 C 0.37206 0.16712 0.43958 0.0
C2058 C 0.37188 0.17651 0.43834 0.0
C2059 C 0.36249 0.1767 0.44094 0.0
C2060 C 0.35324 0.16715 0.4444 0.0
C2061 C 0.3534 0.15771 0.44534 0.0
C2062 C 0.36202 0.21952 0.45672 0.0
C2063 C 0.36882 0.23009 0.46066 0.0
C2064 C 0.36794 0.23411 0.47546 0.0
C2065 C 0.36021 0.22761 0.48667 0.0
C2066 C 0.3536 0.2169 0.4829 0.0
C2067 C 0.35446 0.2129 0.46805 0.0
C2068 C 0.35608 0.2179 0.42933 0.0
C2069 C 0.34527 0.21399 0.43192 0.0
C2070 C 0.33978 0.21758 0.42259 0.0
C2071 C 0.345 0.22524 0.41059 0.0
C2072 C 0.35566 0.22869 0.40744 0.0
C2073 C 0.36113 0.22504 0.41674 0.0
C2074 C 0.36223 0.20604 0.43985 0.0
C2075 C 0.3711 0.2057 0.44529 0.0
C2076 C 0.37117 0.19623 0.44568 0.0
C2077 C 0.36241 0.18682 0.44033 0.0
C2078 C 0.35356 0.18718 0.43462 0.0
C2079 C 0.35341 0.19665 0.43451 0.0
H2080 H 0.78641 0.12571 0.45345 0.0
N2081 N 0.78651 0.14279 0.44001 0.0
H2082 H 0.77947 0.11806 0.47986 0.0
H2083 H 0.77868 0.15001 0.46238 0.0
H2084 H 0.77145 0.1422 0.48885 0.0
H2085 H 0.76576 0.13074 0.43605 0.0
H2086 H 0.75637 0.11581 0.41816 0.0
H2087 H 0.7952 0.13738 0.41412 0.0
H2088 H 0.78579 0.12268 0.39601 0.0
H2089 H 0.80211 0.13767 0.44199 0.0
H2090 H 0.79635 0.16358 0.43678 0.0
H2091 H 0.82093 0.14981 0.44216 0.0
H2092 H 0.81528 0.17597 0.43791 0.0
H2093 H 0.88066 0.19325 0.46039 0.0
H2094 H 0.88869 0.20285 0.48524 0.0
H2095 H 0.86476 0.21177 0.48848 0.0
H2096 H 0.857 0.20237 0.46329 0.0
H2097 H 0.86578 0.21112 0.43746 0.0
H2098 H 0.87776 0.22419 0.41819 0.0
H2099 H 0.88834 0.20282 0.40315 0.0
H2100 H 0.87613 0.18968 0.4223 0.0
H2101 H 0.85332 0.17397 0.45923 0.0
H2102 H 0.83439 0.16202 0.45817 0.0
H2103 H 0.83139 0.18295 0.42464 0.0
N2104 N 0.86455 0.1923 0.44444 0.0
H2105 H 0.85011 0.19513 0.4266 0.0
C2106 C 0.78318 0.13854 0.45603 0.0
C2107 C 0.78346 0.12956 0.46126 0.0
C2108 C 0.77945 0.12516 0.47634 0.0
C2109 C 0.77495 0.12955 0.48639 0.0
C2110 C 0.77484 0.13863 0.48129 0.0
C2111 C 0.77899 0.14312 0.46627 0.0
C2112 C 0.7813 0.13496 0.4274 0.0
C2113 C 0.77023 0.12906 0.42736 0.0
C2114 C 0.76483 0.12055 0.41694 0.0
C2115 C 0.77033 0.11786 0.40582 0.0
C2116 C 0.78133 0.12429 0.40483 0.0
C2117 C 0.78676 0.13276 0.41541 0.0
C2118 C 0.79777 0.14971 0.43912 0.0
C2119 C 0.80489 0.146 0.44095 0.0
C2120 C 0.81572 0.15301 0.44119 0.0
C2121 C 0.81972 0.16394 0.44015 0.0
C2122 C 0.81256 0.16762 0.43842 0.0
C2123 C 0.80172 0.16057 0.43783 0.0
C2124 C 0.86825 0.19706 0.46005 0.0
C2125 C 0.87709 0.19716 0.46663 0.0
C2126 C 0.88162 0.20262 0.48086 0.0
C2127 C 0.87737 0.20809 0.4889 0.0
C2128 C 0.86831 0.20775 0.4825 0.0
C2129 C 0.86381 0.20231 0.46818 0.0
C2130 C 0.87009 0.1994 0.43132 0.0
C2131 C 0.8705 0.20915 0.42978 0.0
C2132 C 0.87741 0.21665 0.41881 0.0
C2133 C 0.8841 0.2146 0.40927 0.0
C2134 C 0.88323 0.20462 0.4102 0.0
C2135 C 0.87629 0.19711 0.42115 0.0
C2136 C 0.85328 0.18547 0.44306 0.0
C2137 C 0.84855 0.17599 0.45171 0.0
C2138 C 0.83771 0.16911 0.45094 0.0
C2139 C 0.83128 0.17143 0.44118 0.0
C2140 C 0.83602 0.18094 0.43247 0.0
C2141 C 0.84686 0.18793 0.4335 0.0
H2142 H 0.00505 0.54534 0.23021 0.0
N2143 N 0.9888 0.52762 0.24384 0.0
H2144 H 0.00404 0.55483 0.2069 0.0
H2145 H 0.97244 0.52166 0.22401 0.0
H2146 H 0.97136 0.53123 0.20044 0.0
H2147 H 0.97738 0.53372 0.26062 0.0
H2148 H 0.9838 0.54857 0.27914 0.0
H2149 H 0.00868 0.53824 0.25688 0.0
H2150 H 0.0151 0.55277 0.27598 0.0
H2151 H 0.00389 0.52816 0.22301 0.0
H2152 H 0.9835 0.51113 0.26287 0.0
H2153 H 0.01036 0.51599 0.2223 0.0
H2154 H 0.99057 0.49917 0.26293 0.0
H2155 H 0.03133 0.47755 0.2179 0.0
H2156 H 0.0279 0.46669 0.1938 0.0
H2157 H 0.99462 0.45548 0.19866 0.0
H2158 H 0.99808 0.4661 0.22281 0.0
H2159 H 0.00176 0.45896 0.24779 0.0
H2160 H 0.00377 0.4479 0.26761 0.0
H2161 H 0.03514 0.47328 0.27847 0.0
H2162 H 0.03321 0.48411 0.25782 0.0
H2163 H 0.02773 0.49882 0.23259 0.0
H2164 H 0.02117 0.5111 0.23526 0.0
H2165 H 0.99072 0.48531 0.24938 0.0
N2166 N 0.01735 0.47825 0.23734 0.0
H2167 H 0.99766 0.47332 0.24784 0.0
C2168 C 0.98875 0.53277 0.22898 0.0
C2169 C 0.99766 0.54214 0.2238 0.0
C2170 C 0.99707 0.54759 0.21047 0.0
C2171 C 0.98758 0.54385 0.20197 0.0
C2172 C 0.97879 0.53428 0.20673 0.0
C2173 C 0.97938 0.52882 0.22016 0.0
C2174 C 0.99248 0.53484 0.25731 0.0
C2175 C 0.98556 0.53769 0.26426 0.0
C2176 C 0.98927 0.54618 0.27491 0.0
C2177 C 1.00002 0.55198 0.27896 0.0
C2178 C 0.00682 0.54863 0.27288 0.0
C2179 C 0.00312 0.5402 0.26209 0.0
C2180 C 0.99301 0.52056 0.24298 0.0
C2181 C 0.00079 0.52187 0.23174 0.0
C2182 C 0.00465 0.51489 0.23146 0.0
C2183 C 0.00107 0.50657 0.24262 0.0
C2184 C 0.9934 0.50535 0.25395 0.0
C2185 C 0.98939 0.51222 0.25403 0.0
C2186 C 0.01504 0.47272 0.22217 0.0
C2187 C 0.02333 0.47287 0.21358 0.0
C2188 C 0.02134 0.46668 0.1998 0.0
C2189 C 0.01097 0.46018 0.19434 0.0
C2190 C 0.00268 0.46028 0.20268 0.0
C2191 C 0.00468 0.46647 0.21647 0.0
C2192 C 0.01745 0.47232 0.25111 0.0
C2193 C 0.00902 0.46221 0.25456 0.0
C2194 C 0.01016 0.45589 0.26606 0.0
C2195 C 0.0197 0.45961 0.2745 0.0
C2196 C 0.02779 0.47005 0.27191 0.0
C2197 C 0.02668 0.4763 0.26025 0.0
C2198 C 0.01317 0.48518 0.23974 0.0
C2199 C 0.01967 0.49588 0.23639 0.0
C2200 C 0.01584 0.50285 0.23777 0.0
C2201 C 0.00532 0.49921 0.24226 0.0
C2202 C 0.99887 0.48846 0.246 0.0
C2203 C 0.0028 0.48153 0.24492 0.0
H2204 H 0.56635 0.52283 0.22898 0.0
N2205 N 0.54865 0.52064 0.24121 0.0
H2206 H 0.57495 0.53151 0.20372 0.0
H2207 H 0.54026 0.52743 0.21771 0.0
H2208 H 0.5489 0.53647 0.19302 0.0
H2209 H 0.5431 0.53589 0.24275 0.0
H2210 H 0.55126 0.55138 0.25992 0.0
H2211 H 0.56044 0.52339 0.26698 0.0
H2212 H 0.56821 0.5386 0.28502 0.0
H2213 H 0.54589 0.50182 0.24775 0.0
H2214 H 0.52886 0.51805 0.23794 0.0
H2215 H 0.52938 0.48512 0.24904 0.0
H2216 H 0.51233 0.50134 0.23783 0.0
H2217 H 0.47606 0.43274 0.22937 0.0
H2218 H 0.46627 0.42509 0.20445 0.0
H2219 H 0.46586 0.45387 0.19505 0.0
H2220 H 0.47595 0.46153 0.21974 0.0
H2221 H 0.46503 0.45528 0.2443 0.0
H2222 H 0.45063 0.44735 0.26343 0.0
H2223 H 0.46662 0.43368 0.28897 0.0
H2224 H 0.48074 0.44115 0.26892 0.0
H2225 H 0.5004 0.45578 0.23268 0.0
H2226 H 0.51652 0.47281 0.23243 0.0
H2227 H 0.49953 0.4872 0.25256 0.0
N2228 N 0.4814 0.45134 0.24204 0.0
H2229 H 0.48332 0.47024 0.25163 0.0
C2230 C 0.55271 0.5245 0.22532 0.0
C2231 C 0.56243 0.52561 0.22096 0.0
C2232 C 0.56736 0.53067 0.20662 0.0
C2233 C 0.56268 0.53482 0.19638 0.0
C2234 C 0.55271 0.53329 0.20047 0.0
C2235 C 0.54775 0.52815 0.21475 0.0
C2236 C 0.55135 0.52857 0.25339 0.0
C2237 C 0.54845 0.53633 0.25207 0.0
C2238 C 0.55309 0.54519 0.26205 0.0
C2239 C 0.56059 0.54639 0.2737 0.0
C2240 C 0.56272 0.53812 0.27589 0.0
C2241 C 0.5582 0.52935 0.26574 0.0
C2242 C 0.53864 0.51111 0.24243 0.0
C2243 C 0.53855 0.50173 0.24571 0.0
C2244 C 0.52909 0.49218 0.24625 0.0
C2245 C 0.51945 0.49177 0.24319 0.0
C2246 C 0.51955 0.50129 0.24031 0.0
C2247 C 0.52905 0.51089 0.24011 0.0
C2248 C 0.4767 0.44764 0.22641 0.0
C2249 C 0.474 0.43743 0.22175 0.0
C2250 C 0.46832 0.43306 0.20761 0.0
C2251 C 0.46515 0.43882 0.19785 0.0
C2252 C 0.46823 0.44924 0.20222 0.0
C2253 C 0.47397 0.45362 0.21636 0.0
C2254 C 0.47388 0.4486 0.25498 0.0
C2255 C 0.46551 0.45066 0.25406 0.0
C2256 C 0.45728 0.44618 0.26521 0.0
C2257 C 0.45732 0.4397 0.27768 0.0
C2258 C 0.46615 0.43838 0.27928 0.0
C2259 C 0.4743 0.44273 0.26796 0.0
C2260 C 0.49069 0.46164 0.24237 0.0
C2261 C 0.50018 0.46263 0.237 0.0
C2262 C 0.50941 0.47239 0.23703 0.0
C2263 C 0.50944 0.48144 0.24274 0.0
C2264 C 0.49985 0.48046 0.24796 0.0
C2265 C 0.49054 0.47069 0.24761 0.0
H2266 H 0.51982 0.9696 0.20969 0.0
N2267 N 0.51887 0.98151 0.2329 0.0
H2268 H 0.53163 0.97534 0.18634 0.0
H2269 H 0.53192 0.00192 0.22364 0.0
H2270 H 0.54397 0.00774 0.2005 0.0
H2271 H 0.53667 0.99674 0.24788 0.0
H2272 H 0.54736 0.99381 0.26725 0.0
H2273 H 0.51385 0.96359 0.2479 0.0
H2274 H 0.52445 0.96057 0.26775 0.0
H2275 H 0.50151 0.97633 0.21642 0.0
H2276 H 0.52021 0.9958 0.25598 0.0
H2277 H 0.48912 0.9826 0.22016 0.0
H2278 H 0.50752 0.00151 0.26055 0.0
H2279 H 0.44927 0.9909 0.23509 0.0
H2280 H 0.44071 0.99115 0.21011 0.0
H2281 H 0.46608 0.02269 0.20042 0.0
H2282 H 0.47455 0.02243 0.22578 0.0
H2283 H 0.46129 0.01936 0.26123 0.0
H2284 H 0.44643 0.01409 0.2794 0.0
H2285 H 0.44267 0.98301 0.2829 0.0
H2286 H 0.45719 0.98816 0.26441 0.0
H2287 H 0.46324 0.98729 0.23862 0.0
H2288 H 0.47576 0.98117 0.23643 0.0
H2289 H 0.50078 0.01189 0.25113 0.0
N2290 N 0.4675 0.00707 0.24758 0.0
H2291 H 0.48791 0.01769 0.25446 0.0
C2292 C 0.52507 0.98529 0.21842 0.0
C2293 C 0.52494 0.97793 0.20755 0.0
C2294 C 0.53166 0.98123 0.19424 0.0
C2295 C 0.53874 0.99198 0.19167 0.0
C2296 C 0.53865 0.9994 0.2023 0.0
C2297 C 0.53179 0.99609 0.2155 0.0
C2298 C 0.52444 0.98034 0.24635 0.0
C2299 C 0.53383 0.98885 0.2523 0.0
C2300 C 0.53992 0.98716 0.26352 0.0
C2301 C 0.5368 0.97694 0.26899 0.0
C2302 C 0.52714 0.96852 0.26362 0.0
C2303 C 0.52104 0.97023 0.2524 0.0
C2304 C 0.51177 0.98545 0.2359 0.0
C2305 C 0.50287 0.98187 0.22604 0.0
C2306 C 0.49573 0.98539 0.22833 0.0
C2307 C 0.49718 0.99249 0.24083 0.0
C2308 C 0.50616 0.99614 0.25069 0.0
C2309 C 0.51344 0.99277 0.24816 0.0
C2310 C 0.46259 0.0067 0.23233 0.0
C2311 C 0.45307 0.99783 0.22755 0.0
C2312 C 0.44819 0.99797 0.21319 0.0
C2313 C 0.4527 0.00694 0.20327 0.0
C2314 C 0.46233 0.0157 0.20789 0.0
C2315 C 0.46722 0.01556 0.22229 0.0
C2316 C 0.46039 0.00423 0.26116 0.0
C2317 C 0.45742 0.01149 0.26625 0.0
C2318 C 0.44892 0.00845 0.27669 0.0
C2319 C 0.44321 0.99805 0.28244 0.0
C2320 C 0.44671 0.99101 0.27838 0.0
C2321 C 0.45516 0.99402 0.26779 0.0
C2322 C 0.4746 0.00295 0.24701 0.0
C2323 C 0.47136 0.99266 0.24172 0.0
C2324 C 0.47862 0.98921 0.24021 0.0
C2325 C 0.48937 0.99603 0.24344 0.0
C2326 C 0.49257 0.00631 0.24879 0.0
C2327 C 0.48524 0.00968 0.25063 0.0
H2328 H 0.43972 0.96526 0.79451 0.0
N2329 N 0.45646 0.97953 0.77856 0.0
H2330 H 0.43261 0.96762 0.81991 0.0
H2331 H 0.46565 0.99707 0.7976 0.0
H2332 H 0.4584 0.99963 0.82279 0.0
H2333 H 0.46125 0.9997 0.77145 0.0
H2334 H 0.45218 0.00475 0.75193 0.0
H2335 H 0.4431 0.96741 0.75594 0.0
H2336 H 0.434 0.97243 0.73612 0.0
H2337 H 0.46107 0.96528 0.7888 0.0
H2338 H 0.47513 0.99613 0.76733 0.0
H2339 H 0.47814 0.96631 0.78915 0.0
H2340 H 0.49211 0.99697 0.76655 0.0
H2341 H 0.5287 0.96718 0.79311 0.0
H2342 H 0.53798 0.96819 0.81818 0.0
H2343 H 0.5422 0.99905 0.82736 0.0
H2344 H 0.53304 0.99801 0.80234 0.0
H2345 H 0.54129 0.00274 0.77648 0.0
H2346 H 0.55611 0.00936 0.75788 0.0
H2347 H 0.54232 0.97865 0.73556 0.0
H2348 H 0.52781 0.97199 0.75489 0.0
H2349 H 0.50714 0.96573 0.77457 0.0
H2350 H 0.49036 0.96535 0.77287 0.0
H2351 H 0.50644 0.99893 0.7816 0.0
N2352 N 0.52596 0.98212 0.77998 0.0
H2353 H 0.52323 0.99926 0.78192 0.0
C2354 C 0.45309 0.98099 0.79414 0.0
C2355 C 0.4439 0.97272 0.80078 0.0
C2356 C 0.43988 0.97408 0.81525 0.0
C2357 C 0.44495 0.98382 0.82323 0.0
C2358 C 0.45431 0.99207 0.81677 0.0
C2359 C 0.45843 0.99063 0.8024 0.0
C2360 C 0.45284 0.98313 0.76516 0.0
C2361 C 0.45552 0.99373 0.76354 0.0
C2362 C 0.45034 0.99662 0.7523 0.0
C2363 C 0.44231 0.98897 0.74257 0.0
C2364 C 0.44007 0.97848 0.74359 0.0
C2365 C 0.4453 0.97561 0.75478 0.0
C2366 C 0.46673 0.98051 0.77788 0.0
C2367 C 0.46784 0.97221 0.78392 0.0
C2368 C 0.47762 0.9728 0.78396 0.0
C2369 C 0.48657 0.98166 0.77765 0.0
C2370 C 0.48546 0.99005 0.77165 0.0
C2371 C 0.47566 0.98953 0.77192 0.0
C2372 C 0.53016 0.98247 0.79581 0.0
C2373 C 0.53146 0.97406 0.80072 0.0
C2374 C 0.53675 0.97465 0.81504 0.0
C2375 C 0.54088 0.98373 0.8247 0.0
C2376 C 0.53922 0.99201 0.82006 0.0
C2377 C 0.53391 0.99139 0.80576 0.0
C2378 C 0.53355 0.98679 0.76723 0.0
C2379 C 0.54138 0.99747 0.76747 0.0
C2380 C 0.54984 0.00127 0.75669 0.0
C2381 C 0.55053 0.99449 0.74538 0.0
C2382 C 0.5422 0.98402 0.74438 0.0
C2383 C 0.53384 0.98022 0.75528 0.0
C2384 C 0.51636 0.98243 0.77873 0.0
C2385 C 0.50699 0.97299 0.77602 0.0
C2386 C 0.49741 0.9728 0.77522 0.0
C2387 C 0.49694 0.98208 0.77744 0.0
C2388 C 0.50644 0.99163 0.77978 0.0
C2389 C 0.51607 0.99182 0.78024 0.0
H2390 H 0.96778 0.52408 0.80943 0.0
N2391 N 0.97954 0.52602 0.78393 0.0
H2392 H 0.97322 0.53488 0.83388 0.0
H2393 H 0.9997 0.54078 0.79194 0.0
H2394 H 0.00524 0.55154 0.81634 0.0
H2395 H 0.99642 0.53718 0.76415 0.0
H2396 H 0.99784 0.54975 0.7433 0.0
H2397 H 0.96417 0.52868 0.77266 0.0
H2398 H 0.96539 0.54095 0.75167 0.0
H2399 H 0.96356 0.50755 0.77535 0.0
H2400 H 0.99658 0.52323 0.78699 0.0
H2401 H 0.96322 0.4908 0.77329 0.0
H2402 H 0.99624 0.50641 0.78593 0.0
H2403 H 0.96365 0.44011 0.801 0.0
H2404 H 0.96801 0.43368 0.8253 0.0
H2405 H 0.99977 0.46012 0.82347 0.0
H2406 H 0.99529 0.4664 0.79896 0.0
H2407 H 0.99526 0.45945 0.77203 0.0
H2408 H 0.99755 0.44896 0.75127 0.0
H2409 H 0.96403 0.43246 0.74234 0.0
H2410 H 0.96188 0.44315 0.76296 0.0
H2411 H 0.96224 0.46149 0.79228 0.0
H2412 H 0.96351 0.47869 0.79143 0.0
H2413 H 0.99451 0.492 0.77019 0.0
N2414 N 0.97642 0.45652 0.78313 0.0
H2415 H 0.99331 0.47478 0.77188 0.0
C2416 C 0.98329 0.53164 0.79889 0.0
C2417 C 0.97599 0.52995 0.81104 0.0
C2418 C 0.97913 0.5361 0.82499 0.0
C2419 C 0.98966 0.5441 0.827 0.0
C2420 C 0.99705 0.54552 0.81504 0.0
C2421 C 0.9939 0.53934 0.80111 0.0
C2422 C 0.98021 0.53215 0.77004 0.0
C2423 C 0.98962 0.53793 0.76136 0.0
C2424 C 0.99041 0.54507 0.74947 0.0
C2425 C 0.98173 0.54633 0.74591 0.0
C2426 C 0.97217 0.54006 0.75402 0.0
C2427 C 0.97146 0.53309 0.76602 0.0
C2428 C 0.98 0.51656 0.78159 0.0
C2429 C 0.97074 0.50734 0.77746 0.0
C2430 C 0.97056 0.49777 0.77645 0.0
C2431 C 0.97965 0.49718 0.77981 0.0
C2432 C 0.98909 0.50655 0.78325 0.0
C2433 C 0.98929 0.51619 0.78401 0.0
C2434 C 0.97911 0.45368 0.79825 0.0
C2435 C 0.97149 0.44457 0.80602 0.0
C2436 C 0.97401 0.44095 0.81992 0.0
C2437 C 0.98424 0.4464 0.82635 0.0
C2438 C 0.99184 0.4557 0.81873 0.0
C2439 C 0.98929 0.45933 0.80478 0.0
C2440 C 0.97835 0.45203 0.76904 0.0
C2441 C 0.98845 0.45379 0.7653 0.0
C2442 C 0.98974 0.44773 0.7535 0.0
C2443 C 0.98096 0.43979 0.74527 0.0
C2444 C 0.97097 0.43857 0.74832 0.0
C2445 C 0.96971 0.44463 0.76011 0.0
C2446 C 0.97758 0.46682 0.78199 0.0
C2447 C 0.96929 0.46814 0.78742 0.0
C2448 C 0.97002 0.47797 0.78678 0.0
C2449 C 0.97906 0.48675 0.78049 0.0
C2450 C 0.98745 0.48544 0.77516 0.0
C2451 C 0.98674 0.47557 0.77599 0.0
H2452 H 0.46471 0.47056 0.8018 0.0
N2453 N 0.45713 0.47585 0.77526 0.0
H2454 H 0.45516 0.46286 0.82668 0.0
H2455 H 0.43894 0.47406 0.78439 0.0
H2456 H 0.42938 0.46658 0.80958 0.0
H2457 H 0.44903 0.47453 0.74602 0.0
H2458 H 0.44096 0.45915 0.72813 0.0
H2459 H 0.4567 0.4571 0.77991 0.0
H2460 H 0.44846 0.44178 0.76262 0.0
H2461 H 0.47365 0.47196 0.77207 0.0
H2462 H 0.46601 0.49655 0.77852 0.0
H2463 H 0.49223 0.48485 0.77286 0.0
H2464 H 0.48477 0.50957 0.78018 0.0
H2465 H 0.54769 0.52866 0.806 0.0
H2466 H 0.55384 0.53914 0.8307 0.0
H2467 H 0.53235 0.5507 0.82223 0.0
H2468 H 0.5262 0.54014 0.79758 0.0
H2469 H 0.53551 0.54641 0.77263 0.0
H2470 H 0.54848 0.55838 0.75343 0.0
H2471 H 0.56077 0.5372 0.7486 0.0
H2472 H 0.54738 0.52499 0.76743 0.0
H2473 H 0.52397 0.50849 0.79428 0.0
H2474 H 0.50527 0.49566 0.79151 0.0
H2475 H 0.50077 0.51867 0.76555 0.0
N2476 N 0.53408 0.52831 0.78466 0.0
H2477 H 0.51931 0.53153 0.76907 0.0
C2478 C 0.45251 0.47288 0.79114 0.0
C2479 C 0.4571 0.46993 0.80348 0.0
C2480 C 0.45163 0.46554 0.81778 0.0
C2481 C 0.44146 0.46401 0.82009 0.0
C2482 C 0.43713 0.46748 0.80808 0.0
C2483 C 0.4426 0.47184 0.79375 0.0
C2484 C 0.45342 0.46702 0.76433 0.0
C2485 C 0.44906 0.46744 0.74951 0.0
C2486 C 0.44441 0.45863 0.73939 0.0
C2487 C 0.44403 0.4492 0.74395 0.0
C2488 C 0.44873 0.44893 0.75857 0.0
C2489 C 0.45338 0.45771 0.76861 0.0
C2490 C 0.46831 0.48328 0.77506 0.0
C2491 C 0.4759 0.48012 0.77359 0.0
C2492 C 0.48662 0.48755 0.77424 0.0
C2493 C 0.49005 0.49827 0.77665 0.0
C2494 C 0.48245 0.50141 0.77804 0.0
C2495 C 0.47172 0.49399 0.7772 0.0
C2496 C 0.53656 0.53365 0.79996 0.0
C2497 C 0.5442 0.53332 0.80966 0.0
C2498 C 0.54766 0.53928 0.82375 0.0
C2499 C 0.54359 0.54576 0.82836 0.0
C2500 C 0.53569 0.54586 0.81887 0.0
C2501 C 0.53216 0.53981 0.80482 0.0
C2502 C 0.54041 0.53471 0.77141 0.0
C2503 C 0.54073 0.54414 0.7671 0.0
C2504 C 0.54829 0.55108 0.75623 0.0
C2505 C 0.55578 0.54884 0.74962 0.0
C2506 C 0.55508 0.53915 0.75331 0.0
C2507 C 0.54745 0.53216 0.76409 0.0
C2508 C 0.52311 0.52092 0.78179 0.0
C2509 C 0.51893 0.51072 0.78792 0.0
C2510 C 0.50824 0.50338 0.78622 0.0
C2511 C 0.50148 0.50608 0.7782 0.0
C2512 C 0.50571 0.51634 0.77195 0.0
C2513 C 0.5164 0.52371 0.77382 0.0
H2514 H 0.66241 0.87204 0.56115 0.0
N2515 N 0.64439 0.85757 0.57662 0.0
H2516 H 0.66348 0.88065 0.53567 0.0
H2517 H 0.62871 0.85318 0.5562 0.0
H2518 H 0.62974 0.86148 0.53009 0.0
H2519 H 0.63569 0.86709 0.59211 0.0
H2520 H 0.64442 0.88247 0.60964 0.0
H2521 H 0.66439 0.86593 0.58872 0.0
H2522 H 0.67319 0.88121 0.60656 0.0
H2523 H 0.65772 0.85293 0.5595 0.0
H2524 H 0.63409 0.84161 0.59682 0.0
H2525 H 0.65819 0.8367 0.56066 0.0
H2526 H 0.63512 0.82557 0.59905 0.0
H2527 H 0.66313 0.79537 0.56063 0.0
H2528 H 0.66393 0.7869 0.53587 0.0
H2529 H 0.63007 0.76713 0.53653 0.0
H2530 H 0.62938 0.77559 0.56162 0.0
H2531 H 0.63508 0.77307 0.59728 0.0
H2532 H 0.64253 0.76533 0.61539 0.0
H2533 H 0.67359 0.79185 0.60689 0.0
H2534 H 0.66615 0.7994 0.58875 0.0
H2535 H 0.66263 0.80942 0.57259 0.0
H2536 H 0.66312 0.82616 0.57402 0.0
H2537 H 0.62997 0.80987 0.58602 0.0
N2538 N 0.6455 0.78987 0.57872 0.0
H2539 H 0.62986 0.79319 0.58591 0.0
C2540 C 0.64541 0.86201 0.56072 0.0
C2541 C 0.65522 0.86965 0.5545 0.0
C2542 C 0.65584 0.87451 0.53976 0.0
C2543 C 0.64669 0.8718 0.5308 0.0
C2544 C 0.63693 0.86389 0.53679 0.0
C2545 C 0.63632 0.85907 0.55162 0.0
C2546 C 0.64935 0.86539 0.5891 0.0
C2547 C 0.6438 0.87 0.59555 0.0
C2548 C 0.64882 0.87877 0.60562 0.0
C2549 C 0.65954 0.88312 0.60946 0.0
C2550 C 0.66496 0.87813 0.60367 0.0
C2551 C 0.65992 0.86934 0.59358 0.0
C2552 C 0.64563 0.84843 0.57786 0.0
C2553 C 0.65268 0.84702 0.5681 0.0
C2554 C 0.65305 0.83769 0.56894 0.0
C2555 C 0.64662 0.82967 0.57986 0.0
C2556 C 0.63997 0.83137 0.59014 0.0
C2557 C 0.63944 0.84059 0.58903 0.0
C2558 C 0.64615 0.7861 0.56299 0.0
C2559 C 0.65586 0.78938 0.55534 0.0
C2560 C 0.6563 0.78452 0.54111 0.0
C2561 C 0.64707 0.77629 0.53427 0.0
C2562 C 0.63734 0.77334 0.54162 0.0
C2563 C 0.63691 0.77821 0.55584 0.0
C2564 C 0.64998 0.78679 0.59159 0.0
C2565 C 0.64346 0.77733 0.59969 0.0
C2566 C 0.64773 0.77294 0.61004 0.0
C2567 C 0.65867 0.77794 0.61245 0.0
C2568 C 0.66515 0.78774 0.60509 0.0
C2569 C 0.66086 0.79212 0.59474 0.0
C2570 C 0.64622 0.80001 0.57954 0.0
C2571 C 0.65553 0.80942 0.57598 0.0
C2572 C 0.65575 0.81906 0.57651 0.0
C2573 C 0.64659 0.81948 0.58015 0.0
C2574 C 0.63727 0.80998 0.58356 0.0
C2575 C 0.63714 0.8004 0.58337 0.0
H2576 H 0.23228 0.85805 0.56072 0.0
N2577 N 0.21531 0.85376 0.57777 0.0
H2578 H 0.23756 0.86692 0.53454 0.0
H2579 H 0.20332 0.85879 0.55852 0.0
H2580 H 0.2086 0.86781 0.53242 0.0
H2581 H 0.20901 0.86824 0.58328 0.0
H2582 H 0.21803 0.88382 0.60019 0.0
H2583 H 0.23041 0.85796 0.59905 0.0
H2584 H 0.23962 0.87372 0.61599 0.0
H2585 H 0.21101 0.83475 0.56877 0.0
H2586 H 0.19688 0.85116 0.59135 0.0
H2587 H 0.19425 0.81834 0.57025 0.0
H2588 H 0.18033 0.83477 0.59375 0.0
H2589 H 0.13738 0.76564 0.5748 0.0
H2590 H 0.1283 0.75714 0.54984 0.0
H2591 H 0.13828 0.7877 0.52889 0.0
H2592 H 0.14671 0.79602 0.55402 0.0
H2593 H 0.13073 0.79024 0.57711 0.0
H2594 H 0.11551 0.78498 0.59439 0.0
H2595 H 0.1293 0.77411 0.63025 0.0
H2596 H 0.14424 0.77884 0.6123 0.0
H2597 H 0.16571 0.78863 0.58673 0.0
H2598 H 0.18245 0.80517 0.58737 0.0
H2599 H 0.16592 0.82225 0.57894 0.0
N2600 N 0.14663 0.78592 0.58223 0.0
H2601 H 0.14923 0.8057 0.57935 0.0
C2602 C 0.2175 0.85785 0.56158 0.0
C2603 C 0.22701 0.86 0.55443 0.0
C2604 C 0.22999 0.86503 0.5395 0.0
C2605 C 0.22351 0.86809 0.5315 0.0
C2606 C 0.21379 0.86562 0.53842 0.0
C2607 C 0.21077 0.86047 0.5533 0.0
C2608 C 0.21898 0.86183 0.59 0.0
C2609 C 0.21543 0.86913 0.59077 0.0
C2610 C 0.22061 0.87808 0.60047 0.0
C2611 C 0.22955 0.88 0.60935 0.0
C2612 C 0.23277 0.87245 0.6092 0.0
C2613 C 0.22749 0.86343 0.59965 0.0
C2614 C 0.20533 0.84422 0.57998 0.0
C2615 C 0.20433 0.83478 0.57429 0.0
C2616 C 0.19474 0.82538 0.57527 0.0
C2617 C 0.18588 0.82515 0.58223 0.0
C2618 C 0.18691 0.83463 0.58811 0.0
C2619 C 0.1965 0.84408 0.58687 0.0
C2620 C 0.14279 0.78145 0.56644 0.0
C2621 C 0.13772 0.77048 0.56471 0.0
C2622 C 0.13257 0.76565 0.55038 0.0
C2623 C 0.13248 0.77171 0.53729 0.0
C2624 C 0.13797 0.78275 0.53879 0.0
C2625 C 0.14297 0.78756 0.55323 0.0
C2626 C 0.13852 0.7847 0.59331 0.0
C2627 C 0.13054 0.78683 0.58875 0.0
C2628 C 0.12184 0.78388 0.59877 0.0
C2629 C 0.12104 0.77893 0.61367 0.0
C2630 C 0.12948 0.77761 0.61869 0.0
C2631 C 0.13808 0.78041 0.60854 0.0
C2632 C 0.15627 0.79591 0.58284 0.0
C2633 C 0.16574 0.79598 0.58514 0.0
C2634 C 0.17531 0.80545 0.58536 0.0
C2635 C 0.17561 0.81511 0.58301 0.0
C2636 C 0.16604 0.81502 0.58098 0.0
C2637 C 0.15646 0.80553 0.58106 0.0
H2638 H 0.21375 0.3412 0.56205 0.0
N2639 N 0.21219 0.35796 0.57335 0.0
H2640 H 0.22183 0.34036 0.53706 0.0
H2641 H 0.21994 0.37238 0.54995 0.0
H2642 H 0.22798 0.3715 0.52442 0.0
H2643 H 0.23057 0.37125 0.58669 0.0
H2644 H 0.24099 0.36686 0.60482 0.0
H2645 H 0.20484 0.33928 0.58978 0.0
H2646 H 0.21519 0.33487 0.6078 0.0
H2647 H 0.19649 0.33972 0.55921 0.0
H2648 H 0.20215 0.36572 0.59006 0.0
H2649 H 0.17782 0.33305 0.56061 0.0
H2650 H 0.18316 0.35859 0.59247 0.0
H2651 H 0.11673 0.31338 0.5612 0.0
H2652 H 0.10802 0.31378 0.53643 0.0
H2653 H 0.13431 0.34466 0.52565 0.0
H2654 H 0.14253 0.34447 0.55085 0.0
H2655 H 0.13213 0.34629 0.57718 0.0
H2656 H 0.11975 0.34788 0.59495 0.0
H2657 H 0.11105 0.31765 0.61599 0.0
H2658 H 0.12371 0.3163 0.59846 0.0
H2659 H 0.14404 0.3179 0.57481 0.0
H2660 H 0.16295 0.32458 0.57656 0.0
H2661 H 0.16842 0.35641 0.57836 0.0
N2662 N 0.13418 0.32884 0.57401 0.0
H2663 H 0.14952 0.34956 0.57776 0.0
C2664 C 0.21622 0.35691 0.55795 0.0
C2665 C 0.21675 0.34786 0.55396 0.0
C2666 C 0.22132 0.34734 0.53952 0.0
C2667 C 0.22551 0.35584 0.5287 0.0
C2668 C 0.22487 0.36484 0.53257 0.0
C2669 C 0.22024 0.36534 0.54706 0.0
C2670 C 0.21697 0.35565 0.58678 0.0
C2671 C 0.22706 0.36339 0.59168 0.0
C2672 C 0.23301 0.36085 0.60192 0.0
C2673 C 0.22893 0.3505 0.60755 0.0
C2674 C 0.21851 0.34293 0.60374 0.0
C2675 C 0.21257 0.34546 0.59339 0.0
C2676 C 0.20088 0.35344 0.57431 0.0
C2677 C 0.19379 0.34403 0.56638 0.0
C2678 C 0.18296 0.34008 0.5674 0.0
C2679 C 0.17888 0.34524 0.57668 0.0
C2680 C 0.18597 0.35449 0.58495 0.0
C2681 C 0.19684 0.35855 0.58368 0.0
C2682 C 0.1303 0.32881 0.55799 0.0
C2683 C 0.12067 0.32016 0.55334 0.0
C2684 C 0.11573 0.3204 0.53909 0.0
C2685 C 0.12041 0.32929 0.52896 0.0
C2686 C 0.13033 0.33777 0.53327 0.0
C2687 C 0.13516 0.3376 0.5477 0.0
C2688 C 0.12882 0.33113 0.58653 0.0
C2689 C 0.12787 0.3402 0.58604 0.0
C2690 C 0.12069 0.34104 0.59609 0.0
C2691 C 0.1143 0.33282 0.60673 0.0
C2692 C 0.1159 0.32417 0.60805 0.0
C2693 C 0.1231 0.32335 0.59803 0.0
C2694 C 0.14536 0.33318 0.57591 0.0
C2695 C 0.14936 0.32631 0.57577 0.0
C2696 C 0.16018 0.33017 0.57661 0.0
C2697 C 0.1673 0.34108 0.57732 0.0
C2698 C 0.16323 0.34797 0.57797 0.0
C2699 C 0.15237 0.34405 0.57746 0.0
C2700 C 0.0077 0.40672 0.07921 0.0
C2701 C 0.99966 0.39611 0.07911 0.0
C2702 C 0.00822 0.4135 0.09143 0.0
C2703 C 0.99983 0.41383 0.13309 0.0
H2704 H 0.00688 0.44235 0.12235 0.0
C2705 C 0.00028 0.44256 0.18103 0.0
C2706 C 0.00879 0.45295 0.18048 0.0
C2707 C 0.99852 0.43557 0.16839 0.0
C2708 C 0.005 0.43444 0.12557 0.0
H2709 H 0.98584 0.38432 0.09179 0.0
H2710 H 0.98677 0.39618 0.11323 0.0
H2711 H 0.00499 0.43016 0.1009 0.0
H2712 H 0.02194 0.46419 0.16601 0.0
H2713 H 0.01899 0.45194 0.1441 0.0
H2714 H 0.99997 0.41814 0.15776 0.0
C2715 C 0.99272 0.39921 0.10388 0.0
C2716 C 0.00391 0.42746 0.11328 0.0
C2717 C 0.99219 0.39242 0.09161 0.0
C2718 C 0.01538 0.45622 0.16688 0.0
C2719 C 0.01362 0.44923 0.15424 0.0
C2720 C 0.00094 0.42082 0.14539 0.0
C2721 C 0.00073 0.40984 0.10388 0.0
C2722 C 0.0014 0.4171 0.11691 0.0
C2723 C 0.00522 0.43879 0.15491 0.0
C2724 C 0.00362 0.43124 0.14178 0.0
H2725 H 0.01372 0.40977 0.06996 0.0
H2726 H 0.0146 0.42158 0.09125 0.0
H2727 H 0.99803 0.40594 0.1363 0.0
H2728 H 0.99512 0.43974 0.1914 0.0
H2729 H 0.99191 0.42762 0.16921 0.0
C2730 C 0.60036 0.59418 0.08066 0.0
C2731 C 0.61139 0.60057 0.08079 0.0
C2732 C 0.59518 0.58677 0.09281 0.0
C2733 C 0.59972 0.57198 0.12514 0.0
H2734 H 0.57267 0.56709 0.14053 0.0
C2735 C 0.57935 0.54839 0.18292 0.0
C2736 C 0.56844 0.54131 0.18211 0.0
C2737 C 0.58465 0.55511 0.17004 0.0
C2738 C 0.58017 0.56829 0.13622 0.0
H2739 H 0.62558 0.60415 0.09393 0.0
H2740 H 0.6165 0.59152 0.11546 0.0
H2741 H 0.58188 0.58015 0.11956 0.0
H2742 H 0.55467 0.53548 0.16674 0.0
H2743 H 0.56391 0.54738 0.14439 0.0
H2744 H 0.59806 0.56026 0.14219 0.0
C2745 C 0.61188 0.59208 0.10575 0.0
C2746 C 0.58545 0.57576 0.12418 0.0
C2747 C 0.61708 0.59945 0.09351 0.0
C2748 C 0.56303 0.54096 0.16792 0.0
C2749 C 0.56831 0.54775 0.1551 0.0
C2750 C 0.59447 0.56457 0.13731 0.0
C2751 C 0.60086 0.58561 0.10552 0.0
C2752 C 0.59529 0.5777 0.11845 0.0
C2753 C 0.57915 0.55498 0.1561 0.0
C2754 C 0.58464 0.56264 0.14294 0.0
H2755 H 0.59569 0.59493 0.0712 0.0
H2756 H 0.5867 0.58185 0.09209 0.0
H2757 H 0.60719 0.57312 0.12085 0.0
H2758 H 0.58376 0.54903 0.19374 0.0
H2759 H 0.59299 0.56067 0.17121 0.0
C2760 C 0.3964 0.99585 0.08746 0.0
C2761 C 0.39542 0.00461 0.08331 0.0
C2762 C 0.40301 0.99647 0.10006 0.0
C2763 C 0.41602 0.0115 0.13674 0.0
H2764 H 0.43369 0.99899 0.13147 0.0
C2765 C 0.44662 0.01632 0.18465 0.0
C2766 C 0.44714 0.00726 0.1885 0.0
C2767 C 0.44084 0.01641 0.17132 0.0
C2768 C 0.42873 0.00244 0.13319 0.0
H2769 H 0.40048 0.02084 0.0893 0.0
H2770 H 0.4121 0.02196 0.11123 0.0
H2771 H 0.4224 0.99827 0.10934 0.0
H2772 H 0.44228 0.99131 0.18103 0.0
H2773 H 0.43203 0.99138 0.15798 0.0
H2774 H 0.42226 0.01558 0.16063 0.0
C2775 C 0.40771 0.01459 0.10477 0.0
C2776 C 0.42227 0.00202 0.12051 0.0
C2777 C 0.40114 0.01398 0.09213 0.0
C2778 C 0.44194 0.99837 0.17851 0.0
C2779 C 0.43615 0.99845 0.16518 0.0
C2780 C 0.42247 0.0119 0.14943 0.0
C2781 C 0.40875 0.00586 0.10883 0.0
C2782 C 0.4158 0.0065 0.12218 0.0
C2783 C 0.43545 0.00744 0.16153 0.0
C2784 C 0.42887 0.00733 0.14783 0.0
H2785 H 0.3922 0.98855 0.08079 0.0
H2786 H 0.40355 0.98957 0.10301 0.0
H2787 H 0.41103 0.01491 0.13847 0.0
H2788 H 0.45045 0.02327 0.19218 0.0
H2789 H 0.44056 0.0235 0.16872 0.0
C2790 C 0.39319 0.99758 0.92586 0.0
C2791 C 0.39128 0.99171 0.9401 0.0
C2792 C 0.39939 0.99692 0.91363 0.0
C2793 C 0.4082 0.97975 0.89663 0.0
H2794 H 0.43133 0.00535 0.8789 0.0
C2795 C 0.4366 0.97813 0.85043 0.0
C2796 C 0.4401 0.98546 0.83778 0.0
C2797 C 0.43125 0.97921 0.86355 0.0
C2798 C 0.42482 0.99812 0.88354 0.0
H2799 H 0.39413 0.98041 0.95262 0.0
H2800 H 0.40481 0.9791 0.93104 0.0
H2801 H 0.42039 0.00645 0.90009 0.0
H2802 H 0.44084 0.99968 0.82889 0.0
H2803 H 0.43122 0.00143 0.85149 0.0
H2804 H 0.4123 0.97138 0.87981 0.0
C2805 C 0.40158 0.98426 0.92943 0.0
C2806 C 0.41859 0.99877 0.89572 0.0
C2807 C 0.39553 0.98504 0.94177 0.0
C2808 C 0.43833 0.994 0.83861 0.0
C2809 C 0.43284 0.995 0.85161 0.0
C2810 C 0.41432 0.9791 0.88429 0.0
C2811 C 0.40364 0.99026 0.91531 0.0
C2812 C 0.41023 0.98959 0.90238 0.0
C2813 C 0.42911 0.98755 0.86418 0.0
C2814 C 0.42273 0.98828 0.87758 0.0
H2815 H 0.39006 0.00283 0.92434 0.0
H2816 H 0.40081 0.00157 0.9028 0.0
H2817 H 0.40172 0.97256 0.90146 0.0
H2818 H 0.43797 0.97152 0.85012 0.0
H2819 H 0.42874 0.97346 0.87316 0.0
C2820 C 0.00757 0.40007 0.92711 0.0
C2821 C 0.99942 0.39425 0.93816 0.0
C2822 C 0.00639 0.4062 0.91527 0.0
C2823 C 0.98589 0.40927 0.89399 0.0
H2824 H 0.00914 0.43676 0.88252 0.0
C2825 C 0.97981 0.43735 0.85323 0.0
C2826 C 0.987 0.44202 0.84048 0.0
C2827 C 0.98184 0.43219 0.86564 0.0
C2828 C 0.00261 0.42907 0.88553 0.0
H2829 H 0.98381 0.39055 0.94577 0.0
H2830 H 0.98178 0.40128 0.9253 0.0
H2831 H 0.01165 0.42625 0.90303 0.0
H2832 H 0.00213 0.44526 0.83111 0.0
H2833 H 0.00571 0.43631 0.85292 0.0
H2834 H 0.97683 0.41209 0.8766 0.0
C2835 C 0.98898 0.40092 0.92547 0.0
C2836 C 0.00405 0.42303 0.89724 0.0
C2837 C 0.99014 0.39477 0.93722 0.0
C2838 C 0.99648 0.44183 0.84082 0.0
C2839 C 0.99853 0.43668 0.8533 0.0
C2840 C 0.98445 0.41531 0.88238 0.0
C2841 C 0.99707 0.40668 0.9143 0.0
C2842 C 0.99568 0.41307 0.90165 0.0
C2843 C 0.99112 0.43161 0.86565 0.0
C2844 C 0.99277 0.42529 0.87807 0.0
H2845 H 0.01479 0.39976 0.92748 0.0
H2846 H 0.01272 0.41043 0.90674 0.0
H2847 H 0.97935 0.40155 0.89683 0.0
H2848 H 0.97253 0.43754 0.85349 0.0
H2849 H 0.97608 0.42853 0.87517 0.0
C2850 C 0.59465 0.59639 0.94367 0.0
C2851 C 0.59984 0.60742 0.94253 0.0
C2852 C 0.5876 0.5901 0.93175 0.0
C2853 C 0.58056 0.59065 0.8892 0.0
H2854 H 0.55551 0.56447 0.90073 0.0
C2855 C 0.55089 0.56349 0.84131 0.0
C2856 C 0.54807 0.55284 0.84248 0.0
C2857 C 0.55614 0.57044 0.85399 0.0
C2858 C 0.56249 0.57174 0.89733 0.0
H2859 H 0.60159 0.62051 0.92808 0.0
H2860 H 0.58917 0.60951 0.90725 0.0
H2861 H 0.56681 0.57622 0.92191 0.0
H2862 H 0.5481 0.54101 0.85809 0.0
H2863 H 0.5573 0.55314 0.88023 0.0
H2864 H 0.57626 0.58611 0.86462 0.0
C2865 C 0.59068 0.60573 0.91727 0.0
C2866 C 0.56898 0.57847 0.90945 0.0
C2867 C 0.59779 0.61203 0.92919 0.0
C2868 C 0.55025 0.5492 0.85682 0.0
C2869 C 0.55544 0.55612 0.86953 0.0
C2870 C 0.57403 0.58395 0.87709 0.0
C2871 C 0.58551 0.59468 0.9184 0.0
C2872 C 0.57819 0.58792 0.90553 0.0
C2873 C 0.55861 0.56686 0.86813 0.0
C2874 C 0.56501 0.57435 0.88102 0.0
H2875 H 0.5962 0.59261 0.95367 0.0
H2876 H 0.58394 0.58164 0.93284 0.0
H2877 H 0.58765 0.59779 0.88574 0.0
H2878 H 0.54939 0.56654 0.83036 0.0
H2879 H 0.55841 0.57865 0.85264 0.0
C2880 C 0.99586 0.59531 0.94639 0.0
C2881 C 0.00045 0.60623 0.9442 0.0
C2882 C 0.99593 0.58893 0.93394 0.0
C2883 C 0.99829 0.58843 0.88972 0.0
H2884 H 0.00167 0.56432 0.89855 0.0
C2885 C 0.99915 0.56228 0.83871 0.0
C2886 C 0.99272 0.55137 0.84098 0.0
C2887 C 0.00126 0.56924 0.85151 0.0
C2888 C 0.00067 0.571 0.89592 0.0
H2889 H 0.00899 0.61908 0.92741 0.0
H2890 H 0.0092 0.60796 0.9057 0.0
H2891 H 0.00325 0.57611 0.92051 0.0
H2892 H 0.98384 0.53919 0.8586 0.0
H2893 H 0.98746 0.55136 0.88096 0.0
H2894 H 0.99564 0.58328 0.86517 0.0
C2895 C 0.00536 0.60429 0.91694 0.0
C2896 C 0.00155 0.57774 0.90849 0.0
C2897 C 0.00525 0.61066 0.92937 0.0
C2898 C 0.98874 0.54756 0.85646 0.0
C2899 C 0.9909 0.55452 0.86928 0.0
C2900 C 0.99745 0.58172 0.87716 0.0
C2901 C 0.00063 0.59334 0.91903 0.0
C2902 C 0.00027 0.58648 0.90557 0.0
C2903 C 0.99703 0.56545 0.86688 0.0
C2904 C 0.99854 0.57288 0.88014 0.0
H2905 H 0.99197 0.59164 0.9576 0.0
H2906 H 0.99205 0.58051 0.93588 0.0
H2907 H 0.99708 0.59497 0.88707 0.0
H2908 H 0.00225 0.56548 0.8269 0.0
H2909 H 0.00611 0.57762 0.84933 0.0
C2910 C 0.38536 0.40154 0.92405 0.0
C2911 C 0.39061 0.40237 0.93863 0.0
C2912 C 0.39051 0.40864 0.9115 0.0
C2913 C 0.41323 0.43496 0.90273 0.0
H2914 H 0.40984 0.42414 0.85917 0.0
C2915 C 0.43981 0.45946 0.8496 0.0
C2916 C 0.43512 0.45809 0.83435 0.0
C2917 C 0.43403 0.45316 0.86263 0.0
C2918 C 0.41076 0.42732 0.87122 0.0
H2919 H 0.40542 0.41126 0.95137 0.0
H2920 H 0.41439 0.42365 0.92948 0.0
H2921 H 0.40043 0.41213 0.88123 0.0
H2922 H 0.42057 0.44913 0.82095 0.0
H2923 H 0.41044 0.43838 0.84371 0.0
H2924 H 0.42362 0.45015 0.89269 0.0
C2925 C 0.40624 0.4176 0.92785 0.0
C2926 C 0.40536 0.42043 0.88387 0.0
C2927 C 0.4011 0.41049 0.94039 0.0
C2928 C 0.42442 0.45049 0.83256 0.0
C2929 C 0.41864 0.44422 0.84556 0.0
C2930 C 0.41862 0.44186 0.89005 0.0
C2931 C 0.40102 0.41674 0.91325 0.0
C2932 C 0.40657 0.42415 0.89978 0.0
C2933 C 0.42342 0.44535 0.86068 0.0
C2934 C 0.41747 0.43812 0.87416 0.0
H2935 H 0.37722 0.39548 0.9224 0.0
H2936 H 0.38622 0.40786 0.90048 0.0
H2937 H 0.41421 0.43809 0.91482 0.0
H2938 H 0.44801 0.46531 0.85144 0.0
H2939 H 0.43797 0.4542 0.87408 0.0
C2940 C 0.60564 0.99992 0.93065 0.0
C2941 C 0.60267 0.99169 0.94179 0.0
C2942 C 0.59885 0.99904 0.91816 0.0
C2943 C 0.5708 0.98426 0.90601 0.0
H2944 H 0.58207 0.99512 0.86357 0.0
C2945 C 0.5446 0.97633 0.84957 0.0
C2946 C 0.54746 0.98482 0.83898 0.0
C2947 C 0.55115 0.97722 0.86245 0.0
C2948 C 0.57881 0.99215 0.8754 0.0
H2949 H 0.59036 0.97599 0.94833 0.0
H2950 H 0.57857 0.97439 0.92643 0.0
H2951 H 0.59393 0.99644 0.88515 0.0
H2952 H 0.55944 0.00091 0.83364 0.0
H2953 H 0.57079 0.0025 0.85621 0.0
H2954 H 0.55566 0.97989 0.89615 0.0
C2955 C 0.58604 0.98162 0.92754 0.0
C2956 C 0.58561 0.99291 0.88778 0.0
C2957 C 0.59281 0.98252 0.94007 0.0
C2958 C 0.55695 0.99426 0.84168 0.0
C2959 C 0.56351 0.99514 0.85449 0.0
C2960 C 0.56399 0.98346 0.8936 0.0
C2961 C 0.58896 0.98989 0.91647 0.0
C2962 C 0.5817 0.989 0.90326 0.0
C2963 C 0.56073 0.9866 0.86494 0.0
C2964 C 0.56793 0.98742 0.87817 0.0
H2965 H 0.61312 0.00714 0.9318 0.0
H2966 H 0.60129 0.00562 0.91002 0.0
H2967 H 0.56753 0.98132 0.91785 0.0
H2968 H 0.53731 0.96898 0.84786 0.0
H2969 H 0.54882 0.97049 0.87023 0.0
C2970 C 0.60364 0.01033 0.08431 0.0
C2971 C 0.60555 0.00185 0.08336 0.0
C2972 C 0.59687 0.01048 0.09604 0.0
C2973 C 0.58558 0.99999 0.1357 0.0
H2974 H 0.56291 0.00481 0.12279 0.0
C2975 C 0.54364 0.99102 0.16303 0.0
C2976 C 0.54663 0.9953 0.17858 0.0
C2977 C 0.55124 0.99326 0.15117 0.0
C2978 C 0.56924 0.0035 0.12655 0.0
H2979 H 0.60169 0.98682 0.09407 0.0
H2980 H 0.59018 0.98729 0.11478 0.0
H2981 H 0.57563 0.00585 0.10267 0.0
H2982 H 0.55988 0.00545 0.19382 0.0
H2983 H 0.57319 0.00929 0.17309 0.0
H2984 H 0.57915 0.99753 0.15952 0.0
C2985 C 0.59397 0.99382 0.10644 0.0
C2986 C 0.57653 0.00416 0.11509 0.0
C2987 C 0.60061 0.99359 0.09459 0.0
C2988 C 0.55735 0.00211 0.1819 0.0
C2989 C 0.56496 0.00424 0.1701 0.0
C2990 C 0.57838 0.99949 0.14719 0.0
C2991 C 0.59198 0.00223 0.10722 0.0
C2992 C 0.58468 0.00225 0.11952 0.0
C2993 C 0.56198 0.99971 0.1547 0.0
C2994 C 0.57006 0.0011 0.14269 0.0
H2995 H 0.60743 0.01692 0.07608 0.0
H2996 H 0.59554 0.0171 0.09649 0.0
H2997 H 0.59183 0.99856 0.13945 0.0
H2998 H 0.53542 0.98578 0.16015 0.0
H2999 H 0.54873 0.98961 0.13943 0.0
C3000 C 0.98352 0.59174 0.08306 0.0
C3001 C 0.98809 0.60264 0.08554 0.0
C3002 C 0.98284 0.58512 0.09569 0.0
C3003 C 0.99544 0.58561 0.13417 0.0
H3004 H 0.9704 0.55855 0.1416 0.0
C3005 C 0.99129 0.56113 0.19048 0.0
C3006 C 0.98685 0.5502 0.18864 0.0
C3007 C 0.99097 0.56726 0.1779 0.0
C3008 C 0.97749 0.56602 0.13956 0.0
H3009 H 0.99545 0.61513 0.10325 0.0
H3010 H 0.99418 0.60356 0.12533 0.0
H3011 H 0.97064 0.56979 0.11966 0.0
H3012 H 0.97842 0.53709 0.17226 0.0
H3013 H 0.97795 0.54786 0.1501 0.0
H3014 H 0.00236 0.58187 0.15388 0.0
C3015 C 0.99118 0.60015 0.11358 0.0
C3016 C 0.97762 0.57247 0.12702 0.0
C3017 C 0.99181 0.60676 0.10098 0.0
C3018 C 0.98187 0.5455 0.17404 0.0
C3019 C 0.98159 0.55166 0.16137 0.0
C3020 C 0.99533 0.57917 0.14664 0.0
C3021 C 0.98678 0.58927 0.11104 0.0
C3022 C 0.98658 0.58236 0.12426 0.0
C3023 C 0.98623 0.56264 0.16312 0.0
C3024 C 0.98634 0.56933 0.14957 0.0
H3025 H 0.98048 0.58832 0.07133 0.0
H3026 H 0.97946 0.57678 0.09333 0.0
H3027 H 0.00254 0.59309 0.13215 0.0
H3028 H 0.99498 0.56495 0.20172 0.0
H3029 H 0.9944 0.57565 0.1798 0.0
C3030 C 0.40859 0.40376 0.07787 0.0
C3031 C 0.40067 0.39316 0.07949 0.0
C3032 C 0.4158 0.40889 0.09031 0.0
C3033 C 0.42714 0.40359 0.12649 0.0
H3034 H 0.4356 0.43243 0.13762 0.0
C3035 C 0.44997 0.42327 0.1846 0.0
C3036 C 0.45822 0.43377 0.18367 0.0
C3037 C 0.44329 0.4185 0.17149 0.0
C3038 C 0.43341 0.42442 0.13452 0.0
H3039 H 0.39414 0.37966 0.09548 0.0
H3040 H 0.40654 0.38867 0.11731 0.0
H3041 H 0.42314 0.42374 0.11565 0.0
H3042 H 0.46594 0.44745 0.16812 0.0
H3043 H 0.4542 0.43911 0.14519 0.0
H3044 H 0.43732 0.40423 0.14546 0.0
C3045 C 0.40728 0.39298 0.10633 0.0
C3046 C 0.42627 0.41944 0.12193 0.0
C3047 C 0.40008 0.38785 0.09389 0.0
C3048 C 0.4596 0.43939 0.16929 0.0
C3049 C 0.45288 0.43462 0.15616 0.0
C3050 C 0.43425 0.40856 0.13909 0.0
C3051 C 0.41526 0.40355 0.10467 0.0
C3052 C 0.423 0.40894 0.11784 0.0
C3053 C 0.44466 0.42411 0.15713 0.0
C3054 C 0.43741 0.419 0.14332 0.0
H3055 H 0.4092 0.40812 0.06701 0.0
H3056 H 0.4219 0.41701 0.08857 0.0
H3057 H 0.42495 0.39557 0.12344 0.0
H3058 H 0.44852 0.41877 0.1956 0.0
H3059 H 0.43691 0.41046 0.17273 0.0
C3060 C 0.65125 0.71809 0.43189 0.0
C3061 C 0.65829 0.72329 0.41915 0.0
C3062 C 0.64985 0.72383 0.44413 0.0
C3063 C 0.66268 0.75003 0.46336 0.0
H3064 H 0.63456 0.74138 0.47882 0.0
C3065 C 0.65466 0.77563 0.5074 0.0
C3066 C 0.64767 0.77037 0.52016 0.0
C3067 C 0.65567 0.76996 0.49466 0.0
C3068 C 0.64247 0.74384 0.47474 0.0
H3069 H 0.66925 0.73863 0.40919 0.0
H3070 H 0.66688 0.7486 0.43057 0.0
H3071 H 0.637 0.73121 0.45772 0.0
H3072 H 0.63627 0.75501 0.52952 0.0
H3073 H 0.63803 0.74515 0.50734 0.0
H3074 H 0.66817 0.76261 0.48043 0.0
C3075 C 0.66255 0.74009 0.43122 0.0
C3076 C 0.64387 0.73801 0.46266 0.0
C3077 C 0.66392 0.73436 0.41898 0.0
C3078 C 0.64159 0.75933 0.51974 0.0
C3079 C 0.64261 0.75366 0.50703 0.0
C3080 C 0.66128 0.75585 0.47545 0.0
C3081 C 0.65548 0.7349 0.44392 0.0
C3082 C 0.65399 0.74104 0.45684 0.0
C3083 C 0.64974 0.7589 0.49441 0.0
C3084 C 0.65117 0.75283 0.48129 0.0
H3085 H 0.64689 0.70957 0.43249 0.0
H3086 H 0.64446 0.7196 0.45387 0.0
H3087 H 0.67059 0.75248 0.4593 0.0
H3088 H 0.65936 0.78414 0.50726 0.0
H3089 H 0.66111 0.77425 0.48499 0.0
C3090 C 0.2679 0.92267 0.41312 0.0
C3091 C 0.26915 0.9328 0.41409 0.0
C3092 C 0.26246 0.91522 0.42513 0.0
C3093 C 0.24259 0.9082 0.45678 0.0
H3094 H 0.25489 0.89252 0.47515 0.0
C3095 C 0.22668 0.88368 0.51497 0.0
C3096 C 0.22725 0.87445 0.51655 0.0
C3097 C 0.23113 0.89026 0.50164 0.0
C3098 C 0.25123 0.89667 0.46997 0.0
H3099 H 0.26559 0.94303 0.42828 0.0
H3100 H 0.25604 0.92998 0.44928 0.0
H3101 H 0.26403 0.90507 0.45354 0.0
H3102 H 0.2325 0.86461 0.5051 0.0
H3103 H 0.24005 0.87595 0.48158 0.0
H3104 H 0.22975 0.89976 0.47306 0.0
C3105 C 0.25927 0.92782 0.43921 0.0
C3106 C 0.25651 0.90391 0.45763 0.0
C3107 C 0.26482 0.93531 0.42729 0.0
C3108 C 0.23205 0.87175 0.50426 0.0
C3109 C 0.23642 0.87828 0.49084 0.0
C3110 C 0.23726 0.90089 0.46902 0.0
C3111 C 0.25806 0.91771 0.43826 0.0
C3112 C 0.25229 0.90981 0.45101 0.0
C3113 C 0.23618 0.88772 0.4895 0.0
C3114 C 0.24156 0.8951 0.47588 0.0
H3115 H 0.27122 0.92055 0.40313 0.0
H3116 H 0.26159 0.90747 0.42404 0.0
H3117 H 0.23909 0.91254 0.45173 0.0
H3118 H 0.22315 0.88603 0.52437 0.0
H3119 H 0.23093 0.89753 0.50116 0.0
C3120 C 0.05987 0.3234 0.42238 0.0
C3121 C 0.06243 0.33288 0.4146 0.0
C3122 C 0.06648 0.32316 0.43429 0.0
C3123 C 0.08553 0.33895 0.46473 0.0
H3124 H 0.09598 0.31947 0.46067 0.0
C3125 C 0.11553 0.33961 0.51008 0.0
C3126 C 0.11467 0.32996 0.51457 0.0
C3127 C 0.10966 0.34015 0.49725 0.0
C3128 C 0.09302 0.32485 0.46217 0.0
H3129 H 0.07371 0.34957 0.41329 0.0
H3130 H 0.08515 0.3492 0.43455 0.0
H3131 H 0.08437 0.31987 0.43999 0.0
H3132 H 0.10711 0.31335 0.50853 0.0
H3133 H 0.09644 0.31418 0.48688 0.0
H3134 H 0.09372 0.34367 0.48716 0.0
C3135 C 0.0781 0.34196 0.43126 0.0
C3136 C 0.08641 0.3251 0.45026 0.0
C3137 C 0.0716 0.34216 0.41912 0.0
C3138 C 0.10788 0.3209 0.50566 0.0
C3139 C 0.10186 0.32141 0.49301 0.0
C3140 C 0.09196 0.33857 0.47681 0.0
C3141 C 0.07564 0.33244 0.43884 0.0
C3142 C 0.08264 0.33217 0.45143 0.0
C3143 C 0.10259 0.33104 0.48871 0.0
C3144 C 0.09583 0.33153 0.47569 0.0
H3145 H 0.05288 0.31613 0.419 0.0
H3146 H 0.06441 0.31574 0.44004 0.0
H3147 H 0.08262 0.34441 0.46596 0.0
H3148 H 0.12053 0.34675 0.51672 0.0
H3149 H 0.11064 0.34776 0.49412 0.0
C3150 C 0.07034 0.33693 0.27084 0.0
C3151 C 0.05999 0.32846 0.27213 0.0
C3152 C 0.07716 0.33685 0.25917 0.0
C3153 C 0.07764 0.32542 0.22008 0.0
H3154 H 0.10654 0.3344 0.23165 0.0
C3155 C 0.10672 0.32458 0.17411 0.0
C3156 C 0.1169 0.33345 0.17389 0.0
C3157 C 0.09976 0.32309 0.18669 0.0
C3158 C 0.09852 0.33196 0.22818 0.0
H3159 H 0.04861 0.31335 0.26205 0.0
H3160 H 0.06055 0.31322 0.2416 0.0
H3161 H 0.09433 0.33365 0.25227 0.0
H3162 H 0.12786 0.34746 0.18708 0.0
H3163 H 0.11567 0.34502 0.20874 0.0
H3164 H 0.08186 0.32395 0.19594 0.0
C3165 C 0.06337 0.31991 0.24964 0.0
C3166 C 0.09153 0.33152 0.24 0.0
C3167 C 0.05657 0.31995 0.2614 0.0
C3168 C 0.12004 0.34062 0.18677 0.0
C3169 C 0.11308 0.33915 0.1993 0.0
C3170 C 0.08465 0.32591 0.20823 0.0
C3171 C 0.07376 0.32834 0.24846 0.0
C3172 C 0.08104 0.32834 0.23604 0.0
C3173 C 0.10281 0.33044 0.19931 0.0
C3174 C 0.0952 0.32929 0.21211 0.0
H3175 H 0.07325 0.34354 0.27904 0.0
H3176 H 0.08508 0.34352 0.25843 0.0
H3177 H 0.06963 0.32304 0.21663 0.0
H3178 H 0.10401 0.31895 0.16432 0.0
H3179 H 0.09196 0.31622 0.18643 0.0
C3180 C 0.68193 0.74589 0.27733 0.0
C3181 C 0.6764 0.73499 0.27449 0.0
C3182 C 0.68391 0.75297 0.26474 0.0
C3183 C 0.68452 0.75485 0.22005 0.0
H3184 H 0.68237 0.77976 0.22813 0.0
C3185 C 0.68252 0.78024 0.16887 0.0
C3186 C 0.68897 0.7912 0.17029 0.0
C3187 C 0.68128 0.77365 0.18182 0.0
C3188 C 0.6831 0.77289 0.22575 0.0
H3189 H 0.66855 0.72294 0.2563 0.0
H3190 H 0.6718 0.73526 0.23436 0.0
H3191 H 0.67965 0.76765 0.25021 0.0
H3192 H 0.69906 0.80389 0.18645 0.0
H3193 H 0.69683 0.79232 0.20924 0.0
H3194 H 0.68774 0.76 0.19551 0.0
C3195 C 0.67484 0.73838 0.24622 0.0
C3196 C 0.68157 0.76596 0.23839 0.0
C3197 C 0.67294 0.7313 0.25879 0.0
C3198 C 0.69407 0.79546 0.18502 0.0
C3199 C 0.69275 0.78885 0.19806 0.0
C3200 C 0.68596 0.76173 0.20741 0.0
C3201 C 0.68033 0.74931 0.24904 0.0
C3202 C 0.68221 0.75683 0.23569 0.0
C3203 C 0.68642 0.77787 0.19652 0.0
C3204 C 0.68521 0.77078 0.2101 0.0
H3205 H 0.68482 0.74895 0.28928 0.0
H3206 H 0.68833 0.76132 0.2673 0.0
H3207 H 0.68529 0.74803 0.21758 0.0
H3208 H 0.6786 0.77672 0.15761 0.0
H3209 H 0.67628 0.76522 0.18034 0.0
C3210 C 0.2675 0.94679 0.25672 0.0
C3211 C 0.26331 0.94589 0.27226 0.0
C3212 C 0.26094 0.94134 0.24376 0.0
C3213 C 0.23325 0.92821 0.2303 0.0
H3214 H 0.24236 0.91425 0.20004 0.0
C3215 C 0.20588 0.8996 0.18096 0.0
C3216 C 0.21043 0.90017 0.16582 0.0
C3217 C 0.21218 0.90531 0.19405 0.0
C3218 C 0.23975 0.9182 0.20827 0.0
H3219 H 0.24892 0.93843 0.28636 0.0
H3220 H 0.23749 0.92896 0.26373 0.0
H3221 H 0.2537 0.92404 0.22255 0.0
H3222 H 0.22507 0.90753 0.15236 0.0
H3223 H 0.236 0.91749 0.17508 0.0
H3224 H 0.21929 0.92238 0.21596 0.0
C3225 C 0.24583 0.93401 0.26154 0.0
C3226 C 0.24625 0.92382 0.22117 0.0
C3227 C 0.25239 0.93944 0.2745 0.0
C3228 C 0.22136 0.90674 0.16396 0.0
C3229 C 0.22762 0.91245 0.17699 0.0
C3230 C 0.22674 0.92261 0.21736 0.0
C3231 C 0.25004 0.93486 0.24603 0.0
C3232 C 0.24309 0.92891 0.23232 0.0
C3233 C 0.22314 0.91172 0.19223 0.0
C3234 C 0.22993 0.91757 0.20616 0.0
H3235 H 0.27585 0.95182 0.25454 0.0
H3236 H 0.2644 0.94228 0.23191 0.0
H3237 H 0.23064 0.93215 0.23859 0.0
H3238 H 0.1975 0.89455 0.18278 0.0
H3239 H 0.20849 0.9045 0.20568 0.0
C3240 C 0.68904 0.94308 0.26756 0.0
C3241 C 0.67855 0.94031 0.27078 0.0
C3242 C 0.69136 0.93782 0.25563 0.0
C3243 C 0.67934 0.91319 0.23182 0.0
H3244 H 0.70243 0.92925 0.20231 0.0
C3245 C 0.68405 0.89611 0.17194 0.0
C3246 C 0.69425 0.89877 0.16695 0.0
C3247 C 0.68256 0.90083 0.18552 0.0
C3248 C 0.69605 0.92462 0.2106 0.0
H3249 H 0.6623 0.92996 0.26377 0.0
H3250 H 0.66635 0.92081 0.24297 0.0
H3251 H 0.69906 0.93823 0.22424 0.0
H3252 H 0.71085 0.90828 0.17262 0.0
H3253 H 0.70823 0.91656 0.19635 0.0
H3254 H 0.67625 0.8996 0.21805 0.0
C3255 C 0.67277 0.92691 0.24987 0.0
C3256 C 0.69412 0.92978 0.22316 0.0
C3257 C 0.67045 0.93217 0.26179 0.0
C3258 C 0.70291 0.90616 0.17602 0.0
C3259 C 0.70141 0.9109 0.18961 0.0
C3260 C 0.68127 0.90804 0.21926 0.0
C3261 C 0.68325 0.92967 0.24665 0.0
C3262 C 0.68566 0.92413 0.23381 0.0
C3263 C 0.69122 0.90834 0.19444 0.0
C3264 C 0.68958 0.91371 0.20839 0.0
H3265 H 0.69545 0.94922 0.27444 0.0
H3266 H 0.6995 0.94004 0.25357 0.0
H3267 H 0.67288 0.90858 0.23999 0.0
H3268 H 0.67721 0.8906 0.16507 0.0
H3269 H 0.67461 0.89881 0.18875 0.0
C3270 C 0.06952 0.74284 0.28188 0.0
C3271 C 0.05873 0.73567 0.27974 0.0
C3272 C 0.07555 0.74939 0.26925 0.0
C3273 C 0.07606 0.75102 0.225 0.0
H3274 H 0.0976 0.78009 0.2321 0.0
C3275 C 0.09935 0.77823 0.17229 0.0
C3276 C 0.11026 0.78479 0.17443 0.0
C3277 C 0.09287 0.77281 0.18533 0.0
C3278 C 0.09168 0.77196 0.22996 0.0
H3279 H 0.04575 0.73003 0.26282 0.0
H3280 H 0.0563 0.74144 0.24076 0.0
H3281 H 0.08656 0.76961 0.25456 0.0
H3282 H 0.12285 0.791 0.19208 0.0
H3283 H 0.11156 0.78134 0.2148 0.0
H3284 H 0.08123 0.75327 0.20049 0.0
C3285 C 0.06011 0.74188 0.25214 0.0
C3286 C 0.08535 0.76596 0.24282 0.0
C3287 C 0.05408 0.73534 0.26478 0.0
C3288 C 0.1145 0.78593 0.18999 0.0
C3289 C 0.10801 0.78048 0.20304 0.0
C3290 C 0.08239 0.75699 0.21217 0.0
C3291 C 0.07095 0.7489 0.25418 0.0
C3292 C 0.07748 0.75541 0.24048 0.0
C3293 C 0.09713 0.77377 0.20083 0.0
C3294 C 0.09029 0.76753 0.21449 0.0
H3295 H 0.07338 0.74318 0.29316 0.0
H3296 H 0.0839 0.7546 0.27114 0.0
H3297 H 0.0702 0.74286 0.22286 0.0
H3298 H 0.09583 0.77706 0.16046 0.0
H3299 H 0.08451 0.76782 0.18323 0.0
C3300 C 0.26369 0.31809 0.26636 0.0
C3301 C 0.27222 0.32804 0.27019 0.0
C3302 C 0.25695 0.31692 0.25362 0.0
C3303 C 0.25491 0.33071 0.21725 0.0
H3304 H 0.22514 0.31042 0.22131 0.0
C3305 C 0.2236 0.32914 0.17342 0.0
C3306 C 0.2167 0.31919 0.16677 0.0
C3307 C 0.23021 0.33015 0.18626 0.0
C3308 C 0.23344 0.31607 0.22 0.0
H3309 H 0.28037 0.34458 0.26387 0.0
H3310 H 0.26846 0.34263 0.24196 0.0
H3311 H 0.2371 0.31241 0.24319 0.0
H3312 H 0.21129 0.30248 0.16869 0.0
H3313 H 0.22258 0.30426 0.19147 0.0
H3314 H 0.25112 0.33453 0.19421 0.0
C3315 C 0.2671 0.33566 0.24843 0.0
C3316 C 0.24033 0.31719 0.23249 0.0
C3317 C 0.27392 0.3368 0.26103 0.0
C3318 C 0.21636 0.31025 0.17363 0.0
C3319 C 0.22287 0.31125 0.18663 0.0
C3320 C 0.248 0.32969 0.20489 0.0
C3321 C 0.25851 0.3257 0.24457 0.0
C3322 C 0.25117 0.3245 0.23126 0.0
C3323 C 0.22994 0.32123 0.19291 0.0
C3324 C 0.23721 0.32235 0.20613 0.0
H3325 H 0.26227 0.3112 0.27316 0.0
H3326 H 0.25057 0.3091 0.25082 0.0
H3327 H 0.26321 0.33627 0.2157 0.0
H3328 H 0.22393 0.33618 0.16872 0.0
H3329 H 0.2355 0.33791 0.19105 0.0
C3330 C 0.28255 0.35492 0.42125 0.0
C3331 C 0.27879 0.345 0.41408 0.0
C3332 C 0.27669 0.35641 0.43319 0.0
C3333 C 0.25526 0.3417 0.46258 0.0
H3334 H 0.25354 0.36723 0.46339 0.0
C3335 C 0.22672 0.34597 0.50491 0.0
C3336 C 0.23088 0.35536 0.51383 0.0
C3337 C 0.23232 0.34507 0.49201 0.0
C3338 C 0.25401 0.3601 0.46337 0.0
H3339 H 0.26584 0.3289 0.41359 0.0
H3340 H 0.25559 0.33149 0.4343 0.0
H3341 H 0.26394 0.36489 0.44251 0.0
H3342 H 0.24403 0.3713 0.51579 0.0
H3343 H 0.2538 0.36974 0.49313 0.0
H3344 H 0.24531 0.33688 0.48337 0.0
C3345 C 0.26316 0.33809 0.43096 0.0
C3346 C 0.25999 0.35876 0.45145 0.0
C3347 C 0.26904 0.3366 0.41909 0.0
C3348 C 0.24056 0.36399 0.50908 0.0
C3349 C 0.24617 0.36309 0.49612 0.0
C3350 C 0.24926 0.34301 0.47442 0.0
C3351 C 0.26692 0.34801 0.43818 0.0
C3352 C 0.26066 0.34953 0.4509 0.0
C3353 C 0.24221 0.35354 0.48769 0.0
C3354 C 0.24854 0.35221 0.47494 0.0
H3355 H 0.29009 0.36152 0.41777 0.0
H3356 H 0.27989 0.36411 0.43867 0.0
H3357 H 0.25577 0.33459 0.46272 0.0
H3358 H 0.21918 0.33924 0.50806 0.0
H3359 H 0.22896 0.33768 0.48553 0.0
C3360 C 0.66573 0.93033 0.41442 0.0
C3361 C 0.65755 0.93221 0.41024 0.0
C3362 C 0.66446 0.92347 0.42703 0.0
C3363 C 0.64383 0.9019 0.4518 0.0
H3364 H 0.66732 0.90816 0.48002 0.0
C3365 C 0.63969 0.8804 0.51222 0.0
C3366 C 0.64735 0.8776 0.51572 0.0
C3367 C 0.64072 0.88654 0.49872 0.0
C3368 C 0.66072 0.90625 0.47213 0.0
H3369 H 0.64172 0.92863 0.41621 0.0
H3370 H 0.63957 0.91687 0.43848 0.0
H3371 H 0.66963 0.92019 0.45811 0.0
H3372 H 0.66187 0.87869 0.50727 0.0
H3373 H 0.66375 0.88958 0.48389 0.0
H3374 H 0.63487 0.88807 0.46616 0.0
C3375 C 0.64687 0.92044 0.43176 0.0
C3376 C 0.66204 0.91314 0.45954 0.0
C3377 C 0.64812 0.92722 0.41905 0.0
C3378 C 0.65593 0.88087 0.50514 0.0
C3379 C 0.657 0.88709 0.49173 0.0
C3380 C 0.64249 0.89507 0.46449 0.0
C3381 C 0.655 0.91842 0.43585 0.0
C3382 C 0.65361 0.91106 0.44921 0.0
C3383 C 0.64947 0.89008 0.48848 0.0
C3384 C 0.65092 0.89718 0.47478 0.0
H3385 H 0.67304 0.93397 0.40768 0.0
H3386 H 0.67083 0.92198 0.42964 0.0
H3387 H 0.63721 0.89993 0.44392 0.0
H3388 H 0.63307 0.87817 0.52022 0.0
H3389 H 0.63484 0.88882 0.49659 0.0
C3390 C 0.07262 0.71884 0.42802 0.0
C3391 C 0.06892 0.72435 0.41881 0.0
C3392 C 0.08004 0.72395 0.44021 0.0
C3393 C 0.09948 0.75073 0.45524 0.0
H3394 H 0.09777 0.73561 0.49451 0.0
C3395 C 0.12081 0.77088 0.51443 0.0
C3396 C 0.12618 0.76653 0.52255 0.0
C3397 C 0.11449 0.7658 0.50108 0.0
C3398 C 0.0984 0.73989 0.48353 0.0
H3399 H 0.06988 0.73943 0.41529 0.0
H3400 H 0.08255 0.74829 0.4369 0.0
H3401 H 0.0852 0.72658 0.47284 0.0
H3402 H 0.12925 0.7535 0.52256 0.0
H3403 H 0.11789 0.74449 0.49956 0.0
H3404 H 0.11246 0.76415 0.46633 0.0
C3405 C 0.08001 0.74011 0.43444 0.0
C3406 C 0.09122 0.73472 0.47107 0.0
C3407 C 0.07271 0.73504 0.4221 0.0
C3408 C 0.12511 0.75701 0.51683 0.0
C3409 C 0.11864 0.75185 0.50362 0.0
C3410 C 0.10655 0.75593 0.4678 0.0
C3411 C 0.08382 0.73465 0.44362 0.0
C3412 C 0.09163 0.74009 0.45677 0.0
C3413 C 0.11324 0.75619 0.49567 0.0
C3414 C 0.10605 0.75057 0.48208 0.0
H3415 H 0.06991 0.71062 0.42559 0.0
H3416 H 0.08292 0.71952 0.4468 0.0
H3417 H 0.10021 0.75508 0.4443 0.0
H3418 H 0.12123 0.77806 0.51863 0.0
H3419 H 0.1103 0.76925 0.49529 0.0
C3420 C 0.33945 0.07047 0.74964 0.0
C3421 C 0.3306 0.06045 0.74737 0.0
C3422 C 0.33949 0.07717 0.76161 0.0
C3423 C 0.32181 0.08176 0.78817 0.0
H3424 H 0.34774 0.09928 0.8115 0.0
C3425 C 0.32482 0.10602 0.84533 0.0
C3426 C 0.3335 0.11631 0.84614 0.0
C3427 C 0.32399 0.09924 0.83285 0.0
C3428 C 0.34046 0.09451 0.80497 0.0
H3429 H 0.31487 0.04956 0.75589 0.0
H3430 H 0.31499 0.06117 0.77711 0.0
H3431 H 0.34723 0.08714 0.79107 0.0
H3432 H 0.34783 0.12767 0.83397 0.0
H3433 H 0.34646 0.11576 0.81241 0.0
H3434 H 0.31503 0.08905 0.80244 0.0
C3435 C 0.32184 0.06394 0.76942 0.0
C3436 C 0.34017 0.08756 0.79323 0.0
C3437 C 0.32177 0.05727 0.75732 0.0
C3438 C 0.34116 0.11974 0.83392 0.0
C3439 C 0.34037 0.11293 0.82154 0.0
C3440 C 0.32209 0.08866 0.80005 0.0
C3441 C 0.33071 0.07399 0.77172 0.0
C3442 C 0.33087 0.08115 0.78457 0.0
C3443 C 0.33186 0.10257 0.82101 0.0
C3444 C 0.33145 0.09516 0.80848 0.0
H3445 H 0.3463 0.07322 0.74194 0.0
H3446 H 0.34637 0.08492 0.76276 0.0
H3447 H 0.31455 0.07705 0.7816 0.0
H3448 H 0.31884 0.10307 0.85464 0.0
H3449 H 0.31738 0.09127 0.8328 0.0
C3450 C 0.93619 0.26699 0.75946 0.0
C3451 C 0.9424 0.26492 0.7489 0.0
C3452 C 0.93072 0.26005 0.77203 0.0
C3453 C 0.92144 0.23263 0.78622 0.0
H3454 H 0.91696 0.24361 0.8261 0.0
C3455 C 0.9049 0.20896 0.84605 0.0
C3456 C 0.89654 0.20971 0.853 0.0
C3457 C 0.91035 0.21516 0.83273 0.0
C3458 C 0.91813 0.24045 0.81499 0.0
H3459 H 0.94798 0.25414 0.74331 0.0
H3460 H 0.93884 0.24222 0.7657 0.0
H3461 H 0.92728 0.25572 0.80465 0.0
H3462 H 0.887 0.21715 0.85062 0.0
H3463 H 0.8968 0.22823 0.82787 0.0
H3464 H 0.91254 0.21734 0.79704 0.0
C3465 C 0.93786 0.249 0.76403 0.0
C3466 C 0.92399 0.24737 0.80263 0.0
C3467 C 0.94317 0.25586 0.75126 0.0
C3468 C 0.89356 0.21655 0.84593 0.0
C3469 C 0.89912 0.22286 0.83283 0.0
C3470 C 0.91575 0.22571 0.79874 0.0
C3471 C 0.9315 0.25096 0.77454 0.0
C3472 C 0.92562 0.24356 0.78797 0.0
C3473 C 0.90765 0.22232 0.82626 0.0
C3474 C 0.91394 0.22957 0.81314 0.0
H3475 H 0.93535 0.27385 0.75774 0.0
H3476 H 0.92573 0.26174 0.77958 0.0
H3477 H 0.92237 0.22935 0.77506 0.0
H3478 H 0.90752 0.20388 0.85124 0.0
H3479 H 0.91693 0.21464 0.82788 0.0
C3480 C 0.73457 0.68357 0.75891 0.0
C3481 C 0.73496 0.67843 0.74484 0.0
C3482 C 0.74173 0.68568 0.77143 0.0
C3483 C 0.75976 0.67735 0.7881 0.0
H3484 H 0.7723 0.70423 0.81017 0.0
C3485 C 0.79287 0.68933 0.83493 0.0
C3486 C 0.79197 0.69398 0.8492 0.0
C3487 C 0.78636 0.68791 0.82175 0.0
C3488 C 0.7688 0.69666 0.80421 0.0
H3489 H 0.74307 0.67132 0.73304 0.0
H3490 H 0.75566 0.67516 0.75475 0.0
H3491 H 0.75988 0.70065 0.78822 0.0
H3492 H 0.78354 0.70085 0.86075 0.0
H3493 H 0.77222 0.6984 0.83776 0.0
H3494 H 0.76863 0.67333 0.80413 0.0
C3495 C 0.74978 0.67749 0.75616 0.0
C3496 C 0.76167 0.6946 0.79166 0.0
C3497 C 0.74263 0.67539 0.74364 0.0
C3498 C 0.78456 0.6974 0.84985 0.0
C3499 C 0.77806 0.69598 0.83667 0.0
C3500 C 0.76688 0.67941 0.80065 0.0
C3501 C 0.74943 0.68267 0.77019 0.0
C3502 C 0.75705 0.68491 0.78348 0.0
C3503 C 0.77879 0.69111 0.82254 0.0
C3504 C 0.77147 0.68907 0.80888 0.0
H3505 H 0.72882 0.6861 0.76016 0.0
H3506 H 0.74118 0.68958 0.78216 0.0
H3507 H 0.75622 0.66974 0.78222 0.0
H3508 H 0.79859 0.68675 0.83397 0.0
H3509 H 0.78724 0.68429 0.81093 0.0
C3510 C 0.72496 0.65002 0.59824 0.0
C3511 C 0.72627 0.66004 0.6012 0.0
C3512 C 0.73039 0.64848 0.58567 0.0
C3513 C 0.7537 0.66262 0.55953 0.0
H3514 H 0.73914 0.63785 0.5325 0.0
C3515 C 0.77146 0.6573 0.50046 0.0
C3516 C 0.76959 0.64716 0.49675 0.0
C3517 C 0.76656 0.65893 0.51371 0.0
C3518 C 0.74337 0.64473 0.54007 0.0
H3519 H 0.73435 0.67631 0.59332 0.0
H3520 H 0.74371 0.67359 0.57121 0.0
H3521 H 0.72971 0.64059 0.55439 0.0
H3522 H 0.76145 0.63085 0.50442 0.0
H3523 H 0.75295 0.63369 0.52761 0.0
H3524 H 0.76736 0.66676 0.54518 0.0
C3525 C 0.73855 0.66695 0.57871 0.0
C3526 C 0.73795 0.64631 0.5526 0.0
C3527 C 0.7331 0.66848 0.59126 0.0
C3528 C 0.76292 0.63873 0.50682 0.0
C3529 C 0.75804 0.64035 0.52008 0.0
C3530 C 0.75912 0.66103 0.547 0.0
C3531 C 0.73726 0.65693 0.57579 0.0
C3532 C 0.74305 0.65527 0.56247 0.0
C3533 C 0.75969 0.65045 0.52356 0.0
C3534 C 0.75402 0.65207 0.53711 0.0
H3535 H 0.71968 0.64333 0.60557 0.0
H3536 H 0.72929 0.64069 0.58383 0.0
H3537 H 0.75788 0.66953 0.56707 0.0
H3538 H 0.77643 0.66394 0.4928 0.0
H3539 H 0.7679 0.66678 0.51592 0.0
C3540 C 0.355 0.07236 0.59509 0.0
C3541 C 0.34742 0.07056 0.60693 0.0
C3542 C 0.3574 0.07987 0.58301 0.0
C3543 C 0.34703 0.09574 0.56344 0.0
H3544 H 0.37537 0.11139 0.54623 0.0
C3545 C 0.36018 0.1305 0.5192 0.0
C3546 C 0.36447 0.12937 0.50466 0.0
C3547 C 0.35875 0.12397 0.53235 0.0
C3548 C 0.36743 0.10706 0.55095 0.0
H3549 H 0.33635 0.07533 0.61511 0.0
H3550 H 0.34097 0.08878 0.59477 0.0
H3551 H 0.37151 0.09876 0.56798 0.0
H3552 H 0.37087 0.12054 0.4929 0.0
H3553 H 0.36876 0.10948 0.51611 0.0
H3554 H 0.34308 0.1043 0.54661 0.0
C3555 C 0.34489 0.08419 0.5945 0.0
C3556 C 0.36517 0.09976 0.56332 0.0
C3557 C 0.34236 0.07656 0.6064 0.0
C3558 C 0.36772 0.12182 0.50392 0.0
C3559 C 0.36646 0.11542 0.51719 0.0
C3560 C 0.34934 0.10318 0.55129 0.0
C3561 C 0.3524 0.08593 0.58257 0.0
C3562 C 0.35491 0.09393 0.56966 0.0
C3563 C 0.36177 0.11629 0.53139 0.0
C3564 C 0.35953 0.10884 0.54485 0.0
H3565 H 0.35919 0.06803 0.59518 0.0
H3566 H 0.36311 0.08084 0.57393 0.0
H3567 H 0.33899 0.09128 0.5677 0.0
H3568 H 0.3578 0.13637 0.52039 0.0
H3569 H 0.35522 0.12486 0.54327 0.0
C3570 C 0.93355 0.25913 0.60203 0.0
C3571 C 0.93399 0.26875 0.60505 0.0
C3572 C 0.9271 0.25245 0.58984 0.0
C3573 C 0.90417 0.24701 0.56417 0.0
H3574 H 0.91392 0.23146 0.53855 0.0
C3575 C 0.8837 0.22449 0.50558 0.0
C3576 C 0.88271 0.21452 0.50342 0.0
C3577 C 0.88945 0.23088 0.51854 0.0
C3578 C 0.91104 0.23567 0.54572 0.0
H3579 H 0.92815 0.27904 0.5975 0.0
H3580 H 0.91704 0.2675 0.57596 0.0
H3581 H 0.92518 0.24326 0.55963 0.0
H3582 H 0.88661 0.20329 0.51368 0.0
H3583 H 0.89678 0.21453 0.53612 0.0
H3584 H 0.8901 0.23952 0.54993 0.0
C3585 C 0.92149 0.26497 0.58325 0.0
C3586 C 0.91749 0.24243 0.55783 0.0
C3587 C 0.92789 0.27161 0.59555 0.0
C3588 C 0.88738 0.211 0.51478 0.0
C3589 C 0.89319 0.21742 0.52765 0.0
C3590 C 0.89776 0.24031 0.55195 0.0
C3591 C 0.92099 0.25529 0.58027 0.0
C3592 C 0.91413 0.24817 0.56726 0.0
C3593 C 0.8944 0.22748 0.52955 0.0
C3594 C 0.90112 0.23454 0.54263 0.0
H3595 H 0.93804 0.25664 0.60933 0.0
H3596 H 0.92677 0.24498 0.5881 0.0
H3597 H 0.90125 0.25117 0.57135 0.0
H3598 H 0.88034 0.22752 0.49695 0.0
H3599 H 0.89032 0.23864 0.51962 0.0
C3600 C 0.33585 0.26614 0.59733 0.0
C3601 C 0.34413 0.27499 0.6049 0.0
C3602 C 0.33792 0.26074 0.58534 0.0
C3603 C 0.35833 0.26388 0.55617 0.0
H3604 H 0.34177 0.23342 0.55399 0.0
C3605 C 0.36741 0.23993 0.51033 0.0
C3606 C 0.35871 0.23214 0.50178 0.0
C3607 C 0.36595 0.24478 0.52379 0.0
C3608 C 0.34642 0.24193 0.5544 0.0
H3609 H 0.3611 0.28513 0.60565 0.0
H3610 H 0.36471 0.27555 0.58501 0.0
H3611 H 0.33865 0.24273 0.57573 0.0
H3612 H 0.34164 0.22326 0.50087 0.0
H3613 H 0.33911 0.23163 0.52445 0.0
H3614 H 0.36608 0.26307 0.53482 0.0
C3615 C 0.3566 0.27287 0.58822 0.0
C3616 C 0.34462 0.24727 0.56682 0.0
C3617 C 0.35453 0.27829 0.60019 0.0
C3618 C 0.34852 0.22911 0.50731 0.0
C3619 C 0.34706 0.23392 0.52081 0.0
C3620 C 0.36016 0.25854 0.5438 0.0
C3621 C 0.34832 0.26403 0.58065 0.0
C3622 C 0.35049 0.25832 0.56778 0.0
C3623 C 0.35576 0.24191 0.52906 0.0
C3624 C 0.35417 0.24751 0.5427 0.0
H3625 H 0.32775 0.2633 0.6008 0.0
H3626 H 0.33134 0.25405 0.57962 0.0
H3627 H 0.36289 0.2724 0.5564 0.0
H3628 H 0.37536 0.24233 0.50656 0.0
H3629 H 0.3728 0.25081 0.53006 0.0
C3630 C 0.72053 0.07266 0.59643 0.0
C3631 C 0.72607 0.07 0.60748 0.0
C3632 C 0.72586 0.07992 0.58414 0.0
C3633 C 0.75266 0.1007 0.57126 0.0
H3634 H 0.73946 0.09552 0.52919 0.0
C3635 C 0.77481 0.12067 0.51228 0.0
C3636 C 0.76981 0.12425 0.50167 0.0
C3637 C 0.7696 0.11492 0.52604 0.0
C3638 C 0.74319 0.09713 0.54092 0.0
H3639 H 0.74149 0.07275 0.61431 0.0
H3640 H 0.75079 0.08518 0.5926 0.0
H3641 H 0.7301 0.08363 0.55139 0.0
H3642 H 0.75551 0.12476 0.49721 0.0
H3643 H 0.74636 0.11463 0.52122 0.0
H3644 H 0.76591 0.11402 0.56047 0.0
C3645 C 0.74237 0.08192 0.59364 0.0
C3646 C 0.73782 0.09034 0.55369 0.0
C3647 C 0.73704 0.07475 0.60604 0.0
C3648 C 0.75958 0.12217 0.50526 0.0
C3649 C 0.75432 0.11631 0.5189 0.0
C3650 C 0.75808 0.10742 0.55842 0.0
C3651 C 0.73685 0.08458 0.5825 0.0
C3652 C 0.74249 0.09201 0.56902 0.0
C3653 C 0.75924 0.11253 0.52932 0.0
C3654 C 0.7534 0.10568 0.54313 0.0
H3655 H 0.71207 0.06921 0.5974 0.0
H3656 H 0.72136 0.08192 0.576 0.0
H3657 H 0.75643 0.10235 0.58295 0.0
H3658 H 0.78271 0.12222 0.50983 0.0
H3659 H 0.77354 0.11205 0.53382 0.0
C3660 C 0.9247 0.65357 0.60091 0.0
C3661 C 0.93338 0.66371 0.60331 0.0
C3662 C 0.91741 0.65171 0.5887 0.0
C3663 C 0.91448 0.6625 0.55019 0.0
H3664 H 0.88459 0.64442 0.55803 0.0
C3665 C 0.8835 0.65768 0.50324 0.0
C3666 C 0.87512 0.64742 0.50051 0.0
C3667 C 0.89028 0.65983 0.51631 0.0
C3668 C 0.89292 0.64941 0.55561 0.0
H3669 H 0.94108 0.67988 0.59492 0.0
H3670 H 0.92838 0.67661 0.57357 0.0
H3671 H 0.89714 0.64785 0.57974 0.0
H3672 H 0.8671 0.63144 0.50971 0.0
H3673 H 0.87906 0.63515 0.53237 0.0
H3674 H 0.91029 0.664 0.52605 0.0
C3675 C 0.9273 0.67008 0.581 0.0
C3676 C 0.9001 0.65137 0.56804 0.0
C3677 C 0.93458 0.67194 0.59322 0.0
C3678 C 0.87354 0.63941 0.51138 0.0
C3679 C 0.88033 0.64156 0.52446 0.0
C3680 C 0.9073 0.66053 0.53776 0.0
C3681 C 0.91863 0.65994 0.57859 0.0
C3682 C 0.91097 0.65793 0.56546 0.0
C3683 C 0.88886 0.65177 0.52696 0.0
C3684 C 0.89644 0.65396 0.54031 0.0
H3685 H 0.92363 0.64702 0.6083 0.0
H3686 H 0.91092 0.64378 0.58699 0.0
H3687 H 0.9228 0.66744 0.54773 0.0
H3688 H 0.88503 0.66402 0.49502 0.0
H3689 H 0.89668 0.66781 0.51802 0.0
C3690 C 0.94187 0.68893 0.74565 0.0
C3691 C 0.94279 0.67986 0.74485 0.0
C3692 C 0.93629 0.69026 0.75821 0.0
C3693 C 0.91552 0.67558 0.78796 0.0
H3694 H 0.92748 0.70241 0.81009 0.0
C3695 C 0.89723 0.68139 0.84604 0.0
C3696 C 0.8978 0.69115 0.8484 0.0
C3697 C 0.90233 0.67987 0.83297 0.0
C3698 C 0.92393 0.69491 0.80388 0.0
H3699 H 0.93855 0.66503 0.75651 0.0
H3700 H 0.92878 0.66736 0.7785 0.0
H3701 H 0.93726 0.70008 0.7883 0.0
H3702 H 0.90378 0.70681 0.8386 0.0
H3703 H 0.91249 0.7041 0.81557 0.0
H3704 H 0.90213 0.67044 0.80336 0.0
C3705 C 0.93236 0.67342 0.76937 0.0
C3706 C 0.92957 0.69357 0.79144 0.0
C3707 C 0.93803 0.67214 0.75689 0.0
C3708 C 0.90332 0.69925 0.83718 0.0
C3709 C 0.90835 0.6977 0.82403 0.0
C3710 C 0.90983 0.67694 0.80033 0.0
C3711 C 0.93144 0.6825 0.77016 0.0
C3712 C 0.92543 0.68389 0.78338 0.0
C3713 C 0.90806 0.68805 0.8219 0.0
C3714 C 0.91397 0.68662 0.80847 0.0
H3715 H 0.94552 0.69504 0.73661 0.0
H3716 H 0.93565 0.6973 0.75844 0.0
H3717 H 0.91208 0.66807 0.78181 0.0
H3718 H 0.89315 0.67505 0.85462 0.0
H3719 H 0.90206 0.67239 0.83186 0.0
C3720 C 0.31226 0.26151 0.7566 0.0
C3721 C 0.32027 0.2641 0.7452 0.0
C3722 C 0.31095 0.25481 0.76949 0.0
C3723 C 0.32557 0.24567 0.79397 0.0
H3724 H 0.29806 0.22266 0.80597 0.0
C3725 C 0.32125 0.21566 0.84205 0.0
C3726 C 0.31295 0.21235 0.85311 0.0
C3727 C 0.32167 0.22141 0.82839 0.0
C3728 C 0.30578 0.22913 0.8029 0.0
H3729 H 0.33325 0.2618 0.7384 0.0
H3730 H 0.33098 0.25013 0.76089 0.0
H3731 H 0.29971 0.234 0.78325 0.0
H3732 H 0.29847 0.21229 0.85847 0.0
H3733 H 0.29928 0.22254 0.83475 0.0
H3734 H 0.33167 0.24102 0.8137 0.0
C3735 C 0.32571 0.25327 0.75986 0.0
C3736 C 0.30672 0.2356 0.78988 0.0
C3737 C 0.32695 0.25987 0.74692 0.0
C3738 C 0.30491 0.21467 0.85004 0.0
C3739 C 0.30538 0.22053 0.83644 0.0
C3740 C 0.32463 0.23927 0.80704 0.0
C3741 C 0.31772 0.25069 0.7713 0.0
C3742 C 0.31663 0.24389 0.78524 0.0
C3743 C 0.31385 0.22409 0.82557 0.0
C3744 C 0.31474 0.23088 0.81163 0.0
H3745 H 0.30696 0.26461 0.7555 0.0
H3746 H 0.30478 0.25301 0.7782 0.0
H3747 H 0.33329 0.25212 0.79083 0.0
H3748 H 0.32746 0.21383 0.84401 0.0
H3749 H 0.32816 0.22379 0.82008 0.0
C3750 C 0.74551 0.0695 0.74321 0.0
C3751 C 0.73617 0.06019 0.74707 0.0
C3752 C 0.75231 0.07586 0.75538 0.0
C3753 C 0.75948 0.07579 0.79791 0.0
H3754 H 0.76902 0.10565 0.7962 0.0
C3755 C 0.77713 0.10281 0.85313 0.0
C3756 C 0.7852 0.11325 0.85075 0.0
C3757 C 0.77202 0.09629 0.83999 0.0
C3758 C 0.7666 0.09737 0.79675 0.0
H3759 H 0.72676 0.05006 0.76665 0.0
H3760 H 0.73864 0.06117 0.78794 0.0
H3761 H 0.75859 0.09427 0.7741 0.0
H3762 H 0.79445 0.12497 0.83274 0.0
H3763 H 0.78564 0.11352 0.80972 0.0
H3764 H 0.76748 0.07886 0.82054 0.0
C3765 C 0.74071 0.06354 0.77549 0.0
C3766 C 0.76059 0.09085 0.78409 0.0
C3767 C 0.73387 0.05724 0.76333 0.0
C3768 C 0.78818 0.11699 0.83493 0.0
C3769 C 0.78311 0.11043 0.82176 0.0
C3770 C 0.76556 0.08233 0.81052 0.0
C3771 C 0.74994 0.07298 0.77166 0.0
C3772 C 0.75686 0.07997 0.78463 0.0
C3773 C 0.7749 0.10002 0.82413 0.0
C3774 C 0.76907 0.09318 0.8102 0.0
H3775 H 0.74744 0.07203 0.73079 0.0
H3776 H 0.7594 0.08305 0.75207 0.0
H3777 H 0.75683 0.06746 0.79854 0.0
H3778 H 0.77454 0.09976 0.86518 0.0
H3779 H 0.7656 0.0884 0.8423 0.0
C3780 C 0.0589 0.36095 0.01296 0.0
C3781 C 0.04989 0.35695 0.02276 0.0
C3782 C 0.06684 0.3586 0.01634 0.0
C3783 C 0.07176 0.33946 0.03781 0.0
H3784 H 0.10063 0.36232 0.04087 0.0
C3785 C 0.1028 0.33634 0.07539 0.0
C3786 C 0.11334 0.34147 0.07023 0.0
C3787 C 0.09523 0.33747 0.06687 0.0
C3788 C 0.09265 0.3558 0.03976 0.0
H3789 H 0.04199 0.34711 0.04346 0.0
H3790 H 0.05583 0.34304 0.04938 0.0
H3791 H 0.08702 0.36581 0.03089 0.0
H3792 H 0.1241 0.35153 0.0517 0.0
H3793 H 0.11082 0.35351 0.03675 0.0
H3794 H 0.07731 0.32948 0.04693 0.0
C3795 C 0.05677 0.34799 0.03909 0.0
C3796 C 0.08486 0.35782 0.03407 0.0
C3797 C 0.04891 0.35042 0.03582 0.0
C3798 C 0.11607 0.34756 0.05608 0.0
C3799 C 0.10847 0.3487 0.04753 0.0
C3800 C 0.07955 0.33744 0.04341 0.0
C3801 C 0.06583 0.35207 0.02943 0.0
C3802 C 0.07429 0.34972 0.03346 0.0
C3803 C 0.09799 0.34377 0.05296 0.0
C3804 C 0.09003 0.34564 0.04487 0.0
H3805 H 0.05987 0.36603 0.00284 0.0
H3806 H 0.07374 0.36182 0.00867 0.0
H3807 H 0.06371 0.33303 0.03718 0.0
H3808 H 0.10045 0.33177 0.08642 0.0
H3809 H 0.08729 0.33374 0.0716 0.0
C3810 C 0.64503 0.69576 0.04439 0.0
C3811 C 0.64424 0.69289 0.02809 0.0
C3812 C 0.64747 0.70592 0.04873 0.0
C3813 C 0.65986 0.73304 0.03231 0.0
H3814 H 0.65011 0.73833 0.07278 0.0
C3815 C 0.67205 0.77491 0.0569 0.0
C3816 C 0.67663 0.77662 0.07227 0.0
C3817 C 0.66681 0.76475 0.05032 0.0
C3818 C 0.65283 0.73695 0.0614 0.0
H3819 H 0.64495 0.69825 0.00355 0.0
H3820 H 0.64891 0.71596 0.0111 0.0
H3821 H 0.64283 0.72029 0.06324 0.0
H3822 H 0.67907 0.76915 0.09305 0.0
H3823 H 0.66972 0.75141 0.08175 0.0
H3824 H 0.66985 0.74979 0.03058 0.0
C3825 C 0.64794 0.71045 0.02055 0.0
C3826 C 0.64874 0.72662 0.05597 0.0
C3827 C 0.64562 0.7003 0.01621 0.0
C3828 C 0.67568 0.76803 0.0811 0.0
C3829 C 0.67028 0.75789 0.07471 0.0
C3830 C 0.66383 0.74339 0.03763 0.0
C3831 C 0.64906 0.71345 0.03687 0.0
C3832 C 0.65242 0.7245 0.04159 0.0
C3833 C 0.66584 0.75616 0.05924 0.0
C3834 C 0.66056 0.7454 0.05243 0.0
H3835 H 0.64415 0.69025 0.05379 0.0
H3836 H 0.64848 0.70797 0.0614 0.0
H3837 H 0.66299 0.73174 0.02128 0.0
H3838 H 0.67269 0.78144 0.04991 0.0
H3839 H 0.66344 0.76358 0.03836 0.0
C3840 C 0.29965 0.947 0.01687 0.0
C3841 C 0.30509 0.95669 0.02499 0.0
C3842 C 0.28926 0.93964 0.02109 0.0
C3843 C 0.27036 0.93265 0.05476 0.0
H3844 H 0.24902 0.91753 0.02225 0.0
C3845 C 0.2267 0.91168 0.07053 0.0
C3846 C 0.22045 0.90123 0.06524 0.0
C3847 C 0.23683 0.918 0.06447 0.0
C3848 C 0.25493 0.92163 0.03144 0.0
H3849 H 0.30393 0.96617 0.0441 0.0
H3850 H 0.28586 0.95356 0.05111 0.0
H3851 H 0.2673 0.92932 0.01403 0.0
H3852 H 0.21979 0.88939 0.04888 0.0
H3853 H 0.23761 0.90053 0.03822 0.0
H3854 H 0.25804 0.92516 0.07212 0.0
C3855 C 0.28961 0.95154 0.04161 0.0
C3856 C 0.26539 0.92835 0.02676 0.0
C3857 C 0.29994 0.95885 0.03742 0.0
C3858 C 0.22444 0.89739 0.05326 0.0
C3859 C 0.2346 0.90377 0.04709 0.0
C3860 C 0.25995 0.92601 0.0594 0.0
C3861 C 0.28415 0.94183 0.03357 0.0
C3862 C 0.27318 0.93408 0.03838 0.0
C3863 C 0.24097 0.91405 0.05295 0.0
C3864 C 0.25209 0.92057 0.0478 0.0
H3865 H 0.30337 0.94513 0.00715 0.0
H3866 H 0.2853 0.93221 0.01473 0.0
H3867 H 0.27621 0.93672 0.06404 0.0
H3868 H 0.22397 0.91486 0.07991 0.0
H3869 H 0.24151 0.92594 0.06905 0.0
C3870 C 0.35819 0.05538 0.99915 0.0
C3871 C 0.35427 0.04602 0.99023 0.0
C3872 C 0.35574 0.0631 0.99469 0.0
C3873 C 0.34663 0.07189 0.95954 0.0
H3874 H 0.34106 0.08795 0.99121 0.0
C3875 C 0.33193 0.09969 0.94022 0.0
C3876 C 0.33739 0.10993 0.94662 0.0
C3877 C 0.33318 0.09165 0.94687 0.0
C3878 C 0.34265 0.08355 0.98225 0.0
H3879 H 0.34436 0.0372 0.97008 0.0
H3880 H 0.33998 0.05055 0.96241 0.0
H3881 H 0.34498 0.07439 0.00016 0.0
H3882 H 0.34796 0.1196 0.96562 0.0
H3883 H 0.35022 0.10552 0.9772 0.0
H3884 H 0.34428 0.08099 0.94165 0.0
C3885 C 0.34518 0.0521 0.97258 0.0
C3886 C 0.34493 0.07582 0.98736 0.0
C3887 C 0.34769 0.04444 0.97698 0.0
C3888 C 0.34372 0.11181 0.96034 0.0
C3889 C 0.34496 0.10374 0.96703 0.0
C3890 C 0.3443 0.07955 0.95446 0.0
C3891 C 0.34926 0.06157 0.98127 0.0
C3892 C 0.34691 0.06987 0.97604 0.0
C3893 C 0.33993 0.09366 0.96007 0.0
C3894 C 0.34224 0.08544 0.96574 0.0
H3895 H 0.36333 0.05682 0.00939 0.0
H3896 H 0.3591 0.07035 0.00153 0.0
H3897 H 0.34835 0.06765 0.9505 0.0
H3898 H 0.32708 0.09797 0.92956 0.0
H3899 H 0.32909 0.08392 0.9414 0.0
C3900 C 0.96146 0.30074 0.98533 0.0
C3901 C 0.95935 0.30579 0.99798 0.0
C3902 C 0.95417 0.29041 0.9811 0.0
C3903 C 0.93114 0.26601 0.99586 0.0
H3904 H 0.92742 0.25916 0.9503 0.0
C3905 C 0.89954 0.22549 0.96913 0.0
C3906 C 0.903 0.22158 0.95646 0.0
C3907 C 0.90616 0.23554 0.97546 0.0
C3908 C 0.92843 0.26093 0.96308 0.0
H3909 H 0.94792 0.30388 0.01618 0.0
H3910 H 0.93503 0.2858 0.00854 0.0
H3911 H 0.93916 0.27722 0.95872 0.0
H3912 H 0.91622 0.22513 0.94079 0.0
H3913 H 0.92775 0.24248 0.95199 0.0
H3914 H 0.9203 0.24961 9e-05 0.0
C3915 C 0.94241 0.28985 0.00204 0.0
C3916 C 0.93517 0.27128 0.96791 0.0
C3917 C 0.94974 0.30023 0.00631 0.0
C3918 C 0.91333 0.2278 0.95068 0.0
C3919 C 0.9199 0.23782 0.95694 0.0
C3920 C 0.92433 0.25561 0.99099 0.0
C3921 C 0.94453 0.28485 0.98931 0.0
C3922 C 0.93676 0.27392 0.98435 0.0
C3923 C 0.91632 0.2419 0.96914 0.0
C3924 C 0.92306 0.25295 0.97454 0.0
H3925 H 0.9687 0.30481 0.97849 0.0
H3926 H 0.95613 0.28675 0.9714 0.0
H3927 H 0.93224 0.26778 0.00862 0.0
H3928 H 0.89165 0.22086 0.97392 0.0
H3929 H 0.9032 0.23849 0.98487 0.0
C3930 C 0.6966 0.64486 0.98215 0.0
C3931 C 0.69424 0.64854 0.99626 0.0
C3932 C 0.70698 0.64759 0.97864 0.0
C3933 C 0.73425 0.6681 0.9881 0.0
H3934 H 0.74125 0.64971 0.96422 0.0
C3935 C 0.77266 0.68397 0.95233 0.0
C3936 C 0.77772 0.678 0.95141 0.0
C3937 C 0.76291 0.67995 0.95989 0.0
C3938 C 0.73947 0.6549 0.9711 0.0
H3939 H 0.70077 0.65749 0.0182 0.0
H3940 H 0.71886 0.66209 0.01227 0.0
H3941 H 0.72332 0.64297 0.97395 0.0
H3942 H 0.77657 0.66317 0.95808 0.0
H3943 H 0.75949 0.65613 0.97145 0.0
H3944 H 0.75039 0.68 0.98539 0.0
C3945 C 0.71276 0.65733 0.00367 0.0
C3946 C 0.72915 0.65108 0.9765 0.0
C3947 C 0.7024 0.65468 0.0071 0.0
C3948 C 0.77284 0.66794 0.95849 0.0
C3949 C 0.76305 0.6639 0.96611 0.0
C3950 C 0.74455 0.6719 0.98279 0.0
C3951 C 0.71522 0.65399 0.98925 0.0
C3952 C 0.72637 0.65769 0.9848 0.0
C3953 C 0.75793 0.66984 0.96677 0.0
C3954 C 0.74725 0.66542 0.97392 0.0
H3955 H 0.69049 0.6402 0.9735 0.0
H3956 H 0.70858 0.645 0.96731 0.0
H3957 H 0.7324 0.67347 0.99431 0.0
H3958 H 0.77607 0.69165 0.9467 0.0
H3959 H 0.75911 0.68465 0.95985 0.0
C3960 C 0.94899 0.65516 0.01063 0.0
C3961 C 0.95212 0.65043 0.99877 0.0
C3962 C 0.94158 0.6582 0.0071 0.0
C3963 C 0.92085 0.6542 0.97776 0.0
H3964 H 0.92714 0.68205 0.99128 0.0
C3965 C 0.89388 0.67071 0.96044 0.0
C3966 C 0.89913 0.68096 0.95404 0.0
C3967 C 0.89949 0.6667 0.9685 0.0
C3968 C 0.92526 0.67425 0.98744 0.0
H3969 H 0.94985 0.64517 0.9739 0.0
H3970 H 0.93693 0.65043 0.96777 0.0
H3971 H 0.93849 0.67526 -5e-05 0.0
H3972 H 0.91436 0.69511 0.9515 0.0
H3973 H 0.9241 0.68816 0.96558 0.0
H3974 H 0.90788 0.65335 0.96472 0.0
C3975 C 0.94009 0.65165 0.97988 0.0
C3976 C 0.93171 0.67031 0.99254 0.0
C3977 C 0.9475 0.64863 0.9834 0.0
C3978 C 0.91004 0.68725 0.95649 0.0
C3979 C 0.91563 0.68325 0.96456 0.0
C3980 C 0.9144 0.65812 0.9727 0.0
C3981 C 0.9371 0.65655 0.99164 0.0
C3982 C 0.92969 0.66032 0.9875 0.0
C3983 C 0.91047 0.67285 0.97036 0.0
C3984 C 0.91664 0.66827 0.97723 0.0
H3985 H 0.95227 0.65651 0.02267 0.0
H3986 H 0.93934 0.66184 0.01648 0.0
H3987 H 0.91901 0.64642 0.97385 0.0
H3988 H 0.88546 0.66571 0.95896 0.0
H3989 H 0.89526 0.65871 0.97306 0.0
C3990 C 0.36043 0.30659 0.98986 0.0
C3991 C 0.35395 0.30911 0.99904 0.0
C3992 C 0.35761 0.29608 0.98731 0.0
C3993 C 0.33422 0.26953 0.98677 0.0
H3994 H 0.35492 0.26056 0.98333 0.0
C3995 C 0.32221 0.2268 0.9704 0.0
C3996 C 0.32817 0.22582 0.95794 0.0
C3997 C 0.32571 0.23647 0.97811 0.0
C3998 C 0.34905 0.26296 0.98424 0.0
H3999 H 0.33973 0.30263 0.01345 0.0
H4000 H 0.33486 0.28431 0.00914 0.0
H4001 H 0.36043 0.27851 0.99189 0.0
H4002 H 0.34262 0.23425 0.94411 0.0
H4003 H 0.34873 0.251 0.95764 0.0
H4004 H 0.32289 0.25405 0.97884 0.0
C4005 C 0.34199 0.29042 0.00359 0.0
C4006 C 0.35221 0.27324 0.9891 0.0
C4007 C 0.34478 0.30092 0.00607 0.0
C4008 C 0.33791 0.23464 0.95384 0.0
C4009 C 0.34142 0.24427 0.96159 0.0
C4010 C 0.33107 0.25924 0.98197 0.0
C4011 C 0.34828 0.28787 0.99396 0.0
C4012 C 0.34485 0.2767 0.99016 0.0
C4013 C 0.33526 0.24535 0.97357 0.0
C4014 C 0.33847 0.2559 0.98038 0.0
H4015 H 0.36749 0.31272 0.98417 0.0
H4016 H 0.36257 0.2944 0.97965 0.0
H4017 H 0.32837 0.27196 0.9872 0.0
H4018 H 0.31476 0.22013 0.97402 0.0
H4019 H 0.32087 0.23703 0.98746 0.0
C4020 C 0.69465 0.0571 0.00377 0.0
C4021 C 0.69201 0.04684 0.99923 0.0
C4022 C 0.70465 0.06562 0.00042 0.0
C4023 C 0.73189 0.07246 0.99031 0.0
H4024 H 0.73352 0.09718 0.97058 0.0
C4025 C 0.76807 0.10285 0.95453 0.0
C4026 C 0.77065 0.11345 0.95468 0.0
C4027 C 0.75912 0.09521 0.96256 0.0
C4028 C 0.73325 0.09044 0.97637 0.0
H4029 H 0.69788 0.03743 0.98803 0.0
H4030 H 0.71528 0.05229 0.98204 0.0
H4031 H 0.71657 0.08291 0.97968 0.0
H4032 H 0.76622 0.12445 0.96417 0.0
H4033 H 0.75065 0.11113 0.9784 0.0
H4034 H 0.74855 0.07993 0.98683 0.0
C4035 C 0.70964 0.05375 0.98826 0.0
C4036 C 0.72352 0.08224 0.98155 0.0
C4037 C 0.69964 0.04525 0.99151 0.0
C4038 C 0.76436 0.11632 0.96366 0.0
C4039 C 0.75542 0.10868 0.97176 0.0
C4040 C 0.74164 0.08068 0.9852 0.0
C4041 C 0.71224 0.06403 0.99257 0.0
C4042 C 0.7227 0.07309 0.98833 0.0
C4043 C 0.75256 0.098 0.97099 0.0
C4044 C 0.74241 0.0897 0.97792 0.0
H4045 H 0.68892 0.05857 0.00965 0.0
H4046 H 0.70644 0.07344 0.00398 0.0
H4047 H 0.73153 0.06557 0.99573 0.0
H4048 H 0.77267 0.10035 0.94753 0.0
H4049 H 0.75709 0.08705 0.96151 0.0
C4050 C 0.65973 0.95489 0.01966 0.0
C4051 C 0.64947 0.95296 0.02262 0.0
C4052 C 0.66232 0.94707 0.02234 0.0
C4053 C 0.65334 0.92242 0.0454 0.0
H4054 H 0.6751 0.92115 0.02063 0.0
C4055 C 0.66713 0.89282 0.06029 0.0
C4056 C 0.67807 0.8976 0.0628 0.0
C4057 C 0.66283 0.89837 0.05286 0.0
C4058 C 0.66898 0.9214 0.02761 0.0
H4059 H 0.63382 0.94109 0.0303 0.0
H4060 H 0.63823 0.92732 0.0343 0.0
H4061 H 0.6688 0.93297 0.01214 0.0
H4062 H 0.69303 0.9119 0.05885 0.0
H4063 H 0.68553 0.92138 0.0455 0.0
H4064 H 0.65357 0.91085 0.06086 0.0
C4065 C 0.64435 0.93499 0.03029 0.0
C4066 C 0.66541 0.92821 0.02282 0.0
C4067 C 0.64178 0.94286 0.02777 0.0
C4068 C 0.68461 0.90786 0.05692 0.0
C4069 C 0.68031 0.91334 0.0493 0.0
C4070 C 0.65681 0.91551 0.05005 0.0
C4071 C 0.6547 0.93704 0.02786 0.0
C4072 C 0.65771 0.92899 0.03188 0.0
C4073 C 0.66937 0.90875 0.04755 0.0
C4074 C 0.66482 0.9151 0.0414 0.0
H4075 H 0.66582 0.9625 0.01538 0.0
H4076 H 0.6704 0.94901 0.02051 0.0
H4077 H 0.64753 0.92289 0.05284 0.0
H4078 H 0.66186 0.88485 0.06434 0.0
H4079 H 0.65436 0.8946 0.05149 0.0
C4080 C 0.0528 0.69489 0.03509 0.0
C4081 C 0.04509 0.69322 0.0236 0.0
C4082 C 0.06109 0.70503 0.03821 0.0
C4083 C 0.06856 0.73303 0.03432 0.0
H4084 H 0.09593 0.73737 0.04665 0.0
C4085 C 0.11256 0.7678 0.05743 0.0
C4086 C 0.10933 0.77285 0.06853 0.0
C4087 C 0.10512 0.75899 0.04888 0.0
C4088 C 0.08841 0.73639 0.04296 0.0
H4089 H 0.04017 0.70081 0.00601 0.0
H4090 H 0.05476 0.71854 0.01123 0.0
H4091 H 0.08248 0.72019 0.03716 0.0
H4092 H 0.09581 0.77286 0.07901 0.0
H4093 H 0.08283 0.7574 0.06443 0.0
H4094 H 0.07456 0.74928 0.03989 0.0
C4095 C 0.05429 0.71204 0.0181 0.0
C4096 C 0.08062 0.72645 0.03776 0.0
C4097 C 0.04594 0.70189 0.01508 0.0
C4098 C 0.09853 0.76921 0.07038 0.0
C4099 C 0.09109 0.76034 0.06197 0.0
C4100 C 0.07639 0.743 0.03939 0.0
C4101 C 0.06192 0.71375 0.0298 0.0
C4102 C 0.07052 0.72458 0.03374 0.0
C4103 C 0.09428 0.75496 0.05139 0.0
C4104 C 0.08634 0.74475 0.04413 0.0
H4105 H 0.05227 0.68838 0.04202 0.0
H4106 H 0.06668 0.70604 0.04754 0.0
H4107 H 0.06085 0.73188 0.03142 0.0
H4108 H 0.12084 0.77052 0.05565 0.0
H4109 H 0.10787 0.7552 0.04056 0.0
C4110 C 0.29889 0.34157 0.01346 0.0
C4111 C 0.30679 0.35143 0.0191 0.0
C4112 C 0.28827 0.33832 0.01582 0.0
C4113 C 0.27 0.34798 0.02634 0.0
H4114 H 0.25241 0.31967 0.04275 0.0
C4115 C 0.2322 0.33543 0.06254 0.0
C4116 C 0.22365 0.32514 0.06085 0.0
C4117 C 0.24163 0.33856 0.05441 0.0
C4118 C 0.25713 0.32752 0.03787 0.0
H4119 H 0.3097 0.36566 0.03146 0.0
H4120 H 0.29118 0.35999 0.03563 0.0
H4121 H 0.27034 0.32534 0.03425 0.0
H4122 H 0.21817 0.31022 0.04866 0.0
H4123 H 0.23473 0.31569 0.03447 0.0
H4124 H 0.25686 0.35024 0.03039 0.0
C4125 C 0.29319 0.35482 0.02916 0.0
C4126 C 0.26743 0.33078 0.03302 0.0
C4127 C 0.30382 0.35808 0.0268 0.0
C4128 C 0.22465 0.31816 0.05038 0.0
C4129 C 0.23413 0.32129 0.04226 0.0
C4130 C 0.2597 0.34472 0.0312 0.0
C4131 C 0.2853 0.34486 0.02387 0.0
C4132 C 0.27405 0.34111 0.0275 0.0
C4133 C 0.24278 0.33147 0.04441 0.0
C4134 C 0.25322 0.33452 0.03733 0.0
H4135 H 0.30092 0.33635 0.00721 0.0
H4136 H 0.28237 0.33066 0.01138 0.0
H4137 H 0.27485 0.35592 0.02187 0.0
H4138 H 0.23181 0.34097 0.07074 0.0
H4139 H 0.24819 0.3464 0.05657 0.0
C4140 C 0.72026 0.69377 0.36941 0.0
C4141 C 0.71296 0.68877 0.35693 0.0
C4142 C 0.7282 0.69135 0.37226 0.0
C4143 C 0.73443 0.67019 0.36523 0.0
H4144 H 0.76196 0.69102 0.38112 0.0
C4145 C 0.76599 0.65926 0.38137 0.0
C4146 C 0.77053 0.66266 0.39672 0.0
C4147 C 0.76011 0.66333 0.37435 0.0
C4148 C 0.7543 0.68512 0.3767 0.0
H4149 H 0.70851 0.67767 0.33719 0.0
H4150 H 0.72246 0.67356 0.34198 0.0
H4151 H 0.74948 0.69651 0.37271 0.0
H4152 H 0.77261 0.67324 0.41648 0.0
H4153 H 0.76255 0.68043 0.40412 0.0
H4154 H 0.73922 0.65881 0.36939 0.0
C4155 C 0.72192 0.67916 0.34984 0.0
C4156 C 0.74714 0.68825 0.37193 0.0
C4157 C 0.71394 0.68153 0.34707 0.0
C4158 C 0.76941 0.67055 0.40454 0.0
C4159 C 0.76361 0.67467 0.39747 0.0
C4160 C 0.74162 0.66709 0.36989 0.0
C4161 C 0.72906 0.68392 0.36262 0.0
C4162 C 0.73704 0.68079 0.36641 0.0
C4163 C 0.75871 0.67095 0.38246 0.0
C4164 C 0.75157 0.67448 0.37593 0.0
H4165 H 0.71963 0.69931 0.37732 0.0
H4166 H 0.73345 0.69506 0.38237 0.0
H4167 H 0.72669 0.6642 0.36129 0.0
H4168 H 0.76684 0.65332 0.37489 0.0
H4169 H 0.75654 0.66042 0.36266 0.0
C4170 C 0.30982 0.03106 0.38002 0.0
C4171 C 0.30672 0.02713 0.36428 0.0
C4172 C 0.31275 0.04146 0.3837 0.0
C4173 C 0.32429 0.06743 0.36581 0.0
H4174 H 0.3145 0.07462 0.40459 0.0
C4175 C 0.3297 0.10636 0.40238 0.0
C4176 C 0.34072 0.112 0.40416 0.0
C4177 C 0.32465 0.09631 0.39549 0.0
C4178 C 0.3172 0.07273 0.39362 0.0
H4179 H 0.30399 0.0311 0.3402 0.0
H4180 H 0.30949 0.04938 0.34658 0.0
H4181 H 0.307 0.05614 0.39691 0.0
H4182 H 0.35505 0.11153 0.3995 0.0
H4183 H 0.34626 0.09421 0.38706 0.0
H4184 H 0.33478 0.084 0.36285 0.0
C4185 C 0.30961 0.04433 0.35601 0.0
C4186 C 0.31298 0.06217 0.38931 0.0
C4187 C 0.30652 0.03388 0.35237 0.0
C4188 C 0.34659 0.10755 0.39811 0.0
C4189 C 0.34155 0.09758 0.39103 0.0
C4190 C 0.32863 0.07798 0.37025 0.0
C4191 C 0.31279 0.04822 0.3717 0.0
C4192 C 0.31658 0.05942 0.37548 0.0
C4193 C 0.33053 0.09177 0.38999 0.0
C4194 C 0.32522 0.08072 0.38431 0.0
H4195 H 0.31029 0.02621 0.38945 0.0
H4196 H 0.31531 0.04431 0.39584 0.0
H4197 H 0.32725 0.0655 0.35514 0.0
H4198 H 0.32493 0.10961 0.40657 0.0
H4199 H 0.31614 0.09203 0.39466 0.0
C4200 C 0.96737 0.28693 0.36856 0.0
C4201 C 0.97237 0.28641 0.35444 0.0
C4202 C 0.9569 0.2794 0.37164 0.0
C4203 C 0.93716 0.25218 0.36302 0.0
H4204 H 0.91793 0.2603 0.38128 0.0
C4205 C 0.89552 0.22115 0.38447 0.0
C4206 C 0.89267 0.22315 0.39969 0.0
C4207 C 0.90427 0.22903 0.37631 0.0
C4208 C 0.92321 0.2579 0.37624 0.0
H4209 H 0.97035 0.27766 0.33241 0.0
H4210 H 0.95199 0.26437 0.3379 0.0
H4211 H 0.93526 0.27384 0.37199 0.0
H4212 H 0.89676 0.23503 0.41818 0.0
H4213 H 0.91194 0.24868 0.40408 0.0
H4214 H 0.92531 0.23626 0.36785 0.0
C4215 C 0.9562 0.27063 0.34654 0.0
C4216 C 0.93312 0.26565 0.3709 0.0
C4217 C 0.96666 0.27825 0.34337 0.0
C4218 C 0.89859 0.23327 0.40634 0.0
C4219 C 0.90732 0.24112 0.39823 0.0
C4220 C 0.92727 0.24441 0.36846 0.0
C4221 C 0.95122 0.27113 0.36073 0.0
C4222 C 0.94029 0.26288 0.36458 0.0
C4223 C 0.91037 0.23907 0.38323 0.0
C4224 C 0.92027 0.24719 0.37549 0.0
H4225 H 0.97155 0.29321 0.37721 0.0
H4226 H 0.95332 0.27992 0.38276 0.0
H4227 H 0.94256 0.24982 0.35831 0.0
H4228 H 0.89105 0.21346 0.37895 0.0
H4229 H 0.90634 0.22723 0.36468 0.0
C4230 C 0.038 0.39249 0.32739 0.0
C4231 C 0.02883 0.38332 0.33232 0.0
C4232 C 0.03767 0.40158 0.32345 0.0
C4233 C 0.02191 0.41476 0.32755 0.0
H4234 H 0.03522 0.42794 0.28711 0.0
C4235 C 0.01337 0.44423 0.29363 0.0
C4236 C 0.02157 0.45231 0.28464 0.0
C4237 C 0.01485 0.43661 0.30141 0.0
C4238 C 0.03163 0.42451 0.29859 0.0
H4239 H 0.01217 0.37661 0.33732 0.0
H4240 H 0.01163 0.39251 0.33057 0.0
H4241 H 0.03682 0.41328 0.29725 0.0
H4242 H 0.03789 0.45885 0.27738 0.0
H4243 H 0.04056 0.44591 0.29148 0.0
H4244 H 0.01666 0.42599 0.32881 0.0
C4245 C 0.01909 0.39268 0.32988 0.0
C4246 C 0.03253 0.41607 0.30438 0.0
C4247 C 0.0194 0.38357 0.33376 0.0
C4248 C 0.03141 0.45285 0.28431 0.0
C4249 C 0.03291 0.4453 0.29219 0.0
C4250 C 0.02106 0.42327 0.32179 0.0
C4251 C 0.02818 0.40172 0.32442 0.0
C4252 C 0.02763 0.41105 0.31886 0.0
C4253 C 0.02457 0.43692 0.30048 0.0
C4254 C 0.02585 0.42821 0.30718 0.0
H4255 H 0.04543 0.39264 0.32646 0.0
H4256 H 0.04484 0.40849 0.31952 0.0
H4257 H 0.01813 0.4111 0.33883 0.0
H4258 H 0.00573 0.44365 0.29436 0.0
H4259 H 0.00823 0.43024 0.30762 0.0
C4260 C 0.61141 0.63757 0.32291 0.0
C4261 C 0.62203 0.64075 0.32592 0.0
C4262 C 0.60433 0.6272 0.31827 0.0
C4263 C 0.6036 0.60447 0.2987 0.0
H4264 H 0.57596 0.58821 0.31806 0.0
C4265 C 0.57778 0.56058 0.28483 0.0
C4266 C 0.56696 0.55662 0.28222 0.0
C4267 C 0.5841 0.57062 0.29123 0.0
C4268 C 0.5836 0.59268 0.31241 0.0
H4269 H 0.63354 0.6356 0.32631 0.0
H4270 H 0.6212 0.61756 0.31824 0.0
H4271 H 0.5877 0.60633 0.32688 0.0
H4272 H 0.55427 0.56004 0.28503 0.0
H4273 H 0.5654 0.57774 0.29571 0.0
H4274 H 0.59954 0.59102 0.28402 0.0
C4275 C 0.61835 0.62306 0.31947 0.0
C4276 C 0.59032 0.60305 0.31747 0.0
C4277 C 0.62539 0.63336 0.32424 0.0
C4278 C 0.56259 0.56288 0.28667 0.0
C4279 C 0.56895 0.57299 0.29297 0.0
C4280 C 0.59688 0.59418 0.29356 0.0
C4281 C 0.60776 0.61988 0.31636 0.0
C4282 C 0.60043 0.609 0.31077 0.0
C4283 C 0.57983 0.57706 0.29503 0.0
C4284 C 0.58683 0.5881 0.30045 0.0
H4285 H 0.60859 0.64308 0.3242 0.0
H4286 H 0.59622 0.62498 0.31586 0.0
H4287 H 0.61127 0.60894 0.29309 0.0
H4288 H 0.58151 0.55611 0.28136 0.0
H4289 H 0.59239 0.5734 0.29296 0.0
C4290 C 0.3554 0.98014 0.31444 0.0
C4291 C 0.35104 0.97653 0.3298 0.0
C4292 C 0.36533 0.98167 0.3106 0.0
C4293 C 0.39013 0.98597 0.32888 0.0
H4294 H 0.3949 0.97869 0.28601 0.0
C4295 C 0.43165 0.00094 0.30183 0.0
C4296 C 0.43305 0.99432 0.29109 0.0
C4297 C 0.4217 0.99792 0.30816 0.0
C4298 C 0.3937 0.98065 0.29812 0.0
H4299 H 0.35367 0.97157 0.35313 0.0
H4300 H 0.37104 0.97421 0.34639 0.0
H4301 H 0.37735 0.97485 0.29371 0.0
H4302 H 0.42507 0.97912 0.27914 0.0
H4303 H 0.4079 0.97373 0.29062 0.0
H4304 H 0.4065 0.99168 0.33331 0.0
C4305 C 0.36681 0.97599 0.33739 0.0
C4306 C 0.38365 0.97857 0.30246 0.0
C4307 C 0.35686 0.97447 0.34125 0.0
C4308 C 0.42436 0.98439 0.28749 0.0
C4309 C 0.41444 0.98135 0.29389 0.0
C4310 C 0.40021 0.98804 0.32455 0.0
C4311 C 0.37116 0.97961 0.32201 0.0
C4312 C 0.38176 0.98132 0.31781 0.0
C4313 C 0.41292 0.98819 0.30394 0.0
C4314 C 0.40213 0.98548 0.30905 0.0
H4315 H 0.35122 0.98199 0.30545 0.0
H4316 H 0.36853 0.98467 0.29875 0.0
H4317 H 0.38896 0.98826 0.34078 0.0
H4318 H 0.4382 0.00858 0.30505 0.0
H4319 H 0.42081 0.0034 0.31582 0.0
C4320 C 0.60677 0.96211 0.31238 0.0
C4321 C 0.61465 0.96962 0.32246 0.0
C4322 C 0.59757 0.96244 0.30944 0.0
C4323 C 0.58739 0.98076 0.30911 0.0
H4324 H 0.56032 0.9552 0.30518 0.0
C4325 C 0.55014 0.98208 0.29124 0.0
C4326 C 0.54407 0.97501 0.279 0.0
C4327 C 0.55791 0.98095 0.29923 0.0
C4328 C 0.56783 0.9624 0.30619 0.0
H4329 H 0.61901 0.98328 0.33749 0.0
H4330 H 0.60286 0.98379 0.33247 0.0
H4331 H 0.57564 0.95417 0.31407 0.0
H4332 H 0.54122 0.96104 0.26587 0.0
H4333 H 0.55471 0.95906 0.27979 0.0
H4334 H 0.57967 0.98897 0.30084 0.0
C4335 C 0.60385 0.9777 0.32676 0.0
C4336 C 0.5766 0.96182 0.31126 0.0
C4337 C 0.61305 0.97735 0.32975 0.0
C4338 C 0.54564 0.96653 0.27541 0.0
C4339 C 0.55339 0.9654 0.28339 0.0
C4340 C 0.57862 0.98135 0.30402 0.0
C4341 C 0.59603 0.97029 0.31648 0.0
C4342 C 0.58652 0.97097 0.31251 0.0
C4343 C 0.55977 0.97272 0.29516 0.0
C4344 C 0.56878 0.97216 0.30223 0.0
H4345 H 0.60771 0.95597 0.30676 0.0
H4346 H 0.59176 0.95668 0.30132 0.0
H4347 H 0.59494 0.98795 0.30975 0.0
H4348 H 0.54902 0.98861 0.29445 0.0
H4349 H 0.56257 0.98662 0.30843 0.0
C4350 C 0.03155 0.64272 0.32206 0.0
C4351 C 0.02398 0.6438 0.33091 0.0
C4352 C 0.02989 0.63275 0.3181 0.0
C4353 C 0.01442 0.60458 0.32877 0.0
H4354 H 0.01943 0.60028 0.28428 0.0
C4355 C 0.99829 0.56332 0.30019 0.0
C4356 C 0.00423 0.56207 0.28797 0.0
C4357 C 0.00161 0.57321 0.307 0.0
C4358 C 0.01817 0.60136 0.29683 0.0
H4359 H 0.0089 0.63527 0.34305 0.0
H4360 H 0.00596 0.61783 0.33602 0.0
H4361 H 0.02355 0.6177 0.2932 0.0
H4362 H 0.01859 0.57027 0.27388 0.0
H4363 H 0.02456 0.58733 0.28621 0.0
H4364 H 0.009 0.58819 0.33238 0.0
C4365 C 0.01319 0.6247 0.33218 0.0
C4366 C 0.02051 0.61136 0.30193 0.0
C4367 C 0.01482 0.63468 0.33605 0.0
C4368 C 0.01384 0.57086 0.28336 0.0
C4369 C 0.0172 0.58072 0.29026 0.0
C4370 C 0.01214 0.59456 0.3237 0.0
C4371 C 0.02065 0.62363 0.32299 0.0
C4372 C 0.01859 0.61307 0.31791 0.0
C4373 C 0.01098 0.58208 0.30182 0.0
C4374 C 0.01392 0.59281 0.30762 0.0
H4375 H 0.03865 0.64959 0.31784 0.0
H4376 H 0.03582 0.63217 0.31113 0.0
H4377 H 0.01296 0.60569 0.34122 0.0
H4378 H 0.99093 0.5567 0.30423 0.0
H4379 H 0.99659 0.57397 0.31583 0.0
C4380 C 0.36736 0.3892 0.32763 0.0
C4381 C 0.36405 0.37878 0.33219 0.0
C4382 C 0.37796 0.39621 0.32414 0.0
C4383 C 0.40139 0.39631 0.30938 0.0
H4384 H 0.41657 0.42514 0.32466 0.0
C4385 C 0.44464 0.42312 0.29229 0.0
C4386 C 0.44777 0.43354 0.28785 0.0
C4387 C 0.43501 0.41682 0.29996 0.0
C4388 C 0.41242 0.41714 0.32016 0.0
H4389 H 0.36924 0.36754 0.3368 0.0
H4390 H 0.38771 0.37975 0.33065 0.0
H4391 H 0.39846 0.41345 0.33355 0.0
H4392 H 0.44341 0.44564 0.28904 0.0
H4393 H 0.42641 0.4345 0.30169 0.0
H4394 H 0.41505 0.39997 0.29553 0.0
C4395 C 0.38212 0.3825 0.32981 0.0
C4396 C 0.40206 0.41045 0.3253 0.0
C4397 C 0.37157 0.37555 0.33345 0.0
C4398 C 0.44119 0.43761 0.29197 0.0
C4399 C 0.43147 0.43124 0.29945 0.0
C4400 C 0.41166 0.403 0.30411 0.0
C4401 C 0.38541 0.39287 0.32496 0.0
C4402 C 0.39646 0.39997 0.31995 0.0
C4403 C 0.42815 0.42068 0.30318 0.0
C4404 C 0.41733 0.41351 0.30942 0.0
H4405 H 0.36175 0.39192 0.32667 0.0
H4406 H 0.38026 0.40413 0.32033 0.0
H4407 H 0.3972 0.38832 0.30484 0.0
H4408 H 0.44939 0.41962 0.28923 0.0
H4409 H 0.43284 0.40881 0.303 0.0
C4410 C 0.31074 0.2822 0.37502 0.0
C4411 C 0.31303 0.28698 0.35973 0.0
C4412 C 0.31296 0.2742 0.37853 0.0
C4413 C 0.33037 0.2642 0.36638 0.0
H4414 H 0.3117 0.24028 0.3929 0.0
C4415 C 0.34138 0.23316 0.38617 0.0
C4416 C 0.33964 0.23034 0.40255 0.0
C4417 C 0.33706 0.23882 0.37914 0.0
C4418 C 0.31702 0.24694 0.38553 0.0
H4419 H 0.31913 0.28682 0.33597 0.0
H4420 H 0.32311 0.27291 0.34219 0.0
H4421 H 0.30612 0.25258 0.38397 0.0
H4422 H 0.33194 0.23124 0.42434 0.0
H4423 H 0.32442 0.24103 0.41214 0.0
H4424 H 0.34139 0.25874 0.36831 0.0
C4425 C 0.31969 0.27545 0.35149 0.0
C4426 C 0.31382 0.25398 0.38042 0.0
C4427 C 0.31743 0.28343 0.34795 0.0
C4428 C 0.33327 0.23308 0.41161 0.0
C4429 C 0.32895 0.23871 0.4046 0.0
C4430 C 0.33359 0.25717 0.37153 0.0
C4431 C 0.31756 0.27081 0.36687 0.0
C4432 C 0.32054 0.26279 0.37104 0.0
C4433 C 0.3309 0.24178 0.38834 0.0
C4434 C 0.32703 0.24857 0.38142 0.0
H4435 H 0.30752 0.28485 0.38447 0.0
H4436 H 0.31138 0.27091 0.39058 0.0
H4437 H 0.33578 0.27098 0.35931 0.0
H4438 H 0.34617 0.23108 0.37882 0.0
H4439 H 0.3386 0.24095 0.36652 0.0
C4440 C 0.71355 0.03154 0.34203 0.0
C4441 C 0.70999 0.02369 0.35394 0.0
C4442 C 0.72107 0.04194 0.34571 0.0
C4443 C 0.74073 0.05839 0.37701 0.0
H4444 H 0.73751 0.08075 0.35801 0.0
C4445 C 0.76916 0.10165 0.39347 0.0
C4446 C 0.76464 0.10801 0.39615 0.0
C4447 C 0.76337 0.09181 0.3861 0.0
C4448 C 0.7385 0.07461 0.36351 0.0
H4449 H 0.71144 0.02055 0.37904 0.0
H4450 H 0.72432 0.03871 0.38563 0.0
H4451 H 0.72562 0.06261 0.35017 0.0
H4452 H 0.75065 0.1092 0.39219 0.0
H4453 H 0.74042 0.0919 0.38009 0.0
H4454 H 0.75319 0.0703 0.39106 0.0
C4455 C 0.72158 0.03683 0.37331 0.0
C4456 C 0.73176 0.06419 0.35883 0.0
C4457 C 0.71416 0.02642 0.36957 0.0
C4458 C 0.75433 0.10445 0.39063 0.0
C4459 C 0.7485 0.09456 0.38344 0.0
C4460 C 0.74738 0.06879 0.38182 0.0
C4461 C 0.72511 0.04475 0.36145 0.0
C4462 C 0.7327 0.05592 0.36566 0.0
C4463 C 0.75287 0.08801 0.38138 0.0
C4464 C 0.74629 0.07704 0.37528 0.0
H4465 H 0.71055 0.02961 0.32983 0.0
H4466 H 0.72373 0.04776 0.33619 0.0
H4467 H 0.74184 0.05227 0.38233 0.0
H4468 H 0.77703 0.10406 0.39765 0.0
H4469 H 0.76708 0.0871 0.38441 0.0
C4470 C 0.96616 0.67334 0.36724 0.0
C4471 C 0.97318 0.68338 0.361 0.0
C4472 C 0.95556 0.67017 0.36958 0.0
C4473 C 0.93782 0.68051 0.37669 0.0
H4474 H 0.91608 0.65208 0.36606 0.0
C4475 C 0.89399 0.66555 0.39067 0.0
C4476 C 0.88848 0.65549 0.39771 0.0
C4477 C 0.90388 0.6691 0.38366 0.0
C4478 C 0.92206 0.66003 0.36918 0.0
H4479 H 0.97444 0.69787 0.35208 0.0
H4480 H 0.95593 0.69238 0.35648 0.0
H4481 H 0.93433 0.65807 0.35882 0.0
H4482 H 0.88905 0.64128 0.40277 0.0
H4483 H 0.90621 0.64745 0.39066 0.0
H4484 H 0.92563 0.68239 0.38753 0.0
C4485 C 0.9587 0.687 0.3596 0.0
C4486 C 0.93251 0.66346 0.36501 0.0
C4487 C 0.96931 0.69016 0.35715 0.0
C4488 C 0.89296 0.64898 0.39718 0.0
C4489 C 0.90283 0.65253 0.39022 0.0
C4490 C 0.92737 0.67707 0.38095 0.0
C4491 C 0.95172 0.67697 0.36585 0.0
C4492 C 0.94052 0.67367 0.36898 0.0
C4493 C 0.90849 0.66269 0.38358 0.0
C4494 C 0.91939 0.66672 0.37751 0.0
H4495 H 0.96889 0.66799 0.37065 0.0
H4496 H 0.95042 0.66247 0.37469 0.0
H4497 H 0.94384 0.6884 0.38003 0.0
H4498 H 0.8907 0.67071 0.39075 0.0
H4499 H 0.90796 0.67692 0.37844 0.0
C4500 C 0.38809 0.02274 0.68333 0.0
C4501 C 0.3778 0.01682 0.68951 0.0
C4502 C 0.39565 0.01984 0.68662 0.0
C4503 C 0.39846 0.99724 0.69829 0.0
H4504 H 0.42546 0.01792 0.71601 0.0
C4505 C 0.42457 0.98531 0.73332 0.0
C4506 C 0.43557 0.99174 0.73276 0.0
C4507 C 0.41808 0.98835 0.72558 0.0
C4508 C 0.41806 0.01208 0.71076 0.0
H4509 H 0.36755 0.0033 0.70432 0.0
H4510 H 0.38063 0.99812 0.7096 0.0
H4511 H 0.41309 0.0234 0.70701 0.0
H4512 H 0.4484 0.0062 0.72308 0.0
H4513 H 0.43703 0.01145 0.70923 0.0
H4514 H 0.40334 0.9859 0.70201 0.0
C4515 C 0.38279 0.00495 0.7021 0.0
C4516 C 0.41097 0.01523 0.70566 0.0
C4517 C 0.37529 0.00792 0.69901 0.0
C4518 C 0.43994 0.00113 0.72383 0.0
C4519 C 0.43343 0.00415 0.71596 0.0
C4520 C 0.40559 0.99411 0.70321 0.0
C4521 C 0.39305 0.01088 0.69597 0.0
C4522 C 0.40101 0.00779 0.69974 0.0
C4523 C 0.4224 0.99787 0.71695 0.0
C4524 C 0.41537 0.00144 0.70989 0.0
H4525 H 0.39029 0.02956 0.67579 0.0
H4526 H 0.4035 0.02452 0.68168 0.0
H4527 H 0.3909 0.99138 0.69352 0.0
H4528 H 0.42095 0.97813 0.74036 0.0
H4529 H 0.40964 0.98341 0.72691 0.0
C4530 C 0.97877 0.36055 0.7029 0.0
C4531 C 0.97208 0.35456 0.69025 0.0
C4532 C 0.98067 0.3707 0.706 0.0
C4533 C 0.96897 0.38746 0.70096 0.0
H4534 H 0.99683 0.40981 0.713 0.0
C4535 C 0.97599 0.42807 0.72086 0.0
C4536 C 0.98195 0.43202 0.73504 0.0
C4537 C 0.9758 0.41968 0.71259 0.0
C4538 C 0.989 0.40364 0.70971 0.0
H4539 H 0.96213 0.35454 0.6709 0.0
H4540 H 0.96544 0.37233 0.67634 0.0
H4541 H 0.99438 0.39288 0.70404 0.0
H4542 H 0.99263 0.43044 0.75135 0.0
H4543 H 0.9923 0.41586 0.73702 0.0
H4544 H 0.9635 0.39805 0.70715 0.0
C4545 C 0.96921 0.36913 0.68386 0.0
C4546 C 0.9876 0.39396 0.70458 0.0
C4547 C 0.96737 0.35899 0.68068 0.0
C4548 C 0.98809 0.42771 0.74033 0.0
C4549 C 0.9879 0.41933 0.73209 0.0
C4550 C 0.97036 0.39713 0.70616 0.0
C4551 C 0.97587 0.37509 0.69657 0.0
C4552 C 0.97754 0.38569 0.70046 0.0
C4553 C 0.98156 0.41504 0.71834 0.0
C4554 C 0.98035 0.40527 0.71091 0.0
H4555 H 0.98262 0.35741 0.71035 0.0
H4556 H 0.98574 0.37504 0.716 0.0
H4557 H 0.96111 0.38121 0.69802 0.0
H4558 H 0.97127 0.43131 0.71637 0.0
H4559 H 0.97098 0.41667 0.70187 0.0
C4560 C 0.63972 0.61128 0.68508 0.0
C4561 C 0.64408 0.62118 0.69259 0.0
C4562 C 0.62963 0.6032 0.6892 0.0
C4563 C 0.60484 0.5985 0.70829 0.0
H4564 H 0.60006 0.57034 0.71571 0.0
C4565 C 0.56984 0.56757 0.74506 0.0
C4566 C 0.56485 0.55697 0.74022 0.0
C4567 C 0.57885 0.57517 0.73717 0.0
C4568 C 0.60121 0.57811 0.71341 0.0
H4569 H 0.64118 0.6304 0.71013 0.0
H4570 H 0.62371 0.61629 0.71753 0.0
H4571 H 0.61717 0.58406 0.70596 0.0
H4572 H 0.56529 0.54613 0.7229 0.0
H4573 H 0.58114 0.55944 0.70914 0.0
H4574 H 0.58896 0.59261 0.71605 0.0
C4575 C 0.62803 0.61478 0.70834 0.0
C4576 C 0.61102 0.58598 0.70785 0.0
C4577 C 0.63811 0.62283 0.70426 0.0
C4578 C 0.569 0.5542 0.72705 0.0
C4579 C 0.57808 0.56182 0.71917 0.0
C4580 C 0.59505 0.59064 0.71385 0.0
C4581 C 0.62367 0.60488 0.70086 0.0
C4582 C 0.61301 0.59631 0.70551 0.0
C4583 C 0.58315 0.57237 0.72426 0.0
C4584 C 0.59318 0.58041 0.71676 0.0
H4585 H 0.64415 0.60973 0.67614 0.0
H4586 H 0.62646 0.59568 0.68316 0.0
H4587 H 0.60605 0.60632 0.70628 0.0
H4588 H 0.56702 0.56998 0.75537 0.0
H4589 H 0.58267 0.58319 0.74159 0.0
C4590 C 0.68249 0.71587 0.6709 0.0
C4591 C 0.68942 0.71474 0.66049 0.0
C4592 C 0.67987 0.72368 0.66812 0.0
C4593 C 0.68846 0.74874 0.64674 0.0
H4594 H 0.6588 0.74013 0.64705 0.0
C4595 C 0.67214 0.77229 0.61466 0.0
C4596 C 0.66336 0.77243 0.62117 0.0
C4597 C 0.67594 0.76622 0.62174 0.0
C4598 C 0.66713 0.74275 0.64722 0.0
H4599 H 0.6993 0.7211 0.63934 0.0
H4600 H 0.69471 0.73472 0.63445 0.0
H4601 H 0.66433 0.7277 0.65523 0.0
H4602 H 0.652 0.76667 0.64064 0.0
H4603 H 0.65873 0.75613 0.65318 0.0
H4604 H 0.69127 0.76376 0.63857 0.0
C4605 C 0.69132 0.72959 0.64478 0.0
C4606 C 0.67029 0.7356 0.65187 0.0
C4607 C 0.69387 0.72173 0.64748 0.0
C4608 C 0.6587 0.76663 0.63526 0.0
C4609 C 0.66254 0.76058 0.6424 0.0
C4610 C 0.6853 0.75592 0.64219 0.0
C4611 C 0.6842 0.73057 0.65496 0.0
C4612 C 0.68097 0.73846 0.6514 0.0
C4613 C 0.6711 0.76016 0.63555 0.0
C4614 C 0.67458 0.75295 0.64207 0.0
H4615 H 0.67887 0.71054 0.68095 0.0
H4616 H 0.67442 0.72429 0.67622 0.0
H4617 H 0.69676 0.75122 0.6465 0.0
H4618 H 0.67579 0.7765 0.60364 0.0
H4619 H 0.68242 0.76595 0.61595 0.0
C4620 C 0.29187 0.9714 0.64182 0.0
C4621 C 0.2891 0.97641 0.65366 0.0
C4622 C 0.28502 0.9609 0.63778 0.0
C4623 C 0.26161 0.93648 0.65264 0.0
H4624 H 0.26101 0.92759 0.60844 0.0
C4625 C 0.23165 0.89516 0.62628 0.0
C4626 C 0.23618 0.89041 0.61705 0.0
C4627 C 0.23785 0.90548 0.63191 0.0
C4628 C 0.26115 0.92996 0.62085 0.0
H4629 H 0.27695 0.97442 0.67048 0.0
H4630 H 0.26476 0.95612 0.66305 0.0
H4631 H 0.27192 0.94608 0.61546 0.0
H4632 H 0.25072 0.89266 0.60666 0.0
H4633 H 0.26149 0.91068 0.61636 0.0
H4634 H 0.25055 0.92026 0.65777 0.0
C4635 C 0.27234 0.96022 0.65714 0.0
C4636 C 0.26743 0.94055 0.62491 0.0
C4637 C 0.27929 0.97072 0.66134 0.0
C4638 C 0.24704 0.89606 0.61391 0.0
C4639 C 0.25318 0.9064 0.61931 0.0
C4640 C 0.25518 0.92587 0.64849 0.0
C4641 C 0.27514 0.95517 0.64533 0.0
C4642 C 0.2679 0.94395 0.64091 0.0
C4643 C 0.24862 0.91126 0.62814 0.0
C4644 C 0.25503 0.92251 0.6326 0.0
H4645 H 0.29948 0.97553 0.63594 0.0
H4646 H 0.28759 0.95724 0.62894 0.0
H4647 H 0.26185 0.93876 0.66511 0.0
H4648 H 0.2233 0.89096 0.62887 0.0
H4649 H 0.23415 0.90908 0.63866 0.0
C4650 C 0.0268 0.31606 0.64261 0.0
C4651 C 0.02299 0.31185 0.65797 0.0
C4652 C 0.03703 0.31888 0.63806 0.0
C4653 C 0.06308 0.32521 0.65424 0.0
H4654 H 0.0675 0.3191 0.61039 0.0
C4655 C 0.10195 0.32843 0.6303 0.0
C4656 C 0.10507 0.33253 0.61466 0.0
C4657 C 0.09238 0.32672 0.63667 0.0
C4658 C 0.06642 0.32097 0.62263 0.0
H4659 H 0.02692 0.30731 0.68064 0.0
H4660 H 0.04481 0.3121 0.6726 0.0
H4661 H 0.04984 0.31413 0.61933 0.0
H4662 H 0.10073 0.33837 0.59369 0.0
H4663 H 0.08422 0.33557 0.60489 0.0
H4664 H 0.07974 0.33191 0.65749 0.0
C4665 C 0.03992 0.31337 0.66416 0.0
C4666 C 0.05629 0.31812 0.62776 0.0
C4667 C 0.02967 0.31059 0.66875 0.0
C4668 C 0.09865 0.33532 0.60584 0.0
C4669 C 0.08911 0.33359 0.61217 0.0
C4670 C 0.07325 0.32801 0.64911 0.0
C4671 C 0.0437 0.31751 0.64872 0.0
C4672 C 0.0545 0.32029 0.64357 0.0
C4673 C 0.08574 0.32901 0.62745 0.0
C4674 C 0.07502 0.32601 0.63319 0.0
H4675 H 0.02192 0.31733 0.63415 0.0
H4676 H 0.03975 0.32226 0.62621 0.0
H4677 H 0.06199 0.32707 0.66646 0.0
H4678 H 0.10677 0.32628 0.63744 0.0
H4679 H 0.08998 0.32317 0.64849 0.0
C4680 C 0.29078 0.32123 0.63972 0.0
C4681 C 0.29013 0.31639 0.65464 0.0
C4682 C 0.28365 0.32453 0.63574 0.0
C4683 C 0.2644 0.33103 0.65352 0.0
H4684 H 0.25583 0.32918 0.60886 0.0
C4685 C 0.23262 0.34052 0.62882 0.0
C4686 C 0.23595 0.34726 0.61537 0.0
C4687 C 0.23893 0.33665 0.63494 0.0
C4688 C 0.25818 0.32976 0.62137 0.0
H4689 H 0.2814 0.31126 0.67709 0.0
H4690 H 0.26868 0.31666 0.66985 0.0
H4691 H 0.26698 0.32205 0.61681 0.0
H4692 H 0.24849 0.35529 0.59789 0.0
H4693 H 0.25941 0.34849 0.6085 0.0
H4694 H 0.25534 0.33861 0.65796 0.0
C4695 C 0.27486 0.31807 0.66136 0.0
C4696 C 0.26462 0.32573 0.62594 0.0
C4697 C 0.28207 0.31485 0.66542 0.0
C4698 C 0.24578 0.35023 0.6084 0.0
C4699 C 0.25198 0.34626 0.61435 0.0
C4700 C 0.25782 0.33494 0.64896 0.0
C4701 C 0.27557 0.32296 0.64645 0.0
C4702 C 0.26801 0.32651 0.642 0.0
C4703 C 0.24855 0.33931 0.6275 0.0
C4704 C 0.25484 0.33452 0.63278 0.0
H4705 H 0.29676 0.32241 0.631 0.0
H4706 H 0.28458 0.32843 0.62427 0.0
H4707 H 0.26692 0.33185 0.66597 0.0
H4708 H 0.22508 0.33812 0.63441 0.0
H4709 H 0.23613 0.33128 0.64509 0.0
C4710 C 0.69474 0.97172 0.66767 0.0
C4711 C 0.69167 0.97731 0.65733 0.0
C4712 C 0.69262 0.96158 0.66365 0.0
C4713 C 0.68602 0.9435 0.62894 0.0
H4714 H 0.67484 0.92153 0.66139 0.0
C4715 C 0.67514 0.90125 0.61273 0.0
C4716 C 0.66518 0.89337 0.61807 0.0
C4717 C 0.67978 0.91141 0.61913 0.0
C4718 C 0.67796 0.92758 0.6522 0.0
H4719 H 0.68378 0.97651 0.63481 0.0
H4720 H 0.68012 0.9589 0.62782 0.0
H4721 H 0.68004 0.93958 0.66897 0.0
H4722 H 0.65265 0.88982 0.63516 0.0
H4723 H 0.66062 0.9076 0.64605 0.0
H4724 H 0.68356 0.93151 0.61203 0.0
C4725 C 0.68434 0.96242 0.63888 0.0
C4726 C 0.68103 0.93794 0.65657 0.0
C4727 C 0.68645 0.97253 0.64289 0.0
C4728 C 0.66025 0.89575 0.63061 0.0
C4729 C 0.66489 0.90592 0.63698 0.0
C4730 C 0.68295 0.93318 0.62457 0.0
C4731 C 0.68739 0.95682 0.6492 0.0
C4732 C 0.68493 0.94598 0.64492 0.0
C4733 C 0.67457 0.91395 0.63099 0.0
C4734 C 0.67874 0.92506 0.63609 0.0
H4735 H 0.69888 0.97523 0.67879 0.0
H4736 H 0.69516 0.95751 0.67177 0.0
H4737 H 0.68912 0.94954 0.61971 0.0
H4738 H 0.67913 0.89973 0.60301 0.0
H4739 H 0.68733 0.91737 0.61444 0.0
C4740 C 0.03568 0.7184 0.6671 0.0
C4741 C 0.02714 0.71978 0.66309 0.0
C4742 C 0.04601 0.72644 0.66442 0.0
C4743 C 0.06129 0.75008 0.63933 0.0
H4744 H 0.08427 0.75348 0.66657 0.0
C4745 C 0.10479 0.77904 0.62344 0.0
C4746 C 0.11107 0.77428 0.62313 0.0
C4747 C 0.09485 0.77395 0.6307 0.0
C4748 C 0.07792 0.75264 0.65889 0.0
H4749 H 0.02282 0.73087 0.65354 0.0
H4750 H 0.04087 0.74502 0.64934 0.0
H4751 H 0.06613 0.74176 0.67504 0.0
H4752 H 0.11179 0.76046 0.63066 0.0
H4753 H 0.09468 0.75181 0.64363 0.0
H4754 H 0.07312 0.76089 0.62311 0.0
C4755 C 0.03956 0.73762 0.65427 0.0
C4756 C 0.06753 0.74589 0.66368 0.0
C4757 C 0.0292 0.72954 0.65686 0.0
C4758 C 0.10733 0.76451 0.6309 0.0
C4759 C 0.09747 0.75951 0.63831 0.0
C4760 C 0.07168 0.75691 0.63462 0.0
C4761 C 0.04809 0.73611 0.6578 0.0
C4762 C 0.05908 0.7443 0.65375 0.0
C4763 C 0.09104 0.76406 0.63799 0.0
C4764 C 0.0801 0.75805 0.64415 0.0
H4765 H 0.0344 0.71105 0.67218 0.0
H4766 H 0.05235 0.72491 0.66711 0.0
H4767 H 0.05501 0.74897 0.63127 0.0
H4768 H 0.10747 0.78663 0.61784 0.0
H4769 H 0.09008 0.77768 0.63042 0.0
C4770 C 0.97092 0.61518 0.68168 0.0
C4771 C 0.978 0.62512 0.68812 0.0
C4772 C 0.97194 0.60643 0.68533 0.0
C4773 C 0.99057 0.59845 0.70064 0.0
H4774 H 0.96526 0.57316 0.71411 0.0
C4775 C 0.99112 0.56513 0.73692 0.0
C4776 C 0.98277 0.55478 0.73495 0.0
C4777 C 0.99117 0.57344 0.72859 0.0
C4778 C 0.97239 0.58006 0.71006 0.0
H4779 H 0.99188 0.63373 0.70305 0.0
H4780 H 0.99359 0.61843 0.70955 0.0
H4781 H 0.96409 0.5882 0.7046 0.0
H4782 H 0.96835 0.54489 0.72186 0.0
H4783 H 0.96856 0.55934 0.70698 0.0
H4784 H 0.9989 0.59033 0.70627 0.0
C4785 C 0.98729 0.61742 0.70161 0.0
C4786 C 0.97171 0.58871 0.70466 0.0
C4787 C 0.98624 0.62616 0.69805 0.0
C4788 C 0.97481 0.55282 0.72375 0.0
C4789 C 0.97491 0.56111 0.71531 0.0
C4790 C 0.99125 0.58976 0.70596 0.0
C4791 C 0.98009 0.60744 0.69542 0.0
C4792 C 0.9808 0.59805 0.70009 0.0
C4793 C 0.98291 0.57156 0.71802 0.0
C4794 C 0.98218 0.5805 0.71095 0.0
H4795 H 0.96446 0.61411 0.67409 0.0
H4796 H 0.96632 0.59886 0.68029 0.0
H4797 H 0.9977 0.6055 0.69699 0.0
H4798 H 0.99729 0.56689 0.74562 0.0
H4799 H 0.9974 0.58139 0.73112 0.0
C4800 C 0.37979 0.36039 0.70951 0.0
C4801 C 0.3789 0.35633 0.69386 0.0
C4802 C 0.38779 0.37055 0.7133 0.0
C4803 C 0.405 0.39632 0.69569 0.0
H4804 H 0.42109 0.40135 0.73507 0.0
C4805 C 0.44173 0.4322 0.73301 0.0
C4806 C 0.43811 0.43943 0.73425 0.0
C4807 C 0.43545 0.42234 0.72599 0.0
C4808 C 0.41675 0.40006 0.72395 0.0
H4809 H 0.38595 0.35982 0.67 0.0
H4810 H 0.39973 0.37771 0.67657 0.0
H4811 H 0.40823 0.38335 0.72733 0.0
H4812 H 0.42523 0.44209 0.72828 0.0
H4813 H 0.41437 0.42494 0.71572 0.0
H4814 H 0.41336 0.41309 0.69255 0.0
C4815 C 0.39418 0.37296 0.68585 0.0
C4816 C 0.40933 0.38978 0.71961 0.0
C4817 C 0.38625 0.36273 0.6821 0.0
C4818 C 0.42833 0.43678 0.72739 0.0
C4819 C 0.42208 0.42694 0.72022 0.0
C4820 C 0.41234 0.40664 0.70015 0.0
C4821 C 0.39503 0.37695 0.70149 0.0
C4822 C 0.40332 0.38781 0.70553 0.0
C4823 C 0.42546 0.41952 0.71987 0.0
C4824 C 0.41823 0.40861 0.71439 0.0
H4825 H 0.37416 0.35581 0.71881 0.0
H4826 H 0.38817 0.3735 0.7254 0.0
H4827 H 0.40042 0.39502 0.68482 0.0
H4828 H 0.44933 0.43407 0.73785 0.0
H4829 H 0.43831 0.41681 0.72564 0.0
C4830 C 0.64018 0.02947 0.69253 0.0
C4831 C 0.64282 0.02149 0.69306 0.0
C4832 C 0.62988 0.02718 0.69571 0.0
C4833 C 0.60242 0.00498 0.69789 0.0
H4834 H 0.59807 0.0233 0.72664 0.0
C4835 C 0.56427 0.99107 0.73359 0.0
C4836 C 0.56033 0.99798 0.73586 0.0
C4837 C 0.57389 0.99447 0.7259 0.0
C4838 C 0.59914 0.0182 0.71836 0.0
H4839 H 0.63672 0.00487 0.69759 0.0
H4840 H 0.61883 0.00088 0.70312 0.0
H4841 H 0.61587 0.02832 0.71795 0.0
H4842 H 0.56337 0.01382 0.73131 0.0
H4843 H 0.58032 0.01979 0.71803 0.0
H4844 H 0.58572 0.99472 0.69866 0.0
C4845 C 0.62465 0.00888 0.69994 0.0
C4846 C 0.60934 0.02107 0.71339 0.0
C4847 C 0.63492 0.01117 0.69678 0.0
C4848 C 0.56621 0.00833 0.72994 0.0
C4849 C 0.57591 0.01175 0.72232 0.0
C4850 C 0.59224 0.00211 0.70287 0.0
C4851 C 0.622 0.01685 0.69946 0.0
C4852 C 0.61111 0.01437 0.70339 0.0
C4853 C 0.57989 0.00487 0.72036 0.0
C4854 C 0.59051 0.00857 0.71345 0.0
H4855 H 0.64605 0.03748 0.68951 0.0
H4856 H 0.62806 0.03348 0.6951 0.0
H4857 H 0.60349 0.99975 0.68991 0.0
H4858 H 0.56013 0.98313 0.73831 0.0
H4859 H 0.57682 0.98903 0.72488 0.0
loop_
_geom_bond_atom_site_label_1
_geom_bond_atom_site_label_2
_geom_bond_distance
_geom_bond_site_symmetry_2
_ccdc_geom_bond_type
Li0 N17 1.990 . S
Li0 O60 1.956 . S
Li0 O61 1.970 1_654 S
Li0 O62 1.961 . S
Li1 N25 1.990 . S
Li1 O60 1.970 1_455 S
Li1 O61 1.956 1_554 S
Li1 O63 1.961 . S
Li2 N47 1.990 . S
Li2 O60 1.961 . S
Li2 O62 1.956 . S
Li2 O63 1.970 1_655 S
Li3 N53 1.990 . S
Li3 O61 1.961 . S
Li3 O62 1.970 1_456 S
Li3 O63 1.956 1_556 S
C4 C6 1.348 1_655 S
C4 C7 1.356 . S
C4 O60 1.325 . S
N5 C8 1.314 . S
N5 C9 1.279 . S
C6 C4 1.348 1_455 S
C6 C8 1.353 1_455 S
C6 H64 0.929 . S
C7 C4 1.356 . S
C7 C9 1.358 . S
C7 H65 0.930 . S
C8 N5 1.314 . S
C8 C6 1.353 1_655 S
C8 H66 0.930 1_655 S
C9 N5 1.279 . S
C9 C7 1.358 . S
C9 H67 0.930 . S
C10 C13 1.348 1_455 S
C10 C14 1.356 . S
C10 O61 1.325 . S
C11 N12 1.279 . S
C11 C14 1.358 . S
C11 H68 0.930 . S
N12 C11 1.279 . S
N12 C15 1.314 . S
C13 C10 1.348 1_655 S
C13 C15 1.327 1_655 S
C13 H69 0.957 . S
C14 C10 1.356 . S
C14 C11 1.358 . S
C14 H70 0.930 . S
C15 N12 1.314 . S
C15 C13 1.327 1_455 S
C15 H71 0.930 1_455 S
C16 N17 1.314 1_556 S
C16 C21 1.353 . S
C16 H22 0.930 . S
N17 Li0 1.990 . S
N17 C16 1.314 1_554 S
N17 C19 1.279 . S
C18 C19 1.358 . S
C18 C20 1.356 1_554 S
C18 H72 0.930 . S
C19 N17 1.279 . S
C19 C18 1.358 . S
C19 H23 0.930 . S
C20 C18 1.356 1_556 S
C20 C21 1.348 . S
C21 C16 1.353 . S
C21 C20 1.348 . S
C21 H73 0.929 . S
H22 C16 0.930 . S
H23 C19 0.930 . S
C24 N25 1.314 . S
C24 C26 1.353 . S
C24 H30 0.930 . S
N25 Li1 1.990 . S
N25 C24 1.314 . S
N25 C28 1.279 . S
C26 C24 1.353 . S
C26 C29 1.348 . S
C26 H74 0.929 . S
C27 C28 1.358 . S
C27 C29 1.356 . S
C27 H75 0.930 . S
C28 N25 1.279 . S
C28 C27 1.358 . S
C28 H31 0.951 . S
C29 C26 1.348 . S
C29 C27 1.356 . S
H30 C24 0.930 . S
H31 C28 0.951 . S
C32 C34 1.348 1_554 S
C32 C35 1.356 . S
C32 O62 1.325 . S
N33 C36 1.312 1_554 S
N33 C37 1.283 . S
C34 C32 1.348 1_556 S
C34 C36 1.353 . S
C34 H76 0.929 . S
C35 C32 1.356 . S
C35 C37 1.358 . S
C35 H77 0.930 . S
C36 N33 1.312 1_556 S
C36 C34 1.353 . S
C36 H78 0.930 . S
C37 N33 1.283 . S
C37 C35 1.358 . S
C37 H79 0.930 . S
C38 C39 1.348 . S
C38 C40 1.356 . S
C38 O63 1.325 . S
C39 C38 1.348 . S
C39 C41 1.353 . S
C39 H80 0.929 . S
C40 C38 1.356 . S
C40 C42 1.358 . S
C40 H81 0.930 . S
C41 C39 1.353 . S
C41 N43 1.314 . S
C41 H82 0.930 . S
C42 C40 1.358 . S
C42 N43 1.279 . S
C42 H83 0.930 . S
N43 C41 1.314 . S
N43 C42 1.279 . S
C44 C46 1.353 . S
C44 N47 1.314 . S
C44 H50 0.930 1_655 S
C45 N47 1.279 . S
C45 C48 1.358 . S
C45 H51 0.930 . S
C46 C44 1.353 . S
C46 C49 1.348 . S
C46 H84 0.924 1_655 S
N47 Li2 1.990 . S
N47 C44 1.314 . S
N47 C45 1.279 . S
C48 C45 1.358 . S
C48 C49 1.356 . S
C48 H85 0.930 . S
C49 C46 1.348 . S
C49 C48 1.356 . S
H50 C44 0.930 1_455 S
H51 C45 0.930 . S
C52 N53 1.314 . S
C52 C54 1.353 . S
C52 H58 0.930 1_455 S
N53 Li3 1.990 . S
N53 C52 1.314 . S
N53 C56 1.279 . S
C54 C52 1.353 . S
C54 C57 1.348 . S
C54 H86 0.947 . S
C55 C56 1.358 . S
C55 C57 1.356 . S
C55 H87 0.930 . S
C56 N53 1.279 . S
C56 C55 1.358 . S
C56 H59 0.930 . S
C57 C54 1.348 . S
C57 C55 1.356 . S
H58 C52 0.930 1_655 S
H59 C56 0.930 . S
O60 Li0 1.956 . S
O60 Li1 1.970 1_655 S
O60 Li2 1.961 . S
O60 C4 1.325 . S
O61 Li0 1.970 1_456 S
O61 Li1 1.956 1_556 S
O61 Li3 1.961 . S
O61 C10 1.325 . S
O62 Li0 1.961 . S
O62 Li2 1.956 . S
O62 Li3 1.970 1_654 S
O62 C32 1.325 . S
O63 Li1 1.961 . S
O63 Li2 1.970 1_455 S
O63 Li3 1.956 1_554 S
O63 C38 1.325 . S
H64 C6 0.929 . S
H65 C7 0.930 . S
H66 C8 0.930 1_455 S
H67 C9 0.930 . S
H68 C11 0.930 . S
H69 C13 0.957 . S
H70 C14 0.930 . S
H71 C15 0.930 1_655 S
H72 C18 0.930 . S
H73 C21 0.929 . S
H74 C26 0.929 . S
H75 C27 0.930 . S
H76 C34 0.929 . S
H77 C35 0.930 . S
H78 C36 0.930 . S
H79 C37 0.930 . S
H80 C39 0.929 . S
H81 C40 0.930 . S
H82 C41 0.930 . S
H83 C42 0.930 . S
H84 C46 0.924 1_455 S
H85 C48 0.930 . S
H86 C54 0.947 . S
H87 C55 0.930 . S
Li88 N105 1.990 . S
Li88 O148 1.956 . S
Li88 O149 1.970 1_554 S
Li88 O150 1.961 . S
Li89 N113 1.990 . S
Li89 O148 1.970 . S
Li89 O149 1.956 1_554 S
Li89 O151 1.961 . S
Li90 N135 1.990 . S
Li90 O148 1.961 . S
Li90 O150 1.956 . S
Li90 O151 1.970 . S
Li91 N141 1.990 . S
Li91 O149 1.961 . S
Li91 O150 1.970 1_556 S
Li91 O151 1.956 1_556 S
C92 C94 1.348 . S
C92 C95 1.356 . S
C92 O148 1.325 . S
N93 C96 1.314 . S
N93 C97 1.279 . S
C94 C92 1.348 . S
C94 C96 1.353 . S
C94 H152 0.929 . S
C95 C92 1.356 . S
C95 C97 1.358 . S
C95 H153 0.930 . S
C96 N93 1.314 . S
C96 C94 1.353 . S
C96 H154 0.930 . S
C97 N93 1.279 . S
C97 C95 1.358 . S
C97 H155 0.930 . S
C98 C101 1.348 . S
C98 C102 1.356 . S
C98 O149 1.325 . S
C99 N100 1.279 . S
C99 C102 1.358 . S
C99 H156 0.930 . S
N100 C99 1.279 . S
N100 C103 1.314 . S
C101 C98 1.348 . S
C101 C103 1.353 . S
C101 H157 0.929 . S
C102 C98 1.356 . S
C102 C99 1.358 . S
C102 H158 0.930 . S
C103 N100 1.314 . S
C103 C101 1.353 . S
C103 H159 0.930 . S
C104 N105 1.314 1_556 S
C104 C109 1.353 . S
C104 H110 0.930 . S
N105 Li88 1.990 . S
N105 C104 1.314 1_554 S
N105 C107 1.279 . S
C106 C107 1.358 . S
C106 C108 1.356 1_554 S
C106 H160 0.930 . S
C107 N105 1.279 . S
C107 C106 1.358 . S
C107 H111 0.930 . S
C108 C106 1.356 1_556 S
C108 C109 1.348 . S
C109 C104 1.353 . S
C109 C108 1.348 . S
C109 H161 0.929 . S
H110 C104 0.930 . S
H111 C107 0.930 . S
C112 N113 1.314 . S
C112 C114 1.353 . S
C112 H118 0.930 . S
N113 Li89 1.990 . S
N113 C112 1.314 . S
N113 C116 1.279 . S
C114 C112 1.353 . S
C114 C117 1.348 . S
C114 H162 0.929 . S
C115 C116 1.358 . S
C115 C117 1.356 . S
C115 H163 0.930 . S
C116 N113 1.279 . S
C116 C115 1.358 . S
C116 H119 0.930 . S
C117 C114 1.348 . S
C117 C115 1.356 . S
H118 C112 0.930 . S
H119 C116 0.930 . S
C120 C122 1.348 1_554 S
C120 C123 1.356 . S
C120 O150 1.325 . S
N121 C124 1.314 . S
N121 C125 1.279 1_556 S
C122 C120 1.348 1_556 S
C122 C124 1.353 . S
C122 H164 0.929 . S
C123 C120 1.356 . S
C123 C125 1.358 . S
C123 H165 0.930 . S
C124 N121 1.314 . S
C124 C122 1.353 . S
C124 H166 0.930 . S
C125 N121 1.279 1_554 S
C125 C123 1.358 . S
C125 H167 0.930 . S
C126 C127 1.348 . S
C126 C128 1.356 . S
C126 O151 1.325 . S
C127 C126 1.348 . S
C127 C129 1.353 . S
C127 H168 0.929 . S
C128 C126 1.356 . S
C128 C130 1.358 . S
C128 H169 0.930 . S
C129 C127 1.353 . S
C129 N131 1.314 . S
C129 H170 0.930 . S
C130 C128 1.358 . S
C130 N131 1.279 . S
C130 H171 0.930 . S
N131 C129 1.314 . S
N131 C130 1.279 . S
C132 C134 1.353 . S
C132 N135 1.314 . S
C132 H138 0.930 . S
C133 N135 1.279 . S
C133 C136 1.358 . S
C133 H139 0.930 . S
C134 C132 1.353 . S
C134 C137 1.348 . S
C134 H172 0.929 . S
N135 Li90 1.990 . S
N135 C132 1.314 . S
N135 C133 1.279 . S
C136 C133 1.358 . S
C136 C137 1.356 . S
C136 H173 0.930 . S
C137 C134 1.348 . S
C137 C136 1.356 . S
H138 C132 0.930 . S
H139 C133 0.930 . S
C140 N141 1.314 . S
C140 C142 1.353 . S
C140 H146 0.930 . S
N141 Li91 1.990 . S
N141 C140 1.314 . S
N141 C144 1.279 . S
C142 C140 1.353 . S
C142 C145 1.348 . S
C142 H174 0.929 . S
C143 C144 1.358 . S
C143 C145 1.356 . S
C143 H175 0.930 . S
C144 N141 1.279 . S
C144 C143 1.358 . S
C144 H147 0.930 . S
C145 C142 1.348 . S
C145 C143 1.356 . S
H146 C140 0.930 . S
H147 C144 0.930 . S
O148 Li88 1.956 . S
O148 Li89 1.970 . S
O148 Li90 1.961 . S
O148 C92 1.325 . S
O149 Li88 1.970 1_556 S
O149 Li89 1.956 1_556 S
O149 Li91 1.961 . S
O149 C98 1.325 . S
O150 Li88 1.961 . S
O150 Li90 1.956 . S
O150 Li91 1.970 1_554 S
O150 C120 1.325 . S
O151 Li89 1.961 . S
O151 Li90 1.970 . S
O151 Li91 1.956 1_554 S
O151 C126 1.325 . S
H152 C94 0.929 . S
H153 C95 0.930 . S
H154 C96 0.930 . S
H155 C97 0.930 . S
H156 C99 0.930 . S
H157 C101 0.929 . S
H158 C102 0.930 . S
H159 C103 0.930 . S
H160 C106 0.930 . S
H161 C109 0.929 . S
H162 C114 0.929 . S
H163 C115 0.930 . S
H164 C122 0.929 . S
H165 C123 0.930 . S
H166 C124 0.930 . S
H167 C125 0.930 . S
H168 C127 0.929 . S
H169 C128 0.930 . S
H170 C129 0.930 . S
H171 C130 0.930 . S
H172 C134 0.929 . S
H173 C136 0.930 . S
H174 C142 0.929 . S
H175 C143 0.930 . S
Li176 N193 1.990 . S
Li176 O236 1.956 1_556 S
Li176 O237 1.970 1_566 S
Li176 O238 1.961 . S
Li177 N201 1.990 . S
Li177 O236 1.970 1_545 S
Li177 O237 1.956 . S
Li177 O239 1.961 . S
Li178 N223 1.990 . S
Li178 O236 1.961 . S
Li178 O238 1.956 1_554 S
Li178 O239 1.970 1_565 S
Li179 N229 1.990 . S
Li179 O237 1.961 . S
Li179 O238 1.970 1_544 S
Li179 O239 1.956 . S
C180 C182 1.348 . S
C180 C183 1.356 . S
C180 O236 1.325 . S
N181 C184 1.314 . S
N181 C185 1.279 . S
C182 C180 1.348 . S
C182 C184 1.353 . S
C182 H240 0.929 . S
C183 C180 1.356 . S
C183 C185 1.358 . S
C183 H241 0.930 . S
C184 N181 1.314 . S
C184 C182 1.353 . S
C184 H242 0.930 . S
C185 N181 1.279 . S
C185 C183 1.358 . S
C185 H243 0.930 . S
C186 C189 1.348 1_554 S
C186 C190 1.356 . S
C186 O237 1.325 . S
C187 N188 1.260 1_554 S
C187 C190 1.358 . S
C187 H244 0.930 . S
N188 C187 1.260 1_556 S
N188 C191 1.328 . S
C189 C186 1.348 1_556 S
C189 C191 1.353 . S
C189 H245 0.929 . S
C190 C186 1.356 . S
C190 C187 1.358 . S
C190 H246 0.930 . S
C191 N188 1.328 . S
C191 C189 1.353 . S
C191 H247 0.930 . S
C192 N193 1.314 . S
C192 C197 1.353 . S
C192 H198 0.930 1_565 S
N193 Li176 1.990 . S
N193 C192 1.314 . S
N193 C195 1.279 . S
C194 C195 1.358 . S
C194 C196 1.356 . S
C194 H248 0.930 . S
C195 N193 1.279 . S
C195 C194 1.358 . S
C195 H199 0.930 . S
C196 C194 1.356 . S
C196 C197 1.348 . S
C197 C192 1.353 . S
C197 C196 1.348 . S
C197 H249 0.922 1_565 S
H198 C192 0.930 1_545 S
H199 C195 0.930 . S
C200 N201 1.314 . S
C200 C202 1.353 . S
C200 H206 0.930 1_545 S
N201 Li177 1.990 . S
N201 C200 1.314 . S
N201 C204 1.279 . S
C202 C200 1.353 . S
C202 C205 1.348 . S
C202 H250 0.948 . S
C203 C204 1.358 . S
C203 C205 1.356 . S
C203 H251 0.930 . S
C204 N201 1.279 . S
C204 C203 1.358 . S
C204 H207 0.930 . S
C205 C202 1.348 . S
C205 C203 1.356 . S
H206 C200 0.930 1_565 S
H207 C204 0.930 . S
C208 C210 1.348 1_565 S
C208 C211 1.356 . S
C208 O238 1.325 . S
N209 C212 1.314 . S
N209 C213 1.279 . S
C210 C208 1.348 1_545 S
C210 C212 1.353 1_545 S
C210 H252 0.929 . S
C211 C208 1.356 . S
C211 C213 1.358 . S
C211 H253 0.930 . S
C212 N209 1.314 . S
C212 C210 1.353 1_565 S
C212 H254 0.930 1_565 S
C213 N209 1.279 . S
C213 C211 1.358 . S
C213 H255 0.930 . S
C214 C215 1.348 1_545 S
C214 C216 1.356 . S
C214 O239 1.325 . S
C215 C214 1.348 1_565 S
C215 C217 1.329 1_565 S
C215 H256 0.955 . S
C216 C214 1.356 . S
C216 C218 1.358 . S
C216 H257 0.930 . S
C217 C215 1.329 1_545 S
C217 N219 1.314 . S
C217 H258 0.930 1_545 S
C218 C216 1.358 . S
C218 N219 1.279 . S
C218 H259 0.930 . S
N219 C217 1.314 . S
N219 C218 1.279 . S
C220 C222 1.353 . S
C220 N223 1.314 . S
C220 H226 0.930 . S
C221 N223 1.279 . S
C221 C224 1.358 . S
C221 H227 0.903 1_554 S
C222 C220 1.353 . S
C222 C225 1.348 . S
C222 H260 0.929 . S
N223 Li178 1.990 . S
N223 C220 1.314 . S
N223 C221 1.279 . S
C224 C221 1.358 . S
C224 C225 1.356 . S
C224 H261 0.930 . S
C225 C222 1.348 . S
C225 C224 1.356 . S
H226 C220 0.930 . S
H227 C221 0.903 1_556 S
C228 N229 1.314 1_556 S
C228 C230 1.353 . S
C228 H234 0.930 . S
N229 Li179 1.990 . S
N229 C228 1.314 1_554 S
N229 C232 1.279 . S
C230 C228 1.353 . S
C230 C233 1.348 . S
C230 H262 0.929 . S
C231 C232 1.358 . S
C231 C233 1.356 1_554 S
C231 H263 0.930 . S
C232 N229 1.279 . S
C232 C231 1.358 . S
C232 H235 0.930 . S
C233 C230 1.348 . S
C233 C231 1.356 1_556 S
H234 C228 0.930 . S
H235 C232 0.930 . S
O236 Li176 1.956 1_554 S
O236 Li177 1.970 1_565 S
O236 Li178 1.961 . S
O236 C180 1.325 . S
O237 Li176 1.970 1_544 S
O237 Li177 1.956 . S
O237 Li179 1.961 . S
O237 C186 1.325 . S
O238 Li176 1.961 . S
O238 Li178 1.956 1_556 S
O238 Li179 1.970 1_566 S
O238 C208 1.325 . S
O239 Li177 1.961 . S
O239 Li178 1.970 1_545 S
O239 Li179 1.956 . S
O239 C214 1.325 . S
H240 C182 0.929 . S
H241 C183 0.930 . S
H242 C184 0.930 . S
H243 C185 0.930 . S
H244 C187 0.930 . S
H245 C189 0.929 . S
H246 C190 0.930 . S
H247 C191 0.930 . S
H248 C194 0.930 . S
H249 C197 0.922 1_545 S
H250 C202 0.948 . S
H251 C203 0.930 . S
H252 C210 0.929 . S
H253 C211 0.930 . S
H254 C212 0.930 1_545 S
H255 C213 0.930 . S
H256 C215 0.955 . S
H257 C216 0.930 . S
H258 C217 0.930 1_565 S
H259 C218 0.930 . S
H260 C222 0.929 . S
H261 C224 0.930 . S
H262 C230 0.929 . S
H263 C231 0.930 . S
Li264 N281 1.990 . S
Li264 O324 1.956 . S
Li264 O325 1.970 1_455 S
Li264 O326 1.961 1_554 S
Li265 N289 1.990 . S
Li265 O324 1.970 1_655 S
Li265 O325 1.956 . S
Li265 O327 1.961 . S
Li266 N311 1.990 . S
Li266 O324 1.961 1_556 S
Li266 O326 1.956 . S
Li266 O327 1.970 1_456 S
Li267 N317 1.990 . S
Li267 O325 1.961 . S
Li267 O326 1.970 1_654 S
Li267 O327 1.956 . S
C268 C270 1.348 . S
C268 C271 1.356 . S
C268 O324 1.325 . S
N269 C272 1.314 . S
N269 C273 1.279 . S
C270 C268 1.348 . S
C270 C272 1.353 . S
C270 H328 0.929 . S
C271 C268 1.356 . S
C271 C273 1.358 . S
C271 H329 0.930 1_554 S
C272 N269 1.314 . S
C272 C270 1.353 . S
C272 H330 0.930 . S
C273 N269 1.279 . S
C273 C271 1.358 . S
C273 H331 0.977 . S
C274 C277 1.348 1_655 S
C274 C278 1.356 . S
C274 O325 1.325 . S
C275 N276 1.279 . S
C275 C278 1.358 . S
C275 H332 0.930 . S
N276 C275 1.279 . S
N276 C279 1.246 1_655 S
C277 C274 1.348 1_455 S
C277 C279 1.394 . S
C277 H333 0.929 . S
C278 C274 1.356 . S
C278 C275 1.358 . S
C278 H334 0.930 . S
C279 N276 1.246 1_455 S
C279 C277 1.394 . S
C279 H335 0.966 . S
C280 N281 1.314 . S
C280 C285 1.353 . S
C280 H286 0.930 . S
N281 Li264 1.990 . S
N281 C280 1.314 . S
N281 C283 1.279 . S
C282 C283 1.358 . S
C282 C284 1.356 . S
C282 H336 0.930 . S
C283 N281 1.279 . S
C283 C282 1.358 . S
C283 H287 0.930 . S
C284 C282 1.356 . S
C284 C285 1.348 . S
C285 C280 1.353 . S
C285 C284 1.348 . S
C285 H337 0.929 . S
H286 C280 0.930 . S
H287 C283 0.930 . S
C288 N289 1.314 . S
C288 C290 1.353 . S
C288 H294 0.930 . S
N289 Li265 1.990 . S
N289 C288 1.314 . S
N289 C292 1.279 . S
C290 C288 1.353 . S
C290 C293 1.348 . S
C290 H338 0.929 . S
C291 C292 1.358 . S
C291 C293 1.356 . S
C291 H339 0.930 . S
C292 N289 1.279 . S
C292 C291 1.358 . S
C292 H295 0.930 . S
C293 C290 1.348 . S
C293 C291 1.356 . S
H294 C288 0.930 . S
H295 C292 0.930 . S
C296 C298 1.348 1_455 S
C296 C299 1.356 . S
C296 O326 1.325 . S
N297 C300 1.264 1_455 S
N297 C301 1.279 . S
C298 C296 1.348 1_655 S
C298 C300 1.351 . S
C298 H340 0.929 . S
C299 C296 1.356 . S
C299 C301 1.358 . S
C299 H341 0.930 . S
C300 N297 1.264 1_655 S
C300 C298 1.351 . S
C300 H342 0.993 . S
C301 N297 1.279 . S
C301 C299 1.358 . S
C301 H343 0.930 . S
C302 C303 1.348 1_554 S
C302 C304 1.356 . S
C302 O327 1.325 . S
C303 C302 1.348 1_556 S
C303 C305 1.353 . S
C303 H344 0.929 . S
C304 C302 1.356 . S
C304 C306 1.358 . S
C304 H345 0.930 . S
C305 C303 1.353 . S
C305 N307 1.314 . S
C305 H346 0.930 . S
C306 C304 1.358 . S
C306 N307 1.279 1_554 S
C306 H347 0.930 . S
N307 C305 1.314 . S
N307 C306 1.279 1_556 S
C308 C310 1.353 . S
C308 N311 1.314 . S
C308 H314 0.930 . S
C309 N311 1.279 . S
C309 C312 1.358 . S
C309 H315 0.930 . S
C310 C308 1.353 . S
C310 C313 1.348 . S
C310 H348 0.929 . S
N311 Li266 1.990 . S
N311 C308 1.314 . S
N311 C309 1.279 . S
C312 C309 1.358 . S
C312 C313 1.356 . S
C312 H349 0.930 . S
C313 C310 1.348 . S
C313 C312 1.356 . S
H314 C308 0.930 . S
H315 C309 0.930 . S
C316 N317 1.314 . S
C316 C318 1.353 . S
C316 H322 0.930 . S
N317 Li267 1.990 . S
N317 C316 1.314 . S
N317 C320 1.279 1_554 S
C318 C316 1.353 . S
C318 C321 1.348 1_554 S
C318 H350 0.929 . S
C319 C320 1.358 . S
C319 C321 1.356 . S
C319 H351 0.930 . S
C320 N317 1.279 1_556 S
C320 C319 1.358 . S
C320 H323 0.930 . S
C321 C318 1.348 1_556 S
C321 C319 1.356 . S
H322 C316 0.930 . S
H323 C320 0.930 . S
O324 Li264 1.956 . S
O324 Li265 1.970 1_455 S
O324 Li266 1.961 1_554 S
O324 C268 1.325 . S
O325 Li264 1.970 1_655 S
O325 Li265 1.956 . S
O325 Li267 1.961 . S
O325 C274 1.325 . S
O326 Li264 1.961 1_556 S
O326 Li266 1.956 . S
O326 Li267 1.970 1_456 S
O326 C296 1.325 . S
O327 Li265 1.961 . S
O327 Li266 1.970 1_654 S
O327 Li267 1.956 . S
O327 C302 1.325 . S
H328 C270 0.929 . S
H329 C271 0.930 1_556 S
H330 C272 0.930 . S
H331 C273 0.977 . S
H332 C275 0.930 . S
H333 C277 0.929 . S
H334 C278 0.930 . S
H335 C279 0.966 . S
H336 C282 0.930 . S
H337 C285 0.929 . S
H338 C290 0.929 . S
H339 C291 0.930 . S
H340 C298 0.929 . S
H341 C299 0.930 . S
H342 C300 0.993 . S
H343 C301 0.930 . S
H344 C303 0.929 . S
H345 C304 0.930 . S
H346 C305 0.930 . S
H347 C306 0.930 . S
H348 C310 0.929 . S
H349 C312 0.930 . S
H350 C318 0.929 . S
H351 C319 0.930 . S
Li352 N369 1.990 . S
Li352 O412 1.956 . S
Li352 O413 1.970 . S
Li352 O414 1.961 1_554 S
Li353 N377 1.990 . S
Li353 O412 1.970 . S
Li353 O413 1.956 . S
Li353 O415 1.961 . S
Li354 N399 1.990 . S
Li354 O412 1.961 1_556 S
Li354 O414 1.956 . S
Li354 O415 1.970 1_556 S
Li355 N405 1.990 . S
Li355 O413 1.961 . S
Li355 O414 1.970 1_554 S
Li355 O415 1.956 . S
C356 C358 1.348 . S
C356 C359 1.356 . S
C356 O412 1.325 . S
N357 C360 1.314 . S
N357 C361 1.279 . S
C358 C356 1.348 . S
C358 C360 1.353 . S
C358 H416 0.929 . S
C359 C356 1.356 . S
C359 C361 1.358 . S
C359 H417 0.930 1_554 S
C360 N357 1.314 . S
C360 C358 1.353 . S
C360 H418 0.930 . S
C361 N357 1.279 . S
C361 C359 1.358 . S
C361 H419 0.930 . S
C362 C365 1.348 . S
C362 C366 1.356 . S
C362 O413 1.325 . S
C363 N364 1.279 . S
C363 C366 1.358 . S
C363 H420 0.930 . S
N364 C363 1.279 . S
N364 C367 1.314 . S
C365 C362 1.348 . S
C365 C367 1.353 . S
C365 H421 0.929 . S
C366 C362 1.356 . S
C366 C363 1.358 . S
C366 H422 0.930 . S
C367 N364 1.314 . S
C367 C365 1.353 . S
C367 H423 0.930 . S
C368 N369 1.314 . S
C368 C373 1.353 . S
C368 H374 0.930 . S
N369 Li352 1.990 . S
N369 C368 1.314 . S
N369 C371 1.279 . S
C370 C371 1.358 . S
C370 C372 1.356 . S
C370 H424 0.930 . S
C371 N369 1.279 . S
C371 C370 1.358 . S
C371 H375 0.930 . S
C372 C370 1.356 . S
C372 C373 1.348 . S
C373 C368 1.353 . S
C373 C372 1.348 . S
C373 H425 0.929 . S
H374 C368 0.930 . S
H375 C371 0.930 . S
C376 N377 1.314 . S
C376 C378 1.353 . S
C376 H382 0.930 . S
N377 Li353 1.990 . S
N377 C376 1.314 . S
N377 C380 1.279 . S
C378 C376 1.353 . S
C378 C381 1.348 . S
C378 H426 0.929 . S
C379 C380 1.358 . S
C379 C381 1.356 . S
C379 H427 0.930 . S
C380 N377 1.279 . S
C380 C379 1.358 . S
C380 H383 0.930 . S
C381 C378 1.348 . S
C381 C379 1.356 . S
H382 C376 0.930 . S
H383 C380 0.930 . S
C384 C386 1.348 . S
C384 C387 1.356 . S
C384 O414 1.325 . S
N385 C388 1.314 . S
N385 C389 1.279 . S
C386 C384 1.348 . S
C386 C388 1.353 . S
C386 H428 0.929 . S
C387 C384 1.356 . S
C387 C389 1.358 . S
C387 H429 0.930 . S
C388 N385 1.314 . S
C388 C386 1.353 . S
C388 H430 0.930 . S
C389 N385 1.279 . S
C389 C387 1.358 . S
C389 H431 0.930 . S
C390 C391 1.348 1_554 S
C390 C392 1.356 . S
C390 O415 1.325 . S
C391 C390 1.348 1_556 S
C391 C393 1.353 . S
C391 H432 0.929 . S
C392 C390 1.356 . S
C392 C394 1.358 . S
C392 H433 0.930 . S
C393 C391 1.353 . S
C393 N395 1.314 . S
C393 H434 0.930 . S
C394 C392 1.358 . S
C394 N395 1.279 1_554 S
C394 H435 0.930 . S
N395 C393 1.314 . S
N395 C394 1.279 1_556 S
C396 C398 1.353 . S
C396 N399 1.314 . S
C396 H402 0.930 . S
C397 N399 1.279 . S
C397 C400 1.358 . S
C397 H403 0.930 . S
C398 C396 1.353 . S
C398 C401 1.348 . S
C398 H436 0.929 . S
N399 Li354 1.990 . S
N399 C396 1.314 . S
N399 C397 1.279 . S
C400 C397 1.358 . S
C400 C401 1.356 . S
C400 H437 0.930 . S
C401 C398 1.348 . S
C401 C400 1.356 . S
H402 C396 0.930 . S
H403 C397 0.930 . S
C404 N405 1.314 . S
C404 C406 1.353 . S
C404 H410 0.930 . S
N405 Li355 1.990 . S
N405 C404 1.314 . S
N405 C408 1.279 1_554 S
C406 C404 1.353 . S
C406 C409 1.348 1_554 S
C406 H438 0.929 . S
C407 C408 1.358 . S
C407 C409 1.356 . S
C407 H439 0.930 . S
C408 N405 1.279 1_556 S
C408 C407 1.358 . S
C408 H411 0.930 . S
C409 C406 1.348 1_556 S
C409 C407 1.356 . S
H410 C404 0.930 . S
H411 C408 0.930 . S
O412 Li352 1.956 . S
O412 Li353 1.970 . S
O412 Li354 1.961 1_554 S
O412 C356 1.325 . S
O413 Li352 1.970 . S
O413 Li353 1.956 . S
O413 Li355 1.961 . S
O413 C362 1.325 . S
O414 Li352 1.961 1_556 S
O414 Li354 1.956 . S
O414 Li355 1.970 1_556 S
O414 C384 1.325 . S
O415 Li353 1.961 . S
O415 Li354 1.970 1_554 S
O415 Li355 1.956 . S
O415 C390 1.325 . S
H416 C358 0.929 . S
H417 C359 0.930 1_556 S
H418 C360 0.930 . S
H419 C361 0.930 . S
H420 C363 0.930 . S
H421 C365 0.929 . S
H422 C366 0.930 . S
H423 C367 0.930 . S
H424 C370 0.930 . S
H425 C373 0.929 . S
H426 C378 0.929 . S
H427 C379 0.930 . S
H428 C386 0.929 . S
H429 C387 0.930 . S
H430 C388 0.930 . S
H431 C389 0.930 . S
H432 C391 0.929 . S
H433 C392 0.930 . S
H434 C393 0.930 . S
H435 C394 0.930 . S
H436 C398 0.929 . S
H437 C400 0.930 . S
H438 C406 0.929 . S
H439 C407 0.930 . S
Li440 N457 1.990 . S
Li440 O500 1.956 . S
Li440 O501 1.970 1_565 S
Li440 O502 1.961 1_554 S
Li441 N465 1.990 . S
Li441 O500 1.970 1_545 S
Li441 O501 1.956 . S
Li441 O503 1.961 . S
Li442 N487 1.990 . S
Li442 O500 1.961 1_556 S
Li442 O502 1.956 . S
Li442 O503 1.970 1_566 S
Li443 N493 1.990 . S
Li443 O501 1.961 . S
Li443 O502 1.970 1_544 S
Li443 O503 1.956 . S
C444 C446 1.348 . S
C444 C447 1.356 . S
C444 O500 1.325 . S
N445 C448 1.314 . S
N445 C449 1.279 . S
C446 C444 1.348 . S
C446 C448 1.353 . S
C446 H504 0.929 . S
C447 C444 1.356 . S
C447 C449 1.358 . S
C447 H505 0.930 1_554 S
C448 N445 1.314 . S
C448 C446 1.353 . S
C448 H506 0.930 . S
C449 N445 1.279 . S
C449 C447 1.358 . S
C449 H507 0.930 . S
C450 C453 1.348 1_545 S
C450 C454 1.356 . S
C450 O501 1.325 . S
C451 N452 1.279 . S
C451 C454 1.358 . S
C451 H508 0.930 . S
N452 C451 1.279 . S
N452 C455 1.263 1_545 S
C453 C450 1.348 1_565 S
C453 C455 1.351 . S
C453 H509 0.929 . S
C454 C450 1.356 . S
C454 C451 1.358 . S
C454 H510 0.930 . S
C455 N452 1.263 1_565 S
C455 C453 1.351 . S
C455 H511 0.993 . S
C456 N457 1.314 . S
C456 C461 1.353 . S
C456 H462 0.930 . S
N457 Li440 1.990 . S
N457 C456 1.314 . S
N457 C459 1.279 . S
C458 C459 1.358 . S
C458 C460 1.356 . S
C458 H512 0.930 . S
C459 N457 1.279 . S
C459 C458 1.358 . S
C459 H463 0.930 . S
C460 C458 1.356 . S
C460 C461 1.348 . S
C461 C456 1.353 . S
C461 C460 1.348 . S
C461 H513 0.929 . S
H462 C456 0.930 . S
H463 C459 0.930 . S
C464 N465 1.314 . S
C464 C466 1.353 . S
C464 H470 0.930 . S
N465 Li441 1.990 . S
N465 C464 1.314 . S
N465 C468 1.279 . S
C466 C464 1.353 . S
C466 C469 1.348 . S
C466 H514 0.929 . S
C467 C468 1.358 . S
C467 C469 1.356 . S
C467 H515 0.930 . S
C468 N465 1.279 . S
C468 C467 1.358 . S
C468 H471 0.930 . S
C469 C466 1.348 . S
C469 C467 1.356 . S
H470 C464 0.930 . S
H471 C468 0.930 . S
C472 C474 1.348 1_565 S
C472 C475 1.356 . S
C472 O502 1.325 . S
N473 C476 1.246 1_565 S
N473 C477 1.279 . S
C474 C472 1.348 1_545 S
C474 C476 1.394 . S
C474 H516 0.929 . S
C475 C472 1.356 . S
C475 C477 1.358 . S
C475 H517 0.930 . S
C476 N473 1.246 1_545 S
C476 C474 1.394 . S
C476 H518 0.966 . S
C477 N473 1.279 . S
C477 C475 1.358 . S
C477 H519 0.930 . S
C478 C479 1.348 1_554 S
C478 C480 1.356 . S
C478 O503 1.325 . S
C479 C478 1.348 1_556 S
C479 C481 1.353 . S
C479 H520 0.929 . S
C480 C478 1.356 . S
C480 C482 1.358 . S
C480 H521 0.930 . S
C481 C479 1.353 . S
C481 N483 1.314 . S
C481 H522 0.930 . S
C482 C480 1.358 . S
C482 N483 1.279 1_554 S
C482 H523 0.930 . S
N483 C481 1.314 . S
N483 C482 1.279 1_556 S
C484 C486 1.353 . S
C484 N487 1.314 . S
C484 H490 0.930 . S
C485 N487 1.279 . S
C485 C488 1.358 . S
C485 H491 0.930 . S
C486 C484 1.353 . S
C486 C489 1.348 . S
C486 H524 0.929 . S
N487 Li442 1.990 . S
N487 C484 1.314 . S
N487 C485 1.279 . S
C488 C485 1.358 . S
C488 C489 1.356 . S
C488 H525 0.930 . S
C489 C486 1.348 . S
C489 C488 1.356 . S
H490 C484 0.930 . S
H491 C485 0.930 . S
C492 N493 1.314 . S
C492 C494 1.353 . S
C492 H498 0.930 . S
N493 Li443 1.990 . S
N493 C492 1.314 . S
N493 C496 1.279 1_554 S
C494 C492 1.353 . S
C494 C497 1.348 1_554 S
C494 H526 0.929 . S
C495 C496 1.358 . S
C495 C497 1.356 . S
C495 H527 0.930 . S
C496 N493 1.279 1_556 S
C496 C495 1.358 . S
C496 H499 0.930 . S
C497 C494 1.348 1_556 S
C497 C495 1.356 . S
H498 C492 0.930 . S
H499 C496 0.930 . S
O500 Li440 1.956 . S
O500 Li441 1.970 1_565 S
O500 Li442 1.961 1_554 S
O500 C444 1.325 . S
O501 Li440 1.970 1_545 S
O501 Li441 1.956 . S
O501 Li443 1.961 . S
O501 C450 1.325 . S
O502 Li440 1.961 1_556 S
O502 Li442 1.956 . S
O502 Li443 1.970 1_566 S
O502 C472 1.325 . S
O503 Li441 1.961 . S
O503 Li442 1.970 1_544 S
O503 Li443 1.956 . S
O503 C478 1.325 . S
H504 C446 0.929 . S
H505 C447 0.930 1_556 S
H506 C448 0.930 . S
H507 C449 0.930 . S
H508 C451 0.930 . S
H509 C453 0.929 . S
H510 C454 0.930 . S
H511 C455 0.993 . S
H512 C458 0.930 . S
H513 C461 0.929 . S
H514 C466 0.929 . S
H515 C467 0.930 . S
H516 C474 0.929 . S
H517 C475 0.930 . S
H518 C476 0.966 . S
H519 C477 0.930 . S
H520 C479 0.929 . S
H521 C480 0.930 . S
H522 C481 0.930 . S
H523 C482 0.930 . S
H524 C486 0.929 . S
H525 C488 0.930 . S
H526 C494 0.929 . S
H527 C495 0.930 . S
Li528 N545 1.990 . S
Li528 O588 1.956 . S
Li528 O589 1.970 . S
Li528 O590 1.961 . S
Li529 N553 1.990 . S
Li529 O588 1.970 . S
Li529 O589 1.956 . S
Li529 O591 1.961 . S
Li530 N575 1.990 . S
Li530 O588 1.961 . S
Li530 O590 1.956 . S
Li530 O591 1.970 . S
Li531 N581 1.990 . S
Li531 O589 1.961 . S
Li531 O590 1.970 . S
Li531 O591 1.956 . S
C532 C534 1.348 . S
C532 C535 1.356 . S
C532 O588 1.325 . S
N533 C536 1.314 . S
N533 C537 1.279 . S
C534 C532 1.348 . S
C534 C536 1.353 . S
C534 H592 0.929 . S
C535 C532 1.356 . S
C535 C537 1.358 . S
C535 H593 0.930 . S
C536 N533 1.314 . S
C536 C534 1.353 . S
C536 H594 0.930 . S
C537 N533 1.279 . S
C537 C535 1.358 . S
C537 H595 0.930 . S
C538 C541 1.348 . S
C538 C542 1.356 . S
C538 O589 1.325 . S
C539 N540 1.279 . S
C539 C542 1.358 . S
C539 H596 0.930 . S
N540 C539 1.279 . S
N540 C543 1.314 . S
C541 C538 1.348 . S
C541 C543 1.353 . S
C541 H597 0.929 . S
C542 C538 1.356 . S
C542 C539 1.358 . S
C542 H598 0.930 . S
C543 N540 1.314 . S
C543 C541 1.353 . S
C543 H599 0.930 . S
C544 N545 1.314 . S
C544 C549 1.353 . S
C544 H550 0.930 . S
N545 Li528 1.990 . S
N545 C544 1.314 . S
N545 C547 1.279 . S
C546 C547 1.358 . S
C546 C548 1.356 . S
C546 H600 0.930 . S
C547 N545 1.279 . S
C547 C546 1.358 . S
C547 H551 0.930 . S
C548 C546 1.356 . S
C548 C549 1.348 . S
C549 C544 1.353 . S
C549 C548 1.348 . S
C549 H601 0.929 . S
H550 C544 0.930 . S
H551 C547 0.930 . S
C552 N553 1.314 . S
C552 C554 1.353 . S
C552 H558 0.930 . S
N553 Li529 1.990 . S
N553 C552 1.314 . S
N553 C556 1.279 . S
C554 C552 1.353 . S
C554 C557 1.348 . S
C554 H602 0.929 . S
C555 C556 1.358 . S
C555 C557 1.356 . S
C555 H603 0.930 . S
C556 N553 1.279 . S
C556 C555 1.358 . S
C556 H559 0.930 . S
C557 C554 1.348 . S
C557 C555 1.356 . S
H558 C552 0.930 . S
H559 C556 0.930 . S
C560 C562 1.348 . S
C560 C563 1.356 . S
C560 O590 1.325 . S
N561 C564 1.314 . S
N561 C565 1.279 . S
C562 C560 1.348 . S
C562 C564 1.353 . S
C562 H604 0.929 . S
C563 C560 1.356 . S
C563 C565 1.358 . S
C563 H605 0.930 . S
C564 N561 1.314 . S
C564 C562 1.353 . S
C564 H606 0.930 . S
C565 N561 1.279 . S
C565 C563 1.358 . S
C565 H607 0.930 . S
C566 C567 1.348 . S
C566 C568 1.356 . S
C566 O591 1.325 . S
C567 C566 1.348 . S
C567 C569 1.353 . S
C567 H608 0.929 . S
C568 C566 1.356 . S
C568 C570 1.358 . S
C568 H609 0.930 . S
C569 C567 1.353 . S
C569 N571 1.314 . S
C569 H610 0.930 . S
C570 C568 1.358 . S
C570 N571 1.279 . S
C570 H611 0.930 . S
N571 C569 1.314 . S
N571 C570 1.279 . S
C572 C574 1.353 . S
C572 N575 1.314 . S
C572 H578 0.930 . S
C573 N575 1.279 . S
C573 C576 1.358 . S
C573 H579 0.930 . S
C574 C572 1.353 . S
C574 C577 1.348 . S
C574 H612 0.929 . S
N575 Li530 1.990 . S
N575 C572 1.314 . S
N575 C573 1.279 . S
C576 C573 1.358 . S
C576 C577 1.356 . S
C576 H613 0.930 . S
C577 C574 1.348 . S
C577 C576 1.356 . S
H578 C572 0.930 . S
H579 C573 0.930 . S
C580 N581 1.314 . S
C580 C582 1.353 . S
C580 H586 0.930 . S
N581 Li531 1.990 . S
N581 C580 1.314 . S
N581 C584 1.279 . S
C582 C580 1.353 . S
C582 C585 1.348 . S
C582 H614 0.929 . S
C583 C584 1.358 . S
C583 C585 1.356 . S
C583 H615 0.930 . S
C584 N581 1.279 . S
C584 C583 1.358 . S
C584 H587 0.930 . S
C585 C582 1.348 . S
C585 C583 1.356 . S
H586 C580 0.930 . S
H587 C584 0.930 . S
O588 Li528 1.956 . S
O588 Li529 1.970 . S
O588 Li530 1.961 . S
O588 C532 1.325 . S
O589 Li528 1.970 . S
O589 Li529 1.956 . S
O589 Li531 1.961 . S
O589 C538 1.325 . S
O590 Li528 1.961 . S
O590 Li530 1.956 . S
O590 Li531 1.970 . S
O590 C560 1.325 . S
O591 Li529 1.961 . S
O591 Li530 1.970 . S
O591 Li531 1.956 . S
O591 C566 1.325 . S
H592 C534 0.929 . S
H593 C535 0.930 . S
H594 C536 0.930 . S
H595 C537 0.930 . S
H596 C539 0.930 . S
H597 C541 0.929 . S
H598 C542 0.930 . S
H599 C543 0.930 . S
H600 C546 0.930 . S
H601 C549 0.929 . S
H602 C554 0.929 . S
H603 C555 0.930 . S
H604 C562 0.929 . S
H605 C563 0.930 . S
H606 C564 0.930 . S
H607 C565 0.930 . S
H608 C567 0.929 . S
H609 C568 0.930 . S
H610 C569 0.930 . S
H611 C570 0.930 . S
H612 C574 0.929 . S
H613 C576 0.930 . S
H614 C582 0.929 . S
H615 C583 0.930 . S
Li616 N633 1.990 . S
Li616 O676 1.956 . S
Li616 O677 1.970 . S
Li616 O678 1.961 . S
Li617 N641 1.990 . S
Li617 O676 1.970 . S
Li617 O677 1.956 . S
Li617 O679 1.961 . S
Li618 N663 2.002 1_565 S
Li618 O676 1.961 . S
Li618 O678 1.956 . S
Li618 O679 1.970 . S
Li619 N669 1.990 . S
Li619 O677 1.961 . S
Li619 O678 1.970 . S
Li619 O679 1.956 . S
C620 C622 1.348 . S
C620 C623 1.356 . S
C620 O676 1.325 . S
N621 C624 1.314 . S
N621 C625 1.279 . S
C622 C620 1.348 . S
C622 C624 1.353 . S
C622 H680 0.929 . S
C623 C620 1.356 . S
C623 C625 1.358 . S
C623 H681 0.930 . S
C624 N621 1.314 . S
C624 C622 1.353 . S
C624 H682 0.930 . S
C625 N621 1.279 . S
C625 C623 1.358 . S
C625 H683 0.930 . S
C626 C629 1.348 . S
C626 C630 1.356 . S
C626 O677 1.325 . S
C627 N628 1.279 . S
C627 C630 1.358 . S
C627 H684 0.930 . S
N628 C627 1.279 . S
N628 C631 1.314 . S
C629 C626 1.348 . S
C629 C631 1.353 . S
C629 H685 0.929 . S
C630 C626 1.356 . S
C630 C627 1.358 . S
C630 H686 0.930 . S
C631 N628 1.314 . S
C631 C629 1.353 . S
C631 H687 0.930 . S
C632 N633 1.314 . S
C632 C637 1.353 . S
C632 H638 0.930 . S
N633 Li616 1.990 . S
N633 C632 1.314 . S
N633 C635 1.279 . S
C634 C635 1.358 . S
C634 C636 1.356 . S
C634 H688 0.930 . S
C635 N633 1.279 . S
C635 C634 1.358 . S
C635 H639 0.930 . S
C636 C634 1.356 . S
C636 C637 1.348 . S
C637 C632 1.353 . S
C637 C636 1.348 . S
C637 H689 0.929 . S
H638 C632 0.930 . S
H639 C635 0.930 . S
C640 N641 1.314 . S
C640 C642 1.353 . S
C640 H646 0.930 . S
N641 Li617 1.990 . S
N641 C640 1.314 . S
N641 C644 1.279 . S
C642 C640 1.353 . S
C642 C645 1.348 . S
C642 H690 0.929 . S
C643 C644 1.358 . S
C643 C645 1.356 . S
C643 H691 0.930 . S
C644 N641 1.279 . S
C644 C643 1.358 . S
C644 H647 0.930 . S
C645 C642 1.348 . S
C645 C643 1.356 . S
H646 C640 0.930 . S
H647 C644 0.930 . S
C648 C650 1.348 . S
C648 C651 1.356 . S
C648 O678 1.325 . S
N649 C652 1.331 . S
N649 C653 1.279 1_545 S
C650 C648 1.348 . S
C650 C652 1.339 1_565 S
C650 H692 0.929 . S
C651 C648 1.356 . S
C651 C653 1.358 . S
C651 H693 0.930 . S
C652 N649 1.331 . S
C652 C650 1.339 1_545 S
C652 H694 0.927 . S
C653 N649 1.279 1_565 S
C653 C651 1.358 . S
C653 H695 0.932 1_565 S
C654 C655 1.348 . S
C654 C656 1.356 . S
C654 O679 1.325 . S
C655 C654 1.348 . S
C655 C657 1.353 . S
C655 H696 0.929 . S
C656 C654 1.356 . S
C656 C658 1.358 . S
C656 H697 0.930 . S
C657 C655 1.353 . S
C657 N659 1.314 . S
C657 H698 0.930 1_565 S
C658 C656 1.358 . S
C658 N659 1.279 . S
C658 H699 0.930 . S
N659 C657 1.314 . S
N659 C658 1.279 . S
C660 C662 1.353 . S
C660 N663 1.309 . S
C660 H666 0.930 1_545 S
C661 N663 1.272 . S
C661 C664 1.358 . S
C661 H667 0.930 . S
C662 C660 1.353 . S
C662 C665 1.348 . S
C662 H700 0.929 . S
N663 Li618 2.002 1_545 S
N663 C660 1.309 . S
N663 C661 1.272 . S
C664 C661 1.358 . S
C664 C665 1.356 . S
C664 H701 0.930 . S
C665 C662 1.348 . S
C665 C664 1.356 . S
H666 C660 0.930 1_565 S
H667 C661 0.930 . S
C668 N669 1.314 . S
C668 C670 1.353 . S
C668 H674 0.930 . S
N669 Li619 1.990 . S
N669 C668 1.314 . S
N669 C672 1.279 . S
C670 C668 1.353 . S
C670 C673 1.348 . S
C670 H702 0.929 . S
C671 C672 1.358 . S
C671 C673 1.356 . S
C671 H703 0.930 . S
C672 N669 1.279 . S
C672 C671 1.358 . S
C672 H675 0.930 . S
C673 C670 1.348 . S
C673 C671 1.356 . S
H674 C668 0.930 . S
H675 C672 0.930 . S
O676 Li616 1.956 . S
O676 Li617 1.970 . S
O676 Li618 1.961 . S
O676 C620 1.325 . S
O677 Li616 1.970 . S
O677 Li617 1.956 . S
O677 Li619 1.961 . S
O677 C626 1.325 . S
O678 Li616 1.961 . S
O678 Li618 1.956 . S
O678 Li619 1.970 . S
O678 C648 1.325 . S
O679 Li617 1.961 . S
O679 Li618 1.970 . S
O679 Li619 1.956 . S
O679 C654 1.325 . S
H680 C622 0.929 . S
H681 C623 0.930 . S
H682 C624 0.930 . S
H683 C625 0.930 . S
H684 C627 0.930 . S
H685 C629 0.929 . S
H686 C630 0.930 . S
H687 C631 0.930 . S
H688 C634 0.930 . S
H689 C637 0.929 . S
H690 C642 0.929 . S
H691 C643 0.930 . S
H692 C650 0.929 . S
H693 C651 0.930 . S
H694 C652 0.927 . S
H695 C653 0.932 1_545 S
H696 C655 0.929 . S
H697 C656 0.930 . S
H698 C657 0.930 1_545 S
H699 C658 0.930 . S
H700 C662 0.929 . S
H701 C664 0.930 . S
H702 C670 0.929 . S
H703 C671 0.930 . S
Li704 N721 1.990 . S
Li704 O764 1.956 . S
Li704 O765 1.970 . S
Li704 O766 1.961 . S
Li705 N729 1.990 . S
Li705 O764 1.970 . S
Li705 O765 1.956 . S
Li705 O767 1.961 . S
Li706 N751 2.029 . S
Li706 O764 1.961 . S
Li706 O766 1.956 . S
Li706 O767 1.970 . S
Li707 N757 1.990 . S
Li707 O765 1.961 . S
Li707 O766 1.970 . S
Li707 O767 1.956 . S
C708 C710 1.348 . S
C708 C711 1.356 . S
C708 O764 1.325 . S
N709 C712 1.314 . S
N709 C713 1.279 . S
C710 C708 1.348 . S
C710 C712 1.353 . S
C710 H768 0.929 . S
C711 C708 1.356 . S
C711 C713 1.358 . S
C711 H769 0.930 . S
C712 N709 1.314 . S
C712 C710 1.353 . S
C712 H770 0.930 . S
C713 N709 1.279 . S
C713 C711 1.358 . S
C713 H771 0.930 . S
C714 C717 1.348 . S
C714 C718 1.356 . S
C714 O765 1.325 . S
C715 N716 1.279 . S
C715 C718 1.358 . S
C715 H772 0.930 . S
N716 C715 1.279 . S
N716 C719 1.314 . S
C717 C714 1.348 . S
C717 C719 1.353 . S
C717 H773 0.929 . S
C718 C714 1.356 . S
C718 C715 1.358 . S
C718 H774 0.930 . S
C719 N716 1.314 . S
C719 C717 1.353 . S
C719 H775 0.930 . S
C720 N721 1.314 . S
C720 C725 1.353 . S
C720 H726 0.930 . S
N721 Li704 1.990 . S
N721 C720 1.314 . S
N721 C723 1.279 . S
C722 C723 1.358 . S
C722 C724 1.356 . S
C722 H776 0.930 . S
C723 N721 1.279 . S
C723 C722 1.358 . S
C723 H727 0.930 . S
C724 C722 1.356 . S
C724 C725 1.348 . S
C725 C720 1.353 . S
C725 C724 1.348 . S
C725 H777 0.929 . S
H726 C720 0.930 . S
H727 C723 0.930 . S
C728 N729 1.314 . S
C728 C730 1.353 . S
C728 H734 0.930 . S
N729 Li705 1.990 . S
N729 C728 1.314 . S
N729 C732 1.279 . S
C730 C728 1.353 . S
C730 C733 1.348 . S
C730 H778 0.929 . S
C731 C732 1.358 . S
C731 C733 1.356 . S
C731 H779 0.930 . S
C732 N729 1.279 . S
C732 C731 1.358 . S
C732 H735 0.930 . S
C733 C730 1.348 . S
C733 C731 1.356 . S
H734 C728 0.930 . S
H735 C732 0.930 . S
C736 C738 1.348 . S
C736 C739 1.356 . S
C736 O766 1.325 . S
N737 C740 1.321 1_655 S
N737 C741 1.279 1_655 S
C738 C736 1.348 . S
C738 C740 1.377 . S
C738 H780 0.929 . S
C739 C736 1.356 . S
C739 C741 1.358 . S
C739 H781 0.930 . S
C740 N737 1.321 1_455 S
C740 C738 1.377 . S
C740 H782 0.896 1_455 S
C741 N737 1.279 1_455 S
C741 C739 1.358 . S
C741 H783 0.915 . S
C742 C743 1.348 . S
C742 C744 1.356 . S
C742 O767 1.325 . S
C743 C742 1.348 . S
C743 C745 1.353 . S
C743 H784 0.929 . S
C744 C742 1.356 . S
C744 C746 1.358 . S
C744 H785 0.930 . S
C745 C743 1.353 . S
C745 N747 1.314 . S
C745 H786 0.930 1_455 S
C746 C744 1.358 . S
C746 N747 1.279 . S
C746 H787 0.930 . S
N747 C745 1.314 . S
N747 C746 1.279 . S
C748 C750 1.353 . S
C748 N751 1.326 1_655 S
C748 H754 0.930 1_655 S
C749 N751 1.225 1_655 S
C749 C752 1.358 . S
C749 H755 0.930 . S
C750 C748 1.353 . S
C750 C753 1.348 . S
C750 H788 0.929 . S
N751 Li706 2.029 . S
N751 C748 1.326 1_455 S
N751 C749 1.225 1_455 S
C752 C749 1.358 . S
C752 C753 1.356 . S
C752 H789 0.930 . S
C753 C750 1.348 . S
C753 C752 1.356 . S
H754 C748 0.930 1_455 S
H755 C749 0.930 . S
C756 N757 1.314 . S
C756 C758 1.353 . S
C756 H762 0.930 . S
N757 Li707 1.990 . S
N757 C756 1.314 . S
N757 C760 1.279 . S
C758 C756 1.353 . S
C758 C761 1.348 . S
C758 H790 0.929 . S
C759 C760 1.358 . S
C759 C761 1.356 . S
C759 H791 0.930 . S
C760 N757 1.279 . S
C760 C759 1.358 . S
C760 H763 0.930 . S
C761 C758 1.348 . S
C761 C759 1.356 . S
H762 C756 0.930 . S
H763 C760 0.930 . S
O764 Li704 1.956 . S
O764 Li705 1.970 . S
O764 Li706 1.961 . S
O764 C708 1.325 . S
O765 Li704 1.970 . S
O765 Li705 1.956 . S
O765 Li707 1.961 . S
O765 C714 1.325 . S
O766 Li704 1.961 . S
O766 Li706 1.956 . S
O766 Li707 1.970 . S
O766 C736 1.325 . S
O767 Li705 1.961 . S
O767 Li706 1.970 . S
O767 Li707 1.956 . S
O767 C742 1.325 . S
H768 C710 0.929 . S
H769 C711 0.930 . S
H770 C712 0.930 . S
H771 C713 0.930 . S
H772 C715 0.930 . S
H773 C717 0.929 . S
H774 C718 0.930 . S
H775 C719 0.930 . S
H776 C722 0.930 . S
H777 C725 0.929 . S
H778 C730 0.929 . S
H779 C731 0.930 . S
H780 C738 0.929 . S
H781 C739 0.930 . S
H782 C740 0.896 1_655 S
H783 C741 0.915 . S
H784 C743 0.929 . S
H785 C744 0.930 . S
H786 C745 0.930 1_655 S
H787 C746 0.930 . S
H788 C750 0.929 . S
H789 C752 0.930 . S
H790 C758 0.929 . S
H791 C759 0.930 . S
Li792 N809 2.041 . S
Li792 O852 1.956 . S
Li792 O853 1.970 . S
Li792 O854 1.961 . S
Li793 N817 1.990 . S
Li793 O852 1.970 . S
Li793 O853 1.956 . S
Li793 O855 1.961 . S
Li794 N839 1.990 . S
Li794 O852 1.961 . S
Li794 O854 1.956 . S
Li794 O855 1.970 . S
Li795 N845 1.990 . S
Li795 O853 1.961 . S
Li795 O854 1.970 . S
Li795 O855 1.956 . S
C796 C798 1.348 . S
C796 C799 1.356 . S
C796 O852 1.325 . S
N797 C800 1.314 . S
N797 C801 1.279 . S
C798 C796 1.348 . S
C798 C800 1.353 . S
C798 H856 0.929 . S
C799 C796 1.356 . S
C799 C801 1.358 . S
C799 H857 0.930 . S
C800 N797 1.314 . S
C800 C798 1.353 . S
C800 H858 0.930 . S
C801 N797 1.279 . S
C801 C799 1.358 . S
C801 H859 0.930 . S
C802 C805 1.348 . S
C802 C806 1.356 . S
C802 O853 1.325 . S
C803 N804 1.279 . S
C803 C806 1.358 . S
C803 H860 0.930 . S
N804 C803 1.279 . S
N804 C807 1.314 . S
C805 C802 1.348 . S
C805 C807 1.353 . S
C805 H861 0.929 . S
C806 C802 1.356 . S
C806 C803 1.358 . S
C806 H862 0.930 . S
C807 N804 1.314 . S
C807 C805 1.353 . S
C807 H863 0.929 . S
C808 N809 1.230 1_545 S
C808 C813 1.353 . S
C808 H814 0.930 . S
N809 Li792 2.041 . S
N809 C808 1.230 1_565 S
N809 C811 1.306 1_565 S
C810 C811 1.358 . S
C810 C812 1.356 . S
C810 H864 0.930 . S
C811 N809 1.306 1_545 S
C811 C810 1.358 . S
C811 H815 0.930 1_545 S
C812 C810 1.356 . S
C812 C813 1.348 . S
C813 C808 1.353 . S
C813 C812 1.348 . S
C813 H865 0.929 . S
H814 C808 0.930 . S
H815 C811 0.930 1_565 S
C816 N817 1.314 . S
C816 C818 1.353 . S
C816 H822 0.930 . S
N817 Li793 1.990 . S
N817 C816 1.314 . S
N817 C820 1.279 . S
C818 C816 1.353 . S
C818 C821 1.348 . S
C818 H866 0.929 . S
C819 C820 1.358 . S
C819 C821 1.356 . S
C819 H867 0.930 . S
C820 N817 1.279 . S
C820 C819 1.358 . S
C820 H823 0.930 . S
C821 C818 1.348 . S
C821 C819 1.356 . S
H822 C816 0.930 . S
H823 C820 0.930 . S
C824 C826 1.348 . S
C824 C827 1.356 . S
C824 O854 1.325 . S
N825 C828 1.314 1_545 S
N825 C829 1.319 . S
C826 C824 1.348 . S
C826 C828 1.353 . S
C826 H868 0.929 . S
C827 C824 1.356 . S
C827 C829 1.314 1_565 S
C827 H869 0.930 . S
C828 N825 1.314 1_565 S
C828 C826 1.353 . S
C828 H870 0.930 . S
C829 N825 1.319 . S
C829 C827 1.314 1_545 S
C829 H871 0.943 . S
C830 C831 1.348 . S
C830 C832 1.356 . S
C830 O855 1.325 . S
C831 C830 1.348 . S
C831 C833 1.353 . S
C831 H872 0.929 . S
C832 C830 1.356 . S
C832 C834 1.358 . S
C832 H873 0.930 . S
C833 C831 1.353 . S
C833 N835 1.314 . S
C833 H874 0.930 . S
C834 C832 1.358 . S
C834 N835 1.279 . S
C834 H875 0.930 . S
N835 C833 1.314 . S
N835 C834 1.279 . S
C836 C838 1.353 . S
C836 N839 1.314 . S
C836 H842 0.930 . S
C837 N839 1.279 . S
C837 C840 1.358 . S
C837 H843 0.930 . S
C838 C836 1.353 . S
C838 C841 1.348 . S
C838 H876 0.929 . S
N839 Li794 1.990 . S
N839 C836 1.314 . S
N839 C837 1.279 . S
C840 C837 1.358 . S
C840 C841 1.356 . S
C840 H877 0.930 . S
C841 C838 1.348 . S
C841 C840 1.356 . S
H842 C836 0.930 . S
H843 C837 0.930 . S
C844 N845 1.314 . S
C844 C846 1.353 . S
C844 H850 0.930 . S
N845 Li795 1.990 . S
N845 C844 1.314 . S
N845 C848 1.279 . S
C846 C844 1.353 . S
C846 C849 1.348 . S
C846 H878 0.929 . S
C847 C848 1.358 . S
C847 C849 1.356 . S
C847 H879 0.930 . S
C848 N845 1.279 . S
C848 C847 1.358 . S
C848 H851 0.930 . S
C849 C846 1.348 . S
C849 C847 1.356 . S
H850 C844 0.930 . S
H851 C848 0.930 . S
O852 Li792 1.956 . S
O852 Li793 1.970 . S
O852 Li794 1.961 . S
O852 C796 1.325 . S
O853 Li792 1.970 . S
O853 Li793 1.956 . S
O853 Li795 1.961 . S
O853 C802 1.325 . S
O854 Li792 1.961 . S
O854 Li794 1.956 . S
O854 Li795 1.970 . S
O854 C824 1.325 . S
O855 Li793 1.961 . S
O855 Li794 1.970 . S
O855 Li795 1.956 . S
O855 C830 1.325 . S
H856 C798 0.929 . S
H857 C799 0.930 . S
H858 C800 0.930 . S
H859 C801 0.930 . S
H860 C803 0.930 . S
H861 C805 0.929 . S
H862 C806 0.930 . S
H863 C807 0.929 . S
H864 C810 0.930 . S
H865 C813 0.929 . S
H866 C818 0.929 . S
H867 C819 0.930 . S
H868 C826 0.929 . S
H869 C827 0.930 . S
H870 C828 0.930 . S
H871 C829 0.943 . S
H872 C831 0.929 . S
H873 C832 0.930 . S
H874 C833 0.930 . S
H875 C834 0.930 . S
H876 C838 0.929 . S
H877 C840 0.930 . S
H878 C846 0.929 . S
H879 C847 0.930 . S
Li880 N897 1.990 . S
Li880 O940 1.956 . S
Li880 O941 1.970 . S
Li880 O942 1.961 . S
Li881 N905 2.072 . S
Li881 O940 1.970 . S
Li881 O941 1.956 . S
Li881 O943 1.961 . S
Li882 N927 1.990 . S
Li882 O940 1.961 . S
Li882 O942 1.956 . S
Li882 O943 1.970 . S
Li883 N933 1.990 . S
Li883 O941 1.961 . S
Li883 O942 1.970 . S
Li883 O943 1.956 . S
C884 C886 1.348 . S
C884 C887 1.356 . S
C884 O940 1.325 . S
N885 C888 1.314 . S
N885 C889 1.279 . S
C886 C884 1.348 . S
C886 C888 1.353 . S
C886 H944 0.929 . S
C887 C884 1.356 . S
C887 C889 1.358 . S
C887 H945 0.930 . S
C888 N885 1.314 . S
C888 C886 1.353 . S
C888 H946 0.939 . S
C889 N885 1.279 . S
C889 C887 1.358 . S
C889 H947 0.930 . S
C890 C893 1.348 . S
C890 C894 1.356 . S
C890 O941 1.325 . S
C891 N892 1.279 . S
C891 C894 1.358 . S
C891 H948 0.930 . S
N892 C891 1.279 . S
N892 C895 1.314 . S
C893 C890 1.348 . S
C893 C895 1.353 . S
C893 H949 0.929 . S
C894 C890 1.356 . S
C894 C891 1.358 . S
C894 H950 0.930 . S
C895 N892 1.314 . S
C895 C893 1.353 . S
C895 H951 0.930 . S
C896 N897 1.314 . S
C896 C901 1.353 . S
C896 H902 0.930 . S
N897 Li880 1.990 . S
N897 C896 1.314 . S
N897 C899 1.279 . S
C898 C899 1.358 . S
C898 C900 1.356 . S
C898 H952 0.930 . S
C899 N897 1.279 . S
C899 C898 1.358 . S
C899 H903 0.930 . S
C900 C898 1.356 . S
C900 C901 1.348 . S
C901 C896 1.353 . S
C901 C900 1.348 . S
C901 H953 0.929 . S
H902 C896 0.930 . S
H903 C899 0.930 . S
C904 N905 1.275 1_655 S
C904 C906 1.353 . S
C904 H910 0.930 . S
N905 Li881 2.072 . S
N905 C904 1.275 1_455 S
N905 C908 1.232 1_455 S
C906 C904 1.353 . S
C906 C909 1.348 . S
C906 H954 0.929 . S
C907 C908 1.358 . S
C907 C909 1.356 . S
C907 H955 0.930 . S
C908 N905 1.232 1_655 S
C908 C907 1.358 . S
C908 H911 0.930 1_655 S
C909 C906 1.348 . S
C909 C907 1.356 . S
H910 C904 0.930 . S
H911 C908 0.930 1_455 S
C912 C914 1.348 . S
C912 C915 1.356 . S
C912 O942 1.325 . S
N913 C916 1.314 . S
N913 C917 1.279 . S
C914 C912 1.348 . S
C914 C916 1.353 . S
C914 H956 0.929 . S
C915 C912 1.356 . S
C915 C917 1.358 . S
C915 H957 0.930 . S
C916 N913 1.314 . S
C916 C914 1.353 . S
C916 H958 0.930 . S
C917 N913 1.279 . S
C917 C915 1.358 . S
C917 H959 0.930 . S
C918 C919 1.348 . S
C918 C920 1.356 . S
C918 O943 1.325 . S
C919 C918 1.348 . S
C919 C921 1.353 . S
C919 H960 0.929 . S
C920 C918 1.356 . S
C920 C922 1.315 1_455 S
C920 H961 0.930 . S
C921 C919 1.353 . S
C921 N923 1.314 1_455 S
C921 H962 0.930 . S
C922 C920 1.315 1_655 S
C922 N923 1.246 . S
C922 H963 1.025 . S
N923 C921 1.314 1_655 S
N923 C922 1.246 . S
C924 C926 1.353 . S
C924 N927 1.314 . S
C924 H930 0.930 . S
C925 N927 1.279 . S
C925 C928 1.358 . S
C925 H931 0.930 . S
C926 C924 1.353 . S
C926 C929 1.348 . S
C926 H964 0.929 . S
N927 Li882 1.990 . S
N927 C924 1.314 . S
N927 C925 1.279 . S
C928 C925 1.358 . S
C928 C929 1.356 . S
C928 H965 0.930 . S
C929 C926 1.348 . S
C929 C928 1.356 . S
H930 C924 0.930 . S
H931 C925 0.930 . S
C932 N933 1.314 . S
C932 C934 1.353 . S
C932 H938 0.930 . S
N933 Li883 1.990 . S
N933 C932 1.314 . S
N933 C936 1.279 . S
C934 C932 1.353 . S
C934 C937 1.348 . S
C934 H966 0.929 . S
C935 C936 1.358 . S
C935 C937 1.356 . S
C935 H967 0.930 . S
C936 N933 1.279 . S
C936 C935 1.358 . S
C936 H939 0.930 . S
C937 C934 1.348 . S
C937 C935 1.356 . S
H938 C932 0.930 . S
H939 C936 0.930 . S
O940 Li880 1.956 . S
O940 Li881 1.970 . S
O940 Li882 1.961 . S
O940 C884 1.325 . S
O941 Li880 1.970 . S
O941 Li881 1.956 . S
O941 Li883 1.961 . S
O941 C890 1.325 . S
O942 Li880 1.961 . S
O942 Li882 1.956 . S
O942 Li883 1.970 . S
O942 C912 1.325 . S
O943 Li881 1.961 . S
O943 Li882 1.970 . S
O943 Li883 1.956 . S
O943 C918 1.325 . S
H944 C886 0.929 . S
H945 C887 0.930 . S
H946 C888 0.939 . S
H947 C889 0.930 . S
H948 C891 0.930 . S
H949 C893 0.929 . S
H950 C894 0.930 . S
H951 C895 0.930 . S
H952 C898 0.930 . S
H953 C901 0.929 . S
H954 C906 0.929 . S
H955 C907 0.930 . S
H956 C914 0.929 . S
H957 C915 0.930 . S
H958 C916 0.930 . S
H959 C917 0.930 . S
H960 C919 0.929 . S
H961 C920 0.930 . S
H962 C921 0.930 . S
H963 C922 1.025 . S
H964 C926 0.929 . S
H965 C928 0.930 . S
H966 C934 0.929 . S
H967 C935 0.930 . S
Li968 N985 1.990 . S
Li968 O1028 1.956 . S
Li968 O1029 1.970 . S
Li968 O1030 1.961 . S
Li969 N993 1.990 . S
Li969 O1028 1.970 . S
Li969 O1029 1.956 . S
Li969 O1031 1.961 . S
Li970 N1015 1.990 . S
Li970 O1028 1.961 . S
Li970 O1030 1.956 . S
Li970 O1031 1.970 . S
Li971 N1021 1.990 . S
Li971 O1029 1.961 . S
Li971 O1030 1.970 . S
Li971 O1031 1.956 . S
C972 C974 1.348 . S
C972 C975 1.356 . S
C972 O1028 1.325 . S
N973 C976 1.314 . S
N973 C977 1.279 . S
C974 C972 1.348 . S
C974 C976 1.353 . S
C974 H1032 0.929 . S
C975 C972 1.356 . S
C975 C977 1.358 . S
C975 H1033 0.930 . S
C976 N973 1.314 . S
C976 C974 1.353 . S
C976 H1034 0.930 . S
C977 N973 1.279 . S
C977 C975 1.358 . S
C977 H1035 0.930 . S
C978 C981 1.348 . S
C978 C982 1.356 . S
C978 O1029 1.325 . S
C979 N980 1.279 . S
C979 C982 1.358 . S
C979 H1036 0.930 . S
N980 C979 1.279 . S
N980 C983 1.314 . S
C981 C978 1.348 . S
C981 C983 1.353 . S
C981 H1037 0.929 . S
C982 C978 1.356 . S
C982 C979 1.358 . S
C982 H1038 0.930 . S
C983 N980 1.314 . S
C983 C981 1.353 . S
C983 H1039 0.930 . S
C984 N985 1.314 . S
C984 C989 1.353 . S
C984 H990 0.930 . S
N985 Li968 1.990 . S
N985 C984 1.314 . S
N985 C987 1.279 . S
C986 C987 1.358 . S
C986 C988 1.356 . S
C986 H1040 0.930 . S
C987 N985 1.279 . S
C987 C986 1.358 . S
C987 H991 0.930 . S
C988 C986 1.356 . S
C988 C989 1.348 . S
C989 C984 1.353 . S
C989 C988 1.348 . S
C989 H1041 0.929 . S
H990 C984 0.930 . S
H991 C987 0.930 . S
C992 N993 1.314 . S
C992 C994 1.353 . S
C992 H998 0.930 . S
N993 Li969 1.990 . S
N993 C992 1.314 . S
N993 C996 1.279 . S
C994 C992 1.353 . S
C994 C997 1.348 . S
C994 H1042 0.929 . S
C995 C996 1.358 . S
C995 C997 1.356 . S
C995 H1043 0.930 . S
C996 N993 1.279 . S
C996 C995 1.358 . S
C996 H999 0.930 . S
C997 C994 1.348 . S
C997 C995 1.356 . S
H998 C992 0.930 . S
H999 C996 0.930 . S
C1000 C1002 1.348 . S
C1000 C1003 1.356 . S
C1000 O1030 1.325 . S
N1001 C1004 1.314 . S
N1001 C1005 1.279 . S
C1002 C1000 1.348 . S
C1002 C1004 1.353 . S
C1002 H1044 0.929 . S
C1003 C1000 1.356 . S
C1003 C1005 1.358 . S
C1003 H1045 0.930 . S
C1004 N1001 1.314 . S
C1004 C1002 1.353 . S
C1004 H1046 0.930 . S
C1005 N1001 1.279 . S
C1005 C1003 1.358 . S
C1005 H1047 0.930 . S
C1006 C1007 1.348 . S
C1006 C1008 1.356 . S
C1006 O1031 1.325 . S
C1007 C1006 1.348 . S
C1007 C1009 1.353 . S
C1007 H1048 0.929 . S
C1008 C1006 1.356 . S
C1008 C1010 1.358 . S
C1008 H1049 0.930 . S
C1009 C1007 1.353 . S
C1009 N1011 1.314 . S
C1009 H1050 0.930 . S
C1010 C1008 1.358 . S
C1010 N1011 1.279 . S
C1010 H1051 0.930 . S
N1011 C1009 1.314 . S
N1011 C1010 1.279 . S
C1012 C1014 1.353 . S
C1012 N1015 1.314 . S
C1012 H1018 0.930 . S
C1013 N1015 1.279 . S
C1013 C1016 1.358 . S
C1013 H1019 0.930 . S
C1014 C1012 1.353 . S
C1014 C1017 1.348 . S
C1014 H1052 0.929 . S
N1015 Li970 1.990 . S
N1015 C1012 1.314 . S
N1015 C1013 1.279 . S
C1016 C1013 1.358 . S
C1016 C1017 1.356 . S
C1016 H1053 0.930 . S
C1017 C1014 1.348 . S
C1017 C1016 1.356 . S
H1018 C1012 0.930 . S
H1019 C1013 0.930 . S
C1020 N1021 1.314 . S
C1020 C1022 1.353 . S
C1020 H1026 0.930 . S
N1021 Li971 1.990 . S
N1021 C1020 1.314 . S
N1021 C1024 1.279 . S
C1022 C1020 1.353 . S
C1022 C1025 1.348 . S
C1022 H1054 0.929 . S
C1023 C1024 1.358 . S
C1023 C1025 1.356 . S
C1023 H1055 0.930 . S
C1024 N1021 1.279 . S
C1024 C1023 1.358 . S
C1024 H1027 0.930 . S
C1025 C1022 1.348 . S
C1025 C1023 1.356 . S
H1026 C1020 0.930 . S
H1027 C1024 0.930 . S
O1028 Li968 1.956 . S
O1028 Li969 1.970 . S
O1028 Li970 1.961 . S
O1028 C972 1.325 . S
O1029 Li968 1.970 . S
O1029 Li969 1.956 . S
O1029 Li971 1.961 . S
O1029 C978 1.325 . S
O1030 Li968 1.961 . S
O1030 Li970 1.956 . S
O1030 Li971 1.970 . S
O1030 C1000 1.325 . S
O1031 Li969 1.961 . S
O1031 Li970 1.970 . S
O1031 Li971 1.956 . S
O1031 C1006 1.325 . S
H1032 C974 0.929 . S
H1033 C975 0.930 . S
H1034 C976 0.930 . S
H1035 C977 0.930 . S
H1036 C979 0.930 . S
H1037 C981 0.929 . S
H1038 C982 0.930 . S
H1039 C983 0.930 . S
H1040 C986 0.930 . S
H1041 C989 0.929 . S
H1042 C994 0.929 . S
H1043 C995 0.930 . S
H1044 C1002 0.929 . S
H1045 C1003 0.930 . S
H1046 C1004 0.930 . S
H1047 C1005 0.930 . S
H1048 C1007 0.929 . S
H1049 C1008 0.930 . S
H1050 C1009 0.930 . S
H1051 C1010 0.930 . S
H1052 C1014 0.929 . S
H1053 C1016 0.930 . S
H1054 C1022 0.929 . S
H1055 C1023 0.930 . S
Li1056 N1073 2.029 . S
Li1056 O1116 1.956 . S
Li1056 O1117 1.970 . S
Li1056 O1118 1.961 . S
Li1057 N1081 1.990 . S
Li1057 O1116 1.970 . S
Li1057 O1117 1.956 . S
Li1057 O1119 1.961 . S
Li1058 N1103 1.990 . S
Li1058 O1116 1.961 . S
Li1058 O1118 1.956 . S
Li1058 O1119 1.970 . S
Li1059 N1109 1.990 . S
Li1059 O1117 1.961 . S
Li1059 O1118 1.970 . S
Li1059 O1119 1.956 . S
C1060 C1062 1.348 . S
C1060 C1063 1.356 . S
C1060 O1116 1.325 . S
N1061 C1064 1.321 1_565 S
N1061 C1065 1.279 1_565 S
C1062 C1060 1.348 . S
C1062 C1064 1.377 . S
C1062 H1120 0.929 . S
C1063 C1060 1.356 . S
C1063 C1065 1.358 . S
C1063 H1121 0.930 . S
C1064 N1061 1.321 1_545 S
C1064 C1062 1.377 . S
C1064 H1122 0.896 1_545 S
C1065 N1061 1.279 1_545 S
C1065 C1063 1.358 . S
C1065 H1123 0.915 . S
C1066 C1069 1.348 . S
C1066 C1070 1.356 . S
C1066 O1117 1.325 . S
C1067 N1068 1.279 . S
C1067 C1070 1.358 . S
C1067 H1124 0.930 . S
N1068 C1067 1.279 . S
N1068 C1071 1.314 . S
C1069 C1066 1.348 . S
C1069 C1071 1.353 . S
C1069 H1125 0.929 . S
C1070 C1066 1.356 . S
C1070 C1067 1.358 . S
C1070 H1126 0.930 . S
C1071 N1068 1.314 . S
C1071 C1069 1.353 . S
C1071 H1127 0.930 1_545 S
C1072 N1073 1.326 1_565 S
C1072 C1077 1.353 . S
C1072 H1078 0.930 1_565 S
N1073 Li1056 2.029 . S
N1073 C1072 1.326 1_545 S
N1073 C1075 1.226 1_545 S
C1074 C1075 1.358 . S
C1074 C1076 1.356 . S
C1074 H1128 0.930 . S
C1075 N1073 1.226 1_565 S
C1075 C1074 1.358 . S
C1075 H1079 0.930 . S
C1076 C1074 1.356 . S
C1076 C1077 1.348 . S
C1077 C1072 1.353 . S
C1077 C1076 1.348 . S
C1077 H1129 0.929 . S
H1078 C1072 0.930 1_545 S
H1079 C1075 0.930 . S
C1080 N1081 1.314 . S
C1080 C1082 1.353 . S
C1080 H1086 0.930 . S
N1081 Li1057 1.990 . S
N1081 C1080 1.314 . S
N1081 C1084 1.279 . S
C1082 C1080 1.353 . S
C1082 C1085 1.348 . S
C1082 H1130 0.929 . S
C1083 C1084 1.358 . S
C1083 C1085 1.356 . S
C1083 H1131 0.930 . S
C1084 N1081 1.279 . S
C1084 C1083 1.358 . S
C1084 H1087 0.930 . S
C1085 C1082 1.348 . S
C1085 C1083 1.356 . S
H1086 C1080 0.930 . S
H1087 C1084 0.930 . S
C1088 C1090 1.348 . S
C1088 C1091 1.356 . S
C1088 O1118 1.325 . S
N1089 C1092 1.314 . S
N1089 C1093 1.279 . S
C1090 C1088 1.348 . S
C1090 C1092 1.353 . S
C1090 H1132 0.929 . S
C1091 C1088 1.356 . S
C1091 C1093 1.358 . S
C1091 H1133 0.930 . S
C1092 N1089 1.314 . S
C1092 C1090 1.353 . S
C1092 H1134 0.930 . S
C1093 N1089 1.279 . S
C1093 C1091 1.358 . S
C1093 H1135 0.930 . S
C1094 C1095 1.348 . S
C1094 C1096 1.356 . S
C1094 O1119 1.325 . S
C1095 C1094 1.348 . S
C1095 C1097 1.353 . S
C1095 H1136 0.929 . S
C1096 C1094 1.356 . S
C1096 C1098 1.358 . S
C1096 H1137 0.930 . S
C1097 C1095 1.353 . S
C1097 N1099 1.314 . S
C1097 H1138 0.930 . S
C1098 C1096 1.358 . S
C1098 N1099 1.279 . S
C1098 H1139 0.930 . S
N1099 C1097 1.314 . S
N1099 C1098 1.279 . S
C1100 C1102 1.353 . S
C1100 N1103 1.314 . S
C1100 H1106 0.930 . S
C1101 N1103 1.279 . S
C1101 C1104 1.358 . S
C1101 H1107 0.930 . S
C1102 C1100 1.353 . S
C1102 C1105 1.348 . S
C1102 H1140 0.929 . S
N1103 Li1058 1.990 . S
N1103 C1100 1.314 . S
N1103 C1101 1.279 . S
C1104 C1101 1.358 . S
C1104 C1105 1.356 . S
C1104 H1141 0.930 . S
C1105 C1102 1.348 . S
C1105 C1104 1.356 . S
H1106 C1100 0.930 . S
H1107 C1101 0.930 . S
C1108 N1109 1.314 . S
C1108 C1110 1.353 . S
C1108 H1114 0.930 . S
N1109 Li1059 1.990 . S
N1109 C1108 1.314 . S
N1109 C1112 1.279 . S
C1110 C1108 1.353 . S
C1110 C1113 1.348 . S
C1110 H1142 0.929 . S
C1111 C1112 1.358 . S
C1111 C1113 1.356 . S
C1111 H1143 0.930 . S
C1112 N1109 1.279 . S
C1112 C1111 1.358 . S
C1112 H1115 0.930 . S
C1113 C1110 1.348 . S
C1113 C1111 1.356 . S
H1114 C1108 0.930 . S
H1115 C1112 0.930 . S
O1116 Li1056 1.956 . S
O1116 Li1057 1.970 . S
O1116 Li1058 1.961 . S
O1116 C1060 1.325 . S
O1117 Li1056 1.970 . S
O1117 Li1057 1.956 . S
O1117 Li1059 1.961 . S
O1117 C1066 1.325 . S
O1118 Li1056 1.961 . S
O1118 Li1058 1.956 . S
O1118 Li1059 1.970 . S
O1118 C1088 1.325 . S
O1119 Li1057 1.961 . S
O1119 Li1058 1.970 . S
O1119 Li1059 1.956 . S
O1119 C1094 1.325 . S
H1120 C1062 0.929 . S
H1121 C1063 0.930 . S
H1122 C1064 0.896 1_565 S
H1123 C1065 0.915 . S
H1124 C1067 0.930 . S
H1125 C1069 0.929 . S
H1126 C1070 0.930 . S
H1127 C1071 0.930 1_565 S
H1128 C1074 0.930 . S
H1129 C1077 0.929 . S
H1130 C1082 0.929 . S
H1131 C1083 0.930 . S
H1132 C1090 0.929 . S
H1133 C1091 0.930 . S
H1134 C1092 0.930 . S
H1135 C1093 0.930 . S
H1136 C1095 0.929 . S
H1137 C1096 0.930 . S
H1138 C1097 0.930 . S
H1139 C1098 0.930 . S
H1140 C1102 0.929 . S
H1141 C1104 0.930 . S
H1142 C1110 0.929 . S
H1143 C1111 0.930 . S
Li1144 N1161 2.001 1_655 S
Li1144 O1204 1.956 . S
Li1144 O1205 1.970 . S
Li1144 O1206 1.961 . S
Li1145 N1169 1.990 . S
Li1145 O1204 1.970 . S
Li1145 O1205 1.956 . S
Li1145 O1207 1.961 . S
Li1146 N1191 1.990 . S
Li1146 O1204 1.961 . S
Li1146 O1206 1.956 . S
Li1146 O1207 1.970 . S
Li1147 N1197 1.990 . S
Li1147 O1205 1.961 . S
Li1147 O1206 1.970 . S
Li1147 O1207 1.956 . S
C1148 C1150 1.348 . S
C1148 C1151 1.356 . S
C1148 O1204 1.325 . S
N1149 C1152 1.332 . S
N1149 C1153 1.279 1_455 S
C1150 C1148 1.348 . S
C1150 C1152 1.338 1_655 S
C1150 H1208 0.929 . S
C1151 C1148 1.356 . S
C1151 C1153 1.358 . S
C1151 H1209 0.930 . S
C1152 N1149 1.332 . S
C1152 C1150 1.338 1_455 S
C1152 H1210 0.927 . S
C1153 N1149 1.279 1_655 S
C1153 C1151 1.358 . S
C1153 H1211 0.931 1_655 S
C1154 C1157 1.348 . S
C1154 C1158 1.356 . S
C1154 O1205 1.325 . S
C1155 N1156 1.279 . S
C1155 C1158 1.358 . S
C1155 H1212 0.930 . S
N1156 C1155 1.279 . S
N1156 C1159 1.314 . S
C1157 C1154 1.348 . S
C1157 C1159 1.353 . S
C1157 H1213 0.929 . S
C1158 C1154 1.356 . S
C1158 C1155 1.358 . S
C1158 H1214 0.930 . S
C1159 N1156 1.314 . S
C1159 C1157 1.353 . S
C1159 H1215 0.930 1_655 S
C1160 N1161 1.309 . S
C1160 C1165 1.353 . S
C1160 H1166 0.930 1_455 S
N1161 Li1144 2.001 1_455 S
N1161 C1160 1.309 . S
N1161 C1163 1.272 . S
C1162 C1163 1.358 . S
C1162 C1164 1.356 . S
C1162 H1216 0.930 . S
C1163 N1161 1.272 . S
C1163 C1162 1.358 . S
C1163 H1167 0.930 . S
C1164 C1162 1.356 . S
C1164 C1165 1.348 . S
C1165 C1160 1.353 . S
C1165 C1164 1.348 . S
C1165 H1217 0.929 . S
H1166 C1160 0.930 1_655 S
H1167 C1163 0.930 . S
C1168 N1169 1.314 . S
C1168 C1170 1.353 . S
C1168 H1174 0.930 . S
N1169 Li1145 1.990 . S
N1169 C1168 1.314 . S
N1169 C1172 1.279 . S
C1170 C1168 1.353 . S
C1170 C1173 1.348 . S
C1170 H1218 0.929 . S
C1171 C1172 1.358 . S
C1171 C1173 1.356 . S
C1171 H1219 0.930 . S
C1172 N1169 1.279 . S
C1172 C1171 1.358 . S
C1172 H1175 0.930 . S
C1173 C1170 1.348 . S
C1173 C1171 1.356 . S
H1174 C1168 0.930 . S
H1175 C1172 0.930 . S
C1176 C1178 1.348 . S
C1176 C1179 1.356 . S
C1176 O1206 1.325 . S
N1177 C1180 1.314 . S
N1177 C1181 1.279 . S
C1178 C1176 1.348 . S
C1178 C1180 1.353 . S
C1178 H1220 0.929 . S
C1179 C1176 1.356 . S
C1179 C1181 1.358 . S
C1179 H1221 0.930 . S
C1180 N1177 1.314 . S
C1180 C1178 1.353 . S
C1180 H1222 0.930 . S
C1181 N1177 1.279 . S
C1181 C1179 1.358 . S
C1181 H1223 0.930 . S
C1182 C1183 1.348 . S
C1182 C1184 1.356 . S
C1182 O1207 1.325 . S
C1183 C1182 1.348 . S
C1183 C1185 1.353 . S
C1183 H1224 0.929 . S
C1184 C1182 1.356 . S
C1184 C1186 1.358 . S
C1184 H1225 0.930 . S
C1185 C1183 1.353 . S
C1185 N1187 1.314 . S
C1185 H1226 0.930 . S
C1186 C1184 1.358 . S
C1186 N1187 1.279 . S
C1186 H1227 0.930 . S
N1187 C1185 1.314 . S
N1187 C1186 1.279 . S
C1188 C1190 1.353 . S
C1188 N1191 1.314 . S
C1188 H1194 0.930 . S
C1189 N1191 1.279 . S
C1189 C1192 1.358 . S
C1189 H1195 0.930 . S
C1190 C1188 1.353 . S
C1190 C1193 1.348 . S
C1190 H1228 0.929 . S
N1191 Li1146 1.990 . S
N1191 C1188 1.314 . S
N1191 C1189 1.279 . S
C1192 C1189 1.358 . S
C1192 C1193 1.356 . S
C1192 H1229 0.930 . S
C1193 C1190 1.348 . S
C1193 C1192 1.356 . S
H1194 C1188 0.930 . S
H1195 C1189 0.930 . S
C1196 N1197 1.314 . S
C1196 C1198 1.353 . S
C1196 H1202 0.930 . S
N1197 Li1147 1.990 . S
N1197 C1196 1.314 . S
N1197 C1200 1.279 . S
C1198 C1196 1.353 . S
C1198 C1201 1.348 . S
C1198 H1230 0.929 . S
C1199 C1200 1.358 . S
C1199 C1201 1.356 . S
C1199 H1231 0.930 . S
C1200 N1197 1.279 . S
C1200 C1199 1.358 . S
C1200 H1203 0.930 . S
C1201 C1198 1.348 . S
C1201 C1199 1.356 . S
H1202 C1196 0.930 . S
H1203 C1200 0.930 . S
O1204 Li1144 1.956 . S
O1204 Li1145 1.970 . S
O1204 Li1146 1.961 . S
O1204 C1148 1.325 . S
O1205 Li1144 1.970 . S
O1205 Li1145 1.956 . S
O1205 Li1147 1.961 . S
O1205 C1154 1.325 . S
O1206 Li1144 1.961 . S
O1206 Li1146 1.956 . S
O1206 Li1147 1.970 . S
O1206 C1176 1.325 . S
O1207 Li1145 1.961 . S
O1207 Li1146 1.970 . S
O1207 Li1147 1.956 . S
O1207 C1182 1.325 . S
H1208 C1150 0.929 . S
H1209 C1151 0.930 . S
H1210 C1152 0.927 . S
H1211 C1153 0.931 1_455 S
H1212 C1155 0.930 . S
H1213 C1157 0.929 . S
H1214 C1158 0.930 . S
H1215 C1159 0.930 1_455 S
H1216 C1162 0.930 . S
H1217 C1165 0.929 . S
H1218 C1170 0.929 . S
H1219 C1171 0.930 . S
H1220 C1178 0.929 . S
H1221 C1179 0.930 . S
H1222 C1180 0.930 . S
H1223 C1181 0.930 . S
H1224 C1183 0.929 . S
H1225 C1184 0.930 . S
H1226 C1185 0.930 . S
H1227 C1186 0.930 . S
H1228 C1190 0.929 . S
H1229 C1192 0.930 . S
H1230 C1198 0.929 . S
H1231 C1199 0.930 . S
Li1232 N1249 1.990 . S
Li1232 O1292 1.956 . S
Li1232 O1293 1.970 . S
Li1232 O1294 1.961 . S
Li1233 N1257 1.990 . S
Li1233 O1292 1.970 . S
Li1233 O1293 1.956 . S
Li1233 O1295 1.961 . S
Li1234 N1279 1.990 . S
Li1234 O1292 1.961 . S
Li1234 O1294 1.956 . S
Li1234 O1295 1.970 . S
Li1235 N1285 1.990 . S
Li1235 O1293 1.961 . S
Li1235 O1294 1.970 . S
Li1235 O1295 1.956 . S
C1236 C1238 1.348 . S
C1236 C1239 1.356 . S
C1236 O1292 1.325 . S
N1237 C1240 1.314 . S
N1237 C1241 1.279 . S
C1238 C1236 1.348 . S
C1238 C1240 1.353 . S
C1238 H1296 0.929 . S
C1239 C1236 1.356 . S
C1239 C1241 1.358 . S
C1239 H1297 0.930 . S
C1240 N1237 1.314 . S
C1240 C1238 1.353 . S
C1240 H1298 0.930 . S
C1241 N1237 1.279 . S
C1241 C1239 1.358 . S
C1241 H1299 0.930 . S
C1242 C1245 1.348 . S
C1242 C1246 1.356 . S
C1242 O1293 1.325 . S
C1243 N1244 1.279 . S
C1243 C1246 1.358 . S
C1243 H1300 0.930 . S
N1244 C1243 1.279 . S
N1244 C1247 1.314 . S
C1245 C1242 1.348 . S
C1245 C1247 1.353 . S
C1245 H1301 0.929 . S
C1246 C1242 1.356 . S
C1246 C1243 1.358 . S
C1246 H1302 0.930 . S
C1247 N1244 1.314 . S
C1247 C1245 1.353 . S
C1247 H1303 0.930 . S
C1248 N1249 1.314 . S
C1248 C1253 1.353 . S
C1248 H1254 0.930 . S
N1249 Li1232 1.990 . S
N1249 C1248 1.314 . S
N1249 C1251 1.279 . S
C1250 C1251 1.358 . S
C1250 C1252 1.356 . S
C1250 H1304 0.930 . S
C1251 N1249 1.279 . S
C1251 C1250 1.358 . S
C1251 H1255 0.930 . S
C1252 C1250 1.356 . S
C1252 C1253 1.348 . S
C1253 C1248 1.353 . S
C1253 C1252 1.348 . S
C1253 H1305 0.929 . S
H1254 C1248 0.930 . S
H1255 C1251 0.930 . S
C1256 N1257 1.314 . S
C1256 C1258 1.353 . S
C1256 H1262 0.930 . S
N1257 Li1233 1.990 . S
N1257 C1256 1.314 . S
N1257 C1260 1.279 . S
C1258 C1256 1.353 . S
C1258 C1261 1.348 . S
C1258 H1306 0.929 . S
C1259 C1260 1.358 . S
C1259 C1261 1.356 . S
C1259 H1307 0.930 . S
C1260 N1257 1.279 . S
C1260 C1259 1.358 . S
C1260 H1263 0.930 . S
C1261 C1258 1.348 . S
C1261 C1259 1.356 . S
H1262 C1256 0.930 . S
H1263 C1260 0.930 . S
C1264 C1266 1.348 . S
C1264 C1267 1.356 . S
C1264 O1294 1.325 . S
N1265 C1268 1.314 . S
N1265 C1269 1.279 . S
C1266 C1264 1.348 . S
C1266 C1268 1.353 . S
C1266 H1308 0.929 . S
C1267 C1264 1.356 . S
C1267 C1269 1.358 . S
C1267 H1309 0.930 . S
C1268 N1265 1.314 . S
C1268 C1266 1.353 . S
C1268 H1310 0.930 . S
C1269 N1265 1.279 . S
C1269 C1267 1.358 . S
C1269 H1311 0.930 . S
C1270 C1271 1.348 . S
C1270 C1272 1.356 . S
C1270 O1295 1.325 . S
C1271 C1270 1.348 . S
C1271 C1273 1.353 . S
C1271 H1312 0.929 . S
C1272 C1270 1.356 . S
C1272 C1274 1.358 . S
C1272 H1313 0.930 . S
C1273 C1271 1.353 . S
C1273 N1275 1.314 . S
C1273 H1314 0.930 . S
C1274 C1272 1.358 . S
C1274 N1275 1.279 . S
C1274 H1315 0.930 . S
N1275 C1273 1.314 . S
N1275 C1274 1.279 . S
C1276 C1278 1.353 . S
C1276 N1279 1.314 . S
C1276 H1282 0.930 . S
C1277 N1279 1.279 . S
C1277 C1280 1.358 . S
C1277 H1283 0.930 . S
C1278 C1276 1.353 . S
C1278 C1281 1.348 . S
C1278 H1316 0.929 . S
N1279 Li1234 1.990 . S
N1279 C1276 1.314 . S
N1279 C1277 1.279 . S
C1280 C1277 1.358 . S
C1280 C1281 1.356 . S
C1280 H1317 0.930 . S
C1281 C1278 1.348 . S
C1281 C1280 1.356 . S
H1282 C1276 0.930 . S
H1283 C1277 0.930 . S
C1284 N1285 1.314 . S
C1284 C1286 1.353 . S
C1284 H1290 0.930 . S
N1285 Li1235 1.990 . S
N1285 C1284 1.314 . S
N1285 C1288 1.279 . S
C1286 C1284 1.353 . S
C1286 C1289 1.348 . S
C1286 H1318 0.929 . S
C1287 C1288 1.358 . S
C1287 C1289 1.356 . S
C1287 H1319 0.930 . S
C1288 N1285 1.279 . S
C1288 C1287 1.358 . S
C1288 H1291 0.930 . S
C1289 C1286 1.348 . S
C1289 C1287 1.356 . S
H1290 C1284 0.930 . S
H1291 C1288 0.930 . S
O1292 Li1232 1.956 . S
O1292 Li1233 1.970 . S
O1292 Li1234 1.961 . S
O1292 C1236 1.325 . S
O1293 Li1232 1.970 . S
O1293 Li1233 1.956 . S
O1293 Li1235 1.961 . S
O1293 C1242 1.325 . S
O1294 Li1232 1.961 . S
O1294 Li1234 1.956 . S
O1294 Li1235 1.970 . S
O1294 C1264 1.325 . S
O1295 Li1233 1.961 . S
O1295 Li1234 1.970 . S
O1295 Li1235 1.956 . S
O1295 C1270 1.325 . S
H1296 C1238 0.929 . S
H1297 C1239 0.930 . S
H1298 C1240 0.930 . S
H1299 C1241 0.930 . S
H1300 C1243 0.930 . S
H1301 C1245 0.929 . S
H1302 C1246 0.930 . S
H1303 C1247 0.930 . S
H1304 C1250 0.930 . S
H1305 C1253 0.929 . S
H1306 C1258 0.929 . S
H1307 C1259 0.930 . S
H1308 C1266 0.929 . S
H1309 C1267 0.930 . S
H1310 C1268 0.930 . S
H1311 C1269 0.930 . S
H1312 C1271 0.929 . S
H1313 C1272 0.930 . S
H1314 C1273 0.930 . S
H1315 C1274 0.930 . S
H1316 C1278 0.929 . S
H1317 C1280 0.930 . S
H1318 C1286 0.929 . S
H1319 C1287 0.930 . S
Li1320 N1337 1.990 . S
Li1320 O1380 1.956 . S
Li1320 O1381 1.970 . S
Li1320 O1382 1.961 . S
Li1321 N1345 1.990 . S
Li1321 O1380 1.970 . S
Li1321 O1381 1.956 . S
Li1321 O1383 1.961 . S
Li1322 N1367 1.990 . S
Li1322 O1380 1.961 . S
Li1322 O1382 1.956 . S
Li1322 O1383 1.970 . S
Li1323 N1373 1.990 . S
Li1323 O1381 1.961 . S
Li1323 O1382 1.970 . S
Li1323 O1383 1.956 . S
C1324 C1326 1.348 . S
C1324 C1327 1.356 . S
C1324 O1380 1.325 . S
N1325 C1328 1.314 . S
N1325 C1329 1.279 . S
C1326 C1324 1.348 . S
C1326 C1328 1.353 . S
C1326 H1384 0.929 . S
C1327 C1324 1.356 . S
C1327 C1329 1.358 . S
C1327 H1385 0.930 . S
C1328 N1325 1.314 . S
C1328 C1326 1.353 . S
C1328 H1386 0.930 . S
C1329 N1325 1.279 . S
C1329 C1327 1.358 . S
C1329 H1387 0.930 . S
C1330 C1333 1.348 . S
C1330 C1334 1.356 . S
C1330 O1381 1.325 . S
C1331 N1332 1.279 . S
C1331 C1334 1.358 . S
C1331 H1388 0.930 . S
N1332 C1331 1.279 . S
N1332 C1335 1.314 . S
C1333 C1330 1.348 . S
C1333 C1335 1.353 . S
C1333 H1389 0.929 . S
C1334 C1330 1.356 . S
C1334 C1331 1.358 . S
C1334 H1390 0.930 . S
C1335 N1332 1.314 . S
C1335 C1333 1.353 . S
C1335 H1391 0.930 . S
C1336 N1337 1.314 . S
C1336 C1341 1.353 . S
C1336 H1342 0.930 . S
N1337 Li1320 1.990 . S
N1337 C1336 1.314 . S
N1337 C1339 1.279 . S
C1338 C1339 1.358 . S
C1338 C1340 1.356 . S
C1338 H1392 0.930 . S
C1339 N1337 1.279 . S
C1339 C1338 1.358 . S
C1339 H1343 0.930 . S
C1340 C1338 1.356 . S
C1340 C1341 1.348 . S
C1341 C1336 1.353 . S
C1341 C1340 1.348 . S
C1341 H1393 0.929 . S
H1342 C1336 0.930 . S
H1343 C1339 0.930 . S
C1344 N1345 1.314 . S
C1344 C1346 1.353 . S
C1344 H1350 0.930 . S
N1345 Li1321 1.990 . S
N1345 C1344 1.314 . S
N1345 C1348 1.279 . S
C1346 C1344 1.353 . S
C1346 C1349 1.348 . S
C1346 H1394 0.929 . S
C1347 C1348 1.358 . S
C1347 C1349 1.356 . S
C1347 H1395 0.930 . S
C1348 N1345 1.279 . S
C1348 C1347 1.358 . S
C1348 H1351 0.930 . S
C1349 C1346 1.348 . S
C1349 C1347 1.356 . S
H1350 C1344 0.930 . S
H1351 C1348 0.930 . S
C1352 C1354 1.348 . S
C1352 C1355 1.356 . S
C1352 O1382 1.325 . S
N1353 C1356 1.314 . S
N1353 C1357 1.279 . S
C1354 C1352 1.348 . S
C1354 C1356 1.353 . S
C1354 H1396 0.929 . S
C1355 C1352 1.356 . S
C1355 C1357 1.358 . S
C1355 H1397 0.930 . S
C1356 N1353 1.314 . S
C1356 C1354 1.353 . S
C1356 H1398 0.930 . S
C1357 N1353 1.279 . S
C1357 C1355 1.358 . S
C1357 H1399 0.930 . S
C1358 C1359 1.348 . S
C1358 C1360 1.356 . S
C1358 O1383 1.325 . S
C1359 C1358 1.348 . S
C1359 C1361 1.353 . S
C1359 H1400 0.929 . S
C1360 C1358 1.356 . S
C1360 C1362 1.358 . S
C1360 H1401 0.930 . S
C1361 C1359 1.353 . S
C1361 N1363 1.314 . S
C1361 H1402 0.930 . S
C1362 C1360 1.358 . S
C1362 N1363 1.279 . S
C1362 H1403 0.930 . S
N1363 C1361 1.314 . S
N1363 C1362 1.279 . S
C1364 C1366 1.353 . S
C1364 N1367 1.314 . S
C1364 H1370 0.930 . S
C1365 N1367 1.279 . S
C1365 C1368 1.358 . S
C1365 H1371 0.930 . S
C1366 C1364 1.353 . S
C1366 C1369 1.348 . S
C1366 H1404 0.929 . S
N1367 Li1322 1.990 . S
N1367 C1364 1.314 . S
N1367 C1365 1.279 . S
C1368 C1365 1.358 . S
C1368 C1369 1.356 . S
C1368 H1405 0.930 . S
C1369 C1366 1.348 . S
C1369 C1368 1.356 . S
H1370 C1364 0.930 . S
H1371 C1365 0.930 . S
C1372 N1373 1.314 . S
C1372 C1374 1.353 . S
C1372 H1378 0.930 . S
N1373 Li1323 1.990 . S
N1373 C1372 1.314 . S
N1373 C1376 1.279 . S
C1374 C1372 1.353 . S
C1374 C1377 1.348 . S
C1374 H1406 0.929 . S
C1375 C1376 1.358 . S
C1375 C1377 1.356 . S
C1375 H1407 0.930 . S
C1376 N1373 1.279 . S
C1376 C1375 1.358 . S
C1376 H1379 0.930 . S
C1377 C1374 1.348 . S
C1377 C1375 1.356 . S
H1378 C1372 0.930 . S
H1379 C1376 0.930 . S
O1380 Li1320 1.956 . S
O1380 Li1321 1.970 . S
O1380 Li1322 1.961 . S
O1380 C1324 1.325 . S
O1381 Li1320 1.970 . S
O1381 Li1321 1.956 . S
O1381 Li1323 1.961 . S
O1381 C1330 1.325 . S
O1382 Li1320 1.961 . S
O1382 Li1322 1.956 . S
O1382 Li1323 1.970 . S
O1382 C1352 1.325 . S
O1383 Li1321 1.961 . S
O1383 Li1322 1.970 . S
O1383 Li1323 1.956 . S
O1383 C1358 1.325 . S
H1384 C1326 0.929 . S
H1385 C1327 0.930 . S
H1386 C1328 0.930 . S
H1387 C1329 0.930 . S
H1388 C1331 0.930 . S
H1389 C1333 0.929 . S
H1390 C1334 0.930 . S
H1391 C1335 0.930 . S
H1392 C1338 0.930 . S
H1393 C1341 0.929 . S
H1394 C1346 0.929 . S
H1395 C1347 0.930 . S
H1396 C1354 0.929 . S
H1397 C1355 0.930 . S
H1398 C1356 0.930 . S
H1399 C1357 0.930 . S
H1400 C1359 0.929 . S
H1401 C1360 0.930 . S
H1402 C1361 0.930 . S
H1403 C1362 0.930 . S
H1404 C1366 0.929 . S
H1405 C1368 0.930 . S
H1406 C1374 0.929 . S
H1407 C1375 0.930 . S
Li1408 N1425 1.990 . S
Li1408 O1468 1.956 . S
Li1408 O1469 1.970 . S
Li1408 O1470 1.961 . S
Li1409 N1433 1.990 . S
Li1409 O1468 1.970 . S
Li1409 O1469 1.956 . S
Li1409 O1471 1.961 . S
Li1410 N1455 1.990 . S
Li1410 O1468 1.961 . S
Li1410 O1470 1.956 . S
Li1410 O1471 1.970 . S
Li1411 N1461 2.069 . S
Li1411 O1469 1.961 . S
Li1411 O1470 1.970 . S
Li1411 O1471 1.956 . S
C1412 C1414 1.348 . S
C1412 C1415 1.356 . S
C1412 O1468 1.325 . S
N1413 C1416 1.314 . S
N1413 C1417 1.279 . S
C1414 C1412 1.348 . S
C1414 C1416 1.353 . S
C1414 H1472 0.929 . S
C1415 C1412 1.356 . S
C1415 C1417 1.358 . S
C1415 H1473 0.930 . S
C1416 N1413 1.314 . S
C1416 C1414 1.353 . S
C1416 H1474 0.930 . S
C1417 N1413 1.279 . S
C1417 C1415 1.358 . S
C1417 H1475 0.930 . S
C1418 C1421 1.348 . S
C1418 C1422 1.356 . S
C1418 O1469 1.325 . S
C1419 N1420 1.245 . S
C1419 C1422 1.313 1_565 S
C1419 H1476 1.028 . S
N1420 C1419 1.245 . S
N1420 C1423 1.314 1_565 S
C1421 C1418 1.348 . S
C1421 C1423 1.353 . S
C1421 H1477 0.929 . S
C1422 C1418 1.356 . S
C1422 C1419 1.313 1_545 S
C1422 H1478 0.930 . S
C1423 N1420 1.314 1_545 S
C1423 C1421 1.353 . S
C1423 H1479 0.930 . S
C1424 N1425 1.314 . S
C1424 C1429 1.353 . S
C1424 H1430 0.930 . S
N1425 Li1408 1.990 . S
N1425 C1424 1.314 . S
N1425 C1427 1.279 . S
C1426 C1427 1.358 . S
C1426 C1428 1.356 . S
C1426 H1480 0.930 . S
C1427 N1425 1.279 . S
C1427 C1426 1.358 . S
C1427 H1431 0.930 . S
C1428 C1426 1.356 . S
C1428 C1429 1.348 . S
C1429 C1424 1.353 . S
C1429 C1428 1.348 . S
C1429 H1481 0.929 . S
H1430 C1424 0.930 . S
H1431 C1427 0.930 . S
C1432 N1433 1.314 . S
C1432 C1434 1.353 . S
C1432 H1438 0.930 . S
N1433 Li1409 1.990 . S
N1433 C1432 1.314 . S
N1433 C1436 1.279 . S
C1434 C1432 1.353 . S
C1434 C1437 1.348 . S
C1434 H1482 0.929 . S
C1435 C1436 1.358 . S
C1435 C1437 1.356 . S
C1435 H1483 0.930 . S
C1436 N1433 1.279 . S
C1436 C1435 1.358 . S
C1436 H1439 0.930 . S
C1437 C1434 1.348 . S
C1437 C1435 1.356 . S
H1438 C1432 0.930 . S
H1439 C1436 0.930 . S
C1440 C1442 1.348 . S
C1440 C1443 1.356 . S
C1440 O1470 1.325 . S
N1441 C1444 1.314 . S
N1441 C1445 1.279 . S
C1442 C1440 1.348 . S
C1442 C1444 1.353 . S
C1442 H1484 0.929 . S
C1443 C1440 1.356 . S
C1443 C1445 1.358 . S
C1443 H1485 0.930 . S
C1444 N1441 1.314 . S
C1444 C1442 1.353 . S
C1444 H1486 0.937 . S
C1445 N1441 1.279 . S
C1445 C1443 1.358 . S
C1445 H1487 0.930 . S
C1446 C1447 1.348 . S
C1446 C1448 1.356 . S
C1446 O1471 1.325 . S
C1447 C1446 1.348 . S
C1447 C1449 1.353 . S
C1447 H1488 0.929 . S
C1448 C1446 1.356 . S
C1448 C1450 1.358 . S
C1448 H1489 0.930 . S
C1449 C1447 1.353 . S
C1449 N1451 1.314 . S
C1449 H1490 0.930 . S
C1450 C1448 1.358 . S
C1450 N1451 1.279 . S
C1450 H1491 0.930 . S
N1451 C1449 1.314 . S
N1451 C1450 1.279 . S
C1452 C1454 1.353 . S
C1452 N1455 1.314 . S
C1452 H1458 0.930 . S
C1453 N1455 1.279 . S
C1453 C1456 1.358 . S
C1453 H1459 0.930 . S
C1454 C1452 1.353 . S
C1454 C1457 1.348 . S
C1454 H1492 0.929 . S
N1455 Li1410 1.990 . S
N1455 C1452 1.314 . S
N1455 C1453 1.279 . S
C1456 C1453 1.358 . S
C1456 C1457 1.356 . S
C1456 H1493 0.930 . S
C1457 C1454 1.348 . S
C1457 C1456 1.356 . S
H1458 C1452 0.930 . S
H1459 C1453 0.930 . S
C1460 N1461 1.276 1_565 S
C1460 C1462 1.353 . S
C1460 H1466 0.930 . S
N1461 Li1411 2.069 . S
N1461 C1460 1.276 1_545 S
N1461 C1464 1.234 1_545 S
C1462 C1460 1.353 . S
C1462 C1465 1.348 . S
C1462 H1494 0.929 . S
C1463 C1464 1.358 . S
C1463 C1465 1.356 . S
C1463 H1495 0.930 . S
C1464 N1461 1.234 1_565 S
C1464 C1463 1.358 . S
C1464 H1467 0.930 1_565 S
C1465 C1462 1.348 . S
C1465 C1463 1.356 . S
H1466 C1460 0.930 . S
H1467 C1464 0.930 1_545 S
O1468 Li1408 1.956 . S
O1468 Li1409 1.970 . S
O1468 Li1410 1.961 . S
O1468 C1412 1.325 . S
O1469 Li1408 1.970 . S
O1469 Li1409 1.956 . S
O1469 Li1411 1.961 . S
O1469 C1418 1.325 . S
O1470 Li1408 1.961 . S
O1470 Li1410 1.956 . S
O1470 Li1411 1.970 . S
O1470 C1440 1.325 . S
O1471 Li1409 1.961 . S
O1471 Li1410 1.970 . S
O1471 Li1411 1.956 . S
O1471 C1446 1.325 . S
H1472 C1414 0.929 . S
H1473 C1415 0.930 . S
H1474 C1416 0.930 . S
H1475 C1417 0.930 . S
H1476 C1419 1.028 . S
H1477 C1421 0.929 . S
H1478 C1422 0.930 . S
H1479 C1423 0.930 . S
H1480 C1426 0.930 . S
H1481 C1429 0.929 . S
H1482 C1434 0.929 . S
H1483 C1435 0.930 . S
H1484 C1442 0.929 . S
H1485 C1443 0.930 . S
H1486 C1444 0.937 . S
H1487 C1445 0.930 . S
H1488 C1447 0.929 . S
H1489 C1448 0.930 . S
H1490 C1449 0.930 . S
H1491 C1450 0.930 . S
H1492 C1454 0.929 . S
H1493 C1456 0.930 . S
H1494 C1462 0.929 . S
H1495 C1463 0.930 . S
Li1496 N1513 1.990 . S
Li1496 O1556 1.956 . S
Li1496 O1557 1.970 . S
Li1496 O1558 1.961 . S
Li1497 N1521 1.990 . S
Li1497 O1556 1.970 . S
Li1497 O1557 1.956 . S
Li1497 O1559 1.961 . S
Li1498 N1543 2.040 . S
Li1498 O1556 1.961 . S
Li1498 O1558 1.956 . S
Li1498 O1559 1.970 . S
Li1499 N1549 1.990 . S
Li1499 O1557 1.961 . S
Li1499 O1558 1.970 . S
Li1499 O1559 1.956 . S
C1500 C1502 1.348 . S
C1500 C1503 1.356 . S
C1500 O1556 1.325 . S
N1501 C1504 1.314 1_455 S
N1501 C1505 1.320 . S
C1502 C1500 1.348 . S
C1502 C1504 1.353 . S
C1502 H1560 0.929 . S
C1503 C1500 1.356 . S
C1503 C1505 1.314 1_655 S
C1503 H1561 0.930 . S
C1504 N1501 1.314 1_655 S
C1504 C1502 1.353 . S
C1504 H1562 0.930 . S
C1505 N1501 1.320 . S
C1505 C1503 1.314 1_455 S
C1505 H1563 0.943 . S
C1506 C1509 1.348 . S
C1506 C1510 1.356 . S
C1506 O1557 1.325 . S
C1507 N1508 1.279 . S
C1507 C1510 1.358 . S
C1507 H1564 0.930 . S
N1508 C1507 1.279 . S
N1508 C1511 1.314 . S
C1509 C1506 1.348 . S
C1509 C1511 1.353 . S
C1509 H1565 0.929 . S
C1510 C1506 1.356 . S
C1510 C1507 1.358 . S
C1510 H1566 0.930 . S
C1511 N1508 1.314 . S
C1511 C1509 1.353 . S
C1511 H1567 0.930 . S
C1512 N1513 1.314 . S
C1512 C1517 1.353 . S
C1512 H1518 0.930 . S
N1513 Li1496 1.990 . S
N1513 C1512 1.314 . S
N1513 C1515 1.279 . S
C1514 C1515 1.358 . S
C1514 C1516 1.356 . S
C1514 H1568 0.930 . S
C1515 N1513 1.279 . S
C1515 C1514 1.358 . S
C1515 H1519 0.930 . S
C1516 C1514 1.356 . S
C1516 C1517 1.348 . S
C1517 C1512 1.353 . S
C1517 C1516 1.348 . S
C1517 H1569 0.929 . S
H1518 C1512 0.930 . S
H1519 C1515 0.930 . S
C1520 N1521 1.314 . S
C1520 C1522 1.353 . S
C1520 H1526 0.930 . S
N1521 Li1497 1.990 . S
N1521 C1520 1.314 . S
N1521 C1524 1.279 . S
C1522 C1520 1.353 . S
C1522 C1525 1.348 . S
C1522 H1570 0.929 . S
C1523 C1524 1.358 . S
C1523 C1525 1.356 . S
C1523 H1571 0.930 . S
C1524 N1521 1.279 . S
C1524 C1523 1.358 . S
C1524 H1527 0.930 . S
C1525 C1522 1.348 . S
C1525 C1523 1.356 . S
H1526 C1520 0.930 . S
H1527 C1524 0.930 . S
C1528 C1530 1.348 . S
C1528 C1531 1.356 . S
C1528 O1558 1.325 . S
N1529 C1532 1.314 . S
N1529 C1533 1.279 . S
C1530 C1528 1.348 . S
C1530 C1532 1.353 . S
C1530 H1572 0.929 . S
C1531 C1528 1.356 . S
C1531 C1533 1.358 . S
C1531 H1573 0.930 . S
C1532 N1529 1.314 . S
C1532 C1530 1.353 . S
C1532 H1574 0.930 . S
C1533 N1529 1.279 . S
C1533 C1531 1.358 . S
C1533 H1575 0.930 . S
C1534 C1535 1.348 . S
C1534 C1536 1.356 . S
C1534 O1559 1.325 . S
C1535 C1534 1.348 . S
C1535 C1537 1.353 . S
C1535 H1576 0.929 . S
C1536 C1534 1.356 . S
C1536 C1538 1.358 . S
C1536 H1577 0.930 . S
C1537 C1535 1.353 . S
C1537 N1539 1.314 . S
C1537 H1578 0.928 . S
C1538 C1536 1.358 . S
C1538 N1539 1.279 . S
C1538 H1579 0.930 . S
N1539 C1537 1.314 . S
N1539 C1538 1.279 . S
C1540 C1542 1.353 . S
C1540 N1543 1.231 1_455 S
C1540 H1546 0.930 . S
C1541 N1543 1.305 1_455 S
C1541 C1544 1.358 . S
C1541 H1547 0.930 1_455 S
C1542 C1540 1.353 . S
C1542 C1545 1.348 . S
C1542 H1580 0.929 . S
N1543 Li1498 2.040 . S
N1543 C1540 1.231 1_655 S
N1543 C1541 1.305 1_655 S
C1544 C1541 1.358 . S
C1544 C1545 1.356 . S
C1544 H1581 0.930 . S
C1545 C1542 1.348 . S
C1545 C1544 1.356 . S
H1546 C1540 0.930 . S
H1547 C1541 0.930 1_655 S
C1548 N1549 1.314 . S
C1548 C1550 1.353 . S
C1548 H1554 0.930 . S
N1549 Li1499 1.990 . S
N1549 C1548 1.314 . S
N1549 C1552 1.279 . S
C1550 C1548 1.353 . S
C1550 C1553 1.348 . S
C1550 H1582 0.929 . S
C1551 C1552 1.358 . S
C1551 C1553 1.356 . S
C1551 H1583 0.930 . S
C1552 N1549 1.279 . S
C1552 C1551 1.358 . S
C1552 H1555 0.930 . S
C1553 C1550 1.348 . S
C1553 C1551 1.356 . S
H1554 C1548 0.930 . S
H1555 C1552 0.930 . S
O1556 Li1496 1.956 . S
O1556 Li1497 1.970 . S
O1556 Li1498 1.961 . S
O1556 C1500 1.325 . S
O1557 Li1496 1.970 . S
O1557 Li1497 1.956 . S
O1557 Li1499 1.961 . S
O1557 C1506 1.325 . S
O1558 Li1496 1.961 . S
O1558 Li1498 1.956 . S
O1558 Li1499 1.970 . S
O1558 C1528 1.325 . S
O1559 Li1497 1.961 . S
O1559 Li1498 1.970 . S
O1559 Li1499 1.956 . S
O1559 C1534 1.325 . S
H1560 C1502 0.929 . S
H1561 C1503 0.930 . S
H1562 C1504 0.930 . S
H1563 C1505 0.943 . S
H1564 C1507 0.930 . S
H1565 C1509 0.929 . S
H1566 C1510 0.930 . S
H1567 C1511 0.930 . S
H1568 C1514 0.930 . S
H1569 C1517 0.929 . S
H1570 C1522 0.929 . S
H1571 C1523 0.930 . S
H1572 C1530 0.929 . S
H1573 C1531 0.930 . S
H1574 C1532 0.930 . S
H1575 C1533 0.930 . S
H1576 C1535 0.929 . S
H1577 C1536 0.930 . S
H1578 C1537 0.928 . S
H1579 C1538 0.930 . S
H1580 C1542 0.929 . S
H1581 C1544 0.930 . S
H1582 C1550 0.929 . S
H1583 C1551 0.930 . S
H1584 C1611 0.929 . S
N1585 C1610 1.433 . S
N1585 C1616 1.435 . S
N1585 C1622 1.423 . S
H1586 C1612 0.930 . S
H1587 C1615 0.931 . S
H1588 C1614 0.929 . S
H1589 C1617 0.930 . S
H1590 C1618 0.932 . S
H1591 C1621 0.929 . S
H1592 C1620 0.931 . S
H1593 C1623 0.929 . S
H1594 C1627 0.932 . S
H1595 C1624 0.931 . S
H1596 C1626 0.929 . S
H1597 C1629 0.929 . S
H1598 C1630 0.930 . S
H1599 C1632 0.929 . S
H1600 C1633 0.931 . S
H1601 C1635 0.930 . S
H1602 C1636 0.932 . S
H1603 C1638 0.931 . S
H1604 C1639 0.929 . S
H1605 C1641 0.929 . S
H1606 C1642 0.931 . S
H1607 C1644 0.929 . S
N1608 C1628 1.433 . S
N1608 C1634 1.435 . S
N1608 C1640 1.423 . S
H1609 C1645 0.932 . S
C1610 N1585 1.433 . S
C1610 C1611 1.363 . S
C1610 C1615 1.370 . S
C1611 H1584 0.929 . S
C1611 C1610 1.363 . S
C1611 C1612 1.385 . S
C1612 H1586 0.930 . S
C1612 C1611 1.385 . S
C1612 C1613 1.357 . S
C1613 C1612 1.357 . S
C1613 C1614 1.406 . S
C1614 H1588 0.929 . S
C1614 C1613 1.406 . S
C1614 C1615 1.391 . S
C1615 H1587 0.931 . S
C1615 C1610 1.370 . S
C1615 C1614 1.391 . S
C1616 N1585 1.435 . S
C1616 C1617 1.358 . S
C1616 C1621 1.371 . S
C1617 H1589 0.930 . S
C1617 C1616 1.358 . S
C1617 C1618 1.405 . S
C1618 H1590 0.932 . S
C1618 C1617 1.405 . S
C1618 C1619 1.383 . S
C1619 C1618 1.383 . S
C1619 C1620 1.393 . S
C1620 H1592 0.931 . S
C1620 C1619 1.393 . S
C1620 C1621 1.382 . S
C1621 H1591 0.929 . S
C1621 C1616 1.371 . S
C1621 C1620 1.382 . S
C1622 N1585 1.423 . S
C1622 C1623 1.362 . S
C1622 C1627 1.388 . S
C1623 H1593 0.929 . S
C1623 C1622 1.362 . S
C1623 C1624 1.376 . S
C1624 H1595 0.931 . S
C1624 C1623 1.376 . S
C1624 C1625 1.396 . S
C1625 C1624 1.396 . S
C1625 C1626 1.348 . S
C1625 C1643 1.472 . S
C1626 H1596 0.929 . S
C1626 C1625 1.348 . S
C1626 C1627 1.443 . S
C1627 H1594 0.932 . S
C1627 C1622 1.388 . S
C1627 C1626 1.443 . S
C1628 N1608 1.433 . S
C1628 C1629 1.363 . S
C1628 C1633 1.370 . S
C1629 H1597 0.929 . S
C1629 C1628 1.363 . S
C1629 C1630 1.385 . S
C1630 H1598 0.930 . S
C1630 C1629 1.385 . S
C1630 C1631 1.357 . S
C1631 C1630 1.357 . S
C1631 C1632 1.406 . S
C1632 H1599 0.929 . S
C1632 C1631 1.406 . S
C1632 C1633 1.391 . S
C1633 H1600 0.931 . S
C1633 C1628 1.370 . S
C1633 C1632 1.391 . S
C1634 N1608 1.435 . S
C1634 C1635 1.358 . S
C1634 C1639 1.371 . S
C1635 H1601 0.930 . S
C1635 C1634 1.358 . S
C1635 C1636 1.405 . S
C1636 H1602 0.932 . S
C1636 C1635 1.405 . S
C1636 C1637 1.383 . S
C1637 C1636 1.383 . S
C1637 C1638 1.393 . S
C1638 H1603 0.931 . S
C1638 C1637 1.393 . S
C1638 C1639 1.382 . S
C1639 H1604 0.929 . S
C1639 C1634 1.371 . S
C1639 C1638 1.382 . S
C1640 N1608 1.423 . S
C1640 C1641 1.362 . S
C1640 C1645 1.388 . S
C1641 H1605 0.929 . S
C1641 C1640 1.362 . S
C1641 C1642 1.376 . S
C1642 H1606 0.931 . S
C1642 C1641 1.376 . S
C1642 C1643 1.396 . S
C1643 C1625 1.472 . S
C1643 C1642 1.396 . S
C1643 C1644 1.348 . S
C1644 H1607 0.929 . S
C1644 C1643 1.348 . S
C1644 C1645 1.443 . S
C1645 H1609 0.932 . S
C1645 C1640 1.388 . S
C1645 C1644 1.443 . S
H1646 C1673 0.929 . S
N1647 C1672 1.433 . S
N1647 C1678 1.435 . S
N1647 C1684 1.423 . S
H1648 C1674 0.930 . S
H1649 C1677 0.931 . S
H1650 C1676 0.929 . S
H1651 C1679 0.930 . S
H1652 C1680 0.932 . S
H1653 C1683 0.929 . S
H1654 C1682 0.931 . S
H1655 C1685 0.929 . S
H1656 C1689 0.932 . S
H1657 C1686 0.931 . S
H1658 C1688 0.929 . S
H1659 C1691 0.929 . S
H1660 C1692 0.930 . S
H1661 C1694 0.929 . S
H1662 C1695 0.931 . S
H1663 C1697 0.930 . S
H1664 C1698 0.932 . S
H1665 C1700 0.931 . S
H1666 C1701 0.929 . S
H1667 C1703 0.929 . S
H1668 C1704 0.931 . S
H1669 C1706 0.929 . S
N1670 C1690 1.433 . S
N1670 C1696 1.435 . S
N1670 C1702 1.423 . S
H1671 C1707 0.932 . S
C1672 N1647 1.433 . S
C1672 C1673 1.363 . S
C1672 C1677 1.370 . S
C1673 H1646 0.929 . S
C1673 C1672 1.363 . S
C1673 C1674 1.385 . S
C1674 H1648 0.930 . S
C1674 C1673 1.385 . S
C1674 C1675 1.357 . S
C1675 C1674 1.357 . S
C1675 C1676 1.406 . S
C1676 H1650 0.929 . S
C1676 C1675 1.406 . S
C1676 C1677 1.391 . S
C1677 H1649 0.931 . S
C1677 C1672 1.370 . S
C1677 C1676 1.391 . S
C1678 N1647 1.435 . S
C1678 C1679 1.358 . S
C1678 C1683 1.371 . S
C1679 H1651 0.930 . S
C1679 C1678 1.358 . S
C1679 C1680 1.405 . S
C1680 H1652 0.932 . S
C1680 C1679 1.405 . S
C1680 C1681 1.383 . S
C1681 C1680 1.383 . S
C1681 C1682 1.393 . S
C1682 H1654 0.931 . S
C1682 C1681 1.393 . S
C1682 C1683 1.382 . S
C1683 H1653 0.929 . S
C1683 C1678 1.371 . S
C1683 C1682 1.382 . S
C1684 N1647 1.423 . S
C1684 C1685 1.362 . S
C1684 C1689 1.388 . S
C1685 H1655 0.929 . S
C1685 C1684 1.362 . S
C1685 C1686 1.376 . S
C1686 H1657 0.931 . S
C1686 C1685 1.376 . S
C1686 C1687 1.396 . S
C1687 C1686 1.396 . S
C1687 C1688 1.348 . S
C1687 C1705 1.472 . S
C1688 H1658 0.929 . S
C1688 C1687 1.348 . S
C1688 C1689 1.443 . S
C1689 H1656 0.932 . S
C1689 C1684 1.388 . S
C1689 C1688 1.443 . S
C1690 N1670 1.433 . S
C1690 C1691 1.363 . S
C1690 C1695 1.370 . S
C1691 H1659 0.929 . S
C1691 C1690 1.363 . S
C1691 C1692 1.385 . S
C1692 H1660 0.930 . S
C1692 C1691 1.385 . S
C1692 C1693 1.357 . S
C1693 C1692 1.357 . S
C1693 C1694 1.406 . S
C1694 H1661 0.929 . S
C1694 C1693 1.406 . S
C1694 C1695 1.391 . S
C1695 H1662 0.931 . S
C1695 C1690 1.370 . S
C1695 C1694 1.391 . S
C1696 N1670 1.435 . S
C1696 C1697 1.358 . S
C1696 C1701 1.371 . S
C1697 H1663 0.930 . S
C1697 C1696 1.358 . S
C1697 C1698 1.405 . S
C1698 H1664 0.932 . S
C1698 C1697 1.405 . S
C1698 C1699 1.383 . S
C1699 C1698 1.383 . S
C1699 C1700 1.393 . S
C1700 H1665 0.931 . S
C1700 C1699 1.393 . S
C1700 C1701 1.382 . S
C1701 H1666 0.929 . S
C1701 C1696 1.371 . S
C1701 C1700 1.382 . S
C1702 N1670 1.423 . S
C1702 C1703 1.362 . S
C1702 C1707 1.388 . S
C1703 H1667 0.929 . S
C1703 C1702 1.362 . S
C1703 C1704 1.376 . S
C1704 H1668 0.931 . S
C1704 C1703 1.376 . S
C1704 C1705 1.396 . S
C1705 C1687 1.472 . S
C1705 C1704 1.396 . S
C1705 C1706 1.348 . S
C1706 H1669 0.929 . S
C1706 C1705 1.348 . S
C1706 C1707 1.443 . S
C1707 H1671 0.932 . S
C1707 C1702 1.388 . S
C1707 C1706 1.443 . S
H1708 C1735 0.929 . S
N1709 C1734 1.433 . S
N1709 C1740 1.435 . S
N1709 C1746 1.423 . S
H1710 C1736 0.930 . S
H1711 C1739 0.931 . S
H1712 C1738 0.929 . S
H1713 C1741 0.930 . S
H1714 C1742 0.932 . S
H1715 C1745 0.929 . S
H1716 C1744 0.931 . S
H1717 C1747 0.929 . S
H1718 C1751 0.932 . S
H1719 C1748 0.931 . S
H1720 C1750 0.929 . S
H1721 C1753 0.929 . S
H1722 C1754 0.930 . S
H1723 C1756 0.929 . S
H1724 C1757 0.931 . S
H1725 C1759 0.930 . S
H1726 C1760 0.932 . S
H1727 C1762 0.931 . S
H1728 C1763 0.929 . S
H1729 C1765 0.929 . S
H1730 C1766 0.931 . S
H1731 C1768 0.929 . S
N1732 C1752 1.433 . S
N1732 C1758 1.435 . S
N1732 C1764 1.423 . S
H1733 C1769 0.932 . S
C1734 N1709 1.433 . S
C1734 C1735 1.363 . S
C1734 C1739 1.370 . S
C1735 H1708 0.929 . S
C1735 C1734 1.363 . S
C1735 C1736 1.385 . S
C1736 H1710 0.930 . S
C1736 C1735 1.385 . S
C1736 C1737 1.357 . S
C1737 C1736 1.357 . S
C1737 C1738 1.406 . S
C1738 H1712 0.929 . S
C1738 C1737 1.406 . S
C1738 C1739 1.391 . S
C1739 H1711 0.931 . S
C1739 C1734 1.370 . S
C1739 C1738 1.391 . S
C1740 N1709 1.435 . S
C1740 C1741 1.358 . S
C1740 C1745 1.371 . S
C1741 H1713 0.930 . S
C1741 C1740 1.358 . S
C1741 C1742 1.405 . S
C1742 H1714 0.932 . S
C1742 C1741 1.405 . S
C1742 C1743 1.383 . S
C1743 C1742 1.383 . S
C1743 C1744 1.393 . S
C1744 H1716 0.931 . S
C1744 C1743 1.393 . S
C1744 C1745 1.382 . S
C1745 H1715 0.929 . S
C1745 C1740 1.371 . S
C1745 C1744 1.382 . S
C1746 N1709 1.423 . S
C1746 C1747 1.362 . S
C1746 C1751 1.388 . S
C1747 H1717 0.929 . S
C1747 C1746 1.362 . S
C1747 C1748 1.376 . S
C1748 H1719 0.931 . S
C1748 C1747 1.376 . S
C1748 C1749 1.396 . S
C1749 C1748 1.396 . S
C1749 C1750 1.348 . S
C1749 C1767 1.472 . S
C1750 H1720 0.929 . S
C1750 C1749 1.348 . S
C1750 C1751 1.443 . S
C1751 H1718 0.932 . S
C1751 C1746 1.388 . S
C1751 C1750 1.443 . S
C1752 N1732 1.433 . S
C1752 C1753 1.363 . S
C1752 C1757 1.370 . S
C1753 H1721 0.929 . S
C1753 C1752 1.363 . S
C1753 C1754 1.385 . S
C1754 H1722 0.930 . S
C1754 C1753 1.385 . S
C1754 C1755 1.357 . S
C1755 C1754 1.357 . S
C1755 C1756 1.406 . S
C1756 H1723 0.929 . S
C1756 C1755 1.406 . S
C1756 C1757 1.391 . S
C1757 H1724 0.931 . S
C1757 C1752 1.370 . S
C1757 C1756 1.391 . S
C1758 N1732 1.435 . S
C1758 C1759 1.358 . S
C1758 C1763 1.371 . S
C1759 H1725 0.930 . S
C1759 C1758 1.358 . S
C1759 C1760 1.405 . S
C1760 H1726 0.932 . S
C1760 C1759 1.405 . S
C1760 C1761 1.383 . S
C1761 C1760 1.383 . S
C1761 C1762 1.393 . S
C1762 H1727 0.931 . S
C1762 C1761 1.393 . S
C1762 C1763 1.382 . S
C1763 H1728 0.929 . S
C1763 C1758 1.371 . S
C1763 C1762 1.382 . S
C1764 N1732 1.423 . S
C1764 C1765 1.362 . S
C1764 C1769 1.388 . S
C1765 H1729 0.929 . S
C1765 C1764 1.362 . S
C1765 C1766 1.376 . S
C1766 H1730 0.931 . S
C1766 C1765 1.376 . S
C1766 C1767 1.396 . S
C1767 C1749 1.472 . S
C1767 C1766 1.396 . S
C1767 C1768 1.348 . S
C1768 H1731 0.929 . S
C1768 C1767 1.348 . S
C1768 C1769 1.443 . S
C1769 H1733 0.932 . S
C1769 C1764 1.388 . S
C1769 C1768 1.443 . S
H1770 C1797 0.929 . S
N1771 C1796 1.433 . S
N1771 C1802 1.435 . S
N1771 C1808 1.423 . S
H1772 C1798 0.930 . S
H1773 C1801 0.931 . S
H1774 C1800 0.929 . S
H1775 C1803 0.930 . S
H1776 C1804 0.932 . S
H1777 C1807 0.929 . S
H1778 C1806 0.931 . S
H1779 C1809 0.929 . S
H1780 C1813 0.932 . S
H1781 C1810 0.931 . S
H1782 C1812 0.929 . S
H1783 C1815 0.929 . S
H1784 C1816 0.930 . S
H1785 C1818 0.929 . S
H1786 C1819 0.931 . S
H1787 C1821 0.930 . S
H1788 C1822 0.932 . S
H1789 C1824 0.931 . S
H1790 C1825 0.929 . S
H1791 C1827 0.929 . S
H1792 C1828 0.931 . S
H1793 C1830 0.929 . S
N1794 C1814 1.433 . S
N1794 C1820 1.435 . S
N1794 C1826 1.423 . S
H1795 C1831 0.932 . S
C1796 N1771 1.433 . S
C1796 C1797 1.363 . S
C1796 C1801 1.370 . S
C1797 H1770 0.929 . S
C1797 C1796 1.363 . S
C1797 C1798 1.385 . S
C1798 H1772 0.930 . S
C1798 C1797 1.385 . S
C1798 C1799 1.357 . S
C1799 C1798 1.357 . S
C1799 C1800 1.406 . S
C1800 H1774 0.929 . S
C1800 C1799 1.406 . S
C1800 C1801 1.391 . S
C1801 H1773 0.931 . S
C1801 C1796 1.370 . S
C1801 C1800 1.391 . S
C1802 N1771 1.435 . S
C1802 C1803 1.358 . S
C1802 C1807 1.371 . S
C1803 H1775 0.930 . S
C1803 C1802 1.358 . S
C1803 C1804 1.405 . S
C1804 H1776 0.932 . S
C1804 C1803 1.405 . S
C1804 C1805 1.383 . S
C1805 C1804 1.383 . S
C1805 C1806 1.393 . S
C1806 H1778 0.931 . S
C1806 C1805 1.393 . S
C1806 C1807 1.382 . S
C1807 H1777 0.929 . S
C1807 C1802 1.371 . S
C1807 C1806 1.382 . S
C1808 N1771 1.423 . S
C1808 C1809 1.362 . S
C1808 C1813 1.388 . S
C1809 H1779 0.929 . S
C1809 C1808 1.362 . S
C1809 C1810 1.376 . S
C1810 H1781 0.931 . S
C1810 C1809 1.376 . S
C1810 C1811 1.396 . S
C1811 C1810 1.396 . S
C1811 C1812 1.348 . S
C1811 C1829 1.472 . S
C1812 H1782 0.929 . S
C1812 C1811 1.348 . S
C1812 C1813 1.443 . S
C1813 H1780 0.932 . S
C1813 C1808 1.388 . S
C1813 C1812 1.443 . S
C1814 N1794 1.433 . S
C1814 C1815 1.363 . S
C1814 C1819 1.370 . S
C1815 H1783 0.929 . S
C1815 C1814 1.363 . S
C1815 C1816 1.385 . S
C1816 H1784 0.930 . S
C1816 C1815 1.385 . S
C1816 C1817 1.357 . S
C1817 C1816 1.357 . S
C1817 C1818 1.406 . S
C1818 H1785 0.929 . S
C1818 C1817 1.406 . S
C1818 C1819 1.391 . S
C1819 H1786 0.931 . S
C1819 C1814 1.370 . S
C1819 C1818 1.391 . S
C1820 N1794 1.435 . S
C1820 C1821 1.358 . S
C1820 C1825 1.371 . S
C1821 H1787 0.930 . S
C1821 C1820 1.358 . S
C1821 C1822 1.405 . S
C1822 H1788 0.932 . S
C1822 C1821 1.405 . S
C1822 C1823 1.383 . S
C1823 C1822 1.383 . S
C1823 C1824 1.393 . S
C1824 H1789 0.931 . S
C1824 C1823 1.393 . S
C1824 C1825 1.382 . S
C1825 H1790 0.929 . S
C1825 C1820 1.371 . S
C1825 C1824 1.382 . S
C1826 N1794 1.423 . S
C1826 C1827 1.362 . S
C1826 C1831 1.388 . S
C1827 H1791 0.929 . S
C1827 C1826 1.362 . S
C1827 C1828 1.376 . S
C1828 H1792 0.931 . S
C1828 C1827 1.376 . S
C1828 C1829 1.396 . S
C1829 C1811 1.472 . S
C1829 C1828 1.396 . S
C1829 C1830 1.348 . S
C1830 H1793 0.929 . S
C1830 C1829 1.348 . S
C1830 C1831 1.443 . S
C1831 H1795 0.932 . S
C1831 C1826 1.388 . S
C1831 C1830 1.443 . S
H1832 C1859 0.929 . S
N1833 C1858 1.433 . S
N1833 C1864 1.435 . S
N1833 C1870 1.423 . S
H1834 C1860 0.930 . S
H1835 C1863 0.931 . S
H1836 C1862 0.929 . S
H1837 C1865 0.930 . S
H1838 C1866 0.932 . S
H1839 C1869 0.929 . S
H1840 C1868 0.931 . S
H1841 C1871 0.929 . S
H1842 C1875 0.932 . S
H1843 C1872 0.931 . S
H1844 C1874 0.929 . S
H1845 C1877 0.929 . S
H1846 C1878 0.930 . S
H1847 C1880 0.929 . S
H1848 C1881 0.931 . S
H1849 C1883 0.930 . S
H1850 C1884 0.932 . S
H1851 C1886 0.931 . S
H1852 C1887 0.929 . S
H1853 C1889 0.929 . S
H1854 C1890 0.931 . S
H1855 C1892 0.929 . S
N1856 C1876 1.433 . S
N1856 C1882 1.435 . S
N1856 C1888 1.423 . S
H1857 C1893 0.932 . S
C1858 N1833 1.433 . S
C1858 C1859 1.363 . S
C1858 C1863 1.370 . S
C1859 H1832 0.929 . S
C1859 C1858 1.363 . S
C1859 C1860 1.385 . S
C1860 H1834 0.930 . S
C1860 C1859 1.385 . S
C1860 C1861 1.357 . S
C1861 C1860 1.357 . S
C1861 C1862 1.406 . S
C1862 H1836 0.929 . S
C1862 C1861 1.406 . S
C1862 C1863 1.391 . S
C1863 H1835 0.931 . S
C1863 C1858 1.370 . S
C1863 C1862 1.391 . S
C1864 N1833 1.435 . S
C1864 C1865 1.358 . S
C1864 C1869 1.371 . S
C1865 H1837 0.930 . S
C1865 C1864 1.358 . S
C1865 C1866 1.405 . S
C1866 H1838 0.932 . S
C1866 C1865 1.405 . S
C1866 C1867 1.383 . S
C1867 C1866 1.383 . S
C1867 C1868 1.393 . S
C1868 H1840 0.931 . S
C1868 C1867 1.393 . S
C1868 C1869 1.382 . S
C1869 H1839 0.929 . S
C1869 C1864 1.371 . S
C1869 C1868 1.382 . S
C1870 N1833 1.423 . S
C1870 C1871 1.362 . S
C1870 C1875 1.388 . S
C1871 H1841 0.929 . S
C1871 C1870 1.362 . S
C1871 C1872 1.376 . S
C1872 H1843 0.931 . S
C1872 C1871 1.376 . S
C1872 C1873 1.396 . S
C1873 C1872 1.396 . S
C1873 C1874 1.348 . S
C1873 C1891 1.472 . S
C1874 H1844 0.929 . S
C1874 C1873 1.348 . S
C1874 C1875 1.443 . S
C1875 H1842 0.932 . S
C1875 C1870 1.388 . S
C1875 C1874 1.443 . S
C1876 N1856 1.433 . S
C1876 C1877 1.363 . S
C1876 C1881 1.370 . S
C1877 H1845 0.929 . S
C1877 C1876 1.363 . S
C1877 C1878 1.385 . S
C1878 H1846 0.930 . S
C1878 C1877 1.385 . S
C1878 C1879 1.357 . S
C1879 C1878 1.357 . S
C1879 C1880 1.406 . S
C1880 H1847 0.929 . S
C1880 C1879 1.406 . S
C1880 C1881 1.391 . S
C1881 H1848 0.931 . S
C1881 C1876 1.370 . S
C1881 C1880 1.391 . S
C1882 N1856 1.435 . S
C1882 C1883 1.358 . S
C1882 C1887 1.371 . S
C1883 H1849 0.930 . S
C1883 C1882 1.358 . S
C1883 C1884 1.405 . S
C1884 H1850 0.932 . S
C1884 C1883 1.405 . S
C1884 C1885 1.383 . S
C1885 C1884 1.383 . S
C1885 C1886 1.393 . S
C1886 H1851 0.931 . S
C1886 C1885 1.393 . S
C1886 C1887 1.382 . S
C1887 H1852 0.929 . S
C1887 C1882 1.371 . S
C1887 C1886 1.382 . S
C1888 N1856 1.423 . S
C1888 C1889 1.362 . S
C1888 C1893 1.388 . S
C1889 H1853 0.929 . S
C1889 C1888 1.362 . S
C1889 C1890 1.376 . S
C1890 H1854 0.931 . S
C1890 C1889 1.376 . S
C1890 C1891 1.396 . S
C1891 C1873 1.472 . S
C1891 C1890 1.396 . S
C1891 C1892 1.348 . S
C1892 H1855 0.929 . S
C1892 C1891 1.348 . S
C1892 C1893 1.443 . S
C1893 H1857 0.932 . S
C1893 C1888 1.388 . S
C1893 C1892 1.443 . S
H1894 C1921 0.929 . S
N1895 C1920 1.433 . S
N1895 C1926 1.435 . S
N1895 C1932 1.423 . S
H1896 C1922 0.930 . S
H1897 C1925 0.931 . S
H1898 C1924 0.929 . S
H1899 C1927 0.930 . S
H1900 C1928 0.932 . S
H1901 C1931 0.929 . S
H1902 C1930 0.931 . S
H1903 C1933 0.929 . S
H1904 C1937 0.932 . S
H1905 C1934 0.931 . S
H1906 C1936 0.929 . S
H1907 C1939 0.929 . S
H1908 C1940 0.930 . S
H1909 C1942 0.929 . S
H1910 C1943 0.931 . S
H1911 C1945 0.930 . S
H1912 C1946 0.932 . S
H1913 C1948 0.931 . S
H1914 C1949 0.929 . S
H1915 C1951 0.929 . S
H1916 C1952 0.931 . S
H1917 C1954 0.929 . S
N1918 C1938 1.433 . S
N1918 C1944 1.435 . S
N1918 C1950 1.423 . S
H1919 C1955 0.932 . S
C1920 N1895 1.433 . S
C1920 C1921 1.363 . S
C1920 C1925 1.370 . S
C1921 H1894 0.929 . S
C1921 C1920 1.363 . S
C1921 C1922 1.385 . S
C1922 H1896 0.930 . S
C1922 C1921 1.385 . S
C1922 C1923 1.357 . S
C1923 C1922 1.357 . S
C1923 C1924 1.406 . S
C1924 H1898 0.929 . S
C1924 C1923 1.406 . S
C1924 C1925 1.391 . S
C1925 H1897 0.931 . S
C1925 C1920 1.370 . S
C1925 C1924 1.391 . S
C1926 N1895 1.435 . S
C1926 C1927 1.358 . S
C1926 C1931 1.371 . S
C1927 H1899 0.930 . S
C1927 C1926 1.358 . S
C1927 C1928 1.405 . S
C1928 H1900 0.932 . S
C1928 C1927 1.405 . S
C1928 C1929 1.383 . S
C1929 C1928 1.383 . S
C1929 C1930 1.393 . S
C1930 H1902 0.931 . S
C1930 C1929 1.393 . S
C1930 C1931 1.382 . S
C1931 H1901 0.929 . S
C1931 C1926 1.371 . S
C1931 C1930 1.382 . S
C1932 N1895 1.423 . S
C1932 C1933 1.362 . S
C1932 C1937 1.388 . S
C1933 H1903 0.929 . S
C1933 C1932 1.362 . S
C1933 C1934 1.376 . S
C1934 H1905 0.931 . S
C1934 C1933 1.376 . S
C1934 C1935 1.396 . S
C1935 C1934 1.396 . S
C1935 C1936 1.348 . S
C1935 C1953 1.472 . S
C1936 H1906 0.929 . S
C1936 C1935 1.348 . S
C1936 C1937 1.443 . S
C1937 H1904 0.932 . S
C1937 C1932 1.388 . S
C1937 C1936 1.443 . S
C1938 N1918 1.433 . S
C1938 C1939 1.363 . S
C1938 C1943 1.370 . S
C1939 H1907 0.929 . S
C1939 C1938 1.363 . S
C1939 C1940 1.385 . S
C1940 H1908 0.930 . S
C1940 C1939 1.385 . S
C1940 C1941 1.357 . S
C1941 C1940 1.357 . S
C1941 C1942 1.406 . S
C1942 H1909 0.929 . S
C1942 C1941 1.406 . S
C1942 C1943 1.391 . S
C1943 H1910 0.931 . S
C1943 C1938 1.370 . S
C1943 C1942 1.391 . S
C1944 N1918 1.435 . S
C1944 C1945 1.358 . S
C1944 C1949 1.371 . S
C1945 H1911 0.930 . S
C1945 C1944 1.358 . S
C1945 C1946 1.405 . S
C1946 H1912 0.932 . S
C1946 C1945 1.405 . S
C1946 C1947 1.383 . S
C1947 C1946 1.383 . S
C1947 C1948 1.393 . S
C1948 H1913 0.931 . S
C1948 C1947 1.393 . S
C1948 C1949 1.382 . S
C1949 H1914 0.929 . S
C1949 C1944 1.371 . S
C1949 C1948 1.382 . S
C1950 N1918 1.423 . S
C1950 C1951 1.362 . S
C1950 C1955 1.388 . S
C1951 H1915 0.929 . S
C1951 C1950 1.362 . S
C1951 C1952 1.376 . S
C1952 H1916 0.931 . S
C1952 C1951 1.376 . S
C1952 C1953 1.396 . S
C1953 C1935 1.472 . S
C1953 C1952 1.396 . S
C1953 C1954 1.348 . S
C1954 H1917 0.929 . S
C1954 C1953 1.348 . S
C1954 C1955 1.443 . S
C1955 H1919 0.932 . S
C1955 C1950 1.388 . S
C1955 C1954 1.443 . S
H1956 C1983 0.929 . S
N1957 C1982 1.433 . S
N1957 C1988 1.435 . S
N1957 C1994 1.423 . S
H1958 C1984 0.930 . S
H1959 C1987 0.931 . S
H1960 C1986 0.929 . S
H1961 C1989 0.930 . S
H1962 C1990 0.932 . S
H1963 C1993 0.929 . S
H1964 C1992 0.931 . S
H1965 C1995 0.929 . S
H1966 C1999 0.932 . S
H1967 C1996 0.931 . S
H1968 C1998 0.929 . S
H1969 C2001 0.929 . S
H1970 C2002 0.930 . S
H1971 C2004 0.929 . S
H1972 C2005 0.931 . S
H1973 C2007 0.930 . S
H1974 C2008 0.932 . S
H1975 C2010 0.931 . S
H1976 C2011 0.929 . S
H1977 C2013 0.929 . S
H1978 C2014 0.931 . S
H1979 C2016 0.929 . S
N1980 C2000 1.433 . S
N1980 C2006 1.435 . S
N1980 C2012 1.423 . S
H1981 C2017 0.932 . S
C1982 N1957 1.433 . S
C1982 C1983 1.363 . S
C1982 C1987 1.370 . S
C1983 H1956 0.929 . S
C1983 C1982 1.363 . S
C1983 C1984 1.385 . S
C1984 H1958 0.930 . S
C1984 C1983 1.385 . S
C1984 C1985 1.357 . S
C1985 C1984 1.357 . S
C1985 C1986 1.406 . S
C1986 H1960 0.929 . S
C1986 C1985 1.406 . S
C1986 C1987 1.391 . S
C1987 H1959 0.931 . S
C1987 C1982 1.370 . S
C1987 C1986 1.391 . S
C1988 N1957 1.435 . S
C1988 C1989 1.358 . S
C1988 C1993 1.371 . S
C1989 H1961 0.930 . S
C1989 C1988 1.358 . S
C1989 C1990 1.405 . S
C1990 H1962 0.932 . S
C1990 C1989 1.405 . S
C1990 C1991 1.383 . S
C1991 C1990 1.383 . S
C1991 C1992 1.393 . S
C1992 H1964 0.931 . S
C1992 C1991 1.393 . S
C1992 C1993 1.382 . S
C1993 H1963 0.929 . S
C1993 C1988 1.371 . S
C1993 C1992 1.382 . S
C1994 N1957 1.423 . S
C1994 C1995 1.362 . S
C1994 C1999 1.388 . S
C1995 H1965 0.929 . S
C1995 C1994 1.362 . S
C1995 C1996 1.376 . S
C1996 H1967 0.931 . S
C1996 C1995 1.376 . S
C1996 C1997 1.396 . S
C1997 C1996 1.396 . S
C1997 C1998 1.348 . S
C1997 C2015 1.472 . S
C1998 H1968 0.929 . S
C1998 C1997 1.348 . S
C1998 C1999 1.443 . S
C1999 H1966 0.932 . S
C1999 C1994 1.388 . S
C1999 C1998 1.443 . S
C2000 N1980 1.433 . S
C2000 C2001 1.363 . S
C2000 C2005 1.370 . S
C2001 H1969 0.929 . S
C2001 C2000 1.363 . S
C2001 C2002 1.385 . S
C2002 H1970 0.930 . S
C2002 C2001 1.385 . S
C2002 C2003 1.357 . S
C2003 C2002 1.357 . S
C2003 C2004 1.406 . S
C2004 H1971 0.929 . S
C2004 C2003 1.406 . S
C2004 C2005 1.391 . S
C2005 H1972 0.931 . S
C2005 C2000 1.370 . S
C2005 C2004 1.391 . S
C2006 N1980 1.435 . S
C2006 C2007 1.358 . S
C2006 C2011 1.371 . S
C2007 H1973 0.930 . S
C2007 C2006 1.358 . S
C2007 C2008 1.405 . S
C2008 H1974 0.932 . S
C2008 C2007 1.405 . S
C2008 C2009 1.383 . S
C2009 C2008 1.383 . S
C2009 C2010 1.393 . S
C2010 H1975 0.931 . S
C2010 C2009 1.393 . S
C2010 C2011 1.382 . S
C2011 H1976 0.929 . S
C2011 C2006 1.371 . S
C2011 C2010 1.382 . S
C2012 N1980 1.423 . S
C2012 C2013 1.362 . S
C2012 C2017 1.388 . S
C2013 H1977 0.929 . S
C2013 C2012 1.362 . S
C2013 C2014 1.376 . S
C2014 H1978 0.931 . S
C2014 C2013 1.376 . S
C2014 C2015 1.396 . S
C2015 C1997 1.472 . S
C2015 C2014 1.396 . S
C2015 C2016 1.348 . S
C2016 H1979 0.929 . S
C2016 C2015 1.348 . S
C2016 C2017 1.443 . S
C2017 H1981 0.932 . S
C2017 C2012 1.388 . S
C2017 C2016 1.443 . S
H2018 C2045 0.929 . S
N2019 C2044 1.433 . S
N2019 C2050 1.435 . S
N2019 C2056 1.423 . S
H2020 C2046 0.930 . S
H2021 C2049 0.931 . S
H2022 C2048 0.929 . S
H2023 C2051 0.930 . S
H2024 C2052 0.932 . S
H2025 C2055 0.929 . S
H2026 C2054 0.931 . S
H2027 C2057 0.929 . S
H2028 C2061 0.932 . S
H2029 C2058 0.931 . S
H2030 C2060 0.929 . S
H2031 C2063 0.929 . S
H2032 C2064 0.930 . S
H2033 C2066 0.929 . S
H2034 C2067 0.931 . S
H2035 C2069 0.930 . S
H2036 C2070 0.932 . S
H2037 C2072 0.931 . S
H2038 C2073 0.929 . S
H2039 C2075 0.929 . S
H2040 C2076 0.931 . S
H2041 C2078 0.929 . S
N2042 C2062 1.433 . S
N2042 C2068 1.435 . S
N2042 C2074 1.423 . S
H2043 C2079 0.932 . S
C2044 N2019 1.433 . S
C2044 C2045 1.363 . S
C2044 C2049 1.370 . S
C2045 H2018 0.929 . S
C2045 C2044 1.363 . S
C2045 C2046 1.385 . S
C2046 H2020 0.930 . S
C2046 C2045 1.385 . S
C2046 C2047 1.357 . S
C2047 C2046 1.357 . S
C2047 C2048 1.406 . S
C2048 H2022 0.929 . S
C2048 C2047 1.406 . S
C2048 C2049 1.391 . S
C2049 H2021 0.931 . S
C2049 C2044 1.370 . S
C2049 C2048 1.391 . S
C2050 N2019 1.435 . S
C2050 C2051 1.358 . S
C2050 C2055 1.371 . S
C2051 H2023 0.930 . S
C2051 C2050 1.358 . S
C2051 C2052 1.405 . S
C2052 H2024 0.932 . S
C2052 C2051 1.405 . S
C2052 C2053 1.383 . S
C2053 C2052 1.383 . S
C2053 C2054 1.393 . S
C2054 H2026 0.931 . S
C2054 C2053 1.393 . S
C2054 C2055 1.382 . S
C2055 H2025 0.929 . S
C2055 C2050 1.371 . S
C2055 C2054 1.382 . S
C2056 N2019 1.423 . S
C2056 C2057 1.362 . S
C2056 C2061 1.388 . S
C2057 H2027 0.929 . S
C2057 C2056 1.362 . S
C2057 C2058 1.376 . S
C2058 H2029 0.931 . S
C2058 C2057 1.376 . S
C2058 C2059 1.396 . S
C2059 C2058 1.396 . S
C2059 C2060 1.348 . S
C2059 C2077 1.472 . S
C2060 H2030 0.929 . S
C2060 C2059 1.348 . S
C2060 C2061 1.443 . S
C2061 H2028 0.932 . S
C2061 C2056 1.388 . S
C2061 C2060 1.443 . S
C2062 N2042 1.433 . S
C2062 C2063 1.363 . S
C2062 C2067 1.370 . S
C2063 H2031 0.929 . S
C2063 C2062 1.363 . S
C2063 C2064 1.385 . S
C2064 H2032 0.930 . S
C2064 C2063 1.385 . S
C2064 C2065 1.357 . S
C2065 C2064 1.357 . S
C2065 C2066 1.406 . S
C2066 H2033 0.929 . S
C2066 C2065 1.406 . S
C2066 C2067 1.391 . S
C2067 H2034 0.931 . S
C2067 C2062 1.370 . S
C2067 C2066 1.391 . S
C2068 N2042 1.435 . S
C2068 C2069 1.358 . S
C2068 C2073 1.371 . S
C2069 H2035 0.930 . S
C2069 C2068 1.358 . S
C2069 C2070 1.405 . S
C2070 H2036 0.932 . S
C2070 C2069 1.405 . S
C2070 C2071 1.383 . S
C2071 C2070 1.383 . S
C2071 C2072 1.393 . S
C2072 H2037 0.931 . S
C2072 C2071 1.393 . S
C2072 C2073 1.382 . S
C2073 H2038 0.929 . S
C2073 C2068 1.371 . S
C2073 C2072 1.382 . S
C2074 N2042 1.423 . S
C2074 C2075 1.362 . S
C2074 C2079 1.388 . S
C2075 H2039 0.929 . S
C2075 C2074 1.362 . S
C2075 C2076 1.376 . S
C2076 H2040 0.931 . S
C2076 C2075 1.376 . S
C2076 C2077 1.396 . S
C2077 C2059 1.472 . S
C2077 C2076 1.396 . S
C2077 C2078 1.348 . S
C2078 H2041 0.929 . S
C2078 C2077 1.348 . S
C2078 C2079 1.443 . S
C2079 H2043 0.932 . S
C2079 C2074 1.388 . S
C2079 C2078 1.443 . S
H2080 C2107 0.929 . S
N2081 C2106 1.433 . S
N2081 C2112 1.435 . S
N2081 C2118 1.423 . S
H2082 C2108 0.930 . S
H2083 C2111 0.931 . S
H2084 C2110 0.929 . S
H2085 C2113 0.930 . S
H2086 C2114 0.932 . S
H2087 C2117 0.929 . S
H2088 C2116 0.931 . S
H2089 C2119 0.929 . S
H2090 C2123 0.932 . S
H2091 C2120 0.931 . S
H2092 C2122 0.929 . S
H2093 C2125 0.929 . S
H2094 C2126 0.930 . S
H2095 C2128 0.929 . S
H2096 C2129 0.931 . S
H2097 C2131 0.930 . S
H2098 C2132 0.932 . S
H2099 C2134 0.931 . S
H2100 C2135 0.929 . S
H2101 C2137 0.929 . S
H2102 C2138 0.931 . S
H2103 C2140 0.929 . S
N2104 C2124 1.433 . S
N2104 C2130 1.435 . S
N2104 C2136 1.423 . S
H2105 C2141 0.932 . S
C2106 N2081 1.433 . S
C2106 C2107 1.363 . S
C2106 C2111 1.370 . S
C2107 H2080 0.929 . S
C2107 C2106 1.363 . S
C2107 C2108 1.385 . S
C2108 H2082 0.930 . S
C2108 C2107 1.385 . S
C2108 C2109 1.357 . S
C2109 C2108 1.357 . S
C2109 C2110 1.406 . S
C2110 H2084 0.929 . S
C2110 C2109 1.406 . S
C2110 C2111 1.391 . S
C2111 H2083 0.931 . S
C2111 C2106 1.370 . S
C2111 C2110 1.391 . S
C2112 N2081 1.435 . S
C2112 C2113 1.358 . S
C2112 C2117 1.371 . S
C2113 H2085 0.930 . S
C2113 C2112 1.358 . S
C2113 C2114 1.405 . S
C2114 H2086 0.932 . S
C2114 C2113 1.405 . S
C2114 C2115 1.383 . S
C2115 C2114 1.383 . S
C2115 C2116 1.393 . S
C2116 H2088 0.931 . S
C2116 C2115 1.393 . S
C2116 C2117 1.382 . S
C2117 H2087 0.929 . S
C2117 C2112 1.371 . S
C2117 C2116 1.382 . S
C2118 N2081 1.423 . S
C2118 C2119 1.362 . S
C2118 C2123 1.388 . S
C2119 H2089 0.929 . S
C2119 C2118 1.362 . S
C2119 C2120 1.376 . S
C2120 H2091 0.931 . S
C2120 C2119 1.376 . S
C2120 C2121 1.396 . S
C2121 C2120 1.396 . S
C2121 C2122 1.348 . S
C2121 C2139 1.472 . S
C2122 H2092 0.929 . S
C2122 C2121 1.348 . S
C2122 C2123 1.443 . S
C2123 H2090 0.932 . S
C2123 C2118 1.388 . S
C2123 C2122 1.443 . S
C2124 N2104 1.433 . S
C2124 C2125 1.363 . S
C2124 C2129 1.370 . S
C2125 H2093 0.929 . S
C2125 C2124 1.363 . S
C2125 C2126 1.385 . S
C2126 H2094 0.930 . S
C2126 C2125 1.385 . S
C2126 C2127 1.357 . S
C2127 C2126 1.357 . S
C2127 C2128 1.406 . S
C2128 H2095 0.929 . S
C2128 C2127 1.406 . S
C2128 C2129 1.391 . S
C2129 H2096 0.931 . S
C2129 C2124 1.370 . S
C2129 C2128 1.391 . S
C2130 N2104 1.435 . S
C2130 C2131 1.358 . S
C2130 C2135 1.371 . S
C2131 H2097 0.930 . S
C2131 C2130 1.358 . S
C2131 C2132 1.405 . S
C2132 H2098 0.932 . S
C2132 C2131 1.405 . S
C2132 C2133 1.383 . S
C2133 C2132 1.383 . S
C2133 C2134 1.393 . S
C2134 H2099 0.931 . S
C2134 C2133 1.393 . S
C2134 C2135 1.382 . S
C2135 H2100 0.929 . S
C2135 C2130 1.371 . S
C2135 C2134 1.382 . S
C2136 N2104 1.423 . S
C2136 C2137 1.362 . S
C2136 C2141 1.388 . S
C2137 H2101 0.929 . S
C2137 C2136 1.362 . S
C2137 C2138 1.376 . S
C2138 H2102 0.931 . S
C2138 C2137 1.376 . S
C2138 C2139 1.396 . S
C2139 C2121 1.472 . S
C2139 C2138 1.396 . S
C2139 C2140 1.348 . S
C2140 H2103 0.929 . S
C2140 C2139 1.348 . S
C2140 C2141 1.443 . S
C2141 H2105 0.932 . S
C2141 C2136 1.388 . S
C2141 C2140 1.443 . S
H2142 C2169 0.929 . S
N2143 C2168 1.433 . S
N2143 C2174 1.435 . S
N2143 C2180 1.423 . S
H2144 C2170 0.930 . S
H2145 C2173 0.931 . S
H2146 C2172 0.929 . S
H2147 C2175 0.930 . S
H2148 C2176 0.932 . S
H2149 C2179 0.929 . S
H2150 C2178 0.931 . S
H2151 C2181 0.929 . S
H2152 C2185 0.932 1_655 S
H2153 C2182 0.931 . S
H2154 C2184 0.943 . S
H2155 C2187 0.929 . S
H2156 C2188 0.930 . S
H2157 C2190 0.929 . S
H2158 C2191 0.931 . S
H2159 C2193 0.930 . S
H2160 C2194 0.932 . S
H2161 C2196 0.931 . S
H2162 C2197 0.929 . S
H2163 C2199 0.929 . S
H2164 C2200 0.931 . S
H2165 C2202 0.993 . S
N2166 C2186 1.433 . S
N2166 C2192 1.435 . S
N2166 C2198 1.423 . S
H2167 C2203 0.932 1_655 S
C2168 N2143 1.433 . S
C2168 C2169 1.363 . S
C2168 C2173 1.370 1_455 S
C2169 H2142 0.929 . S
C2169 C2168 1.363 . S
C2169 C2170 1.385 . S
C2170 H2144 0.930 . S
C2170 C2169 1.385 . S
C2170 C2171 1.357 1_455 S
C2171 C2170 1.357 1_655 S
C2171 C2172 1.406 . S
C2172 H2146 0.929 . S
C2172 C2171 1.406 . S
C2172 C2173 1.391 . S
C2173 H2145 0.931 . S
C2173 C2168 1.370 1_655 S
C2173 C2172 1.391 . S
C2174 N2143 1.435 . S
C2174 C2175 1.358 1_455 S
C2174 C2179 1.371 . S
C2175 H2147 0.930 . S
C2175 C2174 1.358 1_655 S
C2175 C2176 1.405 . S
C2176 H2148 0.932 . S
C2176 C2175 1.405 . S
C2176 C2177 1.383 1_655 S
C2177 C2176 1.383 1_455 S
C2177 C2178 1.393 . S
C2178 H2150 0.931 . S
C2178 C2177 1.393 . S
C2178 C2179 1.382 . S
C2179 H2149 0.929 . S
C2179 C2174 1.371 . S
C2179 C2178 1.382 . S
C2180 N2143 1.423 . S
C2180 C2181 1.362 . S
C2180 C2185 1.388 . S
C2181 H2151 0.929 . S
C2181 C2180 1.362 . S
C2181 C2182 1.376 . S
C2182 H2153 0.931 . S
C2182 C2181 1.376 . S
C2182 C2183 1.396 . S
C2183 C2182 1.396 . S
C2183 C2184 1.348 . S
C2183 C2201 1.472 . S
C2184 H2154 0.943 . S
C2184 C2183 1.348 . S
C2184 C2185 1.443 . S
C2185 H2152 0.932 1_455 S
C2185 C2180 1.388 . S
C2185 C2184 1.443 . S
C2186 N2166 1.433 . S
C2186 C2187 1.363 . S
C2186 C2191 1.370 1_455 S
C2187 H2155 0.929 . S
C2187 C2186 1.363 . S
C2187 C2188 1.385 . S
C2188 H2156 0.930 . S
C2188 C2187 1.385 . S
C2188 C2189 1.357 1_455 S
C2189 C2188 1.357 1_655 S
C2189 C2190 1.406 . S
C2190 H2157 0.929 . S
C2190 C2189 1.406 . S
C2190 C2191 1.391 . S
C2191 H2158 0.931 . S
C2191 C2186 1.370 1_655 S
C2191 C2190 1.391 . S
C2192 N2166 1.435 . S
C2192 C2193 1.358 1_455 S
C2192 C2197 1.371 . S
C2193 H2159 0.930 . S
C2193 C2192 1.358 1_655 S
C2193 C2194 1.405 . S
C2194 H2160 0.932 . S
C2194 C2193 1.405 . S
C2194 C2195 1.383 1_655 S
C2195 C2194 1.383 1_455 S
C2195 C2196 1.393 . S
C2196 H2161 0.931 . S
C2196 C2195 1.393 . S
C2196 C2197 1.382 . S
C2197 H2162 0.929 . S
C2197 C2192 1.371 . S
C2197 C2196 1.382 . S
C2198 N2166 1.423 . S
C2198 C2199 1.362 . S
C2198 C2203 1.388 . S
C2199 H2163 0.929 . S
C2199 C2198 1.362 . S
C2199 C2200 1.376 . S
C2200 H2164 0.931 . S
C2200 C2199 1.376 . S
C2200 C2201 1.396 . S
C2201 C2183 1.472 . S
C2201 C2200 1.396 . S
C2201 C2202 1.348 . S
C2202 H2165 0.993 . S
C2202 C2201 1.348 . S
C2202 C2203 1.443 . S
C2203 H2167 0.932 1_455 S
C2203 C2198 1.388 . S
C2203 C2202 1.443 . S
H2204 C2231 0.929 . S
N2205 C2230 1.433 . S
N2205 C2236 1.435 . S
N2205 C2242 1.423 . S
H2206 C2232 0.930 . S
H2207 C2235 0.931 . S
H2208 C2234 0.929 . S
H2209 C2237 0.930 . S
H2210 C2238 0.932 . S
H2211 C2241 0.929 . S
H2212 C2240 0.931 . S
H2213 C2243 0.929 . S
H2214 C2247 0.932 . S
H2215 C2244 0.931 . S
H2216 C2246 0.929 . S
H2217 C2249 0.929 . S
H2218 C2250 0.930 . S
H2219 C2252 0.929 . S
H2220 C2253 0.931 . S
H2221 C2255 0.930 . S
H2222 C2256 0.932 . S
H2223 C2258 0.931 . S
H2224 C2259 0.929 . S
H2225 C2261 0.929 . S
H2226 C2262 0.931 . S
H2227 C2264 0.929 . S
N2228 C2248 1.433 . S
N2228 C2254 1.435 . S
N2228 C2260 1.423 . S
H2229 C2265 0.932 . S
C2230 N2205 1.433 . S
C2230 C2231 1.363 . S
C2230 C2235 1.370 . S
C2231 H2204 0.929 . S
C2231 C2230 1.363 . S
C2231 C2232 1.385 . S
C2232 H2206 0.930 . S
C2232 C2231 1.385 . S
C2232 C2233 1.357 . S
C2233 C2232 1.357 . S
C2233 C2234 1.406 . S
C2234 H2208 0.929 . S
C2234 C2233 1.406 . S
C2234 C2235 1.391 . S
C2235 H2207 0.931 . S
C2235 C2230 1.370 . S
C2235 C2234 1.391 . S
C2236 N2205 1.435 . S
C2236 C2237 1.358 . S
C2236 C2241 1.371 . S
C2237 H2209 0.930 . S
C2237 C2236 1.358 . S
C2237 C2238 1.405 . S
C2238 H2210 0.932 . S
C2238 C2237 1.405 . S
C2238 C2239 1.383 . S
C2239 C2238 1.383 . S
C2239 C2240 1.393 . S
C2240 H2212 0.931 . S
C2240 C2239 1.393 . S
C2240 C2241 1.382 . S
C2241 H2211 0.929 . S
C2241 C2236 1.371 . S
C2241 C2240 1.382 . S
C2242 N2205 1.423 . S
C2242 C2243 1.362 . S
C2242 C2247 1.388 . S
C2243 H2213 0.929 . S
C2243 C2242 1.362 . S
C2243 C2244 1.376 . S
C2244 H2215 0.931 . S
C2244 C2243 1.376 . S
C2244 C2245 1.396 . S
C2245 C2244 1.396 . S
C2245 C2246 1.348 . S
C2245 C2263 1.472 . S
C2246 H2216 0.929 . S
C2246 C2245 1.348 . S
C2246 C2247 1.443 . S
C2247 H2214 0.932 . S
C2247 C2242 1.388 . S
C2247 C2246 1.443 . S
C2248 N2228 1.433 . S
C2248 C2249 1.363 . S
C2248 C2253 1.370 . S
C2249 H2217 0.929 . S
C2249 C2248 1.363 . S
C2249 C2250 1.385 . S
C2250 H2218 0.930 . S
C2250 C2249 1.385 . S
C2250 C2251 1.357 . S
C2251 C2250 1.357 . S
C2251 C2252 1.406 . S
C2252 H2219 0.929 . S
C2252 C2251 1.406 . S
C2252 C2253 1.391 . S
C2253 H2220 0.931 . S
C2253 C2248 1.370 . S
C2253 C2252 1.391 . S
C2254 N2228 1.435 . S
C2254 C2255 1.358 . S
C2254 C2259 1.371 . S
C2255 H2221 0.930 . S
C2255 C2254 1.358 . S
C2255 C2256 1.405 . S
C2256 H2222 0.932 . S
C2256 C2255 1.405 . S
C2256 C2257 1.383 . S
C2257 C2256 1.383 . S
C2257 C2258 1.393 . S
C2258 H2223 0.931 . S
C2258 C2257 1.393 . S
C2258 C2259 1.382 . S
C2259 H2224 0.929 . S
C2259 C2254 1.371 . S
C2259 C2258 1.382 . S
C2260 N2228 1.423 . S
C2260 C2261 1.362 . S
C2260 C2265 1.388 . S
C2261 H2225 0.929 . S
C2261 C2260 1.362 . S
C2261 C2262 1.376 . S
C2262 H2226 0.931 . S
C2262 C2261 1.376 . S
C2262 C2263 1.396 . S
C2263 C2245 1.472 . S
C2263 C2262 1.396 . S
C2263 C2264 1.348 . S
C2264 H2227 0.929 . S
C2264 C2263 1.348 . S
C2264 C2265 1.443 . S
C2265 H2229 0.932 . S
C2265 C2260 1.388 . S
C2265 C2264 1.443 . S
H2266 C2293 0.929 . S
N2267 C2292 1.433 . S
N2267 C2298 1.435 . S
N2267 C2304 1.423 . S
H2268 C2294 0.930 . S
H2269 C2297 0.931 . S
H2270 C2296 0.929 . S
H2271 C2299 0.930 . S
H2272 C2300 0.932 . S
H2273 C2303 0.929 . S
H2274 C2302 0.931 . S
H2275 C2305 0.929 . S
H2276 C2309 0.932 1_545 S
H2277 C2306 0.931 . S
H2278 C2308 0.994 . S
H2279 C2311 0.929 . S
H2280 C2312 0.930 . S
H2281 C2314 0.929 . S
H2282 C2315 0.931 . S
H2283 C2317 0.930 . S
H2284 C2318 0.932 . S
H2285 C2320 0.931 . S
H2286 C2321 0.929 . S
H2287 C2323 0.929 . S
H2288 C2324 0.931 . S
H2289 C2326 0.943 . S
N2290 C2310 1.433 . S
N2290 C2316 1.435 . S
N2290 C2322 1.423 . S
H2291 C2327 0.932 1_545 S
C2292 N2267 1.433 . S
C2292 C2293 1.363 . S
C2292 C2297 1.370 1_565 S
C2293 H2266 0.929 . S
C2293 C2292 1.363 . S
C2293 C2294 1.385 . S
C2294 H2268 0.930 . S
C2294 C2293 1.385 . S
C2294 C2295 1.357 1_565 S
C2295 C2294 1.357 1_545 S
C2295 C2296 1.406 . S
C2296 H2270 0.929 . S
C2296 C2295 1.406 . S
C2296 C2297 1.391 . S
C2297 H2269 0.931 . S
C2297 C2292 1.370 1_545 S
C2297 C2296 1.391 . S
C2298 N2267 1.435 . S
C2298 C2299 1.358 1_565 S
C2298 C2303 1.371 . S
C2299 H2271 0.930 . S
C2299 C2298 1.358 1_545 S
C2299 C2300 1.405 . S
C2300 H2272 0.932 . S
C2300 C2299 1.405 . S
C2300 C2301 1.383 1_545 S
C2301 C2300 1.383 1_565 S
C2301 C2302 1.393 . S
C2302 H2274 0.931 . S
C2302 C2301 1.393 . S
C2302 C2303 1.382 . S
C2303 H2273 0.929 . S
C2303 C2298 1.371 . S
C2303 C2302 1.382 . S
C2304 N2267 1.423 . S
C2304 C2305 1.362 . S
C2304 C2309 1.388 . S
C2305 H2275 0.929 . S
C2305 C2304 1.362 . S
C2305 C2306 1.376 . S
C2306 H2277 0.931 . S
C2306 C2305 1.376 . S
C2306 C2307 1.396 . S
C2307 C2306 1.396 . S
C2307 C2308 1.348 . S
C2307 C2325 1.472 . S
C2308 H2278 0.994 . S
C2308 C2307 1.348 . S
C2308 C2309 1.443 . S
C2309 H2276 0.932 1_565 S
C2309 C2304 1.388 . S
C2309 C2308 1.443 . S
C2310 N2290 1.433 . S
C2310 C2311 1.363 . S
C2310 C2315 1.370 1_565 S
C2311 H2279 0.929 . S
C2311 C2310 1.363 . S
C2311 C2312 1.385 . S
C2312 H2280 0.930 . S
C2312 C2311 1.385 . S
C2312 C2313 1.357 1_565 S
C2313 C2312 1.357 1_545 S
C2313 C2314 1.406 . S
C2314 H2281 0.929 . S
C2314 C2313 1.406 . S
C2314 C2315 1.391 . S
C2315 H2282 0.931 . S
C2315 C2310 1.370 1_545 S
C2315 C2314 1.391 . S
C2316 N2290 1.435 . S
C2316 C2317 1.358 1_565 S
C2316 C2321 1.371 . S
C2317 H2283 0.930 . S
C2317 C2316 1.358 1_545 S
C2317 C2318 1.405 . S
C2318 H2284 0.932 . S
C2318 C2317 1.405 . S
C2318 C2319 1.383 1_545 S
C2319 C2318 1.383 1_565 S
C2319 C2320 1.393 . S
C2320 H2285 0.931 . S
C2320 C2319 1.393 . S
C2320 C2321 1.382 . S
C2321 H2286 0.929 . S
C2321 C2316 1.371 . S
C2321 C2320 1.382 . S
C2322 N2290 1.423 . S
C2322 C2323 1.362 . S
C2322 C2327 1.388 . S
C2323 H2287 0.929 . S
C2323 C2322 1.362 . S
C2323 C2324 1.376 . S
C2324 H2288 0.931 . S
C2324 C2323 1.376 . S
C2324 C2325 1.396 . S
C2325 C2307 1.472 . S
C2325 C2324 1.396 . S
C2325 C2326 1.348 . S
C2326 H2289 0.943 . S
C2326 C2325 1.348 . S
C2326 C2327 1.443 . S
C2327 H2291 0.932 1_565 S
C2327 C2322 1.388 . S
C2327 C2326 1.443 . S
H2328 C2355 0.929 . S
N2329 C2354 1.433 . S
N2329 C2360 1.435 . S
N2329 C2366 1.423 . S
H2330 C2356 0.930 . S
H2331 C2359 0.930 . S
H2332 C2358 0.949 . S
H2333 C2361 0.930 . S
H2334 C2362 0.932 . S
H2335 C2365 0.929 . S
H2336 C2364 0.931 . S
H2337 C2367 0.929 . S
H2338 C2371 1.023 . S
H2339 C2368 0.931 . S
H2340 C2370 0.922 1_545 S
H2341 C2373 0.929 . S
H2342 C2374 0.930 . S
H2343 C2376 0.990 . S
H2344 C2377 0.982 . S
H2345 C2379 0.930 . S
H2346 C2380 0.932 . S
H2347 C2382 0.931 . S
H2348 C2383 0.929 . S
H2349 C2385 0.929 . S
H2350 C2386 0.931 . S
H2351 C2388 0.902 1_545 S
N2352 C2372 1.433 . S
N2352 C2378 1.435 . S
N2352 C2384 1.423 . S
H2353 C2389 0.971 . S
C2354 N2329 1.433 . S
C2354 C2355 1.363 . S
C2354 C2359 1.362 1_565 S
C2355 H2328 0.929 . S
C2355 C2354 1.363 . S
C2355 C2356 1.385 . S
C2356 H2330 0.930 . S
C2356 C2355 1.385 . S
C2356 C2357 1.357 . S
C2357 C2356 1.357 . S
C2357 C2358 1.414 1_565 S
C2358 H2332 0.949 . S
C2358 C2357 1.414 1_545 S
C2358 C2359 1.386 . S
C2359 H2331 0.930 . S
C2359 C2354 1.362 1_545 S
C2359 C2358 1.386 . S
C2360 N2329 1.435 . S
C2360 C2361 1.358 1_565 S
C2360 C2365 1.371 . S
C2361 H2333 0.930 . S
C2361 C2360 1.358 1_545 S
C2361 C2362 1.405 . S
C2362 H2334 0.932 . S
C2362 C2361 1.405 . S
C2362 C2363 1.383 . S
C2363 C2362 1.383 . S
C2363 C2364 1.393 1_545 S
C2364 H2336 0.931 . S
C2364 C2363 1.393 1_565 S
C2364 C2365 1.382 . S
C2365 H2335 0.929 . S
C2365 C2360 1.371 . S
C2365 C2364 1.382 . S
C2366 N2329 1.423 . S
C2366 C2367 1.362 . S
C2366 C2371 1.363 1_565 S
C2367 H2337 0.929 . S
C2367 C2366 1.362 . S
C2367 C2368 1.376 . S
C2368 H2339 0.931 . S
C2368 C2367 1.376 . S
C2368 C2369 1.396 . S
C2369 C2368 1.396 . S
C2369 C2370 1.376 . S
C2369 C2387 1.472 . S
C2370 H2340 0.922 1_565 S
C2370 C2369 1.376 . S
C2370 C2371 1.365 1_565 S
C2371 H2338 1.023 . S
C2371 C2366 1.363 1_545 S
C2371 C2370 1.365 1_545 S
C2372 N2352 1.433 . S
C2372 C2373 1.363 . S
C2372 C2377 1.330 1_565 S
C2373 H2341 0.929 . S
C2373 C2372 1.363 . S
C2373 C2374 1.385 . S
C2374 H2342 0.930 . S
C2374 C2373 1.385 . S
C2374 C2375 1.357 . S
C2375 C2374 1.357 . S
C2375 C2376 1.335 1_565 S
C2376 H2343 0.990 . S
C2376 C2375 1.335 1_545 S
C2376 C2377 1.396 . S
C2377 H2344 0.982 . S
C2377 C2372 1.330 1_545 S
C2377 C2376 1.396 . S
C2378 N2352 1.435 . S
C2378 C2379 1.358 1_565 S
C2378 C2383 1.371 . S
C2379 H2345 0.930 . S
C2379 C2378 1.358 1_545 S
C2379 C2380 1.405 . S
C2380 H2346 0.932 . S
C2380 C2379 1.405 . S
C2380 C2381 1.383 . S
C2381 C2380 1.383 . S
C2381 C2382 1.393 1_545 S
C2382 H2347 0.931 . S
C2382 C2381 1.393 1_565 S
C2382 C2383 1.382 . S
C2383 H2348 0.929 . S
C2383 C2378 1.371 . S
C2383 C2382 1.382 . S
C2384 N2352 1.423 . S
C2384 C2385 1.362 . S
C2384 C2389 1.314 1_565 S
C2385 H2349 0.929 . S
C2385 C2384 1.362 . S
C2385 C2386 1.376 . S
C2386 H2350 0.931 . S
C2386 C2385 1.376 . S
C2386 C2387 1.396 . S
C2387 C2369 1.472 . S
C2387 C2386 1.396 . S
C2387 C2388 1.359 . S
C2388 H2351 0.902 1_565 S
C2388 C2387 1.359 . S
C2388 C2389 1.505 1_565 S
C2389 H2353 0.971 . S
C2389 C2384 1.314 1_545 S
C2389 C2388 1.505 1_545 S
H2390 C2417 0.929 . S
N2391 C2416 1.433 . S
N2391 C2422 1.435 . S
N2391 C2428 1.423 . S
H2392 C2418 0.930 . S
H2393 C2421 0.931 . S
H2394 C2420 0.929 . S
H2395 C2423 0.930 . S
H2396 C2424 0.932 . S
H2397 C2427 0.929 . S
H2398 C2426 0.931 . S
H2399 C2429 0.929 . S
H2400 C2433 0.932 1_455 S
H2401 C2430 0.931 . S
H2402 C2432 0.994 . S
H2403 C2435 0.929 . S
H2404 C2436 0.930 . S
H2405 C2438 0.929 . S
H2406 C2439 0.931 . S
H2407 C2441 0.930 . S
H2408 C2442 0.932 . S
H2409 C2444 0.931 . S
H2410 C2445 0.929 . S
H2411 C2447 0.929 . S
H2412 C2448 0.931 . S
H2413 C2450 0.943 . S
N2414 C2434 1.433 . S
N2414 C2440 1.435 . S
N2414 C2446 1.423 . S
H2415 C2451 0.932 1_455 S
C2416 N2391 1.433 . S
C2416 C2417 1.363 . S
C2416 C2421 1.370 1_655 S
C2417 H2390 0.929 . S
C2417 C2416 1.363 . S
C2417 C2418 1.385 . S
C2418 H2392 0.930 . S
C2418 C2417 1.385 . S
C2418 C2419 1.357 1_655 S
C2419 C2418 1.357 1_455 S
C2419 C2420 1.406 . S
C2420 H2394 0.929 . S
C2420 C2419 1.406 . S
C2420 C2421 1.391 . S
C2421 H2393 0.931 . S
C2421 C2416 1.370 1_455 S
C2421 C2420 1.391 . S
C2422 N2391 1.435 . S
C2422 C2423 1.358 1_655 S
C2422 C2427 1.371 . S
C2423 H2395 0.930 . S
C2423 C2422 1.358 1_455 S
C2423 C2424 1.405 . S
C2424 H2396 0.932 . S
C2424 C2423 1.405 . S
C2424 C2425 1.383 1_455 S
C2425 C2424 1.383 1_655 S
C2425 C2426 1.393 . S
C2426 H2398 0.931 . S
C2426 C2425 1.393 . S
C2426 C2427 1.382 . S
C2427 H2397 0.929 . S
C2427 C2422 1.371 . S
C2427 C2426 1.382 . S
C2428 N2391 1.423 . S
C2428 C2429 1.362 . S
C2428 C2433 1.388 . S
C2429 H2399 0.929 . S
C2429 C2428 1.362 . S
C2429 C2430 1.376 . S
C2430 H2401 0.931 . S
C2430 C2429 1.376 . S
C2430 C2431 1.396 . S
C2431 C2430 1.396 . S
C2431 C2432 1.348 . S
C2431 C2449 1.472 . S
C2432 H2402 0.994 . S
C2432 C2431 1.348 . S
C2432 C2433 1.443 . S
C2433 H2400 0.932 1_655 S
C2433 C2428 1.388 . S
C2433 C2432 1.443 . S
C2434 N2414 1.433 . S
C2434 C2435 1.363 . S
C2434 C2439 1.370 1_655 S
C2435 H2403 0.929 . S
C2435 C2434 1.363 . S
C2435 C2436 1.385 . S
C2436 H2404 0.930 . S
C2436 C2435 1.385 . S
C2436 C2437 1.357 1_655 S
C2437 C2436 1.357 1_455 S
C2437 C2438 1.406 . S
C2438 H2405 0.929 . S
C2438 C2437 1.406 . S
C2438 C2439 1.391 . S
C2439 H2406 0.931 . S
C2439 C2434 1.370 1_455 S
C2439 C2438 1.391 . S
C2440 N2414 1.435 . S
C2440 C2441 1.358 1_655 S
C2440 C2445 1.371 . S
C2441 H2407 0.930 . S
C2441 C2440 1.358 1_455 S
C2441 C2442 1.405 . S
C2442 H2408 0.932 . S
C2442 C2441 1.405 . S
C2442 C2443 1.383 1_455 S
C2443 C2442 1.383 1_655 S
C2443 C2444 1.393 . S
C2444 H2409 0.931 . S
C2444 C2443 1.393 . S
C2444 C2445 1.382 . S
C2445 H2410 0.929 . S
C2445 C2440 1.371 . S
C2445 C2444 1.382 . S
C2446 N2414 1.423 . S
C2446 C2447 1.362 . S
C2446 C2451 1.388 . S
C2447 H2411 0.929 . S
C2447 C2446 1.362 . S
C2447 C2448 1.376 . S
C2448 H2412 0.931 . S
C2448 C2447 1.376 . S
C2448 C2449 1.396 . S
C2449 C2431 1.472 . S
C2449 C2448 1.396 . S
C2449 C2450 1.348 . S
C2450 H2413 0.943 . S
C2450 C2449 1.348 . S
C2450 C2451 1.443 . S
C2451 H2415 0.932 1_655 S
C2451 C2446 1.388 . S
C2451 C2450 1.443 . S
H2452 C2479 0.929 . S
N2453 C2478 1.433 . S
N2453 C2484 1.435 . S
N2453 C2490 1.423 . S
H2454 C2480 0.930 . S
H2455 C2483 0.931 . S
H2456 C2482 0.929 . S
H2457 C2485 0.930 . S
H2458 C2486 0.932 . S
H2459 C2489 0.929 . S
H2460 C2488 0.931 . S
H2461 C2491 0.929 . S
H2462 C2495 0.932 . S
H2463 C2492 0.931 . S
H2464 C2494 0.929 . S
H2465 C2497 0.929 . S
H2466 C2498 0.930 . S
H2467 C2500 0.929 . S
H2468 C2501 0.931 . S
H2469 C2503 0.930 . S
H2470 C2504 0.932 . S
H2471 C2506 0.931 . S
H2472 C2507 0.929 . S
H2473 C2509 0.929 . S
H2474 C2510 0.931 . S
H2475 C2512 0.929 . S
N2476 C2496 1.433 . S
N2476 C2502 1.435 . S
N2476 C2508 1.423 . S
H2477 C2513 0.932 . S
C2478 N2453 1.433 . S
C2478 C2479 1.363 . S
C2478 C2483 1.370 . S
C2479 H2452 0.929 . S
C2479 C2478 1.363 . S
C2479 C2480 1.385 . S
C2480 H2454 0.930 . S
C2480 C2479 1.385 . S
C2480 C2481 1.357 . S
C2481 C2480 1.357 . S
C2481 C2482 1.406 . S
C2482 H2456 0.929 . S
C2482 C2481 1.406 . S
C2482 C2483 1.391 . S
C2483 H2455 0.931 . S
C2483 C2478 1.370 . S
C2483 C2482 1.391 . S
C2484 N2453 1.435 . S
C2484 C2485 1.358 . S
C2484 C2489 1.371 . S
C2485 H2457 0.930 . S
C2485 C2484 1.358 . S
C2485 C2486 1.405 . S
C2486 H2458 0.932 . S
C2486 C2485 1.405 . S
C2486 C2487 1.383 . S
C2487 C2486 1.383 . S
C2487 C2488 1.393 . S
C2488 H2460 0.931 . S
C2488 C2487 1.393 . S
C2488 C2489 1.382 . S
C2489 H2459 0.929 . S
C2489 C2484 1.371 . S
C2489 C2488 1.382 . S
C2490 N2453 1.423 . S
C2490 C2491 1.362 . S
C2490 C2495 1.388 . S
C2491 H2461 0.929 . S
C2491 C2490 1.362 . S
C2491 C2492 1.376 . S
C2492 H2463 0.931 . S
C2492 C2491 1.376 . S
C2492 C2493 1.396 . S
C2493 C2492 1.396 . S
C2493 C2494 1.348 . S
C2493 C2511 1.472 . S
C2494 H2464 0.929 . S
C2494 C2493 1.348 . S
C2494 C2495 1.443 . S
C2495 H2462 0.932 . S
C2495 C2490 1.388 . S
C2495 C2494 1.443 . S
C2496 N2476 1.433 . S
C2496 C2497 1.363 . S
C2496 C2501 1.370 . S
C2497 H2465 0.929 . S
C2497 C2496 1.363 . S
C2497 C2498 1.385 . S
C2498 H2466 0.930 . S
C2498 C2497 1.385 . S
C2498 C2499 1.357 . S
C2499 C2498 1.357 . S
C2499 C2500 1.406 . S
C2500 H2467 0.929 . S
C2500 C2499 1.406 . S
C2500 C2501 1.391 . S
C2501 H2468 0.931 . S
C2501 C2496 1.370 . S
C2501 C2500 1.391 . S
C2502 N2476 1.435 . S
C2502 C2503 1.358 . S
C2502 C2507 1.371 . S
C2503 H2469 0.930 . S
C2503 C2502 1.358 . S
C2503 C2504 1.405 . S
C2504 H2470 0.932 . S
C2504 C2503 1.405 . S
C2504 C2505 1.383 . S
C2505 C2504 1.383 . S
C2505 C2506 1.393 . S
C2506 H2471 0.931 . S
C2506 C2505 1.393 . S
C2506 C2507 1.382 . S
C2507 H2472 0.929 . S
C2507 C2502 1.371 . S
C2507 C2506 1.382 . S
C2508 N2476 1.423 . S
C2508 C2509 1.362 . S
C2508 C2513 1.388 . S
C2509 H2473 0.929 . S
C2509 C2508 1.362 . S
C2509 C2510 1.376 . S
C2510 H2474 0.931 . S
C2510 C2509 1.376 . S
C2510 C2511 1.396 . S
C2511 C2493 1.472 . S
C2511 C2510 1.396 . S
C2511 C2512 1.348 . S
C2512 H2475 0.929 . S
C2512 C2511 1.348 . S
C2512 C2513 1.443 . S
C2513 H2477 0.932 . S
C2513 C2508 1.388 . S
C2513 C2512 1.443 . S
H2514 C2541 0.929 . S
N2515 C2540 1.433 . S
N2515 C2546 1.435 . S
N2515 C2552 1.423 . S
H2516 C2542 0.930 . S
H2517 C2545 0.931 . S
H2518 C2544 0.929 . S
H2519 C2547 0.930 . S
H2520 C2548 0.932 . S
H2521 C2551 0.929 . S
H2522 C2550 0.931 . S
H2523 C2553 0.929 . S
H2524 C2557 0.932 . S
H2525 C2554 0.931 . S
H2526 C2556 0.929 . S
H2527 C2559 0.929 . S
H2528 C2560 0.930 . S
H2529 C2562 0.929 . S
H2530 C2563 0.931 . S
H2531 C2565 0.930 . S
H2532 C2566 0.932 . S
H2533 C2568 0.931 . S
H2534 C2569 0.929 . S
H2535 C2571 0.929 . S
H2536 C2572 0.931 . S
H2537 C2574 0.929 . S
N2538 C2558 1.433 . S
N2538 C2564 1.435 . S
N2538 C2570 1.423 . S
H2539 C2575 0.932 . S
C2540 N2515 1.433 . S
C2540 C2541 1.363 . S
C2540 C2545 1.370 . S
C2541 H2514 0.929 . S
C2541 C2540 1.363 . S
C2541 C2542 1.385 . S
C2542 H2516 0.930 . S
C2542 C2541 1.385 . S
C2542 C2543 1.357 . S
C2543 C2542 1.357 . S
C2543 C2544 1.406 . S
C2544 H2518 0.929 . S
C2544 C2543 1.406 . S
C2544 C2545 1.391 . S
C2545 H2517 0.931 . S
C2545 C2540 1.370 . S
C2545 C2544 1.391 . S
C2546 N2515 1.435 . S
C2546 C2547 1.358 . S
C2546 C2551 1.371 . S
C2547 H2519 0.930 . S
C2547 C2546 1.358 . S
C2547 C2548 1.405 . S
C2548 H2520 0.932 . S
C2548 C2547 1.405 . S
C2548 C2549 1.383 . S
C2549 C2548 1.383 . S
C2549 C2550 1.393 . S
C2550 H2522 0.931 . S
C2550 C2549 1.393 . S
C2550 C2551 1.382 . S
C2551 H2521 0.929 . S
C2551 C2546 1.371 . S
C2551 C2550 1.382 . S
C2552 N2515 1.423 . S
C2552 C2553 1.362 . S
C2552 C2557 1.388 . S
C2553 H2523 0.929 . S
C2553 C2552 1.362 . S
C2553 C2554 1.376 . S
C2554 H2525 0.931 . S
C2554 C2553 1.376 . S
C2554 C2555 1.396 . S
C2555 C2554 1.396 . S
C2555 C2556 1.348 . S
C2555 C2573 1.472 . S
C2556 H2526 0.929 . S
C2556 C2555 1.348 . S
C2556 C2557 1.443 . S
C2557 H2524 0.932 . S
C2557 C2552 1.388 . S
C2557 C2556 1.443 . S
C2558 N2538 1.433 . S
C2558 C2559 1.363 . S
C2558 C2563 1.370 . S
C2559 H2527 0.929 . S
C2559 C2558 1.363 . S
C2559 C2560 1.385 . S
C2560 H2528 0.930 . S
C2560 C2559 1.385 . S
C2560 C2561 1.357 . S
C2561 C2560 1.357 . S
C2561 C2562 1.406 . S
C2562 H2529 0.929 . S
C2562 C2561 1.406 . S
C2562 C2563 1.391 . S
C2563 H2530 0.931 . S
C2563 C2558 1.370 . S
C2563 C2562 1.391 . S
C2564 N2538 1.435 . S
C2564 C2565 1.358 . S
C2564 C2569 1.371 . S
C2565 H2531 0.930 . S
C2565 C2564 1.358 . S
C2565 C2566 1.405 . S
C2566 H2532 0.932 . S
C2566 C2565 1.405 . S
C2566 C2567 1.383 . S
C2567 C2566 1.383 . S
C2567 C2568 1.393 . S
C2568 H2533 0.931 . S
C2568 C2567 1.393 . S
C2568 C2569 1.382 . S
C2569 H2534 0.929 . S
C2569 C2564 1.371 . S
C2569 C2568 1.382 . S
C2570 N2538 1.423 . S
C2570 C2571 1.362 . S
C2570 C2575 1.388 . S
C2571 H2535 0.929 . S
C2571 C2570 1.362 . S
C2571 C2572 1.376 . S
C2572 H2536 0.931 . S
C2572 C2571 1.376 . S
C2572 C2573 1.396 . S
C2573 C2555 1.472 . S
C2573 C2572 1.396 . S
C2573 C2574 1.348 . S
C2574 H2537 0.929 . S
C2574 C2573 1.348 . S
C2574 C2575 1.443 . S
C2575 H2539 0.932 . S
C2575 C2570 1.388 . S
C2575 C2574 1.443 . S
H2576 C2603 0.929 . S
N2577 C2602 1.433 . S
N2577 C2608 1.435 . S
N2577 C2614 1.423 . S
H2578 C2604 0.930 . S
H2579 C2607 0.931 . S
H2580 C2606 0.929 . S
H2581 C2609 0.930 . S
H2582 C2610 0.932 . S
H2583 C2613 0.929 . S
H2584 C2612 0.931 . S
H2585 C2615 0.929 . S
H2586 C2619 0.932 . S
H2587 C2616 0.931 . S
H2588 C2618 0.929 . S
H2589 C2621 0.929 . S
H2590 C2622 0.930 . S
H2591 C2624 0.929 . S
H2592 C2625 0.931 . S
H2593 C2627 0.930 . S
H2594 C2628 0.932 . S
H2595 C2630 0.931 . S
H2596 C2631 0.929 . S
H2597 C2633 0.929 . S
H2598 C2634 0.931 . S
H2599 C2636 0.929 . S
N2600 C2620 1.433 . S
N2600 C2626 1.435 . S
N2600 C2632 1.423 . S
H2601 C2637 0.932 . S
C2602 N2577 1.433 . S
C2602 C2603 1.363 . S
C2602 C2607 1.370 . S
C2603 H2576 0.929 . S
C2603 C2602 1.363 . S
C2603 C2604 1.385 . S
C2604 H2578 0.930 . S
C2604 C2603 1.385 . S
C2604 C2605 1.357 . S
C2605 C2604 1.357 . S
C2605 C2606 1.406 . S
C2606 H2580 0.929 . S
C2606 C2605 1.406 . S
C2606 C2607 1.391 . S
C2607 H2579 0.931 . S
C2607 C2602 1.370 . S
C2607 C2606 1.391 . S
C2608 N2577 1.435 . S
C2608 C2609 1.358 . S
C2608 C2613 1.371 . S
C2609 H2581 0.930 . S
C2609 C2608 1.358 . S
C2609 C2610 1.405 . S
C2610 H2582 0.932 . S
C2610 C2609 1.405 . S
C2610 C2611 1.383 . S
C2611 C2610 1.383 . S
C2611 C2612 1.393 . S
C2612 H2584 0.931 . S
C2612 C2611 1.393 . S
C2612 C2613 1.382 . S
C2613 H2583 0.929 . S
C2613 C2608 1.371 . S
C2613 C2612 1.382 . S
C2614 N2577 1.423 . S
C2614 C2615 1.362 . S
C2614 C2619 1.388 . S
C2615 H2585 0.929 . S
C2615 C2614 1.362 . S
C2615 C2616 1.376 . S
C2616 H2587 0.931 . S
C2616 C2615 1.376 . S
C2616 C2617 1.396 . S
C2617 C2616 1.396 . S
C2617 C2618 1.348 . S
C2617 C2635 1.472 . S
C2618 H2588 0.929 . S
C2618 C2617 1.348 . S
C2618 C2619 1.443 . S
C2619 H2586 0.932 . S
C2619 C2614 1.388 . S
C2619 C2618 1.443 . S
C2620 N2600 1.433 . S
C2620 C2621 1.363 . S
C2620 C2625 1.370 . S
C2621 H2589 0.929 . S
C2621 C2620 1.363 . S
C2621 C2622 1.385 . S
C2622 H2590 0.930 . S
C2622 C2621 1.385 . S
C2622 C2623 1.357 . S
C2623 C2622 1.357 . S
C2623 C2624 1.406 . S
C2624 H2591 0.929 . S
C2624 C2623 1.406 . S
C2624 C2625 1.391 . S
C2625 H2592 0.931 . S
C2625 C2620 1.370 . S
C2625 C2624 1.391 . S
C2626 N2600 1.435 . S
C2626 C2627 1.358 . S
C2626 C2631 1.371 . S
C2627 H2593 0.930 . S
C2627 C2626 1.358 . S
C2627 C2628 1.405 . S
C2628 H2594 0.932 . S
C2628 C2627 1.405 . S
C2628 C2629 1.383 . S
C2629 C2628 1.383 . S
C2629 C2630 1.393 . S
C2630 H2595 0.931 . S
C2630 C2629 1.393 . S
C2630 C2631 1.382 . S
C2631 H2596 0.929 . S
C2631 C2626 1.371 . S
C2631 C2630 1.382 . S
C2632 N2600 1.423 . S
C2632 C2633 1.362 . S
C2632 C2637 1.388 . S
C2633 H2597 0.929 . S
C2633 C2632 1.362 . S
C2633 C2634 1.376 . S
C2634 H2598 0.931 . S
C2634 C2633 1.376 . S
C2634 C2635 1.396 . S
C2635 C2617 1.472 . S
C2635 C2634 1.396 . S
C2635 C2636 1.348 . S
C2636 H2599 0.929 . S
C2636 C2635 1.348 . S
C2636 C2637 1.443 . S
C2637 H2601 0.932 . S
C2637 C2632 1.388 . S
C2637 C2636 1.443 . S
H2638 C2665 0.929 . S
N2639 C2664 1.433 . S
N2639 C2670 1.435 . S
N2639 C2676 1.423 . S
H2640 C2666 0.930 . S
H2641 C2669 0.931 . S
H2642 C2668 0.929 . S
H2643 C2671 0.930 . S
H2644 C2672 0.932 . S
H2645 C2675 0.929 . S
H2646 C2674 0.931 . S
H2647 C2677 0.929 . S
H2648 C2681 0.932 . S
H2649 C2678 0.931 . S
H2650 C2680 0.929 . S
H2651 C2683 0.929 . S
H2652 C2684 0.930 . S
H2653 C2686 0.929 . S
H2654 C2687 0.931 . S
H2655 C2689 0.930 . S
H2656 C2690 0.932 . S
H2657 C2692 0.931 . S
H2658 C2693 0.929 . S
H2659 C2695 0.929 . S
H2660 C2696 0.931 . S
H2661 C2698 0.929 . S
N2662 C2682 1.433 . S
N2662 C2688 1.435 . S
N2662 C2694 1.423 . S
H2663 C2699 0.932 . S
C2664 N2639 1.433 . S
C2664 C2665 1.363 . S
C2664 C2669 1.370 . S
C2665 H2638 0.929 . S
C2665 C2664 1.363 . S
C2665 C2666 1.385 . S
C2666 H2640 0.930 . S
C2666 C2665 1.385 . S
C2666 C2667 1.357 . S
C2667 C2666 1.357 . S
C2667 C2668 1.406 . S
C2668 H2642 0.929 . S
C2668 C2667 1.406 . S
C2668 C2669 1.391 . S
C2669 H2641 0.931 . S
C2669 C2664 1.370 . S
C2669 C2668 1.391 . S
C2670 N2639 1.435 . S
C2670 C2671 1.358 . S
C2670 C2675 1.371 . S
C2671 H2643 0.930 . S
C2671 C2670 1.358 . S
C2671 C2672 1.405 . S
C2672 H2644 0.932 . S
C2672 C2671 1.405 . S
C2672 C2673 1.383 . S
C2673 C2672 1.383 . S
C2673 C2674 1.393 . S
C2674 H2646 0.931 . S
C2674 C2673 1.393 . S
C2674 C2675 1.382 . S
C2675 H2645 0.929 . S
C2675 C2670 1.371 . S
C2675 C2674 1.382 . S
C2676 N2639 1.423 . S
C2676 C2677 1.362 . S
C2676 C2681 1.388 . S
C2677 H2647 0.929 . S
C2677 C2676 1.362 . S
C2677 C2678 1.376 . S
C2678 H2649 0.931 . S
C2678 C2677 1.376 . S
C2678 C2679 1.396 . S
C2679 C2678 1.396 . S
C2679 C2680 1.348 . S
C2679 C2697 1.472 . S
C2680 H2650 0.929 . S
C2680 C2679 1.348 . S
C2680 C2681 1.443 . S
C2681 H2648 0.932 . S
C2681 C2676 1.388 . S
C2681 C2680 1.443 . S
C2682 N2662 1.433 . S
C2682 C2683 1.363 . S
C2682 C2687 1.370 . S
C2683 H2651 0.929 . S
C2683 C2682 1.363 . S
C2683 C2684 1.385 . S
C2684 H2652 0.930 . S
C2684 C2683 1.385 . S
C2684 C2685 1.357 . S
C2685 C2684 1.357 . S
C2685 C2686 1.406 . S
C2686 H2653 0.929 . S
C2686 C2685 1.406 . S
C2686 C2687 1.391 . S
C2687 H2654 0.931 . S
C2687 C2682 1.370 . S
C2687 C2686 1.391 . S
C2688 N2662 1.435 . S
C2688 C2689 1.358 . S
C2688 C2693 1.371 . S
C2689 H2655 0.930 . S
C2689 C2688 1.358 . S
C2689 C2690 1.405 . S
C2690 H2656 0.932 . S
C2690 C2689 1.405 . S
C2690 C2691 1.383 . S
C2691 C2690 1.383 . S
C2691 C2692 1.393 . S
C2692 H2657 0.931 . S
C2692 C2691 1.393 . S
C2692 C2693 1.382 . S
C2693 H2658 0.929 . S
C2693 C2688 1.371 . S
C2693 C2692 1.382 . S
C2694 N2662 1.423 . S
C2694 C2695 1.362 . S
C2694 C2699 1.388 . S
C2695 H2659 0.929 . S
C2695 C2694 1.362 . S
C2695 C2696 1.376 . S
C2696 H2660 0.931 . S
C2696 C2695 1.376 . S
C2696 C2697 1.396 . S
C2697 C2679 1.472 . S
C2697 C2696 1.396 . S
C2697 C2698 1.348 . S
C2698 H2661 0.929 . S
C2698 C2697 1.348 . S
C2698 C2699 1.443 . S
C2699 H2663 0.932 . S
C2699 C2694 1.388 . S
C2699 C2698 1.443 . S
C2700 C2701 1.349 . S
C2700 C2702 1.327 . S
C2700 H2725 0.950 . S
C2701 C2700 1.349 . S
C2701 C2717 1.349 . S
C2702 C2700 1.327 . S
C2702 C2721 1.429 . S
C2702 H2726 0.950 . S
C2703 C2720 1.574 . S
C2703 C2722 1.368 . S
C2703 H2727 0.949 . S
H2704 C2708 0.949 . S
C2705 C2706 1.349 . S
C2705 C2707 1.327 . S
C2705 H2728 0.950 . S
C2706 C2705 1.349 . S
C2706 C2718 1.349 . S
C2707 C2705 1.327 . S
C2707 C2723 1.429 . S
C2707 H2729 0.950 . S
C2708 H2704 0.949 . S
C2708 C2716 1.574 . S
C2708 C2724 1.368 . S
H2709 C2717 0.950 . S
H2710 C2715 0.950 . S
H2711 C2716 0.949 . S
H2712 C2718 0.950 . S
H2713 C2719 0.950 . S
H2714 C2720 0.949 . S
C2715 H2710 0.950 . S
C2715 C2717 1.327 . S
C2715 C2721 1.429 . S
C2716 C2708 1.574 . S
C2716 H2711 0.949 . S
C2716 C2722 1.368 . S
C2717 C2701 1.349 . S
C2717 H2709 0.950 . S
C2717 C2715 1.327 . S
C2718 C2706 1.349 . S
C2718 H2712 0.950 . S
C2718 C2719 1.327 . S
C2719 H2713 0.950 . S
C2719 C2718 1.327 . S
C2719 C2723 1.429 . S
C2720 C2703 1.574 . S
C2720 H2714 0.949 . S
C2720 C2724 1.368 . S
C2721 C2702 1.429 . S
C2721 C2715 1.429 . S
C2721 C2722 1.523 . S
C2722 C2703 1.368 . S
C2722 C2716 1.368 . S
C2722 C2721 1.523 . S
C2723 C2707 1.429 . S
C2723 C2719 1.429 . S
C2723 C2724 1.523 . S
C2724 C2708 1.368 . S
C2724 C2720 1.368 . S
C2724 C2723 1.523 . S
H2725 C2700 0.950 . S
H2726 C2702 0.950 . S
H2727 C2703 0.949 . S
H2728 C2705 0.950 . S
H2729 C2707 0.950 . S
C2730 C2731 1.349 . S
C2730 C2732 1.327 . S
C2730 H2755 0.950 . S
C2731 C2730 1.349 . S
C2731 C2747 1.349 . S
C2732 C2730 1.327 . S
C2732 C2751 1.429 . S
C2732 H2756 0.950 . S
C2733 C2750 1.574 . S
C2733 C2752 1.368 . S
C2733 H2757 0.949 . S
H2734 C2738 0.949 . S
C2735 C2736 1.349 . S
C2735 C2737 1.327 . S
C2735 H2758 0.950 . S
C2736 C2735 1.349 . S
C2736 C2748 1.349 . S
C2737 C2735 1.327 . S
C2737 C2753 1.429 . S
C2737 H2759 0.950 . S
C2738 H2734 0.949 . S
C2738 C2746 1.574 . S
C2738 C2754 1.368 . S
H2739 C2747 0.950 . S
H2740 C2745 0.950 . S
H2741 C2746 0.949 . S
H2742 C2748 0.950 . S
H2743 C2749 0.950 . S
H2744 C2750 0.949 . S
C2745 H2740 0.950 . S
C2745 C2747 1.327 . S
C2745 C2751 1.429 . S
C2746 C2738 1.574 . S
C2746 H2741 0.949 . S
C2746 C2752 1.368 . S
C2747 C2731 1.349 . S
C2747 H2739 0.950 . S
C2747 C2745 1.327 . S
C2748 C2736 1.349 . S
C2748 H2742 0.950 . S
C2748 C2749 1.327 . S
C2749 H2743 0.950 . S
C2749 C2748 1.327 . S
C2749 C2753 1.429 . S
C2750 C2733 1.574 . S
C2750 H2744 0.949 . S
C2750 C2754 1.368 . S
C2751 C2732 1.429 . S
C2751 C2745 1.429 . S
C2751 C2752 1.523 . S
C2752 C2733 1.368 . S
C2752 C2746 1.368 . S
C2752 C2751 1.523 . S
C2753 C2737 1.429 . S
C2753 C2749 1.429 . S
C2753 C2754 1.523 . S
C2754 C2738 1.368 . S
C2754 C2750 1.368 . S
C2754 C2753 1.523 . S
H2755 C2730 0.950 . S
H2756 C2732 0.950 . S
H2757 C2733 0.949 . S
H2758 C2735 0.950 . S
H2759 C2737 0.950 . S
C2760 C2761 1.349 . S
C2760 C2762 1.385 . S
C2760 H2785 0.950 1_545 S
C2761 C2760 1.349 . S
C2761 C2777 1.349 . S
C2762 C2760 1.385 . S
C2762 C2781 1.492 . S
C2762 H2786 0.834 1_545 S
C2763 C2780 1.574 . S
C2763 C2782 1.368 . S
C2763 H2787 0.949 . S
H2764 C2768 0.949 . S
C2765 C2766 1.349 . S
C2765 C2767 1.327 . S
C2765 H2788 0.950 . S
C2766 C2765 1.349 . S
C2766 C2778 1.349 1_545 S
C2767 C2765 1.327 . S
C2767 C2783 1.429 . S
C2767 H2789 0.950 . S
C2768 H2764 0.949 . S
C2768 C2776 1.621 . S
C2768 C2784 1.368 1_565 S
H2769 C2777 0.950 . S
H2770 C2775 0.950 . S
H2771 C2776 1.004 . S
H2772 C2778 0.950 . S
H2773 C2779 0.950 . S
H2774 C2780 0.949 . S
C2775 H2770 0.950 . S
C2775 C2777 1.327 . S
C2775 C2781 1.429 . S
C2776 C2768 1.621 . S
C2776 H2771 1.004 . S
C2776 C2782 1.268 1_565 S
C2777 C2761 1.349 . S
C2777 H2769 0.950 . S
C2777 C2775 1.327 . S
C2778 C2766 1.349 1_565 S
C2778 H2772 0.950 . S
C2778 C2779 1.327 . S
C2779 H2773 0.950 . S
C2779 C2778 1.327 . S
C2779 C2783 1.429 1_565 S
C2780 C2763 1.574 . S
C2780 H2774 0.949 . S
C2780 C2784 1.368 . S
C2781 C2762 1.492 . S
C2781 C2775 1.429 . S
C2781 C2782 1.523 . S
C2782 C2763 1.368 . S
C2782 C2776 1.268 1_545 S
C2782 C2781 1.523 . S
C2783 C2767 1.429 . S
C2783 C2779 1.429 1_545 S
C2783 C2784 1.523 . S
C2784 C2768 1.368 1_545 S
C2784 C2780 1.368 . S
C2784 C2783 1.523 . S
H2785 C2760 0.950 1_565 S
H2786 C2762 0.834 1_565 S
H2787 C2763 0.949 . S
H2788 C2765 0.950 . S
H2789 C2767 0.950 . S
C2790 C2791 1.328 1_545 S
C2790 C2792 1.316 . S
C2790 H2815 0.983 . S
C2791 C2790 1.328 1_565 S
C2791 C2807 1.349 . S
C2792 C2790 1.316 . S
C2792 C2811 1.429 1_545 S
C2792 H2816 0.950 . S
C2793 C2810 1.574 . S
C2793 C2812 1.368 . S
C2793 H2817 0.949 . S
H2794 C2798 0.949 . S
C2795 C2796 1.349 . S
C2795 C2797 1.327 . S
C2795 H2818 0.950 . S
C2796 C2795 1.349 . S
C2796 C2808 1.349 1_565 S
C2797 C2795 1.327 . S
C2797 C2813 1.429 . S
C2797 H2819 0.950 . S
C2798 H2794 0.949 . S
C2798 C2806 1.574 . S
C2798 C2814 1.368 1_545 S
H2799 C2807 0.950 . S
H2800 C2805 0.950 . S
H2801 C2806 0.949 . S
H2802 C2808 0.950 . S
H2803 C2809 0.950 . S
H2804 C2810 0.949 . S
C2805 H2800 0.950 . S
C2805 C2807 1.327 . S
C2805 C2811 1.429 . S
C2806 C2798 1.574 . S
C2806 H2801 0.949 . S
C2806 C2812 1.368 1_545 S
C2807 C2791 1.349 . S
C2807 H2799 0.950 . S
C2807 C2805 1.327 . S
C2808 C2796 1.349 1_545 S
C2808 H2802 0.950 . S
C2808 C2809 1.327 . S
C2809 H2803 0.950 . S
C2809 C2808 1.327 . S
C2809 C2813 1.429 1_545 S
C2810 C2793 1.574 . S
C2810 H2804 0.949 . S
C2810 C2814 1.368 . S
C2811 C2792 1.429 1_565 S
C2811 C2805 1.429 . S
C2811 C2812 1.523 . S
C2812 C2793 1.368 . S
C2812 C2806 1.368 1_565 S
C2812 C2811 1.523 . S
C2813 C2797 1.429 . S
C2813 C2809 1.429 1_565 S
C2813 C2814 1.523 . S
C2814 C2798 1.368 1_565 S
C2814 C2810 1.368 . S
C2814 C2813 1.523 . S
H2815 C2790 0.983 . S
H2816 C2792 0.950 . S
H2817 C2793 0.949 . S
H2818 C2795 0.950 . S
H2819 C2797 0.950 . S
C2820 C2821 1.349 . S
C2820 C2822 1.327 . S
C2820 H2845 0.950 . S
C2821 C2820 1.349 . S
C2821 C2837 1.372 . S
C2822 C2820 1.327 . S
C2822 C2841 1.429 . S
C2822 H2846 0.950 . S
C2823 C2840 1.574 . S
C2823 C2842 1.368 1_655 S
C2823 H2847 0.949 . S
H2824 C2828 0.949 . S
C2825 C2826 1.349 1_655 S
C2825 C2827 1.327 . S
C2825 H2848 0.950 . S
C2826 C2825 1.349 1_455 S
C2826 C2838 1.349 . S
C2827 C2825 1.327 . S
C2827 C2843 1.429 1_655 S
C2827 H2849 0.950 . S
C2828 H2824 0.949 . S
C2828 C2836 1.574 . S
C2828 C2844 1.368 . S
H2829 C2837 0.938 1_655 S
H2830 C2835 1.012 . S
H2831 C2836 0.949 . S
H2832 C2838 0.950 . S
H2833 C2839 0.950 . S
H2834 C2840 0.949 . S
C2835 H2830 1.012 . S
C2835 C2837 1.287 1_655 S
C2835 C2841 1.401 1_655 S
C2836 C2828 1.574 . S
C2836 H2831 0.949 . S
C2836 C2842 1.368 . S
C2837 C2821 1.372 . S
C2837 H2829 0.938 1_455 S
C2837 C2835 1.287 1_455 S
C2838 C2826 1.349 . S
C2838 H2832 0.950 . S
C2838 C2839 1.327 . S
C2839 H2833 0.950 . S
C2839 C2838 1.327 . S
C2839 C2843 1.429 . S
C2840 C2823 1.574 . S
C2840 H2834 0.949 . S
C2840 C2844 1.368 1_655 S
C2841 C2822 1.429 . S
C2841 C2835 1.401 1_455 S
C2841 C2842 1.523 . S
C2842 C2823 1.368 1_455 S
C2842 C2836 1.368 . S
C2842 C2841 1.523 . S
C2843 C2827 1.429 1_455 S
C2843 C2839 1.429 . S
C2843 C2844 1.523 . S
C2844 C2828 1.368 . S
C2844 C2840 1.368 1_455 S
C2844 C2843 1.523 . S
H2845 C2820 0.950 . S
H2846 C2822 0.950 . S
H2847 C2823 0.949 . S
H2848 C2825 0.950 . S
H2849 C2827 0.950 . S
C2850 C2851 1.349 . S
C2850 C2852 1.327 . S
C2850 H2875 0.950 . S
C2851 C2850 1.349 . S
C2851 C2867 1.349 . S
C2852 C2850 1.327 . S
C2852 C2871 1.429 . S
C2852 H2876 0.950 . S
C2853 C2870 1.574 . S
C2853 C2872 1.368 . S
C2853 H2877 0.949 . S
H2854 C2858 0.949 . S
C2855 C2856 1.349 . S
C2855 C2857 1.327 . S
C2855 H2878 0.950 . S
C2856 C2855 1.349 . S
C2856 C2868 1.349 . S
C2857 C2855 1.327 . S
C2857 C2873 1.429 . S
C2857 H2879 0.950 . S
C2858 H2854 0.949 . S
C2858 C2866 1.574 . S
C2858 C2874 1.368 . S
H2859 C2867 0.950 . S
H2860 C2865 0.950 . S
H2861 C2866 0.949 . S
H2862 C2868 0.950 . S
H2863 C2869 0.950 . S
H2864 C2870 0.949 . S
C2865 H2860 0.950 . S
C2865 C2867 1.327 . S
C2865 C2871 1.429 . S
C2866 C2858 1.574 . S
C2866 H2861 0.949 . S
C2866 C2872 1.368 . S
C2867 C2851 1.349 . S
C2867 H2859 0.950 . S
C2867 C2865 1.327 . S
C2868 C2856 1.349 . S
C2868 H2862 0.950 . S
C2868 C2869 1.327 . S
C2869 H2863 0.950 . S
C2869 C2868 1.327 . S
C2869 C2873 1.429 . S
C2870 C2853 1.574 . S
C2870 H2864 0.949 . S
C2870 C2874 1.368 . S
C2871 C2852 1.429 . S
C2871 C2865 1.429 . S
C2871 C2872 1.523 . S
C2872 C2853 1.368 . S
C2872 C2866 1.368 . S
C2872 C2871 1.523 . S
C2873 C2857 1.429 . S
C2873 C2869 1.429 . S
C2873 C2874 1.523 . S
C2874 C2858 1.368 . S
C2874 C2870 1.368 . S
C2874 C2873 1.523 . S
H2875 C2850 0.950 . S
H2876 C2852 0.950 . S
H2877 C2853 0.949 . S
H2878 C2855 0.950 . S
H2879 C2857 0.950 . S
C2880 C2881 1.349 . S
C2880 C2882 1.327 . S
C2880 H2905 0.950 1_455 S
C2881 C2880 1.349 . S
C2881 C2897 1.349 . S
C2882 C2880 1.327 . S
C2882 C2901 1.429 . S
C2882 H2906 0.950 1_455 S
C2883 C2900 1.574 . S
C2883 C2902 1.368 . S
C2883 H2907 0.949 . S
H2884 C2888 0.949 . S
C2885 C2886 1.349 . S
C2885 C2887 1.327 . S
C2885 H2908 0.950 . S
C2886 C2885 1.349 . S
C2886 C2898 1.349 1_455 S
C2887 C2885 1.327 . S
C2887 C2903 1.429 . S
C2887 H2909 0.950 . S
C2888 H2884 0.949 . S
C2888 C2896 1.557 . S
C2888 C2904 1.368 1_655 S
H2889 C2897 0.950 . S
H2890 C2895 0.950 . S
H2891 C2896 0.983 . S
H2892 C2898 0.950 . S
H2893 C2899 0.950 . S
H2894 C2900 0.949 . S
C2895 H2890 0.950 . S
C2895 C2897 1.327 . S
C2895 C2901 1.429 . S
C2896 C2888 1.557 . S
C2896 H2891 0.983 . S
C2896 C2902 1.351 1_655 S
C2897 C2881 1.349 . S
C2897 H2889 0.950 . S
C2897 C2895 1.327 . S
C2898 C2886 1.349 1_655 S
C2898 H2892 0.950 . S
C2898 C2899 1.327 . S
C2899 H2893 0.950 . S
C2899 C2898 1.327 . S
C2899 C2903 1.429 1_655 S
C2900 C2883 1.574 . S
C2900 H2894 0.949 . S
C2900 C2904 1.368 . S
C2901 C2882 1.429 . S
C2901 C2895 1.429 . S
C2901 C2902 1.523 . S
C2902 C2883 1.368 . S
C2902 C2896 1.351 1_455 S
C2902 C2901 1.523 . S
C2903 C2887 1.429 . S
C2903 C2899 1.429 1_455 S
C2903 C2904 1.523 . S
C2904 C2888 1.368 1_455 S
C2904 C2900 1.368 . S
C2904 C2903 1.523 . S
H2905 C2880 0.950 1_655 S
H2906 C2882 0.950 1_655 S
H2907 C2883 0.949 . S
H2908 C2885 0.950 . S
H2909 C2887 0.950 . S
C2910 C2911 1.349 . S
C2910 C2912 1.327 . S
C2910 H2935 0.950 . S
C2911 C2910 1.349 . S
C2911 C2927 1.349 . S
C2912 C2910 1.327 . S
C2912 C2931 1.429 . S
C2912 H2936 0.950 . S
C2913 C2930 1.574 . S
C2913 C2932 1.368 . S
C2913 H2937 0.949 . S
H2914 C2918 0.949 . S
C2915 C2916 1.349 . S
C2915 C2917 1.327 . S
C2915 H2938 0.950 . S
C2916 C2915 1.349 . S
C2916 C2928 1.349 . S
C2917 C2915 1.327 . S
C2917 C2933 1.429 . S
C2917 H2939 0.950 . S
C2918 H2914 0.949 . S
C2918 C2926 1.574 . S
C2918 C2934 1.368 . S
H2919 C2927 0.950 . S
H2920 C2925 0.950 . S
H2921 C2926 0.949 . S
H2922 C2928 0.950 . S
H2923 C2929 0.950 . S
H2924 C2930 0.949 . S
C2925 H2920 0.950 . S
C2925 C2927 1.327 . S
C2925 C2931 1.429 . S
C2926 C2918 1.574 . S
C2926 H2921 0.949 . S
C2926 C2932 1.368 . S
C2927 C2911 1.349 . S
C2927 H2919 0.950 . S
C2927 C2925 1.327 . S
C2928 C2916 1.349 . S
C2928 H2922 0.950 . S
C2928 C2929 1.327 . S
C2929 H2923 0.950 . S
C2929 C2928 1.327 . S
C2929 C2933 1.429 . S
C2930 C2913 1.574 . S
C2930 H2924 0.949 . S
C2930 C2934 1.368 . S
C2931 C2912 1.429 . S
C2931 C2925 1.429 . S
C2931 C2932 1.523 . S
C2932 C2913 1.368 . S
C2932 C2926 1.368 . S
C2932 C2931 1.523 . S
C2933 C2917 1.429 . S
C2933 C2929 1.429 . S
C2933 C2934 1.523 . S
C2934 C2918 1.368 . S
C2934 C2930 1.368 . S
C2934 C2933 1.523 . S
H2935 C2910 0.950 . S
H2936 C2912 0.950 . S
H2937 C2913 0.949 . S
H2938 C2915 0.950 . S
H2939 C2917 0.950 . S
C2940 C2941 1.349 . S
C2940 C2942 1.377 . S
C2940 H2965 0.950 1_565 S
C2941 C2940 1.349 . S
C2941 C2957 1.349 . S
C2942 C2940 1.377 . S
C2942 C2961 1.450 . S
C2942 H2966 0.887 1_565 S
C2943 C2960 1.574 . S
C2943 C2962 1.368 . S
C2943 H2967 0.949 . S
H2944 C2948 0.949 . S
C2945 C2946 1.349 . S
C2945 C2947 1.327 . S
C2945 H2968 0.950 . S
C2946 C2945 1.349 . S
C2946 C2958 1.349 1_565 S
C2947 C2945 1.327 . S
C2947 C2963 1.429 . S
C2947 H2969 0.950 . S
C2948 H2944 0.949 . S
C2948 C2956 1.620 . S
C2948 C2964 1.368 1_545 S
H2949 C2957 0.950 . S
H2950 C2955 0.950 . S
H2951 C2956 0.971 . S
H2952 C2958 0.950 . S
H2953 C2959 0.950 . S
H2954 C2960 0.949 . S
C2955 H2950 0.950 . S
C2955 C2957 1.327 . S
C2955 C2961 1.429 . S
C2956 C2948 1.620 . S
C2956 H2951 0.971 . S
C2956 C2962 1.309 1_545 S
C2957 C2941 1.349 . S
C2957 H2949 0.950 . S
C2957 C2955 1.327 . S
C2958 C2946 1.349 1_545 S
C2958 H2952 0.950 . S
C2958 C2959 1.327 . S
C2959 H2953 0.950 . S
C2959 C2958 1.327 . S
C2959 C2963 1.429 1_545 S
C2960 C2943 1.574 . S
C2960 H2954 0.949 . S
C2960 C2964 1.368 . S
C2961 C2942 1.450 . S
C2961 C2955 1.429 . S
C2961 C2962 1.523 . S
C2962 C2943 1.368 . S
C2962 C2956 1.309 1_565 S
C2962 C2961 1.523 . S
C2963 C2947 1.429 . S
C2963 C2959 1.429 1_565 S
C2963 C2964 1.523 . S
C2964 C2948 1.368 1_565 S
C2964 C2960 1.368 . S
C2964 C2963 1.523 . S
H2965 C2940 0.950 1_545 S
H2966 C2942 0.887 1_545 S
H2967 C2943 0.949 . S
H2968 C2945 0.950 . S
H2969 C2947 0.950 . S
C2970 C2971 1.349 . S
C2970 C2972 1.327 . S
C2970 H2995 0.950 . S
C2971 C2970 1.349 . S
C2971 C2987 1.349 . S
C2972 C2970 1.327 . S
C2972 C2991 1.429 . S
C2972 H2996 0.950 . S
C2973 C2990 1.540 . S
C2973 C2992 1.290 1_565 S
C2973 H2997 1.056 . S
H2974 C2978 0.949 . S
C2975 C2976 1.349 1_565 S
C2975 C2977 1.327 . S
C2975 H2998 0.950 . S
C2976 C2975 1.349 1_545 S
C2976 C2988 1.349 . S
C2977 C2975 1.327 . S
C2977 C2993 1.429 1_565 S
C2977 H2999 0.950 . S
C2978 H2974 0.949 . S
C2978 C2986 1.574 . S
C2978 C2994 1.368 . S
H2979 C2987 0.950 1_565 S
H2980 C2985 0.883 1_565 S
H2981 C2986 0.949 . S
H2982 C2988 0.950 . S
H2983 C2989 0.950 . S
H2984 C2990 0.949 . S
C2985 H2980 0.883 1_545 S
C2985 C2987 1.298 . S
C2985 C2991 1.531 . S
C2986 C2978 1.574 . S
C2986 H2981 0.949 . S
C2986 C2992 1.368 . S
C2987 C2971 1.349 . S
C2987 H2979 0.950 1_545 S
C2987 C2985 1.298 . S
C2988 C2976 1.349 . S
C2988 H2982 0.950 . S
C2988 C2989 1.327 . S
C2989 H2983 0.950 . S
C2989 C2988 1.327 . S
C2989 C2993 1.429 . S
C2990 C2973 1.540 . S
C2990 H2984 0.949 . S
C2990 C2994 1.368 1_565 S
C2991 C2972 1.429 . S
C2991 C2985 1.531 . S
C2991 C2992 1.523 . S
C2992 C2973 1.290 1_545 S
C2992 C2986 1.368 . S
C2992 C2991 1.523 . S
C2993 C2977 1.429 1_545 S
C2993 C2989 1.429 . S
C2993 C2994 1.523 . S
C2994 C2978 1.368 . S
C2994 C2990 1.368 1_545 S
C2994 C2993 1.523 . S
H2995 C2970 0.950 . S
H2996 C2972 0.950 . S
H2997 C2973 1.056 . S
H2998 C2975 0.950 . S
H2999 C2977 0.950 . S
C3000 C3001 1.349 . S
C3000 C3002 1.327 . S
C3000 H3025 0.950 . S
C3001 C3000 1.349 . S
C3001 C3017 1.349 . S
C3002 C3000 1.327 . S
C3002 C3021 1.429 . S
C3002 H3026 0.950 . S
C3003 C3020 1.615 . S
C3003 C3022 1.368 . S
C3003 H3027 0.949 1_655 S
H3004 C3008 0.949 . S
C3005 C3006 1.353 1_455 S
C3005 C3007 1.301 . S
C3005 H3028 0.986 . S
C3006 C3005 1.353 1_655 S
C3006 C3018 1.349 . S
C3007 C3005 1.301 . S
C3007 C3023 1.421 1_455 S
C3007 H3029 0.950 . S
C3008 H3004 0.949 . S
C3008 C3016 1.574 . S
C3008 C3024 1.368 . S
H3009 C3017 0.950 . S
H3010 C3015 0.950 1_455 S
H3011 C3016 0.949 . S
H3012 C3018 0.950 . S
H3013 C3019 0.950 . S
H3014 C3020 0.914 1_455 S
C3015 H3010 0.950 1_655 S
C3015 C3017 1.327 . S
C3015 C3021 1.429 . S
C3016 C3008 1.574 . S
C3016 H3011 0.949 . S
C3016 C3022 1.368 . S
C3017 C3001 1.349 . S
C3017 H3009 0.950 . S
C3017 C3015 1.327 . S
C3018 C3006 1.349 . S
C3018 H3012 0.950 . S
C3018 C3019 1.327 . S
C3019 H3013 0.950 . S
C3019 C3018 1.327 . S
C3019 C3023 1.429 . S
C3020 C3003 1.615 . S
C3020 H3014 0.914 1_655 S
C3020 C3024 1.375 . S
C3021 C3002 1.429 . S
C3021 C3015 1.429 . S
C3021 C3022 1.523 . S
C3022 C3003 1.368 . S
C3022 C3016 1.368 . S
C3022 C3021 1.523 . S
C3023 C3007 1.421 1_655 S
C3023 C3019 1.429 . S
C3023 C3024 1.523 . S
C3024 C3008 1.368 . S
C3024 C3020 1.375 . S
C3024 C3023 1.523 . S
H3025 C3000 0.950 . S
H3026 C3002 0.950 . S
H3027 C3003 0.949 1_455 S
H3028 C3005 0.986 . S
H3029 C3007 0.950 . S
C3030 C3031 1.349 . S
C3030 C3032 1.327 . S
C3030 H3055 0.950 . S
C3031 C3030 1.349 . S
C3031 C3047 1.349 . S
C3032 C3030 1.327 . S
C3032 C3051 1.429 . S
C3032 H3056 0.950 . S
C3033 C3050 1.574 . S
C3033 C3052 1.368 . S
C3033 H3057 0.949 . S
H3034 C3038 0.949 . S
C3035 C3036 1.349 . S
C3035 C3037 1.327 . S
C3035 H3058 0.950 . S
C3036 C3035 1.349 . S
C3036 C3048 1.349 . S
C3037 C3035 1.327 . S
C3037 C3053 1.429 . S
C3037 H3059 0.950 . S
C3038 H3034 0.949 . S
C3038 C3046 1.574 . S
C3038 C3054 1.368 . S
H3039 C3047 0.950 . S
H3040 C3045 0.950 . S
H3041 C3046 0.949 . S
H3042 C3048 0.950 . S
H3043 C3049 0.950 . S
H3044 C3050 0.949 . S
C3045 H3040 0.950 . S
C3045 C3047 1.327 . S
C3045 C3051 1.429 . S
C3046 C3038 1.574 . S
C3046 H3041 0.949 . S
C3046 C3052 1.368 . S
C3047 C3031 1.349 . S
C3047 H3039 0.950 . S
C3047 C3045 1.327 . S
C3048 C3036 1.349 . S
C3048 H3042 0.950 . S
C3048 C3049 1.327 . S
C3049 H3043 0.950 . S
C3049 C3048 1.327 . S
C3049 C3053 1.429 . S
C3050 C3033 1.574 . S
C3050 H3044 0.949 . S
C3050 C3054 1.368 . S
C3051 C3032 1.429 . S
C3051 C3045 1.429 . S
C3051 C3052 1.523 . S
C3052 C3033 1.368 . S
C3052 C3046 1.368 . S
C3052 C3051 1.523 . S
C3053 C3037 1.429 . S
C3053 C3049 1.429 . S
C3053 C3054 1.523 . S
C3054 C3038 1.368 . S
C3054 C3050 1.368 . S
C3054 C3053 1.523 . S
H3055 C3030 0.950 . S
H3056 C3032 0.950 . S
H3057 C3033 0.949 . S
H3058 C3035 0.950 . S
H3059 C3037 0.950 . S
C3060 C3061 1.349 . S
C3060 C3062 1.327 . S
C3060 H3085 0.950 . S
C3061 C3060 1.349 . S
C3061 C3077 1.349 . S
C3062 C3060 1.327 . S
C3062 C3081 1.429 . S
C3062 H3086 0.950 . S
C3063 C3080 1.574 . S
C3063 C3082 1.368 . S
C3063 H3087 0.949 . S
H3064 C3068 0.949 . S
C3065 C3066 1.349 . S
C3065 C3067 1.327 . S
C3065 H3088 0.950 . S
C3066 C3065 1.349 . S
C3066 C3078 1.349 . S
C3067 C3065 1.327 . S
C3067 C3083 1.429 . S
C3067 H3089 0.950 . S
C3068 H3064 0.949 . S
C3068 C3076 1.574 . S
C3068 C3084 1.368 . S
H3069 C3077 0.950 . S
H3070 C3075 0.950 . S
H3071 C3076 0.949 . S
H3072 C3078 0.950 . S
H3073 C3079 0.950 . S
H3074 C3080 0.949 . S
C3075 H3070 0.950 . S
C3075 C3077 1.327 . S
C3075 C3081 1.429 . S
C3076 C3068 1.574 . S
C3076 H3071 0.949 . S
C3076 C3082 1.368 . S
C3077 C3061 1.349 . S
C3077 H3069 0.950 . S
C3077 C3075 1.327 . S
C3078 C3066 1.349 . S
C3078 H3072 0.950 . S
C3078 C3079 1.327 . S
C3079 H3073 0.950 . S
C3079 C3078 1.327 . S
C3079 C3083 1.429 . S
C3080 C3063 1.574 . S
C3080 H3074 0.949 . S
C3080 C3084 1.368 . S
C3081 C3062 1.429 . S
C3081 C3075 1.429 . S
C3081 C3082 1.523 . S
C3082 C3063 1.368 . S
C3082 C3076 1.368 . S
C3082 C3081 1.523 . S
C3083 C3067 1.429 . S
C3083 C3079 1.429 . S
C3083 C3084 1.523 . S
C3084 C3068 1.368 . S
C3084 C3080 1.368 . S
C3084 C3083 1.523 . S
H3085 C3060 0.950 . S
H3086 C3062 0.950 . S
H3087 C3063 0.949 . S
H3088 C3065 0.950 . S
H3089 C3067 0.950 . S
C3090 C3091 1.349 . S
C3090 C3092 1.327 . S
C3090 H3115 0.950 . S
C3091 C3090 1.349 . S
C3091 C3107 1.349 . S
C3092 C3090 1.327 . S
C3092 C3111 1.429 . S
C3092 H3116 0.950 . S
C3093 C3110 1.574 . S
C3093 C3112 1.368 . S
C3093 H3117 0.949 . S
H3094 C3098 0.949 . S
C3095 C3096 1.349 . S
C3095 C3097 1.327 . S
C3095 H3118 0.950 . S
C3096 C3095 1.349 . S
C3096 C3108 1.349 . S
C3097 C3095 1.327 . S
C3097 C3113 1.429 . S
C3097 H3119 0.950 . S
C3098 H3094 0.949 . S
C3098 C3106 1.574 . S
C3098 C3114 1.368 . S
H3099 C3107 0.950 . S
H3100 C3105 0.950 . S
H3101 C3106 0.949 . S
H3102 C3108 0.950 . S
H3103 C3109 0.950 . S
H3104 C3110 0.949 . S
C3105 H3100 0.950 . S
C3105 C3107 1.327 . S
C3105 C3111 1.429 . S
C3106 C3098 1.574 . S
C3106 H3101 0.949 . S
C3106 C3112 1.368 . S
C3107 C3091 1.349 . S
C3107 H3099 0.950 . S
C3107 C3105 1.327 . S
C3108 C3096 1.349 . S
C3108 H3102 0.950 . S
C3108 C3109 1.327 . S
C3109 H3103 0.950 . S
C3109 C3108 1.327 . S
C3109 C3113 1.429 . S
C3110 C3093 1.574 . S
C3110 H3104 0.949 . S
C3110 C3114 1.368 . S
C3111 C3092 1.429 . S
C3111 C3105 1.429 . S
C3111 C3112 1.523 . S
C3112 C3093 1.368 . S
C3112 C3106 1.368 . S
C3112 C3111 1.523 . S
C3113 C3097 1.429 . S
C3113 C3109 1.429 . S
C3113 C3114 1.523 . S
C3114 C3098 1.368 . S
C3114 C3110 1.368 . S
C3114 C3113 1.523 . S
H3115 C3090 0.950 . S
H3116 C3092 0.950 . S
H3117 C3093 0.949 . S
H3118 C3095 0.950 . S
H3119 C3097 0.950 . S
C3120 C3121 1.349 . S
C3120 C3122 1.327 . S
C3120 H3145 0.950 . S
C3121 C3120 1.349 . S
C3121 C3137 1.349 . S
C3122 C3120 1.327 . S
C3122 C3141 1.429 . S
C3122 H3146 0.950 . S
C3123 C3140 1.574 . S
C3123 C3142 1.368 . S
C3123 H3147 0.949 . S
H3124 C3128 0.949 . S
C3125 C3126 1.349 . S
C3125 C3127 1.327 . S
C3125 H3148 0.950 . S
C3126 C3125 1.349 . S
C3126 C3138 1.349 . S
C3127 C3125 1.327 . S
C3127 C3143 1.429 . S
C3127 H3149 0.950 . S
C3128 H3124 0.949 . S
C3128 C3136 1.574 . S
C3128 C3144 1.368 . S
H3129 C3137 0.950 . S
H3130 C3135 0.950 . S
H3131 C3136 0.949 . S
H3132 C3138 0.950 . S
H3133 C3139 0.950 . S
H3134 C3140 0.949 . S
C3135 H3130 0.950 . S
C3135 C3137 1.327 . S
C3135 C3141 1.429 . S
C3136 C3128 1.574 . S
C3136 H3131 0.949 . S
C3136 C3142 1.368 . S
C3137 C3121 1.349 . S
C3137 H3129 0.950 . S
C3137 C3135 1.327 . S
C3138 C3126 1.349 . S
C3138 H3132 0.950 . S
C3138 C3139 1.327 . S
C3139 H3133 0.950 . S
C3139 C3138 1.327 . S
C3139 C3143 1.429 . S
C3140 C3123 1.574 . S
C3140 H3134 0.949 . S
C3140 C3144 1.368 . S
C3141 C3122 1.429 . S
C3141 C3135 1.429 . S
C3141 C3142 1.523 . S
C3142 C3123 1.368 . S
C3142 C3136 1.368 . S
C3142 C3141 1.523 . S
C3143 C3127 1.429 . S
C3143 C3139 1.429 . S
C3143 C3144 1.523 . S
C3144 C3128 1.368 . S
C3144 C3140 1.368 . S
C3144 C3143 1.523 . S
H3145 C3120 0.950 . S
H3146 C3122 0.950 . S
H3147 C3123 0.949 . S
H3148 C3125 0.950 . S
H3149 C3127 0.950 . S
C3150 C3151 1.349 . S
C3150 C3152 1.327 . S
C3150 H3175 0.950 . S
C3151 C3150 1.349 . S
C3151 C3167 1.349 . S
C3152 C3150 1.327 . S
C3152 C3171 1.429 . S
C3152 H3176 0.950 . S
C3153 C3170 1.574 . S
C3153 C3172 1.368 . S
C3153 H3177 0.949 . S
H3154 C3158 0.949 . S
C3155 C3156 1.349 . S
C3155 C3157 1.327 . S
C3155 H3178 0.950 . S
C3156 C3155 1.349 . S
C3156 C3168 1.349 . S
C3157 C3155 1.327 . S
C3157 C3173 1.429 . S
C3157 H3179 0.950 . S
C3158 H3154 0.949 . S
C3158 C3166 1.574 . S
C3158 C3174 1.368 . S
H3159 C3167 0.950 . S
H3160 C3165 0.950 . S
H3161 C3166 0.949 . S
H3162 C3168 0.950 . S
H3163 C3169 0.950 . S
H3164 C3170 0.949 . S
C3165 H3160 0.950 . S
C3165 C3167 1.327 . S
C3165 C3171 1.429 . S
C3166 C3158 1.574 . S
C3166 H3161 0.949 . S
C3166 C3172 1.368 . S
C3167 C3151 1.349 . S
C3167 H3159 0.950 . S
C3167 C3165 1.327 . S
C3168 C3156 1.349 . S
C3168 H3162 0.950 . S
C3168 C3169 1.327 . S
C3169 H3163 0.950 . S
C3169 C3168 1.327 . S
C3169 C3173 1.429 . S
C3170 C3153 1.574 . S
C3170 H3164 0.949 . S
C3170 C3174 1.368 . S
C3171 C3152 1.429 . S
C3171 C3165 1.429 . S
C3171 C3172 1.523 . S
C3172 C3153 1.368 . S
C3172 C3166 1.368 . S
C3172 C3171 1.523 . S
C3173 C3157 1.429 . S
C3173 C3169 1.429 . S
C3173 C3174 1.523 . S
C3174 C3158 1.368 . S
C3174 C3170 1.368 . S
C3174 C3173 1.523 . S
H3175 C3150 0.950 . S
H3176 C3152 0.950 . S
H3177 C3153 0.949 . S
H3178 C3155 0.950 . S
H3179 C3157 0.950 . S
C3180 C3181 1.349 . S
C3180 C3182 1.327 . S
C3180 H3205 0.950 . S
C3181 C3180 1.349 . S
C3181 C3197 1.349 . S
C3182 C3180 1.327 . S
C3182 C3201 1.429 . S
C3182 H3206 0.950 . S
C3183 C3200 1.574 . S
C3183 C3202 1.368 . S
C3183 H3207 0.949 . S
H3184 C3188 0.949 . S
C3185 C3186 1.349 . S
C3185 C3187 1.327 . S
C3185 H3208 0.950 . S
C3186 C3185 1.349 . S
C3186 C3198 1.349 . S
C3187 C3185 1.327 . S
C3187 C3203 1.429 . S
C3187 H3209 0.950 . S
C3188 H3184 0.949 . S
C3188 C3196 1.574 . S
C3188 C3204 1.368 . S
H3189 C3197 0.950 . S
H3190 C3195 0.950 . S
H3191 C3196 0.949 . S
H3192 C3198 0.950 . S
H3193 C3199 0.950 . S
H3194 C3200 0.949 . S
C3195 H3190 0.950 . S
C3195 C3197 1.327 . S
C3195 C3201 1.429 . S
C3196 C3188 1.574 . S
C3196 H3191 0.949 . S
C3196 C3202 1.368 . S
C3197 C3181 1.349 . S
C3197 H3189 0.950 . S
C3197 C3195 1.327 . S
C3198 C3186 1.349 . S
C3198 H3192 0.950 . S
C3198 C3199 1.327 . S
C3199 H3193 0.950 . S
C3199 C3198 1.327 . S
C3199 C3203 1.429 . S
C3200 C3183 1.574 . S
C3200 H3194 0.949 . S
C3200 C3204 1.368 . S
C3201 C3182 1.429 . S
C3201 C3195 1.429 . S
C3201 C3202 1.523 . S
C3202 C3183 1.368 . S
C3202 C3196 1.368 . S
C3202 C3201 1.523 . S
C3203 C3187 1.429 . S
C3203 C3199 1.429 . S
C3203 C3204 1.523 . S
C3204 C3188 1.368 . S
C3204 C3200 1.368 . S
C3204 C3203 1.523 . S
H3205 C3180 0.950 . S
H3206 C3182 0.950 . S
H3207 C3183 0.949 . S
H3208 C3185 0.950 . S
H3209 C3187 0.950 . S
C3210 C3211 1.349 . S
C3210 C3212 1.327 . S
C3210 H3235 0.950 . S
C3211 C3210 1.349 . S
C3211 C3227 1.349 . S
C3212 C3210 1.327 . S
C3212 C3231 1.429 . S
C3212 H3236 0.950 . S
C3213 C3230 1.574 . S
C3213 C3232 1.368 . S
C3213 H3237 0.949 . S
H3214 C3218 0.949 . S
C3215 C3216 1.349 . S
C3215 C3217 1.327 . S
C3215 H3238 0.950 . S
C3216 C3215 1.349 . S
C3216 C3228 1.349 . S
C3217 C3215 1.327 . S
C3217 C3233 1.429 . S
C3217 H3239 0.950 . S
C3218 H3214 0.949 . S
C3218 C3226 1.574 . S
C3218 C3234 1.368 . S
H3219 C3227 0.950 . S
H3220 C3225 0.950 . S
H3221 C3226 0.949 . S
H3222 C3228 0.950 . S
H3223 C3229 0.950 . S
H3224 C3230 0.949 . S
C3225 H3220 0.950 . S
C3225 C3227 1.327 . S
C3225 C3231 1.429 . S
C3226 C3218 1.574 . S
C3226 H3221 0.949 . S
C3226 C3232 1.368 . S
C3227 C3211 1.349 . S
C3227 H3219 0.950 . S
C3227 C3225 1.327 . S
C3228 C3216 1.349 . S
C3228 H3222 0.950 . S
C3228 C3229 1.327 . S
C3229 H3223 0.950 . S
C3229 C3228 1.327 . S
C3229 C3233 1.429 . S
C3230 C3213 1.574 . S
C3230 H3224 0.949 . S
C3230 C3234 1.368 . S
C3231 C3212 1.429 . S
C3231 C3225 1.429 . S
C3231 C3232 1.523 . S
C3232 C3213 1.368 . S
C3232 C3226 1.368 . S
C3232 C3231 1.523 . S
C3233 C3217 1.429 . S
C3233 C3229 1.429 . S
C3233 C3234 1.523 . S
C3234 C3218 1.368 . S
C3234 C3230 1.368 . S
C3234 C3233 1.523 . S
H3235 C3210 0.950 . S
H3236 C3212 0.950 . S
H3237 C3213 0.949 . S
H3238 C3215 0.950 . S
H3239 C3217 0.950 . S
C3240 C3241 1.349 . S
C3240 C3242 1.327 . S
C3240 H3265 0.950 . S
C3241 C3240 1.349 . S
C3241 C3257 1.349 . S
C3242 C3240 1.327 . S
C3242 C3261 1.429 . S
C3242 H3266 0.950 . S
C3243 C3260 1.574 . S
C3243 C3262 1.368 . S
C3243 H3267 0.949 . S
H3244 C3248 0.949 . S
C3245 C3246 1.349 . S
C3245 C3247 1.327 . S
C3245 H3268 0.950 . S
C3246 C3245 1.349 . S
C3246 C3258 1.349 . S
C3247 C3245 1.327 . S
C3247 C3263 1.429 . S
C3247 H3269 0.950 . S
C3248 H3244 0.949 . S
C3248 C3256 1.574 . S
C3248 C3264 1.368 . S
H3249 C3257 0.950 . S
H3250 C3255 0.950 . S
H3251 C3256 0.949 . S
H3252 C3258 0.950 . S
H3253 C3259 0.950 . S
H3254 C3260 0.949 . S
C3255 H3250 0.950 . S
C3255 C3257 1.327 . S
C3255 C3261 1.429 . S
C3256 C3248 1.574 . S
C3256 H3251 0.949 . S
C3256 C3262 1.368 . S
C3257 C3241 1.349 . S
C3257 H3249 0.950 . S
C3257 C3255 1.327 . S
C3258 C3246 1.349 . S
C3258 H3252 0.950 . S
C3258 C3259 1.327 . S
C3259 H3253 0.950 . S
C3259 C3258 1.327 . S
C3259 C3263 1.429 . S
C3260 C3243 1.574 . S
C3260 H3254 0.949 . S
C3260 C3264 1.368 . S
C3261 C3242 1.429 . S
C3261 C3255 1.429 . S
C3261 C3262 1.523 . S
C3262 C3243 1.368 . S
C3262 C3256 1.368 . S
C3262 C3261 1.523 . S
C3263 C3247 1.429 . S
C3263 C3259 1.429 . S
C3263 C3264 1.523 . S
C3264 C3248 1.368 . S
C3264 C3260 1.368 . S
C3264 C3263 1.523 . S
H3265 C3240 0.950 . S
H3266 C3242 0.950 . S
H3267 C3243 0.949 . S
H3268 C3245 0.950 . S
H3269 C3247 0.950 . S
C3270 C3271 1.349 . S
C3270 C3272 1.327 . S
C3270 H3295 0.950 . S
C3271 C3270 1.349 . S
C3271 C3287 1.349 . S
C3272 C3270 1.327 . S
C3272 C3291 1.429 . S
C3272 H3296 0.950 . S
C3273 C3290 1.574 . S
C3273 C3292 1.368 . S
C3273 H3297 0.949 . S
H3274 C3278 0.949 . S
C3275 C3276 1.349 . S
C3275 C3277 1.327 . S
C3275 H3298 0.950 . S
C3276 C3275 1.349 . S
C3276 C3288 1.349 . S
C3277 C3275 1.327 . S
C3277 C3293 1.429 . S
C3277 H3299 0.950 . S
C3278 H3274 0.949 . S
C3278 C3286 1.574 . S
C3278 C3294 1.368 . S
H3279 C3287 0.950 . S
H3280 C3285 0.950 . S
H3281 C3286 0.949 . S
H3282 C3288 0.950 . S
H3283 C3289 0.950 . S
H3284 C3290 0.949 . S
C3285 H3280 0.950 . S
C3285 C3287 1.327 . S
C3285 C3291 1.429 . S
C3286 C3278 1.574 . S
C3286 H3281 0.949 . S
C3286 C3292 1.368 . S
C3287 C3271 1.349 . S
C3287 H3279 0.950 . S
C3287 C3285 1.327 . S
C3288 C3276 1.349 . S
C3288 H3282 0.950 . S
C3288 C3289 1.327 . S
C3289 H3283 0.950 . S
C3289 C3288 1.327 . S
C3289 C3293 1.429 . S
C3290 C3273 1.574 . S
C3290 H3284 0.949 . S
C3290 C3294 1.368 . S
C3291 C3272 1.429 . S
C3291 C3285 1.429 . S
C3291 C3292 1.523 . S
C3292 C3273 1.368 . S
C3292 C3286 1.368 . S
C3292 C3291 1.523 . S
C3293 C3277 1.429 . S
C3293 C3289 1.429 . S
C3293 C3294 1.523 . S
C3294 C3278 1.368 . S
C3294 C3290 1.368 . S
C3294 C3293 1.523 . S
H3295 C3270 0.950 . S
H3296 C3272 0.950 . S
H3297 C3273 0.949 . S
H3298 C3275 0.950 . S
H3299 C3277 0.950 . S
C3300 C3301 1.349 . S
C3300 C3302 1.327 . S
C3300 H3325 0.950 . S
C3301 C3300 1.349 . S
C3301 C3317 1.349 . S
C3302 C3300 1.327 . S
C3302 C3321 1.429 . S
C3302 H3326 0.950 . S
C3303 C3320 1.574 . S
C3303 C3322 1.368 . S
C3303 H3327 0.949 . S
H3304 C3308 0.949 . S
C3305 C3306 1.349 . S
C3305 C3307 1.327 . S
C3305 H3328 0.950 . S
C3306 C3305 1.349 . S
C3306 C3318 1.349 . S
C3307 C3305 1.327 . S
C3307 C3323 1.429 . S
C3307 H3329 0.950 . S
C3308 H3304 0.949 . S
C3308 C3316 1.574 . S
C3308 C3324 1.368 . S
H3309 C3317 0.950 . S
H3310 C3315 0.950 . S
H3311 C3316 0.949 . S
H3312 C3318 0.950 . S
H3313 C3319 0.950 . S
H3314 C3320 0.949 . S
C3315 H3310 0.950 . S
C3315 C3317 1.327 . S
C3315 C3321 1.429 . S
C3316 C3308 1.574 . S
C3316 H3311 0.949 . S
C3316 C3322 1.368 . S
C3317 C3301 1.349 . S
C3317 H3309 0.950 . S
C3317 C3315 1.327 . S
C3318 C3306 1.349 . S
C3318 H3312 0.950 . S
C3318 C3319 1.327 . S
C3319 H3313 0.950 . S
C3319 C3318 1.327 . S
C3319 C3323 1.429 . S
C3320 C3303 1.574 . S
C3320 H3314 0.949 . S
C3320 C3324 1.368 . S
C3321 C3302 1.429 . S
C3321 C3315 1.429 . S
C3321 C3322 1.523 . S
C3322 C3303 1.368 . S
C3322 C3316 1.368 . S
C3322 C3321 1.523 . S
C3323 C3307 1.429 . S
C3323 C3319 1.429 . S
C3323 C3324 1.523 . S
C3324 C3308 1.368 . S
C3324 C3320 1.368 . S
C3324 C3323 1.523 . S
H3325 C3300 0.950 . S
H3326 C3302 0.950 . S
H3327 C3303 0.949 . S
H3328 C3305 0.950 . S
H3329 C3307 0.950 . S
C3330 C3331 1.349 . S
C3330 C3332 1.327 . S
C3330 H3355 0.950 . S
C3331 C3330 1.349 . S
C3331 C3347 1.349 . S
C3332 C3330 1.327 . S
C3332 C3351 1.429 . S
C3332 H3356 0.950 . S
C3333 C3350 1.574 . S
C3333 C3352 1.368 . S
C3333 H3357 0.949 . S
H3334 C3338 0.949 . S
C3335 C3336 1.349 . S
C3335 C3337 1.327 . S
C3335 H3358 0.950 . S
C3336 C3335 1.349 . S
C3336 C3348 1.349 . S
C3337 C3335 1.327 . S
C3337 C3353 1.429 . S
C3337 H3359 0.950 . S
C3338 H3334 0.949 . S
C3338 C3346 1.574 . S
C3338 C3354 1.368 . S
H3339 C3347 0.950 . S
H3340 C3345 0.950 . S
H3341 C3346 0.949 . S
H3342 C3348 0.950 . S
H3343 C3349 0.950 . S
H3344 C3350 0.949 . S
C3345 H3340 0.950 . S
C3345 C3347 1.327 . S
C3345 C3351 1.429 . S
C3346 C3338 1.574 . S
C3346 H3341 0.949 . S
C3346 C3352 1.368 . S
C3347 C3331 1.349 . S
C3347 H3339 0.950 . S
C3347 C3345 1.327 . S
C3348 C3336 1.349 . S
C3348 H3342 0.950 . S
C3348 C3349 1.327 . S
C3349 H3343 0.950 . S
C3349 C3348 1.327 . S
C3349 C3353 1.429 . S
C3350 C3333 1.574 . S
C3350 H3344 0.949 . S
C3350 C3354 1.368 . S
C3351 C3332 1.429 . S
C3351 C3345 1.429 . S
C3351 C3352 1.523 . S
C3352 C3333 1.368 . S
C3352 C3346 1.368 . S
C3352 C3351 1.523 . S
C3353 C3337 1.429 . S
C3353 C3349 1.429 . S
C3353 C3354 1.523 . S
C3354 C3338 1.368 . S
C3354 C3350 1.368 . S
C3354 C3353 1.523 . S
H3355 C3330 0.950 . S
H3356 C3332 0.950 . S
H3357 C3333 0.949 . S
H3358 C3335 0.950 . S
H3359 C3337 0.950 . S
C3360 C3361 1.349 . S
C3360 C3362 1.327 . S
C3360 H3385 0.950 . S
C3361 C3360 1.349 . S
C3361 C3377 1.349 . S
C3362 C3360 1.327 . S
C3362 C3381 1.429 . S
C3362 H3386 0.950 . S
C3363 C3380 1.574 . S
C3363 C3382 1.368 . S
C3363 H3387 0.949 . S
H3364 C3368 0.949 . S
C3365 C3366 1.349 . S
C3365 C3367 1.327 . S
C3365 H3388 0.950 . S
C3366 C3365 1.349 . S
C3366 C3378 1.349 . S
C3367 C3365 1.327 . S
C3367 C3383 1.429 . S
C3367 H3389 0.950 . S
C3368 H3364 0.949 . S
C3368 C3376 1.574 . S
C3368 C3384 1.368 . S
H3369 C3377 0.950 . S
H3370 C3375 0.950 . S
H3371 C3376 0.949 . S
H3372 C3378 0.950 . S
H3373 C3379 0.950 . S
H3374 C3380 0.949 . S
C3375 H3370 0.950 . S
C3375 C3377 1.327 . S
C3375 C3381 1.429 . S
C3376 C3368 1.574 . S
C3376 H3371 0.949 . S
C3376 C3382 1.368 . S
C3377 C3361 1.349 . S
C3377 H3369 0.950 . S
C3377 C3375 1.327 . S
C3378 C3366 1.349 . S
C3378 H3372 0.950 . S
C3378 C3379 1.327 . S
C3379 H3373 0.950 . S
C3379 C3378 1.327 . S
C3379 C3383 1.429 . S
C3380 C3363 1.574 . S
C3380 H3374 0.949 . S
C3380 C3384 1.368 . S
C3381 C3362 1.429 . S
C3381 C3375 1.429 . S
C3381 C3382 1.523 . S
C3382 C3363 1.368 . S
C3382 C3376 1.368 . S
C3382 C3381 1.523 . S
C3383 C3367 1.429 . S
C3383 C3379 1.429 . S
C3383 C3384 1.523 . S
C3384 C3368 1.368 . S
C3384 C3380 1.368 . S
C3384 C3383 1.523 . S
H3385 C3360 0.950 . S
H3386 C3362 0.950 . S
H3387 C3363 0.949 . S
H3388 C3365 0.950 . S
H3389 C3367 0.950 . S
C3390 C3391 1.349 . S
C3390 C3392 1.327 . S
C3390 H3415 0.950 . S
C3391 C3390 1.349 . S
C3391 C3407 1.349 . S
C3392 C3390 1.327 . S
C3392 C3411 1.429 . S
C3392 H3416 0.950 . S
C3393 C3410 1.574 . S
C3393 C3412 1.368 . S
C3393 H3417 0.949 . S
H3394 C3398 0.949 . S
C3395 C3396 1.349 . S
C3395 C3397 1.327 . S
C3395 H3418 0.950 . S
C3396 C3395 1.349 . S
C3396 C3408 1.349 . S
C3397 C3395 1.327 . S
C3397 C3413 1.429 . S
C3397 H3419 0.950 . S
C3398 H3394 0.949 . S
C3398 C3406 1.574 . S
C3398 C3414 1.368 . S
H3399 C3407 0.950 . S
H3400 C3405 0.950 . S
H3401 C3406 0.949 . S
H3402 C3408 0.950 . S
H3403 C3409 0.950 . S
H3404 C3410 0.949 . S
C3405 H3400 0.950 . S
C3405 C3407 1.327 . S
C3405 C3411 1.429 . S
C3406 C3398 1.574 . S
C3406 H3401 0.949 . S
C3406 C3412 1.368 . S
C3407 C3391 1.349 . S
C3407 H3399 0.950 . S
C3407 C3405 1.327 . S
C3408 C3396 1.349 . S
C3408 H3402 0.950 . S
C3408 C3409 1.327 . S
C3409 H3403 0.950 . S
C3409 C3408 1.327 . S
C3409 C3413 1.429 . S
C3410 C3393 1.574 . S
C3410 H3404 0.949 . S
C3410 C3414 1.368 . S
C3411 C3392 1.429 . S
C3411 C3405 1.429 . S
C3411 C3412 1.523 . S
C3412 C3393 1.368 . S
C3412 C3406 1.368 . S
C3412 C3411 1.523 . S
C3413 C3397 1.429 . S
C3413 C3409 1.429 . S
C3413 C3414 1.523 . S
C3414 C3398 1.368 . S
C3414 C3410 1.368 . S
C3414 C3413 1.523 . S
H3415 C3390 0.950 . S
H3416 C3392 0.950 . S
H3417 C3393 0.949 . S
H3418 C3395 0.950 . S
H3419 C3397 0.950 . S
C3420 C3421 1.349 . S
C3420 C3422 1.327 . S
C3420 H3445 0.950 . S
C3421 C3420 1.349 . S
C3421 C3437 1.349 . S
C3422 C3420 1.327 . S
C3422 C3441 1.429 . S
C3422 H3446 0.950 . S
C3423 C3440 1.574 . S
C3423 C3442 1.368 . S
C3423 H3447 0.949 . S
H3424 C3428 0.949 . S
C3425 C3426 1.349 . S
C3425 C3427 1.327 . S
C3425 H3448 0.950 . S
C3426 C3425 1.349 . S
C3426 C3438 1.349 . S
C3427 C3425 1.327 . S
C3427 C3443 1.429 . S
C3427 H3449 0.950 . S
C3428 H3424 0.949 . S
C3428 C3436 1.574 . S
C3428 C3444 1.368 . S
H3429 C3437 0.950 . S
H3430 C3435 0.950 . S
H3431 C3436 0.949 . S
H3432 C3438 0.950 . S
H3433 C3439 0.950 . S
H3434 C3440 0.949 . S
C3435 H3430 0.950 . S
C3435 C3437 1.327 . S
C3435 C3441 1.429 . S
C3436 C3428 1.574 . S
C3436 H3431 0.949 . S
C3436 C3442 1.368 . S
C3437 C3421 1.349 . S
C3437 H3429 0.950 . S
C3437 C3435 1.327 . S
C3438 C3426 1.349 . S
C3438 H3432 0.950 . S
C3438 C3439 1.327 . S
C3439 H3433 0.950 . S
C3439 C3438 1.327 . S
C3439 C3443 1.429 . S
C3440 C3423 1.574 . S
C3440 H3434 0.949 . S
C3440 C3444 1.368 . S
C3441 C3422 1.429 . S
C3441 C3435 1.429 . S
C3441 C3442 1.523 . S
C3442 C3423 1.368 . S
C3442 C3436 1.368 . S
C3442 C3441 1.523 . S
C3443 C3427 1.429 . S
C3443 C3439 1.429 . S
C3443 C3444 1.523 . S
C3444 C3428 1.368 . S
C3444 C3440 1.368 . S
C3444 C3443 1.523 . S
H3445 C3420 0.950 . S
H3446 C3422 0.950 . S
H3447 C3423 0.949 . S
H3448 C3425 0.950 . S
H3449 C3427 0.950 . S
C3450 C3451 1.349 . S
C3450 C3452 1.327 . S
C3450 H3475 0.950 . S
C3451 C3450 1.349 . S
C3451 C3467 1.349 . S
C3452 C3450 1.327 . S
C3452 C3471 1.429 . S
C3452 H3476 0.950 . S
C3453 C3470 1.574 . S
C3453 C3472 1.368 . S
C3453 H3477 0.949 . S
H3454 C3458 0.949 . S
C3455 C3456 1.349 . S
C3455 C3457 1.327 . S
C3455 H3478 0.950 . S
C3456 C3455 1.349 . S
C3456 C3468 1.349 . S
C3457 C3455 1.327 . S
C3457 C3473 1.429 . S
C3457 H3479 0.950 . S
C3458 H3454 0.949 . S
C3458 C3466 1.574 . S
C3458 C3474 1.368 . S
H3459 C3467 0.950 . S
H3460 C3465 0.950 . S
H3461 C3466 0.949 . S
H3462 C3468 0.950 . S
H3463 C3469 0.950 . S
H3464 C3470 0.949 . S
C3465 H3460 0.950 . S
C3465 C3467 1.327 . S
C3465 C3471 1.429 . S
C3466 C3458 1.574 . S
C3466 H3461 0.949 . S
C3466 C3472 1.368 . S
C3467 C3451 1.349 . S
C3467 H3459 0.950 . S
C3467 C3465 1.327 . S
C3468 C3456 1.349 . S
C3468 H3462 0.950 . S
C3468 C3469 1.327 . S
C3469 H3463 0.950 . S
C3469 C3468 1.327 . S
C3469 C3473 1.429 . S
C3470 C3453 1.574 . S
C3470 H3464 0.949 . S
C3470 C3474 1.368 . S
C3471 C3452 1.429 . S
C3471 C3465 1.429 . S
C3471 C3472 1.523 . S
C3472 C3453 1.368 . S
C3472 C3466 1.368 . S
C3472 C3471 1.523 . S
C3473 C3457 1.429 . S
C3473 C3469 1.429 . S
C3473 C3474 1.523 . S
C3474 C3458 1.368 . S
C3474 C3470 1.368 . S
C3474 C3473 1.523 . S
H3475 C3450 0.950 . S
H3476 C3452 0.950 . S
H3477 C3453 0.949 . S
H3478 C3455 0.950 . S
H3479 C3457 0.950 . S
C3480 C3481 1.349 . S
C3480 C3482 1.327 . S
C3480 H3505 0.950 . S
C3481 C3480 1.349 . S
C3481 C3497 1.349 . S
C3482 C3480 1.327 . S
C3482 C3501 1.429 . S
C3482 H3506 0.950 . S
C3483 C3500 1.574 . S
C3483 C3502 1.368 . S
C3483 H3507 0.949 . S
H3484 C3488 0.949 . S
C3485 C3486 1.349 . S
C3485 C3487 1.327 . S
C3485 H3508 0.950 . S
C3486 C3485 1.349 . S
C3486 C3498 1.349 . S
C3487 C3485 1.327 . S
C3487 C3503 1.429 . S
C3487 H3509 0.950 . S
C3488 H3484 0.949 . S
C3488 C3496 1.574 . S
C3488 C3504 1.368 . S
H3489 C3497 0.950 . S
H3490 C3495 0.950 . S
H3491 C3496 0.949 . S
H3492 C3498 0.950 . S
H3493 C3499 0.950 . S
H3494 C3500 0.949 . S
C3495 H3490 0.950 . S
C3495 C3497 1.327 . S
C3495 C3501 1.429 . S
C3496 C3488 1.574 . S
C3496 H3491 0.949 . S
C3496 C3502 1.368 . S
C3497 C3481 1.349 . S
C3497 H3489 0.950 . S
C3497 C3495 1.327 . S
C3498 C3486 1.349 . S
C3498 H3492 0.950 . S
C3498 C3499 1.327 . S
C3499 H3493 0.950 . S
C3499 C3498 1.327 . S
C3499 C3503 1.429 . S
C3500 C3483 1.574 . S
C3500 H3494 0.949 . S
C3500 C3504 1.368 . S
C3501 C3482 1.429 . S
C3501 C3495 1.429 . S
C3501 C3502 1.523 . S
C3502 C3483 1.368 . S
C3502 C3496 1.368 . S
C3502 C3501 1.523 . S
C3503 C3487 1.429 . S
C3503 C3499 1.429 . S
C3503 C3504 1.523 . S
C3504 C3488 1.368 . S
C3504 C3500 1.368 . S
C3504 C3503 1.523 . S
H3505 C3480 0.950 . S
H3506 C3482 0.950 . S
H3507 C3483 0.949 . S
H3508 C3485 0.950 . S
H3509 C3487 0.950 . S
C3510 C3511 1.349 . S
C3510 C3512 1.327 . S
C3510 H3535 0.950 . S
C3511 C3510 1.349 . S
C3511 C3527 1.349 . S
C3512 C3510 1.327 . S
C3512 C3531 1.429 . S
C3512 H3536 0.950 . S
C3513 C3530 1.574 . S
C3513 C3532 1.368 . S
C3513 H3537 0.949 . S
H3514 C3518 0.949 . S
C3515 C3516 1.349 . S
C3515 C3517 1.327 . S
C3515 H3538 0.950 . S
C3516 C3515 1.349 . S
C3516 C3528 1.349 . S
C3517 C3515 1.327 . S
C3517 C3533 1.429 . S
C3517 H3539 0.950 . S
C3518 H3514 0.949 . S
C3518 C3526 1.574 . S
C3518 C3534 1.368 . S
H3519 C3527 0.950 . S
H3520 C3525 0.950 . S
H3521 C3526 0.949 . S
H3522 C3528 0.950 . S
H3523 C3529 0.950 . S
H3524 C3530 0.949 . S
C3525 H3520 0.950 . S
C3525 C3527 1.327 . S
C3525 C3531 1.429 . S
C3526 C3518 1.574 . S
C3526 H3521 0.949 . S
C3526 C3532 1.368 . S
C3527 C3511 1.349 . S
C3527 H3519 0.950 . S
C3527 C3525 1.327 . S
C3528 C3516 1.349 . S
C3528 H3522 0.950 . S
C3528 C3529 1.327 . S
C3529 H3523 0.950 . S
C3529 C3528 1.327 . S
C3529 C3533 1.429 . S
C3530 C3513 1.574 . S
C3530 H3524 0.949 . S
C3530 C3534 1.368 . S
C3531 C3512 1.429 . S
C3531 C3525 1.429 . S
C3531 C3532 1.523 . S
C3532 C3513 1.368 . S
C3532 C3526 1.368 . S
C3532 C3531 1.523 . S
C3533 C3517 1.429 . S
C3533 C3529 1.429 . S
C3533 C3534 1.523 . S
C3534 C3518 1.368 . S
C3534 C3530 1.368 . S
C3534 C3533 1.523 . S
H3535 C3510 0.950 . S
H3536 C3512 0.950 . S
H3537 C3513 0.949 . S
H3538 C3515 0.950 . S
H3539 C3517 0.950 . S
C3540 C3541 1.349 . S
C3540 C3542 1.327 . S
C3540 H3565 0.950 . S
C3541 C3540 1.349 . S
C3541 C3557 1.349 . S
C3542 C3540 1.327 . S
C3542 C3561 1.429 . S
C3542 H3566 0.950 . S
C3543 C3560 1.574 . S
C3543 C3562 1.368 . S
C3543 H3567 0.949 . S
H3544 C3548 0.949 . S
C3545 C3546 1.349 . S
C3545 C3547 1.327 . S
C3545 H3568 0.950 . S
C3546 C3545 1.349 . S
C3546 C3558 1.349 . S
C3547 C3545 1.327 . S
C3547 C3563 1.429 . S
C3547 H3569 0.950 . S
C3548 H3544 0.949 . S
C3548 C3556 1.574 . S
C3548 C3564 1.368 . S
H3549 C3557 0.950 . S
H3550 C3555 0.950 . S
H3551 C3556 0.949 . S
H3552 C3558 0.950 . S
H3553 C3559 0.950 . S
H3554 C3560 0.949 . S
C3555 H3550 0.950 . S
C3555 C3557 1.327 . S
C3555 C3561 1.429 . S
C3556 C3548 1.574 . S
C3556 H3551 0.949 . S
C3556 C3562 1.368 . S
C3557 C3541 1.349 . S
C3557 H3549 0.950 . S
C3557 C3555 1.327 . S
C3558 C3546 1.349 . S
C3558 H3552 0.950 . S
C3558 C3559 1.327 . S
C3559 H3553 0.950 . S
C3559 C3558 1.327 . S
C3559 C3563 1.429 . S
C3560 C3543 1.574 . S
C3560 H3554 0.949 . S
C3560 C3564 1.368 . S
C3561 C3542 1.429 . S
C3561 C3555 1.429 . S
C3561 C3562 1.523 . S
C3562 C3543 1.368 . S
C3562 C3556 1.368 . S
C3562 C3561 1.523 . S
C3563 C3547 1.429 . S
C3563 C3559 1.429 . S
C3563 C3564 1.523 . S
C3564 C3548 1.368 . S
C3564 C3560 1.368 . S
C3564 C3563 1.523 . S
H3565 C3540 0.950 . S
H3566 C3542 0.950 . S
H3567 C3543 0.949 . S
H3568 C3545 0.950 . S
H3569 C3547 0.950 . S
C3570 C3571 1.349 . S
C3570 C3572 1.327 . S
C3570 H3595 0.950 . S
C3571 C3570 1.349 . S
C3571 C3587 1.349 . S
C3572 C3570 1.327 . S
C3572 C3591 1.429 . S
C3572 H3596 0.950 . S
C3573 C3590 1.574 . S
C3573 C3592 1.368 . S
C3573 H3597 0.949 . S
H3574 C3578 0.949 . S
C3575 C3576 1.349 . S
C3575 C3577 1.327 . S
C3575 H3598 0.950 . S
C3576 C3575 1.349 . S
C3576 C3588 1.349 . S
C3577 C3575 1.327 . S
C3577 C3593 1.429 . S
C3577 H3599 0.950 . S
C3578 H3574 0.949 . S
C3578 C3586 1.574 . S
C3578 C3594 1.368 . S
H3579 C3587 0.950 . S
H3580 C3585 0.950 . S
H3581 C3586 0.949 . S
H3582 C3588 0.950 . S
H3583 C3589 0.950 . S
H3584 C3590 0.949 . S
C3585 H3580 0.950 . S
C3585 C3587 1.327 . S
C3585 C3591 1.429 . S
C3586 C3578 1.574 . S
C3586 H3581 0.949 . S
C3586 C3592 1.368 . S
C3587 C3571 1.349 . S
C3587 H3579 0.950 . S
C3587 C3585 1.327 . S
C3588 C3576 1.349 . S
C3588 H3582 0.950 . S
C3588 C3589 1.327 . S
C3589 H3583 0.950 . S
C3589 C3588 1.327 . S
C3589 C3593 1.429 . S
C3590 C3573 1.574 . S
C3590 H3584 0.949 . S
C3590 C3594 1.368 . S
C3591 C3572 1.429 . S
C3591 C3585 1.429 . S
C3591 C3592 1.523 . S
C3592 C3573 1.368 . S
C3592 C3586 1.368 . S
C3592 C3591 1.523 . S
C3593 C3577 1.429 . S
C3593 C3589 1.429 . S
C3593 C3594 1.523 . S
C3594 C3578 1.368 . S
C3594 C3590 1.368 . S
C3594 C3593 1.523 . S
H3595 C3570 0.950 . S
H3596 C3572 0.950 . S
H3597 C3573 0.949 . S
H3598 C3575 0.950 . S
H3599 C3577 0.950 . S
C3600 C3601 1.349 . S
C3600 C3602 1.327 . S
C3600 H3625 0.950 . S
C3601 C3600 1.349 . S
C3601 C3617 1.349 . S
C3602 C3600 1.327 . S
C3602 C3621 1.429 . S
C3602 H3626 0.950 . S
C3603 C3620 1.574 . S
C3603 C3622 1.368 . S
C3603 H3627 0.949 . S
H3604 C3608 0.949 . S
C3605 C3606 1.349 . S
C3605 C3607 1.327 . S
C3605 H3628 0.950 . S
C3606 C3605 1.349 . S
C3606 C3618 1.349 . S
C3607 C3605 1.327 . S
C3607 C3623 1.429 . S
C3607 H3629 0.950 . S
C3608 H3604 0.949 . S
C3608 C3616 1.574 . S
C3608 C3624 1.368 . S
H3609 C3617 0.950 . S
H3610 C3615 0.950 . S
H3611 C3616 0.949 . S
H3612 C3618 0.950 . S
H3613 C3619 0.950 . S
H3614 C3620 0.949 . S
C3615 H3610 0.950 . S
C3615 C3617 1.327 . S
C3615 C3621 1.429 . S
C3616 C3608 1.574 . S
C3616 H3611 0.949 . S
C3616 C3622 1.368 . S
C3617 C3601 1.349 . S
C3617 H3609 0.950 . S
C3617 C3615 1.327 . S
C3618 C3606 1.349 . S
C3618 H3612 0.950 . S
C3618 C3619 1.327 . S
C3619 H3613 0.950 . S
C3619 C3618 1.327 . S
C3619 C3623 1.429 . S
C3620 C3603 1.574 . S
C3620 H3614 0.949 . S
C3620 C3624 1.368 . S
C3621 C3602 1.429 . S
C3621 C3615 1.429 . S
C3621 C3622 1.523 . S
C3622 C3603 1.368 . S
C3622 C3616 1.368 . S
C3622 C3621 1.523 . S
C3623 C3607 1.429 . S
C3623 C3619 1.429 . S
C3623 C3624 1.523 . S
C3624 C3608 1.368 . S
C3624 C3620 1.368 . S
C3624 C3623 1.523 . S
H3625 C3600 0.950 . S
H3626 C3602 0.950 . S
H3627 C3603 0.949 . S
H3628 C3605 0.950 . S
H3629 C3607 0.950 . S
C3630 C3631 1.349 . S
C3630 C3632 1.327 . S
C3630 H3655 0.950 . S
C3631 C3630 1.349 . S
C3631 C3647 1.349 . S
C3632 C3630 1.327 . S
C3632 C3651 1.429 . S
C3632 H3656 0.950 . S
C3633 C3650 1.574 . S
C3633 C3652 1.368 . S
C3633 H3657 0.949 . S
H3634 C3638 0.949 . S
C3635 C3636 1.349 . S
C3635 C3637 1.327 . S
C3635 H3658 0.950 . S
C3636 C3635 1.349 . S
C3636 C3648 1.349 . S
C3637 C3635 1.327 . S
C3637 C3653 1.429 . S
C3637 H3659 0.950 . S
C3638 H3634 0.949 . S
C3638 C3646 1.574 . S
C3638 C3654 1.368 . S
H3639 C3647 0.950 . S
H3640 C3645 0.950 . S
H3641 C3646 0.949 . S
H3642 C3648 0.950 . S
H3643 C3649 0.950 . S
H3644 C3650 0.949 . S
C3645 H3640 0.950 . S
C3645 C3647 1.327 . S
C3645 C3651 1.429 . S
C3646 C3638 1.574 . S
C3646 H3641 0.949 . S
C3646 C3652 1.368 . S
C3647 C3631 1.349 . S
C3647 H3639 0.950 . S
C3647 C3645 1.327 . S
C3648 C3636 1.349 . S
C3648 H3642 0.950 . S
C3648 C3649 1.327 . S
C3649 H3643 0.950 . S
C3649 C3648 1.327 . S
C3649 C3653 1.429 . S
C3650 C3633 1.574 . S
C3650 H3644 0.949 . S
C3650 C3654 1.368 . S
C3651 C3632 1.429 . S
C3651 C3645 1.429 . S
C3651 C3652 1.523 . S
C3652 C3633 1.368 . S
C3652 C3646 1.368 . S
C3652 C3651 1.523 . S
C3653 C3637 1.429 . S
C3653 C3649 1.429 . S
C3653 C3654 1.523 . S
C3654 C3638 1.368 . S
C3654 C3650 1.368 . S
C3654 C3653 1.523 . S
H3655 C3630 0.950 . S
H3656 C3632 0.950 . S
H3657 C3633 0.949 . S
H3658 C3635 0.950 . S
H3659 C3637 0.950 . S
C3660 C3661 1.349 . S
C3660 C3662 1.327 . S
C3660 H3685 0.950 . S
C3661 C3660 1.349 . S
C3661 C3677 1.349 . S
C3662 C3660 1.327 . S
C3662 C3681 1.429 . S
C3662 H3686 0.950 . S
C3663 C3680 1.574 . S
C3663 C3682 1.368 . S
C3663 H3687 0.949 . S
H3664 C3668 0.949 . S
C3665 C3666 1.349 . S
C3665 C3667 1.327 . S
C3665 H3688 0.950 . S
C3666 C3665 1.349 . S
C3666 C3678 1.349 . S
C3667 C3665 1.327 . S
C3667 C3683 1.429 . S
C3667 H3689 0.950 . S
C3668 H3664 0.949 . S
C3668 C3676 1.574 . S
C3668 C3684 1.368 . S
H3669 C3677 0.950 . S
H3670 C3675 0.950 . S
H3671 C3676 0.949 . S
H3672 C3678 0.950 . S
H3673 C3679 0.950 . S
H3674 C3680 0.949 . S
C3675 H3670 0.950 . S
C3675 C3677 1.327 . S
C3675 C3681 1.429 . S
C3676 C3668 1.574 . S
C3676 H3671 0.949 . S
C3676 C3682 1.368 . S
C3677 C3661 1.349 . S
C3677 H3669 0.950 . S
C3677 C3675 1.327 . S
C3678 C3666 1.349 . S
C3678 H3672 0.950 . S
C3678 C3679 1.327 . S
C3679 H3673 0.950 . S
C3679 C3678 1.327 . S
C3679 C3683 1.429 . S
C3680 C3663 1.574 . S
C3680 H3674 0.949 . S
C3680 C3684 1.368 . S
C3681 C3662 1.429 . S
C3681 C3675 1.429 . S
C3681 C3682 1.523 . S
C3682 C3663 1.368 . S
C3682 C3676 1.368 . S
C3682 C3681 1.523 . S
C3683 C3667 1.429 . S
C3683 C3679 1.429 . S
C3683 C3684 1.523 . S
C3684 C3668 1.368 . S
C3684 C3680 1.368 . S
C3684 C3683 1.523 . S
H3685 C3660 0.950 . S
H3686 C3662 0.950 . S
H3687 C3663 0.949 . S
H3688 C3665 0.950 . S
H3689 C3667 0.950 . S
C3690 C3691 1.349 . S
C3690 C3692 1.327 . S
C3690 H3715 0.950 . S
C3691 C3690 1.349 . S
C3691 C3707 1.349 . S
C3692 C3690 1.327 . S
C3692 C3711 1.429 . S
C3692 H3716 0.950 . S
C3693 C3710 1.574 . S
C3693 C3712 1.368 . S
C3693 H3717 0.949 . S
H3694 C3698 0.949 . S
C3695 C3696 1.349 . S
C3695 C3697 1.327 . S
C3695 H3718 0.950 . S
C3696 C3695 1.349 . S
C3696 C3708 1.349 . S
C3697 C3695 1.327 . S
C3697 C3713 1.429 . S
C3697 H3719 0.950 . S
C3698 H3694 0.949 . S
C3698 C3706 1.574 . S
C3698 C3714 1.368 . S
H3699 C3707 0.950 . S
H3700 C3705 0.950 . S
H3701 C3706 0.949 . S
H3702 C3708 0.950 . S
H3703 C3709 0.950 . S
H3704 C3710 0.949 . S
C3705 H3700 0.950 . S
C3705 C3707 1.327 . S
C3705 C3711 1.429 . S
C3706 C3698 1.574 . S
C3706 H3701 0.949 . S
C3706 C3712 1.368 . S
C3707 C3691 1.349 . S
C3707 H3699 0.950 . S
C3707 C3705 1.327 . S
C3708 C3696 1.349 . S
C3708 H3702 0.950 . S
C3708 C3709 1.327 . S
C3709 H3703 0.950 . S
C3709 C3708 1.327 . S
C3709 C3713 1.429 . S
C3710 C3693 1.574 . S
C3710 H3704 0.949 . S
C3710 C3714 1.368 . S
C3711 C3692 1.429 . S
C3711 C3705 1.429 . S
C3711 C3712 1.523 . S
C3712 C3693 1.368 . S
C3712 C3706 1.368 . S
C3712 C3711 1.523 . S
C3713 C3697 1.429 . S
C3713 C3709 1.429 . S
C3713 C3714 1.523 . S
C3714 C3698 1.368 . S
C3714 C3710 1.368 . S
C3714 C3713 1.523 . S
H3715 C3690 0.950 . S
H3716 C3692 0.950 . S
H3717 C3693 0.949 . S
H3718 C3695 0.950 . S
H3719 C3697 0.950 . S
C3720 C3721 1.349 . S
C3720 C3722 1.327 . S
C3720 H3745 0.950 . S
C3721 C3720 1.349 . S
C3721 C3737 1.349 . S
C3722 C3720 1.327 . S
C3722 C3741 1.429 . S
C3722 H3746 0.950 . S
C3723 C3740 1.574 . S
C3723 C3742 1.368 . S
C3723 H3747 0.949 . S
H3724 C3728 0.949 . S
C3725 C3726 1.349 . S
C3725 C3727 1.327 . S
C3725 H3748 0.950 . S
C3726 C3725 1.349 . S
C3726 C3738 1.349 . S
C3727 C3725 1.327 . S
C3727 C3743 1.429 . S
C3727 H3749 0.950 . S
C3728 H3724 0.949 . S
C3728 C3736 1.574 . S
C3728 C3744 1.368 . S
H3729 C3737 0.950 . S
H3730 C3735 0.950 . S
H3731 C3736 0.949 . S
H3732 C3738 0.950 . S
H3733 C3739 0.950 . S
H3734 C3740 0.949 . S
C3735 H3730 0.950 . S
C3735 C3737 1.327 . S
C3735 C3741 1.429 . S
C3736 C3728 1.574 . S
C3736 H3731 0.949 . S
C3736 C3742 1.368 . S
C3737 C3721 1.349 . S
C3737 H3729 0.950 . S
C3737 C3735 1.327 . S
C3738 C3726 1.349 . S
C3738 H3732 0.950 . S
C3738 C3739 1.327 . S
C3739 H3733 0.950 . S
C3739 C3738 1.327 . S
C3739 C3743 1.429 . S
C3740 C3723 1.574 . S
C3740 H3734 0.949 . S
C3740 C3744 1.368 . S
C3741 C3722 1.429 . S
C3741 C3735 1.429 . S
C3741 C3742 1.523 . S
C3742 C3723 1.368 . S
C3742 C3736 1.368 . S
C3742 C3741 1.523 . S
C3743 C3727 1.429 . S
C3743 C3739 1.429 . S
C3743 C3744 1.523 . S
C3744 C3728 1.368 . S
C3744 C3740 1.368 . S
C3744 C3743 1.523 . S
H3745 C3720 0.950 . S
H3746 C3722 0.950 . S
H3747 C3723 0.949 . S
H3748 C3725 0.950 . S
H3749 C3727 0.950 . S
C3750 C3751 1.349 . S
C3750 C3752 1.327 . S
C3750 H3775 0.950 . S
C3751 C3750 1.349 . S
C3751 C3767 1.349 . S
C3752 C3750 1.327 . S
C3752 C3771 1.429 . S
C3752 H3776 0.950 . S
C3753 C3770 1.574 . S
C3753 C3772 1.368 . S
C3753 H3777 0.949 . S
H3754 C3758 0.949 . S
C3755 C3756 1.349 . S
C3755 C3757 1.327 . S
C3755 H3778 0.950 . S
C3756 C3755 1.349 . S
C3756 C3768 1.349 . S
C3757 C3755 1.327 . S
C3757 C3773 1.429 . S
C3757 H3779 0.950 . S
C3758 H3754 0.949 . S
C3758 C3766 1.574 . S
C3758 C3774 1.368 . S
H3759 C3767 0.950 . S
H3760 C3765 0.950 . S
H3761 C3766 0.949 . S
H3762 C3768 0.950 . S
H3763 C3769 0.950 . S
H3764 C3770 0.949 . S
C3765 H3760 0.950 . S
C3765 C3767 1.327 . S
C3765 C3771 1.429 . S
C3766 C3758 1.574 . S
C3766 H3761 0.949 . S
C3766 C3772 1.368 . S
C3767 C3751 1.349 . S
C3767 H3759 0.950 . S
C3767 C3765 1.327 . S
C3768 C3756 1.349 . S
C3768 H3762 0.950 . S
C3768 C3769 1.327 . S
C3769 H3763 0.950 . S
C3769 C3768 1.327 . S
C3769 C3773 1.429 . S
C3770 C3753 1.574 . S
C3770 H3764 0.949 . S
C3770 C3774 1.368 . S
C3771 C3752 1.429 . S
C3771 C3765 1.429 . S
C3771 C3772 1.523 . S
C3772 C3753 1.368 . S
C3772 C3766 1.368 . S
C3772 C3771 1.523 . S
C3773 C3757 1.429 . S
C3773 C3769 1.429 . S
C3773 C3774 1.523 . S
C3774 C3758 1.368 . S
C3774 C3770 1.368 . S
C3774 C3773 1.523 . S
H3775 C3750 0.950 . S
H3776 C3752 0.950 . S
H3777 C3753 0.949 . S
H3778 C3755 0.950 . S
H3779 C3757 0.950 . S
C3780 C3781 1.349 . S
C3780 C3782 1.327 . S
C3780 H3805 0.950 . S
C3781 C3780 1.349 . S
C3781 C3797 1.349 . S
C3782 C3780 1.327 . S
C3782 C3801 1.429 . S
C3782 H3806 0.950 . S
C3783 C3800 1.574 . S
C3783 C3802 1.368 . S
C3783 H3807 0.949 . S
H3784 C3788 0.949 . S
C3785 C3786 1.349 . S
C3785 C3787 1.327 . S
C3785 H3808 0.950 . S
C3786 C3785 1.349 . S
C3786 C3798 1.349 . S
C3787 C3785 1.327 . S
C3787 C3803 1.429 . S
C3787 H3809 0.950 . S
C3788 H3784 0.949 . S
C3788 C3796 1.574 . S
C3788 C3804 1.368 . S
H3789 C3797 0.950 . S
H3790 C3795 0.950 . S
H3791 C3796 0.949 . S
H3792 C3798 0.950 . S
H3793 C3799 0.950 . S
H3794 C3800 0.949 . S
C3795 H3790 0.950 . S
C3795 C3797 1.327 . S
C3795 C3801 1.429 . S
C3796 C3788 1.574 . S
C3796 H3791 0.949 . S
C3796 C3802 1.368 . S
C3797 C3781 1.349 . S
C3797 H3789 0.950 . S
C3797 C3795 1.327 . S
C3798 C3786 1.349 . S
C3798 H3792 0.950 . S
C3798 C3799 1.327 . S
C3799 H3793 0.950 . S
C3799 C3798 1.327 . S
C3799 C3803 1.429 . S
C3800 C3783 1.574 . S
C3800 H3794 0.949 . S
C3800 C3804 1.368 . S
C3801 C3782 1.429 . S
C3801 C3795 1.429 . S
C3801 C3802 1.523 . S
C3802 C3783 1.368 . S
C3802 C3796 1.368 . S
C3802 C3801 1.523 . S
C3803 C3787 1.429 . S
C3803 C3799 1.429 . S
C3803 C3804 1.523 . S
C3804 C3788 1.368 . S
C3804 C3800 1.368 . S
C3804 C3803 1.523 . S
H3805 C3780 0.950 . S
H3806 C3782 0.950 . S
H3807 C3783 0.949 . S
H3808 C3785 0.950 . S
H3809 C3787 0.950 . S
C3810 C3811 1.349 . S
C3810 C3812 1.327 . S
C3810 H3835 0.950 . S
C3811 C3810 1.349 . S
C3811 C3827 1.349 . S
C3812 C3810 1.327 . S
C3812 C3831 1.429 . S
C3812 H3836 0.950 . S
C3813 C3830 1.574 . S
C3813 C3832 1.368 . S
C3813 H3837 0.949 . S
H3814 C3818 0.949 . S
C3815 C3816 1.349 . S
C3815 C3817 1.327 . S
C3815 H3838 0.950 . S
C3816 C3815 1.349 . S
C3816 C3828 1.349 . S
C3817 C3815 1.327 . S
C3817 C3833 1.429 . S
C3817 H3839 0.950 . S
C3818 H3814 0.949 . S
C3818 C3826 1.574 . S
C3818 C3834 1.368 . S
H3819 C3827 0.950 . S
H3820 C3825 0.950 . S
H3821 C3826 0.949 . S
H3822 C3828 0.950 . S
H3823 C3829 0.950 . S
H3824 C3830 0.949 . S
C3825 H3820 0.950 . S
C3825 C3827 1.327 . S
C3825 C3831 1.429 . S
C3826 C3818 1.574 . S
C3826 H3821 0.949 . S
C3826 C3832 1.368 . S
C3827 C3811 1.349 . S
C3827 H3819 0.950 . S
C3827 C3825 1.327 . S
C3828 C3816 1.349 . S
C3828 H3822 0.950 . S
C3828 C3829 1.327 . S
C3829 H3823 0.950 . S
C3829 C3828 1.327 . S
C3829 C3833 1.429 . S
C3830 C3813 1.574 . S
C3830 H3824 0.949 . S
C3830 C3834 1.368 . S
C3831 C3812 1.429 . S
C3831 C3825 1.429 . S
C3831 C3832 1.523 . S
C3832 C3813 1.368 . S
C3832 C3826 1.368 . S
C3832 C3831 1.523 . S
C3833 C3817 1.429 . S
C3833 C3829 1.429 . S
C3833 C3834 1.523 . S
C3834 C3818 1.368 . S
C3834 C3830 1.368 . S
C3834 C3833 1.523 . S
H3835 C3810 0.950 . S
H3836 C3812 0.950 . S
H3837 C3813 0.949 . S
H3838 C3815 0.950 . S
H3839 C3817 0.950 . S
C3840 C3841 1.349 . S
C3840 C3842 1.327 . S
C3840 H3865 0.950 . S
C3841 C3840 1.349 . S
C3841 C3857 1.349 . S
C3842 C3840 1.327 . S
C3842 C3861 1.429 . S
C3842 H3866 0.950 . S
C3843 C3860 1.574 . S
C3843 C3862 1.368 . S
C3843 H3867 0.949 . S
H3844 C3848 0.949 . S
C3845 C3846 1.349 . S
C3845 C3847 1.327 . S
C3845 H3868 0.950 . S
C3846 C3845 1.349 . S
C3846 C3858 1.349 . S
C3847 C3845 1.327 . S
C3847 C3863 1.429 . S
C3847 H3869 0.950 . S
C3848 H3844 0.949 . S
C3848 C3856 1.574 . S
C3848 C3864 1.368 . S
H3849 C3857 0.950 . S
H3850 C3855 0.950 . S
H3851 C3856 0.949 . S
H3852 C3858 0.950 . S
H3853 C3859 0.950 . S
H3854 C3860 0.949 . S
C3855 H3850 0.950 . S
C3855 C3857 1.327 . S
C3855 C3861 1.429 . S
C3856 C3848 1.574 . S
C3856 H3851 0.949 . S
C3856 C3862 1.368 . S
C3857 C3841 1.349 . S
C3857 H3849 0.950 . S
C3857 C3855 1.327 . S
C3858 C3846 1.349 . S
C3858 H3852 0.950 . S
C3858 C3859 1.327 . S
C3859 H3853 0.950 . S
C3859 C3858 1.327 . S
C3859 C3863 1.429 . S
C3860 C3843 1.574 . S
C3860 H3854 0.949 . S
C3860 C3864 1.368 . S
C3861 C3842 1.429 . S
C3861 C3855 1.429 . S
C3861 C3862 1.523 . S
C3862 C3843 1.368 . S
C3862 C3856 1.368 . S
C3862 C3861 1.523 . S
C3863 C3847 1.429 . S
C3863 C3859 1.429 . S
C3863 C3864 1.523 . S
C3864 C3848 1.368 . S
C3864 C3860 1.368 . S
C3864 C3863 1.523 . S
H3865 C3840 0.950 . S
H3866 C3842 0.950 . S
H3867 C3843 0.949 . S
H3868 C3845 0.950 . S
H3869 C3847 0.950 . S
C3870 C3871 1.349 1_554 S
C3870 C3872 1.318 1_554 S
C3870 H3895 0.950 . S
C3871 C3870 1.349 1_556 S
C3871 C3887 1.349 . S
C3872 C3870 1.318 1_556 S
C3872 C3891 1.466 . S
C3872 H3896 0.922 1_556 S
C3873 C3890 1.574 . S
C3873 C3892 1.368 . S
C3873 H3897 0.949 . S
H3874 C3878 0.949 . S
C3875 C3876 1.349 . S
C3875 C3877 1.327 . S
C3875 H3898 0.950 . S
C3876 C3875 1.349 . S
C3876 C3888 1.349 . S
C3877 C3875 1.327 . S
C3877 C3893 1.429 . S
C3877 H3899 0.950 . S
C3878 H3874 0.949 . S
C3878 C3886 1.574 . S
C3878 C3894 1.368 . S
H3879 C3887 0.950 . S
H3880 C3885 0.950 . S
H3881 C3886 0.949 1_554 S
H3882 C3888 0.950 . S
H3883 C3889 0.950 . S
H3884 C3890 0.949 . S
C3885 H3880 0.950 . S
C3885 C3887 1.327 . S
C3885 C3891 1.429 . S
C3886 C3878 1.574 . S
C3886 H3881 0.949 1_556 S
C3886 C3892 1.368 . S
C3887 C3871 1.349 . S
C3887 H3879 0.950 . S
C3887 C3885 1.327 . S
C3888 C3876 1.349 . S
C3888 H3882 0.950 . S
C3888 C3889 1.327 . S
C3889 H3883 0.950 . S
C3889 C3888 1.327 . S
C3889 C3893 1.429 . S
C3890 C3873 1.574 . S
C3890 H3884 0.949 . S
C3890 C3894 1.368 . S
C3891 C3872 1.466 . S
C3891 C3885 1.429 . S
C3891 C3892 1.523 . S
C3892 C3873 1.368 . S
C3892 C3886 1.368 . S
C3892 C3891 1.523 . S
C3893 C3877 1.429 . S
C3893 C3889 1.429 . S
C3893 C3894 1.523 . S
C3894 C3878 1.368 . S
C3894 C3890 1.368 . S
C3894 C3893 1.523 . S
H3895 C3870 0.950 . S
H3896 C3872 0.922 1_554 S
H3897 C3873 0.949 . S
H3898 C3875 0.950 . S
H3899 C3877 0.950 . S
C3900 C3901 1.349 . S
C3900 C3902 1.327 . S
C3900 H3925 0.950 . S
C3901 C3900 1.349 . S
C3901 C3917 1.353 . S
C3902 C3900 1.327 . S
C3902 C3921 1.429 . S
C3902 H3926 0.950 . S
C3903 C3920 1.574 . S
C3903 C3922 1.368 . S
C3903 H3927 0.949 . S
H3904 C3908 0.949 . S
C3905 C3906 1.349 . S
C3905 C3907 1.327 . S
C3905 H3928 0.950 . S
C3906 C3905 1.349 . S
C3906 C3918 1.349 . S
C3907 C3905 1.327 . S
C3907 C3923 1.429 . S
C3907 H3929 0.950 . S
C3908 H3904 0.949 . S
C3908 C3916 1.574 . S
C3908 C3924 1.368 . S
H3909 C3917 0.942 1_554 S
H3910 C3915 0.939 1_554 S
H3911 C3916 0.949 . S
H3912 C3918 0.950 . S
H3913 C3919 0.950 . S
H3914 C3920 0.949 . S
C3915 H3910 0.939 1_556 S
C3915 C3917 1.330 . S
C3915 C3921 1.429 . S
C3916 C3908 1.574 . S
C3916 H3911 0.949 . S
C3916 C3922 1.368 . S
C3917 C3901 1.353 . S
C3917 H3909 0.942 1_556 S
C3917 C3915 1.330 . S
C3918 C3906 1.349 . S
C3918 H3912 0.950 . S
C3918 C3919 1.327 . S
C3919 H3913 0.950 . S
C3919 C3918 1.327 . S
C3919 C3923 1.429 . S
C3920 C3903 1.574 . S
C3920 H3914 0.949 . S
C3920 C3924 1.368 . S
C3921 C3902 1.429 . S
C3921 C3915 1.429 . S
C3921 C3922 1.523 . S
C3922 C3903 1.368 . S
C3922 C3916 1.368 . S
C3922 C3921 1.523 . S
C3923 C3907 1.429 . S
C3923 C3919 1.429 . S
C3923 C3924 1.523 . S
C3924 C3908 1.368 . S
C3924 C3920 1.368 . S
C3924 C3923 1.523 . S
H3925 C3900 0.950 . S
H3926 C3902 0.950 . S
H3927 C3903 0.949 . S
H3928 C3905 0.950 . S
H3929 C3907 0.950 . S
C3930 C3931 1.349 . S
C3930 C3932 1.327 . S
C3930 H3955 0.950 . S
C3931 C3930 1.349 . S
C3931 C3947 1.386 . S
C3932 C3930 1.327 . S
C3932 C3951 1.429 . S
C3932 H3956 0.950 . S
C3933 C3950 1.574 . S
C3933 C3952 1.368 . S
C3933 H3957 0.949 . S
H3934 C3938 0.949 . S
C3935 C3936 1.349 . S
C3935 C3937 1.327 . S
C3935 H3958 0.950 . S
C3936 C3935 1.349 . S
C3936 C3948 1.349 . S
C3937 C3935 1.327 . S
C3937 C3953 1.429 . S
C3937 H3959 0.950 . S
C3938 H3934 0.949 . S
C3938 C3946 1.574 . S
C3938 C3954 1.368 . S
H3939 C3947 0.898 1_554 S
H3940 C3945 0.950 1_554 S
H3941 C3946 0.949 . S
H3942 C3948 0.950 . S
H3943 C3949 0.950 . S
H3944 C3950 0.949 . S
C3945 H3940 0.950 1_556 S
C3945 C3947 1.343 . S
C3945 C3951 1.429 . S
C3946 C3938 1.574 . S
C3946 H3941 0.949 . S
C3946 C3952 1.368 . S
C3947 C3931 1.386 . S
C3947 H3939 0.898 1_556 S
C3947 C3945 1.343 . S
C3948 C3936 1.349 . S
C3948 H3942 0.950 . S
C3948 C3949 1.327 . S
C3949 H3943 0.950 . S
C3949 C3948 1.327 . S
C3949 C3953 1.429 . S
C3950 C3933 1.574 . S
C3950 H3944 0.949 . S
C3950 C3954 1.368 . S
C3951 C3932 1.429 . S
C3951 C3945 1.429 . S
C3951 C3952 1.523 . S
C3952 C3933 1.368 . S
C3952 C3946 1.368 . S
C3952 C3951 1.523 . S
C3953 C3937 1.429 . S
C3953 C3949 1.429 . S
C3953 C3954 1.523 . S
C3954 C3938 1.368 . S
C3954 C3950 1.368 . S
C3954 C3953 1.523 . S
H3955 C3930 0.950 . S
H3956 C3932 0.950 . S
H3957 C3933 0.949 . S
H3958 C3935 0.950 . S
H3959 C3937 0.950 . S
C3960 C3961 1.349 . S
C3960 C3962 1.327 . S
C3960 H3985 0.950 1_556 S
C3961 C3960 1.349 . S
C3961 C3977 1.349 . S
C3962 C3960 1.327 . S
C3962 C3981 1.429 . S
C3962 H3986 0.950 . S
C3963 C3980 1.574 . S
C3963 C3982 1.368 . S
C3963 H3987 0.949 . S
H3964 C3968 0.949 . S
C3965 C3966 1.349 . S
C3965 C3967 1.327 . S
C3965 H3988 0.950 . S
C3966 C3965 1.349 . S
C3966 C3978 1.349 . S
C3967 C3965 1.327 . S
C3967 C3983 1.429 . S
C3967 H3989 0.950 . S
C3968 H3964 0.949 . S
C3968 C3976 1.574 . S
C3968 C3984 1.368 . S
H3969 C3977 0.950 . S
H3970 C3975 0.950 . S
H3971 C3976 0.949 . S
H3972 C3978 0.950 . S
H3973 C3979 0.950 . S
H3974 C3980 0.949 . S
C3975 H3970 0.950 . S
C3975 C3977 1.327 . S
C3975 C3981 1.429 . S
C3976 C3968 1.574 . S
C3976 H3971 0.949 . S
C3976 C3982 1.368 . S
C3977 C3961 1.349 . S
C3977 H3969 0.950 . S
C3977 C3975 1.327 . S
C3978 C3966 1.349 . S
C3978 H3972 0.950 . S
C3978 C3979 1.327 . S
C3979 H3973 0.950 . S
C3979 C3978 1.327 . S
C3979 C3983 1.429 . S
C3980 C3963 1.574 . S
C3980 H3974 0.949 . S
C3980 C3984 1.368 . S
C3981 C3962 1.429 . S
C3981 C3975 1.429 . S
C3981 C3982 1.523 . S
C3982 C3963 1.368 . S
C3982 C3976 1.368 . S
C3982 C3981 1.523 . S
C3983 C3967 1.429 . S
C3983 C3979 1.429 . S
C3983 C3984 1.523 . S
C3984 C3968 1.368 . S
C3984 C3980 1.368 . S
C3984 C3983 1.523 . S
H3985 C3960 0.950 1_554 S
H3986 C3962 0.950 . S
H3987 C3963 0.949 . S
H3988 C3965 0.950 . S
H3989 C3967 0.950 . S
C3990 C3991 1.349 . S
C3990 C3992 1.327 . S
C3990 H4015 0.950 . S
C3991 C3990 1.349 . S
C3991 C4007 1.349 . S
C3992 C3990 1.327 . S
C3992 C4011 1.429 . S
C3992 H4016 0.950 . S
C3993 C4010 1.574 . S
C3993 C4012 1.368 . S
C3993 H4017 0.949 . S
H3994 C3998 0.949 . S
C3995 C3996 1.349 . S
C3995 C3997 1.327 . S
C3995 H4018 0.950 . S
C3996 C3995 1.349 . S
C3996 C4008 1.349 . S
C3997 C3995 1.327 . S
C3997 C4013 1.429 . S
C3997 H4019 0.950 . S
C3998 H3994 0.949 . S
C3998 C4006 1.574 . S
C3998 C4014 1.368 . S
H3999 C4007 0.950 1_554 S
H4000 C4005 0.952 . S
H4001 C4006 0.949 . S
H4002 C4008 0.950 . S
H4003 C4009 0.950 . S
H4004 C4010 0.949 . S
C4005 H4000 0.952 . S
C4005 C4007 1.327 . S
C4005 C4011 1.429 . S
C4006 C3998 1.574 . S
C4006 H4001 0.949 . S
C4006 C4012 1.368 . S
C4007 C3991 1.349 . S
C4007 H3999 0.950 1_556 S
C4007 C4005 1.327 . S
C4008 C3996 1.349 . S
C4008 H4002 0.950 . S
C4008 C4009 1.327 . S
C4009 H4003 0.950 . S
C4009 C4008 1.327 . S
C4009 C4013 1.429 . S
C4010 C3993 1.574 . S
C4010 H4004 0.949 . S
C4010 C4014 1.368 . S
C4011 C3992 1.429 . S
C4011 C4005 1.429 . S
C4011 C4012 1.523 . S
C4012 C3993 1.368 . S
C4012 C4006 1.368 . S
C4012 C4011 1.523 . S
C4013 C3997 1.429 . S
C4013 C4009 1.429 . S
C4013 C4014 1.523 . S
C4014 C3998 1.368 . S
C4014 C4010 1.368 . S
C4014 C4013 1.523 . S
H4015 C3990 0.950 . S
H4016 C3992 0.950 . S
H4017 C3993 0.949 . S
H4018 C3995 0.950 . S
H4019 C3997 0.950 . S
C4020 C4021 1.349 1_554 S
C4020 C4022 1.341 . S
C4020 H4045 0.950 . S
C4021 C4020 1.349 1_556 S
C4021 C4037 1.349 . S
C4022 C4020 1.341 . S
C4022 C4041 1.378 1_554 S
C4022 H4046 0.988 . S
C4023 C4040 1.574 . S
C4023 C4042 1.368 . S
C4023 H4047 0.949 . S
H4024 C4028 0.949 . S
C4025 C4026 1.349 . S
C4025 C4027 1.327 . S
C4025 H4048 0.950 . S
C4026 C4025 1.349 . S
C4026 C4038 1.349 . S
C4027 C4025 1.327 . S
C4027 C4043 1.429 . S
C4027 H4049 0.950 . S
C4028 H4024 0.949 . S
C4028 C4036 1.574 . S
C4028 C4044 1.368 . S
H4029 C4037 0.950 . S
H4030 C4035 0.950 . S
H4031 C4036 0.949 1_554 S
H4032 C4038 0.950 . S
H4033 C4039 0.950 . S
H4034 C4040 0.949 . S
C4035 H4030 0.950 . S
C4035 C4037 1.327 . S
C4035 C4041 1.429 . S
C4036 C4028 1.574 . S
C4036 H4031 0.949 1_556 S
C4036 C4042 1.368 . S
C4037 C4021 1.349 . S
C4037 H4029 0.950 . S
C4037 C4035 1.327 . S
C4038 C4026 1.349 . S
C4038 H4032 0.950 . S
C4038 C4039 1.327 . S
C4039 H4033 0.950 . S
C4039 C4038 1.327 . S
C4039 C4043 1.429 . S
C4040 C4023 1.574 . S
C4040 H4034 0.949 . S
C4040 C4044 1.368 . S
C4041 C4022 1.378 1_556 S
C4041 C4035 1.429 . S
C4041 C4042 1.523 . S
C4042 C4023 1.368 . S
C4042 C4036 1.368 . S
C4042 C4041 1.523 . S
C4043 C4027 1.429 . S
C4043 C4039 1.429 . S
C4043 C4044 1.523 . S
C4044 C4028 1.368 . S
C4044 C4040 1.368 . S
C4044 C4043 1.523 . S
H4045 C4020 0.950 . S
H4046 C4022 0.988 . S
H4047 C4023 0.949 . S
H4048 C4025 0.950 . S
H4049 C4027 0.950 . S
C4050 C4051 1.349 . S
C4050 C4052 1.327 . S
C4050 H4075 0.950 . S
C4051 C4050 1.349 . S
C4051 C4067 1.349 . S
C4052 C4050 1.327 . S
C4052 C4071 1.429 . S
C4052 H4076 0.950 . S
C4053 C4070 1.574 . S
C4053 C4072 1.368 . S
C4053 H4077 0.949 . S
H4054 C4058 0.949 . S
C4055 C4056 1.349 . S
C4055 C4057 1.327 . S
C4055 H4078 0.950 . S
C4056 C4055 1.349 . S
C4056 C4068 1.349 . S
C4057 C4055 1.327 . S
C4057 C4073 1.429 . S
C4057 H4079 0.950 . S
C4058 H4054 0.949 . S
C4058 C4066 1.574 . S
C4058 C4074 1.368 . S
H4059 C4067 0.950 . S
H4060 C4065 0.950 . S
H4061 C4066 0.949 . S
H4062 C4068 0.950 . S
H4063 C4069 0.950 . S
H4064 C4070 0.949 . S
C4065 H4060 0.950 . S
C4065 C4067 1.327 . S
C4065 C4071 1.429 . S
C4066 C4058 1.574 . S
C4066 H4061 0.949 . S
C4066 C4072 1.368 . S
C4067 C4051 1.349 . S
C4067 H4059 0.950 . S
C4067 C4065 1.327 . S
C4068 C4056 1.349 . S
C4068 H4062 0.950 . S
C4068 C4069 1.327 . S
C4069 H4063 0.950 . S
C4069 C4068 1.327 . S
C4069 C4073 1.429 . S
C4070 C4053 1.574 . S
C4070 H4064 0.949 . S
C4070 C4074 1.368 . S
C4071 C4052 1.429 . S
C4071 C4065 1.429 . S
C4071 C4072 1.523 . S
C4072 C4053 1.368 . S
C4072 C4066 1.368 . S
C4072 C4071 1.523 . S
C4073 C4057 1.429 . S
C4073 C4069 1.429 . S
C4073 C4074 1.523 . S
C4074 C4058 1.368 . S
C4074 C4070 1.368 . S
C4074 C4073 1.523 . S
H4075 C4050 0.950 . S
H4076 C4052 0.950 . S
H4077 C4053 0.949 . S
H4078 C4055 0.950 . S
H4079 C4057 0.950 . S
C4080 C4081 1.349 . S
C4080 C4082 1.327 . S
C4080 H4105 0.950 . S
C4081 C4080 1.349 . S
C4081 C4097 1.349 . S
C4082 C4080 1.327 . S
C4082 C4101 1.429 . S
C4082 H4106 0.950 . S
C4083 C4100 1.574 . S
C4083 C4102 1.368 . S
C4083 H4107 0.949 . S
H4084 C4088 0.949 . S
C4085 C4086 1.349 . S
C4085 C4087 1.327 . S
C4085 H4108 0.950 . S
C4086 C4085 1.349 . S
C4086 C4098 1.349 . S
C4087 C4085 1.327 . S
C4087 C4103 1.429 . S
C4087 H4109 0.950 . S
C4088 H4084 0.949 . S
C4088 C4096 1.574 . S
C4088 C4104 1.368 . S
H4089 C4097 0.950 . S
H4090 C4095 0.950 . S
H4091 C4096 0.949 . S
H4092 C4098 0.950 . S
H4093 C4099 0.950 . S
H4094 C4100 0.949 . S
C4095 H4090 0.950 . S
C4095 C4097 1.327 . S
C4095 C4101 1.429 . S
C4096 C4088 1.574 . S
C4096 H4091 0.949 . S
C4096 C4102 1.368 . S
C4097 C4081 1.349 . S
C4097 H4089 0.950 . S
C4097 C4095 1.327 . S
C4098 C4086 1.349 . S
C4098 H4092 0.950 . S
C4098 C4099 1.327 . S
C4099 H4093 0.950 . S
C4099 C4098 1.327 . S
C4099 C4103 1.429 . S
C4100 C4083 1.574 . S
C4100 H4094 0.949 . S
C4100 C4104 1.368 . S
C4101 C4082 1.429 . S
C4101 C4095 1.429 . S
C4101 C4102 1.523 . S
C4102 C4083 1.368 . S
C4102 C4096 1.368 . S
C4102 C4101 1.523 . S
C4103 C4087 1.429 . S
C4103 C4099 1.429 . S
C4103 C4104 1.523 . S
C4104 C4088 1.368 . S
C4104 C4100 1.368 . S
C4104 C4103 1.523 . S
H4105 C4080 0.950 . S
H4106 C4082 0.950 . S
H4107 C4083 0.949 . S
H4108 C4085 0.950 . S
H4109 C4087 0.950 . S
C4110 C4111 1.349 . S
C4110 C4112 1.327 . S
C4110 H4135 0.950 . S
C4111 C4110 1.349 . S
C4111 C4127 1.349 . S
C4112 C4110 1.327 . S
C4112 C4131 1.429 . S
C4112 H4136 0.950 . S
C4113 C4130 1.574 . S
C4113 C4132 1.368 . S
C4113 H4137 0.949 . S
H4114 C4118 0.949 . S
C4115 C4116 1.349 . S
C4115 C4117 1.327 . S
C4115 H4138 0.950 . S
C4116 C4115 1.349 . S
C4116 C4128 1.349 . S
C4117 C4115 1.327 . S
C4117 C4133 1.429 . S
C4117 H4139 0.950 . S
C4118 H4114 0.949 . S
C4118 C4126 1.574 . S
C4118 C4134 1.368 . S
H4119 C4127 0.950 . S
H4120 C4125 0.950 . S
H4121 C4126 0.949 . S
H4122 C4128 0.950 . S
H4123 C4129 0.950 . S
H4124 C4130 0.949 . S
C4125 H4120 0.950 . S
C4125 C4127 1.327 . S
C4125 C4131 1.429 . S
C4126 C4118 1.574 . S
C4126 H4121 0.949 . S
C4126 C4132 1.368 . S
C4127 C4111 1.349 . S
C4127 H4119 0.950 . S
C4127 C4125 1.327 . S
C4128 C4116 1.349 . S
C4128 H4122 0.950 . S
C4128 C4129 1.327 . S
C4129 H4123 0.950 . S
C4129 C4128 1.327 . S
C4129 C4133 1.429 . S
C4130 C4113 1.574 . S
C4130 H4124 0.949 . S
C4130 C4134 1.368 . S
C4131 C4112 1.429 . S
C4131 C4125 1.429 . S
C4131 C4132 1.523 . S
C4132 C4113 1.368 . S
C4132 C4126 1.368 . S
C4132 C4131 1.523 . S
C4133 C4117 1.429 . S
C4133 C4129 1.429 . S
C4133 C4134 1.523 . S
C4134 C4118 1.368 . S
C4134 C4130 1.368 . S
C4134 C4133 1.523 . S
H4135 C4110 0.950 . S
H4136 C4112 0.950 . S
H4137 C4113 0.949 . S
H4138 C4115 0.950 . S
H4139 C4117 0.950 . S
C4140 C4141 1.349 . S
C4140 C4142 1.327 . S
C4140 H4165 0.950 . S
C4141 C4140 1.349 . S
C4141 C4157 1.349 . S
C4142 C4140 1.327 . S
C4142 C4161 1.429 . S
C4142 H4166 0.950 . S
C4143 C4160 1.574 . S
C4143 C4162 1.368 . S
C4143 H4167 0.949 . S
H4144 C4148 0.949 . S
C4145 C4146 1.349 . S
C4145 C4147 1.327 . S
C4145 H4168 0.950 . S
C4146 C4145 1.349 . S
C4146 C4158 1.349 . S
C4147 C4145 1.327 . S
C4147 C4163 1.429 . S
C4147 H4169 0.950 . S
C4148 H4144 0.949 . S
C4148 C4156 1.574 . S
C4148 C4164 1.368 . S
H4149 C4157 0.950 . S
H4150 C4155 0.950 . S
H4151 C4156 0.949 . S
H4152 C4158 0.950 . S
H4153 C4159 0.950 . S
H4154 C4160 0.949 . S
C4155 H4150 0.950 . S
C4155 C4157 1.327 . S
C4155 C4161 1.429 . S
C4156 C4148 1.574 . S
C4156 H4151 0.949 . S
C4156 C4162 1.368 . S
C4157 C4141 1.349 . S
C4157 H4149 0.950 . S
C4157 C4155 1.327 . S
C4158 C4146 1.349 . S
C4158 H4152 0.950 . S
C4158 C4159 1.327 . S
C4159 H4153 0.950 . S
C4159 C4158 1.327 . S
C4159 C4163 1.429 . S
C4160 C4143 1.574 . S
C4160 H4154 0.949 . S
C4160 C4164 1.368 . S
C4161 C4142 1.429 . S
C4161 C4155 1.429 . S
C4161 C4162 1.523 . S
C4162 C4143 1.368 . S
C4162 C4156 1.368 . S
C4162 C4161 1.523 . S
C4163 C4147 1.429 . S
C4163 C4159 1.429 . S
C4163 C4164 1.523 . S
C4164 C4148 1.368 . S
C4164 C4160 1.368 . S
C4164 C4163 1.523 . S
H4165 C4140 0.950 . S
H4166 C4142 0.950 . S
H4167 C4143 0.949 . S
H4168 C4145 0.950 . S
H4169 C4147 0.950 . S
C4170 C4171 1.349 . S
C4170 C4172 1.327 . S
C4170 H4195 0.950 . S
C4171 C4170 1.349 . S
C4171 C4187 1.349 . S
C4172 C4170 1.327 . S
C4172 C4191 1.429 . S
C4172 H4196 0.950 . S
C4173 C4190 1.574 . S
C4173 C4192 1.368 . S
C4173 H4197 0.949 . S
H4174 C4178 0.949 . S
C4175 C4176 1.349 . S
C4175 C4177 1.327 . S
C4175 H4198 0.950 . S
C4176 C4175 1.349 . S
C4176 C4188 1.349 . S
C4177 C4175 1.327 . S
C4177 C4193 1.429 . S
C4177 H4199 0.950 . S
C4178 H4174 0.949 . S
C4178 C4186 1.574 . S
C4178 C4194 1.368 . S
H4179 C4187 0.950 . S
H4180 C4185 0.950 . S
H4181 C4186 0.949 . S
H4182 C4188 0.950 . S
H4183 C4189 0.950 . S
H4184 C4190 0.949 . S
C4185 H4180 0.950 . S
C4185 C4187 1.327 . S
C4185 C4191 1.429 . S
C4186 C4178 1.574 . S
C4186 H4181 0.949 . S
C4186 C4192 1.368 . S
C4187 C4171 1.349 . S
C4187 H4179 0.950 . S
C4187 C4185 1.327 . S
C4188 C4176 1.349 . S
C4188 H4182 0.950 . S
C4188 C4189 1.327 . S
C4189 H4183 0.950 . S
C4189 C4188 1.327 . S
C4189 C4193 1.429 . S
C4190 C4173 1.574 . S
C4190 H4184 0.949 . S
C4190 C4194 1.368 . S
C4191 C4172 1.429 . S
C4191 C4185 1.429 . S
C4191 C4192 1.523 . S
C4192 C4173 1.368 . S
C4192 C4186 1.368 . S
C4192 C4191 1.523 . S
C4193 C4177 1.429 . S
C4193 C4189 1.429 . S
C4193 C4194 1.523 . S
C4194 C4178 1.368 . S
C4194 C4190 1.368 . S
C4194 C4193 1.523 . S
H4195 C4170 0.950 . S
H4196 C4172 0.950 . S
H4197 C4173 0.949 . S
H4198 C4175 0.950 . S
H4199 C4177 0.950 . S
C4200 C4201 1.349 . S
C4200 C4202 1.327 . S
C4200 H4225 0.950 . S
C4201 C4200 1.349 . S
C4201 C4217 1.349 . S
C4202 C4200 1.327 . S
C4202 C4221 1.429 . S
C4202 H4226 0.950 . S
C4203 C4220 1.574 . S
C4203 C4222 1.368 . S
C4203 H4227 0.949 . S
H4204 C4208 0.949 . S
C4205 C4206 1.349 . S
C4205 C4207 1.327 . S
C4205 H4228 0.950 . S
C4206 C4205 1.349 . S
C4206 C4218 1.349 . S
C4207 C4205 1.327 . S
C4207 C4223 1.429 . S
C4207 H4229 0.950 . S
C4208 H4204 0.949 . S
C4208 C4216 1.574 . S
C4208 C4224 1.368 . S
H4209 C4217 0.950 . S
H4210 C4215 0.950 . S
H4211 C4216 0.949 . S
H4212 C4218 0.950 . S
H4213 C4219 0.950 . S
H4214 C4220 0.949 . S
C4215 H4210 0.950 . S
C4215 C4217 1.327 . S
C4215 C4221 1.429 . S
C4216 C4208 1.574 . S
C4216 H4211 0.949 . S
C4216 C4222 1.368 . S
C4217 C4201 1.349 . S
C4217 H4209 0.950 . S
C4217 C4215 1.327 . S
C4218 C4206 1.349 . S
C4218 H4212 0.950 . S
C4218 C4219 1.327 . S
C4219 H4213 0.950 . S
C4219 C4218 1.327 . S
C4219 C4223 1.429 . S
C4220 C4203 1.574 . S
C4220 H4214 0.949 . S
C4220 C4224 1.368 . S
C4221 C4202 1.429 . S
C4221 C4215 1.429 . S
C4221 C4222 1.523 . S
C4222 C4203 1.368 . S
C4222 C4216 1.368 . S
C4222 C4221 1.523 . S
C4223 C4207 1.429 . S
C4223 C4219 1.429 . S
C4223 C4224 1.523 . S
C4224 C4208 1.368 . S
C4224 C4220 1.368 . S
C4224 C4223 1.523 . S
H4225 C4200 0.950 . S
H4226 C4202 0.950 . S
H4227 C4203 0.949 . S
H4228 C4205 0.950 . S
H4229 C4207 0.950 . S
C4230 C4231 1.349 . S
C4230 C4232 1.327 . S
C4230 H4255 0.950 . S
C4231 C4230 1.349 . S
C4231 C4247 1.349 . S
C4232 C4230 1.327 . S
C4232 C4251 1.429 . S
C4232 H4256 0.950 . S
C4233 C4250 1.574 . S
C4233 C4252 1.368 . S
C4233 H4257 0.949 . S
H4234 C4238 0.949 . S
C4235 C4236 1.349 1_655 S
C4235 C4237 1.308 1_655 S
C4235 H4258 0.950 . S
C4236 C4235 1.349 1_455 S
C4236 C4248 1.349 . S
C4237 C4235 1.308 1_455 S
C4237 C4253 1.458 . S
C4237 H4259 0.940 1_455 S
C4238 H4234 0.949 . S
C4238 C4246 1.574 . S
C4238 C4254 1.368 . S
H4239 C4247 0.950 . S
H4240 C4245 0.950 . S
H4241 C4246 0.949 . S
H4242 C4248 0.950 . S
H4243 C4249 0.950 . S
H4244 C4250 0.949 1_655 S
C4245 H4240 0.950 . S
C4245 C4247 1.327 . S
C4245 C4251 1.429 . S
C4246 C4238 1.574 . S
C4246 H4241 0.949 . S
C4246 C4252 1.368 . S
C4247 C4231 1.349 . S
C4247 H4239 0.950 . S
C4247 C4245 1.327 . S
C4248 C4236 1.349 . S
C4248 H4242 0.950 . S
C4248 C4249 1.327 . S
C4249 H4243 0.950 . S
C4249 C4248 1.327 . S
C4249 C4253 1.429 . S
C4250 C4233 1.574 . S
C4250 H4244 0.949 1_455 S
C4250 C4254 1.368 . S
C4251 C4232 1.429 . S
C4251 C4245 1.429 . S
C4251 C4252 1.523 . S
C4252 C4233 1.368 . S
C4252 C4246 1.368 . S
C4252 C4251 1.523 . S
C4253 C4237 1.458 . S
C4253 C4249 1.429 . S
C4253 C4254 1.523 . S
C4254 C4238 1.368 . S
C4254 C4250 1.368 . S
C4254 C4253 1.523 . S
H4255 C4230 0.950 . S
H4256 C4232 0.950 . S
H4257 C4233 0.949 . S
H4258 C4235 0.950 . S
H4259 C4237 0.940 1_655 S
C4260 C4261 1.349 . S
C4260 C4262 1.327 . S
C4260 H4285 0.950 . S
C4261 C4260 1.349 . S
C4261 C4277 1.349 . S
C4262 C4260 1.327 . S
C4262 C4281 1.429 . S
C4262 H4286 0.950 . S
C4263 C4280 1.574 . S
C4263 C4282 1.368 . S
C4263 H4287 0.949 . S
H4264 C4268 0.949 . S
C4265 C4266 1.349 . S
C4265 C4267 1.327 . S
C4265 H4288 0.950 . S
C4266 C4265 1.349 . S
C4266 C4278 1.349 . S
C4267 C4265 1.327 . S
C4267 C4283 1.429 . S
C4267 H4289 0.950 . S
C4268 H4264 0.949 . S
C4268 C4276 1.574 . S
C4268 C4284 1.368 . S
H4269 C4277 0.950 . S
H4270 C4275 0.950 . S
H4271 C4276 0.949 . S
H4272 C4278 0.950 . S
H4273 C4279 0.950 . S
H4274 C4280 0.949 . S
C4275 H4270 0.950 . S
C4275 C4277 1.327 . S
C4275 C4281 1.429 . S
C4276 C4268 1.574 . S
C4276 H4271 0.949 . S
C4276 C4282 1.368 . S
C4277 C4261 1.349 . S
C4277 H4269 0.950 . S
C4277 C4275 1.327 . S
C4278 C4266 1.349 . S
C4278 H4272 0.950 . S
C4278 C4279 1.327 . S
C4279 H4273 0.950 . S
C4279 C4278 1.327 . S
C4279 C4283 1.429 . S
C4280 C4263 1.574 . S
C4280 H4274 0.949 . S
C4280 C4284 1.368 . S
C4281 C4262 1.429 . S
C4281 C4275 1.429 . S
C4281 C4282 1.523 . S
C4282 C4263 1.368 . S
C4282 C4276 1.368 . S
C4282 C4281 1.523 . S
C4283 C4267 1.429 . S
C4283 C4279 1.429 . S
C4283 C4284 1.523 . S
C4284 C4268 1.368 . S
C4284 C4280 1.368 . S
C4284 C4283 1.523 . S
H4285 C4260 0.950 . S
H4286 C4262 0.950 . S
H4287 C4263 0.949 . S
H4288 C4265 0.950 . S
H4289 C4267 0.950 . S
C4290 C4291 1.349 . S
C4290 C4292 1.327 . S
C4290 H4315 0.950 . S
C4291 C4290 1.349 . S
C4291 C4307 1.349 . S
C4292 C4290 1.327 . S
C4292 C4311 1.429 . S
C4292 H4316 0.950 . S
C4293 C4310 1.574 . S
C4293 C4312 1.368 . S
C4293 H4317 0.949 . S
H4294 C4298 0.949 . S
C4295 C4296 1.349 . S
C4295 C4297 1.327 . S
C4295 H4318 0.950 1_565 S
C4296 C4295 1.349 . S
C4296 C4308 1.349 . S
C4297 C4295 1.327 . S
C4297 C4313 1.429 . S
C4297 H4319 0.950 . S
C4298 H4294 0.949 . S
C4298 C4306 1.574 . S
C4298 C4314 1.368 . S
H4299 C4307 0.950 . S
H4300 C4305 0.950 . S
H4301 C4306 0.949 . S
H4302 C4308 0.950 . S
H4303 C4309 0.950 . S
H4304 C4310 0.949 . S
C4305 H4300 0.950 . S
C4305 C4307 1.327 . S
C4305 C4311 1.429 . S
C4306 C4298 1.574 . S
C4306 H4301 0.949 . S
C4306 C4312 1.368 . S
C4307 C4291 1.349 . S
C4307 H4299 0.950 . S
C4307 C4305 1.327 . S
C4308 C4296 1.349 . S
C4308 H4302 0.950 . S
C4308 C4309 1.327 . S
C4309 H4303 0.950 . S
C4309 C4308 1.327 . S
C4309 C4313 1.429 . S
C4310 C4293 1.574 . S
C4310 H4304 0.949 . S
C4310 C4314 1.368 . S
C4311 C4292 1.429 . S
C4311 C4305 1.429 . S
C4311 C4312 1.523 . S
C4312 C4293 1.368 . S
C4312 C4306 1.368 . S
C4312 C4311 1.523 . S
C4313 C4297 1.429 . S
C4313 C4309 1.429 . S
C4313 C4314 1.523 . S
C4314 C4298 1.368 . S
C4314 C4310 1.368 . S
C4314 C4313 1.523 . S
H4315 C4290 0.950 . S
H4316 C4292 0.950 . S
H4317 C4293 0.949 . S
H4318 C4295 0.950 1_545 S
H4319 C4297 0.950 . S
C4320 C4321 1.349 . S
C4320 C4322 1.327 . S
C4320 H4345 0.950 . S
C4321 C4320 1.349 . S
C4321 C4337 1.349 . S
C4322 C4320 1.327 . S
C4322 C4341 1.429 . S
C4322 H4346 0.950 . S
C4323 C4340 1.574 . S
C4323 C4342 1.368 . S
C4323 H4347 0.949 . S
H4324 C4328 0.949 . S
C4325 C4326 1.349 1_545 S
C4325 C4327 1.332 . S
C4325 H4348 0.950 . S
C4326 C4325 1.349 1_565 S
C4326 C4338 1.349 . S
C4327 C4325 1.332 . S
C4327 C4343 1.422 1_545 S
C4327 H4349 0.951 . S
C4328 H4324 0.949 . S
C4328 C4336 1.574 . S
C4328 C4344 1.368 . S
H4329 C4337 0.950 . S
H4330 C4335 0.950 . S
H4331 C4336 0.949 . S
H4332 C4338 0.950 . S
H4333 C4339 0.950 . S
H4334 C4340 0.949 1_545 S
C4335 H4330 0.950 . S
C4335 C4337 1.327 . S
C4335 C4341 1.429 . S
C4336 C4328 1.574 . S
C4336 H4331 0.949 . S
C4336 C4342 1.368 . S
C4337 C4321 1.349 . S
C4337 H4329 0.950 . S
C4337 C4335 1.327 . S
C4338 C4326 1.349 . S
C4338 H4332 0.950 . S
C4338 C4339 1.327 . S
C4339 H4333 0.950 . S
C4339 C4338 1.327 . S
C4339 C4343 1.429 . S
C4340 C4323 1.574 . S
C4340 H4334 0.949 1_565 S
C4340 C4344 1.368 . S
C4341 C4322 1.429 . S
C4341 C4335 1.429 . S
C4341 C4342 1.523 . S
C4342 C4323 1.368 . S
C4342 C4336 1.368 . S
C4342 C4341 1.523 . S
C4343 C4327 1.422 1_565 S
C4343 C4339 1.429 . S
C4343 C4344 1.523 . S
C4344 C4328 1.368 . S
C4344 C4340 1.368 . S
C4344 C4343 1.523 . S
H4345 C4320 0.950 . S
H4346 C4322 0.950 . S
H4347 C4323 0.949 . S
H4348 C4325 0.950 . S
H4349 C4327 0.951 . S
C4350 C4351 1.349 . S
C4350 C4352 1.327 . S
C4350 H4375 0.950 . S
C4351 C4350 1.349 . S
C4351 C4367 1.349 . S
C4352 C4350 1.327 . S
C4352 C4371 1.429 . S
C4352 H4376 0.950 . S
C4353 C4370 1.574 . S
C4353 C4372 1.368 . S
C4353 H4377 0.949 . S
H4354 C4358 0.949 . S
C4355 C4356 1.349 . S
C4355 C4357 1.327 . S
C4355 H4378 0.950 1_455 S
C4356 C4355 1.349 . S
C4356 C4368 1.349 . S
C4357 C4355 1.327 . S
C4357 C4373 1.429 . S
C4357 H4379 0.950 . S
C4358 H4354 0.949 . S
C4358 C4366 1.574 . S
C4358 C4374 1.368 . S
H4359 C4367 0.950 . S
H4360 C4365 0.950 . S
H4361 C4366 0.949 . S
H4362 C4368 0.950 . S
H4363 C4369 0.950 . S
H4364 C4370 0.949 . S
C4365 H4360 0.950 . S
C4365 C4367 1.327 . S
C4365 C4371 1.429 . S
C4366 C4358 1.574 . S
C4366 H4361 0.949 . S
C4366 C4372 1.368 . S
C4367 C4351 1.349 . S
C4367 H4359 0.950 . S
C4367 C4365 1.327 . S
C4368 C4356 1.349 . S
C4368 H4362 0.950 . S
C4368 C4369 1.327 . S
C4369 H4363 0.950 . S
C4369 C4368 1.327 . S
C4369 C4373 1.429 . S
C4370 C4353 1.574 . S
C4370 H4364 0.949 . S
C4370 C4374 1.368 . S
C4371 C4352 1.429 . S
C4371 C4365 1.429 . S
C4371 C4372 1.523 . S
C4372 C4353 1.368 . S
C4372 C4366 1.368 . S
C4372 C4371 1.523 . S
C4373 C4357 1.429 . S
C4373 C4369 1.429 . S
C4373 C4374 1.523 . S
C4374 C4358 1.368 . S
C4374 C4370 1.368 . S
C4374 C4373 1.523 . S
H4375 C4350 0.950 . S
H4376 C4352 0.950 . S
H4377 C4353 0.949 . S
H4378 C4355 0.950 1_655 S
H4379 C4357 0.950 . S
C4380 C4381 1.349 . S
C4380 C4382 1.327 . S
C4380 H4405 0.950 . S
C4381 C4380 1.349 . S
C4381 C4397 1.349 . S
C4382 C4380 1.327 . S
C4382 C4401 1.429 . S
C4382 H4406 0.950 . S
C4383 C4400 1.574 . S
C4383 C4402 1.368 . S
C4383 H4407 0.949 . S
H4384 C4388 0.949 . S
C4385 C4386 1.349 . S
C4385 C4387 1.327 . S
C4385 H4408 0.950 . S
C4386 C4385 1.349 . S
C4386 C4398 1.349 . S
C4387 C4385 1.327 . S
C4387 C4403 1.429 . S
C4387 H4409 0.950 . S
C4388 H4384 0.949 . S
C4388 C4396 1.574 . S
C4388 C4404 1.368 . S
H4389 C4397 0.950 . S
H4390 C4395 0.950 . S
H4391 C4396 0.949 . S
H4392 C4398 0.950 . S
H4393 C4399 0.950 . S
H4394 C4400 0.949 . S
C4395 H4390 0.950 . S
C4395 C4397 1.327 . S
C4395 C4401 1.429 . S
C4396 C4388 1.574 . S
C4396 H4391 0.949 . S
C4396 C4402 1.368 . S
C4397 C4381 1.349 . S
C4397 H4389 0.950 . S
C4397 C4395 1.327 . S
C4398 C4386 1.349 . S
C4398 H4392 0.950 . S
C4398 C4399 1.327 . S
C4399 H4393 0.950 . S
C4399 C4398 1.327 . S
C4399 C4403 1.429 . S
C4400 C4383 1.574 . S
C4400 H4394 0.949 . S
C4400 C4404 1.368 . S
C4401 C4382 1.429 . S
C4401 C4395 1.429 . S
C4401 C4402 1.523 . S
C4402 C4383 1.368 . S
C4402 C4396 1.368 . S
C4402 C4401 1.523 . S
C4403 C4387 1.429 . S
C4403 C4399 1.429 . S
C4403 C4404 1.523 . S
C4404 C4388 1.368 . S
C4404 C4400 1.368 . S
C4404 C4403 1.523 . S
H4405 C4380 0.950 . S
H4406 C4382 0.950 . S
H4407 C4383 0.949 . S
H4408 C4385 0.950 . S
H4409 C4387 0.950 . S
C4410 C4411 1.349 . S
C4410 C4412 1.327 . S
C4410 H4435 0.950 . S
C4411 C4410 1.349 . S
C4411 C4427 1.349 . S
C4412 C4410 1.327 . S
C4412 C4431 1.429 . S
C4412 H4436 0.950 . S
C4413 C4430 1.574 . S
C4413 C4432 1.368 . S
C4413 H4437 0.949 . S
H4414 C4418 0.949 . S
C4415 C4416 1.349 . S
C4415 C4417 1.327 . S
C4415 H4438 0.950 . S
C4416 C4415 1.349 . S
C4416 C4428 1.349 . S
C4417 C4415 1.327 . S
C4417 C4433 1.429 . S
C4417 H4439 0.950 . S
C4418 H4414 0.949 . S
C4418 C4426 1.574 . S
C4418 C4434 1.368 . S
H4419 C4427 0.950 . S
H4420 C4425 0.950 . S
H4421 C4426 0.949 . S
H4422 C4428 0.950 . S
H4423 C4429 0.950 . S
H4424 C4430 0.949 . S
C4425 H4420 0.950 . S
C4425 C4427 1.327 . S
C4425 C4431 1.429 . S
C4426 C4418 1.574 . S
C4426 H4421 0.949 . S
C4426 C4432 1.368 . S
C4427 C4411 1.349 . S
C4427 H4419 0.950 . S
C4427 C4425 1.327 . S
C4428 C4416 1.349 . S
C4428 H4422 0.950 . S
C4428 C4429 1.327 . S
C4429 H4423 0.950 . S
C4429 C4428 1.327 . S
C4429 C4433 1.429 . S
C4430 C4413 1.574 . S
C4430 H4424 0.949 . S
C4430 C4434 1.368 . S
C4431 C4412 1.429 . S
C4431 C4425 1.429 . S
C4431 C4432 1.523 . S
C4432 C4413 1.368 . S
C4432 C4426 1.368 . S
C4432 C4431 1.523 . S
C4433 C4417 1.429 . S
C4433 C4429 1.429 . S
C4433 C4434 1.523 . S
C4434 C4418 1.368 . S
C4434 C4430 1.368 . S
C4434 C4433 1.523 . S
H4435 C4410 0.950 . S
H4436 C4412 0.950 . S
H4437 C4413 0.949 . S
H4438 C4415 0.950 . S
H4439 C4417 0.950 . S
C4440 C4441 1.349 . S
C4440 C4442 1.327 . S
C4440 H4465 0.950 . S
C4441 C4440 1.349 . S
C4441 C4457 1.349 . S
C4442 C4440 1.327 . S
C4442 C4461 1.429 . S
C4442 H4466 0.950 . S
C4443 C4460 1.574 . S
C4443 C4462 1.368 . S
C4443 H4467 0.949 . S
H4444 C4448 0.949 . S
C4445 C4446 1.349 . S
C4445 C4447 1.327 . S
C4445 H4468 0.950 . S
C4446 C4445 1.349 . S
C4446 C4458 1.349 . S
C4447 C4445 1.327 . S
C4447 C4463 1.429 . S
C4447 H4469 0.950 . S
C4448 H4444 0.949 . S
C4448 C4456 1.574 . S
C4448 C4464 1.368 . S
H4449 C4457 0.950 . S
H4450 C4455 0.950 . S
H4451 C4456 0.949 . S
H4452 C4458 0.950 . S
H4453 C4459 0.950 . S
H4454 C4460 0.949 . S
C4455 H4450 0.950 . S
C4455 C4457 1.327 . S
C4455 C4461 1.429 . S
C4456 C4448 1.574 . S
C4456 H4451 0.949 . S
C4456 C4462 1.368 . S
C4457 C4441 1.349 . S
C4457 H4449 0.950 . S
C4457 C4455 1.327 . S
C4458 C4446 1.349 . S
C4458 H4452 0.950 . S
C4458 C4459 1.327 . S
C4459 H4453 0.950 . S
C4459 C4458 1.327 . S
C4459 C4463 1.429 . S
C4460 C4443 1.574 . S
C4460 H4454 0.949 . S
C4460 C4464 1.368 . S
C4461 C4442 1.429 . S
C4461 C4455 1.429 . S
C4461 C4462 1.523 . S
C4462 C4443 1.368 . S
C4462 C4456 1.368 . S
C4462 C4461 1.523 . S
C4463 C4447 1.429 . S
C4463 C4459 1.429 . S
C4463 C4464 1.523 . S
C4464 C4448 1.368 . S
C4464 C4460 1.368 . S
C4464 C4463 1.523 . S
H4465 C4440 0.950 . S
H4466 C4442 0.950 . S
H4467 C4443 0.949 . S
H4468 C4445 0.950 . S
H4469 C4447 0.950 . S
C4470 C4471 1.349 . S
C4470 C4472 1.327 . S
C4470 H4495 0.950 . S
C4471 C4470 1.349 . S
C4471 C4487 1.349 . S
C4472 C4470 1.327 . S
C4472 C4491 1.429 . S
C4472 H4496 0.950 . S
C4473 C4490 1.574 . S
C4473 C4492 1.368 . S
C4473 H4497 0.949 . S
H4474 C4478 0.949 . S
C4475 C4476 1.349 . S
C4475 C4477 1.327 . S
C4475 H4498 0.950 . S
C4476 C4475 1.349 . S
C4476 C4488 1.349 . S
C4477 C4475 1.327 . S
C4477 C4493 1.429 . S
C4477 H4499 0.950 . S
C4478 H4474 0.949 . S
C4478 C4486 1.574 . S
C4478 C4494 1.368 . S
H4479 C4487 0.950 . S
H4480 C4485 0.950 . S
H4481 C4486 0.949 . S
H4482 C4488 0.950 . S
H4483 C4489 0.950 . S
H4484 C4490 0.949 . S
C4485 H4480 0.950 . S
C4485 C4487 1.327 . S
C4485 C4491 1.429 . S
C4486 C4478 1.574 . S
C4486 H4481 0.949 . S
C4486 C4492 1.368 . S
C4487 C4471 1.349 . S
C4487 H4479 0.950 . S
C4487 C4485 1.327 . S
C4488 C4476 1.349 . S
C4488 H4482 0.950 . S
C4488 C4489 1.327 . S
C4489 H4483 0.950 . S
C4489 C4488 1.327 . S
C4489 C4493 1.429 . S
C4490 C4473 1.574 . S
C4490 H4484 0.949 . S
C4490 C4494 1.368 . S
C4491 C4472 1.429 . S
C4491 C4485 1.429 . S
C4491 C4492 1.523 . S
C4492 C4473 1.368 . S
C4492 C4486 1.368 . S
C4492 C4491 1.523 . S
C4493 C4477 1.429 . S
C4493 C4489 1.429 . S
C4493 C4494 1.523 . S
C4494 C4478 1.368 . S
C4494 C4490 1.368 . S
C4494 C4493 1.523 . S
H4495 C4470 0.950 . S
H4496 C4472 0.950 . S
H4497 C4473 0.949 . S
H4498 C4475 0.950 . S
H4499 C4477 0.950 . S
C4500 C4501 1.349 . S
C4500 C4502 1.327 . S
C4500 H4525 0.950 . S
C4501 C4500 1.349 . S
C4501 C4517 1.349 . S
C4502 C4500 1.327 . S
C4502 C4521 1.429 . S
C4502 H4526 0.950 . S
C4503 C4520 1.574 . S
C4503 C4522 1.368 . S
C4503 H4527 0.964 . S
H4504 C4508 0.949 . S
C4505 C4506 1.349 1_565 S
C4505 C4507 1.388 . S
C4505 H4528 0.950 . S
C4506 C4505 1.349 1_545 S
C4506 C4518 1.349 . S
C4507 C4505 1.388 . S
C4507 C4523 1.336 1_565 S
C4507 H4529 0.989 . S
C4508 H4504 0.949 . S
C4508 C4516 1.574 . S
C4508 C4524 1.368 . S
H4509 C4517 0.950 . S
H4510 C4515 0.950 . S
H4511 C4516 0.949 . S
H4512 C4518 0.950 . S
H4513 C4519 0.950 . S
H4514 C4520 0.949 1_565 S
C4515 H4510 0.950 . S
C4515 C4517 1.327 . S
C4515 C4521 1.429 . S
C4516 C4508 1.574 . S
C4516 H4511 0.949 . S
C4516 C4522 1.368 . S
C4517 C4501 1.349 . S
C4517 H4509 0.950 . S
C4517 C4515 1.327 . S
C4518 C4506 1.349 . S
C4518 H4512 0.950 . S
C4518 C4519 1.327 . S
C4519 H4513 0.950 . S
C4519 C4518 1.327 . S
C4519 C4523 1.429 . S
C4520 C4503 1.574 . S
C4520 H4514 0.949 1_545 S
C4520 C4524 1.368 . S
C4521 C4502 1.429 . S
C4521 C4515 1.429 . S
C4521 C4522 1.523 . S
C4522 C4503 1.368 . S
C4522 C4516 1.368 . S
C4522 C4521 1.523 . S
C4523 C4507 1.336 1_545 S
C4523 C4519 1.429 . S
C4523 C4524 1.523 . S
C4524 C4508 1.368 . S
C4524 C4520 1.368 . S
C4524 C4523 1.523 . S
H4525 C4500 0.950 . S
H4526 C4502 0.950 . S
H4527 C4503 0.964 . S
H4528 C4505 0.950 . S
H4529 C4507 0.989 . S
C4530 C4531 1.349 . S
C4530 C4532 1.327 . S
C4530 H4555 0.950 . S
C4531 C4530 1.349 . S
C4531 C4547 1.349 . S
C4532 C4530 1.327 . S
C4532 C4551 1.429 . S
C4532 H4556 0.950 . S
C4533 C4550 1.574 . S
C4533 C4552 1.368 . S
C4533 H4557 0.949 . S
H4534 C4538 0.949 . S
C4535 C4536 1.349 . S
C4535 C4537 1.327 . S
C4535 H4558 0.950 . S
C4536 C4535 1.349 . S
C4536 C4548 1.349 . S
C4537 C4535 1.327 . S
C4537 C4553 1.429 . S
C4537 H4559 0.950 . S
C4538 H4534 0.949 . S
C4538 C4546 1.574 . S
C4538 C4554 1.368 . S
H4539 C4547 0.950 . S
H4540 C4545 0.950 . S
H4541 C4546 0.949 . S
H4542 C4548 0.950 1_455 S
H4543 C4549 0.982 . S
H4544 C4550 0.949 . S
C4545 H4540 0.950 . S
C4545 C4547 1.327 . S
C4545 C4551 1.429 . S
C4546 C4538 1.574 . S
C4546 H4541 0.949 . S
C4546 C4552 1.368 . S
C4547 C4531 1.349 . S
C4547 H4539 0.950 . S
C4547 C4545 1.327 . S
C4548 C4536 1.349 . S
C4548 H4542 0.950 1_655 S
C4548 C4549 1.327 . S
C4549 H4543 0.982 . S
C4549 C4548 1.327 . S
C4549 C4553 1.429 . S
C4550 C4533 1.574 . S
C4550 H4544 0.949 . S
C4550 C4554 1.368 . S
C4551 C4532 1.429 . S
C4551 C4545 1.429 . S
C4551 C4552 1.523 . S
C4552 C4533 1.368 . S
C4552 C4546 1.368 . S
C4552 C4551 1.523 . S
C4553 C4537 1.429 . S
C4553 C4549 1.429 . S
C4553 C4554 1.523 . S
C4554 C4538 1.368 . S
C4554 C4550 1.368 . S
C4554 C4553 1.523 . S
H4555 C4530 0.950 . S
H4556 C4532 0.950 . S
H4557 C4533 0.949 . S
H4558 C4535 0.950 . S
H4559 C4537 0.950 . S
C4560 C4561 1.349 . S
C4560 C4562 1.327 . S
C4560 H4585 0.950 . S
C4561 C4560 1.349 . S
C4561 C4577 1.349 . S
C4562 C4560 1.327 . S
C4562 C4581 1.429 . S
C4562 H4586 0.950 . S
C4563 C4580 1.574 . S
C4563 C4582 1.368 . S
C4563 H4587 0.949 . S
H4564 C4568 0.949 . S
C4565 C4566 1.349 . S
C4565 C4567 1.327 . S
C4565 H4588 0.950 . S
C4566 C4565 1.349 . S
C4566 C4578 1.349 . S
C4567 C4565 1.327 . S
C4567 C4583 1.429 . S
C4567 H4589 0.950 . S
C4568 H4564 0.949 . S
C4568 C4576 1.574 . S
C4568 C4584 1.368 . S
H4569 C4577 0.950 . S
H4570 C4575 0.950 . S
H4571 C4576 0.949 . S
H4572 C4578 0.950 . S
H4573 C4579 0.950 . S
H4574 C4580 0.949 . S
C4575 H4570 0.950 . S
C4575 C4577 1.327 . S
C4575 C4581 1.429 . S
C4576 C4568 1.574 . S
C4576 H4571 0.949 . S
C4576 C4582 1.368 . S
C4577 C4561 1.349 . S
C4577 H4569 0.950 . S
C4577 C4575 1.327 . S
C4578 C4566 1.349 . S
C4578 H4572 0.950 . S
C4578 C4579 1.327 . S
C4579 H4573 0.950 . S
C4579 C4578 1.327 . S
C4579 C4583 1.429 . S
C4580 C4563 1.574 . S
C4580 H4574 0.949 . S
C4580 C4584 1.368 . S
C4581 C4562 1.429 . S
C4581 C4575 1.429 . S
C4581 C4582 1.523 . S
C4582 C4563 1.368 . S
C4582 C4576 1.368 . S
C4582 C4581 1.523 . S
C4583 C4567 1.429 . S
C4583 C4579 1.429 . S
C4583 C4584 1.523 . S
C4584 C4568 1.368 . S
C4584 C4580 1.368 . S
C4584 C4583 1.523 . S
H4585 C4560 0.950 . S
H4586 C4562 0.950 . S
H4587 C4563 0.949 . S
H4588 C4565 0.950 . S
H4589 C4567 0.950 . S
C4590 C4591 1.349 . S
C4590 C4592 1.327 . S
C4590 H4615 0.950 . S
C4591 C4590 1.349 . S
C4591 C4607 1.349 . S
C4592 C4590 1.327 . S
C4592 C4611 1.429 . S
C4592 H4616 0.950 . S
C4593 C4610 1.574 . S
C4593 C4612 1.368 . S
C4593 H4617 0.949 . S
H4594 C4598 0.949 . S
C4595 C4596 1.349 . S
C4595 C4597 1.327 . S
C4595 H4618 0.950 . S
C4596 C4595 1.349 . S
C4596 C4608 1.349 . S
C4597 C4595 1.327 . S
C4597 C4613 1.429 . S
C4597 H4619 0.950 . S
C4598 H4594 0.949 . S
C4598 C4606 1.574 . S
C4598 C4614 1.368 . S
H4599 C4607 0.950 . S
H4600 C4605 0.950 . S
H4601 C4606 0.949 . S
H4602 C4608 0.950 . S
H4603 C4609 0.950 . S
H4604 C4610 0.949 . S
C4605 H4600 0.950 . S
C4605 C4607 1.327 . S
C4605 C4611 1.429 . S
C4606 C4598 1.574 . S
C4606 H4601 0.949 . S
C4606 C4612 1.368 . S
C4607 C4591 1.349 . S
C4607 H4599 0.950 . S
C4607 C4605 1.327 . S
C4608 C4596 1.349 . S
C4608 H4602 0.950 . S
C4608 C4609 1.327 . S
C4609 H4603 0.950 . S
C4609 C4608 1.327 . S
C4609 C4613 1.429 . S
C4610 C4593 1.574 . S
C4610 H4604 0.949 . S
C4610 C4614 1.368 . S
C4611 C4592 1.429 . S
C4611 C4605 1.429 . S
C4611 C4612 1.523 . S
C4612 C4593 1.368 . S
C4612 C4606 1.368 . S
C4612 C4611 1.523 . S
C4613 C4597 1.429 . S
C4613 C4609 1.429 . S
C4613 C4614 1.523 . S
C4614 C4598 1.368 . S
C4614 C4610 1.368 . S
C4614 C4613 1.523 . S
H4615 C4590 0.950 . S
H4616 C4592 0.950 . S
H4617 C4593 0.949 . S
H4618 C4595 0.950 . S
H4619 C4597 0.950 . S
C4620 C4621 1.349 . S
C4620 C4622 1.327 . S
C4620 H4645 0.950 . S
C4621 C4620 1.349 . S
C4621 C4637 1.349 . S
C4622 C4620 1.327 . S
C4622 C4641 1.429 . S
C4622 H4646 0.950 . S
C4623 C4640 1.574 . S
C4623 C4642 1.368 . S
C4623 H4647 0.949 . S
H4624 C4628 0.949 . S
C4625 C4626 1.349 . S
C4625 C4627 1.327 . S
C4625 H4648 0.950 . S
C4626 C4625 1.349 . S
C4626 C4638 1.349 . S
C4627 C4625 1.327 . S
C4627 C4643 1.429 . S
C4627 H4649 0.950 . S
C4628 H4624 0.949 . S
C4628 C4636 1.574 . S
C4628 C4644 1.368 . S
H4629 C4637 0.950 . S
H4630 C4635 0.950 . S
H4631 C4636 0.949 . S
H4632 C4638 0.950 . S
H4633 C4639 0.950 . S
H4634 C4640 0.949 . S
C4635 H4630 0.950 . S
C4635 C4637 1.327 . S
C4635 C4641 1.429 . S
C4636 C4628 1.574 . S
C4636 H4631 0.949 . S
C4636 C4642 1.368 . S
C4637 C4621 1.349 . S
C4637 H4629 0.950 . S
C4637 C4635 1.327 . S
C4638 C4626 1.349 . S
C4638 H4632 0.950 . S
C4638 C4639 1.327 . S
C4639 H4633 0.950 . S
C4639 C4638 1.327 . S
C4639 C4643 1.429 . S
C4640 C4623 1.574 . S
C4640 H4634 0.949 . S
C4640 C4644 1.368 . S
C4641 C4622 1.429 . S
C4641 C4635 1.429 . S
C4641 C4642 1.523 . S
C4642 C4623 1.368 . S
C4642 C4636 1.368 . S
C4642 C4641 1.523 . S
C4643 C4627 1.429 . S
C4643 C4639 1.429 . S
C4643 C4644 1.523 . S
C4644 C4628 1.368 . S
C4644 C4640 1.368 . S
C4644 C4643 1.523 . S
H4645 C4620 0.950 . S
H4646 C4622 0.950 . S
H4647 C4623 0.949 . S
H4648 C4625 0.950 . S
H4649 C4627 0.950 . S
C4650 C4651 1.349 . S
C4650 C4652 1.327 . S
C4650 H4675 0.950 . S
C4651 C4650 1.349 . S
C4651 C4667 1.349 . S
C4652 C4650 1.327 . S
C4652 C4671 1.429 . S
C4652 H4676 0.950 . S
C4653 C4670 1.574 . S
C4653 C4672 1.368 . S
C4653 H4677 0.949 . S
H4654 C4658 0.949 . S
C4655 C4656 1.349 . S
C4655 C4657 1.327 . S
C4655 H4678 0.950 . S
C4656 C4655 1.349 . S
C4656 C4668 1.349 . S
C4657 C4655 1.327 . S
C4657 C4673 1.429 . S
C4657 H4679 0.950 . S
C4658 H4654 0.949 . S
C4658 C4666 1.574 . S
C4658 C4674 1.368 . S
H4659 C4667 0.950 . S
H4660 C4665 0.950 . S
H4661 C4666 0.949 . S
H4662 C4668 0.950 . S
H4663 C4669 0.950 . S
H4664 C4670 0.949 . S
C4665 H4660 0.950 . S
C4665 C4667 1.327 . S
C4665 C4671 1.429 . S
C4666 C4658 1.574 . S
C4666 H4661 0.949 . S
C4666 C4672 1.368 . S
C4667 C4651 1.349 . S
C4667 H4659 0.950 . S
C4667 C4665 1.327 . S
C4668 C4656 1.349 . S
C4668 H4662 0.950 . S
C4668 C4669 1.327 . S
C4669 H4663 0.950 . S
C4669 C4668 1.327 . S
C4669 C4673 1.429 . S
C4670 C4653 1.574 . S
C4670 H4664 0.949 . S
C4670 C4674 1.368 . S
C4671 C4652 1.429 . S
C4671 C4665 1.429 . S
C4671 C4672 1.523 . S
C4672 C4653 1.368 . S
C4672 C4666 1.368 . S
C4672 C4671 1.523 . S
C4673 C4657 1.429 . S
C4673 C4669 1.429 . S
C4673 C4674 1.523 . S
C4674 C4658 1.368 . S
C4674 C4670 1.368 . S
C4674 C4673 1.523 . S
H4675 C4650 0.950 . S
H4676 C4652 0.950 . S
H4677 C4653 0.949 . S
H4678 C4655 0.950 . S
H4679 C4657 0.950 . S
C4680 C4681 1.349 . S
C4680 C4682 1.327 . S
C4680 H4705 0.950 . S
C4681 C4680 1.349 . S
C4681 C4697 1.349 . S
C4682 C4680 1.327 . S
C4682 C4701 1.429 . S
C4682 H4706 0.950 . S
C4683 C4700 1.574 . S
C4683 C4702 1.368 . S
C4683 H4707 0.949 . S
H4684 C4688 0.949 . S
C4685 C4686 1.349 . S
C4685 C4687 1.327 . S
C4685 H4708 0.950 . S
C4686 C4685 1.349 . S
C4686 C4698 1.349 . S
C4687 C4685 1.327 . S
C4687 C4703 1.429 . S
C4687 H4709 0.950 . S
C4688 H4684 0.949 . S
C4688 C4696 1.574 . S
C4688 C4704 1.368 . S
H4689 C4697 0.950 . S
H4690 C4695 0.950 . S
H4691 C4696 0.949 . S
H4692 C4698 0.950 . S
H4693 C4699 0.950 . S
H4694 C4700 0.949 . S
C4695 H4690 0.950 . S
C4695 C4697 1.327 . S
C4695 C4701 1.429 . S
C4696 C4688 1.574 . S
C4696 H4691 0.949 . S
C4696 C4702 1.368 . S
C4697 C4681 1.349 . S
C4697 H4689 0.950 . S
C4697 C4695 1.327 . S
C4698 C4686 1.349 . S
C4698 H4692 0.950 . S
C4698 C4699 1.327 . S
C4699 H4693 0.950 . S
C4699 C4698 1.327 . S
C4699 C4703 1.429 . S
C4700 C4683 1.574 . S
C4700 H4694 0.949 . S
C4700 C4704 1.368 . S
C4701 C4682 1.429 . S
C4701 C4695 1.429 . S
C4701 C4702 1.523 . S
C4702 C4683 1.368 . S
C4702 C4696 1.368 . S
C4702 C4701 1.523 . S
C4703 C4687 1.429 . S
C4703 C4699 1.429 . S
C4703 C4704 1.523 . S
C4704 C4688 1.368 . S
C4704 C4700 1.368 . S
C4704 C4703 1.523 . S
H4705 C4680 0.950 . S
H4706 C4682 0.950 . S
H4707 C4683 0.949 . S
H4708 C4685 0.950 . S
H4709 C4687 0.950 . S
C4710 C4711 1.349 . S
C4710 C4712 1.327 . S
C4710 H4735 0.950 . S
C4711 C4710 1.349 . S
C4711 C4727 1.349 . S
C4712 C4710 1.327 . S
C4712 C4731 1.429 . S
C4712 H4736 0.950 . S
C4713 C4730 1.574 . S
C4713 C4732 1.368 . S
C4713 H4737 0.949 . S
H4714 C4718 0.949 . S
C4715 C4716 1.349 . S
C4715 C4717 1.327 . S
C4715 H4738 0.950 . S
C4716 C4715 1.349 . S
C4716 C4728 1.349 . S
C4717 C4715 1.327 . S
C4717 C4733 1.429 . S
C4717 H4739 0.950 . S
C4718 H4714 0.949 . S
C4718 C4726 1.574 . S
C4718 C4734 1.368 . S
H4719 C4727 0.950 . S
H4720 C4725 0.950 . S
H4721 C4726 0.949 . S
H4722 C4728 0.950 . S
H4723 C4729 0.950 . S
H4724 C4730 0.949 . S
C4725 H4720 0.950 . S
C4725 C4727 1.327 . S
C4725 C4731 1.429 . S
C4726 C4718 1.574 . S
C4726 H4721 0.949 . S
C4726 C4732 1.368 . S
C4727 C4711 1.349 . S
C4727 H4719 0.950 . S
C4727 C4725 1.327 . S
C4728 C4716 1.349 . S
C4728 H4722 0.950 . S
C4728 C4729 1.327 . S
C4729 H4723 0.950 . S
C4729 C4728 1.327 . S
C4729 C4733 1.429 . S
C4730 C4713 1.574 . S
C4730 H4724 0.949 . S
C4730 C4734 1.368 . S
C4731 C4712 1.429 . S
C4731 C4725 1.429 . S
C4731 C4732 1.523 . S
C4732 C4713 1.368 . S
C4732 C4726 1.368 . S
C4732 C4731 1.523 . S
C4733 C4717 1.429 . S
C4733 C4729 1.429 . S
C4733 C4734 1.523 . S
C4734 C4718 1.368 . S
C4734 C4730 1.368 . S
C4734 C4733 1.523 . S
H4735 C4710 0.950 . S
H4736 C4712 0.950 . S
H4737 C4713 0.949 . S
H4738 C4715 0.950 . S
H4739 C4717 0.950 . S
C4740 C4741 1.349 . S
C4740 C4742 1.327 . S
C4740 H4765 0.950 . S
C4741 C4740 1.349 . S
C4741 C4757 1.349 . S
C4742 C4740 1.327 . S
C4742 C4761 1.429 . S
C4742 H4766 0.950 . S
C4743 C4760 1.574 . S
C4743 C4762 1.368 . S
C4743 H4767 0.949 . S
H4744 C4748 0.949 . S
C4745 C4746 1.349 . S
C4745 C4747 1.327 . S
C4745 H4768 0.950 . S
C4746 C4745 1.349 . S
C4746 C4758 1.349 . S
C4747 C4745 1.327 . S
C4747 C4763 1.429 . S
C4747 H4769 0.950 . S
C4748 H4744 0.949 . S
C4748 C4756 1.574 . S
C4748 C4764 1.368 . S
H4749 C4757 0.950 . S
H4750 C4755 0.950 . S
H4751 C4756 0.949 . S
H4752 C4758 0.950 . S
H4753 C4759 0.950 . S
H4754 C4760 0.949 . S
C4755 H4750 0.950 . S
C4755 C4757 1.327 . S
C4755 C4761 1.429 . S
C4756 C4748 1.574 . S
C4756 H4751 0.949 . S
C4756 C4762 1.368 . S
C4757 C4741 1.349 . S
C4757 H4749 0.950 . S
C4757 C4755 1.327 . S
C4758 C4746 1.349 . S
C4758 H4752 0.950 . S
C4758 C4759 1.327 . S
C4759 H4753 0.950 . S
C4759 C4758 1.327 . S
C4759 C4763 1.429 . S
C4760 C4743 1.574 . S
C4760 H4754 0.949 . S
C4760 C4764 1.368 . S
C4761 C4742 1.429 . S
C4761 C4755 1.429 . S
C4761 C4762 1.523 . S
C4762 C4743 1.368 . S
C4762 C4756 1.368 . S
C4762 C4761 1.523 . S
C4763 C4747 1.429 . S
C4763 C4759 1.429 . S
C4763 C4764 1.523 . S
C4764 C4748 1.368 . S
C4764 C4760 1.368 . S
C4764 C4763 1.523 . S
H4765 C4740 0.950 . S
H4766 C4742 0.950 . S
H4767 C4743 0.949 . S
H4768 C4745 0.950 . S
H4769 C4747 0.950 . S
C4770 C4771 1.349 . S
C4770 C4772 1.327 . S
C4770 H4795 0.950 . S
C4771 C4770 1.349 . S
C4771 C4787 1.349 . S
C4772 C4770 1.327 . S
C4772 C4791 1.429 . S
C4772 H4796 0.950 . S
C4773 C4790 1.574 . S
C4773 C4792 1.368 . S
C4773 H4797 0.949 . S
H4774 C4778 0.949 . S
C4775 C4776 1.349 . S
C4775 C4777 1.327 . S
C4775 H4798 0.950 . S
C4776 C4775 1.349 . S
C4776 C4788 1.349 . S
C4777 C4775 1.327 . S
C4777 C4793 1.429 . S
C4777 H4799 0.950 . S
C4778 H4774 0.949 . S
C4778 C4786 1.574 . S
C4778 C4794 1.368 . S
H4779 C4787 0.950 . S
H4780 C4785 0.950 . S
H4781 C4786 0.949 . S
H4782 C4788 0.950 . S
H4783 C4789 0.950 . S
H4784 C4790 0.949 . S
C4785 H4780 0.950 . S
C4785 C4787 1.327 . S
C4785 C4791 1.429 . S
C4786 C4778 1.574 . S
C4786 H4781 0.949 . S
C4786 C4792 1.368 . S
C4787 C4771 1.349 . S
C4787 H4779 0.950 . S
C4787 C4785 1.327 . S
C4788 C4776 1.349 . S
C4788 H4782 0.950 . S
C4788 C4789 1.327 . S
C4789 H4783 0.950 . S
C4789 C4788 1.327 . S
C4789 C4793 1.429 . S
C4790 C4773 1.574 . S
C4790 H4784 0.949 . S
C4790 C4794 1.368 . S
C4791 C4772 1.429 . S
C4791 C4785 1.429 . S
C4791 C4792 1.523 . S
C4792 C4773 1.368 . S
C4792 C4786 1.368 . S
C4792 C4791 1.523 . S
C4793 C4777 1.429 . S
C4793 C4789 1.429 . S
C4793 C4794 1.523 . S
C4794 C4778 1.368 . S
C4794 C4790 1.368 . S
C4794 C4793 1.523 . S
H4795 C4770 0.950 . S
H4796 C4772 0.950 . S
H4797 C4773 0.949 . S
H4798 C4775 0.950 . S
H4799 C4777 0.950 . S
C4800 C4801 1.349 . S
C4800 C4802 1.327 . S
C4800 H4825 0.950 . S
C4801 C4800 1.349 . S
C4801 C4817 1.349 . S
C4802 C4800 1.327 . S
C4802 C4821 1.429 . S
C4802 H4826 0.950 . S
C4803 C4820 1.574 . S
C4803 C4822 1.368 . S
C4803 H4827 0.949 . S
H4804 C4808 0.949 . S
C4805 C4806 1.349 . S
C4805 C4807 1.327 . S
C4805 H4828 0.950 . S
C4806 C4805 1.349 . S
C4806 C4818 1.349 . S
C4807 C4805 1.327 . S
C4807 C4823 1.429 . S
C4807 H4829 0.950 . S
C4808 H4804 0.949 . S
C4808 C4816 1.574 . S
C4808 C4824 1.368 . S
H4809 C4817 0.950 . S
H4810 C4815 0.950 . S
H4811 C4816 0.949 . S
H4812 C4818 0.950 . S
H4813 C4819 0.950 . S
H4814 C4820 0.949 . S
C4815 H4810 0.950 . S
C4815 C4817 1.327 . S
C4815 C4821 1.429 . S
C4816 C4808 1.574 . S
C4816 H4811 0.949 . S
C4816 C4822 1.368 . S
C4817 C4801 1.349 . S
C4817 H4809 0.950 . S
C4817 C4815 1.327 . S
C4818 C4806 1.349 . S
C4818 H4812 0.950 . S
C4818 C4819 1.327 . S
C4819 H4813 0.950 . S
C4819 C4818 1.327 . S
C4819 C4823 1.429 . S
C4820 C4803 1.574 . S
C4820 H4814 0.949 . S
C4820 C4824 1.368 . S
C4821 C4802 1.429 . S
C4821 C4815 1.429 . S
C4821 C4822 1.523 . S
C4822 C4803 1.368 . S
C4822 C4816 1.368 . S
C4822 C4821 1.523 . S
C4823 C4807 1.429 . S
C4823 C4819 1.429 . S
C4823 C4824 1.523 . S
C4824 C4808 1.368 . S
C4824 C4820 1.368 . S
C4824 C4823 1.523 . S
H4825 C4800 0.950 . S
H4826 C4802 0.950 . S
H4827 C4803 0.949 . S
H4828 C4805 0.950 . S
H4829 C4807 0.950 . S
C4830 C4831 1.349 . S
C4830 C4832 1.327 . S
C4830 H4855 0.950 . S
C4831 C4830 1.349 . S
C4831 C4847 1.349 . S
C4832 C4830 1.327 . S
C4832 C4851 1.429 . S
C4832 H4856 0.950 . S
C4833 C4850 1.574 . S
C4833 C4852 1.368 . S
C4833 H4857 0.949 1_545 S
H4834 C4838 0.949 . S
C4835 C4836 1.349 1_565 S
C4835 C4837 1.327 . S
C4835 H4858 0.950 . S
C4836 C4835 1.349 1_545 S
C4836 C4848 1.349 . S
C4837 C4835 1.327 . S
C4837 C4853 1.429 1_565 S
C4837 H4859 0.950 . S
C4838 H4834 0.949 . S
C4838 C4846 1.574 . S
C4838 C4854 1.368 . S
H4839 C4847 0.950 . S
H4840 C4845 0.950 . S
H4841 C4846 0.949 . S
H4842 C4848 0.950 . S
H4843 C4849 0.950 . S
H4844 C4850 0.949 1_565 S
C4845 H4840 0.950 . S
C4845 C4847 1.327 . S
C4845 C4851 1.429 . S
C4846 C4838 1.574 . S
C4846 H4841 0.949 . S
C4846 C4852 1.368 . S
C4847 C4831 1.349 . S
C4847 H4839 0.950 . S
C4847 C4845 1.327 . S
C4848 C4836 1.349 . S
C4848 H4842 0.950 . S
C4848 C4849 1.327 . S
C4849 H4843 0.950 . S
C4849 C4848 1.327 . S
C4849 C4853 1.429 . S
C4850 C4833 1.574 . S
C4850 H4844 0.949 1_545 S
C4850 C4854 1.368 . S
C4851 C4832 1.429 . S
C4851 C4845 1.429 . S
C4851 C4852 1.523 . S
C4852 C4833 1.368 . S
C4852 C4846 1.368 . S
C4852 C4851 1.523 . S
C4853 C4837 1.429 1_545 S
C4853 C4849 1.429 . S
C4853 C4854 1.523 . S
C4854 C4838 1.368 . S
C4854 C4850 1.368 . S
C4854 C4853 1.523 . S
H4855 C4830 0.950 . S
H4856 C4832 0.950 . S
H4857 C4833 0.949 1_565 S
H4858 C4835 0.950 . S
H4859 C4837 0.950 . S
C2701 C49 1.662 . S
C2706 C2189 1.606 . S
C2731 C137 1.699 . S
C2736 C2233 1.647 . S
C2766 C2313 1.617 . S
C2761 C205 1.675 . S
C2791 C196 1.663 . S
C2796 C2357 1.608 . S
C2821 C57 1.671 . S
C2826 C2437 1.624 . S
C2851 C145 1.699 . S
C2856 C2499 1.626 . S
C2881 C313 1.664 . S
C2886 C2419 1.605 . S
C2916 C2481 1.627 . S
C2911 C401 1.701 . S
C2946 C2375 1.622 . S
C2941 C489 1.674 . S
C2971 C469 1.664 . S
C2976 C2295 1.605 . S
C3006 C2171 1.620 . S
C3001 C293 1.675 . S
C3031 C381 1.701 . S
C3036 C2251 1.648 . S
C3061 C577 1.740 . S
C3066 C2561 1.664 . S
C3091 C645 1.734 . S
C3096 C2605 1.682 . S
C3126 C2685 1.631 . S
C3121 C733 1.707 . S
C3151 C724 1.705 . S
C3156 C1631 1.632 . S
C3181 C585 1.730 . S
C3186 C1675 1.679 . S
C3211 C636 1.744 . S
C3216 C1755 1.668 . S
C3241 C841 1.706 . S
C3246 C1693 1.653 . S
C3271 C937 1.747 . S
C3276 C1737 1.670 . S
C3306 C1613 1.657 . S
C3301 C1025 1.733 . S
C3336 C2667 1.666 . S
C3331 C988 1.744 . S
C3366 C2543 1.631 . S
C3361 C821 1.709 . S
C3396 C2623 1.684 . S
C3391 C900 1.738 . S
C3421 C1105 1.704 . S
C3426 C1817 1.631 . S
C3451 C1193 1.744 . S
C3456 C1879 1.668 . S
C3481 C1281 1.731 . S
C3486 C1923 1.679 . S
C3511 C1289 1.740 . S
C3516 C1985 1.687 . S
C3546 C2047 1.656 . S
C3541 C1113 1.708 . S
C3576 C2127 1.657 . S
C3571 C1201 1.734 . S
C3606 C2065 1.689 . S
C3601 C1369 1.743 . S
C3636 C2109 1.659 . S
C3631 C1457 1.738 . S
C3661 C1553 1.709 . S
C3666 C2003 1.655 . S
C3696 C1941 1.653 . S
C3691 C1516 1.705 . S
C3721 C1349 1.733 . S
C3726 C1799 1.657 . S
C3756 C1861 1.671 . S
C3751 C1437 1.747 . S
C3786 C1637 1.277 . S
C3781 C29 1.353 . S
C3811 C117 1.322 . S
C3816 C1681 1.261 . S
C3846 C1761 1.298 . S
C3841 C225 1.377 . S
C3876 C1823 1.277 . S
C3871 C233 1.353 . S
C3906 C1885 1.298 . S
C3901 C20 1.377 . S
C3936 C1929 1.260 . S
C3931 C108 1.322 . S
C3961 C321 1.361 . S
C3966 C1947 1.313 . S
C3991 C409 1.326 . S
C3996 C1805 1.246 . S
C4021 C497 1.379 . S
C4026 C1867 1.295 . S
C4051 C460 1.361 . S
C4056 C1699 1.313 . S
C4086 C1743 1.299 . S
C4081 C284 1.375 . S
C4111 C372 1.326 . S
C4116 C1619 1.246 . S
C4146 C1991 1.275 . S
C4141 C557 1.338 . S
C4171 C665 1.408 . S
C4176 C2053 1.341 . S
C4201 C753 1.418 . S
C4206 C2133 1.330 . S
C4236 C2195 1.114 . S
C4231 C761 1.166 . S
C4261 C548 1.321 . S
C4266 C2239 1.260 . S
C4291 C673 1.176 . S
C4296 C2319 1.120 . S
C4321 C849 1.175 . S
C4326 C2301 1.108 . S
C4351 C929 1.183 . S
C4356 C2177 1.126 . S
C4386 C2257 1.264 . S
C4381 C1017 1.326 . S
C4411 C997 1.345 . S
C4416 C2071 1.281 . S
C4441 C812 1.421 . S
C4446 C2115 1.332 . S
C4476 C2009 1.343 . S
C4471 C909 1.411 . S
C4506 C2363 1.121 . S
C4501 C1085 1.166 . S
C4531 C1173 1.176 . S
C4536 C2443 1.120 . S
C4561 C1261 1.321 . S
C4566 C2505 1.243 . S
C4596 C2567 1.257 . S
C4591 C1252 1.337 . S
C4626 C2611 1.349 . S
C4621 C1076 1.417 . S
C4651 C1164 1.408 . S
C4656 C2691 1.323 . S
C4681 C1377 1.344 . S
C4686 C2673 1.263 . S
C4711 C1465 1.411 . S
C4716 C2549 1.325 . S
C4746 C2629 1.351 . S
C4741 C1545 1.421 . S
C4776 C2425 1.115 . S
C4771 C1525 1.167 . S
C4806 C2487 1.247 . S
C4801 C1340 1.326 . S
C4831 C1428 1.183 . S
C4836 C2381 1.133 . S
