# Generated by pormake.
# Topology pyr, (3,6)-cn, num edge types: 1
# Building blocks:
#     Node 0, Type 0, BuildingBlock: BETDIP_clean_linker_0, # of connection points: 3
#     Node 1, Type 0, BuildingBlock: BETDIP_clean_linker_0, # of connection points: 3
#     Node 2, Type 0, BuildingBlock: BETDIP_clean_linker_0, # of connection points: 3
#     Node 3, Type 0, BuildingBlock: BETDIP_clean_linker_0, # of connection points: 3
#     Node 4, Type 0, BuildingBlock: BETDIP_clean_linker_0, # of connection points: 3
#     Node 5, Type 0, BuildingBlock: BETDIP_clean_linker_0, # of connection points: 3
#     Node 6, Type 0, BuildingBlock: BETDIP_clean_linker_0, # of connection points: 3
#     Node 7, Type 0, BuildingBlock: BETDIP_clean_linker_0, # of connection points: 3
#     Node 8, Type 1, BuildingBlock: VOLQOD_clean_sbu_1, # of connection points: 6
#     Node 9, Type 1, BuildingBlock: VOLQOD_clean_sbu_1, # of connection points: 6
#     Node 10, Type 1, BuildingBlock: VOLQOD_clean_sbu_1, # of connection points: 6
#     Node 11, Type 1, BuildingBlock: VOLQOD_clean_sbu_1, # of connection points: 6
#     Edge 12, Type (0, 1), BuildingBlock: TEMPAE_clean_linker_10, # of connection points: 2
#     Edge 13, Type (0, 1), BuildingBlock: TEMPAE_clean_linker_10, # of connection points: 2
#     Edge 14, Type (0, 1), BuildingBlock: TEMPAE_clean_linker_10, # of connection points: 2
#     Edge 15, Type (0, 1), BuildingBlock: TEMPAE_clean_linker_10, # of connection points: 2
#     Edge 16, Type (0, 1), BuildingBlock: TEMPAE_clean_linker_10, # of connection points: 2
#     Edge 17, Type (0, 1), BuildingBlock: TEMPAE_clean_linker_10, # of connection points: 2
#     Edge 18, Type (0, 1), BuildingBlock: TEMPAE_clean_linker_10, # of connection points: 2
#     Edge 19, Type (0, 1), BuildingBlock: TEMPAE_clean_linker_10, # of connection points: 2
#     Edge 20, Type (0, 1), BuildingBlock: TEMPAE_clean_linker_10, # of connection points: 2
#     Edge 21, Type (0, 1), BuildingBlock: TEMPAE_clean_linker_10, # of connection points: 2
#     Edge 22, Type (0, 1), BuildingBlock: TEMPAE_clean_linker_10, # of connection points: 2
#     Edge 23, Type (0, 1), BuildingBlock: TEMPAE_clean_linker_10, # of connection points: 2
#     Edge 24, Type (0, 1), BuildingBlock: TEMPAE_clean_linker_10, # of connection points: 2
#     Edge 25, Type (0, 1), BuildingBlock: TEMPAE_clean_linker_10, # of connection points: 2
#     Edge 26, Type (0, 1), BuildingBlock: TEMPAE_clean_linker_10, # of connection points: 2
#     Edge 27, Type (0, 1), BuildingBlock: TEMPAE_clean_linker_10, # of connection points: 2
#     Edge 28, Type (0, 1), BuildingBlock: TEMPAE_clean_linker_10, # of connection points: 2
#     Edge 29, Type (0, 1), BuildingBlock: TEMPAE_clean_linker_10, # of connection points: 2
#     Edge 30, Type (0, 1), BuildingBlock: TEMPAE_clean_linker_10, # of connection points: 2
#     Edge 31, Type (0, 1), BuildingBlock: TEMPAE_clean_linker_10, # of connection points: 2
#     Edge 32, Type (0, 1), BuildingBlock: TEMPAE_clean_linker_10, # of connection points: 2
#     Edge 33, Type (0, 1), BuildingBlock: TEMPAE_clean_linker_10, # of connection points: 2
#     Edge 34, Type (0, 1), BuildingBlock: TEMPAE_clean_linker_10, # of connection points: 2
#     Edge 35, Type (0, 1), BuildingBlock: TEMPAE_clean_linker_10, # of connection points: 2
# Relax obj value: 0.107
# Max RMSD: 0.184
# Mean RMSD: 0.150
data_MOF--net-pry--node1-VOLQOD_clean_sbu_1--node2-BETDIP_clean_linker_0--edge1-TEMPAE_clean_linker_10
_symmetry_space_group_name_H-M    P1
_symmetry_Int_Tables_number       1
_symmetry_cell_setting            triclinic
loop_
_symmetry_equiv_pos_as_xyz
'x, y, z'
_cell_length_a     37.02585
_cell_length_b     36.557428
_cell_length_c     38.691438
_cell_angle_alpha  93.396453
_cell_angle_beta   85.613276
_cell_angle_gamma 97.175172
loop_
_atom_site_label
_atom_site_type_symbol
_atom_site_fract_x
_atom_site_fract_y
_atom_site_fract_z
_atom_type_partial_charge
H0 H 0.08619 0.14768 0.18676 0.0
H1 H 0.1726 0.14753 0.10603 0.0
H2 H 0.17084 0.0773 0.19118 0.0
H3 H 0.16331 0.21148 0.11203 0.0
C4 C 0.13397 0.20706 0.10981 0.0
C5 C 0.11096 0.13722 0.17589 0.0
C6 C 0.12629 0.11061 0.19313 0.0
C7 C 0.12794 0.15126 0.14496 0.0
C8 C 0.15982 0.13758 0.13039 0.0
C9 C 0.17481 0.11029 0.14664 0.0
C10 C 0.15811 0.09714 0.17799 0.0
N11 N 0.11249 0.17904 0.12886 0.0
H12 H 0.38008 0.93023 0.69416 0.0
H13 H 0.38783 0.85441 0.60519 0.0
H14 H 0.45075 0.84526 0.69242 0.0
H15 H 0.35809 0.89253 0.57918 0.0
C16 C 0.34361 0.90878 0.59872 0.0
C17 C 0.39182 0.90711 0.68079 0.0
C18 C 0.4169 0.88938 0.69705 0.0
C19 C 0.38166 0.89546 0.64742 0.0
C20 C 0.39644 0.86498 0.63031 0.0
C21 C 0.42126 0.84658 0.64652 0.0
C22 C 0.4317 0.8593 0.67972 0.0
N23 N 0.3551 0.91399 0.6331 0.0
H24 H 0.66121 0.438 0.87927 0.0
H25 H 0.56838 0.35472 0.88864 0.0
H26 H 0.65854 0.3537 0.95234 0.0
H27 H 0.64749 0.42787 0.82202 0.0
C28 C 0.61805 0.42787 0.82397 0.0
C29 C 0.647 0.41381 0.89138 0.0
C30 C 0.66331 0.39817 0.91753 0.0
C31 C 0.61265 0.3982 0.88088 0.0
C32 C 0.5944 0.36736 0.89734 0.0
C33 C 0.61112 0.35092 0.92277 0.0
C34 C 0.64529 0.36675 0.93312 0.0
N35 N 0.59689 0.41164 0.85256 0.0
H36 H 0.86554 0.55524 0.38303 0.0
H37 H 0.95234 0.64487 0.38106 0.0
H38 H 0.86922 0.63976 0.46513 0.0
H39 H 0.93278 0.63789 0.32314 0.0
C40 C 0.93591 0.60873 0.31897 0.0
C41 C 0.87964 0.57956 0.3957 0.0
C42 C 0.86382 0.59543 0.42618 0.0
C43 C 0.91145 0.59747 0.3793 0.0
C44 C 0.9284 0.6305 0.39437 0.0
C45 C 0.9132 0.64623 0.42521 0.0
C46 C 0.88152 0.6278 0.44147 0.0
N47 N 0.92364 0.58427 0.34577 0.0
H48 H 0.86097 0.89458 0.95515 0.0
H49 H 0.94247 0.89747 0.8699 0.0
H50 H 0.85265 0.96051 0.86794 0.0
H51 H 0.97745 0.87909 0.9092 0.0
C52 C 0.95819 0.86063 0.92455 0.0
C53 C 0.87188 0.90561 0.93061 0.0
C54 C 0.8525 0.9292 0.91367 0.0
C55 C 0.90484 0.89487 0.91565 0.0
C56 C 0.91825 0.9072 0.88281 0.0
C57 C 0.89914 0.93042 0.86534 0.0
C58 C 0.86677 0.94183 0.88119 0.0
N59 N 0.92205 0.86922 0.93297 0.0
H60 H 0.63237 0.07337 0.37156 0.0
H61 H 0.62602 0.15723 0.45324 0.0
H62 H 0.56486 0.16002 0.36365 0.0
H63 H 0.68789 0.14982 0.45194 0.0
C64 C 0.68729 0.12 0.44933 0.0
C65 C 0.62137 0.09816 0.38195 0.0
C66 C 0.59673 0.11436 0.36345 0.0
C67 C 0.63315 0.11431 0.41346 0.0
C68 C 0.61823 0.1457 0.42809 0.0
C69 C 0.59272 0.16181 0.41065 0.0
C70 C 0.58271 0.14631 0.3781 0.0
N71 N 0.66069 0.09883 0.42937 0.0
H72 H 0.36768 0.53289 0.11441 0.0
H73 H 0.4368 0.63188 0.14238 0.0
H74 H 0.36764 0.63109 0.05833 0.0
H75 H 0.47109 0.59076 0.16161 0.0
C76 C 0.44958 0.57222 0.17433 0.0
C77 C 0.37819 0.56131 0.10973 0.0
C78 C 0.3645 0.57973 0.08361 0.0
C79 C 0.40517 0.57949 0.13024 0.0
C80 C 0.41784 0.61684 0.12517 0.0
C81 C 0.40449 0.63565 0.09922 0.0
C82 C 0.37831 0.61665 0.07821 0.0
N83 N 0.41699 0.56054 0.15754 0.0
H84 H 0.02469 0.40041 0.59499 0.0
H85 H 0.11577 0.48594 0.5952 0.0
H86 H 0.13441 0.37201 0.58434 0.0
H87 H 0.0422 0.53012 0.6178 0.0
C88 C 0.04715 0.50312 0.62528 0.0
C89 C 0.05391 0.4086 0.59341 0.0
C90 C 0.07805 0.38175 0.59044 0.0
C91 C 0.06746 0.44611 0.59622 0.0
C92 C 0.10533 0.45688 0.59421 0.0
C93 C 0.12953 0.43017 0.58888 0.0
C94 C 0.1157 0.39275 0.58784 0.0
N95 N 0.04276 0.47293 0.60054 0.0
O96 O 0.00061 0.08894 0.56206 0.0
Zn97 Zn 0.97905 0.03634 0.55682 0.0
O98 O 0.01153 0.00889 0.52596 0.0
Zn99 Zn 0.98643 0.99116 0.48433 0.0
Zn100 Zn 0.05717 0.03999 0.51249 0.0
Zn101 Zn 0.02285 0.96741 0.55078 0.0
O102 O 0.9823 0.93565 0.47883 0.0
O103 O 0.00535 0.91969 0.52633 0.0
O104 O 0.92997 0.03635 0.53759 0.0
O105 O 0.93591 0.00693 0.48602 0.0
O106 O 0.01341 0.01196 0.44145 0.0
O107 O 0.06359 0.04415 0.46026 0.0
O108 O 0.10176 0.01955 0.52813 0.0
O109 O 0.97107 0.01659 0.60465 0.0
O110 O 0.07676 0.96863 0.55335 0.0
O111 O 0.00025 0.96697 0.59977 0.0
C112 C 0.0306 0.10719 0.55163 0.0
C113 C 0.99056 0.9111 0.49789 0.0
C114 C 0.04359 0.03216 0.43563 0.0
C115 C 0.91713 0.02435 0.5089 0.0
C116 C 0.1048 0.99044 0.54379 0.0
C117 C 0.98087 0.98855 0.61771 0.0
O118 O 0.05502 0.09186 0.53307 0.0
O119 O 0.49787 0.0776 0.99451 0.0
Zn120 Zn 0.47566 0.02548 0.00257 0.0
O121 O 0.50632 0.00077 0.03061 0.0
Zn122 Zn 0.52127 0.95767 0.00377 0.0
Zn123 Zn 0.54938 0.03473 0.04243 0.0
Zn124 Zn 0.47897 0.98482 0.07357 0.0
O125 O 0.50177 0.91105 0.02683 0.0
O126 O 0.47148 0.92931 0.07522 0.0
O127 O 0.46955 -0.00025 0.95537 0.0
O128 O 0.50222 0.9529 0.95608 0.0
O129 O 0.5759 0.9603 0.99838 0.0
O130 O 0.5958 0.0152 0.02232 0.0
O131 O 0.55224 0.04226 0.09435 0.0
O132 O 0.42608 0.02851 0.02729 0.0
O133 O 0.50503 0.00483 0.11578 0.0
O134 O 0.42976 0.00349 0.07771 0.0
C135 C 0.52601 0.09744 0.00507 0.0
C136 C 0.48244 0.90377 0.05474 0.0
C137 C 0.60188 0.98485 0.00629 0.0
C138 C 0.48195 0.97137 0.94061 0.0
C139 C 0.53319 0.02798 0.12006 0.0
C140 C 0.41225 0.01963 0.05725 0.0
O141 O 0.54775 0.08464 0.02389 0.0
O142 O 0.53226 0.51821 0.58977 0.0
Zn143 Zn 0.53178 0.53845 0.54262 0.0
O144 O 0.49893 0.50557 0.51372 0.0
Zn145 Zn 0.52572 0.48787 0.47217 0.0
Zn146 Zn 0.47681 0.46264 0.5396 0.0
Zn147 Zn 0.46153 0.53348 0.49943 0.0
O148 O 0.50658 0.50249 0.42867 0.0
O149 O 0.46189 0.53536 0.4473 0.0
O150 O 0.58358 0.54173 0.52138 0.0
O151 O 0.57844 0.50755 0.47217 0.0
O152 O 0.52339 0.4329 0.46931 0.0
O153 O 0.48914 0.41403 0.51592 0.0
O154 O 0.42196 0.46231 0.54592 0.0
O155 O 0.51627 0.58994 0.54986 0.0
O156 O 0.41242 0.51072 0.51723 0.0
O157 O 0.46691 0.5854 0.52009 0.0
C158 C 0.51738 0.48876 0.60353 0.0
C159 C 0.48134 0.52134 0.42262 0.0
C160 C 0.50831 0.40708 0.48806 0.0
C161 C 0.59773 0.5279 0.4933 0.0
C162 C 0.40049 0.48338 0.53549 0.0
C163 C 0.48947 0.60406 0.53949 0.0
O164 O 0.49603 0.46502 0.58708 0.0
O165 O 0.98484 0.49959 0.05758 0.0
Zn166 Zn 0.98955 0.47516 0.00987 0.0
O167 O 0.02231 0.50638 0.97894 0.0
Zn168 Zn 0.99348 0.52469 0.94558 0.0
Zn169 Zn 0.04605 0.54869 0.00544 0.0
Zn170 Zn 0.05879 0.47708 0.95503 0.0
O171 O 0.01098 0.50931 0.89765 0.0
O172 O 0.05655 0.47611 0.90244 0.0
O173 O 0.93896 0.46424 0.99284 0.0
O174 O 0.94067 0.50482 0.95208 0.0
O175 O 0.99701 0.57985 0.94816 0.0
O176 O 0.03539 0.5976 0.98886 0.0
O177 O 0.10015 0.54741 0.00261 0.0
O178 O 0.00972 0.42759 0.0152 0.0
O179 O 0.10937 0.49882 0.96722 0.0
O180 O 0.05333 0.42519 0.97266 0.0
C181 C 0.00302 0.52719 0.07238 0.0
C182 C 0.03559 0.49062 0.88391 0.0
C183 C 0.01476 0.60527 0.96609 0.0
C184 C 0.92328 0.48 0.97069 0.0
C185 C 0.12146 0.52623 0.98671 0.0
C186 C 0.0341 0.41078 0.99829 0.0
O187 O 0.02822 0.54742 0.0558 0.0
C188 C 0.11041 0.0613 0.23627 0.0
C189 C 0.11053 0.09812 0.2277 0.0
C190 C 0.09892 0.04991 0.26977 0.0
C191 C 0.08662 0.07577 0.29526 0.0
C192 C 0.08543 0.11265 0.28652 0.0
C193 C 0.09762 0.12344 0.25295 0.0
C194 C 0.10073 0.01036 0.2781 0.0
C195 C 0.07202 0.14092 0.31287 0.0
C196 C 0.02933 0.0388 0.37425 0.0
C197 C 0.0549 0.04281 0.39963 0.0
C198 C 0.0392 0.04966 0.34028 0.0
C199 C 0.07565 0.06439 0.33126 0.0
C200 C 0.1017 0.06817 0.35662 0.0
C201 C 0.09095 0.0576 0.39057 0.0
C202 C 0.01052 0.04569 0.31413 0.0
C203 C 0.14097 0.08327 0.34786 0.0
H204 H 0.11967 0.04135 0.21681 0.0
H205 H 0.09803 0.15204 0.24683 0.0
H206 H 0.11928 0.00957 0.29918 0.0
H207 H 0.07338 0.99737 0.2876 0.0
H208 H 0.11063 0.99359 0.25525 0.0
H209 H 0.07083 0.16788 0.30143 0.0
H210 H 0.04441 0.13073 0.32419 0.0
H211 H 0.09038 0.14539 0.33448 0.0
H212 H 0.00134 0.02767 0.38105 0.0
H213 H 0.1109 0.06067 0.40996 0.0
H214 H 0.01863 0.02746 0.29168 0.0
H215 H 0.00816 0.07301 0.30403 0.0
H216 H 0.98329 0.03406 0.32537 0.0
H217 H 0.15283 0.06618 0.32628 0.0
H218 H 0.15798 0.08389 0.37037 0.0
H219 H 0.14244 0.11172 0.33888 0.0
C220 C 0.39941 0.90328 0.75959 0.0
C221 C 0.42673 0.9016 0.73263 0.0
C222 C 0.40824 0.91434 0.79358 0.0
C223 C 0.44522 0.92476 0.80054 0.0
C224 C 0.47288 0.9235 0.77323 0.0
C225 C 0.46331 0.91147 0.73963 0.0
C226 C 0.37804 0.9145 0.82211 0.0
C227 C 0.51253 0.93512 0.77946 0.0
C228 C 0.46342 0.9851 0.88232 0.0
C229 C 0.47263 0.95953 0.90478 0.0
C230 C 0.45501 0.97429 0.84814 0.0
C231 C 0.45493 0.93683 0.83644 0.0
C232 C 0.46382 0.91082 0.85914 0.0
C233 C 0.473 0.92257 0.8929 0.0
C234 C 0.44645 0.00298 0.82448 0.0
C235 C 0.46323 0.87049 0.84789 0.0
H236 H 0.37114 0.89531 0.75413 0.0
H237 H 0.48437 0.91034 0.71865 0.0
H238 H 0.38312 0.89647 0.84286 0.0
H239 H 0.37754 0.94278 0.83406 0.0
H240 H 0.35079 0.90481 0.8125 0.0
H241 H 0.53057 0.93346 0.75527 0.0
H242 H 0.51608 0.96389 0.79065 0.0
H243 H 0.52152 0.91732 0.79858 0.0
H244 H 0.46338 0.01376 0.8913 0.0
H245 H 0.47985 0.90264 0.91024 0.0
H246 H 0.41833 0.99597 0.81608 0.0
H247 H 0.46529 0.00325 0.80074 0.0
H248 H 0.44882 0.03114 0.83721 0.0
H249 H 0.43577 0.85933 0.83969 0.0
H250 H 0.47015 0.85367 0.8689 0.0
H251 H 0.48293 0.86723 0.82518 0.0
C252 C 0.56365 0.44362 0.79564 0.0
C253 C 0.60064 0.43844 0.79361 0.0
C254 C 0.54729 0.45306 0.76635 0.0
C255 C 0.56836 0.4567 0.73435 0.0
C256 C 0.60575 0.45157 0.73232 0.0
C257 C 0.62151 0.44287 0.76211 0.0
C258 C 0.50755 0.45907 0.7696 0.0
C259 C 0.62901 0.45469 0.69855 0.0
C260 C 0.52321 0.44455 0.64903 0.0
C261 C 0.52689 0.48099 0.63857 0.0
C262 C 0.53564 0.43633 0.6807 0.0
C263 C 0.55146 0.46533 0.70267 0.0
C264 C 0.5536 0.50233 0.69302 0.0
C265 C 0.54162 0.50969 0.6609 0.0
C266 C 0.5334 0.39648 0.68985 0.0
C267 C 0.56963 0.53403 0.71611 0.0
H268 H 0.54754 0.44051 0.82012 0.0
H269 H 0.65011 0.43881 0.76062 0.0
H270 H 0.50448 0.4869 0.76106 0.0
H271 H 0.49185 0.43866 0.75238 0.0
H272 H 0.49534 0.4565 0.79661 0.0
H273 H 0.65755 0.44948 0.70134 0.0
H274 H 0.61709 0.43461 0.67864 0.0
H275 H 0.62952 0.48266 0.68873 0.0
H276 H 0.51198 0.42223 0.63183 0.0
H277 H 0.5442 0.53795 0.65308 0.0
H278 H 0.51963 0.39263 0.71608 0.0
H279 H 0.56135 0.38867 0.69049 0.0
H280 H 0.51843 0.37739 0.67094 0.0
H281 H 0.55684 0.53201 0.74292 0.0
H282 H 0.56593 0.56128 0.70652 0.0
H283 H 0.59926 0.53273 0.71746 0.0
C284 C 0.95813 0.55979 0.27755 0.0
C285 C 0.94673 0.59485 0.28366 0.0
C286 C 0.96854 0.54702 0.24376 0.0
C287 C 0.96665 0.56962 0.21561 0.0
C288 C 0.95491 0.60497 0.22178 0.0
C289 C 0.94553 0.61733 0.25584 0.0
C290 C 0.98174 0.50954 0.23817 0.0
C291 C 0.95188 0.62958 0.19237 0.0
C292 C 0.02078 0.5561 0.12963 0.0
C293 C 0.99428 0.53636 0.10948 0.0
C294 C 0.01253 0.56587 0.16467 0.0
C295 C 0.97671 0.55645 0.17958 0.0
C296 C 0.94994 0.53619 0.15944 0.0
C297 C 0.95919 0.526 0.1247 0.0
C298 C 0.04198 0.58676 0.18559 0.0
C299 C 0.91124 0.52636 0.17426 0.0
H300 H 0.95938 0.54256 0.29918 0.0
H301 H 0.93664 0.64444 0.26071 0.0
H302 H 0.96364 0.49144 0.22108 0.0
H303 H 0.00952 0.51228 0.22488 0.0
H304 H 0.98253 0.49583 0.26292 0.0
H305 H 0.94143 0.65591 0.20157 0.0
H306 H 0.97896 0.6361 0.17833 0.0
H307 H 0.93331 0.61503 0.17345 0.0
H308 H 0.04806 0.56379 0.11802 0.0
H309 H 0.93859 0.51089 0.10912 0.0
H310 H 0.04406 0.57265 0.20985 0.0
H311 H 0.03488 0.61486 0.19319 0.0
H312 H 0.06909 0.5894 0.17092 0.0
H313 H 0.91101 0.51068 0.19796 0.0
H314 H 0.89397 0.50962 0.15544 0.0
H315 H 0.89878 0.55197 0.18195 0.0
C316 C 0.2097 0.05792 0.12627 0.0
C317 C 0.2085 0.09602 0.1314 0.0
C318 C 0.24177 0.04394 0.11278 0.0
C319 C 0.27351 0.0687 0.10496 0.0
C320 C 0.27234 0.10725 0.10996 0.0
C321 C 0.23969 0.12047 0.12284 0.0
C322 C 0.24177 0.00272 0.10715 0.0
C323 C 0.30579 0.13449 0.10249 0.0
C324 C 0.3657 0.0335 0.10488 0.0
C325 C 0.37583 0.03007 0.06926 0.0
C326 C 0.33239 0.04588 0.11682 0.0
C327 C 0.3083 0.05432 0.09255 0.0
C328 C 0.31787 0.04989 0.05655 0.0
C329 C 0.35172 0.03817 0.04533 0.0
C330 C 0.32339 0.05082 0.15543 0.0
C331 C 0.29254 0.05791 0.02992 0.0
H332 H 0.18541 0.03908 0.13267 0.0
H333 H 0.23877 0.14993 0.12711 0.0
H334 H 0.25116 0.99578 0.0799 0.0
H335 H 0.26113 0.99302 0.12405 0.0
H336 H 0.21432 0.98736 0.11286 0.0
H337 H 0.30021 0.16357 0.10748 0.0
H338 H 0.32776 0.12935 0.1189 0.0
H339 H 0.31626 0.13078 0.07503 0.0
H340 H 0.38432 0.02755 0.12353 0.0
H341 H 0.3593 0.03535 0.01776 0.0
H342 H 0.29721 0.03404 0.16296 0.0
H343 H 0.3199 0.08012 0.16238 0.0
H344 H 0.34495 0.04274 0.17087 0.0
H345 H 0.26535 0.04179 0.03473 0.0
H346 H 0.30318 0.05117 0.00297 0.0
H347 H 0.28853 0.08754 0.03219 0.0
C348 C 0.2925 0.94753 0.6131 0.0
C349 C 0.31109 0.92485 0.58924 0.0
C350 C 0.26049 0.96098 0.60478 0.0
C351 C 0.24664 0.95137 0.57191 0.0
C352 C 0.26592 0.92936 0.54738 0.0
C353 C 0.29797 0.91644 0.55634 0.0
C354 C 0.24084 0.98448 0.63162 0.0
C355 C 0.25199 0.91838 0.51212 0.0
C356 C 0.14436 0.94792 0.5665 0.0
C357 C 0.14138 0.98102 0.55084 0.0
C358 C 0.1784 0.93801 0.57328 0.0
C359 C 0.21049 0.96177 0.56433 0.0
C360 C 0.20786 0.99524 0.54855 0.0
C361 C 0.17332 0.00447 0.54194 0.0
C362 C 0.17997 0.90201 0.59008 0.0
C363 C 0.2415 0.02131 0.53875 0.0
H364 H 0.30257 0.95439 0.63853 0.0
H365 H 0.31237 0.89899 0.53784 0.0
H366 H 0.23541 0.01027 0.62028 0.0
H367 H 0.21404 0.96937 0.64006 0.0
H368 H 0.25662 0.99188 0.65484 0.0
H369 H 0.27147 0.90342 0.49514 0.0
H370 H 0.22567 0.90029 0.51516 0.0
H371 H 0.24675 0.94316 0.49897 0.0
H372 H 0.11997 0.92947 0.57346 0.0
H373 H 0.17138 0.03008 0.52984 0.0
H374 H 0.193 0.90739 0.61506 0.0
H375 H 0.19696 0.88432 0.57316 0.0
H376 H 0.1525 0.88647 0.59514 0.0
H377 H 0.2565 0.03025 0.56215 0.0
H378 H 0.23487 0.0462 0.52659 0.0
H379 H 0.26018 0.00696 0.52036 0.0
C380 C 0.72948 0.41286 0.90104 0.0
C381 C 0.70057 0.41256 0.92655 0.0
C382 C 0.76546 0.42406 0.90947 0.0
C383 C 0.7724 0.43604 0.94408 0.0
C384 C 0.74309 0.43654 0.96979 0.0
C385 C 0.70744 0.42425 0.96078 0.0
C386 C 0.79608 0.42242 0.8815 0.0
C387 C 0.74939 0.45002 0.00674 0.0
C388 C 0.86811 0.43309 0.97173 0.0
C389 C 0.88418 0.46917 0.96598 0.0
C390 C 0.83155 0.42196 0.96502 0.0
C391 C 0.81045 0.44787 0.95323 0.0
C392 C 0.82621 0.48471 0.94866 0.0
C393 C 0.86306 0.49479 0.95464 0.0
C394 C 0.81586 0.38222 0.96944 0.0
C395 C 0.8043 0.51333 0.93699 0.0
H396 H 0.72397 0.40334 0.87466 0.0
H397 H 0.68487 0.42394 0.98038 0.0
H398 H 0.81118 0.45032 0.87831 0.0
H399 H 0.81577 0.40436 0.88916 0.0
H400 H 0.78606 0.41173 0.85605 0.0
H401 H 0.72348 0.45001 0.02324 0.0
H402 H 0.76697 0.43226 0.01829 0.0
H403 H 0.76394 0.47847 0.00721 0.0
H404 H 0.88449 0.41321 0.98032 0.0
H405 H 0.87536 0.52284 0.95055 0.0
H406 H 0.80751 0.36938 0.94412 0.0
H407 H 0.79108 0.38074 0.98755 0.0
H408 H 0.83568 0.36574 0.97949 0.0
H409 H 0.7961 0.5058 0.91027 0.0
H410 H 0.81985 0.54137 0.93723 0.0
H411 H 0.7789 0.51424 0.95405 0.0
C412 C 0.80036 0.6083 0.44168 0.0
C413 C 0.82584 0.58278 0.43847 0.0
C414 C 0.76377 0.59751 0.45188 0.0
C415 C 0.75241 0.56028 0.4594 0.0
C416 C 0.77808 0.53437 0.45667 0.0
C417 C 0.81461 0.5459 0.44579 0.0
C418 C 0.73712 0.62583 0.45381 0.0
C419 C 0.76687 0.49457 0.46499 0.0
C420 C 0.6612 0.54615 0.5113 0.0
C421 C 0.63751 0.53495 0.48506 0.0
C422 C 0.69902 0.55269 0.50358 0.0
C423 C 0.71325 0.54864 0.46874 0.0
C424 C 0.68951 0.53682 0.44225 0.0
C425 C 0.65193 0.52983 0.45078 0.0
C426 C 0.72366 0.56476 0.53254 0.0
C427 C 0.70361 0.53292 0.40469 0.0
H428 H 0.80899 0.63673 0.43537 0.0
H429 H 0.83443 0.52626 0.44322 0.0
H430 H 0.71559 0.61729 0.43552 0.0
H431 H 0.72342 0.62765 0.48025 0.0
H432 H 0.75057 0.65373 0.44737 0.0
H433 H 0.79048 0.47839 0.46331 0.0
H434 H 0.75326 0.49301 0.49152 0.0
H435 H 0.74682 0.48151 0.44672 0.0
H436 H 0.65022 0.54964 0.53791 0.0
H437 H 0.63374 0.52118 0.43038 0.0
H438 H 0.7361 0.59368 0.5293 0.0
H439 H 0.74629 0.5474 0.53154 0.0
H440 H 0.70875 0.5631 0.55854 0.0
H441 H 0.71562 0.56032 0.3956 0.0
H442 H 0.68179 0.52146 0.38752 0.0
H443 H 0.72556 0.51469 0.40188 0.0
C444 C 0.08189 0.22542 0.07954 0.0
C445 C 0.11697 0.23397 0.0913 0.0
C446 C 0.06614 0.2512 0.06172 0.0
C447 C 0.0856 0.28657 0.0565 0.0
C448 C 0.12107 0.29517 0.06836 0.0
C449 C 0.13651 0.26854 0.08514 0.0
C450 C 0.0287 0.24067 0.04861 0.0
C451 C 0.14241 0.33284 0.06412 0.0
C452 C 0.06316 0.35201 0.99054 0.0
C453 C 0.04323 0.37608 0.01157 0.0
C454 C 0.07539 0.3214 0.00437 0.0
C455 C 0.06843 0.31542 0.04025 0.0
C456 C 0.04738 0.339 0.06132 0.0
C457 C 0.03466 0.3687 0.04664 0.0
C458 C 0.09684 0.29623 0.98086 0.0
C459 C 0.04003 0.33417 0.09984 0.0
H460 H 0.06694 0.19847 0.08388 0.0
H461 H 0.16368 0.27506 0.09423 0.0
H462 H 0.00917 0.25825 0.06217 0.0
H463 H 0.02942 0.24554 0.02051 0.0
H464 H 0.01827 0.21129 0.05263 0.0
H465 H 0.16959 0.33512 0.07494 0.0
H466 H 0.1464 0.33893 0.03625 0.0
H467 H 0.12686 0.35432 0.07739 0.0
H468 H 0.0697 0.35743 0.96338 0.0
H469 H 0.01952 0.38731 0.06319 0.0
H470 H 0.08613 0.26692 0.98474 0.0
H471 H 0.12576 0.30006 0.98741 0.0
H472 H 0.09593 0.30178 0.95304 0.0
H473 H 0.02749 0.30563 0.10474 0.0
H474 H 0.02171 0.35375 0.11226 0.0
H475 H 0.06619 0.33864 0.11259 0.0
C476 C 0.61517 0.28452 0.92869 0.0
C477 C 0.5954 0.31469 0.93533 0.0
C478 C 0.6013 0.24967 0.94027 0.0
C479 C 0.56714 0.24515 0.95958 0.0
C480 C 0.54699 0.27561 0.96635 0.0
C481 C 0.56123 0.31011 0.95371 0.0
C482 C 0.62329 0.21773 0.93191 0.0
C483 C 0.51081 0.27189 0.98742 0.0
C484 C 0.52146 0.14662 0.96405 0.0
C485 C 0.53406 0.13601 0.99476 0.0
C486 C 0.5311 0.18251 0.95272 0.0
C487 C 0.55315 0.20851 0.97305 0.0
C488 C 0.56451 0.1984 0.00489 0.0
C489 C 0.5552 0.1621 0.01517 0.0
C490 C 0.51913 0.19207 0.91827 0.0
C491 C 0.58743 0.2256 0.0276 0.0
H492 H 0.64146 0.28823 0.9141 0.0
H493 H 0.54612 0.33365 0.95877 0.0
H494 H 0.63104 0.20717 0.95624 0.0
H495 H 0.60659 0.19472 0.91836 0.0
H496 H 0.64856 0.22561 0.91529 0.0
H497 H 0.49848 0.29819 0.99016 0.0
H498 H 0.4914 0.25035 0.97511 0.0
H499 H 0.51452 0.26293 0.01369 0.0
H500 H 0.50519 0.12647 0.94816 0.0
H501 H 0.56458 0.15409 0.03916 0.0
H502 H 0.54339 0.19762 0.89981 0.0
H503 H 0.50554 0.21756 0.9213 0.0
H504 H 0.50011 0.16952 0.90672 0.0
H505 H 0.61487 0.23256 0.01437 0.0
H506 H 0.5908 0.21453 0.05314 0.0
H507 H 0.57487 0.25164 0.03207 0.0
C508 C 0.90258 0.70918 0.44923 0.0
C509 C 0.92725 0.68409 0.4378 0.0
C510 C 0.91483 0.74561 0.45956 0.0
C511 C 0.9527 0.75759 0.45767 0.0
C512 C 0.97786 0.73257 0.44622 0.0
C513 C 0.96482 0.69596 0.43661 0.0
C514 C 0.88716 0.77144 0.47197 0.0
C515 C 0.01844 0.74465 0.4436 0.0
C516 C 0.97601 0.861 0.45254 0.0
C517 C 0.98267 0.8717 0.48708 0.0
C518 C 0.96778 0.82366 0.44225 0.0
C519 C 0.96558 0.79659 0.46726 0.0
C520 C 0.97289 0.80716 0.50202 0.0
C521 C 0.98161 0.84461 0.51147 0.0
C522 C 0.96061 0.81325 0.40482 0.0
C523 C 0.97017 0.77906 0.5295 0.0
H524 H 0.87347 0.70066 0.44933 0.0
H525 H 0.98402 0.67667 0.42798 0.0
H526 H 0.89326 0.78397 0.49802 0.0
H527 H 0.88873 0.7943 0.4541 0.0
H528 H 0.85879 0.75723 0.47349 0.0
H529 H 0.0344 0.72169 0.43448 0.0
H530 H 0.02488 0.76722 0.42533 0.0
H531 H 0.02749 0.75577 0.46923 0.0
H532 H 0.97721 0.8818 0.43351 0.0
H533 H 0.98668 0.85272 0.53824 0.0
H534 H 0.93164 0.80158 0.40302 0.0
H535 H 0.97761 0.79161 0.39447 0.0
H536 H 0.96639 0.83727 0.3881 0.0
H537 H 0.94155 0.76592 0.53319 0.0
H538 H 0.97883 0.79159 0.55486 0.0
H539 H 0.98726 0.75686 0.52113 0.0
C540 C 0.44905 0.81212 0.59519 0.0
C541 C 0.43461 0.81273 0.62976 0.0
C542 C 0.46086 0.77981 0.57902 0.0
C543 C 0.45746 0.74722 0.59769 0.0
C544 C 0.44311 0.74783 0.63269 0.0
C545 C 0.43212 0.78063 0.64835 0.0
C546 C 0.47656 0.78041 0.54186 0.0
C547 C 0.4384 0.71356 0.65334 0.0
C548 C 0.44846 0.65373 0.5488 0.0
C549 C 0.48269 0.64197 0.55201 0.0
C550 C 0.44022 0.68819 0.56293 0.0
C551 C 0.46701 0.71189 0.58027 0.0
C552 C 0.50206 0.70084 0.58253 0.0
C553 C 0.5094 0.66587 0.56864 0.0
C554 C 0.40234 0.69865 0.56036 0.0
C555 C 0.53154 0.72562 0.60029 0.0
H556 H 0.45125 0.83701 0.58088 0.0
H557 H 0.42059 0.78093 0.67497 0.0
H558 H 0.50369 0.77023 0.53969 0.0
H559 H 0.45862 0.76162 0.52514 0.0
H560 H 0.47954 0.8085 0.5317 0.0
H561 H 0.42761 0.71888 0.68052 0.0
H562 H 0.41933 0.69186 0.64077 0.0
H563 H 0.46489 0.70245 0.65379 0.0
H564 H 0.42755 0.63547 0.53616 0.0
H565 H 0.53597 0.65714 0.57108 0.0
H566 H 0.40387 0.72554 0.54816 0.0
H567 H 0.3888 0.70193 0.58677 0.0
H568 H 0.38501 0.67765 0.54503 0.0
H569 H 0.53514 0.75339 0.58949 0.0
H570 H 0.55815 0.7143 0.59742 0.0
H571 H 0.52341 0.72923 0.62836 0.0
C572 C 0.94819 0.95436 0.82123 0.0
C573 C 0.91165 0.94083 0.82954 0.0
C574 C 0.96033 0.96337 0.78716 0.0
C575 C 0.9354 0.95815 0.76078 0.0
C576 C 0.89847 0.94451 0.7691 0.0
C577 C 0.88701 0.93621 0.80342 0.0
C578 C -0.00019 0.97833 0.77934 0.0
C579 C 0.87118 0.9381 0.74162 0.0
C580 C 0.9562 0.00835 0.67703 0.0
C581 C 0.96967 0.98097 0.65443 0.0
C582 C 0.94557 0.00153 0.7119 0.0
C583 C 0.94798 0.96633 0.72432 0.0
C584 C 0.96154 0.93858 0.70167 0.0
C585 C 0.97246 0.94631 0.66707 0.0
C586 C 0.93166 0.03194 0.73541 0.0
C587 C 0.96404 0.90054 0.71385 0.0
H588 H 0.96721 0.95814 0.84148 0.0
H589 H 0.85884 0.92526 0.80973 0.0
H590 H 0.01301 0.95939 0.7603 0.0
H591 H 0.00159 0.00542 0.76741 0.0
H592 H 0.0154 0.98184 0.80297 0.0
H593 H 0.84342 0.92754 0.75244 0.0
H594 H 0.86961 0.96418 0.72886 0.0
H595 H 0.88018 0.91789 0.72123 0.0
H596 H 0.95421 0.03529 0.66756 0.0
H597 H 0.9827 0.92495 0.64976 0.0
H598 H 0.94808 0.03711 0.75841 0.0
H599 H 0.90304 0.02341 0.74505 0.0
H600 H 0.93272 0.05817 0.72205 0.0
H601 H 0.98151 0.90252 0.73609 0.0
H602 H 0.97541 0.88212 0.69304 0.0
H603 H 0.93654 0.88762 0.72309 0.0
C604 C 0.61286 0.08376 0.30519 0.0
C605 C 0.58691 0.09908 0.32825 0.0
C606 C 0.60439 0.07042 0.27164 0.0
C607 C 0.56948 0.07342 0.26034 0.0
C608 C 0.54311 0.08872 0.28335 0.0
C609 C 0.55194 0.10082 0.31712 0.0
C610 C 0.63301 0.05354 0.24811 0.0
C611 C 0.50576 0.09298 0.27207 0.0
C612 C 0.56105 0.07463 0.16315 0.0
C613 C 0.54337 0.03917 0.15571 0.0
C614 C 0.56941 0.08623 0.19716 0.0
C615 C 0.56082 0.06139 0.22416 0.0
C616 C 0.54372 0.02525 0.21662 0.0
C617 C 0.53471 0.01475 0.18255 0.0
C618 C 0.58681 0.12529 0.2043 0.0
C619 C 0.53509 0.99765 0.24451 0.0
H620 H 0.64018 0.08282 0.31301 0.0
H621 H 0.53136 0.11181 0.33478 0.0
H622 H 0.62175 0.02584 0.23777 0.0
H623 H 0.64106 0.07089 0.22557 0.0
H624 H 0.65784 0.05075 0.26166 0.0
H625 H 0.48852 0.10591 0.29294 0.0
H626 H 0.50848 0.11024 0.24915 0.0
H627 H 0.49147 0.06564 0.26413 0.0
H628 H 0.56748 0.09368 0.1425 0.0
H629 H 0.52127 0.98721 0.17681 0.0
H630 H 0.61355 0.12506 0.21535 0.0
H631 H 0.56932 0.13971 0.22384 0.0
H632 H 0.59112 0.14136 0.18054 0.0
H633 H 0.56029 0.9942 0.25714 0.0
H634 H 0.52306 0.97022 0.2341 0.0
H635 H 0.51563 0.00793 0.26493 0.0
C636 C 0.42792 0.53672 0.22709 0.0
C637 C 0.45361 0.56234 0.21018 0.0
C638 C 0.43128 0.52867 0.26166 0.0
C639 C 0.46079 0.54698 0.27966 0.0
C640 C 0.48687 0.57271 0.26256 0.0
C641 C 0.48304 0.57991 0.22793 0.0
C642 C 0.40323 0.50073 0.27895 0.0
C643 C 0.51858 0.59295 0.28097 0.0
C644 C 0.45314 0.55389 0.37822 0.0
C645 C 0.47483 0.5271 0.38614 0.0
C646 C 0.44798 0.56037 0.34364 0.0
C647 C 0.46456 0.53928 0.31641 0.0
C648 C 0.4858 0.51166 0.32424 0.0
C649 C 0.49085 0.50605 0.35899 0.0
C650 C 0.42539 0.59029 0.33623 0.0
C651 C 0.50358 0.48834 0.2959 0.0
H652 H 0.40515 0.52299 0.2134 0.0
H653 H 0.50282 0.59981 0.21483 0.0
H654 H 0.41681 0.47824 0.28844 0.0
H655 H 0.38925 0.51398 0.30187 0.0
H656 H 0.38233 0.48839 0.26114 0.0
H657 H 0.53633 0.61225 0.264 0.0
H658 H 0.50831 0.60888 0.30418 0.0
H659 H 0.53539 0.57289 0.29015 0.0
H660 H 0.44073 0.57032 0.39903 0.0
H661 H 0.50741 0.48507 0.36486 0.0
H662 H 0.40279 0.57868 0.32009 0.0
H663 H 0.44253 0.6118 0.32122 0.0
H664 H 0.41362 0.60361 0.36034 0.0
H665 H 0.48277 0.47459 0.27869 0.0
H666 H 0.51784 0.46686 0.30639 0.0
H667 H 0.52367 0.50615 0.2796 0.0
C668 C 0.04208 0.46328 0.67661 0.0
C669 C 0.05202 0.49776 0.66225 0.0
C670 C 0.04337 0.45909 0.71227 0.0
C671 C 0.05444 0.49022 0.73414 0.0
C672 C 0.06585 0.52478 0.71957 0.0
C673 C 0.0643 0.52816 0.68378 0.0
C674 C 0.03072 0.42182 0.72676 0.0
C675 C 0.07793 0.55862 0.74203 0.0
C676 C 0.01175 0.49497 0.82607 0.0
C677 C 0.0401 0.48725 0.84553 0.0
C678 C 0.01596 0.49524 0.78984 0.0
C679 C 0.04948 0.48781 0.77247 0.0
C680 C 0.07797 0.47902 0.79177 0.0
C681 C 0.07288 0.47867 0.82818 0.0
C682 C 0.98469 0.50427 0.77022 0.0
C683 C 0.11405 0.47096 0.77403 0.0
H684 H 0.03154 0.43981 0.66044 0.0
H685 H 0.0719 0.55482 0.67269 0.0
H686 H 0.05004 0.41482 0.74518 0.0
H687 H 0.00382 0.42263 0.74136 0.0
H688 H 0.02791 0.39951 0.70601 0.0
H689 H 0.0898 0.58228 0.72638 0.0
H690 H 0.05419 0.56698 0.75853 0.0
H691 H 0.09846 0.55249 0.75961 0.0
H692 H 0.98617 0.50126 0.83922 0.0
H693 H 0.09493 0.4728 0.84308 0.0
H694 H 0.97738 0.48186 0.75047 0.0
H695 H 0.99302 0.52996 0.75627 0.0
H696 H 0.95999 0.50812 0.78759 0.0
H697 H 0.10967 0.44853 0.75364 0.0
H698 H 0.13276 0.46279 0.79252 0.0
H699 H 0.12752 0.4958 0.76097 0.0
C700 C 0.81034 0.94543 0.96502 0.0
C701 C 0.81665 0.93931 0.929 0.0
C702 C 0.77623 0.95373 0.97967 0.0
C703 C 0.74796 0.95675 0.95775 0.0
C704 C 0.75431 0.95138 0.92138 0.0
C705 C 0.78833 0.94227 0.90752 0.0
C706 C 0.77026 0.95869 0.01862 0.0
C707 C 0.72498 0.95477 0.89708 0.0
C708 C 0.64836 0.94163 0.99069 0.0
C709 C 0.63984 0.97794 0.99603 0.0
C710 C 0.68381 0.93441 0.9795 0.0
C711 C 0.71123 0.96422 0.97271 0.0
C712 C 0.70294 0.00097 0.9785 0.0
C713 C 0.6674 0.00741 0.99049 0.0
C714 C 0.69175 0.89484 0.97434 0.0
C715 C 0.73127 0.03344 0.97088 0.0
H716 H 0.83209 0.94377 0.98186 0.0
H717 H 0.79244 0.93682 0.87976 0.0
H718 H 0.76193 0.98639 0.02586 0.0
H719 H 0.74777 0.93803 0.02823 0.0
H720 H 0.7951 0.95563 0.03205 0.0
H721 H 0.73505 0.95213 0.86935 0.0
H722 H 0.70173 0.93302 0.90188 0.0
H723 H 0.7144 0.98183 0.90197 0.0
H724 H 0.62724 0.91876 0.99529 0.0
H725 H 0.66088 0.03552 0.99443 0.0
H726 H 0.71562 0.89071 0.98869 0.0
H727 H 0.69878 0.88836 0.94645 0.0
H728 H 0.66815 0.87496 0.98321 0.0
H729 H 0.75586 0.03186 0.98513 0.0
H730 H 0.72089 0.06029 0.9781 0.0
H731 H 0.73995 0.03267 0.94278 0.0
C732 C 0.75077 0.12633 0.46753 0.0
C733 C 0.71883 0.1034 0.46013 0.0
C734 C 0.78193 0.11149 0.47602 0.0
C735 C 0.7808 0.07278 0.47794 0.0
C736 C 0.7482 0.04953 0.47145 0.0
C737 C 0.71765 0.06511 0.46224 0.0
C738 C 0.81631 0.1372 0.48217 0.0
C739 C 0.74568 0.00824 0.47403 0.0
C740 C 0.872 0.0345 0.46659 0.0
C741 C 0.88071 0.03317 0.50111 0.0
C742 C 0.83919 0.04658 0.45868 0.0
C743 C 0.81411 0.05681 0.48596 0.0
C744 C 0.822 0.05391 0.52086 0.0
C745 C 0.8554 0.04253 0.52802 0.0
C746 C 0.8321 0.0499 0.42114 0.0
C747 C 0.79561 0.06375 0.55065 0.0
H748 H 0.75167 0.15593 0.46583 0.0
H749 H 0.69284 0.04733 0.45682 0.0
H750 H 0.82495 0.13412 0.50856 0.0
H751 H 0.83877 0.12989 0.46338 0.0
H752 H 0.81271 0.16659 0.4795 0.0
H753 H 0.71784 0.99421 0.46992 0.0
H754 H 0.76521 0.99673 0.45441 0.0
H755 H 0.75335 0.00167 0.49993 0.0
H756 H 0.89152 0.02753 0.44565 0.0
H757 H 0.86184 0.04129 0.55476 0.0
H758 H 0.83081 0.07928 0.41615 0.0
H759 H 0.80537 0.03441 0.41534 0.0
H760 H 0.85362 0.03941 0.40298 0.0
H761 H 0.79345 0.09379 0.55151 0.0
H762 H 0.80423 0.0567 0.57606 0.0
H763 H 0.76797 0.04913 0.54685 0.0
C764 C 0.33213 0.56814 0.02874 0.0
C765 C 0.33326 0.56229 0.06415 0.0
C766 C 0.29991 0.55855 0.01174 0.0
C767 C 0.26822 0.54252 0.03059 0.0
C768 C 0.27005 0.53374 0.06553 0.0
C769 C 0.30256 0.54383 0.08194 0.0
C770 C 0.29914 0.56808 0.97439 0.0
C771 C 0.23691 0.51625 0.08641 0.0
C772 C 0.17532 0.5649 0.01021 0.0
C773 C 0.16056 0.53183 0.9937 0.0
C774 C 0.21089 0.56912 0.02108 0.0
C775 C 0.23218 0.53945 0.01553 0.0
C776 C 0.21809 0.50654 0.99757 0.0
C777 C 0.18242 0.50316 0.98672 0.0
C778 C 0.22514 0.60489 0.03974 0.0
C779 C 0.24 0.47433 0.99124 0.0
H780 H 0.35603 0.58178 0.0147 0.0
H781 H 0.30313 0.5394 0.10933 0.0
H782 H 0.28496 0.54475 0.95907 0.0
H783 H 0.28371 0.59207 0.97322 0.0
H784 H 0.32701 0.57526 0.96202 0.0
H785 H 0.24397 0.50693 0.11159 0.0
H786 H 0.21703 0.53657 0.09174 0.0
H787 H 0.2232 0.49225 0.07158 0.0
H788 H 0.15874 0.5873 0.01542 0.0
H789 H 0.17118 0.47745 0.97407 0.0
H790 H 0.25179 0.61627 0.02717 0.0
H791 H 0.22968 0.59972 0.06695 0.0
H792 H 0.206 0.62604 0.04006 0.0
H793 H 0.26785 0.48364 0.97996 0.0
H794 H 0.22684 0.45243 0.97357 0.0
H795 H 0.243 0.46216 0.0163 0.0
C796 C 0.18734 0.42492 0.55306 0.0
C797 C 0.16915 0.44066 0.58223 0.0
C798 C 0.22511 0.4328 0.54669 0.0
C799 C 0.24518 0.45684 0.57022 0.0
C800 C 0.22693 0.47317 0.59961 0.0
C801 C 0.1889 0.46504 0.60517 0.0
C802 C 0.24351 0.4153 0.51478 0.0
C803 C 0.2476 0.49879 0.62529 0.0
C804 C 0.34639 0.44792 0.56641 0.0
C805 C 0.36086 0.47688 0.54533 0.0
C806 C 0.30881 0.44177 0.5757 0.0
C807 C 0.28526 0.46507 0.56352 0.0
C808 C 0.29974 0.4947 0.54276 0.0
C809 C 0.33733 0.50025 0.53393 0.0
C810 C 0.29421 0.4099 0.59793 0.0
C811 C 0.27541 0.52 0.52914 0.0
H812 H 0.17187 0.40641 0.53512 0.0
H813 H 0.17472 0.47699 0.6278 0.0
H814 H 0.2581 0.43704 0.49829 0.0
H815 H 0.26414 0.39836 0.52248 0.0
H816 H 0.22381 0.39743 0.49898 0.0
H817 H 0.22932 0.50925 0.64674 0.0
H818 H 0.2681 0.48419 0.63657 0.0
H819 H 0.2627 0.52269 0.61192 0.0
H820 H 0.36435 0.42988 0.57552 0.0
H821 H 0.34819 0.52285 0.51778 0.0
H822 H 0.27619 0.38936 0.58287 0.0
H823 H 0.27747 0.41972 0.62081 0.0
H824 H 0.31635 0.39585 0.60714 0.0
H825 H 0.25649 0.50403 0.51132 0.0
H826 H 0.29121 0.543 0.51493 0.0
H827 H 0.25846 0.53186 0.55083 0.0
C828 C 0.94597 0.80134 0.95529 0.0
C829 C 0.96941 0.82544 0.93446 0.0
C830 C 0.95555 0.76674 0.96242 0.0
C831 C 0.98924 0.75595 0.94819 0.0
C832 C 0.0135 0.78072 0.92809 0.0
C833 C 0.0033 0.81525 0.92155 0.0
C834 C 0.92905 0.7412 0.98418 0.0
C835 C 0.04958 0.77019 0.91236 0.0
C836 C 0.02287 0.67274 0.98445 0.0
C837 C 0.01025 0.64427 0.9608 0.0
C838 C 0.01669 0.70939 0.9805 0.0
C839 C 0.9977 0.71774 0.95211 0.0
C840 C 0.98571 0.68928 0.92773 0.0
C841 C 0.99201 0.65294 0.93242 0.0
C842 C 0.02974 0.73903 0.00709 0.0
C843 C 0.96563 0.69708 0.89692 0.0
H844 H 0.91981 0.80915 0.96556 0.0
H845 H 0.02144 0.83393 0.90549 0.0
H846 H 0.91875 0.71662 0.96796 0.0
H847 H 0.94299 0.73125 0.00556 0.0
H848 H 0.90534 0.75479 0.99553 0.0
H849 H 0.06648 0.79357 0.89961 0.0
H850 H 0.06526 0.76044 0.93258 0.0
H851 H 0.04469 0.74705 0.89274 0.0
H852 H 0.03692 0.66631 0.00649 0.0
H853 H 0.98236 0.63123 0.91385 0.0
H854 H 0.00601 0.75101 0.02047 0.0
H855 H 0.04732 0.76179 0.99415 0.0
H856 H 0.04534 0.7283 0.02689 0.0
H857 H 0.93965 0.70785 0.90602 0.0
H858 H 0.95933 0.67209 0.87965 0.0
H859 H 0.98218 0.71863 0.88151 0.0
C860 C 0.39123 0.69934 0.0882 0.0
C861 C 0.41653 0.67558 0.09502 0.0
C862 C 0.40222 0.73679 0.08298 0.0
C863 C 0.43931 0.75104 0.08534 0.0
C864 C 0.46484 0.72756 0.09325 0.0
C865 C 0.4532 0.69001 0.09772 0.0
C866 C 0.37424 0.76094 0.07428 0.0
C867 C 0.50455 0.74196 0.09638 0.0
C868 C 0.47385 0.83681 0.03668 0.0
C869 C 0.4721 0.86474 0.06301 0.0
C870 C 0.46343 0.79969 0.04369 0.0
C871 C 0.45154 0.79019 0.07798 0.0
C872 C 0.45032 0.81814 0.10483 0.0
C873 C 0.46031 0.85519 0.09696 0.0
C874 C 0.4645 0.77068 0.01426 0.0
C875 C 0.43832 0.80891 0.1418 0.0
H876 H 0.36268 0.68868 0.08694 0.0
H877 H 0.47297 0.67182 0.10274 0.0
H878 H 0.3735 0.7846 0.09353 0.0
H879 H 0.38196 0.77247 0.04848 0.0
H880 H 0.3464 0.74563 0.0738 0.0
H881 H 0.52039 0.72069 0.105 0.0
H882 H 0.51697 0.75139 0.07094 0.0
H883 H 0.5071 0.76615 0.11513 0.0
H884 H 0.48272 0.84402 0.01033 0.0
H885 H 0.45917 0.87665 0.11745 0.0
H886 H 0.43674 0.7559 0.01146 0.0
H887 H 0.48233 0.7499 0.02001 0.0
H888 H 0.4747 0.78266 0.98911 0.0
H889 H 0.40963 0.79572 0.1433 0.0
H890 H 0.44039 0.83371 0.1599 0.0
H891 H 0.45526 0.78877 0.15067 0.0
C892 C 0.07908 0.31889 0.6111 0.0
C893 C 0.06481 0.34198 0.58936 0.0
C894 C 0.07134 0.2805 0.60717 0.0
C895 C 0.04899 0.26496 0.5807 0.0
C896 C 0.03305 0.28822 0.55976 0.0
C897 C 0.04107 0.32664 0.56447 0.0
C898 C 0.08845 0.25659 0.63028 0.0
C899 C 0.00909 0.27252 0.53127 0.0
C900 C 0.06544 0.16965 0.54386 0.0
C901 C 0.03616 0.14739 0.56004 0.0
C902 C 0.06975 0.20803 0.55023 0.0
C903 C 0.04433 0.22445 0.57351 0.0
C904 C 0.01501 0.20217 0.59027 0.0
C905 C 0.01121 0.16389 0.58327 0.0
C906 C 0.10139 0.23106 0.53187 0.0
C907 C 0.98763 0.21876 0.61551 0.0
H908 H 0.09721 0.33096 0.63056 0.0
H909 H 0.03028 0.34462 0.54757 0.0
H910 H 0.06738 0.23578 0.64198 0.0
H911 H 0.10861 0.24134 0.61458 0.0
H912 H 0.10256 0.27301 0.65146 0.0
H913 H 0.99655 0.29423 0.51917 0.0
H914 H 0.02555 0.25813 0.51082 0.0
H915 H 0.98703 0.25181 0.54158 0.0
H916 H 0.08473 0.15717 0.52578 0.0
H917 H 0.98854 0.1469 0.59598 0.0
H918 H 0.1189 0.24652 0.55119 0.0
H919 H 0.09109 0.2517 0.51645 0.0
H920 H 0.11848 0.21405 0.51425 0.0
H921 H 0.00177 0.23412 0.63718 0.0
H922 H 0.96644 0.19753 0.62648 0.0
H923 H 0.97395 0.23886 0.60237 0.0
C924 C 0.59978 0.22434 0.44177 0.0
C925 C 0.57737 0.19555 0.42565 0.0
C926 C 0.58614 0.25718 0.45412 0.0
C927 C 0.54925 0.26151 0.45006 0.0
C928 C 0.52619 0.2322 0.43472 0.0
C929 C 0.54049 0.19955 0.42281 0.0
C930 C 0.61161 0.28777 0.47041 0.0
C931 C 0.48673 0.23575 0.42987 0.0
C932 C 0.50977 0.34096 0.50192 0.0
C933 C 0.51526 0.36868 0.47782 0.0
C934 C 0.51999 0.3056 0.49311 0.0
C935 C 0.53571 0.29777 0.45936 0.0
C936 C 0.53998 0.32523 0.43458 0.0
C937 C 0.52985 0.3603 0.44414 0.0
C938 C 0.51514 0.27705 0.52025 0.0
C939 C 0.55621 0.3179 0.39818 0.0
H940 H 0.62838 0.22172 0.44376 0.0
H941 H 0.52281 0.1772 0.41095 0.0
H942 H 0.61581 0.31173 0.45363 0.0
H943 H 0.59942 0.29731 0.49594 0.0
H944 H 0.63864 0.27899 0.47418 0.0
H945 H 0.4718 0.20957 0.41967 0.0
H946 H 0.47266 0.24427 0.45485 0.0
H947 H 0.48518 0.25756 0.41145 0.0
H948 H 0.49865 0.34723 0.52802 0.0
H949 H 0.53391 0.38142 0.42523 0.0
H950 H 0.54226 0.27044 0.52656 0.0
H951 H 0.49987 0.25108 0.51011 0.0
H952 H 0.50041 0.28665 0.54454 0.0
H953 H 0.58486 0.31219 0.39907 0.0
H954 H 0.55593 0.34156 0.38151 0.0
H955 H 0.54093 0.2931 0.38588 0.0
loop_
_geom_bond_atom_site_label_1
_geom_bond_atom_site_label_2
_geom_bond_distance
_geom_bond_site_symmetry_2
_ccdc_geom_bond_type
H0 C5 0.930 . S
H1 C8 0.930 . S
H2 C10 0.930 . S
H3 C4 1.016 . S
C4 H3 1.016 . S
C4 N11 1.286 . S
C5 H0 0.930 . S
C5 C6 1.397 . S
C5 C7 1.361 . S
C6 C5 1.397 . S
C6 C10 1.390 . S
C7 C5 1.361 . S
C7 C8 1.393 . S
C7 N11 1.413 . S
C8 H1 0.930 . S
C8 C7 1.393 . S
C8 C9 1.399 . S
C9 C8 1.399 . S
C9 C10 1.381 . S
C10 H2 0.930 . S
C10 C6 1.390 . S
C10 C9 1.381 . S
N11 C4 1.286 . S
N11 C7 1.413 . S
H12 C17 0.930 . S
H13 C20 0.930 . S
H14 C22 0.930 . S
H15 C16 1.016 . S
C16 H15 1.016 . S
C16 N23 1.286 . S
C17 H12 0.930 . S
C17 C18 1.397 . S
C17 C19 1.361 . S
C18 C17 1.397 . S
C18 C22 1.390 . S
C19 C17 1.361 . S
C19 C20 1.393 . S
C19 N23 1.413 . S
C20 H13 0.930 . S
C20 C19 1.393 . S
C20 C21 1.399 . S
C21 C20 1.399 . S
C21 C22 1.381 . S
C22 H14 0.930 . S
C22 C18 1.390 . S
C22 C21 1.381 . S
N23 C16 1.286 . S
N23 C19 1.413 . S
H24 C29 0.930 . S
H25 C32 0.930 . S
H26 C34 0.930 . S
H27 C28 1.016 . S
C28 H27 1.016 . S
C28 N35 1.286 . S
C29 H24 0.930 . S
C29 C30 1.397 . S
C29 C31 1.361 . S
C30 C29 1.397 . S
C30 C34 1.390 . S
C31 C29 1.361 . S
C31 C32 1.393 . S
C31 N35 1.413 . S
C32 H25 0.930 . S
C32 C31 1.393 . S
C32 C33 1.399 . S
C33 C32 1.399 . S
C33 C34 1.381 . S
C34 H26 0.930 . S
C34 C30 1.390 . S
C34 C33 1.381 . S
N35 C28 1.286 . S
N35 C31 1.413 . S
H36 C41 0.930 . S
H37 C44 0.930 . S
H38 C46 0.930 . S
H39 C40 1.016 . S
C40 H39 1.016 . S
C40 N47 1.286 . S
C41 H36 0.930 . S
C41 C42 1.397 . S
C41 C43 1.361 . S
C42 C41 1.397 . S
C42 C46 1.390 . S
C43 C41 1.361 . S
C43 C44 1.393 . S
C43 N47 1.413 . S
C44 H37 0.930 . S
C44 C43 1.393 . S
C44 C45 1.399 . S
C45 C44 1.399 . S
C45 C46 1.381 . S
C46 H38 0.930 . S
C46 C42 1.390 . S
C46 C45 1.381 . S
N47 C40 1.286 . S
N47 C43 1.413 . S
H48 C53 0.930 . S
H49 C56 0.930 . S
H50 C58 0.930 . S
H51 C52 1.016 . S
C52 H51 1.016 . S
C52 N59 1.286 . S
C53 H48 0.930 . S
C53 C54 1.397 . S
C53 C55 1.361 . S
C54 C53 1.397 . S
C54 C58 1.390 . S
C55 C53 1.361 . S
C55 C56 1.393 . S
C55 N59 1.413 . S
C56 H49 0.930 . S
C56 C55 1.393 . S
C56 C57 1.399 . S
C57 C56 1.399 . S
C57 C58 1.381 . S
C58 H50 0.930 . S
C58 C54 1.390 . S
C58 C57 1.381 . S
N59 C52 1.286 . S
N59 C55 1.413 . S
H60 C65 0.930 . S
H61 C68 0.930 . S
H62 C70 0.930 . S
H63 C64 1.016 . S
C64 H63 1.016 . S
C64 N71 1.286 . S
C65 H60 0.930 . S
C65 C66 1.397 . S
C65 C67 1.361 . S
C66 C65 1.397 . S
C66 C70 1.390 . S
C67 C65 1.361 . S
C67 C68 1.393 . S
C67 N71 1.413 . S
C68 H61 0.930 . S
C68 C67 1.393 . S
C68 C69 1.399 . S
C69 C68 1.399 . S
C69 C70 1.381 . S
C70 H62 0.930 . S
C70 C66 1.390 . S
C70 C69 1.381 . S
N71 C64 1.286 . S
N71 C67 1.413 . S
H72 C77 0.930 . S
H73 C80 0.930 . S
H74 C82 0.930 . S
H75 C76 1.016 . S
C76 H75 1.016 . S
C76 N83 1.286 . S
C77 H72 0.930 . S
C77 C78 1.397 . S
C77 C79 1.361 . S
C78 C77 1.397 . S
C78 C82 1.390 . S
C79 C77 1.361 . S
C79 C80 1.393 . S
C79 N83 1.413 . S
C80 H73 0.930 . S
C80 C79 1.393 . S
C80 C81 1.399 . S
C81 C80 1.399 . S
C81 C82 1.381 . S
C82 H74 0.930 . S
C82 C78 1.390 . S
C82 C81 1.381 . S
N83 C76 1.286 . S
N83 C79 1.413 . S
H84 C89 0.930 . S
H85 C92 0.930 . S
H86 C94 0.930 . S
H87 C88 1.016 . S
C88 H87 1.016 . S
C88 N95 1.286 . S
C89 H84 0.930 . S
C89 C90 1.397 . S
C89 C91 1.361 . S
C90 C89 1.397 . S
C90 C94 1.390 . S
C91 C89 1.361 . S
C91 C92 1.393 . S
C91 N95 1.413 . S
C92 H85 0.930 . S
C92 C91 1.393 . S
C92 C93 1.399 . S
C93 C92 1.399 . S
C93 C94 1.381 . S
C94 H86 0.930 . S
C94 C90 1.390 . S
C94 C93 1.381 . S
N95 C88 1.286 . S
N95 C91 1.413 . S
O96 Zn97 1.958 . S
O96 C112 1.213 1_655 S
Zn97 O96 1.958 . S
Zn97 O98 1.949 1_655 S
Zn97 O104 1.919 . S
Zn97 O109 1.924 . S
O98 Zn97 1.949 1_455 S
O98 Zn99 1.923 1_445 S
O98 Zn100 1.950 . S
O98 Zn101 1.945 1_545 S
Zn99 O98 1.923 1_665 S
Zn99 O102 1.933 . S
Zn99 O105 1.941 1_565 S
Zn99 O106 1.965 1_665 S
Zn100 O98 1.950 . S
Zn100 O107 1.938 . S
Zn100 O108 1.902 1_545 S
Zn100 O118 1.953 . S
Zn101 O98 1.945 1_565 S
Zn101 O103 1.932 1_455 S
Zn101 O110 1.977 . S
Zn101 O111 1.910 1_455 S
O102 Zn99 1.933 . S
O102 C113 1.226 . S
O103 Zn101 1.932 1_655 S
O103 C113 1.307 . S
O104 Zn97 1.919 . S
O104 C115 1.253 . S
O105 Zn99 1.941 1_545 S
O105 C115 1.283 . S
O106 Zn99 1.965 1_445 S
O106 C114 1.303 . S
O107 Zn100 1.938 . S
O107 C114 1.247 . S
O108 Zn100 1.902 1_565 S
O108 C116 1.310 . S
O109 Zn97 1.924 . S
O109 C117 1.311 1_545 S
O110 Zn101 1.977 . S
O110 C116 1.272 . S
O111 Zn101 1.910 1_655 S
O111 C117 1.231 . S
C112 O96 1.213 1_455 S
C112 O118 1.298 . S
C113 O102 1.226 . S
C113 O103 1.307 . S
C114 O106 1.303 . S
C114 O107 1.247 . S
C115 O104 1.253 . S
C115 O105 1.283 . S
C116 O108 1.310 . S
C116 O110 1.272 . S
C117 O109 1.311 1_565 S
C117 O111 1.231 . S
O118 Zn100 1.953 . S
O118 C112 1.298 . S
O119 Zn120 1.953 . S
O119 C135 1.225 . S
Zn120 O119 1.953 . S
Zn120 O121 1.949 1_556 S
Zn120 O127 1.919 . S
Zn120 O132 1.924 1_556 S
O121 Zn120 1.949 1_554 S
O121 Zn122 1.923 1_544 S
O121 Zn123 1.950 . S
O121 Zn124 1.941 1_545 S
Zn122 O121 1.923 1_566 S
Zn122 O125 1.933 1_556 S
Zn122 O128 1.941 . S
Zn122 O129 1.965 . S
Zn123 O121 1.950 . S
Zn123 O130 1.938 . S
Zn123 O131 1.906 . S
Zn123 O141 1.953 . S
Zn124 O121 1.941 1_565 S
Zn124 O126 1.950 . S
Zn124 O133 1.973 1_565 S
Zn124 O134 1.900 1_565 S
O125 Zn122 1.933 1_554 S
O125 C136 1.226 . S
O126 Zn124 1.950 . S
O126 C136 1.307 . S
O127 Zn120 1.919 . S
O127 C138 1.253 1_545 S
O128 Zn122 1.941 . S
O128 C138 1.283 . S
O129 Zn122 1.965 . S
O129 C137 1.303 1_565 S
O130 Zn123 1.938 . S
O130 C137 1.247 1_554 S
O131 Zn123 1.906 . S
O131 C139 1.304 . S
O132 Zn120 1.924 1_554 S
O132 C140 1.311 . S
O133 Zn124 1.973 1_545 S
O133 C139 1.272 . S
O134 Zn124 1.900 1_545 S
O134 C140 1.231 . S
C135 O119 1.225 . S
C135 O141 1.298 1_556 S
C136 O125 1.226 . S
C136 O126 1.307 . S
C137 O129 1.303 1_545 S
C137 O130 1.247 1_556 S
C138 O127 1.253 1_565 S
C138 O128 1.283 . S
C139 O131 1.304 . S
C139 O133 1.272 . S
C140 O132 1.311 . S
C140 O134 1.231 . S
O141 Zn123 1.953 . S
O141 C135 1.298 1_554 S
O142 Zn143 1.953 . S
O142 C158 1.225 . S
Zn143 O142 1.953 . S
Zn143 O144 1.949 . S
Zn143 O150 1.919 . S
Zn143 O155 1.924 . S
O144 Zn143 1.949 . S
O144 Zn145 1.923 . S
O144 Zn146 1.950 . S
O144 Zn147 1.945 . S
Zn145 O144 1.923 . S
Zn145 O148 1.933 . S
Zn145 O151 1.941 . S
Zn145 O152 1.965 . S
Zn146 O144 1.950 . S
Zn146 O153 1.938 . S
Zn146 O154 1.906 . S
Zn146 O164 1.953 . S
Zn147 O144 1.945 . S
Zn147 O149 1.932 . S
Zn147 O156 1.977 . S
Zn147 O157 1.910 . S
O148 Zn145 1.933 . S
O148 C159 1.226 . S
O149 Zn147 1.932 . S
O149 C159 1.307 . S
O150 Zn143 1.919 . S
O150 C161 1.253 . S
O151 Zn145 1.941 . S
O151 C161 1.283 . S
O152 Zn145 1.965 . S
O152 C160 1.303 . S
O153 Zn146 1.938 . S
O153 C160 1.247 . S
O154 Zn146 1.906 . S
O154 C162 1.304 . S
O155 Zn143 1.924 . S
O155 C163 1.311 . S
O156 Zn147 1.977 . S
O156 C162 1.272 . S
O157 Zn147 1.910 . S
O157 C163 1.231 . S
C158 O142 1.225 . S
C158 O164 1.298 . S
C159 O148 1.226 . S
C159 O149 1.307 . S
C160 O152 1.303 . S
C160 O153 1.247 . S
C161 O150 1.253 . S
C161 O151 1.283 . S
C162 O154 1.304 . S
C162 O156 1.272 . S
C163 O155 1.311 . S
C163 O157 1.231 . S
O164 Zn146 1.953 . S
O164 C158 1.298 . S
O165 Zn166 1.953 . S
O165 C181 1.225 . S
Zn166 O165 1.953 . S
Zn166 O167 1.949 1_655 S
Zn166 O173 1.919 . S
Zn166 O178 1.924 . S
O167 Zn166 1.949 1_455 S
O167 Zn168 1.923 1_554 S
O167 Zn169 1.950 . S
O167 Zn170 1.945 1_554 S
Zn168 O167 1.923 1_556 S
Zn168 O171 1.933 . S
Zn168 O174 1.941 1_455 S
Zn168 O175 1.965 . S
Zn169 O167 1.950 . S
Zn169 O176 1.938 . S
Zn169 O177 1.906 . S
Zn169 O187 1.953 . S
Zn170 O167 1.945 1_556 S
Zn170 O172 1.932 . S
Zn170 O179 1.977 1_556 S
Zn170 O180 1.910 1_556 S
O171 Zn168 1.933 . S
O171 C182 1.226 . S
O172 Zn170 1.932 . S
O172 C182 1.307 . S
O173 Zn166 1.919 . S
O173 C184 1.253 1_554 S
O174 Zn168 1.941 1_655 S
O174 C184 1.283 . S
O175 Zn168 1.965 . S
O175 C183 1.303 . S
O176 Zn169 1.938 . S
O176 C183 1.247 1_554 S
O177 Zn169 1.906 . S
O177 C185 1.304 . S
O178 Zn166 1.924 . S
O178 C186 1.311 1_655 S
O179 Zn170 1.977 1_554 S
O179 C185 1.272 . S
O180 Zn170 1.910 1_554 S
O180 C186 1.231 . S
C181 O165 1.225 . S
C181 O187 1.298 1_655 S
C182 O171 1.226 . S
C182 O172 1.307 . S
C183 O175 1.303 . S
C183 O176 1.247 1_556 S
C184 O173 1.253 1_556 S
C184 O174 1.283 . S
C185 O177 1.304 . S
C185 O179 1.272 . S
C186 O178 1.311 1_455 S
C186 O180 1.231 . S
O187 Zn169 1.953 . S
O187 C181 1.298 1_455 S
C188 C189 1.391 . S
C188 C190 1.394 . S
C188 H204 0.931 . S
C189 C188 1.391 . S
C189 C193 1.376 . S
C190 C188 1.394 . S
C190 C191 1.369 . S
C190 C194 1.531 . S
C191 C190 1.369 . S
C191 C192 1.410 . S
C191 C199 1.503 . S
C192 C191 1.410 . S
C192 C193 1.392 . S
C192 C195 1.511 . S
C193 C189 1.376 . S
C193 C192 1.392 . S
C193 H205 0.929 . S
C194 C190 1.531 . S
C194 H206 0.960 . S
C194 H207 0.962 . S
C194 H208 0.960 . S
C195 C192 1.511 . S
C195 H209 0.961 . S
C195 H210 0.961 . S
C195 H211 0.961 . S
C196 C197 1.370 . S
C196 C198 1.363 . S
C196 H212 0.931 . S
C197 C196 1.370 . S
C197 C201 1.408 . S
C198 C196 1.363 . S
C198 C199 1.370 . S
C198 C202 1.524 . S
C199 C191 1.503 . S
C199 C198 1.370 . S
C199 C200 1.403 . S
C200 C199 1.403 . S
C200 C201 1.404 . S
C200 C203 1.539 . S
C201 C197 1.408 . S
C201 C200 1.404 . S
C201 H213 0.930 . S
C202 C198 1.524 . S
C202 H214 0.956 . S
C202 H215 0.961 . S
C202 H216 0.961 . S
C203 C200 1.539 . S
C203 H217 0.958 . S
C203 H218 0.961 . S
C203 H219 0.960 . S
H204 C188 0.931 . S
H205 C193 0.929 . S
H206 C194 0.960 . S
H207 C194 0.962 . S
H208 C194 0.960 . S
H209 C195 0.961 . S
H210 C195 0.961 . S
H211 C195 0.961 . S
H212 C196 0.931 . S
H213 C201 0.930 . S
H214 C202 0.956 . S
H215 C202 0.961 . S
H216 C202 0.961 . S
H217 C203 0.958 . S
H218 C203 0.961 . S
H219 C203 0.960 . S
C220 C221 1.391 . S
C220 C222 1.394 . S
C220 H236 0.931 . S
C221 C220 1.391 . S
C221 C225 1.376 . S
C222 C220 1.394 . S
C222 C223 1.369 . S
C222 C226 1.531 . S
C223 C222 1.369 . S
C223 C224 1.410 . S
C223 C231 1.503 . S
C224 C223 1.410 . S
C224 C225 1.392 . S
C224 C227 1.511 . S
C225 C221 1.376 . S
C225 C224 1.392 . S
C225 H237 0.929 . S
C226 C222 1.531 . S
C226 H238 0.960 . S
C226 H239 0.962 . S
C226 H240 0.960 . S
C227 C224 1.511 . S
C227 H241 0.961 . S
C227 H242 0.961 . S
C227 H243 0.961 . S
C228 C229 1.370 . S
C228 C230 1.363 . S
C228 H244 0.944 . S
C229 C228 1.370 . S
C229 C233 1.408 . S
C230 C228 1.363 . S
C230 C231 1.370 . S
C230 C234 1.524 . S
C231 C223 1.503 . S
C231 C230 1.370 . S
C231 C232 1.403 . S
C232 C231 1.403 . S
C232 C233 1.404 . S
C232 C235 1.539 . S
C233 C229 1.408 . S
C233 C232 1.404 . S
C233 H245 0.930 . S
C234 C230 1.524 . S
C234 H246 0.956 . S
C234 H247 0.961 . S
C234 H248 0.961 1_565 S
C235 C232 1.539 . S
C235 H249 0.958 . S
C235 H250 0.961 . S
C235 H251 0.960 . S
H236 C220 0.931 . S
H237 C225 0.929 . S
H238 C226 0.960 . S
H239 C226 0.962 . S
H240 C226 0.960 . S
H241 C227 0.961 . S
H242 C227 0.961 . S
H243 C227 0.961 . S
H244 C228 0.944 . S
H245 C233 0.930 . S
H246 C234 0.956 . S
H247 C234 0.961 . S
H248 C234 0.961 1_545 S
H249 C235 0.958 . S
H250 C235 0.961 . S
H251 C235 0.960 . S
C252 C253 1.391 . S
C252 C254 1.394 . S
C252 H268 0.931 . S
C253 C252 1.391 . S
C253 C257 1.376 . S
C254 C252 1.394 . S
C254 C255 1.369 . S
C254 C258 1.531 . S
C255 C254 1.369 . S
C255 C256 1.410 . S
C255 C263 1.503 . S
C256 C255 1.410 . S
C256 C257 1.392 . S
C256 C259 1.511 . S
C257 C253 1.376 . S
C257 C256 1.392 . S
C257 H269 0.929 . S
C258 C254 1.531 . S
C258 H270 0.960 . S
C258 H271 0.962 . S
C258 H272 0.960 . S
C259 C256 1.511 . S
C259 H273 0.961 . S
C259 H274 0.961 . S
C259 H275 0.961 . S
C260 C261 1.370 . S
C260 C262 1.363 . S
C260 H276 0.931 . S
C261 C260 1.370 . S
C261 C265 1.408 . S
C262 C260 1.363 . S
C262 C263 1.370 . S
C262 C266 1.524 . S
C263 C255 1.503 . S
C263 C262 1.370 . S
C263 C264 1.403 . S
C264 C263 1.403 . S
C264 C265 1.404 . S
C264 C267 1.539 . S
C265 C261 1.408 . S
C265 C264 1.404 . S
C265 H277 0.930 . S
C266 C262 1.524 . S
C266 H278 0.956 . S
C266 H279 0.961 . S
C266 H280 0.961 . S
C267 C264 1.539 . S
C267 H281 0.958 . S
C267 H282 0.961 . S
C267 H283 0.960 . S
H268 C252 0.931 . S
H269 C257 0.929 . S
H270 C258 0.960 . S
H271 C258 0.962 . S
H272 C258 0.960 . S
H273 C259 0.961 . S
H274 C259 0.961 . S
H275 C259 0.961 . S
H276 C260 0.931 . S
H277 C265 0.930 . S
H278 C266 0.956 . S
H279 C266 0.961 . S
H280 C266 0.961 . S
H281 C267 0.958 . S
H282 C267 0.961 . S
H283 C267 0.960 . S
C284 C285 1.391 . S
C284 C286 1.394 . S
C284 H300 0.931 . S
C285 C284 1.391 . S
C285 C289 1.376 . S
C286 C284 1.394 . S
C286 C287 1.369 . S
C286 C290 1.531 1_655 S
C287 C286 1.369 . S
C287 C288 1.410 . S
C287 C295 1.503 . S
C288 C287 1.410 . S
C288 C289 1.392 . S
C288 C291 1.511 . S
C289 C285 1.376 . S
C289 C288 1.392 . S
C289 H301 0.929 . S
C290 C286 1.531 1_455 S
C290 H302 0.959 1_455 S
C290 H303 0.962 . S
C290 H304 0.960 . S
C291 C288 1.511 . S
C291 H305 0.961 . S
C291 H306 0.961 . S
C291 H307 0.961 . S
C292 C293 1.370 . S
C292 C294 1.363 . S
C292 H308 0.931 1_655 S
C293 C292 1.370 . S
C293 C297 1.408 . S
C294 C292 1.363 . S
C294 C295 1.370 . S
C294 C298 1.524 . S
C295 C287 1.503 . S
C295 C294 1.370 . S
C295 C296 1.403 . S
C296 C295 1.403 . S
C296 C297 1.404 . S
C296 C299 1.539 . S
C297 C293 1.408 . S
C297 C296 1.404 . S
C297 H309 0.930 . S
C298 C294 1.524 . S
C298 H310 0.956 1_655 S
C298 H311 0.961 . S
C298 H312 0.961 1_655 S
C299 C296 1.539 . S
C299 H313 0.958 . S
C299 H314 0.961 . S
C299 H315 0.960 . S
H300 C284 0.931 . S
H301 C289 0.929 . S
H302 C290 0.959 1_655 S
H303 C290 0.962 . S
H304 C290 0.960 . S
H305 C291 0.961 . S
H306 C291 0.961 . S
H307 C291 0.961 . S
H308 C292 0.931 1_455 S
H309 C297 0.930 . S
H310 C298 0.956 1_455 S
H311 C298 0.961 . S
H312 C298 0.961 1_455 S
H313 C299 0.958 . S
H314 C299 0.961 . S
H315 C299 0.960 . S
C316 C317 1.391 . S
C316 C318 1.394 . S
C316 H332 0.931 . S
C317 C316 1.391 . S
C317 C321 1.376 . S
C318 C316 1.394 . S
C318 C319 1.369 . S
C318 C322 1.531 . S
C319 C318 1.369 . S
C319 C320 1.410 . S
C319 C327 1.503 . S
C320 C319 1.410 . S
C320 C321 1.392 . S
C320 C323 1.511 . S
C321 C317 1.376 . S
C321 C320 1.392 . S
C321 H333 0.929 . S
C322 C318 1.531 . S
C322 H334 0.960 . S
C322 H335 0.962 . S
C322 H336 0.960 . S
C323 C320 1.511 . S
C323 H337 0.961 . S
C323 H338 0.961 . S
C323 H339 0.961 . S
C324 C325 1.370 . S
C324 C326 1.363 . S
C324 H340 0.931 . S
C325 C324 1.370 . S
C325 C329 1.408 . S
C326 C324 1.363 . S
C326 C327 1.370 . S
C326 C330 1.524 . S
C327 C319 1.503 . S
C327 C326 1.370 . S
C327 C328 1.403 . S
C328 C327 1.403 . S
C328 C329 1.404 . S
C328 C331 1.539 . S
C329 C325 1.408 . S
C329 C328 1.404 . S
C329 H341 0.930 . S
C330 C326 1.524 . S
C330 H342 0.956 . S
C330 H343 0.961 . S
C330 H344 0.961 . S
C331 C328 1.539 . S
C331 H345 0.958 . S
C331 H346 0.961 1_554 S
C331 H347 0.960 . S
H332 C316 0.931 . S
H333 C321 0.929 . S
H334 C322 0.960 . S
H335 C322 0.962 . S
H336 C322 0.960 . S
H337 C323 0.961 . S
H338 C323 0.961 . S
H339 C323 0.961 . S
H340 C324 0.931 . S
H341 C329 0.930 . S
H342 C330 0.956 . S
H343 C330 0.961 . S
H344 C330 0.961 . S
H345 C331 0.958 . S
H346 C331 0.961 1_556 S
H347 C331 0.960 . S
C348 C349 1.391 . S
C348 C350 1.394 . S
C348 H364 0.931 . S
C349 C348 1.391 . S
C349 C353 1.376 . S
C350 C348 1.394 . S
C350 C351 1.369 . S
C350 C354 1.531 . S
C351 C350 1.369 . S
C351 C352 1.410 . S
C351 C359 1.503 . S
C352 C351 1.410 . S
C352 C353 1.392 . S
C352 C355 1.511 . S
C353 C349 1.376 . S
C353 C352 1.392 . S
C353 H365 0.929 . S
C354 C350 1.531 . S
C354 H366 0.960 . S
C354 H367 0.962 . S
C354 H368 0.960 . S
C355 C352 1.511 . S
C355 H369 0.961 . S
C355 H370 0.961 . S
C355 H371 0.961 . S
C356 C357 1.370 . S
C356 C358 1.363 . S
C356 H372 0.931 . S
C357 C356 1.370 . S
C357 C361 1.408 . S
C358 C356 1.363 . S
C358 C359 1.370 . S
C358 C362 1.524 . S
C359 C351 1.503 . S
C359 C358 1.370 . S
C359 C360 1.403 . S
C360 C359 1.403 . S
C360 C361 1.404 . S
C360 C363 1.539 . S
C361 C357 1.408 . S
C361 C360 1.404 . S
C361 H373 0.930 . S
C362 C358 1.524 . S
C362 H374 0.956 . S
C362 H375 0.961 . S
C362 H376 0.961 . S
C363 C360 1.539 . S
C363 H377 0.958 . S
C363 H378 0.961 . S
C363 H379 0.960 . S
H364 C348 0.931 . S
H365 C353 0.929 . S
H366 C354 0.960 . S
H367 C354 0.962 . S
H368 C354 0.960 . S
H369 C355 0.961 . S
H370 C355 0.961 . S
H371 C355 0.961 . S
H372 C356 0.931 . S
H373 C361 0.930 . S
H374 C362 0.956 . S
H375 C362 0.961 . S
H376 C362 0.961 . S
H377 C363 0.958 . S
H378 C363 0.961 . S
H379 C363 0.960 . S
C380 C381 1.391 . S
C380 C382 1.394 . S
C380 H396 0.931 . S
C381 C380 1.391 . S
C381 C385 1.376 . S
C382 C380 1.394 . S
C382 C383 1.369 . S
C382 C386 1.531 . S
C383 C382 1.369 . S
C383 C384 1.410 . S
C383 C391 1.503 . S
C384 C383 1.410 . S
C384 C385 1.392 . S
C384 C387 1.511 . S
C385 C381 1.376 . S
C385 C384 1.392 . S
C385 H397 0.929 . S
C386 C382 1.531 . S
C386 H398 0.960 . S
C386 H399 0.962 . S
C386 H400 0.960 . S
C387 C384 1.511 . S
C387 H401 0.961 1_556 S
C387 H402 0.961 . S
C387 H403 0.961 . S
C388 C389 1.370 . S
C388 C390 1.363 . S
C388 H404 0.931 . S
C389 C388 1.370 . S
C389 C393 1.408 . S
C390 C388 1.363 . S
C390 C391 1.370 . S
C390 C394 1.524 . S
C391 C383 1.503 . S
C391 C390 1.370 . S
C391 C392 1.403 . S
C392 C391 1.403 . S
C392 C393 1.404 . S
C392 C395 1.539 . S
C393 C389 1.408 . S
C393 C392 1.404 . S
C393 H405 0.930 . S
C394 C390 1.524 . S
C394 H406 0.956 . S
C394 H407 0.961 . S
C394 H408 0.961 . S
C395 C392 1.539 . S
C395 H409 0.958 . S
C395 H410 0.961 . S
C395 H411 0.960 . S
H396 C380 0.931 . S
H397 C385 0.929 . S
H398 C386 0.960 . S
H399 C386 0.962 . S
H400 C386 0.960 . S
H401 C387 0.961 1_554 S
H402 C387 0.961 . S
H403 C387 0.961 . S
H404 C388 0.931 . S
H405 C393 0.930 . S
H406 C394 0.956 . S
H407 C394 0.961 . S
H408 C394 0.961 . S
H409 C395 0.958 . S
H410 C395 0.961 . S
H411 C395 0.960 . S
C412 C413 1.391 . S
C412 C414 1.394 . S
C412 H428 0.931 . S
C413 C412 1.391 . S
C413 C417 1.376 . S
C414 C412 1.394 . S
C414 C415 1.369 . S
C414 C418 1.531 . S
C415 C414 1.369 . S
C415 C416 1.410 . S
C415 C423 1.503 . S
C416 C415 1.410 . S
C416 C417 1.392 . S
C416 C419 1.511 . S
C417 C413 1.376 . S
C417 C416 1.392 . S
C417 H429 0.929 . S
C418 C414 1.531 . S
C418 H430 0.960 . S
C418 H431 0.962 . S
C418 H432 0.960 . S
C419 C416 1.511 . S
C419 H433 0.961 . S
C419 H434 0.961 . S
C419 H435 0.961 . S
C420 C421 1.370 . S
C420 C422 1.363 . S
C420 H436 0.931 . S
C421 C420 1.370 . S
C421 C425 1.408 . S
C422 C420 1.363 . S
C422 C423 1.370 . S
C422 C426 1.524 . S
C423 C415 1.503 . S
C423 C422 1.370 . S
C423 C424 1.403 . S
C424 C423 1.403 . S
C424 C425 1.404 . S
C424 C427 1.539 . S
C425 C421 1.408 . S
C425 C424 1.404 . S
C425 H437 0.930 . S
C426 C422 1.524 . S
C426 H438 0.956 . S
C426 H439 0.961 . S
C426 H440 0.961 . S
C427 C424 1.539 . S
C427 H441 0.958 . S
C427 H442 0.961 . S
C427 H443 0.960 . S
H428 C412 0.931 . S
H429 C417 0.929 . S
H430 C418 0.960 . S
H431 C418 0.962 . S
H432 C418 0.960 . S
H433 C419 0.961 . S
H434 C419 0.961 . S
H435 C419 0.961 . S
H436 C420 0.931 . S
H437 C425 0.930 . S
H438 C426 0.956 . S
H439 C426 0.961 . S
H440 C426 0.961 . S
H441 C427 0.958 . S
H442 C427 0.961 . S
H443 C427 0.960 . S
C444 C445 1.391 . S
C444 C446 1.394 . S
C444 H460 0.931 . S
C445 C444 1.391 . S
C445 C449 1.376 . S
C446 C444 1.394 . S
C446 C447 1.369 . S
C446 C450 1.531 . S
C447 C446 1.369 . S
C447 C448 1.410 . S
C447 C455 1.503 . S
C448 C447 1.410 . S
C448 C449 1.392 . S
C448 C451 1.511 . S
C449 C445 1.376 . S
C449 C448 1.392 . S
C449 H461 0.929 . S
C450 C446 1.531 . S
C450 H462 0.960 . S
C450 H463 0.950 1_455 S
C450 H464 0.960 1_455 S
C451 C448 1.511 . S
C451 H465 0.961 . S
C451 H466 0.961 . S
C451 H467 0.961 . S
C452 C453 1.370 . S
C452 C454 1.363 . S
C452 H468 0.931 . S
C453 C452 1.370 . S
C453 C457 1.408 . S
C454 C452 1.363 . S
C454 C455 1.370 . S
C454 C458 1.524 . S
C455 C447 1.503 . S
C455 C454 1.370 . S
C455 C456 1.403 . S
C456 C455 1.403 . S
C456 C457 1.404 . S
C456 C459 1.539 . S
C457 C453 1.408 . S
C457 C456 1.404 . S
C457 H469 0.930 . S
C458 C454 1.524 . S
C458 H470 0.956 . S
C458 H471 0.961 . S
C458 H472 0.961 1_554 S
C459 C456 1.539 . S
C459 H473 0.958 . S
C459 H474 0.961 . S
C459 H475 0.960 . S
H460 C444 0.931 . S
H461 C449 0.929 . S
H462 C450 0.960 . S
H463 C450 0.950 1_655 S
H464 C450 0.960 1_655 S
H465 C451 0.961 . S
H466 C451 0.961 . S
H467 C451 0.961 . S
H468 C452 0.931 . S
H469 C457 0.930 . S
H470 C458 0.956 . S
H471 C458 0.961 . S
H472 C458 0.961 1_556 S
H473 C459 0.958 . S
H474 C459 0.961 . S
H475 C459 0.960 . S
C476 C477 1.391 . S
C476 C478 1.394 . S
C476 H492 0.931 . S
C477 C476 1.391 . S
C477 C481 1.376 . S
C478 C476 1.394 . S
C478 C479 1.369 . S
C478 C482 1.531 . S
C479 C478 1.369 . S
C479 C480 1.410 . S
C479 C487 1.503 . S
C480 C479 1.410 . S
C480 C481 1.392 . S
C480 C483 1.511 . S
C481 C477 1.376 . S
C481 C480 1.392 . S
C481 H493 0.929 . S
C482 C478 1.531 . S
C482 H494 0.960 . S
C482 H495 0.962 . S
C482 H496 0.960 . S
C483 C480 1.511 . S
C483 H497 0.961 . S
C483 H498 0.961 . S
C483 H499 0.961 . S
C484 C485 1.370 . S
C484 C486 1.363 . S
C484 H500 0.931 . S
C485 C484 1.370 . S
C485 C489 1.408 1_556 S
C486 C484 1.363 . S
C486 C487 1.370 . S
C486 C490 1.524 . S
C487 C479 1.503 . S
C487 C486 1.370 . S
C487 C488 1.403 . S
C488 C487 1.403 . S
C488 C489 1.404 1_556 S
C488 C491 1.539 1_556 S
C489 C485 1.408 1_554 S
C489 C488 1.404 1_554 S
C489 H501 0.930 . S
C490 C486 1.524 . S
C490 H502 0.956 . S
C490 H503 0.961 . S
C490 H504 0.961 . S
C491 C488 1.539 1_554 S
C491 H505 0.958 . S
C491 H506 0.961 . S
C491 H507 0.960 . S
H492 C476 0.931 . S
H493 C481 0.929 . S
H494 C482 0.960 . S
H495 C482 0.962 . S
H496 C482 0.960 . S
H497 C483 0.961 . S
H498 C483 0.961 . S
H499 C483 0.961 . S
H500 C484 0.931 . S
H501 C489 0.930 . S
H502 C490 0.956 . S
H503 C490 0.961 . S
H504 C490 0.961 . S
H505 C491 0.958 . S
H506 C491 0.961 . S
H507 C491 0.960 . S
C508 C509 1.391 . S
C508 C510 1.394 . S
C508 H524 0.931 . S
C509 C508 1.391 . S
C509 C513 1.376 . S
C510 C508 1.394 . S
C510 C511 1.369 . S
C510 C514 1.531 . S
C511 C510 1.369 . S
C511 C512 1.410 . S
C511 C519 1.503 . S
C512 C511 1.410 . S
C512 C513 1.392 . S
C512 C515 1.511 . S
C513 C509 1.376 . S
C513 C512 1.392 . S
C513 H525 0.929 . S
C514 C510 1.531 . S
C514 H526 0.960 . S
C514 H527 0.962 . S
C514 H528 0.960 . S
C515 C512 1.511 . S
C515 H529 0.961 1_655 S
C515 H530 0.961 1_655 S
C515 H531 0.951 1_655 S
C516 C517 1.370 . S
C516 C518 1.363 . S
C516 H532 0.931 . S
C517 C516 1.370 . S
C517 C521 1.408 . S
C518 C516 1.363 . S
C518 C519 1.370 . S
C518 C522 1.524 . S
C519 C511 1.503 . S
C519 C518 1.370 . S
C519 C520 1.403 . S
C520 C519 1.403 . S
C520 C521 1.404 . S
C520 C523 1.539 . S
C521 C517 1.408 . S
C521 C520 1.404 . S
C521 H533 0.930 . S
C522 C518 1.524 . S
C522 H534 0.956 . S
C522 H535 0.961 . S
C522 H536 0.961 . S
C523 C520 1.539 . S
C523 H537 0.958 . S
C523 H538 0.961 . S
C523 H539 0.960 . S
H524 C508 0.931 . S
H525 C513 0.929 . S
H526 C514 0.960 . S
H527 C514 0.962 . S
H528 C514 0.960 . S
H529 C515 0.961 1_455 S
H530 C515 0.961 1_455 S
H531 C515 0.951 1_455 S
H532 C516 0.931 . S
H533 C521 0.930 . S
H534 C522 0.956 . S
H535 C522 0.961 . S
H536 C522 0.961 . S
H537 C523 0.958 . S
H538 C523 0.961 . S
H539 C523 0.960 . S
C540 C541 1.391 . S
C540 C542 1.394 . S
C540 H556 0.931 . S
C541 C540 1.391 . S
C541 C545 1.376 . S
C542 C540 1.394 . S
C542 C543 1.369 . S
C542 C546 1.531 . S
C543 C542 1.369 . S
C543 C544 1.410 . S
C543 C551 1.503 . S
C544 C543 1.410 . S
C544 C545 1.392 . S
C544 C547 1.511 . S
C545 C541 1.376 . S
C545 C544 1.392 . S
C545 H557 0.929 . S
C546 C542 1.531 . S
C546 H558 0.960 . S
C546 H559 0.962 . S
C546 H560 0.960 . S
C547 C544 1.511 . S
C547 H561 0.961 . S
C547 H562 0.961 . S
C547 H563 0.961 . S
C548 C549 1.370 . S
C548 C550 1.363 . S
C548 H564 0.931 . S
C549 C548 1.370 . S
C549 C553 1.408 . S
C550 C548 1.363 . S
C550 C551 1.370 . S
C550 C554 1.524 . S
C551 C543 1.503 . S
C551 C550 1.370 . S
C551 C552 1.403 . S
C552 C551 1.403 . S
C552 C553 1.404 . S
C552 C555 1.539 . S
C553 C549 1.408 . S
C553 C552 1.404 . S
C553 H565 0.930 . S
C554 C550 1.524 . S
C554 H566 0.956 . S
C554 H567 0.961 . S
C554 H568 0.961 . S
C555 C552 1.539 . S
C555 H569 0.958 . S
C555 H570 0.961 . S
C555 H571 0.960 . S
H556 C540 0.931 . S
H557 C545 0.929 . S
H558 C546 0.960 . S
H559 C546 0.962 . S
H560 C546 0.960 . S
H561 C547 0.961 . S
H562 C547 0.961 . S
H563 C547 0.961 . S
H564 C548 0.931 . S
H565 C553 0.930 . S
H566 C554 0.956 . S
H567 C554 0.961 . S
H568 C554 0.961 . S
H569 C555 0.958 . S
H570 C555 0.961 . S
H571 C555 0.960 . S
C572 C573 1.391 . S
C572 C574 1.394 . S
C572 H588 0.931 . S
C573 C572 1.391 . S
C573 C577 1.376 . S
C574 C572 1.394 . S
C574 C575 1.369 . S
C574 C578 1.531 1_655 S
C575 C574 1.369 . S
C575 C576 1.410 . S
C575 C583 1.503 . S
C576 C575 1.410 . S
C576 C577 1.392 . S
C576 C579 1.511 . S
C577 C573 1.376 . S
C577 C576 1.392 . S
C577 H589 0.929 . S
C578 C574 1.531 1_455 S
C578 H590 0.960 . S
C578 H591 0.962 . S
C578 H592 0.960 . S
C579 C576 1.511 . S
C579 H593 0.961 1_565 S
C579 H594 0.961 1_565 S
C579 H595 0.961 . S
C580 C581 1.370 1_545 S
C580 C582 1.363 . S
C580 H596 0.931 . S
C581 C580 1.370 1_565 S
C581 C585 1.408 . S
C582 C580 1.363 . S
C582 C583 1.370 1_545 S
C582 C586 1.524 . S
C583 C575 1.503 . S
C583 C582 1.370 1_565 S
C583 C584 1.403 . S
C584 C583 1.403 . S
C584 C585 1.404 . S
C584 C587 1.539 . S
C585 C581 1.408 . S
C585 C584 1.404 . S
C585 H597 0.930 . S
C586 C582 1.524 . S
C586 H598 0.956 . S
C586 H599 0.961 . S
C586 H600 0.961 . S
C587 C584 1.539 . S
C587 H601 0.958 . S
C587 H602 0.961 . S
C587 H603 0.960 . S
H588 C572 0.931 . S
H589 C577 0.929 . S
H590 C578 0.960 . S
H591 C578 0.962 . S
H592 C578 0.960 . S
H593 C579 0.961 1_545 S
H594 C579 0.961 1_545 S
H595 C579 0.961 . S
H596 C580 0.931 . S
H597 C585 0.930 . S
H598 C586 0.956 . S
H599 C586 0.961 . S
H600 C586 0.961 . S
H601 C587 0.958 . S
H602 C587 0.961 . S
H603 C587 0.960 . S
C604 C605 1.391 . S
C604 C606 1.394 . S
C604 H620 0.931 . S
C605 C604 1.391 . S
C605 C609 1.376 . S
C606 C604 1.394 . S
C606 C607 1.369 . S
C606 C610 1.531 . S
C607 C606 1.369 . S
C607 C608 1.410 . S
C607 C615 1.503 . S
C608 C607 1.410 . S
C608 C609 1.392 . S
C608 C611 1.511 . S
C609 C605 1.376 . S
C609 C608 1.392 . S
C609 H621 0.929 . S
C610 C606 1.531 . S
C610 H622 0.960 . S
C610 H623 0.962 . S
C610 H624 0.960 . S
C611 C608 1.511 . S
C611 H625 0.961 . S
C611 H626 0.961 . S
C611 H627 0.961 1_545 S
C612 C613 1.370 . S
C612 C614 1.363 . S
C612 H628 0.931 . S
C613 C612 1.370 . S
C613 C617 1.408 1_545 S
C614 C612 1.363 . S
C614 C615 1.370 . S
C614 C618 1.524 . S
C615 C607 1.503 . S
C615 C614 1.370 . S
C615 C616 1.403 . S
C616 C615 1.403 . S
C616 C617 1.404 1_545 S
C616 C619 1.539 1_545 S
C617 C613 1.408 1_565 S
C617 C616 1.404 1_565 S
C617 H629 0.930 . S
C618 C614 1.524 . S
C618 H630 0.956 . S
C618 H631 0.961 . S
C618 H632 0.961 . S
C619 C616 1.539 1_565 S
C619 H633 0.958 . S
C619 H634 0.961 . S
C619 H635 0.960 . S
H620 C604 0.931 . S
H621 C609 0.929 . S
H622 C610 0.960 . S
H623 C610 0.962 . S
H624 C610 0.960 . S
H625 C611 0.961 . S
H626 C611 0.961 . S
H627 C611 0.961 1_565 S
H628 C612 0.931 . S
H629 C617 0.930 . S
H630 C618 0.956 . S
H631 C618 0.961 . S
H632 C618 0.961 . S
H633 C619 0.958 . S
H634 C619 0.961 . S
H635 C619 0.960 . S
C636 C637 1.391 . S
C636 C638 1.394 . S
C636 H652 0.931 . S
C637 C636 1.391 . S
C637 C641 1.376 . S
C638 C636 1.394 . S
C638 C639 1.369 . S
C638 C642 1.531 . S
C639 C638 1.369 . S
C639 C640 1.410 . S
C639 C647 1.503 . S
C640 C639 1.410 . S
C640 C641 1.392 . S
C640 C643 1.511 . S
C641 C637 1.376 . S
C641 C640 1.392 . S
C641 H653 0.929 . S
C642 C638 1.531 . S
C642 H654 0.960 . S
C642 H655 0.962 . S
C642 H656 0.960 . S
C643 C640 1.511 . S
C643 H657 0.961 . S
C643 H658 0.961 . S
C643 H659 0.961 . S
C644 C645 1.370 . S
C644 C646 1.363 . S
C644 H660 0.931 . S
C645 C644 1.370 . S
C645 C649 1.408 . S
C646 C644 1.363 . S
C646 C647 1.370 . S
C646 C650 1.524 . S
C647 C639 1.503 . S
C647 C646 1.370 . S
C647 C648 1.403 . S
C648 C647 1.403 . S
C648 C649 1.404 . S
C648 C651 1.539 . S
C649 C645 1.408 . S
C649 C648 1.404 . S
C649 H661 0.930 . S
C650 C646 1.524 . S
C650 H662 0.956 . S
C650 H663 0.961 . S
C650 H664 0.961 . S
C651 C648 1.539 . S
C651 H665 0.958 . S
C651 H666 0.961 . S
C651 H667 0.960 . S
H652 C636 0.931 . S
H653 C641 0.929 . S
H654 C642 0.960 . S
H655 C642 0.962 . S
H656 C642 0.960 . S
H657 C643 0.961 . S
H658 C643 0.961 . S
H659 C643 0.961 . S
H660 C644 0.931 . S
H661 C649 0.930 . S
H662 C650 0.956 . S
H663 C650 0.961 . S
H664 C650 0.961 . S
H665 C651 0.958 . S
H666 C651 0.961 . S
H667 C651 0.960 . S
C668 C669 1.391 . S
C668 C670 1.394 . S
C668 H684 0.931 . S
C669 C668 1.391 . S
C669 C673 1.376 . S
C670 C668 1.394 . S
C670 C671 1.369 . S
C670 C674 1.531 . S
C671 C670 1.369 . S
C671 C672 1.410 . S
C671 C679 1.503 . S
C672 C671 1.410 . S
C672 C673 1.392 . S
C672 C675 1.511 . S
C673 C669 1.376 . S
C673 C672 1.392 . S
C673 H685 0.929 . S
C674 C670 1.531 . S
C674 H686 0.960 . S
C674 H687 0.962 . S
C674 H688 0.960 . S
C675 C672 1.511 . S
C675 H689 0.961 . S
C675 H690 0.961 . S
C675 H691 0.961 . S
C676 C677 1.370 . S
C676 C678 1.363 . S
C676 H692 0.931 . S
C677 C676 1.370 . S
C677 C681 1.408 . S
C678 C676 1.363 . S
C678 C679 1.370 . S
C678 C682 1.524 . S
C679 C671 1.503 . S
C679 C678 1.370 . S
C679 C680 1.403 . S
C680 C679 1.403 . S
C680 C681 1.404 . S
C680 C683 1.539 . S
C681 C677 1.408 . S
C681 C680 1.404 . S
C681 H693 0.930 . S
C682 C678 1.524 . S
C682 H694 0.956 . S
C682 H695 0.961 . S
C682 H696 0.961 . S
C683 C680 1.539 . S
C683 H697 0.958 . S
C683 H698 0.961 . S
C683 H699 0.960 . S
H684 C668 0.931 . S
H685 C673 0.929 . S
H686 C674 0.960 . S
H687 C674 0.962 . S
H688 C674 0.960 . S
H689 C675 0.961 . S
H690 C675 0.961 . S
H691 C675 0.961 . S
H692 C676 0.931 . S
H693 C681 0.930 . S
H694 C682 0.956 . S
H695 C682 0.961 . S
H696 C682 0.961 . S
H697 C683 0.958 . S
H698 C683 0.961 . S
H699 C683 0.960 . S
C700 C701 1.391 1_545 S
C700 C702 1.394 . S
C700 H716 0.931 . S
C701 C700 1.391 1_565 S
C701 C705 1.376 . S
C702 C700 1.394 . S
C702 C703 1.369 1_545 S
C702 C706 1.531 . S
C703 C702 1.369 1_565 S
C703 C704 1.410 . S
C703 C711 1.503 . S
C704 C703 1.410 . S
C704 C705 1.392 . S
C704 C707 1.511 . S
C705 C701 1.376 . S
C705 C704 1.392 . S
C705 H717 0.929 . S
C706 C702 1.531 . S
C706 H718 0.960 . S
C706 H719 0.962 1_556 S
C706 H720 0.960 . S
C707 C704 1.511 . S
C707 H721 0.961 . S
C707 H722 0.961 . S
C707 H723 0.961 . S
C708 C709 1.370 1_565 S
C708 C710 1.363 . S
C708 H724 0.931 1_556 S
C709 C708 1.370 1_545 S
C709 C713 1.408 . S
C710 C708 1.363 . S
C710 C711 1.370 . S
C710 C714 1.524 1_556 S
C711 C703 1.503 . S
C711 C710 1.370 . S
C711 C712 1.403 1_565 S
C712 C711 1.403 1_545 S
C712 C713 1.404 . S
C712 C715 1.539 . S
C713 C709 1.408 . S
C713 C712 1.404 . S
C713 H725 0.930 . S
C714 C710 1.524 1_554 S
C714 H726 0.956 . S
C714 H727 0.961 1_554 S
C714 H728 0.961 . S
C715 C712 1.539 . S
C715 H729 0.958 . S
C715 H730 0.961 . S
C715 H731 0.960 . S
H716 C700 0.931 . S
H717 C705 0.929 . S
H718 C706 0.960 . S
H719 C706 0.962 1_554 S
H720 C706 0.960 . S
H721 C707 0.961 . S
H722 C707 0.961 . S
H723 C707 0.961 . S
H724 C708 0.931 1_554 S
H725 C713 0.930 . S
H726 C714 0.956 . S
H727 C714 0.961 1_556 S
H728 C714 0.961 . S
H729 C715 0.958 . S
H730 C715 0.961 . S
H731 C715 0.960 . S
C732 C733 1.391 . S
C732 C734 1.394 . S
C732 H748 0.931 . S
C733 C732 1.391 . S
C733 C737 1.376 . S
C734 C732 1.394 . S
C734 C735 1.369 . S
C734 C738 1.531 . S
C735 C734 1.369 . S
C735 C736 1.410 . S
C735 C743 1.503 . S
C736 C735 1.410 . S
C736 C737 1.392 . S
C736 C739 1.511 1_545 S
C737 C733 1.376 . S
C737 C736 1.392 . S
C737 H749 0.929 1_545 S
C738 C734 1.531 . S
C738 H750 0.960 . S
C738 H751 0.962 . S
C738 H752 0.960 . S
C739 C736 1.511 1_565 S
C739 H753 0.961 . S
C739 H754 0.961 . S
C739 H755 0.961 . S
C740 C741 1.370 . S
C740 C742 1.363 . S
C740 H756 0.931 . S
C741 C740 1.370 . S
C741 C745 1.408 . S
C742 C740 1.363 . S
C742 C743 1.370 . S
C742 C746 1.524 . S
C743 C735 1.503 . S
C743 C742 1.370 . S
C743 C744 1.403 . S
C744 C743 1.403 . S
C744 C745 1.404 . S
C744 C747 1.539 . S
C745 C741 1.408 . S
C745 C744 1.404 . S
C745 H757 0.930 . S
C746 C742 1.524 . S
C746 H758 0.956 . S
C746 H759 0.961 . S
C746 H760 0.961 . S
C747 C744 1.539 . S
C747 H761 0.958 . S
C747 H762 0.961 . S
C747 H763 0.960 . S
H748 C732 0.931 . S
H749 C737 0.929 1_565 S
H750 C738 0.960 . S
H751 C738 0.962 . S
H752 C738 0.960 . S
H753 C739 0.961 . S
H754 C739 0.961 . S
H755 C739 0.961 . S
H756 C740 0.931 . S
H757 C745 0.930 . S
H758 C746 0.956 . S
H759 C746 0.961 . S
H760 C746 0.961 . S
H761 C747 0.958 . S
H762 C747 0.961 . S
H763 C747 0.960 . S
C764 C765 1.391 . S
C764 C766 1.394 . S
C764 H780 0.931 . S
C765 C764 1.391 . S
C765 C769 1.376 . S
C766 C764 1.394 . S
C766 C767 1.369 . S
C766 C770 1.531 1_554 S
C767 C766 1.369 . S
C767 C768 1.410 . S
C767 C775 1.503 . S
C768 C767 1.410 . S
C768 C769 1.392 . S
C768 C771 1.511 . S
C769 C765 1.376 . S
C769 C768 1.392 . S
C769 H781 0.929 . S
C770 C766 1.531 1_556 S
C770 H782 0.960 . S
C770 H783 0.962 . S
C770 H784 0.960 . S
C771 C768 1.511 . S
C771 H785 0.961 . S
C771 H786 0.961 . S
C771 H787 0.961 . S
C772 C773 1.370 . S
C772 C774 1.363 . S
C772 H788 0.931 . S
C773 C772 1.370 . S
C773 C777 1.408 . S
C774 C772 1.363 . S
C774 C775 1.370 . S
C774 C778 1.524 . S
C775 C767 1.503 . S
C775 C774 1.370 . S
C775 C776 1.403 . S
C776 C775 1.403 . S
C776 C777 1.404 . S
C776 C779 1.539 . S
C777 C773 1.408 . S
C777 C776 1.404 . S
C777 H789 0.930 . S
C778 C774 1.524 . S
C778 H790 0.956 . S
C778 H791 0.961 . S
C778 H792 0.961 . S
C779 C776 1.539 . S
C779 H793 0.958 . S
C779 H794 0.961 . S
C779 H795 0.960 . S
H780 C764 0.931 . S
H781 C769 0.929 . S
H782 C770 0.960 . S
H783 C770 0.962 . S
H784 C770 0.960 . S
H785 C771 0.961 . S
H786 C771 0.961 . S
H787 C771 0.961 . S
H788 C772 0.931 . S
H789 C777 0.930 . S
H790 C778 0.956 . S
H791 C778 0.961 . S
H792 C778 0.961 . S
H793 C779 0.958 . S
H794 C779 0.961 . S
H795 C779 0.960 . S
C796 C797 1.391 . S
C796 C798 1.394 . S
C796 H812 0.931 . S
C797 C796 1.391 . S
C797 C801 1.376 . S
C798 C796 1.394 . S
C798 C799 1.369 . S
C798 C802 1.531 . S
C799 C798 1.369 . S
C799 C800 1.410 . S
C799 C807 1.503 . S
C800 C799 1.410 . S
C800 C801 1.392 . S
C800 C803 1.511 . S
C801 C797 1.376 . S
C801 C800 1.392 . S
C801 H813 0.929 . S
C802 C798 1.531 . S
C802 H814 0.960 . S
C802 H815 0.962 . S
C802 H816 0.960 . S
C803 C800 1.511 . S
C803 H817 0.961 . S
C803 H818 0.961 . S
C803 H819 0.961 . S
C804 C805 1.370 . S
C804 C806 1.363 . S
C804 H820 0.931 . S
C805 C804 1.370 . S
C805 C809 1.408 . S
C806 C804 1.363 . S
C806 C807 1.370 . S
C806 C810 1.524 . S
C807 C799 1.503 . S
C807 C806 1.370 . S
C807 C808 1.403 . S
C808 C807 1.403 . S
C808 C809 1.404 . S
C808 C811 1.539 . S
C809 C805 1.408 . S
C809 C808 1.404 . S
C809 H821 0.930 . S
C810 C806 1.524 . S
C810 H822 0.956 . S
C810 H823 0.961 . S
C810 H824 0.961 . S
C811 C808 1.539 . S
C811 H825 0.958 . S
C811 H826 0.961 . S
C811 H827 0.960 . S
H812 C796 0.931 . S
H813 C801 0.929 . S
H814 C802 0.960 . S
H815 C802 0.962 . S
H816 C802 0.960 . S
H817 C803 0.961 . S
H818 C803 0.961 . S
H819 C803 0.961 . S
H820 C804 0.931 . S
H821 C809 0.930 . S
H822 C810 0.956 . S
H823 C810 0.961 . S
H824 C810 0.961 . S
H825 C811 0.958 . S
H826 C811 0.961 . S
H827 C811 0.960 . S
C828 C829 1.391 . S
C828 C830 1.394 . S
C828 H844 0.931 . S
C829 C828 1.391 . S
C829 C833 1.376 . S
C830 C828 1.394 . S
C830 C831 1.369 . S
C830 C834 1.531 1_556 S
C831 C830 1.369 . S
C831 C832 1.410 . S
C831 C839 1.503 . S
C832 C831 1.410 . S
C832 C833 1.392 . S
C832 C835 1.511 1_655 S
C833 C829 1.376 . S
C833 C832 1.392 . S
C833 H845 0.929 . S
C834 C830 1.531 1_554 S
C834 H846 0.960 . S
C834 H847 0.962 . S
C834 H848 0.960 . S
C835 C832 1.511 1_455 S
C835 H849 0.961 . S
C835 H850 0.961 . S
C835 H851 0.961 . S
C836 C837 1.360 1_454 S
C836 C838 1.356 1_554 S
C836 H852 0.949 . S
C837 C836 1.360 1_656 S
C837 C841 1.408 . S
C838 C836 1.356 1_556 S
C838 C839 1.370 1_455 S
C838 C842 1.524 1_556 S
C839 C831 1.503 . S
C839 C838 1.370 1_655 S
C839 C840 1.403 . S
C840 C839 1.403 . S
C840 C841 1.404 . S
C840 C843 1.539 . S
C841 C837 1.408 . S
C841 C840 1.404 . S
C841 H853 0.930 . S
C842 C838 1.524 1_554 S
C842 H854 0.956 . S
C842 H855 0.961 1_554 S
C842 H856 0.961 . S
C843 C840 1.539 . S
C843 H857 0.958 . S
C843 H858 0.961 . S
C843 H859 0.960 . S
H844 C828 0.931 . S
H845 C833 0.929 . S
H846 C834 0.960 . S
H847 C834 0.962 . S
H848 C834 0.960 . S
H849 C835 0.961 . S
H850 C835 0.961 . S
H851 C835 0.961 . S
H852 C836 0.949 . S
H853 C841 0.930 . S
H854 C842 0.956 . S
H855 C842 0.961 1_556 S
H856 C842 0.961 . S
H857 C843 0.958 . S
H858 C843 0.961 . S
H859 C843 0.960 . S
C860 C861 1.391 . S
C860 C862 1.394 . S
C860 H876 0.931 . S
C861 C860 1.391 . S
C861 C865 1.376 . S
C862 C860 1.394 . S
C862 C863 1.369 . S
C862 C866 1.531 . S
C863 C862 1.369 . S
C863 C864 1.410 . S
C863 C871 1.503 . S
C864 C863 1.410 . S
C864 C865 1.392 . S
C864 C867 1.511 . S
C865 C861 1.376 . S
C865 C864 1.392 . S
C865 H877 0.929 . S
C866 C862 1.531 . S
C866 H878 0.960 . S
C866 H879 0.962 . S
C866 H880 0.960 . S
C867 C864 1.511 . S
C867 H881 0.961 . S
C867 H882 0.961 . S
C867 H883 0.961 . S
C868 C869 1.370 . S
C868 C870 1.363 . S
C868 H884 0.931 . S
C869 C868 1.370 . S
C869 C873 1.408 . S
C870 C868 1.363 . S
C870 C871 1.370 . S
C870 C874 1.524 . S
C871 C863 1.503 . S
C871 C870 1.370 . S
C871 C872 1.403 . S
C872 C871 1.403 . S
C872 C873 1.404 . S
C872 C875 1.539 . S
C873 C869 1.408 . S
C873 C872 1.404 . S
C873 H885 0.930 . S
C874 C870 1.524 . S
C874 H886 0.956 . S
C874 H887 0.961 . S
C874 H888 0.961 1_554 S
C875 C872 1.539 . S
C875 H889 0.958 . S
C875 H890 0.961 . S
C875 H891 0.960 . S
H876 C860 0.931 . S
H877 C865 0.929 . S
H878 C866 0.960 . S
H879 C866 0.962 . S
H880 C866 0.960 . S
H881 C867 0.961 . S
H882 C867 0.961 . S
H883 C867 0.961 . S
H884 C868 0.931 . S
H885 C873 0.930 . S
H886 C874 0.956 . S
H887 C874 0.961 . S
H888 C874 0.961 1_556 S
H889 C875 0.958 . S
H890 C875 0.961 . S
H891 C875 0.960 . S
C892 C893 1.391 . S
C892 C894 1.394 . S
C892 H908 0.931 . S
C893 C892 1.391 . S
C893 C897 1.376 . S
C894 C892 1.394 . S
C894 C895 1.369 . S
C894 C898 1.531 . S
C895 C894 1.369 . S
C895 C896 1.410 . S
C895 C903 1.503 . S
C896 C895 1.410 . S
C896 C897 1.392 . S
C896 C899 1.511 . S
C897 C893 1.376 . S
C897 C896 1.392 . S
C897 H909 0.929 . S
C898 C894 1.531 . S
C898 H910 0.960 . S
C898 H911 0.962 . S
C898 H912 0.960 . S
C899 C896 1.511 . S
C899 H913 0.961 . S
C899 H914 0.961 . S
C899 H915 0.961 1_455 S
C900 C901 1.370 . S
C900 C902 1.363 . S
C900 H916 0.931 . S
C901 C900 1.370 . S
C901 C905 1.408 . S
C902 C900 1.363 . S
C902 C903 1.370 . S
C902 C906 1.524 . S
C903 C895 1.503 . S
C903 C902 1.370 . S
C903 C904 1.403 . S
C904 C903 1.403 . S
C904 C905 1.404 . S
C904 C907 1.539 . S
C905 C901 1.408 . S
C905 C904 1.404 . S
C905 H917 0.930 . S
C906 C902 1.524 . S
C906 H918 0.956 . S
C906 H919 0.961 . S
C906 H920 0.961 . S
C907 C904 1.539 . S
C907 H921 0.958 . S
C907 H922 0.961 1_455 S
C907 H923 0.960 . S
H908 C892 0.931 . S
H909 C897 0.929 . S
H910 C898 0.960 . S
H911 C898 0.962 . S
H912 C898 0.960 . S
H913 C899 0.961 . S
H914 C899 0.961 . S
H915 C899 0.961 1_655 S
H916 C900 0.931 . S
H917 C905 0.930 . S
H918 C906 0.956 . S
H919 C906 0.961 . S
H920 C906 0.961 . S
H921 C907 0.958 . S
H922 C907 0.961 1_655 S
H923 C907 0.960 . S
C924 C925 1.391 . S
C924 C926 1.394 . S
C924 H940 0.931 . S
C925 C924 1.391 . S
C925 C929 1.376 . S
C926 C924 1.394 . S
C926 C927 1.369 . S
C926 C930 1.531 . S
C927 C926 1.369 . S
C927 C928 1.410 . S
C927 C935 1.503 . S
C928 C927 1.410 . S
C928 C929 1.392 . S
C928 C931 1.511 . S
C929 C925 1.376 . S
C929 C928 1.392 . S
C929 H941 0.929 . S
C930 C926 1.531 . S
C930 H942 0.960 . S
C930 H943 0.962 . S
C930 H944 0.960 . S
C931 C928 1.511 . S
C931 H945 0.961 . S
C931 H946 0.961 . S
C931 H947 0.961 . S
C932 C933 1.370 . S
C932 C934 1.363 . S
C932 H948 0.931 . S
C933 C932 1.370 . S
C933 C937 1.408 . S
C934 C932 1.363 . S
C934 C935 1.370 . S
C934 C938 1.524 . S
C935 C927 1.503 . S
C935 C934 1.370 . S
C935 C936 1.403 . S
C936 C935 1.403 . S
C936 C937 1.404 . S
C936 C939 1.539 . S
C937 C933 1.408 . S
C937 C936 1.404 . S
C937 H949 0.930 . S
C938 C934 1.524 . S
C938 H950 0.956 . S
C938 H951 0.961 . S
C938 H952 0.961 . S
C939 C936 1.539 . S
C939 H953 0.958 . S
C939 H954 0.961 . S
C939 H955 0.960 . S
H940 C924 0.931 . S
H941 C929 0.929 . S
H942 C930 0.960 . S
H943 C930 0.962 . S
H944 C930 0.960 . S
H945 C931 0.961 . S
H946 C931 0.961 . S
H947 C931 0.961 . S
H948 C932 0.931 . S
H949 C937 0.930 . S
H950 C938 0.956 . S
H951 C938 0.961 . S
H952 C938 0.961 . S
H953 C939 0.958 . S
H954 C939 0.961 . S
H955 C939 0.960 . S
C189 C6 1.758 . S
C197 C114 1.726 . S
C221 C18 1.856 . S
C229 C138 1.845 . S
C261 C158 1.436 . S
C253 C28 1.430 . S
C285 C40 0.970 . S
C293 C181 0.953 . S
C325 C140 1.926 . S
C317 C9 1.960 . S
C357 C116 1.619 . S
C349 C16 1.642 . S
C389 C184 1.554 . S
C381 C30 1.601 . S
C421 C161 1.275 . S
C413 C42 1.280 . S
C445 C4 1.414 . S
C453 C186 1.403 . S
C485 C135 1.669 . S
C477 C33 1.659 . S
C509 C45 1.374 . S
C517 C113 1.380 . S
C541 C21 1.649 . S
C549 C163 1.639 . S
C581 C117 1.826 . S
C573 C57 1.803 . S
C605 C66 1.830 . S
C613 C139 1.821 . S
C637 C76 1.758 . S
C645 C159 1.765 . S
C669 C88 1.140 . S
C677 C182 1.210 . S
C701 C54 1.763 . S
C709 C137 1.743 . S
C741 C115 1.550 . S
C733 C64 1.546 . S
C773 C185 1.354 . S
C765 C78 1.414 . S
C805 C162 1.217 . S
C797 C93 1.264 . S
C829 C52 1.641 . S
C837 C183 1.671 1_655 S
C869 C136 1.574 . S
C861 C81 1.535 . S
C901 C112 1.342 . S
C893 C90 1.313 . S
C925 C69 1.986 . S
C933 C160 1.968 . S
