# Generated by pormake.
# Topology nom, (4,4)-cn, num edge types: 1
# Building blocks:
#     Node 0, Type 0, BuildingBlock: NAWXER_clean_linker_0, # of connection points: 4
#     Node 1, Type 0, BuildingBlock: NAWXER_clean_linker_0, # of connection points: 4
#     Node 2, Type 0, BuildingBlock: NAWXER_clean_linker_0, # of connection points: 4
#     Node 3, Type 0, BuildingBlock: NAWXER_clean_linker_0, # of connection points: 4
#     Node 4, Type 0, BuildingBlock: NAWXER_clean_linker_0, # of connection points: 4
#     Node 5, Type 0, BuildingBlock: NAWXER_clean_linker_0, # of connection points: 4
#     Node 6, Type 1, BuildingBlock: CEKHIL_clean_sbu_0, # of connection points: 4
#     Node 7, Type 1, BuildingBlock: CEKHIL_clean_sbu_0, # of connection points: 4
#     Node 8, Type 1, BuildingBlock: CEKHIL_clean_sbu_0, # of connection points: 4
#     Node 9, Type 1, BuildingBlock: CEKHIL_clean_sbu_0, # of connection points: 4
#     Node 10, Type 1, BuildingBlock: CEKHIL_clean_sbu_0, # of connection points: 4
#     Node 11, Type 1, BuildingBlock: CEKHIL_clean_sbu_0, # of connection points: 4
#     Edge 12, Type (0, 1), BuildingBlock: TEMPAE_clean_linker_10, # of connection points: 2
#     Edge 13, Type (0, 1), BuildingBlock: TEMPAE_clean_linker_10, # of connection points: 2
#     Edge 14, Type (0, 1), BuildingBlock: TEMPAE_clean_linker_10, # of connection points: 2
#     Edge 15, Type (0, 1), BuildingBlock: TEMPAE_clean_linker_10, # of connection points: 2
#     Edge 16, Type (0, 1), BuildingBlock: TEMPAE_clean_linker_10, # of connection points: 2
#     Edge 17, Type (0, 1), BuildingBlock: TEMPAE_clean_linker_10, # of connection points: 2
#     Edge 18, Type (0, 1), BuildingBlock: TEMPAE_clean_linker_10, # of connection points: 2
#     Edge 19, Type (0, 1), BuildingBlock: TEMPAE_clean_linker_10, # of connection points: 2
#     Edge 20, Type (0, 1), BuildingBlock: TEMPAE_clean_linker_10, # of connection points: 2
#     Edge 21, Type (0, 1), BuildingBlock: TEMPAE_clean_linker_10, # of connection points: 2
#     Edge 22, Type (0, 1), BuildingBlock: TEMPAE_clean_linker_10, # of connection points: 2
#     Edge 23, Type (0, 1), BuildingBlock: TEMPAE_clean_linker_10, # of connection points: 2
#     Edge 24, Type (0, 1), BuildingBlock: TEMPAE_clean_linker_10, # of connection points: 2
#     Edge 25, Type (0, 1), BuildingBlock: TEMPAE_clean_linker_10, # of connection points: 2
#     Edge 26, Type (0, 1), BuildingBlock: TEMPAE_clean_linker_10, # of connection points: 2
#     Edge 27, Type (0, 1), BuildingBlock: TEMPAE_clean_linker_10, # of connection points: 2
#     Edge 28, Type (0, 1), BuildingBlock: TEMPAE_clean_linker_10, # of connection points: 2
#     Edge 29, Type (0, 1), BuildingBlock: TEMPAE_clean_linker_10, # of connection points: 2
#     Edge 30, Type (0, 1), BuildingBlock: TEMPAE_clean_linker_10, # of connection points: 2
#     Edge 31, Type (0, 1), BuildingBlock: TEMPAE_clean_linker_10, # of connection points: 2
#     Edge 32, Type (0, 1), BuildingBlock: TEMPAE_clean_linker_10, # of connection points: 2
#     Edge 33, Type (0, 1), BuildingBlock: TEMPAE_clean_linker_10, # of connection points: 2
#     Edge 34, Type (0, 1), BuildingBlock: TEMPAE_clean_linker_10, # of connection points: 2
#     Edge 35, Type (0, 1), BuildingBlock: TEMPAE_clean_linker_10, # of connection points: 2
# Relax obj value: 0.006
# Max RMSD: 0.109
# Mean RMSD: 0.075
data_MOF--net-nom--node1-CEKHIL_clean_sbu_0--node2-NAWXER_clean_linker_0--edge1-TEMPAE_clean_linker_10
_symmetry_space_group_name_H-M    P1
_symmetry_Int_Tables_number       1
_symmetry_cell_setting            triclinic
loop_
_symmetry_equiv_pos_as_xyz
'x, y, z'
_cell_length_a     53.336095
_cell_length_b     52.711217
_cell_length_c     58.326082
_cell_angle_alpha  89.967524
_cell_angle_beta   90.024816
_cell_angle_gamma 121.18482
loop_
_atom_site_label
_atom_site_type_symbol
_atom_site_fract_x
_atom_site_fract_y
_atom_site_fract_z
_atom_type_partial_charge
C0 C 0.91017 0.52456 0.34605 0.0
C1 C 0.89351 0.49979 0.36029 0.0
C2 C 0.93911 0.53369 0.34057 0.0
C3 C 0.95215 0.51847 0.34936 0.0
C4 C 0.90691 0.48489 0.36935 0.0
C5 C 0.93608 0.49438 0.36413 0.0
C6 C 0.98261 0.52794 0.34311 0.0
C7 C 0.92762 0.4797 0.28227 0.0
C8 C 0.93316 0.49689 0.26238 0.0
C9 C 0.94653 0.49094 0.30104 0.0
C10 C 0.97122 0.5198 0.30051 0.0
C11 C 0.95802 0.52569 0.26177 0.0
C12 C 0.97693 0.53698 0.28063 0.0
C13 C 0.99194 0.5313 0.3201 0.0
C14 C 0.12199 0.57653 0.32854 0.0
C15 C 0.13162 0.59792 0.31111 0.0
C16 C 0.0926 0.56138 0.33544 0.0
C17 C 0.07275 0.56831 0.32562 0.0
C18 C 0.11165 0.60404 0.3007 0.0
C19 C 0.08254 0.58947 0.30794 0.0
C20 C 0.04154 0.55327 0.33267 0.0
C21 C 0.09396 0.59242 0.39784 0.0
C22 C 0.08852 0.57077 0.41446 0.0
C23 C 0.07565 0.5853 0.37872 0.0
C24 C 0.0518 0.5563 0.3757 0.0
C25 C 0.06438 0.54187 0.41149 0.0
C26 C 0.04616 0.53478 0.39237 0.0
C27 C 0.03191 0.54822 0.35578 0.0
H28 H 0.90094 0.53707 0.33921 0.0
H29 H 0.95138 0.55275 0.3295 0.0
H30 H 0.89474 0.4655 0.38009 0.0
H31 H 0.94583 0.48242 0.37112 0.0
H32 H 0.90911 0.45717 0.2831 0.0
H33 H 0.94218 0.47674 0.31578 0.0
H34 H 0.96283 0.53952 0.24673 0.0
H35 H 0.99598 0.55919 0.27972 0.0
H36 H 0.13709 0.57127 0.33654 0.0
H37 H 0.08547 0.54425 0.34836 0.0
H38 H 0.11872 0.62045 0.28718 0.0
H39 H 0.06768 0.595 0.29986 0.0
H40 H 0.11204 0.61502 0.39984 0.0
H41 H 0.07999 0.60247 0.36638 0.0
H42 H 0.05971 0.52464 0.42386 0.0
H43 H 0.02775 0.51231 0.39046 0.0
N44 N 0.00279 0.53592 0.36007 0.0
N45 N 0.02107 0.54432 0.31578 0.0
C46 C 0.40482 0.89383 0.49181 0.0
C47 C 0.41237 0.88271 0.51084 0.0
C48 C 0.42231 0.92355 0.48538 0.0
C49 C 0.44834 0.94262 0.4973 0.0
C50 C 0.43816 0.90204 0.52299 0.0
C51 C 0.45595 0.93158 0.51625 0.0
C52 C 0.46647 0.97455 0.49142 0.0
C53 C 0.46523 0.92511 0.42866 0.0
C54 C 0.45156 0.92912 0.40955 0.0
C55 C 0.47259 0.94363 0.44777 0.0
C56 C 0.46593 0.96617 0.44833 0.0
C57 C 0.4458 0.95231 0.40987 0.0
C58 C 0.45302 0.97071 0.42903 0.0
C59 C 0.47286 0.98548 0.46871 0.0
C60 C 0.54872 0.11862 0.48224 0.0
C61 C 0.53583 0.1273 0.46543 0.0
C62 C 0.53638 0.08861 0.48763 0.0
C63 C 0.51029 0.06701 0.47695 0.0
C64 C 0.51063 0.1057 0.45399 0.0
C65 C 0.49791 0.07582 0.45977 0.0
C66 C 0.49584 0.03512 0.4829 0.0
C67 C 0.50412 0.08388 0.54894 0.0
C68 C 0.52062 0.07961 0.56566 0.0
C69 C 0.4938 0.06564 0.52953 0.0
C70 C 0.50042 0.04331 0.52629 0.0
C71 C 0.52628 0.05659 0.56269 0.0
C72 C 0.51621 0.0386 0.54326 0.0
C73 C 0.49073 0.02421 0.50565 0.0
H74 H 0.38529 0.87966 0.48189 0.0
H75 H 0.41513 0.93163 0.47129 0.0
H76 H 0.44438 0.89459 0.53808 0.0
H77 H 0.47558 0.94594 0.52603 0.0
H78 H 0.47043 0.90778 0.42875 0.0
H79 H 0.48342 0.94027 0.46215 0.0
H80 H 0.4351 0.95583 0.39548 0.0
H81 H 0.44793 0.98812 0.42896 0.0
H82 H 0.56846 0.13503 0.49099 0.0
H83 H 0.54716 0.08237 0.50021 0.0
H84 H 0.50049 0.11204 0.44089 0.0
H85 H 0.47806 0.0596 0.45102 0.0
H86 H 0.4991 0.10121 0.55093 0.0
H87 H 0.48089 0.06913 0.517 0.0
H88 H 0.53916 0.05292 0.57514 0.0
H89 H 0.52134 0.02133 0.54123 0.0
N90 N 0.47618 0.9944 0.50894 0.0
N91 N 0.48677 0.01527 0.46538 0.0
C92 C 0.5304 0.44626 0.6 0.0
C93 C 0.51498 0.43518 0.57931 0.0
C94 C 0.51684 0.45016 0.61905 0.0
C95 C 0.48741 0.44256 0.61791 0.0
C96 C 0.48573 0.4282 0.57809 0.0
C97 C 0.47216 0.43199 0.59716 0.0
C98 C 0.47289 0.44703 0.63784 0.0
C99 C 0.4936 0.378 0.65971 0.0
C100 C 0.51033 0.38432 0.67988 0.0
C101 C 0.48191 0.39535 0.6533 0.0
C102 C 0.48747 0.42005 0.6665 0.0
C103 C 0.51507 0.40853 0.6934 0.0
C104 C 0.50388 0.42619 0.68674 0.0
C105 C 0.47469 0.4384 0.66045 0.0
C106 C 0.4086 0.48373 0.71587 0.0
C107 C 0.42869 0.49593 0.73419 0.0
C108 C 0.41448 0.47133 0.69689 0.0
C109 C 0.44128 0.47235 0.69522 0.0
C110 C 0.4541 0.49411 0.73332 0.0
C111 C 0.46046 0.48288 0.71403 0.0
C112 C 0.45014 0.46257 0.67444 0.0
C113 C 0.42249 0.52588 0.65066 0.0
C114 C 0.39973 0.51299 0.63447 0.0
C115 C 0.43879 0.51263 0.65571 0.0
C116 C 0.43169 0.48562 0.64537 0.0
C117 C 0.39387 0.48703 0.62311 0.0
C118 C 0.40966 0.47342 0.62856 0.0
C119 C 0.4469 0.46975 0.65163 0.0
H120 H 0.55309 0.4523 0.60136 0.0
H121 H 0.52944 0.45934 0.63461 0.0
H122 H 0.47316 0.41935 0.56247 0.0
H123 H 0.44956 0.4263 0.59579 0.0
H124 H 0.4896 0.35971 0.64874 0.0
H125 H 0.46831 0.38921 0.63812 0.0
H126 H 0.52715 0.41371 0.70934 0.0
H127 H 0.50805 0.44472 0.69752 0.0
H128 H 0.38867 0.48441 0.71575 0.0
H129 H 0.3984 0.46177 0.68329 0.0
H130 H 0.4695 0.50177 0.74743 0.0
H131 H 0.48088 0.48309 0.71364 0.0
H132 H 0.42765 0.54618 0.65935 0.0
H133 H 0.45642 0.52307 0.6681 0.0
H134 H 0.37649 0.47681 0.61049 0.0
H135 H 0.40415 0.45289 0.62006 0.0
N136 N 0.45847 0.46172 0.63432 0.0
N137 N 0.4637 0.44701 0.67776 0.0
C138 C 0.89785 0.39979 0.82999 0.0
C139 C 0.88881 0.41032 0.81151 0.0
C140 C 0.92698 0.41505 0.83723 0.0
C141 C 0.94771 0.44199 0.82688 0.0
C142 C 0.90962 0.43718 0.80101 0.0
C143 C 0.93869 0.45284 0.80865 0.0
C144 C 0.97919 0.45721 0.83336 0.0
C145 C 0.93571 0.45931 0.89862 0.0
C146 C 0.93321 0.43846 0.91483 0.0
C147 C 0.95357 0.46557 0.87936 0.0
C148 C 0.96952 0.45139 0.87625 0.0
C149 C 0.94912 0.42426 0.91172 0.0
C150 C 0.96751 0.43102 0.89273 0.0
C151 C 0.98888 0.45843 0.85615 0.0
C152 C 0.11972 0.5284 0.85037 0.0
C153 C 0.12694 0.50885 0.86059 0.0
C154 C 0.09076 0.51861 0.84431 0.0
C155 C 0.06856 0.48915 0.84848 0.0
C156 C 0.10467 0.47935 0.8647 0.0
C157 C 0.07565 0.46968 0.8589 0.0
C158 C 0.03777 0.47871 0.84272 0.0
C159 C 0.08359 0.49091 0.7744 0.0
C160 C 0.08856 0.51715 0.76398 0.0
C161 C 0.06419 0.47872 0.79291 0.0
C162 C 0.04913 0.49232 0.80086 0.0
C163 C 0.07357 0.53076 0.77206 0.0
C164 C 0.05371 0.51821 0.79017 0.0
C165 C 0.02855 0.47977 0.82029 0.0
H166 H 0.88253 0.37944 0.83876 0.0
H167 H 0.9333 0.40512 0.85052 0.0
H168 H 0.90374 0.44577 0.78644 0.0
H169 H 0.95426 0.47324 0.80003 0.0
H170 H 0.92362 0.47051 0.90077 0.0
H171 H 0.95517 0.48169 0.86699 0.0
H172 H 0.94758 0.40823 0.92416 0.0
H173 H 0.9798 0.42002 0.8907 0.0
H174 H 0.13653 0.55122 0.84693 0.0
H175 H 0.08565 0.53412 0.83663 0.0
H176 H 0.10964 0.46394 0.87274 0.0
H177 H 0.05873 0.44691 0.86239 0.0
H178 H 0.09496 0.4801 0.76839 0.0
H179 H 0.06079 0.45862 0.80092 0.0
H180 H 0.07697 0.5509 0.76413 0.0
H181 H 0.04223 0.52896 0.79609 0.0
N182 N 0.99958 0.46863 0.81635 0.0
N183 N 0.01768 0.46843 0.8599 0.0
C184 C 0.51369 0.89764 0.98315 0.0
C185 C 0.49531 0.88568 0.96389 0.0
C186 C 0.52534 0.92727 0.98929 0.0
C187 C 0.51811 0.94543 0.97683 0.0
C188 C 0.4888 0.90418 0.95104 0.0
C189 C 0.50004 0.93368 0.95747 0.0
C190 C 0.53074 0.97709 0.98296 0.0
C191 C 0.47777 0.92576 0.04414 0.0
C192 C 0.49412 0.93005 0.06422 0.0
C193 C 0.49057 0.94425 0.02515 0.0
C194 C 0.52011 0.96722 0.02573 0.0
C195 C 0.52357 0.95336 0.06488 0.0
C196 C 0.53637 0.97184 0.04586 0.0
C197 C 0.53377 0.98725 0.00581 0.0
C198 C 0.58891 0.12017 0.995 0.0
C199 C 0.60927 0.12892 0.01294 0.0
C200 C 0.57241 0.09035 0.98846 0.0
C201 C 0.57693 0.06912 0.99918 0.0
C202 C 0.61301 0.10762 0.02422 0.0
C203 C 0.59708 0.07802 0.01734 0.0
C204 C 0.56028 0.03739 0.99253 0.0
C205 C 0.60457 0.08869 0.92794 0.0
C206 C 0.58448 0.08456 0.91056 0.0
C207 C 0.59554 0.06994 0.94708 0.0
C208 C 0.56613 0.04706 0.94937 0.0
C209 C 0.55523 0.06118 0.9127 0.0
C210 C 0.54621 0.04258 0.93185 0.0
C211 C 0.55578 0.02719 0.96959 0.0
H212 H 0.51907 0.88413 0.9936 0.0
H213 H 0.54023 0.93596 0.00373 0.0
H214 H 0.47532 0.89604 0.93579 0.0
H215 H 0.49459 0.94736 0.94727 0.0
H216 H 0.45487 0.90844 0.04324 0.0
H217 H 0.47727 0.94079 0.0101 0.0
H218 H 0.53681 0.95716 0.08002 0.0
H219 H 0.55911 0.98957 0.04678 0.0
H220 H 0.58547 0.13631 0.98635 0.0
H221 H 0.55611 0.08397 0.97511 0.0
H222 H 0.62858 0.114 0.03816 0.0
H223 H 0.60071 0.06207 0.02611 0.0
H224 H 0.62737 0.10616 0.9266 0.0
H225 H 0.61149 0.07334 0.96008 0.0
H226 H 0.53917 0.05753 0.89972 0.0
H227 H 0.52346 0.02493 0.93317 0.0
N228 N 0.54132 0.99746 0.96577 0.0
N229 N 0.5489 0.01695 0.00967 0.0
C230 C 0.51882 0.62491 0.15767 0.0
C231 C 0.49945 0.61698 0.17634 0.0
C232 C 0.5314 0.60816 0.15212 0.0
C233 C 0.524 0.58223 0.1644 0.0
C234 C 0.49258 0.59137 0.18897 0.0
C235 C 0.5046 0.57417 0.18299 0.0
C236 C 0.5383 0.56498 0.15937 0.0
C237 C 0.49229 0.56034 0.09359 0.0
C238 C 0.51155 0.57903 0.07653 0.0
C239 C 0.5032 0.55433 0.11333 0.0
C240 C 0.53351 0.56662 0.11611 0.0
C241 C 0.54182 0.59121 0.07924 0.0
C242 C 0.5527 0.58468 0.09875 0.0
C243 C 0.54512 0.56026 0.13694 0.0
C244 C 0.60155 0.48716 0.15297 0.0
C245 C 0.62505 0.50182 0.1376 0.0
C246 C 0.58342 0.49843 0.15752 0.0
C247 C 0.58921 0.52521 0.14746 0.0
C248 C 0.63015 0.52786 0.12681 0.0
C249 C 0.61246 0.53951 0.13178 0.0
C250 C 0.57085 0.53818 0.15237 0.0
C251 C 0.60451 0.52824 0.22105 0.0
C252 C 0.58146 0.50536 0.23364 0.0
C253 C 0.5985 0.54037 0.20196 0.0
C254 C 0.56936 0.52985 0.19544 0.0
C255 C 0.5524 0.49528 0.22736 0.0
C256 C 0.5464 0.50769 0.20855 0.0
C257 C 0.56234 0.5411 0.17472 0.0
H258 H 0.5245 0.6442 0.14732 0.0
H259 H 0.54744 0.61605 0.13848 0.0
H260 H 0.47838 0.58483 0.2038 0.0
H261 H 0.49894 0.55468 0.19311 0.0
H262 H 0.46886 0.55072 0.09174 0.0
H263 H 0.488 0.54 0.12638 0.0
H264 H 0.55697 0.60557 0.06617 0.0
H265 H 0.57612 0.59421 0.10053 0.0
H266 H 0.59691 0.46668 0.1611 0.0
H267 H 0.5648 0.48602 0.16875 0.0
H268 H 0.64808 0.53941 0.1148 0.0
H269 H 0.61714 0.55993 0.12352 0.0
H270 H 0.62707 0.53627 0.22572 0.0
H271 H 0.61649 0.55765 0.19214 0.0
H272 H 0.53438 0.47769 0.23695 0.0
H273 H 0.52379 0.49936 0.20381 0.0
N274 N 0.54663 0.55457 0.17734 0.0
N275 N 0.56167 0.54769 0.13434 0.0
Co276 Co 0.63116 0.385 0.40488 0.0
O277 O 0.65988 0.38536 0.38481 0.0
O278 O 0.66819 0.42187 0.40835 0.0
C279 C 0.61416 0.3389 0.4184 0.0
O280 O 0.60759 0.39182 0.42915 0.0
Co281 Co 0.56496 0.34078 0.39778 0.0
O282 O 0.56175 0.35233 0.42943 0.0
C283 C 0.59544 0.39333 0.36789 0.0
C284 C 0.67834 0.4112 0.39333 0.0
C285 C 0.58199 0.37635 0.43832 0.0
O286 O 0.61887 0.40293 0.37993 0.0
O287 O 0.57197 0.36832 0.3715 0.0
O288 O 0.63776 0.36132 0.42689 0.0
O289 O 0.60297 0.3446 0.40088 0.0
Co290 Co 0.25727 0.63058 0.58915 0.0
O291 O 0.28732 0.6317 0.60809 0.0
O292 O 0.25692 0.59379 0.58616 0.0
C293 C 0.28584 0.67605 0.57404 0.0
O294 O 0.22496 0.62223 0.56611 0.0
Co295 Co 0.23622 0.67471 0.59642 0.0
O296 O 0.2193 0.66157 0.56541 0.0
C297 C 0.21509 0.62348 0.62752 0.0
C298 C 0.27903 0.60549 0.60026 0.0
C299 C 0.21459 0.63719 0.55697 0.0
O300 O 0.22844 0.61364 0.61542 0.0
O301 O 0.2166 0.6481 0.62343 0.0
O302 O 0.28615 0.65342 0.5656 0.0
O303 O 0.27026 0.67101 0.59234 0.0
Co304 Co 0.63733 0.25483 0.73702 0.0
O305 O 0.63407 0.28166 0.71669 0.0
O306 O 0.59996 0.25187 0.74152 0.0
C307 C 0.68298 0.28729 0.74938 0.0
O308 O 0.63345 0.22513 0.76136 0.0
Co309 Co 0.68355 0.23723 0.72841 0.0
O310 O 0.67267 0.22 0.75966 0.0
C311 C 0.63127 0.21268 0.69884 0.0
C312 C 0.60844 0.27208 0.72567 0.0
C313 C 0.64927 0.21525 0.76947 0.0
O314 O 0.62002 0.22322 0.71257 0.0
O315 O 0.65738 0.21782 0.70118 0.0
O316 O 0.66056 0.28683 0.75856 0.0
O317 O 0.67738 0.27017 0.73185 0.0
Co318 Co 0.38872 0.62445 0.90588 0.0
O319 O 0.35818 0.62249 0.88717 0.0
O320 O 0.35191 0.58854 0.91271 0.0
C321 C 0.40838 0.672 0.91674 0.0
O322 O 0.41478 0.61974 0.92887 0.0
Co323 Co 0.45363 0.66662 0.89241 0.0
O324 O 0.4621 0.65397 0.92206 0.0
C325 C 0.41653 0.61356 0.86495 0.0
C326 C 0.34055 0.59756 0.89734 0.0
C327 C 0.4422 0.63288 0.93401 0.0
O328 O 0.39754 0.60338 0.88121 0.0
O329 O 0.43895 0.63988 0.86484 0.0
O330 O 0.38565 0.651 0.92735 0.0
O331 O 0.41665 0.66397 0.89875 0.0
Co332 Co 0.76363 0.38191 0.08814 0.0
O333 O 0.73422 0.38092 0.10781 0.0
O334 O 0.76457 0.41899 0.08592 0.0
C335 C 0.73467 0.33681 0.07255 0.0
O336 O 0.79531 0.39031 0.06461 0.0
Co337 Co 0.78435 0.33729 0.09491 0.0
O338 O 0.80582 0.3541 0.06583 0.0
C339 C 0.80431 0.38707 0.12709 0.0
C340 C 0.74283 0.4074 0.10035 0.0
C341 C 0.8086 0.37748 0.05689 0.0
O342 O 0.7931 0.3983 0.114 0.0
O343 O 0.80108 0.36159 0.12345 0.0
O344 O 0.73399 0.3596 0.06492 0.0
O345 O 0.75057 0.34141 0.0906 0.0
Co346 Co 0.38174 0.75479 0.23617 0.0
O347 O 0.3825 0.72768 0.21447 0.0
O348 O 0.41855 0.75623 0.23843 0.0
C349 C 0.33672 0.72321 0.25021 0.0
O350 O 0.38865 0.78438 0.26152 0.0
Co351 Co 0.3368 0.77503 0.23202 0.0
O352 O 0.35049 0.79124 0.26323 0.0
C353 C 0.38689 0.79908 0.20009 0.0
C354 C 0.40836 0.73604 0.22251 0.0
C355 C 0.37437 0.79497 0.27133 0.0
O356 O 0.39822 0.78701 0.21211 0.0
O357 O 0.3615 0.79507 0.20422 0.0
O358 O 0.35925 0.72235 0.25757 0.0
O359 O 0.34163 0.74105 0.23328 0.0
C360 C 0.18438 0.63457 0.31839 0.0
C361 C 0.16248 0.61417 0.30367 0.0
C362 C 0.2134 0.65235 0.31071 0.0
C363 C 0.2206 0.64904 0.28796 0.0
C364 C 0.19861 0.62761 0.27334 0.0
C365 C 0.16968 0.61068 0.2813 0.0
C366 C 0.23609 0.67535 0.32664 0.0
C367 C 0.20553 0.62293 0.24917 0.0
C368 C 0.28618 0.71271 0.25789 0.0
C369 C 0.30739 0.70484 0.26051 0.0
C370 C 0.25808 0.69515 0.26732 0.0
C371 C 0.25084 0.6687 0.2791 0.0
C372 C 0.27222 0.66067 0.28179 0.0
C373 C 0.30039 0.67907 0.27271 0.0
C374 C 0.23608 0.70481 0.26455 0.0
C375 C 0.26513 0.63231 0.29378 0.0
H376 H 0.17855 0.63732 0.33563 0.0
H377 H 0.15256 0.59481 0.27001 0.0
H378 H 0.25498 0.67214 0.32835 0.0
H379 H 0.24458 0.69781 0.31935 0.0
H380 H 0.22711 0.67453 0.34399 0.0
H381 H 0.1864 0.60395 0.2406 0.0
H382 H 0.21254 0.6432 0.23884 0.0
H383 H 0.22398 0.61887 0.24925 0.0
H384 H 0.29162 0.73275 0.24861 0.0
H385 H 0.31674 0.67287 0.27464 0.0
H386 H 0.22735 0.70591 0.28155 0.0
H387 H 0.21725 0.6883 0.25412 0.0
H388 H 0.2457 0.72682 0.25612 0.0
H389 H 0.25735 0.63201 0.31147 0.0
H390 H 0.28432 0.62944 0.29466 0.0
H391 H 0.24711 0.61304 0.2846 0.0
C392 C 0.54783 0.17816 0.47595 0.0
C393 C 0.54843 0.15887 0.4598 0.0
C394 C 0.55807 0.20785 0.4703 0.0
C395 C 0.56977 0.21847 0.44817 0.0
C396 C 0.571 0.19909 0.432 0.0
C397 C 0.55991 0.16934 0.43793 0.0
C398 C 0.55582 0.22767 0.48781 0.0
C399 C 0.58396 0.20974 0.40844 0.0
C400 C 0.573 0.28653 0.42293 0.0
C401 C 0.60219 0.30853 0.42718 0.0
C402 C 0.56185 0.25727 0.43039 0.0
C403 C 0.58062 0.24979 0.44178 0.0
C404 C 0.61007 0.27203 0.44626 0.0
C405 C 0.62039 0.30125 0.43917 0.0
C406 C 0.53011 0.2343 0.42583 0.0
C407 C 0.63093 0.2648 0.45788 0.0
H408 H 0.53865 0.16977 0.49279 0.0
H409 H 0.56031 0.15423 0.42554 0.0
H410 H 0.57785 0.24714 0.49143 0.0
H411 H 0.54221 0.23622 0.48088 0.0
H412 H 0.546 0.21592 0.50418 0.0
H413 H 0.58444 0.19218 0.39828 0.0
H414 H 0.57102 0.21729 0.39888 0.0
H415 H 0.60666 0.22902 0.40992 0.0
H416 H 0.55885 0.2922 0.41381 0.0
H417 H 0.64305 0.31822 0.44234 0.0
H418 H 0.51914 0.22281 0.442 0.0
H419 H 0.52868 0.21726 0.41387 0.0
H420 H 0.51793 0.24416 0.41828 0.0
H421 H 0.6221 0.25432 0.47479 0.0
H422 H 0.65301 0.28476 0.46048 0.0
H423 H 0.63324 0.24858 0.44737 0.0
C424 C 0.37922 0.53436 0.60739 0.0
C425 C 0.3816 0.52615 0.62975 0.0
C426 C 0.36189 0.54667 0.60266 0.0
C427 C 0.34601 0.55006 0.62065 0.0
C428 C 0.34798 0.54125 0.6432 0.0
C429 C 0.36608 0.52974 0.64754 0.0
C430 C 0.36098 0.55649 0.57851 0.0
C431 C 0.33092 0.54394 0.66273 0.0
C432 C 0.32437 0.60785 0.61401 0.0
C433 C 0.29541 0.59076 0.60615 0.0
C434 C 0.34107 0.59487 0.61869 0.0
C435 C 0.32826 0.5639 0.616 0.0
C436 C 0.29878 0.54639 0.60856 0.0
C437 C 0.28279 0.56011 0.60341 0.0
C438 C 0.37261 0.61443 0.62608 0.0
C439 C 0.28417 0.5132 0.60602 0.0
H440 H 0.39133 0.53159 0.59369 0.0
H441 H 0.36774 0.52302 0.66477 0.0
H442 H 0.3381 0.54461 0.57208 0.0
H443 H 0.36883 0.58053 0.57836 0.0
H444 H 0.37469 0.5524 0.56652 0.0
H445 H 0.3337 0.53468 0.679 0.0
H446 H 0.33818 0.56758 0.66555 0.0
H447 H 0.30725 0.53217 0.65839 0.0
H448 H 0.33432 0.63161 0.61595 0.0
H449 H 0.26037 0.54684 0.59743 0.0
H450 H 0.38724 0.61219 0.61381 0.0
H451 H 0.37599 0.60734 0.64313 0.0
H452 H 0.37936 0.63819 0.62708 0.0
H453 H 0.2957 0.50789 0.59279 0.0
H454 H 0.26074 0.50261 0.60108 0.0
H455 H 0.28564 0.50328 0.62238 0.0
C456 C 0.84392 0.40683 0.79399 0.0
C457 C 0.85815 0.39271 0.80273 0.0
C458 C 0.81533 0.39036 0.78516 0.0
C459 C 0.8003 0.359 0.78558 0.0
C460 C 0.81426 0.34458 0.79469 0.0
C461 C 0.84309 0.36156 0.80281 0.0
C462 C 0.8013 0.40651 0.77521 0.0
C463 C 0.79878 0.31116 0.79575 0.0
C464 C 0.71722 0.31578 0.78134 0.0
C465 C 0.71288 0.30578 0.75861 0.0
C466 C 0.74558 0.33309 0.79039 0.0
C467 C 0.77011 0.34115 0.77616 0.0
C468 C 0.7658 0.33151 0.75307 0.0
C469 C 0.7372 0.31358 0.74466 0.0
C470 C 0.7493 0.34231 0.81526 0.0
C471 C 0.7914 0.34017 0.73723 0.0
H472 H 0.85505 0.43081 0.79413 0.0
H473 H 0.85394 0.35028 0.80896 0.0
H474 H 0.79488 0.39963 0.75714 0.0
H475 H 0.78103 0.40056 0.7848 0.0
H476 H 0.81616 0.43098 0.77573 0.0
H477 H 0.81213 0.3034 0.80449 0.0
H478 H 0.77765 0.30206 0.80499 0.0
H479 H 0.79368 0.30182 0.77816 0.0
H480 H 0.6984 0.30958 0.79219 0.0
H481 H 0.73385 0.30603 0.72702 0.0
H482 H 0.76241 0.36682 0.81664 0.0
H483 H 0.7615 0.33359 0.82446 0.0
H484 H 0.72796 0.33414 0.82402 0.0
H485 H 0.80583 0.36467 0.73673 0.0
H486 H 0.78429 0.33195 0.71948 0.0
H487 H 0.80475 0.33113 0.74377 0.0
C488 C 0.50005 0.84083 0.95975 0.0
C489 C 0.48323 0.85416 0.95714 0.0
C490 C 0.48878 0.81106 0.95375 0.0
C491 C 0.46025 0.79435 0.9444 0.0
C492 C 0.44325 0.80767 0.94146 0.0
C493 C 0.4548 0.83727 0.94809 0.0
C494 C 0.50741 0.79749 0.95744 0.0
C495 C 0.41283 0.79064 0.93128 0.0
C496 C 0.4406 0.72612 0.90891 0.0
C497 C 0.42293 0.70321 0.92421 0.0
C498 C 0.453 0.75593 0.91529 0.0
C499 C 0.44811 0.76291 0.93766 0.0
C500 C 0.43101 0.73983 0.95339 0.0
C501 C 0.41835 0.71021 0.94638 0.0
C502 C 0.47069 0.77993 0.89792 0.0
C503 C 0.42586 0.74641 0.97754 0.0
H504 H 0.52222 0.85372 0.96629 0.0
H505 H 0.44137 0.84707 0.94637 0.0
H506 H 0.49557 0.77751 0.96845 0.0
H507 H 0.51164 0.79021 0.9408 0.0
H508 H 0.52878 0.8132 0.9656 0.0
H509 H 0.40283 0.80451 0.92945 0.0
H510 H 0.41361 0.78194 0.91415 0.0
H511 H 0.39838 0.77129 0.94227 0.0
H512 H 0.44405 0.72074 0.89171 0.0
H513 H 0.40485 0.6925 0.95829 0.0
H514 H 0.49297 0.79542 0.90468 0.0
H515 H 0.46016 0.79306 0.8947 0.0
H516 H 0.47275 0.77079 0.88134 0.0
H517 H 0.44712 0.76134 0.98612 0.0
H518 H 0.41334 0.72597 0.98802 0.0
H519 H 0.41354 0.75809 0.97715 0.0
C520 C 0.65909 0.48534 0.15021 0.0
C521 C 0.64394 0.48968 0.13252 0.0
C522 C 0.67698 0.47365 0.14563 0.0
C523 C 0.67903 0.46539 0.12291 0.0
C524 C 0.66369 0.46976 0.105 0.0
C525 C 0.6466 0.48223 0.11 0.0
C526 C 0.6935 0.46994 0.16508 0.0
C527 C 0.66472 0.46055 0.08067 0.0
C528 C 0.7408 0.45353 0.10499 0.0
C529 C 0.7273 0.42269 0.10704 0.0
C530 C 0.72562 0.4679 0.1107 0.0
C531 C 0.69606 0.45087 0.11801 0.0
C532 C 0.68239 0.41972 0.12011 0.0
C533 C 0.69831 0.40607 0.11488 0.0
C534 C 0.74112 0.50124 0.10882 0.0
C535 C 0.65072 0.4007 0.12733 0.0
H536 H 0.65712 0.49138 0.1676 0.0
H537 H 0.63469 0.48549 0.09639 0.0
H538 H 0.6854 0.44608 0.16771 0.0
H539 H 0.71715 0.48102 0.16079 0.0
H540 H 0.6911 0.47928 0.18143 0.0
H541 H 0.65172 0.4657 0.06872 0.0
H542 H 0.6877 0.47193 0.07452 0.0
H543 H 0.65606 0.43635 0.08005 0.0
H544 H 0.76327 0.46643 0.09905 0.0
H545 H 0.68772 0.38217 0.11631 0.0
H546 H 0.73968 0.51082 0.12535 0.0
H547 H 0.73027 0.50748 0.09565 0.0
H548 H 0.76459 0.51136 0.10415 0.0
H549 H 0.6475 0.40762 0.14449 0.0
H550 H 0.64333 0.37676 0.128 0.0
H551 H 0.63649 0.40373 0.11514 0.0
C552 C 0.36239 0.83754 0.51696 0.0
C553 C 0.39302 0.8514 0.51846 0.0
C554 C 0.34393 0.8084 0.52473 0.0
C555 C 0.35632 0.79295 0.53479 0.0
C556 C 0.38714 0.80663 0.53625 0.0
C557 C 0.4051 0.83551 0.52781 0.0
C558 C 0.31114 0.79431 0.52251 0.0
C559 C 0.40117 0.79097 0.54713 0.0
C560 C 0.30998 0.73097 0.57671 0.0
C561 C 0.30264 0.70577 0.56363 0.0
C562 C 0.32741 0.7595 0.5675 0.0
C563 C 0.33708 0.76281 0.54448 0.0
C564 C 0.32895 0.73738 0.53098 0.0
C565 C 0.31209 0.70912 0.54082 0.0
C566 C 0.33609 0.7861 0.58256 0.0
C567 C 0.33823 0.74004 0.50621 0.0
H568 H 0.3527 0.84965 0.51015 0.0
H569 H 0.42869 0.84566 0.52862 0.0
H570 H 0.30155 0.77254 0.51376 0.0
H571 H 0.30106 0.79014 0.53979 0.0
H572 H 0.30508 0.80847 0.51277 0.0
H573 H 0.42548 0.80474 0.54699 0.0
H574 H 0.39368 0.78518 0.56515 0.0
H575 H 0.39431 0.76993 0.53796 0.0
H576 H 0.30279 0.7284 0.59439 0.0
H577 H 0.30621 0.68961 0.53063 0.0
H578 H 0.32872 0.80034 0.57476 0.0
H579 H 0.36032 0.79969 0.58401 0.0
H580 H 0.32665 0.7797 0.60007 0.0
H581 H 0.33134 0.75358 0.49657 0.0
H582 H 0.32875 0.71808 0.49773 0.0
H583 H 0.36246 0.7516 0.5051 0.0
C584 C 0.5073 0.33509 0.68288 0.0
C585 C 0.52279 0.36583 0.68686 0.0
C586 C 0.51914 0.31765 0.68902 0.0
C587 C 0.54686 0.3311 0.69986 0.0
C588 C 0.56236 0.36194 0.70433 0.0
C589 C 0.55034 0.37895 0.69753 0.0
C590 C 0.50219 0.2849 0.68362 0.0
C591 C 0.59187 0.37709 0.71609 0.0
C592 C 0.5701 0.28478 0.73347 0.0
C593 C 0.59045 0.28451 0.71845 0.0
C594 C 0.5552 0.29936 0.72748 0.0
C595 C 0.56034 0.31331 0.70578 0.0
C596 C 0.57983 0.3118 0.69017 0.0
C597 C 0.59493 0.29774 0.69681 0.0
C598 C 0.53499 0.30098 0.74475 0.0
C599 C 0.58539 0.32576 0.66667 0.0
H600 H 0.48579 0.32454 0.67504 0.0
H601 H 0.56284 0.40269 0.70032 0.0
H602 H 0.51533 0.27942 0.67216 0.0
H603 H 0.49799 0.27183 0.69957 0.0
H604 H 0.48088 0.27781 0.67517 0.0
H605 H 0.60021 0.40086 0.71964 0.0
H606 H 0.5904 0.36579 0.73253 0.0
H607 H 0.60807 0.37557 0.70519 0.0
H608 H 0.56674 0.27468 0.75026 0.0
H609 H 0.61046 0.29729 0.68508 0.0
H610 H 0.51319 0.29312 0.73699 0.0
H611 H 0.54406 0.32438 0.74998 0.0
H612 H 0.53207 0.28757 0.76032 0.0
H613 H 0.56432 0.31816 0.65768 0.0
H614 H 0.59916 0.32037 0.65587 0.0
H615 H 0.59662 0.35021 0.66834 0.0
C616 C 0.17076 0.50325 0.86059 0.0
C617 C 0.15764 0.51932 0.86709 0.0
C618 C 0.20021 0.51363 0.86587 0.0
C619 C 0.21671 0.54048 0.87819 0.0
C620 C 0.20328 0.55633 0.88534 0.0
C621 C 0.17395 0.54566 0.87956 0.0
C622 C 0.21391 0.49638 0.85765 0.0
C623 C 0.22004 0.58487 0.89874 0.0
C624 C 0.28845 0.55984 0.90706 0.0
C625 C 0.30896 0.58095 0.89182 0.0
C626 C 0.25824 0.54597 0.90267 0.0
C627 C 0.2485 0.55309 0.88241 0.0
C628 C 0.26922 0.57353 0.86658 0.0
C629 C 0.29918 0.58737 0.87157 0.0
C630 C 0.23675 0.52451 0.92005 0.0
C631 C 0.25975 0.58137 0.84461 0.0
H632 H 0.15818 0.48297 0.85082 0.0
H633 H 0.16368 0.55788 0.88484 0.0
H634 H 0.23158 0.50992 0.84517 0.0
H635 H 0.22412 0.49147 0.87221 0.0
H636 H 0.1977 0.47516 0.8493 0.0
H637 H 0.20588 0.59345 0.90428 0.0
H638 H 0.23014 0.58144 0.91416 0.0
H639 H 0.23809 0.60203 0.88807 0.0
H640 H 0.29596 0.5549 0.92277 0.0
H641 H 0.31499 0.60349 0.85963 0.0
H642 H 0.22107 0.50314 0.9117 0.0
H643 H 0.22379 0.5336 0.92734 0.0
H644 H 0.24783 0.52015 0.93432 0.0
H645 H 0.24461 0.56094 0.83491 0.0
H646 H 0.27863 0.59612 0.83341 0.0
H647 H 0.24766 0.59273 0.84864 0.0
C648 C 0.62313 0.16829 0.04218 0.0
C649 C 0.62666 0.16018 0.02013 0.0
C650 C 0.64054 0.19764 0.04978 0.0
C651 C 0.66247 0.21911 0.03514 0.0
C652 C 0.666 0.21095 0.01277 0.0
C653 C 0.64775 0.18155 0.00542 0.0
C654 C 0.63564 0.20562 0.07355 0.0
C655 C 0.68954 0.23306 0.99687 0.0
C656 C 0.69249 0.30028 0.04877 0.0
C657 C 0.71725 0.30727 0.06193 0.0
C658 C 0.67456 0.27171 0.03976 0.0
C659 C 0.68205 0.2499 0.04352 0.0
C660 C 0.70763 0.25719 0.05613 0.0
C661 C 0.72473 0.28572 0.06546 0.0
C662 C 0.64712 0.26459 0.02685 0.0
C663 C 0.71671 0.23474 0.06002 0.0
H664 H 0.60671 0.15158 0.05345 0.0
H665 H 0.6505 0.175 0.98842 0.0
H666 H 0.65544 0.21287 0.08421 0.0
H667 H 0.63192 0.22445 0.07264 0.0
H668 H 0.6166 0.18671 0.08225 0.0
H669 H 0.68917 0.22323 0.97993 0.0
H670 H 0.68684 0.25233 0.99412 0.0
H671 H 0.7114 0.2416 0.00478 0.0
H672 H 0.6866 0.3169 0.04614 0.0
H673 H 0.74401 0.29118 0.07548 0.0
H674 H 0.62759 0.24696 0.03601 0.0
H675 H 0.6472 0.25594 0.00954 0.0
H676 H 0.64478 0.28424 0.02495 0.0
H677 H 0.70006 0.2162 0.07066 0.0
H678 H 0.73828 0.24455 0.06876 0.0
H679 H 0.71796 0.22519 0.04341 0.0
C680 C 0.45863 0.62266 0.19207 0.0
C681 C 0.487 0.63566 0.18286 0.0
C682 C 0.44689 0.64002 0.19862 0.0
C683 C 0.46349 0.67109 0.19524 0.0
C684 C 0.49189 0.68438 0.18566 0.0
C685 C 0.50348 0.66661 0.17996 0.0
C686 C 0.41669 0.62508 0.20921 0.0
C687 C 0.51002 0.71738 0.18134 0.0
C688 C 0.41951 0.70915 0.19296 0.0
C689 C 0.42444 0.72174 0.21487 0.0
C690 C 0.43298 0.69354 0.18604 0.0
C691 C 0.45101 0.68963 0.20169 0.0
C692 C 0.45629 0.7026 0.22377 0.0
C693 C 0.44327 0.71891 0.22997 0.0
C694 C 0.42755 0.68084 0.1621 0.0
C695 C 0.47478 0.69829 0.24115 0.0
H696 H 0.44538 0.59881 0.19403 0.0
H697 H 0.52564 0.67715 0.17339 0.0
H698 H 0.41763 0.63529 0.22607 0.0
H699 H 0.40169 0.62833 0.19811 0.0
H700 H 0.40723 0.6009 0.21171 0.0
H701 H 0.53122 0.72409 0.17286 0.0
H702 H 0.49764 0.72434 0.17037 0.0
H703 H 0.51461 0.72958 0.19777 0.0
H704 H 0.40506 0.7115 0.18122 0.0
H705 H 0.44685 0.7284 0.24701 0.0
H706 H 0.41526 0.65627 0.16294 0.0
H707 H 0.4487 0.68797 0.15342 0.0
H708 H 0.41485 0.6878 0.15148 0.0
H709 H 0.46462 0.67433 0.24503 0.0
H710 H 0.47721 0.71032 0.25741 0.0
H711 H 0.49689 0.70608 0.23406 0.0
C712 C 0.85012 0.47756 0.3869 0.0
C713 C 0.8622 0.4893 0.36531 0.0
C714 C 0.82036 0.46638 0.39147 0.0
C715 C 0.8023 0.4675 0.3742 0.0
C716 C 0.81448 0.48014 0.35262 0.0
C717 C 0.84415 0.49055 0.34835 0.0
C718 C 0.80807 0.45269 0.41461 0.0
C719 C 0.796 0.48203 0.33385 0.0
C720 C 0.72096 0.41048 0.37677 0.0
C721 C 0.70978 0.42646 0.38734 0.0
C722 C 0.751 0.42364 0.37235 0.0
C723 C 0.7703 0.45373 0.37824 0.0
C724 C 0.75906 0.47026 0.38834 0.0
C725 C 0.72891 0.45631 0.39301 0.0
C726 C 0.76215 0.40511 0.3619 0.0
C727 C 0.77893 0.50257 0.39437 0.0
H728 H 0.86391 0.47699 0.40029 0.0
H729 H 0.853 0.49908 0.33148 0.0
H730 H 0.79756 0.46385 0.42279 0.0
H731 H 0.79088 0.42898 0.41244 0.0
H732 H 0.82517 0.45415 0.42636 0.0
H733 H 0.80932 0.49486 0.31881 0.0
H734 H 0.77932 0.4594 0.32804 0.0
H735 H 0.78406 0.49261 0.34044 0.0
H736 H 0.70631 0.38732 0.37249 0.0
H737 H 0.72032 0.46876 0.40111 0.0
H738 H 0.77807 0.40432 0.37369 0.0
H739 H 0.77388 0.4153 0.34565 0.0
H740 H 0.74422 0.38203 0.35828 0.0
H741 H 0.79505 0.50496 0.40752 0.0
H742 H 0.76657 0.51267 0.40107 0.0
H743 H 0.79152 0.51521 0.37904 0.0
C744 C 0.09498 0.56809 0.45682 0.0
C745 C 0.10749 0.57844 0.43511 0.0
C746 C 0.11246 0.57593 0.47659 0.0
C747 C 0.14325 0.59461 0.47464 0.0
C748 C 0.15609 0.60462 0.45274 0.0
C749 C 0.13806 0.59646 0.43324 0.0
C750 C 0.0979 0.56493 0.49964 0.0
C751 C 0.18884 0.62449 0.44994 0.0
C752 C 0.1842 0.64166 0.52631 0.0
C753 C 0.19624 0.62586 0.53594 0.0
C754 C 0.16706 0.63175 0.50638 0.0
C755 C 0.16175 0.60534 0.49567 0.0
C756 C 0.17381 0.58924 0.50518 0.0
C757 C 0.1909 0.59967 0.52522 0.0
C758 C 0.15457 0.64956 0.49682 0.0
C759 C 0.16862 0.56099 0.49419 0.0
H760 H 0.07136 0.55444 0.45845 0.0
H761 H 0.14791 0.60417 0.41649 0.0
H762 H 0.10781 0.55388 0.50893 0.0
H763 H 0.10148 0.58399 0.51026 0.0
H764 H 0.07393 0.54908 0.49809 0.0
H765 H 0.19552 0.62891 0.43165 0.0
H766 H 0.1964 0.64599 0.45864 0.0
H767 H 0.20025 0.61428 0.4582 0.0
H768 H 0.18813 0.66194 0.53435 0.0
H769 H 0.20013 0.58732 0.53244 0.0
H770 H 0.13031 0.63568 0.49622 0.0
H771 H 0.16234 0.6565 0.47898 0.0
H772 H 0.16084 0.66969 0.50716 0.0
H773 H 0.14478 0.54442 0.49359 0.0
H774 H 0.17976 0.55121 0.50357 0.0
H775 H 0.17665 0.5654 0.47624 0.0
C776 C 0.5316 0.08778 0.60766 0.0
C777 C 0.53282 0.09955 0.58583 0.0
C778 C 0.54561 0.10638 0.62649 0.0
C779 C 0.56133 0.13752 0.62341 0.0
C780 C 0.56167 0.14955 0.60161 0.0
C781 C 0.54735 0.13041 0.58307 0.0
C782 C 0.54451 0.09267 0.6495 0.0
C783 C 0.57825 0.18263 0.59762 0.0
C784 C 0.58423 0.18669 0.67638 0.0
C785 C 0.61326 0.19366 0.67946 0.0
C786 C 0.56708 0.16862 0.65813 0.0
C787 C 0.57924 0.15732 0.64254 0.0
C788 C 0.60854 0.16444 0.64542 0.0
C789 C 0.62514 0.18245 0.66382 0.0
C790 C 0.5359 0.16145 0.6556 0.0
C791 C 0.62233 0.15287 0.62913 0.0
H792 H 0.52002 0.06393 0.60994 0.0
H793 H 0.54856 0.13961 0.5662 0.0
H794 H 0.56678 0.09772 0.65426 0.0
H795 H 0.53724 0.10231 0.66297 0.0
H796 H 0.52951 0.06821 0.64945 0.0
H797 H 0.57431 0.18847 0.58023 0.0
H798 H 0.57187 0.19372 0.61053 0.0
H799 H 0.60209 0.19166 0.59967 0.0
H800 H 0.5748 0.19524 0.6883 0.0
H801 H 0.64753 0.18771 0.66592 0.0
H802 H 0.52059 0.13713 0.65681 0.0
H803 H 0.53274 0.16851 0.63846 0.0
H804 H 0.52988 0.17243 0.66891 0.0
H805 H 0.60987 0.12827 0.62944 0.0
H806 H 0.64555 0.16093 0.63349 0.0
H807 H 0.62141 0.15979 0.61134 0.0
C808 C 0.39566 0.50305 0.76121 0.0
C809 C 0.42399 0.51142 0.75373 0.0
C810 C 0.39138 0.51828 0.77912 0.0
C811 C 0.41598 0.54172 0.79042 0.0
C812 C 0.44454 0.54992 0.78331 0.0
C813 C 0.44817 0.53522 0.76479 0.0
C814 C 0.36057 0.50957 0.78576 0.0
C815 C 0.47142 0.57439 0.79521 0.0
C816 C 0.41504 0.60326 0.82324 0.0
C817 C 0.41317 0.59375 0.84591 0.0
C818 C 0.41393 0.58551 0.80488 0.0
C819 C 0.41222 0.55825 0.80945 0.0
C820 C 0.40975 0.54834 0.83239 0.0
C821 C 0.4097 0.56602 0.85037 0.0
C822 C 0.41552 0.59637 0.78066 0.0
C823 C 0.40894 0.51996 0.83802 0.0
H824 H 0.37671 0.48454 0.75318 0.0
H825 H 0.47018 0.5428 0.75887 0.0
H826 H 0.35632 0.5021 0.80387 0.0
H827 H 0.35796 0.52907 0.78441 0.0
H828 H 0.3438 0.49153 0.77478 0.0
H829 H 0.49199 0.57643 0.78879 0.0
H830 H 0.47279 0.59591 0.79255 0.0
H831 H 0.46991 0.57024 0.81395 0.0
H832 H 0.41746 0.62466 0.81989 0.0
H833 H 0.40846 0.55888 0.86799 0.0
H834 H 0.39837 0.57843 0.76987 0.0
H835 H 0.43707 0.60281 0.77304 0.0
H836 H 0.41275 0.61585 0.77996 0.0
H837 H 0.39149 0.50119 0.82807 0.0
H838 H 0.40513 0.51444 0.85656 0.0
H839 H 0.4301 0.5222 0.8331 0.0
C840 C 0.92018 0.45355 0.95131 0.0
C841 C 0.91414 0.43155 0.93507 0.0
C842 C 0.90319 0.44683 0.97129 0.0
C843 C 0.87923 0.4176 0.97471 0.0
C844 C 0.87251 0.3956 0.95788 0.0
C845 C 0.89034 0.40277 0.93838 0.0
C846 C 0.91148 0.4707 0.98907 0.0
C847 C 0.84678 0.36436 0.96063 0.0
C848 C 0.85256 0.38744 0.03452 0.0
C849 C 0.82777 0.38997 0.03661 0.0
C850 C 0.87011 0.39743 0.01481 0.0
C851 C 0.8622 0.40947 0.99645 0.0
C852 C 0.83738 0.41245 0.99857 0.0
C853 C 0.82066 0.40302 0.01881 0.0
C854 C 0.89684 0.39458 0.01348 0.0
C855 C 0.82788 0.42455 0.97916 0.0
H856 H 0.93875 0.47578 0.94868 0.0
H857 H 0.88567 0.38589 0.92564 0.0
H858 H 0.89245 0.47308 0.99301 0.0
H859 H 0.91777 0.46432 0.00524 0.0
H860 H 0.93003 0.49255 0.98342 0.0
H861 H 0.84314 0.35059 0.94515 0.0
H862 H 0.85053 0.35359 0.97549 0.0
H863 H 0.82652 0.36472 0.96418 0.0
H864 H 0.85825 0.3776 0.04837 0.0
H865 H 0.80134 0.40476 0.02033 0.0
H866 H 0.91642 0.41623 0.00887 0.0
H867 H 0.89378 0.37856 0.99983 0.0
H868 H 0.90122 0.38689 0.0299 0.0
H869 H 0.84618 0.4467 0.97391 0.0
H870 H 0.80875 0.42649 0.98385 0.0
H871 H 0.82194 0.40975 0.96404 0.0
C872 C 0.46141 0.87992 0.08178 0.0
C873 C 0.48026 0.91061 0.08453 0.0
C874 C 0.44723 0.86147 0.10068 0.0
C875 C 0.45202 0.87397 0.1229 0.0
C876 C 0.47147 0.90484 0.12586 0.0
C877 C 0.48534 0.92278 0.10665 0.0
C878 C 0.42672 0.82865 0.09683 0.0
C879 C 0.4771 0.91901 0.14926 0.0
C880 C 0.39248 0.83265 0.16746 0.0
C881 C 0.40389 0.81851 0.18051 0.0
C882 C 0.40798 0.85079 0.14876 0.0
C883 C 0.43561 0.85498 0.14288 0.0
C884 C 0.44737 0.84093 0.15596 0.0
C885 C 0.43139 0.82287 0.17462 0.0
C886 C 0.39468 0.86539 0.13523 0.0
C887 C 0.47679 0.84489 0.1502 0.0
H888 H 0.45773 0.8703 0.0648 0.0
H889 H 0.49961 0.9465 0.10889 0.0
H890 H 0.43338 0.81579 0.10763 0.0
H891 H 0.40416 0.82219 0.10202 0.0
H892 H 0.42627 0.82224 0.07862 0.0
H893 H 0.49395 0.94305 0.14882 0.0
H894 H 0.45649 0.9163 0.15622 0.0
H895 H 0.48441 0.90785 0.16132 0.0
H896 H 0.37131 0.82954 0.1718 0.0
H897 H 0.44044 0.81207 0.18452 0.0
H898 H 0.39181 0.85814 0.11707 0.0
H899 H 0.40964 0.88982 0.1354 0.0
H900 H 0.37307 0.86006 0.14213 0.0
H901 H 0.47644 0.83707 0.13248 0.0
H902 H 0.48295 0.83258 0.16214 0.0
H903 H 0.49402 0.86875 0.15081 0.0
C904 C 0.58242 0.46264 0.25065 0.0
C905 C 0.5874 0.4913 0.25305 0.0
C906 C 0.5859 0.44796 0.26934 0.0
C907 C 0.59391 0.46213 0.29102 0.0
C908 C 0.59943 0.49135 0.29336 0.0
C909 C 0.59631 0.50572 0.27423 0.0
C910 C 0.5803 0.41704 0.26602 0.0
C911 C 0.60752 0.50699 0.31624 0.0
C912 C 0.5694 0.4103 0.34231 0.0
C913 C 0.5955 0.41194 0.34885 0.0
C914 C 0.56883 0.42721 0.32396 0.0
C915 C 0.59483 0.44563 0.31143 0.0
C916 C 0.6213 0.44747 0.31799 0.0
C917 C 0.62139 0.43088 0.33684 0.0
C918 C 0.5403 0.42514 0.31785 0.0
C919 C 0.6493 0.46634 0.30475 0.0
H920 H 0.57551 0.45164 0.23416 0.0
H921 H 0.59993 0.52785 0.27595 0.0
H922 H 0.59916 0.41573 0.27249 0.0
H923 H 0.56076 0.40099 0.27604 0.0
H924 H 0.57655 0.41014 0.24774 0.0
H925 H 0.61235 0.53013 0.31496 0.0
H926 H 0.58922 0.49467 0.32852 0.0
H927 H 0.62697 0.50741 0.32346 0.0
H928 H 0.5494 0.39592 0.3517 0.0
H929 H 0.64158 0.43206 0.34175 0.0
H930 H 0.53327 0.41557 0.30044 0.0
H931 H 0.54331 0.4476 0.31752 0.0
H932 H 0.52248 0.41117 0.33014 0.0
H933 H 0.64637 0.45836 0.28678 0.0
H934 H 0.66816 0.46585 0.31235 0.0
H935 H 0.65467 0.48966 0.30416 0.0
C936 C 0.44751 0.92018 0.36714 0.0
C937 C 0.44276 0.90886 0.38952 0.0
C938 C 0.4378 0.90119 0.34808 0.0
C939 C 0.42288 0.87012 0.35147 0.0
C940 C 0.41866 0.85857 0.374 0.0
C941 C 0.42869 0.87809 0.39275 0.0
C942 C 0.44289 0.91438 0.32432 0.0
C943 C 0.40274 0.82558 0.37832 0.0
C944 C 0.37008 0.82262 0.30453 0.0
C945 C 0.3865 0.81311 0.29243 0.0
C946 C 0.38152 0.84075 0.32395 0.0
C947 C 0.41015 0.84974 0.33151 0.0
C948 C 0.42673 0.83989 0.31967 0.0
C949 C 0.41469 0.82163 0.30029 0.0
C950 C 0.36307 0.85065 0.33619 0.0
C951 C 0.45736 0.84905 0.32724 0.0
H952 H 0.45876 0.94395 0.36453 0.0
H953 H 0.4247 0.8692 0.41002 0.0
H954 H 0.45413 0.90597 0.31349 0.0
H955 H 0.42155 0.90748 0.31608 0.0
H956 H 0.45628 0.93899 0.32455 0.0
H957 H 0.40292 0.82025 0.39673 0.0
H958 H 0.37963 0.81521 0.37262 0.0
H959 H 0.41285 0.81535 0.36822 0.0
H960 H 0.34822 0.81606 0.29874 0.0
H961 H 0.42759 0.81444 0.29111 0.0
H962 H 0.37409 0.87517 0.33552 0.0
H963 H 0.36068 0.84422 0.35454 0.0
H964 H 0.34087 0.84095 0.32856 0.0
H965 H 0.47176 0.87351 0.32611 0.0
H966 H 0.467 0.83872 0.31665 0.0
H967 H 0.45719 0.8428 0.34543 0.0
C968 C 0.5458 0.41705 0.56173 0.0
C969 C 0.52907 0.43043 0.55911 0.0
C970 C 0.55736 0.4104 0.5426 0.0
C971 C 0.55207 0.41731 0.52033 0.0
C972 C 0.53621 0.4319 0.51765 0.0
C973 C 0.52488 0.43824 0.53706 0.0
C974 C 0.5741 0.39478 0.54617 0.0
C975 C 0.53022 0.43978 0.49421 0.0
C976 C 0.59509 0.41474 0.46913 0.0
C977 C 0.57514 0.38689 0.45971 0.0
C978 C 0.58811 0.42491 0.48903 0.0
C979 C 0.56059 0.40677 0.49976 0.0
C980 C 0.54059 0.37851 0.49053 0.0
C981 C 0.54808 0.36896 0.47068 0.0
C982 C 0.60997 0.45517 0.49841 0.0
C983 C 0.51105 0.35842 0.50149 0.0
H984 H 0.54896 0.41076 0.5787 0.0
H985 H 0.51242 0.44907 0.53496 0.0
H986 H 0.56118 0.37187 0.53932 0.0
H987 H 0.59514 0.4063 0.53664 0.0
H988 H 0.57879 0.39358 0.56456 0.0
H989 H 0.5197 0.45325 0.49516 0.0
H990 H 0.5509 0.45233 0.48434 0.0
H991 H 0.51555 0.41919 0.4845 0.0
H992 H 0.61606 0.42876 0.46084 0.0
H993 H 0.53252 0.34732 0.46372 0.0
H994 H 0.61501 0.45331 0.51658 0.0
H995 H 0.60045 0.46954 0.49805 0.0
H996 H 0.63076 0.46618 0.48851 0.0
H997 H 0.51391 0.35412 0.51964 0.0
H998 H 0.49829 0.3368 0.49248 0.0
H999 H 0.49806 0.3694 0.50143 0.0
C1000 C 0.10349 0.51473 0.72388 0.0
C1001 C 0.10905 0.53034 0.7445 0.0
C1002 C 0.12122 0.52814 0.70454 0.0
C1003 C 0.14542 0.55759 0.70613 0.0
C1004 C 0.15181 0.5729 0.7273 0.0
C1005 C 0.13328 0.55921 0.74616 0.0
C1006 C 0.11328 0.51133 0.68218 0.0
C1007 C 0.17775 0.60405 0.72986 0.0
C1008 C 0.20398 0.58747 0.6596 0.0
C1009 C 0.19677 0.60551 0.64704 0.0
C1010 C 0.18743 0.5716 0.67888 0.0
C1011 C 0.1627 0.57326 0.68532 0.0
C1012 C 0.15485 0.59073 0.67222 0.0
C1013 C 0.17219 0.60692 0.65345 0.0
C1014 C 0.19686 0.55376 0.69272 0.0
C1015 C 0.12825 0.59253 0.67816 0.0
H1016 H 0.08456 0.49244 0.72266 0.0
H1017 H 0.13756 0.57114 0.76221 0.0
H1018 H 0.10688 0.52262 0.66944 0.0
H1019 H 0.13247 0.51115 0.67508 0.0
H1020 H 0.09487 0.48806 0.68413 0.0
H1021 H 0.18134 0.61172 0.74795 0.0
H1022 H 0.19794 0.60532 0.72341 0.0
H1023 H 0.17422 0.61953 0.71941 0.0
H1024 H 0.22307 0.58646 0.65476 0.0
H1025 H 0.16635 0.62058 0.64362 0.0
H1026 H 0.17863 0.53037 0.69401 0.0
H1027 H 0.20241 0.56266 0.71044 0.0
H1028 H 0.2162 0.55421 0.68515 0.0
H1029 H 0.10852 0.56992 0.67914 0.0
H1030 H 0.12413 0.60563 0.66541 0.0
H1031 H 0.13121 0.60294 0.69524 0.0
C1032 C 0.61226 0.13519 0.89268 0.0
C1033 C 0.59392 0.1044 0.89018 0.0
C1034 C 0.62113 0.15413 0.87355 0.0
C1035 C 0.61151 0.14197 0.85138 0.0
C1036 C 0.59294 0.11092 0.84876 0.0
C1037 C 0.58436 0.09253 0.86817 0.0
C1038 C 0.64086 0.18713 0.87706 0.0
C1039 C 0.58237 0.09706 0.82541 0.0
C1040 C 0.61419 0.19106 0.80236 0.0
C1041 C 0.63979 0.19709 0.79078 0.0
C1042 C 0.6049 0.17347 0.82227 0.0
C1043 C 0.62155 0.16157 0.83081 0.0
C1044 C 0.64752 0.1678 0.81936 0.0
C1045 C 0.65633 0.18547 0.79955 0.0
C1046 C 0.57711 0.16737 0.83405 0.0
C1047 C 0.66588 0.15552 0.8279 0.0
H1048 H 0.61942 0.14453 0.90966 0.0
H1049 H 0.57048 0.06873 0.86608 0.0
H1050 H 0.66175 0.19527 0.86767 0.0
H1051 H 0.63036 0.19891 0.86994 0.0
H1052 H 0.64591 0.19311 0.89544 0.0
H1053 H 0.56749 0.07261 0.82635 0.0
H1054 H 0.57062 0.1067 0.81683 0.0
H1055 H 0.60139 0.10202 0.81445 0.0
H1056 H 0.60127 0.19996 0.79582 0.0
H1057 H 0.67617 0.18997 0.79085 0.0
H1058 H 0.58172 0.1745 0.85223 0.0
H1059 H 0.56089 0.14319 0.834 0.0
H1060 H 0.5671 0.17894 0.82564 0.0
H1061 H 0.67275 0.16256 0.84588 0.0
H1062 H 0.68579 0.1629 0.8173 0.0
H1063 H 0.65269 0.13092 0.82779 0.0
C1064 C 0.50582 0.61473 0.05246 0.0
C1065 C 0.50012 0.58595 0.05594 0.0
C1066 C 0.49521 0.62173 0.03292 0.0
C1067 C 0.47919 0.59954 0.01625 0.0
C1068 C 0.47348 0.5704 0.01975 0.0
C1069 C 0.48373 0.56386 0.03975 0.0
C1070 C 0.5012 0.65286 0.03008 0.0
C1071 C 0.45707 0.54632 0.00216 0.0
C1072 C 0.43208 0.61114 0.97351 0.0
C1073 C 0.45114 0.62333 0.95476 0.0
C1074 C 0.44091 0.60331 0.99368 0.0
C1075 C 0.46918 0.6071 0.99487 0.0
C1076 C 0.48821 0.61871 0.97576 0.0
C1077 C 0.4791 0.62703 0.95605 0.0
C1078 C 0.42024 0.59161 0.01388 0.0
C1079 C 0.51826 0.62245 0.97615 0.0
H1080 H 0.51838 0.63167 0.06516 0.0
H1081 H 0.4795 0.54164 0.04255 0.0
H1082 H 0.51496 0.66328 0.01467 0.0
H1083 H 0.48033 0.65232 0.02741 0.0
H1084 H 0.5126 0.66705 0.04518 0.0
H1085 H 0.45439 0.52482 0.00751 0.0
H1086 H 0.43505 0.54306 0.99916 0.0
H1087 H 0.46895 0.55303 0.98557 0.0
H1088 H 0.41053 0.60846 0.97266 0.0
H1089 H 0.49382 0.63621 0.94152 0.0
H1090 H 0.43049 0.60644 0.02886 0.0
H1091 H 0.4159 0.56937 0.01885 0.0
H1092 H 0.39899 0.5899 0.01017 0.0
H1093 H 0.53187 0.63855 0.98965 0.0
H1094 H 0.52981 0.63041 0.95947 0.0
H1095 H 0.51643 0.60103 0.98042 0.0
C1096 C 0.92553 0.48786 0.22003 0.0
C1097 C 0.91363 0.48413 0.24209 0.0
C1098 C 0.90749 0.47383 0.20097 0.0
C1099 C 0.8768 0.45562 0.20405 0.0
C1100 C 0.86456 0.45261 0.22613 0.0
C1101 C 0.88312 0.4669 0.24488 0.0
C1102 C 0.92138 0.47759 0.17769 0.0
C1103 C 0.83194 0.43349 0.2301 0.0
C1104 C 0.82732 0.433 0.15157 0.0
C1105 C 0.82235 0.40457 0.14703 0.0
C1106 C 0.84488 0.44987 0.17012 0.0
C1107 C 0.85777 0.43805 0.18449 0.0
C1108 C 0.85267 0.40934 0.18013 0.0
C1109 C 0.83507 0.39299 0.1615 0.0
C1110 C 0.84983 0.4804 0.17426 0.0
C1111 C 0.86596 0.39592 0.19508 0.0
H1112 H 0.9491 0.50088 0.21776 0.0
H1113 H 0.87374 0.46431 0.26182 0.0
H1114 H 0.91817 0.45606 0.17189 0.0
H1115 H 0.91067 0.48451 0.1649 0.0
H1116 H 0.94525 0.49424 0.17787 0.0
H1117 H 0.82573 0.43511 0.24798 0.0
H1118 H 0.81998 0.43998 0.21821 0.0
H1119 H 0.82456 0.40998 0.22648 0.0
H1120 H 0.81762 0.4422 0.14056 0.0
H1121 H 0.83141 0.37108 0.15825 0.0
H1122 H 0.87356 0.49722 0.1731 0.0
H1123 H 0.8426 0.48176 0.19181 0.0
H1124 H 0.83787 0.48621 0.16174 0.0
H1125 H 0.89021 0.41011 0.19476 0.0
H1126 H 0.85966 0.37322 0.18949 0.0
H1127 H 0.85889 0.39484 0.21312 0.0
loop_
_geom_bond_atom_site_label_1
_geom_bond_atom_site_label_2
_geom_bond_distance
_geom_bond_site_symmetry_2
_ccdc_geom_bond_type
C0 C1 1.384 . S
C0 C2 1.384 . S
C0 H28 0.931 . S
C1 C0 1.384 . S
C1 C4 1.382 . S
C2 C0 1.384 . S
C2 C3 1.381 . S
C2 H29 0.930 . S
C3 C2 1.381 . S
C3 C5 1.381 . S
C3 C6 1.487 . S
C4 C1 1.382 . S
C4 C5 1.387 . S
C4 H30 0.930 . S
C5 C3 1.381 . S
C5 C4 1.387 . S
C5 H31 0.931 . S
C6 C3 1.487 . S
C6 C13 1.399 . S
C6 N44 1.343 1_655 S
C7 C8 1.384 . S
C7 C9 1.384 . S
C7 H32 0.931 . S
C8 C7 1.384 . S
C8 C11 1.382 . S
C9 C7 1.384 . S
C9 C10 1.381 . S
C9 H33 0.930 . S
C10 C9 1.381 . S
C10 C12 1.381 . S
C10 C13 1.487 . S
C11 C8 1.382 . S
C11 C12 1.387 . S
C11 H34 0.930 . S
C12 C10 1.381 . S
C12 C11 1.387 . S
C12 H35 0.931 . S
C13 C6 1.399 . S
C13 C10 1.487 . S
C13 N45 1.343 1_655 S
C14 C15 1.384 . S
C14 C16 1.384 . S
C14 H36 0.931 . S
C15 C14 1.384 . S
C15 C18 1.382 . S
C16 C14 1.384 . S
C16 C17 1.381 . S
C16 H37 0.930 . S
C17 C16 1.381 . S
C17 C19 1.381 . S
C17 C20 1.487 . S
C18 C15 1.382 . S
C18 C19 1.387 . S
C18 H38 0.930 . S
C19 C17 1.381 . S
C19 C18 1.387 . S
C19 H39 0.931 . S
C20 C17 1.487 . S
C20 C27 1.399 . S
C20 N45 1.343 . S
C21 C22 1.384 . S
C21 C23 1.384 . S
C21 H40 0.931 . S
C22 C21 1.384 . S
C22 C25 1.382 . S
C23 C21 1.384 . S
C23 C24 1.381 . S
C23 H41 0.930 . S
C24 C23 1.381 . S
C24 C26 1.381 . S
C24 C27 1.487 . S
C25 C22 1.382 . S
C25 C26 1.387 . S
C25 H42 0.930 . S
C26 C24 1.381 . S
C26 C25 1.387 . S
C26 H43 0.931 . S
C27 C20 1.399 . S
C27 C24 1.487 . S
C27 N44 1.343 . S
H28 C0 0.931 . S
H29 C2 0.930 . S
H30 C4 0.930 . S
H31 C5 0.931 . S
H32 C7 0.931 . S
H33 C9 0.930 . S
H34 C11 0.930 . S
H35 C12 0.931 . S
H36 C14 0.931 . S
H37 C16 0.930 . S
H38 C18 0.930 . S
H39 C19 0.931 . S
H40 C21 0.931 . S
H41 C23 0.930 . S
H42 C25 0.930 . S
H43 C26 0.931 . S
N44 C6 1.343 1_455 S
N44 C27 1.343 . S
N45 C13 1.343 1_455 S
N45 C20 1.343 . S
C46 C47 1.384 . S
C46 C48 1.384 . S
C46 H74 0.931 . S
C47 C46 1.384 . S
C47 C50 1.382 . S
C48 C46 1.384 . S
C48 C49 1.381 . S
C48 H75 0.930 . S
C49 C48 1.381 . S
C49 C51 1.381 . S
C49 C52 1.487 . S
C50 C47 1.382 . S
C50 C51 1.387 . S
C50 H76 0.930 . S
C51 C49 1.381 . S
C51 C50 1.387 . S
C51 H77 0.931 . S
C52 C49 1.487 . S
C52 C59 1.399 . S
C52 N90 1.343 . S
C53 C54 1.384 . S
C53 C55 1.384 . S
C53 H78 0.931 . S
C54 C53 1.384 . S
C54 C57 1.382 . S
C55 C53 1.384 . S
C55 C56 1.381 . S
C55 H79 0.930 . S
C56 C55 1.381 . S
C56 C58 1.381 . S
C56 C59 1.487 . S
C57 C54 1.382 . S
C57 C58 1.387 . S
C57 H80 0.930 . S
C58 C56 1.381 . S
C58 C57 1.387 . S
C58 H81 0.931 . S
C59 C52 1.399 . S
C59 C56 1.487 . S
C59 N91 1.343 1_565 S
C60 C61 1.384 . S
C60 C62 1.384 . S
C60 H82 0.931 . S
C61 C60 1.384 . S
C61 C64 1.382 . S
C62 C60 1.384 . S
C62 C63 1.381 . S
C62 H83 0.930 . S
C63 C62 1.381 . S
C63 C65 1.381 . S
C63 C66 1.487 . S
C64 C61 1.382 . S
C64 C65 1.387 . S
C64 H84 0.930 . S
C65 C63 1.381 . S
C65 C64 1.387 . S
C65 H85 0.931 . S
C66 C63 1.487 . S
C66 C73 1.399 . S
C66 N91 1.343 . S
C67 C68 1.384 . S
C67 C69 1.384 . S
C67 H86 0.931 . S
C68 C67 1.384 . S
C68 C71 1.382 . S
C69 C67 1.384 . S
C69 C70 1.381 . S
C69 H87 0.930 . S
C70 C69 1.381 . S
C70 C72 1.381 . S
C70 C73 1.487 . S
C71 C68 1.382 . S
C71 C72 1.387 . S
C71 H88 0.930 . S
C72 C70 1.381 . S
C72 C71 1.387 . S
C72 H89 0.931 . S
C73 C66 1.399 . S
C73 C70 1.487 . S
C73 N90 1.343 1_545 S
H74 C46 0.931 . S
H75 C48 0.930 . S
H76 C50 0.930 . S
H77 C51 0.931 . S
H78 C53 0.931 . S
H79 C55 0.930 . S
H80 C57 0.930 . S
H81 C58 0.931 . S
H82 C60 0.931 . S
H83 C62 0.930 . S
H84 C64 0.930 . S
H85 C65 0.931 . S
H86 C67 0.931 . S
H87 C69 0.930 . S
H88 C71 0.930 . S
H89 C72 0.931 . S
N90 C52 1.343 . S
N90 C73 1.343 1_565 S
N91 C59 1.343 1_545 S
N91 C66 1.343 . S
C92 C93 1.384 . S
C92 C94 1.384 . S
C92 H120 0.931 . S
C93 C92 1.384 . S
C93 C96 1.382 . S
C94 C92 1.384 . S
C94 C95 1.381 . S
C94 H121 0.930 . S
C95 C94 1.381 . S
C95 C97 1.381 . S
C95 C98 1.487 . S
C96 C93 1.382 . S
C96 C97 1.387 . S
C96 H122 0.930 . S
C97 C95 1.381 . S
C97 C96 1.387 . S
C97 H123 0.931 . S
C98 C95 1.487 . S
C98 C105 1.399 . S
C98 N136 1.343 . S
C99 C100 1.384 . S
C99 C101 1.384 . S
C99 H124 0.931 . S
C100 C99 1.384 . S
C100 C103 1.382 . S
C101 C99 1.384 . S
C101 C102 1.381 . S
C101 H125 0.930 . S
C102 C101 1.381 . S
C102 C104 1.381 . S
C102 C105 1.487 . S
C103 C100 1.382 . S
C103 C104 1.387 . S
C103 H126 0.930 . S
C104 C102 1.381 . S
C104 C103 1.387 . S
C104 H127 0.931 . S
C105 C98 1.399 . S
C105 C102 1.487 . S
C105 N137 1.343 . S
C106 C107 1.384 . S
C106 C108 1.384 . S
C106 H128 0.931 . S
C107 C106 1.384 . S
C107 C110 1.382 . S
C108 C106 1.384 . S
C108 C109 1.381 . S
C108 H129 0.930 . S
C109 C108 1.381 . S
C109 C111 1.381 . S
C109 C112 1.487 . S
C110 C107 1.382 . S
C110 C111 1.387 . S
C110 H130 0.930 . S
C111 C109 1.381 . S
C111 C110 1.387 . S
C111 H131 0.931 . S
C112 C109 1.487 . S
C112 C119 1.399 . S
C112 N137 1.343 . S
C113 C114 1.384 . S
C113 C115 1.384 . S
C113 H132 0.931 . S
C114 C113 1.384 . S
C114 C117 1.382 . S
C115 C113 1.384 . S
C115 C116 1.381 . S
C115 H133 0.930 . S
C116 C115 1.381 . S
C116 C118 1.381 . S
C116 C119 1.487 . S
C117 C114 1.382 . S
C117 C118 1.387 . S
C117 H134 0.930 . S
C118 C116 1.381 . S
C118 C117 1.387 . S
C118 H135 0.931 . S
C119 C112 1.399 . S
C119 C116 1.487 . S
C119 N136 1.343 . S
H120 C92 0.931 . S
H121 C94 0.930 . S
H122 C96 0.930 . S
H123 C97 0.931 . S
H124 C99 0.931 . S
H125 C101 0.930 . S
H126 C103 0.930 . S
H127 C104 0.931 . S
H128 C106 0.931 . S
H129 C108 0.930 . S
H130 C110 0.930 . S
H131 C111 0.931 . S
H132 C113 0.931 . S
H133 C115 0.930 . S
H134 C117 0.930 . S
H135 C118 0.931 . S
N136 C98 1.343 . S
N136 C119 1.343 . S
N137 C105 1.343 . S
N137 C112 1.343 . S
C138 C139 1.384 . S
C138 C140 1.384 . S
C138 H166 0.931 . S
C139 C138 1.384 . S
C139 C142 1.382 . S
C140 C138 1.384 . S
C140 C141 1.381 . S
C140 H167 0.930 . S
C141 C140 1.381 . S
C141 C143 1.381 . S
C141 C144 1.487 . S
C142 C139 1.382 . S
C142 C143 1.387 . S
C142 H168 0.930 . S
C143 C141 1.381 . S
C143 C142 1.387 . S
C143 H169 0.931 . S
C144 C141 1.487 . S
C144 C151 1.399 . S
C144 N182 1.348 . S
C145 C146 1.384 . S
C145 C147 1.384 . S
C145 H170 0.931 . S
C146 C145 1.384 . S
C146 C149 1.382 . S
C147 C145 1.384 . S
C147 C148 1.381 . S
C147 H171 0.930 . S
C148 C147 1.381 . S
C148 C150 1.381 . S
C148 C151 1.487 . S
C149 C146 1.382 . S
C149 C150 1.387 . S
C149 H172 0.930 . S
C150 C148 1.381 . S
C150 C149 1.387 . S
C150 H173 0.931 . S
C151 C144 1.399 . S
C151 C148 1.487 . S
C151 N183 1.343 1_655 S
C152 C153 1.384 . S
C152 C154 1.384 . S
C152 H174 0.931 . S
C153 C152 1.384 . S
C153 C156 1.382 . S
C154 C152 1.384 . S
C154 C155 1.381 . S
C154 H175 0.930 . S
C155 C154 1.381 . S
C155 C157 1.381 . S
C155 C158 1.487 . S
C156 C153 1.382 . S
C156 C157 1.387 . S
C156 H176 0.930 . S
C157 C155 1.381 . S
C157 C156 1.387 . S
C157 H177 0.931 . S
C158 C155 1.487 . S
C158 C165 1.399 . S
C158 N183 1.343 . S
C159 C160 1.384 . S
C159 C161 1.384 . S
C159 H178 0.931 . S
C160 C159 1.384 . S
C160 C163 1.382 . S
C161 C159 1.384 . S
C161 C162 1.381 . S
C161 H179 0.930 . S
C162 C161 1.381 . S
C162 C164 1.381 . S
C162 C165 1.487 . S
C163 C160 1.382 . S
C163 C164 1.387 . S
C163 H180 0.930 . S
C164 C162 1.381 . S
C164 C163 1.387 . S
C164 H181 0.931 . S
C165 C158 1.399 . S
C165 C162 1.487 . S
C165 N182 1.335 1_455 S
H166 C138 0.931 . S
H167 C140 0.930 . S
H168 C142 0.930 . S
H169 C143 0.931 . S
H170 C145 0.931 . S
H171 C147 0.930 . S
H172 C149 0.930 . S
H173 C150 0.931 . S
H174 C152 0.931 . S
H175 C154 0.930 . S
H176 C156 0.930 . S
H177 C157 0.931 . S
H178 C159 0.931 . S
H179 C161 0.930 . S
H180 C163 0.930 . S
H181 C164 0.931 . S
N182 C144 1.348 . S
N182 C165 1.335 1_655 S
N183 C151 1.343 1_455 S
N183 C158 1.343 . S
C184 C185 1.384 . S
C184 C186 1.384 . S
C184 H212 0.931 . S
C185 C184 1.384 . S
C185 C188 1.382 . S
C186 C184 1.384 . S
C186 C187 1.381 . S
C186 H213 0.930 1_556 S
C187 C186 1.381 . S
C187 C189 1.381 . S
C187 C190 1.487 . S
C188 C185 1.382 . S
C188 C189 1.387 . S
C188 H214 0.930 . S
C189 C187 1.381 . S
C189 C188 1.387 . S
C189 H215 0.931 . S
C190 C187 1.487 . S
C190 C197 1.399 1_556 S
C190 N228 1.343 . S
C191 C192 1.384 . S
C191 C193 1.384 . S
C191 H216 0.931 . S
C192 C191 1.384 . S
C192 C195 1.382 . S
C193 C191 1.384 . S
C193 C194 1.381 . S
C193 H217 0.930 . S
C194 C193 1.381 . S
C194 C196 1.381 . S
C194 C197 1.487 . S
C195 C192 1.382 . S
C195 C196 1.387 . S
C195 H218 0.930 . S
C196 C194 1.381 . S
C196 C195 1.387 . S
C196 H219 0.931 . S
C197 C190 1.399 1_554 S
C197 C194 1.487 . S
C197 N229 1.343 1_565 S
C198 C199 1.384 . S
C198 C200 1.384 1_554 S
C198 H220 0.931 . S
C199 C198 1.384 . S
C199 C202 1.382 . S
C200 C198 1.384 1_556 S
C200 C201 1.381 1_556 S
C200 H221 0.930 . S
C201 C200 1.381 1_554 S
C201 C203 1.381 . S
C201 C204 1.490 . S
C202 C199 1.382 . S
C202 C203 1.387 . S
C202 H222 0.930 . S
C203 C201 1.381 . S
C203 C202 1.387 . S
C203 H223 0.931 . S
C204 C201 1.490 . S
C204 C211 1.388 1_554 S
C204 N229 1.352 . S
C205 C206 1.384 . S
C205 C207 1.384 . S
C205 H224 0.931 . S
C206 C205 1.384 . S
C206 C209 1.382 . S
C207 C205 1.384 . S
C207 C208 1.381 . S
C207 H225 0.930 . S
C208 C207 1.381 . S
C208 C210 1.381 . S
C208 C211 1.487 . S
C209 C206 1.382 . S
C209 C210 1.387 . S
C209 H226 0.930 . S
C210 C208 1.381 . S
C210 C209 1.387 . S
C210 H227 0.931 . S
C211 C204 1.388 1_556 S
C211 C208 1.487 . S
C211 N228 1.343 1_545 S
H212 C184 0.931 . S
H213 C186 0.930 1_554 S
H214 C188 0.930 . S
H215 C189 0.931 . S
H216 C191 0.931 . S
H217 C193 0.930 . S
H218 C195 0.930 . S
H219 C196 0.931 . S
H220 C198 0.931 . S
H221 C200 0.930 . S
H222 C202 0.930 . S
H223 C203 0.931 . S
H224 C205 0.931 . S
H225 C207 0.930 . S
H226 C209 0.930 . S
H227 C210 0.931 . S
N228 C190 1.343 . S
N228 C211 1.343 1_565 S
N229 C197 1.343 1_545 S
N229 C204 1.352 . S
C230 C231 1.384 . S
C230 C232 1.384 . S
C230 H258 0.931 . S
C231 C230 1.384 . S
C231 C234 1.382 . S
C232 C230 1.384 . S
C232 C233 1.381 . S
C232 H259 0.930 . S
C233 C232 1.381 . S
C233 C235 1.381 . S
C233 C236 1.487 . S
C234 C231 1.382 . S
C234 C235 1.387 . S
C234 H260 0.930 . S
C235 C233 1.381 . S
C235 C234 1.387 . S
C235 H261 0.931 . S
C236 C233 1.487 . S
C236 C243 1.399 . S
C236 N274 1.343 . S
C237 C238 1.384 . S
C237 C239 1.384 . S
C237 H262 0.931 . S
C238 C237 1.384 . S
C238 C241 1.382 . S
C239 C237 1.384 . S
C239 C240 1.381 . S
C239 H263 0.930 . S
C240 C239 1.381 . S
C240 C242 1.381 . S
C240 C243 1.487 . S
C241 C238 1.382 . S
C241 C242 1.387 . S
C241 H264 0.930 . S
C242 C240 1.381 . S
C242 C241 1.387 . S
C242 H265 0.931 . S
C243 C236 1.399 . S
C243 C240 1.487 . S
C243 N275 1.343 . S
C244 C245 1.384 . S
C244 C246 1.384 . S
C244 H266 0.931 . S
C245 C244 1.384 . S
C245 C248 1.382 . S
C246 C244 1.384 . S
C246 C247 1.381 . S
C246 H267 0.930 . S
C247 C246 1.381 . S
C247 C249 1.381 . S
C247 C250 1.487 . S
C248 C245 1.382 . S
C248 C249 1.387 . S
C248 H268 0.930 . S
C249 C247 1.381 . S
C249 C248 1.387 . S
C249 H269 0.931 . S
C250 C247 1.487 . S
C250 C257 1.399 . S
C250 N275 1.343 . S
C251 C252 1.384 . S
C251 C253 1.384 . S
C251 H270 0.931 . S
C252 C251 1.384 . S
C252 C255 1.382 . S
C253 C251 1.384 . S
C253 C254 1.381 . S
C253 H271 0.930 . S
C254 C253 1.381 . S
C254 C256 1.381 . S
C254 C257 1.487 . S
C255 C252 1.382 . S
C255 C256 1.387 . S
C255 H272 0.930 . S
C256 C254 1.381 . S
C256 C255 1.387 . S
C256 H273 0.931 . S
C257 C250 1.399 . S
C257 C254 1.487 . S
C257 N274 1.343 . S
H258 C230 0.931 . S
H259 C232 0.930 . S
H260 C234 0.930 . S
H261 C235 0.931 . S
H262 C237 0.931 . S
H263 C239 0.930 . S
H264 C241 0.930 . S
H265 C242 0.931 . S
H266 C244 0.931 . S
H267 C246 0.930 . S
H268 C248 0.930 . S
H269 C249 0.931 . S
H270 C251 0.931 . S
H271 C253 0.930 . S
H272 C255 0.930 . S
H273 C256 0.931 . S
N274 C236 1.343 . S
N274 C257 1.343 . S
N275 C243 1.343 . S
N275 C250 1.343 . S
Co276 O277 2.216 . S
Co276 O278 2.091 . S
Co276 O280 2.004 . S
Co276 O286 2.021 . S
Co276 O288 2.137 . S
Co276 O289 2.244 . S
O277 Co276 2.216 . S
O277 C284 1.247 . S
O278 Co276 2.091 . S
O278 C284 1.261 . S
C279 O288 1.247 . S
C279 O289 1.272 . S
O280 Co276 2.004 . S
O280 C285 1.259 . S
Co281 O282 2.061 . S
Co281 O287 2.052 . S
Co281 O289 2.135 . S
O282 Co281 2.061 . S
O282 C285 1.235 . S
C283 O286 1.238 . S
C283 O287 1.241 . S
C284 O277 1.247 . S
C284 O278 1.261 . S
C285 O280 1.259 . S
C285 O282 1.235 . S
O286 Co276 2.021 . S
O286 C283 1.238 . S
O287 Co281 2.052 . S
O287 C283 1.241 . S
O288 Co276 2.137 . S
O288 C279 1.247 . S
O289 Co276 2.244 . S
O289 C279 1.272 . S
O289 Co281 2.135 . S
Co290 O291 2.216 . S
Co290 O292 2.091 . S
Co290 O294 2.004 . S
Co290 O300 2.021 . S
Co290 O302 2.137 . S
Co290 O303 2.244 . S
O291 Co290 2.216 . S
O291 C298 1.247 . S
O292 Co290 2.091 . S
O292 C298 1.261 . S
C293 O302 1.247 . S
C293 O303 1.272 . S
O294 Co290 2.004 . S
O294 C299 1.259 . S
Co295 O296 2.061 . S
Co295 O301 2.052 . S
Co295 O303 2.135 . S
O296 Co295 2.061 . S
O296 C299 1.235 . S
C297 O300 1.238 . S
C297 O301 1.241 . S
C298 O291 1.247 . S
C298 O292 1.261 . S
C299 O294 1.259 . S
C299 O296 1.235 . S
O300 Co290 2.021 . S
O300 C297 1.238 . S
O301 Co295 2.052 . S
O301 C297 1.241 . S
O302 Co290 2.137 . S
O302 C293 1.247 . S
O303 Co290 2.244 . S
O303 C293 1.272 . S
O303 Co295 2.135 . S
Co304 O305 2.216 . S
Co304 O306 2.091 . S
Co304 O308 2.004 . S
Co304 O314 2.021 . S
Co304 O316 2.137 . S
Co304 O317 2.244 . S
O305 Co304 2.216 . S
O305 C312 1.247 . S
O306 Co304 2.091 . S
O306 C312 1.261 . S
C307 O316 1.247 . S
C307 O317 1.272 . S
O308 Co304 2.004 . S
O308 C313 1.259 . S
Co309 O310 2.061 . S
Co309 O315 2.052 . S
Co309 O317 2.135 . S
O310 Co309 2.061 . S
O310 C313 1.235 . S
C311 O314 1.238 . S
C311 O315 1.241 . S
C312 O305 1.247 . S
C312 O306 1.261 . S
C313 O308 1.259 . S
C313 O310 1.235 . S
O314 Co304 2.021 . S
O314 C311 1.238 . S
O315 Co309 2.052 . S
O315 C311 1.241 . S
O316 Co304 2.137 . S
O316 C307 1.247 . S
O317 Co304 2.244 . S
O317 C307 1.272 . S
O317 Co309 2.135 . S
Co318 O319 2.216 . S
Co318 O320 2.091 . S
Co318 O322 2.004 . S
Co318 O328 2.021 . S
Co318 O330 2.137 . S
Co318 O331 2.244 . S
O319 Co318 2.216 . S
O319 C326 1.247 . S
O320 Co318 2.091 . S
O320 C326 1.261 . S
C321 O330 1.247 . S
C321 O331 1.272 . S
O322 Co318 2.004 . S
O322 C327 1.259 . S
Co323 O324 2.061 . S
Co323 O329 2.052 . S
Co323 O331 2.135 . S
O324 Co323 2.061 . S
O324 C327 1.235 . S
C325 O328 1.238 . S
C325 O329 1.241 . S
C326 O319 1.247 . S
C326 O320 1.261 . S
C327 O322 1.259 . S
C327 O324 1.235 . S
O328 Co318 2.021 . S
O328 C325 1.238 . S
O329 Co323 2.052 . S
O329 C325 1.241 . S
O330 Co318 2.137 . S
O330 C321 1.247 . S
O331 Co318 2.244 . S
O331 C321 1.272 . S
O331 Co323 2.135 . S
Co332 O333 2.216 . S
Co332 O334 2.091 . S
Co332 O336 2.004 . S
Co332 O342 2.021 . S
Co332 O344 2.137 . S
Co332 O345 2.244 . S
O333 Co332 2.216 . S
O333 C340 1.247 . S
O334 Co332 2.091 . S
O334 C340 1.261 . S
C335 O344 1.247 . S
C335 O345 1.272 . S
O336 Co332 2.004 . S
O336 C341 1.259 . S
Co337 O338 2.061 . S
Co337 O343 2.052 . S
Co337 O345 2.135 . S
O338 Co337 2.061 . S
O338 C341 1.235 . S
C339 O342 1.238 . S
C339 O343 1.241 . S
C340 O333 1.247 . S
C340 O334 1.261 . S
C341 O336 1.259 . S
C341 O338 1.235 . S
O342 Co332 2.021 . S
O342 C339 1.238 . S
O343 Co337 2.052 . S
O343 C339 1.241 . S
O344 Co332 2.137 . S
O344 C335 1.247 . S
O345 Co332 2.244 . S
O345 C335 1.272 . S
O345 Co337 2.135 . S
Co346 O347 2.216 . S
Co346 O348 2.091 . S
Co346 O350 2.004 . S
Co346 O356 2.021 . S
Co346 O358 2.137 . S
Co346 O359 2.244 . S
O347 Co346 2.216 . S
O347 C354 1.247 . S
O348 Co346 2.091 . S
O348 C354 1.261 . S
C349 O358 1.247 . S
C349 O359 1.272 . S
O350 Co346 2.004 . S
O350 C355 1.259 . S
Co351 O352 2.061 . S
Co351 O357 2.052 . S
Co351 O359 2.135 . S
O352 Co351 2.061 . S
O352 C355 1.235 . S
C353 O356 1.238 . S
C353 O357 1.241 . S
C354 O347 1.247 . S
C354 O348 1.261 . S
C355 O350 1.259 . S
C355 O352 1.235 . S
O356 Co346 2.021 . S
O356 C353 1.238 . S
O357 Co351 2.052 . S
O357 C353 1.241 . S
O358 Co346 2.137 . S
O358 C349 1.247 . S
O359 Co346 2.244 . S
O359 C349 1.272 . S
O359 Co351 2.135 . S
C360 C361 1.391 . S
C360 C362 1.394 . S
C360 H376 0.931 . S
C361 C360 1.391 . S
C361 C365 1.376 . S
C362 C360 1.394 . S
C362 C363 1.369 . S
C362 C366 1.531 . S
C363 C362 1.369 . S
C363 C364 1.410 . S
C363 C371 1.503 . S
C364 C363 1.410 . S
C364 C365 1.392 . S
C364 C367 1.511 . S
C365 C361 1.376 . S
C365 C364 1.392 . S
C365 H377 0.929 . S
C366 C362 1.531 . S
C366 H378 0.960 . S
C366 H379 0.962 . S
C366 H380 0.960 . S
C367 C364 1.511 . S
C367 H381 0.961 . S
C367 H382 0.961 . S
C367 H383 0.961 . S
C368 C369 1.370 . S
C368 C370 1.363 . S
C368 H384 0.931 . S
C369 C368 1.370 . S
C369 C373 1.408 . S
C370 C368 1.363 . S
C370 C371 1.370 . S
C370 C374 1.524 . S
C371 C363 1.503 . S
C371 C370 1.370 . S
C371 C372 1.403 . S
C372 C371 1.403 . S
C372 C373 1.404 . S
C372 C375 1.539 . S
C373 C369 1.408 . S
C373 C372 1.404 . S
C373 H385 0.930 . S
C374 C370 1.524 . S
C374 H386 0.956 . S
C374 H387 0.961 . S
C374 H388 0.961 . S
C375 C372 1.539 . S
C375 H389 0.958 . S
C375 H390 0.961 . S
C375 H391 0.960 . S
H376 C360 0.931 . S
H377 C365 0.929 . S
H378 C366 0.960 . S
H379 C366 0.962 . S
H380 C366 0.960 . S
H381 C367 0.961 . S
H382 C367 0.961 . S
H383 C367 0.961 . S
H384 C368 0.931 . S
H385 C373 0.930 . S
H386 C374 0.956 . S
H387 C374 0.961 . S
H388 C374 0.961 . S
H389 C375 0.958 . S
H390 C375 0.961 . S
H391 C375 0.960 . S
C392 C393 1.391 . S
C392 C394 1.394 . S
C392 H408 0.931 . S
C393 C392 1.391 . S
C393 C397 1.376 . S
C394 C392 1.394 . S
C394 C395 1.369 . S
C394 C398 1.531 . S
C395 C394 1.369 . S
C395 C396 1.410 . S
C395 C403 1.503 . S
C396 C395 1.410 . S
C396 C397 1.392 . S
C396 C399 1.511 . S
C397 C393 1.376 . S
C397 C396 1.392 . S
C397 H409 0.929 . S
C398 C394 1.531 . S
C398 H410 0.960 . S
C398 H411 0.962 . S
C398 H412 0.960 . S
C399 C396 1.511 . S
C399 H413 0.961 . S
C399 H414 0.961 . S
C399 H415 0.961 . S
C400 C401 1.370 . S
C400 C402 1.363 . S
C400 H416 0.931 . S
C401 C400 1.370 . S
C401 C405 1.408 . S
C402 C400 1.363 . S
C402 C403 1.370 . S
C402 C406 1.524 . S
C403 C395 1.503 . S
C403 C402 1.370 . S
C403 C404 1.403 . S
C404 C403 1.403 . S
C404 C405 1.404 . S
C404 C407 1.539 . S
C405 C401 1.408 . S
C405 C404 1.404 . S
C405 H417 0.930 . S
C406 C402 1.524 . S
C406 H418 0.956 . S
C406 H419 0.961 . S
C406 H420 0.961 . S
C407 C404 1.539 . S
C407 H421 0.958 . S
C407 H422 0.961 . S
C407 H423 0.960 . S
H408 C392 0.931 . S
H409 C397 0.929 . S
H410 C398 0.960 . S
H411 C398 0.962 . S
H412 C398 0.960 . S
H413 C399 0.961 . S
H414 C399 0.961 . S
H415 C399 0.961 . S
H416 C400 0.931 . S
H417 C405 0.930 . S
H418 C406 0.956 . S
H419 C406 0.961 . S
H420 C406 0.961 . S
H421 C407 0.958 . S
H422 C407 0.961 . S
H423 C407 0.960 . S
C424 C425 1.391 . S
C424 C426 1.394 . S
C424 H440 0.931 . S
C425 C424 1.391 . S
C425 C429 1.376 . S
C426 C424 1.394 . S
C426 C427 1.369 . S
C426 C430 1.531 . S
C427 C426 1.369 . S
C427 C428 1.410 . S
C427 C435 1.503 . S
C428 C427 1.410 . S
C428 C429 1.392 . S
C428 C431 1.511 . S
C429 C425 1.376 . S
C429 C428 1.392 . S
C429 H441 0.929 . S
C430 C426 1.531 . S
C430 H442 0.960 . S
C430 H443 0.962 . S
C430 H444 0.960 . S
C431 C428 1.511 . S
C431 H445 0.961 . S
C431 H446 0.961 . S
C431 H447 0.961 . S
C432 C433 1.370 . S
C432 C434 1.363 . S
C432 H448 0.931 . S
C433 C432 1.370 . S
C433 C437 1.408 . S
C434 C432 1.363 . S
C434 C435 1.370 . S
C434 C438 1.524 . S
C435 C427 1.503 . S
C435 C434 1.370 . S
C435 C436 1.403 . S
C436 C435 1.403 . S
C436 C437 1.404 . S
C436 C439 1.539 . S
C437 C433 1.408 . S
C437 C436 1.404 . S
C437 H449 0.930 . S
C438 C434 1.524 . S
C438 H450 0.956 . S
C438 H451 0.961 . S
C438 H452 0.961 . S
C439 C436 1.539 . S
C439 H453 0.958 . S
C439 H454 0.961 . S
C439 H455 0.960 . S
H440 C424 0.931 . S
H441 C429 0.929 . S
H442 C430 0.960 . S
H443 C430 0.962 . S
H444 C430 0.960 . S
H445 C431 0.961 . S
H446 C431 0.961 . S
H447 C431 0.961 . S
H448 C432 0.931 . S
H449 C437 0.930 . S
H450 C438 0.956 . S
H451 C438 0.961 . S
H452 C438 0.961 . S
H453 C439 0.958 . S
H454 C439 0.961 . S
H455 C439 0.960 . S
C456 C457 1.391 . S
C456 C458 1.394 . S
C456 H472 0.931 . S
C457 C456 1.391 . S
C457 C461 1.376 . S
C458 C456 1.394 . S
C458 C459 1.369 . S
C458 C462 1.531 . S
C459 C458 1.369 . S
C459 C460 1.410 . S
C459 C467 1.503 . S
C460 C459 1.410 . S
C460 C461 1.392 . S
C460 C463 1.511 . S
C461 C457 1.376 . S
C461 C460 1.392 . S
C461 H473 0.929 . S
C462 C458 1.531 . S
C462 H474 0.960 . S
C462 H475 0.962 . S
C462 H476 0.960 . S
C463 C460 1.511 . S
C463 H477 0.961 . S
C463 H478 0.961 . S
C463 H479 0.961 . S
C464 C465 1.370 . S
C464 C466 1.363 . S
C464 H480 0.931 . S
C465 C464 1.370 . S
C465 C469 1.408 . S
C466 C464 1.363 . S
C466 C467 1.370 . S
C466 C470 1.524 . S
C467 C459 1.503 . S
C467 C466 1.370 . S
C467 C468 1.403 . S
C468 C467 1.403 . S
C468 C469 1.404 . S
C468 C471 1.539 . S
C469 C465 1.408 . S
C469 C468 1.404 . S
C469 H481 0.930 . S
C470 C466 1.524 . S
C470 H482 0.956 . S
C470 H483 0.961 . S
C470 H484 0.961 . S
C471 C468 1.539 . S
C471 H485 0.958 . S
C471 H486 0.961 . S
C471 H487 0.960 . S
H472 C456 0.931 . S
H473 C461 0.929 . S
H474 C462 0.960 . S
H475 C462 0.962 . S
H476 C462 0.960 . S
H477 C463 0.961 . S
H478 C463 0.961 . S
H479 C463 0.961 . S
H480 C464 0.931 . S
H481 C469 0.930 . S
H482 C470 0.956 . S
H483 C470 0.961 . S
H484 C470 0.961 . S
H485 C471 0.958 . S
H486 C471 0.961 . S
H487 C471 0.960 . S
C488 C489 1.391 . S
C488 C490 1.394 . S
C488 H504 0.931 . S
C489 C488 1.391 . S
C489 C493 1.376 . S
C490 C488 1.394 . S
C490 C491 1.369 . S
C490 C494 1.531 . S
C491 C490 1.369 . S
C491 C492 1.410 . S
C491 C499 1.503 . S
C492 C491 1.410 . S
C492 C493 1.392 . S
C492 C495 1.511 . S
C493 C489 1.376 . S
C493 C492 1.392 . S
C493 H505 0.929 . S
C494 C490 1.531 . S
C494 H506 0.960 . S
C494 H507 0.962 . S
C494 H508 0.960 . S
C495 C492 1.511 . S
C495 H509 0.961 . S
C495 H510 0.961 . S
C495 H511 0.961 . S
C496 C497 1.370 . S
C496 C498 1.363 . S
C496 H512 0.931 . S
C497 C496 1.370 . S
C497 C501 1.408 . S
C498 C496 1.363 . S
C498 C499 1.370 . S
C498 C502 1.524 . S
C499 C491 1.503 . S
C499 C498 1.370 . S
C499 C500 1.403 . S
C500 C499 1.403 . S
C500 C501 1.404 . S
C500 C503 1.539 . S
C501 C497 1.408 . S
C501 C500 1.404 . S
C501 H513 0.930 . S
C502 C498 1.524 . S
C502 H514 0.956 . S
C502 H515 0.961 . S
C502 H516 0.961 . S
C503 C500 1.539 . S
C503 H517 0.958 . S
C503 H518 0.961 . S
C503 H519 0.960 . S
H504 C488 0.931 . S
H505 C493 0.929 . S
H506 C494 0.960 . S
H507 C494 0.962 . S
H508 C494 0.960 . S
H509 C495 0.961 . S
H510 C495 0.961 . S
H511 C495 0.961 . S
H512 C496 0.931 . S
H513 C501 0.930 . S
H514 C502 0.956 . S
H515 C502 0.961 . S
H516 C502 0.961 . S
H517 C503 0.958 . S
H518 C503 0.961 . S
H519 C503 0.960 . S
C520 C521 1.391 . S
C520 C522 1.394 . S
C520 H536 0.931 . S
C521 C520 1.391 . S
C521 C525 1.376 . S
C522 C520 1.394 . S
C522 C523 1.369 . S
C522 C526 1.531 . S
C523 C522 1.369 . S
C523 C524 1.410 . S
C523 C531 1.503 . S
C524 C523 1.410 . S
C524 C525 1.392 . S
C524 C527 1.511 . S
C525 C521 1.376 . S
C525 C524 1.392 . S
C525 H537 0.929 . S
C526 C522 1.531 . S
C526 H538 0.960 . S
C526 H539 0.962 . S
C526 H540 0.960 . S
C527 C524 1.511 . S
C527 H541 0.961 . S
C527 H542 0.961 . S
C527 H543 0.961 . S
C528 C529 1.370 . S
C528 C530 1.363 . S
C528 H544 0.931 . S
C529 C528 1.370 . S
C529 C533 1.408 . S
C530 C528 1.363 . S
C530 C531 1.370 . S
C530 C534 1.524 . S
C531 C523 1.503 . S
C531 C530 1.370 . S
C531 C532 1.403 . S
C532 C531 1.403 . S
C532 C533 1.404 . S
C532 C535 1.539 . S
C533 C529 1.408 . S
C533 C532 1.404 . S
C533 H545 0.930 . S
C534 C530 1.524 . S
C534 H546 0.956 . S
C534 H547 0.961 . S
C534 H548 0.961 . S
C535 C532 1.539 . S
C535 H549 0.958 . S
C535 H550 0.961 . S
C535 H551 0.960 . S
H536 C520 0.931 . S
H537 C525 0.929 . S
H538 C526 0.960 . S
H539 C526 0.962 . S
H540 C526 0.960 . S
H541 C527 0.961 . S
H542 C527 0.961 . S
H543 C527 0.961 . S
H544 C528 0.931 . S
H545 C533 0.930 . S
H546 C534 0.956 . S
H547 C534 0.961 . S
H548 C534 0.961 . S
H549 C535 0.958 . S
H550 C535 0.961 . S
H551 C535 0.960 . S
C552 C553 1.391 . S
C552 C554 1.394 . S
C552 H568 0.931 . S
C553 C552 1.391 . S
C553 C557 1.376 . S
C554 C552 1.394 . S
C554 C555 1.369 . S
C554 C558 1.531 . S
C555 C554 1.369 . S
C555 C556 1.410 . S
C555 C563 1.503 . S
C556 C555 1.410 . S
C556 C557 1.392 . S
C556 C559 1.511 . S
C557 C553 1.376 . S
C557 C556 1.392 . S
C557 H569 0.929 . S
C558 C554 1.531 . S
C558 H570 0.960 . S
C558 H571 0.962 . S
C558 H572 0.960 . S
C559 C556 1.511 . S
C559 H573 0.961 . S
C559 H574 0.961 . S
C559 H575 0.961 . S
C560 C561 1.370 . S
C560 C562 1.363 . S
C560 H576 0.931 . S
C561 C560 1.370 . S
C561 C565 1.408 . S
C562 C560 1.363 . S
C562 C563 1.370 . S
C562 C566 1.524 . S
C563 C555 1.503 . S
C563 C562 1.370 . S
C563 C564 1.403 . S
C564 C563 1.403 . S
C564 C565 1.404 . S
C564 C567 1.539 . S
C565 C561 1.408 . S
C565 C564 1.404 . S
C565 H577 0.930 . S
C566 C562 1.524 . S
C566 H578 0.956 . S
C566 H579 0.961 . S
C566 H580 0.961 . S
C567 C564 1.539 . S
C567 H581 0.958 . S
C567 H582 0.961 . S
C567 H583 0.960 . S
H568 C552 0.931 . S
H569 C557 0.929 . S
H570 C558 0.960 . S
H571 C558 0.962 . S
H572 C558 0.960 . S
H573 C559 0.961 . S
H574 C559 0.961 . S
H575 C559 0.961 . S
H576 C560 0.931 . S
H577 C565 0.930 . S
H578 C566 0.956 . S
H579 C566 0.961 . S
H580 C566 0.961 . S
H581 C567 0.958 . S
H582 C567 0.961 . S
H583 C567 0.960 . S
C584 C585 1.391 . S
C584 C586 1.394 . S
C584 H600 0.931 . S
C585 C584 1.391 . S
C585 C589 1.376 . S
C586 C584 1.394 . S
C586 C587 1.369 . S
C586 C590 1.531 . S
C587 C586 1.369 . S
C587 C588 1.410 . S
C587 C595 1.503 . S
C588 C587 1.410 . S
C588 C589 1.392 . S
C588 C591 1.511 . S
C589 C585 1.376 . S
C589 C588 1.392 . S
C589 H601 0.929 . S
C590 C586 1.531 . S
C590 H602 0.960 . S
C590 H603 0.962 . S
C590 H604 0.960 . S
C591 C588 1.511 . S
C591 H605 0.961 . S
C591 H606 0.961 . S
C591 H607 0.961 . S
C592 C593 1.370 . S
C592 C594 1.363 . S
C592 H608 0.931 . S
C593 C592 1.370 . S
C593 C597 1.408 . S
C594 C592 1.363 . S
C594 C595 1.370 . S
C594 C598 1.524 . S
C595 C587 1.503 . S
C595 C594 1.370 . S
C595 C596 1.403 . S
C596 C595 1.403 . S
C596 C597 1.404 . S
C596 C599 1.539 . S
C597 C593 1.408 . S
C597 C596 1.404 . S
C597 H609 0.930 . S
C598 C594 1.524 . S
C598 H610 0.956 . S
C598 H611 0.961 . S
C598 H612 0.961 . S
C599 C596 1.539 . S
C599 H613 0.958 . S
C599 H614 0.961 . S
C599 H615 0.960 . S
H600 C584 0.931 . S
H601 C589 0.929 . S
H602 C590 0.960 . S
H603 C590 0.962 . S
H604 C590 0.960 . S
H605 C591 0.961 . S
H606 C591 0.961 . S
H607 C591 0.961 . S
H608 C592 0.931 . S
H609 C597 0.930 . S
H610 C598 0.956 . S
H611 C598 0.961 . S
H612 C598 0.961 . S
H613 C599 0.958 . S
H614 C599 0.961 . S
H615 C599 0.960 . S
C616 C617 1.391 . S
C616 C618 1.394 . S
C616 H632 0.931 . S
C617 C616 1.391 . S
C617 C621 1.376 . S
C618 C616 1.394 . S
C618 C619 1.369 . S
C618 C622 1.531 . S
C619 C618 1.369 . S
C619 C620 1.410 . S
C619 C627 1.503 . S
C620 C619 1.410 . S
C620 C621 1.392 . S
C620 C623 1.511 . S
C621 C617 1.376 . S
C621 C620 1.392 . S
C621 H633 0.929 . S
C622 C618 1.531 . S
C622 H634 0.960 . S
C622 H635 0.962 . S
C622 H636 0.960 . S
C623 C620 1.511 . S
C623 H637 0.961 . S
C623 H638 0.961 . S
C623 H639 0.961 . S
C624 C625 1.370 . S
C624 C626 1.363 . S
C624 H640 0.931 . S
C625 C624 1.370 . S
C625 C629 1.408 . S
C626 C624 1.363 . S
C626 C627 1.370 . S
C626 C630 1.524 . S
C627 C619 1.503 . S
C627 C626 1.370 . S
C627 C628 1.403 . S
C628 C627 1.403 . S
C628 C629 1.404 . S
C628 C631 1.539 . S
C629 C625 1.408 . S
C629 C628 1.404 . S
C629 H641 0.930 . S
C630 C626 1.524 . S
C630 H642 0.956 . S
C630 H643 0.961 . S
C630 H644 0.961 . S
C631 C628 1.539 . S
C631 H645 0.958 . S
C631 H646 0.961 . S
C631 H647 0.960 . S
H632 C616 0.931 . S
H633 C621 0.929 . S
H634 C622 0.960 . S
H635 C622 0.962 . S
H636 C622 0.960 . S
H637 C623 0.961 . S
H638 C623 0.961 . S
H639 C623 0.961 . S
H640 C624 0.931 . S
H641 C629 0.930 . S
H642 C630 0.956 . S
H643 C630 0.961 . S
H644 C630 0.961 . S
H645 C631 0.958 . S
H646 C631 0.961 . S
H647 C631 0.960 . S
C648 C649 1.391 . S
C648 C650 1.394 . S
C648 H664 0.931 . S
C649 C648 1.391 . S
C649 C653 1.376 . S
C650 C648 1.394 . S
C650 C651 1.369 . S
C650 C654 1.531 . S
C651 C650 1.369 . S
C651 C652 1.410 . S
C651 C659 1.503 . S
C652 C651 1.410 . S
C652 C653 1.392 . S
C652 C655 1.532 . S
C653 C649 1.376 . S
C653 C652 1.392 . S
C653 H665 0.953 . S
C654 C650 1.531 . S
C654 H666 0.960 . S
C654 H667 0.962 . S
C654 H668 0.960 . S
C655 C652 1.532 . S
C655 H669 0.945 1_554 S
C655 H670 0.975 . S
C655 H671 0.943 1_554 S
C656 C657 1.370 . S
C656 C658 1.363 . S
C656 H672 0.931 . S
C657 C656 1.370 . S
C657 C661 1.408 . S
C658 C656 1.363 . S
C658 C659 1.370 . S
C658 C662 1.524 . S
C659 C651 1.503 . S
C659 C658 1.370 . S
C659 C660 1.403 . S
C660 C659 1.403 . S
C660 C661 1.404 . S
C660 C663 1.539 . S
C661 C657 1.408 . S
C661 C660 1.404 . S
C661 H673 0.930 . S
C662 C658 1.524 . S
C662 H674 0.956 . S
C662 H675 0.961 . S
C662 H676 0.961 . S
C663 C660 1.539 . S
C663 H677 0.958 . S
C663 H678 0.961 . S
C663 H679 0.960 . S
H664 C648 0.931 . S
H665 C653 0.953 . S
H666 C654 0.960 . S
H667 C654 0.962 . S
H668 C654 0.960 . S
H669 C655 0.945 1_556 S
H670 C655 0.975 . S
H671 C655 0.943 1_556 S
H672 C656 0.931 . S
H673 C661 0.930 . S
H674 C662 0.956 . S
H675 C662 0.961 . S
H676 C662 0.961 . S
H677 C663 0.958 . S
H678 C663 0.961 . S
H679 C663 0.960 . S
C680 C681 1.391 . S
C680 C682 1.394 . S
C680 H696 0.931 . S
C681 C680 1.391 . S
C681 C685 1.376 . S
C682 C680 1.394 . S
C682 C683 1.369 . S
C682 C686 1.531 . S
C683 C682 1.369 . S
C683 C684 1.410 . S
C683 C691 1.503 . S
C684 C683 1.410 . S
C684 C685 1.392 . S
C684 C687 1.511 . S
C685 C681 1.376 . S
C685 C684 1.392 . S
C685 H697 0.929 . S
C686 C682 1.531 . S
C686 H698 0.960 . S
C686 H699 0.962 . S
C686 H700 0.960 . S
C687 C684 1.511 . S
C687 H701 0.961 . S
C687 H702 0.961 . S
C687 H703 0.961 . S
C688 C689 1.370 . S
C688 C690 1.363 . S
C688 H704 0.931 . S
C689 C688 1.370 . S
C689 C693 1.408 . S
C690 C688 1.363 . S
C690 C691 1.370 . S
C690 C694 1.524 . S
C691 C683 1.503 . S
C691 C690 1.370 . S
C691 C692 1.403 . S
C692 C691 1.403 . S
C692 C693 1.404 . S
C692 C695 1.539 . S
C693 C689 1.408 . S
C693 C692 1.404 . S
C693 H705 0.930 . S
C694 C690 1.524 . S
C694 H706 0.956 . S
C694 H707 0.961 . S
C694 H708 0.961 . S
C695 C692 1.539 . S
C695 H709 0.958 . S
C695 H710 0.961 . S
C695 H711 0.960 . S
H696 C680 0.931 . S
H697 C685 0.929 . S
H698 C686 0.960 . S
H699 C686 0.962 . S
H700 C686 0.960 . S
H701 C687 0.961 . S
H702 C687 0.961 . S
H703 C687 0.961 . S
H704 C688 0.931 . S
H705 C693 0.930 . S
H706 C694 0.956 . S
H707 C694 0.961 . S
H708 C694 0.961 . S
H709 C695 0.958 . S
H710 C695 0.961 . S
H711 C695 0.960 . S
C712 C713 1.391 . S
C712 C714 1.394 . S
C712 H728 0.931 . S
C713 C712 1.391 . S
C713 C717 1.376 . S
C714 C712 1.394 . S
C714 C715 1.369 . S
C714 C718 1.531 . S
C715 C714 1.369 . S
C715 C716 1.410 . S
C715 C723 1.503 . S
C716 C715 1.410 . S
C716 C717 1.392 . S
C716 C719 1.511 . S
C717 C713 1.376 . S
C717 C716 1.392 . S
C717 H729 0.929 . S
C718 C714 1.531 . S
C718 H730 0.960 . S
C718 H731 0.962 . S
C718 H732 0.960 . S
C719 C716 1.511 . S
C719 H733 0.961 . S
C719 H734 0.961 . S
C719 H735 0.961 . S
C720 C721 1.370 . S
C720 C722 1.363 . S
C720 H736 0.931 . S
C721 C720 1.370 . S
C721 C725 1.408 . S
C722 C720 1.363 . S
C722 C723 1.370 . S
C722 C726 1.524 . S
C723 C715 1.503 . S
C723 C722 1.370 . S
C723 C724 1.403 . S
C724 C723 1.403 . S
C724 C725 1.404 . S
C724 C727 1.539 . S
C725 C721 1.408 . S
C725 C724 1.404 . S
C725 H737 0.930 . S
C726 C722 1.524 . S
C726 H738 0.956 . S
C726 H739 0.961 . S
C726 H740 0.961 . S
C727 C724 1.539 . S
C727 H741 0.958 . S
C727 H742 0.961 . S
C727 H743 0.960 . S
H728 C712 0.931 . S
H729 C717 0.929 . S
H730 C718 0.960 . S
H731 C718 0.962 . S
H732 C718 0.960 . S
H733 C719 0.961 . S
H734 C719 0.961 . S
H735 C719 0.961 . S
H736 C720 0.931 . S
H737 C725 0.930 . S
H738 C726 0.956 . S
H739 C726 0.961 . S
H740 C726 0.961 . S
H741 C727 0.958 . S
H742 C727 0.961 . S
H743 C727 0.960 . S
C744 C745 1.391 . S
C744 C746 1.394 . S
C744 H760 0.931 . S
C745 C744 1.391 . S
C745 C749 1.376 . S
C746 C744 1.394 . S
C746 C747 1.369 . S
C746 C750 1.531 . S
C747 C746 1.369 . S
C747 C748 1.410 . S
C747 C755 1.503 . S
C748 C747 1.410 . S
C748 C749 1.392 . S
C748 C751 1.511 . S
C749 C745 1.376 . S
C749 C748 1.392 . S
C749 H761 0.929 . S
C750 C746 1.531 . S
C750 H762 0.960 . S
C750 H763 0.962 . S
C750 H764 0.960 . S
C751 C748 1.511 . S
C751 H765 0.961 . S
C751 H766 0.961 . S
C751 H767 0.961 . S
C752 C753 1.370 . S
C752 C754 1.363 . S
C752 H768 0.931 . S
C753 C752 1.370 . S
C753 C757 1.408 . S
C754 C752 1.363 . S
C754 C755 1.370 . S
C754 C758 1.524 . S
C755 C747 1.503 . S
C755 C754 1.370 . S
C755 C756 1.403 . S
C756 C755 1.403 . S
C756 C757 1.404 . S
C756 C759 1.539 . S
C757 C753 1.408 . S
C757 C756 1.404 . S
C757 H769 0.930 . S
C758 C754 1.524 . S
C758 H770 0.956 . S
C758 H771 0.961 . S
C758 H772 0.961 . S
C759 C756 1.539 . S
C759 H773 0.958 . S
C759 H774 0.961 . S
C759 H775 0.960 . S
H760 C744 0.931 . S
H761 C749 0.929 . S
H762 C750 0.960 . S
H763 C750 0.962 . S
H764 C750 0.960 . S
H765 C751 0.961 . S
H766 C751 0.961 . S
H767 C751 0.961 . S
H768 C752 0.931 . S
H769 C757 0.930 . S
H770 C758 0.956 . S
H771 C758 0.961 . S
H772 C758 0.961 . S
H773 C759 0.958 . S
H774 C759 0.961 . S
H775 C759 0.960 . S
C776 C777 1.391 . S
C776 C778 1.394 . S
C776 H792 0.931 . S
C777 C776 1.391 . S
C777 C781 1.376 . S
C778 C776 1.394 . S
C778 C779 1.369 . S
C778 C782 1.531 . S
C779 C778 1.369 . S
C779 C780 1.410 . S
C779 C787 1.503 . S
C780 C779 1.410 . S
C780 C781 1.392 . S
C780 C783 1.511 . S
C781 C777 1.376 . S
C781 C780 1.392 . S
C781 H793 0.929 . S
C782 C778 1.531 . S
C782 H794 0.960 . S
C782 H795 0.962 . S
C782 H796 0.960 . S
C783 C780 1.511 . S
C783 H797 0.961 . S
C783 H798 0.961 . S
C783 H799 0.961 . S
C784 C785 1.370 . S
C784 C786 1.363 . S
C784 H800 0.931 . S
C785 C784 1.370 . S
C785 C789 1.408 . S
C786 C784 1.363 . S
C786 C787 1.370 . S
C786 C790 1.524 . S
C787 C779 1.503 . S
C787 C786 1.370 . S
C787 C788 1.403 . S
C788 C787 1.403 . S
C788 C789 1.404 . S
C788 C791 1.539 . S
C789 C785 1.408 . S
C789 C788 1.404 . S
C789 H801 0.930 . S
C790 C786 1.524 . S
C790 H802 0.956 . S
C790 H803 0.961 . S
C790 H804 0.961 . S
C791 C788 1.539 . S
C791 H805 0.958 . S
C791 H806 0.961 . S
C791 H807 0.960 . S
H792 C776 0.931 . S
H793 C781 0.929 . S
H794 C782 0.960 . S
H795 C782 0.962 . S
H796 C782 0.960 . S
H797 C783 0.961 . S
H798 C783 0.961 . S
H799 C783 0.961 . S
H800 C784 0.931 . S
H801 C789 0.930 . S
H802 C790 0.956 . S
H803 C790 0.961 . S
H804 C790 0.961 . S
H805 C791 0.958 . S
H806 C791 0.961 . S
H807 C791 0.960 . S
C808 C809 1.391 . S
C808 C810 1.394 . S
C808 H824 0.931 . S
C809 C808 1.391 . S
C809 C813 1.376 . S
C810 C808 1.394 . S
C810 C811 1.369 . S
C810 C814 1.531 . S
C811 C810 1.369 . S
C811 C812 1.410 . S
C811 C819 1.503 . S
C812 C811 1.410 . S
C812 C813 1.392 . S
C812 C815 1.511 . S
C813 C809 1.376 . S
C813 C812 1.392 . S
C813 H825 0.929 . S
C814 C810 1.531 . S
C814 H826 0.960 . S
C814 H827 0.962 . S
C814 H828 0.960 . S
C815 C812 1.511 . S
C815 H829 0.961 . S
C815 H830 0.961 . S
C815 H831 0.961 . S
C816 C817 1.370 . S
C816 C818 1.363 . S
C816 H832 0.931 . S
C817 C816 1.370 . S
C817 C821 1.408 . S
C818 C816 1.363 . S
C818 C819 1.370 . S
C818 C822 1.524 . S
C819 C811 1.503 . S
C819 C818 1.370 . S
C819 C820 1.403 . S
C820 C819 1.403 . S
C820 C821 1.404 . S
C820 C823 1.539 . S
C821 C817 1.408 . S
C821 C820 1.404 . S
C821 H833 0.930 . S
C822 C818 1.524 . S
C822 H834 0.956 . S
C822 H835 0.961 . S
C822 H836 0.961 . S
C823 C820 1.539 . S
C823 H837 0.958 . S
C823 H838 0.961 . S
C823 H839 0.960 . S
H824 C808 0.931 . S
H825 C813 0.929 . S
H826 C814 0.960 . S
H827 C814 0.962 . S
H828 C814 0.960 . S
H829 C815 0.961 . S
H830 C815 0.961 . S
H831 C815 0.961 . S
H832 C816 0.931 . S
H833 C821 0.930 . S
H834 C822 0.956 . S
H835 C822 0.961 . S
H836 C822 0.961 . S
H837 C823 0.958 . S
H838 C823 0.961 . S
H839 C823 0.960 . S
C840 C841 1.391 . S
C840 C842 1.394 . S
C840 H856 0.931 . S
C841 C840 1.391 . S
C841 C845 1.376 . S
C842 C840 1.394 . S
C842 C843 1.369 . S
C842 C846 1.531 . S
C843 C842 1.369 . S
C843 C844 1.410 . S
C843 C851 1.503 . S
C844 C843 1.410 . S
C844 C845 1.392 . S
C844 C847 1.511 . S
C845 C841 1.376 . S
C845 C844 1.392 . S
C845 H857 0.929 . S
C846 C842 1.531 . S
C846 H858 0.960 . S
C846 H859 0.962 . S
C846 H860 0.960 . S
C847 C844 1.511 . S
C847 H861 0.961 . S
C847 H862 0.961 . S
C847 H863 0.961 . S
C848 C849 1.370 . S
C848 C850 1.364 . S
C848 H864 0.931 . S
C849 C848 1.370 . S
C849 C853 1.408 1_554 S
C850 C848 1.364 . S
C850 C851 1.370 1_554 S
C850 C854 1.524 . S
C851 C843 1.503 . S
C851 C850 1.370 1_556 S
C851 C852 1.403 . S
C852 C851 1.403 . S
C852 C853 1.404 . S
C852 C855 1.539 . S
C853 C849 1.408 1_556 S
C853 C852 1.404 . S
C853 H865 0.930 . S
C854 C850 1.524 . S
C854 H866 0.956 1_554 S
C854 H867 0.961 1_554 S
C854 H868 0.961 . S
C855 C852 1.539 . S
C855 H869 0.958 . S
C855 H870 0.961 . S
C855 H871 0.960 . S
H856 C840 0.931 . S
H857 C845 0.929 . S
H858 C846 0.960 . S
H859 C846 0.962 . S
H860 C846 0.960 . S
H861 C847 0.961 . S
H862 C847 0.961 . S
H863 C847 0.961 . S
H864 C848 0.931 . S
H865 C853 0.930 . S
H866 C854 0.956 1_556 S
H867 C854 0.961 1_556 S
H868 C854 0.961 . S
H869 C855 0.958 . S
H870 C855 0.961 . S
H871 C855 0.960 . S
C872 C873 1.391 . S
C872 C874 1.394 . S
C872 H888 0.931 . S
C873 C872 1.391 . S
C873 C877 1.376 . S
C874 C872 1.394 . S
C874 C875 1.369 . S
C874 C878 1.531 . S
C875 C874 1.369 . S
C875 C876 1.410 . S
C875 C883 1.503 . S
C876 C875 1.410 . S
C876 C877 1.392 . S
C876 C879 1.511 . S
C877 C873 1.376 . S
C877 C876 1.392 . S
C877 H889 0.929 . S
C878 C874 1.531 . S
C878 H890 0.960 . S
C878 H891 0.962 . S
C878 H892 0.960 . S
C879 C876 1.511 . S
C879 H893 0.961 . S
C879 H894 0.961 . S
C879 H895 0.961 . S
C880 C881 1.370 . S
C880 C882 1.363 . S
C880 H896 0.931 . S
C881 C880 1.370 . S
C881 C885 1.408 . S
C882 C880 1.363 . S
C882 C883 1.370 . S
C882 C886 1.524 . S
C883 C875 1.503 . S
C883 C882 1.370 . S
C883 C884 1.403 . S
C884 C883 1.403 . S
C884 C885 1.404 . S
C884 C887 1.539 . S
C885 C881 1.408 . S
C885 C884 1.404 . S
C885 H897 0.930 . S
C886 C882 1.524 . S
C886 H898 0.956 . S
C886 H899 0.961 . S
C886 H900 0.961 . S
C887 C884 1.539 . S
C887 H901 0.958 . S
C887 H902 0.961 . S
C887 H903 0.960 . S
H888 C872 0.931 . S
H889 C877 0.929 . S
H890 C878 0.960 . S
H891 C878 0.962 . S
H892 C878 0.960 . S
H893 C879 0.961 . S
H894 C879 0.961 . S
H895 C879 0.961 . S
H896 C880 0.931 . S
H897 C885 0.930 . S
H898 C886 0.956 . S
H899 C886 0.961 . S
H900 C886 0.961 . S
H901 C887 0.958 . S
H902 C887 0.961 . S
H903 C887 0.960 . S
C904 C905 1.391 . S
C904 C906 1.394 . S
C904 H920 0.931 . S
C905 C904 1.391 . S
C905 C909 1.376 . S
C906 C904 1.394 . S
C906 C907 1.369 . S
C906 C910 1.531 . S
C907 C906 1.369 . S
C907 C908 1.410 . S
C907 C915 1.503 . S
C908 C907 1.410 . S
C908 C909 1.392 . S
C908 C911 1.511 . S
C909 C905 1.376 . S
C909 C908 1.392 . S
C909 H921 0.929 . S
C910 C906 1.531 . S
C910 H922 0.960 . S
C910 H923 0.962 . S
C910 H924 0.960 . S
C911 C908 1.511 . S
C911 H925 0.961 . S
C911 H926 0.961 . S
C911 H927 0.961 . S
C912 C913 1.370 . S
C912 C914 1.363 . S
C912 H928 0.931 . S
C913 C912 1.370 . S
C913 C917 1.408 . S
C914 C912 1.363 . S
C914 C915 1.370 . S
C914 C918 1.524 . S
C915 C907 1.503 . S
C915 C914 1.370 . S
C915 C916 1.403 . S
C916 C915 1.403 . S
C916 C917 1.404 . S
C916 C919 1.539 . S
C917 C913 1.408 . S
C917 C916 1.404 . S
C917 H929 0.930 . S
C918 C914 1.524 . S
C918 H930 0.956 . S
C918 H931 0.961 . S
C918 H932 0.961 . S
C919 C916 1.539 . S
C919 H933 0.958 . S
C919 H934 0.961 . S
C919 H935 0.960 . S
H920 C904 0.931 . S
H921 C909 0.929 . S
H922 C910 0.960 . S
H923 C910 0.962 . S
H924 C910 0.960 . S
H925 C911 0.961 . S
H926 C911 0.961 . S
H927 C911 0.961 . S
H928 C912 0.931 . S
H929 C917 0.930 . S
H930 C918 0.956 . S
H931 C918 0.961 . S
H932 C918 0.961 . S
H933 C919 0.958 . S
H934 C919 0.961 . S
H935 C919 0.960 . S
C936 C937 1.391 . S
C936 C938 1.394 . S
C936 H952 0.931 . S
C937 C936 1.391 . S
C937 C941 1.376 . S
C938 C936 1.394 . S
C938 C939 1.369 . S
C938 C942 1.531 . S
C939 C938 1.369 . S
C939 C940 1.410 . S
C939 C947 1.503 . S
C940 C939 1.410 . S
C940 C941 1.392 . S
C940 C943 1.511 . S
C941 C937 1.376 . S
C941 C940 1.392 . S
C941 H953 0.929 . S
C942 C938 1.531 . S
C942 H954 0.960 . S
C942 H955 0.962 . S
C942 H956 0.960 . S
C943 C940 1.511 . S
C943 H957 0.961 . S
C943 H958 0.961 . S
C943 H959 0.961 . S
C944 C945 1.370 . S
C944 C946 1.363 . S
C944 H960 0.931 . S
C945 C944 1.370 . S
C945 C949 1.408 . S
C946 C944 1.363 . S
C946 C947 1.370 . S
C946 C950 1.524 . S
C947 C939 1.503 . S
C947 C946 1.370 . S
C947 C948 1.403 . S
C948 C947 1.403 . S
C948 C949 1.404 . S
C948 C951 1.539 . S
C949 C945 1.408 . S
C949 C948 1.404 . S
C949 H961 0.930 . S
C950 C946 1.524 . S
C950 H962 0.956 . S
C950 H963 0.961 . S
C950 H964 0.961 . S
C951 C948 1.539 . S
C951 H965 0.958 . S
C951 H966 0.961 . S
C951 H967 0.960 . S
H952 C936 0.931 . S
H953 C941 0.929 . S
H954 C942 0.960 . S
H955 C942 0.962 . S
H956 C942 0.960 . S
H957 C943 0.961 . S
H958 C943 0.961 . S
H959 C943 0.961 . S
H960 C944 0.931 . S
H961 C949 0.930 . S
H962 C950 0.956 . S
H963 C950 0.961 . S
H964 C950 0.961 . S
H965 C951 0.958 . S
H966 C951 0.961 . S
H967 C951 0.960 . S
C968 C969 1.391 . S
C968 C970 1.394 . S
C968 H984 0.931 . S
C969 C968 1.391 . S
C969 C973 1.376 . S
C970 C968 1.394 . S
C970 C971 1.369 . S
C970 C974 1.531 . S
C971 C970 1.369 . S
C971 C972 1.410 . S
C971 C979 1.503 . S
C972 C971 1.410 . S
C972 C973 1.392 . S
C972 C975 1.511 . S
C973 C969 1.376 . S
C973 C972 1.392 . S
C973 H985 0.929 . S
C974 C970 1.531 . S
C974 H986 0.960 . S
C974 H987 0.962 . S
C974 H988 0.960 . S
C975 C972 1.511 . S
C975 H989 0.961 . S
C975 H990 0.961 . S
C975 H991 0.961 . S
C976 C977 1.370 . S
C976 C978 1.363 . S
C976 H992 0.931 . S
C977 C976 1.370 . S
C977 C981 1.408 . S
C978 C976 1.363 . S
C978 C979 1.370 . S
C978 C982 1.524 . S
C979 C971 1.503 . S
C979 C978 1.370 . S
C979 C980 1.403 . S
C980 C979 1.403 . S
C980 C981 1.404 . S
C980 C983 1.539 . S
C981 C977 1.408 . S
C981 C980 1.404 . S
C981 H993 0.930 . S
C982 C978 1.524 . S
C982 H994 0.956 . S
C982 H995 0.961 . S
C982 H996 0.961 . S
C983 C980 1.539 . S
C983 H997 0.958 . S
C983 H998 0.961 . S
C983 H999 0.960 . S
H984 C968 0.931 . S
H985 C973 0.929 . S
H986 C974 0.960 . S
H987 C974 0.962 . S
H988 C974 0.960 . S
H989 C975 0.961 . S
H990 C975 0.961 . S
H991 C975 0.961 . S
H992 C976 0.931 . S
H993 C981 0.930 . S
H994 C982 0.956 . S
H995 C982 0.961 . S
H996 C982 0.961 . S
H997 C983 0.958 . S
H998 C983 0.961 . S
H999 C983 0.960 . S
C1000 C1001 1.391 . S
C1000 C1002 1.394 . S
C1000 H1016 0.931 . S
C1001 C1000 1.391 . S
C1001 C1005 1.376 . S
C1002 C1000 1.394 . S
C1002 C1003 1.369 . S
C1002 C1006 1.531 . S
C1003 C1002 1.369 . S
C1003 C1004 1.410 . S
C1003 C1011 1.503 . S
C1004 C1003 1.410 . S
C1004 C1005 1.392 . S
C1004 C1007 1.511 . S
C1005 C1001 1.376 . S
C1005 C1004 1.392 . S
C1005 H1017 0.929 . S
C1006 C1002 1.531 . S
C1006 H1018 0.960 . S
C1006 H1019 0.962 . S
C1006 H1020 0.960 . S
C1007 C1004 1.511 . S
C1007 H1021 0.961 . S
C1007 H1022 0.961 . S
C1007 H1023 0.961 . S
C1008 C1009 1.370 . S
C1008 C1010 1.363 . S
C1008 H1024 0.931 . S
C1009 C1008 1.370 . S
C1009 C1013 1.408 . S
C1010 C1008 1.363 . S
C1010 C1011 1.370 . S
C1010 C1014 1.524 . S
C1011 C1003 1.503 . S
C1011 C1010 1.370 . S
C1011 C1012 1.403 . S
C1012 C1011 1.403 . S
C1012 C1013 1.404 . S
C1012 C1015 1.539 . S
C1013 C1009 1.408 . S
C1013 C1012 1.404 . S
C1013 H1025 0.930 . S
C1014 C1010 1.524 . S
C1014 H1026 0.956 . S
C1014 H1027 0.961 . S
C1014 H1028 0.961 . S
C1015 C1012 1.539 . S
C1015 H1029 0.958 . S
C1015 H1030 0.961 . S
C1015 H1031 0.960 . S
H1016 C1000 0.931 . S
H1017 C1005 0.929 . S
H1018 C1006 0.960 . S
H1019 C1006 0.962 . S
H1020 C1006 0.960 . S
H1021 C1007 0.961 . S
H1022 C1007 0.961 . S
H1023 C1007 0.961 . S
H1024 C1008 0.931 . S
H1025 C1013 0.930 . S
H1026 C1014 0.956 . S
H1027 C1014 0.961 . S
H1028 C1014 0.961 . S
H1029 C1015 0.958 . S
H1030 C1015 0.961 . S
H1031 C1015 0.960 . S
C1032 C1033 1.391 . S
C1032 C1034 1.394 . S
C1032 H1048 0.931 . S
C1033 C1032 1.391 . S
C1033 C1037 1.376 . S
C1034 C1032 1.394 . S
C1034 C1035 1.369 . S
C1034 C1038 1.531 . S
C1035 C1034 1.369 . S
C1035 C1036 1.410 . S
C1035 C1043 1.503 . S
C1036 C1035 1.410 . S
C1036 C1037 1.392 . S
C1036 C1039 1.511 . S
C1037 C1033 1.376 . S
C1037 C1036 1.392 . S
C1037 H1049 0.929 . S
C1038 C1034 1.531 . S
C1038 H1050 0.960 . S
C1038 H1051 0.962 . S
C1038 H1052 0.960 . S
C1039 C1036 1.511 . S
C1039 H1053 0.961 . S
C1039 H1054 0.961 . S
C1039 H1055 0.961 . S
C1040 C1041 1.370 . S
C1040 C1042 1.363 . S
C1040 H1056 0.931 . S
C1041 C1040 1.370 . S
C1041 C1045 1.408 . S
C1042 C1040 1.363 . S
C1042 C1043 1.370 . S
C1042 C1046 1.524 . S
C1043 C1035 1.503 . S
C1043 C1042 1.370 . S
C1043 C1044 1.403 . S
C1044 C1043 1.403 . S
C1044 C1045 1.404 . S
C1044 C1047 1.539 . S
C1045 C1041 1.408 . S
C1045 C1044 1.404 . S
C1045 H1057 0.930 . S
C1046 C1042 1.524 . S
C1046 H1058 0.956 . S
C1046 H1059 0.961 . S
C1046 H1060 0.961 . S
C1047 C1044 1.539 . S
C1047 H1061 0.958 . S
C1047 H1062 0.961 . S
C1047 H1063 0.960 . S
H1048 C1032 0.931 . S
H1049 C1037 0.929 . S
H1050 C1038 0.960 . S
H1051 C1038 0.962 . S
H1052 C1038 0.960 . S
H1053 C1039 0.961 . S
H1054 C1039 0.961 . S
H1055 C1039 0.961 . S
H1056 C1040 0.931 . S
H1057 C1045 0.930 . S
H1058 C1046 0.956 . S
H1059 C1046 0.961 . S
H1060 C1046 0.961 . S
H1061 C1047 0.958 . S
H1062 C1047 0.961 . S
H1063 C1047 0.960 . S
C1064 C1065 1.391 . S
C1064 C1066 1.394 . S
C1064 H1080 0.931 . S
C1065 C1064 1.391 . S
C1065 C1069 1.376 . S
C1066 C1064 1.394 . S
C1066 C1067 1.369 . S
C1066 C1070 1.531 . S
C1067 C1066 1.369 . S
C1067 C1068 1.410 . S
C1067 C1075 1.503 . S
C1068 C1067 1.410 . S
C1068 C1069 1.392 . S
C1068 C1071 1.511 . S
C1069 C1065 1.376 . S
C1069 C1068 1.392 . S
C1069 H1081 0.929 . S
C1070 C1066 1.531 . S
C1070 H1082 0.960 . S
C1070 H1083 0.962 . S
C1070 H1084 0.960 . S
C1071 C1068 1.511 . S
C1071 H1085 0.961 . S
C1071 H1086 0.961 . S
C1071 H1087 0.961 . S
C1072 C1073 1.370 . S
C1072 C1074 1.363 1_556 S
C1072 H1088 0.931 . S
C1073 C1072 1.370 . S
C1073 C1077 1.408 . S
C1074 C1072 1.363 1_554 S
C1074 C1075 1.370 . S
C1074 C1078 1.524 . S
C1075 C1067 1.503 . S
C1075 C1074 1.370 . S
C1075 C1076 1.403 1_554 S
C1076 C1075 1.403 1_556 S
C1076 C1077 1.404 . S
C1076 C1079 1.539 . S
C1077 C1073 1.408 . S
C1077 C1076 1.404 . S
C1077 H1089 0.930 . S
C1078 C1074 1.524 . S
C1078 H1090 0.956 . S
C1078 H1091 0.961 . S
C1078 H1092 0.961 . S
C1079 C1076 1.539 . S
C1079 H1093 0.958 . S
C1079 H1094 0.961 . S
C1079 H1095 0.960 . S
H1080 C1064 0.931 . S
H1081 C1069 0.929 . S
H1082 C1070 0.960 . S
H1083 C1070 0.962 . S
H1084 C1070 0.960 . S
H1085 C1071 0.961 . S
H1086 C1071 0.961 . S
H1087 C1071 0.961 . S
H1088 C1072 0.931 . S
H1089 C1077 0.930 . S
H1090 C1078 0.956 . S
H1091 C1078 0.961 . S
H1092 C1078 0.961 . S
H1093 C1079 0.958 . S
H1094 C1079 0.961 . S
H1095 C1079 0.960 . S
C1096 C1097 1.391 . S
C1096 C1098 1.394 . S
C1096 H1112 0.931 . S
C1097 C1096 1.391 . S
C1097 C1101 1.376 . S
C1098 C1096 1.394 . S
C1098 C1099 1.369 . S
C1098 C1102 1.531 . S
C1099 C1098 1.369 . S
C1099 C1100 1.410 . S
C1099 C1107 1.503 . S
C1100 C1099 1.410 . S
C1100 C1101 1.392 . S
C1100 C1103 1.511 . S
C1101 C1097 1.376 . S
C1101 C1100 1.392 . S
C1101 H1113 0.929 . S
C1102 C1098 1.531 . S
C1102 H1114 0.960 . S
C1102 H1115 0.962 . S
C1102 H1116 0.960 . S
C1103 C1100 1.511 . S
C1103 H1117 0.961 . S
C1103 H1118 0.961 . S
C1103 H1119 0.961 . S
C1104 C1105 1.370 . S
C1104 C1106 1.363 . S
C1104 H1120 0.931 . S
C1105 C1104 1.370 . S
C1105 C1109 1.408 . S
C1106 C1104 1.363 . S
C1106 C1107 1.370 . S
C1106 C1110 1.524 . S
C1107 C1099 1.503 . S
C1107 C1106 1.370 . S
C1107 C1108 1.403 . S
C1108 C1107 1.403 . S
C1108 C1109 1.404 . S
C1108 C1111 1.539 . S
C1109 C1105 1.408 . S
C1109 C1108 1.404 . S
C1109 H1121 0.930 . S
C1110 C1106 1.524 . S
C1110 H1122 0.956 . S
C1110 H1123 0.961 . S
C1110 H1124 0.961 . S
C1111 C1108 1.539 . S
C1111 H1125 0.958 . S
C1111 H1126 0.961 . S
C1111 H1127 0.960 . S
H1112 C1096 0.931 . S
H1113 C1101 0.929 . S
H1114 C1102 0.960 . S
H1115 C1102 0.962 . S
H1116 C1102 0.960 . S
H1117 C1103 0.961 . S
H1118 C1103 0.961 . S
H1119 C1103 0.961 . S
H1120 C1104 0.931 . S
H1121 C1109 0.930 . S
H1122 C1110 0.956 . S
H1123 C1110 0.961 . S
H1124 C1110 0.961 . S
H1125 C1111 0.958 . S
H1126 C1111 0.961 . S
H1127 C1111 0.960 . S
C369 C349 1.604 . S
C361 C15 1.603 . S
C393 C61 1.600 . S
C401 C279 1.598 . S
C425 C114 1.581 . S
C433 C298 1.632 . S
C457 C139 1.607 . S
C465 C307 1.607 . S
C497 C321 1.600 . S
C489 C185 1.593 . S
C521 C245 1.621 . S
C529 C340 1.624 . S
C553 C47 1.572 . S
C561 C293 1.576 . S
C585 C100 1.593 . S
C593 C312 1.605 . S
C617 C153 1.567 . S
C625 C326 1.605 . S
C657 C335 1.584 . S
C649 C199 1.540 . S
C689 C354 1.605 . S
C681 C231 1.586 . S
C721 C284 1.602 . S
C713 C1 1.583 . S
C745 C22 1.484 . S
C753 C299 1.482 . S
C777 C68 1.471 . S
C785 C311 1.459 . S
C817 C325 1.467 . S
C809 C107 1.493 . S
C841 C146 1.480 . S
C849 C341 1.477 . S
C881 C353 1.475 . S
C873 C192 1.480 . S
C913 C283 1.468 . S
C905 C252 1.479 . S
C945 C355 1.491 . S
C937 C54 1.496 . S
C969 C93 1.501 . S
C977 C285 1.490 . S
C1009 C297 1.466 . S
C1001 C160 1.492 . S
C1033 C206 1.487 . S
C1041 C313 1.483 . S
C1065 C238 1.505 . S
C1073 C327 1.493 . S
C1097 C8 1.487 . S
C1105 C339 1.474 . S
