# Generated by pormake.
# Topology anh, (6,3)-cn, num edge types: 1
# Building blocks:
#     Node 0, Type 0, BuildingBlock: CUKXOW_clean_sbu_0, # of connection points: 6
#     Node 1, Type 0, BuildingBlock: CUKXOW_clean_sbu_0, # of connection points: 6
#     Node 2, Type 0, BuildingBlock: CUKXOW_clean_sbu_0, # of connection points: 6
#     Node 3, Type 1, BuildingBlock: BETDIP_clean_linker_0, # of connection points: 3
#     Node 4, Type 1, BuildingBlock: BETDIP_clean_linker_0, # of connection points: 3
#     Node 5, Type 1, BuildingBlock: BETDIP_clean_linker_0, # of connection points: 3
#     Node 6, Type 1, BuildingBlock: BETDIP_clean_linker_0, # of connection points: 3
#     Node 7, Type 1, BuildingBlock: BETDIP_clean_linker_0, # of connection points: 3
#     Node 8, Type 1, BuildingBlock: BETDIP_clean_linker_0, # of connection points: 3
#     Edge 9, Type (0, 1), BuildingBlock: XIVTED_clean_linker_0, # of connection points: 2
#     Edge 10, Type (0, 1), BuildingBlock: XIVTED_clean_linker_0, # of connection points: 2
#     Edge 11, Type (0, 1), BuildingBlock: XIVTED_clean_linker_0, # of connection points: 2
#     Edge 12, Type (0, 1), BuildingBlock: XIVTED_clean_linker_0, # of connection points: 2
#     Edge 13, Type (0, 1), BuildingBlock: XIVTED_clean_linker_0, # of connection points: 2
#     Edge 14, Type (0, 1), BuildingBlock: XIVTED_clean_linker_0, # of connection points: 2
#     Edge 15, Type (0, 1), BuildingBlock: XIVTED_clean_linker_0, # of connection points: 2
#     Edge 16, Type (0, 1), BuildingBlock: XIVTED_clean_linker_0, # of connection points: 2
#     Edge 17, Type (0, 1), BuildingBlock: XIVTED_clean_linker_0, # of connection points: 2
#     Edge 18, Type (0, 1), BuildingBlock: XIVTED_clean_linker_0, # of connection points: 2
#     Edge 19, Type (0, 1), BuildingBlock: XIVTED_clean_linker_0, # of connection points: 2
#     Edge 20, Type (0, 1), BuildingBlock: XIVTED_clean_linker_0, # of connection points: 2
#     Edge 21, Type (0, 1), BuildingBlock: XIVTED_clean_linker_0, # of connection points: 2
#     Edge 22, Type (0, 1), BuildingBlock: XIVTED_clean_linker_0, # of connection points: 2
#     Edge 23, Type (0, 1), BuildingBlock: XIVTED_clean_linker_0, # of connection points: 2
#     Edge 24, Type (0, 1), BuildingBlock: XIVTED_clean_linker_0, # of connection points: 2
#     Edge 25, Type (0, 1), BuildingBlock: XIVTED_clean_linker_0, # of connection points: 2
#     Edge 26, Type (0, 1), BuildingBlock: XIVTED_clean_linker_0, # of connection points: 2
# Relax obj value: 0.081
# Max RMSD: 0.172
# Mean RMSD: 0.106
data_MOF--net-anh--node1-CUKXOW_clean_sbu_0--node2-BETDIP_clean_linker_0--edge1-XIVTED_clean_linker_0
_symmetry_space_group_name_H-M    P1
_symmetry_Int_Tables_number       1
_symmetry_cell_setting            triclinic
loop_
_symmetry_equiv_pos_as_xyz
'x, y, z'
_cell_length_a     29.104498
_cell_length_b     28.479568
_cell_length_c     48.751515
_cell_angle_alpha  99.172534
_cell_angle_beta   90.412551
_cell_angle_gamma 112.71712
loop_
_atom_site_label
_atom_site_type_symbol
_atom_site_fract_x
_atom_site_fract_y
_atom_site_fract_z
_atom_type_partial_charge
Tb0 Tb 0.10027 0.55261 0.14303 0.0
C1 C 0.06473 0.52021 0.20078 0.0
Tb2 Tb 0.02965 0.43402 0.14594 0.0
O3 O 0.03882 0.58096 0.14323 0.0
O4 O 1.02462 0.50497 0.14336 0.0
O5 O 0.09831 0.55413 0.18776 0.0
C6 C 0.94787 0.35093 0.14956 0.0
O7 O 0.03095 0.4752 0.18784 0.0
C8 C 0.12688 0.45146 0.14672 0.0
C9 C 0.06209 0.46719 0.08791 0.0
O10 O 0.98315 0.3759 0.16924 0.0
O11 O 0.9592 0.37208 0.12747 0.0
O12 O 0.09161 0.40663 0.14798 0.0
O13 O 0.10491 0.48139 0.14522 0.0
O14 O 0.02856 0.43403 0.10142 0.0
O15 O 0.09678 0.51236 0.10038 0.0
C16 C 0.18435 0.63612 0.14549 0.0
O17 O 0.1463 0.62323 0.12754 0.0
O18 O 0.17462 0.60242 0.16194 0.0
C19 C 1.00318 0.53588 0.14356 0.0
Tb20 Tb 0.53133 0.03012 0.50396 0.0
C21 C 0.57144 0.06243 0.44806 0.0
Tb22 Tb 0.64066 0.10549 0.50491 0.0
O23 O 0.50463 0.08751 0.49273 0.0
O24 O 0.57257 0.11067 0.51601 0.0
O25 O 0.53833 0.02559 0.45956 0.0
C26 C 0.72377 0.18747 0.50077 0.0
O27 O 0.61032 0.10081 0.46271 0.0
C28 C 0.6268 0.00903 0.50492 0.0
C29 C 0.59832 0.07675 0.56159 0.0
O30 O 0.70843 0.14318 0.48409 0.0
O31 O 0.69277 0.18524 0.51992 0.0
O32 O 0.66724 0.04794 0.51578 0.0
O33 O 0.59949 0.02526 0.49244 0.0
O34 O 0.6335 0.11076 0.54945 0.0
O35 O 0.55789 0.03968 0.54749 0.0
C36 C 0.44925 0.94597 0.50599 0.0
O37 O 0.45274 0.9933 0.51267 0.0
O38 O 0.49181 0.94621 0.49818 0.0
C39 C 0.54505 0.12667 0.50345 0.0
Tb40 Tb 0.54306 0.59853 0.83368 0.0
C41 C 0.59002 0.6214 0.89382 0.0
Tb42 Tb 0.65625 0.62962 0.84204 0.0
O43 O 0.5301 0.52709 0.84975 0.0
O44 O 0.59307 0.5607 0.82872 0.0
O45 O 0.55384 0.62491 0.87863 0.0
C46 C 0.73869 0.61372 0.84969 0.0
O47 O 0.62954 0.61615 0.88272 0.0
C48 C 0.62751 0.70716 0.85079 0.0
C49 C 0.60921 0.61029 0.78115 0.0
O50 O 0.69753 0.5935 0.86139 0.0
O51 O 0.73425 0.64453 0.83364 0.0
O52 O 0.67 0.70981 0.86117 0.0
O53 O 0.6081 0.66558 0.83373 0.0
O54 O 0.64881 0.6146 0.79669 0.0
O55 O 0.56665 0.60832 0.79176 0.0
C56 C 0.4508 0.57965 0.81497 0.0
O57 O 0.47503 0.55038 0.80797 0.0
O58 O 0.47822 0.61987 0.83318 0.0
C59 C 0.57194 0.525 0.84219 0.0
H60 H 0.50698 0.99241 0.15909 0.0
H61 H 0.57987 0.09403 0.23574 0.0
H62 H 0.46758 0.94341 0.23774 0.0
H63 H 0.58722 0.15497 0.20832 0.0
C64 C 0.6017 0.13789 0.1907 0.0
C65 C 0.51141 1.00022 0.18166 0.0
C66 C 0.48291 0.9624 0.19686 0.0
C67 C 0.54626 0.04794 0.19551 0.0
C68 C 0.55256 0.05765 0.22485 0.0
C69 C 0.52403 0.02035 0.24032 0.0
C70 C 0.48947 0.97278 0.22607 0.0
N71 N 0.57662 0.08445 0.17959 0.0
H72 H 0.56997 0.51593 0.49228 0.0
H73 H 0.58729 0.62712 0.56685 0.0
H74 H 0.6044 0.48607 0.57225 0.0
H75 H 0.51756 0.62869 0.54093 0.0
C76 C 0.54 0.63958 0.52346 0.0
C77 C 0.57787 0.52784 0.51463 0.0
C78 C 0.58881 0.49576 0.53066 0.0
C79 C 0.57647 0.5751 0.52767 0.0
C80 C 0.58682 0.5902 0.55671 0.0
C81 C 0.59695 0.55839 0.57287 0.0
C82 C 0.59821 0.51156 0.55968 0.0
N83 N 0.56497 0.60763 0.51176 0.0
H84 H 0.99307 0.43481 0.80856 0.0
H85 H 0.08248 0.39451 0.86378 0.0
H86 H 0.96094 0.43289 0.89419 0.0
H87 H 0.0674 0.47251 0.79199 0.0
C88 C 0.08843 0.44875 0.79381 0.0
C89 C 1.00125 0.42817 0.82894 0.0
C90 C 0.97227 0.43529 0.85072 0.0
C91 C 0.04131 0.41391 0.83362 0.0
C92 C 0.05079 0.4043 0.85999 0.0
C93 C 1.02122 0.41021 0.88182 0.0
C94 C 0.98191 0.42538 0.87694 0.0
N95 N 0.0755 0.41392 0.81308 0.0
H96 H 0.09068 0.62649 0.49092 0.0
H97 H 1.00811 0.54349 0.41264 0.0
H98 H 0.15725 0.6569 0.41373 0.0
H99 H 0.94238 0.53664 0.43847 0.0
C100 C 0.95474 0.52528 0.45648 0.0
C101 C 0.08814 0.61928 0.46834 0.0
C102 C 0.12902 0.64624 0.45398 0.0
C103 C 0.0442 0.58226 0.45361 0.0
C104 C 0.04146 0.57247 0.42426 0.0
C105 C 0.08185 0.59951 0.40965 0.0
C106 C 0.12554 0.63618 0.42474 0.0
N107 N 1.0044 0.55317 0.4686 0.0
H108 H 0.60595 0.16384 0.85061 0.0
H109 H 0.59687 0.05405 0.777 0.0
H110 H 0.6217 0.21026 0.77014 0.0
H111 H 0.52937 0.00524 0.80635 0.0
C112 C 0.55837 0.0135 0.82274 0.0
C113 C 0.6073 0.15496 0.82824 0.0
C114 C 0.61539 0.19358 0.81191 0.0
C115 C 0.59973 0.10441 0.81567 0.0
C116 C 0.6014 0.09272 0.78665 0.0
C117 C 0.61029 0.13099 0.77016 0.0
C118 C 0.6171 0.18118 0.78297 0.0
N119 N 0.59131 0.06569 0.83236 0.0
H120 H 0.52079 0.49576 0.1594 0.0
H121 H 0.61464 0.5319 0.09147 0.0
H122 H 0.46843 0.53504 0.08691 0.0
H123 H 0.61762 0.44569 0.10753 0.0
C124 C 0.63702 0.47422 0.12583 0.0
C125 C 0.52671 0.50666 0.13902 0.0
C126 C 0.48914 0.51594 0.12477 0.0
C127 C 0.57197 0.51139 0.12664 0.0
C128 C 0.57931 0.5263 0.10038 0.0
C129 C 0.54255 0.53566 0.08603 0.0
C130 C 0.49772 0.52983 0.09832 0.0
N131 N 0.61093 0.50286 0.14053 0.0
H132 H 0.17473 0.39076 0.15893 0.0
H133 H 0.44731 0.58742 0.13008 0.0
H134 H 0.20372 0.53728 0.13392 0.0
H135 H 0.4174 0.43265 0.14328 0.0
H136 H 0.36051 0.57369 0.13788 0.0
H137 H 0.26413 0.40821 0.15833 0.0
C138 C 0.19997 0.42692 0.15356 0.0
C139 C 0.18159 0.46307 0.14695 0.0
C140 C 0.37284 0.54281 0.13944 0.0
C141 C 0.28458 0.48342 0.14623 0.0
C142 C 0.42264 0.55078 0.13521 0.0
C143 C 0.43993 0.51114 0.13602 0.0
C144 C 0.33932 0.49463 0.14451 0.0
C145 C 0.40601 0.46446 0.14269 0.0
C146 C 0.25111 0.43686 0.15325 0.0
C147 C 0.21617 0.50902 0.13996 0.0
N148 N 0.35733 0.45733 0.1464 0.0
N149 N 0.26577 0.51783 0.13979 0.0
H150 H 0.77042 0.27651 0.53819 0.0
H151 H 0.88002 0.44692 0.42416 0.0
H152 H 0.76793 0.20719 0.45253 0.0
H153 H 0.95749 0.49038 0.50579 0.0
H154 H 0.82831 0.3624 0.4355 0.0
H155 H 0.83096 0.35915 0.52831 0.0
C156 C 0.78317 0.27862 0.51742 0.0
C157 C 0.76447 0.23522 0.49611 0.0
C158 C 0.85674 0.39042 0.45088 0.0
C159 C 0.832 0.32923 0.48462 0.0
C160 C 0.88589 0.43862 0.44453 0.0
C161 C 0.92292 0.47534 0.46407 0.0
C162 C 0.86386 0.37943 0.47723 0.0
C163 C 0.92935 0.46285 0.49014 0.0
C164 C 0.81757 0.32559 0.51185 0.0
C165 C 0.78176 0.23979 0.46953 0.0
N166 N 0.89963 0.41594 0.49613 0.0
N167 N 0.81402 0.28628 0.46439 0.0
H168 H 0.54666 0.70818 0.82321 0.0
H169 H 0.63262 0.0152 0.85908 0.0
H170 H 0.67574 0.80685 0.87863 0.0
H171 H 0.50083 0.9121 0.80683 0.0
H172 H 0.64625 0.93998 0.86975 0.0
H173 H 0.52605 0.78245 0.82036 0.0
C174 C 0.57031 0.74547 0.83511 0.0
C175 C 0.61292 0.75142 0.85119 0.0
C176 C 0.6141 0.93385 0.85617 0.0
C177 C 0.59018 0.83722 0.84762 0.0
C178 C 0.60627 0.97675 0.85011 0.0
C179 C 0.56562 0.96967 0.83193 0.0
C180 C 0.58107 0.88376 0.84388 0.0
C181 C 0.5327 0.91912 0.82087 0.0
C182 C 0.55868 0.78803 0.83338 0.0
C183 C 0.64257 0.80074 0.86595 0.0
N184 N 0.5413 0.87817 0.82687 0.0
N185 N 0.63089 0.84194 0.86363 0.0
H186 H 0.96087 0.60641 0.15538 0.0
H187 H 0.68058 0.40667 0.11012 0.0
H188 H 0.92119 0.44228 0.13382 0.0
H189 H 0.71419 0.55884 0.15733 0.0
H190 H 0.76834 0.41964 0.11719 0.0
H191 H 0.87191 0.59109 0.15472 0.0
C192 C 0.93342 0.567 0.15064 0.0
C193 C 0.94877 0.52553 0.14464 0.0
C194 C 0.75664 0.45009 0.12629 0.0
C195 C 0.84614 0.50768 0.14347 0.0
C196 C 0.70641 0.44271 0.1223 0.0
C197 C 0.68971 0.48153 0.1333 0.0
C198 C 0.79134 0.49732 0.14093 0.0
C199 C 0.72512 0.5276 0.14869 0.0
C200 C 0.88252 0.55831 0.15034 0.0
C201 C 0.9113 0.47538 0.13866 0.0
N202 N 0.77426 0.53443 0.15175 0.0
N203 N 0.86192 0.46792 0.13794 0.0
H204 H 0.43848 0.84614 0.49035 0.0
H205 H 0.14066 0.73107 0.4932 0.0
H206 H 0.3559 0.93955 0.51895 0.0
H207 H 0.22336 0.65071 0.44817 0.0
H208 H 0.21996 0.8025 0.51185 0.0
H209 H 0.3607 0.76912 0.48381 0.0
C210 C 0.40394 0.8503 0.4955 0.0
C211 C 0.40332 0.89916 0.50486 0.0
C212 C 0.22069 0.76889 0.49819 0.0
C213 C 0.31424 0.81138 0.49738 0.0
C214 C 0.17558 0.72811 0.48774 0.0
C215 C 0.17576 0.68542 0.46899 0.0
C216 C 0.26602 0.76646 0.48994 0.0
C217 C 0.2218 0.68335 0.46236 0.0
C218 C 0.35957 0.80638 0.49175 0.0
C219 C 0.35773 0.90248 0.51146 0.0
N220 N 0.26507 0.72346 0.47267 0.0
N221 N 0.31481 0.85914 0.50736 0.0
H222 H 0.65129 0.50842 0.81977 0.0
H223 H 0.55569 0.21944 0.84947 0.0
H224 H 0.52566 0.4421 0.86772 0.0
H225 H 0.68138 0.28693 0.80176 0.0
H226 H 0.55198 0.30446 0.86259 0.0
H227 H 0.67038 0.43181 0.81882 0.0
C228 C 0.6281 0.47794 0.8304 0.0
C229 C 0.58665 0.48132 0.84368 0.0
C230 C 0.58083 0.30084 0.84957 0.0
C231 C 0.60766 0.39311 0.84231 0.0
C232 C 0.5832 0.25237 0.84226 0.0
C233 C 0.61848 0.246 0.8242 0.0
C234 C 0.61394 0.34318 0.83868 0.0
C235 C 0.65297 0.28996 0.8153 0.0
C236 C 0.63889 0.43412 0.8298 0.0
C237 C 0.55773 0.44073 0.85705 0.0
N238 N 0.64947 0.3365 0.82236 0.0
N239 N 0.56845 0.39803 0.85578 0.0
H240 H 0.6563 0.97217 0.54684 0.0
H241 H 0.56819 0.67966 0.47524 0.0
H242 H 0.57148 0.92225 0.4672 0.0
H243 H 0.5441 0.72138 0.56124 0.0
H244 H 0.58956 0.77028 0.46939 0.0
H245 H 0.63607 0.88128 0.55029 0.0
C246 C 0.63373 0.94202 0.53001 0.0
C247 C 0.61528 0.95445 0.50679 0.0
C248 C 0.57963 0.75927 0.48948 0.0
C249 C 0.59324 0.85103 0.51026 0.0
C250 C 0.56775 0.70793 0.49284 0.0
C251 C 0.55438 0.69334 0.51875 0.0
C252 C 0.57966 0.79609 0.51243 0.0
C253 C 0.55406 0.73119 0.54092 0.0
C254 C 0.62215 0.89037 0.53202 0.0
C255 C 0.58606 0.91401 0.48554 0.0
N256 N 0.56708 0.78093 0.53737 0.0
N257 N 0.57623 0.86392 0.48763 0.0
H258 H 0.81934 0.63175 0.81771 0.0
H259 H 0.87907 0.40793 0.86961 0.0
H260 H 0.74765 0.55159 0.88358 0.0
H261 H 0.98322 0.5166 0.82442 0.0
H262 H 0.82431 0.45451 0.86925 0.0
H263 H 0.87683 0.58673 0.81581 0.0
C264 C 0.81637 0.60546 0.83203 0.0
C265 C 0.77893 0.59514 0.85078 0.0
C266 C 0.85909 0.46811 0.85933 0.0
C267 C 0.84278 0.54311 0.84827 0.0
C268 C 0.89019 0.44143 0.85946 0.0
C269 C 0.93579 0.45868 0.84723 0.0
C270 C 0.87366 0.51235 0.84684 0.0
C271 C 0.94812 0.50182 0.83392 0.0
C272 C 0.84873 0.57958 0.83081 0.0
C273 C 0.776 0.56048 0.86875 0.0
N274 N 0.91728 0.52748 0.83421 0.0
N275 N 0.80721 0.5354 0.86688 0.0
H276 H 0.2066 0.72025 0.11942 0.0
H277 H 0.47338 0.86697 0.20503 0.0
H278 H 0.26924 0.65541 0.17636 0.0
H279 H 0.40758 0.94318 0.15716 0.0
H280 H 0.40435 0.78479 0.18767 0.0
H281 H 0.2846 0.79829 0.12661 0.0
C282 C 0.23693 0.72234 0.13321 0.0
C283 C 0.23151 0.68184 0.14759 0.0
C284 C 0.40505 0.81929 0.18069 0.0
C285 C 0.3203 0.77011 0.15574 0.0
C286 C 0.4445 0.86615 0.19058 0.0
C287 C 0.44567 0.91183 0.18278 0.0
C288 C 0.36609 0.81804 0.16303 0.0
C289 C 0.40784 0.90868 0.16369 0.0
C290 C 0.28131 0.76674 0.13731 0.0
C291 C 0.27176 0.68611 0.16513 0.0
N292 N 0.36907 0.86258 0.15472 0.0
N293 N 0.3143 0.7295 0.1688 0.0
H294 H 0.62032 0.21145 0.53252 0.0
H295 H 0.51555 0.41614 0.49564 0.0
H296 H 0.49138 0.16714 0.47516 0.0
H297 H 0.65917 0.45723 0.5388 0.0
H298 H 0.50735 0.32575 0.48488 0.0
H299 H 0.63617 0.30211 0.5331 0.0
C300 C 0.59581 0.22087 0.51966 0.0
C301 C 0.55495 0.18173 0.50348 0.0
C302 C 0.54102 0.35474 0.49629 0.0
C303 C 0.57182 0.28588 0.50463 0.0
C304 C 0.54588 0.40637 0.5022 0.0
C305 C 0.5879 0.4441 0.51835 0.0
C306 C 0.57835 0.34092 0.50675 0.0
C307 C 0.62588 0.42923 0.52659 0.0
C308 C 0.60465 0.27275 0.52011 0.0
C309 C 0.52339 0.19622 0.48791 0.0
N310 N 0.61992 0.37888 0.52103 0.0
N311 N 0.53225 0.24716 0.48901 0.0
H312 H 0.39275 0.63562 0.8267 0.0
H313 H 0.14635 0.39418 0.78074 0.0
H314 H 0.39201 0.49358 0.77953 0.0
H315 H 0.14764 0.54782 0.79045 0.0
H316 H 0.23688 0.43044 0.7782 0.0
H317 H 0.30349 0.60646 0.81254 0.0
C318 C 0.37388 0.59867 0.81312 0.0
C319 C 0.39916 0.56645 0.80463 0.0
C320 C 0.21732 0.45622 0.78027 0.0
C321 C 0.2981 0.53303 0.78855 0.0
C322 C 0.16579 0.4355 0.78172 0.0
C323 C 0.14013 0.46831 0.78605 0.0
C324 C 0.24321 0.51013 0.78401 0.0
C325 C 0.16656 0.5215 0.78714 0.0
C326 C 0.32323 0.58221 0.80491 0.0
C327 C 0.37351 0.51919 0.78684 0.0
N328 N 0.2171 0.54109 0.78683 0.0
N329 N 0.32412 0.50349 0.77974 0.0
H330 H 0.87142 0.29089 0.11021 0.0
H331 H 0.67085 0.22414 0.22116 0.0
H332 H 0.91226 0.32473 0.19856 0.0
H333 H 0.64725 0.11928 0.14317 0.0
H334 H 0.75671 0.27187 0.21041 0.0
H335 H 0.78603 0.23532 0.11912 0.0
C336 C 0.86253 0.28602 0.13139 0.0
C337 C 0.89867 0.31225 0.15372 0.0
C338 C 0.73272 0.23839 0.19567 0.0
C339 C 0.8017 0.25053 0.16398 0.0
C340 C 0.68377 0.21147 0.20167 0.0
C341 C 0.65227 0.16781 0.18306 0.0
C342 C 0.74991 0.22216 0.17057 0.0
C343 C 0.67065 0.15271 0.15811 0.0
C344 C 0.81402 0.2545 0.13642 0.0
C345 C 0.88545 0.30504 0.18077 0.0
N346 N 0.71839 0.18018 0.15244 0.0
N347 N 0.8378 0.27544 0.1852 0.0
H348 H 0.9923 0.38337 0.05416 0.0
H349 H 0.1107 0.46213 0.9124 0.0
H350 H 0.1279 0.51729 0.0516 0.0
H351 H 0.96008 0.35374 0.91701 0.0
H352 H 0.12555 0.47087 0.96296 0.0
H353 H 0.98772 0.36141 0.00361 0.0
C354 C 1.02132 0.40813 0.04304 0.0
C355 C 0.06031 0.45265 0.05725 0.0
C356 C 0.08954 0.44454 0.95281 0.0
C357 C 0.05521 0.42735 -0.00088 0.0
C358 C 0.08127 0.43912 0.92399 0.0
C359 C 0.0341 0.40722 0.91068 0.0
C360 C 0.05039 0.41759 0.96825 0.0
C361 C 0.9969 0.37884 0.9266 0.0
C362 C 1.01862 0.39546 0.01411 0.0
C363 C 0.09688 0.48291 0.04155 0.0
N364 N 1.00572 0.38496 0.95458 0.0
N365 N 0.09332 0.46983 0.0133 0.0
H366 H 0.6392 0.11659 0.41403 0.0
H367 H 0.45138 0.99411 0.27713 0.0
H368 H 0.48848 0.00348 0.41297 0.0
H369 H 0.61111 0.07 0.27422 0.0
H370 H 0.46264 0.00701 0.32779 0.0
H371 H 0.62767 0.10987 0.36352 0.0
C372 C 0.60363 0.09055 0.40323 0.0
C373 C 0.56482 0.06035 0.41774 0.0
C374 C 0.49522 0.02091 0.31606 0.0
C375 C 0.55141 0.05273 0.36009 0.0
C376 C 0.48887 0.01334 0.28711 0.0
C377 C 0.53039 0.03053 0.27128 0.0
C378 C 0.54342 0.04623 0.32944 0.0
C379 C 0.57796 0.05645 0.28551 0.0
C380 C 0.59717 0.08663 0.37441 0.0
C381 C 0.51957 0.02723 0.40265 0.0
N382 N 0.58319 0.06342 0.31379 0.0
N383 N 0.51412 0.02437 0.37468 0.0
H384 H 0.68149 0.59638 0.74877 0.0
H385 H 0.5417 0.59779 0.60704 0.0
H386 H 0.54282 0.6179 0.74407 0.0
H387 H 0.66545 0.55014 0.60888 0.0
H388 H 0.54832 0.6155 0.65782 0.0
H389 H 0.68232 0.58853 0.698 0.0
C390 C 0.65141 0.59975 0.73713 0.0
C391 C 0.6119 0.60755 0.75071 0.0
C392 C 0.57422 0.60139 0.64716 0.0
C393 C 0.61272 0.59874 0.69276 0.0
C394 C 0.5707 0.59166 0.61814 0.0
C395 C 0.60304 0.57239 0.6037 0.0
C396 C 0.61037 0.59187 0.66195 0.0
C397 C 0.63941 0.56442 0.61922 0.0
C398 C 0.65186 0.59514 0.70816 0.0
C399 C 0.57389 0.61154 0.73455 0.0
N400 N 0.64204 0.57408 0.64754 0.0
N401 N 0.57525 0.60704 0.70648 0.0
H402 H 0.67223 0.15045 0.59836 0.0
H403 H 0.54673 0.04592 0.73396 0.0
H404 H 0.53598 0.01456 0.59491 0.0
H405 H 0.67581 0.18818 0.73646 0.0
H406 H 0.54625 0.02931 0.6831 0.0
H407 H 0.67786 0.16055 0.64901 0.0
C408 C 0.64356 0.12254 0.6082 0.0
C409 C 0.60336 0.08175 0.59227 0.0
C410 C 0.57479 0.06405 0.69479 0.0
C411 C 0.60963 0.09323 0.65046 0.0
C412 C 0.57528 0.07338 0.72382 0.0
C413 C 0.6112 0.11867 0.73946 0.0
C414 C 0.61059 0.10017 0.6813 0.0
C415 C 0.64698 0.15317 0.7252 0.0
C416 C 0.6468 0.12841 0.63719 0.0
C417 C 0.56748 0.04678 0.6063 0.0
N418 N 0.64566 0.14328 0.69696 0.0
N419 N 0.57138 0.05344 0.63459 0.0
H420 H 0.51725 0.63192 0.9276 0.0
H421 H 0.59154 0.50322 0.04395 0.0
H422 H 0.64958 0.59771 0.92765 0.0
H423 H 0.5116 0.60296 0.06391 0.0
H424 H 0.60439 0.52878 -0.00164 0.0
H425 H 0.50602 0.61378 0.9754 0.0
C426 C 0.5441 0.62114 0.93765 0.0
C427 C 0.5843 0.61623 0.92349 0.0
C428 C 0.58415 0.54516 0.0128 0.0
C429 C 0.57113 0.59459 0.97757 0.0
C430 C 0.57703 0.53083 0.03895 0.0
C431 C 0.55063 0.55105 0.05805 0.0
C432 C 0.56413 0.57939 0.00535 0.0
C433 C 0.53153 0.58564 0.04981 0.0
C434 C 0.53766 0.6108 0.96485 0.0
C435 C 0.61794 0.60202 0.93756 0.0
N436 N 0.53842 0.59852 0.02401 0.0
N437 N 0.61027 0.59121 0.96361 0.0
H438 H 1.01161 0.4566 0.23601 0.0
H439 H 0.11682 0.66938 0.37418 0.0
H440 H 0.11855 0.61203 0.2356 0.0
H441 H 0.03956 0.50597 0.37444 0.0
H442 H 0.11191 0.65115 0.32328 0.0
H443 H 1.01463 0.47649 0.28664 0.0
C444 C 0.03559 0.49503 0.24651 0.0
C445 C 0.06499 0.53268 0.23145 0.0
C446 C 0.09604 0.61934 0.33451 0.0
C447 C 0.06858 0.5556 0.28958 0.0
C448 C 0.09904 0.62964 0.36358 0.0
C449 C 0.07863 0.58914 0.37868 0.0
C450 C 0.07217 0.5682 0.3204 0.0
C451 C 0.05517 0.53853 0.36373 0.0
C452 C 0.03741 0.50626 0.27547 0.0
C453 C 0.09539 0.58172 0.24632 0.0
N454 N 0.05256 0.52954 0.33545 0.0
N455 N 0.09637 0.59178 0.27458 0.0
loop_
_geom_bond_atom_site_label_1
_geom_bond_atom_site_label_2
_geom_bond_distance
_geom_bond_site_symmetry_2
_ccdc_geom_bond_type
Tb0 O3 2.453 . S
Tb0 O4 2.596 . S
Tb0 O5 2.374 . S
Tb0 O13 2.343 . S
Tb0 O15 2.353 . S
Tb0 O17 2.427 . S
Tb0 O18 2.513 . S
C1 O5 1.251 . S
C1 O7 1.263 . S
Tb2 O4 2.343 . S
Tb2 O7 2.353 . S
Tb2 O10 2.427 1_455 S
Tb2 O11 2.513 1_455 S
Tb2 O12 2.453 . S
Tb2 O13 2.596 . S
Tb2 O14 2.374 . S
O3 Tb0 2.453 . S
O3 C19 1.245 1_455 S
O4 Tb0 2.596 . S
O4 Tb2 2.343 . S
O4 C19 1.259 1_455 S
O5 Tb0 2.374 . S
O5 C1 1.251 . S
C6 O10 1.275 . S
C6 O11 1.246 . S
O7 C1 1.263 . S
O7 Tb2 2.353 . S
C8 O12 1.245 . S
C8 O13 1.259 . S
C9 O14 1.250 . S
C9 O15 1.263 . S
O10 Tb2 2.427 1_655 S
O10 C6 1.275 . S
O11 Tb2 2.513 1_655 S
O11 C6 1.246 . S
O12 Tb2 2.453 . S
O12 C8 1.245 . S
O13 Tb0 2.343 . S
O13 Tb2 2.596 . S
O13 C8 1.259 . S
O14 Tb2 2.374 . S
O14 C9 1.250 . S
O15 Tb0 2.353 . S
O15 C9 1.263 . S
C16 O17 1.275 . S
C16 O18 1.246 . S
O17 Tb0 2.427 . S
O17 C16 1.275 . S
O18 Tb0 2.513 . S
O18 C16 1.246 . S
C19 O3 1.245 1_655 S
C19 O4 1.259 1_655 S
Tb20 O23 2.453 . S
Tb20 O24 2.596 . S
Tb20 O25 2.374 . S
Tb20 O33 2.343 . S
Tb20 O35 2.353 . S
Tb20 O37 2.427 1_545 S
Tb20 O38 2.513 1_545 S
C21 O25 1.251 . S
C21 O27 1.263 . S
Tb22 O24 2.343 . S
Tb22 O27 2.353 . S
Tb22 O30 2.427 . S
Tb22 O31 2.513 . S
Tb22 O32 2.453 1_545 S
Tb22 O33 2.596 . S
Tb22 O34 2.374 . S
O23 Tb20 2.453 . S
O23 C39 1.245 . S
O24 Tb20 2.596 . S
O24 Tb22 2.343 . S
O24 C39 1.259 . S
O25 Tb20 2.374 . S
O25 C21 1.251 . S
C26 O30 1.275 . S
C26 O31 1.246 . S
O27 C21 1.263 . S
O27 Tb22 2.353 . S
C28 O32 1.245 . S
C28 O33 1.259 1_565 S
C29 O34 1.250 . S
C29 O35 1.263 . S
O30 Tb22 2.427 . S
O30 C26 1.275 . S
O31 Tb22 2.513 . S
O31 C26 1.246 . S
O32 Tb22 2.453 1_565 S
O32 C28 1.245 . S
O33 Tb20 2.343 . S
O33 Tb22 2.596 . S
O33 C28 1.259 1_545 S
O34 Tb22 2.374 . S
O34 C29 1.250 . S
O35 Tb20 2.353 . S
O35 C29 1.263 . S
C36 O37 1.275 . S
C36 O38 1.246 . S
O37 Tb20 2.427 1_565 S
O37 C36 1.275 . S
O38 Tb20 2.513 1_565 S
O38 C36 1.246 . S
C39 O23 1.245 . S
C39 O24 1.259 . S
Tb40 O43 2.453 . S
Tb40 O44 2.596 . S
Tb40 O45 2.374 . S
Tb40 O53 2.343 . S
Tb40 O55 2.353 . S
Tb40 O57 2.427 . S
Tb40 O58 2.513 . S
C41 O45 1.251 . S
C41 O47 1.263 . S
Tb42 O44 2.343 . S
Tb42 O47 2.353 . S
Tb42 O50 2.427 . S
Tb42 O51 2.513 . S
Tb42 O52 2.453 . S
Tb42 O53 2.596 . S
Tb42 O54 2.374 . S
O43 Tb40 2.453 . S
O43 C59 1.245 . S
O44 Tb40 2.596 . S
O44 Tb42 2.343 . S
O44 C59 1.259 . S
O45 Tb40 2.374 . S
O45 C41 1.251 . S
C46 O50 1.275 . S
C46 O51 1.246 . S
O47 C41 1.263 . S
O47 Tb42 2.353 . S
C48 O52 1.245 . S
C48 O53 1.259 . S
C49 O54 1.250 . S
C49 O55 1.263 . S
O50 Tb42 2.427 . S
O50 C46 1.275 . S
O51 Tb42 2.513 . S
O51 C46 1.246 . S
O52 Tb42 2.453 . S
O52 C48 1.245 . S
O53 Tb40 2.343 . S
O53 Tb42 2.596 . S
O53 C48 1.259 . S
O54 Tb42 2.374 . S
O54 C49 1.250 . S
O55 Tb40 2.353 . S
O55 C49 1.263 . S
C56 O57 1.275 . S
C56 O58 1.246 . S
O57 Tb40 2.427 . S
O57 C56 1.275 . S
O58 Tb40 2.513 . S
O58 C56 1.246 . S
C59 O43 1.245 . S
C59 O44 1.259 . S
H60 C65 0.930 . S
H61 C68 0.930 . S
H62 C70 0.930 . S
H63 C64 1.016 . S
C64 H63 1.016 . S
C64 N71 1.286 . S
C65 H60 0.930 . S
C65 C66 1.397 . S
C65 C67 1.361 . S
C66 C65 1.397 . S
C66 C70 1.390 . S
C67 C65 1.361 . S
C67 C68 1.393 . S
C67 N71 1.413 . S
C68 H61 0.930 . S
C68 C67 1.393 . S
C68 C69 1.399 . S
C69 C68 1.399 . S
C69 C70 1.381 . S
C70 H62 0.930 . S
C70 C66 1.390 . S
C70 C69 1.381 . S
N71 C64 1.286 . S
N71 C67 1.413 . S
H72 C77 0.930 . S
H73 C80 0.930 . S
H74 C82 0.930 . S
H75 C76 1.016 . S
C76 H75 1.016 . S
C76 N83 1.286 . S
C77 H72 0.930 . S
C77 C78 1.397 . S
C77 C79 1.361 . S
C78 C77 1.397 . S
C78 C82 1.390 . S
C79 C77 1.361 . S
C79 C80 1.393 . S
C79 N83 1.413 . S
C80 H73 0.930 . S
C80 C79 1.393 . S
C80 C81 1.399 . S
C81 C80 1.399 . S
C81 C82 1.381 . S
C82 H74 0.930 . S
C82 C78 1.390 . S
C82 C81 1.381 . S
N83 C76 1.286 . S
N83 C79 1.413 . S
H84 C89 0.930 . S
H85 C92 0.930 . S
H86 C94 0.930 . S
H87 C88 1.016 . S
C88 H87 1.016 . S
C88 N95 1.286 . S
C89 H84 0.930 . S
C89 C90 1.397 . S
C89 C91 1.361 . S
C90 C89 1.397 . S
C90 C94 1.390 . S
C91 C89 1.361 . S
C91 C92 1.393 . S
C91 N95 1.413 . S
C92 H85 0.930 . S
C92 C91 1.393 . S
C92 C93 1.399 . S
C93 C92 1.399 . S
C93 C94 1.381 . S
C94 H86 0.930 . S
C94 C90 1.390 . S
C94 C93 1.381 . S
N95 C88 1.286 . S
N95 C91 1.413 . S
H96 C101 0.930 . S
H97 C104 0.930 . S
H98 C106 0.930 . S
H99 C100 1.016 . S
C100 H99 1.016 . S
C100 N107 1.286 . S
C101 H96 0.930 . S
C101 C102 1.397 . S
C101 C103 1.361 1_455 S
C102 C101 1.397 . S
C102 C106 1.390 . S
C103 C101 1.361 1_655 S
C103 C104 1.393 . S
C103 N107 1.413 . S
C104 H97 0.930 . S
C104 C103 1.393 . S
C104 C105 1.399 1_655 S
C105 C104 1.399 1_455 S
C105 C106 1.381 . S
C106 H98 0.930 . S
C106 C102 1.390 . S
C106 C105 1.381 . S
N107 C100 1.286 . S
N107 C103 1.413 . S
H108 C113 0.930 . S
H109 C116 0.930 1_565 S
H110 C118 0.930 . S
H111 C112 1.016 . S
C112 H111 1.016 . S
C112 N119 1.286 . S
C113 H108 0.930 . S
C113 C114 1.397 . S
C113 C115 1.361 . S
C114 C113 1.397 . S
C114 C118 1.390 . S
C115 C113 1.361 . S
C115 C116 1.393 . S
C115 N119 1.413 1_545 S
C116 H109 0.930 1_545 S
C116 C115 1.393 . S
C116 C117 1.399 . S
C117 C116 1.399 . S
C117 C118 1.381 . S
C118 H110 0.930 . S
C118 C114 1.390 . S
C118 C117 1.381 . S
N119 C112 1.286 . S
N119 C115 1.413 1_565 S
H120 C125 0.930 . S
H121 C128 0.930 . S
H122 C130 0.930 . S
H123 C124 1.016 . S
C124 H123 1.016 . S
C124 N131 1.286 . S
C125 H120 0.930 . S
C125 C126 1.397 . S
C125 C127 1.361 . S
C126 C125 1.397 . S
C126 C130 1.390 . S
C127 C125 1.361 . S
C127 C128 1.393 . S
C127 N131 1.413 . S
C128 H121 0.930 . S
C128 C127 1.393 . S
C128 C129 1.399 . S
C129 C128 1.399 . S
C129 C130 1.381 . S
C130 H122 0.930 . S
C130 C126 1.390 . S
C130 C129 1.381 . S
N131 C124 1.286 . S
N131 C127 1.413 . S
H132 C138 0.930 . S
H133 C142 0.930 . S
H134 C147 0.929 . S
H135 C145 0.929 . S
H136 C140 0.929 . S
H137 C146 0.929 . S
C138 H132 0.930 . S
C138 C139 1.367 . S
C138 C146 1.378 . S
C139 C138 1.367 . S
C139 C147 1.433 . S
C140 H136 0.929 . S
C140 C142 1.378 . S
C140 C144 1.350 . S
C141 C144 1.463 . S
C141 C146 1.350 . S
C141 N149 1.427 . S
C142 H133 0.930 . S
C142 C140 1.378 . S
C142 C143 1.367 . S
C143 C142 1.367 . S
C143 C145 1.433 . S
C144 C140 1.350 . S
C144 C141 1.463 . S
C144 N148 1.427 . S
C145 H135 0.929 . S
C145 C143 1.433 . S
C145 N148 1.384 . S
C146 H137 0.929 . S
C146 C138 1.378 . S
C146 C141 1.350 . S
C147 H134 0.929 . S
C147 C139 1.433 . S
C147 N149 1.384 . S
N148 C144 1.427 . S
N148 C145 1.384 . S
N149 C141 1.427 . S
N149 C147 1.384 . S
H150 C156 0.930 . S
H151 C160 0.930 . S
H152 C165 0.929 . S
H153 C163 0.929 . S
H154 C158 0.929 . S
H155 C164 0.929 . S
C156 H150 0.930 . S
C156 C157 1.367 . S
C156 C164 1.378 . S
C157 C156 1.367 . S
C157 C165 1.433 . S
C158 H154 0.929 . S
C158 C160 1.378 . S
C158 C162 1.350 . S
C159 C162 1.463 . S
C159 C164 1.350 . S
C159 N167 1.427 . S
C160 H151 0.930 . S
C160 C158 1.378 . S
C160 C161 1.367 . S
C161 C160 1.367 . S
C161 C163 1.433 . S
C162 C158 1.350 . S
C162 C159 1.463 . S
C162 N166 1.427 . S
C163 H153 0.929 . S
C163 C161 1.433 . S
C163 N166 1.384 . S
C164 H155 0.929 . S
C164 C156 1.378 . S
C164 C159 1.350 . S
C165 H152 0.929 . S
C165 C157 1.433 . S
C165 N167 1.384 . S
N166 C162 1.427 . S
N166 C163 1.384 . S
N167 C159 1.427 . S
N167 C165 1.384 . S
H168 C174 0.930 . S
H169 C178 0.930 . S
H170 C183 0.929 . S
H171 C181 0.929 . S
H172 C176 0.929 . S
H173 C182 0.929 . S
C174 H168 0.930 . S
C174 C175 1.367 . S
C174 C182 1.378 . S
C175 C174 1.367 . S
C175 C183 1.433 . S
C176 H172 0.929 . S
C176 C178 1.378 . S
C176 C180 1.350 . S
C177 C180 1.463 . S
C177 C182 1.350 . S
C177 N185 1.427 . S
C178 H169 0.930 . S
C178 C176 1.378 . S
C178 C179 1.367 . S
C179 C178 1.367 . S
C179 C181 1.433 . S
C180 C176 1.350 . S
C180 C177 1.463 . S
C180 N184 1.427 . S
C181 H171 0.929 . S
C181 C179 1.433 . S
C181 N184 1.384 . S
C182 H173 0.929 . S
C182 C174 1.378 . S
C182 C177 1.350 . S
C183 H170 0.929 . S
C183 C175 1.433 . S
C183 N185 1.384 . S
N184 C180 1.427 . S
N184 C181 1.384 . S
N185 C177 1.427 . S
N185 C183 1.384 . S
H186 C192 0.930 . S
H187 C196 0.930 . S
H188 C201 0.929 . S
H189 C199 0.929 . S
H190 C194 0.929 . S
H191 C200 0.929 . S
C192 H186 0.930 . S
C192 C193 1.367 . S
C192 C200 1.378 . S
C193 C192 1.367 . S
C193 C201 1.433 . S
C194 H190 0.929 . S
C194 C196 1.378 . S
C194 C198 1.350 . S
C195 C198 1.463 . S
C195 C200 1.350 . S
C195 N203 1.427 . S
C196 H187 0.930 . S
C196 C194 1.378 . S
C196 C197 1.367 . S
C197 C196 1.367 . S
C197 C199 1.433 . S
C198 C194 1.350 . S
C198 C195 1.463 . S
C198 N202 1.427 . S
C199 H189 0.929 . S
C199 C197 1.433 . S
C199 N202 1.384 . S
C200 H191 0.929 . S
C200 C192 1.378 . S
C200 C195 1.350 . S
C201 H188 0.929 . S
C201 C193 1.433 . S
C201 N203 1.384 . S
N202 C198 1.427 . S
N202 C199 1.384 . S
N203 C195 1.427 . S
N203 C201 1.384 . S
H204 C210 0.930 . S
H205 C214 0.930 . S
H206 C219 0.929 . S
H207 C217 0.929 . S
H208 C212 0.929 . S
H209 C218 0.929 . S
C210 H204 0.930 . S
C210 C211 1.367 . S
C210 C218 1.378 . S
C211 C210 1.367 . S
C211 C219 1.433 . S
C212 H208 0.929 . S
C212 C214 1.378 . S
C212 C216 1.350 . S
C213 C216 1.463 . S
C213 C218 1.350 . S
C213 N221 1.427 . S
C214 H205 0.930 . S
C214 C212 1.378 . S
C214 C215 1.367 . S
C215 C214 1.367 . S
C215 C217 1.433 . S
C216 C212 1.350 . S
C216 C213 1.463 . S
C216 N220 1.427 . S
C217 H207 0.929 . S
C217 C215 1.433 . S
C217 N220 1.384 . S
C218 H209 0.929 . S
C218 C210 1.378 . S
C218 C213 1.350 . S
C219 H206 0.929 . S
C219 C211 1.433 . S
C219 N221 1.384 . S
N220 C216 1.427 . S
N220 C217 1.384 . S
N221 C213 1.427 . S
N221 C219 1.384 . S
H222 C228 0.930 . S
H223 C232 0.930 . S
H224 C237 0.929 . S
H225 C235 0.929 . S
H226 C230 0.929 . S
H227 C236 0.929 . S
C228 H222 0.930 . S
C228 C229 1.367 . S
C228 C236 1.378 . S
C229 C228 1.367 . S
C229 C237 1.433 . S
C230 H226 0.929 . S
C230 C232 1.378 . S
C230 C234 1.350 . S
C231 C234 1.463 . S
C231 C236 1.350 . S
C231 N239 1.427 . S
C232 H223 0.930 . S
C232 C230 1.378 . S
C232 C233 1.367 . S
C233 C232 1.367 . S
C233 C235 1.433 . S
C234 C230 1.350 . S
C234 C231 1.463 . S
C234 N238 1.427 . S
C235 H225 0.929 . S
C235 C233 1.433 . S
C235 N238 1.384 . S
C236 H227 0.929 . S
C236 C228 1.378 . S
C236 C231 1.350 . S
C237 H224 0.929 . S
C237 C229 1.433 . S
C237 N239 1.384 . S
N238 C234 1.427 . S
N238 C235 1.384 . S
N239 C231 1.427 . S
N239 C237 1.384 . S
H240 C246 0.930 . S
H241 C250 0.930 . S
H242 C255 0.929 . S
H243 C253 0.929 . S
H244 C248 0.929 . S
H245 C254 0.929 . S
C246 H240 0.930 . S
C246 C247 1.367 . S
C246 C254 1.378 . S
C247 C246 1.367 . S
C247 C255 1.433 . S
C248 H244 0.929 . S
C248 C250 1.378 . S
C248 C252 1.350 . S
C249 C252 1.463 . S
C249 C254 1.350 . S
C249 N257 1.427 . S
C250 H241 0.930 . S
C250 C248 1.378 . S
C250 C251 1.367 . S
C251 C250 1.367 . S
C251 C253 1.433 . S
C252 C248 1.350 . S
C252 C249 1.463 . S
C252 N256 1.427 . S
C253 H243 0.929 . S
C253 C251 1.433 . S
C253 N256 1.384 . S
C254 H245 0.929 . S
C254 C246 1.378 . S
C254 C249 1.350 . S
C255 H242 0.929 . S
C255 C247 1.433 . S
C255 N257 1.384 . S
N256 C252 1.427 . S
N256 C253 1.384 . S
N257 C249 1.427 . S
N257 C255 1.384 . S
H258 C264 0.930 . S
H259 C268 0.930 . S
H260 C273 0.929 . S
H261 C271 0.929 . S
H262 C266 0.929 . S
H263 C272 0.929 . S
C264 H258 0.930 . S
C264 C265 1.367 . S
C264 C272 1.378 . S
C265 C264 1.367 . S
C265 C273 1.433 . S
C266 H262 0.929 . S
C266 C268 1.378 . S
C266 C270 1.350 . S
C267 C270 1.463 . S
C267 C272 1.350 . S
C267 N275 1.427 . S
C268 H259 0.930 . S
C268 C266 1.378 . S
C268 C269 1.367 . S
C269 C268 1.367 . S
C269 C271 1.433 . S
C270 C266 1.350 . S
C270 C267 1.463 . S
C270 N274 1.427 . S
C271 H261 0.929 . S
C271 C269 1.433 . S
C271 N274 1.384 . S
C272 H263 0.929 . S
C272 C264 1.378 . S
C272 C267 1.350 . S
C273 H260 0.929 . S
C273 C265 1.433 . S
C273 N275 1.384 . S
N274 C270 1.427 . S
N274 C271 1.384 . S
N275 C267 1.427 . S
N275 C273 1.384 . S
H276 C282 0.930 . S
H277 C286 0.930 . S
H278 C291 0.929 . S
H279 C289 0.929 . S
H280 C284 0.929 . S
H281 C290 0.929 . S
C282 H276 0.930 . S
C282 C283 1.367 . S
C282 C290 1.378 . S
C283 C282 1.367 . S
C283 C291 1.433 . S
C284 H280 0.929 . S
C284 C286 1.378 . S
C284 C288 1.350 . S
C285 C288 1.463 . S
C285 C290 1.350 . S
C285 N293 1.427 . S
C286 H277 0.930 . S
C286 C284 1.378 . S
C286 C287 1.367 . S
C287 C286 1.367 . S
C287 C289 1.433 . S
C288 C284 1.350 . S
C288 C285 1.463 . S
C288 N292 1.427 . S
C289 H279 0.929 . S
C289 C287 1.433 . S
C289 N292 1.384 . S
C290 H281 0.929 . S
C290 C282 1.378 . S
C290 C285 1.350 . S
C291 H278 0.929 . S
C291 C283 1.433 . S
C291 N293 1.384 . S
N292 C288 1.427 . S
N292 C289 1.384 . S
N293 C285 1.427 . S
N293 C291 1.384 . S
H294 C300 0.930 . S
H295 C304 0.930 . S
H296 C309 0.929 . S
H297 C307 0.929 . S
H298 C302 0.929 . S
H299 C308 0.929 . S
C300 H294 0.930 . S
C300 C301 1.367 . S
C300 C308 1.378 . S
C301 C300 1.367 . S
C301 C309 1.433 . S
C302 H298 0.929 . S
C302 C304 1.378 . S
C302 C306 1.350 . S
C303 C306 1.463 . S
C303 C308 1.350 . S
C303 N311 1.427 . S
C304 H295 0.930 . S
C304 C302 1.378 . S
C304 C305 1.367 . S
C305 C304 1.367 . S
C305 C307 1.433 . S
C306 C302 1.350 . S
C306 C303 1.463 . S
C306 N310 1.427 . S
C307 H297 0.929 . S
C307 C305 1.433 . S
C307 N310 1.384 . S
C308 H299 0.929 . S
C308 C300 1.378 . S
C308 C303 1.350 . S
C309 H296 0.929 . S
C309 C301 1.433 . S
C309 N311 1.384 . S
N310 C306 1.427 . S
N310 C307 1.384 . S
N311 C303 1.427 . S
N311 C309 1.384 . S
H312 C318 0.930 . S
H313 C322 0.930 . S
H314 C327 0.929 . S
H315 C325 0.929 . S
H316 C320 0.929 . S
H317 C326 0.929 . S
C318 H312 0.930 . S
C318 C319 1.367 . S
C318 C326 1.378 . S
C319 C318 1.367 . S
C319 C327 1.433 . S
C320 H316 0.929 . S
C320 C322 1.378 . S
C320 C324 1.350 . S
C321 C324 1.463 . S
C321 C326 1.350 . S
C321 N329 1.427 . S
C322 H313 0.930 . S
C322 C320 1.378 . S
C322 C323 1.367 . S
C323 C322 1.367 . S
C323 C325 1.433 . S
C324 C320 1.350 . S
C324 C321 1.463 . S
C324 N328 1.427 . S
C325 H315 0.929 . S
C325 C323 1.433 . S
C325 N328 1.384 . S
C326 H317 0.929 . S
C326 C318 1.378 . S
C326 C321 1.350 . S
C327 H314 0.929 . S
C327 C319 1.433 . S
C327 N329 1.384 . S
N328 C324 1.427 . S
N328 C325 1.384 . S
N329 C321 1.427 . S
N329 C327 1.384 . S
H330 C336 0.930 . S
H331 C340 0.930 . S
H332 C345 0.929 . S
H333 C343 0.929 . S
H334 C338 0.929 . S
H335 C344 0.929 . S
C336 H330 0.930 . S
C336 C337 1.367 . S
C336 C344 1.378 . S
C337 C336 1.367 . S
C337 C345 1.433 . S
C338 H334 0.929 . S
C338 C340 1.378 . S
C338 C342 1.350 . S
C339 C342 1.463 . S
C339 C344 1.350 . S
C339 N347 1.427 . S
C340 H331 0.930 . S
C340 C338 1.378 . S
C340 C341 1.367 . S
C341 C340 1.367 . S
C341 C343 1.433 . S
C342 C338 1.350 . S
C342 C339 1.463 . S
C342 N346 1.427 . S
C343 H333 0.929 . S
C343 C341 1.433 . S
C343 N346 1.384 . S
C344 H335 0.929 . S
C344 C336 1.378 . S
C344 C339 1.350 . S
C345 H332 0.929 . S
C345 C337 1.433 . S
C345 N347 1.384 . S
N346 C342 1.427 . S
N346 C343 1.384 . S
N347 C339 1.427 . S
N347 C345 1.384 . S
H348 C354 0.930 . S
H349 C358 0.930 . S
H350 C363 0.929 . S
H351 C361 0.929 1_655 S
H352 C356 0.929 . S
H353 C362 0.929 . S
C354 H348 0.930 . S
C354 C355 1.367 . S
C354 C362 1.378 . S
C355 C354 1.367 . S
C355 C363 1.433 . S
C356 H352 0.929 . S
C356 C358 1.378 . S
C356 C360 1.350 . S
C357 C360 1.463 1_554 S
C357 C362 1.350 . S
C357 N365 1.427 . S
C358 H349 0.930 . S
C358 C356 1.378 . S
C358 C359 1.367 . S
C359 C358 1.367 . S
C359 C361 1.433 . S
C360 C356 1.350 . S
C360 C357 1.463 1_556 S
C360 N364 1.427 . S
C361 H351 0.929 1_455 S
C361 C359 1.433 . S
C361 N364 1.384 . S
C362 H353 0.929 . S
C362 C354 1.378 . S
C362 C357 1.350 . S
C363 H350 0.929 . S
C363 C355 1.433 . S
C363 N365 1.384 . S
N364 C360 1.427 . S
N364 C361 1.384 . S
N365 C357 1.427 . S
N365 C363 1.384 . S
H366 C372 0.930 . S
H367 C376 0.930 . S
H368 C381 0.929 . S
H369 C379 0.929 . S
H370 C374 0.929 . S
H371 C380 0.929 . S
C372 H366 0.930 . S
C372 C373 1.367 . S
C372 C380 1.378 . S
C373 C372 1.367 . S
C373 C381 1.433 . S
C374 H370 0.929 . S
C374 C376 1.378 . S
C374 C378 1.350 . S
C375 C378 1.463 . S
C375 C380 1.350 . S
C375 N383 1.427 . S
C376 H367 0.930 . S
C376 C374 1.378 . S
C376 C377 1.367 . S
C377 C376 1.367 . S
C377 C379 1.433 . S
C378 C374 1.350 . S
C378 C375 1.463 . S
C378 N382 1.427 . S
C379 H369 0.929 . S
C379 C377 1.433 . S
C379 N382 1.384 . S
C380 H371 0.929 . S
C380 C372 1.378 . S
C380 C375 1.350 . S
C381 H368 0.929 . S
C381 C373 1.433 . S
C381 N383 1.384 . S
N382 C378 1.427 . S
N382 C379 1.384 . S
N383 C375 1.427 . S
N383 C381 1.384 . S
H384 C390 0.930 . S
H385 C394 0.930 . S
H386 C399 0.929 . S
H387 C397 0.929 . S
H388 C392 0.929 . S
H389 C398 0.929 . S
C390 H384 0.930 . S
C390 C391 1.367 . S
C390 C398 1.378 . S
C391 C390 1.367 . S
C391 C399 1.433 . S
C392 H388 0.929 . S
C392 C394 1.378 . S
C392 C396 1.350 . S
C393 C396 1.463 . S
C393 C398 1.350 . S
C393 N401 1.427 . S
C394 H385 0.930 . S
C394 C392 1.378 . S
C394 C395 1.367 . S
C395 C394 1.367 . S
C395 C397 1.433 . S
C396 C392 1.350 . S
C396 C393 1.463 . S
C396 N400 1.427 . S
C397 H387 0.929 . S
C397 C395 1.433 . S
C397 N400 1.384 . S
C398 H389 0.929 . S
C398 C390 1.378 . S
C398 C393 1.350 . S
C399 H386 0.929 . S
C399 C391 1.433 . S
C399 N401 1.384 . S
N400 C396 1.427 . S
N400 C397 1.384 . S
N401 C393 1.427 . S
N401 C399 1.384 . S
H402 C408 0.930 . S
H403 C412 0.930 . S
H404 C417 0.929 . S
H405 C415 0.929 . S
H406 C410 0.929 . S
H407 C416 0.929 . S
C408 H402 0.930 . S
C408 C409 1.367 . S
C408 C416 1.378 . S
C409 C408 1.367 . S
C409 C417 1.433 . S
C410 H406 0.929 . S
C410 C412 1.378 . S
C410 C414 1.350 . S
C411 C414 1.463 . S
C411 C416 1.350 . S
C411 N419 1.427 . S
C412 H403 0.930 . S
C412 C410 1.378 . S
C412 C413 1.367 . S
C413 C412 1.367 . S
C413 C415 1.433 . S
C414 C410 1.350 . S
C414 C411 1.463 . S
C414 N418 1.427 . S
C415 H405 0.929 . S
C415 C413 1.433 . S
C415 N418 1.384 . S
C416 H407 0.929 . S
C416 C408 1.378 . S
C416 C411 1.350 . S
C417 H404 0.929 . S
C417 C409 1.433 . S
C417 N419 1.384 . S
N418 C414 1.427 . S
N418 C415 1.384 . S
N419 C411 1.427 . S
N419 C417 1.384 . S
H420 C426 0.930 . S
H421 C430 0.930 . S
H422 C435 0.929 . S
H423 C433 0.929 . S
H424 C428 0.929 . S
H425 C434 0.929 . S
C426 H420 0.930 . S
C426 C427 1.367 . S
C426 C434 1.378 . S
C427 C426 1.367 . S
C427 C435 1.433 . S
C428 H424 0.929 . S
C428 C430 1.378 . S
C428 C432 1.350 . S
C429 C432 1.463 1_556 S
C429 C434 1.350 . S
C429 N437 1.427 . S
C430 H421 0.930 . S
C430 C428 1.378 . S
C430 C431 1.367 . S
C431 C430 1.367 . S
C431 C433 1.433 . S
C432 C428 1.350 . S
C432 C429 1.463 1_554 S
C432 N436 1.427 . S
C433 H423 0.929 . S
C433 C431 1.433 . S
C433 N436 1.384 . S
C434 H425 0.929 . S
C434 C426 1.378 . S
C434 C429 1.350 . S
C435 H422 0.929 . S
C435 C427 1.433 . S
C435 N437 1.384 . S
N436 C432 1.427 . S
N436 C433 1.384 . S
N437 C429 1.427 . S
N437 C435 1.384 . S
H438 C444 0.932 . S
H439 C448 0.930 . S
H440 C453 0.929 . S
H441 C451 0.929 . S
H442 C446 0.929 . S
H443 C452 0.929 1_655 S
C444 H438 0.932 . S
C444 C445 1.367 . S
C444 C452 1.378 . S
C445 C444 1.367 . S
C445 C453 1.433 . S
C446 H442 0.929 . S
C446 C448 1.378 . S
C446 C450 1.350 . S
C447 C450 1.463 . S
C447 C452 1.350 . S
C447 N455 1.427 . S
C448 H439 0.930 . S
C448 C446 1.378 . S
C448 C449 1.367 . S
C449 C448 1.367 . S
C449 C451 1.433 1_455 S
C450 C446 1.350 . S
C450 C447 1.463 . S
C450 N454 1.427 1_455 S
C451 H441 0.929 . S
C451 C449 1.433 1_655 S
C451 N454 1.384 . S
C452 H443 0.929 1_455 S
C452 C444 1.378 . S
C452 C447 1.350 . S
C453 H440 0.929 . S
C453 C445 1.433 . S
C453 N455 1.384 . S
N454 C450 1.427 1_655 S
N454 C451 1.384 . S
N455 C447 1.427 . S
N455 C453 1.384 . S
C139 C8 2.189 . S
C143 C126 2.271 . S
C157 C26 1.397 . S
C161 C100 1.379 . S
C175 C48 1.566 . S
C179 C112 1.583 . S
C193 C19 1.595 . S
C197 C124 1.575 . S
C215 C102 1.352 . S
C211 C36 1.349 . S
C233 C114 1.551 . S
C229 C59 1.503 . S
C247 C28 1.572 . S
C251 C76 1.599 . S
C265 C46 1.398 . S
C269 C90 1.425 1_655 S
C283 C16 1.362 . S
C287 C66 1.357 1_565 S
C305 C78 1.551 . S
C301 C39 1.504 . S
C323 C88 0.795 . S
C319 C56 0.812 . S
C337 C6 1.417 . S
C341 C64 1.396 . S
C359 C93 1.489 . S
C355 C9 1.444 . S
C373 C21 1.523 . S
C377 C69 1.541 . S
C391 C49 1.485 . S
C395 C81 1.477 . S
C413 C117 1.498 . S
C409 C29 1.505 . S
C431 C129 1.625 . S
C427 C41 1.590 . S
C445 C1 1.503 . S
C449 C105 1.504 . S
