# Generated by pormake.
# Topology nom, (4,4)-cn, num edge types: 1
# Building blocks:
#     Node 0, Type 0, BuildingBlock: KUFVIS_clean_linker_0, # of connection points: 4
#     Node 1, Type 0, BuildingBlock: KUFVIS_clean_linker_0, # of connection points: 4
#     Node 2, Type 0, BuildingBlock: KUFVIS_clean_linker_0, # of connection points: 4
#     Node 3, Type 0, BuildingBlock: KUFVIS_clean_linker_0, # of connection points: 4
#     Node 4, Type 0, BuildingBlock: KUFVIS_clean_linker_0, # of connection points: 4
#     Node 5, Type 0, BuildingBlock: KUFVIS_clean_linker_0, # of connection points: 4
#     Node 6, Type 1, BuildingBlock: UXUYUI_clean_sbu_0, # of connection points: 4
#     Node 7, Type 1, BuildingBlock: UXUYUI_clean_sbu_0, # of connection points: 4
#     Node 8, Type 1, BuildingBlock: UXUYUI_clean_sbu_0, # of connection points: 4
#     Node 9, Type 1, BuildingBlock: UXUYUI_clean_sbu_0, # of connection points: 4
#     Node 10, Type 1, BuildingBlock: UXUYUI_clean_sbu_0, # of connection points: 4
#     Node 11, Type 1, BuildingBlock: UXUYUI_clean_sbu_0, # of connection points: 4
#     Edge 12, Type (0, 1), BuildingBlock: ZUJKAS_clean_linker_0, # of connection points: 2
#     Edge 13, Type (0, 1), BuildingBlock: ZUJKAS_clean_linker_0, # of connection points: 2
#     Edge 14, Type (0, 1), BuildingBlock: ZUJKAS_clean_linker_0, # of connection points: 2
#     Edge 15, Type (0, 1), BuildingBlock: ZUJKAS_clean_linker_0, # of connection points: 2
#     Edge 16, Type (0, 1), BuildingBlock: ZUJKAS_clean_linker_0, # of connection points: 2
#     Edge 17, Type (0, 1), BuildingBlock: ZUJKAS_clean_linker_0, # of connection points: 2
#     Edge 18, Type (0, 1), BuildingBlock: ZUJKAS_clean_linker_0, # of connection points: 2
#     Edge 19, Type (0, 1), BuildingBlock: ZUJKAS_clean_linker_0, # of connection points: 2
#     Edge 20, Type (0, 1), BuildingBlock: ZUJKAS_clean_linker_0, # of connection points: 2
#     Edge 21, Type (0, 1), BuildingBlock: ZUJKAS_clean_linker_0, # of connection points: 2
#     Edge 22, Type (0, 1), BuildingBlock: ZUJKAS_clean_linker_0, # of connection points: 2
#     Edge 23, Type (0, 1), BuildingBlock: ZUJKAS_clean_linker_0, # of connection points: 2
#     Edge 24, Type (0, 1), BuildingBlock: ZUJKAS_clean_linker_0, # of connection points: 2
#     Edge 25, Type (0, 1), BuildingBlock: ZUJKAS_clean_linker_0, # of connection points: 2
#     Edge 26, Type (0, 1), BuildingBlock: ZUJKAS_clean_linker_0, # of connection points: 2
#     Edge 27, Type (0, 1), BuildingBlock: ZUJKAS_clean_linker_0, # of connection points: 2
#     Edge 28, Type (0, 1), BuildingBlock: ZUJKAS_clean_linker_0, # of connection points: 2
#     Edge 29, Type (0, 1), BuildingBlock: ZUJKAS_clean_linker_0, # of connection points: 2
#     Edge 30, Type (0, 1), BuildingBlock: ZUJKAS_clean_linker_0, # of connection points: 2
#     Edge 31, Type (0, 1), BuildingBlock: ZUJKAS_clean_linker_0, # of connection points: 2
#     Edge 32, Type (0, 1), BuildingBlock: ZUJKAS_clean_linker_0, # of connection points: 2
#     Edge 33, Type (0, 1), BuildingBlock: ZUJKAS_clean_linker_0, # of connection points: 2
#     Edge 34, Type (0, 1), BuildingBlock: ZUJKAS_clean_linker_0, # of connection points: 2
#     Edge 35, Type (0, 1), BuildingBlock: ZUJKAS_clean_linker_0, # of connection points: 2
# Relax obj value: 0.035
# Max RMSD: 0.147
# Mean RMSD: 0.094
data_MOF--net-nom--node1-UXUYUI_clean_sbu_0--node2-KUFVIS_clean_linker_0--edge1-ZUJKAS_clean_linker_0
_symmetry_space_group_name_H-M    P1
_symmetry_Int_Tables_number       1
_symmetry_cell_setting            triclinic
loop_
_symmetry_equiv_pos_as_xyz
'x, y, z'
_cell_length_a     69.386153
_cell_length_b     69.398922
_cell_length_c     70.054953
_cell_angle_alpha  90.003771
_cell_angle_beta   89.978752
_cell_angle_gamma 120.05179
loop_
_atom_site_label
_atom_site_type_symbol
_atom_site_fract_x
_atom_site_fract_y
_atom_site_fract_z
_atom_type_partial_charge
H0 H 0.10228 0.57721 0.34297 0.0
H1 H 0.05024 0.56379 0.30304 0.0
H2 H 0.03459 0.53163 0.35842 0.0
H3 H 1.00366 0.53536 0.35404 0.0
H4 H 0.95158 0.50229 0.31289 0.0
H5 H 0.01955 0.53 0.29515 0.0
C6 C 0.08471 0.56848 0.33935 0.0
C7 C 0.06917 0.55407 0.35268 0.0
C8 C 0.07801 0.57199 0.3215 0.0
C9 C 0.05527 0.56068 0.3168 0.0
C10 C 0.03916 0.5461 0.33008 0.0
C11 C 0.04644 0.543 0.34808 0.0
C12 C 0.01486 0.53414 0.32526 0.0
C13 C 0.99869 0.5297 0.33952 0.0
C14 C 0.9759 0.5178 0.33511 0.0
C15 C 0.96921 0.51119 0.31629 0.0
C16 C 0.98484 0.51602 0.30178 0.0
C17 C 1.00761 0.52698 0.30636 0.0
H18 H 0.5391 0.0959 0.5142 0.0
H19 H 0.50971 0.04599 0.47066 0.0
H20 H 0.5221 0.02895 0.52711 0.0
H21 H 0.48942 0.99705 0.52042 0.0
H22 H 0.47513 0.94766 0.47759 0.0
H23 H 0.51448 0.01667 0.46279 0.0
C24 C 0.53197 0.07869 0.50972 0.0
C25 C 0.53086 0.06296 0.52278 0.0
C26 C 0.52482 0.0728 0.49086 0.0
C27 C 0.51589 0.05052 0.48511 0.0
C28 C 0.51427 0.03416 0.49816 0.0
C29 C 0.52242 0.04085 0.51693 0.0
C30 C 0.50369 0.01016 0.49244 0.0
C31 C 0.49148 0.99305 0.5059 0.0
C32 C 0.48173 0.97055 0.50067 0.0
C33 C 0.48321 0.96504 0.48177 0.0
C34 C 0.49452 0.98158 0.46806 0.0
C35 C 0.50525 1.00407 0.47346 0.0
H36 H 0.55447 0.47391 0.64561 0.0
H37 H 0.51831 0.48961 0.68642 0.0
H38 H 0.52635 0.51376 0.62829 0.0
H39 H 0.49226 0.5106 0.63554 0.0
H40 H 0.48324 0.55319 0.67438 0.0
H41 H 0.52254 0.5244 0.69166 0.0
C42 C 0.54529 0.4823 0.64913 0.0
C43 C 0.54113 0.49383 0.63486 0.0
C44 C 0.53735 0.48088 0.66774 0.0
C45 C 0.52467 0.49101 0.67206 0.0
C46 C 0.52061 0.50319 0.65798 0.0
C47 C 0.5288 0.50424 0.63929 0.0
C48 C 0.50903 0.51586 0.6629 0.0
C49 C 0.49558 0.51876 0.64931 0.0
C50 C 0.48663 0.53253 0.65333 0.0
C51 C 0.49054 0.54292 0.67113 0.0
C52 C 0.503 0.53961 0.68507 0.0
C53 C 0.51226 0.52615 0.68096 0.0
H54 H 0.10182 0.53858 0.81419 0.0
H55 H 0.04923 0.50918 0.85528 0.0
H56 H 0.03498 0.51753 0.79659 0.0
H57 H 1.00215 0.48634 0.8038 0.0
H58 H 0.95191 0.47907 0.84354 0.0
H59 H 0.02027 0.5149 0.86051 0.0
C60 C 0.08422 0.53094 0.81751 0.0
C61 C 0.06906 0.52801 0.80309 0.0
C62 C 0.07715 0.52453 0.83627 0.0
C63 C 0.05445 0.51463 0.84076 0.0
C64 C 0.03875 0.51189 0.82656 0.0
C65 C 0.04644 0.51897 0.80772 0.0
C66 C 0.01456 0.50222 0.83138 0.0
C67 C 0.9978 0.48985 0.81769 0.0
C68 C 0.97522 0.48196 0.82185 0.0
C69 C 0.96934 0.48578 0.83997 0.0
C70 C 0.98546 0.49716 0.85394 0.0
C71 C 1.008 0.50553 0.84965 0.0
H72 H 0.50701 0.94729 0.00913 0.0
H73 H 0.53709 0.99928 0.96744 0.0
H74 H 0.53069 0.01471 0.02627 0.0
H75 H 0.56257 0.04674 0.01859 0.0
H76 H 0.57009 0.09742 0.97941 0.0
H77 H 0.53214 0.02901 0.96255 0.0
C78 C 0.51505 0.96485 0.00556 0.0
C79 C 0.51894 0.98037 0.01991 0.0
C80 C 0.5211 0.97152 0.98664 0.0
C81 C 0.53187 0.99428 0.98205 0.0
C82 C 0.5355 0.01034 0.99622 0.0
C83 C 0.52861 1.00299 0.01515 0.0
C84 C 0.5458 0.03456 0.99129 0.0
C85 C 0.55887 0.05123 0.00482 0.0
C86 C 0.56712 0.07385 0.00074 0.0
C87 C 0.56302 0.07991 0.98282 0.0
C88 C 0.55084 0.06389 0.96894 0.0
C89 C 0.54215 0.04126 0.97321 0.0
H90 H 0.49905 0.57008 0.14476 0.0
H91 H 0.53629 0.55611 0.18584 0.0
H92 H 0.5277 0.53054 0.12813 0.0
H93 H 0.56167 0.53358 0.13543 0.0
H94 H 0.57093 0.49195 0.17524 0.0
H95 H 0.53215 0.52153 0.19182 0.0
C96 C 0.50858 0.56211 0.14847 0.0
C97 C 0.5128 0.5504 0.13444 0.0
C98 C 0.51684 0.56413 0.16702 0.0
C99 C 0.52973 0.55428 0.17152 0.0
C100 C 0.53368 0.54176 0.15768 0.0
C101 C 0.52529 0.54024 0.139 0.0
C102 C 0.54529 0.5292 0.16288 0.0
C103 C 0.5585 0.52582 0.14936 0.0
C104 C 0.5674 0.51206 0.15369 0.0
C105 C 0.56369 0.50221 0.17172 0.0
C106 C 0.55148 0.50603 0.18555 0.0
C107 C 0.54225 0.51942 0.18115 0.0
Li108 Li 0.64972 0.40457 0.42613 0.0
Li109 Li 0.64329 0.36911 0.41003 0.0
Li110 Li 0.67963 0.40622 0.40687 0.0
Li111 Li 0.64617 0.4005 0.39183 0.0
C112 C 0.66646 0.38595 0.44952 0.0
N113 N 0.6671 0.38268 0.48879 0.0
C114 C 0.65134 0.36618 0.45868 0.0
C115 C 0.68207 0.40398 0.46031 0.0
C116 C 0.6519 0.36487 0.47855 0.0
C117 C 0.68207 0.40203 0.48016 0.0
C118 C 0.60465 0.37958 0.40399 0.0
C119 C 0.57284 0.36038 0.38327 0.0
N120 N 0.56697 0.37595 0.38721 0.0
C121 C 0.59827 0.39533 0.40792 0.0
C122 C 0.59184 0.36191 0.39163 0.0
C123 C 0.57917 0.39323 0.39926 0.0
C124 C 0.64679 0.43769 0.44697 0.0
N125 N 0.6413 0.41594 0.44739 0.0
C126 C 0.62014 0.41002 0.47595 0.0
C127 C 0.62813 0.40205 0.46143 0.0
C128 C 0.62542 0.4324 0.47579 0.0
C129 C 0.63908 0.44632 0.46111 0.0
H130 H 0.65662 0.44823 0.43532 0.0
H131 H 0.62324 0.38463 0.46103 0.0
C132 C 0.64165 0.32733 0.40912 0.0
N133 N 0.62976 0.33763 0.41275 0.0
C134 C 0.63209 0.30438 0.41205 0.0
C135 C 0.59818 0.30312 0.42219 0.0
C136 C 0.60839 0.32604 0.41909 0.0
C137 C 0.6101 0.29197 0.41886 0.0
H138 H 0.65868 0.33701 0.40423 0.0
H139 H 0.59938 0.33469 0.42203 0.0
C140 C 0.68605 0.4472 0.4056 0.0
N141 N 0.7242 0.48847 0.40357 0.0
C142 C 0.69239 0.45879 0.3883 0.0
C143 C 0.69904 0.45668 0.42189 0.0
C144 C 0.71174 0.47962 0.38757 0.0
C145 C 0.71829 0.47753 0.42056 0.0
C146 C 0.65968 0.37921 0.36787 0.0
C147 C 0.67122 0.39649 0.35482 0.0
C148 C 0.64593 0.35752 0.36124 0.0
C149 C 0.66871 0.39179 0.33529 0.0
C150 C 0.6439 0.35349 0.3416 0.0
N151 N 0.65522 0.37057 0.32914 0.0
C152 C 0.72273 0.41518 0.4186 0.0
C153 C 0.72219 0.43239 0.38956 0.0
C154 C 0.74589 0.42476 0.41744 0.0
N155 N 0.7114 0.41925 0.40481 0.0
C156 C 0.74531 0.44261 0.38802 0.0
C157 C 0.75746 0.43885 0.40208 0.0
H158 H 0.71378 0.40446 0.43048 0.0
H159 H 0.7129 0.43505 0.37857 0.0
C160 C 0.63452 0.42852 0.37287 0.0
N161 N 0.6334 0.40849 0.371 0.0
C162 C 0.62485 0.43572 0.35926 0.0
C163 C 0.61255 0.40135 0.34207 0.0
C164 C 0.62235 0.39474 0.35612 0.0
C165 C 0.61377 0.42215 0.3435 0.0
H166 H 0.64255 0.43877 0.38522 0.0
H167 H 0.62074 0.37848 0.35528 0.0
O168 O 0.66608 0.38759 0.43008 0.0
O169 O 0.62365 0.38173 0.41187 0.0
O170 O 0.66726 0.42668 0.40659 0.0
O171 O 0.66201 0.3834 0.38704 0.0
H172 H 0.6392 0.35203 0.45056 0.0
H173 H 0.69407 0.4193 0.45344 0.0
H174 H 0.64021 0.34971 0.48584 0.0
H175 H 0.69401 0.41588 0.48869 0.0
H176 H 0.56283 0.34688 0.37357 0.0
H177 H 0.60811 0.40917 0.41739 0.0
H178 H 0.59672 0.34972 0.38828 0.0
H179 H 0.5741 0.40537 0.40207 0.0
H180 H 0.60931 0.39859 0.48679 0.0
H181 H 0.64363 0.46369 0.46047 0.0
H182 H 0.64202 0.29659 0.40952 0.0
H183 H 0.58114 0.29425 0.42723 0.0
H184 H 0.68267 0.45163 0.3755 0.0
H185 H 0.6943 0.44802 0.4354 0.0
H186 H 0.71692 0.48871 0.37425 0.0
H187 H 0.72852 0.48502 0.43305 0.0
H188 H 0.68169 0.4134 0.3597 0.0
H189 H 0.63686 0.34395 0.37115 0.0
H190 H 0.67742 0.40503 0.32502 0.0
H191 H 0.63329 0.3368 0.33626 0.0
H192 H 0.75468 0.42142 0.42856 0.0
H193 H 0.75357 0.45306 0.37578 0.0
H194 H 0.62572 0.4516 0.36129 0.0
H195 H 0.60421 0.3903 0.33018 0.0
Li196 Li 0.26676 0.64368 0.59571 0.0
Li197 Li 0.29504 0.63694 0.58065 0.0
Li198 Li 0.29544 0.67342 0.57544 0.0
Li199 Li 0.26721 0.63849 0.56017 0.0
C200 C 0.30435 0.66647 0.61829 0.0
N201 N 0.31366 0.67843 0.65623 0.0
C202 C 0.30892 0.65356 0.63076 0.0
C203 C 0.30494 0.68571 0.62504 0.0
C204 C 0.31347 0.6598 0.64991 0.0
C205 C 0.30957 0.69141 0.64429 0.0
C206 C 0.25757 0.59572 0.58288 0.0
C207 C 0.25719 0.56336 0.56984 0.0
N208 N 0.24882 0.55242 0.5866 0.0
C209 C 0.24876 0.58409 0.59991 0.0
C210 C 0.26163 0.58522 0.56766 0.0
C211 C 0.24452 0.56224 0.60154 0.0
C212 C 0.22822 0.63832 0.6137 0.0
N213 N 0.24671 0.63669 0.61674 0.0
C214 C 0.23357 0.62145 0.64783 0.0
C215 C 0.24964 0.62846 0.63341 0.0
C216 C 0.21421 0.62282 0.64503 0.0
C217 C 0.21184 0.63168 0.62774 0.0
H218 H 0.22586 0.64425 0.60014 0.0
H219 H 0.26398 0.62645 0.63526 0.0
C220 C 0.33124 0.63008 0.57248 0.0
N221 N 0.31325 0.62356 0.58403 0.0
C222 C 0.34488 0.62069 0.57454 0.0
C223 C 0.32122 0.59801 0.60028 0.0
C224 C 0.30822 0.60801 0.59788 0.0
C225 C 0.33987 0.60434 0.58854 0.0
H226 H 0.33506 0.64264 0.56171 0.0
H227 H 0.2942 0.60347 0.60721 0.0
C228 C 0.25694 0.67666 0.57495 0.0
N229 N 0.24581 0.70972 0.57556 0.0
C230 C 0.24755 0.68063 0.55884 0.0
C231 C 0.26035 0.68928 0.59146 0.0
C232 C 0.24213 0.69748 0.55941 0.0
C233 C 0.2547 0.70597 0.59146 0.0
C234 C 0.30348 0.65362 0.5375 0.0
C235 C 0.3081 0.67177 0.52583 0.0
C236 C 0.30237 0.63465 0.52949 0.0
C237 C 0.31108 0.67045 0.50625 0.0
C238 C 0.30545 0.63396 0.50985 0.0
N239 N 0.30967 0.65172 0.49872 0.0
C240 C 0.33312 0.71607 0.58235 0.0
C241 C 0.3077 0.71594 0.55972 0.0
C242 C 0.3469 0.7391 0.58026 0.0
N243 N 0.31387 0.70501 0.57222 0.0
C244 C 0.32082 0.73895 0.55734 0.0
C245 C 0.34073 0.75085 0.56768 0.0
H246 H 0.33781 0.70698 0.59203 0.0
H247 H 0.29274 0.70677 0.55137 0.0
C248 C 0.23078 0.60471 0.54008 0.0
N249 N 0.24775 0.6261 0.53875 0.0
C250 C 0.21473 0.5955 0.52572 0.0
C251 C 0.23385 0.63049 0.5088 0.0
C252 C 0.24957 0.63901 0.52349 0.0
C253 C 0.21595 0.6085 0.5099 0.0
H254 H 0.22928 0.59494 0.55256 0.0
H255 H 0.26275 0.65619 0.52304 0.0
O256 O 0.29988 0.6606 0.59947 0.0
O257 O 0.26202 0.6172 0.5811 0.0
O258 O 0.26258 0.66038 0.57458 0.0
O259 O 0.30042 0.65458 0.55669 0.0
H260 H 0.30878 0.63876 0.62575 0.0
H261 H 0.30208 0.69626 0.6155 0.0
H262 H 0.31685 0.64985 0.65975 0.0
H263 H 0.30999 0.70622 0.64971 0.0
H264 H 0.26035 0.55508 0.5582 0.0
H265 H 0.24534 0.59187 0.61178 0.0
H266 H 0.26807 0.59384 0.5543 0.0
H267 H 0.23782 0.55309 0.61467 0.0
H268 H 0.23593 0.61427 0.66072 0.0
H269 H 0.19734 0.63326 0.62496 0.0
H270 H 0.35907 0.62601 0.56516 0.0
H271 H 0.317 0.58579 0.61149 0.0
H272 H 0.24461 0.6709 0.546 0.0
H273 H 0.26707 0.68606 0.60417 0.0
H274 H 0.23499 0.70083 0.547 0.0
H275 H 0.25731 0.7159 0.60413 0.0
H276 H 0.3092 0.68665 0.5318 0.0
H277 H 0.29931 0.62065 0.53836 0.0
H278 H 0.3145 0.68431 0.49703 0.0
H279 H 0.30455 0.61934 0.50346 0.0
H280 H 0.3621 0.74764 0.58852 0.0
H281 H 0.31567 0.74727 0.5472 0.0
H282 H 0.20136 0.57843 0.52712 0.0
H283 H 0.23525 0.64129 0.49708 0.0
Li284 Li 0.67891 0.29186 0.74661 0.0
Li285 Li 0.64441 0.26304 0.76182 0.0
Li286 Li 0.6502 0.26417 0.72626 0.0
Li287 Li 0.64286 0.29178 0.74171 0.0
C288 C 0.68447 0.25694 0.7518 0.0
N289 N 0.72118 0.25355 0.76173 0.0
C290 C 0.68746 0.25252 0.7707 0.0
C291 C 0.69999 0.25937 0.73792 0.0
C292 C 0.70617 0.25093 0.77544 0.0
C293 C 0.71849 0.25768 0.74324 0.0
C294 C 0.65517 0.3013 0.78338 0.0
C295 C 0.62907 0.30275 0.80526 0.0
N296 N 0.64534 0.31194 0.81872 0.0
C297 C 0.67169 0.31096 0.79737 0.0
C298 C 0.63373 0.29732 0.7873 0.0
C299 C 0.66637 0.31614 0.81517 0.0
C300 C 0.72352 0.3236 0.73604 0.0
N301 N 0.7104 0.3102 0.75035 0.0
C302 C 0.74206 0.32257 0.77078 0.0
C303 C 0.7192 0.30952 0.7675 0.0
C304 C 0.75608 0.33664 0.7563 0.0
C305 C 0.74651 0.33697 0.7387 0.0
H306 H 0.71614 0.32407 0.7226 0.0
H307 H 0.70844 0.29875 0.77866 0.0
C308 C 0.61653 0.22119 0.77702 0.0
N309 N 0.6313 0.24241 0.78237 0.0
C310 C 0.60651 0.20435 0.79067 0.0
C311 C 0.62705 0.23149 0.81517 0.0
C312 C 0.63675 0.24781 0.80102 0.0
C313 C 0.61178 0.20938 0.81005 0.0
H314 H 0.61267 0.21733 0.76206 0.0
H315 H 0.64895 0.26462 0.80494 0.0
C316 C 0.6699 0.29937 0.70344 0.0
N317 N 0.67601 0.30297 0.66435 0.0
C318 C 0.65854 0.3071 0.69221 0.0
C319 C 0.68457 0.29372 0.69482 0.0
C320 C 0.66181 0.30875 0.67247 0.0
C321 C 0.68736 0.29557 0.67503 0.0
C322 C 0.60113 0.25113 0.74093 0.0
C323 C 0.58911 0.24496 0.72385 0.0
C324 C 0.58994 0.2486 0.75817 0.0
C325 C 0.56619 0.23692 0.72425 0.0
C326 C 0.567 0.24046 0.75798 0.0
N327 N 0.55571 0.23488 0.74116 0.0
C328 C 0.64758 0.22769 0.70659 0.0
C329 C 0.63281 0.24665 0.68924 0.0
C330 C 0.64079 0.21144 0.69239 0.0
N331 N 0.64334 0.24473 0.70486 0.0
C332 C 0.62579 0.23082 0.67466 0.0
C333 C 0.62942 0.21268 0.67626 0.0
H334 H 0.6556 0.22629 0.71931 0.0
H335 H 0.62932 0.26014 0.68831 0.0
C336 C 0.63609 0.32834 0.74944 0.0
N337 N 0.62916 0.30976 0.73858 0.0
C338 C 0.6263 0.34161 0.74733 0.0
C339 C 0.60293 0.31685 0.72245 0.0
C340 C 0.61303 0.30398 0.72515 0.0
C341 C 0.6095 0.33594 0.73365 0.0
H342 H 0.64935 0.33298 0.75968 0.0
H343 H 0.60825 0.28956 0.71628 0.0
O344 O 0.66643 0.2589 0.74694 0.0
O345 O 0.66008 0.29597 0.76593 0.0
O346 O 0.66677 0.29746 0.72278 0.0
O347 O 0.62357 0.25889 0.7408 0.0
H348 H 0.67561 0.25059 0.78162 0.0
H349 H 0.69781 0.26257 0.7232 0.0
H350 H 0.70878 0.24766 0.79003 0.0
H351 H 0.73071 0.25965 0.73266 0.0
H352 H 0.61253 0.29973 0.80847 0.0
H353 H 0.68843 0.31437 0.79455 0.0
H354 H 0.62091 0.2904 0.77652 0.0
H355 H 0.67897 0.32351 0.82615 0.0
H356 H 0.74868 0.32152 0.78448 0.0
H357 H 0.7566 0.34777 0.72722 0.0
H358 H 0.5947 0.18759 0.78608 0.0
H359 H 0.63189 0.23603 0.82991 0.0
H360 H 0.6473 0.31176 0.69866 0.0
H361 H 0.69357 0.28782 0.70331 0.0
H362 H 0.65305 0.31463 0.66359 0.0
H363 H 0.69855 0.29112 0.66816 0.0
H364 H 0.5974 0.24656 0.7104 0.0
H365 H 0.59876 0.25261 0.7716 0.0
H366 H 0.55674 0.23228 0.71111 0.0
H367 H 0.55817 0.23849 0.77122 0.0
H368 H 0.64366 0.19761 0.69441 0.0
H369 H 0.61733 0.23262 0.66239 0.0
H370 H 0.63218 0.35641 0.75603 0.0
H371 H 0.59004 0.31185 0.71174 0.0
Li372 Li 0.40447 0.64159 0.92664 0.0
Li373 Li 0.41117 0.67616 0.9112 0.0
Li374 Li 0.37527 0.63941 0.90669 0.0
Li375 Li 0.40978 0.64543 0.89206 0.0
C376 C 0.38686 0.65714 0.9498 0.0
N377 N 0.38623 0.65533 0.9892 0.0
C378 C 0.4031 0.67496 0.96037 0.0
C379 C 0.37019 0.63848 0.95925 0.0
C380 C 0.40252 0.67372 0.98028 0.0
C381 C 0.3702 0.63786 0.97918 0.0
C382 C 0.45172 0.67731 0.9046 0.0
C383 C 0.4749 0.70465 0.88121 0.0
N384 N 0.49303 0.7046 0.88854 0.0
C385 C 0.47054 0.67748 0.91188 0.0
C386 C 0.45387 0.69097 0.88913 0.0
C387 C 0.4913 0.69142 0.90357 0.0
C388 C 0.4012 0.60839 0.95237 0.0
N389 N 0.41233 0.63055 0.94845 0.0
C390 C 0.43812 0.63728 0.97371 0.0
C391 C 0.43043 0.64501 0.95879 0.0
C392 C 0.42716 0.6144 0.97792 0.0
C393 C 0.40829 0.59993 0.96715 0.0
H394 H 0.38722 0.59716 0.94367 0.0
H395 H 0.43917 0.66253 0.95517 0.0
C396 C 0.41338 0.71788 0.90686 0.0
N397 N 0.42428 0.70773 0.91393 0.0
C398 C 0.42255 0.7409 0.9087 0.0
C399 C 0.45391 0.74259 0.92524 0.0
C400 C 0.44411 0.71955 0.92311 0.0
C401 C 0.44313 0.75362 0.91799 0.0
H402 H 0.39752 0.70805 0.89979 0.0
H403 H 0.45227 0.71104 0.92892 0.0
C404 C 0.36984 0.59872 0.90313 0.0
N405 N 0.33305 0.55758 0.89563 0.0
C406 C 0.36773 0.58837 0.88551 0.0
C407 C 0.35327 0.58806 0.91696 0.0
C408 C 0.34901 0.56758 0.88199 0.0
C409 C 0.33478 0.56731 0.91288 0.0
C410 C 0.39117 0.66377 0.86816 0.0
C411 C 0.38046 0.64442 0.85714 0.0
C412 C 0.39932 0.68452 0.85941 0.0
C413 C 0.37784 0.64612 0.83756 0.0
C414 C 0.39635 0.68554 0.83979 0.0
N415 N 0.38575 0.66648 0.82936 0.0
C416 C 0.33213 0.63143 0.91673 0.0
C417 C 0.33265 0.6123 0.88893 0.0
C418 C 0.30898 0.62186 0.91541 0.0
N419 N 0.34347 0.6264 0.90367 0.0
C420 C 0.30957 0.60221 0.88718 0.0
C421 C 0.29738 0.60686 0.90056 0.0
H422 H 0.34104 0.64281 0.92825 0.0
H423 H 0.3418 0.60854 0.87861 0.0
C424 C 0.427 0.62107 0.87546 0.0
N425 N 0.42367 0.6384 0.87175 0.0
C426 C 0.437 0.61417 0.8619 0.0
C427 C 0.44071 0.64357 0.84106 0.0
C428 C 0.43071 0.64998 0.8551 0.0
C429 C 0.44382 0.6253 0.8443 0.0
H430 H 0.42178 0.61253 0.88902 0.0
H431 H 0.42861 0.66418 0.85265 0.0
O432 O 0.38752 0.6578 0.93029 0.0
O433 O 0.43129 0.66363 0.9125 0.0
O434 O 0.38802 0.61913 0.90682 0.0
O435 O 0.39408 0.66249 0.88734 0.0
H436 H 0.41615 0.6895 0.95327 0.0
H437 H 0.35746 0.62458 0.95129 0.0
H438 H 0.41506 0.68733 0.98865 0.0
H439 H 0.35746 0.62347 0.98669 0.0
H440 H 0.47681 0.71531 0.86923 0.0
H441 H 0.46911 0.66695 0.92383 0.0
H442 H 0.43947 0.691 0.88328 0.0
H443 H 0.50602 0.69174 0.90907 0.0
H444 H 0.45259 0.64907 0.98176 0.0
H445 H 0.39953 0.58215 0.96967 0.0
H446 H 0.4137 0.74868 0.90277 0.0
H447 H 0.46956 0.7516 0.93283 0.0
H448 H 0.38027 0.59635 0.87457 0.0
H449 H 0.35451 0.59586 0.9306 0.0
H450 H 0.34713 0.55944 0.86839 0.0
H451 H 0.32178 0.55896 0.92341 0.0
H452 H 0.37486 0.62833 0.86353 0.0
H453 H 0.40791 0.69969 0.86766 0.0
H454 H 0.36968 0.63127 0.82886 0.0
H455 H 0.40254 0.70149 0.83284 0.0
H456 H 0.30022 0.62588 0.92606 0.0
H457 H 0.30137 0.59103 0.87533 0.0
H458 H 0.43951 0.60035 0.86525 0.0
H459 H 0.44562 0.65264 0.8277 0.0
Li460 Li 0.757 0.40551 0.08042 0.0
Li461 Li 0.7858 0.39983 0.09576 0.0
Li462 Li 0.78467 0.40396 0.06043 0.0
Li463 Li 0.75708 0.36921 0.07595 0.0
C464 C 0.79289 0.44644 0.08467 0.0
N465 N 0.79838 0.48786 0.09284 0.0
C466 C 0.80114 0.45629 0.10244 0.0
C467 C 0.78766 0.45776 0.07098 0.0
C468 C 0.80375 0.47722 0.10631 0.0
C469 C 0.79047 0.47865 0.07541 0.0
C470 C 0.74634 0.37468 0.11789 0.0
C471 C 0.73824 0.34692 0.14212 0.0
N472 N 0.73264 0.35848 0.15443 0.0
C473 C 0.74019 0.3861 0.1307 0.0
C474 C 0.74508 0.35477 0.12358 0.0
C475 C 0.73344 0.37772 0.14913 0.0
C476 C 0.72213 0.41401 0.07067 0.0
N477 N 0.73846 0.41858 0.08364 0.0
C478 C 0.72899 0.44241 0.10098 0.0
C479 C 0.74192 0.43231 0.09871 0.0
C480 C 0.71206 0.4381 0.08778 0.0
C481 C 0.70861 0.42357 0.07252 0.0
H482 H 0.71959 0.40294 0.05887 0.0
H483 H 0.75479 0.43551 0.10897 0.0
C484 C 0.82706 0.41197 0.11165 0.0
N485 N 0.80632 0.40774 0.11648 0.0
C486 C 0.8439 0.41948 0.12535 0.0
C487 C 0.8178 0.41829 0.14881 0.0
C488 C 0.8014 0.41066 0.13466 0.0
C489 C 0.83945 0.42299 0.14418 0.0
H490 H 0.83066 0.40995 0.09701 0.0
H491 H 0.78501 0.40774 0.13811 0.0
C492 C 0.75066 0.38813 0.03735 0.0
N493 N 0.74988 0.39008 0.99799 0.0
C494 C 0.74721 0.36984 0.02639 0.0
C495 C 0.75348 0.40732 0.02831 0.0
C496 C 0.74692 0.37117 0.0065 0.0
C497 C 0.75311 0.40802 0.00839 0.0
C498 C 0.79698 0.36768 0.07872 0.0
C499 C 0.80736 0.36205 0.06443 0.0
C500 C 0.79422 0.35835 0.09689 0.0
C501 C 0.81437 0.3468 0.06847 0.0
C502 C 0.80148 0.34319 0.10038 0.0
N503 N 0.81129 0.33774 0.0862 0.0
C504 C 0.8171 0.43835 0.0373 0.0
C505 C 0.80505 0.40189 0.02595 0.0
C506 C 0.83284 0.44752 0.02267 0.0
N507 N 0.80371 0.41592 0.03873 0.0
C508 C 0.82066 0.41033 0.01117 0.0
C509 C 0.835 0.43343 0.00954 0.0
H510 H 0.81609 0.44914 0.04785 0.0
H511 H 0.79432 0.38411 0.02749 0.0
C512 C 0.71853 0.32702 0.08174 0.0
N513 N 0.73887 0.33756 0.07321 0.0
C514 C 0.70472 0.30399 0.07987 0.0
C515 C 0.73288 0.30307 0.06026 0.0
C516 C 0.74613 0.32611 0.06249 0.0
C517 C 0.71183 0.29166 0.069 0.0
H518 H 0.71302 0.33654 0.09 0.0
H519 H 0.76204 0.33489 0.05537 0.0
O520 O 0.79003 0.42586 0.08069 0.0
O521 O 0.75281 0.38258 0.09972 0.0
O522 O 0.75143 0.3873 0.05682 0.0
O523 O 0.78997 0.38255 0.07497 0.0
H524 H 0.80539 0.44786 0.11317 0.0
H525 H 0.78132 0.45043 0.05714 0.0
H526 H 0.81003 0.485 0.12004 0.0
H527 H 0.78634 0.48752 0.065 0.0
H528 H 0.73727 0.33157 0.14671 0.0
H529 H 0.74077 0.40136 0.12653 0.0
H530 H 0.74911 0.3453 0.11374 0.0
H531 H 0.72881 0.3865 0.15923 0.0
H532 H 0.732 0.45322 0.11312 0.0
H533 H 0.69578 0.41985 0.06199 0.0
H534 H 0.86043 0.42324 0.12107 0.0
H535 H 0.81362 0.42068 0.16318 0.0
H536 H 0.74495 0.35485 0.03316 0.0
H537 H 0.75602 0.42156 0.03658 0.0
H538 H 0.74439 0.35719 0.99784 0.0
H539 H 0.75539 0.42281 0.0012 0.0
H540 H 0.80988 0.36927 0.05034 0.0
H541 H 0.78685 0.36299 0.10826 0.0
H542 H 0.82228 0.34218 0.0575 0.0
H543 H 0.7994 0.33583 0.11438 0.0
H544 H 0.84374 0.46539 0.02209 0.0
H545 H 0.82163 0.3989 0.00122 0.0
H546 H 0.68869 0.29592 0.08696 0.0
H547 H 0.73888 0.29438 0.05141 0.0
Li548 Li 0.40995 0.7823 0.26287 0.0
Li549 Li 0.37526 0.75406 0.24736 0.0
Li550 Li 0.41149 0.754 0.24269 0.0
Li551 Li 0.40502 0.78215 0.22712 0.0
C552 C 0.39647 0.74549 0.28532 0.0
N553 N 0.40201 0.73829 0.32321 0.0
C554 C 0.37836 0.73695 0.29785 0.0
C555 C 0.41731 0.75006 0.292 0.0
C556 C 0.38152 0.7335 0.31697 0.0
C557 C 0.4198 0.7464 0.31121 0.0
C558 C 0.37162 0.7916 0.25046 0.0
C559 C 0.34225 0.7969 0.23787 0.0
N560 N 0.33767 0.80094 0.25582 0.0
C561 C 0.36682 0.7961 0.26874 0.0
C562 C 0.35941 0.79226 0.23486 0.0
C563 C 0.34952 0.80067 0.27118 0.0
C564 C 0.44162 0.82191 0.28004 0.0
N565 N 0.42273 0.80237 0.28387 0.0
C566 C 0.42178 0.81452 0.31563 0.0
C567 C 0.41276 0.7984 0.30127 0.0
C568 C 0.44116 0.83499 0.31201 0.0
C569 C 0.45123 0.83846 0.29397 0.0
H570 H 0.44893 0.8249 0.26596 0.0
H571 H 0.39744 0.78302 0.30387 0.0
C572 C 0.33126 0.7202 0.23731 0.0
N573 N 0.34359 0.73597 0.25054 0.0
C574 C 0.3082 0.70687 0.23954 0.0
C575 C 0.31095 0.72599 0.26909 0.0
C576 C 0.33391 0.73896 0.26627 0.0
C577 C 0.29773 0.70962 0.25565 0.0
H578 H 0.33933 0.71775 0.22512 0.0
H579 H 0.34405 0.7513 0.27677 0.0
C580 C 0.4529 0.79192 0.24016 0.0
N581 N 0.49666 0.80218 0.23616 0.0
C582 C 0.46285 0.79655 0.22212 0.0
C583 C 0.46534 0.79292 0.25619 0.0
C584 C 0.48495 0.80158 0.22038 0.0
C585 C 0.4874 0.79803 0.25387 0.0
C586 C 0.38212 0.74564 0.20466 0.0
C587 C 0.39174 0.73699 0.19232 0.0
C588 C 0.36629 0.75066 0.19766 0.0
C589 C 0.38563 0.73389 0.17308 0.0
C590 C 0.36062 0.74733 0.17833 0.0
N591 N 0.37035 0.73911 0.16653 0.0
C592 C 0.42124 0.71978 0.2524 0.0
C593 C 0.43801 0.73928 0.22385 0.0
C594 C 0.43089 0.70642 0.25 0.0
N595 N 0.42504 0.73593 0.23946 0.0
C596 C 0.4479 0.72627 0.22085 0.0
C597 C 0.44436 0.70951 0.234 0.0
H598 H 0.41047 0.71704 0.26447 0.0
H599 H 0.44046 0.75189 0.21356 0.0
C600 C 0.41211 0.82117 0.20925 0.0
N601 N 0.41237 0.80199 0.20597 0.0
C602 C 0.41926 0.8376 0.1952 0.0
C603 C 0.42671 0.81422 0.17452 0.0
C604 C 0.4194 0.79823 0.18899 0.0
C605 C 0.42696 0.83438 0.17761 0.0
H606 H 0.40697 0.824 0.22304 0.0
H607 H 0.42002 0.78314 0.18685 0.0
O608 O 0.39373 0.74917 0.26658 0.0
O609 O 0.38846 0.78702 0.24782 0.0
O610 O 0.43125 0.78692 0.24212 0.0
O611 O 0.38805 0.749 0.22352 0.0
H612 H 0.36205 0.73304 0.2929 0.0
H613 H 0.43136 0.75622 0.28242 0.0
H614 H 0.36768 0.72701 0.32685 0.0
H615 H 0.43587 0.74994 0.31658 0.0
H616 H 0.33261 0.79737 0.22593 0.0
H617 H 0.37618 0.79582 0.28096 0.0
H618 H 0.36326 0.78941 0.22055 0.0
H619 H 0.3455 0.80398 0.28528 0.0
H620 H 0.41352 0.81107 0.32936 0.0
H621 H 0.46593 0.85411 0.29041 0.0
H622 H 0.29875 0.69421 0.22897 0.0
H623 H 0.30362 0.72884 0.28166 0.0
H624 H 0.45355 0.79603 0.20958 0.0
H625 H 0.45814 0.79001 0.27031 0.0
H626 H 0.49279 0.80499 0.20648 0.0
H627 H 0.49719 0.79878 0.26616 0.0
H628 H 0.40378 0.73273 0.19752 0.0
H629 H 0.35839 0.75696 0.20708 0.0
H630 H 0.39302 0.72731 0.16335 0.0
H631 H 0.34846 0.75124 0.17272 0.0
H632 H 0.42739 0.69345 0.26033 0.0
H633 H 0.45826 0.72935 0.20837 0.0
H634 H 0.41952 0.853 0.19836 0.0
H635 H 0.43234 0.81094 0.16114 0.0
H636 H 0.08775 0.56317 0.28583 0.0
H637 H 0.12222 0.58639 0.26774 0.0
H638 H 0.14248 0.63841 0.30978 0.0
H639 H 0.10818 0.61542 0.32769 0.0
H640 H 0.15395 0.65425 0.2713 0.0
H641 H 0.18007 0.59308 0.2916 0.0
H642 H 0.15437 0.58246 0.27863 0.0
H643 H 0.15642 0.59299 0.30239 0.0
C644 C 0.09926 0.57985 0.29079 0.0
C645 C 0.09544 0.58753 0.30814 0.0
C646 C 0.119 0.593 0.28058 0.0
C647 C 0.13507 0.61397 0.28761 0.0
C648 C 0.13036 0.62229 0.30412 0.0
H649 H 0.27604 0.69053 0.28899 0.0
H650 H 0.23601 0.66712 0.2942 0.0
C651 C 0.11078 0.60916 0.31433 0.0
C652 C 0.15775 0.62639 0.27923 0.0
H653 H 0.20657 0.62573 0.27631 0.0
C654 C 0.16539 0.64791 0.27206 0.0
C655 C 0.17271 0.61817 0.28057 0.0
C656 C 0.16565 0.59549 0.28882 0.0
C657 C 0.18775 0.66165 0.26662 0.0
C658 C 0.20277 0.65356 0.26831 0.0
C659 C 0.19497 0.63182 0.27497 0.0
C660 C 0.22701 0.66794 0.26477 0.0
C661 C 0.1954 0.68507 0.25998 0.0
C662 C 0.23527 0.67607 0.24645 0.0
C663 C 0.25822 0.68957 0.24343 0.0
C664 C 0.27331 0.6952 0.25869 0.0
C665 C 0.26491 0.68685 0.27698 0.0
C666 C 0.24203 0.67333 0.27996 0.0
H667 H 0.18263 0.68998 0.26253 0.0
H668 H 0.211 0.6971 0.26739 0.0
H669 H 0.19893 0.6863 0.24444 0.0
H670 H 0.22399 0.67188 0.23448 0.0
H671 H 0.26412 0.69582 0.22919 0.0
H672 H 0.51078 0.10262 0.49588 0.0
H673 H 0.52355 0.13752 0.47852 0.0
H674 H 0.559 0.11899 0.43888 0.0
H675 H 0.54628 0.08388 0.45636 0.0
H676 H 0.57398 0.16661 0.4748 0.0
H677 H 0.52681 0.14828 0.40649 0.0
H678 H 0.51478 0.13121 0.42747 0.0
H679 H 0.53644 0.12989 0.41468 0.0
C680 C 0.52076 0.10569 0.48313 0.0
C681 C 0.52765 0.09063 0.4775 0.0
C682 C 0.52804 0.12562 0.47325 0.0
C683 C 0.54223 0.13082 0.45747 0.0
C684 C 0.54788 0.11515 0.45093 0.0
H685 H 0.61359 0.25992 0.39849 0.0
H686 H 0.59806 0.22052 0.40675 0.0
C687 C 0.54055 0.09509 0.46086 0.0
C688 C 0.5534 0.1538 0.44978 0.0
H689 H 0.55301 0.1859 0.41299 0.0
C690 C 0.5695 0.17084 0.46123 0.0
C691 C 0.5477 0.15915 0.432 0.0
C692 C 0.53046 0.14128 0.41934 0.0
C693 C 0.57975 0.1932 0.45557 0.0
C694 C 0.57333 0.19875 0.43818 0.0
C695 C 0.55778 0.18162 0.42638 0.0
C696 C 0.58196 0.22231 0.43259 0.0
C697 C 0.59736 0.21071 0.4683 0.0
C698 C 0.57775 0.23627 0.4442 0.0
C699 C 0.58671 0.25875 0.43963 0.0
C700 C 0.59996 0.26778 0.42323 0.0
C701 C 0.60373 0.2536 0.41136 0.0
C702 C 0.59473 0.23105 0.41597 0.0
H703 H 0.60485 0.20348 0.4779 0.0
H704 H 0.61084 0.22421 0.45975 0.0
H705 H 0.58968 0.21816 0.47737 0.0
H706 H 0.56769 0.22981 0.45696 0.0
H707 H 0.58363 0.26915 0.44922 0.0
H708 H 0.44629 0.50194 0.63862 0.0
H709 H 0.41993 0.50994 0.62181 0.0
H710 H 0.46914 0.57983 0.62119 0.0
H711 H 0.49529 0.57189 0.638 0.0
H712 H 0.40667 0.5389 0.63904 0.0
H713 H 0.44207 0.56873 0.56695 0.0
H714 H 0.44935 0.55179 0.58147 0.0
H715 H 0.46186 0.58113 0.58602 0.0
C716 C 0.45165 0.51886 0.63425 0.0
C717 C 0.4728 0.53631 0.63942 0.0
C718 C 0.43659 0.52344 0.62478 0.0
C719 C 0.44265 0.54546 0.62009 0.0
C720 C 0.46424 0.56269 0.62432 0.0
H721 H 0.38538 0.62559 0.58947 0.0
H722 H 0.40892 0.60931 0.59584 0.0
C723 C 0.47915 0.55816 0.63394 0.0
C724 C 0.42577 0.55099 0.61318 0.0
H725 H 0.41501 0.57805 0.57771 0.0
C726 C 0.40821 0.5471 0.62548 0.0
C727 C 0.42803 0.56194 0.59561 0.0
C728 C 0.44623 0.566 0.58165 0.0
C729 C 0.39343 0.55475 0.62109 0.0
C730 C 0.3959 0.56608 0.60364 0.0
C731 C 0.4131 0.56939 0.59108 0.0
C732 C 0.38148 0.57554 0.59862 0.0
C733 C 0.37607 0.55162 0.63568 0.0
C734 C 0.35823 0.56194 0.59763 0.0
C735 C 0.34473 0.57125 0.59417 0.0
C736 C 0.35424 0.5943 0.59128 0.0
C737 C 0.37756 0.60776 0.59154 0.0
C738 C 0.39103 0.59848 0.5952 0.0
H739 H 0.38015 0.54801 0.6501 0.0
H740 H 0.37432 0.56665 0.63663 0.0
H741 H 0.35975 0.53733 0.63141 0.0
H742 H 0.35049 0.54413 0.59969 0.0
H743 H 0.32684 0.56039 0.59371 0.0
H744 H 0.94157 0.48899 0.81136 0.0
H745 H 0.90743 0.4632 0.79449 0.0
H746 H 0.93354 0.41931 0.78424 0.0
H747 H 0.96775 0.44502 0.80156 0.0
H748 H 0.89624 0.44319 0.7584 0.0
H749 H 0.87742 0.38142 0.81643 0.0
H750 H 0.89956 0.40996 0.81833 0.0
H751 H 0.90313 0.39064 0.80381 0.0
C752 C 0.9402 0.47403 0.80519 0.0
C753 C 0.95717 0.46885 0.80796 0.0
C754 C 0.92072 0.45934 0.79552 0.0
C755 C 0.91774 0.43912 0.78845 0.0
C756 C 0.93535 0.43465 0.78989 0.0
H757 H 0.79066 0.34613 0.73174 0.0
H758 H 0.83063 0.37007 0.73765 0.0
C759 C 0.95496 0.44943 0.79959 0.0
C760 C 0.89545 0.42215 0.7813 0.0
H761 H 0.84993 0.37234 0.79317 0.0
C762 C 0.8862 0.42753 0.76579 0.0
C763 C 0.88227 0.40189 0.79119 0.0
C764 C 0.89094 0.39559 0.80846 0.0
C765 C 0.86395 0.41348 0.76021 0.0
C766 C 0.85071 0.39339 0.77029 0.0
C767 C 0.86016 0.38772 0.78543 0.0
C768 C 0.82656 0.37886 0.7664 0.0
C769 C 0.85449 0.42074 0.7442 0.0
C770 C 0.81102 0.37557 0.78069 0.0
C771 C 0.78823 0.36193 0.77738 0.0
C772 C 0.78043 0.35116 0.75971 0.0
C773 C 0.79606 0.35442 0.74541 0.0
C774 C 0.81892 0.36809 0.74876 0.0
H775 H 0.86552 0.43854 0.74042 0.0
H776 H 0.85245 0.41057 0.73133 0.0
H777 H 0.83785 0.41816 0.74813 0.0
H778 H 0.81655 0.38375 0.7944 0.0
H779 H 0.7767 0.36008 0.78861 0.0
H780 H 0.47999 0.93814 0.97748 0.0
H781 H 0.47059 0.9044 0.95942 0.0
H782 H 0.53995 0.93093 0.94566 0.0
H783 H 0.54944 0.96488 0.96396 0.0
H784 H 0.47839 0.89481 0.92135 0.0
H785 H 0.52246 0.87354 0.9766 0.0
H786 H 0.51583 0.89534 0.98007 0.0
H787 H 0.53843 0.89986 0.96469 0.0
C788 C 0.49315 0.93699 0.97017 0.0
C789 C 0.51543 0.954 0.9721 0.0
C790 C 0.48778 0.91772 0.95989 0.0
C791 C 0.50459 0.91499 0.95147 0.0
C792 C 0.52675 0.93261 0.95227 0.0
H793 H 0.48703 0.78615 0.91475 0.0
H794 H 0.50341 0.82617 0.92027 0.0
C795 C 0.53215 0.95204 0.96253 0.0
C796 C 0.49883 0.8929 0.94353 0.0
H797 H 0.50269 0.8467 0.95319 0.0
C798 C 0.48392 0.88438 0.92813 0.0
C799 C 0.50601 0.87928 0.95245 0.0
C800 C 0.52144 0.88729 0.96945 0.0
C801 C 0.47568 0.86245 0.92165 0.0
C802 C 0.48215 0.84854 0.93107 0.0
C803 C 0.49771 0.85735 0.94599 0.0
C804 C 0.47205 0.82446 0.92652 0.0
C805 C 0.46002 0.85438 0.90482 0.0
C806 C 0.44899 0.81012 0.92833 0.0
C807 C 0.43958 0.78724 0.92527 0.0
C808 C 0.45307 0.77812 0.92049 0.0
C809 C 0.47617 0.79255 0.9186 0.0
C810 C 0.48556 0.81546 0.92164 0.0
H811 H 0.46238 0.86845 0.89563 0.0
H812 H 0.46243 0.84246 0.89598 0.0
H813 H 0.4426 0.8458 0.91008 0.0
H814 H 0.43828 0.81655 0.93262 0.0
H815 H 0.4218 0.7766 0.92719 0.0
H816 H 0.55912 0.47205 0.14015 0.0
H817 H 0.58516 0.46386 0.12333 0.0
H818 H 0.63298 0.53403 0.12034 0.0
H819 H 0.60677 0.54232 0.13711 0.0
H820 H 0.61244 0.48229 0.08629 0.0
H821 H 0.66028 0.50195 0.15435 0.0
H822 H 0.63161 0.49539 0.15372 0.0
H823 H 0.65316 0.52185 0.14521 0.0
C824 C 0.57494 0.48574 0.13539 0.0
C825 C 0.581 0.5078 0.13987 0.0
C826 C 0.58978 0.48105 0.12582 0.0
C827 C 0.61102 0.49832 0.12076 0.0
C828 C 0.61665 0.52049 0.12418 0.0
H829 H 0.72536 0.48137 0.09671 0.0
H830 H 0.7019 0.4979 0.10233 0.0
C831 C 0.60167 0.52522 0.13362 0.0
C832 C 0.62785 0.49277 0.11387 0.0
H833 H 0.67177 0.48773 0.12929 0.0
C834 C 0.6256 0.48369 0.09556 0.0
C835 C 0.64495 0.49462 0.12603 0.0
C836 C 0.64774 0.50387 0.14598 0.0
C837 C 0.63996 0.47622 0.08914 0.0
C838 C 0.65654 0.47725 0.1016 0.0
C839 C 0.65908 0.4869 0.11973 0.0
C840 C 0.67084 0.46762 0.09659 0.0
C841 C 0.63726 0.46744 0.06904 0.0
C842 C 0.66126 0.44508 0.09149 0.0
C843 C 0.67466 0.43563 0.08816 0.0
C844 C 0.69791 0.44844 0.09019 0.0
C845 C 0.70749 0.47103 0.09519 0.0
C846 C 0.6941 0.48051 0.09833 0.0
H847 H 0.6296 0.47465 0.05962 0.0
H848 H 0.65349 0.47118 0.06282 0.0
H849 H 0.62606 0.44912 0.06918 0.0
H850 H 0.64335 0.43457 0.09063 0.0
H851 H 0.66676 0.41811 0.08463 0.0
H852 H 0.44375 0.96063 0.52014 0.0
H853 H 0.41929 0.92582 0.53735 0.0
H854 H 0.46696 0.90411 0.52837 0.0
H855 H 0.49118 0.93862 0.51109 0.0
H856 H 0.40323 0.88339 0.51794 0.0
H857 H 0.4475 0.88786 0.58519 0.0
H858 H 0.45261 0.91234 0.57196 0.0
H859 H 0.46454 0.89595 0.56409 0.0
C860 C 0.44924 0.94869 0.52242 0.0
C861 C 0.46933 0.95226 0.51445 0.0
C862 C 0.43527 0.92882 0.53214 0.0
C863 C 0.44142 0.91249 0.53428 0.0
C864 C 0.46206 0.91663 0.52718 0.0
H865 H 0.38595 0.77449 0.56299 0.0
H866 H 0.40931 0.81432 0.55632 0.0
C867 C 0.47585 0.9363 0.5173 0.0
C868 C 0.42534 0.89003 0.54168 0.0
H869 H 0.41845 0.85188 0.57573 0.0
C870 C 0.40631 0.87657 0.53075 0.0
C871 C 0.42962 0.88115 0.55823 0.0
C872 C 0.44958 0.89509 0.57067 0.0
C873 C 0.3919 0.85414 0.53547 0.0
C874 C 0.39629 0.84509 0.55193 0.0
C875 C 0.41505 0.85878 0.56314 0.0
C876 C 0.38217 0.82123 0.55721 0.0
C877 C 0.37277 0.8401 0.5222 0.0
C878 C 0.35922 0.81193 0.56039 0.0
C879 C 0.34581 0.78915 0.56402 0.0
C880 C 0.35515 0.77526 0.5649 0.0
C881 C 0.37828 0.78477 0.56249 0.0
C882 C 0.39164 0.80752 0.55866 0.0
H883 H 0.37525 0.84783 0.50785 0.0
H884 H 0.37056 0.82321 0.52047 0.0
H885 H 0.35719 0.83835 0.52825 0.0
H886 H 0.35161 0.82226 0.55989 0.0
H887 H 0.32811 0.78237 0.56616 0.0
H888 H 0.50873 0.4472 0.69157 0.0
H889 H 0.51722 0.42246 0.71042 0.0
H890 H 0.58628 0.46149 0.69399 0.0
H891 H 0.578 0.48636 0.67581 0.0
H892 H 0.53164 0.39678 0.6955 0.0
H893 H 0.59341 0.45084 0.74885 0.0
H894 H 0.57643 0.45937 0.7359 0.0
H895 H 0.60184 0.46293 0.72559 0.0
C896 C 0.52582 0.45087 0.6926 0.0
C897 C 0.5427 0.46863 0.68221 0.0
C898 C 0.53065 0.43668 0.70324 0.0
C899 C 0.55246 0.4402 0.70382 0.0
C900 C 0.56945 0.45865 0.69422 0.0
H901 H 0.60027 0.34921 0.69982 0.0
H902 H 0.58401 0.37292 0.69487 0.0
C903 C 0.56466 0.47277 0.68366 0.0
C904 C 0.55724 0.42333 0.71222 0.0
H905 H 0.59569 0.41834 0.73893 0.0
C906 C 0.54535 0.4014 0.70533 0.0
C907 C 0.57488 0.42912 0.72529 0.0
C908 C 0.58717 0.45181 0.73448 0.0
C909 C 0.55154 0.38559 0.71013 0.0
C910 C 0.5705 0.39202 0.72175 0.0
C911 C 0.58144 0.41349 0.7297 0.0
C912 C 0.57995 0.37719 0.72494 0.0
C913 C 0.53781 0.36223 0.70248 0.0
C914 C 0.58382 0.37225 0.74351 0.0
C915 C 0.59339 0.35885 0.74638 0.0
C916 C 0.59926 0.35013 0.73073 0.0
C917 C 0.59551 0.35526 0.71217 0.0
C918 C 0.58613 0.36876 0.70933 0.0
H919 H 0.52033 0.35798 0.69985 0.0
H920 H 0.5449 0.36097 0.68864 0.0
H921 H 0.53776 0.34978 0.71247 0.0
H922 H 0.57937 0.37869 0.75578 0.0
H923 H 0.59596 0.35512 0.76085 0.0
H924 H 0.10367 0.5637 0.85395 0.0
H925 H 0.13865 0.5743 0.87068 0.0
H926 H 0.12518 0.50665 0.86662 0.0
H927 H 0.09019 0.49609 0.84974 0.0
H928 H 0.15222 0.55816 0.90397 0.0
H929 H 0.18254 0.54479 0.83441 0.0
H930 H 0.15741 0.54631 0.83644 0.0
H931 H 0.1575 0.52151 0.84359 0.0
C932 C 0.10783 0.55097 0.85732 0.0
C933 C 0.09427 0.52907 0.85083 0.0
C934 C 0.12782 0.55703 0.86677 0.0
C935 C 0.13462 0.54132 0.86967 0.0
C936 C 0.12029 0.51905 0.86439 0.0
H937 H 0.26755 0.56331 0.89253 0.0
H938 H 0.22744 0.54626 0.88735 0.0
C939 C 0.10025 0.51297 0.85494 0.0
C940 C 0.15771 0.54887 0.87606 0.0
H941 H 0.20777 0.55721 0.85995 0.0
C942 C 0.16437 0.55783 0.89443 0.0
C943 C 0.17354 0.54855 0.86351 0.0
C944 C 0.16755 0.53995 0.84333 0.0
C945 C 0.18646 0.56636 0.90065 0.0
C946 C 0.20238 0.56636 0.88798 0.0
C947 C 0.19558 0.55714 0.86969 0.0
C948 C 0.22633 0.57635 0.893 0.0
C949 C 0.19246 0.57504 0.92078 0.0
C950 C 0.23912 0.59894 0.89799 0.0
C951 C 0.26208 0.60873 0.901 0.0
C952 C 0.27277 0.59618 0.8988 0.0
C953 C 0.25986 0.57349 0.89411 0.0
C954 C 0.23692 0.56369 0.89124 0.0
H955 H 0.17759 0.56771 0.93022 0.0
H956 H 0.20505 0.57141 0.92692 0.0
H957 H 0.19954 0.59336 0.9207 0.0
H958 H 0.23148 0.60923 0.89893 0.0
H959 H 0.2716 0.62631 0.90436 0.0
H960 H 0.55991 0.10697 0.01249 0.0
H961 H 0.58568 0.14077 0.02982 0.0
H962 H 0.63069 0.1155 0.03737 0.0
H963 H 0.60489 0.08155 0.01974 0.0
H964 H 0.60658 0.15005 0.06645 0.0
H965 H 0.66694 0.17367 0.0064 0.0
H966 H 0.63841 0.1515 0.00437 0.0
H967 H 0.65813 0.1472 0.01753 0.0
C968 C 0.57511 0.10844 0.01817 0.0
C969 C 0.58053 0.09177 0.01465 0.0
C970 C 0.5898 0.12773 0.02808 0.0
C971 C 0.61027 0.13082 0.03458 0.0
C972 C 0.6151 0.11356 0.03222 0.0
H973 H 0.72377 0.25945 0.06889 0.0
H974 H 0.6999 0.21953 0.06298 0.0
C975 C 0.6003 0.09411 0.02233 0.0
C976 C 0.62703 0.15288 0.04229 0.0
H977 H 0.6759 0.19977 0.03091 0.0
C978 C 0.62188 0.16084 0.05883 0.0
C979 C 0.64695 0.16697 0.03229 0.0
C980 C 0.65299 0.15958 0.01409 0.0
C981 C 0.63594 0.18264 0.06544 0.0
C982 C 0.65542 0.197 0.05501 0.0
C983 C 0.66096 0.18877 0.03888 0.0
C984 C 0.66963 0.22097 0.05986 0.0
C985 C 0.62974 0.19008 0.0835 0.0
C986 C 0.66061 0.23513 0.05994 0.0
C987 C 0.67421 0.25795 0.06323 0.0
C988 C 0.69721 0.2672 0.06635 0.0
C989 C 0.70618 0.25295 0.06635 0.0
C990 C 0.69254 0.23009 0.06309 0.0
H991 H 0.61891 0.1757 0.09281 0.0
H992 H 0.64476 0.20189 0.0917 0.0
H993 H 0.62033 0.19861 0.07974 0.0
H994 H 0.64312 0.22861 0.05694 0.0
H995 H 0.6668 0.26846 0.06277 0.0
H996 H 0.47615 0.55838 0.17554 0.0
H997 H 0.46795 0.58381 0.19305 0.0
H998 H 0.53729 0.62394 0.20818 0.0
H999 H 0.5457 0.59863 0.19007 0.0
H1000 H 0.47335 0.60012 0.22954 0.0
H1001 H 0.5256 0.66731 0.17798 0.0
H1002 H 0.51839 0.63875 0.1743 0.0
H1003 H 0.53961 0.65577 0.19123 0.0
C1004 C 0.48961 0.57243 0.18286 0.0
C1005 C 0.51161 0.57674 0.18122 0.0
C1006 C 0.48489 0.58692 0.19292 0.0
C1007 C 0.50206 0.60606 0.20157 0.0
C1008 C 0.52385 0.60951 0.20126 0.0
H1009 H 0.46388 0.69509 0.26014 0.0
H1010 H 0.47977 0.671 0.25444 0.0
C1011 C 0.52861 0.59494 0.19112 0.0
C1012 C 0.49707 0.62305 0.20928 0.0
H1013 H 0.50533 0.67507 0.20035 0.0
C1014 C 0.48056 0.61665 0.22338 0.0
C1015 C 0.50627 0.64449 0.201 0.0
C1016 C 0.52332 0.65204 0.18519 0.0
C1017 C 0.4725 0.63078 0.22898 0.0
C1018 C 0.48148 0.65207 0.22049 0.0
C1019 C 0.49852 0.65877 0.20688 0.0
C1020 C 0.47221 0.66694 0.22424 0.0
C1021 C 0.45363 0.62233 0.24318 0.0
C1022 C 0.46313 0.67307 0.20911 0.0
C1023 C 0.45418 0.6869 0.21229 0.0
C1024 C 0.45413 0.69496 0.2307 0.0
C1025 C 0.46337 0.68891 0.24584 0.0
C1026 C 0.47244 0.67513 0.24262 0.0
H1027 H 0.44548 0.60402 0.24522 0.0
H1028 H 0.4602 0.63041 0.25719 0.0
H1029 H 0.44084 0.62647 0.23851 0.0
H1030 H 0.46273 0.66693 0.19481 0.0
H1031 H 0.44696 0.69097 0.20036 0.0
H1032 H 0.94444 0.47662 0.34652 0.0
H1033 H 0.91031 0.46676 0.36432 0.0
H1034 H 0.93291 0.53638 0.37303 0.0
H1035 H 0.96732 0.54632 0.3553 0.0
H1036 H 0.90153 0.48288 0.40392 0.0
H1037 H 0.87356 0.50616 0.33761 0.0
H1038 H 0.89538 0.49919 0.33725 0.0
H1039 H 0.90073 0.52526 0.34706 0.0
C1040 C 0.94242 0.48977 0.35281 0.0
C1041 C 0.95844 0.5122 0.34967 0.0
C1042 C 0.92296 0.48414 0.36294 0.0
C1043 C 0.91909 0.50085 0.36988 0.0
C1044 C 0.93568 0.52327 0.36779 0.0
H1045 H 0.78757 0.48235 0.39448 0.0
H1046 H 0.82773 0.49914 0.38948 0.0
C1047 C 0.95532 0.52893 0.3578 0.0
C1048 C 0.89663 0.49468 0.37699 0.0
H1049 H 0.84766 0.4902 0.36237 0.0
C1050 C 0.88976 0.48468 0.39499 0.0
C1051 C 0.88139 0.49706 0.36526 0.0
C1052 C 0.88794 0.5074 0.34566 0.0
C1053 C 0.8679 0.47685 0.40154 0.0
C1054 C 0.85235 0.47845 0.38947 0.0
C1055 C 0.85949 0.48894 0.37164 0.0
C1056 C 0.8284 0.4687 0.39456 0.0
C1057 C 0.8618 0.46713 0.42135 0.0
C1058 C 0.81532 0.44601 0.39921 0.0
C1059 C 0.7924 0.43647 0.40231 0.0
C1060 C 0.78202 0.44931 0.40039 0.0
C1061 C 0.79512 0.47203 0.39593 0.0
C1062 C 0.81807 0.48163 0.39312 0.0
H1063 H 0.87667 0.47402 0.43078 0.0
H1064 H 0.84919 0.47042 0.42798 0.0
H1065 H 0.85482 0.44885 0.42055 0.0
H1066 H 0.82267 0.43546 0.39982 0.0
H1067 H 0.78265 0.41884 0.40546 0.0
H1068 H 0.05687 0.56101 0.38791 0.0
H1069 H 0.07673 0.56537 0.41811 0.0
H1070 H 0.12031 0.54694 0.38974 0.0
H1071 H 0.10054 0.54252 0.35969 0.0
H1072 H 0.10716 0.52996 0.42886 0.0
H1073 H 0.14112 0.62123 0.42077 0.0
H1074 H 0.1113 0.60378 0.42059 0.0
H1075 H 0.12747 0.60192 0.40144 0.0
C1076 C 0.07023 0.55722 0.38832 0.0
C1077 C 0.07733 0.55159 0.37152 0.0
C1078 C 0.08164 0.55986 0.40549 0.0
C1079 C 0.10016 0.55678 0.40603 0.0
C1080 C 0.1061 0.54945 0.38959 0.0
H1081 H 0.22068 0.61487 0.47116 0.0
H1082 H 0.19125 0.60123 0.44704 0.0
C1083 C 0.09483 0.54695 0.37246 0.0
C1084 C 0.11498 0.56352 0.4229 0.0
H1085 H 0.1546 0.60953 0.44635 0.0
C1086 C 0.11735 0.5473 0.43289 0.0
C1087 C 0.1285 0.58623 0.42783 0.0
C1088 C 0.1272 0.6044 0.41708 0.0
C1089 C 0.13307 0.55324 0.44762 0.0
C1090 C 0.14667 0.57596 0.45245 0.0
C1091 C 0.14409 0.59213 0.44262 0.0
C1092 C 0.16434 0.58349 0.46714 0.0
C1093 C 0.1356 0.53531 0.45748 0.0
C1094 C 0.15891 0.57812 0.48642 0.0
C1095 C 0.17567 0.58603 0.50026 0.0
C1096 C 0.1982 0.59951 0.49508 0.0
C1097 C 0.20352 0.60475 0.47569 0.0
C1098 C 0.18675 0.59688 0.46188 0.0
H1099 H 0.12682 0.51919 0.44973 0.0
H1100 H 0.15347 0.54036 0.45883 0.0
H1101 H 0.12852 0.53273 0.47208 0.0
H1102 H 0.14168 0.56815 0.4908 0.0
H1103 H 0.17091 0.58201 0.51508 0.0
H1104 H 0.56522 0.06244 0.54134 0.0
H1105 H 0.58297 0.08213 0.57117 0.0
H1106 H 0.53269 0.10089 0.57743 0.0
H1107 H 0.5151 0.08138 0.54782 0.0
H1108 H 0.59961 0.12835 0.57482 0.0
H1109 H 0.5383 0.08221 0.63176 0.0
H1110 H 0.53784 0.06992 0.6089 0.0
H1111 H 0.52608 0.08774 0.61143 0.0
C1112 C 0.55763 0.07016 0.54949 0.0
C1113 C 0.53879 0.07036 0.54245 0.0
C1114 C 0.5678 0.08148 0.56641 0.0
C1115 C 0.559 0.09277 0.57661 0.0
C1116 C 0.5395 0.09193 0.57003 0.0
H1117 H 0.58926 0.19434 0.65792 0.0
H1118 H 0.57417 0.16436 0.63441 0.0
C1119 C 0.52951 0.08086 0.5531 0.0
C1120 C 0.57143 0.10777 0.59269 0.0
H1121 H 0.56505 0.12057 0.63844 0.0
C1122 C 0.59232 0.12645 0.58888 0.0
C1123 C 0.5618 0.10528 0.61095 0.0
C1124 C 0.53986 0.08508 0.61609 0.0
C1125 C 0.60323 0.14341 0.60248 0.0
C1126 C 0.59313 0.14136 0.62049 0.0
C1127 C 0.57271 0.12217 0.62459 0.0
C1128 C 0.60267 0.15958 0.63478 0.0
C1129 C 0.62483 0.16391 0.59707 0.0
C1130 C 0.62372 0.16684 0.64285 0.0
C1131 C 0.63256 0.18423 0.65614 0.0
C1132 C 0.62044 0.1946 0.66171 0.0
C1133 C 0.59926 0.18709 0.65369 0.0
C1134 C 0.59049 0.16977 0.64039 0.0
H1135 H 0.62789 0.16494 0.58144 0.0
H1136 H 0.62489 0.17924 0.60173 0.0
H1137 H 0.63884 0.16347 0.60429 0.0
H1138 H 0.63327 0.15899 0.63893 0.0
H1139 H 0.64894 0.18964 0.66196 0.0
H1140 H 0.52157 0.58362 0.693 0.0
H1141 H 0.51792 0.6002 0.72265 0.0
H1142 H 0.48406 0.53515 0.74879 0.0
H1143 H 0.48845 0.51872 0.71929 0.0
H1144 H 0.47855 0.59086 0.73583 0.0
H1145 H 0.52188 0.57176 0.79266 0.0
H1146 H 0.52635 0.5692 0.76762 0.0
H1147 H 0.50243 0.54742 0.7797 0.0
C1148 C 0.51408 0.57304 0.70534 0.0
C1149 C 0.5054 0.54997 0.704 0.0
C1150 C 0.5119 0.58247 0.72222 0.0
C1151 C 0.50081 0.56897 0.73802 0.0
C1152 C 0.49315 0.54601 0.737 0.0
H1153 H 0.432 0.58241 0.83493 0.0
H1154 H 0.44773 0.56984 0.80993 0.0
C1155 C 0.49561 0.53661 0.72015 0.0
C1156 C 0.49466 0.57845 0.75439 0.0
H1157 H 0.49563 0.58257 0.80305 0.0
C1158 C 0.4826 0.58931 0.7505 0.0
C1159 C 0.49974 0.57627 0.77356 0.0
C1160 C 0.5135 0.56572 0.77864 0.0
C1161 C 0.47509 0.59762 0.76521 0.0
C1162 C 0.47986 0.59513 0.78434 0.0
C1163 C 0.49203 0.58443 0.78832 0.0
C1164 C 0.47165 0.60298 0.80035 0.0
C1165 C 0.46156 0.60847 0.76023 0.0
C1166 C 0.48014 0.62581 0.80338 0.0
C1167 C 0.47132 0.6331 0.81776 0.0
C1168 C 0.4538 0.61767 0.82938 0.0
C1169 C 0.44565 0.59479 0.82646 0.0
C1170 C 0.45457 0.58754 0.81214 0.0
H1171 H 0.45615 0.60574 0.74507 0.0
H1172 H 0.44658 0.60194 0.76949 0.0
H1173 H 0.47176 0.62668 0.76272 0.0
H1174 H 0.49348 0.63797 0.7945 0.0
H1175 H 0.47828 0.65083 0.81981 0.0
H1176 H 0.9862 0.47535 0.88579 0.0
H1177 H 0.96387 0.46924 0.91471 0.0
H1178 H 0.94459 0.51574 0.89407 0.0
H1179 H 0.9662 0.52114 0.86485 0.0
H1180 H 0.95992 0.49358 0.94393 0.0
H1181 H 0.88545 0.45844 0.89701 0.0
H1182 H 0.91264 0.46545 0.88829 0.0
H1183 H 0.90556 0.48686 0.89172 0.0
C1184 C 0.97774 0.48477 0.88778 0.0
C1185 C 0.97784 0.49871 0.87324 0.0
C1186 C 0.96491 0.48119 0.90422 0.0
C1187 C 0.95208 0.49157 0.90629 0.0
C1188 C 0.95389 0.50711 0.89253 0.0
H1189 H 0.84709 0.4698 0.98677 0.0
H1190 H 0.87666 0.4854 0.96263 0.0
C1191 C 0.96643 0.51042 0.87599 0.0
C1192 C 0.93532 0.48456 0.92181 0.0
H1193 H 0.87939 0.46071 0.92988 0.0
C1194 C 0.94233 0.48645 0.94087 0.0
C1195 C 0.91229 0.47499 0.91778 0.0
C1196 C 0.90346 0.47108 0.8976 0.0
C1197 C 0.92694 0.47924 0.95599 0.0
C1198 C 0.90401 0.46982 0.95191 0.0
C1199 C 0.89702 0.4681 0.93292 0.0
C1200 C 0.88683 0.46093 0.96707 0.0
C1201 C 0.93527 0.48182 0.97624 0.0
C1202 C 0.88262 0.44186 0.97733 0.0
C1203 C 0.86568 0.43284 0.99101 0.0
C1204 C 0.85267 0.44277 0.9947 0.0
C1205 C 0.85696 0.4619 0.98437 0.0
C1206 C 0.87379 0.4708 0.97058 0.0
H1207 H 0.95348 0.49356 0.97722 0.0
H1208 H 0.92649 0.48783 0.98565 0.0
H1209 H 0.93183 0.46537 0.98168 0.0
H1210 H 0.89228 0.43381 0.9746 0.0
H1211 H 0.86293 0.41823 0.99887 0.0
H1212 H 0.53088 0.9547 0.04007 0.0
H1213 H 0.51529 0.93569 0.07033 0.0
H1214 H 0.47631 0.96818 0.07464 0.0
H1215 H 0.49187 0.98725 0.04409 0.0
H1216 H 0.51315 0.9514 0.10814 0.0
H1217 H 0.43008 0.90009 0.07399 0.0
H1218 H 0.45512 0.91606 0.06014 0.0
H1219 H 0.44276 0.92987 0.07243 0.0
C1220 C 0.51925 0.95807 0.04764 0.0
C1221 C 0.51241 0.97228 0.03973 0.0
C1222 C 0.5104 0.94724 0.06491 0.0
C1223 C 0.49442 0.95029 0.07455 0.0
C1224 C 0.48844 0.96544 0.06727 0.0
H1225 H 0.41122 0.86207 0.16701 0.0
H1226 H 0.42747 0.89254 0.14376 0.0
C1227 C 0.49745 0.97644 0.04995 0.0
C1228 C 0.4831 0.93624 0.09141 0.0
H1229 H 0.43438 0.8906 0.10517 0.0
C1230 C 0.49584 0.9383 0.10764 0.0
C1231 C 0.46052 0.91918 0.09068 0.0
C1232 C 0.44624 0.91594 0.07338 0.0
C1233 C 0.48675 0.92335 0.12296 0.0
C1234 C 0.4645 0.9056 0.12181 0.0
C1235 C 0.45146 0.90416 0.10597 0.0
C1236 C 0.4549 0.88754 0.13625 0.0
C1237 C 0.50115 0.92657 0.14016 0.0
C1238 C 0.4647 0.87438 0.13948 0.0
C1239 C 0.45553 0.85705 0.15277 0.0
C1240 C 0.43622 0.85238 0.16302 0.0
C1241 C 0.42625 0.8654 0.15954 0.0
C1242 C 0.43545 0.88276 0.14622 0.0
H1243 H 0.51464 0.94419 0.14156 0.0
H1244 H 0.49116 0.92152 0.1535 0.0
H1245 H 0.50907 0.91618 0.13853 0.0
H1246 H 0.47941 0.87743 0.13163 0.0
H1247 H 0.46378 0.84754 0.15521 0.0
H1248 H 0.5305 0.4622 0.19474 0.0
H1249 H 0.53431 0.44588 0.2245 0.0
H1250 H 0.57367 0.51173 0.24836 0.0
H1251 H 0.56903 0.52791 0.21884 0.0
H1252 H 0.57286 0.45224 0.2361 0.0
H1253 H 0.53785 0.47932 0.29425 0.0
H1254 H 0.53223 0.4814 0.26941 0.0
H1255 H 0.55769 0.5024 0.28025 0.0
C1256 C 0.5392 0.47305 0.20666 0.0
C1257 C 0.54929 0.49623 0.20469 0.0
C1258 C 0.54149 0.46377 0.2236 0.0
C1259 C 0.55416 0.47753 0.23877 0.0
C1260 C 0.56333 0.5007 0.23711 0.0
H1261 H 0.63006 0.46426 0.32917 0.0
H1262 H 0.61349 0.47659 0.30471 0.0
C1263 C 0.56074 0.50996 0.22023 0.0
C1264 C 0.5603 0.46791 0.25504 0.0
H1265 H 0.56345 0.46711 0.30372 0.0
C1266 C 0.57043 0.45521 0.25088 0.0
C1267 C 0.55728 0.47186 0.27435 0.0
C1268 C 0.54546 0.4843 0.27984 0.0
C1269 C 0.57814 0.44689 0.26541 0.0
C1270 C 0.57571 0.45141 0.28462 0.0
C1271 C 0.56531 0.46378 0.28891 0.0
C1272 C 0.58471 0.44403 0.30032 0.0
C1273 C 0.58944 0.43385 0.26019 0.0
C1274 C 0.57386 0.42165 0.30599 0.0
C1275 C 0.58315 0.41454 0.32011 0.0
C1276 C 0.60355 0.42969 0.32873 0.0
C1277 C 0.6142 0.45218 0.32307 0.0
C1278 C 0.60481 0.45927 0.30905 0.0
H1279 H 0.59185 0.43354 0.24454 0.0
H1280 H 0.60591 0.44113 0.26733 0.0
H1281 H 0.57919 0.41645 0.2653 0.0
H1282 H 0.55827 0.40968 0.29939 0.0
H1283 H 0.57429 0.39719 0.32432 0.0
H1284 H 0.52917 0.9864 0.44592 0.0
H1285 H 0.5262 0.96777 0.41521 0.0
H1286 H 0.45514 0.94134 0.41545 0.0
H1287 H 0.45813 0.95987 0.44584 0.0
H1288 H 0.50142 0.92169 0.4113 0.0
H1289 H 0.47112 0.96125 0.36025 0.0
H1290 H 0.48431 0.9742 0.38256 0.0
H1291 H 0.45525 0.95331 0.38194 0.0
C1292 C 0.5131 0.97721 0.439 0.0
C1293 C 0.49389 0.97463 0.44804 0.0
C1294 C 0.51138 0.9665 0.42158 0.0
C1295 C 0.49048 0.95339 0.41292 0.0
C1296 C 0.47149 0.95175 0.4216 0.0
H1297 H 0.41798 0.84749 0.33565 0.0
H1298 H 0.43285 0.87758 0.35913 0.0
C1299 C 0.47318 0.96226 0.43898 0.0
C1300 C 0.48778 0.93915 0.39618 0.0
H1301 H 0.46265 0.92385 0.35256 0.0
C1302 C 0.49342 0.92245 0.39825 0.0
C1303 C 0.47725 0.94012 0.37922 0.0
C1304 C 0.47184 0.95834 0.37576 0.0
C1305 C 0.48754 0.90585 0.38433 0.0
C1306 C 0.47602 0.9062 0.3678 0.0
C1307 C 0.47134 0.92352 0.36532 0.0
C1308 C 0.46737 0.88798 0.35354 0.0
C1309 C 0.49259 0.88739 0.38789 0.0
C1310 C 0.48187 0.88387 0.34258 0.0
C1311 C 0.4734 0.86653 0.32924 0.0
C1312 C 0.45027 0.85302 0.32658 0.0
C1313 C 0.43584 0.85729 0.33757 0.0
C1314 C 0.44432 0.87462 0.35086 0.0
H1315 H 0.4978 0.88728 0.40287 0.0
H1316 H 0.47782 0.87093 0.38468 0.0
H1317 H 0.50633 0.88962 0.37834 0.0
H1318 H 0.49972 0.89416 0.34427 0.0
H1319 H 0.48497 0.86363 0.32109 0.0
H1320 H 0.51802 0.48248 0.6012 0.0
H1321 H 0.5308 0.47596 0.57039 0.0
H1322 H 0.59604 0.49895 0.59426 0.0
H1323 H 0.58348 0.50574 0.62481 0.0
H1324 H 0.59672 0.51231 0.55584 0.0
H1325 H 0.53997 0.42149 0.56716 0.0
H1326 H 0.5272 0.43853 0.56703 0.0
H1327 H 0.54618 0.44169 0.58581 0.0
C1328 C 0.53523 0.48672 0.59964 0.0
C1329 C 0.54972 0.49437 0.61538 0.0
C1330 C 0.54246 0.48281 0.58214 0.0
C1331 C 0.56424 0.48657 0.58019 0.0
C1332 C 0.57914 0.49582 0.59549 0.0
H1333 H 0.62159 0.42425 0.51424 0.0
H1334 H 0.60602 0.43818 0.5383 0.0
C1335 C 0.57194 0.49964 0.61293 0.0
C1336 C 0.57116 0.47905 0.56304 0.0
H1337 H 0.56331 0.43211 0.54032 0.0
C1338 C 0.58927 0.49481 0.55225 0.0
C1339 C 0.56163 0.45615 0.55867 0.0
C1340 C 0.54278 0.4384 0.57031 0.0
C1341 C 0.59833 0.48827 0.53736 0.0
C1342 C 0.58885 0.46537 0.53305 0.0
C1343 C 0.57049 0.44965 0.54362 0.0
C1344 C 0.59838 0.4572 0.51831 0.0
C1345 C 0.61854 0.50585 0.52689 0.0
C1346 C 0.59908 0.46311 0.49907 0.0
C1347 C 0.60797 0.45517 0.4853 0.0
C1348 C 0.61618 0.44101 0.49049 0.0
C1349 C 0.61526 0.43497 0.50976 0.0
C1350 C 0.60643 0.44297 0.52352 0.0
H1351 H 0.62671 0.52195 0.53469 0.0
H1352 H 0.63092 0.50036 0.52468 0.0
H1353 H 0.6134 0.50871 0.51267 0.0
H1354 H 0.5925 0.47365 0.49467 0.0
H1355 H 0.60804 0.45979 0.47052 0.0
H1356 H 0.0614 0.55435 0.77863 0.0
H1357 H 0.08 0.56975 0.74792 0.0
H1358 H 0.11506 0.5333 0.75311 0.0
H1359 H 0.09628 0.51763 0.78334 0.0
H1360 H 0.12506 0.59633 0.74337 0.0
H1361 H 0.09526 0.5217 0.69799 0.0
H1362 H 0.08143 0.52156 0.71988 0.0
H1363 H 0.10546 0.51806 0.72042 0.0
C1364 C 0.07261 0.5492 0.77289 0.0
C1365 C 0.07746 0.53486 0.78334 0.0
C1366 C 0.08331 0.55808 0.75545 0.0
C1367 C 0.09874 0.55249 0.74812 0.0
C1368 C 0.1029 0.53751 0.75825 0.0
H1369 H 0.2184 0.62564 0.68406 0.0
H1370 H 0.18873 0.60963 0.70787 0.0
C1371 C 0.09231 0.52872 0.77561 0.0
C1372 C 0.11224 0.56377 0.73095 0.0
H1373 H 0.13065 0.55347 0.68911 0.0
C1374 C 0.12599 0.58701 0.73133 0.0
C1375 C 0.11326 0.55167 0.7151 0.0
C1376 C 0.09787 0.52689 0.71321 0.0
C1377 C 0.14163 0.59832 0.71682 0.0
C1378 C 0.14388 0.58598 0.70176 0.0
C1379 C 0.12922 0.56291 0.70082 0.0
C1380 C 0.16185 0.59647 0.68727 0.0
C1381 C 0.1557 0.62334 0.71788 0.0
C1382 C 0.15669 0.59391 0.66775 0.0
C1383 C 0.17365 0.60267 0.65408 0.0
C1384 C 0.19618 0.61417 0.65964 0.0
C1385 C 0.20128 0.61677 0.67924 0.0
C1386 C 0.1843 0.60791 0.69289 0.0
H1387 H 0.1472 0.6306 0.72616 0.0
H1388 H 0.17156 0.62789 0.72527 0.0
H1389 H 0.15964 0.63093 0.70343 0.0
H1390 H 0.1395 0.58494 0.66307 0.0
H1391 H 0.16906 0.59993 0.63914 0.0
H1392 H 0.56197 0.05395 0.93438 0.0
H1393 H 0.56745 0.07455 0.90441 0.0
H1394 H 0.54104 0.11257 0.9308 0.0
H1395 H 0.53553 0.09212 0.96066 0.0
H1396 H 0.53643 0.08827 0.88069 0.0
H1397 H 0.61126 0.15514 0.91749 0.0
H1398 H 0.59829 0.12628 0.92458 0.0
H1399 H 0.5855 0.14242 0.93063 0.0
C1400 C 0.55657 0.06612 0.93352 0.0
C1401 C 0.5485 0.07161 0.94981 0.0
C1402 C 0.55979 0.07791 0.91646 0.0
C1403 C 0.55485 0.09519 0.91555 0.0
C1404 C 0.54501 0.09934 0.9313 0.0
H1405 H 0.59584 0.21143 0.84529 0.0
H1406 H 0.58068 0.18256 0.86992 0.0
C1407 C 0.54187 0.08766 0.94831 0.0
C1408 C 0.56269 0.11091 0.8993 0.0
H1409 H 0.60252 0.16378 0.88739 0.0
C1410 C 0.55092 0.10475 0.88203 0.0
C1411 C 0.58159 0.13235 0.90122 0.0
C1412 C 0.59506 0.13953 0.91941 0.0
C1413 C 0.55732 0.11982 0.86668 0.0
C1414 C 0.57617 0.14137 0.86866 0.0
C1415 C 0.58802 0.14732 0.88591 0.0
C1416 C 0.584 0.15818 0.85315 0.0
C1417 C 0.5435 0.11277 0.84871 0.0
C1418 C 0.591 0.15412 0.83557 0.0
C1419 C 0.59971 0.17061 0.82148 0.0
C1420 C 0.60179 0.19159 0.82477 0.0
C1421 C 0.59467 0.19555 0.84238 0.0
C1422 C 0.58589 0.17903 0.85642 0.0
H1423 H 0.52662 0.0983 0.85126 0.0
H1424 H 0.54177 0.12666 0.84277 0.0
H1425 H 0.55184 0.10782 0.83783 0.0
H1426 H 0.59026 0.13839 0.83291 0.0
H1427 H 0.60538 0.16715 0.8082 0.0
H1428 H 0.46945 0.5299 0.12404 0.0
H1429 H 0.45429 0.53597 0.09456 0.0
H1430 H 0.52096 0.57659 0.07271 0.0
H1431 H 0.53606 0.56994 0.10205 0.0
H1432 H 0.4631 0.5772 0.08536 0.0
H1433 H 0.4883 0.5427 0.0252 0.0
H1434 H 0.48898 0.53508 0.04974 0.0
H1435 H 0.51102 0.56092 0.0404 0.0
C1436 C 0.48075 0.53937 0.11258 0.0
C1437 C 0.50385 0.54929 0.11511 0.0
C1438 C 0.47213 0.54295 0.09582 0.0
C1439 C 0.48645 0.55666 0.08136 0.0
C1440 C 0.50954 0.56556 0.08345 0.0
H1441 H 0.47055 0.62686 0.98575 0.0
H1442 H 0.48455 0.6123 0.01066 0.0
C1443 C 0.51818 0.56177 0.10019 0.0
C1444 C 0.47742 0.56407 0.06557 0.0
H1445 H 0.47506 0.5675 0.01706 0.0
C1446 C 0.46552 0.57485 0.07043 0.0
C1447 C 0.48081 0.56125 0.0461 0.0
C1448 C 0.4928 0.54918 0.04 0.0
C1449 C 0.45717 0.58312 0.05639 0.0
C1450 C 0.46055 0.58031 0.03693 0.0
C1451 C 0.47247 0.56959 0.03201 0.0
C1452 C 0.45194 0.58862 0.02155 0.0
C1453 C 0.44528 0.5953 0.06253 0.0
C1454 C 0.42896 0.57999 0.01934 0.0
C1455 C 0.42091 0.5884 0.00526 0.0
C1456 C 0.4357 0.60556 0.99304 0.0
C1457 C 0.45872 0.61393 0.99514 0.0
C1458 C 0.46675 0.60549 0.00923 0.0
H1459 H 0.44872 0.60066 0.0777 0.0
H1460 H 0.45024 0.6102 0.05348 0.0
H1461 H 0.42705 0.58408 0.06097 0.0
H1462 H 0.41724 0.56677 0.02858 0.0
H1463 H 0.4031 0.58164 0.0041 0.0
H1464 H 0.95669 0.52553 0.28273 0.0
H1465 H 0.93816 0.51019 0.25231 0.0
H1466 H 0.9759 0.47665 0.24549 0.0
H1467 H 0.99438 0.49182 0.27633 0.0
H1468 H 0.95368 0.51189 0.21476 0.0
H1469 H 0.91035 0.42578 0.24444 0.0
H1470 H 0.92476 0.45003 0.25947 0.0
H1471 H 0.94027 0.44086 0.2454 0.0
C1472 C 0.96123 0.51509 0.27463 0.0
C1473 C 0.97675 0.50962 0.28194 0.0
C1474 C 0.95069 0.5064 0.25725 0.0
C1475 C 0.95537 0.49198 0.24682 0.0
C1476 C 0.97181 0.48747 0.2535 0.0
H1477 H 0.87189 0.41215 0.15052 0.0
H1478 H 0.9025 0.42897 0.17365 0.0
C1479 C 0.98248 0.49628 0.27098 0.0
C1480 C 0.94182 0.48083 0.22967 0.0
H1481 H 0.89949 0.43079 0.21401 0.0
C1482 C 0.94206 0.4941 0.21445 0.0
C1483 C 0.92666 0.45762 0.22932 0.0
C1484 C 0.92526 0.44266 0.24554 0.0
C1485 C 0.92705 0.48491 0.19919 0.0
C1486 C 0.91117 0.46192 0.19933 0.0
C1487 C 0.91165 0.44844 0.21403 0.0
C1488 C 0.89291 0.45188 0.18513 0.0
C1489 C 0.92806 0.49996 0.18321 0.0
C1490 C 0.87717 0.45892 0.18419 0.0
C1491 C 0.8597 0.44936 0.17106 0.0
C1492 C 0.85757 0.4325 0.15862 0.0
C1493 C 0.87323 0.42528 0.15976 0.0
C1494 C 0.89067 0.4348 0.17299 0.0
H1495 H 0.94473 0.51518 0.18228 0.0
H1496 H 0.92412 0.4912 0.16926 0.0
H1497 H 0.91562 0.50524 0.18592 0.0
H1498 H 0.87837 0.47179 0.19368 0.0
H1499 H 0.84808 0.45545 0.17044 0.0
loop_
_geom_bond_atom_site_label_1
_geom_bond_atom_site_label_2
_geom_bond_distance
_geom_bond_site_symmetry_2
_ccdc_geom_bond_type
H0 C6 0.930 . S
H1 C9 0.931 . S
H2 C11 0.931 . S
H3 C13 0.930 . S
H4 C15 0.930 . S
H5 C17 0.931 1_455 S
C6 H0 0.930 . S
C6 C7 1.380 . S
C6 C8 1.394 . S
C7 C6 1.380 . S
C7 C11 1.382 . S
C8 C6 1.394 . S
C8 C9 1.400 . S
C9 H1 0.931 . S
C9 C8 1.400 . S
C9 C10 1.375 . S
C10 C9 1.375 . S
C10 C11 1.415 . S
C10 C12 1.501 . S
C11 H2 0.931 . S
C11 C7 1.382 . S
C11 C10 1.415 . S
C12 C10 1.501 . S
C12 C13 1.384 1_455 S
C12 C17 1.408 1_455 S
C13 H3 0.930 . S
C13 C12 1.384 1_655 S
C13 C14 1.389 . S
C14 C13 1.389 . S
C14 C15 1.405 . S
C15 H4 0.930 . S
C15 C14 1.405 . S
C15 C16 1.364 . S
C16 C15 1.364 . S
C16 C17 1.400 . S
C17 H5 0.931 1_655 S
C17 C12 1.408 1_655 S
C17 C16 1.400 . S
H18 C24 0.930 . S
H19 C27 0.931 . S
H20 C29 0.931 . S
H21 C31 0.930 . S
H22 C33 0.930 . S
H23 C35 0.931 1_545 S
C24 H18 0.930 . S
C24 C25 1.380 . S
C24 C26 1.394 . S
C25 C24 1.380 . S
C25 C29 1.382 . S
C26 C24 1.394 . S
C26 C27 1.400 . S
C27 H19 0.931 . S
C27 C26 1.400 . S
C27 C28 1.375 . S
C28 C27 1.375 . S
C28 C29 1.415 . S
C28 C30 1.501 . S
C29 H20 0.931 . S
C29 C25 1.382 . S
C29 C28 1.415 . S
C30 C28 1.501 . S
C30 C31 1.384 1_545 S
C30 C35 1.408 1_545 S
C31 H21 0.930 . S
C31 C30 1.384 1_565 S
C31 C32 1.389 . S
C32 C31 1.389 . S
C32 C33 1.405 . S
C33 H22 0.930 . S
C33 C32 1.405 . S
C33 C34 1.364 . S
C34 C33 1.364 . S
C34 C35 1.400 . S
C35 H23 0.931 1_565 S
C35 C30 1.408 1_565 S
C35 C34 1.400 . S
H36 C42 0.930 . S
H37 C45 0.931 . S
H38 C47 0.931 . S
H39 C49 0.930 . S
H40 C51 0.930 . S
H41 C53 0.931 . S
C42 H36 0.930 . S
C42 C43 1.380 . S
C42 C44 1.394 . S
C43 C42 1.380 . S
C43 C47 1.382 . S
C44 C42 1.394 . S
C44 C45 1.400 . S
C45 H37 0.931 . S
C45 C44 1.400 . S
C45 C46 1.375 . S
C46 C45 1.375 . S
C46 C47 1.415 . S
C46 C48 1.501 . S
C47 H38 0.931 . S
C47 C43 1.382 . S
C47 C46 1.415 . S
C48 C46 1.501 . S
C48 C49 1.384 . S
C48 C53 1.408 . S
C49 H39 0.930 . S
C49 C48 1.384 . S
C49 C50 1.389 . S
C50 C49 1.389 . S
C50 C51 1.405 . S
C51 H40 0.930 . S
C51 C50 1.405 . S
C51 C52 1.364 . S
C52 C51 1.364 . S
C52 C53 1.400 . S
C53 H41 0.931 . S
C53 C48 1.408 . S
C53 C52 1.400 . S
H54 C60 0.930 . S
H55 C63 0.931 . S
H56 C65 0.931 . S
H57 C67 0.930 . S
H58 C69 0.930 . S
H59 C71 0.931 1_455 S
C60 H54 0.930 . S
C60 C61 1.380 . S
C60 C62 1.394 . S
C61 C60 1.380 . S
C61 C65 1.382 . S
C62 C60 1.394 . S
C62 C63 1.400 . S
C63 H55 0.931 . S
C63 C62 1.400 . S
C63 C64 1.375 . S
C64 C63 1.375 . S
C64 C65 1.415 . S
C64 C66 1.501 . S
C65 H56 0.931 . S
C65 C61 1.382 . S
C65 C64 1.415 . S
C66 C64 1.501 . S
C66 C67 1.384 1_455 S
C66 C71 1.408 1_455 S
C67 H57 0.930 . S
C67 C66 1.384 1_655 S
C67 C68 1.389 . S
C68 C67 1.389 . S
C68 C69 1.405 . S
C69 H58 0.930 . S
C69 C68 1.405 . S
C69 C70 1.364 . S
C70 C69 1.364 . S
C70 C71 1.400 . S
C71 H59 0.931 1_655 S
C71 C66 1.408 1_655 S
C71 C70 1.400 . S
H72 C78 0.930 . S
H73 C81 0.931 . S
H74 C83 0.931 1_545 S
H75 C85 0.930 . S
H76 C87 0.930 . S
H77 C89 0.931 . S
C78 H72 0.930 . S
C78 C79 1.380 . S
C78 C80 1.394 1_554 S
C79 C78 1.380 . S
C79 C83 1.382 . S
C80 C78 1.394 1_556 S
C80 C81 1.400 . S
C81 H73 0.931 . S
C81 C80 1.400 . S
C81 C82 1.375 1_565 S
C82 C81 1.375 1_545 S
C82 C83 1.415 1_546 S
C82 C84 1.501 . S
C83 H74 0.931 1_565 S
C83 C79 1.382 . S
C83 C82 1.415 1_564 S
C84 C82 1.501 . S
C84 C85 1.384 1_556 S
C84 C89 1.408 . S
C85 H75 0.930 . S
C85 C84 1.384 1_554 S
C85 C86 1.389 1_554 S
C86 C85 1.389 1_556 S
C86 C87 1.405 . S
C87 H76 0.930 . S
C87 C86 1.405 . S
C87 C88 1.364 . S
C88 C87 1.364 . S
C88 C89 1.400 . S
C89 H77 0.931 . S
C89 C84 1.408 . S
C89 C88 1.400 . S
H90 C96 0.930 . S
H91 C99 0.931 . S
H92 C101 0.931 . S
H93 C103 0.930 . S
H94 C105 0.930 . S
H95 C107 0.931 . S
C96 H90 0.930 . S
C96 C97 1.380 . S
C96 C98 1.394 . S
C97 C96 1.380 . S
C97 C101 1.382 . S
C98 C96 1.394 . S
C98 C99 1.400 . S
C99 H91 0.931 . S
C99 C98 1.400 . S
C99 C100 1.375 . S
C100 C99 1.375 . S
C100 C101 1.415 . S
C100 C102 1.501 . S
C101 H92 0.931 . S
C101 C97 1.382 . S
C101 C100 1.415 . S
C102 C100 1.501 . S
C102 C103 1.384 . S
C102 C107 1.408 . S
C103 H93 0.930 . S
C103 C102 1.384 . S
C103 C104 1.389 . S
C104 C103 1.389 . S
C104 C105 1.405 . S
C105 H94 0.930 . S
C105 C104 1.405 . S
C105 C106 1.364 . S
C106 C105 1.364 . S
C106 C107 1.400 . S
C107 H95 0.931 . S
C107 C102 1.408 . S
C107 C106 1.400 . S
Li108 N125 1.990 . S
Li108 O168 1.956 . S
Li108 O169 1.970 . S
Li108 O170 1.961 . S
Li109 N133 1.990 . S
Li109 O168 1.970 . S
Li109 O169 1.956 . S
Li109 O171 1.961 . S
Li110 N155 1.990 . S
Li110 O168 1.961 . S
Li110 O170 1.956 . S
Li110 O171 1.970 . S
Li111 N161 1.990 . S
Li111 O169 1.961 . S
Li111 O170 1.970 . S
Li111 O171 1.956 . S
C112 C114 1.348 . S
C112 C115 1.356 . S
C112 O168 1.325 . S
N113 C116 1.314 . S
N113 C117 1.279 . S
C114 C112 1.348 . S
C114 C116 1.353 . S
C114 H172 0.929 . S
C115 C112 1.356 . S
C115 C117 1.358 . S
C115 H173 0.930 . S
C116 N113 1.314 . S
C116 C114 1.353 . S
C116 H174 0.930 . S
C117 N113 1.279 . S
C117 C115 1.358 . S
C117 H175 0.930 . S
C118 C121 1.348 . S
C118 C122 1.356 . S
C118 O169 1.325 . S
C119 N120 1.279 . S
C119 C122 1.358 . S
C119 H176 0.930 . S
N120 C119 1.279 . S
N120 C123 1.314 . S
C121 C118 1.348 . S
C121 C123 1.353 . S
C121 H177 0.929 . S
C122 C118 1.356 . S
C122 C119 1.358 . S
C122 H178 0.930 . S
C123 N120 1.314 . S
C123 C121 1.353 . S
C123 H179 0.930 . S
C124 N125 1.314 . S
C124 C129 1.353 . S
C124 H130 0.930 . S
N125 Li108 1.990 . S
N125 C124 1.314 . S
N125 C127 1.279 . S
C126 C127 1.358 . S
C126 C128 1.356 . S
C126 H180 0.930 . S
C127 N125 1.279 . S
C127 C126 1.358 . S
C127 H131 0.930 . S
C128 C126 1.356 . S
C128 C129 1.348 . S
C129 C124 1.353 . S
C129 C128 1.348 . S
C129 H181 0.929 . S
H130 C124 0.930 . S
H131 C127 0.930 . S
C132 N133 1.314 . S
C132 C134 1.353 . S
C132 H138 0.930 . S
N133 Li109 1.990 . S
N133 C132 1.314 . S
N133 C136 1.279 . S
C134 C132 1.353 . S
C134 C137 1.348 . S
C134 H182 0.929 . S
C135 C136 1.358 . S
C135 C137 1.356 . S
C135 H183 0.930 . S
C136 N133 1.279 . S
C136 C135 1.358 . S
C136 H139 0.930 . S
C137 C134 1.348 . S
C137 C135 1.356 . S
H138 C132 0.930 . S
H139 C136 0.930 . S
C140 C142 1.348 . S
C140 C143 1.356 . S
C140 O170 1.325 . S
N141 C144 1.314 . S
N141 C145 1.279 . S
C142 C140 1.348 . S
C142 C144 1.353 . S
C142 H184 0.929 . S
C143 C140 1.356 . S
C143 C145 1.358 . S
C143 H185 0.930 . S
C144 N141 1.314 . S
C144 C142 1.353 . S
C144 H186 0.930 . S
C145 N141 1.279 . S
C145 C143 1.358 . S
C145 H187 0.930 . S
C146 C147 1.348 . S
C146 C148 1.356 . S
C146 O171 1.325 . S
C147 C146 1.348 . S
C147 C149 1.353 . S
C147 H188 0.929 . S
C148 C146 1.356 . S
C148 C150 1.358 . S
C148 H189 0.930 . S
C149 C147 1.353 . S
C149 N151 1.314 . S
C149 H190 0.930 . S
C150 C148 1.358 . S
C150 N151 1.279 . S
C150 H191 0.930 . S
N151 C149 1.314 . S
N151 C150 1.279 . S
C152 C154 1.353 . S
C152 N155 1.314 . S
C152 H158 0.930 . S
C153 N155 1.279 . S
C153 C156 1.358 . S
C153 H159 0.930 . S
C154 C152 1.353 . S
C154 C157 1.348 . S
C154 H192 0.929 . S
N155 Li110 1.990 . S
N155 C152 1.314 . S
N155 C153 1.279 . S
C156 C153 1.358 . S
C156 C157 1.356 . S
C156 H193 0.930 . S
C157 C154 1.348 . S
C157 C156 1.356 . S
H158 C152 0.930 . S
H159 C153 0.930 . S
C160 N161 1.314 . S
C160 C162 1.353 . S
C160 H166 0.930 . S
N161 Li111 1.990 . S
N161 C160 1.314 . S
N161 C164 1.279 . S
C162 C160 1.353 . S
C162 C165 1.348 . S
C162 H194 0.929 . S
C163 C164 1.358 . S
C163 C165 1.356 . S
C163 H195 0.930 . S
C164 N161 1.279 . S
C164 C163 1.358 . S
C164 H167 0.930 . S
C165 C162 1.348 . S
C165 C163 1.356 . S
H166 C160 0.930 . S
H167 C164 0.930 . S
O168 Li108 1.956 . S
O168 Li109 1.970 . S
O168 Li110 1.961 . S
O168 C112 1.325 . S
O169 Li108 1.970 . S
O169 Li109 1.956 . S
O169 Li111 1.961 . S
O169 C118 1.325 . S
O170 Li108 1.961 . S
O170 Li110 1.956 . S
O170 Li111 1.970 . S
O170 C140 1.325 . S
O171 Li109 1.961 . S
O171 Li110 1.970 . S
O171 Li111 1.956 . S
O171 C146 1.325 . S
H172 C114 0.929 . S
H173 C115 0.930 . S
H174 C116 0.930 . S
H175 C117 0.930 . S
H176 C119 0.930 . S
H177 C121 0.929 . S
H178 C122 0.930 . S
H179 C123 0.930 . S
H180 C126 0.930 . S
H181 C129 0.929 . S
H182 C134 0.929 . S
H183 C135 0.930 . S
H184 C142 0.929 . S
H185 C143 0.930 . S
H186 C144 0.930 . S
H187 C145 0.930 . S
H188 C147 0.929 . S
H189 C148 0.930 . S
H190 C149 0.930 . S
H191 C150 0.930 . S
H192 C154 0.929 . S
H193 C156 0.930 . S
H194 C162 0.929 . S
H195 C163 0.930 . S
Li196 N213 1.990 . S
Li196 O256 1.956 . S
Li196 O257 1.970 . S
Li196 O258 1.961 . S
Li197 N221 1.990 . S
Li197 O256 1.970 . S
Li197 O257 1.956 . S
Li197 O259 1.961 . S
Li198 N243 1.990 . S
Li198 O256 1.961 . S
Li198 O258 1.956 . S
Li198 O259 1.970 . S
Li199 N249 1.990 . S
Li199 O257 1.961 . S
Li199 O258 1.970 . S
Li199 O259 1.956 . S
C200 C202 1.348 . S
C200 C203 1.356 . S
C200 O256 1.325 . S
N201 C204 1.314 . S
N201 C205 1.279 . S
C202 C200 1.348 . S
C202 C204 1.353 . S
C202 H260 0.929 . S
C203 C200 1.356 . S
C203 C205 1.358 . S
C203 H261 0.930 . S
C204 N201 1.314 . S
C204 C202 1.353 . S
C204 H262 0.930 . S
C205 N201 1.279 . S
C205 C203 1.358 . S
C205 H263 0.930 . S
C206 C209 1.348 . S
C206 C210 1.356 . S
C206 O257 1.325 . S
C207 N208 1.279 . S
C207 C210 1.358 . S
C207 H264 0.930 . S
N208 C207 1.279 . S
N208 C211 1.314 . S
C209 C206 1.348 . S
C209 C211 1.353 . S
C209 H265 0.929 . S
C210 C206 1.356 . S
C210 C207 1.358 . S
C210 H266 0.930 . S
C211 N208 1.314 . S
C211 C209 1.353 . S
C211 H267 0.930 . S
C212 N213 1.314 . S
C212 C217 1.353 . S
C212 H218 0.930 . S
N213 Li196 1.990 . S
N213 C212 1.314 . S
N213 C215 1.279 . S
C214 C215 1.358 . S
C214 C216 1.356 . S
C214 H268 0.930 . S
C215 N213 1.279 . S
C215 C214 1.358 . S
C215 H219 0.930 . S
C216 C214 1.356 . S
C216 C217 1.348 . S
C217 C212 1.353 . S
C217 C216 1.348 . S
C217 H269 0.929 . S
H218 C212 0.930 . S
H219 C215 0.930 . S
C220 N221 1.314 . S
C220 C222 1.353 . S
C220 H226 0.930 . S
N221 Li197 1.990 . S
N221 C220 1.314 . S
N221 C224 1.279 . S
C222 C220 1.353 . S
C222 C225 1.348 . S
C222 H270 0.929 . S
C223 C224 1.358 . S
C223 C225 1.356 . S
C223 H271 0.930 . S
C224 N221 1.279 . S
C224 C223 1.358 . S
C224 H227 0.930 . S
C225 C222 1.348 . S
C225 C223 1.356 . S
H226 C220 0.930 . S
H227 C224 0.930 . S
C228 C230 1.348 . S
C228 C231 1.356 . S
C228 O258 1.325 . S
N229 C232 1.314 . S
N229 C233 1.279 . S
C230 C228 1.348 . S
C230 C232 1.353 . S
C230 H272 0.929 . S
C231 C228 1.356 . S
C231 C233 1.358 . S
C231 H273 0.930 . S
C232 N229 1.314 . S
C232 C230 1.353 . S
C232 H274 0.930 . S
C233 N229 1.279 . S
C233 C231 1.358 . S
C233 H275 0.930 . S
C234 C235 1.348 . S
C234 C236 1.356 . S
C234 O259 1.325 . S
C235 C234 1.348 . S
C235 C237 1.353 . S
C235 H276 0.929 . S
C236 C234 1.356 . S
C236 C238 1.358 . S
C236 H277 0.930 . S
C237 C235 1.353 . S
C237 N239 1.314 . S
C237 H278 0.930 . S
C238 C236 1.358 . S
C238 N239 1.279 . S
C238 H279 0.930 . S
N239 C237 1.314 . S
N239 C238 1.279 . S
C240 C242 1.353 . S
C240 N243 1.314 . S
C240 H246 0.930 . S
C241 N243 1.279 . S
C241 C244 1.358 . S
C241 H247 0.930 . S
C242 C240 1.353 . S
C242 C245 1.348 . S
C242 H280 0.929 . S
N243 Li198 1.990 . S
N243 C240 1.314 . S
N243 C241 1.279 . S
C244 C241 1.358 . S
C244 C245 1.356 . S
C244 H281 0.930 . S
C245 C242 1.348 . S
C245 C244 1.356 . S
H246 C240 0.930 . S
H247 C241 0.930 . S
C248 N249 1.314 . S
C248 C250 1.353 . S
C248 H254 0.930 . S
N249 Li199 1.990 . S
N249 C248 1.314 . S
N249 C252 1.279 . S
C250 C248 1.353 . S
C250 C253 1.348 . S
C250 H282 0.929 . S
C251 C252 1.358 . S
C251 C253 1.356 . S
C251 H283 0.930 . S
C252 N249 1.279 . S
C252 C251 1.358 . S
C252 H255 0.930 . S
C253 C250 1.348 . S
C253 C251 1.356 . S
H254 C248 0.930 . S
H255 C252 0.930 . S
O256 Li196 1.956 . S
O256 Li197 1.970 . S
O256 Li198 1.961 . S
O256 C200 1.325 . S
O257 Li196 1.970 . S
O257 Li197 1.956 . S
O257 Li199 1.961 . S
O257 C206 1.325 . S
O258 Li196 1.961 . S
O258 Li198 1.956 . S
O258 Li199 1.970 . S
O258 C228 1.325 . S
O259 Li197 1.961 . S
O259 Li198 1.970 . S
O259 Li199 1.956 . S
O259 C234 1.325 . S
H260 C202 0.929 . S
H261 C203 0.930 . S
H262 C204 0.930 . S
H263 C205 0.930 . S
H264 C207 0.930 . S
H265 C209 0.929 . S
H266 C210 0.930 . S
H267 C211 0.930 . S
H268 C214 0.930 . S
H269 C217 0.929 . S
H270 C222 0.929 . S
H271 C223 0.930 . S
H272 C230 0.929 . S
H273 C231 0.930 . S
H274 C232 0.930 . S
H275 C233 0.930 . S
H276 C235 0.929 . S
H277 C236 0.930 . S
H278 C237 0.930 . S
H279 C238 0.930 . S
H280 C242 0.929 . S
H281 C244 0.930 . S
H282 C250 0.929 . S
H283 C251 0.930 . S
Li284 N301 1.990 . S
Li284 O344 1.956 . S
Li284 O345 1.970 . S
Li284 O346 1.961 . S
Li285 N309 1.990 . S
Li285 O344 1.970 . S
Li285 O345 1.956 . S
Li285 O347 1.961 . S
Li286 N331 1.990 . S
Li286 O344 1.961 . S
Li286 O346 1.956 . S
Li286 O347 1.970 . S
Li287 N337 1.990 . S
Li287 O345 1.961 . S
Li287 O346 1.970 . S
Li287 O347 1.956 . S
C288 C290 1.348 . S
C288 C291 1.356 . S
C288 O344 1.325 . S
N289 C292 1.314 . S
N289 C293 1.279 . S
C290 C288 1.348 . S
C290 C292 1.353 . S
C290 H348 0.929 . S
C291 C288 1.356 . S
C291 C293 1.358 . S
C291 H349 0.930 . S
C292 N289 1.314 . S
C292 C290 1.353 . S
C292 H350 0.930 . S
C293 N289 1.279 . S
C293 C291 1.358 . S
C293 H351 0.930 . S
C294 C297 1.348 . S
C294 C298 1.356 . S
C294 O345 1.325 . S
C295 N296 1.279 . S
C295 C298 1.358 . S
C295 H352 0.930 . S
N296 C295 1.279 . S
N296 C299 1.314 . S
C297 C294 1.348 . S
C297 C299 1.353 . S
C297 H353 0.929 . S
C298 C294 1.356 . S
C298 C295 1.358 . S
C298 H354 0.930 . S
C299 N296 1.314 . S
C299 C297 1.353 . S
C299 H355 0.930 . S
C300 N301 1.314 . S
C300 C305 1.353 . S
C300 H306 0.930 . S
N301 Li284 1.990 . S
N301 C300 1.314 . S
N301 C303 1.279 . S
C302 C303 1.358 . S
C302 C304 1.356 . S
C302 H356 0.930 . S
C303 N301 1.279 . S
C303 C302 1.358 . S
C303 H307 0.930 . S
C304 C302 1.356 . S
C304 C305 1.348 . S
C305 C300 1.353 . S
C305 C304 1.348 . S
C305 H357 0.929 . S
H306 C300 0.930 . S
H307 C303 0.930 . S
C308 N309 1.314 . S
C308 C310 1.353 . S
C308 H314 0.930 . S
N309 Li285 1.990 . S
N309 C308 1.314 . S
N309 C312 1.279 . S
C310 C308 1.353 . S
C310 C313 1.348 . S
C310 H358 0.929 . S
C311 C312 1.358 . S
C311 C313 1.356 . S
C311 H359 0.930 . S
C312 N309 1.279 . S
C312 C311 1.358 . S
C312 H315 0.930 . S
C313 C310 1.348 . S
C313 C311 1.356 . S
H314 C308 0.930 . S
H315 C312 0.930 . S
C316 C318 1.348 . S
C316 C319 1.356 . S
C316 O346 1.325 . S
N317 C320 1.314 . S
N317 C321 1.279 . S
C318 C316 1.348 . S
C318 C320 1.353 . S
C318 H360 0.929 . S
C319 C316 1.356 . S
C319 C321 1.358 . S
C319 H361 0.930 . S
C320 N317 1.314 . S
C320 C318 1.353 . S
C320 H362 0.930 . S
C321 N317 1.279 . S
C321 C319 1.358 . S
C321 H363 0.930 . S
C322 C323 1.348 . S
C322 C324 1.356 . S
C322 O347 1.325 . S
C323 C322 1.348 . S
C323 C325 1.353 . S
C323 H364 0.929 . S
C324 C322 1.356 . S
C324 C326 1.358 . S
C324 H365 0.930 . S
C325 C323 1.353 . S
C325 N327 1.314 . S
C325 H366 0.930 . S
C326 C324 1.358 . S
C326 N327 1.279 . S
C326 H367 0.930 . S
N327 C325 1.314 . S
N327 C326 1.279 . S
C328 C330 1.353 . S
C328 N331 1.314 . S
C328 H334 0.930 . S
C329 N331 1.279 . S
C329 C332 1.358 . S
C329 H335 0.930 . S
C330 C328 1.353 . S
C330 C333 1.348 . S
C330 H368 0.929 . S
N331 Li286 1.990 . S
N331 C328 1.314 . S
N331 C329 1.279 . S
C332 C329 1.358 . S
C332 C333 1.356 . S
C332 H369 0.930 . S
C333 C330 1.348 . S
C333 C332 1.356 . S
H334 C328 0.930 . S
H335 C329 0.930 . S
C336 N337 1.314 . S
C336 C338 1.353 . S
C336 H342 0.930 . S
N337 Li287 1.990 . S
N337 C336 1.314 . S
N337 C340 1.279 . S
C338 C336 1.353 . S
C338 C341 1.348 . S
C338 H370 0.929 . S
C339 C340 1.358 . S
C339 C341 1.356 . S
C339 H371 0.930 . S
C340 N337 1.279 . S
C340 C339 1.358 . S
C340 H343 0.930 . S
C341 C338 1.348 . S
C341 C339 1.356 . S
H342 C336 0.930 . S
H343 C340 0.930 . S
O344 Li284 1.956 . S
O344 Li285 1.970 . S
O344 Li286 1.961 . S
O344 C288 1.325 . S
O345 Li284 1.970 . S
O345 Li285 1.956 . S
O345 Li287 1.961 . S
O345 C294 1.325 . S
O346 Li284 1.961 . S
O346 Li286 1.956 . S
O346 Li287 1.970 . S
O346 C316 1.325 . S
O347 Li285 1.961 . S
O347 Li286 1.970 . S
O347 Li287 1.956 . S
O347 C322 1.325 . S
H348 C290 0.929 . S
H349 C291 0.930 . S
H350 C292 0.930 . S
H351 C293 0.930 . S
H352 C295 0.930 . S
H353 C297 0.929 . S
H354 C298 0.930 . S
H355 C299 0.930 . S
H356 C302 0.930 . S
H357 C305 0.929 . S
H358 C310 0.929 . S
H359 C311 0.930 . S
H360 C318 0.929 . S
H361 C319 0.930 . S
H362 C320 0.930 . S
H363 C321 0.930 . S
H364 C323 0.929 . S
H365 C324 0.930 . S
H366 C325 0.930 . S
H367 C326 0.930 . S
H368 C330 0.929 . S
H369 C332 0.930 . S
H370 C338 0.929 . S
H371 C339 0.930 . S
Li372 N389 1.990 . S
Li372 O432 1.956 . S
Li372 O433 1.970 . S
Li372 O434 1.961 . S
Li373 N397 1.990 . S
Li373 O432 1.970 . S
Li373 O433 1.956 . S
Li373 O435 1.961 . S
Li374 N419 1.990 . S
Li374 O432 1.961 . S
Li374 O434 1.956 . S
Li374 O435 1.970 . S
Li375 N425 1.990 . S
Li375 O433 1.961 . S
Li375 O434 1.970 . S
Li375 O435 1.956 . S
C376 C378 1.348 . S
C376 C379 1.356 . S
C376 O432 1.325 . S
N377 C380 1.314 . S
N377 C381 1.279 . S
C378 C376 1.348 . S
C378 C380 1.353 . S
C378 H436 0.929 . S
C379 C376 1.356 . S
C379 C381 1.358 . S
C379 H437 0.930 . S
C380 N377 1.314 . S
C380 C378 1.353 . S
C380 H438 0.930 . S
C381 N377 1.279 . S
C381 C379 1.358 . S
C381 H439 0.930 . S
C382 C385 1.348 . S
C382 C386 1.356 . S
C382 O433 1.325 . S
C383 N384 1.279 . S
C383 C386 1.358 . S
C383 H440 0.930 . S
N384 C383 1.279 . S
N384 C387 1.314 . S
C385 C382 1.348 . S
C385 C387 1.353 . S
C385 H441 0.929 . S
C386 C382 1.356 . S
C386 C383 1.358 . S
C386 H442 0.930 . S
C387 N384 1.314 . S
C387 C385 1.353 . S
C387 H443 0.930 . S
C388 N389 1.314 . S
C388 C393 1.353 . S
C388 H394 0.930 . S
N389 Li372 1.990 . S
N389 C388 1.314 . S
N389 C391 1.279 . S
C390 C391 1.358 . S
C390 C392 1.356 . S
C390 H444 0.930 . S
C391 N389 1.279 . S
C391 C390 1.358 . S
C391 H395 0.930 . S
C392 C390 1.356 . S
C392 C393 1.348 . S
C393 C388 1.353 . S
C393 C392 1.348 . S
C393 H445 0.929 . S
H394 C388 0.930 . S
H395 C391 0.930 . S
C396 N397 1.314 . S
C396 C398 1.353 . S
C396 H402 0.930 . S
N397 Li373 1.990 . S
N397 C396 1.314 . S
N397 C400 1.279 . S
C398 C396 1.353 . S
C398 C401 1.348 . S
C398 H446 0.929 . S
C399 C400 1.358 . S
C399 C401 1.356 . S
C399 H447 0.930 . S
C400 N397 1.279 . S
C400 C399 1.358 . S
C400 H403 0.930 . S
C401 C398 1.348 . S
C401 C399 1.356 . S
H402 C396 0.930 . S
H403 C400 0.930 . S
C404 C406 1.348 . S
C404 C407 1.356 . S
C404 O434 1.325 . S
N405 C408 1.314 . S
N405 C409 1.279 . S
C406 C404 1.348 . S
C406 C408 1.353 . S
C406 H448 0.929 . S
C407 C404 1.356 . S
C407 C409 1.358 . S
C407 H449 0.930 . S
C408 N405 1.314 . S
C408 C406 1.353 . S
C408 H450 0.930 . S
C409 N405 1.279 . S
C409 C407 1.358 . S
C409 H451 0.930 . S
C410 C411 1.348 . S
C410 C412 1.356 . S
C410 O435 1.325 . S
C411 C410 1.348 . S
C411 C413 1.353 . S
C411 H452 0.929 . S
C412 C410 1.356 . S
C412 C414 1.358 . S
C412 H453 0.930 . S
C413 C411 1.353 . S
C413 N415 1.314 . S
C413 H454 0.930 . S
C414 C412 1.358 . S
C414 N415 1.279 . S
C414 H455 0.930 . S
N415 C413 1.314 . S
N415 C414 1.279 . S
C416 C418 1.353 . S
C416 N419 1.314 . S
C416 H422 0.930 . S
C417 N419 1.279 . S
C417 C420 1.358 . S
C417 H423 0.930 . S
C418 C416 1.353 . S
C418 C421 1.348 . S
C418 H456 0.929 . S
N419 Li374 1.990 . S
N419 C416 1.314 . S
N419 C417 1.279 . S
C420 C417 1.358 . S
C420 C421 1.356 . S
C420 H457 0.930 . S
C421 C418 1.348 . S
C421 C420 1.356 . S
H422 C416 0.930 . S
H423 C417 0.930 . S
C424 N425 1.314 . S
C424 C426 1.353 . S
C424 H430 0.930 . S
N425 Li375 1.990 . S
N425 C424 1.314 . S
N425 C428 1.279 . S
C426 C424 1.353 . S
C426 C429 1.348 . S
C426 H458 0.929 . S
C427 C428 1.358 . S
C427 C429 1.356 . S
C427 H459 0.930 . S
C428 N425 1.279 . S
C428 C427 1.358 . S
C428 H431 0.930 . S
C429 C426 1.348 . S
C429 C427 1.356 . S
H430 C424 0.930 . S
H431 C428 0.930 . S
O432 Li372 1.956 . S
O432 Li373 1.970 . S
O432 Li374 1.961 . S
O432 C376 1.325 . S
O433 Li372 1.970 . S
O433 Li373 1.956 . S
O433 Li375 1.961 . S
O433 C382 1.325 . S
O434 Li372 1.961 . S
O434 Li374 1.956 . S
O434 Li375 1.970 . S
O434 C404 1.325 . S
O435 Li373 1.961 . S
O435 Li374 1.970 . S
O435 Li375 1.956 . S
O435 C410 1.325 . S
H436 C378 0.929 . S
H437 C379 0.930 . S
H438 C380 0.930 . S
H439 C381 0.930 . S
H440 C383 0.930 . S
H441 C385 0.929 . S
H442 C386 0.930 . S
H443 C387 0.930 . S
H444 C390 0.930 . S
H445 C393 0.929 . S
H446 C398 0.929 . S
H447 C399 0.930 . S
H448 C406 0.929 . S
H449 C407 0.930 . S
H450 C408 0.930 . S
H451 C409 0.930 . S
H452 C411 0.929 . S
H453 C412 0.930 . S
H454 C413 0.930 . S
H455 C414 0.930 . S
H456 C418 0.929 . S
H457 C420 0.930 . S
H458 C426 0.929 . S
H459 C427 0.930 . S
Li460 N477 1.990 . S
Li460 O520 1.956 . S
Li460 O521 1.970 . S
Li460 O522 1.961 . S
Li461 N485 1.990 . S
Li461 O520 1.970 . S
Li461 O521 1.956 . S
Li461 O523 1.961 . S
Li462 N507 1.990 . S
Li462 O520 1.961 . S
Li462 O522 1.956 . S
Li462 O523 1.970 . S
Li463 N513 1.990 . S
Li463 O521 1.961 . S
Li463 O522 1.970 . S
Li463 O523 1.956 . S
C464 C466 1.348 . S
C464 C467 1.356 . S
C464 O520 1.325 . S
N465 C468 1.314 . S
N465 C469 1.279 . S
C466 C464 1.348 . S
C466 C468 1.353 . S
C466 H524 0.929 . S
C467 C464 1.356 . S
C467 C469 1.358 . S
C467 H525 0.930 . S
C468 N465 1.314 . S
C468 C466 1.353 . S
C468 H526 0.930 . S
C469 N465 1.279 . S
C469 C467 1.358 . S
C469 H527 0.930 . S
C470 C473 1.348 . S
C470 C474 1.356 . S
C470 O521 1.325 . S
C471 N472 1.279 . S
C471 C474 1.358 . S
C471 H528 0.930 . S
N472 C471 1.279 . S
N472 C475 1.314 . S
C473 C470 1.348 . S
C473 C475 1.353 . S
C473 H529 0.929 . S
C474 C470 1.356 . S
C474 C471 1.358 . S
C474 H530 0.930 . S
C475 N472 1.314 . S
C475 C473 1.353 . S
C475 H531 0.930 . S
C476 N477 1.314 . S
C476 C481 1.353 . S
C476 H482 0.930 . S
N477 Li460 1.990 . S
N477 C476 1.314 . S
N477 C479 1.279 . S
C478 C479 1.358 . S
C478 C480 1.356 . S
C478 H532 0.930 . S
C479 N477 1.279 . S
C479 C478 1.358 . S
C479 H483 0.930 . S
C480 C478 1.356 . S
C480 C481 1.348 . S
C481 C476 1.353 . S
C481 C480 1.348 . S
C481 H533 0.929 . S
H482 C476 0.930 . S
H483 C479 0.930 . S
C484 N485 1.314 . S
C484 C486 1.353 . S
C484 H490 0.930 . S
N485 Li461 1.990 . S
N485 C484 1.314 . S
N485 C488 1.279 . S
C486 C484 1.353 . S
C486 C489 1.348 . S
C486 H534 0.929 . S
C487 C488 1.358 . S
C487 C489 1.356 . S
C487 H535 0.930 . S
C488 N485 1.279 . S
C488 C487 1.358 . S
C488 H491 0.930 . S
C489 C486 1.348 . S
C489 C487 1.356 . S
H490 C484 0.930 . S
H491 C488 0.930 . S
C492 C494 1.348 . S
C492 C495 1.356 . S
C492 O522 1.325 . S
N493 C496 1.314 . S
N493 C497 1.279 . S
C494 C492 1.348 . S
C494 C496 1.353 . S
C494 H536 0.929 . S
C495 C492 1.356 . S
C495 C497 1.358 . S
C495 H537 0.930 . S
C496 N493 1.314 . S
C496 C494 1.353 . S
C496 H538 0.930 . S
C497 N493 1.279 . S
C497 C495 1.358 . S
C497 H539 0.930 . S
C498 C499 1.348 . S
C498 C500 1.356 . S
C498 O523 1.325 . S
C499 C498 1.348 . S
C499 C501 1.353 . S
C499 H540 0.929 . S
C500 C498 1.356 . S
C500 C502 1.358 . S
C500 H541 0.930 . S
C501 C499 1.353 . S
C501 N503 1.314 . S
C501 H542 0.930 . S
C502 C500 1.358 . S
C502 N503 1.279 . S
C502 H543 0.930 . S
N503 C501 1.314 . S
N503 C502 1.279 . S
C504 C506 1.353 . S
C504 N507 1.314 . S
C504 H510 0.930 . S
C505 N507 1.279 . S
C505 C508 1.358 . S
C505 H511 0.930 . S
C506 C504 1.353 . S
C506 C509 1.348 . S
C506 H544 0.929 . S
N507 Li462 1.990 . S
N507 C504 1.314 . S
N507 C505 1.279 . S
C508 C505 1.358 . S
C508 C509 1.356 . S
C508 H545 0.930 1_554 S
C509 C506 1.348 . S
C509 C508 1.356 . S
H510 C504 0.930 . S
H511 C505 0.930 . S
C512 N513 1.314 . S
C512 C514 1.353 . S
C512 H518 0.930 . S
N513 Li463 1.990 . S
N513 C512 1.314 . S
N513 C516 1.279 . S
C514 C512 1.353 . S
C514 C517 1.348 . S
C514 H546 0.929 . S
C515 C516 1.358 . S
C515 C517 1.356 . S
C515 H547 0.930 . S
C516 N513 1.279 . S
C516 C515 1.358 . S
C516 H519 0.930 . S
C517 C514 1.348 . S
C517 C515 1.356 . S
H518 C512 0.930 . S
H519 C516 0.930 . S
O520 Li460 1.956 . S
O520 Li461 1.970 . S
O520 Li462 1.961 . S
O520 C464 1.325 . S
O521 Li460 1.970 . S
O521 Li461 1.956 . S
O521 Li463 1.961 . S
O521 C470 1.325 . S
O522 Li460 1.961 . S
O522 Li462 1.956 . S
O522 Li463 1.970 . S
O522 C492 1.325 . S
O523 Li461 1.961 . S
O523 Li462 1.970 . S
O523 Li463 1.956 . S
O523 C498 1.325 . S
H524 C466 0.929 . S
H525 C467 0.930 . S
H526 C468 0.930 . S
H527 C469 0.930 . S
H528 C471 0.930 . S
H529 C473 0.929 . S
H530 C474 0.930 . S
H531 C475 0.930 . S
H532 C478 0.930 . S
H533 C481 0.929 . S
H534 C486 0.929 . S
H535 C487 0.930 . S
H536 C494 0.929 . S
H537 C495 0.930 . S
H538 C496 0.930 . S
H539 C497 0.930 . S
H540 C499 0.929 . S
H541 C500 0.930 . S
H542 C501 0.930 . S
H543 C502 0.930 . S
H544 C506 0.929 . S
H545 C508 0.930 1_556 S
H546 C514 0.929 . S
H547 C515 0.930 . S
Li548 N565 1.990 . S
Li548 O608 1.956 . S
Li548 O609 1.970 . S
Li548 O610 1.961 . S
Li549 N573 1.990 . S
Li549 O608 1.970 . S
Li549 O609 1.956 . S
Li549 O611 1.961 . S
Li550 N595 1.990 . S
Li550 O608 1.961 . S
Li550 O610 1.956 . S
Li550 O611 1.970 . S
Li551 N601 1.990 . S
Li551 O609 1.961 . S
Li551 O610 1.970 . S
Li551 O611 1.956 . S
C552 C554 1.348 . S
C552 C555 1.356 . S
C552 O608 1.325 . S
N553 C556 1.314 . S
N553 C557 1.279 . S
C554 C552 1.348 . S
C554 C556 1.353 . S
C554 H612 0.929 . S
C555 C552 1.356 . S
C555 C557 1.358 . S
C555 H613 0.930 . S
C556 N553 1.314 . S
C556 C554 1.353 . S
C556 H614 0.930 . S
C557 N553 1.279 . S
C557 C555 1.358 . S
C557 H615 0.930 . S
C558 C561 1.348 . S
C558 C562 1.356 . S
C558 O609 1.325 . S
C559 N560 1.279 . S
C559 C562 1.358 . S
C559 H616 0.930 . S
N560 C559 1.279 . S
N560 C563 1.314 . S
C561 C558 1.348 . S
C561 C563 1.353 . S
C561 H617 0.929 . S
C562 C558 1.356 . S
C562 C559 1.358 . S
C562 H618 0.930 . S
C563 N560 1.314 . S
C563 C561 1.353 . S
C563 H619 0.930 . S
C564 N565 1.314 . S
C564 C569 1.353 . S
C564 H570 0.930 . S
N565 Li548 1.990 . S
N565 C564 1.314 . S
N565 C567 1.279 . S
C566 C567 1.358 . S
C566 C568 1.356 . S
C566 H620 0.930 . S
C567 N565 1.279 . S
C567 C566 1.358 . S
C567 H571 0.930 . S
C568 C566 1.356 . S
C568 C569 1.348 . S
C569 C564 1.353 . S
C569 C568 1.348 . S
C569 H621 0.929 . S
H570 C564 0.930 . S
H571 C567 0.930 . S
C572 N573 1.314 . S
C572 C574 1.353 . S
C572 H578 0.930 . S
N573 Li549 1.990 . S
N573 C572 1.314 . S
N573 C576 1.279 . S
C574 C572 1.353 . S
C574 C577 1.348 . S
C574 H622 0.929 . S
C575 C576 1.358 . S
C575 C577 1.356 . S
C575 H623 0.930 . S
C576 N573 1.279 . S
C576 C575 1.358 . S
C576 H579 0.930 . S
C577 C574 1.348 . S
C577 C575 1.356 . S
H578 C572 0.930 . S
H579 C576 0.930 . S
C580 C582 1.348 . S
C580 C583 1.356 . S
C580 O610 1.325 . S
N581 C584 1.314 . S
N581 C585 1.279 . S
C582 C580 1.348 . S
C582 C584 1.353 . S
C582 H624 0.929 . S
C583 C580 1.356 . S
C583 C585 1.358 . S
C583 H625 0.930 . S
C584 N581 1.314 . S
C584 C582 1.353 . S
C584 H626 0.930 . S
C585 N581 1.279 . S
C585 C583 1.358 . S
C585 H627 0.930 . S
C586 C587 1.348 . S
C586 C588 1.356 . S
C586 O611 1.325 . S
C587 C586 1.348 . S
C587 C589 1.353 . S
C587 H628 0.929 . S
C588 C586 1.356 . S
C588 C590 1.358 . S
C588 H629 0.930 . S
C589 C587 1.353 . S
C589 N591 1.314 . S
C589 H630 0.930 . S
C590 C588 1.358 . S
C590 N591 1.279 . S
C590 H631 0.930 . S
N591 C589 1.314 . S
N591 C590 1.279 . S
C592 C594 1.353 . S
C592 N595 1.314 . S
C592 H598 0.930 . S
C593 N595 1.279 . S
C593 C596 1.358 . S
C593 H599 0.930 . S
C594 C592 1.353 . S
C594 C597 1.348 . S
C594 H632 0.929 . S
N595 Li550 1.990 . S
N595 C592 1.314 . S
N595 C593 1.279 . S
C596 C593 1.358 . S
C596 C597 1.356 . S
C596 H633 0.930 . S
C597 C594 1.348 . S
C597 C596 1.356 . S
H598 C592 0.930 . S
H599 C593 0.930 . S
C600 N601 1.314 . S
C600 C602 1.353 . S
C600 H606 0.930 . S
N601 Li551 1.990 . S
N601 C600 1.314 . S
N601 C604 1.279 . S
C602 C600 1.353 . S
C602 C605 1.348 . S
C602 H634 0.929 . S
C603 C604 1.358 . S
C603 C605 1.356 . S
C603 H635 0.930 . S
C604 N601 1.279 . S
C604 C603 1.358 . S
C604 H607 0.930 . S
C605 C602 1.348 . S
C605 C603 1.356 . S
H606 C600 0.930 . S
H607 C604 0.930 . S
O608 Li548 1.956 . S
O608 Li549 1.970 . S
O608 Li550 1.961 . S
O608 C552 1.325 . S
O609 Li548 1.970 . S
O609 Li549 1.956 . S
O609 Li551 1.961 . S
O609 C558 1.325 . S
O610 Li548 1.961 . S
O610 Li550 1.956 . S
O610 Li551 1.970 . S
O610 C580 1.325 . S
O611 Li549 1.961 . S
O611 Li550 1.970 . S
O611 Li551 1.956 . S
O611 C586 1.325 . S
H612 C554 0.929 . S
H613 C555 0.930 . S
H614 C556 0.930 . S
H615 C557 0.930 . S
H616 C559 0.930 . S
H617 C561 0.929 . S
H618 C562 0.930 . S
H619 C563 0.930 . S
H620 C566 0.930 . S
H621 C569 0.929 . S
H622 C574 0.929 . S
H623 C575 0.930 . S
H624 C582 0.929 . S
H625 C583 0.930 . S
H626 C584 0.930 . S
H627 C585 0.930 . S
H628 C587 0.929 . S
H629 C588 0.930 . S
H630 C589 0.930 . S
H631 C590 0.930 . S
H632 C594 0.929 . S
H633 C596 0.930 . S
H634 C602 0.929 . S
H635 C603 0.930 . S
H636 C644 0.929 . S
H637 C646 0.930 . S
H638 C648 0.930 . S
H639 C651 0.929 . S
H640 C654 0.930 . S
H641 C656 0.960 . S
H642 C656 0.960 . S
H643 C656 0.960 . S
C644 H636 0.929 . S
C644 C645 1.377 . S
C644 C646 1.384 . S
C645 C644 1.377 . S
C645 C651 1.390 . S
C646 H637 0.930 . S
C646 C644 1.384 . S
C646 C647 1.372 . S
C647 C646 1.372 . S
C647 C648 1.400 . S
C647 C652 1.490 . S
C648 H638 0.930 . S
C648 C647 1.400 . S
C648 C651 1.386 . S
H649 C665 0.930 . S
H650 C666 0.931 . S
C651 H639 0.929 . S
C651 C645 1.390 . S
C651 C648 1.386 . S
C652 C647 1.490 . S
C652 C654 1.395 . S
C652 C655 1.403 . S
H653 C659 0.930 . S
C654 H640 0.930 . S
C654 C652 1.395 . S
C654 C657 1.403 . S
C655 C652 1.403 . S
C655 C656 1.524 . S
C655 C659 1.400 . S
C656 H641 0.960 . S
C656 H642 0.960 . S
C656 H643 0.960 . S
C656 C655 1.524 . S
C657 C654 1.403 . S
C657 C658 1.392 . S
C657 C661 1.495 . S
C658 C657 1.392 . S
C658 C659 1.385 . S
C658 C660 1.478 . S
C659 H653 0.930 . S
C659 C655 1.400 . S
C659 C658 1.385 . S
C660 C658 1.478 . S
C660 C662 1.381 . S
C660 C666 1.383 . S
C661 C657 1.495 . S
C661 H667 0.959 . S
C661 H668 0.961 . S
C661 H669 0.960 . S
C662 C660 1.381 . S
C662 C663 1.394 . S
C662 H670 0.930 . S
C663 C662 1.394 . S
C663 C664 1.383 . S
C663 H671 0.929 . S
C664 C663 1.383 . S
C664 C665 1.377 . S
C665 H649 0.930 . S
C665 C664 1.377 . S
C665 C666 1.379 . S
C666 H650 0.931 . S
C666 C660 1.383 . S
C666 C665 1.379 . S
H667 C661 0.959 . S
H668 C661 0.961 . S
H669 C661 0.960 . S
H670 C662 0.930 . S
H671 C663 0.929 . S
H672 C680 0.929 . S
H673 C682 0.930 . S
H674 C684 0.930 . S
H675 C687 0.929 . S
H676 C690 0.930 . S
H677 C692 0.960 . S
H678 C692 0.960 . S
H679 C692 0.960 . S
C680 H672 0.929 . S
C680 C681 1.377 . S
C680 C682 1.384 . S
C681 C680 1.377 . S
C681 C687 1.390 . S
C682 H673 0.930 . S
C682 C680 1.384 . S
C682 C683 1.372 . S
C683 C682 1.372 . S
C683 C684 1.400 . S
C683 C688 1.490 . S
C684 H674 0.930 . S
C684 C683 1.400 . S
C684 C687 1.386 . S
H685 C701 0.930 . S
H686 C702 0.931 . S
C687 H675 0.929 . S
C687 C681 1.390 . S
C687 C684 1.386 . S
C688 C683 1.490 . S
C688 C690 1.395 . S
C688 C691 1.403 . S
H689 C695 0.930 . S
C690 H676 0.930 . S
C690 C688 1.395 . S
C690 C693 1.403 . S
C691 C688 1.403 . S
C691 C692 1.524 . S
C691 C695 1.400 . S
C692 H677 0.960 . S
C692 H678 0.960 . S
C692 H679 0.960 . S
C692 C691 1.524 . S
C693 C690 1.403 . S
C693 C694 1.392 . S
C693 C697 1.495 . S
C694 C693 1.392 . S
C694 C695 1.385 . S
C694 C696 1.478 . S
C695 H689 0.930 . S
C695 C691 1.400 . S
C695 C694 1.385 . S
C696 C694 1.478 . S
C696 C698 1.381 . S
C696 C702 1.383 . S
C697 C693 1.495 . S
C697 H703 0.959 . S
C697 H704 0.961 . S
C697 H705 0.960 . S
C698 C696 1.381 . S
C698 C699 1.394 . S
C698 H706 0.930 . S
C699 C698 1.394 . S
C699 C700 1.383 . S
C699 H707 0.929 . S
C700 C699 1.383 . S
C700 C701 1.377 . S
C701 H685 0.930 . S
C701 C700 1.377 . S
C701 C702 1.379 . S
C702 H686 0.931 . S
C702 C696 1.383 . S
C702 C701 1.379 . S
H703 C697 0.959 . S
H704 C697 0.961 . S
H705 C697 0.960 . S
H706 C698 0.930 . S
H707 C699 0.929 . S
H708 C716 0.929 . S
H709 C718 0.930 . S
H710 C720 0.930 . S
H711 C723 0.929 . S
H712 C726 0.930 . S
H713 C728 0.960 . S
H714 C728 0.960 . S
H715 C728 0.960 . S
C716 H708 0.929 . S
C716 C717 1.377 . S
C716 C718 1.384 . S
C717 C716 1.377 . S
C717 C723 1.390 . S
C718 H709 0.930 . S
C718 C716 1.384 . S
C718 C719 1.372 . S
C719 C718 1.372 . S
C719 C720 1.400 . S
C719 C724 1.490 . S
C720 H710 0.930 . S
C720 C719 1.400 . S
C720 C723 1.386 . S
H721 C737 0.930 . S
H722 C738 0.931 . S
C723 H711 0.929 . S
C723 C717 1.390 . S
C723 C720 1.386 . S
C724 C719 1.490 . S
C724 C726 1.395 . S
C724 C727 1.403 . S
H725 C731 0.930 . S
C726 H712 0.930 . S
C726 C724 1.395 . S
C726 C729 1.403 . S
C727 C724 1.403 . S
C727 C728 1.524 . S
C727 C731 1.400 . S
C728 H713 0.960 . S
C728 H714 0.960 . S
C728 H715 0.960 . S
C728 C727 1.524 . S
C729 C726 1.403 . S
C729 C730 1.392 . S
C729 C733 1.495 . S
C730 C729 1.392 . S
C730 C731 1.385 . S
C730 C732 1.478 . S
C731 H725 0.930 . S
C731 C727 1.400 . S
C731 C730 1.385 . S
C732 C730 1.478 . S
C732 C734 1.381 . S
C732 C738 1.383 . S
C733 C729 1.495 . S
C733 H739 0.959 . S
C733 H740 0.961 . S
C733 H741 0.960 . S
C734 C732 1.381 . S
C734 C735 1.394 . S
C734 H742 0.930 . S
C735 C734 1.394 . S
C735 C736 1.383 . S
C735 H743 0.929 . S
C736 C735 1.383 . S
C736 C737 1.377 . S
C737 H721 0.930 . S
C737 C736 1.377 . S
C737 C738 1.379 . S
C738 H722 0.931 . S
C738 C732 1.383 . S
C738 C737 1.379 . S
H739 C733 0.959 . S
H740 C733 0.961 . S
H741 C733 0.960 . S
H742 C734 0.930 . S
H743 C735 0.929 . S
H744 C752 0.929 . S
H745 C754 0.930 . S
H746 C756 0.930 . S
H747 C759 0.929 . S
H748 C762 0.930 . S
H749 C764 0.960 . S
H750 C764 0.960 . S
H751 C764 0.960 . S
C752 H744 0.929 . S
C752 C753 1.377 . S
C752 C754 1.384 . S
C753 C752 1.377 . S
C753 C759 1.390 . S
C754 H745 0.930 . S
C754 C752 1.384 . S
C754 C755 1.372 . S
C755 C754 1.372 . S
C755 C756 1.400 . S
C755 C760 1.490 . S
C756 H746 0.930 . S
C756 C755 1.400 . S
C756 C759 1.386 . S
H757 C773 0.930 . S
H758 C774 0.931 . S
C759 H747 0.929 . S
C759 C753 1.390 . S
C759 C756 1.386 . S
C760 C755 1.490 . S
C760 C762 1.395 . S
C760 C763 1.403 . S
H761 C767 0.930 . S
C762 H748 0.930 . S
C762 C760 1.395 . S
C762 C765 1.403 . S
C763 C760 1.403 . S
C763 C764 1.524 . S
C763 C767 1.400 . S
C764 H749 0.960 . S
C764 H750 0.960 . S
C764 H751 0.960 . S
C764 C763 1.524 . S
C765 C762 1.403 . S
C765 C766 1.392 . S
C765 C769 1.495 . S
C766 C765 1.392 . S
C766 C767 1.385 . S
C766 C768 1.478 . S
C767 H761 0.930 . S
C767 C763 1.400 . S
C767 C766 1.385 . S
C768 C766 1.478 . S
C768 C770 1.381 . S
C768 C774 1.383 . S
C769 C765 1.495 . S
C769 H775 0.959 . S
C769 H776 0.961 . S
C769 H777 0.960 . S
C770 C768 1.381 . S
C770 C771 1.394 . S
C770 H778 0.930 . S
C771 C770 1.394 . S
C771 C772 1.383 . S
C771 H779 0.929 . S
C772 C771 1.383 . S
C772 C773 1.377 . S
C773 H757 0.930 . S
C773 C772 1.377 . S
C773 C774 1.379 . S
C774 H758 0.931 . S
C774 C768 1.383 . S
C774 C773 1.379 . S
H775 C769 0.959 . S
H776 C769 0.961 . S
H777 C769 0.960 . S
H778 C770 0.930 . S
H779 C771 0.929 . S
H780 C788 0.929 . S
H781 C790 0.930 . S
H782 C792 0.930 . S
H783 C795 0.929 . S
H784 C798 0.930 . S
H785 C800 0.960 . S
H786 C800 0.960 . S
H787 C800 0.960 . S
C788 H780 0.929 . S
C788 C789 1.377 . S
C788 C790 1.384 . S
C789 C788 1.377 . S
C789 C795 1.390 . S
C790 H781 0.930 . S
C790 C788 1.384 . S
C790 C791 1.372 . S
C791 C790 1.372 . S
C791 C792 1.400 . S
C791 C796 1.490 . S
C792 H782 0.930 . S
C792 C791 1.400 . S
C792 C795 1.386 . S
H793 C809 0.930 . S
H794 C810 0.931 . S
C795 H783 0.929 . S
C795 C789 1.390 . S
C795 C792 1.386 . S
C796 C791 1.490 . S
C796 C798 1.395 . S
C796 C799 1.403 . S
H797 C803 0.930 . S
C798 H784 0.930 . S
C798 C796 1.395 . S
C798 C801 1.403 . S
C799 C796 1.403 . S
C799 C800 1.524 . S
C799 C803 1.400 . S
C800 H785 0.960 . S
C800 H786 0.960 . S
C800 H787 0.960 . S
C800 C799 1.524 . S
C801 C798 1.403 . S
C801 C802 1.392 . S
C801 C805 1.495 . S
C802 C801 1.392 . S
C802 C803 1.385 . S
C802 C804 1.478 . S
C803 H797 0.930 . S
C803 C799 1.400 . S
C803 C802 1.385 . S
C804 C802 1.478 . S
C804 C806 1.381 . S
C804 C810 1.383 . S
C805 C801 1.495 . S
C805 H811 0.959 . S
C805 H812 0.961 . S
C805 H813 0.960 . S
C806 C804 1.381 . S
C806 C807 1.394 . S
C806 H814 0.930 . S
C807 C806 1.394 . S
C807 C808 1.383 . S
C807 H815 0.929 . S
C808 C807 1.383 . S
C808 C809 1.377 . S
C809 H793 0.930 . S
C809 C808 1.377 . S
C809 C810 1.379 . S
C810 H794 0.931 . S
C810 C804 1.383 . S
C810 C809 1.379 . S
H811 C805 0.959 . S
H812 C805 0.961 . S
H813 C805 0.960 . S
H814 C806 0.930 . S
H815 C807 0.929 . S
H816 C824 0.929 . S
H817 C826 0.930 . S
H818 C828 0.930 . S
H819 C831 0.929 . S
H820 C834 0.930 . S
H821 C836 0.960 . S
H822 C836 0.960 . S
H823 C836 0.960 . S
C824 H816 0.929 . S
C824 C825 1.377 . S
C824 C826 1.384 . S
C825 C824 1.377 . S
C825 C831 1.390 . S
C826 H817 0.930 . S
C826 C824 1.384 . S
C826 C827 1.372 . S
C827 C826 1.372 . S
C827 C828 1.400 . S
C827 C832 1.490 . S
C828 H818 0.930 . S
C828 C827 1.400 . S
C828 C831 1.386 . S
H829 C845 0.930 . S
H830 C846 0.931 . S
C831 H819 0.929 . S
C831 C825 1.390 . S
C831 C828 1.386 . S
C832 C827 1.490 . S
C832 C834 1.395 . S
C832 C835 1.403 . S
H833 C839 0.930 . S
C834 H820 0.930 . S
C834 C832 1.395 . S
C834 C837 1.403 . S
C835 C832 1.403 . S
C835 C836 1.524 . S
C835 C839 1.400 . S
C836 H821 0.960 . S
C836 H822 0.960 . S
C836 H823 0.960 . S
C836 C835 1.524 . S
C837 C834 1.403 . S
C837 C838 1.392 . S
C837 C841 1.495 . S
C838 C837 1.392 . S
C838 C839 1.385 . S
C838 C840 1.478 . S
C839 H833 0.930 . S
C839 C835 1.400 . S
C839 C838 1.385 . S
C840 C838 1.478 . S
C840 C842 1.381 . S
C840 C846 1.383 . S
C841 C837 1.495 . S
C841 H847 0.959 . S
C841 H848 0.961 . S
C841 H849 0.960 . S
C842 C840 1.381 . S
C842 C843 1.394 . S
C842 H850 0.930 . S
C843 C842 1.394 . S
C843 C844 1.383 . S
C843 H851 0.929 . S
C844 C843 1.383 . S
C844 C845 1.377 . S
C845 H829 0.930 . S
C845 C844 1.377 . S
C845 C846 1.379 . S
C846 H830 0.931 . S
C846 C840 1.383 . S
C846 C845 1.379 . S
H847 C841 0.959 . S
H848 C841 0.961 . S
H849 C841 0.960 . S
H850 C842 0.930 . S
H851 C843 0.929 . S
H852 C860 0.929 . S
H853 C862 0.930 . S
H854 C864 0.930 . S
H855 C867 0.929 . S
H856 C870 0.930 . S
H857 C872 0.960 . S
H858 C872 0.960 . S
H859 C872 0.960 . S
C860 H852 0.929 . S
C860 C861 1.377 . S
C860 C862 1.384 . S
C861 C860 1.377 . S
C861 C867 1.390 . S
C862 H853 0.930 . S
C862 C860 1.384 . S
C862 C863 1.372 . S
C863 C862 1.372 . S
C863 C864 1.400 . S
C863 C868 1.490 . S
C864 H854 0.930 . S
C864 C863 1.400 . S
C864 C867 1.386 . S
H865 C881 0.930 . S
H866 C882 0.931 . S
C867 H855 0.929 . S
C867 C861 1.390 . S
C867 C864 1.386 . S
C868 C863 1.490 . S
C868 C870 1.395 . S
C868 C871 1.403 . S
H869 C875 0.930 . S
C870 H856 0.930 . S
C870 C868 1.395 . S
C870 C873 1.403 . S
C871 C868 1.403 . S
C871 C872 1.524 . S
C871 C875 1.400 . S
C872 H857 0.960 . S
C872 H858 0.960 . S
C872 H859 0.960 . S
C872 C871 1.524 . S
C873 C870 1.403 . S
C873 C874 1.392 . S
C873 C877 1.495 . S
C874 C873 1.392 . S
C874 C875 1.385 . S
C874 C876 1.478 . S
C875 H869 0.930 . S
C875 C871 1.400 . S
C875 C874 1.385 . S
C876 C874 1.478 . S
C876 C878 1.381 . S
C876 C882 1.383 . S
C877 C873 1.495 . S
C877 H883 0.959 . S
C877 H884 0.961 . S
C877 H885 0.960 . S
C878 C876 1.381 . S
C878 C879 1.394 . S
C878 H886 0.930 . S
C879 C878 1.394 . S
C879 C880 1.383 . S
C879 H887 0.929 . S
C880 C879 1.383 . S
C880 C881 1.377 . S
C881 H865 0.930 . S
C881 C880 1.377 . S
C881 C882 1.379 . S
C882 H866 0.931 . S
C882 C876 1.383 . S
C882 C881 1.379 . S
H883 C877 0.959 . S
H884 C877 0.961 . S
H885 C877 0.960 . S
H886 C878 0.930 . S
H887 C879 0.929 . S
H888 C896 0.929 . S
H889 C898 0.930 . S
H890 C900 0.930 . S
H891 C903 0.929 . S
H892 C906 0.930 . S
H893 C908 0.960 . S
H894 C908 0.960 . S
H895 C908 0.960 . S
C896 H888 0.929 . S
C896 C897 1.377 . S
C896 C898 1.384 . S
C897 C896 1.377 . S
C897 C903 1.390 . S
C898 H889 0.930 . S
C898 C896 1.384 . S
C898 C899 1.372 . S
C899 C898 1.372 . S
C899 C900 1.400 . S
C899 C904 1.490 . S
C900 H890 0.930 . S
C900 C899 1.400 . S
C900 C903 1.386 . S
H901 C917 0.930 . S
H902 C918 0.931 . S
C903 H891 0.929 . S
C903 C897 1.390 . S
C903 C900 1.386 . S
C904 C899 1.490 . S
C904 C906 1.395 . S
C904 C907 1.403 . S
H905 C911 0.930 . S
C906 H892 0.930 . S
C906 C904 1.395 . S
C906 C909 1.403 . S
C907 C904 1.403 . S
C907 C908 1.524 . S
C907 C911 1.400 . S
C908 H893 0.960 . S
C908 H894 0.960 . S
C908 H895 0.960 . S
C908 C907 1.524 . S
C909 C906 1.403 . S
C909 C910 1.392 . S
C909 C913 1.495 . S
C910 C909 1.392 . S
C910 C911 1.385 . S
C910 C912 1.478 . S
C911 H905 0.930 . S
C911 C907 1.400 . S
C911 C910 1.385 . S
C912 C910 1.478 . S
C912 C914 1.381 . S
C912 C918 1.383 . S
C913 C909 1.495 . S
C913 H919 0.959 . S
C913 H920 0.961 . S
C913 H921 0.960 . S
C914 C912 1.381 . S
C914 C915 1.394 . S
C914 H922 0.930 . S
C915 C914 1.394 . S
C915 C916 1.383 . S
C915 H923 0.929 . S
C916 C915 1.383 . S
C916 C917 1.377 . S
C917 H901 0.930 . S
C917 C916 1.377 . S
C917 C918 1.379 . S
C918 H902 0.931 . S
C918 C912 1.383 . S
C918 C917 1.379 . S
H919 C913 0.959 . S
H920 C913 0.961 . S
H921 C913 0.960 . S
H922 C914 0.930 . S
H923 C915 0.929 . S
H924 C932 0.929 . S
H925 C934 0.930 . S
H926 C936 0.930 . S
H927 C939 0.929 . S
H928 C942 0.930 . S
H929 C944 0.960 . S
H930 C944 0.960 . S
H931 C944 0.960 . S
C932 H924 0.929 . S
C932 C933 1.377 . S
C932 C934 1.384 . S
C933 C932 1.377 . S
C933 C939 1.390 . S
C934 H925 0.930 . S
C934 C932 1.384 . S
C934 C935 1.372 . S
C935 C934 1.372 . S
C935 C936 1.400 . S
C935 C940 1.490 . S
C936 H926 0.930 . S
C936 C935 1.400 . S
C936 C939 1.386 . S
H937 C953 0.930 . S
H938 C954 0.931 . S
C939 H927 0.929 . S
C939 C933 1.390 . S
C939 C936 1.386 . S
C940 C935 1.490 . S
C940 C942 1.395 . S
C940 C943 1.403 . S
H941 C947 0.930 . S
C942 H928 0.930 . S
C942 C940 1.395 . S
C942 C945 1.403 . S
C943 C940 1.403 . S
C943 C944 1.524 . S
C943 C947 1.400 . S
C944 H929 0.960 . S
C944 H930 0.960 . S
C944 H931 0.960 . S
C944 C943 1.524 . S
C945 C942 1.403 . S
C945 C946 1.392 . S
C945 C949 1.495 . S
C946 C945 1.392 . S
C946 C947 1.385 . S
C946 C948 1.478 . S
C947 H941 0.930 . S
C947 C943 1.400 . S
C947 C946 1.385 . S
C948 C946 1.478 . S
C948 C950 1.381 . S
C948 C954 1.383 . S
C949 C945 1.495 . S
C949 H955 0.959 . S
C949 H956 0.961 . S
C949 H957 0.960 . S
C950 C948 1.381 . S
C950 C951 1.394 . S
C950 H958 0.930 . S
C951 C950 1.394 . S
C951 C952 1.383 . S
C951 H959 0.929 . S
C952 C951 1.383 . S
C952 C953 1.377 . S
C953 H937 0.930 . S
C953 C952 1.377 . S
C953 C954 1.379 . S
C954 H938 0.931 . S
C954 C948 1.383 . S
C954 C953 1.379 . S
H955 C949 0.959 . S
H956 C949 0.961 . S
H957 C949 0.960 . S
H958 C950 0.930 . S
H959 C951 0.929 . S
H960 C968 0.929 . S
H961 C970 0.930 1_556 S
H962 C972 0.930 . S
H963 C975 0.929 . S
H964 C978 0.930 . S
H965 C980 0.960 . S
H966 C980 0.960 . S
H967 C980 0.960 . S
C968 H960 0.929 . S
C968 C969 1.377 1_556 S
C968 C970 1.384 1_556 S
C969 C968 1.377 1_554 S
C969 C975 1.390 . S
C970 H961 0.930 1_554 S
C970 C968 1.384 1_554 S
C970 C971 1.372 . S
C971 C970 1.372 . S
C971 C972 1.400 . S
C971 C976 1.490 . S
C972 H962 0.930 . S
C972 C971 1.400 . S
C972 C975 1.386 . S
H973 C989 0.930 . S
H974 C990 0.931 . S
C975 H963 0.929 . S
C975 C969 1.390 . S
C975 C972 1.386 . S
C976 C971 1.490 . S
C976 C978 1.395 . S
C976 C979 1.403 . S
H977 C983 0.930 . S
C978 H964 0.930 . S
C978 C976 1.395 . S
C978 C981 1.403 . S
C979 C976 1.403 . S
C979 C980 1.524 . S
C979 C983 1.400 . S
C980 H965 0.960 . S
C980 H966 0.960 . S
C980 H967 0.960 . S
C980 C979 1.524 . S
C981 C978 1.403 . S
C981 C982 1.392 . S
C981 C985 1.495 . S
C982 C981 1.392 . S
C982 C983 1.385 . S
C982 C984 1.478 . S
C983 H977 0.930 . S
C983 C979 1.400 . S
C983 C982 1.385 . S
C984 C982 1.478 . S
C984 C986 1.381 . S
C984 C990 1.383 . S
C985 C981 1.495 . S
C985 H991 0.959 . S
C985 H992 0.961 . S
C985 H993 0.960 . S
C986 C984 1.381 . S
C986 C987 1.394 . S
C986 H994 0.930 . S
C987 C986 1.394 . S
C987 C988 1.383 . S
C987 H995 0.929 . S
C988 C987 1.383 . S
C988 C989 1.377 . S
C989 H973 0.930 . S
C989 C988 1.377 . S
C989 C990 1.379 . S
C990 H974 0.931 . S
C990 C984 1.383 . S
C990 C989 1.379 . S
H991 C985 0.959 . S
H992 C985 0.961 . S
H993 C985 0.960 . S
H994 C986 0.930 . S
H995 C987 0.929 . S
H996 C1004 0.929 . S
H997 C1006 0.930 . S
H998 C1008 0.930 . S
H999 C1011 0.929 . S
H1000 C1014 0.930 . S
H1001 C1016 0.960 . S
H1002 C1016 0.960 . S
H1003 C1016 0.960 . S
C1004 H996 0.929 . S
C1004 C1005 1.377 . S
C1004 C1006 1.384 . S
C1005 C1004 1.377 . S
C1005 C1011 1.390 . S
C1006 H997 0.930 . S
C1006 C1004 1.384 . S
C1006 C1007 1.372 . S
C1007 C1006 1.372 . S
C1007 C1008 1.400 . S
C1007 C1012 1.490 . S
C1008 H998 0.930 . S
C1008 C1007 1.400 . S
C1008 C1011 1.386 . S
H1009 C1025 0.930 . S
H1010 C1026 0.931 . S
C1011 H999 0.929 . S
C1011 C1005 1.390 . S
C1011 C1008 1.386 . S
C1012 C1007 1.490 . S
C1012 C1014 1.395 . S
C1012 C1015 1.403 . S
H1013 C1019 0.930 . S
C1014 H1000 0.930 . S
C1014 C1012 1.395 . S
C1014 C1017 1.403 . S
C1015 C1012 1.403 . S
C1015 C1016 1.524 . S
C1015 C1019 1.400 . S
C1016 H1001 0.960 . S
C1016 H1002 0.960 . S
C1016 H1003 0.960 . S
C1016 C1015 1.524 . S
C1017 C1014 1.403 . S
C1017 C1018 1.392 . S
C1017 C1021 1.495 . S
C1018 C1017 1.392 . S
C1018 C1019 1.385 . S
C1018 C1020 1.478 . S
C1019 H1013 0.930 . S
C1019 C1015 1.400 . S
C1019 C1018 1.385 . S
C1020 C1018 1.478 . S
C1020 C1022 1.381 . S
C1020 C1026 1.383 . S
C1021 C1017 1.495 . S
C1021 H1027 0.959 . S
C1021 H1028 0.961 . S
C1021 H1029 0.960 . S
C1022 C1020 1.381 . S
C1022 C1023 1.394 . S
C1022 H1030 0.930 . S
C1023 C1022 1.394 . S
C1023 C1024 1.383 . S
C1023 H1031 0.929 . S
C1024 C1023 1.383 . S
C1024 C1025 1.377 . S
C1025 H1009 0.930 . S
C1025 C1024 1.377 . S
C1025 C1026 1.379 . S
C1026 H1010 0.931 . S
C1026 C1020 1.383 . S
C1026 C1025 1.379 . S
H1027 C1021 0.959 . S
H1028 C1021 0.961 . S
H1029 C1021 0.960 . S
H1030 C1022 0.930 . S
H1031 C1023 0.929 . S
H1032 C1040 0.929 . S
H1033 C1042 0.930 . S
H1034 C1044 0.930 . S
H1035 C1047 0.929 . S
H1036 C1050 0.930 . S
H1037 C1052 0.960 . S
H1038 C1052 0.960 . S
H1039 C1052 0.960 . S
C1040 H1032 0.929 . S
C1040 C1041 1.377 . S
C1040 C1042 1.384 . S
C1041 C1040 1.377 . S
C1041 C1047 1.390 . S
C1042 H1033 0.930 . S
C1042 C1040 1.384 . S
C1042 C1043 1.372 . S
C1043 C1042 1.372 . S
C1043 C1044 1.400 . S
C1043 C1048 1.490 . S
C1044 H1034 0.930 . S
C1044 C1043 1.400 . S
C1044 C1047 1.386 . S
H1045 C1061 0.930 . S
H1046 C1062 0.931 . S
C1047 H1035 0.929 . S
C1047 C1041 1.390 . S
C1047 C1044 1.386 . S
C1048 C1043 1.490 . S
C1048 C1050 1.395 . S
C1048 C1051 1.403 . S
H1049 C1055 0.930 . S
C1050 H1036 0.930 . S
C1050 C1048 1.395 . S
C1050 C1053 1.403 . S
C1051 C1048 1.403 . S
C1051 C1052 1.524 . S
C1051 C1055 1.400 . S
C1052 H1037 0.960 . S
C1052 H1038 0.960 . S
C1052 H1039 0.960 . S
C1052 C1051 1.524 . S
C1053 C1050 1.403 . S
C1053 C1054 1.392 . S
C1053 C1057 1.495 . S
C1054 C1053 1.392 . S
C1054 C1055 1.385 . S
C1054 C1056 1.478 . S
C1055 H1049 0.930 . S
C1055 C1051 1.400 . S
C1055 C1054 1.385 . S
C1056 C1054 1.478 . S
C1056 C1058 1.381 . S
C1056 C1062 1.383 . S
C1057 C1053 1.495 . S
C1057 H1063 0.959 . S
C1057 H1064 0.961 . S
C1057 H1065 0.960 . S
C1058 C1056 1.381 . S
C1058 C1059 1.394 . S
C1058 H1066 0.930 . S
C1059 C1058 1.394 . S
C1059 C1060 1.383 . S
C1059 H1067 0.929 . S
C1060 C1059 1.383 . S
C1060 C1061 1.377 . S
C1061 H1045 0.930 . S
C1061 C1060 1.377 . S
C1061 C1062 1.379 . S
C1062 H1046 0.931 . S
C1062 C1056 1.383 . S
C1062 C1061 1.379 . S
H1063 C1057 0.959 . S
H1064 C1057 0.961 . S
H1065 C1057 0.960 . S
H1066 C1058 0.930 . S
H1067 C1059 0.929 . S
H1068 C1076 0.929 . S
H1069 C1078 0.930 . S
H1070 C1080 0.930 . S
H1071 C1083 0.929 . S
H1072 C1086 0.930 . S
H1073 C1088 0.960 . S
H1074 C1088 0.960 . S
H1075 C1088 0.960 . S
C1076 H1068 0.929 . S
C1076 C1077 1.377 . S
C1076 C1078 1.384 . S
C1077 C1076 1.377 . S
C1077 C1083 1.390 . S
C1078 H1069 0.930 . S
C1078 C1076 1.384 . S
C1078 C1079 1.372 . S
C1079 C1078 1.372 . S
C1079 C1080 1.400 . S
C1079 C1084 1.490 . S
C1080 H1070 0.930 . S
C1080 C1079 1.400 . S
C1080 C1083 1.386 . S
H1081 C1097 0.930 . S
H1082 C1098 0.931 . S
C1083 H1071 0.929 . S
C1083 C1077 1.390 . S
C1083 C1080 1.386 . S
C1084 C1079 1.490 . S
C1084 C1086 1.395 . S
C1084 C1087 1.403 . S
H1085 C1091 0.930 . S
C1086 H1072 0.930 . S
C1086 C1084 1.395 . S
C1086 C1089 1.403 . S
C1087 C1084 1.403 . S
C1087 C1088 1.524 . S
C1087 C1091 1.400 . S
C1088 H1073 0.960 . S
C1088 H1074 0.960 . S
C1088 H1075 0.960 . S
C1088 C1087 1.524 . S
C1089 C1086 1.403 . S
C1089 C1090 1.392 . S
C1089 C1093 1.495 . S
C1090 C1089 1.392 . S
C1090 C1091 1.385 . S
C1090 C1092 1.478 . S
C1091 H1085 0.930 . S
C1091 C1087 1.400 . S
C1091 C1090 1.385 . S
C1092 C1090 1.478 . S
C1092 C1094 1.381 . S
C1092 C1098 1.383 . S
C1093 C1089 1.495 . S
C1093 H1099 0.959 . S
C1093 H1100 0.961 . S
C1093 H1101 0.960 . S
C1094 C1092 1.381 . S
C1094 C1095 1.394 . S
C1094 H1102 0.930 . S
C1095 C1094 1.394 . S
C1095 C1096 1.383 . S
C1095 H1103 0.929 . S
C1096 C1095 1.383 . S
C1096 C1097 1.377 . S
C1097 H1081 0.930 . S
C1097 C1096 1.377 . S
C1097 C1098 1.379 . S
C1098 H1082 0.931 . S
C1098 C1092 1.383 . S
C1098 C1097 1.379 . S
H1099 C1093 0.959 . S
H1100 C1093 0.961 . S
H1101 C1093 0.960 . S
H1102 C1094 0.930 . S
H1103 C1095 0.929 . S
H1104 C1112 0.929 . S
H1105 C1114 0.930 . S
H1106 C1116 0.930 . S
H1107 C1119 0.929 . S
H1108 C1122 0.930 . S
H1109 C1124 0.960 . S
H1110 C1124 0.960 . S
H1111 C1124 0.960 . S
C1112 H1104 0.929 . S
C1112 C1113 1.377 . S
C1112 C1114 1.384 . S
C1113 C1112 1.377 . S
C1113 C1119 1.390 . S
C1114 H1105 0.930 . S
C1114 C1112 1.384 . S
C1114 C1115 1.372 . S
C1115 C1114 1.372 . S
C1115 C1116 1.400 . S
C1115 C1120 1.490 . S
C1116 H1106 0.930 . S
C1116 C1115 1.400 . S
C1116 C1119 1.386 . S
H1117 C1133 0.930 . S
H1118 C1134 0.931 . S
C1119 H1107 0.929 . S
C1119 C1113 1.390 . S
C1119 C1116 1.386 . S
C1120 C1115 1.490 . S
C1120 C1122 1.395 . S
C1120 C1123 1.403 . S
H1121 C1127 0.930 . S
C1122 H1108 0.930 . S
C1122 C1120 1.395 . S
C1122 C1125 1.403 . S
C1123 C1120 1.403 . S
C1123 C1124 1.524 . S
C1123 C1127 1.400 . S
C1124 H1109 0.960 . S
C1124 H1110 0.960 . S
C1124 H1111 0.960 . S
C1124 C1123 1.524 . S
C1125 C1122 1.403 . S
C1125 C1126 1.392 . S
C1125 C1129 1.495 . S
C1126 C1125 1.392 . S
C1126 C1127 1.385 . S
C1126 C1128 1.478 . S
C1127 H1121 0.930 . S
C1127 C1123 1.400 . S
C1127 C1126 1.385 . S
C1128 C1126 1.478 . S
C1128 C1130 1.381 . S
C1128 C1134 1.383 . S
C1129 C1125 1.495 . S
C1129 H1135 0.959 . S
C1129 H1136 0.961 . S
C1129 H1137 0.960 . S
C1130 C1128 1.381 . S
C1130 C1131 1.394 . S
C1130 H1138 0.930 . S
C1131 C1130 1.394 . S
C1131 C1132 1.383 . S
C1131 H1139 0.929 . S
C1132 C1131 1.383 . S
C1132 C1133 1.377 . S
C1133 H1117 0.930 . S
C1133 C1132 1.377 . S
C1133 C1134 1.379 . S
C1134 H1118 0.931 . S
C1134 C1128 1.383 . S
C1134 C1133 1.379 . S
H1135 C1129 0.959 . S
H1136 C1129 0.961 . S
H1137 C1129 0.960 . S
H1138 C1130 0.930 . S
H1139 C1131 0.929 . S
H1140 C1148 0.929 . S
H1141 C1150 0.930 . S
H1142 C1152 0.930 . S
H1143 C1155 0.929 . S
H1144 C1158 0.930 . S
H1145 C1160 0.960 . S
H1146 C1160 0.960 . S
H1147 C1160 0.960 . S
C1148 H1140 0.929 . S
C1148 C1149 1.377 . S
C1148 C1150 1.384 . S
C1149 C1148 1.377 . S
C1149 C1155 1.390 . S
C1150 H1141 0.930 . S
C1150 C1148 1.384 . S
C1150 C1151 1.372 . S
C1151 C1150 1.372 . S
C1151 C1152 1.400 . S
C1151 C1156 1.490 . S
C1152 H1142 0.930 . S
C1152 C1151 1.400 . S
C1152 C1155 1.386 . S
H1153 C1169 0.930 . S
H1154 C1170 0.931 . S
C1155 H1143 0.929 . S
C1155 C1149 1.390 . S
C1155 C1152 1.386 . S
C1156 C1151 1.490 . S
C1156 C1158 1.395 . S
C1156 C1159 1.403 . S
H1157 C1163 0.930 . S
C1158 H1144 0.930 . S
C1158 C1156 1.395 . S
C1158 C1161 1.403 . S
C1159 C1156 1.403 . S
C1159 C1160 1.524 . S
C1159 C1163 1.400 . S
C1160 H1145 0.960 . S
C1160 H1146 0.960 . S
C1160 H1147 0.960 . S
C1160 C1159 1.524 . S
C1161 C1158 1.403 . S
C1161 C1162 1.392 . S
C1161 C1165 1.495 . S
C1162 C1161 1.392 . S
C1162 C1163 1.385 . S
C1162 C1164 1.478 . S
C1163 H1157 0.930 . S
C1163 C1159 1.400 . S
C1163 C1162 1.385 . S
C1164 C1162 1.478 . S
C1164 C1166 1.381 . S
C1164 C1170 1.383 . S
C1165 C1161 1.495 . S
C1165 H1171 0.959 . S
C1165 H1172 0.961 . S
C1165 H1173 0.960 . S
C1166 C1164 1.381 . S
C1166 C1167 1.394 . S
C1166 H1174 0.930 . S
C1167 C1166 1.394 . S
C1167 C1168 1.383 . S
C1167 H1175 0.929 . S
C1168 C1167 1.383 . S
C1168 C1169 1.377 . S
C1169 H1153 0.930 . S
C1169 C1168 1.377 . S
C1169 C1170 1.379 . S
C1170 H1154 0.931 . S
C1170 C1164 1.383 . S
C1170 C1169 1.379 . S
H1171 C1165 0.959 . S
H1172 C1165 0.961 . S
H1173 C1165 0.960 . S
H1174 C1166 0.930 . S
H1175 C1167 0.929 . S
H1176 C1184 0.929 . S
H1177 C1186 0.930 . S
H1178 C1188 0.930 . S
H1179 C1191 0.929 . S
H1180 C1194 0.930 . S
H1181 C1196 0.960 . S
H1182 C1196 0.960 . S
H1183 C1196 0.960 . S
C1184 H1176 0.929 . S
C1184 C1185 1.377 . S
C1184 C1186 1.384 . S
C1185 C1184 1.377 . S
C1185 C1191 1.390 . S
C1186 H1177 0.930 . S
C1186 C1184 1.384 . S
C1186 C1187 1.372 . S
C1187 C1186 1.372 . S
C1187 C1188 1.400 . S
C1187 C1192 1.490 . S
C1188 H1178 0.930 . S
C1188 C1187 1.400 . S
C1188 C1191 1.386 . S
H1189 C1205 0.930 . S
H1190 C1206 0.931 . S
C1191 H1179 0.929 . S
C1191 C1185 1.390 . S
C1191 C1188 1.386 . S
C1192 C1187 1.490 . S
C1192 C1194 1.395 . S
C1192 C1195 1.403 . S
H1193 C1199 0.930 . S
C1194 H1180 0.930 . S
C1194 C1192 1.395 . S
C1194 C1197 1.403 . S
C1195 C1192 1.403 . S
C1195 C1196 1.524 . S
C1195 C1199 1.400 . S
C1196 H1181 0.960 . S
C1196 H1182 0.960 . S
C1196 H1183 0.960 . S
C1196 C1195 1.524 . S
C1197 C1194 1.403 . S
C1197 C1198 1.392 . S
C1197 C1201 1.495 . S
C1198 C1197 1.392 . S
C1198 C1199 1.385 . S
C1198 C1200 1.478 . S
C1199 H1193 0.930 . S
C1199 C1195 1.400 . S
C1199 C1198 1.385 . S
C1200 C1198 1.478 . S
C1200 C1202 1.381 . S
C1200 C1206 1.383 . S
C1201 C1197 1.495 . S
C1201 H1207 0.959 . S
C1201 H1208 0.961 . S
C1201 H1209 0.960 . S
C1202 C1200 1.381 . S
C1202 C1203 1.394 . S
C1202 H1210 0.930 . S
C1203 C1202 1.394 . S
C1203 C1204 1.383 . S
C1203 H1211 0.929 . S
C1204 C1203 1.383 . S
C1204 C1205 1.377 . S
C1205 H1189 0.930 . S
C1205 C1204 1.377 . S
C1205 C1206 1.379 . S
C1206 H1190 0.931 . S
C1206 C1200 1.383 . S
C1206 C1205 1.379 . S
H1207 C1201 0.959 . S
H1208 C1201 0.961 . S
H1209 C1201 0.960 . S
H1210 C1202 0.930 . S
H1211 C1203 0.929 . S
H1212 C1220 0.929 . S
H1213 C1222 0.930 . S
H1214 C1224 0.930 . S
H1215 C1227 0.929 . S
H1216 C1230 0.930 . S
H1217 C1232 0.960 . S
H1218 C1232 0.960 . S
H1219 C1232 0.960 . S
C1220 H1212 0.929 . S
C1220 C1221 1.377 . S
C1220 C1222 1.384 . S
C1221 C1220 1.377 . S
C1221 C1227 1.390 . S
C1222 H1213 0.930 . S
C1222 C1220 1.384 . S
C1222 C1223 1.372 . S
C1223 C1222 1.372 . S
C1223 C1224 1.400 . S
C1223 C1228 1.490 . S
C1224 H1214 0.930 . S
C1224 C1223 1.400 . S
C1224 C1227 1.386 . S
H1225 C1241 0.930 . S
H1226 C1242 0.931 . S
C1227 H1215 0.929 . S
C1227 C1221 1.390 . S
C1227 C1224 1.386 . S
C1228 C1223 1.490 . S
C1228 C1230 1.395 . S
C1228 C1231 1.403 . S
H1229 C1235 0.930 . S
C1230 H1216 0.930 . S
C1230 C1228 1.395 . S
C1230 C1233 1.403 . S
C1231 C1228 1.403 . S
C1231 C1232 1.524 . S
C1231 C1235 1.400 . S
C1232 H1217 0.960 . S
C1232 H1218 0.960 . S
C1232 H1219 0.960 . S
C1232 C1231 1.524 . S
C1233 C1230 1.403 . S
C1233 C1234 1.392 . S
C1233 C1237 1.495 . S
C1234 C1233 1.392 . S
C1234 C1235 1.385 . S
C1234 C1236 1.478 . S
C1235 H1229 0.930 . S
C1235 C1231 1.400 . S
C1235 C1234 1.385 . S
C1236 C1234 1.478 . S
C1236 C1238 1.381 . S
C1236 C1242 1.383 . S
C1237 C1233 1.495 . S
C1237 H1243 0.959 . S
C1237 H1244 0.961 . S
C1237 H1245 0.960 . S
C1238 C1236 1.381 . S
C1238 C1239 1.394 . S
C1238 H1246 0.930 . S
C1239 C1238 1.394 . S
C1239 C1240 1.383 . S
C1239 H1247 0.929 . S
C1240 C1239 1.383 . S
C1240 C1241 1.377 . S
C1241 H1225 0.930 . S
C1241 C1240 1.377 . S
C1241 C1242 1.379 . S
C1242 H1226 0.931 . S
C1242 C1236 1.383 . S
C1242 C1241 1.379 . S
H1243 C1237 0.959 . S
H1244 C1237 0.961 . S
H1245 C1237 0.960 . S
H1246 C1238 0.930 . S
H1247 C1239 0.929 . S
H1248 C1256 0.929 . S
H1249 C1258 0.930 . S
H1250 C1260 0.930 . S
H1251 C1263 0.929 . S
H1252 C1266 0.930 . S
H1253 C1268 0.960 . S
H1254 C1268 0.960 . S
H1255 C1268 0.960 . S
C1256 H1248 0.929 . S
C1256 C1257 1.377 . S
C1256 C1258 1.384 . S
C1257 C1256 1.377 . S
C1257 C1263 1.390 . S
C1258 H1249 0.930 . S
C1258 C1256 1.384 . S
C1258 C1259 1.372 . S
C1259 C1258 1.372 . S
C1259 C1260 1.400 . S
C1259 C1264 1.490 . S
C1260 H1250 0.930 . S
C1260 C1259 1.400 . S
C1260 C1263 1.386 . S
H1261 C1277 0.930 . S
H1262 C1278 0.931 . S
C1263 H1251 0.929 . S
C1263 C1257 1.390 . S
C1263 C1260 1.386 . S
C1264 C1259 1.490 . S
C1264 C1266 1.395 . S
C1264 C1267 1.403 . S
H1265 C1271 0.930 . S
C1266 H1252 0.930 . S
C1266 C1264 1.395 . S
C1266 C1269 1.403 . S
C1267 C1264 1.403 . S
C1267 C1268 1.524 . S
C1267 C1271 1.400 . S
C1268 H1253 0.960 . S
C1268 H1254 0.960 . S
C1268 H1255 0.960 . S
C1268 C1267 1.524 . S
C1269 C1266 1.403 . S
C1269 C1270 1.392 . S
C1269 C1273 1.495 . S
C1270 C1269 1.392 . S
C1270 C1271 1.385 . S
C1270 C1272 1.478 . S
C1271 H1265 0.930 . S
C1271 C1267 1.400 . S
C1271 C1270 1.385 . S
C1272 C1270 1.478 . S
C1272 C1274 1.381 . S
C1272 C1278 1.383 . S
C1273 C1269 1.495 . S
C1273 H1279 0.959 . S
C1273 H1280 0.961 . S
C1273 H1281 0.960 . S
C1274 C1272 1.381 . S
C1274 C1275 1.394 . S
C1274 H1282 0.930 . S
C1275 C1274 1.394 . S
C1275 C1276 1.383 . S
C1275 H1283 0.929 . S
C1276 C1275 1.383 . S
C1276 C1277 1.377 . S
C1277 H1261 0.930 . S
C1277 C1276 1.377 . S
C1277 C1278 1.379 . S
C1278 H1262 0.931 . S
C1278 C1272 1.383 . S
C1278 C1277 1.379 . S
H1279 C1273 0.959 . S
H1280 C1273 0.961 . S
H1281 C1273 0.960 . S
H1282 C1274 0.930 . S
H1283 C1275 0.929 . S
H1284 C1292 0.929 . S
H1285 C1294 0.930 . S
H1286 C1296 0.930 . S
H1287 C1299 0.929 . S
H1288 C1302 0.930 . S
H1289 C1304 0.960 . S
H1290 C1304 0.960 . S
H1291 C1304 0.960 . S
C1292 H1284 0.929 . S
C1292 C1293 1.377 . S
C1292 C1294 1.384 . S
C1293 C1292 1.377 . S
C1293 C1299 1.390 . S
C1294 H1285 0.930 . S
C1294 C1292 1.384 . S
C1294 C1295 1.372 . S
C1295 C1294 1.372 . S
C1295 C1296 1.400 . S
C1295 C1300 1.490 . S
C1296 H1286 0.930 . S
C1296 C1295 1.400 . S
C1296 C1299 1.386 . S
H1297 C1313 0.930 . S
H1298 C1314 0.931 . S
C1299 H1287 0.929 . S
C1299 C1293 1.390 . S
C1299 C1296 1.386 . S
C1300 C1295 1.490 . S
C1300 C1302 1.395 . S
C1300 C1303 1.403 . S
H1301 C1307 0.930 . S
C1302 H1288 0.930 . S
C1302 C1300 1.395 . S
C1302 C1305 1.403 . S
C1303 C1300 1.403 . S
C1303 C1304 1.524 . S
C1303 C1307 1.400 . S
C1304 H1289 0.960 . S
C1304 H1290 0.960 . S
C1304 H1291 0.960 . S
C1304 C1303 1.524 . S
C1305 C1302 1.403 . S
C1305 C1306 1.392 . S
C1305 C1309 1.495 . S
C1306 C1305 1.392 . S
C1306 C1307 1.385 . S
C1306 C1308 1.478 . S
C1307 H1301 0.930 . S
C1307 C1303 1.400 . S
C1307 C1306 1.385 . S
C1308 C1306 1.478 . S
C1308 C1310 1.381 . S
C1308 C1314 1.383 . S
C1309 C1305 1.495 . S
C1309 H1315 0.959 . S
C1309 H1316 0.961 . S
C1309 H1317 0.960 . S
C1310 C1308 1.381 . S
C1310 C1311 1.394 . S
C1310 H1318 0.930 . S
C1311 C1310 1.394 . S
C1311 C1312 1.383 . S
C1311 H1319 0.929 . S
C1312 C1311 1.383 . S
C1312 C1313 1.377 . S
C1313 H1297 0.930 . S
C1313 C1312 1.377 . S
C1313 C1314 1.379 . S
C1314 H1298 0.931 . S
C1314 C1308 1.383 . S
C1314 C1313 1.379 . S
H1315 C1309 0.959 . S
H1316 C1309 0.961 . S
H1317 C1309 0.960 . S
H1318 C1310 0.930 . S
H1319 C1311 0.929 . S
H1320 C1328 0.929 . S
H1321 C1330 0.930 . S
H1322 C1332 0.930 . S
H1323 C1335 0.929 . S
H1324 C1338 0.930 . S
H1325 C1340 0.960 . S
H1326 C1340 0.960 . S
H1327 C1340 0.960 . S
C1328 H1320 0.929 . S
C1328 C1329 1.377 . S
C1328 C1330 1.384 . S
C1329 C1328 1.377 . S
C1329 C1335 1.390 . S
C1330 H1321 0.930 . S
C1330 C1328 1.384 . S
C1330 C1331 1.372 . S
C1331 C1330 1.372 . S
C1331 C1332 1.400 . S
C1331 C1336 1.490 . S
C1332 H1322 0.930 . S
C1332 C1331 1.400 . S
C1332 C1335 1.386 . S
H1333 C1349 0.930 . S
H1334 C1350 0.931 . S
C1335 H1323 0.929 . S
C1335 C1329 1.390 . S
C1335 C1332 1.386 . S
C1336 C1331 1.490 . S
C1336 C1338 1.395 . S
C1336 C1339 1.403 . S
H1337 C1343 0.930 . S
C1338 H1324 0.930 . S
C1338 C1336 1.395 . S
C1338 C1341 1.403 . S
C1339 C1336 1.403 . S
C1339 C1340 1.524 . S
C1339 C1343 1.400 . S
C1340 H1325 0.960 . S
C1340 H1326 0.960 . S
C1340 H1327 0.960 . S
C1340 C1339 1.524 . S
C1341 C1338 1.403 . S
C1341 C1342 1.392 . S
C1341 C1345 1.495 . S
C1342 C1341 1.392 . S
C1342 C1343 1.385 . S
C1342 C1344 1.478 . S
C1343 H1337 0.930 . S
C1343 C1339 1.400 . S
C1343 C1342 1.385 . S
C1344 C1342 1.478 . S
C1344 C1346 1.381 . S
C1344 C1350 1.383 . S
C1345 C1341 1.495 . S
C1345 H1351 0.959 . S
C1345 H1352 0.961 . S
C1345 H1353 0.960 . S
C1346 C1344 1.381 . S
C1346 C1347 1.394 . S
C1346 H1354 0.930 . S
C1347 C1346 1.394 . S
C1347 C1348 1.383 . S
C1347 H1355 0.929 . S
C1348 C1347 1.383 . S
C1348 C1349 1.377 . S
C1349 H1333 0.930 . S
C1349 C1348 1.377 . S
C1349 C1350 1.379 . S
C1350 H1334 0.931 . S
C1350 C1344 1.383 . S
C1350 C1349 1.379 . S
H1351 C1345 0.959 . S
H1352 C1345 0.961 . S
H1353 C1345 0.960 . S
H1354 C1346 0.930 . S
H1355 C1347 0.929 . S
H1356 C1364 0.929 . S
H1357 C1366 0.930 . S
H1358 C1368 0.930 . S
H1359 C1371 0.929 . S
H1360 C1374 0.930 . S
H1361 C1376 0.960 . S
H1362 C1376 0.960 . S
H1363 C1376 0.960 . S
C1364 H1356 0.929 . S
C1364 C1365 1.377 . S
C1364 C1366 1.384 . S
C1365 C1364 1.377 . S
C1365 C1371 1.390 . S
C1366 H1357 0.930 . S
C1366 C1364 1.384 . S
C1366 C1367 1.372 . S
C1367 C1366 1.372 . S
C1367 C1368 1.400 . S
C1367 C1372 1.490 . S
C1368 H1358 0.930 . S
C1368 C1367 1.400 . S
C1368 C1371 1.386 . S
H1369 C1385 0.930 . S
H1370 C1386 0.931 . S
C1371 H1359 0.929 . S
C1371 C1365 1.390 . S
C1371 C1368 1.386 . S
C1372 C1367 1.490 . S
C1372 C1374 1.395 . S
C1372 C1375 1.403 . S
H1373 C1379 0.930 . S
C1374 H1360 0.930 . S
C1374 C1372 1.395 . S
C1374 C1377 1.403 . S
C1375 C1372 1.403 . S
C1375 C1376 1.524 . S
C1375 C1379 1.400 . S
C1376 H1361 0.960 . S
C1376 H1362 0.960 . S
C1376 H1363 0.960 . S
C1376 C1375 1.524 . S
C1377 C1374 1.403 . S
C1377 C1378 1.392 . S
C1377 C1381 1.495 . S
C1378 C1377 1.392 . S
C1378 C1379 1.385 . S
C1378 C1380 1.478 . S
C1379 H1373 0.930 . S
C1379 C1375 1.400 . S
C1379 C1378 1.385 . S
C1380 C1378 1.478 . S
C1380 C1382 1.381 . S
C1380 C1386 1.383 . S
C1381 C1377 1.495 . S
C1381 H1387 0.959 . S
C1381 H1388 0.961 . S
C1381 H1389 0.960 . S
C1382 C1380 1.381 . S
C1382 C1383 1.394 . S
C1382 H1390 0.930 . S
C1383 C1382 1.394 . S
C1383 C1384 1.383 . S
C1383 H1391 0.929 . S
C1384 C1383 1.383 . S
C1384 C1385 1.377 . S
C1385 H1369 0.930 . S
C1385 C1384 1.377 . S
C1385 C1386 1.379 . S
C1386 H1370 0.931 . S
C1386 C1380 1.383 . S
C1386 C1385 1.379 . S
H1387 C1381 0.959 . S
H1388 C1381 0.961 . S
H1389 C1381 0.960 . S
H1390 C1382 0.930 . S
H1391 C1383 0.929 . S
H1392 C1400 0.929 . S
H1393 C1402 0.930 . S
H1394 C1404 0.930 . S
H1395 C1407 0.929 . S
H1396 C1410 0.930 . S
H1397 C1412 0.960 . S
H1398 C1412 0.960 . S
H1399 C1412 0.960 . S
C1400 H1392 0.929 . S
C1400 C1401 1.377 . S
C1400 C1402 1.384 . S
C1401 C1400 1.377 . S
C1401 C1407 1.390 . S
C1402 H1393 0.930 . S
C1402 C1400 1.384 . S
C1402 C1403 1.372 . S
C1403 C1402 1.372 . S
C1403 C1404 1.400 . S
C1403 C1408 1.490 . S
C1404 H1394 0.930 . S
C1404 C1403 1.400 . S
C1404 C1407 1.386 . S
H1405 C1421 0.930 . S
H1406 C1422 0.931 . S
C1407 H1395 0.929 . S
C1407 C1401 1.390 . S
C1407 C1404 1.386 . S
C1408 C1403 1.490 . S
C1408 C1410 1.395 . S
C1408 C1411 1.403 . S
H1409 C1415 0.930 . S
C1410 H1396 0.930 . S
C1410 C1408 1.395 . S
C1410 C1413 1.403 . S
C1411 C1408 1.403 . S
C1411 C1412 1.524 . S
C1411 C1415 1.400 . S
C1412 H1397 0.960 . S
C1412 H1398 0.960 . S
C1412 H1399 0.960 . S
C1412 C1411 1.524 . S
C1413 C1410 1.403 . S
C1413 C1414 1.392 . S
C1413 C1417 1.495 . S
C1414 C1413 1.392 . S
C1414 C1415 1.385 . S
C1414 C1416 1.478 . S
C1415 H1409 0.930 . S
C1415 C1411 1.400 . S
C1415 C1414 1.385 . S
C1416 C1414 1.478 . S
C1416 C1418 1.381 . S
C1416 C1422 1.383 . S
C1417 C1413 1.495 . S
C1417 H1423 0.959 . S
C1417 H1424 0.961 . S
C1417 H1425 0.960 . S
C1418 C1416 1.381 . S
C1418 C1419 1.394 . S
C1418 H1426 0.930 . S
C1419 C1418 1.394 . S
C1419 C1420 1.383 . S
C1419 H1427 0.929 . S
C1420 C1419 1.383 . S
C1420 C1421 1.377 . S
C1421 H1405 0.930 . S
C1421 C1420 1.377 . S
C1421 C1422 1.379 . S
C1422 H1406 0.931 . S
C1422 C1416 1.383 . S
C1422 C1421 1.379 . S
H1423 C1417 0.959 . S
H1424 C1417 0.961 . S
H1425 C1417 0.960 . S
H1426 C1418 0.930 . S
H1427 C1419 0.929 . S
H1428 C1436 0.929 . S
H1429 C1438 0.930 . S
H1430 C1440 0.930 . S
H1431 C1443 0.929 . S
H1432 C1446 0.930 . S
H1433 C1448 0.960 . S
H1434 C1448 0.960 . S
H1435 C1448 0.960 . S
C1436 H1428 0.929 . S
C1436 C1437 1.377 . S
C1436 C1438 1.384 . S
C1437 C1436 1.377 . S
C1437 C1443 1.390 . S
C1438 H1429 0.930 . S
C1438 C1436 1.384 . S
C1438 C1439 1.372 . S
C1439 C1438 1.372 . S
C1439 C1440 1.400 . S
C1439 C1444 1.490 . S
C1440 H1430 0.930 . S
C1440 C1439 1.400 . S
C1440 C1443 1.386 . S
H1441 C1457 0.930 . S
H1442 C1458 0.931 . S
C1443 H1431 0.929 . S
C1443 C1437 1.390 . S
C1443 C1440 1.386 . S
C1444 C1439 1.490 . S
C1444 C1446 1.395 . S
C1444 C1447 1.403 . S
H1445 C1451 0.930 . S
C1446 H1432 0.930 . S
C1446 C1444 1.395 . S
C1446 C1449 1.403 . S
C1447 C1444 1.403 . S
C1447 C1448 1.524 . S
C1447 C1451 1.400 . S
C1448 H1433 0.960 . S
C1448 H1434 0.960 . S
C1448 H1435 0.960 . S
C1448 C1447 1.524 . S
C1449 C1446 1.403 . S
C1449 C1450 1.392 . S
C1449 C1453 1.495 . S
C1450 C1449 1.392 . S
C1450 C1451 1.385 . S
C1450 C1452 1.478 . S
C1451 H1445 0.930 . S
C1451 C1447 1.400 . S
C1451 C1450 1.385 . S
C1452 C1450 1.478 . S
C1452 C1454 1.381 . S
C1452 C1458 1.383 . S
C1453 C1449 1.495 . S
C1453 H1459 0.959 . S
C1453 H1460 0.961 . S
C1453 H1461 0.960 . S
C1454 C1452 1.381 . S
C1454 C1455 1.394 . S
C1454 H1462 0.930 . S
C1455 C1454 1.394 . S
C1455 C1456 1.383 . S
C1455 H1463 0.929 . S
C1456 C1455 1.383 . S
C1456 C1457 1.377 . S
C1457 H1441 0.930 . S
C1457 C1456 1.377 . S
C1457 C1458 1.379 . S
C1458 H1442 0.931 . S
C1458 C1452 1.383 . S
C1458 C1457 1.379 . S
H1459 C1453 0.959 . S
H1460 C1453 0.961 . S
H1461 C1453 0.960 . S
H1462 C1454 0.930 . S
H1463 C1455 0.929 . S
H1464 C1472 0.929 . S
H1465 C1474 0.930 . S
H1466 C1476 0.930 . S
H1467 C1479 0.929 . S
H1468 C1482 0.930 . S
H1469 C1484 0.960 . S
H1470 C1484 0.960 . S
H1471 C1484 0.960 . S
C1472 H1464 0.929 . S
C1472 C1473 1.377 . S
C1472 C1474 1.384 . S
C1473 C1472 1.377 . S
C1473 C1479 1.390 . S
C1474 H1465 0.930 . S
C1474 C1472 1.384 . S
C1474 C1475 1.372 . S
C1475 C1474 1.372 . S
C1475 C1476 1.400 . S
C1475 C1480 1.490 . S
C1476 H1466 0.930 . S
C1476 C1475 1.400 . S
C1476 C1479 1.386 . S
H1477 C1493 0.930 . S
H1478 C1494 0.931 . S
C1479 H1467 0.929 . S
C1479 C1473 1.390 . S
C1479 C1476 1.386 . S
C1480 C1475 1.490 . S
C1480 C1482 1.395 . S
C1480 C1483 1.403 . S
H1481 C1487 0.930 . S
C1482 H1468 0.930 . S
C1482 C1480 1.395 . S
C1482 C1485 1.403 . S
C1483 C1480 1.403 . S
C1483 C1484 1.524 . S
C1483 C1487 1.400 . S
C1484 H1469 0.960 . S
C1484 H1470 0.960 . S
C1484 H1471 0.960 . S
C1484 C1483 1.524 . S
C1485 C1482 1.403 . S
C1485 C1486 1.392 . S
C1485 C1489 1.495 . S
C1486 C1485 1.392 . S
C1486 C1487 1.385 . S
C1486 C1488 1.478 . S
C1487 H1481 0.930 . S
C1487 C1483 1.400 . S
C1487 C1486 1.385 . S
C1488 C1486 1.478 . S
C1488 C1490 1.381 . S
C1488 C1494 1.383 . S
C1489 C1485 1.495 . S
C1489 H1495 0.959 . S
C1489 H1496 0.961 . S
C1489 H1497 0.960 . S
C1490 C1488 1.381 . S
C1490 C1491 1.394 . S
C1490 H1498 0.930 . S
C1491 C1490 1.394 . S
C1491 C1492 1.383 . S
C1491 H1499 0.929 . S
C1492 C1491 1.383 . S
C1492 C1493 1.377 . S
C1493 H1477 0.930 . S
C1493 C1492 1.377 . S
C1493 C1494 1.379 . S
C1494 H1478 0.931 . S
C1494 C1488 1.383 . S
C1494 C1493 1.379 . S
H1495 C1489 0.959 . S
H1496 C1489 0.961 . S
H1497 C1489 0.960 . S
H1498 C1490 0.930 . S
H1499 C1491 0.929 . S
C664 C577 1.561 . S
C645 C8 1.520 . S
C681 C26 1.516 . S
C700 C137 1.543 . S
C717 C50 1.527 . S
C736 C225 1.564 . S
C753 C68 1.510 . S
C772 C304 1.547 . S
C808 C401 1.553 . S
C789 C80 1.513 . S
C825 C104 1.515 . S
C844 C480 1.561 . S
C861 C32 1.527 . S
C880 C245 1.562 . S
C897 C44 1.523 . S
C916 C341 1.560 . S
C933 C62 1.513 . S
C952 C421 1.554 . S
C988 C517 1.551 . S
C969 C86 1.511 1_554 S
C1024 C597 1.543 . S
C1005 C98 1.511 . S
C1060 C157 1.560 . S
C1041 C14 1.513 . S
C1077 C7 1.463 . S
C1096 C253 1.516 . S
C1113 C25 1.465 . S
C1132 C333 1.522 . S
C1168 C429 1.510 . S
C1149 C52 1.458 . S
C1185 C70 1.458 . S
C1204 C509 1.507 1_556 S
C1240 C605 1.501 . S
C1221 C79 1.452 . S
C1276 C165 1.513 . S
C1257 C106 1.460 . S
C1312 C568 1.517 . S
C1293 C34 1.462 . S
C1329 C43 1.458 . S
C1348 C128 1.510 . S
C1384 C216 1.520 . S
C1365 C61 1.466 . S
C1401 C88 1.457 . S
C1420 C313 1.507 . S
C1437 C97 1.462 . S
C1456 C392 1.519 1_554 S
C1473 C16 1.458 . S
C1492 C489 1.506 . S
