# Generated by pormake.
# Topology ptr, (4,4)-cn, num edge types: 1
# Building blocks:
#     Node 0, Type 0, BuildingBlock: KUFVIS_clean_sbu_0, # of connection points: 4
#     Node 1, Type 0, BuildingBlock: KUFVIS_clean_sbu_0, # of connection points: 4
#     Node 2, Type 0, BuildingBlock: KUFVIS_clean_sbu_0, # of connection points: 4
#     Node 3, Type 0, BuildingBlock: KUFVIS_clean_sbu_0, # of connection points: 4
#     Node 4, Type 0, BuildingBlock: KUFVIS_clean_sbu_0, # of connection points: 4
#     Node 5, Type 0, BuildingBlock: KUFVIS_clean_sbu_0, # of connection points: 4
#     Node 6, Type 0, BuildingBlock: KUFVIS_clean_sbu_0, # of connection points: 4
#     Node 7, Type 0, BuildingBlock: KUFVIS_clean_sbu_0, # of connection points: 4
#     Node 8, Type 0, BuildingBlock: KUFVIS_clean_sbu_0, # of connection points: 4
#     Node 9, Type 0, BuildingBlock: KUFVIS_clean_sbu_0, # of connection points: 4
#     Node 10, Type 0, BuildingBlock: KUFVIS_clean_sbu_0, # of connection points: 4
#     Node 11, Type 0, BuildingBlock: KUFVIS_clean_sbu_0, # of connection points: 4
#     Node 12, Type 0, BuildingBlock: KUFVIS_clean_sbu_0, # of connection points: 4
#     Node 13, Type 0, BuildingBlock: KUFVIS_clean_sbu_0, # of connection points: 4
#     Node 14, Type 0, BuildingBlock: KUFVIS_clean_sbu_0, # of connection points: 4
#     Node 15, Type 0, BuildingBlock: KUFVIS_clean_sbu_0, # of connection points: 4
#     Node 16, Type 0, BuildingBlock: KUFVIS_clean_sbu_0, # of connection points: 4
#     Node 17, Type 0, BuildingBlock: KUFVIS_clean_sbu_0, # of connection points: 4
#     Node 18, Type 1, BuildingBlock: AZAVOO_clean_linker_0, # of connection points: 4
#     Node 19, Type 1, BuildingBlock: AZAVOO_clean_linker_0, # of connection points: 4
#     Node 20, Type 1, BuildingBlock: AZAVOO_clean_linker_0, # of connection points: 4
#     Node 21, Type 1, BuildingBlock: AZAVOO_clean_linker_0, # of connection points: 4
#     Node 22, Type 1, BuildingBlock: AZAVOO_clean_linker_0, # of connection points: 4
#     Node 23, Type 1, BuildingBlock: AZAVOO_clean_linker_0, # of connection points: 4
#     Node 24, Type 1, BuildingBlock: AZAVOO_clean_linker_0, # of connection points: 4
#     Node 25, Type 1, BuildingBlock: AZAVOO_clean_linker_0, # of connection points: 4
#     Node 26, Type 1, BuildingBlock: AZAVOO_clean_linker_0, # of connection points: 4
#     Node 27, Type 1, BuildingBlock: AZAVOO_clean_linker_0, # of connection points: 4
#     Node 28, Type 1, BuildingBlock: AZAVOO_clean_linker_0, # of connection points: 4
#     Node 29, Type 1, BuildingBlock: AZAVOO_clean_linker_0, # of connection points: 4
#     Node 30, Type 1, BuildingBlock: AZAVOO_clean_linker_0, # of connection points: 4
#     Node 31, Type 1, BuildingBlock: AZAVOO_clean_linker_0, # of connection points: 4
#     Node 32, Type 1, BuildingBlock: AZAVOO_clean_linker_0, # of connection points: 4
#     Node 33, Type 1, BuildingBlock: AZAVOO_clean_linker_0, # of connection points: 4
#     Node 34, Type 1, BuildingBlock: AZAVOO_clean_linker_0, # of connection points: 4
#     Node 35, Type 1, BuildingBlock: AZAVOO_clean_linker_0, # of connection points: 4
#     Edge 36, Type (0, 1), BuildingBlock: MIFKUJ_clean_linker_0, # of connection points: 2
#     Edge 37, Type (0, 1), BuildingBlock: MIFKUJ_clean_linker_0, # of connection points: 2
#     Edge 38, Type (0, 1), BuildingBlock: MIFKUJ_clean_linker_0, # of connection points: 2
#     Edge 39, Type (0, 1), BuildingBlock: MIFKUJ_clean_linker_0, # of connection points: 2
#     Edge 40, Type (0, 1), BuildingBlock: MIFKUJ_clean_linker_0, # of connection points: 2
#     Edge 41, Type (0, 1), BuildingBlock: MIFKUJ_clean_linker_0, # of connection points: 2
#     Edge 42, Type (0, 1), BuildingBlock: MIFKUJ_clean_linker_0, # of connection points: 2
#     Edge 43, Type (0, 1), BuildingBlock: MIFKUJ_clean_linker_0, # of connection points: 2
#     Edge 44, Type (0, 1), BuildingBlock: MIFKUJ_clean_linker_0, # of connection points: 2
#     Edge 45, Type (0, 1), BuildingBlock: MIFKUJ_clean_linker_0, # of connection points: 2
#     Edge 46, Type (0, 1), BuildingBlock: MIFKUJ_clean_linker_0, # of connection points: 2
#     Edge 47, Type (0, 1), BuildingBlock: MIFKUJ_clean_linker_0, # of connection points: 2
#     Edge 48, Type (0, 1), BuildingBlock: MIFKUJ_clean_linker_0, # of connection points: 2
#     Edge 49, Type (0, 1), BuildingBlock: MIFKUJ_clean_linker_0, # of connection points: 2
#     Edge 50, Type (0, 1), BuildingBlock: MIFKUJ_clean_linker_0, # of connection points: 2
#     Edge 51, Type (0, 1), BuildingBlock: MIFKUJ_clean_linker_0, # of connection points: 2
#     Edge 52, Type (0, 1), BuildingBlock: MIFKUJ_clean_linker_0, # of connection points: 2
#     Edge 53, Type (0, 1), BuildingBlock: MIFKUJ_clean_linker_0, # of connection points: 2
#     Edge 54, Type (0, 1), BuildingBlock: MIFKUJ_clean_linker_0, # of connection points: 2
#     Edge 55, Type (0, 1), BuildingBlock: MIFKUJ_clean_linker_0, # of connection points: 2
#     Edge 56, Type (0, 1), BuildingBlock: MIFKUJ_clean_linker_0, # of connection points: 2
#     Edge 57, Type (0, 1), BuildingBlock: MIFKUJ_clean_linker_0, # of connection points: 2
#     Edge 58, Type (0, 1), BuildingBlock: MIFKUJ_clean_linker_0, # of connection points: 2
#     Edge 59, Type (0, 1), BuildingBlock: MIFKUJ_clean_linker_0, # of connection points: 2
#     Edge 60, Type (0, 1), BuildingBlock: MIFKUJ_clean_linker_0, # of connection points: 2
#     Edge 61, Type (0, 1), BuildingBlock: MIFKUJ_clean_linker_0, # of connection points: 2
#     Edge 62, Type (0, 1), BuildingBlock: MIFKUJ_clean_linker_0, # of connection points: 2
#     Edge 63, Type (0, 1), BuildingBlock: MIFKUJ_clean_linker_0, # of connection points: 2
#     Edge 64, Type (0, 1), BuildingBlock: MIFKUJ_clean_linker_0, # of connection points: 2
#     Edge 65, Type (0, 1), BuildingBlock: MIFKUJ_clean_linker_0, # of connection points: 2
#     Edge 66, Type (0, 1), BuildingBlock: MIFKUJ_clean_linker_0, # of connection points: 2
#     Edge 67, Type (0, 1), BuildingBlock: MIFKUJ_clean_linker_0, # of connection points: 2
#     Edge 68, Type (0, 1), BuildingBlock: MIFKUJ_clean_linker_0, # of connection points: 2
#     Edge 69, Type (0, 1), BuildingBlock: MIFKUJ_clean_linker_0, # of connection points: 2
#     Edge 70, Type (0, 1), BuildingBlock: MIFKUJ_clean_linker_0, # of connection points: 2
#     Edge 71, Type (0, 1), BuildingBlock: MIFKUJ_clean_linker_0, # of connection points: 2
#     Edge 72, Type (0, 1), BuildingBlock: MIFKUJ_clean_linker_0, # of connection points: 2
#     Edge 73, Type (0, 1), BuildingBlock: MIFKUJ_clean_linker_0, # of connection points: 2
#     Edge 74, Type (0, 1), BuildingBlock: MIFKUJ_clean_linker_0, # of connection points: 2
#     Edge 75, Type (0, 1), BuildingBlock: MIFKUJ_clean_linker_0, # of connection points: 2
#     Edge 76, Type (0, 1), BuildingBlock: MIFKUJ_clean_linker_0, # of connection points: 2
#     Edge 77, Type (0, 1), BuildingBlock: MIFKUJ_clean_linker_0, # of connection points: 2
#     Edge 78, Type (0, 1), BuildingBlock: MIFKUJ_clean_linker_0, # of connection points: 2
#     Edge 79, Type (0, 1), BuildingBlock: MIFKUJ_clean_linker_0, # of connection points: 2
#     Edge 80, Type (0, 1), BuildingBlock: MIFKUJ_clean_linker_0, # of connection points: 2
#     Edge 81, Type (0, 1), BuildingBlock: MIFKUJ_clean_linker_0, # of connection points: 2
#     Edge 82, Type (0, 1), BuildingBlock: MIFKUJ_clean_linker_0, # of connection points: 2
#     Edge 83, Type (0, 1), BuildingBlock: MIFKUJ_clean_linker_0, # of connection points: 2
#     Edge 84, Type (0, 1), BuildingBlock: MIFKUJ_clean_linker_0, # of connection points: 2
#     Edge 85, Type (0, 1), BuildingBlock: MIFKUJ_clean_linker_0, # of connection points: 2
#     Edge 86, Type (0, 1), BuildingBlock: MIFKUJ_clean_linker_0, # of connection points: 2
#     Edge 87, Type (0, 1), BuildingBlock: MIFKUJ_clean_linker_0, # of connection points: 2
#     Edge 88, Type (0, 1), BuildingBlock: MIFKUJ_clean_linker_0, # of connection points: 2
#     Edge 89, Type (0, 1), BuildingBlock: MIFKUJ_clean_linker_0, # of connection points: 2
#     Edge 90, Type (0, 1), BuildingBlock: MIFKUJ_clean_linker_0, # of connection points: 2
#     Edge 91, Type (0, 1), BuildingBlock: MIFKUJ_clean_linker_0, # of connection points: 2
#     Edge 92, Type (0, 1), BuildingBlock: MIFKUJ_clean_linker_0, # of connection points: 2
#     Edge 93, Type (0, 1), BuildingBlock: MIFKUJ_clean_linker_0, # of connection points: 2
#     Edge 94, Type (0, 1), BuildingBlock: MIFKUJ_clean_linker_0, # of connection points: 2
#     Edge 95, Type (0, 1), BuildingBlock: MIFKUJ_clean_linker_0, # of connection points: 2
#     Edge 96, Type (0, 1), BuildingBlock: MIFKUJ_clean_linker_0, # of connection points: 2
#     Edge 97, Type (0, 1), BuildingBlock: MIFKUJ_clean_linker_0, # of connection points: 2
#     Edge 98, Type (0, 1), BuildingBlock: MIFKUJ_clean_linker_0, # of connection points: 2
#     Edge 99, Type (0, 1), BuildingBlock: MIFKUJ_clean_linker_0, # of connection points: 2
#     Edge 100, Type (0, 1), BuildingBlock: MIFKUJ_clean_linker_0, # of connection points: 2
#     Edge 101, Type (0, 1), BuildingBlock: MIFKUJ_clean_linker_0, # of connection points: 2
#     Edge 102, Type (0, 1), BuildingBlock: MIFKUJ_clean_linker_0, # of connection points: 2
#     Edge 103, Type (0, 1), BuildingBlock: MIFKUJ_clean_linker_0, # of connection points: 2
#     Edge 104, Type (0, 1), BuildingBlock: MIFKUJ_clean_linker_0, # of connection points: 2
#     Edge 105, Type (0, 1), BuildingBlock: MIFKUJ_clean_linker_0, # of connection points: 2
#     Edge 106, Type (0, 1), BuildingBlock: MIFKUJ_clean_linker_0, # of connection points: 2
#     Edge 107, Type (0, 1), BuildingBlock: MIFKUJ_clean_linker_0, # of connection points: 2
# Relax obj value: 0.054
# Max RMSD: 0.197
# Mean RMSD: 0.131
data_MOF--net-ptr--node1-KUFVIS_clean_sbu_0--node2-AZAVOO_clean_linker_0--edge1-MIFKUJ_clean_linker_0
_symmetry_space_group_name_H-M    P1
_symmetry_Int_Tables_number       1
_symmetry_cell_setting            triclinic
loop_
_symmetry_equiv_pos_as_xyz
'x, y, z'
_cell_length_a     101.73263
_cell_length_b     99.819199
_cell_length_c     86.394579
_cell_angle_alpha  92.080997
_cell_angle_beta   92.731812
_cell_angle_gamma 119.60888
loop_
_atom_site_label
_atom_site_type_symbol
_atom_site_fract_x
_atom_site_fract_y
_atom_site_fract_z
_atom_type_partial_charge
Mn0 Mn 0.0084 0.36182 0.0135 0.0
Mn1 Mn 0.04322 0.39337 0.01878 0.0
C2 C 0.01433 0.38265 0.99874 0.0
C3 C 0.99252 0.33703 0.0021 0.0
C4 C 0.01803 0.38708 0.03978 0.0
O5 O 0.0203 0.35412 0.0262 0.0
O6 O 0.04316 0.37553 0.02828 0.0
C7 C 0.0588 0.38171 0.99883 0.0
N8 N 0.05508 0.39273 0.00257 0.0
C9 C 0.06944 0.40833 0.9824 0.0
C10 C 0.07351 0.3972 0.97839 0.0
C11 C 0.06812 0.38381 0.98661 0.0
C12 C 0.06008 0.40557 0.99465 0.0
H13 H 0.05469 0.3714 0.00511 0.0
C14 C 0.0343 0.3614 0.0308 0.0
O15 O 0.98945 0.34176 0.01492 0.0
O16 O 0.00481 0.3467 0.99596 0.0
N17 N 0.04552 0.41172 0.01028 0.0
C18 C 0.04028 0.42116 0.0154 0.0
C19 C 0.04473 0.43512 0.00849 0.0
C20 C 0.05462 0.43927 0.99653 0.0
C21 C 0.05986 0.4294 0.99145 0.0
C22 C 0.05521 0.41575 0.9989 0.0
H23 H 0.0328 0.41808 0.0247 0.0
O24 O 1.00033 0.37228 1.00011 0.0
O25 O 0.02461 0.38017 0.00547 0.0
O26 O 0.00805 0.37429 0.03276 0.0
O27 O 0.03154 0.395 0.03561 0.0
C28 C 0.06948 0.43257 0.97924 0.0
C29 C 0.07419 0.42199 0.97466 0.0
H30 H 0.0807 0.39878 0.96898 0.0
H31 H 0.07117 0.37513 0.98355 0.0
H32 H 0.04066 0.44273 0.01247 0.0
H33 H 0.05828 0.45011 0.99143 0.0
H34 H 0.07319 0.44304 0.97321 0.0
H35 H 0.08146 0.42446 0.96516 0.0
Mn36 Mn 0.63343 0.62602 0.06016 0.0
Mn37 Mn 0.63554 0.59408 0.05055 0.0
C38 C 0.62053 0.60411 0.07368 0.0
C39 C 0.64324 0.65015 0.07333 0.0
C40 C 0.6147 0.60262 0.03287 0.0
O41 O 0.6512 0.63431 0.04666 0.0
O42 O 0.6515 0.61235 0.04096 0.0
C43 C 0.66519 0.60439 0.06781 0.0
N44 N 0.65025 0.59367 0.06481 0.0
C45 C 0.65249 0.57642 0.08204 0.0
C46 C 0.66792 0.5872 0.08524 0.0
C47 C 0.67427 0.60131 0.07817 0.0
C48 C 0.64395 0.58026 0.07184 0.0
H49 H 0.67015 0.6152 0.06232 0.0
C50 C 0.65674 0.62685 0.04 0.0
O51 O 0.63404 0.64623 0.06095 0.0
O52 O 0.64675 0.64005 0.07811 0.0
N53 N 0.62124 0.57531 0.05889 0.0
C54 C 0.60617 0.56621 0.05467 0.0
C55 C 0.5981 0.55168 0.0607 0.0
C56 C 0.60569 0.5465 0.07067 0.0
C57 C 0.62123 0.55601 0.07478 0.0
C58 C 0.62864 0.57044 0.06853 0.0
H59 H 0.60038 0.57001 0.04677 0.0
O60 O 0.61677 0.61477 0.07389 0.0
O61 O 0.63226 0.60681 0.06605 0.0
O62 O 0.61887 0.61528 0.04081 0.0
O63 O 0.6199 0.59354 0.03559 0.0
C64 C 0.62973 0.55166 0.08458 0.0
C65 C 0.64528 0.56193 0.08843 0.0
H66 H 0.67499 0.58478 0.09309 0.0
H67 H 0.68615 0.60972 0.08061 0.0
H68 H 0.58611 0.54438 0.05746 0.0
H69 H 0.59951 0.53513 0.07493 0.0
H70 H 0.62448 0.54037 0.0891 0.0
H71 H 0.65163 0.55849 0.09613 0.0
Mn72 Mn 0.37147 0.99582 0.02065 0.0
Mn73 Mn 0.40431 0.02978 0.02291 0.0
C74 C 0.39175 0.99909 0.03674 0.0
C75 C 0.34739 0.9809 0.02946 0.0
C76 C 0.39476 0.00553 0.99609 0.0
O77 O 0.36527 0.01031 0.01111 0.0
O78 O 0.38749 0.03262 0.01392 0.0
C79 C 0.39679 0.04659 0.04661 0.0
N80 N 0.40604 0.04127 0.04181 0.0
C81 C 0.42284 0.0527 0.06492 0.0
C82 C 0.41354 0.05839 0.07007 0.0
C83 C 0.40044 0.05528 0.06089 0.0
C84 C 0.41865 0.04416 0.05057 0.0
H85 H 0.3867 0.04421 0.0396 0.0
C86 C 0.3733 0.02477 0.00969 0.0
O87 O 0.35049 0.97786 0.01578 0.0
O88 O 0.35815 0.99259 0.03775 0.0
N89 N 0.42156 0.02894 0.0315 0.0
C90 C 0.42881 0.02185 0.0253 0.0
C91 C 0.44185 0.02335 0.03333 0.0
C92 C 0.44741 0.03226 0.04753 0.0
C93 C 0.43987 0.03961 0.05358 0.0
C94 C 0.42693 0.03771 0.04506 0.0
H95 H 0.4246 0.01502 0.01438 0.0
O96 O 0.38091 0.98534 0.03209 0.0
O97 O 0.39029 0.01055 0.03198 0.0
O98 O 0.38217 0.99552 0.00103 0.0
O99 O 0.40363 0.0186 0.00336 0.0
C100 C 0.44452 0.04852 0.06786 0.0
C101 C 0.43597 0.055 0.07356 0.0
H102 H 0.41628 0.06505 0.0811 0.0
H103 H 0.39317 0.05957 0.06481 0.0
H104 H 0.4476 0.01764 0.02859 0.0
H105 H 0.45741 0.0333 0.05374 0.0
H106 H 0.45456 0.05033 0.07465 0.0
H107 H 0.43953 0.06161 0.08468 0.0
Mn108 Mn 0.99237 0.64143 0.03698 0.0
Mn109 Mn 0.02468 0.63962 0.04059 0.0
C110 C 0.99507 0.62369 0.02156 0.0
C111 C 0.97856 0.65203 0.02573 0.0
C112 C 0.99973 0.62509 0.06254 0.0
O113 O 0.00688 0.66166 0.04917 0.0
O114 O 0.02767 0.65917 0.05097 0.0
C115 C 0.04241 0.66534 0.02088 0.0
N116 N 0.03677 0.65029 0.0241 0.0
C117 C 0.04805 0.64549 0.00225 0.0
C118 C 0.05404 0.66095 0.99877 0.0
C119 C 0.05118 0.6709 0.00811 0.0
C120 C 0.03936 0.64059 0.01511 0.0
H121 H 0.0402 0.67303 0.02799 0.0
C122 C 0.02071 0.66666 0.0537 0.0
O123 O 0.9752 0.64564 0.03889 0.0
O124 O 0.99008 0.65254 0.0194 0.0
N125 N 0.02393 0.6216 0.03106 0.0
C126 C 0.01748 0.60706 0.03607 0.0
C127 C 0.0194 0.59571 0.02809 0.0
C128 C 0.02815 0.59949 0.01519 0.0
C129 C 0.03494 0.61459 0.01042 0.0
C130 C 0.03275 0.62545 0.01894 0.0
H131 H 0.011 0.60417 0.04613 0.0
O132 O 0.9817 0.62167 0.02373 0.0
O133 O 0.00651 0.63618 0.02821 0.0
O134 O 0.99103 0.6296 0.05641 0.0
O135 O 0.01243 0.62795 0.05751 0.0
C136 C 0.04376 0.6193 0.99752 0.0
C137 C 0.05024 0.63471 0.99339 0.0
H138 H 0.06081 0.66529 0.98892 0.0
H139 H 0.05572 0.68284 0.00546 0.0
H140 H 0.01422 0.5841 0.03192 0.0
H141 H 0.02969 0.59074 0.00911 0.0
H142 H 0.04554 0.61112 0.99064 0.0
H143 H 0.0569 0.63817 0.98337 0.0
Mn144 Mn 0.36943 0.38035 0.00956 0.0
Mn145 Mn 0.39758 0.3742 0.99892 0.0
C146 C 0.39243 0.39221 0.02413 0.0
C147 C 0.34736 0.37214 0.02244 0.0
C148 C 0.38895 0.39551 0.9828 0.0
O149 O 0.35864 0.36148 0.99428 0.0
O150 O 0.37787 0.35715 0.98955 0.0
C151 C 0.38985 0.34611 0.01554 0.0
N152 N 0.39996 0.36099 0.01285 0.0
C153 C 0.4188 0.36136 0.03105 0.0
C154 C 0.40863 0.34601 0.03396 0.0
C155 C 0.39408 0.33837 0.02619 0.0
C156 C 0.41396 0.36846 0.02028 0.0
H157 H 0.37865 0.34021 0.00961 0.0
C158 C 0.36391 0.35356 0.98797 0.0
O159 O 0.35033 0.38116 0.01108 0.0
O160 O 0.35725 0.36801 0.02632 0.0
N161 N 0.41725 0.38978 0.00725 0.0
C162 C 0.4254 0.40478 0.00365 0.0
C163 C 0.44014 0.41411 0.01058 0.0
C164 C 0.44633 0.40791 0.02105 0.0
C165 C 0.43772 0.39247 0.02462 0.0
C166 C 0.42316 0.38368 0.01723 0.0
H167 H 0.42071 0.40957 0.99555 0.0
O168 O 0.3831 0.39749 0.02514 0.0
O169 O 0.38781 0.37988 0.01489 0.0
O170 O 0.37894 0.39442 0.99181 0.0
O171 O 0.39615 0.3881 0.9841 0.0
C172 C 0.44295 0.38548 0.03528 0.0
C173 C 0.43347 0.36996 0.03855 0.0
H174 H 0.41183 0.34001 0.04221 0.0
H175 H 0.38615 0.32654 0.02841 0.0
H176 H 0.44673 0.42605 0.00783 0.0
H177 H 0.45772 0.4151 0.02621 0.0
H178 H 0.45419 0.39196 0.04114 0.0
H179 H 0.43755 0.36477 0.04691 0.0
Mn180 Mn 0.63153 0.01066 0.03999 0.0
Mn181 Mn 0.59858 0.97681 0.03753 0.0
C182 C 0.61221 0.00667 0.02209 0.0
C183 C 0.65621 0.02485 0.03267 0.0
C184 C 0.60719 0.00218 0.063 0.0
O185 O 0.6369 0.99664 0.05175 0.0
O186 O 0.61498 0.97408 0.04785 0.0
C187 C 0.60666 0.95908 0.01553 0.0
N188 N 0.59736 0.9647 0.0193 0.0
C189 C 0.58164 0.95317 0.99554 0.0
C190 C 0.59099 0.94716 0.99146 0.0
C191 C 0.60356 0.95016 0.00149 0.0
C192 C 0.58524 0.96189 0.00973 0.0
H193 H 0.61638 0.96143 0.02317 0.0
C194 C 0.62891 0.98216 0.05308 0.0
O195 O 0.65221 0.02874 0.04538 0.0
O196 O 0.64594 0.01279 0.02437 0.0
N197 N 0.58179 0.97768 0.02762 0.0
C198 C 0.57446 0.9851 0.0328 0.0
C199 C 0.56182 0.9836 0.02392 0.0
C200 C 0.55682 0.97448 0.00983 0.0
C201 C 0.56449 0.9669 0.00477 0.0
C202 C 0.57691 0.96867 0.0142 0.0
H203 H 0.57832 0.99224 0.04354 0.0
O204 O 0.62293 0.02058 0.02635 0.0
O205 O 0.61327 0.99551 0.02823 0.0
O206 O 0.61984 0.01203 0.05813 0.0
O207 O 0.59867 0.98871 0.05634 0.0
C208 C 0.56051 0.95794 0.99056 0.0
C209 C 0.56909 0.95109 0.98594 0.0
H210 H 0.58869 0.94036 0.98059 0.0
H211 H 0.61088 0.94564 0.99838 0.0
H212 H 0.55601 0.98956 0.02787 0.0
H213 H 0.54717 0.97349 0.00293 0.0
H214 H 0.55101 0.95644 0.98299 0.0
H215 H 0.56605 0.94442 0.97489 0.0
Mn216 Mn 0.66695 0.69702 0.35206 0.0
Mn217 Mn 0.70069 0.73007 0.35654 0.0
C218 C 0.67261 0.71587 0.33479 0.0
C219 C 0.65215 0.67149 0.34227 0.0
C220 C 0.67435 0.72368 0.37589 0.0
O221 O 0.67931 0.69154 0.36696 0.0
O222 O 0.70166 0.7137 0.36814 0.0
C223 C 0.71888 0.71936 0.33977 0.0
N224 N 0.71378 0.72958 0.34167 0.0
C225 C 0.72838 0.74449 0.32125 0.0
C226 C 0.73386 0.73418 0.31913 0.0
C227 C 0.72905 0.72153 0.3284 0.0
C228 C 0.71826 0.74172 0.33275 0.0
H229 H 0.71524 0.70964 0.34688 0.0
C230 C 0.69325 0.69976 0.37172 0.0
O231 O 0.64837 0.67684 0.35415 0.0
O232 O 0.6647 0.68086 0.33636 0.0
N233 N 0.70169 0.74699 0.34587 0.0
C234 C 0.69474 0.7554 0.34886 0.0
C235 C 0.698 0.76823 0.34028 0.0
C236 C 0.70853 0.77243 0.32891 0.0
C237 C 0.71568 0.76371 0.32618 0.0
C238 C 0.71196 0.75103 0.33508 0.0
H239 H 0.68673 0.75229 0.35766 0.0
O240 O 0.65866 0.70546 0.33629 0.0
O241 O 0.68297 0.7148 0.34323 0.0
O242 O 0.66504 0.71038 0.36938 0.0
O243 O 0.68794 0.73184 0.37209 0.0
C244 C 0.72617 0.76697 0.31484 0.0
C245 C 0.73244 0.75731 0.31231 0.0
H246 H 0.7417 0.73581 0.31037 0.0
H247 H 0.73318 0.71349 0.32679 0.0
H248 H 0.69244 0.77489 0.34245 0.0
H249 H 0.71098 0.78231 0.3223 0.0
H250 H 0.72939 0.77679 0.30787 0.0
H251 H 0.74032 0.7598 0.30339 0.0
Mn252 Mn 0.2992 0.96144 0.39292 0.0
Mn253 Mn 0.29571 0.92596 0.39041 0.0
C254 C 0.28441 0.94328 0.40955 0.0
C255 C 0.3122 0.98721 0.40239 0.0
C256 C 0.2786 0.93578 0.36815 0.0
O257 O 0.3165 0.96451 0.38 0.0
O258 O 0.31373 0.9407 0.37975 0.0
C259 C 0.32337 0.9333 0.41009 0.0
N260 N 0.30807 0.92466 0.40697 0.0
C261 C 0.3057 0.9093 0.42861 0.0
C262 C 0.32144 0.91797 0.432 0.0
C263 C 0.3303 0.93006 0.42273 0.0
C264 C 0.29942 0.91311 0.41591 0.0
H265 H 0.33022 0.94258 0.40297 0.0
C266 C 0.32063 0.95478 0.37614 0.0
O267 O 0.30325 0.98276 0.38977 0.0
O268 O 0.31377 0.97674 0.40937 0.0
N269 N 0.2789 0.91039 0.40021 0.0
C270 C 0.26382 0.90346 0.39568 0.0
C271 C 0.25336 0.89134 0.40398 0.0
C272 C 0.25851 0.8863 0.41665 0.0
C273 C 0.2741 0.89339 0.42089 0.0
C274 C 0.28398 0.90544 0.41223 0.0
H275 H 0.25981 0.90722 0.38588 0.0
O276 O 0.28251 0.95497 0.40706 0.0
O277 O 0.29517 0.94271 0.4025 0.0
O278 O 0.28387 0.94941 0.37441 0.0
O279 O 0.28235 0.92614 0.37316 0.0
C280 C 0.28021 0.88907 0.43345 0.0
C281 C 0.29598 0.8971 0.43739 0.0
H282 H 0.32683 0.91549 0.44173 0.0
H283 H 0.34245 0.93684 0.4253 0.0
H284 H 0.24135 0.8859 0.4006 0.0
H285 H 0.25041 0.87699 0.42307 0.0
H286 H 0.27287 0.87966 0.44025 0.0
H287 H 0.30051 0.89381 0.44722 0.0
Mn288 Mn 0.04373 0.32469 0.35654 0.0
Mn289 Mn 0.07648 0.35828 0.35563 0.0
C290 C 0.06419 0.32989 0.37358 0.0
C291 C 0.01952 0.31121 0.36538 0.0
C292 C 0.06561 0.33139 0.33138 0.0
O293 O 0.03778 0.33804 0.34393 0.0
O294 O 0.05943 0.36096 0.34738 0.0
C295 C 0.0717 0.37785 0.37866 0.0
N296 N 0.08012 0.37158 0.37371 0.0
C297 C 0.09903 0.38487 0.39494 0.0
C298 C 0.09061 0.39155 0.40022 0.0
C299 C 0.07686 0.38798 0.39207 0.0
C300 C 0.09332 0.37485 0.38151 0.0
H301 H 0.06114 0.37515 0.3724 0.0
C302 C 0.04542 0.35259 0.34257 0.0
O303 O 0.02293 0.30644 0.35281 0.0
O304 O 0.03011 0.32379 0.37274 0.0
N305 N 0.09386 0.35727 0.36349 0.0
C306 C 0.10003 0.34898 0.35753 0.0
C307 C 0.11351 0.35072 0.36471 0.0
C308 C 0.1206 0.36109 0.37782 0.0
C309 C 0.1141 0.36958 0.38367 0.0
C310 C 0.10062 0.36731 0.37607 0.0
H311 H 0.09469 0.34107 0.3474 0.0
O312 O 0.05317 0.31582 0.37068 0.0
O313 O 0.06269 0.34048 0.36671 0.0
O314 O 0.0542 0.32162 0.33815 0.0
O315 O 0.07406 0.34543 0.33657 0.0
C316 C 0.12036 0.38005 0.39686 0.0
C317 C 0.11277 0.38759 0.40258 0.0
H318 H 0.09454 0.39935 0.41057 0.0
H319 H 0.07026 0.39304 0.39611 0.0
H320 H 0.11844 0.34411 0.36013 0.0
H321 H 0.13098 0.36237 0.38335 0.0
H322 H 0.13089 0.3822 0.40285 0.0
H323 H 0.11753 0.39536 0.41294 0.0
Mn324 Mn 0.66177 0.96772 0.37242 0.0
Mn325 Mn 0.69504 0.96818 0.37866 0.0
C326 C 0.66712 0.952 0.35688 0.0
C327 C 0.6478 0.97783 0.36071 0.0
C328 C 0.66851 0.95183 0.3986 0.0
O329 O 0.67451 0.98735 0.38632 0.0
O330 O 0.69683 0.98762 0.38794 0.0
C331 C 0.7136 0.9937 0.35912 0.0
N332 N 0.70802 0.97878 0.36273 0.0
C333 C 0.72081 0.974 0.34233 0.0
C334 C 0.7268 0.98936 0.33849 0.0
C335 C 0.72315 0.99924 0.3469 0.0
C336 C 0.71141 0.96915 0.35466 0.0
H337 H 0.71074 0.00131 0.36548 0.0
C338 C 0.68858 0.99372 0.39071 0.0
O339 O 0.64353 0.97019 0.37307 0.0
O340 O 0.66034 0.9799 0.35541 0.0
N341 N 0.69506 0.95021 0.37013 0.0
C342 C 0.68796 0.93558 0.37494 0.0
C343 C 0.6902 0.92419 0.36753 0.0
C344 C 0.69983 0.92798 0.35536 0.0
C345 C 0.7072 0.94315 0.35075 0.0
C346 C 0.70465 0.95405 0.35867 0.0
H347 H 0.68063 0.93262 0.38435 0.0
O348 O 0.65324 0.94897 0.35774 0.0
O349 O 0.67748 0.9643 0.3649 0.0
O350 O 0.65923 0.95463 0.39092 0.0
O351 O 0.68218 0.95661 0.39532 0.0
C352 C 0.71681 0.94783 0.33846 0.0
C353 C 0.72358 0.96324 0.33423 0.0
H354 H 0.7341 0.99366 0.32903 0.0
H355 H 0.72764 0.01109 0.34394 0.0
H356 H 0.6845 0.91251 0.37119 0.0
H357 H 0.70146 0.91914 0.34961 0.0
H358 H 0.71891 0.93963 0.33205 0.0
H359 H 0.73078 0.96665 0.32462 0.0
Mn360 Mn 0.0363 0.71395 0.34527 0.0
Mn361 Mn 0.07036 0.71583 0.34582 0.0
C362 C 0.05533 0.72993 0.36381 0.0
C363 C 0.01166 0.70195 0.35322 0.0
C364 C 0.06011 0.7315 0.32247 0.0
O365 O 0.03203 0.69493 0.3317 0.0
O366 O 0.05475 0.69616 0.33453 0.0
C367 C 0.06421 0.6902 0.3658 0.0
N368 N 0.07262 0.70539 0.36297 0.0
C369 C 0.08866 0.71074 0.3864 0.0
C370 C 0.08024 0.69514 0.38951 0.0
C371 C 0.06794 0.68483 0.37918 0.0
C372 C 0.08446 0.7154 0.37283 0.0
H373 H 0.05471 0.68227 0.35792 0.0
C374 C 0.04081 0.68947 0.32927 0.0
O375 O 0.01502 0.70973 0.34086 0.0
O376 O 0.02246 0.70088 0.36057 0.0
N377 N 0.08644 0.73424 0.35649 0.0
C378 C 0.0929 0.74905 0.35222 0.0
C379 C 0.10512 0.76087 0.36155 0.0
C380 C 0.11063 0.75734 0.37511 0.0
C381 C 0.10389 0.74199 0.37919 0.0
C382 C 0.09184 0.73067 0.36936 0.0
H383 H 0.08871 0.75185 0.34183 0.0
O384 O 0.0441 0.73229 0.36048 0.0
O385 O 0.05497 0.71824 0.35628 0.0
O386 O 0.0474 0.72793 0.32791 0.0
O387 O 0.06917 0.72719 0.32807 0.0
C388 C 0.10847 0.73752 0.39277 0.0
C389 C 0.10085 0.72191 0.39639 0.0
H390 H 0.08301 0.69097 0.39987 0.0
H391 H 0.06134 0.67279 0.38155 0.0
H392 H 0.11025 0.77269 0.35833 0.0
H393 H 0.11996 0.76651 0.38235 0.0
H394 H 0.1177 0.74603 0.40064 0.0
H395 H 0.10433 0.71865 0.40698 0.0
Mn396 Mn 0.29485 0.34439 0.37661 0.0
Mn397 Mn 0.26365 0.30995 0.38039 0.0
C398 C 0.27343 0.33663 0.36003 0.0
C399 C 0.31837 0.35853 0.36658 0.0
C400 C 0.2726 0.33859 0.40151 0.0
O401 O 0.30291 0.3335 0.39018 0.0
O402 O 0.2818 0.31043 0.39065 0.0
C403 C 0.27168 0.29024 0.36119 0.0
N404 N 0.26177 0.29522 0.36443 0.0
C405 C 0.24349 0.27769 0.34434 0.0
C406 C 0.25346 0.2723 0.34084 0.0
C407 C 0.26764 0.27865 0.34926 0.0
C408 C 0.24815 0.28927 0.35634 0.0
H409 H 0.28257 0.29507 0.36766 0.0
C410 C 0.29596 0.31963 0.39409 0.0
O411 O 0.31495 0.3637 0.37887 0.0
O412 O 0.30816 0.34519 0.3602 0.0
N413 N 0.24512 0.30747 0.37098 0.0
C414 C 0.23724 0.31461 0.37518 0.0
C415 C 0.22281 0.30964 0.36787 0.0
C416 C 0.21663 0.29737 0.35638 0.0
C417 C 0.22506 0.29039 0.35205 0.0
C418 C 0.23926 0.29565 0.35993 0.0
H419 H 0.24188 0.32393 0.38412 0.0
O420 O 0.28383 0.35106 0.36203 0.0
O421 O 0.27604 0.32696 0.36752 0.0
O422 O 0.28446 0.34781 0.39493 0.0
O423 O 0.26434 0.3243 0.39711 0.0
C424 C 0.21997 0.27849 0.34017 0.0
C425 C 0.22922 0.27221 0.33626 0.0
H426 H 0.2504 0.26338 0.33163 0.0
H427 H 0.27543 0.2746 0.34658 0.0
H428 H 0.2164 0.31514 0.37123 0.0
H429 H 0.20539 0.29334 0.35097 0.0
H430 H 0.20904 0.27422 0.33384 0.0
H431 H 0.22529 0.26323 0.32694 0.0
Mn432 Mn 0.33533 0.03508 0.68608 0.0
Mn433 Mn 0.36836 0.06807 0.69536 0.0
C434 C 0.34274 0.05552 0.67036 0.0
C435 C 0.32196 0.01006 0.67458 0.0
C436 C 0.33981 0.05879 0.71195 0.0
O437 O 0.34632 0.02877 0.70201 0.0
O438 O 0.36897 0.05068 0.705 0.0
C439 C 0.3892 0.06104 0.67869 0.0
N440 N 0.38292 0.07016 0.68108 0.0
C441 C 0.39919 0.08843 0.66367 0.0
C442 C 0.40585 0.07923 0.661 0.0
C443 C 0.40075 0.06542 0.66846 0.0
C444 C 0.38745 0.08325 0.67365 0.0
H445 H 0.38552 0.05059 0.68466 0.0
C446 C 0.36004 0.03659 0.70767 0.0
O447 O 0.31676 0.01458 0.68584 0.0
O448 O 0.33508 0.02003 0.67009 0.0
N449 N 0.36953 0.08607 0.68701 0.0
C450 C 0.36309 0.09444 0.69209 0.0
C451 C 0.36704 0.10863 0.68587 0.0
C452 C 0.37798 0.11437 0.67492 0.0
C453 C 0.38502 0.10594 0.67047 0.0
C454 C 0.38043 0.09173 0.67686 0.0
H455 H 0.35494 0.0903 0.70078 0.0
O456 O 0.32871 0.04456 0.66974 0.0
O457 O 0.35214 0.05394 0.67983 0.0
O458 O 0.33102 0.04683 0.70311 0.0
O459 O 0.35401 0.06707 0.71049 0.0
C460 C 0.39684 0.1114 0.66043 0.0
C461 C 0.40399 0.1027 0.65712 0.0
H462 H 0.41494 0.08271 0.65333 0.0
H463 H 0.40586 0.05829 0.66651 0.0
H464 H 0.36178 0.11521 0.68962 0.0
H465 H 0.38113 0.12541 0.67028 0.0
H466 H 0.40071 0.12239 0.65539 0.0
H467 H 0.41329 0.10722 0.64966 0.0
Mn468 Mn 0.9639 0.29014 0.72202 0.0
Mn469 Mn 0.96529 0.25708 0.71883 0.0
C470 C 0.94893 0.26995 0.73659 0.0
C471 C 0.97346 0.31515 0.73295 0.0
C472 C 0.94864 0.26585 0.69485 0.0
O473 O 0.98316 0.29629 0.71111 0.0
O474 O 0.98409 0.27421 0.71138 0.0
C475 C 0.99056 0.26537 0.74253 0.0
N476 N 0.97591 0.25575 0.73703 0.0
C477 C 0.97161 0.23944 0.75825 0.0
C478 C 0.98668 0.24912 0.76409 0.0
C479 C 0.99618 0.26216 0.75622 0.0
C480 C 0.96664 0.24324 0.74457 0.0
H481 H 0.99787 0.27543 0.73654 0.0
C482 C 0.98963 0.28839 0.70832 0.0
O483 O 0.96584 0.31074 0.71949 0.0
O484 O 0.97573 0.30509 0.73993 0.0
N485 N 0.94788 0.23951 0.72564 0.0
C486 C 0.93355 0.23155 0.71865 0.0
C487 C 0.92258 0.21827 0.72516 0.0
C488 C 0.92649 0.21322 0.73868 0.0
C489 C 0.94137 0.22144 0.74551 0.0
C490 C 0.95184 0.23455 0.73844 0.0
H491 H 0.93049 0.23535 0.70823 0.0
O492 O 0.94563 0.28074 0.73418 0.0
O493 O 0.9611 0.2715 0.7307 0.0
O494 O 0.95098 0.27826 0.70216 0.0
O495 O 0.95385 0.25734 0.69977 0.0
C496 C 0.9462 0.21723 0.75911 0.0
C497 C 0.96128 0.22628 0.76554 0.0
H498 H 0.99106 0.2467 0.77466 0.0
H499 H 0.00781 0.26972 0.7607 0.0
H500 H 0.91112 0.21196 0.7198 0.0
H501 H 0.91796 0.20304 0.74375 0.0
H502 H 0.93836 0.20714 0.76482 0.0
H503 H 0.9648 0.22304 0.77612 0.0
Mn504 Mn 0.71048 0.66147 0.68533 0.0
Mn505 Mn 0.74034 0.696 0.67888 0.0
C506 C 0.73348 0.67013 0.6995 0.0
C507 C 0.68827 0.64733 0.69779 0.0
C508 C 0.72944 0.6672 0.6574 0.0
O509 O 0.7008 0.67193 0.67323 0.0
O510 O 0.72128 0.69531 0.67137 0.0
C511 C 0.73471 0.71613 0.70031 0.0
N512 N 0.74394 0.71076 0.69557 0.0
C513 C 0.7638 0.72762 0.71477 0.0
C514 C 0.75453 0.73337 0.71984 0.0
C515 C 0.73991 0.72758 0.71259 0.0
C516 C 0.75802 0.71624 0.70246 0.0
H517 H 0.72348 0.71174 0.69474 0.0
C518 C 0.70703 0.68579 0.66921 0.0
O519 O 0.69054 0.642 0.68485 0.0
O520 O 0.69892 0.66079 0.70345 0.0
N521 N 0.75953 0.69832 0.68572 0.0
C522 C 0.76673 0.69103 0.67989 0.0
C523 C 0.78141 0.69532 0.68602 0.0
C524 C 0.78852 0.70711 0.69796 0.0
C525 C 0.78086 0.71439 0.70382 0.0
C526 C 0.7663 0.70971 0.69719 0.0
H527 H 0.76135 0.68205 0.67062 0.0
O528 O 0.72332 0.65557 0.69836 0.0
O529 O 0.7297 0.67924 0.69256 0.0
O530 O 0.71904 0.65783 0.66555 0.0
O531 O 0.73769 0.68163 0.66118 0.0
C532 C 0.78705 0.72606 0.71601 0.0
C533 C 0.7785 0.73261 0.72154 0.0
H534 H 0.75849 0.74217 0.72933 0.0
H535 H 0.73268 0.73195 0.71643 0.0
H536 H 0.78727 0.68963 0.68148 0.0
H537 H 0.79988 0.71053 0.70247 0.0
H538 H 0.79833 0.73004 0.72128 0.0
H539 H 0.78332 0.74144 0.73104 0.0
Mn540 Mn 0.33044 0.30633 0.7034 0.0
Mn541 Mn 0.36292 0.30508 0.70733 0.0
C542 C 0.33376 0.28957 0.68709 0.0
C543 C 0.31739 0.31804 0.69299 0.0
C544 C 0.33775 0.29089 0.72939 0.0
O545 O 0.34472 0.32571 0.71715 0.0
O546 O 0.36683 0.32577 0.71539 0.0
C547 C 0.38089 0.328 0.68516 0.0
N548 N 0.37479 0.31344 0.69004 0.0
C549 C 0.38533 0.30567 0.66953 0.0
C550 C 0.39188 0.32065 0.6644 0.0
C551 C 0.3896 0.33184 0.67222 0.0
C552 C 0.37683 0.30255 0.68255 0.0
H553 H 0.37906 0.33658 0.69106 0.0
C554 C 0.35909 0.33204 0.71961 0.0
O555 O 0.31334 0.31056 0.70549 0.0
O556 O 0.32911 0.3189 0.68678 0.0
N557 N 0.36076 0.28575 0.69981 0.0
C558 C 0.35291 0.27162 0.70564 0.0
C559 C 0.35358 0.25902 0.69881 0.0
C560 C 0.36239 0.26107 0.68614 0.0
C561 C 0.37046 0.27573 0.6804 0.0
C562 C 0.36947 0.2879 0.68778 0.0
H563 H 0.34615 0.26995 0.71541 0.0
O564 O 0.32027 0.28748 0.68868 0.0
O565 O 0.34485 0.3016 0.69476 0.0
O566 O 0.32804 0.29305 0.72166 0.0
O567 O 0.3513 0.2958 0.72554 0.0
C568 C 0.37922 0.27869 0.66749 0.0
C569 C 0.38662 0.29364 0.66204 0.0
H570 H 0.39852 0.32362 0.65436 0.0
H571 H 0.3945 0.34338 0.66825 0.0
H572 H 0.34731 0.24773 0.70329 0.0
H573 H 0.36281 0.2513 0.68085 0.0
H574 H 0.38013 0.26949 0.66151 0.0
H575 H 0.39312 0.29571 0.65194 0.0
Mn576 Mn 0.70174 0.04605 0.67395 0.0
Mn577 Mn 0.73267 0.04299 0.66765 0.0
C578 C 0.72361 0.06002 0.69015 0.0
C579 C 0.67875 0.03744 0.68526 0.0
C580 C 0.72403 0.06306 0.64932 0.0
O581 O 0.69296 0.0265 0.6598 0.0
O582 O 0.71441 0.02607 0.65565 0.0
C583 C 0.72327 0.01384 0.68295 0.0
N584 N 0.73363 0.02894 0.68149 0.0
C585 C 0.75104 0.0281 0.70075 0.0
C586 C 0.74059 0.01252 0.70241 0.0
C587 C 0.72662 0.00538 0.69351 0.0
C588 C 0.74707 0.03594 0.69005 0.0
H589 H 0.71253 0.00828 0.67611 0.0
C590 C 0.70007 0.02053 0.65344 0.0
O591 O 0.68171 0.04531 0.67299 0.0
O592 O 0.689 0.03439 0.69072 0.0
N593 N 0.75131 0.05825 0.67839 0.0
C594 C 0.75974 0.07356 0.67604 0.0
C595 C 0.77405 0.08241 0.68406 0.0
C596 C 0.77954 0.07544 0.69438 0.0
C597 C 0.77057 0.05973 0.69678 0.0
C598 C 0.75651 0.05143 0.68826 0.0
H599 H 0.75559 0.07895 0.6681 0.0
O600 O 0.71347 0.06429 0.68889 0.0
O601 O 0.72061 0.04747 0.68194 0.0
O602 O 0.71166 0.05933 0.65562 0.0
O603 O 0.73283 0.05783 0.6532 0.0
C604 C 0.77496 0.052 0.70738 0.0
C605 C 0.76517 0.03622 0.70943 0.0
H606 H 0.74312 0.00596 0.71055 0.0
H607 H 0.71846 0.99337 0.69477 0.0
H608 H 0.78087 0.09454 0.68216 0.0
H609 H 0.79067 0.08223 0.70039 0.0
H610 H 0.78576 0.05814 0.71417 0.0
H611 H 0.76858 0.03046 0.71776 0.0
Mn612 Mn 0.96042 0.68367 0.70607 0.0
Mn613 Mn 0.92534 0.65248 0.70477 0.0
C614 C 0.94182 0.681 0.68783 0.0
C615 C 0.98508 0.69522 0.69824 0.0
C616 C 0.93689 0.67933 0.72907 0.0
O617 O 0.96369 0.66861 0.71852 0.0
O618 O 0.94013 0.64793 0.71589 0.0
C619 C 0.93028 0.63116 0.68435 0.0
N620 N 0.92252 0.63871 0.68735 0.0
C621 C 0.90628 0.62722 0.66389 0.0
C622 C 0.91405 0.61924 0.66059 0.0
C623 C 0.92612 0.62124 0.67086 0.0
C624 C 0.91089 0.63687 0.67755 0.0
H625 H 0.9396 0.63271 0.69218 0.0
C626 C 0.95417 0.65462 0.72079 0.0
O627 O 0.98202 0.7002 0.71092 0.0
O628 O 0.97392 0.68347 0.69039 0.0
N629 N 0.90998 0.65524 0.69414 0.0
C630 C 0.90431 0.66453 0.69849 0.0
C631 C 0.89242 0.66424 0.68924 0.0
C632 C 0.88646 0.65437 0.67565 0.0
C633 C 0.89245 0.64489 0.67143 0.0
C634 C 0.90419 0.64556 0.6812 0.0
H635 H 0.9089 0.6722 0.70886 0.0
O636 O 0.95342 0.69454 0.69169 0.0
O637 O 0.94148 0.66954 0.69479 0.0
O638 O 0.94999 0.68755 0.7241 0.0
O639 O 0.92703 0.6661 0.72276 0.0
C640 C 0.88744 0.63503 0.65777 0.0
C641 C 0.89437 0.62622 0.65398 0.0
H642 H 0.91094 0.61166 0.65015 0.0
H643 H 0.93221 0.61518 0.66835 0.0
H644 H 0.88791 0.67164 0.69253 0.0
H645 H 0.87738 0.65427 0.66848 0.0
H646 H 0.87844 0.63433 0.64996 0.0
H647 H 0.89058 0.61886 0.64332 0.0
H648 H 0.15427 0.32677 0.05341 0.0
H649 H 0.2502 0.30419 0.18893 0.0
H650 H 0.15169 0.334 0.14796 0.0
H651 H 0.13123 0.3362 0.1345 0.0
H652 H 0.11096 0.28878 0.11616 0.0
H653 H 0.13142 0.2866 0.12996 0.0
H654 H 0.16839 0.33486 0.12067 0.0
H655 H 0.16324 0.33589 0.09291 0.0
H656 H 0.15506 0.28929 0.08478 0.0
H657 H 0.16007 0.28836 0.11261 0.0
H658 H 0.20015 0.33929 0.13049 0.0
H659 H 0.22034 0.34538 0.11308 0.0
H660 H 0.20904 0.29749 0.11026 0.0
H661 H 0.18889 0.29156 0.12787 0.0
H662 H 0.20886 0.33709 0.16977 0.0
H663 H 0.23239 0.33935 0.1813 0.0
H664 H 0.21481 0.29065 0.16977 0.0
H665 H 0.19131 0.28857 0.15838 0.0
H666 H 0.18266 0.33476 0.18842 0.0
H667 H 0.19112 0.33693 0.21574 0.0
H668 H 0.18235 0.28984 0.21148 0.0
H669 H 0.17287 0.28751 0.18439 0.0
H670 H 0.1592 0.33374 0.177 0.0
H671 H 0.14286 0.33291 0.19711 0.0
H672 H 0.11868 0.28297 0.19167 0.0
H673 H 0.13575 0.28404 0.17205 0.0
O674 O 0.15628 0.32612 0.06433 0.0
O675 O 0.15232 0.30219 0.06075 0.0
O676 O 0.24973 0.32872 0.18964 0.0
O677 O 0.24115 0.3037 0.18415 0.0
C678 C 0.15668 0.30981 0.14597 0.0
C679 C 0.16736 0.3108 0.1355 0.0
C680 C 0.18102 0.31165 0.14111 0.0
C681 C 0.18388 0.31119 0.15715 0.0
C682 C 0.17324 0.31023 0.16762 0.0
C683 C 0.15966 0.30961 0.16206 0.0
C684 C 0.14294 0.31012 0.14002 0.0
C685 C 0.14258 0.32395 0.14144 0.0
C686 C 0.131 0.32524 0.1336 0.0
C687 C 0.1196 0.3127 0.12417 0.0
C688 C 0.11954 0.29858 0.12343 0.0
C689 C 0.13119 0.29732 0.13127 0.0
C690 C 0.16449 0.3115 0.11862 0.0
C691 C 0.16542 0.32487 0.11287 0.0
C692 C 0.16251 0.32544 0.09701 0.0
C693 C 0.15871 0.31266 0.08662 0.0
C694 C 0.15793 0.29932 0.09246 0.0
C695 C 0.16081 0.29876 0.10833 0.0
C696 C 0.19312 0.31502 0.13045 0.0
C697 C 0.20204 0.33013 0.12608 0.0
C698 C 0.21349 0.33355 0.11606 0.0
C699 C 0.21626 0.32191 0.11023 0.0
C700 C 0.20728 0.30674 0.11467 0.0
C701 C 0.19576 0.30332 0.12467 0.0
C702 C 0.19847 0.31269 0.16319 0.0
C703 C 0.21019 0.32697 0.16965 0.0
C704 C 0.22359 0.32821 0.17626 0.0
C705 C 0.22547 0.31516 0.17649 0.0
C706 C 0.21373 0.30091 0.1698 0.0
C707 C 0.20033 0.29969 0.16322 0.0
C708 C 0.17692 0.3109 0.18453 0.0
C709 C 0.18211 0.32477 0.19355 0.0
C710 C 0.18719 0.32605 0.20909 0.0
C711 C 0.18756 0.3136 0.21582 0.0
C712 C 0.18202 0.29959 0.20678 0.0
C713 C 0.17668 0.29824 0.19128 0.0
C714 C 0.1487 0.30896 0.17316 0.0
C715 C 0.15032 0.32263 0.18012 0.0
C716 C 0.14085 0.32211 0.19154 0.0
C717 C 0.12938 0.30785 0.19609 0.0
C718 C 0.12753 0.29415 0.18869 0.0
C719 C 0.13716 0.29471 0.17737 0.0
C720 C 0.15557 0.31328 0.06979 0.0
C721 C 0.23954 0.31634 0.18381 0.0
H722 H 0.68501 0.83312 0.06553 0.0
H723 H 0.71329 0.95214 0.19475 0.0
H724 H 0.67458 0.82209 0.14599 0.0
H725 H 0.67011 0.79687 0.13639 0.0
H726 H 0.71381 0.80741 0.15771 0.0
H727 H 0.71858 0.83319 0.1664 0.0
H728 H 0.67621 0.84678 0.12934 0.0
H729 H 0.67563 0.84037 0.10164 0.0
H730 H 0.7215 0.84855 0.10817 0.0
H731 H 0.72198 0.85512 0.13585 0.0
H732 H 0.67321 0.86851 0.15175 0.0
H733 H 0.66729 0.88398 0.13464 0.0
H734 H 0.71266 0.90502 0.11926 0.0
H735 H 0.71859 0.88949 0.13681 0.0
H736 H 0.67809 0.87517 0.18599 0.0
H737 H 0.67812 0.89875 0.1948 0.0
H738 H 0.72323 0.9261 0.17956 0.0
H739 H 0.72313 0.9024 0.17099 0.0
H740 H 0.67756 0.84709 0.20163 0.0
H741 H 0.67445 0.85525 0.22746 0.0
H742 H 0.71926 0.8953 0.22839 0.0
H743 H 0.72264 0.88641 0.20293 0.0
H744 H 0.67531 0.8212 0.18274 0.0
H745 H 0.67263 0.80294 0.20216 0.0
H746 H 0.71936 0.83279 0.21924 0.0
H747 H 0.72197 0.851 0.19964 0.0
O748 O 0.68553 0.83583 0.07649 0.0
O749 O 0.70912 0.84018 0.08047 0.0
O750 O 0.68983 0.92804 0.19911 0.0
O751 O 0.713 0.94262 0.19141 0.0
C752 C 0.69946 0.84497 0.16231 0.0
C753 C 0.69954 0.85527 0.15144 0.0
C754 C 0.69964 0.86888 0.15666 0.0
C755 C 0.70068 0.87275 0.17272 0.0
C756 C 0.70097 0.86267 0.18364 0.0
C757 C 0.70013 0.84865 0.17841 0.0
C758 C 0.69698 0.82957 0.15672 0.0
C759 C 0.68329 0.81905 0.1484 0.0
C760 C 0.68066 0.80451 0.14314 0.0
C761 C 0.69154 0.79999 0.14637 0.0
C762 C 0.70525 0.81054 0.15484 0.0
C763 C 0.70796 0.82523 0.15992 0.0
C764 C 0.69921 0.8516 0.13456 0.0
C765 C 0.68618 0.84737 0.12474 0.0
C766 C 0.68586 0.84362 0.10893 0.0
C767 C 0.69853 0.84398 0.10268 0.0
C768 C 0.71155 0.84819 0.1126 0.0
C769 C 0.71187 0.85196 0.1284 0.0
C770 C 0.69631 0.87792 0.14549 0.0
C771 C 0.68185 0.8764 0.14462 0.0
C772 C 0.67846 0.88516 0.13475 0.0
C773 C 0.68948 0.89562 0.1255 0.0
C774 C 0.70398 0.89707 0.1263 0.0
C775 C 0.70736 0.8882 0.13621 0.0
C776 C 0.70067 0.88709 0.17801 0.0
C777 C 0.688 0.88626 0.18467 0.0
C778 C 0.68803 0.89975 0.18964 0.0
C779 C 0.7007 0.91432 0.18791 0.0
C780 C 0.71331 0.91508 0.18109 0.0
C781 C 0.71328 0.90157 0.17618 0.0
C782 C 0.70035 0.86612 0.2004 0.0
C783 C 0.68694 0.85729 0.20766 0.0
C784 C 0.68508 0.86215 0.22233 0.0
C785 C 0.69648 0.87612 0.22991 0.0
C786 C 0.71028 0.88445 0.22298 0.0
C787 C 0.71222 0.87942 0.20839 0.0
C788 C 0.69884 0.83737 0.18977 0.0
C789 C 0.685 0.82371 0.19058 0.0
C790 C 0.68347 0.81337 0.20173 0.0
C791 C 0.69578 0.81649 0.21221 0.0
C792 C 0.70973 0.83006 0.2112 0.0
C793 C 0.71122 0.84047 0.2001 0.0
C794 C 0.69811 0.8399 0.0859 0.0
C795 C 0.70079 0.9287 0.19316 0.0
H796 H 0.14468 0.847 0.05619 0.0
H797 H 0.26307 0.94922 0.18941 0.0
H798 H 0.13197 0.85159 0.13623 0.0
H799 H 0.11111 0.82665 0.12525 0.0
H800 H 0.13264 0.80349 0.14731 0.0
H801 H 0.15363 0.82843 0.15764 0.0
H802 H 0.15627 0.87608 0.11912 0.0
H803 H 0.15004 0.86698 0.09163 0.0
H804 H 0.16503 0.83395 0.09966 0.0
H805 H 0.1713 0.84326 0.1271 0.0
H806 H 0.1839 0.90035 0.12601 0.0
H807 H 0.20358 0.91295 0.10763 0.0
H808 H 0.22519 0.8876 0.12381 0.0
H809 H 0.20538 0.87484 0.14174 0.0
H810 H 0.18949 0.9129 0.16559 0.0
H811 H 0.21289 0.93686 0.17401 0.0
H812 H 0.23654 0.91106 0.17892 0.0
H813 H 0.21307 0.88722 0.17048 0.0
H814 H 0.16726 0.89051 0.19424 0.0
H815 H 0.17618 0.89786 0.22187 0.0
H816 H 0.20391 0.87642 0.21766 0.0
H817 H 0.19493 0.86912 0.19032 0.0
H818 H 0.13352 0.85624 0.17473 0.0
H819 H 0.11677 0.83924 0.19348 0.0
H820 H 0.15128 0.82808 0.20813 0.0
H821 H 0.16741 0.84427 0.18881 0.0
O822 O 0.14731 0.85049 0.06708 0.0
O823 O 0.15516 0.83372 0.07181 0.0
O824 O 0.24101 0.95268 0.18324 0.0
O825 O 0.25368 0.93994 0.18601 0.0
C826 C 0.15785 0.85689 0.15282 0.0
C827 C 0.16781 0.86574 0.14169 0.0
C828 C 0.18168 0.87912 0.14652 0.0
C829 C 0.18537 0.88396 0.16244 0.0
C830 C 0.17554 0.87508 0.1736 0.0
C831 C 0.16175 0.86151 0.16882 0.0
C832 C 0.14429 0.8418 0.14773 0.0
C833 C 0.13206 0.84109 0.13878 0.0
C834 C 0.12014 0.82684 0.1326 0.0
C835 C 0.12028 0.81309 0.1353 0.0
C836 C 0.13231 0.81387 0.14478 0.0
C837 C 0.14423 0.82809 0.15085 0.0
C838 C 0.16426 0.86034 0.12502 0.0
C839 C 0.15827 0.86694 0.11487 0.0
C840 C 0.15468 0.86169 0.0992 0.0
C841 C 0.15703 0.84973 0.09345 0.0
C842 C 0.16309 0.84318 0.10371 0.0
C843 C 0.16668 0.84846 0.11937 0.0
C844 C 0.19329 0.88677 0.13523 0.0
C845 C 0.19283 0.89748 0.12546 0.0
C846 C 0.20403 0.90461 0.115 0.0
C847 C 0.21593 0.90129 0.1144 0.0
C848 C 0.21624 0.89049 0.12416 0.0
C849 C 0.20496 0.8832 0.13438 0.0
C850 C 0.19963 0.89838 0.16745 0.0
C851 C 0.19975 0.91248 0.16848 0.0
C852 C 0.21312 0.92613 0.17329 0.0
C853 C 0.2266 0.92587 0.17715 0.0
C854 C 0.22638 0.91167 0.17605 0.0
C855 C 0.213 0.89804 0.17123 0.0
C856 C 0.18046 0.87929 0.19035 0.0
C857 C 0.1752 0.88737 0.19937 0.0
C858 C 0.18033 0.89159 0.21508 0.0
C859 C 0.19065 0.88761 0.22194 0.0
C860 C 0.19577 0.87942 0.2128 0.0
C861 C 0.19075 0.87535 0.19716 0.0
C862 C 0.15178 0.85168 0.18057 0.0
C863 C 0.13741 0.85009 0.18202 0.0
C864 C 0.1279 0.84045 0.1928 0.0
C865 C 0.13264 0.83224 0.20234 0.0
C866 C 0.14711 0.83398 0.20084 0.0
C867 C 0.15649 0.84346 0.18998 0.0
C868 C 0.15314 0.84413 0.07681 0.0
C869 C 0.24082 0.94033 0.1823 0.0
H870 H 0.28183 0.15714 0.99749 0.0
H871 H 0.31739 0.07266 0.86779 0.0
H872 H 0.2749 0.16499 0.91335 0.0
H873 H 0.27705 0.18971 0.92214 0.0
H874 H 0.32435 0.21323 0.91253 0.0
H875 H 0.32193 0.18865 0.90348 0.0
H876 H 0.27432 0.1344 0.9325 0.0
H877 H 0.27325 0.14021 0.96002 0.0
H878 H 0.31806 0.1802 0.96053 0.0
H879 H 0.31906 0.17414 0.93307 0.0
H880 H 0.28045 0.10656 0.91574 0.0
H881 H 0.28816 0.09152 0.9317 0.0
H882 H 0.33021 0.13317 0.94635 0.0
H883 H 0.32292 0.14776 0.92945 0.0
H884 H 0.27512 0.10529 0.8815 0.0
H885 H 0.27704 0.08297 0.87193 0.0
H886 H 0.32527 0.10809 0.88472 0.0
H887 H 0.32317 0.13035 0.89418 0.0
H888 H 0.27507 0.12556 0.8601 0.0
H889 H 0.27761 0.11498 0.83512 0.0
H890 H 0.32643 0.14218 0.84294 0.0
H891 H 0.32369 0.15176 0.86823 0.0
H892 H 0.27593 0.16264 0.87503 0.0
H893 H 0.27877 0.18154 0.85617 0.0
H894 H 0.32585 0.19422 0.85371 0.0
H895 H 0.32303 0.17599 0.87304 0.0
O896 O 0.2825 0.15504 0.98663 0.0
O897 O 0.30553 0.17551 0.98625 0.0
O898 O 0.2913 0.06848 0.86633 0.0
O899 O 0.31629 0.08123 0.8717 0.0
C900 C 0.29724 0.16022 0.90276 0.0
C901 C 0.2972 0.15028 0.91406 0.0
C902 C 0.29798 0.13695 0.90949 0.0
C903 C 0.29788 0.13314 0.89356 0.0
C904 C 0.29779 0.143 0.8823 0.0
C905 C 0.29774 0.15668 0.88688 0.0
C906 C 0.29823 0.1751 0.90767 0.0
C907 C 0.28566 0.17554 0.91305 0.0
C908 C 0.28694 0.18964 0.91814 0.0
C909 C 0.30085 0.20349 0.91796 0.0
C910 C 0.31338 0.20288 0.91251 0.0
C911 C 0.31206 0.18884 0.90739 0.0
C912 C 0.29668 0.15395 0.93075 0.0
C913 C 0.28388 0.14441 0.93858 0.0
C914 C 0.2833 0.14776 0.9543 0.0
C915 C 0.29555 0.1607 0.96247 0.0
C916 C 0.30841 0.17018 0.95457 0.0
C917 C 0.30898 0.1668 0.93887 0.0
C918 C 0.30116 0.12825 0.92132 0.0
C919 C 0.29127 0.11242 0.9225 0.0
C920 C 0.29567 0.10386 0.93174 0.0
C921 C 0.30994 0.11106 0.94018 0.0
C922 C 0.31933 0.12713 0.93971 0.0
C923 C 0.31506 0.13557 0.93026 0.0
C924 C 0.299 0.11937 0.88855 0.0
C925 C 0.28607 0.1059 0.88228 0.0
C926 C 0.2872 0.09319 0.87682 0.0
C927 C 0.30132 0.09376 0.87754 0.0
C928 C 0.31423 0.10727 0.88398 0.0
C929 C 0.31307 0.11997 0.88944 0.0
C930 C 0.29919 0.13949 0.86587 0.0
C931 C 0.28628 0.12947 0.85619 0.0
C932 C 0.28777 0.12347 0.84192 0.0
C933 C 0.30224 0.12755 0.8371 0.0
C934 C 0.31512 0.13848 0.84643 0.0
C935 C 0.3136 0.14421 0.86077 0.0
C936 C 0.29921 0.16778 0.87519 0.0
C937 C 0.28682 0.16953 0.87037 0.0
C938 C 0.28847 0.18028 0.85956 0.0
C939 C 0.30255 0.18943 0.8534 0.0
C940 C 0.3149 0.18758 0.85835 0.0
C941 C 0.31327 0.17697 0.86921 0.0
C942 C 0.29489 0.16425 0.97915 0.0
C943 C 0.30261 0.08037 0.87152 0.0
H944 H 0.84366 0.1649 0.00333 0.0
H945 H 0.74123 0.0519 0.87026 0.0
H946 H 0.84328 0.17637 0.92043 0.0
H947 H 0.86558 0.19943 0.93236 0.0
H948 H 0.89387 0.18052 0.91914 0.0
H949 H 0.87129 0.15727 0.90719 0.0
H950 H 0.81993 0.15375 0.93834 0.0
H951 H 0.82683 0.1599 0.96623 0.0
H952 H 0.85926 0.14403 0.96286 0.0
H953 H 0.8521 0.13775 0.93499 0.0
H954 H 0.79293 0.13223 0.91849 0.0
H955 H 0.77464 0.11943 0.93789 0.0
H956 H 0.79737 0.09409 0.95042 0.0
H957 H 0.8158 0.10714 0.93107 0.0
H958 H 0.79056 0.12747 0.88063 0.0
H959 H 0.76579 0.10635 0.87032 0.0
H960 H 0.77718 0.07336 0.88878 0.0
H961 H 0.80198 0.09458 0.89886 0.0
H962 H 0.82082 0.15195 0.86402 0.0
H963 H 0.81237 0.14504 0.83655 0.0
H964 H 0.80765 0.09994 0.84183 0.0
H965 H 0.81745 0.10756 0.86886 0.0
H966 H 0.84862 0.17723 0.88594 0.0
H967 H 0.86552 0.19235 0.86633 0.0
H968 H 0.86837 0.15252 0.85012 0.0
H969 H 0.85207 0.13761 0.8703 0.0
O970 O 0.84104 0.1623 0.99231 0.0
O971 O 0.85762 0.15409 0.98993 0.0
O972 O 0.7456 0.07791 0.86506 0.0
O973 O 0.75088 0.06048 0.87437 0.0
C974 C 0.84173 0.15074 0.90709 0.0
C975 C 0.83133 0.14155 0.91772 0.0
C976 C 0.81708 0.12905 0.91224 0.0
C977 C 0.81333 0.12537 0.89614 0.0
C978 C 0.82397 0.13412 0.88544 0.0
C979 C 0.83821 0.14688 0.89092 0.0
C980 C 0.85566 0.16511 0.91308 0.0
C981 C 0.85429 0.17721 0.92008 0.0
C982 C 0.86702 0.19033 0.92694 0.0
C983 C 0.88143 0.19167 0.92686 0.0
C984 C 0.88289 0.17978 0.91935 0.0
C985 C 0.87006 0.16653 0.91255 0.0
C986 C 0.83541 0.14516 0.93469 0.0
C987 C 0.82841 0.15147 0.94368 0.0
C988 C 0.83243 0.15504 0.9596 0.0
C989 C 0.84359 0.15244 0.96679 0.0
C990 C 0.85061 0.14616 0.9577 0.0
C991 C 0.84655 0.14256 0.94179 0.0
C992 C 0.80563 0.12056 0.9234 0.0
C993 C 0.7939 0.12386 0.92538 0.0
C994 C 0.78357 0.11665 0.93651 0.0
C995 C 0.78469 0.10587 0.94568 0.0
C996 C 0.79627 0.10234 0.94345 0.0
C997 C 0.80676 0.10975 0.93246 0.0
C998 C 0.79806 0.11255 0.89046 0.0
C999 C 0.78767 0.11567 0.88244 0.0
C1000 C 0.77354 0.10359 0.87658 0.0
C1001 C 0.76952 0.08815 0.8787 0.0
C1002 C 0.77991 0.0851 0.88692 0.0
C1003 C 0.79406 0.0972 0.89275 0.0
C1004 C 0.81976 0.13027 0.86848 0.0
C1005 C 0.8183 0.14072 0.85912 0.0
C1006 C 0.81322 0.13663 0.84345 0.0
C1007 C 0.80911 0.12183 0.83688 0.0
C1008 C 0.81089 0.11151 0.84629 0.0
C1009 C 0.81634 0.11577 0.86185 0.0
C1010 C 0.8492 0.15633 0.87967 0.0
C1011 C 0.8532 0.17186 0.87845 0.0
C1012 C 0.86277 0.18045 0.86722 0.0
C1013 C 0.86819 0.17354 0.85678 0.0
C1014 C 0.86428 0.15805 0.85805 0.0
C1015 C 0.85501 0.14957 0.86953 0.0
C1016 C 0.84788 0.1563 0.98369 0.0
C1017 C 0.7546 0.07526 0.87229 0.0
H1018 H 0.85218 0.70198 0.012 0.0
H1019 H 0.73975 0.68008 0.87901 0.0
H1020 H 0.86846 0.71774 0.93387 0.0
H1021 H 0.88881 0.71554 0.94778 0.0
H1022 H 0.87354 0.67142 0.92297 0.0
H1023 H 0.85293 0.67344 0.90945 0.0
H1024 H 0.84055 0.7157 0.94922 0.0
H1025 H 0.84584 0.71413 0.97683 0.0
H1026 H 0.84023 0.66876 0.96678 0.0
H1027 H 0.83475 0.6704 0.93925 0.0
H1028 H 0.81374 0.715 0.93171 0.0
H1029 H 0.79423 0.71082 0.94956 0.0
H1030 H 0.78208 0.66273 0.95012 0.0
H1031 H 0.802 0.66728 0.93293 0.0
H1032 H 0.81511 0.71773 0.89216 0.0
H1033 H 0.7919 0.71747 0.88273 0.0
H1034 H 0.76546 0.66993 0.89414 0.0
H1035 H 0.78876 0.67029 0.90333 0.0
H1036 H 0.84184 0.71679 0.8724 0.0
H1037 H 0.83441 0.71493 0.84469 0.0
H1038 H 0.7969 0.66896 0.84909 0.0
H1039 H 0.80507 0.67058 0.87636 0.0
H1040 H 0.86937 0.72012 0.89379 0.0
H1041 H 0.88576 0.72197 0.87311 0.0
H1042 H 0.85465 0.67426 0.8578 0.0
H1043 H 0.83825 0.67268 0.87826 0.0
O1044 O 0.84992 0.7023 0.00105 0.0
O1045 O 0.84702 0.67906 0.99525 0.0
O1046 O 0.76322 0.70489 0.8768 0.0
O1047 O 0.7491 0.6805 0.88264 0.0
C1048 C 0.84509 0.69555 0.91482 0.0
C1049 C 0.83444 0.69433 0.92546 0.0
C1050 C 0.82084 0.69376 0.9201 0.0
C1051 C 0.81776 0.6943 0.90411 0.0
C1052 C 0.82809 0.69494 0.89337 0.0
C1053 C 0.84184 0.6957 0.89874 0.0
C1054 C 0.85918 0.69574 0.92066 0.0
C1055 C 0.86968 0.70773 0.93122 0.0
C1056 C 0.88123 0.70644 0.93921 0.0
C1057 C 0.88264 0.69326 0.93652 0.0
C1058 C 0.87275 0.68174 0.92518 0.0
C1059 C 0.86103 0.68292 0.9174 0.0
C1060 C 0.8373 0.69319 0.94225 0.0
C1061 C 0.84037 0.7054 0.95304 0.0
C1062 C 0.84344 0.70449 0.96878 0.0
C1063 C 0.84349 0.69133 0.97401 0.0
C1064 C 0.8403 0.67906 0.96315 0.0
C1065 C 0.83719 0.67997 0.94742 0.0
C1066 C 0.80928 0.69145 0.93113 0.0
C1067 C 0.8069 0.70362 0.93584 0.0
C1068 C 0.79568 0.70116 0.94594 0.0
C1069 C 0.78656 0.68643 0.95136 0.0
C1070 C 0.78906 0.6743 0.94651 0.0
C1071 C 0.80037 0.67683 0.9366 0.0
C1072 C 0.8036 0.69408 0.89855 0.0
C1073 C 0.80429 0.70728 0.89262 0.0
C1074 C 0.79102 0.7071 0.88725 0.0
C1075 C 0.77681 0.69368 0.88772 0.0
C1076 C 0.7762 0.68046 0.89365 0.0
C1077 C 0.78948 0.68065 0.89898 0.0
C1078 C 0.82396 0.69385 0.87643 0.0
C1079 C 0.83216 0.70625 0.86728 0.0
C1080 C 0.82778 0.70521 0.85147 0.0
C1081 C 0.815 0.6918 0.84457 0.0
C1082 C 0.80695 0.67937 0.85383 0.0
C1083 C 0.81148 0.68033 0.86952 0.0
C1084 C 0.85259 0.69631 0.88742 0.0
C1085 C 0.86623 0.71004 0.88606 0.0
C1086 C 0.87558 0.71105 0.87427 0.0
C1087 C 0.87143 0.69831 0.86369 0.0
C1088 C 0.85803 0.68438 0.86554 0.0
C1089 C 0.8487 0.68341 0.87728 0.0
C1090 C 0.8469 0.69047 0.99072 0.0
C1091 C 0.76268 0.69342 0.88204 0.0
H1092 H 0.82615 0.6695 0.38236 0.0
H1093 H 0.91423 0.63348 0.50479 0.0
H1094 H 0.82049 0.6716 0.47286 0.0
H1095 H 0.80009 0.67528 0.46175 0.0
H1096 H 0.7726 0.62599 0.45096 0.0
H1097 H 0.79294 0.62243 0.4629 0.0
H1098 H 0.8448 0.67252 0.44809 0.0
H1099 H 0.84007 0.67588 0.42084 0.0
H1100 H 0.80731 0.62713 0.414 0.0
H1101 H 0.81225 0.62395 0.44125 0.0
H1102 H 0.87306 0.67162 0.46794 0.0
H1103 H 0.89267 0.67629 0.45015 0.0
H1104 H 0.86291 0.63217 0.42543 0.0
H1105 H 0.84342 0.62734 0.44362 0.0
H1106 H 0.87281 0.66847 0.50127 0.0
H1107 H 0.89608 0.66869 0.51027 0.0
H1108 H 0.87869 0.62306 0.4878 0.0
H1109 H 0.85538 0.62291 0.47906 0.0
H1110 H 0.84598 0.66941 0.51493 0.0
H1111 H 0.85588 0.67349 0.54197 0.0
H1112 H 0.85047 0.62768 0.53977 0.0
H1113 H 0.83988 0.62345 0.51275 0.0
H1114 H 0.82126 0.66783 0.50257 0.0
H1115 H 0.80513 0.66682 0.52301 0.0
H1116 H 0.78666 0.61738 0.52307 0.0
H1117 H 0.8034 0.61872 0.503 0.0
O1118 O 0.82788 0.66791 0.39307 0.0
O1119 O 0.81116 0.64278 0.39017 0.0
O1120 O 0.91348 0.65707 0.51288 0.0
O1121 O 0.90512 0.63368 0.50143 0.0
C1122 C 0.82123 0.64505 0.47394 0.0
C1123 C 0.83166 0.64608 0.46315 0.0
C1124 C 0.84517 0.64633 0.46828 0.0
C1125 C 0.84817 0.64542 0.48425 0.0
C1126 C 0.83783 0.64464 0.49506 0.0
C1127 C 0.82426 0.64425 0.48987 0.0
C1128 C 0.80813 0.64677 0.46869 0.0
C1129 C 0.80993 0.66159 0.46838 0.0
C1130 C 0.79832 0.66366 0.46186 0.0
C1131 C 0.78478 0.65095 0.45523 0.0
C1132 C 0.78282 0.63601 0.45606 0.0
C1133 C 0.79442 0.63394 0.4628 0.0
C1134 C 0.82886 0.648 0.44659 0.0
C1135 C 0.83665 0.66259 0.44065 0.0
C1136 C 0.8339 0.66447 0.4251 0.0
C1137 C 0.8233 0.65177 0.41524 0.0
C1138 C 0.81554 0.63715 0.42128 0.0
C1139 C 0.81832 0.6353 0.43683 0.0
C1140 C 0.85687 0.64906 0.45719 0.0
C1141 C 0.87082 0.66288 0.45879 0.0
C1142 C 0.88198 0.66554 0.44862 0.0
C1143 C 0.87931 0.65456 0.43647 0.0
C1144 C 0.86522 0.64085 0.43466 0.0
C1145 C 0.85411 0.63808 0.44502 0.0
C1146 C 0.86235 0.64561 0.48966 0.0
C1147 C 0.874 0.65848 0.49842 0.0
C1148 C 0.8873 0.6586 0.50348 0.0
C1149 C 0.88924 0.64587 0.49978 0.0
C1150 C 0.87757 0.63304 0.49089 0.0
C1151 C 0.86425 0.63292 0.48587 0.0
C1152 C 0.8421 0.64609 0.51194 0.0
C1153 C 0.8465 0.66008 0.52042 0.0
C1154 C 0.85235 0.66246 0.5358 0.0
C1155 C 0.85412 0.65097 0.54295 0.0
C1156 C 0.84913 0.6367 0.53462 0.0
C1157 C 0.84315 0.63428 0.5192 0.0
C1158 C 0.81344 0.64335 0.50127 0.0
C1159 C 0.8136 0.65677 0.50688 0.0
C1160 C 0.8043 0.65613 0.51855 0.0
C1161 C 0.79452 0.642 0.52475 0.0
C1162 C 0.79419 0.6285 0.51878 0.0
C1163 C 0.80363 0.6292 0.50721 0.0
C1164 C 0.82037 0.65381 0.39874 0.0
C1165 C 0.90336 0.64594 0.50512 0.0
H1166 H 0.35097 0.16537 0.39766 0.0
H1167 H 0.37008 0.28384 0.52103 0.0
H1168 H 0.33975 0.15539 0.48019 0.0
H1169 H 0.33615 0.13045 0.47041 0.0
H1170 H 0.3825 0.14484 0.48602 0.0
H1171 H 0.38604 0.16999 0.49573 0.0
H1172 H 0.34168 0.18008 0.46093 0.0
H1173 H 0.34125 0.17309 0.4334 0.0
H1174 H 0.38779 0.18338 0.44025 0.0
H1175 H 0.3881 0.19048 0.46774 0.0
H1176 H 0.33872 0.2029 0.48024 0.0
H1177 H 0.33501 0.2204 0.46406 0.0
H1178 H 0.38209 0.24231 0.45378 0.0
H1179 H 0.38575 0.22478 0.47047 0.0
H1180 H 0.34077 0.20733 0.51551 0.0
H1181 H 0.33827 0.2299 0.5225 0.0
H1182 H 0.38394 0.25981 0.50985 0.0
H1183 H 0.38635 0.23713 0.50311 0.0
H1184 H 0.34186 0.18072 0.53279 0.0
H1185 H 0.33806 0.18863 0.55852 0.0
H1186 H 0.38227 0.22958 0.55988 0.0
H1187 H 0.38621 0.22118 0.53444 0.0
H1188 H 0.34243 0.15422 0.51399 0.0
H1189 H 0.34161 0.13669 0.53347 0.0
H1190 H 0.3864 0.17107 0.55244 0.0
H1191 H 0.38732 0.18845 0.53262 0.0
O1192 O 0.35144 0.16836 0.40854 0.0
O1193 O 0.37538 0.17385 0.41267 0.0
O1194 O 0.34759 0.25886 0.52535 0.0
O1195 O 0.37088 0.27473 0.51866 0.0
C1196 C 0.36508 0.17963 0.4941 0.0
C1197 C 0.3651 0.18975 0.48307 0.0
C1198 C 0.36478 0.20319 0.488 0.0
C1199 C 0.36498 0.20684 0.50398 0.0
C1200 C 0.36537 0.19696 0.5151 0.0
C1201 C 0.36535 0.18328 0.51015 0.0
C1202 C 0.36315 0.16447 0.48863 0.0
C1203 C 0.34912 0.15315 0.48152 0.0
C1204 C 0.34706 0.13889 0.47605 0.0
C1205 C 0.35902 0.13567 0.47754 0.0
C1206 C 0.37311 0.14705 0.48467 0.0
C1207 C 0.37514 0.16134 0.49027 0.0
C1208 C 0.36497 0.18594 0.46627 0.0
C1209 C 0.35182 0.18099 0.45641 0.0
C1210 C 0.35159 0.17692 0.44071 0.0
C1211 C 0.3645 0.17769 0.43461 0.0
C1212 C 0.37766 0.18268 0.44456 0.0
C1213 C 0.37788 0.18676 0.46025 0.0
C1214 C 0.36248 0.21261 0.47649 0.0
C1215 C 0.34817 0.21132 0.4743 0.0
C1216 C 0.34607 0.22128 0.46496 0.0
C1217 C 0.35825 0.23271 0.45756 0.0
C1218 C 0.37252 0.23368 0.45941 0.0
C1219 C 0.37461 0.22364 0.4688 0.0
C1220 C 0.36378 0.22061 0.50891 0.0
C1221 C 0.35028 0.21877 0.51444 0.0
C1222 C 0.34886 0.23168 0.51835 0.0
C1223 C 0.3609 0.24667 0.51671 0.0
C1224 C 0.37444 0.24844 0.51125 0.0
C1225 C 0.37586 0.23552 0.5074 0.0
C1226 C 0.3643 0.20038 0.53174 0.0
C1227 C 0.35091 0.19114 0.53887 0.0
C1228 C 0.34869 0.19579 0.55348 0.0
C1229 C 0.35976 0.20986 0.56117 0.0
C1230 C 0.37355 0.21863 0.55437 0.0
C1231 C 0.37581 0.21389 0.5398 0.0
C1232 C 0.36502 0.17253 0.52175 0.0
C1233 C 0.35219 0.15786 0.52215 0.0
C1234 C 0.35172 0.14788 0.53329 0.0
C1235 C 0.36397 0.15252 0.5444 0.0
C1236 C 0.37679 0.16725 0.54403 0.0
C1237 C 0.37734 0.17714 0.53273 0.0
C1238 C 0.36416 0.17321 0.41797 0.0
C1239 C 0.35934 0.26041 0.52053 0.0
H1240 H 0.8053 0.18322 0.38404 0.0
H1241 H 0.93631 0.26036 0.50481 0.0
H1242 H 0.79756 0.183 0.46444 0.0
H1243 H 0.77367 0.15971 0.45508 0.0
H1244 H 0.78942 0.13138 0.47674 0.0
H1245 H 0.81333 0.15446 0.48546 0.0
H1246 H 0.827 0.20947 0.44787 0.0
H1247 H 0.81806 0.20256 0.4204 0.0
H1248 H 0.81605 0.15853 0.42442 0.0
H1249 H 0.82517 0.16566 0.45182 0.0
H1250 H 0.8613 0.2348 0.46685 0.0
H1251 H 0.88167 0.248 0.44979 0.0
H1252 H 0.87646 0.20397 0.43356 0.0
H1253 H 0.85716 0.19116 0.45178 0.0
H1254 H 0.86238 0.23712 0.50209 0.0
H1255 H 0.88867 0.25704 0.50931 0.0
H1256 H 0.90391 0.2261 0.49234 0.0
H1257 H 0.87755 0.20621 0.4854 0.0
H1258 H 0.8393 0.21938 0.52139 0.0
H1259 H 0.85149 0.22773 0.54776 0.0
H1260 H 0.87007 0.1972 0.54246 0.0
H1261 H 0.85865 0.18982 0.51586 0.0
H1262 H 0.80227 0.18914 0.5046 0.0
H1263 H 0.78544 0.17472 0.52462 0.0
H1264 H 0.81275 0.15342 0.53434 0.0
H1265 H 0.82949 0.16795 0.5145 0.0
O1266 O 0.80888 0.18574 0.39491 0.0
O1267 O 0.80796 0.16323 0.39762 0.0
O1268 O 0.91735 0.26775 0.51168 0.0
O1269 O 0.92582 0.25261 0.5023 0.0
C1270 C 0.82223 0.1842 0.48017 0.0
C1271 C 0.832 0.19229 0.46853 0.0
C1272 C 0.84699 0.20428 0.47278 0.0
C1273 C 0.85212 0.20825 0.48867 0.0
C1274 C 0.8423 0.20035 0.50025 0.0
C1275 C 0.82736 0.18837 0.49605 0.0
C1276 C 0.80715 0.17044 0.47573 0.0
C1277 C 0.79576 0.17176 0.46726 0.0
C1278 C 0.78217 0.15851 0.46195 0.0
C1279 C 0.77969 0.14381 0.46535 0.0
C1280 C 0.79093 0.14259 0.47423 0.0
C1281 C 0.80458 0.15576 0.47923 0.0
C1282 C 0.82664 0.18804 0.45185 0.0
C1283 C 0.82465 0.19836 0.44278 0.0
C1284 C 0.81952 0.19437 0.4271 0.0
C1285 C 0.8163 0.17998 0.42022 0.0
C1286 C 0.81839 0.16969 0.42936 0.0
C1287 C 0.82355 0.17371 0.44502 0.0
C1288 C 0.85777 0.21201 0.46067 0.0
C1289 C 0.86457 0.22803 0.45958 0.0
C1290 C 0.87614 0.23554 0.44965 0.0
C1291 C 0.88091 0.22713 0.44027 0.0
C1292 C 0.87345 0.21095 0.44083 0.0
C1293 C 0.86217 0.20352 0.45107 0.0
C1294 C 0.86808 0.22024 0.49325 0.0
C1295 C 0.87141 0.23464 0.50006 0.0
C1296 C 0.88644 0.246 0.50412 0.0
C1297 C 0.8984 0.24317 0.50137 0.0
C1298 C 0.89498 0.22868 0.4946 0.0
C1299 C 0.87995 0.2173 0.49061 0.0
C1300 C 0.84815 0.20405 0.51678 0.0
C1301 C 0.84593 0.21446 0.52605 0.0
C1302 C 0.85284 0.21913 0.54114 0.0
C1303 C 0.86192 0.21326 0.54727 0.0
C1304 C 0.86352 0.20229 0.53806 0.0
C1305 C 0.85686 0.19789 0.52291 0.0
C1306 C 0.81724 0.17978 0.50829 0.0
C1307 C 0.80462 0.18141 0.51114 0.0
C1308 C 0.79498 0.17308 0.52249 0.0
C1309 C 0.79781 0.16299 0.53117 0.0
C1310 C 0.81041 0.16132 0.52812 0.0
C1311 C 0.82001 0.16962 0.51679 0.0
C1312 C 0.8108 0.17576 0.40358 0.0
C1313 C 0.91439 0.25528 0.50546 0.0
H1314 H 0.99014 0.50578 0.32781 0.0
H1315 H 0.99592 0.40328 0.19767 0.0
H1316 H 0.97038 0.50596 0.24776 0.0
H1317 H 0.97498 0.53122 0.25798 0.0
H1318 H 0.01645 0.55331 0.23456 0.0
H1319 H 0.01212 0.528 0.22509 0.0
H1320 H 0.96998 0.47786 0.26433 0.0
H1321 H 0.97424 0.48621 0.29198 0.0
H1322 H 0.01963 0.52218 0.28448 0.0
H1323 H 0.01527 0.5136 0.25689 0.0
H1324 H 0.96642 0.44879 0.24703 0.0
H1325 H 0.96991 0.43124 0.26361 0.0
H1326 H 0.01823 0.46318 0.2682 0.0
H1327 H 0.01446 0.48081 0.25218 0.0
H1328 H 0.96169 0.44469 0.20983 0.0
H1329 H 0.96023 0.42038 0.20099 0.0
H1330 H 0.00849 0.44075 0.21215 0.0
H1331 H 0.00978 0.46502 0.22081 0.0
H1332 H 0.96261 0.46658 0.18772 0.0
H1333 H 0.96314 0.45554 0.16198 0.0
H1334 H 0.01158 0.47473 0.17005 0.0
H1335 H 0.01091 0.48569 0.19544 0.0
H1336 H 0.96495 0.50277 0.21018 0.0
H1337 H 0.96368 0.52026 0.19168 0.0
H1338 H 0.00562 0.52767 0.17413 0.0
H1339 H 0.0072 0.51075 0.19306 0.0
O1340 O 0.98872 0.50263 0.31686 0.0
O1341 O 0.01194 0.52096 0.31236 0.0
O1342 O 0.9714 0.40283 0.19551 0.0
O1343 O 0.99616 0.41274 0.20111 0.0
C1344 C 0.98887 0.49978 0.23062 0.0
C1345 C 0.98964 0.49012 0.24183 0.0
C1346 C 0.98838 0.47585 0.23703 0.0
C1347 C 0.98667 0.47135 0.22107 0.0
C1348 C 0.98635 0.48115 0.20986 0.0
C1349 C 0.9871 0.49524 0.21458 0.0
C1350 C 0.99093 0.51514 0.23572 0.0
C1351 C 0.98043 0.51628 0.24482 0.0
C1352 C 0.98302 0.53073 0.25054 0.0
C1353 C 0.99613 0.54431 0.24715 0.0
C1354 C 0.00638 0.54309 0.23762 0.0
C1355 C 0.00385 0.52865 0.23204 0.0
C1356 C 0.9923 0.49516 0.25862 0.0
C1357 C 0.98085 0.48751 0.2687 0.0
C1358 C 0.9833 0.49232 0.28448 0.0
C1359 C 0.99727 0.50488 0.29044 0.0
C1360 C 0.00874 0.51248 0.28027 0.0
C1361 C 0.00628 0.50763 0.26451 0.0
C1362 C 0.99018 0.46608 0.24852 0.0
C1363 C 0.97769 0.45207 0.25191 0.0
C1364 C 0.97975 0.442 0.26123 0.0
C1365 C 0.99437 0.44571 0.2672 0.0
C1366 C 0.00679 0.46 0.26406 0.0
C1367 C 0.00468 0.47011 0.25487 0.0
C1368 C 0.98582 0.45655 0.216 0.0
C1369 C 0.97191 0.44385 0.21036 0.0
C1370 C 0.97112 0.42999 0.20532 0.0
C1371 C 0.98425 0.42862 0.20588 0.0
C1372 C 0.99817 0.4414 0.21158 0.0
C1373 C 0.99894 0.45526 0.21658 0.0
C1374 C 0.98675 0.47705 0.19331 0.0
C1375 C 0.97335 0.46873 0.18366 0.0
C1376 C 0.97366 0.46233 0.16908 0.0
C1377 C 0.9874 0.46426 0.16397 0.0
C1378 C 0.00086 0.47323 0.17347 0.0
C1379 C 0.00051 0.4795 0.188 0.0
C1380 C 0.98604 0.50525 0.20282 0.0
C1381 C 0.97386 0.50815 0.20232 0.0
C1382 C 0.97316 0.51816 0.19182 0.0
C1383 C 0.98451 0.52521 0.18145 0.0
C1384 C 0.99663 0.52221 0.18187 0.0
C1385 C 0.99748 0.51246 0.19259 0.0
C1386 C 0.99981 0.51002 0.30719 0.0
C1387 C 0.98349 0.41393 0.20051 0.0
H1388 H 0.49937 0.50911 0.33285 0.0
H1389 H 0.41184 0.38097 0.20445 0.0
H1390 H 0.50306 0.5143 0.2507 0.0
H1391 H 0.52479 0.53825 0.26195 0.0
H1392 H 0.5545 0.52033 0.25106 0.0
H1393 H 0.53248 0.49607 0.24042 0.0
H1394 H 0.47771 0.49028 0.2675 0.0
H1395 H 0.48326 0.49904 0.29507 0.0
H1396 H 0.51975 0.48853 0.29721 0.0
H1397 H 0.51394 0.47962 0.26968 0.0
H1398 H 0.45229 0.46505 0.24679 0.0
H1399 H 0.43326 0.4517 0.26535 0.0
H1400 H 0.46048 0.43335 0.28489 0.0
H1401 H 0.47957 0.44687 0.26625 0.0
H1402 H 0.45213 0.458 0.21072 0.0
H1403 H 0.42939 0.43421 0.20057 0.0
H1404 H 0.44643 0.40739 0.22339 0.0
H1405 H 0.46921 0.43128 0.2333 0.0
H1406 H 0.4781 0.48208 0.19482 0.0
H1407 H 0.47052 0.47225 0.16767 0.0
H1408 H 0.4816 0.4364 0.1762 0.0
H1409 H 0.48874 0.44612 0.20347 0.0
H1410 H 0.50379 0.5109 0.21347 0.0
H1411 H 0.52144 0.52735 0.195 0.0
H1412 H 0.53779 0.49502 0.18946 0.0
H1413 H 0.52015 0.4787 0.20801 0.0
O1414 O 0.49723 0.50539 0.32203 0.0
O1415 O 0.51598 0.49997 0.32245 0.0
O1416 O 0.41255 0.40488 0.19668 0.0
O1417 O 0.42068 0.39055 0.20838 0.0
C1418 C 0.50274 0.48851 0.2392 0.0
C1419 C 0.49229 0.47933 0.2498 0.0
C1420 C 0.47896 0.46562 0.24435 0.0
C1421 C 0.47633 0.46078 0.2284 0.0
C1422 C 0.48695 0.46979 0.21785 0.0
C1423 C 0.50005 0.48376 0.22322 0.0
C1424 C 0.5162 0.50344 0.24485 0.0
C1425 C 0.51428 0.51558 0.25072 0.0
C1426 C 0.52674 0.52931 0.25701 0.0
C1427 C 0.54142 0.53123 0.2574 0.0
C1428 C 0.54334 0.51915 0.25112 0.0
C1429 C 0.53082 0.50535 0.24492 0.0
C1430 C 0.49535 0.48421 0.26664 0.0
C1431 C 0.48678 0.48972 0.274 0.0
C1432 C 0.49003 0.49479 0.28972 0.0
C1433 C 0.50196 0.49449 0.29835 0.0
C1434 C 0.51049 0.48891 0.29092 0.0
C1435 C 0.50719 0.48381 0.27521 0.0
C1436 C 0.46725 0.45689 0.2552 0.0
C1437 C 0.4541 0.45809 0.25503 0.0
C1438 C 0.44332 0.45056 0.26569 0.0
C1439 C 0.44546 0.44157 0.27659 0.0
C1440 C 0.45854 0.44016 0.27655 0.0
C1441 C 0.46943 0.44786 0.26598 0.0
C1442 C 0.46232 0.44634 0.22268 0.0
C1443 C 0.45093 0.44697 0.21348 0.0
C1444 C 0.43795 0.43337 0.20772 0.0
C1445 C 0.4361 0.41888 0.21114 0.0
C1446 C 0.44749 0.41833 0.22052 0.0
C1447 C 0.46049 0.43195 0.22623 0.0
C1448 C 0.48395 0.4648 0.20107 0.0
C1449 C 0.47909 0.47224 0.19073 0.0
C1450 C 0.47482 0.46662 0.17522 0.0
C1451 C 0.4754 0.45348 0.16973 0.0
C1452 C 0.48077 0.44638 0.18007 0.0
C1453 C 0.48497 0.45197 0.19561 0.0
C1454 C 0.51074 0.49365 0.21205 0.0
C1455 C 0.51122 0.50742 0.20827 0.0
C1456 C 0.52123 0.51674 0.19769 0.0
C1457 C 0.53099 0.51247 0.19082 0.0
C1458 C 0.53051 0.49868 0.19471 0.0
C1459 C 0.52041 0.48931 0.2052 0.0
C1460 C 0.50552 0.50009 0.31499 0.0
C1461 C 0.42239 0.4044 0.20494 0.0
H1462 H 0.51449 0.01561 0.34303 0.0
H1463 H 0.39737 0.98058 0.20961 0.0
H1464 H 0.53016 0.02856 0.2634 0.0
H1465 H 0.55135 0.02688 0.27601 0.0
H1466 H 0.53395 0.98136 0.2534 0.0
H1467 H 0.51269 0.98304 0.2411 0.0
H1468 H 0.50079 0.02614 0.2796 0.0
H1469 H 0.50682 0.02588 0.30732 0.0
H1470 H 0.50328 0.98118 0.29898 0.0
H1471 H 0.49707 0.98151 0.27134 0.0
H1472 H 0.47026 0.0222 0.259 0.0
H1473 H 0.45012 0.01752 0.27604 0.0
H1474 H 0.4466 0.97384 0.28642 0.0
H1475 H 0.46603 0.97823 0.26861 0.0
H1476 H 0.47235 0.02493 0.22328 0.0
H1477 H 0.44795 0.02189 0.2136 0.0
H1478 H 0.4256 0.9742 0.22521 0.0
H1479 H 0.45009 0.97735 0.23467 0.0
H1480 H 0.49969 0.0294 0.20659 0.0
H1481 H 0.49177 0.02975 0.17939 0.0
H1482 H 0.46082 0.98057 0.17802 0.0
H1483 H 0.46887 0.98034 0.20513 0.0
H1484 H 0.52928 0.03177 0.2254 0.0
H1485 H 0.5465 0.03502 0.20514 0.0
H1486 H 0.51764 0.98712 0.18889 0.0
H1487 H 0.50039 0.98414 0.20894 0.0
O1488 O 0.512 0.01543 0.33205 0.0
O1489 O 0.51011 0.9925 0.32713 0.0
O1490 O 0.41921 0.00666 0.20751 0.0
O1491 O 0.40717 0.9821 0.21334 0.0
C1492 C 0.50576 0.00575 0.24587 0.0
C1493 C 0.49511 0.00422 0.25663 0.0
C1494 C 0.48112 0.0029 0.25136 0.0
C1495 C 0.47782 0.00319 0.23534 0.0
C1496 C 0.48852 0.00487 0.22462 0.0
C1497 C 0.50249 0.00616 0.22988 0.0
C1498 C 0.51989 0.00591 0.25137 0.0
C1499 C 0.53112 0.01837 0.26096 0.0
C1500 C 0.54321 0.0174 0.26811 0.0
C1501 C 0.54423 0.00393 0.2658 0.0
C1502 C 0.53335 0.99179 0.25557 0.0
C1503 C 0.5213 0.99279 0.24841 0.0
C1504 C 0.49857 0.00389 0.27347 0.0
C1505 C 0.50128 0.01629 0.28381 0.0
C1506 C 0.50474 0.01612 0.29962 0.0
C1507 C 0.50557 0.00353 0.30536 0.0
C1508 C 0.50277 0.99107 0.29494 0.0
C1509 C 0.49926 0.99124 0.27915 0.0
C1510 C 0.4696 0.00055 0.26254 0.0
C1511 C 0.46509 0.01162 0.26494 0.0
C1512 C 0.45366 0.00897 0.27481 0.0
C1513 C 0.44665 0.99526 0.2826 0.0
C1514 C 0.4515 0.98438 0.2804 0.0
C1515 C 0.46276 0.98695 0.27038 0.0
C1516 C 0.46297 0.00136 0.22967 0.0
C1517 C 0.46217 0.01383 0.22368 0.0
C1518 C 0.44822 0.01206 0.21819 0.0
C1519 C 0.43481 0.99779 0.21864 0.0
C1520 C 0.43569 0.98534 0.2247 0.0
C1521 C 0.44965 0.98711 0.23014 0.0
C1522 C 0.48481 0.00486 0.20779 0.0
C1523 C 0.49135 0.01869 0.20032 0.0
C1524 C 0.48676 0.01888 0.18485 0.0
C1525 C 0.47564 0.00519 0.1766 0.0
C1526 C 0.46951 0.99127 0.18401 0.0
C1527 C 0.47403 0.99112 0.19949 0.0
C1528 C 0.51357 0.00776 0.21853 0.0
C1529 C 0.5268 0.02197 0.21753 0.0
C1530 C 0.53663 0.02378 0.20599 0.0
C1531 C 0.53338 0.01136 0.19531 0.0
C1532 C 0.52033 0.997 0.19673 0.0
C1533 C 0.51051 0.99523 0.20822 0.0
C1534 C 0.50935 0.00342 0.32215 0.0
C1535 C 0.41997 0.99585 0.21282 0.0
H1536 H 0.50263 0.01821 0.72115 0.0
H1537 H 0.5843 0.97667 0.84393 0.0
H1538 H 0.49371 0.01768 0.80297 0.0
H1539 H 0.47232 0.01966 0.79185 0.0
H1540 H 0.44217 0.97166 0.79953 0.0
H1541 H 0.46391 0.96969 0.81021 0.0
H1542 H 0.52061 0.01946 0.78673 0.0
H1543 H 0.51664 0.02334 0.75948 0.0
H1544 H 0.47868 0.97674 0.75342 0.0
H1545 H 0.48288 0.97295 0.78065 0.0
H1546 H 0.54653 0.01737 0.80856 0.0
H1547 H 0.56623 0.0216 0.79101 0.0
H1548 H 0.53484 0.97954 0.7639 0.0
H1549 H 0.51528 0.975 0.78189 0.0
H1550 H 0.5439 0.01281 0.84231 0.0
H1551 H 0.56656 0.01199 0.85163 0.0
H1552 H 0.54973 0.96803 0.82568 0.0
H1553 H 0.52702 0.9689 0.81661 0.0
H1554 H 0.51564 0.01204 0.85691 0.0
H1555 H 0.5244 0.01283 0.88391 0.0
H1556 H 0.51997 0.96777 0.87532 0.0
H1557 H 0.51049 0.9668 0.84849 0.0
H1558 H 0.4899 0.01313 0.83733 0.0
H1559 H 0.47319 0.01268 0.85694 0.0
H1560 H 0.46181 0.96596 0.86582 0.0
H1561 H 0.47811 0.96633 0.84568 0.0
O1562 O 0.50404 0.0164 0.73188 0.0
O1563 O 0.48457 0.99238 0.72938 0.0
O1564 O 0.58352 0.99983 0.85368 0.0
O1565 O 0.57543 0.97727 0.84045 0.0
C1566 C 0.4937 0.99223 0.8128 0.0
C1567 C 0.50446 0.99362 0.80222 0.0
C1568 C 0.51765 0.99327 0.8075 0.0
C1569 C 0.51994 0.9913 0.82333 0.0
C1570 C 0.50921 0.98998 0.83392 0.0
C1571 C 0.49606 0.99043 0.82867 0.0
C1572 C 0.48036 0.99352 0.80728 0.0
C1573 C 0.48248 0.00761 0.8023 0.0
C1574 C 0.4702 0.00874 0.79608 0.0
C1575 C 0.45551 0.99582 0.79483 0.0
C1576 C 0.45337 0.98178 0.80018 0.0
C1577 C 0.46572 0.98065 0.80638 0.0
C1578 C 0.50208 0.9959 0.78563 0.0
C1579 C 0.5115 0.01007 0.77947 0.0
C1580 C 0.50918 0.01227 0.76391 0.0
C1581 C 0.49734 0.00034 0.75426 0.0
C1582 C 0.4879 0.98616 0.76052 0.0
C1583 C 0.49026 0.98397 0.77607 0.0
C1584 C 0.52949 0.9958 0.79662 0.0
C1585 C 0.54394 0.00895 0.79896 0.0
C1586 C 0.55516 0.01138 0.78892 0.0
C1587 C 0.55203 0.00088 0.77614 0.0
C1588 C 0.53749 0.98784 0.77363 0.0
C1589 C 0.52635 0.98525 0.78388 0.0
C1590 C 0.53378 0.99086 0.82888 0.0
C1591 C 0.54509 0.00297 0.83873 0.0
C1592 C 0.55804 0.0025 0.844 0.0
C1593 C 0.55995 0.98993 0.83941 0.0
C1594 C 0.54861 0.97787 0.82945 0.0
C1595 C 0.53564 0.97834 0.82423 0.0
C1596 C 0.51248 0.98938 0.85074 0.0
C1597 C 0.51617 0.00217 0.86098 0.0
C1598 C 0.52135 0.00267 0.87635 0.0
C1599 C 0.5231 0.99046 0.88172 0.0
C1600 C 0.51865 0.97732 0.87161 0.0
C1601 C 0.51333 0.97677 0.85626 0.0
C1602 C 0.48517 0.98974 0.83999 0.0
C1603 C 0.48359 0.00271 0.84332 0.0
C1604 C 0.47417 0.00248 0.85468 0.0
C1605 C 0.46621 0.98931 0.86307 0.0
C1606 C 0.46762 0.97623 0.85949 0.0
C1607 C 0.477 0.97644 0.84805 0.0
C1608 C 0.49488 0.00274 0.73776 0.0
C1609 C 0.57369 0.98937 0.84497 0.0
H1610 H 0.97467 0.48398 0.73385 0.0
H1611 H 0.02292 0.60681 0.86731 0.0
H1612 H 0.9782 0.47366 0.81478 0.0
H1613 H 0.97654 0.45011 0.8032 0.0
H1614 H 0.024 0.46794 0.81682 0.0
H1615 H 0.02557 0.49156 0.82835 0.0
H1616 H 0.97521 0.49953 0.79989 0.0
H1617 H 0.97064 0.49224 0.77199 0.0
H1618 H 0.01658 0.50077 0.77066 0.0
H1619 H 0.02104 0.50819 0.79853 0.0
H1620 H 0.97701 0.52585 0.82289 0.0
H1621 H 0.97245 0.54344 0.80769 0.0
H1622 H 0.01447 0.55765 0.78613 0.0
H1623 H 0.01923 0.54039 0.80202 0.0
H1624 H 0.98426 0.52989 0.85682 0.0
H1625 H 0.9864 0.55388 0.86784 0.0
H1626 H 0.02938 0.57996 0.84778 0.0
H1627 H 0.0272 0.55585 0.83704 0.0
H1628 H 0.98603 0.50447 0.87194 0.0
H1629 H 0.98738 0.51607 0.8978 0.0
H1630 H 0.03373 0.55108 0.89248 0.0
H1631 H 0.03207 0.5396 0.86646 0.0
H1632 H 0.98444 0.47372 0.85021 0.0
H1633 H 0.98682 0.45672 0.86836 0.0
H1634 H 0.03259 0.49277 0.88272 0.0
H1635 H 0.03041 0.50917 0.86372 0.0
O1636 O 0.97675 0.487 0.74485 0.0
O1637 O 0.00045 0.49149 0.7448 0.0
O1638 O 0.99971 0.58318 0.87328 0.0
O1639 O 0.02174 0.59715 0.86301 0.0
C1640 C 0.00311 0.49896 0.8285 0.0
C1641 C 0.00115 0.50865 0.81818 0.0
C1642 C 0.00169 0.52229 0.82406 0.0
C1643 C 0.00464 0.52653 0.84013 0.0
C1644 C 0.00665 0.51691 0.85043 0.0
C1645 C 0.00574 0.50303 0.84467 0.0
C1646 C 0.00203 0.48435 0.82229 0.0
C1647 C 0.98823 0.47248 0.81526 0.0
C1648 C 0.98732 0.45907 0.80862 0.0
C1649 C 1.00018 0.45724 0.80901 0.0
C1650 C 0.01389 0.46899 0.81644 0.0
C1651 C 0.01482 0.48247 0.82299 0.0
C1652 C 0.99847 0.50444 0.8012 0.0
C1653 C 0.9843 0.49991 0.79352 0.0
C1654 C 0.98171 0.49571 0.7776 0.0
C1655 C 0.99325 0.49592 0.76909 0.0
C1656 C 0.00745 0.50048 0.77686 0.0
C1657 C 0.01003 0.50472 0.79277 0.0
C1658 C 0.99847 0.53193 0.81359 0.0
C1659 C 0.98518 0.53271 0.81482 0.0
C1660 C 0.98255 0.54269 0.80602 0.0
C1661 C 0.9931 0.55196 0.79566 0.0
C1662 C 0.00623 0.55081 0.79414 0.0
C1663 C 0.00891 0.54088 0.80308 0.0
C1664 C 0.00562 0.54115 0.84623 0.0
C1665 C 0.99414 0.5408 0.85487 0.0
C1666 C 0.99538 0.55452 0.86111 0.0
C1667 C 0.00809 0.56885 0.85872 0.0
C1668 C 0.01947 0.56914 0.84986 0.0
C1669 C 0.01824 0.5554 0.84368 0.0
C1670 C 0.00891 0.52128 0.86734 0.0
C1671 C 0.99662 0.51434 0.8766 0.0
C1672 C 0.99743 0.52101 0.89137 0.0
C1673 C 0.01059 0.53467 0.8971 0.0
C1674 C 0.02333 0.54076 0.88827 0.0
C1675 C 0.02247 0.53413 0.87349 0.0
C1676 C 0.00726 0.49268 0.85563 0.0
C1677 C 0.99505 0.47783 0.85713 0.0
C1678 C 0.99639 0.4682 0.86765 0.0
C1679 C 0.00989 0.47335 0.87709 0.0
C1680 C 0.02211 0.48826 0.87548 0.0
C1681 C 0.02084 0.49776 0.86477 0.0
C1682 C 0.99043 0.49135 0.75219 0.0
C1683 C 0.00953 0.58345 0.86546 0.0
H1684 H 0.48659 0.50834 0.72246 0.0
H1685 H 0.60142 0.61626 0.84886 0.0
H1686 H 0.47219 0.51721 0.80021 0.0
H1687 H 0.45053 0.49285 0.78917 0.0
H1688 H 0.46573 0.46748 0.81722 0.0
H1689 H 0.48769 0.49183 0.82778 0.0
H1690 H 0.50019 0.54153 0.7835 0.0
H1691 H 0.49416 0.53127 0.75637 0.0
H1692 H 0.4983 0.49197 0.76922 0.0
H1693 H 0.50451 0.50246 0.79627 0.0
H1694 H 0.52909 0.57085 0.80138 0.0
H1695 H 0.54933 0.58433 0.78398 0.0
H1696 H 0.55651 0.54512 0.78121 0.0
H1697 H 0.5363 0.53178 0.79854 0.0
H1698 H 0.52588 0.57568 0.839 0.0
H1699 H 0.54909 0.6 0.84679 0.0
H1700 H 0.57576 0.57844 0.83609 0.0
H1701 H 0.55246 0.55415 0.82854 0.0
H1702 H 0.49965 0.55008 0.86054 0.0
H1703 H 0.50825 0.55952 0.88795 0.0
H1704 H 0.54632 0.55217 0.88363 0.0
H1705 H 0.53738 0.54207 0.85668 0.0
H1706 H 0.47032 0.52017 0.83791 0.0
H1707 H 0.45275 0.50468 0.85698 0.0
H1708 H 0.48772 0.49786 0.87911 0.0
H1709 H 0.505 0.51265 0.85962 0.0
O1710 O 0.4891 0.51224 0.73323 0.0
O1711 O 0.49126 0.49222 0.74047 0.0
O1712 O 0.57784 0.61729 0.85132 0.0
O1713 O 0.59207 0.60679 0.84588 0.0
C1714 C 0.49584 0.52092 0.81961 0.0
C1715 C 0.50617 0.52889 0.80835 0.0
C1716 C 0.51989 0.54261 0.8128 0.0
C1717 C 0.5233 0.54844 0.82849 0.0
C1718 C 0.5133 0.5402 0.83988 0.0
C1719 C 0.49948 0.52647 0.83544 0.0
C1720 C 0.48158 0.5063 0.81473 0.0
C1721 C 0.47076 0.5064 0.80409 0.0
C1722 C 0.45843 0.49252 0.79781 0.0
C1723 C 0.45653 0.47834 0.80234 0.0
C1724 C 0.46689 0.47828 0.81364 0.0
C1725 C 0.47941 0.49216 0.81969 0.0
C1726 C 0.50274 0.52272 0.79185 0.0
C1727 C 0.49986 0.53075 0.78041 0.0
C1728 C 0.49638 0.52483 0.76493 0.0
C1729 C 0.49571 0.51077 0.76063 0.0
C1730 C 0.49869 0.50281 0.77214 0.0
C1731 C 0.50221 0.50876 0.7876 0.0
C1732 C 0.53122 0.55034 0.80121 0.0
C1733 C 0.53496 0.56515 0.79688 0.0
C1734 C 0.54657 0.57284 0.78702 0.0
C1735 C 0.55456 0.56581 0.78124 0.0
C1736 C 0.55046 0.55079 0.78528 0.0
C1737 C 0.53893 0.54315 0.7952 0.0
C1738 C 0.53749 0.56319 0.8331 0.0
C1739 C 0.53675 0.57624 0.83836 0.0
C1740 C 0.55002 0.59011 0.84279 0.0
C1741 C 0.56429 0.59117 0.84203 0.0
C1742 C 0.56497 0.57804 0.83678 0.0
C1743 C 0.55168 0.56416 0.8324 0.0
C1744 C 0.51798 0.54553 0.85656 0.0
C1745 C 0.50975 0.55037 0.86558 0.0
C1746 C 0.51465 0.55577 0.88113 0.0
C1747 C 0.52798 0.55667 0.88767 0.0
C1748 C 0.53609 0.5517 0.8787 0.0
C1749 C 0.53102 0.546 0.86335 0.0
C1750 C 0.489 0.51764 0.84739 0.0
C1751 C 0.47418 0.5153 0.84684 0.0
C1752 C 0.46418 0.5065 0.85771 0.0
C1753 C 0.46897 0.50022 0.86952 0.0
C1754 C 0.48386 0.50276 0.87021 0.0
C1755 C 0.49372 0.51123 0.85913 0.0
C1756 C 0.4919 0.50447 0.7442 0.0
C1757 C 0.57843 0.60589 0.8467 0.0
H1758 H 0.61821 0.82768 0.66473 0.0
H1759 H 0.64566 0.72712 0.55521 0.0
H1760 H 0.61278 0.83076 0.581 0.0
H1761 H 0.61709 0.85662 0.58853 0.0
H1762 H 0.66368 0.87626 0.57694 0.0
H1763 H 0.65903 0.85053 0.56895 0.0
H1764 H 0.60944 0.80053 0.60132 0.0
H1765 H 0.60878 0.80845 0.62828 0.0
H1766 H 0.65489 0.84593 0.62764 0.0
H1767 H 0.65546 0.83777 0.60076 0.0
H1768 H 0.6128 0.77012 0.58619 0.0
H1769 H 0.61862 0.754 0.60262 0.0
H1770 H 0.66192 0.79384 0.61784 0.0
H1771 H 0.65647 0.80948 0.60054 0.0
H1772 H 0.61034 0.76824 0.54927 0.0
H1773 H 0.61037 0.74395 0.54426 0.0
H1774 H 0.65625 0.76517 0.56526 0.0
H1775 H 0.65615 0.78944 0.56996 0.0
H1776 H 0.61212 0.7928 0.52682 0.0
H1777 H 0.61483 0.78378 0.5009 0.0
H1778 H 0.66117 0.79682 0.51501 0.0
H1779 H 0.65839 0.80583 0.54063 0.0
H1780 H 0.61271 0.82676 0.54593 0.0
H1781 H 0.61461 0.84436 0.5259 0.0
H1782 H 0.65809 0.8501 0.51548 0.0
H1783 H 0.65655 0.83318 0.53601 0.0
O1784 O 0.61873 0.82474 0.65408 0.0
O1785 O 0.64242 0.84388 0.65311 0.0
O1786 O 0.62214 0.72649 0.54541 0.0
O1787 O 0.64548 0.73668 0.55671 0.0
C1788 C 0.63339 0.82319 0.57057 0.0
C1789 C 0.63272 0.81376 0.58269 0.0
C1790 C 0.63261 0.79975 0.57927 0.0
C1791 C 0.63287 0.79505 0.56369 0.0
C1792 C 0.63335 0.80438 0.55157 0.0
C1793 C 0.63355 0.81844 0.55497 0.0
C1794 C 0.63558 0.83881 0.57439 0.0
C1795 C 0.62384 0.84071 0.57995 0.0
C1796 C 0.62638 0.85548 0.58435 0.0
C1797 C 0.64075 0.86858 0.58337 0.0
C1798 C 0.6524 0.86654 0.57758 0.0
C1799 C 0.6498 0.85182 0.57308 0.0
C1800 C 0.63244 0.81866 0.59905 0.0
C1801 C 0.61938 0.81044 0.60703 0.0
C1802 C 0.61903 0.815 0.62243 0.0
C1803 C 0.63177 0.82786 0.63011 0.0
C1804 C 0.64487 0.83601 0.62206 0.0
C1805 C 0.64521 0.83142 0.60669 0.0
C1806 C 0.63426 0.79094 0.59203 0.0
C1807 C 0.62341 0.77539 0.59331 0.0
C1808 C 0.62675 0.76622 0.60277 0.0
C1809 C 0.64089 0.77254 0.61133 0.0
C1810 C 0.6511 0.78847 0.61108 0.0
C1811 C 0.6479 0.79753 0.6014 0.0
C1812 C 0.6332 0.78054 0.56006 0.0
C1813 C 0.62042 0.76764 0.55266 0.0
C1814 C 0.62045 0.75377 0.54987 0.0
C1815 C 0.63329 0.75259 0.55445 0.0
C1816 C 0.64616 0.76566 0.56164 0.0
C1817 C 0.64614 0.77953 0.56435 0.0
C1818 C 0.63507 0.79995 0.53554 0.0
C1819 C 0.62288 0.79384 0.52418 0.0
C1820 C 0.62442 0.78864 0.50947 0.0
C1821 C 0.63823 0.78964 0.50592 0.0
C1822 C 0.65047 0.7961 0.51729 0.0
C1823 C 0.64889 0.80116 0.53196 0.0
C1824 C 0.6344 0.8285 0.54231 0.0
C1825 C 0.62265 0.83183 0.53934 0.0
C1826 C 0.62374 0.84186 0.52795 0.0
C1827 C 0.63644 0.84844 0.51915 0.0
C1828 C 0.64811 0.84499 0.52201 0.0
C1829 C 0.64719 0.83527 0.53365 0.0
C1830 C 0.63135 0.83269 0.64645 0.0
C1831 C 0.63325 0.73779 0.55187 0.0
H1832 H 0.17518 0.84161 0.67458 0.0
H1833 H 0.08121 0.71738 0.54689 0.0
H1834 H 0.17729 0.84958 0.59139 0.0
H1835 H 0.20009 0.87353 0.60106 0.0
H1836 H 0.22766 0.85321 0.58977 0.0
H1837 H 0.20467 0.82916 0.58016 0.0
H1838 H 0.1516 0.82473 0.60952 0.0
H1839 H 0.15806 0.83279 0.63721 0.0
H1840 H 0.19413 0.82173 0.63656 0.0
H1841 H 0.18744 0.81354 0.60891 0.0
H1842 H 0.12358 0.79747 0.58681 0.0
H1843 H 0.10435 0.78243 0.60454 0.0
H1844 H 0.13479 0.76925 0.62673 0.0
H1845 H 0.1539 0.78391 0.60848 0.0
H1846 H 0.12332 0.79429 0.55279 0.0
H1847 H 0.0998 0.77088 0.54352 0.0
H1848 H 0.117 0.74308 0.56384 0.0
H1849 H 0.14055 0.76659 0.57287 0.0
H1850 H 0.15094 0.82216 0.53859 0.0
H1851 H 0.14113 0.81528 0.51142 0.0
H1852 H 0.14442 0.77377 0.5129 0.0
H1853 H 0.1549 0.78116 0.53994 0.0
H1854 H 0.17755 0.84795 0.55726 0.0
H1855 H 0.19387 0.86454 0.53812 0.0
H1856 H 0.20524 0.82952 0.52492 0.0
H1857 H 0.18876 0.81295 0.54409 0.0
O1858 O 0.17273 0.83823 0.66367 0.0
O1859 O 0.1912 0.83247 0.66268 0.0
O1860 O 0.08213 0.74164 0.54007 0.0
O1861 O 0.09041 0.72683 0.55039 0.0
C1862 C 0.17541 0.82315 0.57958 0.0
C1863 C 0.16528 0.81389 0.59037 0.0
C1864 C 0.15148 0.80057 0.58506 0.0
C1865 C 0.14803 0.79634 0.56895 0.0
C1866 C 0.1581 0.80572 0.55815 0.0
C1867 C 0.17179 0.81913 0.56348 0.0
C1868 C 0.18937 0.83767 0.58514 0.0
C1869 C 0.18826 0.85032 0.59099 0.0
C1870 C 0.20128 0.864 0.59638 0.0
C1871 C 0.21564 0.86524 0.59609 0.0
C1872 C 0.21672 0.85253 0.59019 0.0
C1873 C 0.20366 0.83885 0.58467 0.0
C1874 C 0.16901 0.81848 0.60725 0.0
C1875 C 0.16082 0.82395 0.61542 0.0
C1876 C 0.16457 0.8286 0.63121 0.0
C1877 C 0.17662 0.82791 0.6391 0.0
C1878 C 0.18479 0.8224 0.63084 0.0
C1879 C 0.181 0.81773 0.61506 0.0
C1880 C 0.14009 0.79166 0.59622 0.0
C1881 C 0.12607 0.79121 0.59537 0.0
C1882 C 0.11512 0.78266 0.60551 0.0
C1883 C 0.1181 0.77465 0.61692 0.0
C1884 C 0.13227 0.77538 0.61804 0.0
C1885 C 0.14315 0.78371 0.60766 0.0
C1886 C 0.13368 0.78212 0.56339 0.0
C1887 C 0.12203 0.78313 0.55513 0.0
C1888 C 0.10859 0.76974 0.5499 0.0
C1889 C 0.10653 0.75509 0.55292 0.0
C1890 C 0.11822 0.75416 0.5613 0.0
C1891 C 0.13167 0.76756 0.56648 0.0
C1892 C 0.15363 0.80217 0.54124 0.0
C1893 C 0.14986 0.81176 0.53294 0.0
C1894 C 0.1441 0.80772 0.51747 0.0
C1895 C 0.14182 0.79388 0.51003 0.0
C1896 C 0.14615 0.78457 0.51822 0.0
C1897 C 0.15204 0.78871 0.53369 0.0
C1898 C 0.18208 0.82931 0.55214 0.0
C1899 C 0.1837 0.84395 0.55035 0.0
C1900 C 0.19304 0.8534 0.53942 0.0
C1901 C 0.20089 0.84837 0.53002 0.0
C1902 C 0.19923 0.83367 0.53187 0.0
C1903 C 0.18991 0.82423 0.54285 0.0
C1904 C 0.18067 0.83299 0.65585 0.0
C1905 C 0.09228 0.74083 0.54739 0.0
H1906 H 0.19059 0.37066 0.6836 0.0
H1907 H 0.07319 0.32977 0.54861 0.0
H1908 H 0.20576 0.38425 0.6047 0.0
H1909 H 0.22749 0.38424 0.61834 0.0
H1910 H 0.2144 0.34001 0.59497 0.0
H1911 H 0.19241 0.33975 0.58192 0.0
H1912 H 0.17578 0.37987 0.62003 0.0
H1913 H 0.18191 0.37999 0.64779 0.0
H1914 H 0.1821 0.33708 0.63957 0.0
H1915 H 0.17573 0.33699 0.61189 0.0
H1916 H 0.14483 0.37405 0.59907 0.0
H1917 H 0.1239 0.36756 0.61561 0.0
H1918 H 0.1235 0.32525 0.62577 0.0
H1919 H 0.14372 0.33142 0.60852 0.0
H1920 H 0.1476 0.37722 0.56329 0.0
H1921 H 0.12279 0.37286 0.55326 0.0
H1922 H 0.10242 0.32517 0.56464 0.0
H1923 H 0.12733 0.32965 0.57447 0.0
H1924 H 0.17308 0.38175 0.54576 0.0
H1925 H 0.165 0.3797 0.51812 0.0
H1926 H 0.14005 0.32997 0.51882 0.0
H1927 H 0.1482 0.33215 0.54638 0.0
H1928 H 0.20271 0.38646 0.56036 0.0
H1929 H 0.21815 0.38826 0.53874 0.0
H1930 H 0.19554 0.33838 0.53324 0.0
H1931 H 0.17977 0.3368 0.55428 0.0
O1932 O 0.18805 0.37033 0.6726 0.0
O1933 O 0.1882 0.34838 0.66771 0.0
O1934 O 0.09417 0.3564 0.54679 0.0
O1935 O 0.08313 0.3318 0.55248 0.0
C1936 C 0.18288 0.3606 0.5864 0.0
C1937 C 0.17197 0.35862 0.59705 0.0
C1938 C 0.15768 0.35647 0.5916 0.0
C1939 C 0.15434 0.35643 0.57552 0.0
C1940 C 0.16517 0.3583 0.56493 0.0
C1941 C 0.1794 0.36034 0.57034 0.0
C1942 C 0.19756 0.36207 0.5922 0.0
C1943 C 0.20778 0.37472 0.60229 0.0
C1944 C 0.22011 0.37467 0.6101 0.0
C1945 C 0.22258 0.36213 0.60766 0.0
C1946 C 0.21285 0.3499 0.59688 0.0
C1947 C 0.20035 0.3498 0.58933 0.0
C1948 C 0.1754 0.35848 0.61394 0.0
C1949 C 0.17708 0.37048 0.62427 0.0
C1950 C 0.18062 0.37053 0.64011 0.0
C1951 C 0.18254 0.35857 0.64589 0.0
C1952 C 0.18073 0.34649 0.6355 0.0
C1953 C 0.17713 0.34643 0.61968 0.0
C1954 C 0.14579 0.3532 0.60258 0.0
C1955 C 0.14018 0.36339 0.60489 0.0
C1956 C 0.1283 0.35971 0.61444 0.0
C1957 C 0.12192 0.34583 0.62199 0.0
C1958 C 0.1279 0.33588 0.61993 0.0
C1959 C 0.13961 0.33947 0.61023 0.0
C1960 C 0.13923 0.35376 0.56962 0.0
C1961 C 0.13776 0.36583 0.56357 0.0
C1962 C 0.12358 0.36331 0.55787 0.0
C1963 C 0.11061 0.34865 0.55816 0.0
C1964 C 0.11216 0.33659 0.56425 0.0
C1965 C 0.12636 0.33912 0.56991 0.0
C1966 C 0.16116 0.3571 0.54801 0.0
C1967 C 0.16599 0.37044 0.53986 0.0
C1968 C 0.16133 0.36924 0.52414 0.0
C1969 C 0.15188 0.35468 0.51633 0.0
C1970 C 0.14745 0.34133 0.52447 0.0
C1971 C 0.15201 0.34255 0.54021 0.0
C1972 C 0.19024 0.36151 0.5589 0.0
C1973 C 0.20131 0.37597 0.55459 0.0
C1974 C 0.21012 0.37695 0.54226 0.0
C1975 C 0.20801 0.36346 0.53413 0.0
C1976 C 0.19727 0.34901 0.53899 0.0
C1977 C 0.18838 0.34806 0.55115 0.0
C1978 C 0.18643 0.35873 0.6627 0.0
C1979 C 0.09551 0.34592 0.55212 0.0
H1980 H 0.03426 0.41593 0.05441 0.0
H1981 H 0.02684 0.42717 0.07527 0.0
H1982 H 0.98468 0.38438 0.0764 0.0
H1983 H 0.99183 0.37309 0.055 0.0
H1984 H 0.97967 0.40793 0.07854 0.0
H1985 H 0.01385 0.39538 0.10484 0.0
H1986 H 0.03733 0.39423 0.10976 0.0
H1987 H 0.06322 0.44374 0.11525 0.0
H1988 H 0.03992 0.44521 0.11014 0.0
H1989 H 0.96766 0.43436 0.15321 0.0
H1990 H 0.97056 0.41981 0.13148 0.0
H1991 H 0.0112 0.46075 0.12074 0.0
H1992 H 0.00822 0.47543 0.14219 0.0
H1993 H 0.0152 0.43543 0.12483 0.0
H1994 H 0.97998 0.4471 0.0971 0.0
H1995 H 0.9559 0.44723 0.09289 0.0
H1996 H 0.93115 0.39768 0.09154 0.0
H1997 H 0.95509 0.39727 0.09595 0.0
C1998 C 0.02343 0.40881 0.05909 0.0
C1999 C 0.01368 0.39354 0.05303 0.0
C2000 C 0.01922 0.41527 0.0711 0.0
C2001 C 0.00531 0.40655 0.0776 0.0
C2002 C 0.9955 0.39131 0.0716 0.0
C2003 C 0.99963 0.38486 0.05941 0.0
C2004 C 0.00106 0.41358 0.09048 0.0
C2005 C 0.98732 0.4137 0.0888 0.0
C2006 C 0.01108 0.42122 0.10383 0.0
C2007 C 0.02513 0.4204 0.10699 0.0
C2008 C 0.02456 0.40603 0.10699 0.0
C2009 C 0.03784 0.40532 0.10983 0.0
C2010 C 0.05176 0.4189 0.11279 0.0
C2011 C 0.05243 0.43323 0.11295 0.0
C2012 C 0.03918 0.43401 0.1101 0.0
C2013 C 0.97697 0.44037 0.14595 0.0
C2014 C 0.98777 0.45604 0.14947 0.0
C2015 C 0.97865 0.43201 0.1336 0.0
C2016 C 0.99114 0.4392 0.12458 0.0
C2017 C 0.00155 0.45497 0.12765 0.0
C2018 C 0.99984 0.46333 0.13991 0.0
C2019 C 0.99405 0.43013 0.11266 0.0
C2020 C 0.00752 0.42956 0.11461 0.0
C2021 C 0.98369 0.42191 0.09972 0.0
C2022 C 0.96931 0.42216 0.09703 0.0
C2023 C 0.96939 0.43624 0.09604 0.0
C2024 C 0.95577 0.43636 0.09359 0.0
C2025 C 0.942 0.42247 0.092 0.0
C2026 C 0.94182 0.40843 0.0928 0.0
C2027 C 0.95541 0.40824 0.09526 0.0
H2028 H 0.93146 0.42259 0.0901 0.0
H2029 H 0.06203 0.41832 0.11498 0.0
H2030 H 0.63262 0.59344 0.09575 0.0
H2031 H 0.61873 0.57534 0.11535 0.0
H2032 H 0.5765 0.56791 0.09333 0.0
H2033 H 0.5903 0.58585 0.07384 0.0
H2034 H 0.583 0.58065 0.12422 0.0
H2035 H 0.57337 0.52675 0.10076 0.0
H2036 H 0.58162 0.50864 0.09128 0.0
H2037 H 0.62223 0.53236 0.12174 0.0
H2038 H 0.61409 0.55049 0.13145 0.0
H2039 H 0.52469 0.52564 0.16652 0.0
H2040 H 0.5417 0.5409 0.14714 0.0
H2041 H 0.57802 0.53674 0.1701 0.0
H2042 H 0.56093 0.52124 0.18937 0.0
H2043 H 0.577 0.53095 0.14048 0.0
H2044 H 0.57734 0.57137 0.17164 0.0
H2045 H 0.56659 0.58512 0.18586 0.0
H2046 H 0.54474 0.58789 0.1433 0.0
H2047 H 0.55518 0.57395 0.12884 0.0
C2048 C 0.62034 0.5874 0.09477 0.0
C2049 C 0.61247 0.5908 0.08318 0.0
C2050 C 0.61241 0.57707 0.10595 0.0
C2051 C 0.59655 0.57019 0.10575 0.0
C2052 C 0.58871 0.57298 0.09365 0.0
C2053 C 0.59659 0.58326 0.08254 0.0
C2054 C 0.58838 0.56262 0.11947 0.0
C2055 C 0.58159 0.56971 0.12772 0.0
C2056 C 0.587 0.54871 0.12447 0.0
C2057 C 0.59336 0.54018 0.11646 0.0
C2058 C 0.58423 0.5283 0.10511 0.0
C2059 C 0.58876 0.51789 0.0999 0.0
C2060 C 0.60242 0.51932 0.10593 0.0
C2061 C 0.61165 0.53127 0.11707 0.0
C2062 C 0.60714 0.54166 0.12236 0.0
C2063 C 0.53636 0.52815 0.16754 0.0
C2064 C 0.5415 0.52225 0.17945 0.0
C2065 C 0.54609 0.53691 0.15649 0.0
C2066 C 0.56122 0.54016 0.15726 0.0
C2067 C 0.5664 0.5344 0.16926 0.0
C2068 C 0.55663 0.52551 0.18023 0.0
C2069 C 0.57134 0.54878 0.14505 0.0
C2070 C 0.57849 0.54196 0.13712 0.0
C2071 C 0.57323 0.56307 0.14053 0.0
C2072 C 0.56695 0.5715 0.14917 0.0
C2073 C 0.57015 0.5748 0.16532 0.0
C2074 C 0.56412 0.58265 0.17343 0.0
C2075 C 0.55496 0.58735 0.16549 0.0
C2076 C 0.55183 0.58423 0.14943 0.0
C2077 C 0.55782 0.57638 0.14127 0.0
H2078 H 0.55031 0.59342 0.17179 0.0
H2079 H 0.6059 0.51123 0.1019 0.0
H2080 H 0.40849 0.98475 0.03865 0.0
H2081 H 0.42512 0.98604 0.06098 0.0
H2082 H 0.41547 0.018 0.08597 0.0
H2083 H 0.39844 0.01624 0.06395 0.0
H2084 H 0.44782 0.02607 0.08661 0.0
H2085 H 0.39749 0.98429 0.09506 0.0
H2086 H 0.37406 0.95975 0.08743 0.0
H2087 H 0.39994 0.93664 0.08291 0.0
H2088 H 0.42357 0.96113 0.09029 0.0
H2089 H 0.46759 0.02571 0.16594 0.0
H2090 H 0.45601 0.02514 0.14034 0.0
H2091 H 0.45864 0.9848 0.12562 0.0
H2092 H 0.47006 0.98521 0.15137 0.0
H2093 H 0.43177 0.98033 0.11755 0.0
H2094 H 0.48178 0.02099 0.11209 0.0
H2095 H 0.50563 0.04536 0.1187 0.0
H2096 H 0.48167 0.07065 0.11628 0.0
H2097 H 0.45759 0.04639 0.1099 0.0
C2098 C 0.41011 0.99217 0.04888 0.0
C2099 C 0.40275 0.0009 0.04944 0.0
C2100 C 0.41955 0.99289 0.06157 0.0
C2101 C 0.4216 0.00223 0.07501 0.0
C2102 C 0.41418 0.0109 0.0756 0.0
C2103 C 0.40459 0.01 0.06301 0.0
C2104 C 0.4309 0.00246 0.08881 0.0
C2105 C 0.44431 0.01617 0.0935 0.0
C2106 C 0.4265 0.9893 0.09737 0.0
C2107 C 0.4123 0.97457 0.09303 0.0
C2108 C 0.3982 0.97401 0.09229 0.0
C2109 C 0.38488 0.9601 0.08804 0.0
C2110 C 0.38551 0.94665 0.08463 0.0
C2111 C 0.39947 0.94707 0.08552 0.0
C2112 C 0.41283 0.96096 0.08974 0.0
C2113 C 0.46596 0.01689 0.15715 0.0
C2114 C 0.46977 0.00553 0.16064 0.0
C2115 C 0.45934 0.01657 0.14251 0.0
C2116 C 0.4566 0.00503 0.13095 0.0
C2117 C 0.46064 0.99382 0.13433 0.0
C2118 C 0.46715 0.99405 0.14904 0.0
C2119 C 0.44869 0.00417 0.11571 0.0
C2120 C 0.43549 0.99029 0.11067 0.0
C2121 C 0.45338 0.01719 0.10675 0.0
C2122 C 0.46783 0.03182 0.11068 0.0
C2123 C 0.48155 0.03172 0.11312 0.0
C2124 C 0.49513 0.04553 0.1168 0.0
C2125 C 0.49517 0.05954 0.11795 0.0
C2126 C 0.48162 0.05978 0.1154 0.0
C2127 C 0.468 0.046 0.11175 0.0
H2128 H 0.5057 0.07022 0.12079 0.0
H2129 H 0.37519 0.93589 0.08135 0.0
H2130 H 0.42033 0.02438 0.98189 0.0
H2131 H 0.42901 0.01903 0.95802 0.0
H2132 H 0.3896 0.97354 0.9525 0.0
H2133 H 0.38072 0.97875 0.97676 0.0
H2134 H 0.4162 0.9734 0.94685 0.0
H2135 H 0.39119 0.00047 0.92972 0.0
H2136 H 0.38471 0.02123 0.9304 0.0
H2137 H 0.43097 0.05469 0.92416 0.0
H2138 H 0.43779 0.03416 0.92367 0.0
H2139 H 0.43853 0.96596 0.87054 0.0
H2140 H 0.4236 0.96635 0.8918 0.0
H2141 H 0.45781 0.01333 0.90562 0.0
H2142 H 0.47287 0.01297 0.88464 0.0
H2143 H 0.42963 0.00976 0.90501 0.0
H2144 H 0.45514 0.98352 0.9256 0.0
H2145 H 0.4622 0.96317 0.92568 0.0
H2146 H 0.41529 0.92845 0.92562 0.0
H2147 H 0.40794 0.9486 0.92537 0.0
C2148 C 0.41338 0.01321 0.97567 0.0
C2149 C 0.39972 0.00203 0.98129 0.0
C2150 C 0.41838 0.0102 0.96193 0.0
C2151 C 0.40986 0.99598 0.95334 0.0
C2152 C 0.39631 0.98464 0.95892 0.0
C2153 C 0.39123 0.98766 0.97275 0.0
C2154 C 0.41543 0.99314 0.93867 0.0
C2155 C 0.41882 0.98112 0.93753 0.0
C2156 C 0.41909 0.00338 0.92662 0.0
C2157 C 0.41501 0.01577 0.92674 0.0
C2158 C 0.4 0.01227 0.92859 0.0
C2159 C 0.39627 0.024 0.92893 0.0
C2160 C 0.40743 0.03927 0.92735 0.0
C2161 C 0.42234 0.04285 0.92538 0.0
C2162 C 0.42614 0.03117 0.92505 0.0
C2163 C 0.44294 0.97634 0.87818 0.0
C2164 C 0.45691 0.98946 0.87583 0.0
C2165 C 0.43436 0.97655 0.89031 0.0
C2166 C 0.43961 0.98986 0.90034 0.0
C2167 C 0.45348 0.00297 0.89796 0.0
C2168 C 0.46206 0.00276 0.8859 0.0
C2169 C 0.43076 0.99027 0.91338 0.0
C2170 C 0.42676 0.00185 0.9142 0.0
C2171 C 0.42658 0.97965 0.92512 0.0
C2172 C 0.43098 0.96754 0.92528 0.0
C2173 C 0.44633 0.97153 0.92547 0.0
C2174 C 0.45038 0.96004 0.92558 0.0
C2175 C 0.4392 0.94452 0.9256 0.0
C2176 C 0.42394 0.94047 0.92557 0.0
C2177 C 0.41982 0.95192 0.92546 0.0
H2178 H 0.44236 0.93564 0.92568 0.0
H2179 H 0.40451 0.04834 0.92762 0.0
H2180 H 0.03277 0.39137 0.97484 0.0
H2181 H 0.03518 0.40989 0.95568 0.0
H2182 H 0.00301 0.41827 0.97868 0.0
H2183 H 0.00154 0.40076 0.99848 0.0
H2184 H 0.0037 0.40269 0.93964 0.0
H2185 H 0.01673 0.44485 0.98033 0.0
H2186 H 0.03171 0.4649 0.00125 0.0
H2187 H 0.07103 0.48193 0.97505 0.0
H2188 H 0.05639 0.46143 0.95429 0.0
H2189 H 0.98779 0.45345 0.89504 0.0
H2190 H 0.99027 0.43831 0.91537 0.0
H2191 H 0.03729 0.45622 0.90702 0.0
H2192 H 0.0348 0.47081 0.88608 0.0
H2193 H 0.03064 0.45976 0.93889 0.0
H2194 H 0.01599 0.42142 0.89642 0.0
H2195 H 0.99964 0.40473 0.8738 0.0
H2196 H 0.96222 0.3828 0.90238 0.0
H2197 H 0.97829 0.39955 0.92514 0.0
C2198 C 0.02692 0.39786 0.97626 0.0
C2199 C 0.01755 0.39525 0.98851 0.0
C2200 C 0.02822 0.40836 0.9653 0.0
C2201 C 0.01983 0.41605 0.96617 0.0
C2202 C 0.01031 0.41325 0.9783 0.0
C2203 C 0.00927 0.40304 0.98945 0.0
C2204 C 0.01859 0.42425 0.95275 0.0
C2205 C 0.00953 0.41519 0.93952 0.0
C2206 C 0.0263 0.44054 0.95255 0.0
C2207 C 0.03561 0.45113 0.96606 0.0
C2208 C 0.02872 0.45237 0.97933 0.0
C2209 C 0.0371 0.46399 0.99107 0.0
C2210 C 0.05234 0.47464 0.98953 0.0
C2211 C 0.05925 0.47364 0.97628 0.0
C2212 C 0.05095 0.4619 0.96461 0.0
C2213 C 0.99858 0.45391 0.8972 0.0
C2214 C 0.01112 0.46344 0.8889 0.0
C2215 C 0.99997 0.4453 0.9089 0.0
C2216 C 0.01395 0.44618 0.91263 0.0
C2217 C 0.02642 0.45546 0.90428 0.0
C2218 C 0.02499 0.46388 0.89242 0.0
C2219 C 0.01579 0.43821 0.92593 0.0
C2220 C 0.02492 0.44727 0.93904 0.0
C2221 C 0.00798 0.42197 0.92612 0.0
C2222 C 0.99831 0.41186 0.91246 0.0
C2223 C 0.00424 0.41315 0.89786 0.0
C2224 C 0.99503 0.40365 0.88502 0.0
C2225 C 0.97989 0.39274 0.88665 0.0
C2226 C 0.97394 0.39128 0.90113 0.0
C2227 C 0.9831 0.40076 0.91401 0.0
H2228 H 0.97278 0.38539 0.87669 0.0
H2229 H 0.05877 0.4837 0.99857 0.0
H2230 H 0.58861 0.57528 0.02611 0.0
H2231 H 0.57069 0.56801 0.00336 0.0
H2232 H 0.59829 0.61302 0.98628 0.0
H2233 H 0.61564 0.62063 0.00969 0.0
H2234 H 0.57098 0.60514 0.97908 0.0
H2235 H 0.59914 0.57852 0.97345 0.0
H2236 H 0.60932 0.56164 0.98108 0.0
H2237 H 0.56406 0.5236 0.98246 0.0
H2238 H 0.55361 0.54032 0.97502 0.0
H2239 H 0.55376 0.58307 0.89735 0.0
H2240 H 0.56519 0.59157 0.92406 0.0
H2241 H 0.52698 0.55197 0.94083 0.0
H2242 H 0.51533 0.54365 0.91408 0.0
H2243 H 0.55706 0.55608 0.94901 0.0
H2244 H 0.52992 0.58407 0.95072 0.0
H2245 H 0.52173 0.60197 0.94117 0.0
H2246 H 0.56798 0.63882 0.94462 0.0
H2247 H 0.57647 0.62108 0.95398 0.0
C2248 C 0.59078 0.58362 0.01753 0.0
C2249 C 0.60355 0.59843 0.0195 0.0
C2250 C 0.58057 0.57945 0.00448 0.0
C2251 C 0.58332 0.58979 0.99281 0.0
C2252 C 0.5959 0.60478 0.99504 0.0
C2253 C 0.60584 0.60912 0.00837 0.0
C2254 C 0.57341 0.58485 0.97809 0.0
C2255 C 0.56807 0.59447 0.97247 0.0
C2256 C 0.56935 0.5708 0.96948 0.0
C2257 C 0.5756 0.56071 0.97385 0.0
C2258 C 0.59136 0.56658 0.97548 0.0
C2259 C 0.59718 0.55704 0.97976 0.0
C2260 C 0.58734 0.54157 0.9823 0.0
C2261 C 0.57166 0.5356 0.98052 0.0
C2262 C 0.56579 0.54509 0.97626 0.0
C2263 C 0.54768 0.57642 0.90682 0.0
C2264 C 0.53369 0.56279 0.90382 0.0
C2265 C 0.55418 0.58127 0.92202 0.0
C2266 C 0.54688 0.57241 0.93437 0.0
C2267 C 0.5327 0.55898 0.93143 0.0
C2268 C 0.52606 0.55428 0.91623 0.0
C2269 C 0.55483 0.57642 0.95006 0.0
C2270 C 0.55985 0.56665 0.95578 0.0
C2271 C 0.55892 0.59049 0.9585 0.0
C2272 C 0.55384 0.6012 0.95294 0.0
C2273 C 0.53836 0.59596 0.94932 0.0
C2274 C 0.53366 0.60609 0.94396 0.0
C2275 C 0.54433 0.62152 0.94226 0.0
C2276 C 0.55972 0.62686 0.94594 0.0
C2277 C 0.56448 0.61678 0.95129 0.0
H2278 H 0.54067 0.62934 0.93811 0.0
H2279 H 0.59187 0.53421 0.98562 0.0
H2280 H 0.01106 0.63316 0.99626 0.0
H2281 H 0.01343 0.61706 0.97573 0.0
H2282 H 0.98432 0.5762 0.99889 0.0
H2283 H 0.98205 0.59242 0.01954 0.0
H2284 H 0.00961 0.5759 0.98908 0.0
H2285 H 0.97042 0.5845 0.96758 0.0
H2286 H 0.95871 0.60005 0.96008 0.0
H2287 H 0.99374 0.62412 0.92932 0.0
H2288 H 0.00579 0.60886 0.93682 0.0
H2289 H 0.99794 0.52342 0.92447 0.0
H2290 H 0.99538 0.53792 0.94646 0.0
H2291 H 0.02039 0.58025 0.92378 0.0
H2292 H 0.02237 0.56582 0.90154 0.0
H2293 H 0.99583 0.57854 0.93389 0.0
H2294 H 0.03592 0.57136 0.95566 0.0
H2295 H 0.04863 0.55683 0.96353 0.0
H2296 H 0.01361 0.53154 0.99391 0.0
H2297 H 0.00057 0.54578 0.98605 0.0
C2298 C 0.00532 0.62075 0.99699 0.0
C2299 C 0.99676 0.61396 0.0096 0.0
C2300 C 0.00654 0.61157 0.98523 0.0
C2301 C 0.99902 0.59544 0.98579 0.0
C2302 C 0.99027 0.58863 0.99831 0.0
C2303 C 0.98895 0.59784 0.01003 0.0
C2304 C 1.00031 0.58575 0.97324 0.0
C2305 C 0.00649 0.57635 0.97702 0.0
C2306 C 0.99637 0.58651 0.9575 0.0
C2307 C 0.98908 0.59562 0.95287 0.0
C2308 C 0.97569 0.59318 0.95931 0.0
C2309 C 0.96898 0.60194 0.95504 0.0
C2310 C 0.97549 0.61309 0.94425 0.0
C2311 C 0.98871 0.61549 0.93768 0.0
C2312 C 0.99548 0.60678 0.94193 0.0
C2313 C 0.00294 0.53582 0.92421 0.0
C2314 C 0.01043 0.54346 0.91128 0.0
C2315 C 0.00158 0.54411 0.93684 0.0
C2316 C 0.00779 0.56019 0.93682 0.0
C2317 C 0.01553 0.56785 0.92407 0.0
C2318 C 0.01682 0.55959 0.91144 0.0
C2319 C 0.00558 0.569 0.94967 0.0
C2320 C 0.99909 0.57815 0.94594 0.0
C2321 C 0.00941 0.56815 0.96543 0.0
C2322 C 0.01717 0.5595 0.97011 0.0
C2323 C 0.03084 0.56259 0.9639 0.0
C2324 C 0.03813 0.55443 0.96839 0.0
C2325 C 0.0319 0.54323 0.97917 0.0
C2326 C 0.0184 0.5402 0.98553 0.0
C2327 C 0.01106 0.54831 0.98107 0.0
H2328 H 0.03756 0.53693 0.98264 0.0
H2329 H 0.97028 0.61986 0.94097 0.0
H2330 H 0.40156 0.42663 0.98629 0.0
H2331 H 0.41252 0.44495 0.96622 0.0
H2332 H 0.39639 0.40687 0.9315 0.0
H2333 H 0.38645 0.38867 0.95184 0.0
H2334 H 0.42293 0.42499 0.92669 0.0
H2335 H 0.38169 0.43358 0.93496 0.0
H2336 H 0.36457 0.43913 0.94971 0.0
H2337 H 0.4019 0.48348 0.96603 0.0
H2338 H 0.4193 0.47812 0.95155 0.0
H2339 H 0.44148 0.47433 0.86337 0.0
H2340 H 0.42502 0.45699 0.88217 0.0
H2341 H 0.45612 0.48721 0.91986 0.0
H2342 H 0.47283 0.50436 0.90108 0.0
H2343 H 0.42067 0.47318 0.9217 0.0
H2344 H 0.46158 0.4615 0.91396 0.0
H2345 H 0.47696 0.45523 0.89709 0.0
H2346 H 0.43671 0.41501 0.87712 0.0
H2347 H 0.42107 0.42121 0.89372 0.0
C2348 C 0.40012 0.42227 0.9743 0.0
C2349 C 0.39309 0.40634 0.97048 0.0
C2350 C 0.40632 0.43272 0.9628 0.0
C2351 C 0.40515 0.42738 0.94721 0.0
C2352 C 0.39751 0.41135 0.9434 0.0
C2353 C 0.39173 0.40094 0.95496 0.0
C2354 C 0.413 0.43837 0.93513 0.0
C2355 C 0.42213 0.43535 0.9255 0.0
C2356 C 0.41225 0.45209 0.93355 0.0
C2357 C 0.40182 0.45538 0.94227 0.0
C2358 C 0.38627 0.44447 0.94179 0.0
C2359 C 0.37651 0.44759 0.95009 0.0
C2360 C 0.38215 0.46163 0.95883 0.0
C2361 C 0.39755 0.4726 0.95927 0.0
C2362 C 0.40737 0.46953 0.951 0.0
C2363 C 0.44466 0.47735 0.87568 0.0
C2364 C 0.45839 0.49061 0.88084 0.0
C2365 C 0.43528 0.46748 0.88637 0.0
C2366 C 0.43937 0.4709 0.90235 0.0
C2367 C 0.45276 0.48447 0.90756 0.0
C2368 C 0.4623 0.49417 0.89687 0.0
C2369 C 0.4304 0.45963 0.91357 0.0
C2370 C 0.42119 0.46267 0.92296 0.0
C2371 C 0.43074 0.44575 0.91473 0.0
C2372 C 0.44016 0.44192 0.90493 0.0
C2373 C 0.45601 0.45141 0.90586 0.0
C2374 C 0.46477 0.44785 0.89638 0.0
C2375 C 0.45781 0.43475 0.886 0.0
C2376 C 0.44208 0.42516 0.88514 0.0
C2377 C 0.43326 0.42869 0.89459 0.0
H2378 H 0.46461 0.43201 0.87867 0.0
H2379 H 0.37457 0.46402 0.96525 0.0
H2380 H 0.60792 0.98929 0.99563 0.0
H2381 H 0.59135 0.98573 0.97249 0.0
H2382 H 0.57779 0.01607 0.99447 0.0
H2383 H 0.59412 0.01928 0.01783 0.0
H2384 H 0.55369 0.9912 0.97937 0.0
H2385 H 0.60416 0.02915 0.96807 0.0
H2386 H 0.63149 0.03919 0.96579 0.0
H2387 H 0.62137 0.00201 0.93215 0.0
H2388 H 0.59398 0.99163 0.93439 0.0
H2389 H 0.54767 0.01608 0.89578 0.0
H2390 H 0.56124 0.01849 0.92064 0.0
H2391 H 0.53017 0.97064 0.92744 0.0
H2392 H 0.51607 0.96828 0.90275 0.0
H2393 H 0.57625 0.00436 0.92861 0.0
H2394 H 0.52832 0.96635 0.96725 0.0
H2395 H 0.50136 0.95798 0.96998 0.0
H2396 H 0.50693 0.99887 0.94951 0.0
H2397 H 0.53396 0.00759 0.94687 0.0
C2398 C 0.60116 0.99494 0.99557 0.0
C2399 C 0.60179 0.00411 0.00857 0.0
C2400 C 0.59185 0.99305 0.98233 0.0
C2401 C 0.58335 0.00065 0.98177 0.0
C2402 C 0.58414 0.00999 0.99474 0.0
C2403 C 0.59347 0.01187 0.00799 0.0
C2404 C 0.57412 0.99934 0.96743 0.0
C2405 C 0.55858 0.99404 0.96825 0.0
C2406 C 0.58057 0.00323 0.95299 0.0
C2407 C 0.59703 0.00955 0.9515 0.0
C2408 C 0.60777 0.02307 0.96026 0.0
C2409 C 0.62327 0.02882 0.95897 0.0
C2410 C 0.62816 0.02122 0.94886 0.0
C2411 C 0.61757 0.00787 0.93999 0.0
C2412 C 0.60206 0.00206 0.94125 0.0
C2413 C 0.54347 0.00614 0.9027 0.0
C2414 C 0.53071 0.992 0.89731 0.0
C2415 C 0.55136 0.0075 0.91685 0.0
C2416 C 0.5467 0.99477 0.92592 0.0
C2417 C 0.53387 0.98066 0.9207 0.0
C2418 C 0.52591 0.9793 0.90653 0.0
C2419 C 0.55576 0.99621 0.94048 0.0
C2420 C 0.57129 0.00146 0.9397 0.0
C2421 C 0.54932 0.99253 0.95497 0.0
C2422 C 0.53312 0.98751 0.95668 0.0
C2423 C 0.5238 0.97357 0.96337 0.0
C2424 C 0.5085 0.96877 0.9649 0.0
C2425 C 0.50242 0.97785 0.95986 0.0
C2426 C 0.51164 0.9918 0.95334 0.0
C2427 C 0.52694 0.99667 0.95181 0.0
H2428 H 0.49057 0.9741 0.96103 0.0
H2429 H 0.64017 0.0257 0.94788 0.0
H2430 H 0.62392 0.02496 0.08609 0.0
H2431 H 0.61465 0.03106 0.1096 0.0
H2432 H 0.56913 0.99535 0.09476 0.0
H2433 H 0.57822 0.98892 0.07164 0.0
H2434 H 0.57271 0.02529 0.10558 0.0
H2435 H 0.58662 0.98659 0.11965 0.0
H2436 H 0.60486 0.97722 0.12302 0.0
H2437 H 0.63355 0.01657 0.1544 0.0
H2438 H 0.61556 0.02628 0.15102 0.0
H2439 H 0.52438 0.99997 0.16516 0.0
H2440 H 0.54022 0.00295 0.14385 0.0
H2441 H 0.58037 0.03108 0.17435 0.0
H2442 H 0.56451 0.02758 0.19604 0.0
H2443 H 0.58413 0.011 0.15688 0.0
H2444 H 0.56893 0.04769 0.14694 0.0
H2445 H 0.55169 0.05828 0.14384 0.0
H2446 H 0.52718 0.02551 0.10517 0.0
H2447 H 0.54415 0.01455 0.10816 0.0
C2448 C 0.61193 0.01847 0.08781 0.0
C2449 C 0.60181 0.00645 0.07698 0.0
C2450 C 0.60668 0.02196 0.10123 0.0
C2451 C 0.59122 0.01366 0.10383 0.0
C2452 C 0.58109 0.00193 0.09289 0.0
C2453 C 0.58634 0.99824 0.0797 0.0
C2454 C 0.58541 0.01666 0.11815 0.0
C2455 C 0.57518 0.02219 0.11682 0.0
C2456 C 0.58912 0.01314 0.13286 0.0
C2457 C 0.59986 0.00726 0.13492 0.0
C2458 C 0.59689 0.99332 0.12714 0.0
C2459 C 0.60716 0.98793 0.12908 0.0
C2460 C 0.62038 0.99633 0.13887 0.0
C2461 C 0.62333 0.0101 0.14679 0.0
C2462 C 0.6131 0.01555 0.14487 0.0
C2463 C 0.53658 0.00667 0.16742 0.0
C2464 C 0.54317 0.01348 0.18233 0.0
C2465 C 0.54564 0.00855 0.15515 0.0
C2466 C 0.56149 0.01746 0.15743 0.0
C2467 C 0.56816 0.02425 0.17231 0.0
C2468 C 0.55908 0.02232 0.18465 0.0
C2469 C 0.57094 0.01915 0.14426 0.0
C2470 C 0.58188 0.01449 0.14577 0.0
C2471 C 0.56805 0.02371 0.12974 0.0
C2472 C 0.55778 0.03024 0.12783 0.0
C2473 C 0.5598 0.04266 0.13784 0.0
C2474 C 0.55009 0.04874 0.13609 0.0
C2475 C 0.53834 0.04256 0.12433 0.0
C2476 C 0.53629 0.03029 0.11427 0.0
C2477 C 0.54598 0.02415 0.11597 0.0
H2478 H 0.53087 0.04732 0.12299 0.0
H2479 H 0.62832 0.99214 0.14036 0.0
H2480 H 0.99181 0.595 0.06242 0.0
H2481 H 0.986 0.57899 0.08452 0.0
H2482 H 0.98985 0.61661 0.11432 0.0
H2483 H 0.9961 0.63289 0.09202 0.0
H2484 H 0.00544 0.60407 0.12722 0.0
H2485 H 0.95539 0.58479 0.10555 0.0
H2486 H 0.93432 0.57486 0.08523 0.0
H2487 H 0.93914 0.53507 0.07556 0.0
H2488 H 0.96041 0.54487 0.09567 0.0
H2489 H 0.98067 0.55006 0.18746 0.0
H2490 H 0.98033 0.56796 0.16886 0.0
H2491 H 0.98616 0.54179 0.13168 0.0
H2492 H 0.98676 0.52405 0.15023 0.0
H2493 H 0.96277 0.55014 0.12537 0.0
H2494 H 0.01552 0.57244 0.1449 0.0
H2495 H 0.03625 0.58267 0.16564 0.0
H2496 H 0.02514 0.61727 0.18009 0.0
H2497 H 0.00417 0.60707 0.15956 0.0
C2498 C 0.99143 0.59985 0.07368 0.0
C2499 C 0.99455 0.61517 0.07563 0.0
C2500 C 0.98791 0.59064 0.08627 0.0
C2501 C 0.98735 0.59654 0.10108 0.0
C2502 C 0.99017 0.61181 0.103 0.0
C2503 C 0.99365 0.62105 0.0903 0.0
C2504 C 0.98475 0.58691 0.11454 0.0
C2505 C 0.9959 0.59241 0.127 0.0
C2506 C 0.97238 0.57163 0.1142 0.0
C2507 C 0.95957 0.56563 0.10208 0.0
C2508 C 0.95204 0.57398 0.09902 0.0
C2509 C 0.94004 0.56836 0.08755 0.0
C2510 C 0.93541 0.55435 0.0791 0.0
C2511 C 0.94275 0.54592 0.08212 0.0
C2512 C 0.95476 0.55149 0.09357 0.0
C2513 C 0.98179 0.54811 0.17529 0.0
C2514 C 0.98378 0.53573 0.17024 0.0
C2515 C 0.98162 0.55833 0.16472 0.0
C2516 C 0.98322 0.55617 0.14893 0.0
C2517 C 0.98487 0.54361 0.14383 0.0
C2518 C 0.9853 0.53356 0.15441 0.0
C2519 C 0.98365 0.5672 0.13769 0.0
C2520 C 0.9721 0.56192 0.12569 0.0
C2521 C 0.99554 0.58272 0.13854 0.0
C2522 C 0.00816 0.58887 0.15084 0.0
C2523 C 0.0174 0.58213 0.1526 0.0
C2524 C 0.02921 0.58794 0.1643 0.0
C2525 C 0.03198 0.60058 0.17421 0.0
C2526 C 0.02296 0.60746 0.17242 0.0
C2527 C 0.01111 0.60167 0.16076 0.0
H2528 H 0.04113 0.60507 0.18326 0.0
H2529 H 0.92612 0.55002 0.07022 0.0
H2530 H 0.41425 0.42196 0.03137 0.0
H2531 H 0.43235 0.43187 0.0543 0.0
H2532 H 0.41715 0.38524 0.06665 0.0
H2533 H 0.39869 0.37538 0.04402 0.0
H2534 H 0.41389 0.40381 0.08904 0.0
H2535 H 0.46427 0.41013 0.06868 0.0
H2536 H 0.48326 0.41859 0.04911 0.0
H2537 H 0.4783 0.45836 0.0425 0.0
H2538 H 0.45966 0.45032 0.0624 0.0
H2539 H 0.45885 0.42291 0.15957 0.0
H2540 H 0.44806 0.41195 0.1333 0.0
H2541 H 0.46733 0.45779 0.11707 0.0
H2542 H 0.47887 0.46885 0.14319 0.0
H2543 H 0.46952 0.43893 0.09619 0.0
H2544 H 0.43 0.43737 0.12579 0.0
H2545 H 0.41398 0.43081 0.14795 0.0
H2546 H 0.39734 0.38255 0.1369 0.0
H2547 H 0.41345 0.38884 0.11481 0.0
C2548 C 0.41518 0.41386 0.03873 0.0
C2549 C 0.40543 0.39792 0.03575 0.0
C2550 C 0.42564 0.41951 0.05172 0.0
C2551 C 0.42639 0.4093 0.06202 0.0
C2552 C 0.41698 0.39332 0.05871 0.0
C2553 C 0.4065 0.38769 0.04575 0.0
C2554 C 0.43465 0.41525 0.07755 0.0
C2555 C 0.4261 0.41129 0.09061 0.0
C2556 C 0.45046 0.42538 0.07964 0.0
C2557 C 0.46034 0.42943 0.06665 0.0
C2558 C 0.46713 0.42057 0.06289 0.0
C2559 C 0.47798 0.42541 0.05192 0.0
C2560 C 0.48197 0.439 0.04454 0.0
C2561 C 0.47515 0.4478 0.04817 0.0
C2562 C 0.46449 0.44314 0.05932 0.0
C2563 C 0.46109 0.43068 0.15038 0.0
C2564 C 0.46967 0.44679 0.15354 0.0
C2565 C 0.45475 0.42439 0.13538 0.0
C2566 C 0.45664 0.43406 0.12328 0.0
C2567 C 0.46564 0.45011 0.12625 0.0
C2568 C 0.4721 0.45642 0.14123 0.0
C2569 C 0.44877 0.42749 0.10767 0.0
C2570 C 0.45733 0.43135 0.09463 0.0
C2571 C 0.4329 0.41741 0.1056 0.0
C2572 C 0.42304 0.41359 0.11874 0.0
C2573 C 0.423 0.42537 0.12815 0.0
C2574 C 0.41389 0.42169 0.14069 0.0
C2575 C 0.40468 0.40627 0.14386 0.0
C2576 C 0.40451 0.39449 0.13445 0.0
C2577 C 0.41361 0.3981 0.12191 0.0
H2578 H 0.39765 0.40345 0.15358 0.0
H2579 H 0.49032 0.44269 0.036 0.0
H2580 H 0.68974 0.75257 0.39065 0.0
H2581 H 0.68169 0.76308 0.41168 0.0
H2582 H 0.6394 0.72017 0.41084 0.0
H2583 H 0.64727 0.70952 0.38955 0.0
H2584 H 0.6352 0.74511 0.4141 0.0
H2585 H 0.66692 0.72798 0.43848 0.0
H2586 H 0.68983 0.72565 0.44268 0.0
H2587 H 0.71679 0.77466 0.45297 0.0
H2588 H 0.69406 0.77731 0.44861 0.0
H2589 H 0.61837 0.76209 0.49007 0.0
H2590 H 0.62264 0.7506 0.46666 0.0
H2591 H 0.66615 0.79156 0.46428 0.0
H2592 H 0.66194 0.80308 0.48761 0.0
H2593 H 0.66846 0.76593 0.46292 0.0
H2594 H 0.63636 0.78288 0.43806 0.0
H2595 H 0.61321 0.7848 0.43394 0.0
H2596 H 0.58661 0.73558 0.42501 0.0
H2597 H 0.60958 0.73335 0.42929 0.0
C2598 C 0.67872 0.74531 0.39489 0.0
C2599 C 0.66922 0.73012 0.38847 0.0
C2600 C 0.67414 0.75136 0.40694 0.0
C2601 C 0.66004 0.74233 0.41297 0.0
C2602 C 0.65035 0.72731 0.40638 0.0
C2603 C 0.6549 0.72123 0.39425 0.0
C2604 C 0.65568 0.74856 0.4264 0.0
C2605 C 0.64234 0.74947 0.42487 0.0
C2606 C 0.66511 0.75442 0.44036 0.0
C2607 C 0.6788 0.75286 0.44309 0.0
C2608 C 0.67775 0.73827 0.44153 0.0
C2609 C 0.6907 0.73689 0.44395 0.0
C2610 C 0.70476 0.75 0.44806 0.0
C2611 C 0.70589 0.76451 0.44978 0.0
C2612 C 0.69297 0.76596 0.44735 0.0
C2613 C 0.62869 0.76877 0.48435 0.0
C2614 C 0.63987 0.78344 0.49072 0.0
C2615 C 0.63113 0.76218 0.471 0.0
C2616 C 0.64473 0.77023 0.46374 0.0
C2617 C 0.65562 0.78511 0.46975 0.0
C2618 C 0.65322 0.79167 0.48309 0.0
C2619 C 0.64814 0.7628 0.45055 0.0
C2620 C 0.66129 0.76157 0.45217 0.0
C2621 C 0.63849 0.7566 0.43675 0.0
C2622 C 0.62467 0.75793 0.43416 0.0
C2623 C 0.62555 0.77245 0.43535 0.0
C2624 C 0.61247 0.7736 0.43296 0.0
C2625 C 0.59844 0.76032 0.42926 0.0
C2626 C 0.59748 0.74586 0.4279 0.0
C2627 C 0.61053 0.74465 0.4303 0.0
H2628 H 0.58832 0.76123 0.42741 0.0
H2629 H 0.71477 0.74891 0.44993 0.0
H2630 H 0.25416 0.9279 0.41257 0.0
H2631 H 0.24092 0.91216 0.43384 0.0
H2632 H 0.28379 0.9215 0.45611 0.0
H2633 H 0.29695 0.93698 0.43464 0.0
H2634 H 0.26361 0.89226 0.45767 0.0
H2635 H 0.26521 0.94018 0.46893 0.0
H2636 H 0.26153 0.96225 0.4636 0.0
H2637 H 0.21352 0.93168 0.45574 0.0
H2638 H 0.21693 0.90938 0.46082 0.0
H2639 H 0.22052 0.87954 0.53305 0.0
H2640 H 0.23586 0.89608 0.51333 0.0
H2641 H 0.21854 0.85641 0.48057 0.0
H2642 H 0.20309 0.83981 0.50021 0.0
H2643 H 0.22775 0.9023 0.48598 0.0
H2644 H 0.24659 0.86203 0.45617 0.0
H2645 H 0.25236 0.84159 0.46288 0.0
H2646 H 0.26287 0.85947 0.51053 0.0
H2647 H 0.25741 0.88017 0.50407 0.0
C2648 C 0.26067 0.92644 0.42198 0.0
C2649 C 0.27645 0.93317 0.42184 0.0
C2650 C 0.25315 0.91757 0.43415 0.0
C2651 C 0.26137 0.91575 0.44664 0.0
C2652 C 0.27721 0.92268 0.44657 0.0
C2653 C 0.2847 0.93143 0.43431 0.0
C2654 C 0.25345 0.90663 0.45978 0.0
C2655 C 0.25573 0.89441 0.4638 0.0
C2656 C 0.24346 0.90971 0.46809 0.0
C2657 C 0.24135 0.9231 0.46514 0.0
C2658 C 0.25388 0.93815 0.46597 0.0
C2659 C 0.25184 0.9507 0.463 0.0
C2660 C 0.2373 0.94836 0.4593 0.0
C2661 C 0.22477 0.93347 0.4586 0.0
C2662 C 0.22675 0.92087 0.46153 0.0
C2663 C 0.21992 0.87434 0.52163 0.0
C2664 C 0.21058 0.85835 0.5182 0.0
C2665 C 0.22873 0.88381 0.51038 0.0
C2666 C 0.22843 0.87748 0.49552 0.0
C2667 C 0.21914 0.86152 0.49205 0.0
C2668 C 0.21034 0.85203 0.5033 0.0
C2669 C 0.23761 0.88762 0.48354 0.0
C2670 C 0.23557 0.90007 0.47976 0.0
C2671 C 0.24803 0.88491 0.47562 0.0
C2672 C 0.25139 0.87253 0.47966 0.0
C2673 C 0.25016 0.86162 0.46807 0.0
C2674 C 0.25339 0.84999 0.47184 0.0
C2675 C 0.25792 0.84919 0.48714 0.0
C2676 C 0.25929 0.86006 0.4987 0.0
C2677 C 0.25611 0.87173 0.49499 0.0
H2678 H 0.2604 0.84018 0.49003 0.0
H2679 H 0.23575 0.9581 0.457 0.0
H2680 H 0.08203 0.31695 0.37802 0.0
H2681 H 0.09978 0.32164 0.40061 0.0
H2682 H 0.08888 0.35473 0.42101 0.0
H2683 H 0.07107 0.34988 0.39859 0.0
H2684 H 0.11969 0.36504 0.42359 0.0
H2685 H 0.07285 0.31917 0.43278 0.0
H2686 H 0.0517 0.29269 0.42637 0.0
H2687 H 0.08314 0.27579 0.42499 0.0
H2688 H 0.1045 0.30223 0.43119 0.0
H2689 H 0.13988 0.37119 0.50354 0.0
H2690 H 0.12805 0.36761 0.47734 0.0
H2691 H 0.13841 0.33153 0.46603 0.0
H2692 H 0.1501 0.33495 0.4924 0.0
H2693 H 0.11022 0.32227 0.45695 0.0
H2694 H 0.15703 0.36734 0.45073 0.0
H2695 H 0.17854 0.39373 0.45655 0.0
H2696 H 0.14854 0.41221 0.45106 0.0
H2697 H 0.12681 0.38593 0.44547 0.0
C2698 C 0.0836 0.32532 0.3873 0.0
C2699 C 0.07564 0.33345 0.38644 0.0
C2700 C 0.09367 0.32797 0.40017 0.0
C2701 C 0.09565 0.33855 0.41247 0.0
C2702 C 0.08763 0.34663 0.41159 0.0
C2703 C 0.07755 0.34393 0.39877 0.0
C2704 C 0.1056 0.34085 0.42659 0.0
C2705 C 0.11765 0.35573 0.4309 0.0
C2706 C 0.10311 0.32858 0.43592 0.0
C2707 C 0.09027 0.31269 0.43226 0.0
C2708 C 0.07526 0.30982 0.43098 0.0
C2709 C 0.06323 0.29482 0.42741 0.0
C2710 C 0.06608 0.28257 0.42523 0.0
C2711 C 0.08095 0.2853 0.42666 0.0
C2712 C 0.09302 0.30028 0.4302 0.0
C2713 C 0.13989 0.3627 0.49538 0.0
C2714 C 0.14593 0.35336 0.5 0.0
C2715 C 0.13314 0.36066 0.48039 0.0
C2716 C 0.13248 0.34941 0.46962 0.0
C2717 C 0.13878 0.34028 0.47413 0.0
C2718 C 0.14543 0.34222 0.48918 0.0
C2719 C 0.12435 0.34659 0.45405 0.0
C2720 C 0.11256 0.33159 0.44948 0.0
C2721 C 0.12721 0.35875 0.44438 0.0
C2722 C 0.14025 0.37461 0.44784 0.0
C2723 C 0.15499 0.37701 0.45091 0.0
C2724 C 0.16723 0.39195 0.45415 0.0
C2725 C 0.1649 0.40462 0.45422 0.0
C2726 C 0.15032 0.40238 0.45103 0.0
C2727 C 0.13804 0.38746 0.44782 0.0
H2728 H 0.17439 0.41619 0.45671 0.0
H2729 H 0.05675 0.27097 0.42247 0.0
H2730 H 0.07978 0.34909 0.30775 0.0
H2731 H 0.08728 0.34135 0.28409 0.0
H2732 H 0.06834 0.29489 0.29848 0.0
H2733 H 0.06041 0.30247 0.32215 0.0
H2734 H 0.10075 0.3111 0.28868 0.0
H2735 H 0.04954 0.29697 0.27147 0.0
H2736 H 0.02795 0.30162 0.26802 0.0
H2737 H 0.054 0.33983 0.24064 0.0
H2738 H 0.07583 0.33555 0.2441 0.0
H2739 H 0.11848 0.28703 0.21866 0.0
H2740 H 0.10432 0.28736 0.24051 0.0
H2741 H 0.1054 0.32853 0.22517 0.0
H2742 H 0.11855 0.32762 0.20266 0.0
H2743 H 0.07959 0.31161 0.23589 0.0
H2744 H 0.13102 0.32892 0.25467 0.0
H2745 H 0.15431 0.32725 0.25891 0.0
H2746 H 0.13019 0.28675 0.28409 0.0
H2747 H 0.1067 0.28806 0.27979 0.0
C2748 C 0.07713 0.33719 0.30586 0.0
C2749 C 0.06951 0.32638 0.31681 0.0
C2750 C 0.08138 0.3328 0.29232 0.0
C2751 C 0.07833 0.31757 0.28957 0.0
C2752 C 0.07075 0.3067 0.30044 0.0
C2753 C 0.06618 0.31102 0.31388 0.0
C2754 C 0.08354 0.31331 0.27547 0.0
C2755 C 0.09594 0.31084 0.27711 0.0
C2756 C 0.07754 0.31353 0.26045 0.0
C2757 C 0.06436 0.316 0.25815 0.0
C2758 C 0.0507 0.30644 0.26481 0.0
C2759 C 0.03842 0.30899 0.26283 0.0
C2760 C 0.03962 0.32103 0.25414 0.0
C2761 C 0.05309 0.33051 0.24737 0.0
C2762 C 0.06542 0.32801 0.24932 0.0
C2763 C 0.11542 0.29596 0.21969 0.0
C2764 C 0.11985 0.3074 0.2089 0.0
C2765 C 0.10748 0.29625 0.23236 0.0
C2766 C 0.10408 0.30818 0.23474 0.0
C2767 C 0.10797 0.31926 0.22369 0.0
C2768 C 0.11569 0.31884 0.2109 0.0
C2769 C 0.097 0.30952 0.24899 0.0
C2770 C 0.08429 0.31156 0.24741 0.0
C2771 C 0.10294 0.30925 0.26409 0.0
C2772 C 0.11706 0.30848 0.26675 0.0
C2773 C 0.13066 0.31959 0.26101 0.0
C2774 C 0.1439 0.31872 0.26343 0.0
C2775 C 0.14372 0.30688 0.27172 0.0
C2776 C 0.13031 0.2959 0.27764 0.0
C2777 C 0.11703 0.2967 0.27522 0.0
H2778 H 0.15398 0.30622 0.27359 0.0
H2779 H 0.03009 0.32299 0.25263 0.0
H2780 H 0.65947 0.73299 0.32798 0.0
H2781 H 0.66394 0.74928 0.30602 0.0
H2782 H 0.69719 0.73778 0.29096 0.0
H2783 H 0.69231 0.72102 0.31262 0.0
H2784 H 0.70592 0.77125 0.29319 0.0
H2785 H 0.66753 0.72136 0.271 0.0
H2786 H 0.64313 0.69704 0.27031 0.0
H2787 H 0.6193 0.72252 0.26981 0.0
H2788 H 0.6436 0.74702 0.27077 0.0
H2789 H 0.71461 0.80534 0.22072 0.0
H2790 H 0.71131 0.78759 0.24096 0.0
H2791 H 0.66959 0.78607 0.25163 0.0
H2792 H 0.67271 0.80355 0.23126 0.0
H2793 H 0.66582 0.7582 0.25106 0.0
H2794 H 0.70349 0.8079 0.27416 0.0
H2795 H 0.72758 0.83263 0.27656 0.0
H2796 H 0.75252 0.80829 0.27707 0.0
H2797 H 0.72858 0.7834 0.27444 0.0
C2798 C 0.66778 0.73405 0.32 0.0
C2799 C 0.67602 0.72634 0.32223 0.0
C2800 C 0.6703 0.74328 0.30751 0.0
C2801 C 0.68096 0.74476 0.297 0.0
C2802 C 0.68903 0.73686 0.29907 0.0
C2803 C 0.68637 0.72746 0.31147 0.0
C2804 C 0.68352 0.7545 0.28378 0.0
C2805 C 0.69731 0.76832 0.28381 0.0
C2806 C 0.67204 0.75076 0.27185 0.0
C2807 C 0.6574 0.73604 0.27111 0.0
C2808 C 0.6571 0.72179 0.27089 0.0
C2809 C 0.64328 0.70797 0.27042 0.0
C2810 C 0.62967 0.70824 0.27005 0.0
C2811 C 0.62985 0.72233 0.27011 0.0
C2812 C 0.64364 0.73619 0.2706 0.0
C2813 C 0.70478 0.80124 0.22745 0.0
C2814 C 0.69391 0.80579 0.22444 0.0
C2815 C 0.70291 0.79113 0.239 0.0
C2816 C 0.69028 0.78562 0.24792 0.0
C2817 C 0.6794 0.79012 0.24486 0.0
C2818 C 0.68118 0.80009 0.23323 0.0
C2819 C 0.68831 0.77514 0.26045 0.0
C2820 C 0.67457 0.76114 0.26033 0.0
C2821 C 0.69983 0.77881 0.27241 0.0
C2822 C 0.71424 0.79378 0.27386 0.0
C2823 C 0.71411 0.80782 0.27461 0.0
C2824 C 0.72774 0.82187 0.27605 0.0
C2825 C 0.74157 0.82204 0.2769 0.0
C2826 C 0.7418 0.80815 0.27636 0.0
C2827 C 0.72821 0.79406 0.27489 0.0
H2828 H 0.75211 0.83293 0.27803 0.0
H2829 H 0.61899 0.69753 0.26969 0.0
H2830 H 0.26951 0.95324 0.35171 0.0
H2831 H 0.25266 0.94523 0.32796 0.0
H2832 H 0.24621 0.89922 0.32929 0.0
H2833 H 0.26314 0.90711 0.35285 0.0
H2834 H 0.25275 0.90955 0.30115 0.0
H2835 H 0.21834 0.90735 0.33855 0.0
H2836 H 0.2097 0.91749 0.35985 0.0
H2837 H 0.21153 0.95272 0.33146 0.0
H2838 H 0.22039 0.94291 0.31006 0.0
H2839 H 0.19374 0.86995 0.24359 0.0
H2840 H 0.20668 0.8785 0.26957 0.0
H2841 H 0.21395 0.92433 0.2636 0.0
H2842 H 0.20097 0.91582 0.23749 0.0
H2843 H 0.20707 0.91519 0.29384 0.0
H2844 H 0.24151 0.91748 0.2566 0.0
H2845 H 0.24992 0.90725 0.23517 0.0
H2846 H 0.24816 0.87199 0.26346 0.0
H2847 H 0.2395 0.88187 0.28498 0.0
C2848 C 0.26443 0.94138 0.34703 0.0
C2849 C 0.26777 0.93085 0.35419 0.0
C2850 C 0.25474 0.93681 0.33347 0.0
C2851 C 0.2481 0.9216 0.32689 0.0
C2852 C 0.25123 0.91102 0.33414 0.0
C2853 C 0.26092 0.91558 0.34764 0.0
C2854 C 0.23846 0.9168 0.31206 0.0
C2855 C 0.24265 0.9106 0.29965 0.0
C2856 C 0.22554 0.9186 0.30993 0.0
C2857 C 0.22018 0.92449 0.32276 0.0
C2858 C 0.21702 0.91734 0.3369 0.0
C2859 C 0.21206 0.92301 0.34898 0.0
C2860 C 0.21011 0.93577 0.34702 0.0
C2861 C 0.21307 0.94285 0.33297 0.0
C2862 C 0.21805 0.93724 0.32085 0.0
C2863 C 0.19798 0.88182 0.24786 0.0
C2864 C 0.19655 0.89228 0.23843 0.0
C2865 C 0.20533 0.88667 0.26271 0.0
C2866 C 0.2115 0.90211 0.26839 0.0
C2867 C 0.20929 0.91237 0.2594 0.0
C2868 C 0.20187 0.90749 0.24451 0.0
C2869 C 0.22125 0.90772 0.28313 0.0
C2870 C 0.21717 0.91415 0.29542 0.0
C2871 C 0.23431 0.90617 0.2852 0.0
C2872 C 0.23973 0.90033 0.27235 0.0
C2873 C 0.24282 0.90748 0.25821 0.0
C2874 C 0.24764 0.90175 0.24605 0.0
C2875 C 0.24954 0.88895 0.24794 0.0
C2876 C 0.24666 0.88189 0.26201 0.0
C2877 C 0.24181 0.88755 0.2742 0.0
H2878 H 0.25327 0.88453 0.23851 0.0
H2879 H 0.20627 0.94014 0.35639 0.0
H2880 H 0.68541 0.96451 0.33366 0.0
H2881 H 0.69065 0.95091 0.3128 0.0
H2882 H 0.66096 0.90735 0.33151 0.0
H2883 H 0.6559 0.92107 0.35254 0.0
H2884 H 0.68708 0.90874 0.32299 0.0
H2885 H 0.64865 0.91826 0.30077 0.0
H2886 H 0.63723 0.9343 0.29412 0.0
H2887 H 0.67446 0.96161 0.26686 0.0
H2888 H 0.68622 0.94586 0.27353 0.0
H2889 H 0.67003 0.87516 0.23648 0.0
H2890 H 0.66512 0.88677 0.25908 0.0
H2891 H 0.71129 0.90472 0.27772 0.0
H2892 H 0.71608 0.8923 0.25546 0.0
H2893 H 0.67638 0.91549 0.26808 0.0
H2894 H 0.7129 0.90925 0.31773 0.0
H2895 H 0.72234 0.89165 0.32496 0.0
H2896 H 0.68493 0.85425 0.29769 0.0
H2897 H 0.67515 0.87156 0.29048 0.0
C2898 C 0.68021 0.95205 0.33339 0.0
C2899 C 0.67066 0.94379 0.34486 0.0
C2900 C 0.68308 0.9443 0.32144 0.0
C2901 C 0.67619 0.92813 0.32063 0.0
C2902 C 0.66649 0.91984 0.33202 0.0
C2903 C 0.66357 0.92763 0.34395 0.0
C2904 C 0.67877 0.91985 0.30763 0.0
C2905 C 0.68478 0.91021 0.31098 0.0
C2906 C 0.67553 0.92161 0.29198 0.0
C2907 C 0.66838 0.93097 0.28776 0.0
C2908 C 0.65445 0.92775 0.29344 0.0
C2909 C 0.64791 0.93678 0.28966 0.0
C2910 C 0.65513 0.94899 0.2801 0.0
C2911 C 0.66889 0.95216 0.27427 0.0
C2912 C 0.67549 0.94318 0.27804 0.0
C2913 C 0.67907 0.8812 0.24555 0.0
C2914 C 0.69343 0.88263 0.24418 0.0
C2915 C 0.67628 0.88803 0.2584 0.0
C2916 C 0.68779 0.89657 0.27016 0.0
C2917 C 0.70215 0.89801 0.2689 0.0
C2918 C 0.70492 0.89103 0.25608 0.0
C2919 C 0.68479 0.90435 0.28338 0.0
C2920 C 0.67875 0.914 0.28008 0.0
C2921 C 0.68772 0.90233 0.29906 0.0
C2922 C 0.69342 0.89176 0.30341 0.0
C2923 C 0.70668 0.89726 0.31331 0.0
C2924 C 0.71208 0.88733 0.31741 0.0
C2925 C 0.70427 0.87185 0.31174 0.0
C2926 C 0.69101 0.86625 0.30202 0.0
C2927 C 0.68554 0.87613 0.2979 0.0
H2928 H 0.70848 0.86419 0.31492 0.0
H2929 H 0.65006 0.95597 0.2772 0.0
H2930 H 0.05037 0.75122 0.31241 0.0
H2931 H 0.06051 0.76924 0.29186 0.0
H2932 H 0.09093 0.75207 0.28201 0.0
H2933 H 0.08123 0.73449 0.30264 0.0
H2934 H 0.10593 0.782 0.28416 0.0
H2935 H 0.05832 0.74316 0.25797 0.0
H2936 H 0.0305 0.72678 0.2546 0.0
H2937 H 0.02577 0.76722 0.25492 0.0
H2938 H 0.05357 0.78384 0.25849 0.0
H2939 H 0.12901 0.80428 0.20991 0.0
H2940 H 0.11453 0.78838 0.23034 0.0
H2941 H 0.09845 0.8201 0.24081 0.0
H2942 H 0.11345 0.83654 0.22073 0.0
H2943 H 0.07558 0.78592 0.23969 0.0
H2944 H 0.12389 0.82454 0.2639 0.0
H2945 H 0.15179 0.8402 0.26602 0.0
H2946 H 0.15507 0.79906 0.26863 0.0
H2947 H 0.12716 0.78313 0.26626 0.0
C2948 C 0.05911 0.7512 0.30574 0.0
C2949 C 0.06505 0.74148 0.30922 0.0
C2950 C 0.06488 0.76148 0.29398 0.0
C2951 C 0.07649 0.76201 0.28535 0.0
C2952 C 0.08208 0.75199 0.28857 0.0
C2953 C 0.07648 0.7419 0.30038 0.0
C2954 C 0.08339 0.77333 0.27336 0.0
C2955 C 0.09924 0.78274 0.27441 0.0
C2956 C 0.0747 0.77471 0.26084 0.0
C2957 C 0.05801 0.76473 0.25868 0.0
C2958 C 0.05134 0.74855 0.25745 0.0
C2959 C 0.03557 0.73923 0.25548 0.0
C2960 C 0.02637 0.74596 0.25459 0.0
C2961 C 0.03291 0.76203 0.25564 0.0
C2962 C 0.04867 0.7714 0.25763 0.0
C2963 C 0.1225 0.80799 0.21659 0.0
C2964 C 0.12263 0.82186 0.21381 0.0
C2965 C 0.11411 0.79879 0.22816 0.0
C2966 C 0.10552 0.80314 0.23711 0.0
C2967 C 0.10499 0.81655 0.23396 0.0
C2968 C 0.11355 0.8259 0.22246 0.0
C2969 C 0.09801 0.79409 0.25038 0.0
C2970 C 0.08214 0.78523 0.24958 0.0
C2971 C 0.10664 0.79308 0.26311 0.0
C2972 C 0.12343 0.80264 0.26477 0.0
C2973 C 0.13056 0.81883 0.2648 0.0
C2974 C 0.14637 0.82775 0.26606 0.0
C2975 C 0.1552 0.82063 0.26742 0.0
C2976 C 0.14822 0.80456 0.26757 0.0
C2977 C 0.1324 0.79558 0.26627 0.0
H2978 H 0.16744 0.82755 0.2684 0.0
H2979 H 0.01417 0.73872 0.25306 0.0
H2980 H 0.25804 0.35143 0.35245 0.0
H2981 H 0.24163 0.34673 0.32908 0.0
H2982 H 0.24488 0.30627 0.31613 0.0
H2983 H 0.2634 0.31277 0.33811 0.0
H2984 H 0.24714 0.31841 0.29269 0.0
H2985 H 0.20694 0.30667 0.32808 0.0
H2986 H 0.19527 0.31146 0.35062 0.0
H2987 H 0.20509 0.35532 0.3343 0.0
H2988 H 0.21659 0.35066 0.31167 0.0
H2989 H 0.17863 0.29244 0.23812 0.0
H2990 H 0.19142 0.29534 0.26381 0.0
H2991 H 0.22457 0.34212 0.25576 0.0
H2992 H 0.21248 0.33916 0.22983 0.0
H2993 H 0.20217 0.32549 0.28919 0.0
H2994 H 0.24646 0.33677 0.25564 0.0
H2995 H 0.25438 0.32898 0.23195 0.0
H2996 H 0.233 0.28211 0.24498 0.0
H2997 H 0.22477 0.28964 0.26861 0.0
C2998 C 0.255 0.34139 0.3447 0.0
C2999 C 0.26131 0.33192 0.34753 0.0
C3000 C 0.24536 0.33852 0.33141 0.0
C3001 C 0.24138 0.32576 0.32089 0.0
C3002 C 0.24754 0.31613 0.32398 0.0
C3003 C 0.25781 0.31953 0.33683 0.0
C3004 C 0.2323 0.32342 0.3059 0.0
C3005 C 0.23719 0.31975 0.29219 0.0
C3006 C 0.2194 0.32544 0.30473 0.0
C3007 C 0.21284 0.32842 0.31845 0.0
C3008 C 0.20676 0.31739 0.3295 0.0
C3009 C 0.20012 0.32005 0.3422 0.0
C3010 C 0.1996 0.33375 0.34398 0.0
C3011 C 0.20556 0.34475 0.33296 0.0
C3012 C 0.21206 0.34207 0.32017 0.0
C3013 C 0.18871 0.30331 0.24175 0.0
C3014 C 0.19453 0.31555 0.23185 0.0
C3015 C 0.1959 0.30497 0.25646 0.0
C3016 C 0.20893 0.3189 0.26152 0.0
C3017 C 0.21453 0.33127 0.25195 0.0
C3018 C 0.20749 0.32958 0.23719 0.0
C3019 C 0.21707 0.32041 0.27662 0.0
C3020 C 0.21204 0.32401 0.29009 0.0
C3021 C 0.22967 0.31814 0.27767 0.0
C3022 C 0.23493 0.31373 0.26375 0.0
C3023 C 0.24341 0.3248 0.25338 0.0
C3024 C 0.24794 0.32044 0.23998 0.0
C3025 C 0.24417 0.30505 0.23694 0.0
C3026 C 0.23589 0.29401 0.24733 0.0
C3027 C 0.23128 0.29832 0.26071 0.0
H3028 H 0.24768 0.30169 0.22656 0.0
H3029 H 0.19449 0.33579 0.35384 0.0
H3030 H 0.28899 0.36623 0.41905 0.0
H3031 H 0.28063 0.37553 0.44114 0.0
H3032 H 0.23699 0.334 0.43566 0.0
H3033 H 0.24516 0.32459 0.41387 0.0
H3034 H 0.23511 0.36097 0.43994 0.0
H3035 H 0.26251 0.33676 0.46243 0.0
H3036 H 0.28521 0.33414 0.46719 0.0
H3037 H 0.31014 0.3809 0.48696 0.0
H3038 H 0.28761 0.38384 0.48212 0.0
H3039 H 0.19714 0.34491 0.50724 0.0
H3040 H 0.21074 0.34561 0.48468 0.0
H3041 H 0.2511 0.38528 0.50601 0.0
H3042 H 0.23774 0.38405 0.52925 0.0
H3043 H 0.2583 0.3659 0.49318 0.0
H3044 H 0.22944 0.38855 0.47525 0.0
H3045 H 0.20667 0.39112 0.47085 0.0
H3046 H 0.18485 0.34855 0.44239 0.0
H3047 H 0.20738 0.3456 0.44678 0.0
C3048 C 0.2776 0.35911 0.42253 0.0
C3049 C 0.26778 0.34463 0.41471 0.0
C3050 C 0.27286 0.36444 0.43514 0.0
C3051 C 0.25819 0.35544 0.44 0.0
C3052 C 0.24833 0.34115 0.43204 0.0
C3053 C 0.25308 0.33576 0.41962 0.0
C3054 C 0.25302 0.36041 0.45367 0.0
C3055 C 0.24016 0.36208 0.4516 0.0
C3056 C 0.25996 0.36239 0.46879 0.0
C3057 C 0.27346 0.36058 0.47173 0.0
C3058 C 0.27287 0.34652 0.46767 0.0
C3059 C 0.2857 0.34497 0.4704 0.0
C3060 C 0.29913 0.35736 0.47732 0.0
C3061 C 0.29974 0.37132 0.48157 0.0
C3062 C 0.28695 0.37293 0.47883 0.0
C3063 C 0.20897 0.35369 0.5073 0.0
C3064 C 0.21636 0.36435 0.52017 0.0
C3065 C 0.21668 0.35424 0.49422 0.0
C3066 C 0.23187 0.3657 0.49347 0.0
C3067 C 0.23934 0.37641 0.50626 0.0
C3068 C 0.23165 0.37576 0.51949 0.0
C3069 C 0.23998 0.3659 0.47955 0.0
C3070 C 0.25342 0.36522 0.48154 0.0
C3071 C 0.23362 0.36496 0.46432 0.0
C3072 C 0.22011 0.36683 0.4614 0.0
C3073 C 0.21976 0.3797 0.46811 0.0
C3074 C 0.2069 0.38122 0.46561 0.0
C3075 C 0.19432 0.37 0.45637 0.0
C3076 C 0.1946 0.35725 0.44954 0.0
C3077 C 0.20744 0.35566 0.452 0.0
H3078 H 0.18436 0.37117 0.45448 0.0
H3079 H 0.30904 0.35614 0.47944 0.0
H3080 H 0.65717 0.92099 0.39721 0.0
H3081 H 0.64949 0.9041 0.41876 0.0
H3082 H 0.6594 0.94302 0.45036 0.0
H3083 H 0.66759 0.96003 0.4287 0.0
H3084 H 0.67061 0.92693 0.46267 0.0
H3085 H 0.6225 0.91456 0.43967 0.0
H3086 H 0.60228 0.90744 0.41887 0.0
H3087 H 0.60076 0.86419 0.40912 0.0
H3088 H 0.62114 0.87114 0.42971 0.0
H3089 H 0.63491 0.87485 0.52269 0.0
H3090 H 0.63831 0.89319 0.50291 0.0
H3091 H 0.64387 0.86408 0.46883 0.0
H3092 H 0.64087 0.84594 0.48864 0.0
H3093 H 0.62294 0.87641 0.45968 0.0
H3094 H 0.67382 0.89169 0.48179 0.0
H3095 H 0.69309 0.8993 0.50372 0.0
H3096 H 0.68755 0.93809 0.51655 0.0
H3097 H 0.66808 0.93056 0.49479 0.0
C3098 C 0.65765 0.92587 0.40877 0.0
C3099 C 0.66295 0.94171 0.41144 0.0
C3100 C 0.65314 0.91623 0.42105 0.0
C3101 C 0.65366 0.92224 0.43618 0.0
C3102 C 0.65886 0.93812 0.43879 0.0
C3103 C 0.66346 0.9478 0.42647 0.0
C3104 C 0.64947 0.91199 0.44929 0.0
C3105 C 0.66004 0.91604 0.46212 0.0
C3106 C 0.63572 0.8977 0.4486 0.0
C3107 C 0.62345 0.89343 0.43617 0.0
C3108 C 0.61795 0.90358 0.43301 0.0
C3109 C 0.60644 0.89957 0.42127 0.0
C3110 C 0.60026 0.88539 0.41266 0.0
C3111 C 0.60556 0.87518 0.41579 0.0
C3112 C 0.61709 0.87914 0.42751 0.0
C3113 C 0.63675 0.87236 0.51093 0.0
C3114 C 0.63767 0.85906 0.50712 0.0
C3115 C 0.6387 0.8828 0.4997 0.0
C3116 C 0.64132 0.87993 0.48446 0.0
C3117 C 0.64181 0.86643 0.48053 0.0
C3118 C 0.64018 0.85616 0.49183 0.0
C3119 C 0.6442 0.89129 0.47271 0.0
C3120 C 0.63338 0.88742 0.46021 0.0
C3121 C 0.65757 0.90585 0.47382 0.0
C3122 C 0.66938 0.91046 0.48679 0.0
C3123 C 0.67661 0.90176 0.48937 0.0
C3124 C 0.68759 0.90607 0.50175 0.0
C3125 C 0.69151 0.91915 0.51156 0.0
C3126 C 0.68449 0.92796 0.50896 0.0
C3127 C 0.67349 0.92368 0.4966 0.0
H3128 H 0.70001 0.92247 0.52114 0.0
H3129 H 0.59134 0.8823 0.40358 0.0
H3130 H 0.05911 0.71575 0.38817 0.0
H3131 H 0.07478 0.72781 0.41244 0.0
H3132 H 0.08822 0.7729 0.3963 0.0
H3133 H 0.07266 0.76074 0.37179 0.0
H3134 H 0.11231 0.77162 0.41013 0.0
H3135 H 0.06172 0.7581 0.42189 0.0
H3136 H 0.03424 0.74057 0.42281 0.0
H3137 H 0.04298 0.71132 0.45172 0.0
H3138 H 0.07053 0.72858 0.4508 0.0
H3139 H 0.11757 0.796 0.49834 0.0
H3140 H 0.10417 0.78688 0.47269 0.0
H3141 H 0.13438 0.77016 0.46039 0.0
H3142 H 0.14829 0.77986 0.48592 0.0
H3143 H 0.08858 0.75848 0.46031 0.0
H3144 H 0.13707 0.77111 0.42047 0.0
H3145 H 0.16423 0.78985 0.41915 0.0
H3146 H 0.15925 0.82376 0.44626 0.0
H3147 H 0.13203 0.80531 0.44755 0.0
C3148 C 0.0656 0.72824 0.38976 0.0
C3149 C 0.06515 0.7374 0.37805 0.0
C3150 C 0.07442 0.7351 0.40364 0.0
C3151 C 0.08264 0.75125 0.40616 0.0
C3152 C 0.08204 0.76043 0.39451 0.0
C3153 C 0.07316 0.75352 0.3806 0.0
C3154 C 0.09154 0.75847 0.42115 0.0
C3155 C 0.10716 0.76878 0.42112 0.0
C3156 C 0.08474 0.75487 0.43544 0.0
C3157 C 0.06818 0.74457 0.43617 0.0
C3158 C 0.05778 0.74788 0.42836 0.0
C3159 C 0.04219 0.738 0.42889 0.0
C3160 C 0.03687 0.72482 0.43729 0.0
C3161 C 0.04712 0.72153 0.44521 0.0
C3162 C 0.06273 0.73136 0.44471 0.0
C3163 C 0.12159 0.79068 0.49009 0.0
C3164 C 0.13408 0.78876 0.49416 0.0
C3165 C 0.11381 0.78533 0.47547 0.0
C3166 C 0.11831 0.77791 0.46459 0.0
C3167 C 0.13082 0.77602 0.46854 0.0
C3168 C 0.13867 0.78143 0.48319 0.0
C3169 C 0.10945 0.77162 0.44938 0.0
C3170 C 0.0938 0.76138 0.44935 0.0
C3171 C 0.11621 0.7755 0.43506 0.0
C3172 C 0.13254 0.78675 0.43427 0.0
C3173 C 0.14177 0.78258 0.42612 0.0
C3174 C 0.15717 0.79315 0.42537 0.0
C3175 C 0.16348 0.80797 0.43267 0.0
C3176 C 0.15437 0.81226 0.44068 0.0
C3177 C 0.13895 0.80174 0.44144 0.0
H3178 H 0.17541 0.81613 0.43209 0.0
H3179 H 0.0248 0.71718 0.43768 0.0
H3180 H 0.31112 0.05448 0.71244 0.0
H3181 H 0.30107 0.06381 0.73293 0.0
H3182 H 0.34375 0.08275 0.76027 0.0
H3183 H 0.35399 0.07388 0.73976 0.0
H3184 H 0.31522 0.06422 0.77641 0.0
H3185 H 0.33993 0.10649 0.74237 0.0
H3186 H 0.34338 0.11737 0.71674 0.0
H3187 H 0.29687 0.10658 0.71298 0.0
H3188 H 0.29308 0.09534 0.73849 0.0
H3189 H 0.32317 0.1183 0.83379 0.0
H3190 H 0.32599 0.1047 0.81151 0.0
H3191 H 0.28742 0.10349 0.787 0.0
H3192 H 0.28511 0.11816 0.80905 0.0
H3193 H 0.30873 0.10959 0.76787 0.0
H3194 H 0.28463 0.07114 0.80341 0.0
H3195 H 0.28027 0.05944 0.82864 0.0
H3196 H 0.32336 0.06131 0.82926 0.0
H3197 H 0.32812 0.07327 0.80416 0.0
C3198 C 0.31829 0.06054 0.72288 0.0
C3199 C 0.33334 0.06352 0.72452 0.0
C3200 C 0.31255 0.06585 0.73452 0.0
C3201 C 0.3217 0.07392 0.74804 0.0
C3202 C 0.33654 0.07649 0.7499 0.0
C3203 C 0.34238 0.0715 0.73816 0.0
C3204 C 0.31616 0.08036 0.76007 0.0
C3205 C 0.31381 0.07415 0.77463 0.0
C3206 C 0.31382 0.09294 0.75744 0.0
C3207 C 0.31617 0.09989 0.74223 0.0
C3208 C 0.3304 0.10629 0.73601 0.0
C3209 C 0.33242 0.11255 0.72152 0.0
C3210 C 0.32034 0.11262 0.71321 0.0
C3211 C 0.30621 0.10648 0.71941 0.0
C3212 C 0.30412 0.10017 0.73388 0.0
C3213 C 0.31544 0.11547 0.82358 0.0
C3214 C 0.30396 0.11946 0.82321 0.0
C3215 C 0.31691 0.10741 0.81091 0.0
C3216 C 0.3067 0.10274 0.79771 0.0
C3217 C 0.29534 0.10685 0.79714 0.0
C3218 C 0.29397 0.11514 0.80979 0.0
C3219 C 0.30821 0.09378 0.78452 0.0
C3220 C 0.3098 0.09947 0.76969 0.0
C3221 C 0.30963 0.08055 0.78686 0.0
C3222 C 0.30676 0.07318 0.8019 0.0
C3223 C 0.29322 0.06914 0.80896 0.0
C3224 C 0.29067 0.06245 0.82324 0.0
C3225 C 0.30153 0.05963 0.83054 0.0
C3226 C 0.31496 0.06349 0.82358 0.0
C3227 C 0.31758 0.0702 0.80931 0.0
H3228 H 0.29953 0.05442 0.84158 0.0
H3229 H 0.32192 0.11748 0.702 0.0
H3230 H 0.91887 0.24932 0.73581 0.0
H3231 H 0.90542 0.23162 0.7557 0.0
H3232 H 0.94762 0.24931 0.78387 0.0
H3233 H 0.9611 0.26625 0.76347 0.0
H3234 H 0.93288 0.22081 0.78685 0.0
H3235 H 0.91959 0.26025 0.79049 0.0
H3236 H 0.91027 0.27741 0.78139 0.0
H3237 H 0.86662 0.23807 0.76795 0.0
H3238 H 0.87574 0.22065 0.77679 0.0
H3239 H 0.89454 0.20113 0.85942 0.0
H3240 H 0.90891 0.21629 0.83822 0.0
H3241 H 0.87622 0.18119 0.80463 0.0
H3242 H 0.86208 0.16578 0.82577 0.0
H3243 H 0.88612 0.21805 0.80498 0.0
H3244 H 0.9018 0.17892 0.80228 0.0
H3245 H 0.91265 0.16393 0.81378 0.0
H3246 H 0.95376 0.20593 0.82835 0.0
H3247 H 0.94303 0.22118 0.81716 0.0
C3248 C 0.92521 0.24921 0.7462 0.0
C3249 C 0.94098 0.25875 0.74806 0.0
C3250 C 0.91754 0.23925 0.75763 0.0
C3251 C 0.92543 0.23929 0.77147 0.0
C3252 C 0.94125 0.24899 0.77332 0.0
C3253 C 0.94895 0.25865 0.7617 0.0
C3254 C 0.91721 0.22938 0.78409 0.0
C3255 C 0.92269 0.22029 0.79078 0.0
C3256 C 0.90394 0.22871 0.78944 0.0
C3257 C 0.89839 0.23914 0.78416 0.0
C3258 C 0.90803 0.25526 0.78549 0.0
C3259 C 0.90278 0.26503 0.7804 0.0
C3260 C 0.88787 0.25883 0.77406 0.0
C3261 C 0.87817 0.24285 0.77284 0.0
C3262 C 0.88337 0.23302 0.77791 0.0
C3263 C 0.89056 0.19662 0.8475 0.0
C3264 C 0.8773 0.18232 0.84415 0.0
C3265 C 0.89875 0.20523 0.83546 0.0
C3266 C 0.89361 0.19976 0.81995 0.0
C3267 C 0.88037 0.18549 0.81657 0.0
C3268 C 0.87236 0.17672 0.8286 0.0
C3269 C 0.90165 0.20937 0.80726 0.0
C3270 C 0.89619 0.21849 0.80075 0.0
C3271 C 0.9151 0.21034 0.80234 0.0
C3272 C 0.92151 0.20118 0.80911 0.0
C3273 C 0.91306 0.18496 0.80813 0.0
C3274 C 0.91921 0.17642 0.81454 0.0
C3275 C 0.93386 0.18397 0.82185 0.0
C3276 C 0.9424 0.20009 0.82272 0.0
C3277 C 0.93629 0.20869 0.81635 0.0
H3278 H 0.93861 0.17733 0.82679 0.0
H3279 H 0.88383 0.26642 0.77012 0.0
H3280 H 0.7421 0.69264 0.72254 0.0
H3281 H 0.7608 0.699 0.7445 0.0
H3282 H 0.77077 0.66451 0.72626 0.0
H3283 H 0.75273 0.65883 0.70374 0.0
H3284 H 0.7547 0.66986 0.76224 0.0
H3285 H 0.79768 0.67827 0.73065 0.0
H3286 H 0.81686 0.69068 0.71172 0.0
H3287 H 0.82865 0.7354 0.73226 0.0
H3288 H 0.80932 0.72319 0.75115 0.0
H3289 H 0.80227 0.6665 0.82357 0.0
H3290 H 0.79122 0.66443 0.79726 0.0
H3291 H 0.80516 0.71286 0.80117 0.0
H3292 H 0.81557 0.71497 0.8278 0.0
H3293 H 0.81067 0.70082 0.7716 0.0
H3294 H 0.77142 0.69119 0.80645 0.0
H3295 H 0.75526 0.678 0.82755 0.0
H3296 H 0.7373 0.63437 0.8014 0.0
H3297 H 0.75357 0.64728 0.78024 0.0
C3298 C 0.74893 0.68707 0.72278 0.0
C3299 C 0.74647 0.67572 0.71115 0.0
C3300 C 0.75952 0.69062 0.73537 0.0
C3301 C 0.76755 0.68258 0.73678 0.0
C3302 C 0.76522 0.67133 0.72509 0.0
C3303 C 0.75479 0.66797 0.71233 0.0
C3304 C 0.77572 0.68375 0.75186 0.0
C3305 C 0.76696 0.6765 0.76423 0.0
C3306 C 0.79167 0.6925 0.7545 0.0
C3307 C 0.80176 0.69984 0.74197 0.0
C3308 C 0.80403 0.69075 0.73081 0.0
C3309 C 0.81508 0.69774 0.72024 0.0
C3310 C 0.824 0.71382 0.7208 0.0
C3311 C 0.82176 0.72294 0.73184 0.0
C3312 C 0.81072 0.716 0.74243 0.0
C3313 C 0.80292 0.67673 0.81894 0.0
C3314 C 0.80969 0.69088 0.82797 0.0
C3315 C 0.79671 0.67552 0.80383 0.0
C3316 C 0.79732 0.68847 0.79736 0.0
C3317 C 0.80464 0.70276 0.80599 0.0
C3318 C 0.81065 0.70394 0.8212 0.0
C3319 C 0.78963 0.6869 0.78187 0.0
C3320 C 0.79842 0.69413 0.76954 0.0
C3321 C 0.7737 0.67793 0.77919 0.0
C3322 C 0.76384 0.67018 0.79184 0.0
C3323 C 0.76413 0.67877 0.80526 0.0
C3324 C 0.75494 0.67135 0.81722 0.0
C3325 C 0.74529 0.65535 0.81583 0.0
C3326 C 0.7448 0.64675 0.80247 0.0
C3327 C 0.754 0.65412 0.79049 0.0
H3328 H 0.73818 0.64963 0.8251 0.0
H3329 H 0.83259 0.71921 0.71265 0.0
H3330 H 0.72769 0.63922 0.65127 0.0
H3331 H 0.73561 0.63094 0.62802 0.0
H3332 H 0.74577 0.67351 0.60768 0.0
H3333 H 0.73832 0.68199 0.63093 0.0
H3334 H 0.72949 0.64491 0.58678 0.0
H3335 H 0.77316 0.67335 0.62417 0.0
H3336 H 0.78664 0.6779 0.64998 0.0
H3337 H 0.78253 0.63298 0.64522 0.0
H3338 H 0.7687 0.62804 0.6195 0.0
H3339 H 0.78022 0.65891 0.52916 0.0
H3340 H 0.76646 0.65948 0.55122 0.0
H3341 H 0.77281 0.62395 0.57135 0.0
H3342 H 0.78755 0.62408 0.5498 0.0
H3343 H 0.77817 0.64476 0.59285 0.0
H3344 H 0.73738 0.61695 0.55443 0.0
H3345 H 0.72321 0.61139 0.52888 0.0
H3346 H 0.7207 0.6529 0.53542 0.0
H3347 H 0.73504 0.65882 0.56094 0.0
C3348 C 0.73141 0.64667 0.64173 0.0
C3349 C 0.73248 0.66127 0.6429 0.0
C3350 C 0.73594 0.64196 0.62851 0.0
C3351 C 0.74127 0.65164 0.61619 0.0
C3352 C 0.74164 0.66587 0.61705 0.0
C3353 C 0.73746 0.67072 0.63036 0.0
C3354 C 0.74758 0.64763 0.60285 0.0
C3355 C 0.74014 0.64488 0.58803 0.0
C3356 C 0.76124 0.64719 0.60465 0.0
C3357 C 0.7697 0.65024 0.62002 0.0
C3358 C 0.77498 0.66438 0.6287 0.0
C3359 C 0.78271 0.66704 0.6433 0.0
C3360 C 0.7854 0.65571 0.64926 0.0
C3361 C 0.7804 0.64172 0.64061 0.0
C3362 C 0.7726 0.63898 0.62603 0.0
C3363 C 0.77882 0.65127 0.53831 0.0
C3364 C 0.78508 0.64148 0.53766 0.0
C3365 C 0.7707 0.65143 0.55084 0.0
C3366 C 0.76833 0.64156 0.56288 0.0
C3367 C 0.77439 0.63162 0.56218 0.0
C3368 C 0.7827 0.63159 0.54973 0.0
C3369 C 0.76023 0.64224 0.57653 0.0
C3370 C 0.76736 0.64443 0.59148 0.0
C3371 C 0.74616 0.64197 0.57486 0.0
C3372 C 0.73739 0.63838 0.55957 0.0
C3373 C 0.73389 0.62495 0.55039 0.0
C3374 C 0.72581 0.62172 0.53591 0.0
C3375 C 0.72108 0.6318 0.53052 0.0
C3376 C 0.72438 0.6451 0.53961 0.0
C3377 C 0.73246 0.64839 0.5541 0.0
H3378 H 0.71484 0.6293 0.5193 0.0
H3379 H 0.79139 0.6578 0.66056 0.0
H3380 H 0.35214 0.05107 0.64307 0.0
H3381 H 0.35523 0.06542 0.62013 0.0
H3382 H 0.34878 0.09888 0.6471 0.0
H3383 H 0.34175 0.08206 0.66846 0.0
H3384 H 0.33678 0.09755 0.62383 0.0
H3385 H 0.38802 0.10091 0.62775 0.0
H3386 H 0.40477 0.08939 0.62748 0.0
H3387 H 0.38152 0.06319 0.58485 0.0
H3388 H 0.36477 0.07453 0.58479 0.0
H3389 H 0.3704 0.15984 0.57554 0.0
H3390 H 0.36763 0.14244 0.59599 0.0
H3391 H 0.35275 0.10458 0.5614 0.0
H3392 H 0.35547 0.12194 0.54086 0.0
H3393 H 0.37423 0.10635 0.58523 0.0
H3394 H 0.32682 0.10574 0.5793 0.0
H3395 H 0.31059 0.11762 0.57751 0.0
H3396 H 0.32724 0.1391 0.62355 0.0
H3397 H 0.34374 0.12751 0.62553 0.0
C3398 C 0.35161 0.06165 0.64401 0.0
C3399 C 0.3477 0.0661 0.65782 0.0
C3400 C 0.3537 0.07012 0.6309 0.0
C3401 C 0.35304 0.08391 0.63166 0.0
C3402 C 0.34944 0.0884 0.64581 0.0
C3403 C 0.34595 0.07912 0.65837 0.0
C3404 C 0.35473 0.09305 0.6177 0.0
C3405 C 0.34541 0.09975 0.61583 0.0
C3406 C 0.36506 0.09524 0.60617 0.0
C3407 C 0.37507 0.0884 0.60642 0.0
C3408 C 0.38646 0.09261 0.61843 0.0
C3409 C 0.39594 0.08615 0.61831 0.0
C3410 C 0.39412 0.07552 0.60627 0.0
C3411 C 0.38289 0.07139 0.59421 0.0
C3412 C 0.37344 0.07785 0.59422 0.0
C3413 C 0.36671 0.14784 0.5723 0.0
C3414 C 0.36311 0.1422 0.55665 0.0
C3415 C 0.36507 0.13793 0.58397 0.0
C3416 C 0.35991 0.12224 0.58017 0.0
C3417 C 0.35674 0.11666 0.56453 0.0
C3418 C 0.3582 0.12654 0.55285 0.0
C3419 C 0.35734 0.11161 0.59261 0.0
C3420 C 0.36611 0.1044 0.5938 0.0
C3421 C 0.34668 0.10906 0.6036 0.0
C3422 C 0.33661 0.11587 0.6025 0.0
C3423 C 0.3271 0.11309 0.589 0.0
C3424 C 0.31784 0.11975 0.58796 0.0
C3425 C 0.31791 0.12914 0.6004 0.0
C3426 C 0.32721 0.13184 0.61392 0.0
C3427 C 0.3365 0.12521 0.61501 0.0
H3428 H 0.31074 0.1343 0.59957 0.0
H3429 H 0.40146 0.07054 0.60624 0.0
H3430 H 0.92635 0.27217 0.68548 0.0
H3431 H 0.91087 0.26385 0.66068 0.0
H3432 H 0.93481 0.24078 0.64552 0.0
H3433 H 0.95006 0.24867 0.67041 0.0
H3434 H 0.93096 0.26258 0.6239 0.0
H3435 H 0.90404 0.21862 0.65527 0.0
H3436 H 0.89138 0.20678 0.67872 0.0
H3437 H 0.85957 0.22264 0.67026 0.0
H3438 H 0.87223 0.23482 0.64689 0.0
H3439 H 0.89015 0.21802 0.55648 0.0
H3440 H 0.90379 0.22729 0.58187 0.0
H3441 H 0.86703 0.23219 0.59874 0.0
H3442 H 0.85267 0.22164 0.57361 0.0
H3443 H 0.87685 0.22154 0.62022 0.0
H3444 H 0.90114 0.26388 0.58879 0.0
H3445 H 0.91344 0.27756 0.56592 0.0
H3446 H 0.94963 0.2678 0.57489 0.0
H3447 H 0.93743 0.25385 0.59769 0.0
C3448 C 0.92832 0.26534 0.67685 0.0
C3449 C 0.9394 0.26104 0.67987 0.0
C3450 C 0.91947 0.26059 0.66274 0.0
C3451 C 0.92175 0.25174 0.65135 0.0
C3452 C 0.93293 0.24763 0.65421 0.0
C3453 C 0.94157 0.25208 0.66843 0.0
C3454 C 0.9124 0.24663 0.63644 0.0
C3455 C 0.91916 0.25351 0.623 0.0
C3456 C 0.8969 0.23526 0.63551 0.0
C3457 C 0.8892 0.22779 0.64945 0.0
C3458 C 0.89445 0.21972 0.6585 0.0
C3459 C 0.88725 0.21292 0.67176 0.0
C3460 C 0.87471 0.21399 0.67601 0.0
C3461 C 0.8693 0.22184 0.66697 0.0
C3462 C 0.87648 0.22869 0.65372 0.0
C3463 C 0.88476 0.22075 0.56562 0.0
C3464 C 0.87023 0.21901 0.5629 0.0
C3465 C 0.89274 0.22634 0.58011 0.0
C3466 C 0.88662 0.23081 0.59216 0.0
C3467 C 0.87206 0.22894 0.5896 0.0
C3468 C 0.86392 0.22306 0.57514 0.0
C3469 C 0.89545 0.23725 0.60741 0.0
C3470 C 0.8886 0.23069 0.621 0.0
C3471 C 0.91082 0.2492 0.60852 0.0
C3472 C 0.9183 0.25771 0.59489 0.0
C3473 C 0.91167 0.26456 0.58583 0.0
C3474 C 0.91863 0.27237 0.57288 0.0
C3475 C 0.93229 0.27352 0.56893 0.0
C3476 C 0.93904 0.26689 0.57795 0.0
C3477 C 0.93212 0.25905 0.59091 0.0
H3478 H 0.93765 0.27956 0.55889 0.0
H3479 H 0.86915 0.20872 0.68627 0.0
H3480 H 0.35114 0.30066 0.66294 0.0
H3481 H 0.35503 0.2859 0.64219 0.0
H3482 H 0.32448 0.24345 0.66223 0.0
H3483 H 0.32091 0.25836 0.68325 0.0
H3484 H 0.34902 0.24268 0.65369 0.0
H3485 H 0.31321 0.2553 0.63004 0.0
H3486 H 0.30357 0.27264 0.62246 0.0
H3487 H 0.34198 0.2975 0.59577 0.0
H3488 H 0.35195 0.28043 0.60336 0.0
H3489 H 0.33317 0.20872 0.56729 0.0
H3490 H 0.32799 0.22042 0.5897 0.0
H3491 H 0.37373 0.23772 0.60933 0.0
H3492 H 0.37885 0.22545 0.58715 0.0
H3493 H 0.34038 0.24985 0.59837 0.0
H3494 H 0.37406 0.24146 0.64946 0.0
H3495 H 0.38198 0.22283 0.65728 0.0
H3496 H 0.34436 0.18662 0.62912 0.0
H3497 H 0.33608 0.20497 0.62131 0.0
C3498 C 0.34543 0.28819 0.66296 0.0
C3499 C 0.33614 0.28059 0.67485 0.0
C3500 C 0.34751 0.27976 0.65104 0.0
C3501 C 0.34002 0.26356 0.65063 0.0
C3502 C 0.33046 0.25594 0.66239 0.0
C3503 C 0.32839 0.26441 0.67432 0.0
C3504 C 0.34208 0.25459 0.63786 0.0
C3505 C 0.34714 0.24424 0.64159 0.0
C3506 C 0.33943 0.25647 0.62208 0.0
C3507 C 0.33338 0.26666 0.61737 0.0
C3508 C 0.31964 0.26452 0.62263 0.0
C3509 C 0.31412 0.27429 0.61832 0.0
C3510 C 0.32218 0.28618 0.60866 0.0
C3511 C 0.33576 0.28829 0.60326 0.0
C3512 C 0.34134 0.27856 0.60754 0.0
C3513 C 0.34204 0.21467 0.57653 0.0
C3514 C 0.35641 0.21606 0.57544 0.0
C3515 C 0.3391 0.22151 0.58927 0.0
C3516 C 0.35044 0.22991 0.60122 0.0
C3517 C 0.36475 0.23115 0.60033 0.0
C3518 C 0.36769 0.22424 0.58758 0.0
C3519 C 0.34744 0.23799 0.61416 0.0
C3520 C 0.34227 0.24826 0.61046 0.0
C3521 C 0.34977 0.23583 0.62995 0.0
C3522 C 0.35457 0.22465 0.63465 0.0
C3523 C 0.36745 0.22952 0.64497 0.0
C3524 C 0.372 0.219 0.6494 0.0
C3525 C 0.36371 0.20357 0.64365 0.0
C3526 C 0.35081 0.1986 0.6335 0.0
C3527 C 0.3462 0.20906 0.62905 0.0
H3528 H 0.36726 0.19545 0.64709 0.0
H3529 H 0.31788 0.29374 0.60535 0.0
H3530 H 0.70662 0.07115 0.6307 0.0
H3531 H 0.71529 0.08956 0.61023 0.0
H3532 H 0.76109 0.09902 0.62045 0.0
H3533 H 0.75261 0.08054 0.64035 0.0
H3534 H 0.75692 0.12614 0.61781 0.0
H3535 H 0.74367 0.07613 0.59174 0.0
H3536 H 0.72566 0.04888 0.58338 0.0
H3537 H 0.69665 0.06239 0.5592 0.0
H3538 H 0.71442 0.08972 0.56763 0.0
H3539 H 0.80623 0.1577 0.55977 0.0
H3540 H 0.78994 0.14228 0.57939 0.0
H3541 H 0.75037 0.1334 0.5504 0.0
H3542 H 0.76669 0.14839 0.53031 0.0
H3543 H 0.74613 0.10755 0.56214 0.0
H3544 H 0.76143 0.15777 0.58339 0.0
H3545 H 0.77881 0.18518 0.5916 0.0
H3546 H 0.80248 0.17222 0.6249 0.0
H3547 H 0.78539 0.14473 0.61674 0.0
C3548 C 0.71853 0.0772 0.6286 0.0
C3549 C 0.72891 0.07436 0.63719 0.0
C3550 C 0.72345 0.08769 0.61692 0.0
C3551 C 0.73884 0.09566 0.61393 0.0
C3552 C 0.74919 0.09304 0.62266 0.0
C3553 C 0.74428 0.0824 0.63403 0.0
C3554 C 0.74441 0.1065 0.60145 0.0
C3555 C 0.75456 0.12214 0.60562 0.0
C3556 C 0.74087 0.10131 0.58557 0.0
C3557 C 0.73025 0.08492 0.5805 0.0
C3558 C 0.73337 0.07327 0.58478 0.0
C3559 C 0.72323 0.05782 0.58 0.0
C3560 C 0.70999 0.0539 0.57081 0.0
C3561 C 0.70689 0.06544 0.56635 0.0
C3562 C 0.71699 0.0809 0.57113 0.0
C3563 C 0.79406 0.15242 0.5575 0.0
C3564 C 0.78778 0.15424 0.54343 0.0
C3565 C 0.78475 0.14376 0.56883 0.0
C3566 C 0.76891 0.13686 0.5665 0.0
C3567 C 0.76256 0.1387 0.5525 0.0
C3568 C 0.7719 0.14736 0.54109 0.0
C3569 C 0.75917 0.1272 0.57849 0.0
C3570 C 0.74823 0.11175 0.57426 0.0
C3571 C 0.76184 0.13263 0.59434 0.0
C3572 C 0.77215 0.14916 0.59938 0.0
C3573 C 0.7704 0.16076 0.59239 0.0
C3574 C 0.7802 0.17631 0.59705 0.0
C3575 C 0.79175 0.18044 0.60875 0.0
C3576 C 0.79352 0.16901 0.61584 0.0
C3577 C 0.78376 0.15343 0.61122 0.0
H3578 H 0.79933 0.19249 0.61234 0.0
H3579 H 0.70215 0.04193 0.56711 0.0
H3580 H 0.93725 0.66136 0.66339 0.0
H3581 H 0.92161 0.65665 0.63928 0.0
H3582 H 0.91088 0.6914 0.65516 0.0
H3583 H 0.92625 0.69574 0.67967 0.0
H3584 H 0.88598 0.66626 0.64211 0.0
H3585 H 0.93701 0.6989 0.6283 0.0
H3586 H 0.96394 0.70656 0.62668 0.0
H3587 H 0.95108 0.66452 0.59941 0.0
H3588 H 0.92406 0.65651 0.60104 0.0
H3589 H 0.87967 0.67741 0.55374 0.0
H3590 H 0.89356 0.68316 0.57907 0.0
H3591 H 0.86145 0.63791 0.59264 0.0
H3592 H 0.84712 0.63222 0.56732 0.0
H3593 H 0.90771 0.66939 0.59127 0.0
H3594 H 0.85988 0.64093 0.63305 0.0
H3595 H 0.83338 0.63474 0.63505 0.0
H3596 H 0.84055 0.67165 0.60634 0.0
H3597 H 0.86714 0.67821 0.60436 0.0
C3598 C 0.93138 0.66784 0.66176 0.0
C3599 C 0.93245 0.67852 0.67345 0.0
C3600 C 0.92261 0.66528 0.64795 0.0
C3601 C 0.91513 0.67371 0.6454 0.0
C3602 C 0.91649 0.6847 0.65696 0.0
C3603 C 0.92527 0.68722 0.67086 0.0
C3604 C 0.90603 0.67112 0.63058 0.0
C3605 C 0.89071 0.66696 0.63098 0.0
C3606 C 0.91227 0.67216 0.61608 0.0
C3607 C 0.92852 0.67707 0.61488 0.0
C3608 C 0.93993 0.69126 0.62203 0.0
C3609 C 0.9552 0.69566 0.6211 0.0
C3610 C 0.95922 0.68602 0.61297 0.0
C3611 C 0.94796 0.67197 0.60571 0.0
C3612 C 0.93266 0.66751 0.60661 0.0
C3613 C 0.87537 0.66877 0.56219 0.0
C3614 C 0.86221 0.6544 0.55857 0.0
C3615 C 0.88341 0.67203 0.57662 0.0
C3616 C 0.8785 0.66101 0.58776 0.0
C3617 C 0.86534 0.64664 0.58426 0.0
C3618 C 0.85724 0.64336 0.56977 0.0
C3619 C 0.88761 0.66447 0.60275 0.0
C3620 C 0.90294 0.6687 0.60238 0.0
C3621 C 0.88141 0.6637 0.61724 0.0
C3622 C 0.86545 0.65992 0.61839 0.0
C3623 C 0.85581 0.64774 0.62719 0.0
C3624 C 0.84077 0.64417 0.62832 0.0
C3625 C 0.83526 0.65275 0.62077 0.0
C3626 C 0.8448 0.66496 0.61212 0.0
C3627 C 0.85986 0.66859 0.61097 0.0
H3628 H 0.82362 0.64997 0.62166 0.0
H3629 H 0.97105 0.68945 0.61228 0.0
H3630 H 0.95574 0.70151 0.75183 0.0
H3631 H 0.9483 0.70964 0.77549 0.0
H3632 H 0.90122 0.67847 0.76108 0.0
H3633 H 0.90846 0.67017 0.73774 0.0
H3634 H 0.90741 0.70818 0.77233 0.0
H3635 H 0.91837 0.66744 0.78606 0.0
H3636 H 0.93499 0.65609 0.78926 0.0
H3637 H 0.96612 0.69492 0.82004 0.0
H3638 H 0.94978 0.70659 0.81683 0.0
H3639 H 0.86109 0.68664 0.8338 0.0
H3640 H 0.87586 0.68826 0.81188 0.0
H3641 H 0.91729 0.71522 0.84096 0.0
H3642 H 0.90248 0.71308 0.86327 0.0
H3643 H 0.91897 0.69375 0.82347 0.0
H3644 H 0.90612 0.73236 0.81365 0.0
H3645 H 0.88974 0.744 0.81099 0.0
H3646 H 0.86317 0.71086 0.77323 0.0
H3647 H 0.87925 0.69886 0.7758 0.0
C3648 C 0.94381 0.69651 0.75366 0.0
C3649 C 0.9327 0.68516 0.74292 0.0
C3650 C 0.93959 0.70113 0.76718 0.0
C3651 C 0.92421 0.69462 0.77001 0.0
C3652 C 0.91314 0.68367 0.75908 0.0
C3653 C 0.91732 0.67889 0.74576 0.0
C3654 C 0.9194 0.69858 0.78456 0.0
C3655 C 0.90992 0.70506 0.78353 0.0
C3656 C 0.92314 0.69498 0.79922 0.0
C3657 C 0.93297 0.68798 0.80104 0.0
C3658 C 0.92884 0.67363 0.79338 0.0
C3659 C 0.93819 0.66712 0.79522 0.0
C3660 C 0.95163 0.67481 0.80481 0.0
C3661 C 0.95573 0.689 0.81259 0.0
C3662 C 0.94643 0.69556 0.81076 0.0
C3663 C 0.87335 0.6928 0.83562 0.0
C3664 C 0.8806 0.69965 0.85033 0.0
C3665 C 0.88179 0.69391 0.823 0.0
C3666 C 0.8977 0.70209 0.8247 0.0
C3667 C 0.90503 0.70895 0.83936 0.0
C3668 C 0.89655 0.70779 0.85206 0.0
C3669 C 0.90649 0.70286 0.81118 0.0
C3670 C 0.91672 0.69727 0.81238 0.0
C3671 C 0.90354 0.70742 0.79668 0.0
C3672 C 0.89387 0.71465 0.79498 0.0
C3673 C 0.89673 0.72749 0.80484 0.0
C3674 C 0.88751 0.73416 0.80334 0.0
C3675 C 0.87542 0.72816 0.79196 0.0
C3676 C 0.87255 0.71549 0.78203 0.0
C3677 C 0.88173 0.70877 0.78349 0.0
H3678 H 0.86828 0.73334 0.79082 0.0
H3679 H 0.95884 0.66975 0.80627 0.0
H3680 H 0.30899 0.26968 0.73602 0.0
H3681 H 0.30156 0.25295 0.75767 0.0
H3682 H 0.34835 0.27478 0.77573 0.0
H3683 H 0.35588 0.29106 0.75379 0.0
H3684 H 0.33687 0.2456 0.77625 0.0
H3685 H 0.32021 0.28089 0.79265 0.0
H3686 H 0.30633 0.29524 0.79022 0.0
H3687 H 0.26408 0.25252 0.78424 0.0
H3688 H 0.27773 0.23791 0.78644 0.0
H3689 H 0.32693 0.21826 0.85119 0.0
H3690 H 0.3312 0.23572 0.83056 0.0
H3691 H 0.28672 0.20427 0.80885 0.0
H3692 H 0.2825 0.18636 0.82918 0.0
H3693 H 0.29569 0.23725 0.80996 0.0
H3694 H 0.31325 0.20236 0.79404 0.0
H3695 H 0.32772 0.18873 0.79762 0.0
H3696 H 0.36924 0.23214 0.80385 0.0
H3697 H 0.35499 0.24604 0.80055 0.0
C3698 C 0.31767 0.27103 0.7447 0.0
C3699 C 0.33303 0.28169 0.74318 0.0
C3700 C 0.3134 0.26148 0.75713 0.0
C3701 C 0.32437 0.26267 0.76847 0.0
C3702 C 0.33967 0.27358 0.76713 0.0
C3703 C 0.34396 0.28292 0.75459 0.0
C3704 C 0.3201 0.25206 0.7813 0.0
C3705 C 0.328 0.24399 0.78372 0.0
C3706 C 0.30824 0.24955 0.79085 0.0
C3707 C 0.30001 0.25831 0.78955 0.0
C3708 C 0.30797 0.27456 0.7907 0.0
C3709 C 0.30014 0.28274 0.78938 0.0
C3710 C 0.28433 0.27479 0.78703 0.0
C3711 C 0.27632 0.25866 0.78604 0.0
C3712 C 0.2841 0.25042 0.78733 0.0
C3713 C 0.31805 0.21497 0.84201 0.0
C3714 C 0.30446 0.20076 0.84173 0.0
C3715 C 0.32048 0.22504 0.83031 0.0
C3716 C 0.30933 0.2212 0.81815 0.0
C3717 C 0.29545 0.20742 0.81818 0.0
C3718 C 0.29305 0.19724 0.82983 0.0
C3719 C 0.31265 0.23115 0.80493 0.0
C3720 C 0.30455 0.23896 0.80242 0.0
C3721 C 0.32443 0.23358 0.79537 0.0
C3722 C 0.33304 0.22524 0.79719 0.0
C3723 C 0.32546 0.209 0.7963 0.0
C3724 C 0.33362 0.20122 0.79826 0.0
C3725 C 0.34939 0.20956 0.801 0.0
C3726 C 0.35703 0.22569 0.80175 0.0
C3727 C 0.34891 0.23353 0.79982 0.0
H3728 H 0.35569 0.20352 0.80252 0.0
H3729 H 0.27829 0.28115 0.78602 0.0
H3730 H 0.73925 0.09032 0.70007 0.0
H3731 H 0.75561 0.1018 0.72385 0.0
H3732 H 0.75178 0.05769 0.73264 0.0
H3733 H 0.73344 0.04588 0.71021 0.0
H3734 H 0.74956 0.06736 0.75716 0.0
H3735 H 0.78997 0.09579 0.72341 0.0
H3736 H 0.80239 0.11213 0.70186 0.0
H3737 H 0.79336 0.14695 0.72054 0.0
H3738 H 0.78112 0.1309 0.74224 0.0
H3739 H 0.81216 0.10225 0.81589 0.0
H3740 H 0.79921 0.09253 0.79003 0.0
H3741 H 0.77856 0.12103 0.79442 0.0
H3742 H 0.79054 0.13006 0.82069 0.0
H3743 H 0.79453 0.1199 0.76381 0.0
H3744 H 0.75611 0.09018 0.7995 0.0
H3745 H 0.74742 0.07389 0.82174 0.0
H3746 H 0.75587 0.04033 0.79874 0.0
H3747 H 0.76489 0.05658 0.77648 0.0
C3748 C 0.74215 0.08317 0.70699 0.0
C3749 C 0.7357 0.06733 0.70287 0.0
C3750 C 0.75175 0.08981 0.72052 0.0
C3751 C 0.75553 0.08086 0.73001 0.0
C3752 C 0.74926 0.06503 0.72562 0.0
C3753 C 0.73907 0.05828 0.71251 0.0
C3754 C 0.76455 0.08749 0.74528 0.0
C3755 C 0.75957 0.07872 0.75836 0.0
C3756 C 0.77746 0.10253 0.74734 0.0
C3757 C 0.78441 0.11203 0.73418 0.0
C3758 C 0.79049 0.10684 0.72273 0.0
C3759 C 0.79755 0.11608 0.71058 0.0
C3760 C 0.7985 0.13048 0.70974 0.0
C3761 C 0.79254 0.13576 0.72115 0.0
C3762 C 0.78562 0.12664 0.73342 0.0
C3763 C 0.80475 0.10637 0.8115 0.0
C3764 C 0.80237 0.11691 0.82055 0.0
C3765 C 0.79749 0.1009 0.79664 0.0
C3766 C 0.78797 0.10609 0.79042 0.0
C3767 C 0.78597 0.11699 0.79907 0.0
C3768 C 0.79294 0.12222 0.81406 0.0
C3769 C 0.77958 0.09961 0.77512 0.0
C3770 C 0.78461 0.10846 0.76226 0.0
C3771 C 0.76699 0.08454 0.77317 0.0
C3772 C 0.76135 0.07468 0.78643 0.0
C3773 C 0.75627 0.0794 0.79926 0.0
C3774 C 0.75125 0.07017 0.81185 0.0
C3775 C 0.75114 0.05611 0.81167 0.0
C3776 C 0.75599 0.05123 0.79888 0.0
C3777 C 0.76105 0.06045 0.78627 0.0
H3778 H 0.74726 0.04897 0.82143 0.0
H3779 H 0.80394 0.13759 0.7003 0.0
H3780 H 0.0642 0.3714 0.0383 0.0
H3781 H 0.07517 0.35842 0.05282 0.0
H3782 H 0.03052 0.31994 0.05748 0.0
H3783 H 0.01928 0.33295 0.04292 0.0
H3784 H 0.0487 0.32967 0.08519 0.0
H3785 H 0.05201 0.31493 0.0333 0.0
H3786 H 0.05754 0.3186 0.00582 0.0
H3787 H 0.10472 0.34891 0.01945 0.0
H3788 H 0.09945 0.34562 0.04704 0.0
H3789 H 0.08879 0.29359 0.11933 0.0
H3790 H 0.07104 0.2974 0.10226 0.0
H3791 H 0.10813 0.34032 0.08934 0.0
H3792 H 0.12582 0.3365 0.1061 0.0
H3793 H 0.08942 0.32232 0.06415 0.0
H3794 H 0.08505 0.34039 0.11564 0.0
H3795 H 0.07963 0.3374 0.14321 0.0
H3796 H 0.03433 0.30077 0.13009 0.0
H3797 H 0.03956 0.30341 0.10243 0.0
C3798 C 0.05664 0.36017 0.04236 0.0
C3799 C 0.04083 0.35323 0.03943 0.0
C3800 C 0.06297 0.35272 0.0506 0.0
C3801 C 0.05367 0.33815 0.05606 0.0
C3802 C 0.03787 0.33117 0.05328 0.0
C3803 C 0.0315 0.3386 0.04493 0.0
C3804 C 0.06067 0.33059 0.06498 0.0
C3805 C 0.05734 0.32768 0.08049 0.0
C3806 C 0.07203 0.32815 0.05887 0.0
C3807 C 0.07531 0.33008 0.04227 0.0
C3808 C 0.06355 0.32246 0.03045 0.0
C3809 C 0.06664 0.32446 0.01485 0.0
C3810 C 0.08147 0.334 0.01089 0.0
C3811 C 0.09324 0.34153 0.02254 0.0
C3812 C 0.09021 0.33958 0.03816 0.0
C3813 C 0.09311 0.30379 0.11279 0.0
C3814 C 0.10864 0.31484 0.11415 0.0
C3815 C 0.08298 0.30598 0.10312 0.0
C3816 C 0.08829 0.31917 0.0946 0.0
C3817 C 0.10381 0.33006 0.09581 0.0
C3818 C 0.11387 0.32795 0.10551 0.0
C3819 C 0.07784 0.32195 0.08449 0.0
C3820 C 0.08052 0.32394 0.06873 0.0
C3821 C 0.0659 0.32352 0.09038 0.0
C3822 C 0.06276 0.32195 0.10699 0.0
C3823 C 0.07398 0.3316 0.11864 0.0
C3824 C 0.07093 0.32999 0.13429 0.0
C3825 C 0.05666 0.31886 0.13841 0.0
C3826 C 0.04539 0.30936 0.12689 0.0
C3827 C 0.04839 0.31091 0.11123 0.0
H3828 H 0.05432 0.31764 0.15052 0.0
H3829 H 0.08383 0.33554 0.9988 0.0
H3830 H 0.66982 0.66626 0.09138 0.0
H3831 H 0.68037 0.69208 0.10434 0.0
H3832 H 0.64073 0.69401 0.08741 0.0
H3833 H 0.6307 0.66868 0.07367 0.0
H3834 H 0.6631 0.71998 0.08466 0.0
H3835 H 0.64808 0.68668 0.12692 0.0
H3836 H 0.64734 0.66665 0.14334 0.0
H3837 H 0.69541 0.69397 0.15428 0.0
H3838 H 0.69646 0.71409 0.13777 0.0
H3839 H 0.66455 0.77273 0.14474 0.0
H3840 H 0.65899 0.7477 0.13299 0.0
H3841 H 0.70599 0.7663 0.12426 0.0
H3842 H 0.71163 0.79174 0.13522 0.0
H3843 H 0.68249 0.73133 0.14012 0.0
H3844 H 0.69566 0.76436 0.09526 0.0
H3845 H 0.69351 0.78407 0.08066 0.0
H3846 H 0.645 0.75585 0.0768 0.0
H3847 H 0.64689 0.73609 0.09161 0.0
C3848 C 0.66339 0.67223 0.09047 0.0
C3849 C 0.64944 0.6655 0.08157 0.0
C3850 C 0.66937 0.68695 0.09796 0.0
C3851 C 0.66126 0.69497 0.09711 0.0
C3852 C 0.64727 0.68815 0.08824 0.0
C3853 C 0.6415 0.67364 0.08043 0.0
C3854 C 0.66734 0.71056 0.10519 0.0
C3855 C 0.66729 0.72234 0.0968 0.0
C3856 C 0.67298 0.71387 0.12104 0.0
C3857 C 0.67237 0.7018 0.13098 0.0
C3858 C 0.6585 0.68836 0.13274 0.0
C3859 C 0.65803 0.677 0.14208 0.0
C3860 C 0.67133 0.67901 0.14981 0.0
C3861 C 0.68513 0.69241 0.14826 0.0
C3862 C 0.68566 0.7038 0.13893 0.0
C3863 C 0.67374 0.77161 0.14023 0.0
C3864 C 0.68852 0.78438 0.14072 0.0
C3865 C 0.67054 0.75724 0.13368 0.0
C3866 C 0.68207 0.75526 0.12774 0.0
C3867 C 0.69696 0.76768 0.12883 0.0
C3868 C 0.70016 0.78217 0.13517 0.0
C3869 C 0.67819 0.74041 0.11951 0.0
C3870 C 0.67853 0.72885 0.12791 0.0
C3871 C 0.67253 0.73715 0.1038 0.0
C3872 C 0.67141 0.74886 0.09466 0.0
C3873 C 0.68454 0.76244 0.09141 0.0
C3874 C 0.68337 0.7736 0.08308 0.0
C3875 C 0.66912 0.77123 0.07784 0.0
C3876 C 0.65602 0.75768 0.08088 0.0
C3877 C 0.65714 0.7465 0.08923 0.0
H3878 H 0.66824 0.77989 0.07139 0.0
H3879 H 0.67094 0.67021 0.15703 0.0
H3880 H 0.34107 0.98018 0.05962 0.0
H3881 H 0.31682 0.96466 0.07062 0.0
H3882 H 0.2956 0.94486 0.02488 0.0
H3883 H 0.32013 0.96027 0.01367 0.0
H3884 H 0.28015 0.95733 0.04684 0.0
H3885 H 0.29931 0.92189 0.04294 0.0
H3886 H 0.31909 0.91455 0.04606 0.0
H3887 H 0.32317 0.9248 0.09533 0.0
H3888 H 0.30356 0.93243 0.09248 0.0
H3889 H 0.21329 0.90445 0.08323 0.0
H3890 H 0.23384 0.91627 0.06578 0.0
H3891 H 0.26675 0.92807 0.1047 0.0
H3892 H 0.24628 0.91584 0.12194 0.0
H3893 H 0.27446 0.9169 0.08204 0.0
H3894 H 0.25869 0.95503 0.08687 0.0
H3895 H 0.24064 0.96476 0.08527 0.0
H3896 H 0.2317 0.95194 0.03632 0.0
H3897 H 0.24957 0.94195 0.03768 0.0
C3898 C 0.33127 0.97255 0.05184 0.0
C3899 C 0.3325 0.97142 0.03577 0.0
C3900 C 0.31743 0.96369 0.05817 0.0
C3901 C 0.30447 0.95364 0.04856 0.0
C3902 C 0.30552 0.9526 0.03246 0.0
C3903 C 0.31951 0.96132 0.0261 0.0
C3904 C 0.29002 0.94415 0.05568 0.0
C3905 C 0.27867 0.94821 0.05426 0.0
C3906 C 0.2884 0.93262 0.06568 0.0
C3907 C 0.30004 0.92783 0.06747 0.0
C3908 C 0.30451 0.92269 0.05443 0.0
C3909 C 0.31567 0.91845 0.05615 0.0
C3910 C 0.3224 0.91923 0.07088 0.0
C3911 C 0.31795 0.9242 0.08393 0.0
C3912 C 0.30679 0.92846 0.08226 0.0
C3913 C 0.22494 0.90969 0.08801 0.0
C3914 C 0.22823 0.90922 0.1039 0.0
C3915 C 0.23667 0.91646 0.07806 0.0
C3916 C 0.2519 0.92317 0.08391 0.0
C3917 C 0.25513 0.92289 0.09985 0.0
C3918 C 0.24343 0.91593 0.10971 0.0
C3919 C 0.26458 0.93026 0.07356 0.0
C3920 C 0.27568 0.92577 0.0744 0.0
C3921 C 0.26606 0.94159 0.06325 0.0
C3922 C 0.25532 0.94757 0.06242 0.0
C3923 C 0.25278 0.95417 0.07579 0.0
C3924 C 0.2426 0.95976 0.07492 0.0
C3925 C 0.23499 0.95892 0.06071 0.0
C3926 C 0.23758 0.95254 0.04733 0.0
C3927 C 0.24774 0.94692 0.04814 0.0
H3928 H 0.22712 0.96326 0.06006 0.0
H3929 H 0.33106 0.91596 0.07219 0.0
H3930 H 0.38678 0.05346 0.99844 0.0
H3931 H 0.37453 0.06716 0.98779 0.0
H3932 H 0.33068 0.02874 0.99553 0.0
H3933 H 0.34285 0.0147 0.00576 0.0
H3934 H 0.32926 0.0391 0.96854 0.0
H3935 H 0.34772 0.0625 0.01974 0.0
H3936 H 0.3665 0.07499 0.04218 0.0
H3937 H 0.39381 0.11324 0.01536 0.0
H3938 H 0.37531 0.10086 0.99268 0.0
H3939 H 0.29363 0.08535 0.95653 0.0
H3940 H 0.30288 0.06978 0.96935 0.0
H3941 H 0.34796 0.1004 0.95613 0.0
H3942 H 0.33881 0.11559 0.94275 0.0
H3943 H 0.34661 0.09312 0.9878 0.0
H3944 H 0.32818 0.06796 0.9361 0.0
H3945 H 0.30875 0.05518 0.91423 0.0
H3946 H 0.28021 0.01987 0.94342 0.0
H3947 H 0.29939 0.03259 0.96553 0.0
C3948 C 0.37453 0.0479 0.9979 0.0
C3949 C 0.36582 0.033 0.00304 0.0
C3950 C 0.36753 0.05579 0.99186 0.0
C3951 C 0.35168 0.04912 0.99113 0.0
C3952 C 0.34292 0.03415 0.99602 0.0
C3953 C 0.34991 0.02615 0.00189 0.0
C3954 C 0.34431 0.05777 0.98514 0.0
C3955 C 0.33288 0.05081 0.97296 0.0
C3956 C 0.34907 0.07311 0.9908 0.0
C3957 C 0.36017 0.08068 0.00447 0.0
C3958 C 0.35777 0.07353 0.0186 0.0
C3959 C 0.36837 0.0806 0.03136 0.0
C3960 C 0.38135 0.09489 0.03019 0.0
C3961 C 0.38375 0.10216 0.01625 0.0
C3962 C 0.37321 0.09513 0.00344 0.0
C3963 C 0.30548 0.08872 0.95623 0.0
C3964 C 0.31546 0.10182 0.94863 0.0
C3965 C 0.31076 0.07985 0.96364 0.0
C3966 C 0.3261 0.08398 0.96368 0.0
C3967 C 0.3361 0.09711 0.95633 0.0
C3968 C 0.33083 0.10585 0.94878 0.0
C3969 C 0.33182 0.07452 0.9711 0.0
C3970 C 0.34291 0.08134 0.98355 0.0
C3971 C 0.32662 0.05902 0.96583 0.0
C3972 C 0.31514 0.05133 0.95251 0.0
C3973 C 0.3177 0.05755 0.93789 0.0
C3974 C 0.30675 0.0503 0.92544 0.0
C3975 C 0.29323 0.03675 0.92745 0.0
C3976 C 0.29067 0.03039 0.94189 0.0
C3977 C 0.30158 0.03761 0.95438 0.0
H3978 H 0.28476 0.03115 0.9178 0.0
H3979 H 0.38954 0.10034 0.04008 0.0
H3980 H 0.99641 0.32431 0.97543 0.0
H3981 H 0.97945 0.29872 0.9627 0.0
H3982 H 0.9489 0.2888 0.99905 0.0
H3983 H 0.96593 0.31435 0.01197 0.0
H3984 H 0.95259 0.26429 0.99134 0.0
H3985 H 0.94159 0.29945 0.96438 0.0
H3986 H 0.94776 0.32239 0.94982 0.0
H3987 H 0.9643 0.30522 0.91376 0.0
H3988 H 0.95841 0.28227 0.92821 0.0
H3989 H 0.88324 0.20486 0.95558 0.0
H3990 H 0.9043 0.22856 0.96819 0.0
H3991 H 0.93081 0.23315 0.92915 0.0
H3992 H 0.90954 0.20947 0.91627 0.0
H3993 H 0.9312 0.25987 0.93734 0.0
H3994 H 0.93983 0.22332 0.96335 0.0
H3995 H 0.93313 0.20026 0.97787 0.0
H3996 H 0.9207 0.21979 0.01568 0.0
H3997 H 0.92712 0.24289 0.00129 0.0
C3998 C 0.9861 0.31667 0.98075 0.0
C3999 C 0.98245 0.32138 0.99466 0.0
C4000 C 0.97641 0.30206 0.97344 0.0
C4001 C 0.96283 0.29193 0.97984 0.0
C4002 C 0.95932 0.29646 0.99391 0.0
C4003 C 0.96903 0.31107 0.00125 0.0
C4004 C 0.9521 0.27674 0.97168 0.0
C4005 C 0.9478 0.26331 0.97958 0.0
C4006 C 0.94621 0.27546 0.95618 0.0
C4007 C 0.94972 0.28923 0.94746 0.0
C4008 C 0.94666 0.30063 0.95341 0.0
C4009 C 0.95008 0.31362 0.94516 0.0
C4010 C 0.95646 0.31529 0.9309 0.0
C4011 C 0.95938 0.30393 0.92482 0.0
C4012 C 0.956 0.29093 0.93303 0.0
C4013 C 0.89357 0.2109 0.94969 0.0
C4014 C 0.89473 0.20539 0.9349 0.0
C4015 C 0.90565 0.22436 0.95697 0.0
C4016 C 0.91917 0.23255 0.94967 0.0
C4017 C 0.92048 0.22695 0.935 0.0
C4018 C 0.90838 0.21341 0.92771 0.0
C4019 C 0.93153 0.24741 0.95705 0.0
C4020 C 0.93612 0.2608 0.94902 0.0
C4021 C 0.93766 0.24864 0.97243 0.0
C4022 C 0.93385 0.2348 0.98118 0.0
C4023 C 0.93556 0.22265 0.97471 0.0
C4024 C 0.93183 0.20958 0.98293 0.0
C4025 C 0.92646 0.20855 0.99768 0.0
C4026 C 0.92485 0.22061 0.00425 0.0
C4027 C 0.92855 0.2337 0.99608 0.0
H4028 H 0.92358 0.19842 0.00402 0.0
H4029 H 0.9591 0.32535 0.92453 0.0
H4030 H 0.67722 0.61804 0.03259 0.0
H4031 H 0.69986 0.63212 0.01851 0.0
H4032 H 0.68957 0.66879 0.01298 0.0
H4033 H 0.66689 0.65487 0.02742 0.0
H4034 H 0.69749 0.65644 0.98464 0.0
H4035 H 0.71595 0.67774 0.03703 0.0
H4036 H 0.7192 0.67629 0.06526 0.0
H4037 H 0.742 0.65042 0.05748 0.0
H4038 H 0.73866 0.6515 0.02917 0.0
H4039 H 0.76768 0.69886 0.95096 0.0
H4040 H 0.74674 0.69291 0.9672 0.0
H4041 H 0.75599 0.66075 0.99079 0.0
H4042 H 0.7776 0.66749 0.97548 0.0
H4043 H 0.74854 0.67481 0.01084 0.0
H4044 H 0.72746 0.64977 0.95973 0.0
H4045 H 0.72329 0.64877 0.93125 0.0
H4046 H 0.70466 0.6789 0.93614 0.0
H4047 H 0.7089 0.68024 0.96467 0.0
C4048 C 0.67971 0.62908 0.02837 0.0
C4049 C 0.67025 0.63535 0.03114 0.0
C4050 C 0.69268 0.63712 0.02037 0.0
C4051 C 0.69637 0.65149 0.0148 0.0
C4052 C 0.68687 0.65771 0.01725 0.0
C4053 C 0.67398 0.64977 0.02552 0.0
C4054 C 0.71023 0.65984 0.00644 0.0
C4055 C 0.70871 0.6608 0.99037 0.0
C4056 C 0.72476 0.66512 0.01393 0.0
C4057 C 0.72695 0.66461 0.03096 0.0
C4058 C 0.72155 0.67164 0.04133 0.0
C4059 C 0.72343 0.6709 0.05735 0.0
C4060 C 0.73078 0.66325 0.06316 0.0
C4061 C 0.7363 0.65634 0.05296 0.0
C4062 C 0.73443 0.65703 0.03693 0.0
C4063 C 0.76549 0.69077 0.95983 0.0
C4064 C 0.77428 0.68352 0.96175 0.0
C4065 C 0.75335 0.68722 0.96898 0.0
C4066 C 0.74954 0.67611 0.98001 0.0
C4067 C 0.75861 0.66928 0.9823 0.0
C4068 C 0.77087 0.673 0.97336 0.0
C4069 C 0.73587 0.67113 0.98886 0.0
C4070 C 0.7374 0.67076 0.00506 0.0
C4071 C 0.7213 0.66613 0.98143 0.0
C4072 C 0.71866 0.66525 0.9643 0.0
C4073 C 0.72257 0.65627 0.95472 0.0
C4074 C 0.72018 0.65563 0.93858 0.0
C4075 C 0.71376 0.66381 0.93189 0.0
C4076 C 0.70966 0.6726 0.94134 0.0
C4077 C 0.71205 0.6733 0.95749 0.0
H4078 H 0.71193 0.6633 0.91939 0.0
H4079 H 0.73222 0.66268 0.07557 0.0
H4080 H 0.95726 0.65789 0.03772 0.0
H4081 H 0.94173 0.66685 0.02394 0.0
H4082 H 0.96318 0.66748 0.98182 0.0
H4083 H 0.9791 0.65925 0.99566 0.0
H4084 H 0.96012 0.69132 0.98351 0.0
H4085 H 0.92653 0.63745 0.98971 0.0
H4086 H 0.91325 0.61402 0.00407 0.0
H4087 H 0.89216 0.63492 0.02979 0.0
H4088 H 0.90548 0.65856 0.01571 0.0
H4089 H 0.90293 0.68474 0.92713 0.0
H4090 H 0.92007 0.67964 0.94366 0.0
H4091 H 0.90379 0.69095 0.98452 0.0
H4092 H 0.88674 0.69618 0.96808 0.0
H4093 H 0.90414 0.66246 0.98474 0.0
H4094 H 0.93709 0.7159 0.97587 0.0
H4095 H 0.94982 0.7381 0.95977 0.0
H4096 H 0.97153 0.71618 0.93692 0.0
H4097 H 0.95875 0.69374 0.95273 0.0
C4098 C 0.95869 0.66003 0.02554 0.0
C4099 C 0.96937 0.65783 0.01777 0.0
C4100 C 0.94975 0.66506 0.01764 0.0
C4101 C 0.95108 0.66762 0.00174 0.0
C4102 C 0.96192 0.66563 0.99407 0.0
C4103 C 0.97101 0.66087 0.00201 0.0
C4104 C 0.94114 0.67219 0.99292 0.0
C4105 C 0.94787 0.68488 0.9837 0.0
C4106 C 0.92514 0.66402 0.9933 0.0
C4107 C 0.91713 0.64983 0.00178 0.0
C4108 C 0.91915 0.63709 0.99851 0.0
C4109 C 0.91161 0.62376 0.00658 0.0
C4110 C 0.90191 0.623 0.01787 0.0
C4111 C 0.8997 0.63554 0.02107 0.0
C4112 C 0.90724 0.6489 0.01304 0.0
C4113 C 0.9031 0.68623 0.93964 0.0
C4114 C 0.89361 0.69095 0.94634 0.0
C4115 C 0.9129 0.68336 0.94905 0.0
C4116 C 0.91321 0.68499 0.9653 0.0
C4117 C 0.90373 0.68968 0.97201 0.0
C4118 C 0.8941 0.69277 0.96262 0.0
C4119 C 0.92316 0.68138 0.97528 0.0
C4120 C 0.9164 0.6689 0.98469 0.0
C4121 C 0.9391 0.68955 0.97485 0.0
C4122 C 0.94686 0.70308 0.96539 0.0
C4123 C 0.94448 0.71576 0.96732 0.0
C4124 C 0.95172 0.72839 0.95827 0.0
C4125 C 0.96145 0.72854 0.94731 0.0
C4126 C 0.96398 0.71605 0.94541 0.0
C4127 C 0.95676 0.70338 0.95442 0.0
H4128 H 0.96705 0.73833 0.94031 0.0
H4129 H 0.89607 0.61267 0.02411 0.0
H4130 H 0.33459 0.33315 0.99331 0.0
H4131 H 0.31842 0.30731 0.98034 0.0
H4132 H 0.35319 0.31551 0.94927 0.0
H4133 H 0.36956 0.34109 0.96244 0.0
H4134 H 0.32017 0.29924 0.93567 0.0
H4135 H 0.35505 0.29876 0.9768 0.0
H4136 H 0.36587 0.30439 0.00397 0.0
H4137 H 0.32149 0.27602 0.01958 0.0
H4138 H 0.31039 0.27047 0.99247 0.0
H4139 H 0.31708 0.23168 0.90605 0.0
H4140 H 0.32247 0.25669 0.91736 0.0
H4141 H 0.2934 0.23449 0.95404 0.0
H4142 H 0.2887 0.20938 0.94328 0.0
H4143 H 0.31832 0.25723 0.96617 0.0
H4144 H 0.28386 0.25282 0.92501 0.0
H4145 H 0.27208 0.24758 0.89827 0.0
H4146 H 0.31301 0.28468 0.88299 0.0
H4147 H 0.32513 0.29001 0.9096 0.0
C4148 C 0.33864 0.32953 0.98352 0.0
C4149 C 0.35333 0.33902 0.97891 0.0
C4150 C 0.32941 0.31482 0.97615 0.0
C4151 C 0.33466 0.3096 0.96387 0.0
C4152 C 0.34895 0.31942 0.95867 0.0
C4153 C 0.3583 0.33395 0.96625 0.0
C4154 C 0.32614 0.29336 0.95757 0.0
C4155 C 0.3197 0.28998 0.94225 0.0
C4156 C 0.32517 0.28133 0.96644 0.0
C4157 C 0.33188 0.28435 0.98266 0.0
C4158 C 0.3476 0.29383 0.98604 0.0
C4159 C 0.35378 0.29699 0.00142 0.0
C4160 C 0.34437 0.2906 0.0135 0.0
C4161 C 0.32876 0.28098 0.01021 0.0
C4162 C 0.32252 0.27783 0.99485 0.0
C4163 C 0.31182 0.23208 0.91654 0.0
C4164 C 0.30257 0.2185 0.92383 0.0
C4165 C 0.31472 0.24641 0.92287 0.0
C4166 C 0.30818 0.24751 0.93647 0.0
C4167 C 0.29853 0.23394 0.94351 0.0
C4168 C 0.29575 0.21957 0.93726 0.0
C4169 C 0.31254 0.26294 0.94394 0.0
C4170 C 0.31832 0.26626 0.95955 0.0
C4171 C 0.31268 0.27485 0.93536 0.0
C4172 C 0.30544 0.27176 0.91932 0.0
C4173 C 0.29039 0.2598 0.91593 0.0
C4174 C 0.28364 0.25682 0.9008 0.0
C4175 C 0.2918 0.26578 0.88894 0.0
C4176 C 0.30671 0.27775 0.8922 0.0
C4177 C 0.31351 0.28078 0.90731 0.0
H4178 H 0.28655 0.26345 0.87722 0.0
H4179 H 0.34918 0.29306 0.0254 0.0
H4180 H 0.66951 0.01508 0.01206 0.0
H4181 H 0.69401 0.03034 0.00137 0.0
H4182 H 0.70212 0.07025 0.03022 0.0
H4183 H 0.67755 0.0549 0.04121 0.0
H4184 H 0.70541 0.07486 0.99781 0.0
H4185 H 0.72318 0.05545 0.03873 0.0
H4186 H 0.72298 0.03552 0.05491 0.0
H4187 H 0.72836 0.01249 0.01481 0.0
H4188 H 0.72842 0.0322 0.99833 0.0
H4189 H 0.77667 0.11976 0.96808 0.0
H4190 H 0.75735 0.10731 0.98656 0.0
H4191 H 0.74835 0.06258 0.96801 0.0
H4192 H 0.76806 0.07508 0.94987 0.0
H4193 H 0.74692 0.06231 0.99817 0.0
H4194 H 0.726 0.07865 0.95682 0.0
H4195 H 0.72502 0.0972 0.93937 0.0
H4196 H 0.72381 0.12414 0.9786 0.0
H4197 H 0.72499 0.10585 0.99631 0.0
C4198 C 0.67658 0.02706 0.01629 0.0
C4199 C 0.67162 0.03384 0.02742 0.0
C4200 C 0.6906 0.03573 0.01022 0.0
C4201 C 0.69987 0.05139 0.01506 0.0
C4202 C 0.69511 0.05816 0.0264 0.0
C4203 C 0.68114 0.04938 0.03268 0.0
C4204 C 0.71396 0.0608 0.00734 0.0
C4205 C 0.71467 0.07239 0.99816 0.0
C4206 C 0.72574 0.05715 0.00742 0.0
C4207 C 0.72572 0.04527 0.01728 0.0
C4208 C 0.7242 0.04607 0.03333 0.0
C4209 C 0.72414 0.03483 0.04256 0.0
C4210 C 0.72565 0.02275 0.03589 0.0
C4211 C 0.72721 0.02187 0.01996 0.0
C4212 C 0.72728 0.03309 0.01067 0.0
C4213 C 0.7706 0.10728 0.96804 0.0
C4214 C 0.77371 0.09835 0.95749 0.0
C4215 C 0.75956 0.10017 0.97857 0.0
C4216 C 0.75117 0.08399 0.97848 0.0
C4217 C 0.75465 0.07508 0.96829 0.0
C4218 C 0.76587 0.0822 0.95792 0.0
C4219 C 0.73834 0.07633 0.98848 0.0
C4220 C 0.7378 0.06499 0.99801 0.0
C4221 C 0.72655 0.08002 0.98852 0.0
C4222 C 0.72576 0.09099 0.97789 0.0
C4223 C 0.72564 0.0886 0.96173 0.0
C4224 C 0.72503 0.09905 0.95179 0.0
C4225 C 0.7244 0.11187 0.95787 0.0
C4226 C 0.72433 0.11423 0.97391 0.0
C4227 C 0.72496 0.10382 0.9839 0.0
H4228 H 0.72393 0.11995 0.95016 0.0
H4229 H 0.72569 0.01412 0.04307 0.0
H4230 H 0.65832 0.99482 0.0653 0.0
H4231 H 0.6705 0.98145 0.07709 0.0
H4232 H 0.62856 0.93818 0.06962 0.0
H4233 H 0.6162 0.95141 0.05798 0.0
H4234 H 0.64174 0.94173 0.09844 0.0
H4235 H 0.65739 0.94839 0.04606 0.0
H4236 H 0.66932 0.96323 0.02364 0.0
H4237 H 0.71211 0.98761 0.05055 0.0
H4238 H 0.70036 0.97326 0.07326 0.0
H4239 H 0.66366 0.88638 0.10693 0.0
H4240 H 0.65562 0.90277 0.09402 0.0
H4241 H 0.69865 0.94298 0.10854 0.0
H4242 H 0.70674 0.92661 0.12179 0.0
H4243 H 0.68691 0.943 0.07746 0.0
H4244 H 0.67197 0.93687 0.12947 0.0
H4245 H 0.66069 0.9223 0.15225 0.0
H4246 H 0.61733 0.89748 0.12643 0.0
H4247 H 0.62842 0.91172 0.10339 0.0
C4248 C 0.65164 0.98246 0.06619 0.0
C4249 C 0.63625 0.97419 0.06066 0.0
C4250 C 0.65867 0.97484 0.07287 0.0
C4251 C 0.65048 0.95881 0.07407 0.0
C4252 C 0.63509 0.95057 0.06878 0.0
C4253 C 0.62805 0.95816 0.06211 0.0
C4254 C 0.65782 0.95055 0.08095 0.0
C4255 C 0.65153 0.9419 0.09374 0.0
C4256 C 0.6709 0.9512 0.07513 0.0
C4257 C 0.67794 0.95989 0.06145 0.0
C4258 C 0.6693 0.95706 0.04727 0.0
C4259 C 0.67604 0.96539 0.03449 0.0
C4260 C 0.69145 0.97645 0.03569 0.0
C4261 C 0.70016 0.97915 0.04965 0.0
C4262 C 0.69346 0.97093 0.06249 0.0
C4263 C 0.67147 0.8987 0.10728 0.0
C4264 C 0.68573 0.90526 0.11558 0.0
C4265 C 0.66688 0.90802 0.09985 0.0
C4266 C 0.67647 0.92407 0.10056 0.0
C4267 C 0.69111 0.9306 0.10792 0.0
C4268 C 0.69571 0.92124 0.11543 0.0
C4269 C 0.6706 0.93398 0.09466 0.0
C4270 C 0.67718 0.94295 0.08216 0.0
C4271 C 0.65784 0.93374 0.10078 0.0
C4272 C 0.65107 0.92526 0.11466 0.0
C4273 C 0.66006 0.92821 0.12861 0.0
C4274 C 0.6537 0.92003 0.14157 0.0
C4275 C 0.63831 0.90895 0.14077 0.0
C4276 C 0.62925 0.90606 0.12702 0.0
C4277 C 0.63557 0.91419 0.11401 0.0
H4278 H 0.6334 0.90262 0.15082 0.0
H4279 H 0.69665 0.98288 0.02578 0.0
H4280 H 0.05106 0.68269 0.06226 0.0
H4281 H 0.06532 0.7074 0.07722 0.0
H4282 H 0.0245 0.7101 0.08033 0.0
H4283 H 0.01003 0.68531 0.06507 0.0
H4284 H 0.04839 0.73775 0.07415 0.0
H4285 H 0.03855 0.70053 0.1114 0.0
H4286 H 0.03732 0.67739 0.12204 0.0
H4287 H 0.08561 0.69782 0.12126 0.0
H4288 H 0.08711 0.721 0.11038 0.0
H4289 H 0.08954 0.80193 0.13128 0.0
H4290 H 0.07022 0.77707 0.11848 0.0
H4291 H 0.1049 0.76555 0.10932 0.0
H4292 H 0.12418 0.79029 0.12185 0.0
H4293 H 0.08067 0.74181 0.12098 0.0
H4294 H 0.08976 0.77773 0.08106 0.0
H4295 H 0.09083 0.80076 0.07028 0.0
H4296 H 0.04353 0.78265 0.07656 0.0
H4297 H 0.04224 0.75959 0.08758 0.0
C4298 C 0.04504 0.68846 0.06612 0.0
C4299 C 0.02933 0.68189 0.06256 0.0
C4300 C 0.05323 0.70261 0.07472 0.0
C4301 C 0.04593 0.71046 0.08014 0.0
C4302 C 0.03033 0.70418 0.07633 0.0
C4303 C 0.02209 0.68999 0.06764 0.0
C4304 C 0.05474 0.72522 0.08977 0.0
C4305 C 0.05522 0.73861 0.08457 0.0
C4306 C 0.06374 0.72635 0.1033 0.0
C4307 C 0.06292 0.71248 0.10998 0.0
C4308 C 0.0489 0.70006 0.1134 0.0
C4309 C 0.04815 0.68693 0.11949 0.0
C4310 C 0.06138 0.68612 0.1223 0.0
C4311 C 0.07538 0.69846 0.11907 0.0
C4312 C 0.07618 0.7116 0.11296 0.0
C4313 C 0.09303 0.79412 0.12644 0.0
C4314 C 0.10839 0.79805 0.12768 0.0
C4315 C 0.08199 0.77993 0.11916 0.0
C4316 C 0.08614 0.76948 0.11292 0.0
C4317 C 0.10144 0.77338 0.11416 0.0
C4318 C 0.11244 0.78752 0.12139 0.0
C4319 C 0.07469 0.7544 0.1051 0.0
C4320 C 0.07367 0.74092 0.11069 0.0
C4321 C 0.06517 0.75321 0.092 0.0
C4322 C 0.06594 0.76703 0.08531 0.0
C4323 C 0.07962 0.77872 0.08026 0.0
C4324 C 0.08026 0.79177 0.07409 0.0
C4325 C 0.06727 0.79319 0.07279 0.0
C4326 C 0.05359 0.78155 0.07761 0.0
C4327 C 0.0529 0.76849 0.08381 0.0
H4328 H 0.06779 0.8033 0.068 0.0
H4329 H 0.06078 0.67595 0.12701 0.0
H4330 H 0.33756 0.35156 0.04492 0.0
H4331 H 0.31437 0.34233 0.05839 0.0
H4332 H 0.30205 0.37079 0.03188 0.0
H4333 H 0.32534 0.38018 0.01835 0.0
H4334 H 0.2984 0.3731 0.06289 0.0
H4335 H 0.28434 0.3326 0.02323 0.0
H4336 H 0.28724 0.313 0.00795 0.0
H4337 H 0.28477 0.28921 0.04908 0.0
H4338 H 0.28209 0.30882 0.06467 0.0
H4339 H 0.22361 0.34062 0.086 0.0
H4340 H 0.24502 0.34833 0.06993 0.0
H4341 H 0.25832 0.31958 0.09457 0.0
H4342 H 0.23693 0.31184 0.11075 0.0
H4343 H 0.26097 0.31728 0.0636 0.0
H4344 H 0.27629 0.35803 0.10342 0.0
H4345 H 0.27401 0.37777 0.11919 0.0
H4346 H 0.27468 0.40114 0.07822 0.0
H4347 H 0.27674 0.3814 0.06217 0.0
C4348 C 0.32993 0.35586 0.04192 0.0
C4349 C 0.33328 0.3666 0.03055 0.0
C4350 C 0.31663 0.35051 0.04959 0.0
C4351 C 0.3064 0.35574 0.04602 0.0
C4352 C 0.30978 0.36657 0.03477 0.0
C4353 C 0.32307 0.37189 0.02704 0.0
C4354 C 0.29235 0.35011 0.05428 0.0
C4355 C 0.29008 0.36092 0.06283 0.0
C4356 C 0.28171 0.33417 0.05452 0.0
C4357 C 0.28315 0.32226 0.04515 0.0
C4358 C 0.28452 0.32325 0.02905 0.0
C4359 C 0.28612 0.31213 0.02032 0.0
C4360 C 0.28623 0.29989 0.02755 0.0
C4361 C 0.2847 0.29872 0.04351 0.0
C4362 C 0.28313 0.30982 0.05229 0.0
C4363 C 0.23111 0.33596 0.08803 0.0
C4364 C 0.22866 0.32574 0.09976 0.0
C4365 C 0.24332 0.34035 0.07881 0.0
C4366 C 0.2534 0.3347 0.0812 0.0
C4367 C 0.25069 0.32408 0.09253 0.0
C4368 C 0.23844 0.31965 0.10175 0.0
C4369 C 0.26703 0.34028 0.07222 0.0
C4370 C 0.26924 0.32947 0.06357 0.0
C4371 C 0.27767 0.35621 0.07194 0.0
C4372 C 0.27651 0.36815 0.08157 0.0
C4373 C 0.27583 0.36731 0.09776 0.0
C4374 C 0.2746 0.37851 0.10675 0.0
C4375 C 0.27416 0.39068 0.09971 0.0
C4376 C 0.275 0.39169 0.08366 0.0
C4377 C 0.27621 0.38051 0.07461 0.0
H4378 H 0.27321 0.39934 0.10669 0.0
H4379 H 0.28747 0.2913 0.02078 0.0
H4380 H 0.72329 0.71206 0.38073 0.0
H4381 H 0.73542 0.70003 0.39504 0.0
H4382 H 0.69191 0.65954 0.39878 0.0
H4383 H 0.67951 0.67151 0.38437 0.0
H4384 H 0.71205 0.67004 0.42693 0.0
H4385 H 0.71174 0.65641 0.37317 0.0
H4386 H 0.71548 0.66154 0.34556 0.0
H4387 H 0.76299 0.69247 0.35694 0.0
H4388 H 0.75949 0.68771 0.38466 0.0
H4389 H 0.75365 0.63355 0.45468 0.0
H4390 H 0.73497 0.63798 0.44023 0.0
H4391 H 0.77122 0.67871 0.42259 0.0
H4392 H 0.7898 0.67392 0.43618 0.0
H4393 H 0.75049 0.66286 0.40025 0.0
H4394 H 0.75053 0.67984 0.4537 0.0
H4395 H 0.74737 0.67626 0.48165 0.0
H4396 H 0.70121 0.64036 0.47126 0.0
H4397 H 0.70416 0.64361 0.44322 0.0
C4398 C 0.71621 0.70065 0.38467 0.0
C4399 C 0.7004 0.69273 0.3813 0.0
C4400 C 0.7232 0.69378 0.39282 0.0
C4401 C 0.71456 0.67886 0.39779 0.0
C4402 C 0.69875 0.67106 0.39498 0.0
C4403 C 0.69171 0.67791 0.3867 0.0
C4404 C 0.72234 0.67138 0.40541 0.0
C4405 C 0.72024 0.66814 0.42105 0.0
C4406 C 0.73311 0.6691 0.39773 0.0
C4407 C 0.73532 0.67176 0.38101 0.0
C4408 C 0.72297 0.66437 0.3698 0.0
C4409 C 0.72505 0.66721 0.35413 0.0
C4410 C 0.73946 0.67735 0.3495 0.0
C4411 C 0.75183 0.68463 0.36054 0.0
C4412 C 0.74981 0.68184 0.37623 0.0
C4413 C 0.75762 0.64336 0.4476 0.0
C4414 C 0.77324 0.65348 0.44673 0.0
C4415 C 0.74693 0.64595 0.43946 0.0
C4416 C 0.7517 0.65878 0.43047 0.0
C4417 C 0.76726 0.66875 0.42948 0.0
C4418 C 0.77789 0.6661 0.43744 0.0
C4419 C 0.74068 0.66207 0.422 0.0
C4420 C 0.74212 0.66446 0.40612 0.0
C4421 C 0.72942 0.6637 0.42953 0.0
C4422 C 0.72762 0.66184 0.44637 0.0
C4423 C 0.73974 0.67111 0.45737 0.0
C4424 C 0.73798 0.66915 0.47323 0.0
C4425 C 0.72411 0.65806 0.47823 0.0
C4426 C 0.71195 0.64893 0.46738 0.0
C4427 C 0.71366 0.65083 0.4515 0.0
H4428 H 0.72278 0.65655 0.49051 0.0
H4429 H 0.74104 0.67954 0.33736 0.0
H4430 H 0.33642 0.00152 0.42387 0.0
H4431 H 0.34743 0.02758 0.43633 0.0
H4432 H 0.31523 0.03498 0.40898 0.0
H4433 H 0.3047 0.00924 0.39598 0.0
H4434 H 0.34065 0.06036 0.41168 0.0
H4435 H 0.31023 0.02364 0.44779 0.0
H4436 H 0.30242 0.00113 0.46352 0.0
H4437 H 0.34666 0.02304 0.48768 0.0
H4438 H 0.35478 0.0456 0.47195 0.0
H4439 H 0.33503 0.10714 0.48106 0.0
H4440 H 0.32975 0.08247 0.46852 0.0
H4441 H 0.37247 0.10526 0.44758 0.0
H4442 H 0.37768 0.1301 0.45989 0.0
H4443 H 0.34334 0.06529 0.46927 0.0
H4444 H 0.36638 0.08843 0.41032 0.0
H4445 H 0.371 0.11034 0.39465 0.0
H4446 H 0.33588 0.11443 0.41626 0.0
H4447 H 0.3309 0.09242 0.43185 0.0
C4448 C 0.33181 0.00879 0.42041 0.0
C4449 C 0.31963 0.00333 0.40905 0.0
C4450 C 0.33806 0.02365 0.42759 0.0
C4451 C 0.33195 0.03316 0.42386 0.0
C4452 C 0.32014 0.02789 0.4121 0.0
C4453 C 0.31409 0.01315 0.4047 0.0
C4454 C 0.33736 0.04829 0.43261 0.0
C4455 C 0.34133 0.06143 0.42428 0.0
C4456 C 0.33806 0.04973 0.44906 0.0
C4457 C 0.33315 0.03623 0.4586 0.0
C4458 C 0.31831 0.02361 0.4564 0.0
C4459 C 0.31383 0.01085 0.46532 0.0
C4460 C 0.32405 0.01064 0.47656 0.0
C4461 C 0.33876 0.02321 0.47895 0.0
C4462 C 0.34331 0.03599 0.47004 0.0
C4463 C 0.34332 0.10688 0.47383 0.0
C4464 C 0.3567 0.12055 0.47132 0.0
C4465 C 0.34035 0.09277 0.46677 0.0
C4466 C 0.35064 0.09206 0.45699 0.0
C4467 C 0.36431 0.10559 0.45497 0.0
C4468 C 0.36732 0.11974 0.46208 0.0
C4469 C 0.34659 0.07727 0.44833 0.0
C4470 C 0.34287 0.06422 0.45668 0.0
C4471 C 0.34568 0.07582 0.4319 0.0
C4472 C 0.34843 0.08892 0.42239 0.0
C4473 C 0.35962 0.09399 0.41169 0.0
C4474 C 0.3623 0.10642 0.40282 0.0
C4475 C 0.35378 0.11381 0.40451 0.0
C4476 C 0.34251 0.10874 0.41501 0.0
C4477 C 0.33977 0.0963 0.42387 0.0
H4478 H 0.35589 0.12345 0.39765 0.0
H4479 H 0.32056 0.00075 0.48345 0.0
H4480 H 0.99994 0.28016 0.36221 0.0
H4481 H 0.97563 0.26582 0.37362 0.0
H4482 H 0.98027 0.30871 0.39263 0.0
H4483 H 0.0051 0.3229 0.38217 0.0
H4484 H 0.97036 0.29044 0.41315 0.0
H4485 H 0.95438 0.28495 0.35939 0.0
H4486 H 0.95348 0.27871 0.33134 0.0
H4487 H 0.93879 0.23142 0.33983 0.0
H4488 H 0.93978 0.23742 0.36797 0.0
H4489 H 0.88973 0.25391 0.42523 0.0
H4490 H 0.91252 0.26815 0.4113 0.0
H4491 H 0.92434 0.23282 0.41843 0.0
H4492 H 0.90228 0.219 0.43332 0.0
H4493 H 0.92466 0.24753 0.3843 0.0
H4494 H 0.94376 0.25623 0.43968 0.0
H4495 H 0.94268 0.26386 0.46687 0.0
H4496 H 0.94949 0.30767 0.45326 0.0
H4497 H 0.95032 0.30015 0.42593 0.0
C4498 C 0.99569 0.28649 0.36875 0.0
C4499 C 0.00435 0.30261 0.3713 0.0
C4500 C 0.98172 0.27831 0.37519 0.0
C4501 C 0.97585 0.28614 0.3838 0.0
C4502 C 0.98447 0.30232 0.3861 0.0
C4503 C 0.99864 0.31045 0.38006 0.0
C4504 C 0.9611 0.27748 0.39098 0.0
C4505 C 0.96038 0.28122 0.40667 0.0
C4506 C 0.94792 0.26533 0.38272 0.0
C4507 C 0.94729 0.26167 0.3658 0.0
C4508 C 0.95106 0.27324 0.35529 0.0
C4509 C 0.95052 0.26975 0.33937 0.0
C4510 C 0.94612 0.25469 0.33382 0.0
C4511 C 0.94221 0.24309 0.34416 0.0
C4512 C 0.94274 0.24652 0.36009 0.0
C4513 C 0.89721 0.24918 0.42403 0.0
C4514 C 0.89407 0.23525 0.43056 0.0
C4515 C 0.91014 0.25728 0.4159 0.0
C4516 C 0.92003 0.25148 0.41387 0.0
C4517 C 0.91674 0.23739 0.41982 0.0
C4518 C 0.90401 0.22945 0.42824 0.0
C4519 C 0.93423 0.26051 0.40623 0.0
C4520 C 0.93475 0.25683 0.39055 0.0
C4521 C 0.94711 0.27294 0.41433 0.0
C4522 C 0.94692 0.27756 0.43077 0.0
C4523 C 0.94488 0.26742 0.44247 0.0
C4524 C 0.94434 0.27174 0.45791 0.0
C4525 C 0.94596 0.28622 0.46178 0.0
C4526 C 0.9482 0.29644 0.45024 0.0
C4527 C 0.94871 0.29216 0.43478 0.0
H4528 H 0.94554 0.28954 0.47374 0.0
H4529 H 0.9457 0.25201 0.32149 0.0
H4530 H 0.01805 0.33951 0.32522 0.0
H4531 H 0.00601 0.35295 0.31299 0.0
H4532 H 0.04341 0.39671 0.33144 0.0
H4533 H 0.0555 0.38352 0.34361 0.0
H4534 H 0.01512 0.39401 0.3353 0.0
H4535 H 0.04213 0.38506 0.29482 0.0
H4536 H 0.04785 0.3685 0.27782 0.0
H4537 H 0.00152 0.34388 0.25898 0.0
H4538 H 0.99547 0.36016 0.27605 0.0
H4539 H 0.01476 0.45188 0.29213 0.0
H4540 H 0.0202 0.43378 0.30519 0.0
H4541 H 0.98457 0.39592 0.27615 0.0
H4542 H 0.97975 0.41411 0.26226 0.0
H4543 H 0.00793 0.39229 0.27791 0.0
H4544 H 0.98109 0.40262 0.31575 0.0
H4545 H 0.97456 0.41841 0.33289 0.0
H4546 H 0.01873 0.4391 0.35705 0.0
H4547 H 0.02561 0.4236 0.33992 0.0
C4548 C 0.02368 0.35199 0.32671 0.0
C4549 C 0.03779 0.36043 0.33532 0.0
C4550 C 0.0168 0.35963 0.31969 0.0
C4551 C 0.02387 0.37582 0.32128 0.0
C4552 C 0.03777 0.38422 0.3301 0.0
C4553 C 0.04471 0.37663 0.33697 0.0
C4554 C 0.0171 0.38422 0.31353 0.0
C4555 C 0.01359 0.39371 0.32275 0.0
C4556 C 0.01463 0.38338 0.29719 0.0
C4557 C 0.01831 0.3737 0.28684 0.0
C4558 C 0.03313 0.37603 0.28714 0.0
C4559 C 0.03644 0.36671 0.27748 0.0
C4560 C 0.02504 0.35511 0.26736 0.0
C4561 C 0.01033 0.35284 0.26685 0.0
C4562 C 0.00695 0.36212 0.27651 0.0
C4563 C 0.00811 0.43972 0.28842 0.0
C4564 C 0.99682 0.43451 0.27609 0.0
C4565 C 0.0111 0.42932 0.29608 0.0
C4566 C 0.00263 0.41341 0.29185 0.0
C4567 C 0.99121 0.40812 0.27969 0.0
C4568 C 0.98834 0.41855 0.27187 0.0
C4569 C 0.00625 0.40246 0.29967 0.0
C4570 C 0.00918 0.39246 0.29047 0.0
C4571 C 0.00801 0.4027 0.31606 0.0
C4572 C 0.0039 0.412 0.32647 0.0
C4573 C 0.98945 0.41061 0.32465 0.0
C4574 C 0.98568 0.4195 0.33438 0.0
C4575 C 0.99623 0.42977 0.34604 0.0
C4576 C 0.01057 0.43115 0.34802 0.0
C4577 C 0.0144 0.42229 0.33831 0.0
H4578 H 0.99329 0.43665 0.35355 0.0
H4579 H 0.02763 0.34792 0.25988 0.0
H4580 H 0.65858 0.65623 0.3197 0.0
H4581 H 0.64108 0.63148 0.30568 0.0
H4582 H 0.60537 0.62684 0.3339 0.0
H4583 H 0.62294 0.65137 0.34828 0.0
H4584 H 0.6032 0.59973 0.32863 0.0
H4585 H 0.60882 0.64083 0.29761 0.0
H4586 H 0.62286 0.66467 0.28402 0.0
H4587 H 0.64056 0.64236 0.25509 0.0
H4588 H 0.62678 0.61844 0.26866 0.0
H4589 H 0.54714 0.56098 0.25586 0.0
H4590 H 0.5671 0.58411 0.27045 0.0
H4591 H 0.58575 0.55731 0.28991 0.0
H4592 H 0.56534 0.53396 0.276 0.0
H4593 H 0.59661 0.60005 0.27137 0.0
H4594 H 0.59962 0.57089 0.32715 0.0
H4595 H 0.58312 0.54796 0.34103 0.0
H4596 H 0.5437 0.54802 0.32102 0.0
H4597 H 0.55996 0.57108 0.30722 0.0
C4598 C 0.64705 0.64983 0.32306 0.0
C4599 C 0.64209 0.65579 0.335 0.0
C4600 C 0.63705 0.63573 0.31499 0.0
C4601 C 0.62184 0.62746 0.31853 0.0
C4602 C 0.61704 0.63304 0.33094 0.0
C4603 C 0.62709 0.64708 0.33912 0.0
C4604 C 0.61073 0.61342 0.30883 0.0
C4605 C 0.60182 0.59977 0.31611 0.0
C4606 C 0.60868 0.61357 0.29252 0.0
C4607 C 0.61689 0.6279 0.28426 0.0
C4608 C 0.61579 0.64104 0.28842 0.0
C4609 C 0.62369 0.65457 0.28072 0.0
C4610 C 0.63263 0.65504 0.26873 0.0
C4611 C 0.63365 0.64198 0.26439 0.0
C4612 C 0.62579 0.62843 0.27208 0.0
C4613 C 0.55544 0.55998 0.26331 0.0
C4614 C 0.55451 0.54557 0.26491 0.0
C4615 C 0.56694 0.57325 0.27151 0.0
C4616 C 0.57779 0.57241 0.28145 0.0
C4617 C 0.57735 0.55819 0.28251 0.0
C4618 C 0.56575 0.54487 0.2744 0.0
C4619 C 0.58915 0.58631 0.29115 0.0
C4620 C 0.59811 0.59995 0.28388 0.0
C4621 C 0.59088 0.58629 0.30752 0.0
C4622 C 0.58101 0.57261 0.31602 0.0
C4623 C 0.58743 0.56605 0.32577 0.0
C4624 C 0.57812 0.55302 0.33362 0.0
C4625 C 0.56237 0.5465 0.33187 0.0
C4626 C 0.5559 0.55304 0.32233 0.0
C4627 C 0.56516 0.56609 0.31448 0.0
H4628 H 0.55519 0.5364 0.33792 0.0
H4629 H 0.63874 0.66552 0.26279 0.0
H4630 H 0.34233 0.98445 0.37138 0.0
H4631 H 0.36455 0.99272 0.3564 0.0
H4632 H 0.35134 0.94507 0.34492 0.0
H4633 H 0.32943 0.93674 0.36024 0.0
H4634 H 0.38027 0.96057 0.35217 0.0
H4635 H 0.34581 0.96831 0.31872 0.0
H4636 H 0.3289 0.9786 0.3116 0.0
H4637 H 0.36614 0.02494 0.3198 0.0
H4638 H 0.38323 0.01491 0.32717 0.0
H4639 H 0.42104 0.96761 0.28593 0.0
H4640 H 0.40081 0.96236 0.30293 0.0
H4641 H 0.42307 0.01052 0.31874 0.0
H4642 H 0.44376 0.01586 0.3022 0.0
H4643 H 0.39105 0.99667 0.3104 0.0
H4644 H 0.42571 0.9879 0.34222 0.0
H4645 H 0.44207 0.97669 0.3481 0.0
H4646 H 0.40346 0.93102 0.34155 0.0
H4647 H 0.3869 0.94195 0.3354 0.0
C4648 C 0.34414 0.97573 0.36564 0.0
C4649 C 0.33406 0.95992 0.36698 0.0
C4650 C 0.35683 0.98048 0.35703 0.0
C4651 C 0.35953 0.96952 0.34935 0.0
C4652 C 0.34952 0.95375 0.35075 0.0
C4653 C 0.33696 0.949 0.3595 0.0
C4654 C 0.37282 0.97438 0.33994 0.0
C4655 C 0.38251 0.96834 0.34294 0.0
C4656 C 0.376 0.98481 0.32812 0.0
C4657 C 0.36576 0.99086 0.32367 0.0
C4658 C 0.35036 0.98069 0.31912 0.0
C4659 C 0.34075 0.98648 0.31502 0.0
C4660 C 0.34644 0.00242 0.31529 0.0
C4661 C 0.36175 0.0126 0.31962 0.0
C4662 C 0.37141 0.00687 0.32376 0.0
C4663 C 0.42182 0.97708 0.29318 0.0
C4664 C 0.43415 0.99215 0.29276 0.0
C4665 C 0.41016 0.97406 0.30281 0.0
C4666 C 0.41052 0.98604 0.31214 0.0
C4667 C 0.4226 0.00114 0.31158 0.0
C4668 C 0.43438 0.00416 0.30206 0.0
C4669 C 0.39824 0.98266 0.32253 0.0
C4670 C 0.38881 0.98898 0.31972 0.0
C4671 C 0.39517 0.97235 0.3344 0.0
C4672 C 0.40509 0.96575 0.33821 0.0
C4673 C 0.42073 0.97546 0.34191 0.0
C4674 C 0.43003 0.96916 0.34531 0.0
C4675 C 0.42381 0.95315 0.34516 0.0
C4676 C 0.40827 0.94342 0.34165 0.0
C4677 C 0.39891 0.94966 0.33822 0.0
H4678 H 0.43104 0.94829 0.3478 0.0
H4679 H 0.33898 0.00687 0.31211 0.0
H4680 H 0.61739 0.96641 0.36166 0.0
H4681 H 0.60118 0.97274 0.3452 0.0
H4682 H 0.64048 0.00717 0.3244 0.0
H4683 H 0.65675 0.00057 0.34047 0.0
H4684 H 0.61418 0.01391 0.3355 0.0
H4685 H 0.6269 0.9821 0.3023 0.0
H4686 H 0.62985 0.95935 0.29673 0.0
H4687 H 0.5828 0.92931 0.30341 0.0
H4688 H 0.57965 0.95191 0.30927 0.0
H4689 H 0.57448 0.02501 0.27158 0.0
H4690 H 0.5934 0.02213 0.28753 0.0
H4691 H 0.55924 0.97598 0.29663 0.0
H4692 H 0.5404 0.97874 0.28065 0.0
H4693 H 0.58454 0.97627 0.29099 0.0
H4694 H 0.571 0.00695 0.32344 0.0
H4695 H 0.56726 0.02896 0.33037 0.0
H4696 H 0.61461 0.06043 0.32665 0.0
H4697 H 0.61858 0.0386 0.31947 0.0
C4698 C 0.6226 0.97548 0.35374 0.0
C4699 C 0.63831 0.98297 0.35228 0.0
C4700 C 0.61334 0.97905 0.34435 0.0
C4701 C 0.61969 0.99037 0.33361 0.0
C4702 C 0.63543 0.99841 0.33266 0.0
C4703 C 0.64467 0.9946 0.3418 0.0
C4704 C 0.60971 0.99302 0.32271 0.0
C4705 C 0.60786 0.00586 0.3256 0.0
C4706 C 0.60127 0.98228 0.31008 0.0
C4707 C 0.60309 0.96868 0.30641 0.0
C4708 C 0.61723 0.97064 0.30275 0.0
C4709 C 0.61893 0.95778 0.2995 0.0
C4710 C 0.60653 0.94289 0.29977 0.0
C4711 C 0.5924 0.94085 0.30323 0.0
C4712 C 0.59065 0.95368 0.30651 0.0
C4713 C 0.57104 0.01426 0.27699 0.0
C4714 C 0.55596 0.0021 0.27484 0.0
C4715 C 0.58184 0.01263 0.28611 0.0
C4716 C 0.5777 0.99889 0.29343 0.0
C4717 C 0.56272 0.98666 0.29107 0.0
C4718 C 0.55196 0.98824 0.28189 0.0
C4719 C 0.58888 0.99724 0.3037 0.0
C4720 C 0.59093 0.98448 0.30075 0.0
C4721 C 0.5974 0.00802 0.31637 0.0
C4722 C 0.59505 0.02116 0.32075 0.0
C4723 C 0.58059 0.01857 0.32398 0.0
C4724 C 0.57843 0.03101 0.32797 0.0
C4725 C 0.59068 0.04608 0.32891 0.0
C4726 C 0.60513 0.04875 0.32589 0.0
C4727 C 0.60734 0.03635 0.32187 0.0
H4728 H 0.58899 0.0557 0.33201 0.0
H4729 H 0.60787 0.93295 0.29725 0.0
H4730 H 0.05637 0.67531 0.31946 0.0
H4731 H 0.04656 0.6511 0.30377 0.0
H4732 H 0.00169 0.64558 0.30179 0.0
H4733 H 0.0114 0.66989 0.31764 0.0
H4734 H 0.00167 0.61873 0.30817 0.0
H4735 H 0.02106 0.65608 0.27046 0.0
H4736 H 0.03976 0.6798 0.25913 0.0
H4737 H 0.07077 0.66238 0.25769 0.0
H4738 H 0.05235 0.63864 0.26925 0.0
H4739 H 0.97623 0.55504 0.25133 0.0
H4740 H 0.9818 0.57994 0.26372 0.0
H4741 H 0.02902 0.59313 0.27079 0.0
H4742 H 0.02356 0.56825 0.25878 0.0
H4743 H 0.02506 0.61647 0.25973 0.0
H4744 H 0.00664 0.58056 0.30007 0.0
H4745 H 0.98803 0.55692 0.3116 0.0
H4746 H 0.95504 0.57181 0.3079 0.0
H4747 H 0.9734 0.59545 0.29612 0.0
C4748 C 0.04441 0.66902 0.31571 0.0
C4749 C 0.0347 0.67464 0.31979 0.0
C4750 C 0.03883 0.65518 0.30667 0.0
C4751 C 0.02344 0.64666 0.30145 0.0
C4752 C 0.01363 0.65204 0.30565 0.0
C4753 C 0.01921 0.66596 0.31468 0.0
C4754 C 0.01772 0.632 0.2918 0.0
C4755 C 0.00655 0.61826 0.29741 0.0
C4756 C 0.02424 0.63139 0.27787 0.0
C4757 C 0.03535 0.64562 0.27084 0.0
C4758 C 0.03191 0.65735 0.26784 0.0
C4759 C 0.04245 0.67079 0.26136 0.0
C4760 C 0.05645 0.6726 0.25772 0.0
C4761 C 0.05992 0.66096 0.26053 0.0
C4762 C 0.04943 0.6475 0.26703 0.0
C4763 C 0.98779 0.56321 0.2556 0.0
C4764 C 0.99945 0.55963 0.25406 0.0
C4765 C 0.99095 0.57744 0.26261 0.0
C4766 C 0.00581 0.58834 0.26822 0.0
C4767 C 0.01749 0.58492 0.26645 0.0
C4768 C 0.01434 0.5707 0.25952 0.0
C4769 C 0.00927 0.6032 0.2763 0.0
C4770 C 0.02002 0.61698 0.27037 0.0
C4771 C 0.00234 0.60384 0.28991 0.0
C4772 C 0.99132 0.58967 0.29704 0.0
C4773 C 0.99537 0.57873 0.30159 0.0
C4774 C 0.98488 0.56534 0.30819 0.0
C4775 C 0.97034 0.56284 0.31044 0.0
C4776 C 0.96629 0.57375 0.30612 0.0
C4777 C 0.97673 0.58714 0.29949 0.0
H4778 H 0.96223 0.55247 0.31555 0.0
H4779 H 0.0646 0.68302 0.2527 0.0
H4780 H 0.33799 0.38961 0.37056 0.0
H4781 H 0.36131 0.40461 0.35744 0.0
H4782 H 0.35528 0.36266 0.33444 0.0
H4783 H 0.33181 0.34765 0.34721 0.0
H4784 H 0.38647 0.38521 0.34749 0.0
H4785 H 0.34445 0.38077 0.31428 0.0
H4786 H 0.32183 0.38337 0.30875 0.0
H4787 H 0.34808 0.43211 0.32101 0.0
H4788 H 0.37081 0.42974 0.32685 0.0
H4789 H 0.43263 0.41152 0.28399 0.0
H4790 H 0.41266 0.39833 0.30166 0.0
H4791 H 0.41278 0.44093 0.31269 0.0
H4792 H 0.43245 0.45402 0.2947 0.0
H4793 H 0.38521 0.41906 0.30745 0.0
H4794 H 0.4277 0.42477 0.3388 0.0
H4795 H 0.45063 0.42299 0.3453 0.0
H4796 H 0.42466 0.37357 0.3382 0.0
H4797 H 0.40161 0.37506 0.33144 0.0
C4798 C 0.34173 0.38359 0.36283 0.0
C4799 C 0.33306 0.3675 0.3598 0.0
C4800 C 0.35502 0.39215 0.35536 0.0
C4801 C 0.35994 0.3847 0.34497 0.0
C4802 C 0.35165 0.36858 0.34245 0.0
C4803 C 0.33823 0.36006 0.34968 0.0
C4804 C 0.37318 0.39377 0.33596 0.0
C4805 C 0.38623 0.39255 0.33864 0.0
C4806 C 0.3729 0.40361 0.32475 0.0
C4807 C 0.35927 0.40505 0.32119 0.0
C4808 C 0.34536 0.39201 0.31595 0.0
C4809 C 0.33253 0.39345 0.31272 0.0
C4810 C 0.33351 0.40788 0.31457 0.0
C4811 C 0.34733 0.42092 0.31961 0.0
C4812 C 0.36019 0.41955 0.32287 0.0
C4813 C 0.42849 0.41808 0.29033 0.0
C4814 C 0.43403 0.43376 0.28797 0.0
C4815 C 0.41712 0.41056 0.30047 0.0
C4816 C 0.41131 0.41866 0.30866 0.0
C4817 C 0.41705 0.43441 0.30648 0.0
C4818 C 0.42826 0.44187 0.29621 0.0
C4819 C 0.3987 0.41056 0.31887 0.0
C4820 C 0.38566 0.4119 0.31639 0.0
C4821 C 0.39911 0.401 0.3304 0.0
C4822 C 0.41295 0.40004 0.33447 0.0
C4823 C 0.4269 0.41353 0.3385 0.0
C4824 C 0.43992 0.41257 0.34225 0.0
C4825 C 0.43911 0.39818 0.34213 0.0
C4826 C 0.42527 0.38471 0.33828 0.0
C4827 C 0.41222 0.3856 0.3345 0.0
H4828 H 0.4492 0.39747 0.34504 0.0
H4829 H 0.32356 0.40897 0.31207 0.0
H4830 H 0.3265 0.33468 0.40293 0.0
H4831 H 0.34103 0.3237 0.41488 0.0
H4832 H 0.30002 0.27974 0.41546 0.0
H4833 H 0.28541 0.29057 0.40382 0.0
H4834 H 0.31719 0.28621 0.44202 0.0
H4835 H 0.32467 0.28751 0.38684 0.0
H4836 H 0.33265 0.30045 0.36247 0.0
H4837 H 0.37796 0.32875 0.3833 0.0
H4838 H 0.37018 0.3161 0.40788 0.0
H4839 H 0.33414 0.22706 0.43769 0.0
H4840 H 0.3281 0.24605 0.42755 0.0
H4841 H 0.37123 0.283 0.44716 0.0
H4842 H 0.3772 0.26404 0.45792 0.0
H4843 H 0.3575 0.2845 0.41323 0.0
H4844 H 0.34992 0.28094 0.46806 0.0
H4845 H 0.3414 0.26636 0.49143 0.0
H4846 H 0.2958 0.2415 0.47053 0.0
H4847 H 0.30413 0.25574 0.44689 0.0
C4848 C 0.32054 0.32271 0.40574 0.0
C4849 C 0.30477 0.3135 0.40233 0.0
C4850 C 0.32889 0.31645 0.41251 0.0
C4851 C 0.32163 0.30086 0.41591 0.0
C4852 C 0.30586 0.2918 0.41296 0.0
C4853 C 0.29752 0.29803 0.40624 0.0
C4854 C 0.33032 0.29364 0.42204 0.0
C4855 C 0.32604 0.28592 0.43574 0.0
C4856 C 0.34211 0.29351 0.41404 0.0
C4857 C 0.34681 0.301 0.39924 0.0
C4858 C 0.33631 0.29657 0.38626 0.0
C4859 C 0.3408 0.30384 0.37241 0.0
C4860 C 0.35579 0.31545 0.37136 0.0
C4861 C 0.36634 0.31978 0.38414 0.0
C4862 C 0.3619 0.31256 0.39803 0.0
C4863 C 0.34243 0.23922 0.43972 0.0
C4864 C 0.35603 0.24406 0.44883 0.0
C4865 C 0.33901 0.25002 0.43382 0.0
C4866 C 0.34919 0.26585 0.43675 0.0
C4867 C 0.36329 0.27079 0.44478 0.0
C4868 C 0.36668 0.25995 0.45087 0.0
C4869 C 0.34409 0.27693 0.43295 0.0
C4870 C 0.34897 0.28524 0.4197 0.0
C4871 C 0.33283 0.27762 0.44133 0.0
C4872 C 0.32768 0.26932 0.45567 0.0
C4873 C 0.3381 0.27228 0.4684 0.0
C4874 C 0.3333 0.26409 0.4817 0.0
C4875 C 0.31807 0.25299 0.48245 0.0
C4876 C 0.3076 0.2501 0.46992 0.0
C4877 C 0.31235 0.25824 0.45658 0.0
H4878 H 0.31438 0.24664 0.49275 0.0
H4879 H 0.35925 0.32107 0.36063 0.0
H4880 H 0.67519 0.00814 0.40558 0.0
H4881 H 0.6878 0.03379 0.41931 0.0
H4882 H 0.73125 0.04012 0.40783 0.0
H4883 H 0.71884 0.01443 0.39466 0.0
H4884 H 0.73348 0.04951 0.4362 0.0
H4885 H 0.71262 0.05739 0.38847 0.0
H4886 H 0.69229 0.05256 0.36855 0.0
H4887 H 0.66951 0.06434 0.40248 0.0
H4888 H 0.68961 0.06905 0.42265 0.0
H4889 H 0.76843 0.13667 0.43513 0.0
H4890 H 0.74933 0.11125 0.42339 0.0
H4891 H 0.74117 0.0935 0.46886 0.0
H4892 H 0.76055 0.11881 0.48057 0.0
H4893 H 0.71999 0.08971 0.42442 0.0
H4894 H 0.73964 0.05897 0.4673 0.0
H4895 H 0.76202 0.06488 0.48479 0.0
H4896 H 0.79075 0.10038 0.45588 0.0
H4897 H 0.76859 0.0945 0.4381 0.0
C4898 C 0.68743 0.01501 0.40601 0.0
C4899 C 0.69601 0.00921 0.39905 0.0
C4900 C 0.69462 0.0297 0.41379 0.0
C4901 C 0.71048 0.03897 0.41449 0.0
C4902 C 0.71902 0.03318 0.40753 0.0
C4903 C 0.71188 0.01846 0.39997 0.0
C4904 C 0.71838 0.05464 0.42261 0.0
C4905 C 0.73043 0.05823 0.43365 0.0
C4906 C 0.71457 0.06615 0.41922 0.0
C4907 C 0.70253 0.0634 0.40709 0.0
C4908 C 0.70321 0.05884 0.3917 0.0
C4909 C 0.69175 0.05614 0.38036 0.0
C4910 C 0.67959 0.0581 0.38425 0.0
C4911 C 0.67891 0.0628 0.39948 0.0
C4912 C 0.69034 0.0655 0.41087 0.0
C4913 C 0.76225 0.12744 0.44262 0.0
C4914 C 0.76605 0.12959 0.45871 0.0
C4915 C 0.75134 0.11293 0.43592 0.0
C4916 C 0.74405 0.10041 0.44522 0.0
C4917 C 0.74687 0.10293 0.46144 0.0
C4918 C 0.75791 0.11736 0.46812 0.0
C4919 C 0.73504 0.08448 0.43789 0.0
C4920 C 0.72283 0.08086 0.42706 0.0
C4921 C 0.73898 0.07304 0.44108 0.0
C4922 C 0.75243 0.07641 0.45149 0.0
C4923 C 0.75074 0.06798 0.46465 0.0
C4924 C 0.76339 0.07133 0.47461 0.0
C4925 C 0.77779 0.08303 0.47147 0.0
C4926 C 0.77959 0.09135 0.45832 0.0
C4927 C 0.76699 0.08801 0.4483 0.0
H4928 H 0.78755 0.08563 0.47922 0.0
H4929 H 0.67073 0.056 0.37546 0.0
H4930 H 0.98473 0.69626 0.33826 0.0
H4931 H 0.95994 0.68555 0.34919 0.0
H4932 H 0.98008 0.68272 0.39321 0.0
H4933 H 0.00446 0.69261 0.38219 0.0
H4934 H 0.95455 0.6584 0.38832 0.0
H4935 H 0.97155 0.71273 0.38441 0.0
H4936 H 0.97999 0.73663 0.3708 0.0
H4937 H 0.93838 0.71496 0.34176 0.0
H4938 H 0.92977 0.69087 0.35509 0.0
H4939 H 0.90891 0.66384 0.44448 0.0
H4940 H 0.92909 0.66934 0.42719 0.0
H4941 H 0.89724 0.65745 0.38734 0.0
H4942 H 0.87689 0.65182 0.40467 0.0
H4943 H 0.92549 0.68626 0.38645 0.0
H4944 H 0.90767 0.63287 0.39454 0.0
H4945 H 0.89998 0.6104 0.41028 0.0
H4946 H 0.94448 0.63213 0.43383 0.0
H4947 H 0.95238 0.65483 0.41839 0.0
C4948 C 0.98378 0.69325 0.35023 0.0
C4949 C 0.99652 0.69527 0.35936 0.0
C4950 C 0.96965 0.68721 0.35651 0.0
C4951 C 0.96812 0.68348 0.37212 0.0
C4952 C 0.98087 0.6854 0.38113 0.0
C4953 C 0.99485 0.69112 0.37481 0.0
C4954 C 0.95344 0.67775 0.37937 0.0
C4955 C 0.94828 0.66458 0.38794 0.0
C4956 C 0.94494 0.6855 0.37862 0.0
C4957 C 0.95011 0.69996 0.3706 0.0
C4958 C 0.96425 0.71304 0.37504 0.0
C4959 C 0.96906 0.72662 0.36739 0.0
C4960 C 0.95975 0.7273 0.35539 0.0
C4961 C 0.94559 0.71441 0.35103 0.0
C4962 C 0.94074 0.70079 0.35863 0.0
C4963 C 0.90621 0.66239 0.43203 0.0
C4964 C 0.89136 0.65741 0.4259 0.0
C4965 C 0.91771 0.66547 0.42218 0.0
C4966 C 0.91462 0.66373 0.406 0.0
C4967 C 0.89982 0.65882 0.3998 0.0
C4968 C 0.88822 0.65553 0.40969 0.0
C4969 C 0.92703 0.66732 0.39571 0.0
C4970 C 0.9317 0.68001 0.38658 0.0
C4971 C 0.93525 0.65933 0.39618 0.0
C4972 C 0.93059 0.6456 0.40537 0.0
C4973 C 0.91579 0.63291 0.40315 0.0
C4974 C 0.9114 0.62012 0.41201 0.0
C4975 C 0.92173 0.61985 0.42306 0.0
C4976 C 0.93649 0.63235 0.42526 0.0
C4977 C 0.94094 0.64518 0.41644 0.0
H4978 H 0.9183 0.60994 0.42991 0.0
H4979 H 0.96348 0.73783 0.34948 0.0
H4980 H 0.38077 0.05049 0.73208 0.0
H4981 H 0.3937 0.03978 0.74729 0.0
H4982 H 0.3669 0.9957 0.72149 0.0
H4983 H 0.35343 0.00633 0.70643 0.0
H4984 H 0.37263 0.99246 0.7524 0.0
H4985 H 0.40116 0.01945 0.71077 0.0
H4986 H 0.41277 0.04112 0.69386 0.0
H4987 H 0.4416 0.07102 0.73266 0.0
H4988 H 0.42994 0.04961 0.74989 0.0
H4989 H 0.43236 0.97472 0.77437 0.0
H4990 H 0.41295 0.97813 0.76005 0.0
H4991 H 0.43061 0.02314 0.7837 0.0
H4992 H 0.44972 0.01968 0.79835 0.0
H4993 H 0.42858 0.02277 0.75093 0.0
H4994 H 0.39799 0.99514 0.79261 0.0
H4995 H 0.38588 0.97295 0.80884 0.0
H4996 H 0.36117 0.94312 0.76834 0.0
H4997 H 0.37331 0.96511 0.75183 0.0
C4998 C 0.37749 0.03846 0.72976 0.0
C4999 C 0.3663 0.02929 0.71792 0.0
C5000 C 0.38488 0.03235 0.73846 0.0
C5001 C 0.38153 0.01707 0.73524 0.0
C5002 C 0.36971 0.00756 0.72406 0.0
C5003 C 0.36207 0.01363 0.71548 0.0
C5004 C 0.3913 0.01169 0.7428 0.0
C5005 C 0.38484 0.9989 0.75188 0.0
C5006 C 0.40723 0.02009 0.74206 0.0
C5007 C 0.4146 0.03293 0.73165 0.0
C5008 C 0.40992 0.03066 0.71572 0.0
C5009 C 0.41651 0.0429 0.70608 0.0
C5010 C 0.4279 0.05744 0.71219 0.0
C5011 C 0.43276 0.05975 0.72795 0.0
C5012 C 0.42618 0.04756 0.73766 0.0
C5013 C 0.43188 0.98519 0.77679 0.0
C5014 C 0.44269 0.99701 0.78739 0.0
C5015 C 0.42082 0.98713 0.76856 0.0
C5016 C 0.42043 0.00091 0.77079 0.0
C5017 C 0.43083 0.01246 0.78176 0.0
C5018 C 0.44178 0.0105 0.79005 0.0
C5019 C 0.40997 0.00391 0.76099 0.0
C5020 C 0.41635 0.01622 0.75134 0.0
C5021 C 0.39402 0.99491 0.76104 0.0
C5022 C 0.38669 0.98173 0.77097 0.0
C5023 C 0.39009 0.98382 0.78715 0.0
C5024 C 0.38319 0.97129 0.7964 0.0
C5025 C 0.3728 0.95663 0.78962 0.0
C5026 C 0.36925 0.95448 0.77357 0.0
C5027 C 0.37612 0.96697 0.76427 0.0
H5028 H 0.36747 0.94694 0.7968 0.0
H5029 H 0.43297 0.06691 0.7047 0.0
H5030 H 0.99049 0.32782 0.76043 0.0
H5031 H 0.99763 0.35287 0.7735 0.0
H5032 H 0.97514 0.36251 0.73552 0.0
H5033 H 0.96823 0.33762 0.72223 0.0
H5034 H 0.00136 0.38772 0.74521 0.0
H5035 H 0.95798 0.34924 0.76917 0.0
H5036 H 0.94348 0.32541 0.78262 0.0
H5037 H 0.97749 0.3436 0.82084 0.0
H5038 H 0.9923 0.36747 0.80751 0.0
H5039 H 0.98661 0.44337 0.7805 0.0
H5040 H 0.98463 0.42003 0.76798 0.0
H5041 H 0.00994 0.41629 0.80747 0.0
H5042 H 0.01172 0.43955 0.82023 0.0
H5043 H 0.98456 0.3887 0.79803 0.0
H5044 H 0.02684 0.42835 0.77457 0.0
H5045 H 0.04061 0.45224 0.76101 0.0
H5046 H 0.00799 0.43191 0.72169 0.0
H5047 H 0.99389 0.40797 0.73511 0.0
C5048 C 0.98717 0.33533 0.7548 0.0
C5049 C 0.9787 0.33071 0.74035 0.0
C5050 C 0.99121 0.34961 0.76232 0.0
C5051 C 0.98671 0.35945 0.7556 0.0
C5052 C 0.9787 0.35508 0.74093 0.0
C5053 C 0.97473 0.34084 0.73337 0.0
C5054 C 0.98987 0.37406 0.76404 0.0
C5055 C 0.99758 0.38792 0.7567 0.0
C5056 C 0.98525 0.37437 0.7792 0.0
C5057 C 0.97633 0.36006 0.78726 0.0
C5058 C 0.96242 0.34811 0.78039 0.0
C5059 C 0.95414 0.3346 0.788 0.0
C5060 C 0.95958 0.33297 0.80256 0.0
C5061 C 0.9733 0.34487 0.80955 0.0
C5062 C 0.98164 0.35839 0.80198 0.0
C5063 C 0.99169 0.43753 0.78655 0.0
C5064 C 0.99929 0.44325 0.80136 0.0
C5065 C 0.99067 0.42429 0.77933 0.0
C5066 C 0.99728 0.41654 0.78673 0.0
C5067 C 0.00483 0.42217 0.80154 0.0
C5068 C 0.00591 0.43548 0.80876 0.0
C5069 C 0.99589 0.40231 0.77911 0.0
C5070 C 0.98849 0.38852 0.7866 0.0
C5071 C 0.00072 0.40206 0.76407 0.0
C5072 C 0.00924 0.4164 0.7559 0.0
C5073 C 0.02254 0.42901 0.76308 0.0
C5074 C 0.03041 0.44256 0.75541 0.0
C5075 C 0.02516 0.4436 0.74051 0.0
C5076 C 0.01204 0.43109 0.73323 0.0
C5077 C 0.00411 0.41752 0.74086 0.0
H5078 H 0.03127 0.4541 0.73459 0.0
H5079 H 0.95315 0.32251 0.80843 0.0
H5080 H 0.6796 0.65723 0.7231 0.0
H5081 H 0.65648 0.64301 0.73641 0.0
H5082 H 0.64198 0.60345 0.7041 0.0
H5083 H 0.66502 0.61781 0.69043 0.0
H5084 H 0.61884 0.60794 0.70925 0.0
H5085 H 0.65677 0.60476 0.7413 0.0
H5086 H 0.68122 0.61468 0.75662 0.0
H5087 H 0.6697 0.64152 0.78725 0.0
H5088 H 0.64525 0.63192 0.77198 0.0
H5089 H 0.56158 0.55476 0.75526 0.0
H5090 H 0.58386 0.56837 0.74043 0.0
H5091 H 0.59911 0.60962 0.77042 0.0
H5092 H 0.57708 0.59597 0.78556 0.0
H5093 H 0.62175 0.60346 0.76617 0.0
H5094 H 0.58375 0.60657 0.73368 0.0
H5095 H 0.55924 0.59623 0.71836 0.0
H5096 H 0.57084 0.56884 0.68861 0.0
H5097 H 0.59535 0.57887 0.7039 0.0
C5098 C 0.67151 0.6455 0.71881 0.0
C5099 C 0.67419 0.63861 0.70576 0.0
C5100 C 0.65831 0.63735 0.72649 0.0
C5101 C 0.64759 0.62206 0.72143 0.0
C5102 C 0.65012 0.61522 0.70825 0.0
C5103 C 0.6633 0.62342 0.70048 0.0
C5104 C 0.63375 0.61329 0.7299 0.0
C5105 C 0.61948 0.60676 0.72166 0.0
C5106 C 0.63456 0.61199 0.74615 0.0
C5107 C 0.64923 0.61773 0.75541 0.0
C5108 C 0.65949 0.61287 0.75123 0.0
C5109 C 0.67335 0.61842 0.75992 0.0
C5110 C 0.67703 0.62875 0.77288 0.0
C5111 C 0.66684 0.63353 0.7772 0.0
C5112 C 0.65298 0.62802 0.76854 0.0
C5113 C 0.56968 0.56673 0.7587 0.0
C5114 C 0.56755 0.57429 0.77158 0.0
C5115 C 0.58235 0.57453 0.75013 0.0
C5116 C 0.5931 0.59006 0.75424 0.0
C5117 C 0.59094 0.59766 0.76702 0.0
C5118 C 0.57827 0.58988 0.77557 0.0
C5119 C 0.60686 0.59825 0.74554 0.0
C5120 C 0.62112 0.60463 0.75375 0.0
C5121 C 0.60603 0.59934 0.72927 0.0
C5122 C 0.59132 0.59336 0.72003 0.0
C5123 C 0.58103 0.59825 0.72395 0.0
C5124 C 0.56714 0.59246 0.71525 0.0
C5125 C 0.56346 0.58185 0.70254 0.0
C5126 C 0.57369 0.57704 0.69847 0.0
C5127 C 0.58759 0.58279 0.70714 0.0
H5128 H 0.55271 0.57738 0.69583 0.0
H5129 H 0.68776 0.63304 0.77959 0.0
H5130 H 0.71601 0.71081 0.65214 0.0
H5131 H 0.70122 0.72266 0.6436 0.0
H5132 H 0.6616 0.68639 0.66232 0.0
H5133 H 0.67637 0.67419 0.6708 0.0
H5134 H 0.65522 0.69601 0.63372 0.0
H5135 H 0.68072 0.71852 0.68356 0.0
H5136 H 0.70277 0.72981 0.70282 0.0
H5137 H 0.72671 0.76788 0.67454 0.0
H5138 H 0.70493 0.75665 0.65495 0.0
H5139 H 0.62369 0.74692 0.6275 0.0
H5140 H 0.63167 0.72969 0.63896 0.0
H5141 H 0.67671 0.7581 0.62439 0.0
H5142 H 0.66883 0.77496 0.61255 0.0
H5143 H 0.67666 0.75025 0.6549 0.0
H5144 H 0.65308 0.72593 0.60381 0.0
H5145 H 0.63184 0.71434 0.58359 0.0
H5146 H 0.60453 0.67981 0.6141 0.0
H5147 H 0.62556 0.69136 0.6346 0.0
C5148 C 0.70411 0.70521 0.65432 0.0
C5149 C 0.69741 0.69168 0.66236 0.0
C5150 C 0.69567 0.71201 0.64942 0.0
C5151 C 0.68042 0.70557 0.65263 0.0
C5152 C 0.6734 0.69157 0.65983 0.0
C5153 C 0.68185 0.68464 0.66466 0.0
C5154 C 0.67237 0.71423 0.64936 0.0
C5155 C 0.65967 0.70774 0.6386 0.0
C5156 C 0.67826 0.72957 0.65569 0.0
C5157 C 0.69119 0.73669 0.66774 0.0
C5158 C 0.6907 0.72927 0.68142 0.0
C5159 C 0.70316 0.73565 0.69239 0.0
C5160 C 0.71613 0.74954 0.6899 0.0
C5161 C 0.71665 0.75711 0.67646 0.0
C5162 C 0.70424 0.75075 0.66542 0.0
C5163 C 0.63528 0.74947 0.62671 0.0
C5164 C 0.64564 0.76244 0.61921 0.0
C5165 C 0.63982 0.73965 0.6333 0.0
C5166 C 0.65478 0.74266 0.63253 0.0
C5167 C 0.66515 0.75567 0.62526 0.0
C5168 C 0.66062 0.76537 0.61858 0.0
C5169 C 0.6598 0.73221 0.63889 0.0
C5170 C 0.67196 0.73839 0.65029 0.0
C5171 C 0.65339 0.71662 0.63315 0.0
C5172 C 0.64081 0.70962 0.6208 0.0
C5173 C 0.6425 0.71595 0.60625 0.0
C5174 C 0.63051 0.70937 0.59473 0.0
C5175 C 0.61682 0.69638 0.59758 0.0
C5176 C 0.61512 0.6899 0.61193 0.0
C5177 C 0.62707 0.69645 0.6235 0.0
H5178 H 0.60755 0.6913 0.58865 0.0
H5179 H 0.72578 0.75444 0.69839 0.0
H5180 H 0.33176 0.99469 0.65566 0.0
H5181 H 0.31643 0.96901 0.64227 0.0
H5182 H 0.27656 0.96483 0.66221 0.0
H5183 H 0.2919 0.99005 0.67611 0.0
H5184 H 0.2753 0.93866 0.66255 0.0
H5185 H 0.28642 0.97592 0.62355 0.0
H5186 H 0.30329 0.99749 0.60829 0.0
H5187 H 0.32329 0.97117 0.59146 0.0
H5188 H 0.30664 0.94951 0.60676 0.0
H5189 H 0.22317 0.89481 0.59052 0.0
H5190 H 0.24414 0.91866 0.60315 0.0
H5191 H 0.26001 0.89219 0.62829 0.0
H5192 H 0.23889 0.86822 0.61584 0.0
H5193 H 0.27516 0.93266 0.60526 0.0
H5194 H 0.27038 0.90895 0.66576 0.0
H5195 H 0.25149 0.88813 0.68044 0.0
H5196 H 0.21541 0.88898 0.65339 0.0
H5197 H 0.23408 0.90994 0.63875 0.0
C5198 C 0.31974 0.98822 0.65724 0.0
C5199 C 0.313 0.99439 0.66687 0.0
C5200 C 0.31098 0.97357 0.64953 0.0
C5201 C 0.29527 0.96505 0.65102 0.0
C5202 C 0.28864 0.97113 0.66088 0.0
C5203 C 0.29742 0.98559 0.6688 0.0
C5204 C 0.28552 0.94999 0.64206 0.0
C5205 C 0.2754 0.93735 0.65004 0.0
C5206 C 0.28551 0.94822 0.6257 0.0
C5207 C 0.29541 0.96118 0.61642 0.0
C5208 C 0.29448 0.97478 0.61666 0.0
C5209 C 0.30399 0.98701 0.608 0.0
C5210 C 0.31439 0.98572 0.59895 0.0
C5211 C 0.31526 0.97217 0.5985 0.0
C5212 C 0.30578 0.95991 0.60715 0.0
C5213 C 0.2312 0.89409 0.59865 0.0
C5214 C 0.22932 0.87967 0.60233 0.0
C5215 C 0.24324 0.90772 0.60575 0.0
C5216 C 0.25354 0.90717 0.61674 0.0
C5217 C 0.25212 0.89283 0.6199 0.0
C5218 C 0.2401 0.87918 0.61274 0.0
C5219 C 0.26491 0.92153 0.62576 0.0
C5220 C 0.27532 0.93396 0.6178 0.0
C5221 C 0.26494 0.92325 0.64209 0.0
C5222 C 0.25363 0.91086 0.65104 0.0
C5223 C 0.25842 0.90471 0.66299 0.0
C5224 C 0.24775 0.89289 0.6713 0.0
C5225 C 0.23226 0.88719 0.6678 0.0
C5226 C 0.22741 0.89336 0.65605 0.0
C5227 C 0.23803 0.9052 0.64774 0.0
H5228 H 0.22402 0.87802 0.67423 0.0
H5229 H 0.32175 0.9952 0.59226 0.0
H5230 H 0.00917 0.31934 0.70619 0.0
H5231 H 0.03284 0.33127 0.69324 0.0
H5232 H 0.02619 0.2861 0.68003 0.0
H5233 H 0.00291 0.27417 0.69337 0.0
H5234 H 0.05428 0.30404 0.68907 0.0
H5235 H 0.01835 0.30864 0.65439 0.0
H5236 H 0.9996 0.31655 0.64697 0.0
H5237 H 0.033 0.36409 0.65835 0.0
H5238 H 0.05191 0.35643 0.66602 0.0
H5239 H 0.0974 0.31711 0.62413 0.0
H5240 H 0.07639 0.30975 0.64058 0.0
H5241 H 0.09519 0.35724 0.6577 0.0
H5242 H 0.11668 0.36472 0.64167 0.0
H5243 H 0.06294 0.34106 0.64867 0.0
H5244 H 0.09951 0.33547 0.68081 0.0
H5245 H 0.11776 0.32652 0.6866 0.0
H5246 H 0.08218 0.27938 0.67827 0.0
H5247 H 0.06375 0.28806 0.6722 0.0
C5248 C 0.01278 0.31196 0.70054 0.0
C5249 C 0.00412 0.29579 0.70078 0.0
C5250 C 0.02629 0.31879 0.69309 0.0
C5251 C 0.03122 0.30959 0.68545 0.0
C5252 C 0.02266 0.29347 0.68585 0.0
C5253 C 0.00932 0.28665 0.69348 0.0
C5254 C 0.04523 0.31658 0.67697 0.0
C5255 C 0.05608 0.31204 0.68016 0.0
C5256 C 0.04783 0.32733 0.66559 0.0
C5257 C 0.03649 0.33195 0.66095 0.0
C5258 C 0.02166 0.32077 0.65542 0.0
C5259 C 0.01101 0.32521 0.65115 0.0
C5260 C 0.01509 0.34081 0.65223 0.0
C5261 C 0.02985 0.35201 0.65754 0.0
C5262 C 0.04054 0.34763 0.66185 0.0
C5263 C 0.09724 0.326 0.63154 0.0
C5264 C 0.10887 0.3415 0.63168 0.0
C5265 C 0.08515 0.32178 0.64085 0.0
C5266 C 0.08433 0.33294 0.65043 0.0
C5267 C 0.09565 0.34847 0.65036 0.0
C5268 C 0.10788 0.35271 0.64114 0.0
C5269 C 0.07167 0.3282 0.66059 0.0
C5270 C 0.06115 0.33319 0.65772 0.0
C5271 C 0.06924 0.31769 0.67212 0.0
C5272 C 0.08027 0.31243 0.67594 0.0
C5273 C 0.09559 0.3232 0.68011 0.0
C5274 C 0.10597 0.31817 0.68345 0.0
C5275 C 0.10114 0.30239 0.68278 0.0
C5276 C 0.08591 0.2916 0.67879 0.0
C5277 C 0.07549 0.29657 0.67541 0.0
H5278 H 0.10919 0.29852 0.68537 0.0
H5279 H 0.00683 0.34422 0.64892 0.0
H5280 H 0.31985 0.32876 0.66417 0.0
H5281 H 0.30495 0.33881 0.65147 0.0
H5282 H 0.28078 0.33314 0.69266 0.0
H5283 H 0.29533 0.32244 0.70525 0.0
H5284 H 0.26159 0.3233 0.66881 0.0
H5285 H 0.30821 0.36967 0.68137 0.0
H5286 H 0.33585 0.3873 0.68302 0.0
H5287 H 0.33526 0.38554 0.63325 0.0
H5288 H 0.30763 0.36772 0.63129 0.0
H5289 H 0.22712 0.36534 0.63916 0.0
H5290 H 0.2447 0.36057 0.65527 0.0
H5291 H 0.26202 0.35144 0.61401 0.0
H5292 H 0.24429 0.35599 0.59782 0.0
H5293 H 0.28483 0.37074 0.63984 0.0
H5294 H 0.23771 0.32219 0.62861 0.0
H5295 H 0.20993 0.30577 0.62805 0.0
H5296 H 0.2118 0.31354 0.67752 0.0
H5297 H 0.2396 0.33022 0.67833 0.0
C5298 C 0.31144 0.32976 0.67059 0.0
C5299 C 0.30879 0.32485 0.68573 0.0
C5300 C 0.30298 0.33561 0.66333 0.0
C5301 C 0.2919 0.33702 0.67118 0.0
C5302 C 0.28929 0.33221 0.68637 0.0
C5303 C 0.29763 0.32613 0.69357 0.0
C5304 C 0.28261 0.34283 0.66319 0.0
C5305 C 0.26673 0.33384 0.66275 0.0
C5306 C 0.28923 0.3565 0.65508 0.0
C5307 C 0.30585 0.36725 0.65619 0.0
C5308 C 0.31399 0.37295 0.67077 0.0
C5309 C 0.32965 0.38299 0.67176 0.0
C5310 C 0.33731 0.38751 0.65825 0.0
C5311 C 0.32931 0.38202 0.64371 0.0
C5312 C 0.31364 0.37196 0.64265 0.0
C5313 C 0.23489 0.36261 0.63355 0.0
C5314 C 0.23441 0.36104 0.61727 0.0
C5315 C 0.24486 0.35983 0.64275 0.0
C5316 C 0.2546 0.35563 0.6358 0.0
C5317 C 0.25461 0.35472 0.61955 0.0
C5318 C 0.24446 0.35725 0.61034 0.0
C5319 C 0.26401 0.35111 0.64541 0.0
C5320 C 0.27982 0.36032 0.6461 0.0
C5321 C 0.25737 0.3378 0.65395 0.0
C5322 C 0.2407 0.32759 0.6535 0.0
C5323 C 0.23218 0.3205 0.63934 0.0
C5324 C 0.21644 0.31113 0.63898 0.0
C5325 C 0.2091 0.30865 0.65273 0.0
C5326 C 0.2175 0.31549 0.66687 0.0
C5327 C 0.23325 0.3249 0.66729 0.0
H5328 H 0.19691 0.3014 0.65243 0.0
H5329 H 0.34944 0.39529 0.65904 0.0
H5330 H 0.671 0.99765 0.65621 0.0
H5331 H 0.65788 0.97197 0.64243 0.0
H5332 H 0.69618 0.98475 0.61506 0.0
H5333 H 0.70955 0.01028 0.62907 0.0
H5334 H 0.66408 0.96615 0.59865 0.0
H5335 H 0.69758 0.96759 0.64176 0.0
H5336 H 0.70735 0.97338 0.66927 0.0
H5337 H 0.66284 0.94226 0.68302 0.0
H5338 H 0.65276 0.93651 0.65555 0.0
H5339 H 0.65883 0.89621 0.57092 0.0
H5340 H 0.66602 0.92202 0.58157 0.0
H5341 H 0.63636 0.90246 0.61846 0.0
H5342 H 0.62995 0.87659 0.60852 0.0
H5343 H 0.66174 0.92459 0.63028 0.0
H5344 H 0.62843 0.9203 0.58728 0.0
H5345 H 0.61796 0.9149 0.56 0.0
H5346 H 0.66026 0.95099 0.54608 0.0
H5347 H 0.67106 0.95649 0.57325 0.0
C5348 C 0.6765 0.99508 0.64706 0.0
C5349 C 0.69133 0.00591 0.64376 0.0
C5350 C 0.669 0.98044 0.63922 0.0
C5351 C 0.6761 0.97654 0.62777 0.0
C5352 C 0.69052 0.98762 0.62382 0.0
C5353 C 0.69816 0.00213 0.63189 0.0
C5354 C 0.6692 0.96047 0.62108 0.0
C5355 C 0.6636 0.95702 0.60547 0.0
C5356 C 0.66829 0.9486 0.63017 0.0
C5357 C 0.67439 0.95178 0.64664 0.0
C5358 C 0.68985 0.96209 0.65066 0.0
C5359 C 0.69545 0.96535 0.66624 0.0
C5360 C 0.68571 0.95823 0.6779 0.0
C5361 C 0.67037 0.94779 0.67398 0.0
C5362 C 0.6647 0.94453 0.65841 0.0
C5363 C 0.65387 0.89736 0.58135 0.0
C5364 C 0.64387 0.88426 0.5889 0.0
C5365 C 0.65782 0.91217 0.5873 0.0
C5366 C 0.65158 0.91424 0.60073 0.0
C5367 C 0.64129 0.90118 0.60806 0.0
C5368 C 0.6375 0.88636 0.60225 0.0
C5369 C 0.65656 0.93004 0.60764 0.0
C5370 C 0.66193 0.93354 0.62338 0.0
C5371 C 0.65709 0.94189 0.59865 0.0
C5372 C 0.65059 0.93873 0.5823 0.0
C5373 C 0.63553 0.92703 0.57839 0.0
C5374 C 0.62953 0.92396 0.56295 0.0
C5375 C 0.63845 0.93257 0.55131 0.0
C5376 C 0.65337 0.94432 0.5551 0.0
C5377 C 0.65943 0.94744 0.57053 0.0
H5378 H 0.63379 0.93017 0.53936 0.0
H5379 H 0.69006 0.96078 0.68995 0.0
H5380 H 0.01203 0.71683 0.7137 0.0
H5381 H 0.03711 0.72969 0.70335 0.0
H5382 H 0.01742 0.70402 0.65917 0.0
H5383 H 0.99266 0.69079 0.66959 0.0
H5384 H 0.04286 0.70514 0.66508 0.0
H5385 H 0.02625 0.74294 0.66723 0.0
H5386 H 0.01767 0.75948 0.67999 0.0
H5387 H 0.05865 0.78155 0.71001 0.0
H5388 H 0.06739 0.765 0.69753 0.0
H5389 H 0.08881 0.7529 0.60889 0.0
H5390 H 0.06876 0.73872 0.62621 0.0
H5391 H 0.10056 0.7618 0.66602 0.0
H5392 H 0.12079 0.77594 0.64865 0.0
H5393 H 0.0723 0.76234 0.66634 0.0
H5394 H 0.09005 0.72629 0.6597 0.0
H5395 H 0.0979 0.71024 0.64478 0.0
H5396 H 0.05362 0.6852 0.62082 0.0
H5397 H 0.04556 0.70125 0.63544 0.0
C5398 C 0.01312 0.7139 0.70182 0.0
C5399 C 1.00038 0.70283 0.69245 0.0
C5400 C 0.02743 0.72129 0.69589 0.0
C5401 C 0.02916 0.71798 0.6804 0.0
C5402 C 0.01645 0.70675 0.67116 0.0
C5403 C 0.00225 0.69922 0.67713 0.0
C5404 C 0.04402 0.72634 0.67347 0.0
C5405 C 0.04925 0.71765 0.66533 0.0
C5406 C 0.05262 0.74268 0.67408 0.0
C5407 C 0.04738 0.75261 0.68159 0.0
C5408 C 0.03337 0.75124 0.67663 0.0
C5409 C 0.02849 0.76062 0.6838 0.0
C5410 C 0.03758 0.77152 0.69584 0.0
C5411 C 0.0516 0.77308 0.70071 0.0
C5412 C 0.05653 0.7637 0.69359 0.0
C5413 C 0.09153 0.75486 0.62134 0.0
C5414 C 0.1063 0.76549 0.62747 0.0
C5415 C 0.08011 0.74673 0.6312 0.0
C5416 C 0.08322 0.74919 0.64737 0.0
C5417 C 0.09798 0.75974 0.65356 0.0
C5418 C 0.1095 0.76772 0.64367 0.0
C5419 C 0.07077 0.74111 0.65764 0.0
C5420 C 0.06603 0.74984 0.66638 0.0
C5421 C 0.06246 0.72481 0.65735 0.0
C5422 C 0.06723 0.71505 0.64861 0.0
C5423 C 0.08202 0.71744 0.65117 0.0
C5424 C 0.0865 0.70833 0.64278 0.0
C5425 C 0.07628 0.69673 0.63184 0.0
C5426 C 0.06153 0.69419 0.6293 0.0
C5427 C 0.05699 0.70328 0.63765 0.0
H5428 H 0.07977 0.68969 0.62535 0.0
H5429 H 0.03379 0.77878 0.70137 0.0
H5430 H 0.9372 0.62548 0.73031 0.0
H5431 H 0.94611 0.61009 0.74371 0.0
H5432 H 0.99227 0.6473 0.74389 0.0
H5433 H 0.98349 0.66287 0.73033 0.0
H5434 H 0.98935 0.61921 0.73498 0.0
H5435 H 0.97558 0.64086 0.77655 0.0
H5436 H 0.95945 0.64838 0.79055 0.0
H5437 H 0.92555 0.60068 0.79194 0.0
H5438 H 0.94137 0.59286 0.77765 0.0
H5439 H 0.01407 0.58151 0.78963 0.0
H5440 H 0.0094 0.60046 0.77694 0.0
H5441 H 0.96176 0.56698 0.77004 0.0
H5442 H 0.96633 0.54782 0.7822 0.0
H5443 H 0.96816 0.59587 0.784 0.0
H5444 H 0.98195 0.57499 0.74021 0.0
H5445 H 0.99869 0.56822 0.72628 0.0
H5446 H 0.03376 0.61583 0.73012 0.0
H5447 H 0.01729 0.62285 0.74428 0.0
C5448 C 0.94926 0.63047 0.73321 0.0
C5449 C 0.95962 0.64546 0.72927 0.0
C5450 C 0.95432 0.62165 0.74093 0.0
C5451 C 0.96983 0.62763 0.74491 0.0
C5452 C 0.98025 0.64252 0.74093 0.0
C5453 C 0.97519 0.65141 0.73325 0.0
C5454 C 0.97502 0.61811 0.75305 0.0
C5455 C 0.98496 0.61433 0.74585 0.0
C5456 C 0.96916 0.61167 0.76716 0.0
C5457 C 0.95963 0.61627 0.7759 0.0
C5458 C 0.96464 0.63197 0.77973 0.0
C5459 C 0.95555 0.63629 0.78774 0.0
C5460 C 0.94147 0.62503 0.79212 0.0
C5461 C 0.93646 0.6094 0.78853 0.0
C5462 C 0.94549 0.60501 0.78048 0.0
C5463 C 0.00264 0.57807 0.78513 0.0
C5464 C 0.99056 0.56315 0.78699 0.0
C5465 C 1.0 0.58895 0.77799 0.0
C5466 C 0.98524 0.5851 0.77264 0.0
C5467 C 0.97321 0.57018 0.77423 0.0
C5468 C 0.97585 0.55927 0.78122 0.0
C5469 C 0.98217 0.59669 0.76573 0.0
C5470 C 0.97267 0.60089 0.77321 0.0
C5471 C 0.98856 0.60363 0.752 0.0
C5472 C 0.99846 0.59941 0.74347 0.0
C5473 C 0.99328 0.584 0.73822 0.0
C5474 C 0.00271 0.58012 0.73025 0.0
C5475 C 0.0173 0.59158 0.72736 0.0
C5476 C 0.02247 0.60696 0.73239 0.0
C5477 C 0.01309 0.61089 0.74038 0.0
H5478 H 0.02458 0.58856 0.72118 0.0
H5479 H 0.93445 0.62841 0.79832 0.0
H5480 H 0.38449 0.35701 0.71131 0.0
H5481 H 0.39922 0.38213 0.72566 0.0
H5482 H 0.36777 0.36645 0.76157 0.0
H5483 H 0.35235 0.34164 0.74648 0.0
H5484 H 0.37623 0.39453 0.75931 0.0
H5485 H 0.40401 0.36791 0.76428 0.0
H5486 H 0.41628 0.35321 0.75565 0.0
H5487 H 0.44666 0.39121 0.73022 0.0
H5488 H 0.43444 0.40607 0.73852 0.0
H5489 H 0.43547 0.45251 0.81537 0.0
H5490 H 0.4169 0.42761 0.80178 0.0
H5491 H 0.43278 0.44617 0.75784 0.0
H5492 H 0.45106 0.47109 0.77129 0.0
H5493 H 0.43194 0.41624 0.76628 0.0
H5494 H 0.40203 0.44218 0.7628 0.0
H5495 H 0.3898 0.45586 0.77423 0.0
H5496 H 0.36364 0.41723 0.80111 0.0
H5497 H 0.37588 0.40342 0.78999 0.0
C5498 C 0.38067 0.35901 0.72219 0.0
C5499 C 0.36739 0.34743 0.72789 0.0
C5500 C 0.38916 0.37332 0.73048 0.0
C5501 C 0.38494 0.37608 0.745 0.0
C5502 C 0.37136 0.36462 0.75047 0.0
C5503 C 0.36257 0.35045 0.74189 0.0
C5504 C 0.39485 0.39079 0.75452 0.0
C5505 C 0.38837 0.39912 0.76098 0.0
C5506 C 0.41075 0.39689 0.75685 0.0
C5507 C 0.41823 0.38805 0.75193 0.0
C5508 C 0.41325 0.3731 0.75678 0.0
C5509 C 0.4202 0.36474 0.75195 0.0
C5510 C 0.43221 0.37126 0.74237 0.0
C5511 C 0.43734 0.38617 0.73763 0.0
C5512 C 0.43042 0.39457 0.74241 0.0
C5513 C 0.43483 0.45127 0.80281 0.0
C5514 C 0.4446 0.46367 0.79434 0.0
C5515 C 0.42425 0.43712 0.79509 0.0
C5516 C 0.42351 0.43515 0.77885 0.0
C5517 C 0.43317 0.44755 0.77039 0.0
C5518 C 0.44353 0.46175 0.77805 0.0
C5519 C 0.4133 0.41992 0.77066 0.0
C5520 C 0.41976 0.41151 0.76458 0.0
C5521 C 0.39741 0.41357 0.76911 0.0
C5522 C 0.39 0.42185 0.7757 0.0
C5523 C 0.39378 0.43667 0.77126 0.0
C5524 C 0.38682 0.44443 0.77766 0.0
C5525 C 0.37599 0.43744 0.78843 0.0
C5526 C 0.37205 0.42265 0.79279 0.0
C5527 C 0.37899 0.41484 0.78643 0.0
H5528 H 0.37061 0.44346 0.79337 0.0
H5529 H 0.43757 0.36477 0.73863 0.0
H5530 H 0.65278 0.03697 0.67421 0.0
H5531 H 0.62974 0.02934 0.68774 0.0
H5532 H 0.65017 0.02003 0.72784 0.0
H5533 H 0.67284 0.02696 0.71415 0.0
H5534 H 0.62255 0.99873 0.72399 0.0
H5535 H 0.64741 0.0541 0.72499 0.0
H5536 H 0.65907 0.07956 0.71394 0.0
H5537 H 0.61709 0.06678 0.68785 0.0
H5538 H 0.60523 0.04116 0.69861 0.0
H5539 H 0.58077 0.0069 0.78398 0.0
H5540 H 0.60077 0.01171 0.76656 0.0
H5541 H 0.57045 0.00602 0.72709 0.0
H5542 H 0.55027 0.00094 0.74448 0.0
H5543 H 0.60105 0.03365 0.72876 0.0
H5544 H 0.57616 0.97839 0.73081 0.0
H5545 H 0.56551 0.95412 0.74406 0.0
H5546 H 0.60924 0.96841 0.767 0.0
H5547 H 0.62011 0.99288 0.75406 0.0
C5548 C 0.6523 0.03323 0.68589 0.0
C5549 C 0.66463 0.0326 0.69313 0.0
C5550 C 0.63916 0.02896 0.69366 0.0
C5551 C 0.63825 0.02432 0.70894 0.0
C5552 C 0.65053 0.02353 0.71606 0.0
C5553 C 0.66353 0.02754 0.70823 0.0
C5554 C 0.62464 0.02037 0.71766 0.0
C5555 C 0.61797 0.00647 0.7251 0.0
C5556 C 0.6184 0.03027 0.71895 0.0
C5557 C 0.62549 0.04566 0.71246 0.0
C5558 C 0.64071 0.05668 0.7168 0.0
C5559 C 0.64734 0.07114 0.71061 0.0
C5560 C 0.63884 0.07477 0.70016 0.0
C5561 C 0.62367 0.06395 0.69592 0.0
C5562 C 0.61698 0.04946 0.70207 0.0
C5563 C 0.57839 0.00667 0.77158 0.0
C5564 C 0.564 0.00354 0.76554 0.0
C5565 C 0.58978 0.00937 0.76167 0.0
C5566 C 0.58704 0.00918 0.74556 0.0
C5567 C 0.57274 0.0062 0.73949 0.0
C5568 C 0.56124 0.00322 0.7494 0.0
C5569 C 0.59924 0.01221 0.73516 0.0
C5570 C 0.60561 0.02591 0.72745 0.0
C5571 C 0.6054 0.00229 0.73387 0.0
C5572 C 0.59892 0.98753 0.74156 0.0
C5573 C 0.58348 0.97641 0.73878 0.0
C5574 C 0.57741 0.96261 0.74621 0.0
C5575 C 0.58668 0.95974 0.75639 0.0
C5576 C 0.60206 0.97065 0.75912 0.0
C5577 C 0.60819 0.98449 0.75173 0.0
H5578 H 0.58196 0.94904 0.76214 0.0
H5579 H 0.64399 0.08597 0.69538 0.0
loop_
_geom_bond_atom_site_label_1
_geom_bond_atom_site_label_2
_geom_bond_distance
_geom_bond_site_symmetry_2
_ccdc_geom_bond_type
Mn0 O5 2.095 1_655 S
Mn0 O15 2.162 . S
Mn0 O16 2.297 . S
Mn0 O24 2.385 . S
Mn0 O25 2.209 1_655 S
Mn0 O26 2.094 . S
Mn1 O6 2.121 . S
Mn1 N8 2.257 . S
Mn1 N17 2.282 . S
Mn1 O25 2.215 . S
Mn1 O27 2.117 . S
C2 O24 1.236 1_455 S
C2 O25 1.289 . S
C3 O15 1.281 . S
C3 O16 1.236 . S
C4 O26 1.240 1_455 S
C4 O27 1.264 . S
O5 Mn0 2.095 1_455 S
O5 C14 1.250 . S
O6 Mn1 2.121 . S
O6 C14 1.258 . S
C7 N8 1.326 . S
C7 C11 1.494 . S
C7 H13 0.929 . S
N8 Mn1 2.257 . S
N8 C7 1.326 . S
N8 C12 1.362 . S
C9 C10 1.258 . S
C9 C12 1.431 1_556 S
C9 C29 1.449 . S
C10 C9 1.258 . S
C10 C11 1.457 1_556 S
C10 H30 0.931 . S
C11 C7 1.494 . S
C11 C10 1.457 1_554 S
C11 H31 0.919 1_554 S
C12 N8 1.362 . S
C12 C9 1.431 1_554 S
C12 C22 1.476 . S
H13 C7 0.929 . S
C14 O5 1.250 . S
C14 O6 1.258 . S
O15 Mn0 2.162 . S
O15 C3 1.281 . S
O16 Mn0 2.297 . S
O16 C3 1.236 . S
N17 Mn1 2.282 . S
N17 C18 1.328 . S
N17 C22 1.318 . S
C18 N17 1.328 . S
C18 C19 1.457 . S
C18 H23 0.929 . S
C19 C18 1.457 . S
C19 C20 1.291 . S
C19 H32 0.931 . S
C20 C19 1.291 . S
C20 C21 1.373 . S
C20 H33 0.929 . S
C21 C20 1.373 . S
C21 C22 1.396 . S
C21 C28 1.403 1_554 S
C22 C12 1.476 . S
C22 N17 1.318 . S
C22 C21 1.396 . S
H23 C18 0.929 . S
O24 Mn0 2.385 . S
O24 C2 1.236 1_655 S
O25 Mn0 2.209 1_455 S
O25 Mn1 2.215 . S
O25 C2 1.289 . S
O26 Mn0 2.094 . S
O26 C4 1.240 1_655 S
O27 Mn1 2.117 . S
O27 C4 1.264 . S
C28 C21 1.403 1_556 S
C28 C29 1.399 . S
C28 H34 0.929 . S
C29 C9 1.449 . S
C29 C28 1.399 . S
C29 H35 0.930 . S
H30 C10 0.931 . S
H31 C11 0.919 1_556 S
H32 C19 0.931 . S
H33 C20 0.929 . S
H34 C28 0.929 . S
H35 C29 0.930 . S
Mn36 O41 2.095 . S
Mn36 O51 2.162 . S
Mn36 O52 2.297 . S
Mn36 O60 2.385 . S
Mn36 O61 2.209 . S
Mn36 O62 2.094 . S
Mn37 O42 2.121 . S
Mn37 N44 2.257 . S
Mn37 N53 2.282 . S
Mn37 O61 2.215 . S
Mn37 O63 2.117 . S
C38 O60 1.234 . S
C38 O61 1.283 . S
C39 O51 1.281 . S
C39 O52 1.236 . S
C40 O62 1.240 . S
C40 O63 1.264 . S
O41 Mn36 2.095 . S
O41 C50 1.250 . S
O42 Mn37 2.121 . S
O42 C50 1.258 . S
C43 N44 1.326 . S
C43 C47 1.460 . S
C43 H49 0.929 . S
N44 Mn37 2.257 . S
N44 C43 1.326 . S
N44 C48 1.362 . S
C45 C46 1.258 . S
C45 C48 1.431 . S
C45 C65 1.449 . S
C46 C45 1.258 . S
C46 C47 1.477 . S
C46 H66 0.931 . S
C47 C43 1.460 . S
C47 C46 1.477 . S
C47 H67 0.930 . S
C48 N44 1.362 . S
C48 C45 1.431 . S
C48 C58 1.476 . S
H49 C43 0.929 . S
C50 O41 1.250 . S
C50 O42 1.258 . S
O51 Mn36 2.162 . S
O51 C39 1.281 . S
O52 Mn36 2.297 . S
O52 C39 1.236 . S
N53 Mn37 2.282 . S
N53 C54 1.328 . S
N53 C58 1.318 . S
C54 N53 1.328 . S
C54 C55 1.457 . S
C54 H59 0.929 . S
C55 C54 1.457 . S
C55 C56 1.291 . S
C55 H68 0.931 . S
C56 C55 1.291 . S
C56 C57 1.373 . S
C56 H69 0.929 . S
C57 C56 1.373 . S
C57 C58 1.396 . S
C57 C64 1.403 . S
C58 C48 1.476 . S
C58 N53 1.318 . S
C58 C57 1.396 . S
H59 C54 0.929 . S
O60 Mn36 2.385 . S
O60 C38 1.234 . S
O61 Mn36 2.209 . S
O61 Mn37 2.215 . S
O61 C38 1.283 . S
O62 Mn36 2.094 . S
O62 C40 1.240 . S
O63 Mn37 2.117 . S
O63 C40 1.264 . S
C64 C57 1.403 . S
C64 C65 1.399 . S
C64 H70 0.929 . S
C65 C45 1.449 . S
C65 C64 1.399 . S
C65 H71 0.930 . S
H66 C46 0.931 . S
H67 C47 0.930 . S
H68 C55 0.931 . S
H69 C56 0.929 . S
H70 C64 0.929 . S
H71 C65 0.930 . S
Mn72 O77 2.095 1_565 S
Mn72 O87 2.162 . S
Mn72 O88 2.297 . S
Mn72 O96 2.385 . S
Mn72 O97 2.209 1_565 S
Mn72 O98 2.094 . S
Mn73 O78 2.121 . S
Mn73 N80 2.257 . S
Mn73 N89 2.282 . S
Mn73 O97 2.215 . S
Mn73 O99 2.117 . S
C74 O96 1.234 1_545 S
C74 O97 1.283 . S
C75 O87 1.281 . S
C75 O88 1.236 . S
C76 O98 1.240 1_556 S
C76 O99 1.264 1_566 S
O77 Mn72 2.095 1_545 S
O77 C86 1.250 . S
O78 Mn73 2.121 . S
O78 C86 1.258 . S
C79 N80 1.326 . S
C79 C83 1.460 . S
C79 H85 0.929 . S
N80 Mn73 2.257 . S
N80 C79 1.326 . S
N80 C84 1.362 . S
C81 C82 1.258 . S
C81 C84 1.431 . S
C81 C101 1.449 . S
C82 C81 1.258 . S
C82 C83 1.477 . S
C82 H102 0.931 . S
C83 C79 1.460 . S
C83 C82 1.477 . S
C83 H103 0.930 . S
C84 N80 1.362 . S
C84 C81 1.431 . S
C84 C94 1.476 . S
H85 C79 0.929 . S
C86 O77 1.250 . S
C86 O78 1.258 . S
O87 Mn72 2.162 . S
O87 C75 1.281 . S
O88 Mn72 2.297 . S
O88 C75 1.236 . S
N89 Mn73 2.282 . S
N89 C90 1.328 . S
N89 C94 1.318 . S
C90 N89 1.328 . S
C90 C91 1.457 . S
C90 H95 0.929 . S
C91 C90 1.457 . S
C91 C92 1.291 . S
C91 H104 0.931 . S
C92 C91 1.291 . S
C92 C93 1.373 . S
C92 H105 0.929 . S
C93 C92 1.373 . S
C93 C94 1.396 . S
C93 C100 1.403 . S
C94 C84 1.476 . S
C94 N89 1.318 . S
C94 C93 1.396 . S
H95 C90 0.929 . S
O96 Mn72 2.385 . S
O96 C74 1.234 1_565 S
O97 Mn72 2.209 1_545 S
O97 Mn73 2.215 . S
O97 C74 1.283 . S
O98 Mn72 2.094 . S
O98 C76 1.240 1_554 S
O99 Mn73 2.117 . S
O99 C76 1.264 1_544 S
C100 C93 1.403 . S
C100 C101 1.399 . S
C100 H106 0.929 . S
C101 C81 1.449 . S
C101 C100 1.399 . S
C101 H107 0.930 . S
H102 C82 0.931 . S
H103 C83 0.930 . S
H104 C91 0.931 . S
H105 C92 0.929 . S
H106 C100 0.929 . S
H107 C101 0.930 . S
Mn108 O113 2.095 1_655 S
Mn108 O123 2.162 . S
Mn108 O124 2.297 . S
Mn108 O132 2.385 . S
Mn108 O133 2.209 1_655 S
Mn108 O134 2.094 . S
Mn109 O114 2.121 . S
Mn109 N116 2.257 . S
Mn109 N125 2.282 . S
Mn109 O133 2.215 . S
Mn109 O135 2.117 . S
C110 O132 1.234 1_455 S
C110 O133 1.283 . S
C111 O123 1.281 . S
C111 O124 1.236 . S
C112 O134 1.240 . S
C112 O135 1.264 1_655 S
O113 Mn108 2.095 1_455 S
O113 C122 1.250 . S
O114 Mn109 2.121 . S
O114 C122 1.258 . S
C115 N116 1.326 . S
C115 C119 1.460 . S
C115 H121 0.929 . S
N116 Mn109 2.257 . S
N116 C115 1.326 . S
N116 C120 1.362 . S
C117 C118 1.258 . S
C117 C120 1.431 . S
C117 C137 1.449 . S
C118 C117 1.258 . S
C118 C119 1.477 . S
C118 H138 0.931 . S
C119 C115 1.460 . S
C119 C118 1.477 . S
C119 H139 0.930 . S
C120 N116 1.362 . S
C120 C117 1.431 . S
C120 C130 1.476 . S
H121 C115 0.929 . S
C122 O113 1.250 . S
C122 O114 1.258 . S
O123 Mn108 2.162 . S
O123 C111 1.281 . S
O124 Mn108 2.297 . S
O124 C111 1.236 . S
N125 Mn109 2.282 . S
N125 C126 1.328 . S
N125 C130 1.318 . S
C126 N125 1.328 . S
C126 C127 1.457 . S
C126 H131 0.929 . S
C127 C126 1.457 . S
C127 C128 1.291 . S
C127 H140 0.931 . S
C128 C127 1.291 . S
C128 C129 1.373 . S
C128 H141 0.929 . S
C129 C128 1.373 . S
C129 C130 1.396 . S
C129 C136 1.403 . S
C130 C120 1.476 . S
C130 N125 1.318 . S
C130 C129 1.396 . S
H131 C126 0.929 . S
O132 Mn108 2.385 . S
O132 C110 1.234 1_655 S
O133 Mn108 2.209 1_455 S
O133 Mn109 2.215 . S
O133 C110 1.283 . S
O134 Mn108 2.094 . S
O134 C112 1.240 . S
O135 Mn109 2.117 . S
O135 C112 1.264 1_455 S
C136 C129 1.403 . S
C136 C137 1.399 . S
C136 H142 0.929 . S
C137 C117 1.449 . S
C137 C136 1.399 . S
C137 H143 0.971 . S
H138 C118 0.931 . S
H139 C119 0.930 . S
H140 C127 0.931 . S
H141 C128 0.929 . S
H142 C136 0.929 . S
H143 C137 0.971 . S
Mn144 O149 2.095 1_554 S
Mn144 O159 2.162 . S
Mn144 O160 2.297 . S
Mn144 O168 2.385 . S
Mn144 O169 2.209 . S
Mn144 O170 2.094 1_554 S
Mn145 O150 2.121 . S
Mn145 N152 2.257 1_556 S
Mn145 N161 2.282 1_556 S
Mn145 O169 2.215 1_556 S
Mn145 O171 2.117 . S
C146 O168 1.234 . S
C146 O169 1.283 . S
C147 O159 1.281 . S
C147 O160 1.236 . S
C148 O170 1.240 . S
C148 O171 1.264 . S
O149 Mn144 2.095 1_556 S
O149 C158 1.250 . S
O150 Mn145 2.121 . S
O150 C158 1.258 . S
C151 N152 1.326 . S
C151 C155 1.460 . S
C151 H157 0.929 . S
N152 Mn145 2.257 1_554 S
N152 C151 1.326 . S
N152 C156 1.362 . S
C153 C154 1.258 . S
C153 C156 1.431 . S
C153 C173 1.449 . S
C154 C153 1.258 . S
C154 C155 1.477 . S
C154 H174 0.931 . S
C155 C151 1.460 . S
C155 C154 1.477 . S
C155 H175 0.930 . S
C156 N152 1.362 . S
C156 C153 1.431 . S
C156 C166 1.476 . S
H157 C151 0.929 . S
C158 O149 1.250 . S
C158 O150 1.258 . S
O159 Mn144 2.162 . S
O159 C147 1.281 . S
O160 Mn144 2.297 . S
O160 C147 1.236 . S
N161 Mn145 2.282 1_554 S
N161 C162 1.328 . S
N161 C166 1.318 . S
C162 N161 1.328 . S
C162 C163 1.457 . S
C162 H167 0.929 . S
C163 C162 1.457 . S
C163 C164 1.291 . S
C163 H176 0.931 . S
C164 C163 1.291 . S
C164 C165 1.373 . S
C164 H177 0.929 . S
C165 C164 1.373 . S
C165 C166 1.396 . S
C165 C172 1.403 . S
C166 C156 1.476 . S
C166 N161 1.318 . S
C166 C165 1.396 . S
H167 C162 0.929 . S
O168 Mn144 2.385 . S
O168 C146 1.234 . S
O169 Mn144 2.209 . S
O169 Mn145 2.215 1_554 S
O169 C146 1.283 . S
O170 Mn144 2.094 1_556 S
O170 C148 1.240 . S
O171 Mn145 2.117 . S
O171 C148 1.264 . S
C172 C165 1.403 . S
C172 C173 1.399 . S
C172 H178 0.929 . S
C173 C153 1.449 . S
C173 C172 1.399 . S
C173 H179 0.930 . S
H174 C154 0.931 . S
H175 C155 0.930 . S
H176 C163 0.931 . S
H177 C164 0.929 . S
H178 C172 0.929 . S
H179 C173 0.930 . S
Mn180 O185 2.094 . S
Mn180 O195 2.162 . S
Mn180 O196 2.297 . S
Mn180 O204 2.385 . S
Mn180 O205 2.209 1_545 S
Mn180 O206 2.094 . S
Mn181 O186 2.121 . S
Mn181 N188 2.257 . S
Mn181 N197 2.282 . S
Mn181 O205 2.215 . S
Mn181 O207 2.154 . S
C182 O204 1.234 . S
C182 O205 1.283 1_545 S
C183 O195 1.281 . S
C183 O196 1.236 . S
C184 O206 1.240 . S
C184 O207 1.230 1_545 S
O185 Mn180 2.094 . S
O185 C194 1.252 1_545 S
O186 Mn181 2.121 . S
O186 C194 1.258 . S
C187 N188 1.326 . S
C187 C191 1.460 . S
C187 H193 0.929 . S
N188 Mn181 2.257 . S
N188 C187 1.326 . S
N188 C192 1.362 . S
C189 C190 1.258 . S
C189 C192 1.431 . S
C189 C209 1.449 . S
C190 C189 1.258 . S
C190 C191 1.477 . S
C190 H210 0.931 . S
C191 C187 1.460 . S
C191 C190 1.477 . S
C191 H211 0.930 . S
C192 N188 1.362 . S
C192 C189 1.431 . S
C192 C202 1.476 . S
H193 C187 0.929 . S
C194 O185 1.252 1_565 S
C194 O186 1.258 . S
O195 Mn180 2.162 . S
O195 C183 1.281 . S
O196 Mn180 2.297 . S
O196 C183 1.236 . S
N197 Mn181 2.282 . S
N197 C198 1.328 . S
N197 C202 1.318 . S
C198 N197 1.328 . S
C198 C199 1.457 . S
C198 H203 0.928 . S
C199 C198 1.457 . S
C199 C200 1.291 . S
C199 H212 0.931 . S
C200 C199 1.291 . S
C200 C201 1.373 . S
C200 H213 0.929 . S
C201 C200 1.373 . S
C201 C202 1.396 . S
C201 C208 1.403 . S
C202 C192 1.476 . S
C202 N197 1.318 . S
C202 C201 1.396 . S
H203 C198 0.928 . S
O204 Mn180 2.385 . S
O204 C182 1.234 . S
O205 Mn180 2.209 1_565 S
O205 Mn181 2.215 . S
O205 C182 1.283 1_565 S
O206 Mn180 2.094 . S
O206 C184 1.240 . S
O207 Mn181 2.154 . S
O207 C184 1.230 1_565 S
C208 C201 1.403 . S
C208 C209 1.399 . S
C208 H214 0.929 . S
C209 C189 1.449 . S
C209 C208 1.399 . S
C209 H215 0.930 1_554 S
H210 C190 0.931 . S
H211 C191 0.930 . S
H212 C199 0.931 . S
H213 C200 0.929 . S
H214 C208 0.929 . S
H215 C209 0.930 1_556 S
Mn216 O221 2.095 . S
Mn216 O231 2.162 . S
Mn216 O232 2.297 . S
Mn216 O240 2.385 . S
Mn216 O241 2.209 . S
Mn216 O242 2.094 . S
Mn217 O222 2.121 . S
Mn217 N224 2.257 . S
Mn217 N233 2.282 . S
Mn217 O241 2.215 . S
Mn217 O243 2.117 . S
C218 O240 1.234 . S
C218 O241 1.283 . S
C219 O231 1.281 . S
C219 O232 1.236 . S
C220 O242 1.240 . S
C220 O243 1.264 . S
O221 Mn216 2.095 . S
O221 C230 1.250 . S
O222 Mn217 2.121 . S
O222 C230 1.258 . S
C223 N224 1.326 . S
C223 C227 1.460 . S
C223 H229 0.929 . S
N224 Mn217 2.257 . S
N224 C223 1.326 . S
N224 C228 1.362 . S
C225 C226 1.258 . S
C225 C228 1.431 . S
C225 C245 1.449 . S
C226 C225 1.258 . S
C226 C227 1.477 . S
C226 H246 0.931 . S
C227 C223 1.460 . S
C227 C226 1.477 . S
C227 H247 0.930 . S
C228 N224 1.362 . S
C228 C225 1.431 . S
C228 C238 1.476 . S
H229 C223 0.929 . S
C230 O221 1.250 . S
C230 O222 1.258 . S
O231 Mn216 2.162 . S
O231 C219 1.281 . S
O232 Mn216 2.297 . S
O232 C219 1.236 . S
N233 Mn217 2.282 . S
N233 C234 1.328 . S
N233 C238 1.318 . S
C234 N233 1.328 . S
C234 C235 1.457 . S
C234 H239 0.929 . S
C235 C234 1.457 . S
C235 C236 1.291 . S
C235 H248 0.931 . S
C236 C235 1.291 . S
C236 C237 1.373 . S
C236 H249 0.929 . S
C237 C236 1.373 . S
C237 C238 1.396 . S
C237 C244 1.403 . S
C238 C228 1.476 . S
C238 N233 1.318 . S
C238 C237 1.396 . S
H239 C234 0.929 . S
O240 Mn216 2.385 . S
O240 C218 1.234 . S
O241 Mn216 2.209 . S
O241 Mn217 2.215 . S
O241 C218 1.283 . S
O242 Mn216 2.094 . S
O242 C220 1.240 . S
O243 Mn217 2.117 . S
O243 C220 1.264 . S
C244 C237 1.403 . S
C244 C245 1.399 . S
C244 H250 0.929 . S
C245 C225 1.449 . S
C245 C244 1.399 . S
C245 H251 0.930 . S
H246 C226 0.931 . S
H247 C227 0.930 . S
H248 C235 0.931 . S
H249 C236 0.929 . S
H250 C244 0.929 . S
H251 C245 0.930 . S
Mn252 O257 2.095 . S
Mn252 O267 2.162 . S
Mn252 O268 2.297 . S
Mn252 O276 2.385 . S
Mn252 O277 2.209 . S
Mn252 O278 2.094 . S
Mn253 O258 2.121 . S
Mn253 N260 2.257 . S
Mn253 N269 2.282 . S
Mn253 O277 2.215 . S
Mn253 O279 2.117 . S
C254 O276 1.234 . S
C254 O277 1.283 . S
C255 O267 1.281 . S
C255 O268 1.236 . S
C256 O278 1.240 . S
C256 O279 1.264 . S
O257 Mn252 2.095 . S
O257 C266 1.250 . S
O258 Mn253 2.121 . S
O258 C266 1.258 . S
C259 N260 1.326 . S
C259 C263 1.460 . S
C259 H265 0.929 . S
N260 Mn253 2.257 . S
N260 C259 1.326 . S
N260 C264 1.362 . S
C261 C262 1.258 . S
C261 C264 1.431 . S
C261 C281 1.449 . S
C262 C261 1.258 . S
C262 C263 1.477 . S
C262 H282 0.931 . S
C263 C259 1.460 . S
C263 C262 1.477 . S
C263 H283 0.930 . S
C264 N260 1.362 . S
C264 C261 1.431 . S
C264 C274 1.476 . S
H265 C259 0.929 . S
C266 O257 1.250 . S
C266 O258 1.258 . S
O267 Mn252 2.162 . S
O267 C255 1.281 . S
O268 Mn252 2.297 . S
O268 C255 1.236 . S
N269 Mn253 2.282 . S
N269 C270 1.328 . S
N269 C274 1.318 . S
C270 N269 1.328 . S
C270 C271 1.457 . S
C270 H275 0.929 . S
C271 C270 1.457 . S
C271 C272 1.291 . S
C271 H284 0.931 . S
C272 C271 1.291 . S
C272 C273 1.373 . S
C272 H285 0.929 . S
C273 C272 1.373 . S
C273 C274 1.396 . S
C273 C280 1.403 . S
C274 C264 1.476 . S
C274 N269 1.318 . S
C274 C273 1.396 . S
H275 C270 0.929 . S
O276 Mn252 2.385 . S
O276 C254 1.234 . S
O277 Mn252 2.209 . S
O277 Mn253 2.215 . S
O277 C254 1.283 . S
O278 Mn252 2.094 . S
O278 C256 1.240 . S
O279 Mn253 2.117 . S
O279 C256 1.264 . S
C280 C273 1.403 . S
C280 C281 1.399 . S
C280 H286 0.929 . S
C281 C261 1.449 . S
C281 C280 1.399 . S
C281 H287 0.930 . S
H282 C262 0.931 . S
H283 C263 0.930 . S
H284 C271 0.931 . S
H285 C272 0.929 . S
H286 C280 0.929 . S
H287 C281 0.930 . S
Mn288 O293 2.095 . S
Mn288 O303 2.162 . S
Mn288 O304 2.297 . S
Mn288 O312 2.385 . S
Mn288 O313 2.209 . S
Mn288 O314 2.094 . S
Mn289 O294 2.121 . S
Mn289 N296 2.257 . S
Mn289 N305 2.282 . S
Mn289 O313 2.215 . S
Mn289 O315 2.117 . S
C290 O312 1.234 . S
C290 O313 1.283 . S
C291 O303 1.281 . S
C291 O304 1.236 . S
C292 O314 1.240 . S
C292 O315 1.264 . S
O293 Mn288 2.095 . S
O293 C302 1.250 . S
O294 Mn289 2.121 . S
O294 C302 1.258 . S
C295 N296 1.326 . S
C295 C299 1.460 . S
C295 H301 0.929 . S
N296 Mn289 2.257 . S
N296 C295 1.326 . S
N296 C300 1.362 . S
C297 C298 1.258 . S
C297 C300 1.431 . S
C297 C317 1.449 . S
C298 C297 1.258 . S
C298 C299 1.477 . S
C298 H318 0.931 . S
C299 C295 1.460 . S
C299 C298 1.477 . S
C299 H319 0.930 . S
C300 N296 1.362 . S
C300 C297 1.431 . S
C300 C310 1.476 . S
H301 C295 0.929 . S
C302 O293 1.250 . S
C302 O294 1.258 . S
O303 Mn288 2.162 . S
O303 C291 1.281 . S
O304 Mn288 2.297 . S
O304 C291 1.236 . S
N305 Mn289 2.282 . S
N305 C306 1.328 . S
N305 C310 1.318 . S
C306 N305 1.328 . S
C306 C307 1.457 . S
C306 H311 0.929 . S
C307 C306 1.457 . S
C307 C308 1.291 . S
C307 H320 0.931 . S
C308 C307 1.291 . S
C308 C309 1.373 . S
C308 H321 0.929 . S
C309 C308 1.373 . S
C309 C310 1.396 . S
C309 C316 1.403 . S
C310 C300 1.476 . S
C310 N305 1.318 . S
C310 C309 1.396 . S
H311 C306 0.929 . S
O312 Mn288 2.385 . S
O312 C290 1.234 . S
O313 Mn288 2.209 . S
O313 Mn289 2.215 . S
O313 C290 1.283 . S
O314 Mn288 2.094 . S
O314 C292 1.240 . S
O315 Mn289 2.117 . S
O315 C292 1.264 . S
C316 C309 1.403 . S
C316 C317 1.399 . S
C316 H322 0.929 . S
C317 C297 1.449 . S
C317 C316 1.399 . S
C317 H323 0.930 . S
H318 C298 0.931 . S
H319 C299 0.930 . S
H320 C307 0.931 . S
H321 C308 0.929 . S
H322 C316 0.929 . S
H323 C317 0.930 . S
Mn324 O329 2.095 . S
Mn324 O339 2.162 . S
Mn324 O340 2.297 . S
Mn324 O348 2.385 . S
Mn324 O349 2.209 . S
Mn324 O350 2.094 . S
Mn325 O330 2.121 . S
Mn325 N332 2.257 . S
Mn325 N341 2.282 . S
Mn325 O349 2.215 . S
Mn325 O351 2.117 . S
C326 O348 1.234 . S
C326 O349 1.283 . S
C327 O339 1.281 . S
C327 O340 1.236 . S
C328 O350 1.240 . S
C328 O351 1.264 . S
O329 Mn324 2.095 . S
O329 C338 1.250 . S
O330 Mn325 2.121 . S
O330 C338 1.258 . S
C331 N332 1.326 . S
C331 C335 1.460 . S
C331 H337 0.929 . S
N332 Mn325 2.257 . S
N332 C331 1.326 . S
N332 C336 1.362 . S
C333 C334 1.258 . S
C333 C336 1.431 . S
C333 C353 1.449 . S
C334 C333 1.258 . S
C334 C335 1.477 . S
C334 H354 0.931 . S
C335 C331 1.460 . S
C335 C334 1.477 . S
C335 H355 0.930 1_565 S
C336 N332 1.362 . S
C336 C333 1.431 . S
C336 C346 1.476 . S
H337 C331 0.929 . S
C338 O329 1.250 . S
C338 O330 1.258 . S
O339 Mn324 2.162 . S
O339 C327 1.281 . S
O340 Mn324 2.297 . S
O340 C327 1.236 . S
N341 Mn325 2.282 . S
N341 C342 1.328 . S
N341 C346 1.318 . S
C342 N341 1.328 . S
C342 C343 1.457 . S
C342 H347 0.929 . S
C343 C342 1.457 . S
C343 C344 1.291 . S
C343 H356 0.931 . S
C344 C343 1.291 . S
C344 C345 1.373 . S
C344 H357 0.929 . S
C345 C344 1.373 . S
C345 C346 1.396 . S
C345 C352 1.403 . S
C346 C336 1.476 . S
C346 N341 1.318 . S
C346 C345 1.396 . S
H347 C342 0.929 . S
O348 Mn324 2.385 . S
O348 C326 1.234 . S
O349 Mn324 2.209 . S
O349 Mn325 2.215 . S
O349 C326 1.283 . S
O350 Mn324 2.094 . S
O350 C328 1.240 . S
O351 Mn325 2.117 . S
O351 C328 1.264 . S
C352 C345 1.403 . S
C352 C353 1.399 . S
C352 H358 0.929 . S
C353 C333 1.449 . S
C353 C352 1.399 . S
C353 H359 0.930 . S
H354 C334 0.931 . S
H355 C335 0.930 1_545 S
H356 C343 0.931 . S
H357 C344 0.929 . S
H358 C352 0.929 . S
H359 C353 0.930 . S
Mn360 O365 2.095 . S
Mn360 O375 2.162 . S
Mn360 O376 2.297 . S
Mn360 O384 2.385 . S
Mn360 O385 2.209 . S
Mn360 O386 2.094 . S
Mn361 O366 2.121 . S
Mn361 N368 2.257 . S
Mn361 N377 2.282 . S
Mn361 O385 2.215 . S
Mn361 O387 2.117 . S
C362 O384 1.234 . S
C362 O385 1.283 . S
C363 O375 1.281 . S
C363 O376 1.236 . S
C364 O386 1.240 . S
C364 O387 1.264 . S
O365 Mn360 2.095 . S
O365 C374 1.250 . S
O366 Mn361 2.121 . S
O366 C374 1.258 . S
C367 N368 1.326 . S
C367 C371 1.460 . S
C367 H373 0.929 . S
N368 Mn361 2.257 . S
N368 C367 1.326 . S
N368 C372 1.362 . S
C369 C370 1.258 . S
C369 C372 1.431 . S
C369 C389 1.449 . S
C370 C369 1.258 . S
C370 C371 1.477 . S
C370 H390 0.931 . S
C371 C367 1.460 . S
C371 C370 1.477 . S
C371 H391 0.930 . S
C372 N368 1.362 . S
C372 C369 1.431 . S
C372 C382 1.476 . S
H373 C367 0.929 . S
C374 O365 1.250 . S
C374 O366 1.258 . S
O375 Mn360 2.162 . S
O375 C363 1.281 . S
O376 Mn360 2.297 . S
O376 C363 1.236 . S
N377 Mn361 2.282 . S
N377 C378 1.328 . S
N377 C382 1.318 . S
C378 N377 1.328 . S
C378 C379 1.457 . S
C378 H383 0.929 . S
C379 C378 1.457 . S
C379 C380 1.291 . S
C379 H392 0.931 . S
C380 C379 1.291 . S
C380 C381 1.373 . S
C380 H393 0.929 . S
C381 C380 1.373 . S
C381 C382 1.396 . S
C381 C388 1.403 . S
C382 C372 1.476 . S
C382 N377 1.318 . S
C382 C381 1.396 . S
H383 C378 0.929 . S
O384 Mn360 2.385 . S
O384 C362 1.234 . S
O385 Mn360 2.209 . S
O385 Mn361 2.215 . S
O385 C362 1.283 . S
O386 Mn360 2.094 . S
O386 C364 1.240 . S
O387 Mn361 2.117 . S
O387 C364 1.264 . S
C388 C381 1.403 . S
C388 C389 1.399 . S
C388 H394 0.929 . S
C389 C369 1.449 . S
C389 C388 1.399 . S
C389 H395 0.930 . S
H390 C370 0.931 . S
H391 C371 0.930 . S
H392 C379 0.931 . S
H393 C380 0.929 . S
H394 C388 0.929 . S
H395 C389 0.930 . S
Mn396 O401 2.095 . S
Mn396 O411 2.162 . S
Mn396 O412 2.297 . S
Mn396 O420 2.385 . S
Mn396 O421 2.209 . S
Mn396 O422 2.094 . S
Mn397 O402 2.121 . S
Mn397 N404 2.257 . S
Mn397 N413 2.282 . S
Mn397 O421 2.215 . S
Mn397 O423 2.117 . S
C398 O420 1.234 . S
C398 O421 1.283 . S
C399 O411 1.281 . S
C399 O412 1.236 . S
C400 O422 1.240 . S
C400 O423 1.264 . S
O401 Mn396 2.095 . S
O401 C410 1.250 . S
O402 Mn397 2.121 . S
O402 C410 1.258 . S
C403 N404 1.326 . S
C403 C407 1.460 . S
C403 H409 0.929 . S
N404 Mn397 2.257 . S
N404 C403 1.326 . S
N404 C408 1.362 . S
C405 C406 1.258 . S
C405 C408 1.431 . S
C405 C425 1.449 . S
C406 C405 1.258 . S
C406 C407 1.477 . S
C406 H426 0.931 . S
C407 C403 1.460 . S
C407 C406 1.477 . S
C407 H427 0.930 . S
C408 N404 1.362 . S
C408 C405 1.431 . S
C408 C418 1.476 . S
H409 C403 0.929 . S
C410 O401 1.250 . S
C410 O402 1.258 . S
O411 Mn396 2.162 . S
O411 C399 1.281 . S
O412 Mn396 2.297 . S
O412 C399 1.236 . S
N413 Mn397 2.282 . S
N413 C414 1.328 . S
N413 C418 1.318 . S
C414 N413 1.328 . S
C414 C415 1.457 . S
C414 H419 0.929 . S
C415 C414 1.457 . S
C415 C416 1.291 . S
C415 H428 0.931 . S
C416 C415 1.291 . S
C416 C417 1.373 . S
C416 H429 0.929 . S
C417 C416 1.373 . S
C417 C418 1.396 . S
C417 C424 1.403 . S
C418 C408 1.476 . S
C418 N413 1.318 . S
C418 C417 1.396 . S
H419 C414 0.929 . S
O420 Mn396 2.385 . S
O420 C398 1.234 . S
O421 Mn396 2.209 . S
O421 Mn397 2.215 . S
O421 C398 1.283 . S
O422 Mn396 2.094 . S
O422 C400 1.240 . S
O423 Mn397 2.117 . S
O423 C400 1.264 . S
C424 C417 1.403 . S
C424 C425 1.399 . S
C424 H430 0.929 . S
C425 C405 1.449 . S
C425 C424 1.399 . S
C425 H431 0.930 . S
H426 C406 0.931 . S
H427 C407 0.930 . S
H428 C415 0.931 . S
H429 C416 0.929 . S
H430 C424 0.929 . S
H431 C425 0.930 . S
Mn432 O437 2.095 . S
Mn432 O447 2.162 . S
Mn432 O448 2.297 . S
Mn432 O456 2.385 . S
Mn432 O457 2.209 . S
Mn432 O458 2.094 . S
Mn433 O438 2.121 . S
Mn433 N440 2.257 . S
Mn433 N449 2.282 . S
Mn433 O457 2.215 . S
Mn433 O459 2.117 . S
C434 O456 1.234 . S
C434 O457 1.283 . S
C435 O447 1.281 . S
C435 O448 1.236 . S
C436 O458 1.240 . S
C436 O459 1.264 . S
O437 Mn432 2.095 . S
O437 C446 1.250 . S
O438 Mn433 2.121 . S
O438 C446 1.258 . S
C439 N440 1.326 . S
C439 C443 1.460 . S
C439 H445 0.929 . S
N440 Mn433 2.257 . S
N440 C439 1.326 . S
N440 C444 1.362 . S
C441 C442 1.258 . S
C441 C444 1.431 . S
C441 C461 1.449 . S
C442 C441 1.258 . S
C442 C443 1.477 . S
C442 H462 0.931 . S
C443 C439 1.460 . S
C443 C442 1.477 . S
C443 H463 0.930 . S
C444 N440 1.362 . S
C444 C441 1.431 . S
C444 C454 1.476 . S
H445 C439 0.929 . S
C446 O437 1.250 . S
C446 O438 1.258 . S
O447 Mn432 2.162 . S
O447 C435 1.281 . S
O448 Mn432 2.297 . S
O448 C435 1.236 . S
N449 Mn433 2.282 . S
N449 C450 1.328 . S
N449 C454 1.318 . S
C450 N449 1.328 . S
C450 C451 1.457 . S
C450 H455 0.929 . S
C451 C450 1.457 . S
C451 C452 1.291 . S
C451 H464 0.931 . S
C452 C451 1.291 . S
C452 C453 1.373 . S
C452 H465 0.929 . S
C453 C452 1.373 . S
C453 C454 1.396 . S
C453 C460 1.403 . S
C454 C444 1.476 . S
C454 N449 1.318 . S
C454 C453 1.396 . S
H455 C450 0.929 . S
O456 Mn432 2.385 . S
O456 C434 1.234 . S
O457 Mn432 2.209 . S
O457 Mn433 2.215 . S
O457 C434 1.283 . S
O458 Mn432 2.094 . S
O458 C436 1.240 . S
O459 Mn433 2.117 . S
O459 C436 1.264 . S
C460 C453 1.403 . S
C460 C461 1.399 . S
C460 H466 0.929 . S
C461 C441 1.449 . S
C461 C460 1.399 . S
C461 H467 0.930 . S
H462 C442 0.931 . S
H463 C443 0.930 . S
H464 C451 0.931 . S
H465 C452 0.929 . S
H466 C460 0.929 . S
H467 C461 0.930 . S
Mn468 O473 2.095 . S
Mn468 O483 2.162 . S
Mn468 O484 2.297 . S
Mn468 O492 2.385 . S
Mn468 O493 2.209 . S
Mn468 O494 2.094 . S
Mn469 O474 2.121 . S
Mn469 N476 2.257 . S
Mn469 N485 2.282 . S
Mn469 O493 2.215 . S
Mn469 O495 2.117 . S
C470 O492 1.234 . S
C470 O493 1.283 . S
C471 O483 1.281 . S
C471 O484 1.236 . S
C472 O494 1.240 . S
C472 O495 1.264 . S
O473 Mn468 2.095 . S
O473 C482 1.250 . S
O474 Mn469 2.121 . S
O474 C482 1.258 . S
C475 N476 1.326 . S
C475 C479 1.460 . S
C475 H481 0.929 . S
N476 Mn469 2.257 . S
N476 C475 1.326 . S
N476 C480 1.362 . S
C477 C478 1.258 . S
C477 C480 1.431 . S
C477 C497 1.449 . S
C478 C477 1.258 . S
C478 C479 1.477 . S
C478 H498 0.931 . S
C479 C475 1.460 . S
C479 C478 1.477 . S
C479 H499 0.888 1_655 S
C480 N476 1.362 . S
C480 C477 1.431 . S
C480 C490 1.476 . S
H481 C475 0.929 . S
C482 O473 1.250 . S
C482 O474 1.258 . S
O483 Mn468 2.162 . S
O483 C471 1.281 . S
O484 Mn468 2.297 . S
O484 C471 1.236 . S
N485 Mn469 2.282 . S
N485 C486 1.328 . S
N485 C490 1.318 . S
C486 N485 1.328 . S
C486 C487 1.457 . S
C486 H491 0.929 . S
C487 C486 1.457 . S
C487 C488 1.291 . S
C487 H500 0.931 . S
C488 C487 1.291 . S
C488 C489 1.373 . S
C488 H501 0.929 . S
C489 C488 1.373 . S
C489 C490 1.396 . S
C489 C496 1.403 . S
C490 C480 1.476 . S
C490 N485 1.318 . S
C490 C489 1.396 . S
H491 C486 0.929 . S
O492 Mn468 2.385 . S
O492 C470 1.234 . S
O493 Mn468 2.209 . S
O493 Mn469 2.215 . S
O493 C470 1.283 . S
O494 Mn468 2.094 . S
O494 C472 1.240 . S
O495 Mn469 2.117 . S
O495 C472 1.264 . S
C496 C489 1.403 . S
C496 C497 1.399 . S
C496 H502 0.929 . S
C497 C477 1.449 . S
C497 C496 1.399 . S
C497 H503 0.930 . S
H498 C478 0.931 . S
H499 C479 0.888 1_455 S
H500 C487 0.931 . S
H501 C488 0.929 . S
H502 C496 0.929 . S
H503 C497 0.930 . S
Mn504 O509 2.095 . S
Mn504 O519 2.162 . S
Mn504 O520 2.297 . S
Mn504 O528 2.385 . S
Mn504 O529 2.209 . S
Mn504 O530 2.094 . S
Mn505 O510 2.121 . S
Mn505 N512 2.257 . S
Mn505 N521 2.282 . S
Mn505 O529 2.215 . S
Mn505 O531 2.117 . S
C506 O528 1.234 . S
C506 O529 1.283 . S
C507 O519 1.281 . S
C507 O520 1.236 . S
C508 O530 1.240 . S
C508 O531 1.264 . S
O509 Mn504 2.095 . S
O509 C518 1.250 . S
O510 Mn505 2.121 . S
O510 C518 1.258 . S
C511 N512 1.326 . S
C511 C515 1.460 . S
C511 H517 0.929 . S
N512 Mn505 2.257 . S
N512 C511 1.326 . S
N512 C516 1.362 . S
C513 C514 1.258 . S
C513 C516 1.431 . S
C513 C533 1.449 . S
C514 C513 1.258 . S
C514 C515 1.477 . S
C514 H534 0.931 . S
C515 C511 1.460 . S
C515 C514 1.477 . S
C515 H535 0.930 . S
C516 N512 1.362 . S
C516 C513 1.431 . S
C516 C526 1.476 . S
H517 C511 0.929 . S
C518 O509 1.250 . S
C518 O510 1.258 . S
O519 Mn504 2.162 . S
O519 C507 1.281 . S
O520 Mn504 2.297 . S
O520 C507 1.236 . S
N521 Mn505 2.282 . S
N521 C522 1.328 . S
N521 C526 1.318 . S
C522 N521 1.328 . S
C522 C523 1.457 . S
C522 H527 0.929 . S
C523 C522 1.457 . S
C523 C524 1.291 . S
C523 H536 0.931 . S
C524 C523 1.291 . S
C524 C525 1.373 . S
C524 H537 0.929 . S
C525 C524 1.373 . S
C525 C526 1.396 . S
C525 C532 1.403 . S
C526 C516 1.476 . S
C526 N521 1.318 . S
C526 C525 1.396 . S
H527 C522 0.929 . S
O528 Mn504 2.385 . S
O528 C506 1.234 . S
O529 Mn504 2.209 . S
O529 Mn505 2.215 . S
O529 C506 1.283 . S
O530 Mn504 2.094 . S
O530 C508 1.240 . S
O531 Mn505 2.117 . S
O531 C508 1.264 . S
C532 C525 1.403 . S
C532 C533 1.399 . S
C532 H538 0.929 . S
C533 C513 1.449 . S
C533 C532 1.399 . S
C533 H539 0.930 . S
H534 C514 0.931 . S
H535 C515 0.930 . S
H536 C523 0.931 . S
H537 C524 0.929 . S
H538 C532 0.929 . S
H539 C533 0.930 . S
Mn540 O545 2.095 . S
Mn540 O555 2.162 . S
Mn540 O556 2.297 . S
Mn540 O564 2.385 . S
Mn540 O565 2.209 . S
Mn540 O566 2.094 . S
Mn541 O546 2.121 . S
Mn541 N548 2.257 . S
Mn541 N557 2.282 . S
Mn541 O565 2.215 . S
Mn541 O567 2.117 . S
C542 O564 1.234 . S
C542 O565 1.283 . S
C543 O555 1.281 . S
C543 O556 1.236 . S
C544 O566 1.240 . S
C544 O567 1.264 . S
O545 Mn540 2.095 . S
O545 C554 1.250 . S
O546 Mn541 2.121 . S
O546 C554 1.258 . S
C547 N548 1.326 . S
C547 C551 1.460 . S
C547 H553 0.929 . S
N548 Mn541 2.257 . S
N548 C547 1.326 . S
N548 C552 1.362 . S
C549 C550 1.258 . S
C549 C552 1.431 . S
C549 C569 1.449 . S
C550 C549 1.258 . S
C550 C551 1.477 . S
C550 H570 0.931 . S
C551 C547 1.460 . S
C551 C550 1.477 . S
C551 H571 0.930 . S
C552 N548 1.362 . S
C552 C549 1.431 . S
C552 C562 1.476 . S
H553 C547 0.929 . S
C554 O545 1.250 . S
C554 O546 1.258 . S
O555 Mn540 2.162 . S
O555 C543 1.281 . S
O556 Mn540 2.297 . S
O556 C543 1.236 . S
N557 Mn541 2.282 . S
N557 C558 1.328 . S
N557 C562 1.318 . S
C558 N557 1.328 . S
C558 C559 1.457 . S
C558 H563 0.929 . S
C559 C558 1.457 . S
C559 C560 1.291 . S
C559 H572 0.931 . S
C560 C559 1.291 . S
C560 C561 1.373 . S
C560 H573 0.929 . S
C561 C560 1.373 . S
C561 C562 1.396 . S
C561 C568 1.403 . S
C562 C552 1.476 . S
C562 N557 1.318 . S
C562 C561 1.396 . S
H563 C558 0.929 . S
O564 Mn540 2.385 . S
O564 C542 1.234 . S
O565 Mn540 2.209 . S
O565 Mn541 2.215 . S
O565 C542 1.283 . S
O566 Mn540 2.094 . S
O566 C544 1.240 . S
O567 Mn541 2.117 . S
O567 C544 1.264 . S
C568 C561 1.403 . S
C568 C569 1.399 . S
C568 H574 0.929 . S
C569 C549 1.449 . S
C569 C568 1.399 . S
C569 H575 0.930 . S
H570 C550 0.931 . S
H571 C551 0.930 . S
H572 C559 0.931 . S
H573 C560 0.929 . S
H574 C568 0.929 . S
H575 C569 0.930 . S
Mn576 O581 2.095 . S
Mn576 O591 2.162 . S
Mn576 O592 2.297 . S
Mn576 O600 2.385 . S
Mn576 O601 2.209 . S
Mn576 O602 2.094 . S
Mn577 O582 2.121 . S
Mn577 N584 2.257 . S
Mn577 N593 2.282 . S
Mn577 O601 2.215 . S
Mn577 O603 2.117 . S
C578 O600 1.234 . S
C578 O601 1.283 . S
C579 O591 1.281 . S
C579 O592 1.236 . S
C580 O602 1.240 . S
C580 O603 1.264 . S
O581 Mn576 2.095 . S
O581 C590 1.250 . S
O582 Mn577 2.121 . S
O582 C590 1.258 . S
C583 N584 1.326 . S
C583 C587 1.460 . S
C583 H589 0.929 . S
N584 Mn577 2.257 . S
N584 C583 1.326 . S
N584 C588 1.362 . S
C585 C586 1.258 . S
C585 C588 1.431 . S
C585 C605 1.449 . S
C586 C585 1.258 . S
C586 C587 1.477 . S
C586 H606 0.931 . S
C587 C583 1.460 . S
C587 C586 1.477 . S
C587 H607 0.941 . S
C588 N584 1.362 . S
C588 C585 1.431 . S
C588 C598 1.476 . S
H589 C583 0.929 . S
C590 O581 1.250 . S
C590 O582 1.258 . S
O591 Mn576 2.162 . S
O591 C579 1.281 . S
O592 Mn576 2.297 . S
O592 C579 1.236 . S
N593 Mn577 2.282 . S
N593 C594 1.328 . S
N593 C598 1.318 . S
C594 N593 1.328 . S
C594 C595 1.457 . S
C594 H599 0.929 . S
C595 C594 1.457 . S
C595 C596 1.291 . S
C595 H608 0.931 . S
C596 C595 1.291 . S
C596 C597 1.373 . S
C596 H609 0.929 . S
C597 C596 1.373 . S
C597 C598 1.396 . S
C597 C604 1.403 . S
C598 C588 1.476 . S
C598 N593 1.318 . S
C598 C597 1.396 . S
H599 C594 0.929 . S
O600 Mn576 2.385 . S
O600 C578 1.234 . S
O601 Mn576 2.209 . S
O601 Mn577 2.215 . S
O601 C578 1.283 . S
O602 Mn576 2.094 . S
O602 C580 1.240 . S
O603 Mn577 2.117 . S
O603 C580 1.264 . S
C604 C597 1.403 . S
C604 C605 1.399 . S
C604 H610 0.929 . S
C605 C585 1.449 . S
C605 C604 1.399 . S
C605 H611 0.930 . S
H606 C586 0.931 . S
H607 C587 0.941 . S
H608 C595 0.931 . S
H609 C596 0.929 . S
H610 C604 0.929 . S
H611 C605 0.930 . S
Mn612 O617 2.095 . S
Mn612 O627 2.162 . S
Mn612 O628 2.297 . S
Mn612 O636 2.385 . S
Mn612 O637 2.209 . S
Mn612 O638 2.094 . S
Mn613 O618 2.121 . S
Mn613 N620 2.257 . S
Mn613 N629 2.282 . S
Mn613 O637 2.215 . S
Mn613 O639 2.117 . S
C614 O636 1.234 . S
C614 O637 1.283 . S
C615 O627 1.281 . S
C615 O628 1.236 . S
C616 O638 1.240 . S
C616 O639 1.264 . S
O617 Mn612 2.095 . S
O617 C626 1.250 . S
O618 Mn613 2.121 . S
O618 C626 1.258 . S
C619 N620 1.326 . S
C619 C623 1.460 . S
C619 H625 0.929 . S
N620 Mn613 2.257 . S
N620 C619 1.326 . S
N620 C624 1.362 . S
C621 C622 1.258 . S
C621 C624 1.431 . S
C621 C641 1.449 . S
C622 C621 1.258 . S
C622 C623 1.477 . S
C622 H642 0.931 . S
C623 C619 1.460 . S
C623 C622 1.477 . S
C623 H643 0.930 . S
C624 N620 1.362 . S
C624 C621 1.431 . S
C624 C634 1.476 . S
H625 C619 0.929 . S
C626 O617 1.250 . S
C626 O618 1.258 . S
O627 Mn612 2.162 . S
O627 C615 1.281 . S
O628 Mn612 2.297 . S
O628 C615 1.236 . S
N629 Mn613 2.282 . S
N629 C630 1.328 . S
N629 C634 1.318 . S
C630 N629 1.328 . S
C630 C631 1.457 . S
C630 H635 0.929 . S
C631 C630 1.457 . S
C631 C632 1.291 . S
C631 H644 0.931 . S
C632 C631 1.291 . S
C632 C633 1.373 . S
C632 H645 0.929 . S
C633 C632 1.373 . S
C633 C634 1.396 . S
C633 C640 1.403 . S
C634 C624 1.476 . S
C634 N629 1.318 . S
C634 C633 1.396 . S
H635 C630 0.929 . S
O636 Mn612 2.385 . S
O636 C614 1.234 . S
O637 Mn612 2.209 . S
O637 Mn613 2.215 . S
O637 C614 1.283 . S
O638 Mn612 2.094 . S
O638 C616 1.240 . S
O639 Mn613 2.117 . S
O639 C616 1.264 . S
C640 C633 1.403 . S
C640 C641 1.399 . S
C640 H646 0.929 . S
C641 C621 1.449 . S
C641 C640 1.399 . S
C641 H647 0.930 . S
H642 C622 0.931 . S
H643 C623 0.930 . S
H644 C631 0.931 . S
H645 C632 0.929 . S
H646 C640 0.929 . S
H647 C641 0.930 . S
H648 O674 0.856 . S
H649 O677 0.854 . S
H650 C685 0.930 . S
H651 C686 0.930 . S
H652 C688 0.930 . S
H653 C689 0.930 . S
H654 C691 0.931 . S
H655 C692 0.930 . S
H656 C694 0.930 . S
H657 C695 0.929 . S
H658 C697 0.930 . S
H659 C698 0.931 . S
H660 C700 0.930 . S
H661 C701 0.929 . S
H662 C703 0.931 . S
H663 C704 0.930 . S
H664 C706 0.930 . S
H665 C707 0.932 . S
H666 C709 0.930 . S
H667 C710 0.929 . S
H668 C712 0.931 . S
H669 C713 0.930 . S
H670 C715 0.929 . S
H671 C716 0.931 . S
H672 C718 0.930 . S
H673 C719 0.929 . S
O674 H648 0.856 . S
O674 C720 1.300 . S
O675 C720 1.209 . S
O676 C721 1.199 . S
O677 H649 0.854 . S
O677 C721 1.297 . S
C678 C679 1.404 . S
C678 C683 1.397 . S
C678 C684 1.492 . S
C679 C678 1.404 . S
C679 C680 1.396 . S
C679 C690 1.492 . S
C680 C679 1.396 . S
C680 C681 1.397 . S
C680 C696 1.509 . S
C681 C680 1.397 . S
C681 C682 1.412 . S
C681 C702 1.485 . S
C682 C681 1.412 . S
C682 C683 1.388 . S
C682 C708 1.490 . S
C683 C678 1.397 . S
C683 C682 1.388 . S
C683 C714 1.519 . S
C684 C678 1.492 . S
C684 C685 1.363 . S
C684 C689 1.390 . S
C685 H650 0.930 . S
C685 C684 1.363 . S
C685 C686 1.372 . S
C686 H651 0.930 . S
C686 C685 1.372 . S
C686 C687 1.383 . S
C687 C686 1.383 . S
C687 C688 1.395 . S
C688 H652 0.930 . S
C688 C687 1.395 . S
C688 C689 1.362 . S
C689 H653 0.930 . S
C689 C684 1.390 . S
C689 C688 1.362 . S
C690 C679 1.492 . S
C690 C691 1.377 . S
C690 C695 1.397 . S
C691 H654 0.931 . S
C691 C690 1.377 . S
C691 C692 1.376 . S
C692 H655 0.930 . S
C692 C691 1.376 . S
C692 C693 1.376 . S
C693 C692 1.376 . S
C693 C694 1.378 . S
C693 C720 1.486 . S
C694 H656 0.930 . S
C694 C693 1.378 . S
C694 C695 1.376 . S
C695 H657 0.929 . S
C695 C690 1.397 . S
C695 C694 1.376 . S
C696 C680 1.509 . S
C696 C697 1.391 . S
C696 C701 1.386 . S
C697 H658 0.930 . S
C697 C696 1.391 . S
C697 C698 1.375 . S
C698 H659 0.931 . S
C698 C697 1.375 . S
C698 C699 1.375 . S
C699 C698 1.375 . S
C699 C700 1.361 . S
C700 H660 0.930 . S
C700 C699 1.361 . S
C700 C701 1.399 . S
C701 H661 0.929 . S
C701 C696 1.386 . S
C701 C700 1.399 . S
C702 C681 1.485 . S
C702 C703 1.394 . S
C702 C707 1.360 . S
C703 H662 0.931 . S
C703 C702 1.394 . S
C703 C704 1.372 . S
C704 H663 0.930 . S
C704 C703 1.372 . S
C704 C705 1.397 . S
C705 C704 1.397 . S
C705 C706 1.390 . S
C705 C721 1.476 . S
C706 H664 0.930 . S
C706 C705 1.390 . S
C706 C707 1.366 . S
C707 H665 0.932 . S
C707 C702 1.360 . S
C707 C706 1.366 . S
C708 C682 1.490 . S
C708 C709 1.380 . S
C708 C713 1.386 . S
C709 H666 0.930 . S
C709 C708 1.380 . S
C709 C710 1.381 . S
C710 H667 0.929 . S
C710 C709 1.381 . S
C710 C711 1.371 . S
C711 C710 1.371 . S
C711 C712 1.380 . S
C712 H668 0.931 . S
C712 C711 1.380 . S
C712 C713 1.387 . S
C713 H669 0.930 . S
C713 C708 1.386 . S
C713 C712 1.387 . S
C714 C683 1.519 . S
C714 C715 1.377 . S
C714 C719 1.361 . S
C715 H670 0.929 . S
C715 C714 1.377 . S
C715 C716 1.386 . S
C716 H671 0.931 . S
C716 C715 1.386 . S
C716 C717 1.363 . S
C717 C716 1.363 . S
C717 C718 1.385 . S
C718 H672 0.930 . S
C718 C717 1.385 . S
C718 C719 1.396 . S
C719 H673 0.929 . S
C719 C714 1.361 . S
C719 C718 1.396 . S
C720 O674 1.300 . S
C720 O675 1.209 . S
C720 C693 1.486 . S
C721 O676 1.199 . S
C721 O677 1.297 . S
C721 C705 1.476 . S
H722 O748 0.856 . S
H723 O751 0.854 . S
H724 C759 0.930 . S
H725 C760 0.930 . S
H726 C762 0.930 . S
H727 C763 0.930 . S
H728 C765 0.931 . S
H729 C766 0.930 . S
H730 C768 0.930 . S
H731 C769 0.929 . S
H732 C771 0.930 . S
H733 C772 0.931 . S
H734 C774 0.930 . S
H735 C775 0.929 . S
H736 C777 0.931 . S
H737 C778 0.930 . S
H738 C780 0.930 . S
H739 C781 0.932 . S
H740 C783 0.930 . S
H741 C784 0.929 . S
H742 C786 0.931 . S
H743 C787 0.930 . S
H744 C789 0.929 . S
H745 C790 0.931 . S
H746 C792 0.930 . S
H747 C793 0.929 . S
O748 H722 0.856 . S
O748 C794 1.300 . S
O749 C794 1.209 . S
O750 C795 1.199 . S
O751 H723 0.854 . S
O751 C795 1.297 . S
C752 C753 1.404 . S
C752 C757 1.397 . S
C752 C758 1.492 . S
C753 C752 1.404 . S
C753 C754 1.396 . S
C753 C764 1.492 . S
C754 C753 1.396 . S
C754 C755 1.397 . S
C754 C770 1.509 . S
C755 C754 1.397 . S
C755 C756 1.412 . S
C755 C776 1.485 . S
C756 C755 1.412 . S
C756 C757 1.388 . S
C756 C782 1.490 . S
C757 C752 1.397 . S
C757 C756 1.388 . S
C757 C788 1.519 . S
C758 C752 1.492 . S
C758 C759 1.363 . S
C758 C763 1.390 . S
C759 H724 0.930 . S
C759 C758 1.363 . S
C759 C760 1.372 . S
C760 H725 0.930 . S
C760 C759 1.372 . S
C760 C761 1.383 . S
C761 C760 1.383 . S
C761 C762 1.395 . S
C762 H726 0.930 . S
C762 C761 1.395 . S
C762 C763 1.362 . S
C763 H727 0.930 . S
C763 C758 1.390 . S
C763 C762 1.362 . S
C764 C753 1.492 . S
C764 C765 1.377 . S
C764 C769 1.397 . S
C765 H728 0.931 . S
C765 C764 1.377 . S
C765 C766 1.376 . S
C766 H729 0.930 . S
C766 C765 1.376 . S
C766 C767 1.376 . S
C767 C766 1.376 . S
C767 C768 1.378 . S
C767 C794 1.486 . S
C768 H730 0.930 . S
C768 C767 1.378 . S
C768 C769 1.376 . S
C769 H731 0.929 . S
C769 C764 1.397 . S
C769 C768 1.376 . S
C770 C754 1.509 . S
C770 C771 1.391 . S
C770 C775 1.386 . S
C771 H732 0.930 . S
C771 C770 1.391 . S
C771 C772 1.375 . S
C772 H733 0.931 . S
C772 C771 1.375 . S
C772 C773 1.375 . S
C773 C772 1.375 . S
C773 C774 1.361 . S
C774 H734 0.930 . S
C774 C773 1.361 . S
C774 C775 1.399 . S
C775 H735 0.929 . S
C775 C770 1.386 . S
C775 C774 1.399 . S
C776 C755 1.485 . S
C776 C777 1.394 . S
C776 C781 1.360 . S
C777 H736 0.931 . S
C777 C776 1.394 . S
C777 C778 1.372 . S
C778 H737 0.930 . S
C778 C777 1.372 . S
C778 C779 1.397 . S
C779 C778 1.397 . S
C779 C780 1.390 . S
C779 C795 1.476 . S
C780 H738 0.930 . S
C780 C779 1.390 . S
C780 C781 1.366 . S
C781 H739 0.932 . S
C781 C776 1.360 . S
C781 C780 1.366 . S
C782 C756 1.490 . S
C782 C783 1.380 . S
C782 C787 1.386 . S
C783 H740 0.930 . S
C783 C782 1.380 . S
C783 C784 1.381 . S
C784 H741 0.929 . S
C784 C783 1.381 . S
C784 C785 1.371 . S
C785 C784 1.371 . S
C785 C786 1.380 . S
C786 H742 0.931 . S
C786 C785 1.380 . S
C786 C787 1.387 . S
C787 H743 0.930 . S
C787 C782 1.386 . S
C787 C786 1.387 . S
C788 C757 1.519 . S
C788 C789 1.377 . S
C788 C793 1.361 . S
C789 H744 0.929 . S
C789 C788 1.377 . S
C789 C790 1.386 . S
C790 H745 0.931 . S
C790 C789 1.386 . S
C790 C791 1.363 . S
C791 C790 1.363 . S
C791 C792 1.385 . S
C792 H746 0.930 . S
C792 C791 1.385 . S
C792 C793 1.396 . S
C793 H747 0.929 . S
C793 C788 1.361 . S
C793 C792 1.396 . S
C794 O748 1.300 . S
C794 O749 1.209 . S
C794 C767 1.486 . S
C795 O750 1.199 . S
C795 O751 1.297 . S
C795 C779 1.476 . S
H796 O822 0.856 . S
H797 O825 0.854 . S
H798 C833 0.930 . S
H799 C834 0.930 . S
H800 C836 0.930 . S
H801 C837 0.930 . S
H802 C839 0.931 . S
H803 C840 0.930 . S
H804 C842 0.930 . S
H805 C843 0.929 . S
H806 C845 0.930 . S
H807 C846 0.931 . S
H808 C848 0.930 . S
H809 C849 0.929 . S
H810 C851 0.931 . S
H811 C852 0.930 . S
H812 C854 0.930 . S
H813 C855 0.932 . S
H814 C857 0.930 . S
H815 C858 0.929 . S
H816 C860 0.931 . S
H817 C861 0.930 . S
H818 C863 0.929 . S
H819 C864 0.931 . S
H820 C866 0.930 . S
H821 C867 0.929 . S
O822 H796 0.856 . S
O822 C868 1.300 . S
O823 C868 1.209 . S
O824 C869 1.199 . S
O825 H797 0.854 . S
O825 C869 1.297 . S
C826 C827 1.404 . S
C826 C831 1.397 . S
C826 C832 1.492 . S
C827 C826 1.404 . S
C827 C828 1.396 . S
C827 C838 1.492 . S
C828 C827 1.396 . S
C828 C829 1.397 . S
C828 C844 1.509 . S
C829 C828 1.397 . S
C829 C830 1.412 . S
C829 C850 1.485 . S
C830 C829 1.412 . S
C830 C831 1.388 . S
C830 C856 1.490 . S
C831 C826 1.397 . S
C831 C830 1.388 . S
C831 C862 1.519 . S
C832 C826 1.492 . S
C832 C833 1.363 . S
C832 C837 1.390 . S
C833 H798 0.930 . S
C833 C832 1.363 . S
C833 C834 1.372 . S
C834 H799 0.930 . S
C834 C833 1.372 . S
C834 C835 1.383 . S
C835 C834 1.383 . S
C835 C836 1.395 . S
C836 H800 0.930 . S
C836 C835 1.395 . S
C836 C837 1.362 . S
C837 H801 0.930 . S
C837 C832 1.390 . S
C837 C836 1.362 . S
C838 C827 1.492 . S
C838 C839 1.377 . S
C838 C843 1.397 . S
C839 H802 0.931 . S
C839 C838 1.377 . S
C839 C840 1.376 . S
C840 H803 0.930 . S
C840 C839 1.376 . S
C840 C841 1.376 . S
C841 C840 1.376 . S
C841 C842 1.378 . S
C841 C868 1.486 . S
C842 H804 0.930 . S
C842 C841 1.378 . S
C842 C843 1.376 . S
C843 H805 0.929 . S
C843 C838 1.397 . S
C843 C842 1.376 . S
C844 C828 1.509 . S
C844 C845 1.391 . S
C844 C849 1.386 . S
C845 H806 0.930 . S
C845 C844 1.391 . S
C845 C846 1.375 . S
C846 H807 0.931 . S
C846 C845 1.375 . S
C846 C847 1.375 . S
C847 C846 1.375 . S
C847 C848 1.361 . S
C848 H808 0.930 . S
C848 C847 1.361 . S
C848 C849 1.399 . S
C849 H809 0.929 . S
C849 C844 1.386 . S
C849 C848 1.399 . S
C850 C829 1.485 . S
C850 C851 1.394 . S
C850 C855 1.360 . S
C851 H810 0.931 . S
C851 C850 1.394 . S
C851 C852 1.372 . S
C852 H811 0.930 . S
C852 C851 1.372 . S
C852 C853 1.397 . S
C853 C852 1.397 . S
C853 C854 1.390 . S
C853 C869 1.476 . S
C854 H812 0.930 . S
C854 C853 1.390 . S
C854 C855 1.366 . S
C855 H813 0.932 . S
C855 C850 1.360 . S
C855 C854 1.366 . S
C856 C830 1.490 . S
C856 C857 1.380 . S
C856 C861 1.386 . S
C857 H814 0.930 . S
C857 C856 1.380 . S
C857 C858 1.381 . S
C858 H815 0.929 . S
C858 C857 1.381 . S
C858 C859 1.371 . S
C859 C858 1.371 . S
C859 C860 1.380 . S
C860 H816 0.931 . S
C860 C859 1.380 . S
C860 C861 1.387 . S
C861 H817 0.930 . S
C861 C856 1.386 . S
C861 C860 1.387 . S
C862 C831 1.519 . S
C862 C863 1.377 . S
C862 C867 1.361 . S
C863 H818 0.929 . S
C863 C862 1.377 . S
C863 C864 1.386 . S
C864 H819 0.931 . S
C864 C863 1.386 . S
C864 C865 1.363 . S
C865 C864 1.363 . S
C865 C866 1.385 . S
C866 H820 0.930 . S
C866 C865 1.385 . S
C866 C867 1.396 . S
C867 H821 0.929 . S
C867 C862 1.361 . S
C867 C866 1.396 . S
C868 O822 1.300 . S
C868 O823 1.209 . S
C868 C841 1.486 . S
C869 O824 1.199 . S
C869 O825 1.297 . S
C869 C853 1.476 . S
H870 O896 0.856 . S
H871 O899 0.854 . S
H872 C907 0.930 . S
H873 C908 0.930 . S
H874 C910 0.930 . S
H875 C911 0.930 . S
H876 C913 0.931 . S
H877 C914 0.930 . S
H878 C916 0.930 . S
H879 C917 0.929 . S
H880 C919 0.930 . S
H881 C920 0.931 . S
H882 C922 0.930 . S
H883 C923 0.929 . S
H884 C925 0.931 . S
H885 C926 0.930 . S
H886 C928 0.930 . S
H887 C929 0.932 . S
H888 C931 0.930 . S
H889 C932 0.929 . S
H890 C934 0.931 . S
H891 C935 0.930 . S
H892 C937 0.929 . S
H893 C938 0.931 . S
H894 C940 0.930 . S
H895 C941 0.929 . S
O896 H870 0.856 . S
O896 C942 1.300 . S
O897 C942 1.209 . S
O898 C943 1.199 . S
O899 H871 0.854 . S
O899 C943 1.297 . S
C900 C901 1.404 . S
C900 C905 1.397 . S
C900 C906 1.492 . S
C901 C900 1.404 . S
C901 C902 1.396 . S
C901 C912 1.492 . S
C902 C901 1.396 . S
C902 C903 1.397 . S
C902 C918 1.509 . S
C903 C902 1.397 . S
C903 C904 1.412 . S
C903 C924 1.485 . S
C904 C903 1.412 . S
C904 C905 1.388 . S
C904 C930 1.490 . S
C905 C900 1.397 . S
C905 C904 1.388 . S
C905 C936 1.519 . S
C906 C900 1.492 . S
C906 C907 1.363 . S
C906 C911 1.390 . S
C907 H872 0.930 . S
C907 C906 1.363 . S
C907 C908 1.372 . S
C908 H873 0.930 . S
C908 C907 1.372 . S
C908 C909 1.383 . S
C909 C908 1.383 . S
C909 C910 1.395 . S
C910 H874 0.930 . S
C910 C909 1.395 . S
C910 C911 1.362 . S
C911 H875 0.930 . S
C911 C906 1.390 . S
C911 C910 1.362 . S
C912 C901 1.492 . S
C912 C913 1.377 . S
C912 C917 1.397 . S
C913 H876 0.931 . S
C913 C912 1.377 . S
C913 C914 1.376 . S
C914 H877 0.930 . S
C914 C913 1.376 . S
C914 C915 1.376 . S
C915 C914 1.376 . S
C915 C916 1.378 . S
C915 C942 1.486 . S
C916 H878 0.930 . S
C916 C915 1.378 . S
C916 C917 1.376 . S
C917 H879 0.929 . S
C917 C912 1.397 . S
C917 C916 1.376 . S
C918 C902 1.509 . S
C918 C919 1.391 . S
C918 C923 1.386 . S
C919 H880 0.930 . S
C919 C918 1.391 . S
C919 C920 1.375 . S
C920 H881 0.931 . S
C920 C919 1.375 . S
C920 C921 1.375 . S
C921 C920 1.375 . S
C921 C922 1.361 . S
C922 H882 0.930 . S
C922 C921 1.361 . S
C922 C923 1.399 . S
C923 H883 0.929 . S
C923 C918 1.386 . S
C923 C922 1.399 . S
C924 C903 1.485 . S
C924 C925 1.394 . S
C924 C929 1.360 . S
C925 H884 0.931 . S
C925 C924 1.394 . S
C925 C926 1.372 . S
C926 H885 0.930 . S
C926 C925 1.372 . S
C926 C927 1.397 . S
C927 C926 1.397 . S
C927 C928 1.390 . S
C927 C943 1.476 . S
C928 H886 0.930 . S
C928 C927 1.390 . S
C928 C929 1.366 . S
C929 H887 0.932 . S
C929 C924 1.360 . S
C929 C928 1.366 . S
C930 C904 1.490 . S
C930 C931 1.380 . S
C930 C935 1.386 . S
C931 H888 0.930 . S
C931 C930 1.380 . S
C931 C932 1.381 . S
C932 H889 0.929 . S
C932 C931 1.381 . S
C932 C933 1.371 . S
C933 C932 1.371 . S
C933 C934 1.380 . S
C934 H890 0.931 . S
C934 C933 1.380 . S
C934 C935 1.387 . S
C935 H891 0.930 . S
C935 C930 1.386 . S
C935 C934 1.387 . S
C936 C905 1.519 . S
C936 C937 1.377 . S
C936 C941 1.361 . S
C937 H892 0.929 . S
C937 C936 1.377 . S
C937 C938 1.386 . S
C938 H893 0.931 . S
C938 C937 1.386 . S
C938 C939 1.363 . S
C939 C938 1.363 . S
C939 C940 1.385 . S
C940 H894 0.930 . S
C940 C939 1.385 . S
C940 C941 1.396 . S
C941 H895 0.929 . S
C941 C936 1.361 . S
C941 C940 1.396 . S
C942 O896 1.300 . S
C942 O897 1.209 . S
C942 C915 1.486 . S
C943 O898 1.199 . S
C943 O899 1.297 . S
C943 C927 1.476 . S
H944 O970 0.856 . S
H945 O973 0.854 . S
H946 C981 0.930 . S
H947 C982 0.930 . S
H948 C984 0.930 . S
H949 C985 0.930 . S
H950 C987 0.931 . S
H951 C988 0.930 . S
H952 C990 0.930 . S
H953 C991 0.929 . S
H954 C993 0.930 . S
H955 C994 0.931 . S
H956 C996 0.930 . S
H957 C997 0.929 . S
H958 C999 0.931 . S
H959 C1000 0.930 . S
H960 C1002 0.930 . S
H961 C1003 0.932 . S
H962 C1005 0.930 . S
H963 C1006 0.929 . S
H964 C1008 0.931 . S
H965 C1009 0.930 . S
H966 C1011 0.929 . S
H967 C1012 0.931 . S
H968 C1014 0.930 . S
H969 C1015 0.929 . S
O970 H944 0.856 . S
O970 C1016 1.300 . S
O971 C1016 1.209 . S
O972 C1017 1.199 . S
O973 H945 0.854 . S
O973 C1017 1.297 . S
C974 C975 1.404 . S
C974 C979 1.397 . S
C974 C980 1.492 . S
C975 C974 1.404 . S
C975 C976 1.396 . S
C975 C986 1.492 . S
C976 C975 1.396 . S
C976 C977 1.397 . S
C976 C992 1.509 . S
C977 C976 1.397 . S
C977 C978 1.412 . S
C977 C998 1.485 . S
C978 C977 1.412 . S
C978 C979 1.388 . S
C978 C1004 1.490 . S
C979 C974 1.397 . S
C979 C978 1.388 . S
C979 C1010 1.519 . S
C980 C974 1.492 . S
C980 C981 1.363 . S
C980 C985 1.390 . S
C981 H946 0.930 . S
C981 C980 1.363 . S
C981 C982 1.372 . S
C982 H947 0.930 . S
C982 C981 1.372 . S
C982 C983 1.383 . S
C983 C982 1.383 . S
C983 C984 1.395 . S
C984 H948 0.930 . S
C984 C983 1.395 . S
C984 C985 1.362 . S
C985 H949 0.930 . S
C985 C980 1.390 . S
C985 C984 1.362 . S
C986 C975 1.492 . S
C986 C987 1.377 . S
C986 C991 1.397 . S
C987 H950 0.931 . S
C987 C986 1.377 . S
C987 C988 1.376 . S
C988 H951 0.930 . S
C988 C987 1.376 . S
C988 C989 1.376 . S
C989 C988 1.376 . S
C989 C990 1.378 . S
C989 C1016 1.486 . S
C990 H952 0.930 . S
C990 C989 1.378 . S
C990 C991 1.376 . S
C991 H953 0.929 . S
C991 C986 1.397 . S
C991 C990 1.376 . S
C992 C976 1.509 . S
C992 C993 1.391 . S
C992 C997 1.386 . S
C993 H954 0.930 . S
C993 C992 1.391 . S
C993 C994 1.375 . S
C994 H955 0.931 . S
C994 C993 1.375 . S
C994 C995 1.375 . S
C995 C994 1.375 . S
C995 C996 1.361 . S
C996 H956 0.930 . S
C996 C995 1.361 . S
C996 C997 1.399 . S
C997 H957 0.929 . S
C997 C992 1.386 . S
C997 C996 1.399 . S
C998 C977 1.485 . S
C998 C999 1.394 . S
C998 C1003 1.360 . S
C999 H958 0.931 . S
C999 C998 1.394 . S
C999 C1000 1.372 . S
C1000 H959 0.930 . S
C1000 C999 1.372 . S
C1000 C1001 1.397 . S
C1001 C1000 1.397 . S
C1001 C1002 1.390 . S
C1001 C1017 1.476 . S
C1002 H960 0.930 . S
C1002 C1001 1.390 . S
C1002 C1003 1.366 . S
C1003 H961 0.932 . S
C1003 C998 1.360 . S
C1003 C1002 1.366 . S
C1004 C978 1.490 . S
C1004 C1005 1.380 . S
C1004 C1009 1.386 . S
C1005 H962 0.930 . S
C1005 C1004 1.380 . S
C1005 C1006 1.381 . S
C1006 H963 0.929 . S
C1006 C1005 1.381 . S
C1006 C1007 1.371 . S
C1007 C1006 1.371 . S
C1007 C1008 1.380 . S
C1008 H964 0.931 . S
C1008 C1007 1.380 . S
C1008 C1009 1.387 . S
C1009 H965 0.930 . S
C1009 C1004 1.386 . S
C1009 C1008 1.387 . S
C1010 C979 1.519 . S
C1010 C1011 1.377 . S
C1010 C1015 1.361 . S
C1011 H966 0.929 . S
C1011 C1010 1.377 . S
C1011 C1012 1.386 . S
C1012 H967 0.931 . S
C1012 C1011 1.386 . S
C1012 C1013 1.363 . S
C1013 C1012 1.363 . S
C1013 C1014 1.385 . S
C1014 H968 0.930 . S
C1014 C1013 1.385 . S
C1014 C1015 1.396 . S
C1015 H969 0.929 . S
C1015 C1010 1.361 . S
C1015 C1014 1.396 . S
C1016 O970 1.300 . S
C1016 O971 1.209 . S
C1016 C989 1.486 . S
C1017 O972 1.199 . S
C1017 O973 1.297 . S
C1017 C1001 1.476 . S
H1018 O1044 0.840 1_554 S
H1019 O1047 0.854 . S
H1020 C1055 0.930 . S
H1021 C1056 0.930 . S
H1022 C1058 0.930 . S
H1023 C1059 0.930 . S
H1024 C1061 0.931 . S
H1025 C1062 0.930 . S
H1026 C1064 0.930 . S
H1027 C1065 0.929 . S
H1028 C1067 0.930 . S
H1029 C1068 0.931 . S
H1030 C1070 0.930 . S
H1031 C1071 0.929 . S
H1032 C1073 0.931 . S
H1033 C1074 0.930 . S
H1034 C1076 0.930 . S
H1035 C1077 0.932 . S
H1036 C1079 0.930 . S
H1037 C1080 0.929 . S
H1038 C1082 0.931 . S
H1039 C1083 0.930 . S
H1040 C1085 0.929 . S
H1041 C1086 0.931 . S
H1042 C1088 0.930 . S
H1043 C1089 0.929 . S
O1044 H1018 0.840 1_556 S
O1044 C1090 1.312 . S
O1045 C1090 1.209 . S
O1046 C1091 1.199 . S
O1047 H1019 0.854 . S
O1047 C1091 1.297 . S
C1048 C1049 1.404 . S
C1048 C1053 1.397 . S
C1048 C1054 1.492 . S
C1049 C1048 1.404 . S
C1049 C1050 1.396 . S
C1049 C1060 1.492 . S
C1050 C1049 1.396 . S
C1050 C1051 1.397 . S
C1050 C1066 1.509 . S
C1051 C1050 1.397 . S
C1051 C1052 1.412 . S
C1051 C1072 1.485 . S
C1052 C1051 1.412 . S
C1052 C1053 1.388 . S
C1052 C1078 1.490 . S
C1053 C1048 1.397 . S
C1053 C1052 1.388 . S
C1053 C1084 1.519 . S
C1054 C1048 1.492 . S
C1054 C1055 1.363 . S
C1054 C1059 1.390 . S
C1055 H1020 0.930 . S
C1055 C1054 1.363 . S
C1055 C1056 1.372 . S
C1056 H1021 0.930 . S
C1056 C1055 1.372 . S
C1056 C1057 1.383 . S
C1057 C1056 1.383 . S
C1057 C1058 1.395 . S
C1058 H1022 0.930 . S
C1058 C1057 1.395 . S
C1058 C1059 1.362 . S
C1059 H1023 0.930 . S
C1059 C1054 1.390 . S
C1059 C1058 1.362 . S
C1060 C1049 1.492 . S
C1060 C1061 1.377 . S
C1060 C1065 1.397 . S
C1061 H1024 0.931 . S
C1061 C1060 1.377 . S
C1061 C1062 1.376 . S
C1062 H1025 0.930 . S
C1062 C1061 1.376 . S
C1062 C1063 1.376 . S
C1063 C1062 1.376 . S
C1063 C1064 1.378 . S
C1063 C1090 1.486 . S
C1064 H1026 0.930 . S
C1064 C1063 1.378 . S
C1064 C1065 1.376 . S
C1065 H1027 0.929 . S
C1065 C1060 1.397 . S
C1065 C1064 1.376 . S
C1066 C1050 1.509 . S
C1066 C1067 1.391 . S
C1066 C1071 1.386 . S
C1067 H1028 0.930 . S
C1067 C1066 1.391 . S
C1067 C1068 1.375 . S
C1068 H1029 0.931 . S
C1068 C1067 1.375 . S
C1068 C1069 1.375 . S
C1069 C1068 1.375 . S
C1069 C1070 1.361 . S
C1070 H1030 0.930 . S
C1070 C1069 1.361 . S
C1070 C1071 1.399 . S
C1071 H1031 0.929 . S
C1071 C1066 1.386 . S
C1071 C1070 1.399 . S
C1072 C1051 1.485 . S
C1072 C1073 1.394 . S
C1072 C1077 1.360 . S
C1073 H1032 0.931 . S
C1073 C1072 1.394 . S
C1073 C1074 1.372 . S
C1074 H1033 0.930 . S
C1074 C1073 1.372 . S
C1074 C1075 1.397 . S
C1075 C1074 1.397 . S
C1075 C1076 1.390 . S
C1075 C1091 1.476 . S
C1076 H1034 0.930 . S
C1076 C1075 1.390 . S
C1076 C1077 1.366 . S
C1077 H1035 0.932 . S
C1077 C1072 1.360 . S
C1077 C1076 1.366 . S
C1078 C1052 1.490 . S
C1078 C1079 1.380 . S
C1078 C1083 1.386 . S
C1079 H1036 0.930 . S
C1079 C1078 1.380 . S
C1079 C1080 1.381 . S
C1080 H1037 0.929 . S
C1080 C1079 1.381 . S
C1080 C1081 1.371 . S
C1081 C1080 1.371 . S
C1081 C1082 1.380 . S
C1082 H1038 0.931 . S
C1082 C1081 1.380 . S
C1082 C1083 1.387 . S
C1083 H1039 0.930 . S
C1083 C1078 1.386 . S
C1083 C1082 1.387 . S
C1084 C1053 1.519 . S
C1084 C1085 1.377 . S
C1084 C1089 1.361 . S
C1085 H1040 0.929 . S
C1085 C1084 1.377 . S
C1085 C1086 1.386 . S
C1086 H1041 0.931 . S
C1086 C1085 1.386 . S
C1086 C1087 1.363 . S
C1087 C1086 1.363 . S
C1087 C1088 1.385 . S
C1088 H1042 0.930 . S
C1088 C1087 1.385 . S
C1088 C1089 1.396 . S
C1089 H1043 0.929 . S
C1089 C1084 1.361 . S
C1089 C1088 1.396 . S
C1090 O1044 1.312 . S
C1090 O1045 1.209 . S
C1090 C1063 1.486 . S
C1091 O1046 1.199 . S
C1091 O1047 1.297 . S
C1091 C1075 1.476 . S
H1092 O1118 0.856 . S
H1093 O1121 0.854 . S
H1094 C1129 0.930 . S
H1095 C1130 0.930 . S
H1096 C1132 0.930 . S
H1097 C1133 0.930 . S
H1098 C1135 0.931 . S
H1099 C1136 0.930 . S
H1100 C1138 0.930 . S
H1101 C1139 0.929 . S
H1102 C1141 0.930 . S
H1103 C1142 0.931 . S
H1104 C1144 0.930 . S
H1105 C1145 0.929 . S
H1106 C1147 0.931 . S
H1107 C1148 0.930 . S
H1108 C1150 0.930 . S
H1109 C1151 0.932 . S
H1110 C1153 0.930 . S
H1111 C1154 0.929 . S
H1112 C1156 0.931 . S
H1113 C1157 0.930 . S
H1114 C1159 0.929 . S
H1115 C1160 0.931 . S
H1116 C1162 0.930 . S
H1117 C1163 0.929 . S
O1118 H1092 0.856 . S
O1118 C1164 1.300 . S
O1119 C1164 1.209 . S
O1120 C1165 1.199 . S
O1121 H1093 0.854 . S
O1121 C1165 1.297 . S
C1122 C1123 1.404 . S
C1122 C1127 1.397 . S
C1122 C1128 1.492 . S
C1123 C1122 1.404 . S
C1123 C1124 1.396 . S
C1123 C1134 1.492 . S
C1124 C1123 1.396 . S
C1124 C1125 1.397 . S
C1124 C1140 1.509 . S
C1125 C1124 1.397 . S
C1125 C1126 1.412 . S
C1125 C1146 1.485 . S
C1126 C1125 1.412 . S
C1126 C1127 1.388 . S
C1126 C1152 1.490 . S
C1127 C1122 1.397 . S
C1127 C1126 1.388 . S
C1127 C1158 1.519 . S
C1128 C1122 1.492 . S
C1128 C1129 1.363 . S
C1128 C1133 1.390 . S
C1129 H1094 0.930 . S
C1129 C1128 1.363 . S
C1129 C1130 1.372 . S
C1130 H1095 0.930 . S
C1130 C1129 1.372 . S
C1130 C1131 1.383 . S
C1131 C1130 1.383 . S
C1131 C1132 1.395 . S
C1132 H1096 0.930 . S
C1132 C1131 1.395 . S
C1132 C1133 1.362 . S
C1133 H1097 0.930 . S
C1133 C1128 1.390 . S
C1133 C1132 1.362 . S
C1134 C1123 1.492 . S
C1134 C1135 1.377 . S
C1134 C1139 1.397 . S
C1135 H1098 0.931 . S
C1135 C1134 1.377 . S
C1135 C1136 1.376 . S
C1136 H1099 0.930 . S
C1136 C1135 1.376 . S
C1136 C1137 1.376 . S
C1137 C1136 1.376 . S
C1137 C1138 1.378 . S
C1137 C1164 1.486 . S
C1138 H1100 0.930 . S
C1138 C1137 1.378 . S
C1138 C1139 1.376 . S
C1139 H1101 0.929 . S
C1139 C1134 1.397 . S
C1139 C1138 1.376 . S
C1140 C1124 1.509 . S
C1140 C1141 1.391 . S
C1140 C1145 1.386 . S
C1141 H1102 0.930 . S
C1141 C1140 1.391 . S
C1141 C1142 1.375 . S
C1142 H1103 0.931 . S
C1142 C1141 1.375 . S
C1142 C1143 1.375 . S
C1143 C1142 1.375 . S
C1143 C1144 1.361 . S
C1144 H1104 0.930 . S
C1144 C1143 1.361 . S
C1144 C1145 1.399 . S
C1145 H1105 0.929 . S
C1145 C1140 1.386 . S
C1145 C1144 1.399 . S
C1146 C1125 1.485 . S
C1146 C1147 1.394 . S
C1146 C1151 1.360 . S
C1147 H1106 0.931 . S
C1147 C1146 1.394 . S
C1147 C1148 1.372 . S
C1148 H1107 0.930 . S
C1148 C1147 1.372 . S
C1148 C1149 1.397 . S
C1149 C1148 1.397 . S
C1149 C1150 1.390 . S
C1149 C1165 1.476 . S
C1150 H1108 0.930 . S
C1150 C1149 1.390 . S
C1150 C1151 1.366 . S
C1151 H1109 0.932 . S
C1151 C1146 1.360 . S
C1151 C1150 1.366 . S
C1152 C1126 1.490 . S
C1152 C1153 1.380 . S
C1152 C1157 1.386 . S
C1153 H1110 0.930 . S
C1153 C1152 1.380 . S
C1153 C1154 1.381 . S
C1154 H1111 0.929 . S
C1154 C1153 1.381 . S
C1154 C1155 1.371 . S
C1155 C1154 1.371 . S
C1155 C1156 1.380 . S
C1156 H1112 0.931 . S
C1156 C1155 1.380 . S
C1156 C1157 1.387 . S
C1157 H1113 0.930 . S
C1157 C1152 1.386 . S
C1157 C1156 1.387 . S
C1158 C1127 1.519 . S
C1158 C1159 1.377 . S
C1158 C1163 1.361 . S
C1159 H1114 0.929 . S
C1159 C1158 1.377 . S
C1159 C1160 1.386 . S
C1160 H1115 0.931 . S
C1160 C1159 1.386 . S
C1160 C1161 1.363 . S
C1161 C1160 1.363 . S
C1161 C1162 1.385 . S
C1162 H1116 0.930 . S
C1162 C1161 1.385 . S
C1162 C1163 1.396 . S
C1163 H1117 0.929 . S
C1163 C1158 1.361 . S
C1163 C1162 1.396 . S
C1164 O1118 1.300 . S
C1164 O1119 1.209 . S
C1164 C1137 1.486 . S
C1165 O1120 1.199 . S
C1165 O1121 1.297 . S
C1165 C1149 1.476 . S
H1166 O1192 0.856 . S
H1167 O1195 0.854 . S
H1168 C1203 0.930 . S
H1169 C1204 0.930 . S
H1170 C1206 0.930 . S
H1171 C1207 0.930 . S
H1172 C1209 0.931 . S
H1173 C1210 0.930 . S
H1174 C1212 0.930 . S
H1175 C1213 0.929 . S
H1176 C1215 0.930 . S
H1177 C1216 0.931 . S
H1178 C1218 0.930 . S
H1179 C1219 0.929 . S
H1180 C1221 0.931 . S
H1181 C1222 0.930 . S
H1182 C1224 0.930 . S
H1183 C1225 0.932 . S
H1184 C1227 0.930 . S
H1185 C1228 0.929 . S
H1186 C1230 0.931 . S
H1187 C1231 0.930 . S
H1188 C1233 0.929 . S
H1189 C1234 0.931 . S
H1190 C1236 0.930 . S
H1191 C1237 0.929 . S
O1192 H1166 0.856 . S
O1192 C1238 1.300 . S
O1193 C1238 1.209 . S
O1194 C1239 1.199 . S
O1195 H1167 0.854 . S
O1195 C1239 1.297 . S
C1196 C1197 1.404 . S
C1196 C1201 1.397 . S
C1196 C1202 1.492 . S
C1197 C1196 1.404 . S
C1197 C1198 1.396 . S
C1197 C1208 1.492 . S
C1198 C1197 1.396 . S
C1198 C1199 1.397 . S
C1198 C1214 1.509 . S
C1199 C1198 1.397 . S
C1199 C1200 1.412 . S
C1199 C1220 1.485 . S
C1200 C1199 1.412 . S
C1200 C1201 1.388 . S
C1200 C1226 1.490 . S
C1201 C1196 1.397 . S
C1201 C1200 1.388 . S
C1201 C1232 1.519 . S
C1202 C1196 1.492 . S
C1202 C1203 1.363 . S
C1202 C1207 1.390 . S
C1203 H1168 0.930 . S
C1203 C1202 1.363 . S
C1203 C1204 1.372 . S
C1204 H1169 0.930 . S
C1204 C1203 1.372 . S
C1204 C1205 1.383 . S
C1205 C1204 1.383 . S
C1205 C1206 1.395 . S
C1206 H1170 0.930 . S
C1206 C1205 1.395 . S
C1206 C1207 1.362 . S
C1207 H1171 0.930 . S
C1207 C1202 1.390 . S
C1207 C1206 1.362 . S
C1208 C1197 1.492 . S
C1208 C1209 1.377 . S
C1208 C1213 1.397 . S
C1209 H1172 0.931 . S
C1209 C1208 1.377 . S
C1209 C1210 1.376 . S
C1210 H1173 0.930 . S
C1210 C1209 1.376 . S
C1210 C1211 1.376 . S
C1211 C1210 1.376 . S
C1211 C1212 1.378 . S
C1211 C1238 1.486 . S
C1212 H1174 0.930 . S
C1212 C1211 1.378 . S
C1212 C1213 1.376 . S
C1213 H1175 0.929 . S
C1213 C1208 1.397 . S
C1213 C1212 1.376 . S
C1214 C1198 1.509 . S
C1214 C1215 1.391 . S
C1214 C1219 1.386 . S
C1215 H1176 0.930 . S
C1215 C1214 1.391 . S
C1215 C1216 1.375 . S
C1216 H1177 0.931 . S
C1216 C1215 1.375 . S
C1216 C1217 1.375 . S
C1217 C1216 1.375 . S
C1217 C1218 1.361 . S
C1218 H1178 0.930 . S
C1218 C1217 1.361 . S
C1218 C1219 1.399 . S
C1219 H1179 0.929 . S
C1219 C1214 1.386 . S
C1219 C1218 1.399 . S
C1220 C1199 1.485 . S
C1220 C1221 1.394 . S
C1220 C1225 1.360 . S
C1221 H1180 0.931 . S
C1221 C1220 1.394 . S
C1221 C1222 1.372 . S
C1222 H1181 0.930 . S
C1222 C1221 1.372 . S
C1222 C1223 1.397 . S
C1223 C1222 1.397 . S
C1223 C1224 1.390 . S
C1223 C1239 1.476 . S
C1224 H1182 0.930 . S
C1224 C1223 1.390 . S
C1224 C1225 1.366 . S
C1225 H1183 0.932 . S
C1225 C1220 1.360 . S
C1225 C1224 1.366 . S
C1226 C1200 1.490 . S
C1226 C1227 1.380 . S
C1226 C1231 1.386 . S
C1227 H1184 0.930 . S
C1227 C1226 1.380 . S
C1227 C1228 1.381 . S
C1228 H1185 0.929 . S
C1228 C1227 1.381 . S
C1228 C1229 1.371 . S
C1229 C1228 1.371 . S
C1229 C1230 1.380 . S
C1230 H1186 0.931 . S
C1230 C1229 1.380 . S
C1230 C1231 1.387 . S
C1231 H1187 0.930 . S
C1231 C1226 1.386 . S
C1231 C1230 1.387 . S
C1232 C1201 1.519 . S
C1232 C1233 1.377 . S
C1232 C1237 1.361 . S
C1233 H1188 0.929 . S
C1233 C1232 1.377 . S
C1233 C1234 1.386 . S
C1234 H1189 0.931 . S
C1234 C1233 1.386 . S
C1234 C1235 1.363 . S
C1235 C1234 1.363 . S
C1235 C1236 1.385 . S
C1236 H1190 0.930 . S
C1236 C1235 1.385 . S
C1236 C1237 1.396 . S
C1237 H1191 0.929 . S
C1237 C1232 1.361 . S
C1237 C1236 1.396 . S
C1238 O1192 1.300 . S
C1238 O1193 1.209 . S
C1238 C1211 1.486 . S
C1239 O1194 1.199 . S
C1239 O1195 1.297 . S
C1239 C1223 1.476 . S
H1240 O1266 0.856 . S
H1241 O1269 0.854 . S
H1242 C1277 0.930 . S
H1243 C1278 0.930 . S
H1244 C1280 0.930 . S
H1245 C1281 0.930 . S
H1246 C1283 0.931 . S
H1247 C1284 0.930 . S
H1248 C1286 0.930 . S
H1249 C1287 0.929 . S
H1250 C1289 0.930 . S
H1251 C1290 0.931 . S
H1252 C1292 0.930 . S
H1253 C1293 0.929 . S
H1254 C1295 0.931 . S
H1255 C1296 0.930 . S
H1256 C1298 0.930 . S
H1257 C1299 0.932 . S
H1258 C1301 0.930 . S
H1259 C1302 0.929 . S
H1260 C1304 0.931 . S
H1261 C1305 0.930 . S
H1262 C1307 0.929 . S
H1263 C1308 0.931 . S
H1264 C1310 0.930 . S
H1265 C1311 0.929 . S
O1266 H1240 0.856 . S
O1266 C1312 1.300 . S
O1267 C1312 1.209 . S
O1268 C1313 1.199 . S
O1269 H1241 0.854 . S
O1269 C1313 1.297 . S
C1270 C1271 1.404 . S
C1270 C1275 1.397 . S
C1270 C1276 1.492 . S
C1271 C1270 1.404 . S
C1271 C1272 1.396 . S
C1271 C1282 1.492 . S
C1272 C1271 1.396 . S
C1272 C1273 1.397 . S
C1272 C1288 1.509 . S
C1273 C1272 1.397 . S
C1273 C1274 1.412 . S
C1273 C1294 1.485 . S
C1274 C1273 1.412 . S
C1274 C1275 1.388 . S
C1274 C1300 1.490 . S
C1275 C1270 1.397 . S
C1275 C1274 1.388 . S
C1275 C1306 1.519 . S
C1276 C1270 1.492 . S
C1276 C1277 1.363 . S
C1276 C1281 1.390 . S
C1277 H1242 0.930 . S
C1277 C1276 1.363 . S
C1277 C1278 1.372 . S
C1278 H1243 0.930 . S
C1278 C1277 1.372 . S
C1278 C1279 1.383 . S
C1279 C1278 1.383 . S
C1279 C1280 1.395 . S
C1280 H1244 0.930 . S
C1280 C1279 1.395 . S
C1280 C1281 1.362 . S
C1281 H1245 0.930 . S
C1281 C1276 1.390 . S
C1281 C1280 1.362 . S
C1282 C1271 1.492 . S
C1282 C1283 1.377 . S
C1282 C1287 1.397 . S
C1283 H1246 0.931 . S
C1283 C1282 1.377 . S
C1283 C1284 1.376 . S
C1284 H1247 0.930 . S
C1284 C1283 1.376 . S
C1284 C1285 1.376 . S
C1285 C1284 1.376 . S
C1285 C1286 1.378 . S
C1285 C1312 1.486 . S
C1286 H1248 0.930 . S
C1286 C1285 1.378 . S
C1286 C1287 1.376 . S
C1287 H1249 0.929 . S
C1287 C1282 1.397 . S
C1287 C1286 1.376 . S
C1288 C1272 1.509 . S
C1288 C1289 1.391 . S
C1288 C1293 1.386 . S
C1289 H1250 0.930 . S
C1289 C1288 1.391 . S
C1289 C1290 1.375 . S
C1290 H1251 0.931 . S
C1290 C1289 1.375 . S
C1290 C1291 1.375 . S
C1291 C1290 1.375 . S
C1291 C1292 1.361 . S
C1292 H1252 0.930 . S
C1292 C1291 1.361 . S
C1292 C1293 1.399 . S
C1293 H1253 0.929 . S
C1293 C1288 1.386 . S
C1293 C1292 1.399 . S
C1294 C1273 1.485 . S
C1294 C1295 1.394 . S
C1294 C1299 1.360 . S
C1295 H1254 0.931 . S
C1295 C1294 1.394 . S
C1295 C1296 1.372 . S
C1296 H1255 0.930 . S
C1296 C1295 1.372 . S
C1296 C1297 1.397 . S
C1297 C1296 1.397 . S
C1297 C1298 1.390 . S
C1297 C1313 1.476 . S
C1298 H1256 0.930 . S
C1298 C1297 1.390 . S
C1298 C1299 1.366 . S
C1299 H1257 0.932 . S
C1299 C1294 1.360 . S
C1299 C1298 1.366 . S
C1300 C1274 1.490 . S
C1300 C1301 1.380 . S
C1300 C1305 1.386 . S
C1301 H1258 0.930 . S
C1301 C1300 1.380 . S
C1301 C1302 1.381 . S
C1302 H1259 0.929 . S
C1302 C1301 1.381 . S
C1302 C1303 1.371 . S
C1303 C1302 1.371 . S
C1303 C1304 1.380 . S
C1304 H1260 0.931 . S
C1304 C1303 1.380 . S
C1304 C1305 1.387 . S
C1305 H1261 0.930 . S
C1305 C1300 1.386 . S
C1305 C1304 1.387 . S
C1306 C1275 1.519 . S
C1306 C1307 1.377 . S
C1306 C1311 1.361 . S
C1307 H1262 0.929 . S
C1307 C1306 1.377 . S
C1307 C1308 1.386 . S
C1308 H1263 0.931 . S
C1308 C1307 1.386 . S
C1308 C1309 1.363 . S
C1309 C1308 1.363 . S
C1309 C1310 1.385 . S
C1310 H1264 0.930 . S
C1310 C1309 1.385 . S
C1310 C1311 1.396 . S
C1311 H1265 0.929 . S
C1311 C1306 1.361 . S
C1311 C1310 1.396 . S
C1312 O1266 1.300 . S
C1312 O1267 1.209 . S
C1312 C1285 1.486 . S
C1313 O1268 1.199 . S
C1313 O1269 1.297 . S
C1313 C1297 1.476 . S
H1314 O1340 0.856 . S
H1315 O1343 0.854 . S
H1316 C1351 0.930 . S
H1317 C1352 0.930 . S
H1318 C1354 0.930 . S
H1319 C1355 0.930 . S
H1320 C1357 0.931 . S
H1321 C1358 0.923 1_655 S
H1322 C1360 0.930 . S
H1323 C1361 0.929 . S
H1324 C1363 0.930 . S
H1325 C1364 0.937 . S
H1326 C1366 0.930 . S
H1327 C1367 0.929 . S
H1328 C1369 0.931 . S
H1329 C1370 0.930 . S
H1330 C1372 0.930 . S
H1331 C1373 0.932 . S
H1332 C1375 0.930 . S
H1333 C1376 0.929 . S
H1334 C1378 0.931 . S
H1335 C1379 0.930 . S
H1336 C1381 0.929 . S
H1337 C1382 0.931 . S
H1338 C1384 0.930 . S
H1339 C1385 0.929 . S
O1340 H1314 0.856 . S
O1340 C1386 1.300 . S
O1341 C1386 1.209 . S
O1342 C1387 1.199 1_655 S
O1343 H1315 0.854 . S
O1343 C1387 1.297 . S
C1344 C1345 1.404 . S
C1344 C1349 1.394 . S
C1344 C1350 1.492 . S
C1345 C1344 1.404 . S
C1345 C1346 1.396 . S
C1345 C1356 1.492 . S
C1346 C1345 1.396 . S
C1346 C1347 1.397 . S
C1346 C1362 1.509 . S
C1347 C1346 1.397 . S
C1347 C1348 1.421 . S
C1347 C1368 1.485 . S
C1348 C1347 1.421 . S
C1348 C1349 1.404 . S
C1348 C1374 1.491 1_455 S
C1349 C1344 1.394 . S
C1349 C1348 1.404 . S
C1349 C1380 1.498 1_455 S
C1350 C1344 1.492 . S
C1350 C1351 1.363 1_455 S
C1350 C1355 1.390 . S
C1351 H1316 0.930 . S
C1351 C1350 1.363 1_655 S
C1351 C1352 1.372 . S
C1352 H1317 0.930 . S
C1352 C1351 1.372 . S
C1352 C1353 1.383 . S
C1353 C1352 1.383 . S
C1353 C1354 1.395 1_655 S
C1354 H1318 0.930 . S
C1354 C1353 1.395 1_455 S
C1354 C1355 1.362 . S
C1355 H1319 0.930 . S
C1355 C1350 1.390 . S
C1355 C1354 1.362 . S
C1356 C1345 1.492 . S
C1356 C1357 1.377 1_455 S
C1356 C1361 1.397 . S
C1357 H1320 0.931 . S
C1357 C1356 1.377 1_655 S
C1357 C1358 1.377 1_655 S
C1358 H1321 0.923 1_455 S
C1358 C1357 1.377 1_455 S
C1358 C1359 1.382 . S
C1359 C1358 1.382 . S
C1359 C1360 1.378 . S
C1359 C1386 1.486 . S
C1360 H1322 0.930 . S
C1360 C1359 1.378 . S
C1360 C1361 1.376 . S
C1361 H1323 0.929 . S
C1361 C1356 1.397 . S
C1361 C1360 1.376 . S
C1362 C1346 1.509 . S
C1362 C1363 1.391 1_455 S
C1362 C1367 1.386 . S
C1363 H1324 0.930 . S
C1363 C1362 1.391 1_655 S
C1363 C1364 1.383 . S
C1364 H1325 0.937 . S
C1364 C1363 1.383 . S
C1364 C1365 1.361 1_655 S
C1365 C1364 1.361 1_455 S
C1365 C1366 1.361 . S
C1366 H1326 0.930 . S
C1366 C1365 1.361 . S
C1366 C1367 1.399 . S
C1367 H1327 0.929 . S
C1367 C1362 1.386 . S
C1367 C1366 1.399 . S
C1368 C1347 1.485 . S
C1368 C1369 1.394 1_455 S
C1368 C1373 1.360 . S
C1369 H1328 0.931 . S
C1369 C1368 1.394 1_655 S
C1369 C1370 1.372 . S
C1370 H1329 0.930 . S
C1370 C1369 1.372 . S
C1370 C1371 1.397 1_655 S
C1371 C1370 1.397 1_455 S
C1371 C1372 1.390 . S
C1371 C1387 1.476 . S
C1372 H1330 0.930 . S
C1372 C1371 1.390 . S
C1372 C1373 1.366 . S
C1373 H1331 0.932 . S
C1373 C1368 1.360 . S
C1373 C1372 1.366 . S
C1374 C1348 1.491 1_655 S
C1374 C1375 1.380 . S
C1374 C1379 1.386 1_655 S
C1375 H1332 0.930 . S
C1375 C1374 1.380 . S
C1375 C1376 1.381 . S
C1376 H1333 0.929 . S
C1376 C1375 1.381 . S
C1376 C1377 1.371 . S
C1377 C1376 1.371 . S
C1377 C1378 1.380 1_655 S
C1378 H1334 0.931 . S
C1378 C1377 1.380 1_455 S
C1378 C1379 1.387 . S
C1379 H1335 0.930 . S
C1379 C1374 1.386 1_455 S
C1379 C1378 1.387 . S
C1380 C1349 1.498 1_655 S
C1380 C1381 1.387 . S
C1380 C1385 1.354 1_655 S
C1381 H1336 0.929 . S
C1381 C1380 1.387 . S
C1381 C1382 1.386 . S
C1382 H1337 0.931 . S
C1382 C1381 1.386 . S
C1382 C1383 1.354 1_655 S
C1383 C1382 1.354 1_455 S
C1383 C1384 1.399 . S
C1384 H1338 0.930 . S
C1384 C1383 1.399 . S
C1384 C1385 1.396 . S
C1385 H1339 0.929 . S
C1385 C1380 1.354 1_455 S
C1385 C1384 1.396 . S
C1386 O1340 1.300 . S
C1386 O1341 1.209 . S
C1386 C1359 1.486 . S
C1387 O1342 1.199 1_455 S
C1387 O1343 1.297 . S
C1387 C1371 1.476 . S
H1388 O1414 0.856 . S
H1389 O1417 0.854 . S
H1390 C1425 0.930 . S
H1391 C1426 0.930 . S
H1392 C1428 0.930 . S
H1393 C1429 0.930 . S
H1394 C1431 0.931 . S
H1395 C1432 0.930 . S
H1396 C1434 0.930 . S
H1397 C1435 0.929 . S
H1398 C1437 0.930 . S
H1399 C1438 0.931 . S
H1400 C1440 0.930 . S
H1401 C1441 0.929 . S
H1402 C1443 0.931 . S
H1403 C1444 0.930 . S
H1404 C1446 0.930 . S
H1405 C1447 0.932 . S
H1406 C1449 0.930 . S
H1407 C1450 0.929 . S
H1408 C1452 0.931 . S
H1409 C1453 0.930 . S
H1410 C1455 0.929 . S
H1411 C1456 0.931 . S
H1412 C1458 0.930 . S
H1413 C1459 0.929 . S
O1414 H1388 0.856 . S
O1414 C1460 1.300 . S
O1415 C1460 1.209 . S
O1416 C1461 1.199 . S
O1417 H1389 0.854 . S
O1417 C1461 1.297 . S
C1418 C1419 1.404 . S
C1418 C1423 1.397 . S
C1418 C1424 1.492 . S
C1419 C1418 1.404 . S
C1419 C1420 1.396 . S
C1419 C1430 1.492 . S
C1420 C1419 1.396 . S
C1420 C1421 1.397 . S
C1420 C1436 1.509 . S
C1421 C1420 1.397 . S
C1421 C1422 1.412 . S
C1421 C1442 1.485 . S
C1422 C1421 1.412 . S
C1422 C1423 1.388 . S
C1422 C1448 1.490 . S
C1423 C1418 1.397 . S
C1423 C1422 1.388 . S
C1423 C1454 1.519 . S
C1424 C1418 1.492 . S
C1424 C1425 1.363 . S
C1424 C1429 1.390 . S
C1425 H1390 0.930 . S
C1425 C1424 1.363 . S
C1425 C1426 1.372 . S
C1426 H1391 0.930 . S
C1426 C1425 1.372 . S
C1426 C1427 1.383 . S
C1427 C1426 1.383 . S
C1427 C1428 1.395 . S
C1428 H1392 0.930 . S
C1428 C1427 1.395 . S
C1428 C1429 1.362 . S
C1429 H1393 0.930 . S
C1429 C1424 1.390 . S
C1429 C1428 1.362 . S
C1430 C1419 1.492 . S
C1430 C1431 1.377 . S
C1430 C1435 1.397 . S
C1431 H1394 0.931 . S
C1431 C1430 1.377 . S
C1431 C1432 1.376 . S
C1432 H1395 0.930 . S
C1432 C1431 1.376 . S
C1432 C1433 1.376 . S
C1433 C1432 1.376 . S
C1433 C1434 1.378 . S
C1433 C1460 1.486 . S
C1434 H1396 0.930 . S
C1434 C1433 1.378 . S
C1434 C1435 1.376 . S
C1435 H1397 0.929 . S
C1435 C1430 1.397 . S
C1435 C1434 1.376 . S
C1436 C1420 1.509 . S
C1436 C1437 1.391 . S
C1436 C1441 1.386 . S
C1437 H1398 0.930 . S
C1437 C1436 1.391 . S
C1437 C1438 1.375 . S
C1438 H1399 0.931 . S
C1438 C1437 1.375 . S
C1438 C1439 1.375 . S
C1439 C1438 1.375 . S
C1439 C1440 1.361 . S
C1440 H1400 0.930 . S
C1440 C1439 1.361 . S
C1440 C1441 1.399 . S
C1441 H1401 0.929 . S
C1441 C1436 1.386 . S
C1441 C1440 1.399 . S
C1442 C1421 1.485 . S
C1442 C1443 1.394 . S
C1442 C1447 1.360 . S
C1443 H1402 0.931 . S
C1443 C1442 1.394 . S
C1443 C1444 1.372 . S
C1444 H1403 0.930 . S
C1444 C1443 1.372 . S
C1444 C1445 1.397 . S
C1445 C1444 1.397 . S
C1445 C1446 1.390 . S
C1445 C1461 1.476 . S
C1446 H1404 0.930 . S
C1446 C1445 1.390 . S
C1446 C1447 1.366 . S
C1447 H1405 0.932 . S
C1447 C1442 1.360 . S
C1447 C1446 1.366 . S
C1448 C1422 1.490 . S
C1448 C1449 1.380 . S
C1448 C1453 1.386 . S
C1449 H1406 0.930 . S
C1449 C1448 1.380 . S
C1449 C1450 1.381 . S
C1450 H1407 0.929 . S
C1450 C1449 1.381 . S
C1450 C1451 1.371 . S
C1451 C1450 1.371 . S
C1451 C1452 1.380 . S
C1452 H1408 0.931 . S
C1452 C1451 1.380 . S
C1452 C1453 1.387 . S
C1453 H1409 0.930 . S
C1453 C1448 1.386 . S
C1453 C1452 1.387 . S
C1454 C1423 1.519 . S
C1454 C1455 1.377 . S
C1454 C1459 1.361 . S
C1455 H1410 0.929 . S
C1455 C1454 1.377 . S
C1455 C1456 1.386 . S
C1456 H1411 0.931 . S
C1456 C1455 1.386 . S
C1456 C1457 1.363 . S
C1457 C1456 1.363 . S
C1457 C1458 1.385 . S
C1458 H1412 0.930 . S
C1458 C1457 1.385 . S
C1458 C1459 1.396 . S
C1459 H1413 0.929 . S
C1459 C1454 1.361 . S
C1459 C1458 1.396 . S
C1460 O1414 1.300 . S
C1460 O1415 1.209 . S
C1460 C1433 1.486 . S
C1461 O1416 1.199 . S
C1461 O1417 1.297 . S
C1461 C1445 1.476 . S
H1462 O1488 0.856 . S
H1463 O1491 0.854 . S
H1464 C1499 0.930 . S
H1465 C1500 0.930 . S
H1466 C1502 0.930 . S
H1467 C1503 0.930 . S
H1468 C1505 0.931 . S
H1469 C1506 0.960 . S
H1470 C1508 0.930 . S
H1471 C1509 0.929 . S
H1472 C1511 0.930 . S
H1473 C1512 1.006 . S
H1474 C1514 0.930 . S
H1475 C1515 0.929 . S
H1476 C1517 0.931 . S
H1477 C1518 0.930 . S
H1478 C1520 0.930 . S
H1479 C1521 0.932 . S
H1480 C1523 0.930 . S
H1481 C1524 0.929 . S
H1482 C1526 0.931 . S
H1483 C1527 0.930 . S
H1484 C1529 0.929 . S
H1485 C1530 0.931 . S
H1486 C1532 0.930 . S
H1487 C1533 0.929 . S
O1488 H1462 0.856 . S
O1488 C1534 1.300 . S
O1489 C1534 1.209 . S
O1490 C1535 1.199 1_545 S
O1491 H1463 0.854 . S
O1491 C1535 1.297 . S
C1492 C1493 1.404 . S
C1492 C1497 1.412 . S
C1492 C1498 1.492 . S
C1493 C1492 1.404 . S
C1493 C1494 1.396 . S
C1493 C1504 1.492 . S
C1494 C1493 1.396 . S
C1494 C1495 1.397 . S
C1494 C1510 1.509 . S
C1495 C1494 1.397 . S
C1495 C1496 1.409 . S
C1495 C1516 1.485 . S
C1496 C1495 1.409 . S
C1496 C1497 1.374 . S
C1496 C1522 1.484 1_565 S
C1497 C1492 1.412 . S
C1497 C1496 1.374 . S
C1497 C1528 1.533 1_565 S
C1498 C1492 1.492 . S
C1498 C1499 1.363 1_565 S
C1498 C1503 1.390 . S
C1499 H1464 0.930 . S
C1499 C1498 1.363 1_545 S
C1499 C1500 1.372 . S
C1500 H1465 0.930 . S
C1500 C1499 1.372 . S
C1500 C1501 1.383 . S
C1501 C1500 1.383 . S
C1501 C1502 1.395 1_545 S
C1502 H1466 0.930 . S
C1502 C1501 1.395 1_565 S
C1502 C1503 1.362 . S
C1503 H1467 0.930 . S
C1503 C1498 1.390 . S
C1503 C1502 1.362 . S
C1504 C1493 1.492 . S
C1504 C1505 1.377 1_565 S
C1504 C1509 1.397 . S
C1505 H1468 0.931 . S
C1505 C1504 1.377 1_545 S
C1505 C1506 1.390 . S
C1506 H1469 0.960 . S
C1506 C1505 1.390 . S
C1506 C1507 1.333 1_545 S
C1507 C1506 1.333 1_565 S
C1507 C1508 1.378 . S
C1507 C1534 1.486 . S
C1508 H1470 0.930 . S
C1508 C1507 1.378 . S
C1508 C1509 1.376 . S
C1509 H1471 0.929 . S
C1509 C1504 1.397 . S
C1509 C1508 1.376 . S
C1510 C1494 1.509 . S
C1510 C1511 1.391 1_565 S
C1510 C1515 1.386 . S
C1511 H1472 0.930 . S
C1511 C1510 1.391 1_545 S
C1511 C1512 1.365 . S
C1512 H1473 1.006 . S
C1512 C1511 1.365 . S
C1512 C1513 1.316 1_545 S
C1513 C1512 1.316 1_565 S
C1513 C1514 1.361 . S
C1514 H1474 0.930 . S
C1514 C1513 1.361 . S
C1514 C1515 1.399 . S
C1515 H1475 0.929 . S
C1515 C1510 1.386 . S
C1515 C1514 1.399 . S
C1516 C1495 1.485 . S
C1516 C1517 1.394 1_565 S
C1516 C1521 1.360 . S
C1517 H1476 0.931 . S
C1517 C1516 1.394 1_545 S
C1517 C1518 1.372 . S
C1518 H1477 0.930 . S
C1518 C1517 1.372 . S
C1518 C1519 1.397 1_545 S
C1519 C1518 1.397 1_565 S
C1519 C1520 1.390 . S
C1519 C1535 1.476 . S
C1520 H1478 0.930 . S
C1520 C1519 1.390 . S
C1520 C1521 1.366 . S
C1521 H1479 0.932 . S
C1521 C1516 1.360 . S
C1521 C1520 1.366 . S
C1522 C1496 1.484 1_545 S
C1522 C1523 1.380 . S
C1522 C1527 1.386 1_545 S
C1523 H1480 0.930 . S
C1523 C1522 1.380 . S
C1523 C1524 1.381 . S
C1524 H1481 0.929 . S
C1524 C1523 1.381 . S
C1524 C1525 1.371 . S
C1525 C1524 1.371 . S
C1525 C1526 1.380 1_545 S
C1526 H1482 0.931 . S
C1526 C1525 1.380 1_565 S
C1526 C1527 1.387 . S
C1527 H1483 0.930 . S
C1527 C1522 1.386 1_565 S
C1527 C1526 1.387 . S
C1528 C1497 1.533 1_545 S
C1528 C1529 1.376 . S
C1528 C1533 1.363 1_545 S
C1529 H1484 0.929 . S
C1529 C1528 1.376 . S
C1529 C1530 1.386 . S
C1530 H1485 0.931 . S
C1530 C1529 1.386 . S
C1530 C1531 1.324 1_545 S
C1531 C1530 1.324 1_565 S
C1531 C1532 1.406 . S
C1532 H1486 0.930 . S
C1532 C1531 1.406 . S
C1532 C1533 1.396 . S
C1533 H1487 0.929 . S
C1533 C1528 1.363 1_565 S
C1533 C1532 1.396 . S
C1534 O1488 1.300 . S
C1534 O1489 1.209 . S
C1534 C1507 1.486 . S
C1535 O1490 1.199 1_565 S
C1535 O1491 1.297 . S
C1535 C1519 1.476 . S
H1536 O1562 0.856 . S
H1537 O1565 0.854 . S
H1538 C1573 0.930 . S
H1539 C1574 0.930 . S
H1540 C1576 0.930 . S
H1541 C1577 0.930 . S
H1542 C1579 0.931 . S
H1543 C1580 0.930 . S
H1544 C1582 0.930 . S
H1545 C1583 0.929 . S
H1546 C1585 0.930 . S
H1547 C1586 0.931 . S
H1548 C1588 0.930 . S
H1549 C1589 0.929 . S
H1550 C1591 0.931 . S
H1551 C1592 0.930 . S
H1552 C1594 0.930 . S
H1553 C1595 0.932 . S
H1554 C1597 0.930 . S
H1555 C1598 0.929 . S
H1556 C1600 0.931 . S
H1557 C1601 0.930 . S
H1558 C1603 0.929 . S
H1559 C1604 0.931 . S
H1560 C1606 0.930 . S
H1561 C1607 0.929 . S
O1562 H1536 0.856 . S
O1562 C1608 1.300 . S
O1563 C1608 1.209 1_565 S
O1564 C1609 1.199 1_545 S
O1565 H1537 0.854 . S
O1565 C1609 1.297 . S
C1566 C1567 1.380 . S
C1566 C1571 1.380 1_545 S
C1566 C1572 1.543 . S
C1567 C1566 1.380 . S
C1567 C1568 1.426 . S
C1567 C1578 1.492 . S
C1568 C1567 1.426 . S
C1568 C1569 1.384 1_545 S
C1568 C1584 1.504 . S
C1569 C1568 1.384 1_565 S
C1569 C1570 1.416 . S
C1569 C1590 1.446 . S
C1570 C1569 1.416 . S
C1570 C1571 1.376 . S
C1570 C1596 1.491 . S
C1571 C1566 1.380 1_565 S
C1571 C1570 1.376 . S
C1571 C1602 1.520 . S
C1572 C1566 1.543 . S
C1572 C1573 1.363 . S
C1572 C1577 1.390 1_545 S
C1573 H1538 0.930 . S
C1573 C1572 1.363 . S
C1573 C1574 1.372 . S
C1574 H1539 0.930 . S
C1574 C1573 1.372 . S
C1574 C1575 1.383 . S
C1575 C1574 1.383 . S
C1575 C1576 1.395 1_545 S
C1576 H1540 0.930 . S
C1576 C1575 1.395 1_565 S
C1576 C1577 1.362 . S
C1577 H1541 0.930 . S
C1577 C1572 1.390 1_565 S
C1577 C1576 1.362 . S
C1578 C1567 1.492 . S
C1578 C1579 1.377 . S
C1578 C1583 1.397 1_545 S
C1579 H1542 0.931 . S
C1579 C1578 1.377 . S
C1579 C1580 1.376 . S
C1580 H1543 0.930 . S
C1580 C1579 1.376 . S
C1580 C1581 1.376 . S
C1581 C1580 1.376 . S
C1581 C1582 1.378 1_545 S
C1581 C1608 1.486 . S
C1582 H1544 0.930 . S
C1582 C1581 1.378 1_565 S
C1582 C1583 1.376 . S
C1583 H1545 0.929 . S
C1583 C1578 1.397 1_565 S
C1583 C1582 1.376 . S
C1584 C1568 1.504 . S
C1584 C1585 1.409 . S
C1584 C1589 1.357 1_545 S
C1585 H1546 0.930 . S
C1585 C1584 1.409 . S
C1585 C1586 1.375 . S
C1586 H1547 0.931 . S
C1586 C1585 1.375 . S
C1586 C1587 1.377 . S
C1587 C1586 1.377 . S
C1587 C1588 1.360 1_545 S
C1588 H1548 0.930 . S
C1588 C1587 1.360 1_565 S
C1588 C1589 1.399 . S
C1589 H1549 0.929 . S
C1589 C1584 1.357 1_565 S
C1589 C1588 1.399 . S
C1590 C1569 1.446 . S
C1590 C1591 1.362 1_565 S
C1590 C1595 1.441 . S
C1591 H1550 0.931 . S
C1591 C1590 1.362 1_545 S
C1591 C1592 1.372 . S
C1592 H1551 0.930 . S
C1592 C1591 1.372 . S
C1592 C1593 1.397 1_545 S
C1593 C1592 1.397 1_565 S
C1593 C1594 1.390 . S
C1593 C1609 1.476 . S
C1594 H1552 0.930 . S
C1594 C1593 1.390 . S
C1594 C1595 1.366 . S
C1595 H1553 0.932 . S
C1595 C1590 1.441 . S
C1595 C1594 1.366 . S
C1596 C1570 1.491 . S
C1596 C1597 1.369 1_565 S
C1596 C1601 1.399 . S
C1597 H1554 0.930 . S
C1597 C1596 1.369 1_545 S
C1597 C1598 1.381 . S
C1598 H1555 0.929 . S
C1598 C1597 1.381 . S
C1598 C1599 1.448 . S
C1599 C1598 1.448 . S
C1599 C1600 1.316 1_545 S
C1600 H1556 0.931 . S
C1600 C1599 1.316 1_565 S
C1600 C1601 1.387 . S
C1601 H1557 0.930 . S
C1601 C1596 1.399 . S
C1601 C1600 1.387 . S
C1602 C1571 1.520 . S
C1602 C1603 1.377 1_565 S
C1602 C1607 1.361 . S
C1603 H1558 0.929 . S
C1603 C1602 1.377 1_545 S
C1603 C1604 1.386 . S
C1604 H1559 0.931 . S
C1604 C1603 1.386 . S
C1604 C1605 1.363 1_545 S
C1605 C1604 1.363 1_565 S
C1605 C1606 1.385 . S
C1606 H1560 0.930 . S
C1606 C1605 1.385 . S
C1606 C1607 1.396 . S
C1607 H1561 0.929 . S
C1607 C1602 1.361 . S
C1607 C1606 1.396 . S
C1608 O1562 1.300 . S
C1608 O1563 1.209 1_545 S
C1608 C1581 1.486 . S
C1609 O1564 1.199 1_565 S
C1609 O1565 1.297 . S
C1609 C1593 1.476 . S
H1610 O1636 0.856 . S
H1611 O1639 0.854 . S
H1612 C1647 0.930 . S
H1613 C1648 0.930 . S
H1614 C1650 0.930 . S
H1615 C1651 0.930 . S
H1616 C1653 0.931 . S
H1617 C1654 0.930 . S
H1618 C1656 0.930 . S
H1619 C1657 0.929 . S
H1620 C1659 0.930 . S
H1621 C1660 0.931 . S
H1622 C1662 0.930 . S
H1623 C1663 0.929 . S
H1624 C1665 0.931 . S
H1625 C1666 0.930 . S
H1626 C1668 0.930 . S
H1627 C1669 0.932 . S
H1628 C1671 0.930 . S
H1629 C1672 0.929 . S
H1630 C1674 0.931 . S
H1631 C1675 0.930 . S
H1632 C1677 0.929 . S
H1633 C1678 0.931 . S
H1634 C1680 0.930 . S
H1635 C1681 0.929 . S
O1636 H1610 0.856 . S
O1636 C1682 1.300 . S
O1637 C1682 1.209 1_455 S
O1638 C1683 1.199 1_655 S
O1639 H1611 0.854 . S
O1639 C1683 1.297 . S
C1640 C1641 1.404 . S
C1640 C1645 1.396 1_655 S
C1640 C1646 1.492 . S
C1641 C1640 1.404 . S
C1641 C1642 1.396 . S
C1641 C1652 1.492 . S
C1642 C1641 1.396 . S
C1642 C1643 1.398 1_655 S
C1642 C1658 1.509 . S
C1643 C1642 1.398 1_455 S
C1643 C1644 1.397 . S
C1643 C1664 1.484 . S
C1644 C1643 1.397 . S
C1644 C1645 1.416 . S
C1644 C1670 1.484 . S
C1645 C1640 1.396 1_455 S
C1645 C1644 1.416 . S
C1645 C1676 1.515 . S
C1646 C1640 1.492 . S
C1646 C1647 1.363 . S
C1646 C1651 1.390 1_655 S
C1647 H1612 0.930 . S
C1647 C1646 1.363 . S
C1647 C1648 1.372 . S
C1648 H1613 0.930 . S
C1648 C1647 1.372 . S
C1648 C1649 1.383 . S
C1649 C1648 1.383 . S
C1649 C1650 1.395 1_655 S
C1650 H1614 0.930 . S
C1650 C1649 1.395 1_455 S
C1650 C1651 1.362 . S
C1651 H1615 0.930 . S
C1651 C1646 1.390 1_455 S
C1651 C1650 1.362 . S
C1652 C1641 1.492 . S
C1652 C1653 1.377 . S
C1652 C1657 1.397 1_655 S
C1653 H1616 0.931 . S
C1653 C1652 1.377 . S
C1653 C1654 1.376 . S
C1654 H1617 0.930 . S
C1654 C1653 1.376 . S
C1654 C1655 1.376 . S
C1655 C1654 1.376 . S
C1655 C1656 1.378 1_655 S
C1655 C1682 1.486 . S
C1656 H1618 0.930 . S
C1656 C1655 1.378 1_455 S
C1656 C1657 1.376 . S
C1657 H1619 0.929 . S
C1657 C1652 1.397 1_455 S
C1657 C1656 1.376 . S
C1658 C1642 1.509 . S
C1658 C1659 1.391 . S
C1658 C1663 1.386 1_655 S
C1659 H1620 0.930 . S
C1659 C1658 1.391 . S
C1659 C1660 1.375 . S
C1660 H1621 0.931 . S
C1660 C1659 1.375 . S
C1660 C1661 1.375 . S
C1661 C1660 1.375 . S
C1661 C1662 1.361 1_655 S
C1662 H1622 0.930 . S
C1662 C1661 1.361 1_455 S
C1662 C1663 1.399 . S
C1663 H1623 0.929 . S
C1663 C1658 1.386 1_455 S
C1663 C1662 1.399 . S
C1664 C1643 1.484 . S
C1664 C1665 1.394 1_455 S
C1664 C1669 1.360 . S
C1665 H1624 0.931 . S
C1665 C1664 1.394 1_655 S
C1665 C1666 1.372 . S
C1666 H1625 0.930 . S
C1666 C1665 1.372 . S
C1666 C1667 1.397 1_655 S
C1667 C1666 1.397 1_455 S
C1667 C1668 1.390 . S
C1667 C1683 1.476 . S
C1668 H1626 0.930 . S
C1668 C1667 1.390 . S
C1668 C1669 1.366 . S
C1669 H1627 0.932 . S
C1669 C1664 1.360 . S
C1669 C1668 1.366 . S
C1670 C1644 1.484 . S
C1670 C1671 1.380 1_455 S
C1670 C1675 1.386 . S
C1671 H1628 0.930 . S
C1671 C1670 1.380 1_655 S
C1671 C1672 1.381 . S
C1672 H1629 0.929 . S
C1672 C1671 1.381 . S
C1672 C1673 1.371 1_655 S
C1673 C1672 1.371 1_455 S
C1673 C1674 1.380 . S
C1674 H1630 0.931 . S
C1674 C1673 1.380 . S
C1674 C1675 1.387 . S
C1675 H1631 0.930 . S
C1675 C1670 1.386 . S
C1675 C1674 1.387 . S
C1676 C1645 1.515 . S
C1676 C1677 1.377 1_455 S
C1676 C1681 1.361 . S
C1677 H1632 0.929 . S
C1677 C1676 1.377 1_655 S
C1677 C1678 1.386 . S
C1678 H1633 0.931 . S
C1678 C1677 1.386 . S
C1678 C1679 1.363 1_655 S
C1679 C1678 1.363 1_455 S
C1679 C1680 1.385 . S
C1680 H1634 0.930 . S
C1680 C1679 1.385 . S
C1680 C1681 1.396 . S
C1681 H1635 0.929 . S
C1681 C1676 1.361 . S
C1681 C1680 1.396 . S
C1682 O1636 1.300 . S
C1682 O1637 1.209 1_655 S
C1682 C1655 1.486 . S
C1683 O1638 1.199 1_455 S
C1683 O1639 1.297 . S
C1683 C1667 1.476 . S
H1684 O1710 0.856 . S
H1685 O1713 0.854 . S
H1686 C1721 0.930 . S
H1687 C1722 0.930 . S
H1688 C1724 0.930 . S
H1689 C1725 0.930 . S
H1690 C1727 0.931 . S
H1691 C1728 0.930 . S
H1692 C1730 0.930 . S
H1693 C1731 0.929 . S
H1694 C1733 0.930 . S
H1695 C1734 0.931 . S
H1696 C1736 0.930 . S
H1697 C1737 0.929 . S
H1698 C1739 0.931 . S
H1699 C1740 0.930 . S
H1700 C1742 0.930 . S
H1701 C1743 0.932 . S
H1702 C1745 0.930 . S
H1703 C1746 0.929 . S
H1704 C1748 0.931 . S
H1705 C1749 0.930 . S
H1706 C1751 0.929 . S
H1707 C1752 0.931 . S
H1708 C1754 0.930 . S
H1709 C1755 0.929 . S
O1710 H1684 0.856 . S
O1710 C1756 1.300 . S
O1711 C1756 1.209 . S
O1712 C1757 1.199 . S
O1713 H1685 0.854 . S
O1713 C1757 1.297 . S
C1714 C1715 1.404 . S
C1714 C1719 1.397 . S
C1714 C1720 1.492 . S
C1715 C1714 1.404 . S
C1715 C1716 1.396 . S
C1715 C1726 1.492 . S
C1716 C1715 1.396 . S
C1716 C1717 1.397 . S
C1716 C1732 1.509 . S
C1717 C1716 1.397 . S
C1717 C1718 1.412 . S
C1717 C1738 1.485 . S
C1718 C1717 1.412 . S
C1718 C1719 1.388 . S
C1718 C1744 1.490 . S
C1719 C1714 1.397 . S
C1719 C1718 1.388 . S
C1719 C1750 1.519 . S
C1720 C1714 1.492 . S
C1720 C1721 1.363 . S
C1720 C1725 1.390 . S
C1721 H1686 0.930 . S
C1721 C1720 1.363 . S
C1721 C1722 1.372 . S
C1722 H1687 0.930 . S
C1722 C1721 1.372 . S
C1722 C1723 1.383 . S
C1723 C1722 1.383 . S
C1723 C1724 1.395 . S
C1724 H1688 0.930 . S
C1724 C1723 1.395 . S
C1724 C1725 1.362 . S
C1725 H1689 0.930 . S
C1725 C1720 1.390 . S
C1725 C1724 1.362 . S
C1726 C1715 1.492 . S
C1726 C1727 1.377 . S
C1726 C1731 1.397 . S
C1727 H1690 0.931 . S
C1727 C1726 1.377 . S
C1727 C1728 1.376 . S
C1728 H1691 0.930 . S
C1728 C1727 1.376 . S
C1728 C1729 1.376 . S
C1729 C1728 1.376 . S
C1729 C1730 1.378 . S
C1729 C1756 1.486 . S
C1730 H1692 0.930 . S
C1730 C1729 1.378 . S
C1730 C1731 1.376 . S
C1731 H1693 0.929 . S
C1731 C1726 1.397 . S
C1731 C1730 1.376 . S
C1732 C1716 1.509 . S
C1732 C1733 1.391 . S
C1732 C1737 1.386 . S
C1733 H1694 0.930 . S
C1733 C1732 1.391 . S
C1733 C1734 1.375 . S
C1734 H1695 0.931 . S
C1734 C1733 1.375 . S
C1734 C1735 1.375 . S
C1735 C1734 1.375 . S
C1735 C1736 1.361 . S
C1736 H1696 0.930 . S
C1736 C1735 1.361 . S
C1736 C1737 1.399 . S
C1737 H1697 0.929 . S
C1737 C1732 1.386 . S
C1737 C1736 1.399 . S
C1738 C1717 1.485 . S
C1738 C1739 1.394 . S
C1738 C1743 1.360 . S
C1739 H1698 0.931 . S
C1739 C1738 1.394 . S
C1739 C1740 1.372 . S
C1740 H1699 0.930 . S
C1740 C1739 1.372 . S
C1740 C1741 1.397 . S
C1741 C1740 1.397 . S
C1741 C1742 1.390 . S
C1741 C1757 1.476 . S
C1742 H1700 0.930 . S
C1742 C1741 1.390 . S
C1742 C1743 1.366 . S
C1743 H1701 0.932 . S
C1743 C1738 1.360 . S
C1743 C1742 1.366 . S
C1744 C1718 1.490 . S
C1744 C1745 1.380 . S
C1744 C1749 1.386 . S
C1745 H1702 0.930 . S
C1745 C1744 1.380 . S
C1745 C1746 1.381 . S
C1746 H1703 0.929 . S
C1746 C1745 1.381 . S
C1746 C1747 1.371 . S
C1747 C1746 1.371 . S
C1747 C1748 1.380 . S
C1748 H1704 0.931 . S
C1748 C1747 1.380 . S
C1748 C1749 1.387 . S
C1749 H1705 0.930 . S
C1749 C1744 1.386 . S
C1749 C1748 1.387 . S
C1750 C1719 1.519 . S
C1750 C1751 1.377 . S
C1750 C1755 1.361 . S
C1751 H1706 0.929 . S
C1751 C1750 1.377 . S
C1751 C1752 1.386 . S
C1752 H1707 0.931 . S
C1752 C1751 1.386 . S
C1752 C1753 1.363 . S
C1753 C1752 1.363 . S
C1753 C1754 1.385 . S
C1754 H1708 0.930 . S
C1754 C1753 1.385 . S
C1754 C1755 1.396 . S
C1755 H1709 0.929 . S
C1755 C1750 1.361 . S
C1755 C1754 1.396 . S
C1756 O1710 1.300 . S
C1756 O1711 1.209 . S
C1756 C1729 1.486 . S
C1757 O1712 1.199 . S
C1757 O1713 1.297 . S
C1757 C1741 1.476 . S
H1758 O1784 0.856 . S
H1759 O1787 0.854 . S
H1760 C1795 0.930 . S
H1761 C1796 0.930 . S
H1762 C1798 0.930 . S
H1763 C1799 0.930 . S
H1764 C1801 0.931 . S
H1765 C1802 0.930 . S
H1766 C1804 0.930 . S
H1767 C1805 0.929 . S
H1768 C1807 0.930 . S
H1769 C1808 0.931 . S
H1770 C1810 0.930 . S
H1771 C1811 0.929 . S
H1772 C1813 0.931 . S
H1773 C1814 0.930 . S
H1774 C1816 0.930 . S
H1775 C1817 0.932 . S
H1776 C1819 0.930 . S
H1777 C1820 0.929 . S
H1778 C1822 0.931 . S
H1779 C1823 0.930 . S
H1780 C1825 0.929 . S
H1781 C1826 0.931 . S
H1782 C1828 0.930 . S
H1783 C1829 0.929 . S
O1784 H1758 0.856 . S
O1784 C1830 1.300 . S
O1785 C1830 1.209 . S
O1786 C1831 1.199 . S
O1787 H1759 0.854 . S
O1787 C1831 1.297 . S
C1788 C1789 1.404 . S
C1788 C1793 1.397 . S
C1788 C1794 1.492 . S
C1789 C1788 1.404 . S
C1789 C1790 1.396 . S
C1789 C1800 1.492 . S
C1790 C1789 1.396 . S
C1790 C1791 1.397 . S
C1790 C1806 1.509 . S
C1791 C1790 1.397 . S
C1791 C1792 1.412 . S
C1791 C1812 1.485 . S
C1792 C1791 1.412 . S
C1792 C1793 1.388 . S
C1792 C1818 1.490 . S
C1793 C1788 1.397 . S
C1793 C1792 1.388 . S
C1793 C1824 1.519 . S
C1794 C1788 1.492 . S
C1794 C1795 1.363 . S
C1794 C1799 1.390 . S
C1795 H1760 0.930 . S
C1795 C1794 1.363 . S
C1795 C1796 1.372 . S
C1796 H1761 0.930 . S
C1796 C1795 1.372 . S
C1796 C1797 1.383 . S
C1797 C1796 1.383 . S
C1797 C1798 1.395 . S
C1798 H1762 0.930 . S
C1798 C1797 1.395 . S
C1798 C1799 1.362 . S
C1799 H1763 0.930 . S
C1799 C1794 1.390 . S
C1799 C1798 1.362 . S
C1800 C1789 1.492 . S
C1800 C1801 1.377 . S
C1800 C1805 1.397 . S
C1801 H1764 0.931 . S
C1801 C1800 1.377 . S
C1801 C1802 1.376 . S
C1802 H1765 0.930 . S
C1802 C1801 1.376 . S
C1802 C1803 1.376 . S
C1803 C1802 1.376 . S
C1803 C1804 1.378 . S
C1803 C1830 1.486 . S
C1804 H1766 0.930 . S
C1804 C1803 1.378 . S
C1804 C1805 1.376 . S
C1805 H1767 0.929 . S
C1805 C1800 1.397 . S
C1805 C1804 1.376 . S
C1806 C1790 1.509 . S
C1806 C1807 1.391 . S
C1806 C1811 1.386 . S
C1807 H1768 0.930 . S
C1807 C1806 1.391 . S
C1807 C1808 1.375 . S
C1808 H1769 0.931 . S
C1808 C1807 1.375 . S
C1808 C1809 1.375 . S
C1809 C1808 1.375 . S
C1809 C1810 1.361 . S
C1810 H1770 0.930 . S
C1810 C1809 1.361 . S
C1810 C1811 1.399 . S
C1811 H1771 0.929 . S
C1811 C1806 1.386 . S
C1811 C1810 1.399 . S
C1812 C1791 1.485 . S
C1812 C1813 1.394 . S
C1812 C1817 1.360 . S
C1813 H1772 0.931 . S
C1813 C1812 1.394 . S
C1813 C1814 1.372 . S
C1814 H1773 0.930 . S
C1814 C1813 1.372 . S
C1814 C1815 1.397 . S
C1815 C1814 1.397 . S
C1815 C1816 1.390 . S
C1815 C1831 1.476 . S
C1816 H1774 0.930 . S
C1816 C1815 1.390 . S
C1816 C1817 1.366 . S
C1817 H1775 0.932 . S
C1817 C1812 1.360 . S
C1817 C1816 1.366 . S
C1818 C1792 1.490 . S
C1818 C1819 1.380 . S
C1818 C1823 1.386 . S
C1819 H1776 0.930 . S
C1819 C1818 1.380 . S
C1819 C1820 1.381 . S
C1820 H1777 0.929 . S
C1820 C1819 1.381 . S
C1820 C1821 1.371 . S
C1821 C1820 1.371 . S
C1821 C1822 1.380 . S
C1822 H1778 0.931 . S
C1822 C1821 1.380 . S
C1822 C1823 1.387 . S
C1823 H1779 0.930 . S
C1823 C1818 1.386 . S
C1823 C1822 1.387 . S
C1824 C1793 1.519 . S
C1824 C1825 1.377 . S
C1824 C1829 1.361 . S
C1825 H1780 0.929 . S
C1825 C1824 1.377 . S
C1825 C1826 1.386 . S
C1826 H1781 0.931 . S
C1826 C1825 1.386 . S
C1826 C1827 1.363 . S
C1827 C1826 1.363 . S
C1827 C1828 1.385 . S
C1828 H1782 0.930 . S
C1828 C1827 1.385 . S
C1828 C1829 1.396 . S
C1829 H1783 0.929 . S
C1829 C1824 1.361 . S
C1829 C1828 1.396 . S
C1830 O1784 1.300 . S
C1830 O1785 1.209 . S
C1830 C1803 1.486 . S
C1831 O1786 1.199 . S
C1831 O1787 1.297 . S
C1831 C1815 1.476 . S
H1832 O1858 0.856 . S
H1833 O1861 0.854 . S
H1834 C1869 0.930 . S
H1835 C1870 0.930 . S
H1836 C1872 0.930 . S
H1837 C1873 0.930 . S
H1838 C1875 0.931 . S
H1839 C1876 0.930 . S
H1840 C1878 0.930 . S
H1841 C1879 0.929 . S
H1842 C1881 0.930 . S
H1843 C1882 0.931 . S
H1844 C1884 0.930 . S
H1845 C1885 0.929 . S
H1846 C1887 0.931 . S
H1847 C1888 0.930 . S
H1848 C1890 0.930 . S
H1849 C1891 0.932 . S
H1850 C1893 0.930 . S
H1851 C1894 0.929 . S
H1852 C1896 0.931 . S
H1853 C1897 0.930 . S
H1854 C1899 0.929 . S
H1855 C1900 0.931 . S
H1856 C1902 0.930 . S
H1857 C1903 0.929 . S
O1858 H1832 0.856 . S
O1858 C1904 1.300 . S
O1859 C1904 1.209 . S
O1860 C1905 1.199 . S
O1861 H1833 0.854 . S
O1861 C1905 1.297 . S
C1862 C1863 1.404 . S
C1862 C1867 1.397 . S
C1862 C1868 1.492 . S
C1863 C1862 1.404 . S
C1863 C1864 1.396 . S
C1863 C1874 1.492 . S
C1864 C1863 1.396 . S
C1864 C1865 1.397 . S
C1864 C1880 1.509 . S
C1865 C1864 1.397 . S
C1865 C1866 1.412 . S
C1865 C1886 1.485 . S
C1866 C1865 1.412 . S
C1866 C1867 1.388 . S
C1866 C1892 1.490 . S
C1867 C1862 1.397 . S
C1867 C1866 1.388 . S
C1867 C1898 1.519 . S
C1868 C1862 1.492 . S
C1868 C1869 1.363 . S
C1868 C1873 1.390 . S
C1869 H1834 0.930 . S
C1869 C1868 1.363 . S
C1869 C1870 1.372 . S
C1870 H1835 0.930 . S
C1870 C1869 1.372 . S
C1870 C1871 1.383 . S
C1871 C1870 1.383 . S
C1871 C1872 1.395 . S
C1872 H1836 0.930 . S
C1872 C1871 1.395 . S
C1872 C1873 1.362 . S
C1873 H1837 0.930 . S
C1873 C1868 1.390 . S
C1873 C1872 1.362 . S
C1874 C1863 1.492 . S
C1874 C1875 1.377 . S
C1874 C1879 1.397 . S
C1875 H1838 0.931 . S
C1875 C1874 1.377 . S
C1875 C1876 1.376 . S
C1876 H1839 0.930 . S
C1876 C1875 1.376 . S
C1876 C1877 1.376 . S
C1877 C1876 1.376 . S
C1877 C1878 1.378 . S
C1877 C1904 1.486 . S
C1878 H1840 0.930 . S
C1878 C1877 1.378 . S
C1878 C1879 1.376 . S
C1879 H1841 0.929 . S
C1879 C1874 1.397 . S
C1879 C1878 1.376 . S
C1880 C1864 1.509 . S
C1880 C1881 1.391 . S
C1880 C1885 1.386 . S
C1881 H1842 0.930 . S
C1881 C1880 1.391 . S
C1881 C1882 1.375 . S
C1882 H1843 0.931 . S
C1882 C1881 1.375 . S
C1882 C1883 1.375 . S
C1883 C1882 1.375 . S
C1883 C1884 1.361 . S
C1884 H1844 0.930 . S
C1884 C1883 1.361 . S
C1884 C1885 1.399 . S
C1885 H1845 0.929 . S
C1885 C1880 1.386 . S
C1885 C1884 1.399 . S
C1886 C1865 1.485 . S
C1886 C1887 1.394 . S
C1886 C1891 1.360 . S
C1887 H1846 0.931 . S
C1887 C1886 1.394 . S
C1887 C1888 1.372 . S
C1888 H1847 0.930 . S
C1888 C1887 1.372 . S
C1888 C1889 1.397 . S
C1889 C1888 1.397 . S
C1889 C1890 1.390 . S
C1889 C1905 1.476 . S
C1890 H1848 0.930 . S
C1890 C1889 1.390 . S
C1890 C1891 1.366 . S
C1891 H1849 0.932 . S
C1891 C1886 1.360 . S
C1891 C1890 1.366 . S
C1892 C1866 1.490 . S
C1892 C1893 1.380 . S
C1892 C1897 1.386 . S
C1893 H1850 0.930 . S
C1893 C1892 1.380 . S
C1893 C1894 1.381 . S
C1894 H1851 0.929 . S
C1894 C1893 1.381 . S
C1894 C1895 1.371 . S
C1895 C1894 1.371 . S
C1895 C1896 1.380 . S
C1896 H1852 0.931 . S
C1896 C1895 1.380 . S
C1896 C1897 1.387 . S
C1897 H1853 0.930 . S
C1897 C1892 1.386 . S
C1897 C1896 1.387 . S
C1898 C1867 1.519 . S
C1898 C1899 1.377 . S
C1898 C1903 1.361 . S
C1899 H1854 0.929 . S
C1899 C1898 1.377 . S
C1899 C1900 1.386 . S
C1900 H1855 0.931 . S
C1900 C1899 1.386 . S
C1900 C1901 1.363 . S
C1901 C1900 1.363 . S
C1901 C1902 1.385 . S
C1902 H1856 0.930 . S
C1902 C1901 1.385 . S
C1902 C1903 1.396 . S
C1903 H1857 0.929 . S
C1903 C1898 1.361 . S
C1903 C1902 1.396 . S
C1904 O1858 1.300 . S
C1904 O1859 1.209 . S
C1904 C1877 1.486 . S
C1905 O1860 1.199 . S
C1905 O1861 1.297 . S
C1905 C1889 1.476 . S
H1906 O1932 0.856 . S
H1907 O1935 0.854 . S
H1908 C1943 0.930 . S
H1909 C1944 0.930 . S
H1910 C1946 0.930 . S
H1911 C1947 0.930 . S
H1912 C1949 0.931 . S
H1913 C1950 0.930 . S
H1914 C1952 0.930 . S
H1915 C1953 0.929 . S
H1916 C1955 0.930 . S
H1917 C1956 0.931 . S
H1918 C1958 0.930 . S
H1919 C1959 0.929 . S
H1920 C1961 0.931 . S
H1921 C1962 0.930 . S
H1922 C1964 0.930 . S
H1923 C1965 0.932 . S
H1924 C1967 0.930 . S
H1925 C1968 0.929 . S
H1926 C1970 0.931 . S
H1927 C1971 0.930 . S
H1928 C1973 0.929 . S
H1929 C1974 0.931 . S
H1930 C1976 0.930 . S
H1931 C1977 0.929 . S
O1932 H1906 0.856 . S
O1932 C1978 1.300 . S
O1933 C1978 1.209 . S
O1934 C1979 1.199 . S
O1935 H1907 0.854 . S
O1935 C1979 1.297 . S
C1936 C1937 1.404 . S
C1936 C1941 1.397 . S
C1936 C1942 1.492 . S
C1937 C1936 1.404 . S
C1937 C1938 1.396 . S
C1937 C1948 1.492 . S
C1938 C1937 1.396 . S
C1938 C1939 1.397 . S
C1938 C1954 1.509 . S
C1939 C1938 1.397 . S
C1939 C1940 1.412 . S
C1939 C1960 1.485 . S
C1940 C1939 1.412 . S
C1940 C1941 1.388 . S
C1940 C1966 1.490 . S
C1941 C1936 1.397 . S
C1941 C1940 1.388 . S
C1941 C1972 1.519 . S
C1942 C1936 1.492 . S
C1942 C1943 1.363 . S
C1942 C1947 1.390 . S
C1943 H1908 0.930 . S
C1943 C1942 1.363 . S
C1943 C1944 1.372 . S
C1944 H1909 0.930 . S
C1944 C1943 1.372 . S
C1944 C1945 1.383 . S
C1945 C1944 1.383 . S
C1945 C1946 1.395 . S
C1946 H1910 0.930 . S
C1946 C1945 1.395 . S
C1946 C1947 1.362 . S
C1947 H1911 0.930 . S
C1947 C1942 1.390 . S
C1947 C1946 1.362 . S
C1948 C1937 1.492 . S
C1948 C1949 1.377 . S
C1948 C1953 1.397 . S
C1949 H1912 0.931 . S
C1949 C1948 1.377 . S
C1949 C1950 1.376 . S
C1950 H1913 0.930 . S
C1950 C1949 1.376 . S
C1950 C1951 1.376 . S
C1951 C1950 1.376 . S
C1951 C1952 1.378 . S
C1951 C1978 1.486 . S
C1952 H1914 0.930 . S
C1952 C1951 1.378 . S
C1952 C1953 1.376 . S
C1953 H1915 0.929 . S
C1953 C1948 1.397 . S
C1953 C1952 1.376 . S
C1954 C1938 1.509 . S
C1954 C1955 1.391 . S
C1954 C1959 1.386 . S
C1955 H1916 0.930 . S
C1955 C1954 1.391 . S
C1955 C1956 1.375 . S
C1956 H1917 0.931 . S
C1956 C1955 1.375 . S
C1956 C1957 1.375 . S
C1957 C1956 1.375 . S
C1957 C1958 1.361 . S
C1958 H1918 0.930 . S
C1958 C1957 1.361 . S
C1958 C1959 1.399 . S
C1959 H1919 0.929 . S
C1959 C1954 1.386 . S
C1959 C1958 1.399 . S
C1960 C1939 1.485 . S
C1960 C1961 1.394 . S
C1960 C1965 1.360 . S
C1961 H1920 0.931 . S
C1961 C1960 1.394 . S
C1961 C1962 1.372 . S
C1962 H1921 0.930 . S
C1962 C1961 1.372 . S
C1962 C1963 1.397 . S
C1963 C1962 1.397 . S
C1963 C1964 1.390 . S
C1963 C1979 1.476 . S
C1964 H1922 0.930 . S
C1964 C1963 1.390 . S
C1964 C1965 1.366 . S
C1965 H1923 0.932 . S
C1965 C1960 1.360 . S
C1965 C1964 1.366 . S
C1966 C1940 1.490 . S
C1966 C1967 1.380 . S
C1966 C1971 1.386 . S
C1967 H1924 0.930 . S
C1967 C1966 1.380 . S
C1967 C1968 1.381 . S
C1968 H1925 0.929 . S
C1968 C1967 1.381 . S
C1968 C1969 1.371 . S
C1969 C1968 1.371 . S
C1969 C1970 1.380 . S
C1970 H1926 0.931 . S
C1970 C1969 1.380 . S
C1970 C1971 1.387 . S
C1971 H1927 0.930 . S
C1971 C1966 1.386 . S
C1971 C1970 1.387 . S
C1972 C1941 1.519 . S
C1972 C1973 1.377 . S
C1972 C1977 1.361 . S
C1973 H1928 0.929 . S
C1973 C1972 1.377 . S
C1973 C1974 1.386 . S
C1974 H1929 0.931 . S
C1974 C1973 1.386 . S
C1974 C1975 1.363 . S
C1975 C1974 1.363 . S
C1975 C1976 1.385 . S
C1976 H1930 0.930 . S
C1976 C1975 1.385 . S
C1976 C1977 1.396 . S
C1977 H1931 0.929 . S
C1977 C1972 1.361 . S
C1977 C1976 1.396 . S
C1978 O1932 1.300 . S
C1978 O1933 1.209 . S
C1978 C1951 1.486 . S
C1979 O1934 1.199 . S
C1979 O1935 1.297 . S
C1979 C1963 1.476 . S
H1980 C1998 0.951 . S
H1981 C2000 0.951 . S
H1982 C2002 0.950 . S
H1983 C2003 0.950 . S
H1984 C2005 0.950 . S
H1985 C2008 0.950 . S
H1986 C2009 0.950 . S
H1987 C2011 0.950 . S
H1988 C2012 0.950 . S
H1989 C2013 0.951 . S
H1990 C2015 0.951 . S
H1991 C2017 0.950 1_455 S
H1992 C2018 0.956 1_455 S
H1993 C2020 0.950 . S
H1994 C2023 0.950 . S
H1995 C2024 0.950 . S
H1996 C2026 0.950 . S
H1997 C2027 0.950 . S
C1998 H1980 0.951 . S
C1998 C1999 1.371 1_455 S
C1998 C2000 1.388 . S
C1999 C1998 1.371 1_655 S
C1999 C2003 1.425 . S
C2000 H1981 0.951 . S
C2000 C1998 1.388 . S
C2000 C2001 1.366 1_455 S
C2001 C2000 1.366 1_655 S
C2001 C2002 1.414 . S
C2001 C2004 1.499 . S
C2002 H1982 0.950 . S
C2002 C2001 1.414 . S
C2002 C2003 1.374 . S
C2003 H1983 0.950 . S
C2003 C1999 1.425 . S
C2003 C2002 1.374 . S
C2004 C2001 1.499 . S
C2004 C2005 1.373 . S
C2004 C2006 1.389 1_655 S
C2005 H1984 0.950 . S
C2005 C2004 1.373 . S
C2005 C2021 1.377 . S
C2006 C2004 1.389 1_455 S
C2006 C2007 1.524 . S
C2006 C2020 1.377 . S
C2007 C2006 1.524 . S
C2007 C2008 1.397 . S
C2007 C2012 1.363 . S
C2008 H1985 0.950 . S
C2008 C2007 1.397 . S
C2008 C2009 1.334 . S
C2009 H1986 0.950 . S
C2009 C2008 1.334 . S
C2009 C2010 1.287 . S
C2010 C2009 1.287 . S
C2010 C2011 1.524 . S
C2010 H2029 0.913 . S
C2011 H1987 0.950 . S
C2011 C2010 1.524 . S
C2011 C2012 1.415 . S
C2012 H1988 0.950 . S
C2012 C2007 1.363 . S
C2012 C2011 1.415 . S
C2013 H1989 0.951 . S
C2013 C2014 1.366 . S
C2013 C2015 1.388 . S
C2014 C2013 1.366 . S
C2014 C2018 1.385 . S
C2015 H1990 0.951 . S
C2015 C2013 1.388 . S
C2015 C2016 1.366 . S
C2016 C2015 1.366 . S
C2016 C2017 1.414 . S
C2016 C2019 1.499 . S
C2017 H1991 0.950 1_655 S
C2017 C2016 1.414 . S
C2017 C2018 1.374 . S
C2018 H1992 0.956 1_655 S
C2018 C2014 1.385 . S
C2018 C2017 1.374 . S
C2019 C2016 1.499 . S
C2019 C2020 1.373 1_655 S
C2019 C2021 1.389 . S
C2020 H1993 0.950 . S
C2020 C2006 1.377 . S
C2020 C2019 1.373 1_455 S
C2021 C2005 1.377 . S
C2021 C2019 1.389 . S
C2021 C2022 1.524 . S
C2022 C2021 1.524 . S
C2022 C2023 1.397 . S
C2022 C2027 1.363 . S
C2023 H1994 0.950 . S
C2023 C2022 1.397 . S
C2023 C2024 1.334 . S
C2024 H1995 0.950 . S
C2024 C2023 1.334 . S
C2024 C2025 1.287 . S
C2025 C2024 1.287 . S
C2025 C2026 1.524 . S
C2025 H2028 0.999 . S
C2026 H1996 0.950 . S
C2026 C2025 1.524 . S
C2026 C2027 1.415 . S
C2027 H1997 0.950 . S
C2027 C2022 1.363 . S
C2027 C2026 1.415 . S
H2028 C2025 0.999 . S
H2029 C2010 0.913 . S
H2030 C2048 0.951 . S
H2031 C2050 0.951 . S
H2032 C2052 0.950 . S
H2033 C2053 0.950 . S
H2034 C2055 0.950 . S
H2035 C2058 0.950 . S
H2036 C2059 0.950 . S
H2037 C2061 0.950 . S
H2038 C2062 0.950 . S
H2039 C2063 0.951 . S
H2040 C2065 0.951 . S
H2041 C2067 0.950 . S
H2042 C2068 0.950 . S
H2043 C2070 0.950 . S
H2044 C2073 0.950 . S
H2045 C2074 0.950 . S
H2046 C2076 0.950 . S
H2047 C2077 0.950 . S
C2048 H2030 0.951 . S
C2048 C2049 1.366 . S
C2048 C2050 1.388 . S
C2049 C2048 1.366 . S
C2049 C2053 1.385 . S
C2050 H2031 0.951 . S
C2050 C2048 1.388 . S
C2050 C2051 1.366 . S
C2051 C2050 1.366 . S
C2051 C2052 1.414 . S
C2051 C2054 1.499 . S
C2052 H2032 0.950 . S
C2052 C2051 1.414 . S
C2052 C2053 1.374 . S
C2053 H2033 0.950 . S
C2053 C2049 1.385 . S
C2053 C2052 1.374 . S
C2054 C2051 1.499 . S
C2054 C2055 1.373 . S
C2054 C2056 1.389 . S
C2055 H2034 0.950 . S
C2055 C2054 1.373 . S
C2055 C2071 1.377 . S
C2056 C2054 1.389 . S
C2056 C2057 1.524 . S
C2056 C2070 1.377 . S
C2057 C2056 1.524 . S
C2057 C2058 1.397 . S
C2057 C2062 1.363 . S
C2058 H2035 0.950 . S
C2058 C2057 1.397 . S
C2058 C2059 1.334 . S
C2059 H2036 0.950 . S
C2059 C2058 1.334 . S
C2059 C2060 1.287 . S
C2060 C2059 1.287 . S
C2060 C2061 1.524 . S
C2060 H2079 0.913 . S
C2061 H2037 0.950 . S
C2061 C2060 1.524 . S
C2061 C2062 1.415 . S
C2062 H2038 0.950 . S
C2062 C2057 1.363 . S
C2062 C2061 1.415 . S
C2063 H2039 0.951 . S
C2063 C2064 1.366 . S
C2063 C2065 1.388 . S
C2064 C2063 1.366 . S
C2064 C2068 1.385 . S
C2065 H2040 0.951 . S
C2065 C2063 1.388 . S
C2065 C2066 1.366 . S
C2066 C2065 1.366 . S
C2066 C2067 1.414 . S
C2066 C2069 1.499 . S
C2067 H2041 0.950 . S
C2067 C2066 1.414 . S
C2067 C2068 1.374 . S
C2068 H2042 0.950 . S
C2068 C2064 1.385 . S
C2068 C2067 1.374 . S
C2069 C2066 1.499 . S
C2069 C2070 1.373 . S
C2069 C2071 1.389 . S
C2070 H2043 0.950 . S
C2070 C2056 1.377 . S
C2070 C2069 1.373 . S
C2071 C2055 1.377 . S
C2071 C2069 1.389 . S
C2071 C2072 1.524 . S
C2072 C2071 1.524 . S
C2072 C2073 1.397 . S
C2072 C2077 1.363 . S
C2073 H2044 0.950 . S
C2073 C2072 1.397 . S
C2073 C2074 1.334 . S
C2074 H2045 0.950 . S
C2074 C2073 1.334 . S
C2074 C2075 1.287 . S
C2075 C2074 1.287 . S
C2075 C2076 1.524 . S
C2075 H2078 0.999 . S
C2076 H2046 0.950 . S
C2076 C2075 1.524 . S
C2076 C2077 1.415 . S
C2077 H2047 0.950 . S
C2077 C2072 1.363 . S
C2077 C2076 1.415 . S
H2078 C2075 0.999 . S
H2079 C2060 0.913 . S
H2080 C2098 1.002 . S
H2081 C2100 0.993 . S
H2082 C2102 0.950 . S
H2083 C2103 0.950 . S
H2084 C2105 0.950 . S
H2085 C2108 0.950 . S
H2086 C2109 0.950 . S
H2087 C2111 0.950 . S
H2088 C2112 0.950 . S
H2089 C2113 0.951 . S
H2090 C2115 0.951 . S
H2091 C2117 0.950 1_565 S
H2092 C2118 0.950 1_565 S
H2093 C2120 0.950 . S
H2094 C2123 0.950 . S
H2095 C2124 0.950 . S
H2096 C2126 0.950 . S
H2097 C2127 0.950 . S
C2098 H2080 1.002 . S
C2098 C2099 1.293 1_565 S
C2098 C2100 1.399 . S
C2099 C2098 1.293 1_545 S
C2099 C2103 1.385 . S
C2100 H2081 0.993 . S
C2100 C2098 1.399 . S
C2100 C2101 1.340 1_565 S
C2101 C2100 1.340 1_545 S
C2101 C2102 1.414 . S
C2101 C2104 1.499 . S
C2102 H2082 0.950 . S
C2102 C2101 1.414 . S
C2102 C2103 1.374 . S
C2103 H2083 0.950 . S
C2103 C2099 1.385 . S
C2103 C2102 1.374 . S
C2104 C2101 1.499 . S
C2104 C2105 1.373 . S
C2104 C2106 1.389 1_545 S
C2105 H2084 0.950 . S
C2105 C2104 1.373 . S
C2105 C2121 1.377 . S
C2106 C2104 1.389 1_565 S
C2106 C2107 1.524 . S
C2106 C2120 1.377 . S
C2107 C2106 1.524 . S
C2107 C2108 1.397 . S
C2107 C2112 1.363 . S
C2108 H2085 0.950 . S
C2108 C2107 1.397 . S
C2108 C2109 1.334 . S
C2109 H2086 0.950 . S
C2109 C2108 1.334 . S
C2109 C2110 1.287 . S
C2110 C2109 1.287 . S
C2110 C2111 1.524 . S
C2110 H2129 0.913 . S
C2111 H2087 0.950 . S
C2111 C2110 1.524 . S
C2111 C2112 1.415 . S
C2112 H2088 0.950 . S
C2112 C2107 1.363 . S
C2112 C2111 1.415 . S
C2113 H2089 0.951 . S
C2113 C2114 1.366 . S
C2113 C2115 1.388 . S
C2114 C2113 1.366 . S
C2114 C2118 1.385 . S
C2115 H2090 0.951 . S
C2115 C2113 1.388 . S
C2115 C2116 1.366 . S
C2116 C2115 1.366 . S
C2116 C2117 1.414 . S
C2116 C2119 1.499 . S
C2117 H2091 0.950 1_545 S
C2117 C2116 1.414 . S
C2117 C2118 1.374 . S
C2118 H2092 0.950 1_545 S
C2118 C2114 1.385 . S
C2118 C2117 1.374 . S
C2119 C2116 1.499 . S
C2119 C2120 1.373 1_545 S
C2119 C2121 1.389 . S
C2120 H2093 0.950 . S
C2120 C2106 1.377 . S
C2120 C2119 1.373 1_565 S
C2121 C2105 1.377 . S
C2121 C2119 1.389 . S
C2121 C2122 1.524 . S
C2122 C2121 1.524 . S
C2122 C2123 1.397 . S
C2122 C2127 1.363 . S
C2123 H2094 0.950 . S
C2123 C2122 1.397 . S
C2123 C2124 1.334 . S
C2124 H2095 0.950 . S
C2124 C2123 1.334 . S
C2124 C2125 1.287 . S
C2125 C2124 1.287 . S
C2125 C2126 1.524 . S
C2125 H2128 0.999 . S
C2126 H2096 0.950 . S
C2126 C2125 1.524 . S
C2126 C2127 1.415 . S
C2127 H2097 0.950 . S
C2127 C2122 1.363 . S
C2127 C2126 1.415 . S
H2128 C2125 0.999 . S
H2129 C2110 0.913 . S
H2130 C2148 0.951 . S
H2131 C2150 0.951 . S
H2132 C2152 0.950 . S
H2133 C2153 0.950 . S
H2134 C2155 0.950 . S
H2135 C2158 0.950 . S
H2136 C2159 0.950 . S
H2137 C2161 0.950 . S
H2138 C2162 0.950 . S
H2139 C2163 0.951 . S
H2140 C2165 0.951 . S
H2141 C2167 0.950 . S
H2142 C2168 0.950 1_545 S
H2143 C2170 0.950 . S
H2144 C2173 0.950 . S
H2145 C2174 0.950 . S
H2146 C2176 0.950 . S
H2147 C2177 0.950 . S
C2148 H2130 0.951 . S
C2148 C2149 1.366 1_545 S
C2148 C2150 1.388 . S
C2149 C2148 1.366 1_565 S
C2149 C2153 1.385 . S
C2150 H2131 0.951 . S
C2150 C2148 1.388 . S
C2150 C2151 1.366 1_545 S
C2151 C2150 1.366 1_565 S
C2151 C2152 1.414 . S
C2151 C2154 1.499 . S
C2152 H2132 0.950 . S
C2152 C2151 1.414 . S
C2152 C2153 1.374 . S
C2153 H2133 0.950 . S
C2153 C2149 1.385 . S
C2153 C2152 1.374 . S
C2154 C2151 1.499 . S
C2154 C2155 1.373 . S
C2154 C2156 1.389 1_565 S
C2155 H2134 0.950 . S
C2155 C2154 1.373 . S
C2155 C2171 1.377 . S
C2156 C2154 1.389 1_545 S
C2156 C2157 1.524 . S
C2156 C2170 1.377 . S
C2157 C2156 1.524 . S
C2157 C2158 1.397 . S
C2157 C2162 1.363 . S
C2158 H2135 0.950 . S
C2158 C2157 1.397 . S
C2158 C2159 1.334 . S
C2159 H2136 0.950 . S
C2159 C2158 1.334 . S
C2159 C2160 1.287 . S
C2160 C2159 1.287 . S
C2160 C2161 1.524 . S
C2160 H2179 0.913 . S
C2161 H2137 0.950 . S
C2161 C2160 1.524 . S
C2161 C2162 1.415 . S
C2162 H2138 0.950 . S
C2162 C2157 1.363 . S
C2162 C2161 1.415 . S
C2163 H2139 0.951 . S
C2163 C2164 1.366 . S
C2163 C2165 1.388 . S
C2164 C2163 1.366 . S
C2164 C2168 1.385 . S
C2165 H2140 0.951 . S
C2165 C2163 1.388 . S
C2165 C2166 1.366 . S
C2166 C2165 1.366 . S
C2166 C2167 1.414 1_565 S
C2166 C2169 1.499 . S
C2167 H2141 0.950 . S
C2167 C2166 1.414 1_545 S
C2167 C2168 1.374 1_545 S
C2168 H2142 0.950 1_565 S
C2168 C2164 1.385 . S
C2168 C2167 1.374 1_565 S
C2169 C2166 1.499 . S
C2169 C2170 1.373 1_565 S
C2169 C2171 1.389 . S
C2170 H2143 0.950 . S
C2170 C2156 1.377 . S
C2170 C2169 1.373 1_545 S
C2171 C2155 1.377 . S
C2171 C2169 1.389 . S
C2171 C2172 1.524 . S
C2172 C2171 1.524 . S
C2172 C2173 1.397 . S
C2172 C2177 1.363 . S
C2173 H2144 0.950 . S
C2173 C2172 1.397 . S
C2173 C2174 1.334 . S
C2174 H2145 0.950 . S
C2174 C2173 1.334 . S
C2174 C2175 1.287 . S
C2175 C2174 1.287 . S
C2175 C2176 1.524 . S
C2175 H2178 0.999 . S
C2176 H2146 0.950 . S
C2176 C2175 1.524 . S
C2176 C2177 1.415 . S
C2177 H2147 0.950 . S
C2177 C2172 1.363 . S
C2177 C2176 1.415 . S
H2178 C2175 0.999 . S
H2179 C2160 0.913 . S
H2180 C2198 0.951 . S
H2181 C2200 0.951 . S
H2182 C2202 0.950 . S
H2183 C2203 0.950 . S
H2184 C2205 0.950 1_655 S
H2185 C2208 0.950 . S
H2186 C2209 0.950 1_554 S
H2187 C2211 0.950 . S
H2188 C2212 0.950 . S
H2189 C2213 0.951 . S
H2190 C2215 0.951 . S
H2191 C2217 0.950 . S
H2192 C2218 0.950 . S
H2193 C2220 0.950 . S
H2194 C2223 0.950 . S
H2195 C2224 0.950 1_455 S
H2196 C2226 0.950 . S
H2197 C2227 0.950 . S
C2198 H2180 0.951 . S
C2198 C2199 1.366 . S
C2198 C2200 1.388 . S
C2199 C2198 1.366 . S
C2199 C2203 1.385 1_455 S
C2200 H2181 0.951 . S
C2200 C2198 1.388 . S
C2200 C2201 1.366 . S
C2201 C2200 1.366 . S
C2201 C2202 1.414 1_455 S
C2201 C2204 1.499 . S
C2202 H2182 0.950 . S
C2202 C2201 1.414 1_655 S
C2202 C2203 1.374 . S
C2203 H2183 0.950 . S
C2203 C2199 1.385 1_655 S
C2203 C2202 1.374 . S
C2204 C2201 1.499 . S
C2204 C2205 1.373 . S
C2204 C2206 1.389 . S
C2205 H2184 0.950 1_455 S
C2205 C2204 1.373 . S
C2205 C2221 1.377 . S
C2206 C2204 1.389 . S
C2206 C2207 1.524 . S
C2206 C2220 1.377 . S
C2207 C2206 1.524 . S
C2207 C2208 1.397 . S
C2207 C2212 1.363 . S
C2208 H2185 0.950 . S
C2208 C2207 1.397 . S
C2208 C2209 1.334 . S
C2209 H2186 0.950 1_556 S
C2209 C2208 1.334 . S
C2209 C2210 1.287 . S
C2210 C2209 1.287 . S
C2210 C2211 1.524 . S
C2210 H2229 0.913 1_556 S
C2211 H2187 0.950 . S
C2211 C2210 1.524 . S
C2211 C2212 1.415 . S
C2212 H2188 0.950 . S
C2212 C2207 1.363 . S
C2212 C2211 1.415 . S
C2213 H2189 0.951 . S
C2213 C2214 1.366 1_655 S
C2213 C2215 1.388 . S
C2214 C2213 1.366 1_455 S
C2214 C2218 1.385 . S
C2215 H2190 0.951 . S
C2215 C2213 1.388 . S
C2215 C2216 1.366 1_655 S
C2216 C2215 1.366 1_455 S
C2216 C2217 1.414 . S
C2216 C2219 1.499 . S
C2217 H2191 0.950 . S
C2217 C2216 1.414 . S
C2217 C2218 1.374 . S
C2218 H2192 0.950 . S
C2218 C2214 1.385 . S
C2218 C2217 1.374 . S
C2219 C2216 1.499 . S
C2219 C2220 1.373 . S
C2219 C2221 1.389 . S
C2220 H2193 0.950 . S
C2220 C2206 1.377 . S
C2220 C2219 1.373 . S
C2221 C2205 1.377 . S
C2221 C2219 1.389 . S
C2221 C2222 1.524 1_455 S
C2222 C2221 1.524 1_655 S
C2222 C2223 1.397 1_655 S
C2222 C2227 1.363 . S
C2223 H2194 0.950 . S
C2223 C2222 1.397 1_455 S
C2223 C2224 1.334 1_455 S
C2224 H2195 0.950 1_655 S
C2224 C2223 1.334 1_655 S
C2224 C2225 1.287 . S
C2225 C2224 1.287 . S
C2225 C2226 1.524 . S
C2225 H2228 0.999 . S
C2226 H2196 0.950 . S
C2226 C2225 1.524 . S
C2226 C2227 1.415 . S
C2227 H2197 0.950 . S
C2227 C2222 1.363 . S
C2227 C2226 1.415 . S
H2228 C2225 0.999 . S
H2229 C2210 0.913 1_554 S
H2230 C2248 0.951 . S
H2231 C2250 0.950 . S
H2232 C2252 0.950 . S
H2233 C2253 0.950 . S
H2234 C2255 0.950 . S
H2235 C2258 0.950 . S
H2236 C2259 0.950 . S
H2237 C2261 0.950 . S
H2238 C2262 0.950 . S
H2239 C2263 0.951 . S
H2240 C2265 0.951 . S
H2241 C2267 0.950 . S
H2242 C2268 0.950 . S
H2243 C2270 0.950 . S
H2244 C2273 0.950 . S
H2245 C2274 0.950 . S
H2246 C2276 0.950 . S
H2247 C2277 0.950 . S
C2248 H2230 0.951 . S
C2248 C2249 1.366 . S
C2248 C2250 1.352 1_554 S
C2249 C2248 1.366 . S
C2249 C2253 1.357 1_554 S
C2250 H2231 0.950 . S
C2250 C2248 1.352 1_556 S
C2250 C2251 1.407 . S
C2251 C2250 1.407 . S
C2251 C2252 1.414 . S
C2251 C2254 1.499 . S
C2252 H2232 0.950 . S
C2252 C2251 1.414 . S
C2252 C2253 1.399 . S
C2253 H2233 0.950 . S
C2253 C2249 1.357 1_556 S
C2253 C2252 1.399 . S
C2254 C2251 1.499 . S
C2254 C2255 1.373 . S
C2254 C2256 1.389 . S
C2255 H2234 0.950 . S
C2255 C2254 1.373 . S
C2255 C2271 1.377 . S
C2256 C2254 1.389 . S
C2256 C2257 1.524 . S
C2256 C2270 1.377 . S
C2257 C2256 1.524 . S
C2257 C2258 1.397 . S
C2257 C2262 1.363 . S
C2258 H2235 0.950 . S
C2258 C2257 1.397 . S
C2258 C2259 1.334 . S
C2259 H2236 0.950 . S
C2259 C2258 1.334 . S
C2259 C2260 1.287 . S
C2260 C2259 1.287 . S
C2260 C2261 1.524 . S
C2260 H2279 0.913 . S
C2261 H2237 0.950 . S
C2261 C2260 1.524 . S
C2261 C2262 1.415 . S
C2262 H2238 0.950 . S
C2262 C2257 1.363 . S
C2262 C2261 1.415 . S
C2263 H2239 0.951 . S
C2263 C2264 1.366 . S
C2263 C2265 1.388 . S
C2264 C2263 1.366 . S
C2264 C2268 1.385 . S
C2265 H2240 0.951 . S
C2265 C2263 1.388 . S
C2265 C2266 1.366 . S
C2266 C2265 1.366 . S
C2266 C2267 1.414 . S
C2266 C2269 1.499 . S
C2267 H2241 0.950 . S
C2267 C2266 1.414 . S
C2267 C2268 1.374 . S
C2268 H2242 0.950 . S
C2268 C2264 1.385 . S
C2268 C2267 1.374 . S
C2269 C2266 1.499 . S
C2269 C2270 1.373 . S
C2269 C2271 1.389 . S
C2270 H2243 0.950 . S
C2270 C2256 1.377 . S
C2270 C2269 1.373 . S
C2271 C2255 1.377 . S
C2271 C2269 1.389 . S
C2271 C2272 1.524 . S
C2272 C2271 1.524 . S
C2272 C2273 1.397 . S
C2272 C2277 1.363 . S
C2273 H2244 0.950 . S
C2273 C2272 1.397 . S
C2273 C2274 1.334 . S
C2274 H2245 0.950 . S
C2274 C2273 1.334 . S
C2274 C2275 1.287 . S
C2275 C2274 1.287 . S
C2275 C2276 1.524 . S
C2275 H2278 0.999 . S
C2276 H2246 0.950 . S
C2276 C2275 1.524 . S
C2276 C2277 1.415 . S
C2277 H2247 0.950 . S
C2277 C2272 1.363 . S
C2277 C2276 1.415 . S
H2278 C2275 0.999 . S
H2279 C2260 0.913 . S
H2280 C2298 0.951 . S
H2281 C2300 0.965 . S
H2282 C2302 0.950 . S
H2283 C2303 0.950 . S
H2284 C2305 0.950 . S
H2285 C2308 0.950 . S
H2286 C2309 0.950 . S
H2287 C2311 0.950 . S
H2288 C2312 0.950 . S
H2289 C2313 0.951 . S
H2290 C2315 0.951 . S
H2291 C2317 0.890 1_655 S
H2292 C2318 0.953 . S
H2293 C2320 0.950 . S
H2294 C2323 0.950 . S
H2295 C2324 0.950 . S
H2296 C2326 0.950 . S
H2297 C2327 0.950 . S
C2298 H2280 0.951 . S
C2298 C2299 1.366 1_556 S
C2298 C2300 1.388 . S
C2299 C2298 1.366 1_554 S
C2299 C2303 1.385 . S
C2300 H2281 0.965 . S
C2300 C2298 1.388 . S
C2300 C2301 1.366 . S
C2301 C2300 1.366 . S
C2301 C2302 1.414 1_556 S
C2301 C2304 1.499 . S
C2302 H2282 0.950 . S
C2302 C2301 1.414 1_554 S
C2302 C2303 1.374 . S
C2303 H2283 0.950 . S
C2303 C2299 1.385 . S
C2303 C2302 1.374 . S
C2304 C2301 1.499 . S
C2304 C2305 1.373 . S
C2304 C2306 1.389 1_455 S
C2305 H2284 0.950 . S
C2305 C2304 1.373 . S
C2305 C2321 1.377 . S
C2306 C2304 1.389 1_655 S
C2306 C2307 1.524 . S
C2306 C2320 1.377 . S
C2307 C2306 1.524 . S
C2307 C2308 1.397 . S
C2307 C2312 1.363 . S
C2308 H2285 0.950 . S
C2308 C2307 1.397 . S
C2308 C2309 1.334 . S
C2309 H2286 0.950 . S
C2309 C2308 1.334 . S
C2309 C2310 1.287 . S
C2310 C2309 1.287 . S
C2310 C2311 1.524 . S
C2310 H2329 0.913 . S
C2311 H2287 0.950 . S
C2311 C2310 1.524 . S
C2311 C2312 1.415 . S
C2312 H2288 0.950 . S
C2312 C2307 1.363 . S
C2312 C2311 1.415 . S
C2313 H2289 0.951 . S
C2313 C2314 1.366 . S
C2313 C2315 1.388 . S
C2314 C2313 1.366 . S
C2314 C2318 1.376 1_455 S
C2315 H2290 0.951 . S
C2315 C2313 1.388 . S
C2315 C2316 1.366 . S
C2316 C2315 1.366 . S
C2316 C2317 1.421 . S
C2316 C2319 1.499 . S
C2317 H2291 0.890 1_455 S
C2317 C2316 1.421 . S
C2317 C2318 1.392 1_455 S
C2318 H2292 0.953 . S
C2318 C2314 1.376 1_655 S
C2318 C2317 1.392 1_655 S
C2319 C2316 1.499 . S
C2319 C2320 1.373 1_455 S
C2319 C2321 1.389 . S
C2320 H2293 0.950 . S
C2320 C2306 1.377 . S
C2320 C2319 1.373 1_655 S
C2321 C2305 1.377 . S
C2321 C2319 1.389 . S
C2321 C2322 1.524 . S
C2322 C2321 1.524 . S
C2322 C2323 1.397 . S
C2322 C2327 1.363 . S
C2323 H2294 0.950 . S
C2323 C2322 1.397 . S
C2323 C2324 1.334 . S
C2324 H2295 0.950 . S
C2324 C2323 1.334 . S
C2324 C2325 1.287 . S
C2325 C2324 1.287 . S
C2325 C2326 1.524 . S
C2325 H2328 0.999 . S
C2326 H2296 0.950 . S
C2326 C2325 1.524 . S
C2326 C2327 1.415 . S
C2327 H2297 0.950 . S
C2327 C2322 1.363 . S
C2327 C2326 1.415 . S
H2328 C2325 0.999 . S
H2329 C2310 0.913 . S
H2330 C2348 0.951 . S
H2331 C2350 0.951 . S
H2332 C2352 0.950 . S
H2333 C2353 0.950 . S
H2334 C2355 0.950 . S
H2335 C2358 0.950 . S
H2336 C2359 0.950 . S
H2337 C2361 0.950 . S
H2338 C2362 0.950 . S
H2339 C2363 0.951 . S
H2340 C2365 0.951 . S
H2341 C2367 0.950 . S
H2342 C2368 0.950 . S
H2343 C2370 0.950 . S
H2344 C2373 0.950 . S
H2345 C2374 0.950 . S
H2346 C2376 0.950 . S
H2347 C2377 0.950 . S
C2348 H2330 0.951 . S
C2348 C2349 1.366 . S
C2348 C2350 1.388 . S
C2349 C2348 1.366 . S
C2349 C2353 1.385 . S
C2350 H2331 0.951 . S
C2350 C2348 1.388 . S
C2350 C2351 1.366 . S
C2351 C2350 1.366 . S
C2351 C2352 1.414 . S
C2351 C2354 1.499 . S
C2352 H2332 0.950 . S
C2352 C2351 1.414 . S
C2352 C2353 1.374 . S
C2353 H2333 0.950 . S
C2353 C2349 1.385 . S
C2353 C2352 1.374 . S
C2354 C2351 1.499 . S
C2354 C2355 1.373 . S
C2354 C2356 1.389 . S
C2355 H2334 0.950 . S
C2355 C2354 1.373 . S
C2355 C2371 1.377 . S
C2356 C2354 1.389 . S
C2356 C2357 1.524 . S
C2356 C2370 1.377 . S
C2357 C2356 1.524 . S
C2357 C2358 1.397 . S
C2357 C2362 1.363 . S
C2358 H2335 0.950 . S
C2358 C2357 1.397 . S
C2358 C2359 1.334 . S
C2359 H2336 0.950 . S
C2359 C2358 1.334 . S
C2359 C2360 1.287 . S
C2360 C2359 1.287 . S
C2360 C2361 1.524 . S
C2360 H2379 0.913 . S
C2361 H2337 0.950 . S
C2361 C2360 1.524 . S
C2361 C2362 1.415 . S
C2362 H2338 0.950 . S
C2362 C2357 1.363 . S
C2362 C2361 1.415 . S
C2363 H2339 0.951 . S
C2363 C2364 1.366 . S
C2363 C2365 1.388 . S
C2364 C2363 1.366 . S
C2364 C2368 1.385 . S
C2365 H2340 0.951 . S
C2365 C2363 1.388 . S
C2365 C2366 1.366 . S
C2366 C2365 1.366 . S
C2366 C2367 1.414 . S
C2366 C2369 1.499 . S
C2367 H2341 0.950 . S
C2367 C2366 1.414 . S
C2367 C2368 1.374 . S
C2368 H2342 0.950 . S
C2368 C2364 1.385 . S
C2368 C2367 1.374 . S
C2369 C2366 1.499 . S
C2369 C2370 1.373 . S
C2369 C2371 1.389 . S
C2370 H2343 0.950 . S
C2370 C2356 1.377 . S
C2370 C2369 1.373 . S
C2371 C2355 1.377 . S
C2371 C2369 1.389 . S
C2371 C2372 1.524 . S
C2372 C2371 1.524 . S
C2372 C2373 1.397 . S
C2372 C2377 1.363 . S
C2373 H2344 0.950 . S
C2373 C2372 1.397 . S
C2373 C2374 1.334 . S
C2374 H2345 0.950 . S
C2374 C2373 1.334 . S
C2374 C2375 1.287 . S
C2375 C2374 1.287 . S
C2375 C2376 1.524 . S
C2375 H2378 0.999 . S
C2376 H2346 0.950 . S
C2376 C2375 1.524 . S
C2376 C2377 1.415 . S
C2377 H2347 0.950 . S
C2377 C2372 1.363 . S
C2377 C2376 1.415 . S
H2378 C2375 0.999 . S
H2379 C2360 0.913 . S
H2380 C2398 0.933 1_554 S
H2381 C2400 0.951 . S
H2382 C2402 0.950 . S
H2383 C2403 0.950 . S
H2384 C2405 0.950 . S
H2385 C2408 0.950 1_545 S
H2386 C2409 0.950 1_545 S
H2387 C2411 0.950 . S
H2388 C2412 0.950 . S
H2389 C2413 0.951 . S
H2390 C2415 0.951 . S
H2391 C2417 0.950 . S
H2392 C2418 0.950 . S
H2393 C2420 0.950 . S
H2394 C2423 0.950 1_565 S
H2395 C2424 0.950 . S
H2396 C2426 0.950 . S
H2397 C2427 0.950 . S
C2398 H2380 0.933 1_556 S
C2398 C2399 1.318 1_566 S
C2398 C2400 1.388 . S
C2399 C2398 1.318 1_544 S
C2399 C2403 1.462 . S
C2400 H2381 0.951 . S
C2400 C2398 1.388 . S
C2400 C2401 1.366 1_565 S
C2401 C2400 1.366 1_545 S
C2401 C2402 1.414 . S
C2401 C2404 1.499 . S
C2402 H2382 0.950 . S
C2402 C2401 1.414 . S
C2402 C2403 1.374 1_556 S
C2403 H2383 0.950 . S
C2403 C2399 1.462 . S
C2403 C2402 1.374 1_554 S
C2404 C2401 1.499 . S
C2404 C2405 1.373 . S
C2404 C2406 1.389 1_545 S
C2405 H2384 0.950 . S
C2405 C2404 1.373 . S
C2405 C2421 1.377 . S
C2406 C2404 1.389 1_565 S
C2406 C2407 1.524 . S
C2406 C2420 1.377 . S
C2407 C2406 1.524 . S
C2407 C2408 1.397 . S
C2407 C2412 1.363 . S
C2408 H2385 0.950 1_565 S
C2408 C2407 1.397 . S
C2408 C2409 1.334 . S
C2409 H2386 0.950 1_565 S
C2409 C2408 1.334 . S
C2409 C2410 1.287 . S
C2410 C2409 1.287 . S
C2410 C2411 1.524 . S
C2410 H2429 0.913 . S
C2411 H2387 0.950 . S
C2411 C2410 1.524 . S
C2411 C2412 1.415 . S
C2412 H2388 0.950 . S
C2412 C2407 1.363 . S
C2412 C2411 1.415 . S
C2413 H2389 0.951 . S
C2413 C2414 1.366 . S
C2413 C2415 1.388 . S
C2414 C2413 1.366 . S
C2414 C2418 1.385 1_545 S
C2415 H2390 0.951 . S
C2415 C2413 1.388 . S
C2415 C2416 1.366 . S
C2416 C2415 1.366 . S
C2416 C2417 1.414 1_545 S
C2416 C2419 1.521 . S
C2417 H2391 0.950 . S
C2417 C2416 1.414 1_565 S
C2417 C2418 1.374 . S
C2418 H2392 0.950 . S
C2418 C2414 1.385 1_565 S
C2418 C2417 1.374 . S
C2419 C2416 1.521 . S
C2419 C2420 1.328 1_545 S
C2419 C2421 1.416 . S
C2420 H2393 0.950 . S
C2420 C2406 1.377 . S
C2420 C2419 1.328 1_565 S
C2421 C2405 1.377 . S
C2421 C2419 1.416 . S
C2421 C2422 1.524 . S
C2422 C2421 1.524 . S
C2422 C2423 1.397 . S
C2422 C2427 1.363 . S
C2423 H2394 0.950 1_545 S
C2423 C2422 1.397 . S
C2423 C2424 1.334 . S
C2424 H2395 0.950 . S
C2424 C2423 1.334 . S
C2424 C2425 1.287 . S
C2425 C2424 1.287 . S
C2425 C2426 1.524 . S
C2425 H2428 0.999 . S
C2426 H2396 0.950 . S
C2426 C2425 1.524 . S
C2426 C2427 1.415 . S
C2427 H2397 0.950 . S
C2427 C2422 1.363 . S
C2427 C2426 1.415 . S
H2428 C2425 0.999 . S
H2429 C2410 0.913 . S
H2430 C2448 0.951 . S
H2431 C2450 0.951 . S
H2432 C2452 0.950 . S
H2433 C2453 0.950 . S
H2434 C2455 0.950 . S
H2435 C2458 0.950 . S
H2436 C2459 0.950 . S
H2437 C2461 0.950 . S
H2438 C2462 0.950 . S
H2439 C2463 0.927 . S
H2440 C2465 0.951 . S
H2441 C2467 0.950 . S
H2442 C2468 0.962 . S
H2443 C2470 0.950 . S
H2444 C2473 0.950 . S
H2445 C2474 0.950 . S
H2446 C2476 0.950 . S
H2447 C2477 0.950 . S
C2448 H2430 0.951 . S
C2448 C2449 1.366 . S
C2448 C2450 1.388 . S
C2449 C2448 1.366 . S
C2449 C2453 1.385 . S
C2450 H2431 0.951 . S
C2450 C2448 1.388 . S
C2450 C2451 1.366 . S
C2451 C2450 1.366 . S
C2451 C2452 1.414 . S
C2451 C2454 1.499 . S
C2452 H2432 0.950 . S
C2452 C2451 1.414 . S
C2452 C2453 1.374 . S
C2453 H2433 0.950 . S
C2453 C2449 1.385 . S
C2453 C2452 1.374 . S
C2454 C2451 1.499 . S
C2454 C2455 1.373 . S
C2454 C2456 1.389 1_545 S
C2455 H2434 0.950 . S
C2455 C2454 1.373 . S
C2455 C2471 1.377 . S
C2456 C2454 1.389 1_565 S
C2456 C2457 1.524 . S
C2456 C2470 1.377 . S
C2457 C2456 1.524 . S
C2457 C2458 1.397 . S
C2457 C2462 1.363 . S
C2458 H2435 0.950 . S
C2458 C2457 1.397 . S
C2458 C2459 1.334 . S
C2459 H2436 0.950 . S
C2459 C2458 1.334 . S
C2459 C2460 1.287 . S
C2460 C2459 1.287 . S
C2460 C2461 1.524 . S
C2460 H2479 0.913 . S
C2461 H2437 0.950 . S
C2461 C2460 1.524 . S
C2461 C2462 1.415 . S
C2462 H2438 0.950 . S
C2462 C2457 1.363 . S
C2462 C2461 1.415 . S
C2463 H2439 0.927 . S
C2463 C2464 1.370 . S
C2463 C2465 1.388 . S
C2464 C2463 1.370 . S
C2464 C2468 1.379 . S
C2465 H2440 0.951 . S
C2465 C2463 1.388 . S
C2465 C2466 1.366 . S
C2466 C2465 1.366 . S
C2466 C2467 1.414 . S
C2466 C2469 1.499 . S
C2467 H2441 0.950 . S
C2467 C2466 1.414 . S
C2467 C2468 1.374 . S
C2468 H2442 0.962 . S
C2468 C2464 1.379 . S
C2468 C2467 1.374 . S
C2469 C2466 1.499 . S
C2469 C2470 1.373 1_545 S
C2469 C2471 1.389 . S
C2470 H2443 0.950 . S
C2470 C2456 1.377 . S
C2470 C2469 1.373 1_565 S
C2471 C2455 1.377 . S
C2471 C2469 1.389 . S
C2471 C2472 1.524 . S
C2472 C2471 1.524 . S
C2472 C2473 1.397 . S
C2472 C2477 1.363 . S
C2473 H2444 0.950 . S
C2473 C2472 1.397 . S
C2473 C2474 1.334 . S
C2474 H2445 0.950 . S
C2474 C2473 1.334 . S
C2474 C2475 1.287 . S
C2475 C2474 1.287 . S
C2475 C2476 1.524 . S
C2475 H2478 0.999 . S
C2476 H2446 0.950 . S
C2476 C2475 1.524 . S
C2476 C2477 1.415 . S
C2477 H2447 0.950 . S
C2477 C2472 1.363 . S
C2477 C2476 1.415 . S
H2478 C2475 0.999 . S
H2479 C2460 0.913 . S
H2480 C2498 0.951 . S
H2481 C2500 0.951 . S
H2482 C2502 0.950 1_455 S
H2483 C2503 0.965 1_455 S
H2484 C2505 0.950 . S
H2485 C2508 0.950 . S
H2486 C2509 0.950 . S
H2487 C2511 0.950 . S
H2488 C2512 0.950 . S
H2489 C2513 0.951 . S
H2490 C2515 0.951 . S
H2491 C2517 0.950 . S
H2492 C2518 0.950 . S
H2493 C2520 0.950 . S
H2494 C2523 0.950 . S
H2495 C2524 0.950 . S
H2496 C2526 0.950 . S
H2497 C2527 0.950 . S
C2498 H2480 0.951 . S
C2498 C2499 1.366 . S
C2498 C2500 1.388 . S
C2499 C2498 1.366 . S
C2499 C2503 1.385 . S
C2500 H2481 0.951 . S
C2500 C2498 1.388 . S
C2500 C2501 1.366 . S
C2501 C2500 1.366 . S
C2501 C2502 1.411 . S
C2501 C2504 1.499 . S
C2502 H2482 0.950 1_655 S
C2502 C2501 1.411 . S
C2502 C2503 1.363 . S
C2503 H2483 0.965 1_655 S
C2503 C2499 1.385 . S
C2503 C2502 1.363 . S
C2504 C2501 1.499 . S
C2504 C2505 1.373 1_655 S
C2504 C2506 1.389 . S
C2505 H2484 0.950 . S
C2505 C2504 1.373 1_455 S
C2505 C2521 1.377 . S
C2506 C2504 1.389 . S
C2506 C2507 1.524 . S
C2506 C2520 1.377 . S
C2507 C2506 1.524 . S
C2507 C2508 1.397 . S
C2507 C2512 1.363 . S
C2508 H2485 0.950 . S
C2508 C2507 1.397 . S
C2508 C2509 1.334 . S
C2509 H2486 0.950 . S
C2509 C2508 1.334 . S
C2509 C2510 1.287 . S
C2510 C2509 1.287 . S
C2510 C2511 1.524 . S
C2510 H2529 0.913 . S
C2511 H2487 0.950 . S
C2511 C2510 1.524 . S
C2511 C2512 1.415 . S
C2512 H2488 0.950 . S
C2512 C2507 1.363 . S
C2512 C2511 1.415 . S
C2513 H2489 0.951 . S
C2513 C2514 1.358 . S
C2513 C2515 1.388 . S
C2514 C2513 1.358 . S
C2514 C2518 1.385 1_455 S
C2515 H2490 0.951 . S
C2515 C2513 1.388 . S
C2515 C2516 1.366 . S
C2516 C2515 1.366 . S
C2516 C2517 1.413 1_455 S
C2516 C2519 1.486 1_455 S
C2517 H2491 0.950 . S
C2517 C2516 1.413 1_655 S
C2517 C2518 1.374 . S
C2518 H2492 0.950 . S
C2518 C2514 1.385 1_655 S
C2518 C2517 1.374 . S
C2519 C2516 1.486 1_655 S
C2519 C2520 1.405 . S
C2519 C2521 1.377 1_655 S
C2520 H2493 0.950 . S
C2520 C2506 1.377 . S
C2520 C2519 1.405 . S
C2521 C2505 1.377 . S
C2521 C2519 1.377 1_455 S
C2521 C2522 1.524 . S
C2522 C2521 1.524 . S
C2522 C2523 1.397 . S
C2522 C2527 1.363 . S
C2523 H2494 0.950 . S
C2523 C2522 1.397 . S
C2523 C2524 1.334 . S
C2524 H2495 0.950 . S
C2524 C2523 1.334 . S
C2524 C2525 1.287 . S
C2525 C2524 1.287 . S
C2525 C2526 1.524 . S
C2525 H2528 0.999 . S
C2526 H2496 0.950 . S
C2526 C2525 1.524 . S
C2526 C2527 1.415 . S
C2527 H2497 0.950 . S
C2527 C2522 1.363 . S
C2527 C2526 1.415 . S
H2528 C2525 0.999 . S
H2529 C2510 0.913 . S
H2530 C2548 0.951 . S
H2531 C2550 0.951 . S
H2532 C2552 0.950 . S
H2533 C2553 0.950 . S
H2534 C2555 0.950 . S
H2535 C2558 0.950 . S
H2536 C2559 0.950 . S
H2537 C2561 0.950 . S
H2538 C2562 0.950 . S
H2539 C2563 0.951 . S
H2540 C2565 0.951 . S
H2541 C2567 0.950 . S
H2542 C2568 0.950 . S
H2543 C2570 0.950 . S
H2544 C2573 0.950 . S
H2545 C2574 0.950 . S
H2546 C2576 0.950 . S
H2547 C2577 0.950 . S
C2548 H2530 0.951 . S
C2548 C2549 1.366 . S
C2548 C2550 1.388 . S
C2549 C2548 1.366 . S
C2549 C2553 1.385 . S
C2550 H2531 0.951 . S
C2550 C2548 1.388 . S
C2550 C2551 1.366 . S
C2551 C2550 1.366 . S
C2551 C2552 1.414 . S
C2551 C2554 1.499 . S
C2552 H2532 0.950 . S
C2552 C2551 1.414 . S
C2552 C2553 1.374 . S
C2553 H2533 0.950 . S
C2553 C2549 1.385 . S
C2553 C2552 1.374 . S
C2554 C2551 1.499 . S
C2554 C2555 1.373 . S
C2554 C2556 1.389 . S
C2555 H2534 0.950 . S
C2555 C2554 1.373 . S
C2555 C2571 1.377 . S
C2556 C2554 1.389 . S
C2556 C2557 1.524 . S
C2556 C2570 1.377 . S
C2557 C2556 1.524 . S
C2557 C2558 1.397 . S
C2557 C2562 1.363 . S
C2558 H2535 0.950 . S
C2558 C2557 1.397 . S
C2558 C2559 1.334 . S
C2559 H2536 0.950 . S
C2559 C2558 1.334 . S
C2559 C2560 1.287 . S
C2560 C2559 1.287 . S
C2560 C2561 1.524 . S
C2560 H2579 0.913 . S
C2561 H2537 0.950 . S
C2561 C2560 1.524 . S
C2561 C2562 1.415 . S
C2562 H2538 0.950 . S
C2562 C2557 1.363 . S
C2562 C2561 1.415 . S
C2563 H2539 0.951 . S
C2563 C2564 1.366 . S
C2563 C2565 1.388 . S
C2564 C2563 1.366 . S
C2564 C2568 1.385 . S
C2565 H2540 0.951 . S
C2565 C2563 1.388 . S
C2565 C2566 1.366 . S
C2566 C2565 1.366 . S
C2566 C2567 1.414 . S
C2566 C2569 1.499 . S
C2567 H2541 0.950 . S
C2567 C2566 1.414 . S
C2567 C2568 1.374 . S
C2568 H2542 0.950 . S
C2568 C2564 1.385 . S
C2568 C2567 1.374 . S
C2569 C2566 1.499 . S
C2569 C2570 1.373 . S
C2569 C2571 1.389 . S
C2570 H2543 0.950 . S
C2570 C2556 1.377 . S
C2570 C2569 1.373 . S
C2571 C2555 1.377 . S
C2571 C2569 1.389 . S
C2571 C2572 1.524 . S
C2572 C2571 1.524 . S
C2572 C2573 1.397 . S
C2572 C2577 1.363 . S
C2573 H2544 0.950 . S
C2573 C2572 1.397 . S
C2573 C2574 1.334 . S
C2574 H2545 0.950 . S
C2574 C2573 1.334 . S
C2574 C2575 1.287 . S
C2575 C2574 1.287 . S
C2575 C2576 1.524 . S
C2575 H2578 0.999 . S
C2576 H2546 0.950 . S
C2576 C2575 1.524 . S
C2576 C2577 1.415 . S
C2577 H2547 0.950 . S
C2577 C2572 1.363 . S
C2577 C2576 1.415 . S
H2578 C2575 0.999 . S
H2579 C2560 0.913 . S
H2580 C2598 0.951 . S
H2581 C2600 0.951 . S
H2582 C2602 0.950 . S
H2583 C2603 0.950 . S
H2584 C2605 0.950 . S
H2585 C2608 0.950 . S
H2586 C2609 0.950 . S
H2587 C2611 0.950 . S
H2588 C2612 0.950 . S
H2589 C2613 0.951 . S
H2590 C2615 0.951 . S
H2591 C2617 0.950 . S
H2592 C2618 0.950 . S
H2593 C2620 0.950 . S
H2594 C2623 0.950 . S
H2595 C2624 0.950 . S
H2596 C2626 0.950 . S
H2597 C2627 0.950 . S
C2598 H2580 0.951 . S
C2598 C2599 1.366 . S
C2598 C2600 1.388 . S
C2599 C2598 1.366 . S
C2599 C2603 1.385 . S
C2600 H2581 0.951 . S
C2600 C2598 1.388 . S
C2600 C2601 1.366 . S
C2601 C2600 1.366 . S
C2601 C2602 1.414 . S
C2601 C2604 1.499 . S
C2602 H2582 0.950 . S
C2602 C2601 1.414 . S
C2602 C2603 1.374 . S
C2603 H2583 0.950 . S
C2603 C2599 1.385 . S
C2603 C2602 1.374 . S
C2604 C2601 1.499 . S
C2604 C2605 1.373 . S
C2604 C2606 1.389 . S
C2605 H2584 0.950 . S
C2605 C2604 1.373 . S
C2605 C2621 1.377 . S
C2606 C2604 1.389 . S
C2606 C2607 1.524 . S
C2606 C2620 1.377 . S
C2607 C2606 1.524 . S
C2607 C2608 1.397 . S
C2607 C2612 1.363 . S
C2608 H2585 0.950 . S
C2608 C2607 1.397 . S
C2608 C2609 1.334 . S
C2609 H2586 0.950 . S
C2609 C2608 1.334 . S
C2609 C2610 1.287 . S
C2610 C2609 1.287 . S
C2610 C2611 1.524 . S
C2610 H2629 0.913 . S
C2611 H2587 0.950 . S
C2611 C2610 1.524 . S
C2611 C2612 1.415 . S
C2612 H2588 0.950 . S
C2612 C2607 1.363 . S
C2612 C2611 1.415 . S
C2613 H2589 0.951 . S
C2613 C2614 1.366 . S
C2613 C2615 1.388 . S
C2614 C2613 1.366 . S
C2614 C2618 1.385 . S
C2615 H2590 0.951 . S
C2615 C2613 1.388 . S
C2615 C2616 1.366 . S
C2616 C2615 1.366 . S
C2616 C2617 1.414 . S
C2616 C2619 1.499 . S
C2617 H2591 0.950 . S
C2617 C2616 1.414 . S
C2617 C2618 1.374 . S
C2618 H2592 0.950 . S
C2618 C2614 1.385 . S
C2618 C2617 1.374 . S
C2619 C2616 1.499 . S
C2619 C2620 1.373 . S
C2619 C2621 1.389 . S
C2620 H2593 0.950 . S
C2620 C2606 1.377 . S
C2620 C2619 1.373 . S
C2621 C2605 1.377 . S
C2621 C2619 1.389 . S
C2621 C2622 1.524 . S
C2622 C2621 1.524 . S
C2622 C2623 1.397 . S
C2622 C2627 1.363 . S
C2623 H2594 0.950 . S
C2623 C2622 1.397 . S
C2623 C2624 1.334 . S
C2624 H2595 0.950 . S
C2624 C2623 1.334 . S
C2624 C2625 1.287 . S
C2625 C2624 1.287 . S
C2625 C2626 1.524 . S
C2625 H2628 0.999 . S
C2626 H2596 0.950 . S
C2626 C2625 1.524 . S
C2626 C2627 1.415 . S
C2627 H2597 0.950 . S
C2627 C2622 1.363 . S
C2627 C2626 1.415 . S
H2628 C2625 0.999 . S
H2629 C2610 0.913 . S
H2630 C2648 0.951 . S
H2631 C2650 0.951 . S
H2632 C2652 0.950 . S
H2633 C2653 0.950 . S
H2634 C2655 0.950 . S
H2635 C2658 0.950 . S
H2636 C2659 0.950 . S
H2637 C2661 0.950 . S
H2638 C2662 0.950 . S
H2639 C2663 0.951 . S
H2640 C2665 0.951 . S
H2641 C2667 0.950 . S
H2642 C2668 0.950 . S
H2643 C2670 0.950 . S
H2644 C2673 0.950 . S
H2645 C2674 0.950 . S
H2646 C2676 0.950 . S
H2647 C2677 0.950 . S
C2648 H2630 0.951 . S
C2648 C2649 1.366 . S
C2648 C2650 1.388 . S
C2649 C2648 1.366 . S
C2649 C2653 1.385 . S
C2650 H2631 0.951 . S
C2650 C2648 1.388 . S
C2650 C2651 1.366 . S
C2651 C2650 1.366 . S
C2651 C2652 1.414 . S
C2651 C2654 1.499 . S
C2652 H2632 0.950 . S
C2652 C2651 1.414 . S
C2652 C2653 1.374 . S
C2653 H2633 0.950 . S
C2653 C2649 1.385 . S
C2653 C2652 1.374 . S
C2654 C2651 1.499 . S
C2654 C2655 1.373 . S
C2654 C2656 1.389 . S
C2655 H2634 0.950 . S
C2655 C2654 1.373 . S
C2655 C2671 1.377 . S
C2656 C2654 1.389 . S
C2656 C2657 1.524 . S
C2656 C2670 1.377 . S
C2657 C2656 1.524 . S
C2657 C2658 1.397 . S
C2657 C2662 1.363 . S
C2658 H2635 0.950 . S
C2658 C2657 1.397 . S
C2658 C2659 1.334 . S
C2659 H2636 0.950 . S
C2659 C2658 1.334 . S
C2659 C2660 1.287 . S
C2660 C2659 1.287 . S
C2660 C2661 1.524 . S
C2660 H2679 0.913 . S
C2661 H2637 0.950 . S
C2661 C2660 1.524 . S
C2661 C2662 1.415 . S
C2662 H2638 0.950 . S
C2662 C2657 1.363 . S
C2662 C2661 1.415 . S
C2663 H2639 0.951 . S
C2663 C2664 1.366 . S
C2663 C2665 1.388 . S
C2664 C2663 1.366 . S
C2664 C2668 1.385 . S
C2665 H2640 0.951 . S
C2665 C2663 1.388 . S
C2665 C2666 1.366 . S
C2666 C2665 1.366 . S
C2666 C2667 1.414 . S
C2666 C2669 1.499 . S
C2667 H2641 0.950 . S
C2667 C2666 1.414 . S
C2667 C2668 1.374 . S
C2668 H2642 0.950 . S
C2668 C2664 1.385 . S
C2668 C2667 1.374 . S
C2669 C2666 1.499 . S
C2669 C2670 1.373 . S
C2669 C2671 1.389 . S
C2670 H2643 0.950 . S
C2670 C2656 1.377 . S
C2670 C2669 1.373 . S
C2671 C2655 1.377 . S
C2671 C2669 1.389 . S
C2671 C2672 1.524 . S
C2672 C2671 1.524 . S
C2672 C2673 1.397 . S
C2672 C2677 1.363 . S
C2673 H2644 0.950 . S
C2673 C2672 1.397 . S
C2673 C2674 1.334 . S
C2674 H2645 0.950 . S
C2674 C2673 1.334 . S
C2674 C2675 1.287 . S
C2675 C2674 1.287 . S
C2675 C2676 1.524 . S
C2675 H2678 0.999 . S
C2676 H2646 0.950 . S
C2676 C2675 1.524 . S
C2676 C2677 1.415 . S
C2677 H2647 0.950 . S
C2677 C2672 1.363 . S
C2677 C2676 1.415 . S
H2678 C2675 0.999 . S
H2679 C2660 0.913 . S
H2680 C2698 0.951 . S
H2681 C2700 0.951 . S
H2682 C2702 0.950 . S
H2683 C2703 0.950 . S
H2684 C2705 0.950 . S
H2685 C2708 0.950 . S
H2686 C2709 0.950 . S
H2687 C2711 0.950 . S
H2688 C2712 0.950 . S
H2689 C2713 0.951 . S
H2690 C2715 0.951 . S
H2691 C2717 0.950 . S
H2692 C2718 0.950 . S
H2693 C2720 0.950 . S
H2694 C2723 0.950 . S
H2695 C2724 0.950 . S
H2696 C2726 0.950 . S
H2697 C2727 0.950 . S
C2698 H2680 0.951 . S
C2698 C2699 1.366 . S
C2698 C2700 1.388 . S
C2699 C2698 1.366 . S
C2699 C2703 1.385 . S
C2700 H2681 0.951 . S
C2700 C2698 1.388 . S
C2700 C2701 1.366 . S
C2701 C2700 1.366 . S
C2701 C2702 1.414 . S
C2701 C2704 1.499 . S
C2702 H2682 0.950 . S
C2702 C2701 1.414 . S
C2702 C2703 1.374 . S
C2703 H2683 0.950 . S
C2703 C2699 1.385 . S
C2703 C2702 1.374 . S
C2704 C2701 1.499 . S
C2704 C2705 1.373 . S
C2704 C2706 1.389 . S
C2705 H2684 0.950 . S
C2705 C2704 1.373 . S
C2705 C2721 1.377 . S
C2706 C2704 1.389 . S
C2706 C2707 1.524 . S
C2706 C2720 1.377 . S
C2707 C2706 1.524 . S
C2707 C2708 1.397 . S
C2707 C2712 1.363 . S
C2708 H2685 0.950 . S
C2708 C2707 1.397 . S
C2708 C2709 1.334 . S
C2709 H2686 0.950 . S
C2709 C2708 1.334 . S
C2709 C2710 1.287 . S
C2710 C2709 1.287 . S
C2710 C2711 1.524 . S
C2710 H2729 0.913 . S
C2711 H2687 0.950 . S
C2711 C2710 1.524 . S
C2711 C2712 1.415 . S
C2712 H2688 0.950 . S
C2712 C2707 1.363 . S
C2712 C2711 1.415 . S
C2713 H2689 0.951 . S
C2713 C2714 1.366 . S
C2713 C2715 1.388 . S
C2714 C2713 1.366 . S
C2714 C2718 1.385 . S
C2715 H2690 0.951 . S
C2715 C2713 1.388 . S
C2715 C2716 1.366 . S
C2716 C2715 1.366 . S
C2716 C2717 1.414 . S
C2716 C2719 1.499 . S
C2717 H2691 0.950 . S
C2717 C2716 1.414 . S
C2717 C2718 1.374 . S
C2718 H2692 0.950 . S
C2718 C2714 1.385 . S
C2718 C2717 1.374 . S
C2719 C2716 1.499 . S
C2719 C2720 1.373 . S
C2719 C2721 1.389 . S
C2720 H2693 0.950 . S
C2720 C2706 1.377 . S
C2720 C2719 1.373 . S
C2721 C2705 1.377 . S
C2721 C2719 1.389 . S
C2721 C2722 1.524 . S
C2722 C2721 1.524 . S
C2722 C2723 1.397 . S
C2722 C2727 1.363 . S
C2723 H2694 0.950 . S
C2723 C2722 1.397 . S
C2723 C2724 1.334 . S
C2724 H2695 0.950 . S
C2724 C2723 1.334 . S
C2724 C2725 1.287 . S
C2725 C2724 1.287 . S
C2725 C2726 1.524 . S
C2725 H2728 0.999 . S
C2726 H2696 0.950 . S
C2726 C2725 1.524 . S
C2726 C2727 1.415 . S
C2727 H2697 0.950 . S
C2727 C2722 1.363 . S
C2727 C2726 1.415 . S
H2728 C2725 0.999 . S
H2729 C2710 0.913 . S
H2730 C2748 0.951 . S
H2731 C2750 0.951 . S
H2732 C2752 0.950 . S
H2733 C2753 0.950 . S
H2734 C2755 0.950 . S
H2735 C2758 0.950 . S
H2736 C2759 0.950 . S
H2737 C2761 0.950 . S
H2738 C2762 0.950 . S
H2739 C2763 0.951 . S
H2740 C2765 0.951 . S
H2741 C2767 0.950 . S
H2742 C2768 0.950 . S
H2743 C2770 0.950 . S
H2744 C2773 0.950 . S
H2745 C2774 0.950 . S
H2746 C2776 0.950 . S
H2747 C2777 0.950 . S
C2748 H2730 0.951 . S
C2748 C2749 1.366 . S
C2748 C2750 1.388 . S
C2749 C2748 1.366 . S
C2749 C2753 1.385 . S
C2750 H2731 0.951 . S
C2750 C2748 1.388 . S
C2750 C2751 1.366 . S
C2751 C2750 1.366 . S
C2751 C2752 1.414 . S
C2751 C2754 1.499 . S
C2752 H2732 0.950 . S
C2752 C2751 1.414 . S
C2752 C2753 1.374 . S
C2753 H2733 0.950 . S
C2753 C2749 1.385 . S
C2753 C2752 1.374 . S
C2754 C2751 1.499 . S
C2754 C2755 1.373 . S
C2754 C2756 1.389 . S
C2755 H2734 0.950 . S
C2755 C2754 1.373 . S
C2755 C2771 1.377 . S
C2756 C2754 1.389 . S
C2756 C2757 1.524 . S
C2756 C2770 1.377 . S
C2757 C2756 1.524 . S
C2757 C2758 1.397 . S
C2757 C2762 1.363 . S
C2758 H2735 0.950 . S
C2758 C2757 1.397 . S
C2758 C2759 1.334 . S
C2759 H2736 0.950 . S
C2759 C2758 1.334 . S
C2759 C2760 1.287 . S
C2760 C2759 1.287 . S
C2760 C2761 1.524 . S
C2760 H2779 0.913 . S
C2761 H2737 0.950 . S
C2761 C2760 1.524 . S
C2761 C2762 1.415 . S
C2762 H2738 0.950 . S
C2762 C2757 1.363 . S
C2762 C2761 1.415 . S
C2763 H2739 0.951 . S
C2763 C2764 1.366 . S
C2763 C2765 1.388 . S
C2764 C2763 1.366 . S
C2764 C2768 1.385 . S
C2765 H2740 0.951 . S
C2765 C2763 1.388 . S
C2765 C2766 1.366 . S
C2766 C2765 1.366 . S
C2766 C2767 1.414 . S
C2766 C2769 1.499 . S
C2767 H2741 0.950 . S
C2767 C2766 1.414 . S
C2767 C2768 1.374 . S
C2768 H2742 0.950 . S
C2768 C2764 1.385 . S
C2768 C2767 1.374 . S
C2769 C2766 1.499 . S
C2769 C2770 1.373 . S
C2769 C2771 1.389 . S
C2770 H2743 0.950 . S
C2770 C2756 1.377 . S
C2770 C2769 1.373 . S
C2771 C2755 1.377 . S
C2771 C2769 1.389 . S
C2771 C2772 1.524 . S
C2772 C2771 1.524 . S
C2772 C2773 1.397 . S
C2772 C2777 1.363 . S
C2773 H2744 0.950 . S
C2773 C2772 1.397 . S
C2773 C2774 1.334 . S
C2774 H2745 0.950 . S
C2774 C2773 1.334 . S
C2774 C2775 1.287 . S
C2775 C2774 1.287 . S
C2775 C2776 1.524 . S
C2775 H2778 0.999 . S
C2776 H2746 0.950 . S
C2776 C2775 1.524 . S
C2776 C2777 1.415 . S
C2777 H2747 0.950 . S
C2777 C2772 1.363 . S
C2777 C2776 1.415 . S
H2778 C2775 0.999 . S
H2779 C2760 0.913 . S
H2780 C2798 0.951 . S
H2781 C2800 0.951 . S
H2782 C2802 0.950 . S
H2783 C2803 0.950 . S
H2784 C2805 0.950 . S
H2785 C2808 0.950 . S
H2786 C2809 0.950 . S
H2787 C2811 0.950 . S
H2788 C2812 0.950 . S
H2789 C2813 0.951 . S
H2790 C2815 0.951 . S
H2791 C2817 0.950 . S
H2792 C2818 0.950 . S
H2793 C2820 0.950 . S
H2794 C2823 0.950 . S
H2795 C2824 0.950 . S
H2796 C2826 0.950 . S
H2797 C2827 0.950 . S
C2798 H2780 0.951 . S
C2798 C2799 1.366 . S
C2798 C2800 1.388 . S
C2799 C2798 1.366 . S
C2799 C2803 1.385 . S
C2800 H2781 0.951 . S
C2800 C2798 1.388 . S
C2800 C2801 1.366 . S
C2801 C2800 1.366 . S
C2801 C2802 1.414 . S
C2801 C2804 1.499 . S
C2802 H2782 0.950 . S
C2802 C2801 1.414 . S
C2802 C2803 1.374 . S
C2803 H2783 0.950 . S
C2803 C2799 1.385 . S
C2803 C2802 1.374 . S
C2804 C2801 1.499 . S
C2804 C2805 1.373 . S
C2804 C2806 1.389 . S
C2805 H2784 0.950 . S
C2805 C2804 1.373 . S
C2805 C2821 1.377 . S
C2806 C2804 1.389 . S
C2806 C2807 1.524 . S
C2806 C2820 1.377 . S
C2807 C2806 1.524 . S
C2807 C2808 1.397 . S
C2807 C2812 1.363 . S
C2808 H2785 0.950 . S
C2808 C2807 1.397 . S
C2808 C2809 1.334 . S
C2809 H2786 0.950 . S
C2809 C2808 1.334 . S
C2809 C2810 1.287 . S
C2810 C2809 1.287 . S
C2810 C2811 1.524 . S
C2810 H2829 0.913 . S
C2811 H2787 0.950 . S
C2811 C2810 1.524 . S
C2811 C2812 1.415 . S
C2812 H2788 0.950 . S
C2812 C2807 1.363 . S
C2812 C2811 1.415 . S
C2813 H2789 0.951 . S
C2813 C2814 1.366 . S
C2813 C2815 1.388 . S
C2814 C2813 1.366 . S
C2814 C2818 1.385 . S
C2815 H2790 0.951 . S
C2815 C2813 1.388 . S
C2815 C2816 1.366 . S
C2816 C2815 1.366 . S
C2816 C2817 1.414 . S
C2816 C2819 1.499 . S
C2817 H2791 0.950 . S
C2817 C2816 1.414 . S
C2817 C2818 1.374 . S
C2818 H2792 0.950 . S
C2818 C2814 1.385 . S
C2818 C2817 1.374 . S
C2819 C2816 1.499 . S
C2819 C2820 1.373 . S
C2819 C2821 1.389 . S
C2820 H2793 0.950 . S
C2820 C2806 1.377 . S
C2820 C2819 1.373 . S
C2821 C2805 1.377 . S
C2821 C2819 1.389 . S
C2821 C2822 1.524 . S
C2822 C2821 1.524 . S
C2822 C2823 1.397 . S
C2822 C2827 1.363 . S
C2823 H2794 0.950 . S
C2823 C2822 1.397 . S
C2823 C2824 1.334 . S
C2824 H2795 0.950 . S
C2824 C2823 1.334 . S
C2824 C2825 1.287 . S
C2825 C2824 1.287 . S
C2825 C2826 1.524 . S
C2825 H2828 0.999 . S
C2826 H2796 0.950 . S
C2826 C2825 1.524 . S
C2826 C2827 1.415 . S
C2827 H2797 0.950 . S
C2827 C2822 1.363 . S
C2827 C2826 1.415 . S
H2828 C2825 0.999 . S
H2829 C2810 0.913 . S
H2830 C2848 0.951 . S
H2831 C2850 0.951 . S
H2832 C2852 0.950 . S
H2833 C2853 0.950 . S
H2834 C2855 0.950 . S
H2835 C2858 0.950 . S
H2836 C2859 0.950 . S
H2837 C2861 0.950 . S
H2838 C2862 0.950 . S
H2839 C2863 0.951 . S
H2840 C2865 0.951 . S
H2841 C2867 0.950 . S
H2842 C2868 0.950 . S
H2843 C2870 0.950 . S
H2844 C2873 0.950 . S
H2845 C2874 0.950 . S
H2846 C2876 0.950 . S
H2847 C2877 0.950 . S
C2848 H2830 0.951 . S
C2848 C2849 1.366 . S
C2848 C2850 1.388 . S
C2849 C2848 1.366 . S
C2849 C2853 1.385 . S
C2850 H2831 0.951 . S
C2850 C2848 1.388 . S
C2850 C2851 1.366 . S
C2851 C2850 1.366 . S
C2851 C2852 1.414 . S
C2851 C2854 1.499 . S
C2852 H2832 0.950 . S
C2852 C2851 1.414 . S
C2852 C2853 1.374 . S
C2853 H2833 0.950 . S
C2853 C2849 1.385 . S
C2853 C2852 1.374 . S
C2854 C2851 1.499 . S
C2854 C2855 1.373 . S
C2854 C2856 1.389 . S
C2855 H2834 0.950 . S
C2855 C2854 1.373 . S
C2855 C2871 1.377 . S
C2856 C2854 1.389 . S
C2856 C2857 1.524 . S
C2856 C2870 1.377 . S
C2857 C2856 1.524 . S
C2857 C2858 1.397 . S
C2857 C2862 1.363 . S
C2858 H2835 0.950 . S
C2858 C2857 1.397 . S
C2858 C2859 1.334 . S
C2859 H2836 0.950 . S
C2859 C2858 1.334 . S
C2859 C2860 1.287 . S
C2860 C2859 1.287 . S
C2860 C2861 1.524 . S
C2860 H2879 0.913 . S
C2861 H2837 0.950 . S
C2861 C2860 1.524 . S
C2861 C2862 1.415 . S
C2862 H2838 0.950 . S
C2862 C2857 1.363 . S
C2862 C2861 1.415 . S
C2863 H2839 0.951 . S
C2863 C2864 1.366 . S
C2863 C2865 1.388 . S
C2864 C2863 1.366 . S
C2864 C2868 1.385 . S
C2865 H2840 0.951 . S
C2865 C2863 1.388 . S
C2865 C2866 1.366 . S
C2866 C2865 1.366 . S
C2866 C2867 1.414 . S
C2866 C2869 1.499 . S
C2867 H2841 0.950 . S
C2867 C2866 1.414 . S
C2867 C2868 1.374 . S
C2868 H2842 0.950 . S
C2868 C2864 1.385 . S
C2868 C2867 1.374 . S
C2869 C2866 1.499 . S
C2869 C2870 1.373 . S
C2869 C2871 1.389 . S
C2870 H2843 0.950 . S
C2870 C2856 1.377 . S
C2870 C2869 1.373 . S
C2871 C2855 1.377 . S
C2871 C2869 1.389 . S
C2871 C2872 1.524 . S
C2872 C2871 1.524 . S
C2872 C2873 1.397 . S
C2872 C2877 1.363 . S
C2873 H2844 0.950 . S
C2873 C2872 1.397 . S
C2873 C2874 1.334 . S
C2874 H2845 0.950 . S
C2874 C2873 1.334 . S
C2874 C2875 1.287 . S
C2875 C2874 1.287 . S
C2875 C2876 1.524 . S
C2875 H2878 0.999 . S
C2876 H2846 0.950 . S
C2876 C2875 1.524 . S
C2876 C2877 1.415 . S
C2877 H2847 0.950 . S
C2877 C2872 1.363 . S
C2877 C2876 1.415 . S
H2878 C2875 0.999 . S
H2879 C2860 0.913 . S
H2880 C2898 0.951 . S
H2881 C2900 0.951 . S
H2882 C2902 0.950 . S
H2883 C2903 0.950 . S
H2884 C2905 0.950 . S
H2885 C2908 0.950 . S
H2886 C2909 0.950 . S
H2887 C2911 0.950 . S
H2888 C2912 0.950 . S
H2889 C2913 0.951 . S
H2890 C2915 0.951 . S
H2891 C2917 0.950 . S
H2892 C2918 0.950 . S
H2893 C2920 0.950 . S
H2894 C2923 0.950 . S
H2895 C2924 0.950 . S
H2896 C2926 0.950 . S
H2897 C2927 0.950 . S
C2898 H2880 0.951 . S
C2898 C2899 1.366 . S
C2898 C2900 1.388 . S
C2899 C2898 1.366 . S
C2899 C2903 1.385 . S
C2900 H2881 0.951 . S
C2900 C2898 1.388 . S
C2900 C2901 1.366 . S
C2901 C2900 1.366 . S
C2901 C2902 1.414 . S
C2901 C2904 1.499 . S
C2902 H2882 0.950 . S
C2902 C2901 1.414 . S
C2902 C2903 1.374 . S
C2903 H2883 0.950 . S
C2903 C2899 1.385 . S
C2903 C2902 1.374 . S
C2904 C2901 1.499 . S
C2904 C2905 1.373 . S
C2904 C2906 1.389 . S
C2905 H2884 0.950 . S
C2905 C2904 1.373 . S
C2905 C2921 1.377 . S
C2906 C2904 1.389 . S
C2906 C2907 1.524 . S
C2906 C2920 1.377 . S
C2907 C2906 1.524 . S
C2907 C2908 1.397 . S
C2907 C2912 1.363 . S
C2908 H2885 0.950 . S
C2908 C2907 1.397 . S
C2908 C2909 1.334 . S
C2909 H2886 0.950 . S
C2909 C2908 1.334 . S
C2909 C2910 1.287 . S
C2910 C2909 1.287 . S
C2910 C2911 1.524 . S
C2910 H2929 0.913 . S
C2911 H2887 0.950 . S
C2911 C2910 1.524 . S
C2911 C2912 1.415 . S
C2912 H2888 0.950 . S
C2912 C2907 1.363 . S
C2912 C2911 1.415 . S
C2913 H2889 0.951 . S
C2913 C2914 1.366 . S
C2913 C2915 1.388 . S
C2914 C2913 1.366 . S
C2914 C2918 1.385 . S
C2915 H2890 0.951 . S
C2915 C2913 1.388 . S
C2915 C2916 1.366 . S
C2916 C2915 1.366 . S
C2916 C2917 1.414 . S
C2916 C2919 1.499 . S
C2917 H2891 0.950 . S
C2917 C2916 1.414 . S
C2917 C2918 1.374 . S
C2918 H2892 0.950 . S
C2918 C2914 1.385 . S
C2918 C2917 1.374 . S
C2919 C2916 1.499 . S
C2919 C2920 1.373 . S
C2919 C2921 1.389 . S
C2920 H2893 0.950 . S
C2920 C2906 1.377 . S
C2920 C2919 1.373 . S
C2921 C2905 1.377 . S
C2921 C2919 1.389 . S
C2921 C2922 1.524 . S
C2922 C2921 1.524 . S
C2922 C2923 1.397 . S
C2922 C2927 1.363 . S
C2923 H2894 0.950 . S
C2923 C2922 1.397 . S
C2923 C2924 1.334 . S
C2924 H2895 0.950 . S
C2924 C2923 1.334 . S
C2924 C2925 1.287 . S
C2925 C2924 1.287 . S
C2925 C2926 1.524 . S
C2925 H2928 0.999 . S
C2926 H2896 0.950 . S
C2926 C2925 1.524 . S
C2926 C2927 1.415 . S
C2927 H2897 0.950 . S
C2927 C2922 1.363 . S
C2927 C2926 1.415 . S
H2928 C2925 0.999 . S
H2929 C2910 0.913 . S
H2930 C2948 0.951 . S
H2931 C2950 0.951 . S
H2932 C2952 0.950 . S
H2933 C2953 0.950 . S
H2934 C2955 0.950 . S
H2935 C2958 0.950 . S
H2936 C2959 0.950 . S
H2937 C2961 0.950 . S
H2938 C2962 0.950 . S
H2939 C2963 0.951 . S
H2940 C2965 0.951 . S
H2941 C2967 0.950 . S
H2942 C2968 0.950 . S
H2943 C2970 0.950 . S
H2944 C2973 0.950 . S
H2945 C2974 0.950 . S
H2946 C2976 0.950 . S
H2947 C2977 0.950 . S
C2948 H2930 0.951 . S
C2948 C2949 1.366 . S
C2948 C2950 1.388 . S
C2949 C2948 1.366 . S
C2949 C2953 1.385 . S
C2950 H2931 0.951 . S
C2950 C2948 1.388 . S
C2950 C2951 1.366 . S
C2951 C2950 1.366 . S
C2951 C2952 1.414 . S
C2951 C2954 1.499 . S
C2952 H2932 0.950 . S
C2952 C2951 1.414 . S
C2952 C2953 1.374 . S
C2953 H2933 0.950 . S
C2953 C2949 1.385 . S
C2953 C2952 1.374 . S
C2954 C2951 1.499 . S
C2954 C2955 1.373 . S
C2954 C2956 1.389 . S
C2955 H2934 0.950 . S
C2955 C2954 1.373 . S
C2955 C2971 1.377 . S
C2956 C2954 1.389 . S
C2956 C2957 1.524 . S
C2956 C2970 1.377 . S
C2957 C2956 1.524 . S
C2957 C2958 1.397 . S
C2957 C2962 1.363 . S
C2958 H2935 0.950 . S
C2958 C2957 1.397 . S
C2958 C2959 1.334 . S
C2959 H2936 0.950 . S
C2959 C2958 1.334 . S
C2959 C2960 1.287 . S
C2960 C2959 1.287 . S
C2960 C2961 1.524 . S
C2960 H2979 0.913 . S
C2961 H2937 0.950 . S
C2961 C2960 1.524 . S
C2961 C2962 1.415 . S
C2962 H2938 0.950 . S
C2962 C2957 1.363 . S
C2962 C2961 1.415 . S
C2963 H2939 0.951 . S
C2963 C2964 1.366 . S
C2963 C2965 1.388 . S
C2964 C2963 1.366 . S
C2964 C2968 1.385 . S
C2965 H2940 0.951 . S
C2965 C2963 1.388 . S
C2965 C2966 1.366 . S
C2966 C2965 1.366 . S
C2966 C2967 1.414 . S
C2966 C2969 1.499 . S
C2967 H2941 0.950 . S
C2967 C2966 1.414 . S
C2967 C2968 1.374 . S
C2968 H2942 0.950 . S
C2968 C2964 1.385 . S
C2968 C2967 1.374 . S
C2969 C2966 1.499 . S
C2969 C2970 1.373 . S
C2969 C2971 1.389 . S
C2970 H2943 0.950 . S
C2970 C2956 1.377 . S
C2970 C2969 1.373 . S
C2971 C2955 1.377 . S
C2971 C2969 1.389 . S
C2971 C2972 1.524 . S
C2972 C2971 1.524 . S
C2972 C2973 1.397 . S
C2972 C2977 1.363 . S
C2973 H2944 0.950 . S
C2973 C2972 1.397 . S
C2973 C2974 1.334 . S
C2974 H2945 0.950 . S
C2974 C2973 1.334 . S
C2974 C2975 1.287 . S
C2975 C2974 1.287 . S
C2975 C2976 1.524 . S
C2975 H2978 0.999 . S
C2976 H2946 0.950 . S
C2976 C2975 1.524 . S
C2976 C2977 1.415 . S
C2977 H2947 0.950 . S
C2977 C2972 1.363 . S
C2977 C2976 1.415 . S
H2978 C2975 0.999 . S
H2979 C2960 0.913 . S
H2980 C2998 0.951 . S
H2981 C3000 0.951 . S
H2982 C3002 0.950 . S
H2983 C3003 0.950 . S
H2984 C3005 0.950 . S
H2985 C3008 0.950 . S
H2986 C3009 0.950 . S
H2987 C3011 0.950 . S
H2988 C3012 0.950 . S
H2989 C3013 0.951 . S
H2990 C3015 0.951 . S
H2991 C3017 0.950 . S
H2992 C3018 0.950 . S
H2993 C3020 0.950 . S
H2994 C3023 0.950 . S
H2995 C3024 0.950 . S
H2996 C3026 0.950 . S
H2997 C3027 0.950 . S
C2998 H2980 0.951 . S
C2998 C2999 1.366 . S
C2998 C3000 1.388 . S
C2999 C2998 1.366 . S
C2999 C3003 1.385 . S
C3000 H2981 0.951 . S
C3000 C2998 1.388 . S
C3000 C3001 1.366 . S
C3001 C3000 1.366 . S
C3001 C3002 1.414 . S
C3001 C3004 1.499 . S
C3002 H2982 0.950 . S
C3002 C3001 1.414 . S
C3002 C3003 1.374 . S
C3003 H2983 0.950 . S
C3003 C2999 1.385 . S
C3003 C3002 1.374 . S
C3004 C3001 1.499 . S
C3004 C3005 1.373 . S
C3004 C3006 1.389 . S
C3005 H2984 0.950 . S
C3005 C3004 1.373 . S
C3005 C3021 1.377 . S
C3006 C3004 1.389 . S
C3006 C3007 1.524 . S
C3006 C3020 1.377 . S
C3007 C3006 1.524 . S
C3007 C3008 1.397 . S
C3007 C3012 1.363 . S
C3008 H2985 0.950 . S
C3008 C3007 1.397 . S
C3008 C3009 1.334 . S
C3009 H2986 0.950 . S
C3009 C3008 1.334 . S
C3009 C3010 1.287 . S
C3010 C3009 1.287 . S
C3010 C3011 1.524 . S
C3010 H3029 0.913 . S
C3011 H2987 0.950 . S
C3011 C3010 1.524 . S
C3011 C3012 1.415 . S
C3012 H2988 0.950 . S
C3012 C3007 1.363 . S
C3012 C3011 1.415 . S
C3013 H2989 0.951 . S
C3013 C3014 1.366 . S
C3013 C3015 1.388 . S
C3014 C3013 1.366 . S
C3014 C3018 1.385 . S
C3015 H2990 0.951 . S
C3015 C3013 1.388 . S
C3015 C3016 1.366 . S
C3016 C3015 1.366 . S
C3016 C3017 1.414 . S
C3016 C3019 1.499 . S
C3017 H2991 0.950 . S
C3017 C3016 1.414 . S
C3017 C3018 1.374 . S
C3018 H2992 0.950 . S
C3018 C3014 1.385 . S
C3018 C3017 1.374 . S
C3019 C3016 1.499 . S
C3019 C3020 1.373 . S
C3019 C3021 1.389 . S
C3020 H2993 0.950 . S
C3020 C3006 1.377 . S
C3020 C3019 1.373 . S
C3021 C3005 1.377 . S
C3021 C3019 1.389 . S
C3021 C3022 1.524 . S
C3022 C3021 1.524 . S
C3022 C3023 1.397 . S
C3022 C3027 1.363 . S
C3023 H2994 0.950 . S
C3023 C3022 1.397 . S
C3023 C3024 1.334 . S
C3024 H2995 0.950 . S
C3024 C3023 1.334 . S
C3024 C3025 1.287 . S
C3025 C3024 1.287 . S
C3025 C3026 1.524 . S
C3025 H3028 0.999 . S
C3026 H2996 0.950 . S
C3026 C3025 1.524 . S
C3026 C3027 1.415 . S
C3027 H2997 0.950 . S
C3027 C3022 1.363 . S
C3027 C3026 1.415 . S
H3028 C3025 0.999 . S
H3029 C3010 0.913 . S
H3030 C3048 0.951 . S
H3031 C3050 0.951 . S
H3032 C3052 0.950 . S
H3033 C3053 0.950 . S
H3034 C3055 0.950 . S
H3035 C3058 0.950 . S
H3036 C3059 0.950 . S
H3037 C3061 0.950 . S
H3038 C3062 0.950 . S
H3039 C3063 0.951 . S
H3040 C3065 0.951 . S
H3041 C3067 0.950 . S
H3042 C3068 0.950 . S
H3043 C3070 0.950 . S
H3044 C3073 0.950 . S
H3045 C3074 0.950 . S
H3046 C3076 0.950 . S
H3047 C3077 0.950 . S
C3048 H3030 0.951 . S
C3048 C3049 1.366 . S
C3048 C3050 1.388 . S
C3049 C3048 1.366 . S
C3049 C3053 1.385 . S
C3050 H3031 0.951 . S
C3050 C3048 1.388 . S
C3050 C3051 1.366 . S
C3051 C3050 1.366 . S
C3051 C3052 1.414 . S
C3051 C3054 1.499 . S
C3052 H3032 0.950 . S
C3052 C3051 1.414 . S
C3052 C3053 1.374 . S
C3053 H3033 0.950 . S
C3053 C3049 1.385 . S
C3053 C3052 1.374 . S
C3054 C3051 1.499 . S
C3054 C3055 1.373 . S
C3054 C3056 1.389 . S
C3055 H3034 0.950 . S
C3055 C3054 1.373 . S
C3055 C3071 1.377 . S
C3056 C3054 1.389 . S
C3056 C3057 1.524 . S
C3056 C3070 1.377 . S
C3057 C3056 1.524 . S
C3057 C3058 1.397 . S
C3057 C3062 1.363 . S
C3058 H3035 0.950 . S
C3058 C3057 1.397 . S
C3058 C3059 1.334 . S
C3059 H3036 0.950 . S
C3059 C3058 1.334 . S
C3059 C3060 1.287 . S
C3060 C3059 1.287 . S
C3060 C3061 1.524 . S
C3060 H3079 0.913 . S
C3061 H3037 0.950 . S
C3061 C3060 1.524 . S
C3061 C3062 1.415 . S
C3062 H3038 0.950 . S
C3062 C3057 1.363 . S
C3062 C3061 1.415 . S
C3063 H3039 0.951 . S
C3063 C3064 1.366 . S
C3063 C3065 1.388 . S
C3064 C3063 1.366 . S
C3064 C3068 1.385 . S
C3065 H3040 0.951 . S
C3065 C3063 1.388 . S
C3065 C3066 1.366 . S
C3066 C3065 1.366 . S
C3066 C3067 1.414 . S
C3066 C3069 1.499 . S
C3067 H3041 0.950 . S
C3067 C3066 1.414 . S
C3067 C3068 1.374 . S
C3068 H3042 0.950 . S
C3068 C3064 1.385 . S
C3068 C3067 1.374 . S
C3069 C3066 1.499 . S
C3069 C3070 1.373 . S
C3069 C3071 1.389 . S
C3070 H3043 0.950 . S
C3070 C3056 1.377 . S
C3070 C3069 1.373 . S
C3071 C3055 1.377 . S
C3071 C3069 1.389 . S
C3071 C3072 1.524 . S
C3072 C3071 1.524 . S
C3072 C3073 1.397 . S
C3072 C3077 1.363 . S
C3073 H3044 0.950 . S
C3073 C3072 1.397 . S
C3073 C3074 1.334 . S
C3074 H3045 0.950 . S
C3074 C3073 1.334 . S
C3074 C3075 1.287 . S
C3075 C3074 1.287 . S
C3075 C3076 1.524 . S
C3075 H3078 0.999 . S
C3076 H3046 0.950 . S
C3076 C3075 1.524 . S
C3076 C3077 1.415 . S
C3077 H3047 0.950 . S
C3077 C3072 1.363 . S
C3077 C3076 1.415 . S
H3078 C3075 0.999 . S
H3079 C3060 0.913 . S
H3080 C3098 0.951 . S
H3081 C3100 0.951 . S
H3082 C3102 0.950 . S
H3083 C3103 0.950 . S
H3084 C3105 0.950 . S
H3085 C3108 0.950 . S
H3086 C3109 0.950 . S
H3087 C3111 0.950 . S
H3088 C3112 0.950 . S
H3089 C3113 0.951 . S
H3090 C3115 0.951 . S
H3091 C3117 0.950 . S
H3092 C3118 0.950 . S
H3093 C3120 0.950 . S
H3094 C3123 0.950 . S
H3095 C3124 0.950 . S
H3096 C3126 0.950 . S
H3097 C3127 0.950 . S
C3098 H3080 0.951 . S
C3098 C3099 1.366 . S
C3098 C3100 1.388 . S
C3099 C3098 1.366 . S
C3099 C3103 1.385 . S
C3100 H3081 0.951 . S
C3100 C3098 1.388 . S
C3100 C3101 1.366 . S
C3101 C3100 1.366 . S
C3101 C3102 1.414 . S
C3101 C3104 1.499 . S
C3102 H3082 0.950 . S
C3102 C3101 1.414 . S
C3102 C3103 1.374 . S
C3103 H3083 0.950 . S
C3103 C3099 1.385 . S
C3103 C3102 1.374 . S
C3104 C3101 1.499 . S
C3104 C3105 1.373 . S
C3104 C3106 1.389 . S
C3105 H3084 0.950 . S
C3105 C3104 1.373 . S
C3105 C3121 1.377 . S
C3106 C3104 1.389 . S
C3106 C3107 1.524 . S
C3106 C3120 1.377 . S
C3107 C3106 1.524 . S
C3107 C3108 1.397 . S
C3107 C3112 1.363 . S
C3108 H3085 0.950 . S
C3108 C3107 1.397 . S
C3108 C3109 1.334 . S
C3109 H3086 0.950 . S
C3109 C3108 1.334 . S
C3109 C3110 1.287 . S
C3110 C3109 1.287 . S
C3110 C3111 1.524 . S
C3110 H3129 0.913 . S
C3111 H3087 0.950 . S
C3111 C3110 1.524 . S
C3111 C3112 1.415 . S
C3112 H3088 0.950 . S
C3112 C3107 1.363 . S
C3112 C3111 1.415 . S
C3113 H3089 0.951 . S
C3113 C3114 1.366 . S
C3113 C3115 1.388 . S
C3114 C3113 1.366 . S
C3114 C3118 1.385 . S
C3115 H3090 0.951 . S
C3115 C3113 1.388 . S
C3115 C3116 1.366 . S
C3116 C3115 1.366 . S
C3116 C3117 1.414 . S
C3116 C3119 1.499 . S
C3117 H3091 0.950 . S
C3117 C3116 1.414 . S
C3117 C3118 1.374 . S
C3118 H3092 0.950 . S
C3118 C3114 1.385 . S
C3118 C3117 1.374 . S
C3119 C3116 1.499 . S
C3119 C3120 1.373 . S
C3119 C3121 1.389 . S
C3120 H3093 0.950 . S
C3120 C3106 1.377 . S
C3120 C3119 1.373 . S
C3121 C3105 1.377 . S
C3121 C3119 1.389 . S
C3121 C3122 1.524 . S
C3122 C3121 1.524 . S
C3122 C3123 1.397 . S
C3122 C3127 1.363 . S
C3123 H3094 0.950 . S
C3123 C3122 1.397 . S
C3123 C3124 1.334 . S
C3124 H3095 0.950 . S
C3124 C3123 1.334 . S
C3124 C3125 1.287 . S
C3125 C3124 1.287 . S
C3125 C3126 1.524 . S
C3125 H3128 0.999 . S
C3126 H3096 0.950 . S
C3126 C3125 1.524 . S
C3126 C3127 1.415 . S
C3127 H3097 0.950 . S
C3127 C3122 1.363 . S
C3127 C3126 1.415 . S
H3128 C3125 0.999 . S
H3129 C3110 0.913 . S
H3130 C3148 0.951 . S
H3131 C3150 0.951 . S
H3132 C3152 0.950 . S
H3133 C3153 0.950 . S
H3134 C3155 0.950 . S
H3135 C3158 0.950 . S
H3136 C3159 0.950 . S
H3137 C3161 0.950 . S
H3138 C3162 0.950 . S
H3139 C3163 0.951 . S
H3140 C3165 0.951 . S
H3141 C3167 0.950 . S
H3142 C3168 0.950 . S
H3143 C3170 0.950 . S
H3144 C3173 0.950 . S
H3145 C3174 0.950 . S
H3146 C3176 0.950 . S
H3147 C3177 0.950 . S
C3148 H3130 0.951 . S
C3148 C3149 1.366 . S
C3148 C3150 1.388 . S
C3149 C3148 1.366 . S
C3149 C3153 1.385 . S
C3150 H3131 0.951 . S
C3150 C3148 1.388 . S
C3150 C3151 1.366 . S
C3151 C3150 1.366 . S
C3151 C3152 1.414 . S
C3151 C3154 1.499 . S
C3152 H3132 0.950 . S
C3152 C3151 1.414 . S
C3152 C3153 1.374 . S
C3153 H3133 0.950 . S
C3153 C3149 1.385 . S
C3153 C3152 1.374 . S
C3154 C3151 1.499 . S
C3154 C3155 1.373 . S
C3154 C3156 1.389 . S
C3155 H3134 0.950 . S
C3155 C3154 1.373 . S
C3155 C3171 1.377 . S
C3156 C3154 1.389 . S
C3156 C3157 1.524 . S
C3156 C3170 1.377 . S
C3157 C3156 1.524 . S
C3157 C3158 1.397 . S
C3157 C3162 1.363 . S
C3158 H3135 0.950 . S
C3158 C3157 1.397 . S
C3158 C3159 1.334 . S
C3159 H3136 0.950 . S
C3159 C3158 1.334 . S
C3159 C3160 1.287 . S
C3160 C3159 1.287 . S
C3160 C3161 1.524 . S
C3160 H3179 0.913 . S
C3161 H3137 0.950 . S
C3161 C3160 1.524 . S
C3161 C3162 1.415 . S
C3162 H3138 0.950 . S
C3162 C3157 1.363 . S
C3162 C3161 1.415 . S
C3163 H3139 0.951 . S
C3163 C3164 1.366 . S
C3163 C3165 1.388 . S
C3164 C3163 1.366 . S
C3164 C3168 1.385 . S
C3165 H3140 0.951 . S
C3165 C3163 1.388 . S
C3165 C3166 1.366 . S
C3166 C3165 1.366 . S
C3166 C3167 1.414 . S
C3166 C3169 1.499 . S
C3167 H3141 0.950 . S
C3167 C3166 1.414 . S
C3167 C3168 1.374 . S
C3168 H3142 0.950 . S
C3168 C3164 1.385 . S
C3168 C3167 1.374 . S
C3169 C3166 1.499 . S
C3169 C3170 1.373 . S
C3169 C3171 1.389 . S
C3170 H3143 0.950 . S
C3170 C3156 1.377 . S
C3170 C3169 1.373 . S
C3171 C3155 1.377 . S
C3171 C3169 1.389 . S
C3171 C3172 1.524 . S
C3172 C3171 1.524 . S
C3172 C3173 1.397 . S
C3172 C3177 1.363 . S
C3173 H3144 0.950 . S
C3173 C3172 1.397 . S
C3173 C3174 1.334 . S
C3174 H3145 0.950 . S
C3174 C3173 1.334 . S
C3174 C3175 1.287 . S
C3175 C3174 1.287 . S
C3175 C3176 1.524 . S
C3175 H3178 0.999 . S
C3176 H3146 0.950 . S
C3176 C3175 1.524 . S
C3176 C3177 1.415 . S
C3177 H3147 0.950 . S
C3177 C3172 1.363 . S
C3177 C3176 1.415 . S
H3178 C3175 0.999 . S
H3179 C3160 0.913 . S
H3180 C3198 0.951 . S
H3181 C3200 0.951 . S
H3182 C3202 0.950 . S
H3183 C3203 0.950 . S
H3184 C3205 0.950 . S
H3185 C3208 0.950 . S
H3186 C3209 0.950 . S
H3187 C3211 0.950 . S
H3188 C3212 0.950 . S
H3189 C3213 0.951 . S
H3190 C3215 0.951 . S
H3191 C3217 0.950 . S
H3192 C3218 0.950 . S
H3193 C3220 0.950 . S
H3194 C3223 0.950 . S
H3195 C3224 0.950 . S
H3196 C3226 0.950 . S
H3197 C3227 0.950 . S
C3198 H3180 0.951 . S
C3198 C3199 1.366 . S
C3198 C3200 1.388 . S
C3199 C3198 1.366 . S
C3199 C3203 1.385 . S
C3200 H3181 0.951 . S
C3200 C3198 1.388 . S
C3200 C3201 1.366 . S
C3201 C3200 1.366 . S
C3201 C3202 1.414 . S
C3201 C3204 1.499 . S
C3202 H3182 0.950 . S
C3202 C3201 1.414 . S
C3202 C3203 1.374 . S
C3203 H3183 0.950 . S
C3203 C3199 1.385 . S
C3203 C3202 1.374 . S
C3204 C3201 1.499 . S
C3204 C3205 1.373 . S
C3204 C3206 1.389 . S
C3205 H3184 0.950 . S
C3205 C3204 1.373 . S
C3205 C3221 1.377 . S
C3206 C3204 1.389 . S
C3206 C3207 1.524 . S
C3206 C3220 1.377 . S
C3207 C3206 1.524 . S
C3207 C3208 1.397 . S
C3207 C3212 1.363 . S
C3208 H3185 0.950 . S
C3208 C3207 1.397 . S
C3208 C3209 1.334 . S
C3209 H3186 0.950 . S
C3209 C3208 1.334 . S
C3209 C3210 1.287 . S
C3210 C3209 1.287 . S
C3210 C3211 1.524 . S
C3210 H3229 0.913 . S
C3211 H3187 0.950 . S
C3211 C3210 1.524 . S
C3211 C3212 1.415 . S
C3212 H3188 0.950 . S
C3212 C3207 1.363 . S
C3212 C3211 1.415 . S
C3213 H3189 0.951 . S
C3213 C3214 1.366 . S
C3213 C3215 1.388 . S
C3214 C3213 1.366 . S
C3214 C3218 1.385 . S
C3215 H3190 0.951 . S
C3215 C3213 1.388 . S
C3215 C3216 1.366 . S
C3216 C3215 1.366 . S
C3216 C3217 1.414 . S
C3216 C3219 1.499 . S
C3217 H3191 0.950 . S
C3217 C3216 1.414 . S
C3217 C3218 1.374 . S
C3218 H3192 0.950 . S
C3218 C3214 1.385 . S
C3218 C3217 1.374 . S
C3219 C3216 1.499 . S
C3219 C3220 1.373 . S
C3219 C3221 1.389 . S
C3220 H3193 0.950 . S
C3220 C3206 1.377 . S
C3220 C3219 1.373 . S
C3221 C3205 1.377 . S
C3221 C3219 1.389 . S
C3221 C3222 1.524 . S
C3222 C3221 1.524 . S
C3222 C3223 1.397 . S
C3222 C3227 1.363 . S
C3223 H3194 0.950 . S
C3223 C3222 1.397 . S
C3223 C3224 1.334 . S
C3224 H3195 0.950 . S
C3224 C3223 1.334 . S
C3224 C3225 1.287 . S
C3225 C3224 1.287 . S
C3225 C3226 1.524 . S
C3225 H3228 0.999 . S
C3226 H3196 0.950 . S
C3226 C3225 1.524 . S
C3226 C3227 1.415 . S
C3227 H3197 0.950 . S
C3227 C3222 1.363 . S
C3227 C3226 1.415 . S
H3228 C3225 0.999 . S
H3229 C3210 0.913 . S
H3230 C3248 0.951 . S
H3231 C3250 0.951 . S
H3232 C3252 0.950 . S
H3233 C3253 0.950 . S
H3234 C3255 0.950 . S
H3235 C3258 0.950 . S
H3236 C3259 0.950 . S
H3237 C3261 0.950 . S
H3238 C3262 0.950 . S
H3239 C3263 0.951 . S
H3240 C3265 0.951 . S
H3241 C3267 0.950 . S
H3242 C3268 0.950 . S
H3243 C3270 0.950 . S
H3244 C3273 0.950 . S
H3245 C3274 0.950 . S
H3246 C3276 0.950 . S
H3247 C3277 0.950 . S
C3248 H3230 0.951 . S
C3248 C3249 1.366 . S
C3248 C3250 1.388 . S
C3249 C3248 1.366 . S
C3249 C3253 1.385 . S
C3250 H3231 0.951 . S
C3250 C3248 1.388 . S
C3250 C3251 1.366 . S
C3251 C3250 1.366 . S
C3251 C3252 1.414 . S
C3251 C3254 1.499 . S
C3252 H3232 0.950 . S
C3252 C3251 1.414 . S
C3252 C3253 1.374 . S
C3253 H3233 0.950 . S
C3253 C3249 1.385 . S
C3253 C3252 1.374 . S
C3254 C3251 1.499 . S
C3254 C3255 1.373 . S
C3254 C3256 1.389 . S
C3255 H3234 0.950 . S
C3255 C3254 1.373 . S
C3255 C3271 1.377 . S
C3256 C3254 1.389 . S
C3256 C3257 1.524 . S
C3256 C3270 1.377 . S
C3257 C3256 1.524 . S
C3257 C3258 1.397 . S
C3257 C3262 1.363 . S
C3258 H3235 0.950 . S
C3258 C3257 1.397 . S
C3258 C3259 1.334 . S
C3259 H3236 0.950 . S
C3259 C3258 1.334 . S
C3259 C3260 1.287 . S
C3260 C3259 1.287 . S
C3260 C3261 1.524 . S
C3260 H3279 0.913 . S
C3261 H3237 0.950 . S
C3261 C3260 1.524 . S
C3261 C3262 1.415 . S
C3262 H3238 0.950 . S
C3262 C3257 1.363 . S
C3262 C3261 1.415 . S
C3263 H3239 0.951 . S
C3263 C3264 1.366 . S
C3263 C3265 1.388 . S
C3264 C3263 1.366 . S
C3264 C3268 1.385 . S
C3265 H3240 0.951 . S
C3265 C3263 1.388 . S
C3265 C3266 1.366 . S
C3266 C3265 1.366 . S
C3266 C3267 1.414 . S
C3266 C3269 1.499 . S
C3267 H3241 0.950 . S
C3267 C3266 1.414 . S
C3267 C3268 1.374 . S
C3268 H3242 0.950 . S
C3268 C3264 1.385 . S
C3268 C3267 1.374 . S
C3269 C3266 1.499 . S
C3269 C3270 1.373 . S
C3269 C3271 1.389 . S
C3270 H3243 0.950 . S
C3270 C3256 1.377 . S
C3270 C3269 1.373 . S
C3271 C3255 1.377 . S
C3271 C3269 1.389 . S
C3271 C3272 1.524 . S
C3272 C3271 1.524 . S
C3272 C3273 1.397 . S
C3272 C3277 1.363 . S
C3273 H3244 0.950 . S
C3273 C3272 1.397 . S
C3273 C3274 1.334 . S
C3274 H3245 0.950 . S
C3274 C3273 1.334 . S
C3274 C3275 1.287 . S
C3275 C3274 1.287 . S
C3275 C3276 1.524 . S
C3275 H3278 0.999 . S
C3276 H3246 0.950 . S
C3276 C3275 1.524 . S
C3276 C3277 1.415 . S
C3277 H3247 0.950 . S
C3277 C3272 1.363 . S
C3277 C3276 1.415 . S
H3278 C3275 0.999 . S
H3279 C3260 0.913 . S
H3280 C3298 0.951 . S
H3281 C3300 0.951 . S
H3282 C3302 0.950 . S
H3283 C3303 0.950 . S
H3284 C3305 0.950 . S
H3285 C3308 0.950 . S
H3286 C3309 0.950 . S
H3287 C3311 0.950 . S
H3288 C3312 0.950 . S
H3289 C3313 0.951 . S
H3290 C3315 0.951 . S
H3291 C3317 0.950 . S
H3292 C3318 0.950 . S
H3293 C3320 0.950 . S
H3294 C3323 0.950 . S
H3295 C3324 0.950 . S
H3296 C3326 0.950 . S
H3297 C3327 0.950 . S
C3298 H3280 0.951 . S
C3298 C3299 1.366 . S
C3298 C3300 1.388 . S
C3299 C3298 1.366 . S
C3299 C3303 1.385 . S
C3300 H3281 0.951 . S
C3300 C3298 1.388 . S
C3300 C3301 1.366 . S
C3301 C3300 1.366 . S
C3301 C3302 1.414 . S
C3301 C3304 1.499 . S
C3302 H3282 0.950 . S
C3302 C3301 1.414 . S
C3302 C3303 1.374 . S
C3303 H3283 0.950 . S
C3303 C3299 1.385 . S
C3303 C3302 1.374 . S
C3304 C3301 1.499 . S
C3304 C3305 1.373 . S
C3304 C3306 1.389 . S
C3305 H3284 0.950 . S
C3305 C3304 1.373 . S
C3305 C3321 1.377 . S
C3306 C3304 1.389 . S
C3306 C3307 1.524 . S
C3306 C3320 1.377 . S
C3307 C3306 1.524 . S
C3307 C3308 1.397 . S
C3307 C3312 1.363 . S
C3308 H3285 0.950 . S
C3308 C3307 1.397 . S
C3308 C3309 1.334 . S
C3309 H3286 0.950 . S
C3309 C3308 1.334 . S
C3309 C3310 1.287 . S
C3310 C3309 1.287 . S
C3310 C3311 1.524 . S
C3310 H3329 0.913 . S
C3311 H3287 0.950 . S
C3311 C3310 1.524 . S
C3311 C3312 1.415 . S
C3312 H3288 0.950 . S
C3312 C3307 1.363 . S
C3312 C3311 1.415 . S
C3313 H3289 0.951 . S
C3313 C3314 1.366 . S
C3313 C3315 1.388 . S
C3314 C3313 1.366 . S
C3314 C3318 1.385 . S
C3315 H3290 0.951 . S
C3315 C3313 1.388 . S
C3315 C3316 1.366 . S
C3316 C3315 1.366 . S
C3316 C3317 1.414 . S
C3316 C3319 1.499 . S
C3317 H3291 0.950 . S
C3317 C3316 1.414 . S
C3317 C3318 1.374 . S
C3318 H3292 0.950 . S
C3318 C3314 1.385 . S
C3318 C3317 1.374 . S
C3319 C3316 1.499 . S
C3319 C3320 1.373 . S
C3319 C3321 1.389 . S
C3320 H3293 0.950 . S
C3320 C3306 1.377 . S
C3320 C3319 1.373 . S
C3321 C3305 1.377 . S
C3321 C3319 1.389 . S
C3321 C3322 1.524 . S
C3322 C3321 1.524 . S
C3322 C3323 1.397 . S
C3322 C3327 1.363 . S
C3323 H3294 0.950 . S
C3323 C3322 1.397 . S
C3323 C3324 1.334 . S
C3324 H3295 0.950 . S
C3324 C3323 1.334 . S
C3324 C3325 1.287 . S
C3325 C3324 1.287 . S
C3325 C3326 1.524 . S
C3325 H3328 0.999 . S
C3326 H3296 0.950 . S
C3326 C3325 1.524 . S
C3326 C3327 1.415 . S
C3327 H3297 0.950 . S
C3327 C3322 1.363 . S
C3327 C3326 1.415 . S
H3328 C3325 0.999 . S
H3329 C3310 0.913 . S
H3330 C3348 0.951 . S
H3331 C3350 0.951 . S
H3332 C3352 0.950 . S
H3333 C3353 0.950 . S
H3334 C3355 0.950 . S
H3335 C3358 0.950 . S
H3336 C3359 0.950 . S
H3337 C3361 0.950 . S
H3338 C3362 0.950 . S
H3339 C3363 0.951 . S
H3340 C3365 0.951 . S
H3341 C3367 0.950 . S
H3342 C3368 0.950 . S
H3343 C3370 0.950 . S
H3344 C3373 0.950 . S
H3345 C3374 0.950 . S
H3346 C3376 0.950 . S
H3347 C3377 0.950 . S
C3348 H3330 0.951 . S
C3348 C3349 1.366 . S
C3348 C3350 1.388 . S
C3349 C3348 1.366 . S
C3349 C3353 1.385 . S
C3350 H3331 0.951 . S
C3350 C3348 1.388 . S
C3350 C3351 1.366 . S
C3351 C3350 1.366 . S
C3351 C3352 1.414 . S
C3351 C3354 1.499 . S
C3352 H3332 0.950 . S
C3352 C3351 1.414 . S
C3352 C3353 1.374 . S
C3353 H3333 0.950 . S
C3353 C3349 1.385 . S
C3353 C3352 1.374 . S
C3354 C3351 1.499 . S
C3354 C3355 1.373 . S
C3354 C3356 1.389 . S
C3355 H3334 0.950 . S
C3355 C3354 1.373 . S
C3355 C3371 1.377 . S
C3356 C3354 1.389 . S
C3356 C3357 1.524 . S
C3356 C3370 1.377 . S
C3357 C3356 1.524 . S
C3357 C3358 1.397 . S
C3357 C3362 1.363 . S
C3358 H3335 0.950 . S
C3358 C3357 1.397 . S
C3358 C3359 1.334 . S
C3359 H3336 0.950 . S
C3359 C3358 1.334 . S
C3359 C3360 1.287 . S
C3360 C3359 1.287 . S
C3360 C3361 1.524 . S
C3360 H3379 0.913 . S
C3361 H3337 0.950 . S
C3361 C3360 1.524 . S
C3361 C3362 1.415 . S
C3362 H3338 0.950 . S
C3362 C3357 1.363 . S
C3362 C3361 1.415 . S
C3363 H3339 0.951 . S
C3363 C3364 1.366 . S
C3363 C3365 1.388 . S
C3364 C3363 1.366 . S
C3364 C3368 1.385 . S
C3365 H3340 0.951 . S
C3365 C3363 1.388 . S
C3365 C3366 1.366 . S
C3366 C3365 1.366 . S
C3366 C3367 1.414 . S
C3366 C3369 1.499 . S
C3367 H3341 0.950 . S
C3367 C3366 1.414 . S
C3367 C3368 1.374 . S
C3368 H3342 0.950 . S
C3368 C3364 1.385 . S
C3368 C3367 1.374 . S
C3369 C3366 1.499 . S
C3369 C3370 1.373 . S
C3369 C3371 1.389 . S
C3370 H3343 0.950 . S
C3370 C3356 1.377 . S
C3370 C3369 1.373 . S
C3371 C3355 1.377 . S
C3371 C3369 1.389 . S
C3371 C3372 1.524 . S
C3372 C3371 1.524 . S
C3372 C3373 1.397 . S
C3372 C3377 1.363 . S
C3373 H3344 0.950 . S
C3373 C3372 1.397 . S
C3373 C3374 1.334 . S
C3374 H3345 0.950 . S
C3374 C3373 1.334 . S
C3374 C3375 1.287 . S
C3375 C3374 1.287 . S
C3375 C3376 1.524 . S
C3375 H3378 0.999 . S
C3376 H3346 0.950 . S
C3376 C3375 1.524 . S
C3376 C3377 1.415 . S
C3377 H3347 0.950 . S
C3377 C3372 1.363 . S
C3377 C3376 1.415 . S
H3378 C3375 0.999 . S
H3379 C3360 0.913 . S
H3380 C3398 0.951 . S
H3381 C3400 0.951 . S
H3382 C3402 0.950 . S
H3383 C3403 0.950 . S
H3384 C3405 0.950 . S
H3385 C3408 0.950 . S
H3386 C3409 0.950 . S
H3387 C3411 0.950 . S
H3388 C3412 0.950 . S
H3389 C3413 0.951 . S
H3390 C3415 0.951 . S
H3391 C3417 0.950 . S
H3392 C3418 0.950 . S
H3393 C3420 0.950 . S
H3394 C3423 0.950 . S
H3395 C3424 0.950 . S
H3396 C3426 0.950 . S
H3397 C3427 0.950 . S
C3398 H3380 0.951 . S
C3398 C3399 1.366 . S
C3398 C3400 1.388 . S
C3399 C3398 1.366 . S
C3399 C3403 1.385 . S
C3400 H3381 0.951 . S
C3400 C3398 1.388 . S
C3400 C3401 1.366 . S
C3401 C3400 1.366 . S
C3401 C3402 1.414 . S
C3401 C3404 1.499 . S
C3402 H3382 0.950 . S
C3402 C3401 1.414 . S
C3402 C3403 1.374 . S
C3403 H3383 0.950 . S
C3403 C3399 1.385 . S
C3403 C3402 1.374 . S
C3404 C3401 1.499 . S
C3404 C3405 1.373 . S
C3404 C3406 1.389 . S
C3405 H3384 0.950 . S
C3405 C3404 1.373 . S
C3405 C3421 1.377 . S
C3406 C3404 1.389 . S
C3406 C3407 1.524 . S
C3406 C3420 1.377 . S
C3407 C3406 1.524 . S
C3407 C3408 1.397 . S
C3407 C3412 1.363 . S
C3408 H3385 0.950 . S
C3408 C3407 1.397 . S
C3408 C3409 1.334 . S
C3409 H3386 0.950 . S
C3409 C3408 1.334 . S
C3409 C3410 1.287 . S
C3410 C3409 1.287 . S
C3410 C3411 1.524 . S
C3410 H3429 0.913 . S
C3411 H3387 0.950 . S
C3411 C3410 1.524 . S
C3411 C3412 1.415 . S
C3412 H3388 0.950 . S
C3412 C3407 1.363 . S
C3412 C3411 1.415 . S
C3413 H3389 0.951 . S
C3413 C3414 1.366 . S
C3413 C3415 1.388 . S
C3414 C3413 1.366 . S
C3414 C3418 1.385 . S
C3415 H3390 0.951 . S
C3415 C3413 1.388 . S
C3415 C3416 1.366 . S
C3416 C3415 1.366 . S
C3416 C3417 1.414 . S
C3416 C3419 1.499 . S
C3417 H3391 0.950 . S
C3417 C3416 1.414 . S
C3417 C3418 1.374 . S
C3418 H3392 0.950 . S
C3418 C3414 1.385 . S
C3418 C3417 1.374 . S
C3419 C3416 1.499 . S
C3419 C3420 1.373 . S
C3419 C3421 1.389 . S
C3420 H3393 0.950 . S
C3420 C3406 1.377 . S
C3420 C3419 1.373 . S
C3421 C3405 1.377 . S
C3421 C3419 1.389 . S
C3421 C3422 1.524 . S
C3422 C3421 1.524 . S
C3422 C3423 1.397 . S
C3422 C3427 1.363 . S
C3423 H3394 0.950 . S
C3423 C3422 1.397 . S
C3423 C3424 1.334 . S
C3424 H3395 0.950 . S
C3424 C3423 1.334 . S
C3424 C3425 1.287 . S
C3425 C3424 1.287 . S
C3425 C3426 1.524 . S
C3425 H3428 0.999 . S
C3426 H3396 0.950 . S
C3426 C3425 1.524 . S
C3426 C3427 1.415 . S
C3427 H3397 0.950 . S
C3427 C3422 1.363 . S
C3427 C3426 1.415 . S
H3428 C3425 0.999 . S
H3429 C3410 0.913 . S
H3430 C3448 0.951 . S
H3431 C3450 0.951 . S
H3432 C3452 0.950 . S
H3433 C3453 0.950 . S
H3434 C3455 0.950 . S
H3435 C3458 0.950 . S
H3436 C3459 0.950 . S
H3437 C3461 0.950 . S
H3438 C3462 0.950 . S
H3439 C3463 0.951 . S
H3440 C3465 0.951 . S
H3441 C3467 0.950 . S
H3442 C3468 0.950 . S
H3443 C3470 0.950 . S
H3444 C3473 0.950 . S
H3445 C3474 0.950 . S
H3446 C3476 0.950 . S
H3447 C3477 0.950 . S
C3448 H3430 0.951 . S
C3448 C3449 1.366 . S
C3448 C3450 1.388 . S
C3449 C3448 1.366 . S
C3449 C3453 1.385 . S
C3450 H3431 0.951 . S
C3450 C3448 1.388 . S
C3450 C3451 1.366 . S
C3451 C3450 1.366 . S
C3451 C3452 1.414 . S
C3451 C3454 1.499 . S
C3452 H3432 0.950 . S
C3452 C3451 1.414 . S
C3452 C3453 1.374 . S
C3453 H3433 0.950 . S
C3453 C3449 1.385 . S
C3453 C3452 1.374 . S
C3454 C3451 1.499 . S
C3454 C3455 1.373 . S
C3454 C3456 1.389 . S
C3455 H3434 0.950 . S
C3455 C3454 1.373 . S
C3455 C3471 1.377 . S
C3456 C3454 1.389 . S
C3456 C3457 1.524 . S
C3456 C3470 1.377 . S
C3457 C3456 1.524 . S
C3457 C3458 1.397 . S
C3457 C3462 1.363 . S
C3458 H3435 0.950 . S
C3458 C3457 1.397 . S
C3458 C3459 1.334 . S
C3459 H3436 0.950 . S
C3459 C3458 1.334 . S
C3459 C3460 1.287 . S
C3460 C3459 1.287 . S
C3460 C3461 1.524 . S
C3460 H3479 0.913 . S
C3461 H3437 0.950 . S
C3461 C3460 1.524 . S
C3461 C3462 1.415 . S
C3462 H3438 0.950 . S
C3462 C3457 1.363 . S
C3462 C3461 1.415 . S
C3463 H3439 0.951 . S
C3463 C3464 1.366 . S
C3463 C3465 1.388 . S
C3464 C3463 1.366 . S
C3464 C3468 1.385 . S
C3465 H3440 0.951 . S
C3465 C3463 1.388 . S
C3465 C3466 1.366 . S
C3466 C3465 1.366 . S
C3466 C3467 1.414 . S
C3466 C3469 1.499 . S
C3467 H3441 0.950 . S
C3467 C3466 1.414 . S
C3467 C3468 1.374 . S
C3468 H3442 0.950 . S
C3468 C3464 1.385 . S
C3468 C3467 1.374 . S
C3469 C3466 1.499 . S
C3469 C3470 1.373 . S
C3469 C3471 1.389 . S
C3470 H3443 0.950 . S
C3470 C3456 1.377 . S
C3470 C3469 1.373 . S
C3471 C3455 1.377 . S
C3471 C3469 1.389 . S
C3471 C3472 1.524 . S
C3472 C3471 1.524 . S
C3472 C3473 1.397 . S
C3472 C3477 1.363 . S
C3473 H3444 0.950 . S
C3473 C3472 1.397 . S
C3473 C3474 1.334 . S
C3474 H3445 0.950 . S
C3474 C3473 1.334 . S
C3474 C3475 1.287 . S
C3475 C3474 1.287 . S
C3475 C3476 1.524 . S
C3475 H3478 0.999 . S
C3476 H3446 0.950 . S
C3476 C3475 1.524 . S
C3476 C3477 1.415 . S
C3477 H3447 0.950 . S
C3477 C3472 1.363 . S
C3477 C3476 1.415 . S
H3478 C3475 0.999 . S
H3479 C3460 0.913 . S
H3480 C3498 0.951 . S
H3481 C3500 0.951 . S
H3482 C3502 0.950 . S
H3483 C3503 0.950 . S
H3484 C3505 0.950 . S
H3485 C3508 0.950 . S
H3486 C3509 0.950 . S
H3487 C3511 0.950 . S
H3488 C3512 0.950 . S
H3489 C3513 0.951 . S
H3490 C3515 0.951 . S
H3491 C3517 0.950 . S
H3492 C3518 0.950 . S
H3493 C3520 0.950 . S
H3494 C3523 0.950 . S
H3495 C3524 0.950 . S
H3496 C3526 0.950 . S
H3497 C3527 0.950 . S
C3498 H3480 0.951 . S
C3498 C3499 1.366 . S
C3498 C3500 1.388 . S
C3499 C3498 1.366 . S
C3499 C3503 1.385 . S
C3500 H3481 0.951 . S
C3500 C3498 1.388 . S
C3500 C3501 1.366 . S
C3501 C3500 1.366 . S
C3501 C3502 1.414 . S
C3501 C3504 1.499 . S
C3502 H3482 0.950 . S
C3502 C3501 1.414 . S
C3502 C3503 1.374 . S
C3503 H3483 0.950 . S
C3503 C3499 1.385 . S
C3503 C3502 1.374 . S
C3504 C3501 1.499 . S
C3504 C3505 1.373 . S
C3504 C3506 1.389 . S
C3505 H3484 0.950 . S
C3505 C3504 1.373 . S
C3505 C3521 1.377 . S
C3506 C3504 1.389 . S
C3506 C3507 1.524 . S
C3506 C3520 1.377 . S
C3507 C3506 1.524 . S
C3507 C3508 1.397 . S
C3507 C3512 1.363 . S
C3508 H3485 0.950 . S
C3508 C3507 1.397 . S
C3508 C3509 1.334 . S
C3509 H3486 0.950 . S
C3509 C3508 1.334 . S
C3509 C3510 1.287 . S
C3510 C3509 1.287 . S
C3510 C3511 1.524 . S
C3510 H3529 0.913 . S
C3511 H3487 0.950 . S
C3511 C3510 1.524 . S
C3511 C3512 1.415 . S
C3512 H3488 0.950 . S
C3512 C3507 1.363 . S
C3512 C3511 1.415 . S
C3513 H3489 0.951 . S
C3513 C3514 1.366 . S
C3513 C3515 1.388 . S
C3514 C3513 1.366 . S
C3514 C3518 1.385 . S
C3515 H3490 0.951 . S
C3515 C3513 1.388 . S
C3515 C3516 1.366 . S
C3516 C3515 1.366 . S
C3516 C3517 1.414 . S
C3516 C3519 1.499 . S
C3517 H3491 0.950 . S
C3517 C3516 1.414 . S
C3517 C3518 1.374 . S
C3518 H3492 0.950 . S
C3518 C3514 1.385 . S
C3518 C3517 1.374 . S
C3519 C3516 1.499 . S
C3519 C3520 1.373 . S
C3519 C3521 1.389 . S
C3520 H3493 0.950 . S
C3520 C3506 1.377 . S
C3520 C3519 1.373 . S
C3521 C3505 1.377 . S
C3521 C3519 1.389 . S
C3521 C3522 1.524 . S
C3522 C3521 1.524 . S
C3522 C3523 1.397 . S
C3522 C3527 1.363 . S
C3523 H3494 0.950 . S
C3523 C3522 1.397 . S
C3523 C3524 1.334 . S
C3524 H3495 0.950 . S
C3524 C3523 1.334 . S
C3524 C3525 1.287 . S
C3525 C3524 1.287 . S
C3525 C3526 1.524 . S
C3525 H3528 0.999 . S
C3526 H3496 0.950 . S
C3526 C3525 1.524 . S
C3526 C3527 1.415 . S
C3527 H3497 0.950 . S
C3527 C3522 1.363 . S
C3527 C3526 1.415 . S
H3528 C3525 0.999 . S
H3529 C3510 0.913 . S
H3530 C3548 0.951 . S
H3531 C3550 0.951 . S
H3532 C3552 0.950 . S
H3533 C3553 0.950 . S
H3534 C3555 0.950 . S
H3535 C3558 0.950 . S
H3536 C3559 0.950 . S
H3537 C3561 0.950 . S
H3538 C3562 0.950 . S
H3539 C3563 0.951 . S
H3540 C3565 0.951 . S
H3541 C3567 0.950 . S
H3542 C3568 0.950 . S
H3543 C3570 0.950 . S
H3544 C3573 0.950 . S
H3545 C3574 0.950 . S
H3546 C3576 0.950 . S
H3547 C3577 0.950 . S
C3548 H3530 0.951 . S
C3548 C3549 1.366 . S
C3548 C3550 1.388 . S
C3549 C3548 1.366 . S
C3549 C3553 1.385 . S
C3550 H3531 0.951 . S
C3550 C3548 1.388 . S
C3550 C3551 1.366 . S
C3551 C3550 1.366 . S
C3551 C3552 1.414 . S
C3551 C3554 1.499 . S
C3552 H3532 0.950 . S
C3552 C3551 1.414 . S
C3552 C3553 1.374 . S
C3553 H3533 0.950 . S
C3553 C3549 1.385 . S
C3553 C3552 1.374 . S
C3554 C3551 1.499 . S
C3554 C3555 1.373 . S
C3554 C3556 1.389 . S
C3555 H3534 0.950 . S
C3555 C3554 1.373 . S
C3555 C3571 1.377 . S
C3556 C3554 1.389 . S
C3556 C3557 1.524 . S
C3556 C3570 1.377 . S
C3557 C3556 1.524 . S
C3557 C3558 1.397 . S
C3557 C3562 1.363 . S
C3558 H3535 0.950 . S
C3558 C3557 1.397 . S
C3558 C3559 1.334 . S
C3559 H3536 0.950 . S
C3559 C3558 1.334 . S
C3559 C3560 1.287 . S
C3560 C3559 1.287 . S
C3560 C3561 1.524 . S
C3560 H3579 0.913 . S
C3561 H3537 0.950 . S
C3561 C3560 1.524 . S
C3561 C3562 1.415 . S
C3562 H3538 0.950 . S
C3562 C3557 1.363 . S
C3562 C3561 1.415 . S
C3563 H3539 0.951 . S
C3563 C3564 1.366 . S
C3563 C3565 1.388 . S
C3564 C3563 1.366 . S
C3564 C3568 1.385 . S
C3565 H3540 0.951 . S
C3565 C3563 1.388 . S
C3565 C3566 1.366 . S
C3566 C3565 1.366 . S
C3566 C3567 1.414 . S
C3566 C3569 1.499 . S
C3567 H3541 0.950 . S
C3567 C3566 1.414 . S
C3567 C3568 1.374 . S
C3568 H3542 0.950 . S
C3568 C3564 1.385 . S
C3568 C3567 1.374 . S
C3569 C3566 1.499 . S
C3569 C3570 1.373 . S
C3569 C3571 1.389 . S
C3570 H3543 0.950 . S
C3570 C3556 1.377 . S
C3570 C3569 1.373 . S
C3571 C3555 1.377 . S
C3571 C3569 1.389 . S
C3571 C3572 1.524 . S
C3572 C3571 1.524 . S
C3572 C3573 1.397 . S
C3572 C3577 1.363 . S
C3573 H3544 0.950 . S
C3573 C3572 1.397 . S
C3573 C3574 1.334 . S
C3574 H3545 0.950 . S
C3574 C3573 1.334 . S
C3574 C3575 1.287 . S
C3575 C3574 1.287 . S
C3575 C3576 1.524 . S
C3575 H3578 0.999 . S
C3576 H3546 0.950 . S
C3576 C3575 1.524 . S
C3576 C3577 1.415 . S
C3577 H3547 0.950 . S
C3577 C3572 1.363 . S
C3577 C3576 1.415 . S
H3578 C3575 0.999 . S
H3579 C3560 0.913 . S
H3580 C3598 0.951 . S
H3581 C3600 0.951 . S
H3582 C3602 0.950 . S
H3583 C3603 0.950 . S
H3584 C3605 0.950 . S
H3585 C3608 0.950 . S
H3586 C3609 0.950 . S
H3587 C3611 0.950 . S
H3588 C3612 0.950 . S
H3589 C3613 0.951 . S
H3590 C3615 0.951 . S
H3591 C3617 0.950 . S
H3592 C3618 0.950 . S
H3593 C3620 0.950 . S
H3594 C3623 0.950 . S
H3595 C3624 0.950 . S
H3596 C3626 0.950 . S
H3597 C3627 0.950 . S
C3598 H3580 0.951 . S
C3598 C3599 1.366 . S
C3598 C3600 1.388 . S
C3599 C3598 1.366 . S
C3599 C3603 1.385 . S
C3600 H3581 0.951 . S
C3600 C3598 1.388 . S
C3600 C3601 1.366 . S
C3601 C3600 1.366 . S
C3601 C3602 1.414 . S
C3601 C3604 1.499 . S
C3602 H3582 0.950 . S
C3602 C3601 1.414 . S
C3602 C3603 1.374 . S
C3603 H3583 0.950 . S
C3603 C3599 1.385 . S
C3603 C3602 1.374 . S
C3604 C3601 1.499 . S
C3604 C3605 1.373 . S
C3604 C3606 1.389 . S
C3605 H3584 0.950 . S
C3605 C3604 1.373 . S
C3605 C3621 1.377 . S
C3606 C3604 1.389 . S
C3606 C3607 1.524 . S
C3606 C3620 1.377 . S
C3607 C3606 1.524 . S
C3607 C3608 1.397 . S
C3607 C3612 1.363 . S
C3608 H3585 0.950 . S
C3608 C3607 1.397 . S
C3608 C3609 1.334 . S
C3609 H3586 0.950 . S
C3609 C3608 1.334 . S
C3609 C3610 1.287 . S
C3610 C3609 1.287 . S
C3610 C3611 1.524 . S
C3610 H3629 0.913 . S
C3611 H3587 0.950 . S
C3611 C3610 1.524 . S
C3611 C3612 1.415 . S
C3612 H3588 0.950 . S
C3612 C3607 1.363 . S
C3612 C3611 1.415 . S
C3613 H3589 0.951 . S
C3613 C3614 1.366 . S
C3613 C3615 1.388 . S
C3614 C3613 1.366 . S
C3614 C3618 1.385 . S
C3615 H3590 0.951 . S
C3615 C3613 1.388 . S
C3615 C3616 1.366 . S
C3616 C3615 1.366 . S
C3616 C3617 1.414 . S
C3616 C3619 1.499 . S
C3617 H3591 0.950 . S
C3617 C3616 1.414 . S
C3617 C3618 1.374 . S
C3618 H3592 0.950 . S
C3618 C3614 1.385 . S
C3618 C3617 1.374 . S
C3619 C3616 1.499 . S
C3619 C3620 1.373 . S
C3619 C3621 1.389 . S
C3620 H3593 0.950 . S
C3620 C3606 1.377 . S
C3620 C3619 1.373 . S
C3621 C3605 1.377 . S
C3621 C3619 1.389 . S
C3621 C3622 1.524 . S
C3622 C3621 1.524 . S
C3622 C3623 1.397 . S
C3622 C3627 1.363 . S
C3623 H3594 0.950 . S
C3623 C3622 1.397 . S
C3623 C3624 1.334 . S
C3624 H3595 0.950 . S
C3624 C3623 1.334 . S
C3624 C3625 1.287 . S
C3625 C3624 1.287 . S
C3625 C3626 1.524 . S
C3625 H3628 0.999 . S
C3626 H3596 0.950 . S
C3626 C3625 1.524 . S
C3626 C3627 1.415 . S
C3627 H3597 0.950 . S
C3627 C3622 1.363 . S
C3627 C3626 1.415 . S
H3628 C3625 0.999 . S
H3629 C3610 0.913 . S
H3630 C3648 0.951 . S
H3631 C3650 0.951 . S
H3632 C3652 0.950 . S
H3633 C3653 0.950 . S
H3634 C3655 0.950 . S
H3635 C3658 0.950 . S
H3636 C3659 0.950 . S
H3637 C3661 0.950 . S
H3638 C3662 0.950 . S
H3639 C3663 0.951 . S
H3640 C3665 0.951 . S
H3641 C3667 0.950 . S
H3642 C3668 0.950 . S
H3643 C3670 0.950 . S
H3644 C3673 0.950 . S
H3645 C3674 0.950 . S
H3646 C3676 0.950 . S
H3647 C3677 0.950 . S
C3648 H3630 0.951 . S
C3648 C3649 1.366 . S
C3648 C3650 1.388 . S
C3649 C3648 1.366 . S
C3649 C3653 1.385 . S
C3650 H3631 0.951 . S
C3650 C3648 1.388 . S
C3650 C3651 1.366 . S
C3651 C3650 1.366 . S
C3651 C3652 1.414 . S
C3651 C3654 1.499 . S
C3652 H3632 0.950 . S
C3652 C3651 1.414 . S
C3652 C3653 1.374 . S
C3653 H3633 0.950 . S
C3653 C3649 1.385 . S
C3653 C3652 1.374 . S
C3654 C3651 1.499 . S
C3654 C3655 1.373 . S
C3654 C3656 1.389 . S
C3655 H3634 0.950 . S
C3655 C3654 1.373 . S
C3655 C3671 1.377 . S
C3656 C3654 1.389 . S
C3656 C3657 1.524 . S
C3656 C3670 1.377 . S
C3657 C3656 1.524 . S
C3657 C3658 1.397 . S
C3657 C3662 1.363 . S
C3658 H3635 0.950 . S
C3658 C3657 1.397 . S
C3658 C3659 1.334 . S
C3659 H3636 0.950 . S
C3659 C3658 1.334 . S
C3659 C3660 1.287 . S
C3660 C3659 1.287 . S
C3660 C3661 1.524 . S
C3660 H3679 0.913 . S
C3661 H3637 0.950 . S
C3661 C3660 1.524 . S
C3661 C3662 1.415 . S
C3662 H3638 0.950 . S
C3662 C3657 1.363 . S
C3662 C3661 1.415 . S
C3663 H3639 0.951 . S
C3663 C3664 1.366 . S
C3663 C3665 1.388 . S
C3664 C3663 1.366 . S
C3664 C3668 1.385 . S
C3665 H3640 0.951 . S
C3665 C3663 1.388 . S
C3665 C3666 1.366 . S
C3666 C3665 1.366 . S
C3666 C3667 1.414 . S
C3666 C3669 1.499 . S
C3667 H3641 0.950 . S
C3667 C3666 1.414 . S
C3667 C3668 1.374 . S
C3668 H3642 0.950 . S
C3668 C3664 1.385 . S
C3668 C3667 1.374 . S
C3669 C3666 1.499 . S
C3669 C3670 1.373 . S
C3669 C3671 1.389 . S
C3670 H3643 0.950 . S
C3670 C3656 1.377 . S
C3670 C3669 1.373 . S
C3671 C3655 1.377 . S
C3671 C3669 1.389 . S
C3671 C3672 1.524 . S
C3672 C3671 1.524 . S
C3672 C3673 1.397 . S
C3672 C3677 1.363 . S
C3673 H3644 0.950 . S
C3673 C3672 1.397 . S
C3673 C3674 1.334 . S
C3674 H3645 0.950 . S
C3674 C3673 1.334 . S
C3674 C3675 1.287 . S
C3675 C3674 1.287 . S
C3675 C3676 1.524 . S
C3675 H3678 0.999 . S
C3676 H3646 0.950 . S
C3676 C3675 1.524 . S
C3676 C3677 1.415 . S
C3677 H3647 0.950 . S
C3677 C3672 1.363 . S
C3677 C3676 1.415 . S
H3678 C3675 0.999 . S
H3679 C3660 0.913 . S
H3680 C3698 0.951 . S
H3681 C3700 0.951 . S
H3682 C3702 0.950 . S
H3683 C3703 0.950 . S
H3684 C3705 0.950 . S
H3685 C3708 0.950 . S
H3686 C3709 0.950 . S
H3687 C3711 0.950 . S
H3688 C3712 0.950 . S
H3689 C3713 0.951 . S
H3690 C3715 0.951 . S
H3691 C3717 0.950 . S
H3692 C3718 0.950 . S
H3693 C3720 0.950 . S
H3694 C3723 0.950 . S
H3695 C3724 0.950 . S
H3696 C3726 0.950 . S
H3697 C3727 0.950 . S
C3698 H3680 0.951 . S
C3698 C3699 1.366 . S
C3698 C3700 1.388 . S
C3699 C3698 1.366 . S
C3699 C3703 1.385 . S
C3700 H3681 0.951 . S
C3700 C3698 1.388 . S
C3700 C3701 1.366 . S
C3701 C3700 1.366 . S
C3701 C3702 1.414 . S
C3701 C3704 1.499 . S
C3702 H3682 0.950 . S
C3702 C3701 1.414 . S
C3702 C3703 1.374 . S
C3703 H3683 0.950 . S
C3703 C3699 1.385 . S
C3703 C3702 1.374 . S
C3704 C3701 1.499 . S
C3704 C3705 1.373 . S
C3704 C3706 1.389 . S
C3705 H3684 0.950 . S
C3705 C3704 1.373 . S
C3705 C3721 1.377 . S
C3706 C3704 1.389 . S
C3706 C3707 1.524 . S
C3706 C3720 1.377 . S
C3707 C3706 1.524 . S
C3707 C3708 1.397 . S
C3707 C3712 1.363 . S
C3708 H3685 0.950 . S
C3708 C3707 1.397 . S
C3708 C3709 1.334 . S
C3709 H3686 0.950 . S
C3709 C3708 1.334 . S
C3709 C3710 1.287 . S
C3710 C3709 1.287 . S
C3710 C3711 1.524 . S
C3710 H3729 0.913 . S
C3711 H3687 0.950 . S
C3711 C3710 1.524 . S
C3711 C3712 1.415 . S
C3712 H3688 0.950 . S
C3712 C3707 1.363 . S
C3712 C3711 1.415 . S
C3713 H3689 0.951 . S
C3713 C3714 1.366 . S
C3713 C3715 1.388 . S
C3714 C3713 1.366 . S
C3714 C3718 1.385 . S
C3715 H3690 0.951 . S
C3715 C3713 1.388 . S
C3715 C3716 1.366 . S
C3716 C3715 1.366 . S
C3716 C3717 1.414 . S
C3716 C3719 1.499 . S
C3717 H3691 0.950 . S
C3717 C3716 1.414 . S
C3717 C3718 1.374 . S
C3718 H3692 0.950 . S
C3718 C3714 1.385 . S
C3718 C3717 1.374 . S
C3719 C3716 1.499 . S
C3719 C3720 1.373 . S
C3719 C3721 1.389 . S
C3720 H3693 0.950 . S
C3720 C3706 1.377 . S
C3720 C3719 1.373 . S
C3721 C3705 1.377 . S
C3721 C3719 1.389 . S
C3721 C3722 1.524 . S
C3722 C3721 1.524 . S
C3722 C3723 1.397 . S
C3722 C3727 1.363 . S
C3723 H3694 0.950 . S
C3723 C3722 1.397 . S
C3723 C3724 1.334 . S
C3724 H3695 0.950 . S
C3724 C3723 1.334 . S
C3724 C3725 1.287 . S
C3725 C3724 1.287 . S
C3725 C3726 1.524 . S
C3725 H3728 0.999 . S
C3726 H3696 0.950 . S
C3726 C3725 1.524 . S
C3726 C3727 1.415 . S
C3727 H3697 0.950 . S
C3727 C3722 1.363 . S
C3727 C3726 1.415 . S
H3728 C3725 0.999 . S
H3729 C3710 0.913 . S
H3730 C3748 0.951 . S
H3731 C3750 0.951 . S
H3732 C3752 0.950 . S
H3733 C3753 0.950 . S
H3734 C3755 0.950 . S
H3735 C3758 0.950 . S
H3736 C3759 0.950 . S
H3737 C3761 0.950 . S
H3738 C3762 0.950 . S
H3739 C3763 0.951 . S
H3740 C3765 0.951 . S
H3741 C3767 0.950 . S
H3742 C3768 0.950 . S
H3743 C3770 0.950 . S
H3744 C3773 0.950 . S
H3745 C3774 0.950 . S
H3746 C3776 0.950 . S
H3747 C3777 0.950 . S
C3748 H3730 0.951 . S
C3748 C3749 1.366 . S
C3748 C3750 1.388 . S
C3749 C3748 1.366 . S
C3749 C3753 1.385 . S
C3750 H3731 0.951 . S
C3750 C3748 1.388 . S
C3750 C3751 1.366 . S
C3751 C3750 1.366 . S
C3751 C3752 1.414 . S
C3751 C3754 1.499 . S
C3752 H3732 0.950 . S
C3752 C3751 1.414 . S
C3752 C3753 1.374 . S
C3753 H3733 0.950 . S
C3753 C3749 1.385 . S
C3753 C3752 1.374 . S
C3754 C3751 1.499 . S
C3754 C3755 1.373 . S
C3754 C3756 1.389 . S
C3755 H3734 0.950 . S
C3755 C3754 1.373 . S
C3755 C3771 1.377 . S
C3756 C3754 1.389 . S
C3756 C3757 1.524 . S
C3756 C3770 1.377 . S
C3757 C3756 1.524 . S
C3757 C3758 1.397 . S
C3757 C3762 1.363 . S
C3758 H3735 0.950 . S
C3758 C3757 1.397 . S
C3758 C3759 1.334 . S
C3759 H3736 0.950 . S
C3759 C3758 1.334 . S
C3759 C3760 1.287 . S
C3760 C3759 1.287 . S
C3760 C3761 1.524 . S
C3760 H3779 0.913 . S
C3761 H3737 0.950 . S
C3761 C3760 1.524 . S
C3761 C3762 1.415 . S
C3762 H3738 0.950 . S
C3762 C3757 1.363 . S
C3762 C3761 1.415 . S
C3763 H3739 0.951 . S
C3763 C3764 1.366 . S
C3763 C3765 1.388 . S
C3764 C3763 1.366 . S
C3764 C3768 1.385 . S
C3765 H3740 0.951 . S
C3765 C3763 1.388 . S
C3765 C3766 1.366 . S
C3766 C3765 1.366 . S
C3766 C3767 1.414 . S
C3766 C3769 1.499 . S
C3767 H3741 0.950 . S
C3767 C3766 1.414 . S
C3767 C3768 1.374 . S
C3768 H3742 0.950 . S
C3768 C3764 1.385 . S
C3768 C3767 1.374 . S
C3769 C3766 1.499 . S
C3769 C3770 1.373 . S
C3769 C3771 1.389 . S
C3770 H3743 0.950 . S
C3770 C3756 1.377 . S
C3770 C3769 1.373 . S
C3771 C3755 1.377 . S
C3771 C3769 1.389 . S
C3771 C3772 1.524 . S
C3772 C3771 1.524 . S
C3772 C3773 1.397 . S
C3772 C3777 1.363 . S
C3773 H3744 0.950 . S
C3773 C3772 1.397 . S
C3773 C3774 1.334 . S
C3774 H3745 0.950 . S
C3774 C3773 1.334 . S
C3774 C3775 1.287 . S
C3775 C3774 1.287 . S
C3775 C3776 1.524 . S
C3775 H3778 0.999 . S
C3776 H3746 0.950 . S
C3776 C3775 1.524 . S
C3776 C3777 1.415 . S
C3777 H3747 0.950 . S
C3777 C3772 1.363 . S
C3777 C3776 1.415 . S
H3778 C3775 0.999 . S
H3779 C3760 0.913 . S
H3780 C3798 0.951 . S
H3781 C3800 0.951 . S
H3782 C3802 0.950 . S
H3783 C3803 0.950 . S
H3784 C3805 0.950 . S
H3785 C3808 0.950 . S
H3786 C3809 0.950 . S
H3787 C3811 0.950 . S
H3788 C3812 0.950 . S
H3789 C3813 0.951 . S
H3790 C3815 0.951 . S
H3791 C3817 0.950 . S
H3792 C3818 0.950 . S
H3793 C3820 0.950 . S
H3794 C3823 0.950 . S
H3795 C3824 0.950 . S
H3796 C3826 0.950 . S
H3797 C3827 0.950 . S
C3798 H3780 0.951 . S
C3798 C3799 1.366 . S
C3798 C3800 1.388 . S
C3799 C3798 1.366 . S
C3799 C3803 1.385 . S
C3800 H3781 0.951 . S
C3800 C3798 1.388 . S
C3800 C3801 1.366 . S
C3801 C3800 1.366 . S
C3801 C3802 1.414 . S
C3801 C3804 1.499 . S
C3802 H3782 0.950 . S
C3802 C3801 1.414 . S
C3802 C3803 1.374 . S
C3803 H3783 0.950 . S
C3803 C3799 1.385 . S
C3803 C3802 1.374 . S
C3804 C3801 1.499 . S
C3804 C3805 1.373 . S
C3804 C3806 1.389 . S
C3805 H3784 0.950 . S
C3805 C3804 1.373 . S
C3805 C3821 1.377 . S
C3806 C3804 1.389 . S
C3806 C3807 1.524 . S
C3806 C3820 1.377 . S
C3807 C3806 1.524 . S
C3807 C3808 1.397 . S
C3807 C3812 1.363 . S
C3808 H3785 0.950 . S
C3808 C3807 1.397 . S
C3808 C3809 1.334 . S
C3809 H3786 0.950 . S
C3809 C3808 1.334 . S
C3809 C3810 1.287 . S
C3810 C3809 1.287 . S
C3810 C3811 1.524 . S
C3810 H3829 0.913 . S
C3811 H3787 0.950 . S
C3811 C3810 1.524 . S
C3811 C3812 1.415 . S
C3812 H3788 0.950 . S
C3812 C3807 1.363 . S
C3812 C3811 1.415 . S
C3813 H3789 0.951 . S
C3813 C3814 1.366 . S
C3813 C3815 1.388 . S
C3814 C3813 1.366 . S
C3814 C3818 1.385 . S
C3815 H3790 0.951 . S
C3815 C3813 1.388 . S
C3815 C3816 1.366 . S
C3816 C3815 1.366 . S
C3816 C3817 1.414 . S
C3816 C3819 1.499 . S
C3817 H3791 0.950 . S
C3817 C3816 1.414 . S
C3817 C3818 1.374 . S
C3818 H3792 0.950 . S
C3818 C3814 1.385 . S
C3818 C3817 1.374 . S
C3819 C3816 1.499 . S
C3819 C3820 1.373 . S
C3819 C3821 1.389 . S
C3820 H3793 0.950 . S
C3820 C3806 1.377 . S
C3820 C3819 1.373 . S
C3821 C3805 1.377 . S
C3821 C3819 1.389 . S
C3821 C3822 1.524 . S
C3822 C3821 1.524 . S
C3822 C3823 1.397 . S
C3822 C3827 1.363 . S
C3823 H3794 0.950 . S
C3823 C3822 1.397 . S
C3823 C3824 1.334 . S
C3824 H3795 0.950 . S
C3824 C3823 1.334 . S
C3824 C3825 1.287 . S
C3825 C3824 1.287 . S
C3825 C3826 1.524 . S
C3825 H3828 0.999 . S
C3826 H3796 0.950 . S
C3826 C3825 1.524 . S
C3826 C3827 1.415 . S
C3827 H3797 0.950 . S
C3827 C3822 1.363 . S
C3827 C3826 1.415 . S
H3828 C3825 0.999 . S
H3829 C3810 0.913 . S
H3830 C3848 0.951 . S
H3831 C3850 0.951 . S
H3832 C3852 0.950 . S
H3833 C3853 0.950 . S
H3834 C3855 0.950 . S
H3835 C3858 0.950 . S
H3836 C3859 0.950 . S
H3837 C3861 0.950 . S
H3838 C3862 0.950 . S
H3839 C3863 0.951 . S
H3840 C3865 0.951 . S
H3841 C3867 0.950 . S
H3842 C3868 0.950 . S
H3843 C3870 0.950 . S
H3844 C3873 0.950 . S
H3845 C3874 0.950 . S
H3846 C3876 0.950 . S
H3847 C3877 0.950 . S
C3848 H3830 0.951 . S
C3848 C3849 1.366 . S
C3848 C3850 1.388 . S
C3849 C3848 1.366 . S
C3849 C3853 1.385 . S
C3850 H3831 0.951 . S
C3850 C3848 1.388 . S
C3850 C3851 1.366 . S
C3851 C3850 1.366 . S
C3851 C3852 1.414 . S
C3851 C3854 1.499 . S
C3852 H3832 0.950 . S
C3852 C3851 1.414 . S
C3852 C3853 1.374 . S
C3853 H3833 0.950 . S
C3853 C3849 1.385 . S
C3853 C3852 1.374 . S
C3854 C3851 1.499 . S
C3854 C3855 1.373 . S
C3854 C3856 1.389 . S
C3855 H3834 0.950 . S
C3855 C3854 1.373 . S
C3855 C3871 1.377 . S
C3856 C3854 1.389 . S
C3856 C3857 1.524 . S
C3856 C3870 1.377 . S
C3857 C3856 1.524 . S
C3857 C3858 1.397 . S
C3857 C3862 1.363 . S
C3858 H3835 0.950 . S
C3858 C3857 1.397 . S
C3858 C3859 1.334 . S
C3859 H3836 0.950 . S
C3859 C3858 1.334 . S
C3859 C3860 1.287 . S
C3860 C3859 1.287 . S
C3860 C3861 1.524 . S
C3860 H3879 0.913 . S
C3861 H3837 0.950 . S
C3861 C3860 1.524 . S
C3861 C3862 1.415 . S
C3862 H3838 0.950 . S
C3862 C3857 1.363 . S
C3862 C3861 1.415 . S
C3863 H3839 0.951 . S
C3863 C3864 1.366 . S
C3863 C3865 1.388 . S
C3864 C3863 1.366 . S
C3864 C3868 1.385 . S
C3865 H3840 0.951 . S
C3865 C3863 1.388 . S
C3865 C3866 1.366 . S
C3866 C3865 1.366 . S
C3866 C3867 1.414 . S
C3866 C3869 1.499 . S
C3867 H3841 0.950 . S
C3867 C3866 1.414 . S
C3867 C3868 1.374 . S
C3868 H3842 0.950 . S
C3868 C3864 1.385 . S
C3868 C3867 1.374 . S
C3869 C3866 1.499 . S
C3869 C3870 1.373 . S
C3869 C3871 1.389 . S
C3870 H3843 0.950 . S
C3870 C3856 1.377 . S
C3870 C3869 1.373 . S
C3871 C3855 1.377 . S
C3871 C3869 1.389 . S
C3871 C3872 1.524 . S
C3872 C3871 1.524 . S
C3872 C3873 1.397 . S
C3872 C3877 1.363 . S
C3873 H3844 0.950 . S
C3873 C3872 1.397 . S
C3873 C3874 1.334 . S
C3874 H3845 0.950 . S
C3874 C3873 1.334 . S
C3874 C3875 1.287 . S
C3875 C3874 1.287 . S
C3875 C3876 1.524 . S
C3875 H3878 0.999 . S
C3876 H3846 0.950 . S
C3876 C3875 1.524 . S
C3876 C3877 1.415 . S
C3877 H3847 0.950 . S
C3877 C3872 1.363 . S
C3877 C3876 1.415 . S
H3878 C3875 0.999 . S
H3879 C3860 0.913 . S
H3880 C3898 0.951 . S
H3881 C3900 0.951 . S
H3882 C3902 0.950 . S
H3883 C3903 0.950 . S
H3884 C3905 0.950 . S
H3885 C3908 0.950 . S
H3886 C3909 0.950 . S
H3887 C3911 0.950 . S
H3888 C3912 0.950 . S
H3889 C3913 0.951 . S
H3890 C3915 0.951 . S
H3891 C3917 0.950 . S
H3892 C3918 0.950 . S
H3893 C3920 0.950 . S
H3894 C3923 0.950 . S
H3895 C3924 0.950 . S
H3896 C3926 0.950 . S
H3897 C3927 0.950 . S
C3898 H3880 0.951 . S
C3898 C3899 1.366 . S
C3898 C3900 1.388 . S
C3899 C3898 1.366 . S
C3899 C3903 1.385 . S
C3900 H3881 0.951 . S
C3900 C3898 1.388 . S
C3900 C3901 1.366 . S
C3901 C3900 1.366 . S
C3901 C3902 1.414 . S
C3901 C3904 1.499 . S
C3902 H3882 0.950 . S
C3902 C3901 1.414 . S
C3902 C3903 1.374 . S
C3903 H3883 0.950 . S
C3903 C3899 1.385 . S
C3903 C3902 1.374 . S
C3904 C3901 1.499 . S
C3904 C3905 1.373 . S
C3904 C3906 1.389 . S
C3905 H3884 0.950 . S
C3905 C3904 1.373 . S
C3905 C3921 1.377 . S
C3906 C3904 1.389 . S
C3906 C3907 1.524 . S
C3906 C3920 1.377 . S
C3907 C3906 1.524 . S
C3907 C3908 1.397 . S
C3907 C3912 1.363 . S
C3908 H3885 0.950 . S
C3908 C3907 1.397 . S
C3908 C3909 1.334 . S
C3909 H3886 0.950 . S
C3909 C3908 1.334 . S
C3909 C3910 1.287 . S
C3910 C3909 1.287 . S
C3910 C3911 1.524 . S
C3910 H3929 0.913 . S
C3911 H3887 0.950 . S
C3911 C3910 1.524 . S
C3911 C3912 1.415 . S
C3912 H3888 0.950 . S
C3912 C3907 1.363 . S
C3912 C3911 1.415 . S
C3913 H3889 0.951 . S
C3913 C3914 1.366 . S
C3913 C3915 1.388 . S
C3914 C3913 1.366 . S
C3914 C3918 1.385 . S
C3915 H3890 0.951 . S
C3915 C3913 1.388 . S
C3915 C3916 1.366 . S
C3916 C3915 1.366 . S
C3916 C3917 1.414 . S
C3916 C3919 1.499 . S
C3917 H3891 0.950 . S
C3917 C3916 1.414 . S
C3917 C3918 1.374 . S
C3918 H3892 0.950 . S
C3918 C3914 1.385 . S
C3918 C3917 1.374 . S
C3919 C3916 1.499 . S
C3919 C3920 1.373 . S
C3919 C3921 1.389 . S
C3920 H3893 0.950 . S
C3920 C3906 1.377 . S
C3920 C3919 1.373 . S
C3921 C3905 1.377 . S
C3921 C3919 1.389 . S
C3921 C3922 1.524 . S
C3922 C3921 1.524 . S
C3922 C3923 1.397 . S
C3922 C3927 1.363 . S
C3923 H3894 0.950 . S
C3923 C3922 1.397 . S
C3923 C3924 1.334 . S
C3924 H3895 0.950 . S
C3924 C3923 1.334 . S
C3924 C3925 1.287 . S
C3925 C3924 1.287 . S
C3925 C3926 1.524 . S
C3925 H3928 0.999 . S
C3926 H3896 0.950 . S
C3926 C3925 1.524 . S
C3926 C3927 1.415 . S
C3927 H3897 0.950 . S
C3927 C3922 1.363 . S
C3927 C3926 1.415 . S
H3928 C3925 0.999 . S
H3929 C3910 0.913 . S
H3930 C3948 0.951 . S
H3931 C3950 0.951 . S
H3932 C3952 0.951 1_554 S
H3933 C3953 0.950 . S
H3934 C3955 0.950 . S
H3935 C3958 0.950 . S
H3936 C3959 0.950 . S
H3937 C3961 0.965 . S
H3938 C3962 0.950 . S
H3939 C3963 0.951 . S
H3940 C3965 0.951 . S
H3941 C3967 0.950 . S
H3942 C3968 0.950 . S
H3943 C3970 0.950 . S
H3944 C3973 0.950 . S
H3945 C3974 0.950 . S
H3946 C3976 0.950 . S
H3947 C3977 0.950 . S
C3948 H3930 0.951 . S
C3948 C3949 1.366 1_556 S
C3948 C3950 1.388 . S
C3949 C3948 1.366 1_554 S
C3949 C3953 1.385 . S
C3950 H3931 0.951 . S
C3950 C3948 1.388 . S
C3950 C3951 1.366 . S
C3951 C3950 1.366 . S
C3951 C3952 1.413 . S
C3951 C3954 1.499 . S
C3952 H3932 0.951 1_556 S
C3952 C3951 1.413 . S
C3952 C3953 1.374 1_556 S
C3953 H3933 0.950 . S
C3953 C3949 1.385 . S
C3953 C3952 1.374 1_554 S
C3954 C3951 1.499 . S
C3954 C3955 1.373 . S
C3954 C3956 1.389 . S
C3955 H3934 0.950 . S
C3955 C3954 1.373 . S
C3955 C3971 1.377 . S
C3956 C3954 1.389 . S
C3956 C3957 1.524 . S
C3956 C3970 1.377 . S
C3957 C3956 1.524 . S
C3957 C3958 1.397 1_556 S
C3957 C3962 1.363 . S
C3958 H3935 0.950 . S
C3958 C3957 1.397 1_554 S
C3958 C3959 1.334 . S
C3959 H3936 0.950 . S
C3959 C3958 1.334 . S
C3959 C3960 1.287 . S
C3960 C3959 1.287 . S
C3960 C3961 1.488 1_554 S
C3960 H3979 0.913 . S
C3961 H3937 0.965 . S
C3961 C3960 1.488 1_556 S
C3961 C3962 1.435 . S
C3962 H3938 0.950 . S
C3962 C3957 1.363 . S
C3962 C3961 1.435 . S
C3963 H3939 0.951 . S
C3963 C3964 1.366 . S
C3963 C3965 1.388 . S
C3964 C3963 1.366 . S
C3964 C3968 1.385 . S
C3965 H3940 0.951 . S
C3965 C3963 1.388 . S
C3965 C3966 1.366 . S
C3966 C3965 1.366 . S
C3966 C3967 1.414 . S
C3966 C3969 1.499 . S
C3967 H3941 0.950 . S
C3967 C3966 1.414 . S
C3967 C3968 1.374 . S
C3968 H3942 0.950 . S
C3968 C3964 1.385 . S
C3968 C3967 1.374 . S
C3969 C3966 1.499 . S
C3969 C3970 1.373 . S
C3969 C3971 1.389 . S
C3970 H3943 0.950 . S
C3970 C3956 1.377 . S
C3970 C3969 1.373 . S
C3971 C3955 1.377 . S
C3971 C3969 1.389 . S
C3971 C3972 1.524 . S
C3972 C3971 1.524 . S
C3972 C3973 1.397 . S
C3972 C3977 1.363 . S
C3973 H3944 0.950 . S
C3973 C3972 1.397 . S
C3973 C3974 1.334 . S
C3974 H3945 0.950 . S
C3974 C3973 1.334 . S
C3974 C3975 1.287 . S
C3975 C3974 1.287 . S
C3975 C3976 1.524 . S
C3975 H3978 0.999 . S
C3976 H3946 0.950 . S
C3976 C3975 1.524 . S
C3976 C3977 1.415 . S
C3977 H3947 0.950 . S
C3977 C3972 1.363 . S
C3977 C3976 1.415 . S
H3978 C3975 0.999 . S
H3979 C3960 0.913 . S
H3980 C3998 0.951 . S
H3981 C4000 0.951 . S
H3982 C4002 0.950 . S
H3983 C4003 0.950 . S
H3984 C4005 0.950 . S
H3985 C4008 0.950 . S
H3986 C4009 0.950 . S
H3987 C4011 0.950 . S
H3988 C4012 0.950 . S
H3989 C4013 0.951 . S
H3990 C4015 0.951 . S
H3991 C4017 0.950 . S
H3992 C4018 0.950 . S
H3993 C4020 0.950 . S
H3994 C4023 0.950 . S
H3995 C4024 0.950 . S
H3996 C4026 0.950 1_554 S
H3997 C4027 0.950 . S
C3998 H3980 0.951 . S
C3998 C3999 1.366 . S
C3998 C4000 1.388 . S
C3999 C3998 1.366 . S
C3999 C4003 1.385 1_556 S
C4000 H3981 0.951 . S
C4000 C3998 1.388 . S
C4000 C4001 1.366 . S
C4001 C4000 1.366 . S
C4001 C4002 1.414 . S
C4001 C4004 1.499 . S
C4002 H3982 0.950 . S
C4002 C4001 1.414 . S
C4002 C4003 1.374 1_556 S
C4003 H3983 0.950 . S
C4003 C3999 1.385 1_554 S
C4003 C4002 1.374 1_554 S
C4004 C4001 1.499 . S
C4004 C4005 1.373 . S
C4004 C4006 1.389 . S
C4005 H3984 0.950 . S
C4005 C4004 1.373 . S
C4005 C4021 1.377 . S
C4006 C4004 1.389 . S
C4006 C4007 1.524 . S
C4006 C4020 1.377 . S
C4007 C4006 1.524 . S
C4007 C4008 1.397 . S
C4007 C4012 1.363 . S
C4008 H3985 0.950 . S
C4008 C4007 1.397 . S
C4008 C4009 1.334 . S
C4009 H3986 0.950 . S
C4009 C4008 1.334 . S
C4009 C4010 1.287 . S
C4010 C4009 1.287 . S
C4010 C4011 1.524 . S
C4010 H4029 0.913 . S
C4011 H3987 0.950 . S
C4011 C4010 1.524 . S
C4011 C4012 1.415 . S
C4012 H3988 0.950 . S
C4012 C4007 1.363 . S
C4012 C4011 1.415 . S
C4013 H3989 0.951 . S
C4013 C4014 1.366 . S
C4013 C4015 1.388 . S
C4014 C4013 1.366 . S
C4014 C4018 1.385 . S
C4015 H3990 0.951 . S
C4015 C4013 1.388 . S
C4015 C4016 1.366 . S
C4016 C4015 1.366 . S
C4016 C4017 1.414 . S
C4016 C4019 1.499 . S
C4017 H3991 0.950 . S
C4017 C4016 1.414 . S
C4017 C4018 1.374 . S
C4018 H3992 0.950 . S
C4018 C4014 1.385 . S
C4018 C4017 1.374 . S
C4019 C4016 1.499 . S
C4019 C4020 1.373 . S
C4019 C4021 1.389 . S
C4020 H3993 0.950 . S
C4020 C4006 1.377 . S
C4020 C4019 1.373 . S
C4021 C4005 1.377 . S
C4021 C4019 1.389 . S
C4021 C4022 1.524 . S
C4022 C4021 1.524 . S
C4022 C4023 1.397 . S
C4022 C4027 1.363 . S
C4023 H3994 0.950 . S
C4023 C4022 1.397 . S
C4023 C4024 1.334 . S
C4024 H3995 0.950 . S
C4024 C4023 1.334 . S
C4024 C4025 1.287 . S
C4025 C4024 1.287 . S
C4025 C4026 1.524 . S
C4025 H4028 0.999 . S
C4026 H3996 0.950 1_556 S
C4026 C4025 1.524 . S
C4026 C4027 1.415 . S
C4027 H3997 0.950 . S
C4027 C4022 1.363 . S
C4027 C4026 1.415 . S
H4028 C4025 0.999 . S
H4029 C4010 0.913 . S
H4030 C4048 0.951 . S
H4031 C4050 0.951 . S
H4032 C4052 0.950 . S
H4033 C4053 0.950 . S
H4034 C4055 0.950 . S
H4035 C4058 0.950 . S
H4036 C4059 0.950 . S
H4037 C4061 0.950 . S
H4038 C4062 0.950 . S
H4039 C4063 0.951 . S
H4040 C4065 0.951 . S
H4041 C4067 0.950 . S
H4042 C4068 0.950 . S
H4043 C4070 0.950 . S
H4044 C4073 0.950 . S
H4045 C4074 0.950 . S
H4046 C4076 0.950 . S
H4047 C4077 0.950 . S
C4048 H4030 0.951 . S
C4048 C4049 1.366 . S
C4048 C4050 1.388 . S
C4049 C4048 1.366 . S
C4049 C4053 1.385 . S
C4050 H4031 0.951 . S
C4050 C4048 1.388 . S
C4050 C4051 1.366 . S
C4051 C4050 1.366 . S
C4051 C4052 1.414 . S
C4051 C4054 1.499 . S
C4052 H4032 0.950 . S
C4052 C4051 1.414 . S
C4052 C4053 1.374 . S
C4053 H4033 0.950 . S
C4053 C4049 1.385 . S
C4053 C4052 1.374 . S
C4054 C4051 1.499 . S
C4054 C4055 1.373 1_554 S
C4054 C4056 1.389 . S
C4055 H4034 0.950 . S
C4055 C4054 1.373 1_556 S
C4055 C4071 1.377 . S
C4056 C4054 1.389 . S
C4056 C4057 1.524 . S
C4056 C4070 1.377 . S
C4057 C4056 1.524 . S
C4057 C4058 1.397 . S
C4057 C4062 1.363 . S
C4058 H4035 0.950 . S
C4058 C4057 1.397 . S
C4058 C4059 1.334 . S
C4059 H4036 0.950 . S
C4059 C4058 1.334 . S
C4059 C4060 1.287 . S
C4060 C4059 1.287 . S
C4060 C4061 1.524 . S
C4060 H4079 0.913 . S
C4061 H4037 0.950 . S
C4061 C4060 1.524 . S
C4061 C4062 1.415 . S
C4062 H4038 0.950 . S
C4062 C4057 1.363 . S
C4062 C4061 1.415 . S
C4063 H4039 0.951 . S
C4063 C4064 1.366 . S
C4063 C4065 1.388 . S
C4064 C4063 1.366 . S
C4064 C4068 1.385 . S
C4065 H4040 0.951 . S
C4065 C4063 1.388 . S
C4065 C4066 1.366 . S
C4066 C4065 1.366 . S
C4066 C4067 1.414 . S
C4066 C4069 1.499 . S
C4067 H4041 0.950 . S
C4067 C4066 1.414 . S
C4067 C4068 1.374 . S
C4068 H4042 0.950 . S
C4068 C4064 1.385 . S
C4068 C4067 1.374 . S
C4069 C4066 1.499 . S
C4069 C4070 1.373 1_556 S
C4069 C4071 1.389 . S
C4070 H4043 0.950 . S
C4070 C4056 1.377 . S
C4070 C4069 1.373 1_554 S
C4071 C4055 1.377 . S
C4071 C4069 1.389 . S
C4071 C4072 1.524 . S
C4072 C4071 1.524 . S
C4072 C4073 1.397 . S
C4072 C4077 1.363 . S
C4073 H4044 0.950 . S
C4073 C4072 1.397 . S
C4073 C4074 1.334 . S
C4074 H4045 0.950 . S
C4074 C4073 1.334 . S
C4074 C4075 1.287 . S
C4075 C4074 1.287 . S
C4075 C4076 1.524 . S
C4075 H4078 0.999 . S
C4076 H4046 0.950 . S
C4076 C4075 1.524 . S
C4076 C4077 1.415 . S
C4077 H4047 0.950 . S
C4077 C4072 1.363 . S
C4077 C4076 1.415 . S
H4078 C4075 0.999 . S
H4079 C4060 0.913 . S
H4080 C4098 0.951 . S
H4081 C4100 0.951 . S
H4082 C4102 0.950 . S
H4083 C4103 0.950 . S
H4084 C4105 0.950 . S
H4085 C4108 0.950 . S
H4086 C4109 0.950 . S
H4087 C4111 0.950 . S
H4088 C4112 0.950 . S
H4089 C4113 0.951 . S
H4090 C4115 0.951 . S
H4091 C4117 0.950 . S
H4092 C4118 0.950 . S
H4093 C4120 0.950 . S
H4094 C4123 0.950 . S
H4095 C4124 0.950 . S
H4096 C4126 0.950 . S
H4097 C4127 0.950 . S
C4098 H4080 0.951 . S
C4098 C4099 1.366 . S
C4098 C4100 1.388 . S
C4099 C4098 1.366 . S
C4099 C4103 1.385 1_554 S
C4100 H4081 0.951 . S
C4100 C4098 1.388 . S
C4100 C4101 1.366 1_554 S
C4101 C4100 1.366 1_556 S
C4101 C4102 1.414 . S
C4101 C4104 1.499 . S
C4102 H4082 0.950 . S
C4102 C4101 1.414 . S
C4102 C4103 1.374 . S
C4103 H4083 0.950 . S
C4103 C4099 1.385 1_556 S
C4103 C4102 1.374 . S
C4104 C4101 1.499 . S
C4104 C4105 1.373 . S
C4104 C4106 1.389 . S
C4105 H4084 0.950 . S
C4105 C4104 1.373 . S
C4105 C4121 1.377 . S
C4106 C4104 1.389 . S
C4106 C4107 1.524 . S
C4106 C4120 1.377 . S
C4107 C4106 1.524 . S
C4107 C4108 1.397 . S
C4107 C4112 1.363 1_556 S
C4108 H4085 0.950 . S
C4108 C4107 1.397 . S
C4108 C4109 1.334 1_556 S
C4109 H4086 0.950 . S
C4109 C4108 1.334 1_554 S
C4109 C4110 1.287 . S
C4110 C4109 1.287 . S
C4110 C4111 1.524 . S
C4110 H4129 0.913 . S
C4111 H4087 0.950 . S
C4111 C4110 1.524 . S
C4111 C4112 1.415 . S
C4112 H4088 0.950 . S
C4112 C4107 1.363 1_554 S
C4112 C4111 1.415 . S
C4113 H4089 0.951 . S
C4113 C4114 1.366 . S
C4113 C4115 1.388 . S
C4114 C4113 1.366 . S
C4114 C4118 1.385 . S
C4115 H4090 0.951 . S
C4115 C4113 1.388 . S
C4115 C4116 1.366 . S
C4116 C4115 1.366 . S
C4116 C4117 1.414 . S
C4116 C4119 1.499 . S
C4117 H4091 0.950 . S
C4117 C4116 1.414 . S
C4117 C4118 1.374 . S
C4118 H4092 0.950 . S
C4118 C4114 1.385 . S
C4118 C4117 1.374 . S
C4119 C4116 1.499 . S
C4119 C4120 1.373 . S
C4119 C4121 1.389 . S
C4120 H4093 0.950 . S
C4120 C4106 1.377 . S
C4120 C4119 1.373 . S
C4121 C4105 1.377 . S
C4121 C4119 1.389 . S
C4121 C4122 1.524 . S
C4122 C4121 1.524 . S
C4122 C4123 1.397 . S
C4122 C4127 1.363 . S
C4123 H4094 0.950 . S
C4123 C4122 1.397 . S
C4123 C4124 1.334 . S
C4124 H4095 0.950 . S
C4124 C4123 1.334 . S
C4124 C4125 1.287 . S
C4125 C4124 1.287 . S
C4125 C4126 1.524 . S
C4125 H4128 0.999 . S
C4126 H4096 0.950 . S
C4126 C4125 1.524 . S
C4126 C4127 1.415 . S
C4127 H4097 0.950 . S
C4127 C4122 1.363 . S
C4127 C4126 1.415 . S
H4128 C4125 0.999 . S
H4129 C4110 0.913 . S
H4130 C4148 0.878 1_554 S
H4131 C4150 0.951 . S
H4132 C4152 0.950 . S
H4133 C4153 0.950 . S
H4134 C4155 0.950 . S
H4135 C4158 0.950 . S
H4136 C4159 0.950 . S
H4137 C4161 0.950 1_554 S
H4138 C4162 0.950 . S
H4139 C4163 0.951 . S
H4140 C4165 0.951 . S
H4141 C4167 0.950 . S
H4142 C4168 0.950 . S
H4143 C4170 0.950 . S
H4144 C4173 0.950 . S
H4145 C4174 0.950 . S
H4146 C4176 0.950 . S
H4147 C4177 0.950 . S
C4148 H4130 0.878 1_556 S
C4148 C4149 1.366 . S
C4148 C4150 1.388 . S
C4149 C4148 1.366 . S
C4149 C4153 1.385 . S
C4150 H4131 0.951 . S
C4150 C4148 1.388 . S
C4150 C4151 1.366 . S
C4151 C4150 1.366 . S
C4151 C4152 1.414 . S
C4151 C4154 1.499 . S
C4152 H4132 0.950 . S
C4152 C4151 1.414 . S
C4152 C4153 1.374 . S
C4153 H4133 0.950 . S
C4153 C4149 1.385 . S
C4153 C4152 1.374 . S
C4154 C4151 1.499 . S
C4154 C4155 1.373 . S
C4154 C4156 1.389 . S
C4155 H4134 0.950 . S
C4155 C4154 1.373 . S
C4155 C4171 1.377 . S
C4156 C4154 1.389 . S
C4156 C4157 1.524 . S
C4156 C4170 1.377 . S
C4157 C4156 1.524 . S
C4157 C4158 1.397 . S
C4157 C4162 1.363 . S
C4158 H4135 0.950 . S
C4158 C4157 1.397 . S
C4158 C4159 1.334 . S
C4159 H4136 0.950 . S
C4159 C4158 1.334 . S
C4159 C4160 1.287 . S
C4160 C4159 1.287 . S
C4160 C4161 1.524 . S
C4160 H4179 0.913 . S
C4161 H4137 0.950 1_556 S
C4161 C4160 1.524 . S
C4161 C4162 1.415 . S
C4162 H4138 0.950 . S
C4162 C4157 1.363 . S
C4162 C4161 1.415 . S
C4163 H4139 0.951 . S
C4163 C4164 1.366 . S
C4163 C4165 1.388 . S
C4164 C4163 1.366 . S
C4164 C4168 1.385 . S
C4165 H4140 0.951 . S
C4165 C4163 1.388 . S
C4165 C4166 1.366 . S
C4166 C4165 1.366 . S
C4166 C4167 1.414 . S
C4166 C4169 1.499 . S
C4167 H4141 0.950 . S
C4167 C4166 1.414 . S
C4167 C4168 1.374 . S
C4168 H4142 0.950 . S
C4168 C4164 1.385 . S
C4168 C4167 1.374 . S
C4169 C4166 1.499 . S
C4169 C4170 1.373 . S
C4169 C4171 1.389 . S
C4170 H4143 0.950 . S
C4170 C4156 1.377 . S
C4170 C4169 1.373 . S
C4171 C4155 1.377 . S
C4171 C4169 1.389 . S
C4171 C4172 1.524 . S
C4172 C4171 1.524 . S
C4172 C4173 1.397 . S
C4172 C4177 1.363 . S
C4173 H4144 0.950 . S
C4173 C4172 1.397 . S
C4173 C4174 1.334 . S
C4174 H4145 0.950 . S
C4174 C4173 1.334 . S
C4174 C4175 1.287 . S
C4175 C4174 1.287 . S
C4175 C4176 1.524 . S
C4175 H4178 0.999 . S
C4176 H4146 0.950 . S
C4176 C4175 1.524 . S
C4176 C4177 1.415 . S
C4177 H4147 0.950 . S
C4177 C4172 1.363 . S
C4177 C4176 1.415 . S
H4178 C4175 0.999 . S
H4179 C4160 0.913 . S
H4180 C4198 0.951 . S
H4181 C4200 0.951 1_556 S
H4182 C4202 0.950 . S
H4183 C4203 0.950 . S
H4184 C4205 0.950 . S
H4185 C4208 0.950 . S
H4186 C4209 0.950 . S
H4187 C4211 0.950 . S
H4188 C4212 0.950 1_556 S
H4189 C4213 0.951 . S
H4190 C4215 0.951 . S
H4191 C4217 0.950 . S
H4192 C4218 0.950 . S
H4193 C4220 0.950 . S
H4194 C4223 0.950 . S
H4195 C4224 0.950 . S
H4196 C4226 0.950 . S
H4197 C4227 0.950 . S
C4198 H4180 0.951 . S
C4198 C4199 1.366 . S
C4198 C4200 1.388 . S
C4199 C4198 1.366 . S
C4199 C4203 1.385 . S
C4200 H4181 0.951 1_554 S
C4200 C4198 1.388 . S
C4200 C4201 1.366 . S
C4201 C4200 1.366 . S
C4201 C4202 1.414 . S
C4201 C4204 1.499 1_554 S
C4202 H4182 0.950 . S
C4202 C4201 1.414 . S
C4202 C4203 1.374 . S
C4203 H4183 0.950 . S
C4203 C4199 1.385 . S
C4203 C4202 1.374 . S
C4204 C4201 1.499 1_556 S
C4204 C4205 1.373 . S
C4204 C4206 1.389 . S
C4205 H4184 0.950 . S
C4205 C4204 1.373 . S
C4205 C4221 1.377 . S
C4206 C4204 1.389 . S
C4206 C4207 1.524 1_556 S
C4206 C4220 1.377 . S
C4207 C4206 1.524 1_554 S
C4207 C4208 1.397 . S
C4207 C4212 1.363 . S
C4208 H4185 0.950 . S
C4208 C4207 1.397 . S
C4208 C4209 1.334 . S
C4209 H4186 0.950 . S
C4209 C4208 1.334 . S
C4209 C4210 1.287 . S
C4210 C4209 1.287 . S
C4210 C4211 1.524 . S
C4210 H4229 0.913 . S
C4211 H4187 0.950 . S
C4211 C4210 1.524 . S
C4211 C4212 1.415 . S
C4212 H4188 0.950 1_554 S
C4212 C4207 1.363 . S
C4212 C4211 1.415 . S
C4213 H4189 0.951 . S
C4213 C4214 1.366 . S
C4213 C4215 1.388 . S
C4214 C4213 1.366 . S
C4214 C4218 1.385 . S
C4215 H4190 0.951 . S
C4215 C4213 1.388 . S
C4215 C4216 1.366 . S
C4216 C4215 1.366 . S
C4216 C4217 1.414 . S
C4216 C4219 1.499 . S
C4217 H4191 0.950 . S
C4217 C4216 1.414 . S
C4217 C4218 1.374 . S
C4218 H4192 0.950 . S
C4218 C4214 1.385 . S
C4218 C4217 1.374 . S
C4219 C4216 1.499 . S
C4219 C4220 1.373 . S
C4219 C4221 1.389 . S
C4220 H4193 0.950 . S
C4220 C4206 1.377 . S
C4220 C4219 1.373 . S
C4221 C4205 1.377 . S
C4221 C4219 1.389 . S
C4221 C4222 1.524 . S
C4222 C4221 1.524 . S
C4222 C4223 1.397 . S
C4222 C4227 1.363 . S
C4223 H4194 0.950 . S
C4223 C4222 1.397 . S
C4223 C4224 1.334 . S
C4224 H4195 0.950 . S
C4224 C4223 1.334 . S
C4224 C4225 1.287 . S
C4225 C4224 1.287 . S
C4225 C4226 1.524 . S
C4225 H4228 0.999 . S
C4226 H4196 0.950 . S
C4226 C4225 1.524 . S
C4226 C4227 1.415 . S
C4227 H4197 0.950 . S
C4227 C4222 1.363 . S
C4227 C4226 1.415 . S
H4228 C4225 0.999 . S
H4229 C4210 0.913 . S
H4230 C4248 0.951 . S
H4231 C4250 0.951 . S
H4232 C4252 0.950 . S
H4233 C4253 0.950 . S
H4234 C4255 0.950 . S
H4235 C4258 0.950 . S
H4236 C4259 0.950 . S
H4237 C4261 0.950 . S
H4238 C4262 0.950 . S
H4239 C4263 0.951 . S
H4240 C4265 0.951 . S
H4241 C4267 0.950 . S
H4242 C4268 0.950 . S
H4243 C4270 0.950 . S
H4244 C4273 0.950 . S
H4245 C4274 0.950 . S
H4246 C4276 0.950 . S
H4247 C4277 0.950 . S
C4248 H4230 0.951 . S
C4248 C4249 1.366 . S
C4248 C4250 1.388 . S
C4249 C4248 1.366 . S
C4249 C4253 1.385 . S
C4250 H4231 0.951 . S
C4250 C4248 1.388 . S
C4250 C4251 1.366 . S
C4251 C4250 1.366 . S
C4251 C4252 1.414 . S
C4251 C4254 1.499 . S
C4252 H4232 0.950 . S
C4252 C4251 1.414 . S
C4252 C4253 1.374 . S
C4253 H4233 0.950 . S
C4253 C4249 1.385 . S
C4253 C4252 1.374 . S
C4254 C4251 1.499 . S
C4254 C4255 1.373 . S
C4254 C4256 1.389 . S
C4255 H4234 0.950 . S
C4255 C4254 1.373 . S
C4255 C4271 1.377 . S
C4256 C4254 1.389 . S
C4256 C4257 1.524 . S
C4256 C4270 1.377 . S
C4257 C4256 1.524 . S
C4257 C4258 1.397 . S
C4257 C4262 1.363 . S
C4258 H4235 0.950 . S
C4258 C4257 1.397 . S
C4258 C4259 1.334 . S
C4259 H4236 0.950 . S
C4259 C4258 1.334 . S
C4259 C4260 1.287 . S
C4260 C4259 1.287 . S
C4260 C4261 1.524 . S
C4260 H4279 0.913 . S
C4261 H4237 0.950 . S
C4261 C4260 1.524 . S
C4261 C4262 1.415 . S
C4262 H4238 0.950 . S
C4262 C4257 1.363 . S
C4262 C4261 1.415 . S
C4263 H4239 0.951 . S
C4263 C4264 1.366 . S
C4263 C4265 1.388 . S
C4264 C4263 1.366 . S
C4264 C4268 1.385 . S
C4265 H4240 0.951 . S
C4265 C4263 1.388 . S
C4265 C4266 1.366 . S
C4266 C4265 1.366 . S
C4266 C4267 1.414 . S
C4266 C4269 1.499 . S
C4267 H4241 0.950 . S
C4267 C4266 1.414 . S
C4267 C4268 1.374 . S
C4268 H4242 0.950 . S
C4268 C4264 1.385 . S
C4268 C4267 1.374 . S
C4269 C4266 1.499 . S
C4269 C4270 1.373 . S
C4269 C4271 1.389 . S
C4270 H4243 0.950 . S
C4270 C4256 1.377 . S
C4270 C4269 1.373 . S
C4271 C4255 1.377 . S
C4271 C4269 1.389 . S
C4271 C4272 1.524 . S
C4272 C4271 1.524 . S
C4272 C4273 1.397 . S
C4272 C4277 1.363 . S
C4273 H4244 0.950 . S
C4273 C4272 1.397 . S
C4273 C4274 1.334 . S
C4274 H4245 0.950 . S
C4274 C4273 1.334 . S
C4274 C4275 1.287 . S
C4275 C4274 1.287 . S
C4275 C4276 1.524 . S
C4275 H4278 0.999 . S
C4276 H4246 0.950 . S
C4276 C4275 1.524 . S
C4276 C4277 1.415 . S
C4277 H4247 0.950 . S
C4277 C4272 1.363 . S
C4277 C4276 1.415 . S
H4278 C4275 0.999 . S
H4279 C4260 0.913 . S
H4280 C4298 0.951 . S
H4281 C4300 0.951 . S
H4282 C4302 0.950 . S
H4283 C4303 0.950 . S
H4284 C4305 0.950 . S
H4285 C4308 0.950 . S
H4286 C4309 0.950 . S
H4287 C4311 0.950 . S
H4288 C4312 0.950 . S
H4289 C4313 0.951 . S
H4290 C4315 0.951 . S
H4291 C4317 0.950 . S
H4292 C4318 0.950 . S
H4293 C4320 0.950 . S
H4294 C4323 0.950 . S
H4295 C4324 0.950 . S
H4296 C4326 0.950 . S
H4297 C4327 0.950 . S
C4298 H4280 0.951 . S
C4298 C4299 1.366 . S
C4298 C4300 1.388 . S
C4299 C4298 1.366 . S
C4299 C4303 1.385 . S
C4300 H4281 0.951 . S
C4300 C4298 1.388 . S
C4300 C4301 1.366 . S
C4301 C4300 1.366 . S
C4301 C4302 1.414 . S
C4301 C4304 1.499 . S
C4302 H4282 0.950 . S
C4302 C4301 1.414 . S
C4302 C4303 1.374 . S
C4303 H4283 0.950 . S
C4303 C4299 1.385 . S
C4303 C4302 1.374 . S
C4304 C4301 1.499 . S
C4304 C4305 1.373 . S
C4304 C4306 1.389 . S
C4305 H4284 0.950 . S
C4305 C4304 1.373 . S
C4305 C4321 1.377 . S
C4306 C4304 1.389 . S
C4306 C4307 1.524 . S
C4306 C4320 1.377 . S
C4307 C4306 1.524 . S
C4307 C4308 1.397 . S
C4307 C4312 1.363 . S
C4308 H4285 0.950 . S
C4308 C4307 1.397 . S
C4308 C4309 1.334 . S
C4309 H4286 0.950 . S
C4309 C4308 1.334 . S
C4309 C4310 1.287 . S
C4310 C4309 1.287 . S
C4310 C4311 1.524 . S
C4310 H4329 0.913 . S
C4311 H4287 0.950 . S
C4311 C4310 1.524 . S
C4311 C4312 1.415 . S
C4312 H4288 0.950 . S
C4312 C4307 1.363 . S
C4312 C4311 1.415 . S
C4313 H4289 0.951 . S
C4313 C4314 1.366 . S
C4313 C4315 1.388 . S
C4314 C4313 1.366 . S
C4314 C4318 1.385 . S
C4315 H4290 0.951 . S
C4315 C4313 1.388 . S
C4315 C4316 1.366 . S
C4316 C4315 1.366 . S
C4316 C4317 1.414 . S
C4316 C4319 1.499 . S
C4317 H4291 0.950 . S
C4317 C4316 1.414 . S
C4317 C4318 1.374 . S
C4318 H4292 0.950 . S
C4318 C4314 1.385 . S
C4318 C4317 1.374 . S
C4319 C4316 1.499 . S
C4319 C4320 1.373 . S
C4319 C4321 1.389 . S
C4320 H4293 0.950 . S
C4320 C4306 1.377 . S
C4320 C4319 1.373 . S
C4321 C4305 1.377 . S
C4321 C4319 1.389 . S
C4321 C4322 1.524 . S
C4322 C4321 1.524 . S
C4322 C4323 1.397 . S
C4322 C4327 1.363 . S
C4323 H4294 0.950 . S
C4323 C4322 1.397 . S
C4323 C4324 1.334 . S
C4324 H4295 0.950 . S
C4324 C4323 1.334 . S
C4324 C4325 1.287 . S
C4325 C4324 1.287 . S
C4325 C4326 1.524 . S
C4325 H4328 0.999 . S
C4326 H4296 0.950 . S
C4326 C4325 1.524 . S
C4326 C4327 1.415 . S
C4327 H4297 0.950 . S
C4327 C4322 1.363 . S
C4327 C4326 1.415 . S
H4328 C4325 0.999 . S
H4329 C4310 0.913 . S
H4330 C4348 0.951 . S
H4331 C4350 0.951 . S
H4332 C4352 0.950 . S
H4333 C4353 0.950 . S
H4334 C4355 0.950 . S
H4335 C4358 0.950 . S
H4336 C4359 0.950 . S
H4337 C4361 0.950 . S
H4338 C4362 0.950 . S
H4339 C4363 0.951 . S
H4340 C4365 0.951 . S
H4341 C4367 0.950 . S
H4342 C4368 0.950 . S
H4343 C4370 0.950 . S
H4344 C4373 0.950 . S
H4345 C4374 0.950 . S
H4346 C4376 0.950 . S
H4347 C4377 0.950 . S
C4348 H4330 0.951 . S
C4348 C4349 1.366 . S
C4348 C4350 1.388 . S
C4349 C4348 1.366 . S
C4349 C4353 1.385 . S
C4350 H4331 0.951 . S
C4350 C4348 1.388 . S
C4350 C4351 1.366 . S
C4351 C4350 1.366 . S
C4351 C4352 1.414 . S
C4351 C4354 1.499 . S
C4352 H4332 0.950 . S
C4352 C4351 1.414 . S
C4352 C4353 1.374 . S
C4353 H4333 0.950 . S
C4353 C4349 1.385 . S
C4353 C4352 1.374 . S
C4354 C4351 1.499 . S
C4354 C4355 1.373 . S
C4354 C4356 1.389 . S
C4355 H4334 0.950 . S
C4355 C4354 1.373 . S
C4355 C4371 1.377 . S
C4356 C4354 1.389 . S
C4356 C4357 1.524 . S
C4356 C4370 1.377 . S
C4357 C4356 1.524 . S
C4357 C4358 1.397 . S
C4357 C4362 1.363 . S
C4358 H4335 0.950 . S
C4358 C4357 1.397 . S
C4358 C4359 1.334 . S
C4359 H4336 0.950 . S
C4359 C4358 1.334 . S
C4359 C4360 1.287 . S
C4360 C4359 1.287 . S
C4360 C4361 1.524 . S
C4360 H4379 0.913 . S
C4361 H4337 0.950 . S
C4361 C4360 1.524 . S
C4361 C4362 1.415 . S
C4362 H4338 0.950 . S
C4362 C4357 1.363 . S
C4362 C4361 1.415 . S
C4363 H4339 0.951 . S
C4363 C4364 1.366 . S
C4363 C4365 1.388 . S
C4364 C4363 1.366 . S
C4364 C4368 1.385 . S
C4365 H4340 0.951 . S
C4365 C4363 1.388 . S
C4365 C4366 1.366 . S
C4366 C4365 1.366 . S
C4366 C4367 1.414 . S
C4366 C4369 1.499 . S
C4367 H4341 0.950 . S
C4367 C4366 1.414 . S
C4367 C4368 1.374 . S
C4368 H4342 0.950 . S
C4368 C4364 1.385 . S
C4368 C4367 1.374 . S
C4369 C4366 1.499 . S
C4369 C4370 1.373 . S
C4369 C4371 1.389 . S
C4370 H4343 0.950 . S
C4370 C4356 1.377 . S
C4370 C4369 1.373 . S
C4371 C4355 1.377 . S
C4371 C4369 1.389 . S
C4371 C4372 1.524 . S
C4372 C4371 1.524 . S
C4372 C4373 1.397 . S
C4372 C4377 1.363 . S
C4373 H4344 0.950 . S
C4373 C4372 1.397 . S
C4373 C4374 1.334 . S
C4374 H4345 0.950 . S
C4374 C4373 1.334 . S
C4374 C4375 1.287 . S
C4375 C4374 1.287 . S
C4375 C4376 1.524 . S
C4375 H4378 0.999 . S
C4376 H4346 0.950 . S
C4376 C4375 1.524 . S
C4376 C4377 1.415 . S
C4377 H4347 0.950 . S
C4377 C4372 1.363 . S
C4377 C4376 1.415 . S
H4378 C4375 0.999 . S
H4379 C4360 0.913 . S
H4380 C4398 0.951 . S
H4381 C4400 0.951 . S
H4382 C4402 0.950 . S
H4383 C4403 0.950 . S
H4384 C4405 0.950 . S
H4385 C4408 0.950 . S
H4386 C4409 0.950 . S
H4387 C4411 0.950 . S
H4388 C4412 0.950 . S
H4389 C4413 0.951 . S
H4390 C4415 0.951 . S
H4391 C4417 0.950 . S
H4392 C4418 0.950 . S
H4393 C4420 0.950 . S
H4394 C4423 0.950 . S
H4395 C4424 0.950 . S
H4396 C4426 0.950 . S
H4397 C4427 0.950 . S
C4398 H4380 0.951 . S
C4398 C4399 1.366 . S
C4398 C4400 1.388 . S
C4399 C4398 1.366 . S
C4399 C4403 1.385 . S
C4400 H4381 0.951 . S
C4400 C4398 1.388 . S
C4400 C4401 1.366 . S
C4401 C4400 1.366 . S
C4401 C4402 1.414 . S
C4401 C4404 1.499 . S
C4402 H4382 0.950 . S
C4402 C4401 1.414 . S
C4402 C4403 1.374 . S
C4403 H4383 0.950 . S
C4403 C4399 1.385 . S
C4403 C4402 1.374 . S
C4404 C4401 1.499 . S
C4404 C4405 1.373 . S
C4404 C4406 1.389 . S
C4405 H4384 0.950 . S
C4405 C4404 1.373 . S
C4405 C4421 1.377 . S
C4406 C4404 1.389 . S
C4406 C4407 1.524 . S
C4406 C4420 1.377 . S
C4407 C4406 1.524 . S
C4407 C4408 1.397 . S
C4407 C4412 1.363 . S
C4408 H4385 0.950 . S
C4408 C4407 1.397 . S
C4408 C4409 1.334 . S
C4409 H4386 0.950 . S
C4409 C4408 1.334 . S
C4409 C4410 1.287 . S
C4410 C4409 1.287 . S
C4410 C4411 1.524 . S
C4410 H4429 0.913 . S
C4411 H4387 0.950 . S
C4411 C4410 1.524 . S
C4411 C4412 1.415 . S
C4412 H4388 0.950 . S
C4412 C4407 1.363 . S
C4412 C4411 1.415 . S
C4413 H4389 0.951 . S
C4413 C4414 1.366 . S
C4413 C4415 1.388 . S
C4414 C4413 1.366 . S
C4414 C4418 1.385 . S
C4415 H4390 0.951 . S
C4415 C4413 1.388 . S
C4415 C4416 1.366 . S
C4416 C4415 1.366 . S
C4416 C4417 1.414 . S
C4416 C4419 1.499 . S
C4417 H4391 0.950 . S
C4417 C4416 1.414 . S
C4417 C4418 1.374 . S
C4418 H4392 0.950 . S
C4418 C4414 1.385 . S
C4418 C4417 1.374 . S
C4419 C4416 1.499 . S
C4419 C4420 1.373 . S
C4419 C4421 1.389 . S
C4420 H4393 0.950 . S
C4420 C4406 1.377 . S
C4420 C4419 1.373 . S
C4421 C4405 1.377 . S
C4421 C4419 1.389 . S
C4421 C4422 1.524 . S
C4422 C4421 1.524 . S
C4422 C4423 1.397 . S
C4422 C4427 1.363 . S
C4423 H4394 0.950 . S
C4423 C4422 1.397 . S
C4423 C4424 1.334 . S
C4424 H4395 0.950 . S
C4424 C4423 1.334 . S
C4424 C4425 1.287 . S
C4425 C4424 1.287 . S
C4425 C4426 1.524 . S
C4425 H4428 0.999 . S
C4426 H4396 0.950 . S
C4426 C4425 1.524 . S
C4426 C4427 1.415 . S
C4427 H4397 0.950 . S
C4427 C4422 1.363 . S
C4427 C4426 1.415 . S
H4428 C4425 0.999 . S
H4429 C4410 0.913 . S
H4430 C4448 0.951 . S
H4431 C4450 0.951 . S
H4432 C4452 0.950 . S
H4433 C4453 0.950 . S
H4434 C4455 0.950 . S
H4435 C4458 0.950 . S
H4436 C4459 0.950 . S
H4437 C4461 0.950 . S
H4438 C4462 0.950 . S
H4439 C4463 0.951 . S
H4440 C4465 0.951 . S
H4441 C4467 0.950 . S
H4442 C4468 0.950 . S
H4443 C4470 0.950 . S
H4444 C4473 0.950 . S
H4445 C4474 0.950 . S
H4446 C4476 0.950 . S
H4447 C4477 0.950 . S
C4448 H4430 0.951 . S
C4448 C4449 1.366 . S
C4448 C4450 1.388 . S
C4449 C4448 1.366 . S
C4449 C4453 1.385 . S
C4450 H4431 0.951 . S
C4450 C4448 1.388 . S
C4450 C4451 1.366 . S
C4451 C4450 1.366 . S
C4451 C4452 1.414 . S
C4451 C4454 1.499 . S
C4452 H4432 0.950 . S
C4452 C4451 1.414 . S
C4452 C4453 1.374 . S
C4453 H4433 0.950 . S
C4453 C4449 1.385 . S
C4453 C4452 1.374 . S
C4454 C4451 1.499 . S
C4454 C4455 1.373 . S
C4454 C4456 1.389 . S
C4455 H4434 0.950 . S
C4455 C4454 1.373 . S
C4455 C4471 1.377 . S
C4456 C4454 1.389 . S
C4456 C4457 1.524 . S
C4456 C4470 1.377 . S
C4457 C4456 1.524 . S
C4457 C4458 1.397 . S
C4457 C4462 1.363 . S
C4458 H4435 0.950 . S
C4458 C4457 1.397 . S
C4458 C4459 1.334 . S
C4459 H4436 0.950 . S
C4459 C4458 1.334 . S
C4459 C4460 1.287 . S
C4460 C4459 1.287 . S
C4460 C4461 1.524 . S
C4460 H4479 0.913 . S
C4461 H4437 0.950 . S
C4461 C4460 1.524 . S
C4461 C4462 1.415 . S
C4462 H4438 0.950 . S
C4462 C4457 1.363 . S
C4462 C4461 1.415 . S
C4463 H4439 0.951 . S
C4463 C4464 1.366 . S
C4463 C4465 1.388 . S
C4464 C4463 1.366 . S
C4464 C4468 1.385 . S
C4465 H4440 0.951 . S
C4465 C4463 1.388 . S
C4465 C4466 1.366 . S
C4466 C4465 1.366 . S
C4466 C4467 1.414 . S
C4466 C4469 1.499 . S
C4467 H4441 0.950 . S
C4467 C4466 1.414 . S
C4467 C4468 1.374 . S
C4468 H4442 0.950 . S
C4468 C4464 1.385 . S
C4468 C4467 1.374 . S
C4469 C4466 1.499 . S
C4469 C4470 1.373 . S
C4469 C4471 1.389 . S
C4470 H4443 0.950 . S
C4470 C4456 1.377 . S
C4470 C4469 1.373 . S
C4471 C4455 1.377 . S
C4471 C4469 1.389 . S
C4471 C4472 1.524 . S
C4472 C4471 1.524 . S
C4472 C4473 1.397 . S
C4472 C4477 1.363 . S
C4473 H4444 0.950 . S
C4473 C4472 1.397 . S
C4473 C4474 1.334 . S
C4474 H4445 0.950 . S
C4474 C4473 1.334 . S
C4474 C4475 1.287 . S
C4475 C4474 1.287 . S
C4475 C4476 1.524 . S
C4475 H4478 0.999 . S
C4476 H4446 0.950 . S
C4476 C4475 1.524 . S
C4476 C4477 1.415 . S
C4477 H4447 0.950 . S
C4477 C4472 1.363 . S
C4477 C4476 1.415 . S
H4478 C4475 0.999 . S
H4479 C4460 0.913 . S
H4480 C4498 0.898 1_455 S
H4481 C4500 0.951 . S
H4482 C4502 0.950 . S
H4483 C4503 0.950 . S
H4484 C4505 0.950 . S
H4485 C4508 0.950 . S
H4486 C4509 0.950 . S
H4487 C4511 0.950 . S
H4488 C4512 0.950 . S
H4489 C4513 0.951 . S
H4490 C4515 0.951 . S
H4491 C4517 0.950 . S
H4492 C4518 0.950 . S
H4493 C4520 0.950 . S
H4494 C4523 0.950 . S
H4495 C4524 0.950 . S
H4496 C4526 0.950 . S
H4497 C4527 0.950 . S
C4498 H4480 0.898 1_655 S
C4498 C4499 1.366 . S
C4498 C4500 1.388 . S
C4499 C4498 1.366 . S
C4499 C4503 1.385 . S
C4500 H4481 0.951 . S
C4500 C4498 1.388 . S
C4500 C4501 1.366 . S
C4501 C4500 1.366 . S
C4501 C4502 1.414 . S
C4501 C4504 1.499 . S
C4502 H4482 0.950 . S
C4502 C4501 1.414 . S
C4502 C4503 1.374 . S
C4503 H4483 0.950 . S
C4503 C4499 1.385 . S
C4503 C4502 1.374 . S
C4504 C4501 1.499 . S
C4504 C4505 1.373 . S
C4504 C4506 1.389 . S
C4505 H4484 0.950 . S
C4505 C4504 1.373 . S
C4505 C4521 1.377 . S
C4506 C4504 1.389 . S
C4506 C4507 1.524 . S
C4506 C4520 1.377 . S
C4507 C4506 1.524 . S
C4507 C4508 1.397 . S
C4507 C4512 1.363 . S
C4508 H4485 0.950 . S
C4508 C4507 1.397 . S
C4508 C4509 1.334 . S
C4509 H4486 0.950 . S
C4509 C4508 1.334 . S
C4509 C4510 1.287 . S
C4510 C4509 1.287 . S
C4510 C4511 1.524 . S
C4510 H4529 0.913 . S
C4511 H4487 0.950 . S
C4511 C4510 1.524 . S
C4511 C4512 1.415 . S
C4512 H4488 0.950 . S
C4512 C4507 1.363 . S
C4512 C4511 1.415 . S
C4513 H4489 0.951 . S
C4513 C4514 1.366 . S
C4513 C4515 1.388 . S
C4514 C4513 1.366 . S
C4514 C4518 1.385 . S
C4515 H4490 0.951 . S
C4515 C4513 1.388 . S
C4515 C4516 1.366 . S
C4516 C4515 1.366 . S
C4516 C4517 1.414 . S
C4516 C4519 1.499 . S
C4517 H4491 0.950 . S
C4517 C4516 1.414 . S
C4517 C4518 1.374 . S
C4518 H4492 0.950 . S
C4518 C4514 1.385 . S
C4518 C4517 1.374 . S
C4519 C4516 1.499 . S
C4519 C4520 1.373 . S
C4519 C4521 1.389 . S
C4520 H4493 0.950 . S
C4520 C4506 1.377 . S
C4520 C4519 1.373 . S
C4521 C4505 1.377 . S
C4521 C4519 1.389 . S
C4521 C4522 1.524 . S
C4522 C4521 1.524 . S
C4522 C4523 1.397 . S
C4522 C4527 1.363 . S
C4523 H4494 0.950 . S
C4523 C4522 1.397 . S
C4523 C4524 1.334 . S
C4524 H4495 0.950 . S
C4524 C4523 1.334 . S
C4524 C4525 1.287 . S
C4525 C4524 1.287 . S
C4525 C4526 1.524 . S
C4525 H4528 0.999 . S
C4526 H4496 0.950 . S
C4526 C4525 1.524 . S
C4526 C4527 1.415 . S
C4527 H4497 0.950 . S
C4527 C4522 1.363 . S
C4527 C4526 1.415 . S
H4528 C4525 0.999 . S
H4529 C4510 0.913 . S
H4530 C4548 0.951 . S
H4531 C4550 0.951 . S
H4532 C4552 0.950 . S
H4533 C4553 0.950 . S
H4534 C4555 0.950 . S
H4535 C4558 0.950 . S
H4536 C4559 0.950 . S
H4537 C4561 0.950 . S
H4538 C4562 0.950 1_655 S
H4539 C4563 0.951 . S
H4540 C4565 0.951 . S
H4541 C4567 0.950 1_655 S
H4542 C4568 0.950 1_655 S
H4543 C4570 0.950 . S
H4544 C4573 0.950 . S
H4545 C4574 0.950 . S
H4546 C4576 0.950 . S
H4547 C4577 0.950 . S
C4548 H4530 0.951 . S
C4548 C4549 1.366 . S
C4548 C4550 1.388 . S
C4549 C4548 1.366 . S
C4549 C4553 1.385 . S
C4550 H4531 0.951 . S
C4550 C4548 1.388 . S
C4550 C4551 1.366 . S
C4551 C4550 1.366 . S
C4551 C4552 1.414 . S
C4551 C4554 1.499 . S
C4552 H4532 0.950 . S
C4552 C4551 1.414 . S
C4552 C4553 1.374 . S
C4553 H4533 0.950 . S
C4553 C4549 1.385 . S
C4553 C4552 1.374 . S
C4554 C4551 1.499 . S
C4554 C4555 1.373 . S
C4554 C4556 1.389 . S
C4555 H4534 0.950 . S
C4555 C4554 1.373 . S
C4555 C4571 1.377 . S
C4556 C4554 1.389 . S
C4556 C4557 1.524 . S
C4556 C4570 1.377 . S
C4557 C4556 1.524 . S
C4557 C4558 1.397 . S
C4557 C4562 1.363 . S
C4558 H4535 0.950 . S
C4558 C4557 1.397 . S
C4558 C4559 1.334 . S
C4559 H4536 0.950 . S
C4559 C4558 1.334 . S
C4559 C4560 1.287 . S
C4560 C4559 1.287 . S
C4560 C4561 1.524 1_455 S
C4560 H4579 0.913 . S
C4561 H4537 0.950 . S
C4561 C4560 1.524 1_655 S
C4561 C4562 1.415 1_655 S
C4562 H4538 0.950 1_455 S
C4562 C4557 1.363 . S
C4562 C4561 1.415 1_455 S
C4563 H4539 0.951 . S
C4563 C4564 1.366 . S
C4563 C4565 1.388 . S
C4564 C4563 1.366 . S
C4564 C4568 1.385 . S
C4565 H4540 0.951 . S
C4565 C4563 1.388 . S
C4565 C4566 1.366 . S
C4566 C4565 1.366 . S
C4566 C4567 1.414 . S
C4566 C4569 1.499 . S
C4567 H4541 0.950 1_455 S
C4567 C4566 1.414 . S
C4567 C4568 1.374 . S
C4568 H4542 0.950 1_455 S
C4568 C4564 1.385 . S
C4568 C4567 1.374 . S
C4569 C4566 1.499 . S
C4569 C4570 1.373 . S
C4569 C4571 1.389 . S
C4570 H4543 0.950 . S
C4570 C4556 1.377 . S
C4570 C4569 1.373 . S
C4571 C4555 1.377 . S
C4571 C4569 1.389 . S
C4571 C4572 1.524 . S
C4572 C4571 1.524 . S
C4572 C4573 1.397 . S
C4572 C4577 1.363 . S
C4573 H4544 0.950 . S
C4573 C4572 1.397 . S
C4573 C4574 1.334 . S
C4574 H4545 0.950 . S
C4574 C4573 1.334 . S
C4574 C4575 1.287 . S
C4575 C4574 1.287 . S
C4575 C4576 1.524 . S
C4575 H4578 0.999 . S
C4576 H4546 0.950 . S
C4576 C4575 1.524 . S
C4576 C4577 1.415 . S
C4577 H4547 0.950 . S
C4577 C4572 1.363 . S
C4577 C4576 1.415 . S
H4578 C4575 0.999 . S
H4579 C4560 0.913 . S
H4580 C4598 0.951 . S
H4581 C4600 0.951 . S
H4582 C4602 0.950 . S
H4583 C4603 0.950 . S
H4584 C4605 0.950 . S
H4585 C4608 0.950 . S
H4586 C4609 0.950 . S
H4587 C4611 0.950 . S
H4588 C4612 0.950 . S
H4589 C4613 0.951 . S
H4590 C4615 0.951 . S
H4591 C4617 0.950 . S
H4592 C4618 0.950 . S
H4593 C4620 0.950 . S
H4594 C4623 0.950 . S
H4595 C4624 0.950 . S
H4596 C4626 0.950 . S
H4597 C4627 0.950 . S
C4598 H4580 0.951 . S
C4598 C4599 1.366 . S
C4598 C4600 1.388 . S
C4599 C4598 1.366 . S
C4599 C4603 1.385 . S
C4600 H4581 0.951 . S
C4600 C4598 1.388 . S
C4600 C4601 1.366 . S
C4601 C4600 1.366 . S
C4601 C4602 1.414 . S
C4601 C4604 1.499 . S
C4602 H4582 0.950 . S
C4602 C4601 1.414 . S
C4602 C4603 1.374 . S
C4603 H4583 0.950 . S
C4603 C4599 1.385 . S
C4603 C4602 1.374 . S
C4604 C4601 1.499 . S
C4604 C4605 1.373 . S
C4604 C4606 1.389 . S
C4605 H4584 0.950 . S
C4605 C4604 1.373 . S
C4605 C4621 1.377 . S
C4606 C4604 1.389 . S
C4606 C4607 1.524 . S
C4606 C4620 1.377 . S
C4607 C4606 1.524 . S
C4607 C4608 1.397 . S
C4607 C4612 1.363 . S
C4608 H4585 0.950 . S
C4608 C4607 1.397 . S
C4608 C4609 1.334 . S
C4609 H4586 0.950 . S
C4609 C4608 1.334 . S
C4609 C4610 1.287 . S
C4610 C4609 1.287 . S
C4610 C4611 1.524 . S
C4610 H4629 0.913 . S
C4611 H4587 0.950 . S
C4611 C4610 1.524 . S
C4611 C4612 1.415 . S
C4612 H4588 0.950 . S
C4612 C4607 1.363 . S
C4612 C4611 1.415 . S
C4613 H4589 0.951 . S
C4613 C4614 1.366 . S
C4613 C4615 1.388 . S
C4614 C4613 1.366 . S
C4614 C4618 1.385 . S
C4615 H4590 0.951 . S
C4615 C4613 1.388 . S
C4615 C4616 1.366 . S
C4616 C4615 1.366 . S
C4616 C4617 1.414 . S
C4616 C4619 1.499 . S
C4617 H4591 0.950 . S
C4617 C4616 1.414 . S
C4617 C4618 1.374 . S
C4618 H4592 0.950 . S
C4618 C4614 1.385 . S
C4618 C4617 1.374 . S
C4619 C4616 1.499 . S
C4619 C4620 1.373 . S
C4619 C4621 1.389 . S
C4620 H4593 0.950 . S
C4620 C4606 1.377 . S
C4620 C4619 1.373 . S
C4621 C4605 1.377 . S
C4621 C4619 1.389 . S
C4621 C4622 1.524 . S
C4622 C4621 1.524 . S
C4622 C4623 1.397 . S
C4622 C4627 1.363 . S
C4623 H4594 0.950 . S
C4623 C4622 1.397 . S
C4623 C4624 1.334 . S
C4624 H4595 0.950 . S
C4624 C4623 1.334 . S
C4624 C4625 1.287 . S
C4625 C4624 1.287 . S
C4625 C4626 1.524 . S
C4625 H4628 0.999 . S
C4626 H4596 0.950 . S
C4626 C4625 1.524 . S
C4626 C4627 1.415 . S
C4627 H4597 0.950 . S
C4627 C4622 1.363 . S
C4627 C4626 1.415 . S
H4628 C4625 0.999 . S
H4629 C4610 0.913 . S
H4630 C4648 0.951 . S
H4631 C4650 0.951 . S
H4632 C4652 0.950 . S
H4633 C4653 0.950 . S
H4634 C4655 0.950 . S
H4635 C4658 0.950 . S
H4636 C4659 0.950 . S
H4637 C4661 0.950 . S
H4638 C4662 0.950 . S
H4639 C4663 0.951 . S
H4640 C4665 0.951 . S
H4641 C4667 0.950 1_545 S
H4642 C4668 0.950 1_545 S
H4643 C4670 0.950 . S
H4644 C4673 0.950 . S
H4645 C4674 0.950 . S
H4646 C4676 0.950 . S
H4647 C4677 0.950 . S
C4648 H4630 0.951 . S
C4648 C4649 1.366 . S
C4648 C4650 1.388 . S
C4649 C4648 1.366 . S
C4649 C4653 1.385 . S
C4650 H4631 0.951 . S
C4650 C4648 1.388 . S
C4650 C4651 1.366 . S
C4651 C4650 1.366 . S
C4651 C4652 1.414 . S
C4651 C4654 1.499 . S
C4652 H4632 0.950 . S
C4652 C4651 1.414 . S
C4652 C4653 1.374 . S
C4653 H4633 0.950 . S
C4653 C4649 1.385 . S
C4653 C4652 1.374 . S
C4654 C4651 1.499 . S
C4654 C4655 1.373 . S
C4654 C4656 1.389 . S
C4655 H4634 0.950 . S
C4655 C4654 1.373 . S
C4655 C4671 1.377 . S
C4656 C4654 1.389 . S
C4656 C4657 1.524 . S
C4656 C4670 1.377 . S
C4657 C4656 1.524 . S
C4657 C4658 1.397 . S
C4657 C4662 1.363 1_565 S
C4658 H4635 0.950 . S
C4658 C4657 1.397 . S
C4658 C4659 1.334 . S
C4659 H4636 0.950 . S
C4659 C4658 1.334 . S
C4659 C4660 1.287 . S
C4660 C4659 1.287 . S
C4660 C4661 1.524 1_565 S
C4660 H4679 0.913 1_565 S
C4661 H4637 0.950 . S
C4661 C4660 1.524 1_545 S
C4661 C4662 1.415 . S
C4662 H4638 0.950 . S
C4662 C4657 1.363 1_545 S
C4662 C4661 1.415 . S
C4663 H4639 0.951 . S
C4663 C4664 1.366 . S
C4663 C4665 1.388 . S
C4664 C4663 1.366 . S
C4664 C4668 1.385 . S
C4665 H4640 0.951 . S
C4665 C4663 1.388 . S
C4665 C4666 1.366 . S
C4666 C4665 1.366 . S
C4666 C4667 1.414 . S
C4666 C4669 1.499 . S
C4667 H4641 0.950 1_565 S
C4667 C4666 1.414 . S
C4667 C4668 1.374 . S
C4668 H4642 0.950 1_565 S
C4668 C4664 1.385 . S
C4668 C4667 1.374 . S
C4669 C4666 1.499 . S
C4669 C4670 1.373 . S
C4669 C4671 1.389 . S
C4670 H4643 0.950 . S
C4670 C4656 1.377 . S
C4670 C4669 1.373 . S
C4671 C4655 1.377 . S
C4671 C4669 1.389 . S
C4671 C4672 1.524 . S
C4672 C4671 1.524 . S
C4672 C4673 1.397 . S
C4672 C4677 1.363 . S
C4673 H4644 0.950 . S
C4673 C4672 1.397 . S
C4673 C4674 1.334 . S
C4674 H4645 0.950 . S
C4674 C4673 1.334 . S
C4674 C4675 1.287 . S
C4675 C4674 1.287 . S
C4675 C4676 1.524 . S
C4675 H4678 0.999 . S
C4676 H4646 0.950 . S
C4676 C4675 1.524 . S
C4676 C4677 1.415 . S
C4677 H4647 0.950 . S
C4677 C4672 1.363 . S
C4677 C4676 1.415 . S
H4678 C4675 0.999 . S
H4679 C4660 0.913 1_545 S
H4680 C4698 0.951 . S
H4681 C4700 0.951 . S
H4682 C4702 0.950 1_545 S
H4683 C4703 0.950 . S
H4684 C4705 0.950 1_545 S
H4685 C4708 0.950 . S
H4686 C4709 0.950 . S
H4687 C4711 0.950 . S
H4688 C4712 0.950 . S
H4689 C4713 0.951 . S
H4690 C4715 0.951 . S
H4691 C4717 0.950 . S
H4692 C4718 0.950 . S
H4693 C4720 0.950 . S
H4694 C4723 0.950 1_565 S
H4695 C4724 0.950 . S
H4696 C4726 0.950 . S
H4697 C4727 0.950 . S
C4698 H4680 0.951 . S
C4698 C4699 1.366 . S
C4698 C4700 1.388 . S
C4699 C4698 1.366 . S
C4699 C4703 1.385 . S
C4700 H4681 0.951 . S
C4700 C4698 1.388 . S
C4700 C4701 1.366 . S
C4701 C4700 1.366 . S
C4701 C4702 1.414 . S
C4701 C4704 1.499 . S
C4702 H4682 0.950 1_565 S
C4702 C4701 1.414 . S
C4702 C4703 1.374 . S
C4703 H4683 0.950 . S
C4703 C4699 1.385 . S
C4703 C4702 1.374 . S
C4704 C4701 1.499 . S
C4704 C4705 1.373 . S
C4704 C4706 1.389 . S
C4705 H4684 0.950 1_565 S
C4705 C4704 1.373 . S
C4705 C4721 1.402 . S
C4706 C4704 1.389 . S
C4706 C4707 1.524 . S
C4706 C4720 1.377 . S
C4707 C4706 1.524 . S
C4707 C4708 1.397 . S
C4707 C4712 1.363 . S
C4708 H4685 0.950 . S
C4708 C4707 1.397 . S
C4708 C4709 1.334 . S
C4709 H4686 0.950 . S
C4709 C4708 1.334 . S
C4709 C4710 1.287 . S
C4710 C4709 1.287 . S
C4710 C4711 1.524 . S
C4710 H4729 0.913 . S
C4711 H4687 0.950 . S
C4711 C4710 1.524 . S
C4711 C4712 1.415 . S
C4712 H4688 0.950 . S
C4712 C4707 1.363 . S
C4712 C4711 1.415 . S
C4713 H4689 0.951 . S
C4713 C4714 1.391 . S
C4713 C4715 1.388 . S
C4714 C4713 1.391 . S
C4714 C4718 1.316 1_545 S
C4715 H4690 0.951 . S
C4715 C4713 1.388 . S
C4715 C4716 1.366 1_545 S
C4716 C4715 1.366 1_565 S
C4716 C4717 1.414 . S
C4716 C4719 1.499 . S
C4717 H4691 0.950 . S
C4717 C4716 1.414 . S
C4717 C4718 1.374 . S
C4718 H4692 0.950 . S
C4718 C4714 1.316 1_565 S
C4718 C4717 1.374 . S
C4719 C4716 1.499 . S
C4719 C4720 1.373 . S
C4719 C4721 1.404 . S
C4720 H4693 0.950 . S
C4720 C4706 1.377 . S
C4720 C4719 1.373 . S
C4721 C4705 1.402 . S
C4721 C4719 1.404 . S
C4721 C4722 1.486 1_565 S
C4722 C4721 1.486 1_545 S
C4722 C4723 1.397 . S
C4722 C4727 1.363 . S
C4723 H4694 0.950 1_545 S
C4723 C4722 1.397 . S
C4723 C4724 1.334 . S
C4724 H4695 0.950 . S
C4724 C4723 1.334 . S
C4724 C4725 1.287 . S
C4725 C4724 1.287 . S
C4725 C4726 1.524 . S
C4725 H4728 0.999 . S
C4726 H4696 0.950 . S
C4726 C4725 1.524 . S
C4726 C4727 1.415 . S
C4727 H4697 0.950 . S
C4727 C4722 1.363 . S
C4727 C4726 1.415 . S
H4728 C4725 0.999 . S
H4729 C4710 0.913 . S
H4730 C4748 0.951 . S
H4731 C4750 0.951 . S
H4732 C4752 0.993 . S
H4733 C4753 0.950 . S
H4734 C4755 0.950 . S
H4735 C4758 0.950 . S
H4736 C4759 0.950 . S
H4737 C4761 0.950 . S
H4738 C4762 0.950 . S
H4739 C4763 0.951 . S
H4740 C4765 0.951 . S
H4741 C4767 0.950 . S
H4742 C4768 0.950 . S
H4743 C4770 0.950 . S
H4744 C4773 0.950 . S
H4745 C4774 0.987 . S
H4746 C4776 0.950 . S
H4747 C4777 0.950 . S
C4748 H4730 0.951 . S
C4748 C4749 1.366 . S
C4748 C4750 1.388 . S
C4749 C4748 1.366 . S
C4749 C4753 1.385 . S
C4750 H4731 0.951 . S
C4750 C4748 1.388 . S
C4750 C4751 1.366 . S
C4751 C4750 1.366 . S
C4751 C4752 1.414 . S
C4751 C4754 1.499 . S
C4752 H4732 0.993 . S
C4752 C4751 1.414 . S
C4752 C4753 1.374 . S
C4753 H4733 0.950 . S
C4753 C4749 1.385 . S
C4753 C4752 1.374 . S
C4754 C4751 1.499 . S
C4754 C4755 1.373 . S
C4754 C4756 1.389 . S
C4755 H4734 0.950 . S
C4755 C4754 1.373 . S
C4755 C4771 1.377 . S
C4756 C4754 1.389 . S
C4756 C4757 1.524 . S
C4756 C4770 1.377 . S
C4757 C4756 1.524 . S
C4757 C4758 1.397 . S
C4757 C4762 1.363 . S
C4758 H4735 0.950 . S
C4758 C4757 1.397 . S
C4758 C4759 1.334 . S
C4759 H4736 0.950 . S
C4759 C4758 1.334 . S
C4759 C4760 1.287 . S
C4760 C4759 1.287 . S
C4760 C4761 1.524 . S
C4760 H4779 0.913 . S
C4761 H4737 0.950 . S
C4761 C4760 1.524 . S
C4761 C4762 1.415 . S
C4762 H4738 0.950 . S
C4762 C4757 1.363 . S
C4762 C4761 1.415 . S
C4763 H4739 0.951 . S
C4763 C4764 1.366 . S
C4763 C4765 1.388 . S
C4764 C4763 1.366 . S
C4764 C4768 1.385 1_655 S
C4765 H4740 0.951 . S
C4765 C4763 1.388 . S
C4765 C4766 1.366 1_655 S
C4766 C4765 1.366 1_455 S
C4766 C4767 1.414 . S
C4766 C4769 1.499 . S
C4767 H4741 0.950 . S
C4767 C4766 1.414 . S
C4767 C4768 1.374 . S
C4768 H4742 0.950 . S
C4768 C4764 1.385 1_455 S
C4768 C4767 1.374 . S
C4769 C4766 1.499 . S
C4769 C4770 1.373 . S
C4769 C4771 1.389 . S
C4770 H4743 0.950 . S
C4770 C4756 1.377 . S
C4770 C4769 1.373 . S
C4771 C4755 1.377 . S
C4771 C4769 1.389 . S
C4771 C4772 1.524 1_455 S
C4772 C4771 1.524 1_655 S
C4772 C4773 1.397 1_655 S
C4772 C4777 1.363 . S
C4773 H4744 0.950 . S
C4773 C4772 1.397 1_455 S
C4773 C4774 1.334 1_455 S
C4774 H4745 0.987 . S
C4774 C4773 1.334 1_655 S
C4774 C4775 1.287 . S
C4775 C4774 1.287 . S
C4775 C4776 1.524 . S
C4775 H4778 0.999 . S
C4776 H4746 0.950 . S
C4776 C4775 1.524 . S
C4776 C4777 1.415 . S
C4777 H4747 0.950 . S
C4777 C4772 1.363 . S
C4777 C4776 1.415 . S
H4778 C4775 0.999 . S
H4779 C4760 0.913 . S
H4780 C4798 0.951 . S
H4781 C4800 0.951 . S
H4782 C4802 0.950 . S
H4783 C4803 0.950 . S
H4784 C4805 0.950 . S
H4785 C4808 0.950 . S
H4786 C4809 0.950 . S
H4787 C4811 0.950 . S
H4788 C4812 0.950 . S
H4789 C4813 0.951 . S
H4790 C4815 0.951 . S
H4791 C4817 0.950 . S
H4792 C4818 0.950 . S
H4793 C4820 0.950 . S
H4794 C4823 0.950 . S
H4795 C4824 0.950 . S
H4796 C4826 0.950 . S
H4797 C4827 0.950 . S
C4798 H4780 0.951 . S
C4798 C4799 1.366 . S
C4798 C4800 1.388 . S
C4799 C4798 1.366 . S
C4799 C4803 1.385 . S
C4800 H4781 0.951 . S
C4800 C4798 1.388 . S
C4800 C4801 1.366 . S
C4801 C4800 1.366 . S
C4801 C4802 1.414 . S
C4801 C4804 1.499 . S
C4802 H4782 0.950 . S
C4802 C4801 1.414 . S
C4802 C4803 1.374 . S
C4803 H4783 0.950 . S
C4803 C4799 1.385 . S
C4803 C4802 1.374 . S
C4804 C4801 1.499 . S
C4804 C4805 1.373 . S
C4804 C4806 1.389 . S
C4805 H4784 0.950 . S
C4805 C4804 1.373 . S
C4805 C4821 1.377 . S
C4806 C4804 1.389 . S
C4806 C4807 1.524 . S
C4806 C4820 1.377 . S
C4807 C4806 1.524 . S
C4807 C4808 1.397 . S
C4807 C4812 1.363 . S
C4808 H4785 0.950 . S
C4808 C4807 1.397 . S
C4808 C4809 1.334 . S
C4809 H4786 0.950 . S
C4809 C4808 1.334 . S
C4809 C4810 1.287 . S
C4810 C4809 1.287 . S
C4810 C4811 1.524 . S
C4810 H4829 0.913 . S
C4811 H4787 0.950 . S
C4811 C4810 1.524 . S
C4811 C4812 1.415 . S
C4812 H4788 0.950 . S
C4812 C4807 1.363 . S
C4812 C4811 1.415 . S
C4813 H4789 0.951 . S
C4813 C4814 1.366 . S
C4813 C4815 1.388 . S
C4814 C4813 1.366 . S
C4814 C4818 1.385 . S
C4815 H4790 0.951 . S
C4815 C4813 1.388 . S
C4815 C4816 1.366 . S
C4816 C4815 1.366 . S
C4816 C4817 1.414 . S
C4816 C4819 1.499 . S
C4817 H4791 0.950 . S
C4817 C4816 1.414 . S
C4817 C4818 1.374 . S
C4818 H4792 0.950 . S
C4818 C4814 1.385 . S
C4818 C4817 1.374 . S
C4819 C4816 1.499 . S
C4819 C4820 1.373 . S
C4819 C4821 1.389 . S
C4820 H4793 0.950 . S
C4820 C4806 1.377 . S
C4820 C4819 1.373 . S
C4821 C4805 1.377 . S
C4821 C4819 1.389 . S
C4821 C4822 1.524 . S
C4822 C4821 1.524 . S
C4822 C4823 1.397 . S
C4822 C4827 1.363 . S
C4823 H4794 0.950 . S
C4823 C4822 1.397 . S
C4823 C4824 1.334 . S
C4824 H4795 0.950 . S
C4824 C4823 1.334 . S
C4824 C4825 1.287 . S
C4825 C4824 1.287 . S
C4825 C4826 1.524 . S
C4825 H4828 0.999 . S
C4826 H4796 0.950 . S
C4826 C4825 1.524 . S
C4826 C4827 1.415 . S
C4827 H4797 0.950 . S
C4827 C4822 1.363 . S
C4827 C4826 1.415 . S
H4828 C4825 0.999 . S
H4829 C4810 0.913 . S
H4830 C4848 0.951 . S
H4831 C4850 0.951 . S
H4832 C4852 0.950 . S
H4833 C4853 0.950 . S
H4834 C4855 0.950 . S
H4835 C4858 0.950 . S
H4836 C4859 0.950 . S
H4837 C4861 0.950 . S
H4838 C4862 0.950 . S
H4839 C4863 0.951 . S
H4840 C4865 0.951 . S
H4841 C4867 0.950 . S
H4842 C4868 0.950 . S
H4843 C4870 0.950 . S
H4844 C4873 0.950 . S
H4845 C4874 0.950 . S
H4846 C4876 0.950 . S
H4847 C4877 0.950 . S
C4848 H4830 0.951 . S
C4848 C4849 1.366 . S
C4848 C4850 1.388 . S
C4849 C4848 1.366 . S
C4849 C4853 1.385 . S
C4850 H4831 0.951 . S
C4850 C4848 1.388 . S
C4850 C4851 1.366 . S
C4851 C4850 1.366 . S
C4851 C4852 1.414 . S
C4851 C4854 1.499 . S
C4852 H4832 0.950 . S
C4852 C4851 1.414 . S
C4852 C4853 1.374 . S
C4853 H4833 0.950 . S
C4853 C4849 1.385 . S
C4853 C4852 1.374 . S
C4854 C4851 1.499 . S
C4854 C4855 1.373 . S
C4854 C4856 1.389 . S
C4855 H4834 0.950 . S
C4855 C4854 1.373 . S
C4855 C4871 1.377 . S
C4856 C4854 1.389 . S
C4856 C4857 1.524 . S
C4856 C4870 1.377 . S
C4857 C4856 1.524 . S
C4857 C4858 1.397 . S
C4857 C4862 1.363 . S
C4858 H4835 0.950 . S
C4858 C4857 1.397 . S
C4858 C4859 1.334 . S
C4859 H4836 0.950 . S
C4859 C4858 1.334 . S
C4859 C4860 1.287 . S
C4860 C4859 1.287 . S
C4860 C4861 1.524 . S
C4860 H4879 0.913 . S
C4861 H4837 0.950 . S
C4861 C4860 1.524 . S
C4861 C4862 1.415 . S
C4862 H4838 0.950 . S
C4862 C4857 1.363 . S
C4862 C4861 1.415 . S
C4863 H4839 0.951 . S
C4863 C4864 1.366 . S
C4863 C4865 1.388 . S
C4864 C4863 1.366 . S
C4864 C4868 1.385 . S
C4865 H4840 0.951 . S
C4865 C4863 1.388 . S
C4865 C4866 1.366 . S
C4866 C4865 1.366 . S
C4866 C4867 1.414 . S
C4866 C4869 1.499 . S
C4867 H4841 0.950 . S
C4867 C4866 1.414 . S
C4867 C4868 1.374 . S
C4868 H4842 0.950 . S
C4868 C4864 1.385 . S
C4868 C4867 1.374 . S
C4869 C4866 1.499 . S
C4869 C4870 1.373 . S
C4869 C4871 1.389 . S
C4870 H4843 0.950 . S
C4870 C4856 1.377 . S
C4870 C4869 1.373 . S
C4871 C4855 1.377 . S
C4871 C4869 1.389 . S
C4871 C4872 1.524 . S
C4872 C4871 1.524 . S
C4872 C4873 1.397 . S
C4872 C4877 1.363 . S
C4873 H4844 0.950 . S
C4873 C4872 1.397 . S
C4873 C4874 1.334 . S
C4874 H4845 0.950 . S
C4874 C4873 1.334 . S
C4874 C4875 1.287 . S
C4875 C4874 1.287 . S
C4875 C4876 1.524 . S
C4875 H4878 0.999 . S
C4876 H4846 0.950 . S
C4876 C4875 1.524 . S
C4876 C4877 1.415 . S
C4877 H4847 0.950 . S
C4877 C4872 1.363 . S
C4877 C4876 1.415 . S
H4878 C4875 0.999 . S
H4879 C4860 0.913 . S
H4880 C4898 0.951 . S
H4881 C4900 0.951 . S
H4882 C4902 0.950 . S
H4883 C4903 0.950 . S
H4884 C4905 0.950 . S
H4885 C4908 0.950 . S
H4886 C4909 0.950 . S
H4887 C4911 0.950 . S
H4888 C4912 0.950 . S
H4889 C4913 0.951 . S
H4890 C4915 0.951 . S
H4891 C4917 0.950 . S
H4892 C4918 0.950 . S
H4893 C4920 0.950 . S
H4894 C4923 0.950 . S
H4895 C4924 0.950 . S
H4896 C4926 0.950 . S
H4897 C4927 0.950 . S
C4898 H4880 0.951 . S
C4898 C4899 1.366 . S
C4898 C4900 1.388 . S
C4899 C4898 1.366 . S
C4899 C4903 1.385 . S
C4900 H4881 0.951 . S
C4900 C4898 1.388 . S
C4900 C4901 1.366 . S
C4901 C4900 1.366 . S
C4901 C4902 1.414 . S
C4901 C4904 1.499 . S
C4902 H4882 0.950 . S
C4902 C4901 1.414 . S
C4902 C4903 1.374 . S
C4903 H4883 0.950 . S
C4903 C4899 1.385 . S
C4903 C4902 1.374 . S
C4904 C4901 1.499 . S
C4904 C4905 1.373 . S
C4904 C4906 1.389 . S
C4905 H4884 0.950 . S
C4905 C4904 1.373 . S
C4905 C4921 1.377 . S
C4906 C4904 1.389 . S
C4906 C4907 1.524 . S
C4906 C4920 1.377 . S
C4907 C4906 1.524 . S
C4907 C4908 1.397 . S
C4907 C4912 1.363 . S
C4908 H4885 0.950 . S
C4908 C4907 1.397 . S
C4908 C4909 1.334 . S
C4909 H4886 0.950 . S
C4909 C4908 1.334 . S
C4909 C4910 1.287 . S
C4910 C4909 1.287 . S
C4910 C4911 1.524 . S
C4910 H4929 0.913 . S
C4911 H4887 0.950 . S
C4911 C4910 1.524 . S
C4911 C4912 1.415 . S
C4912 H4888 0.950 . S
C4912 C4907 1.363 . S
C4912 C4911 1.415 . S
C4913 H4889 0.951 . S
C4913 C4914 1.366 . S
C4913 C4915 1.388 . S
C4914 C4913 1.366 . S
C4914 C4918 1.385 . S
C4915 H4890 0.951 . S
C4915 C4913 1.388 . S
C4915 C4916 1.366 . S
C4916 C4915 1.366 . S
C4916 C4917 1.414 . S
C4916 C4919 1.499 . S
C4917 H4891 0.950 . S
C4917 C4916 1.414 . S
C4917 C4918 1.374 . S
C4918 H4892 0.950 . S
C4918 C4914 1.385 . S
C4918 C4917 1.374 . S
C4919 C4916 1.499 . S
C4919 C4920 1.373 . S
C4919 C4921 1.389 . S
C4920 H4893 0.950 . S
C4920 C4906 1.377 . S
C4920 C4919 1.373 . S
C4921 C4905 1.377 . S
C4921 C4919 1.389 . S
C4921 C4922 1.524 . S
C4922 C4921 1.524 . S
C4922 C4923 1.397 . S
C4922 C4927 1.363 . S
C4923 H4894 0.950 . S
C4923 C4922 1.397 . S
C4923 C4924 1.334 . S
C4924 H4895 0.950 . S
C4924 C4923 1.334 . S
C4924 C4925 1.287 . S
C4925 C4924 1.287 . S
C4925 C4926 1.524 . S
C4925 H4928 0.999 . S
C4926 H4896 0.950 . S
C4926 C4925 1.524 . S
C4926 C4927 1.415 . S
C4927 H4897 0.950 . S
C4927 C4922 1.363 . S
C4927 C4926 1.415 . S
H4928 C4925 0.999 . S
H4929 C4910 0.913 . S
H4930 C4948 0.951 . S
H4931 C4950 0.951 . S
H4932 C4952 0.950 . S
H4933 C4953 0.934 1_455 S
H4934 C4955 0.950 . S
H4935 C4958 0.950 . S
H4936 C4959 0.950 . S
H4937 C4961 0.950 . S
H4938 C4962 0.950 . S
H4939 C4963 0.951 . S
H4940 C4965 0.951 . S
H4941 C4967 0.950 . S
H4942 C4968 0.950 . S
H4943 C4970 0.950 . S
H4944 C4973 0.950 . S
H4945 C4974 0.950 . S
H4946 C4976 0.950 . S
H4947 C4977 0.950 . S
C4948 H4930 0.951 . S
C4948 C4949 1.366 . S
C4948 C4950 1.388 . S
C4949 C4948 1.366 . S
C4949 C4953 1.385 . S
C4950 H4931 0.951 . S
C4950 C4948 1.388 . S
C4950 C4951 1.366 . S
C4951 C4950 1.366 . S
C4951 C4952 1.414 . S
C4951 C4954 1.499 . S
C4952 H4932 0.950 . S
C4952 C4951 1.414 . S
C4952 C4953 1.374 . S
C4953 H4933 0.934 1_655 S
C4953 C4949 1.385 . S
C4953 C4952 1.374 . S
C4954 C4951 1.499 . S
C4954 C4955 1.373 . S
C4954 C4956 1.389 . S
C4955 H4934 0.950 . S
C4955 C4954 1.373 . S
C4955 C4971 1.377 . S
C4956 C4954 1.389 . S
C4956 C4957 1.524 . S
C4956 C4970 1.377 . S
C4957 C4956 1.524 . S
C4957 C4958 1.397 . S
C4957 C4962 1.363 . S
C4958 H4935 0.950 . S
C4958 C4957 1.397 . S
C4958 C4959 1.334 . S
C4959 H4936 0.950 . S
C4959 C4958 1.334 . S
C4959 C4960 1.287 . S
C4960 C4959 1.287 . S
C4960 C4961 1.524 . S
C4960 H4979 0.913 . S
C4961 H4937 0.950 . S
C4961 C4960 1.524 . S
C4961 C4962 1.415 . S
C4962 H4938 0.950 . S
C4962 C4957 1.363 . S
C4962 C4961 1.415 . S
C4963 H4939 0.951 . S
C4963 C4964 1.366 . S
C4963 C4965 1.388 . S
C4964 C4963 1.366 . S
C4964 C4968 1.385 . S
C4965 H4940 0.951 . S
C4965 C4963 1.388 . S
C4965 C4966 1.366 . S
C4966 C4965 1.366 . S
C4966 C4967 1.414 . S
C4966 C4969 1.499 . S
C4967 H4941 0.950 . S
C4967 C4966 1.414 . S
C4967 C4968 1.374 . S
C4968 H4942 0.950 . S
C4968 C4964 1.385 . S
C4968 C4967 1.374 . S
C4969 C4966 1.499 . S
C4969 C4970 1.373 . S
C4969 C4971 1.389 . S
C4970 H4943 0.950 . S
C4970 C4956 1.377 . S
C4970 C4969 1.373 . S
C4971 C4955 1.377 . S
C4971 C4969 1.389 . S
C4971 C4972 1.524 . S
C4972 C4971 1.524 . S
C4972 C4973 1.397 . S
C4972 C4977 1.363 . S
C4973 H4944 0.950 . S
C4973 C4972 1.397 . S
C4973 C4974 1.334 . S
C4974 H4945 0.950 . S
C4974 C4973 1.334 . S
C4974 C4975 1.287 . S
C4975 C4974 1.287 . S
C4975 C4976 1.524 . S
C4975 H4978 0.999 . S
C4976 H4946 0.950 . S
C4976 C4975 1.524 . S
C4976 C4977 1.415 . S
C4977 H4947 0.950 . S
C4977 C4972 1.363 . S
C4977 C4976 1.415 . S
H4978 C4975 0.999 . S
H4979 C4960 0.913 . S
H4980 C4998 0.951 . S
H4981 C5000 0.951 . S
H4982 C5002 0.950 . S
H4983 C5003 0.950 . S
H4984 C5005 0.938 1_565 S
H4985 C5008 0.950 . S
H4986 C5009 0.950 . S
H4987 C5011 0.950 . S
H4988 C5012 0.950 . S
H4989 C5013 0.951 1_565 S
H4990 C5015 0.951 1_565 S
H4991 C5017 0.950 . S
H4992 C5018 0.950 . S
H4993 C5020 0.950 . S
H4994 C5023 0.950 . S
H4995 C5024 0.950 . S
H4996 C5026 0.950 . S
H4997 C5027 0.950 . S
C4998 H4980 0.951 . S
C4998 C4999 1.366 . S
C4998 C5000 1.388 . S
C4999 C4998 1.366 . S
C4999 C5003 1.385 . S
C5000 H4981 0.951 . S
C5000 C4998 1.388 . S
C5000 C5001 1.366 . S
C5001 C5000 1.366 . S
C5001 C5002 1.414 . S
C5001 C5004 1.499 . S
C5002 H4982 0.950 . S
C5002 C5001 1.414 . S
C5002 C5003 1.374 . S
C5003 H4983 0.950 . S
C5003 C4999 1.385 . S
C5003 C5002 1.374 . S
C5004 C5001 1.499 . S
C5004 C5005 1.373 . S
C5004 C5006 1.389 . S
C5005 H4984 0.938 1_545 S
C5005 C5004 1.373 . S
C5005 C5021 1.377 . S
C5006 C5004 1.389 . S
C5006 C5007 1.524 . S
C5006 C5020 1.377 . S
C5007 C5006 1.524 . S
C5007 C5008 1.397 . S
C5007 C5012 1.363 . S
C5008 H4985 0.950 . S
C5008 C5007 1.397 . S
C5008 C5009 1.334 . S
C5009 H4986 0.950 . S
C5009 C5008 1.334 . S
C5009 C5010 1.287 . S
C5010 C5009 1.287 . S
C5010 C5011 1.524 . S
C5010 H5029 0.913 . S
C5011 H4987 0.950 . S
C5011 C5010 1.524 . S
C5011 C5012 1.415 . S
C5012 H4988 0.950 . S
C5012 C5007 1.363 . S
C5012 C5011 1.415 . S
C5013 H4989 0.951 1_545 S
C5013 C5014 1.366 . S
C5013 C5015 1.388 . S
C5014 C5013 1.366 . S
C5014 C5018 1.385 . S
C5015 H4990 0.951 1_545 S
C5015 C5013 1.388 . S
C5015 C5016 1.366 . S
C5016 C5015 1.366 . S
C5016 C5017 1.414 . S
C5016 C5019 1.499 . S
C5017 H4991 0.950 . S
C5017 C5016 1.414 . S
C5017 C5018 1.374 . S
C5018 H4992 0.950 . S
C5018 C5014 1.385 . S
C5018 C5017 1.374 . S
C5019 C5016 1.499 . S
C5019 C5020 1.373 . S
C5019 C5021 1.389 . S
C5020 H4993 0.950 . S
C5020 C5006 1.377 . S
C5020 C5019 1.373 . S
C5021 C5005 1.377 . S
C5021 C5019 1.389 . S
C5021 C5022 1.524 1_545 S
C5022 C5021 1.524 1_565 S
C5022 C5023 1.397 . S
C5022 C5027 1.363 . S
C5023 H4994 0.950 . S
C5023 C5022 1.397 . S
C5023 C5024 1.334 . S
C5024 H4995 0.950 . S
C5024 C5023 1.334 . S
C5024 C5025 1.287 . S
C5025 C5024 1.287 . S
C5025 C5026 1.524 . S
C5025 H5028 0.999 . S
C5026 H4996 0.950 . S
C5026 C5025 1.524 . S
C5026 C5027 1.415 . S
C5027 H4997 0.950 . S
C5027 C5022 1.363 . S
C5027 C5026 1.415 . S
H5028 C5025 0.999 . S
H5029 C5010 0.913 . S
H5030 C5048 0.951 . S
H5031 C5050 0.951 . S
H5032 C5052 0.950 . S
H5033 C5053 0.950 . S
H5034 C5055 0.950 . S
H5035 C5058 0.950 . S
H5036 C5059 0.950 . S
H5037 C5061 0.950 . S
H5038 C5062 0.950 . S
H5039 C5063 0.951 . S
H5040 C5065 0.951 . S
H5041 C5067 0.950 . S
H5042 C5068 0.934 1_455 S
H5043 C5070 0.950 . S
H5044 C5073 0.950 . S
H5045 C5074 0.950 . S
H5046 C5076 0.950 . S
H5047 C5077 0.950 . S
C5048 H5030 0.951 . S
C5048 C5049 1.366 . S
C5048 C5050 1.388 . S
C5049 C5048 1.366 . S
C5049 C5053 1.385 . S
C5050 H5031 0.951 . S
C5050 C5048 1.388 . S
C5050 C5051 1.366 . S
C5051 C5050 1.366 . S
C5051 C5052 1.414 . S
C5051 C5054 1.499 . S
C5052 H5032 0.950 . S
C5052 C5051 1.414 . S
C5052 C5053 1.374 . S
C5053 H5033 0.950 . S
C5053 C5049 1.385 . S
C5053 C5052 1.374 . S
C5054 C5051 1.499 . S
C5054 C5055 1.373 . S
C5054 C5056 1.389 . S
C5055 H5034 0.950 . S
C5055 C5054 1.373 . S
C5055 C5071 1.377 . S
C5056 C5054 1.389 . S
C5056 C5057 1.524 . S
C5056 C5070 1.377 . S
C5057 C5056 1.524 . S
C5057 C5058 1.397 . S
C5057 C5062 1.363 . S
C5058 H5035 0.950 . S
C5058 C5057 1.397 . S
C5058 C5059 1.334 . S
C5059 H5036 0.950 . S
C5059 C5058 1.334 . S
C5059 C5060 1.287 . S
C5060 C5059 1.287 . S
C5060 C5061 1.524 . S
C5060 H5079 0.913 . S
C5061 H5037 0.950 . S
C5061 C5060 1.524 . S
C5061 C5062 1.415 . S
C5062 H5038 0.950 . S
C5062 C5057 1.363 . S
C5062 C5061 1.415 . S
C5063 H5039 0.951 . S
C5063 C5064 1.366 . S
C5063 C5065 1.388 . S
C5064 C5063 1.366 . S
C5064 C5068 1.385 . S
C5065 H5040 0.951 . S
C5065 C5063 1.388 . S
C5065 C5066 1.366 . S
C5066 C5065 1.366 . S
C5066 C5067 1.414 . S
C5066 C5069 1.499 . S
C5067 H5041 0.950 . S
C5067 C5066 1.414 . S
C5067 C5068 1.374 . S
C5068 H5042 0.934 1_655 S
C5068 C5064 1.385 . S
C5068 C5067 1.374 . S
C5069 C5066 1.499 . S
C5069 C5070 1.373 . S
C5069 C5071 1.389 . S
C5070 H5043 0.950 . S
C5070 C5056 1.377 . S
C5070 C5069 1.373 . S
C5071 C5055 1.377 . S
C5071 C5069 1.389 . S
C5071 C5072 1.524 . S
C5072 C5071 1.524 . S
C5072 C5073 1.397 1_655 S
C5072 C5077 1.363 . S
C5073 H5044 0.950 . S
C5073 C5072 1.397 1_455 S
C5073 C5074 1.334 . S
C5074 H5045 0.950 . S
C5074 C5073 1.334 . S
C5074 C5075 1.287 . S
C5075 C5074 1.287 . S
C5075 C5076 1.524 1_455 S
C5075 H5078 0.999 . S
C5076 H5046 0.950 . S
C5076 C5075 1.524 1_655 S
C5076 C5077 1.415 . S
C5077 H5047 0.950 . S
C5077 C5072 1.363 . S
C5077 C5076 1.415 . S
H5078 C5075 0.999 . S
H5079 C5060 0.913 . S
H5080 C5098 0.951 . S
H5081 C5100 0.951 . S
H5082 C5102 0.950 . S
H5083 C5103 0.950 . S
H5084 C5105 0.950 . S
H5085 C5108 0.950 . S
H5086 C5109 0.950 . S
H5087 C5111 0.950 . S
H5088 C5112 0.950 . S
H5089 C5113 0.951 . S
H5090 C5115 0.951 . S
H5091 C5117 0.950 . S
H5092 C5118 0.950 . S
H5093 C5120 0.950 . S
H5094 C5123 0.950 . S
H5095 C5124 0.950 . S
H5096 C5126 0.950 . S
H5097 C5127 0.950 . S
C5098 H5080 0.951 . S
C5098 C5099 1.366 . S
C5098 C5100 1.388 . S
C5099 C5098 1.366 . S
C5099 C5103 1.385 . S
C5100 H5081 0.951 . S
C5100 C5098 1.388 . S
C5100 C5101 1.366 . S
C5101 C5100 1.366 . S
C5101 C5102 1.414 . S
C5101 C5104 1.499 . S
C5102 H5082 0.950 . S
C5102 C5101 1.414 . S
C5102 C5103 1.374 . S
C5103 H5083 0.950 . S
C5103 C5099 1.385 . S
C5103 C5102 1.374 . S
C5104 C5101 1.499 . S
C5104 C5105 1.373 . S
C5104 C5106 1.389 . S
C5105 H5084 0.950 . S
C5105 C5104 1.373 . S
C5105 C5121 1.377 . S
C5106 C5104 1.389 . S
C5106 C5107 1.524 . S
C5106 C5120 1.377 . S
C5107 C5106 1.524 . S
C5107 C5108 1.397 . S
C5107 C5112 1.363 . S
C5108 H5085 0.950 . S
C5108 C5107 1.397 . S
C5108 C5109 1.334 . S
C5109 H5086 0.950 . S
C5109 C5108 1.334 . S
C5109 C5110 1.287 . S
C5110 C5109 1.287 . S
C5110 C5111 1.524 . S
C5110 H5129 0.913 . S
C5111 H5087 0.950 . S
C5111 C5110 1.524 . S
C5111 C5112 1.415 . S
C5112 H5088 0.950 . S
C5112 C5107 1.363 . S
C5112 C5111 1.415 . S
C5113 H5089 0.951 . S
C5113 C5114 1.366 . S
C5113 C5115 1.388 . S
C5114 C5113 1.366 . S
C5114 C5118 1.385 . S
C5115 H5090 0.951 . S
C5115 C5113 1.388 . S
C5115 C5116 1.366 . S
C5116 C5115 1.366 . S
C5116 C5117 1.414 . S
C5116 C5119 1.499 . S
C5117 H5091 0.950 . S
C5117 C5116 1.414 . S
C5117 C5118 1.374 . S
C5118 H5092 0.950 . S
C5118 C5114 1.385 . S
C5118 C5117 1.374 . S
C5119 C5116 1.499 . S
C5119 C5120 1.373 . S
C5119 C5121 1.389 . S
C5120 H5093 0.950 . S
C5120 C5106 1.377 . S
C5120 C5119 1.373 . S
C5121 C5105 1.377 . S
C5121 C5119 1.389 . S
C5121 C5122 1.524 . S
C5122 C5121 1.524 . S
C5122 C5123 1.397 . S
C5122 C5127 1.363 . S
C5123 H5094 0.950 . S
C5123 C5122 1.397 . S
C5123 C5124 1.334 . S
C5124 H5095 0.950 . S
C5124 C5123 1.334 . S
C5124 C5125 1.287 . S
C5125 C5124 1.287 . S
C5125 C5126 1.524 . S
C5125 H5128 0.999 . S
C5126 H5096 0.950 . S
C5126 C5125 1.524 . S
C5126 C5127 1.415 . S
C5127 H5097 0.950 . S
C5127 C5122 1.363 . S
C5127 C5126 1.415 . S
H5128 C5125 0.999 . S
H5129 C5110 0.913 . S
H5130 C5148 0.951 . S
H5131 C5150 0.951 . S
H5132 C5152 0.950 . S
H5133 C5153 0.950 . S
H5134 C5155 0.950 . S
H5135 C5158 0.950 . S
H5136 C5159 0.950 . S
H5137 C5161 0.950 . S
H5138 C5162 0.950 . S
H5139 C5163 0.951 . S
H5140 C5165 0.951 . S
H5141 C5167 0.950 . S
H5142 C5168 0.950 . S
H5143 C5170 0.950 . S
H5144 C5173 0.950 . S
H5145 C5174 0.950 . S
H5146 C5176 0.950 . S
H5147 C5177 0.950 . S
C5148 H5130 0.951 . S
C5148 C5149 1.366 . S
C5148 C5150 1.388 . S
C5149 C5148 1.366 . S
C5149 C5153 1.385 . S
C5150 H5131 0.951 . S
C5150 C5148 1.388 . S
C5150 C5151 1.366 . S
C5151 C5150 1.366 . S
C5151 C5152 1.414 . S
C5151 C5154 1.499 . S
C5152 H5132 0.950 . S
C5152 C5151 1.414 . S
C5152 C5153 1.374 . S
C5153 H5133 0.950 . S
C5153 C5149 1.385 . S
C5153 C5152 1.374 . S
C5154 C5151 1.499 . S
C5154 C5155 1.373 . S
C5154 C5156 1.389 . S
C5155 H5134 0.950 . S
C5155 C5154 1.373 . S
C5155 C5171 1.377 . S
C5156 C5154 1.389 . S
C5156 C5157 1.524 . S
C5156 C5170 1.377 . S
C5157 C5156 1.524 . S
C5157 C5158 1.397 . S
C5157 C5162 1.363 . S
C5158 H5135 0.950 . S
C5158 C5157 1.397 . S
C5158 C5159 1.334 . S
C5159 H5136 0.950 . S
C5159 C5158 1.334 . S
C5159 C5160 1.287 . S
C5160 C5159 1.287 . S
C5160 C5161 1.524 . S
C5160 H5179 0.913 . S
C5161 H5137 0.950 . S
C5161 C5160 1.524 . S
C5161 C5162 1.415 . S
C5162 H5138 0.950 . S
C5162 C5157 1.363 . S
C5162 C5161 1.415 . S
C5163 H5139 0.951 . S
C5163 C5164 1.366 . S
C5163 C5165 1.388 . S
C5164 C5163 1.366 . S
C5164 C5168 1.385 . S
C5165 H5140 0.951 . S
C5165 C5163 1.388 . S
C5165 C5166 1.366 . S
C5166 C5165 1.366 . S
C5166 C5167 1.414 . S
C5166 C5169 1.499 . S
C5167 H5141 0.950 . S
C5167 C5166 1.414 . S
C5167 C5168 1.374 . S
C5168 H5142 0.950 . S
C5168 C5164 1.385 . S
C5168 C5167 1.374 . S
C5169 C5166 1.499 . S
C5169 C5170 1.373 . S
C5169 C5171 1.389 . S
C5170 H5143 0.950 . S
C5170 C5156 1.377 . S
C5170 C5169 1.373 . S
C5171 C5155 1.377 . S
C5171 C5169 1.389 . S
C5171 C5172 1.524 . S
C5172 C5171 1.524 . S
C5172 C5173 1.397 . S
C5172 C5177 1.363 . S
C5173 H5144 0.950 . S
C5173 C5172 1.397 . S
C5173 C5174 1.334 . S
C5174 H5145 0.950 . S
C5174 C5173 1.334 . S
C5174 C5175 1.287 . S
C5175 C5174 1.287 . S
C5175 C5176 1.524 . S
C5175 H5178 0.999 . S
C5176 H5146 0.950 . S
C5176 C5175 1.524 . S
C5176 C5177 1.415 . S
C5177 H5147 0.950 . S
C5177 C5172 1.363 . S
C5177 C5176 1.415 . S
H5178 C5175 0.999 . S
H5179 C5160 0.913 . S
H5180 C5198 0.951 . S
H5181 C5200 0.951 . S
H5182 C5202 0.950 . S
H5183 C5203 0.950 . S
H5184 C5205 0.950 . S
H5185 C5208 0.950 . S
H5186 C5209 0.950 . S
H5187 C5211 0.950 . S
H5188 C5212 0.950 . S
H5189 C5213 0.951 . S
H5190 C5215 0.951 . S
H5191 C5217 0.950 . S
H5192 C5218 0.950 . S
H5193 C5220 0.950 . S
H5194 C5223 0.950 . S
H5195 C5224 0.950 . S
H5196 C5226 0.950 . S
H5197 C5227 0.950 . S
C5198 H5180 0.951 . S
C5198 C5199 1.366 . S
C5198 C5200 1.388 . S
C5199 C5198 1.366 . S
C5199 C5203 1.385 . S
C5200 H5181 0.951 . S
C5200 C5198 1.388 . S
C5200 C5201 1.366 . S
C5201 C5200 1.366 . S
C5201 C5202 1.414 . S
C5201 C5204 1.499 . S
C5202 H5182 0.950 . S
C5202 C5201 1.414 . S
C5202 C5203 1.374 . S
C5203 H5183 0.950 . S
C5203 C5199 1.385 . S
C5203 C5202 1.374 . S
C5204 C5201 1.499 . S
C5204 C5205 1.373 . S
C5204 C5206 1.389 . S
C5205 H5184 0.950 . S
C5205 C5204 1.373 . S
C5205 C5221 1.377 . S
C5206 C5204 1.389 . S
C5206 C5207 1.524 . S
C5206 C5220 1.377 . S
C5207 C5206 1.524 . S
C5207 C5208 1.397 . S
C5207 C5212 1.363 . S
C5208 H5185 0.950 . S
C5208 C5207 1.397 . S
C5208 C5209 1.334 . S
C5209 H5186 0.950 . S
C5209 C5208 1.334 . S
C5209 C5210 1.287 . S
C5210 C5209 1.287 . S
C5210 C5211 1.524 . S
C5210 H5229 0.913 . S
C5211 H5187 0.950 . S
C5211 C5210 1.524 . S
C5211 C5212 1.415 . S
C5212 H5188 0.950 . S
C5212 C5207 1.363 . S
C5212 C5211 1.415 . S
C5213 H5189 0.951 . S
C5213 C5214 1.366 . S
C5213 C5215 1.388 . S
C5214 C5213 1.366 . S
C5214 C5218 1.385 . S
C5215 H5190 0.951 . S
C5215 C5213 1.388 . S
C5215 C5216 1.366 . S
C5216 C5215 1.366 . S
C5216 C5217 1.414 . S
C5216 C5219 1.499 . S
C5217 H5191 0.950 . S
C5217 C5216 1.414 . S
C5217 C5218 1.374 . S
C5218 H5192 0.950 . S
C5218 C5214 1.385 . S
C5218 C5217 1.374 . S
C5219 C5216 1.499 . S
C5219 C5220 1.373 . S
C5219 C5221 1.389 . S
C5220 H5193 0.950 . S
C5220 C5206 1.377 . S
C5220 C5219 1.373 . S
C5221 C5205 1.377 . S
C5221 C5219 1.389 . S
C5221 C5222 1.524 . S
C5222 C5221 1.524 . S
C5222 C5223 1.397 . S
C5222 C5227 1.363 . S
C5223 H5194 0.950 . S
C5223 C5222 1.397 . S
C5223 C5224 1.334 . S
C5224 H5195 0.950 . S
C5224 C5223 1.334 . S
C5224 C5225 1.287 . S
C5225 C5224 1.287 . S
C5225 C5226 1.524 . S
C5225 H5228 0.999 . S
C5226 H5196 0.950 . S
C5226 C5225 1.524 . S
C5226 C5227 1.415 . S
C5227 H5197 0.950 . S
C5227 C5222 1.363 . S
C5227 C5226 1.415 . S
H5228 C5225 0.999 . S
H5229 C5210 0.913 . S
H5230 C5248 0.951 . S
H5231 C5250 0.951 . S
H5232 C5252 0.950 . S
H5233 C5253 0.950 1_655 S
H5234 C5255 0.950 . S
H5235 C5258 0.950 . S
H5236 C5259 0.950 . S
H5237 C5261 0.950 . S
H5238 C5262 0.950 . S
H5239 C5263 0.951 . S
H5240 C5265 0.951 . S
H5241 C5267 0.950 . S
H5242 C5268 0.950 . S
H5243 C5270 0.950 . S
H5244 C5273 0.950 . S
H5245 C5274 0.950 . S
H5246 C5276 0.950 . S
H5247 C5277 0.950 . S
C5248 H5230 0.951 . S
C5248 C5249 1.366 . S
C5248 C5250 1.388 . S
C5249 C5248 1.366 . S
C5249 C5253 1.385 . S
C5250 H5231 0.951 . S
C5250 C5248 1.388 . S
C5250 C5251 1.366 . S
C5251 C5250 1.366 . S
C5251 C5252 1.414 . S
C5251 C5254 1.499 . S
C5252 H5232 0.950 . S
C5252 C5251 1.414 . S
C5252 C5253 1.374 . S
C5253 H5233 0.950 1_455 S
C5253 C5249 1.385 . S
C5253 C5252 1.374 . S
C5254 C5251 1.499 . S
C5254 C5255 1.373 . S
C5254 C5256 1.389 . S
C5255 H5234 0.950 . S
C5255 C5254 1.373 . S
C5255 C5271 1.377 . S
C5256 C5254 1.389 . S
C5256 C5257 1.524 . S
C5256 C5270 1.377 . S
C5257 C5256 1.524 . S
C5257 C5258 1.397 . S
C5257 C5262 1.363 . S
C5258 H5235 0.950 . S
C5258 C5257 1.397 . S
C5258 C5259 1.334 . S
C5259 H5236 0.950 . S
C5259 C5258 1.334 . S
C5259 C5260 1.287 . S
C5260 C5259 1.287 . S
C5260 C5261 1.524 . S
C5260 H5279 0.913 . S
C5261 H5237 0.950 . S
C5261 C5260 1.524 . S
C5261 C5262 1.415 . S
C5262 H5238 0.950 . S
C5262 C5257 1.363 . S
C5262 C5261 1.415 . S
C5263 H5239 0.951 . S
C5263 C5264 1.366 . S
C5263 C5265 1.388 . S
C5264 C5263 1.366 . S
C5264 C5268 1.385 . S
C5265 H5240 0.951 . S
C5265 C5263 1.388 . S
C5265 C5266 1.366 . S
C5266 C5265 1.366 . S
C5266 C5267 1.414 . S
C5266 C5269 1.499 . S
C5267 H5241 0.950 . S
C5267 C5266 1.414 . S
C5267 C5268 1.374 . S
C5268 H5242 0.950 . S
C5268 C5264 1.385 . S
C5268 C5267 1.374 . S
C5269 C5266 1.499 . S
C5269 C5270 1.373 . S
C5269 C5271 1.389 . S
C5270 H5243 0.950 . S
C5270 C5256 1.377 . S
C5270 C5269 1.373 . S
C5271 C5255 1.377 . S
C5271 C5269 1.389 . S
C5271 C5272 1.524 . S
C5272 C5271 1.524 . S
C5272 C5273 1.397 . S
C5272 C5277 1.363 . S
C5273 H5244 0.950 . S
C5273 C5272 1.397 . S
C5273 C5274 1.334 . S
C5274 H5245 0.950 . S
C5274 C5273 1.334 . S
C5274 C5275 1.287 . S
C5275 C5274 1.287 . S
C5275 C5276 1.524 . S
C5275 H5278 0.999 . S
C5276 H5246 0.950 . S
C5276 C5275 1.524 . S
C5276 C5277 1.415 . S
C5277 H5247 0.950 . S
C5277 C5272 1.363 . S
C5277 C5276 1.415 . S
H5278 C5275 0.999 . S
H5279 C5260 0.913 . S
H5280 C5298 0.951 . S
H5281 C5300 0.951 . S
H5282 C5302 0.950 . S
H5283 C5303 0.950 . S
H5284 C5305 0.950 . S
H5285 C5308 0.950 . S
H5286 C5309 0.950 . S
H5287 C5311 0.950 . S
H5288 C5312 0.950 . S
H5289 C5313 0.951 . S
H5290 C5315 0.951 . S
H5291 C5317 0.950 . S
H5292 C5318 0.950 . S
H5293 C5320 0.950 . S
H5294 C5323 0.950 . S
H5295 C5324 0.950 . S
H5296 C5326 0.950 . S
H5297 C5327 0.950 . S
C5298 H5280 0.951 . S
C5298 C5299 1.366 . S
C5298 C5300 1.388 . S
C5299 C5298 1.366 . S
C5299 C5303 1.385 . S
C5300 H5281 0.951 . S
C5300 C5298 1.388 . S
C5300 C5301 1.366 . S
C5301 C5300 1.366 . S
C5301 C5302 1.414 . S
C5301 C5304 1.499 . S
C5302 H5282 0.950 . S
C5302 C5301 1.414 . S
C5302 C5303 1.374 . S
C5303 H5283 0.950 . S
C5303 C5299 1.385 . S
C5303 C5302 1.374 . S
C5304 C5301 1.499 . S
C5304 C5305 1.373 . S
C5304 C5306 1.389 . S
C5305 H5284 0.950 . S
C5305 C5304 1.373 . S
C5305 C5321 1.377 . S
C5306 C5304 1.389 . S
C5306 C5307 1.524 . S
C5306 C5320 1.377 . S
C5307 C5306 1.524 . S
C5307 C5308 1.397 . S
C5307 C5312 1.363 . S
C5308 H5285 0.950 . S
C5308 C5307 1.397 . S
C5308 C5309 1.334 . S
C5309 H5286 0.950 . S
C5309 C5308 1.334 . S
C5309 C5310 1.287 . S
C5310 C5309 1.287 . S
C5310 C5311 1.524 . S
C5310 H5329 0.913 . S
C5311 H5287 0.950 . S
C5311 C5310 1.524 . S
C5311 C5312 1.415 . S
C5312 H5288 0.950 . S
C5312 C5307 1.363 . S
C5312 C5311 1.415 . S
C5313 H5289 0.951 . S
C5313 C5314 1.366 . S
C5313 C5315 1.388 . S
C5314 C5313 1.366 . S
C5314 C5318 1.385 . S
C5315 H5290 0.951 . S
C5315 C5313 1.388 . S
C5315 C5316 1.366 . S
C5316 C5315 1.366 . S
C5316 C5317 1.414 . S
C5316 C5319 1.499 . S
C5317 H5291 0.950 . S
C5317 C5316 1.414 . S
C5317 C5318 1.374 . S
C5318 H5292 0.950 . S
C5318 C5314 1.385 . S
C5318 C5317 1.374 . S
C5319 C5316 1.499 . S
C5319 C5320 1.373 . S
C5319 C5321 1.389 . S
C5320 H5293 0.950 . S
C5320 C5306 1.377 . S
C5320 C5319 1.373 . S
C5321 C5305 1.377 . S
C5321 C5319 1.389 . S
C5321 C5322 1.524 . S
C5322 C5321 1.524 . S
C5322 C5323 1.397 . S
C5322 C5327 1.363 . S
C5323 H5294 0.950 . S
C5323 C5322 1.397 . S
C5323 C5324 1.334 . S
C5324 H5295 0.950 . S
C5324 C5323 1.334 . S
C5324 C5325 1.287 . S
C5325 C5324 1.287 . S
C5325 C5326 1.524 . S
C5325 H5328 0.999 . S
C5326 H5296 0.950 . S
C5326 C5325 1.524 . S
C5326 C5327 1.415 . S
C5327 H5297 0.950 . S
C5327 C5322 1.363 . S
C5327 C5326 1.415 . S
H5328 C5325 0.999 . S
H5329 C5310 0.913 . S
H5330 C5348 0.951 . S
H5331 C5350 0.951 . S
H5332 C5352 0.950 . S
H5333 C5353 0.950 1_545 S
H5334 C5355 0.950 . S
H5335 C5358 0.950 . S
H5336 C5359 0.950 . S
H5337 C5361 0.950 . S
H5338 C5362 0.950 . S
H5339 C5363 0.951 . S
H5340 C5365 0.951 . S
H5341 C5367 0.950 . S
H5342 C5368 0.950 . S
H5343 C5370 0.950 . S
H5344 C5373 0.950 . S
H5345 C5374 0.950 . S
H5346 C5376 0.950 . S
H5347 C5377 0.950 . S
C5348 H5330 0.951 . S
C5348 C5349 1.366 . S
C5348 C5350 1.388 . S
C5349 C5348 1.366 . S
C5349 C5353 1.385 . S
C5350 H5331 0.951 . S
C5350 C5348 1.388 . S
C5350 C5351 1.366 . S
C5351 C5350 1.366 . S
C5351 C5352 1.414 . S
C5351 C5354 1.499 . S
C5352 H5332 0.950 . S
C5352 C5351 1.414 . S
C5352 C5353 1.374 . S
C5353 H5333 0.950 1_565 S
C5353 C5349 1.385 . S
C5353 C5352 1.374 . S
C5354 C5351 1.499 . S
C5354 C5355 1.373 . S
C5354 C5356 1.389 . S
C5355 H5334 0.950 . S
C5355 C5354 1.373 . S
C5355 C5371 1.377 . S
C5356 C5354 1.389 . S
C5356 C5357 1.524 . S
C5356 C5370 1.377 . S
C5357 C5356 1.524 . S
C5357 C5358 1.397 . S
C5357 C5362 1.363 . S
C5358 H5335 0.950 . S
C5358 C5357 1.397 . S
C5358 C5359 1.334 . S
C5359 H5336 0.950 . S
C5359 C5358 1.334 . S
C5359 C5360 1.287 . S
C5360 C5359 1.287 . S
C5360 C5361 1.524 . S
C5360 H5379 0.913 . S
C5361 H5337 0.950 . S
C5361 C5360 1.524 . S
C5361 C5362 1.415 . S
C5362 H5338 0.950 . S
C5362 C5357 1.363 . S
C5362 C5361 1.415 . S
C5363 H5339 0.951 . S
C5363 C5364 1.366 . S
C5363 C5365 1.388 . S
C5364 C5363 1.366 . S
C5364 C5368 1.385 . S
C5365 H5340 0.951 . S
C5365 C5363 1.388 . S
C5365 C5366 1.366 . S
C5366 C5365 1.366 . S
C5366 C5367 1.414 . S
C5366 C5369 1.499 . S
C5367 H5341 0.950 . S
C5367 C5366 1.414 . S
C5367 C5368 1.374 . S
C5368 H5342 0.950 . S
C5368 C5364 1.385 . S
C5368 C5367 1.374 . S
C5369 C5366 1.499 . S
C5369 C5370 1.373 . S
C5369 C5371 1.389 . S
C5370 H5343 0.950 . S
C5370 C5356 1.377 . S
C5370 C5369 1.373 . S
C5371 C5355 1.377 . S
C5371 C5369 1.389 . S
C5371 C5372 1.524 . S
C5372 C5371 1.524 . S
C5372 C5373 1.397 . S
C5372 C5377 1.363 . S
C5373 H5344 0.950 . S
C5373 C5372 1.397 . S
C5373 C5374 1.334 . S
C5374 H5345 0.950 . S
C5374 C5373 1.334 . S
C5374 C5375 1.287 . S
C5375 C5374 1.287 . S
C5375 C5376 1.524 . S
C5375 H5378 0.999 . S
C5376 H5346 0.950 . S
C5376 C5375 1.524 . S
C5376 C5377 1.415 . S
C5377 H5347 0.950 . S
C5377 C5372 1.363 . S
C5377 C5376 1.415 . S
H5378 C5375 0.999 . S
H5379 C5360 0.913 . S
H5380 C5398 0.951 . S
H5381 C5400 0.951 . S
H5382 C5402 0.950 . S
H5383 C5403 0.950 1_655 S
H5384 C5405 0.950 . S
H5385 C5408 0.950 . S
H5386 C5409 0.950 . S
H5387 C5411 0.950 . S
H5388 C5412 0.950 . S
H5389 C5413 0.951 . S
H5390 C5415 0.951 . S
H5391 C5417 0.950 . S
H5392 C5418 0.950 . S
H5393 C5420 0.950 . S
H5394 C5423 0.950 . S
H5395 C5424 0.950 . S
H5396 C5426 0.950 . S
H5397 C5427 0.950 . S
C5398 H5380 0.951 . S
C5398 C5399 1.366 . S
C5398 C5400 1.388 . S
C5399 C5398 1.366 . S
C5399 C5403 1.385 . S
C5400 H5381 0.951 . S
C5400 C5398 1.388 . S
C5400 C5401 1.366 . S
C5401 C5400 1.366 . S
C5401 C5402 1.414 . S
C5401 C5404 1.499 . S
C5402 H5382 0.950 . S
C5402 C5401 1.414 . S
C5402 C5403 1.374 . S
C5403 H5383 0.950 1_455 S
C5403 C5399 1.385 . S
C5403 C5402 1.374 . S
C5404 C5401 1.499 . S
C5404 C5405 1.373 . S
C5404 C5406 1.389 . S
C5405 H5384 0.950 . S
C5405 C5404 1.373 . S
C5405 C5421 1.377 . S
C5406 C5404 1.389 . S
C5406 C5407 1.524 . S
C5406 C5420 1.377 . S
C5407 C5406 1.524 . S
C5407 C5408 1.397 . S
C5407 C5412 1.363 . S
C5408 H5385 0.950 . S
C5408 C5407 1.397 . S
C5408 C5409 1.334 . S
C5409 H5386 0.950 . S
C5409 C5408 1.334 . S
C5409 C5410 1.287 . S
C5410 C5409 1.287 . S
C5410 C5411 1.524 . S
C5410 H5429 0.913 . S
C5411 H5387 0.950 . S
C5411 C5410 1.524 . S
C5411 C5412 1.415 . S
C5412 H5388 0.950 . S
C5412 C5407 1.363 . S
C5412 C5411 1.415 . S
C5413 H5389 0.951 . S
C5413 C5414 1.366 . S
C5413 C5415 1.388 . S
C5414 C5413 1.366 . S
C5414 C5418 1.385 . S
C5415 H5390 0.951 . S
C5415 C5413 1.388 . S
C5415 C5416 1.366 . S
C5416 C5415 1.366 . S
C5416 C5417 1.414 . S
C5416 C5419 1.499 . S
C5417 H5391 0.950 . S
C5417 C5416 1.414 . S
C5417 C5418 1.374 . S
C5418 H5392 0.950 . S
C5418 C5414 1.385 . S
C5418 C5417 1.374 . S
C5419 C5416 1.499 . S
C5419 C5420 1.373 . S
C5419 C5421 1.389 . S
C5420 H5393 0.950 . S
C5420 C5406 1.377 . S
C5420 C5419 1.373 . S
C5421 C5405 1.377 . S
C5421 C5419 1.389 . S
C5421 C5422 1.524 . S
C5422 C5421 1.524 . S
C5422 C5423 1.397 . S
C5422 C5427 1.363 . S
C5423 H5394 0.950 . S
C5423 C5422 1.397 . S
C5423 C5424 1.334 . S
C5424 H5395 0.950 . S
C5424 C5423 1.334 . S
C5424 C5425 1.287 . S
C5425 C5424 1.287 . S
C5425 C5426 1.524 . S
C5425 H5428 0.999 . S
C5426 H5396 0.950 . S
C5426 C5425 1.524 . S
C5426 C5427 1.415 . S
C5427 H5397 0.950 . S
C5427 C5422 1.363 . S
C5427 C5426 1.415 . S
H5428 C5425 0.999 . S
H5429 C5410 0.913 . S
H5430 C5448 0.951 . S
H5431 C5450 0.951 . S
H5432 C5452 0.950 . S
H5433 C5453 0.950 . S
H5434 C5455 0.950 . S
H5435 C5458 0.950 . S
H5436 C5459 0.950 . S
H5437 C5461 0.950 . S
H5438 C5462 0.950 . S
H5439 C5463 0.951 . S
H5440 C5465 0.951 . S
H5441 C5467 0.950 . S
H5442 C5468 0.950 . S
H5443 C5470 0.950 . S
H5444 C5473 0.950 . S
H5445 C5474 0.950 . S
H5446 C5476 0.950 . S
H5447 C5477 0.950 . S
C5448 H5430 0.951 . S
C5448 C5449 1.366 . S
C5448 C5450 1.388 . S
C5449 C5448 1.366 . S
C5449 C5453 1.385 . S
C5450 H5431 0.951 . S
C5450 C5448 1.388 . S
C5450 C5451 1.366 . S
C5451 C5450 1.366 . S
C5451 C5452 1.414 . S
C5451 C5454 1.499 . S
C5452 H5432 0.950 . S
C5452 C5451 1.414 . S
C5452 C5453 1.374 . S
C5453 H5433 0.950 . S
C5453 C5449 1.385 . S
C5453 C5452 1.374 . S
C5454 C5451 1.499 . S
C5454 C5455 1.373 . S
C5454 C5456 1.389 . S
C5455 H5434 0.950 . S
C5455 C5454 1.373 . S
C5455 C5471 1.377 . S
C5456 C5454 1.389 . S
C5456 C5457 1.524 . S
C5456 C5470 1.377 . S
C5457 C5456 1.524 . S
C5457 C5458 1.397 . S
C5457 C5462 1.363 . S
C5458 H5435 0.950 . S
C5458 C5457 1.397 . S
C5458 C5459 1.334 . S
C5459 H5436 0.950 . S
C5459 C5458 1.334 . S
C5459 C5460 1.287 . S
C5460 C5459 1.287 . S
C5460 C5461 1.524 . S
C5460 H5479 0.913 . S
C5461 H5437 0.950 . S
C5461 C5460 1.524 . S
C5461 C5462 1.415 . S
C5462 H5438 0.950 . S
C5462 C5457 1.363 . S
C5462 C5461 1.415 . S
C5463 H5439 0.951 . S
C5463 C5464 1.366 1_455 S
C5463 C5465 1.388 . S
C5464 C5463 1.366 1_655 S
C5464 C5468 1.385 . S
C5465 H5440 0.951 . S
C5465 C5463 1.388 . S
C5465 C5466 1.366 1_455 S
C5466 C5465 1.366 1_655 S
C5466 C5467 1.414 . S
C5466 C5469 1.499 . S
C5467 H5441 0.950 . S
C5467 C5466 1.414 . S
C5467 C5468 1.374 . S
C5468 H5442 0.950 . S
C5468 C5464 1.385 . S
C5468 C5467 1.374 . S
C5469 C5466 1.499 . S
C5469 C5470 1.373 . S
C5469 C5471 1.389 . S
C5470 H5443 0.950 . S
C5470 C5456 1.377 . S
C5470 C5469 1.373 . S
C5471 C5455 1.377 . S
C5471 C5469 1.389 . S
C5471 C5472 1.524 . S
C5472 C5471 1.524 . S
C5472 C5473 1.397 . S
C5472 C5477 1.363 1_655 S
C5473 H5444 0.950 . S
C5473 C5472 1.397 . S
C5473 C5474 1.334 . S
C5474 H5445 0.950 . S
C5474 C5473 1.334 . S
C5474 C5475 1.287 1_655 S
C5475 C5474 1.287 1_455 S
C5475 C5476 1.524 . S
C5475 H5478 0.999 . S
C5476 H5446 0.950 . S
C5476 C5475 1.524 . S
C5476 C5477 1.415 . S
C5477 H5447 0.950 . S
C5477 C5472 1.363 1_455 S
C5477 C5476 1.415 . S
H5478 C5475 0.999 . S
H5479 C5460 0.913 . S
H5480 C5498 0.951 . S
H5481 C5500 0.951 . S
H5482 C5502 0.950 . S
H5483 C5503 0.950 . S
H5484 C5505 0.950 . S
H5485 C5508 0.950 . S
H5486 C5509 0.950 . S
H5487 C5511 0.950 . S
H5488 C5512 0.950 . S
H5489 C5513 0.951 . S
H5490 C5515 0.951 . S
H5491 C5517 0.950 . S
H5492 C5518 0.950 . S
H5493 C5520 0.950 . S
H5494 C5523 0.950 . S
H5495 C5524 0.950 . S
H5496 C5526 0.950 . S
H5497 C5527 0.950 . S
C5498 H5480 0.951 . S
C5498 C5499 1.366 . S
C5498 C5500 1.388 . S
C5499 C5498 1.366 . S
C5499 C5503 1.385 . S
C5500 H5481 0.951 . S
C5500 C5498 1.388 . S
C5500 C5501 1.366 . S
C5501 C5500 1.366 . S
C5501 C5502 1.414 . S
C5501 C5504 1.499 . S
C5502 H5482 0.950 . S
C5502 C5501 1.414 . S
C5502 C5503 1.374 . S
C5503 H5483 0.950 . S
C5503 C5499 1.385 . S
C5503 C5502 1.374 . S
C5504 C5501 1.499 . S
C5504 C5505 1.373 . S
C5504 C5506 1.389 . S
C5505 H5484 0.950 . S
C5505 C5504 1.373 . S
C5505 C5521 1.377 . S
C5506 C5504 1.389 . S
C5506 C5507 1.524 . S
C5506 C5520 1.377 . S
C5507 C5506 1.524 . S
C5507 C5508 1.397 . S
C5507 C5512 1.363 . S
C5508 H5485 0.950 . S
C5508 C5507 1.397 . S
C5508 C5509 1.334 . S
C5509 H5486 0.950 . S
C5509 C5508 1.334 . S
C5509 C5510 1.287 . S
C5510 C5509 1.287 . S
C5510 C5511 1.524 . S
C5510 H5529 0.913 . S
C5511 H5487 0.950 . S
C5511 C5510 1.524 . S
C5511 C5512 1.415 . S
C5512 H5488 0.950 . S
C5512 C5507 1.363 . S
C5512 C5511 1.415 . S
C5513 H5489 0.951 . S
C5513 C5514 1.366 . S
C5513 C5515 1.388 . S
C5514 C5513 1.366 . S
C5514 C5518 1.385 . S
C5515 H5490 0.951 . S
C5515 C5513 1.388 . S
C5515 C5516 1.366 . S
C5516 C5515 1.366 . S
C5516 C5517 1.414 . S
C5516 C5519 1.499 . S
C5517 H5491 0.950 . S
C5517 C5516 1.414 . S
C5517 C5518 1.374 . S
C5518 H5492 0.950 . S
C5518 C5514 1.385 . S
C5518 C5517 1.374 . S
C5519 C5516 1.499 . S
C5519 C5520 1.373 . S
C5519 C5521 1.389 . S
C5520 H5493 0.950 . S
C5520 C5506 1.377 . S
C5520 C5519 1.373 . S
C5521 C5505 1.377 . S
C5521 C5519 1.389 . S
C5521 C5522 1.524 . S
C5522 C5521 1.524 . S
C5522 C5523 1.397 . S
C5522 C5527 1.363 . S
C5523 H5494 0.950 . S
C5523 C5522 1.397 . S
C5523 C5524 1.334 . S
C5524 H5495 0.950 . S
C5524 C5523 1.334 . S
C5524 C5525 1.287 . S
C5525 C5524 1.287 . S
C5525 C5526 1.524 . S
C5525 H5528 0.999 . S
C5526 H5496 0.950 . S
C5526 C5525 1.524 . S
C5526 C5527 1.415 . S
C5527 H5497 0.950 . S
C5527 C5522 1.363 . S
C5527 C5526 1.415 . S
H5528 C5525 0.999 . S
H5529 C5510 0.913 . S
H5530 C5548 0.951 . S
H5531 C5550 0.951 . S
H5532 C5552 0.950 . S
H5533 C5553 0.950 . S
H5534 C5555 0.956 1_565 S
H5535 C5558 0.950 . S
H5536 C5559 0.950 . S
H5537 C5561 0.950 . S
H5538 C5562 0.950 . S
H5539 C5563 0.962 . S
H5540 C5565 0.951 . S
H5541 C5567 0.950 . S
H5542 C5568 0.950 . S
H5543 C5570 0.950 . S
H5544 C5573 0.950 . S
H5545 C5574 0.950 . S
H5546 C5576 0.950 . S
H5547 C5577 0.950 . S
C5548 H5530 0.951 . S
C5548 C5549 1.366 . S
C5548 C5550 1.388 . S
C5549 C5548 1.366 . S
C5549 C5553 1.385 . S
C5550 H5531 0.951 . S
C5550 C5548 1.388 . S
C5550 C5551 1.366 . S
C5551 C5550 1.366 . S
C5551 C5552 1.414 . S
C5551 C5554 1.499 . S
C5552 H5532 0.950 . S
C5552 C5551 1.414 . S
C5552 C5553 1.374 . S
C5553 H5533 0.950 . S
C5553 C5549 1.385 . S
C5553 C5552 1.374 . S
C5554 C5551 1.499 . S
C5554 C5555 1.373 . S
C5554 C5556 1.389 . S
C5555 H5534 0.956 1_545 S
C5555 C5554 1.373 . S
C5555 C5571 1.377 . S
C5556 C5554 1.389 . S
C5556 C5557 1.524 . S
C5556 C5570 1.377 . S
C5557 C5556 1.524 . S
C5557 C5558 1.397 . S
C5557 C5562 1.363 . S
C5558 H5535 0.950 . S
C5558 C5557 1.397 . S
C5558 C5559 1.334 . S
C5559 H5536 0.950 . S
C5559 C5558 1.334 . S
C5559 C5560 1.287 . S
C5560 C5559 1.287 . S
C5560 C5561 1.524 . S
C5560 H5579 0.913 . S
C5561 H5537 0.950 . S
C5561 C5560 1.524 . S
C5561 C5562 1.415 . S
C5562 H5538 0.950 . S
C5562 C5557 1.363 . S
C5562 C5561 1.415 . S
C5563 H5539 0.962 . S
C5563 C5564 1.351 1_565 S
C5563 C5565 1.393 1_565 S
C5564 C5563 1.351 1_545 S
C5564 C5568 1.385 . S
C5565 H5540 0.951 . S
C5565 C5563 1.393 1_545 S
C5565 C5566 1.366 . S
C5566 C5565 1.366 . S
C5566 C5567 1.414 . S
C5566 C5569 1.499 . S
C5567 H5541 0.950 . S
C5567 C5566 1.414 . S
C5567 C5568 1.374 . S
C5568 H5542 0.950 . S
C5568 C5564 1.385 . S
C5568 C5567 1.374 . S
C5569 C5566 1.499 . S
C5569 C5570 1.373 . S
C5569 C5571 1.389 . S
C5570 H5543 0.950 . S
C5570 C5556 1.377 . S
C5570 C5569 1.373 . S
C5571 C5555 1.377 . S
C5571 C5569 1.389 . S
C5571 C5572 1.524 1_545 S
C5572 C5571 1.524 1_565 S
C5572 C5573 1.397 . S
C5572 C5577 1.363 . S
C5573 H5544 0.950 . S
C5573 C5572 1.397 . S
C5573 C5574 1.334 . S
C5574 H5545 0.950 . S
C5574 C5573 1.334 . S
C5574 C5575 1.287 . S
C5575 C5574 1.287 . S
C5575 C5576 1.524 . S
C5575 H5578 0.999 . S
C5576 H5546 0.950 . S
C5576 C5575 1.524 . S
C5576 C5577 1.415 . S
C5577 H5547 0.950 . S
C5577 C5572 1.363 . S
C5577 C5576 1.415 . S
H5578 C5575 0.999 . S
H5579 C5560 0.913 . S
C1999 C4 1.034 1_655 S
C2014 C1377 1.045 . S
C2049 C38 1.721 . S
C2064 C1457 1.686 . S
C2114 C1525 1.234 . S
C2099 C74 1.246 . S
C2149 C76 1.660 . S
C2164 C1605 1.664 . S
C2199 C2 1.519 1_556 S
C2214 C1679 1.548 . S
C2249 C40 1.561 . S
C2264 C1747 1.492 . S
C2299 C110 1.031 . S
C2314 C1673 1.019 . S
C2364 C1753 1.418 . S
C2349 C148 1.411 . S
C2414 C1599 1.289 . S
C2399 C182 1.289 . S
C2449 C184 1.684 . S
C2464 C1531 1.734 1_545 S
C2514 C1383 1.430 . S
C2499 C112 1.409 . S
C2549 C146 1.472 . S
C2564 C1451 1.462 . S
C2599 C220 1.386 . S
C2614 C1821 1.305 . S
C2649 C254 1.770 . S
C2664 C1901 1.719 . S
C2714 C1969 1.499 . S
C2699 C290 1.576 . S
C2749 C292 1.836 . S
C2764 C717 1.795 . S
C2799 C218 1.802 . S
C2814 C791 1.761 . S
C2849 C256 1.578 . S
C2864 C859 1.506 . S
C2899 C326 1.151 . S
C2914 C785 1.129 . S
C2949 C364 1.496 . S
C2964 C865 1.499 . S
C3014 C711 1.469 . S
C2999 C398 1.474 . S
C3064 C1975 1.904 . S
C3049 C400 1.898 . S
C3114 C1827 1.458 . S
C3099 C328 1.459 . S
C3164 C1895 1.516 . S
C3149 C362 1.531 . S
C3199 C436 1.268 . S
C3214 C933 1.195 . S
C3249 C470 1.790 . S
C3264 C1013 1.743 . S
C3299 C506 1.607 . S
C3314 C1081 1.537 . S
C3349 C508 1.954 . S
C3364 C1161 1.908 . S
C3414 C1235 1.727 . S
C3399 C434 1.772 . S
C3464 C1303 1.541 . S
C3449 C472 1.618 . S
C3514 C1229 1.279 . S
C3499 C542 1.305 . S
C3564 C1309 1.464 . S
C3549 C580 1.465 . S
C3599 C614 1.401 . S
C3614 C1155 1.391 . S
C3664 C1087 1.761 . S
C3649 C616 1.755 . S
C3699 C544 1.514 . S
C3714 C939 1.516 . S
C3764 C1007 1.481 . S
C3749 C578 1.489 . S
C3814 C687 2.029 . S
C3799 C14 2.020 . S
C3849 C39 1.463 . S
C3864 C761 1.450 . S
C3914 C847 1.447 . S
C3899 C75 1.456 . S
C3964 C921 1.069 . S
C3949 C86 1.065 . S
C4014 C983 1.632 . S
C3999 C3 1.652 1_556 S
C4064 C1069 1.568 . S
C4049 C50 1.541 . S
C4099 C111 2.158 . S
C4114 C1057 2.078 . S
C4149 C158 1.577 . S
C4164 C909 1.518 . S
C4199 C183 1.795 . S
C4214 C995 1.755 . S
C4249 C194 1.462 . S
C4264 C773 1.412 . S
C4314 C835 1.683 . S
C4299 C122 1.746 . S
C4349 C147 1.662 . S
C4364 C699 1.622 . S
C4414 C1131 1.971 . S
C4399 C230 1.960 . S
C4449 C255 1.647 1_545 S
C4464 C1205 1.632 . S
C4499 C291 1.519 1_655 S
C4514 C1291 1.504 . S
C4564 C1365 0.880 . S
C4549 C302 0.865 . S
C4599 C219 1.557 . S
C4614 C1427 1.540 . S
C4649 C266 1.350 . S
C4664 C1513 1.412 . S
C4699 C327 1.755 . S
C4714 C1501 1.741 . S
C4749 C374 1.287 . S
C4764 C1353 1.292 . S
C4814 C1439 1.687 . S
C4799 C399 1.729 . S
C4849 C410 1.433 . S
C4864 C1217 1.383 . S
C4899 C338 1.795 1_545 S
C4914 C1279 1.752 . S
C4964 C1143 1.755 . S
C4949 C363 1.800 1_655 S
C5014 C1575 1.803 . S
C4999 C446 1.756 . S
C5049 C471 1.259 . S
C5064 C1649 1.252 . S
C5099 C507 1.386 . S
C5114 C1735 1.377 . S
C5164 C1809 1.064 . S
C5149 C518 1.070 . S
C5214 C1871 1.687 . S
C5199 C435 1.704 1_565 S
C5249 C482 1.664 1_455 S
C5264 C1957 1.702 . S
C5299 C543 2.079 . S
C5314 C1945 1.991 . S
C5349 C590 1.742 1_565 S
C5364 C1797 1.692 . S
C5414 C1883 1.791 . S
C5399 C615 1.842 1_455 S
C5464 C1661 1.014 . S
C5449 C626 1.006 . S
C5514 C1723 1.638 . S
C5499 C554 1.686 . S
C5549 C579 1.399 . S
C5564 C1587 1.386 . S
