# Generated by pormake.
# Topology cml, (3,6)-cn, num edge types: 1
# Building blocks:
#     Node 0, Type 0, BuildingBlock: VETTIZ_charged_linker_0, # of connection points: 3
#     Node 1, Type 0, BuildingBlock: VETTIZ_charged_linker_0, # of connection points: 3
#     Node 2, Type 0, BuildingBlock: VETTIZ_charged_linker_0, # of connection points: 3
#     Node 3, Type 0, BuildingBlock: VETTIZ_charged_linker_0, # of connection points: 3
#     Node 4, Type 0, BuildingBlock: VETTIZ_charged_linker_0, # of connection points: 3
#     Node 5, Type 0, BuildingBlock: VETTIZ_charged_linker_0, # of connection points: 3
#     Node 6, Type 0, BuildingBlock: VETTIZ_charged_linker_0, # of connection points: 3
#     Node 7, Type 0, BuildingBlock: VETTIZ_charged_linker_0, # of connection points: 3
#     Node 8, Type 1, BuildingBlock: OJICUG_clean_sbu_0, # of connection points: 6
#     Node 9, Type 1, BuildingBlock: OJICUG_clean_sbu_0, # of connection points: 6
#     Node 10, Type 1, BuildingBlock: OJICUG_clean_sbu_0, # of connection points: 6
#     Node 11, Type 1, BuildingBlock: OJICUG_clean_sbu_0, # of connection points: 6
#     Edge 12, Type (0, 1), BuildingBlock: EYOCIG_clean_linker_4, # of connection points: 2
#     Edge 13, Type (0, 1), BuildingBlock: EYOCIG_clean_linker_4, # of connection points: 2
#     Edge 14, Type (0, 1), BuildingBlock: EYOCIG_clean_linker_4, # of connection points: 2
#     Edge 15, Type (0, 1), BuildingBlock: EYOCIG_clean_linker_4, # of connection points: 2
#     Edge 16, Type (0, 1), BuildingBlock: EYOCIG_clean_linker_4, # of connection points: 2
#     Edge 17, Type (0, 1), BuildingBlock: EYOCIG_clean_linker_4, # of connection points: 2
#     Edge 18, Type (0, 1), BuildingBlock: EYOCIG_clean_linker_4, # of connection points: 2
#     Edge 19, Type (0, 1), BuildingBlock: EYOCIG_clean_linker_4, # of connection points: 2
#     Edge 20, Type (0, 1), BuildingBlock: EYOCIG_clean_linker_4, # of connection points: 2
#     Edge 21, Type (0, 1), BuildingBlock: EYOCIG_clean_linker_4, # of connection points: 2
#     Edge 22, Type (0, 1), BuildingBlock: EYOCIG_clean_linker_4, # of connection points: 2
#     Edge 23, Type (0, 1), BuildingBlock: EYOCIG_clean_linker_4, # of connection points: 2
#     Edge 24, Type (0, 1), BuildingBlock: EYOCIG_clean_linker_4, # of connection points: 2
#     Edge 25, Type (0, 1), BuildingBlock: EYOCIG_clean_linker_4, # of connection points: 2
#     Edge 26, Type (0, 1), BuildingBlock: EYOCIG_clean_linker_4, # of connection points: 2
#     Edge 27, Type (0, 1), BuildingBlock: EYOCIG_clean_linker_4, # of connection points: 2
#     Edge 28, Type (0, 1), BuildingBlock: EYOCIG_clean_linker_4, # of connection points: 2
#     Edge 29, Type (0, 1), BuildingBlock: EYOCIG_clean_linker_4, # of connection points: 2
#     Edge 30, Type (0, 1), BuildingBlock: EYOCIG_clean_linker_4, # of connection points: 2
#     Edge 31, Type (0, 1), BuildingBlock: EYOCIG_clean_linker_4, # of connection points: 2
#     Edge 32, Type (0, 1), BuildingBlock: EYOCIG_clean_linker_4, # of connection points: 2
#     Edge 33, Type (0, 1), BuildingBlock: EYOCIG_clean_linker_4, # of connection points: 2
#     Edge 34, Type (0, 1), BuildingBlock: EYOCIG_clean_linker_4, # of connection points: 2
#     Edge 35, Type (0, 1), BuildingBlock: EYOCIG_clean_linker_4, # of connection points: 2
# Relax obj value: 0.076
# Max RMSD: 0.088
# Mean RMSD: 0.083
data_MOF--net-cml--node1-OJICUG_clean_sbu_0--node2-VETTIZ_charged_linker_0--edge1-EYOCIG_clean_linker_4
_symmetry_space_group_name_H-M    P1
_symmetry_Int_Tables_number       1
_symmetry_cell_setting            triclinic
loop_
_symmetry_equiv_pos_as_xyz
'x, y, z'
_cell_length_a     38.883824
_cell_length_b     39.563567
_cell_length_c     37.315199
_cell_angle_alpha  89.995247
_cell_angle_beta   90.088992
_cell_angle_gamma 89.909923
loop_
_atom_site_label
_atom_site_type_symbol
_atom_site_fract_x
_atom_site_fract_y
_atom_site_fract_z
_atom_type_partial_charge
C0 C 0.30034 0.35536 0.12432 0.0
C1 C 0.32913 0.36992 0.14092 0.0
C2 C 0.34421 0.39893 0.12624 0.0
C3 C 0.30433 0.39693 0.0765 0.0
C4 C 0.28836 0.36934 0.09197 0.0
C5 C 0.25921 0.35637 0.06918 0.0
H6 H 0.16941 0.36508 0.91305 0.0
C7 C 0.28767 0.40371 0.04167 0.0
C8 C 0.26123 0.37999 0.03698 0.0
H9 H 0.15644 0.2937 0.99928 0.0
H10 H 0.20011 0.32233 0.03406 0.0
H11 H 0.1804 0.43353 0.96859 0.0
H12 H 0.25002 0.36584 0.9131 0.0
H13 H 0.26352 0.40766 0.90653 0.0
H14 H 0.22247 0.39448 0.88911 0.0
H15 H 0.18149 0.43085 0.92053 0.0
H16 H 0.21122 0.45707 0.94493 0.0
C17 C 0.2255 0.36148 0.09049 0.0
C18 C 0.26715 0.31912 0.05939 0.0
C19 C 0.33296 0.49888 0.96416 0.0
C20 C 0.32397 0.51103 0.93027 0.0
C21 C 0.29561 0.49721 0.91213 0.0
C22 C 0.27693 0.47046 0.92741 0.0
C23 C 0.28695 0.45753 0.96107 0.0
C24 C 0.31425 0.47221 0.97897 0.0
C25 C 0.32134 0.45588 0.01445 0.0
C26 C 0.29439 0.42824 0.01481 0.0
C27 C 0.27421 0.42931 0.98359 0.0
C28 C 0.31461 0.48276 0.04384 0.0
C29 C 0.35855 0.44168 0.0134 0.0
C30 C 0.17603 0.35597 0.93958 0.0
C31 C 0.16028 0.32716 0.9536 0.0
C32 C 0.16885 0.31583 0.98813 0.0
C33 C 0.19438 0.33235 0.00806 0.0
C34 C 0.2115 0.36026 0.99301 0.0
C35 C 0.20162 0.37206 0.95963 0.0
C36 C 0.22239 0.40191 0.94768 0.0
C37 C 0.24732 0.40549 0.97876 0.0
C38 C 0.24069 0.38113 0.00541 0.0
C39 C 0.19778 0.43258 0.94494 0.0
C40 C 0.24051 0.39237 0.91213 0.0
H41 H 0.34521 0.43428 0.08413 0.0
H42 H 0.28839 0.33297 0.13542 0.0
H43 H 0.29484 0.31597 0.05269 0.0
H44 H 0.25326 0.31015 0.03549 0.0
H45 H 0.26128 0.30205 0.08222 0.0
H46 H 0.22517 0.38683 0.10341 0.0
H47 H 0.22298 0.34218 0.11196 0.0
H48 H 0.20228 0.36088 0.07353 0.0
H49 H 0.35475 0.50935 0.97849 0.0
H50 H 0.28844 0.50653 0.88585 0.0
H51 H 0.25578 0.46069 0.91217 0.0
H52 H 0.29163 0.4983 0.03701 0.0
H53 H 0.33686 0.50014 0.0466 0.0
H54 H 0.3085 0.47181 0.07024 0.0
H55 H 0.36442 0.43085 0.98656 0.0
H56 H 0.363 0.42057 0.03213 0.0
H57 H 0.37764 0.46192 0.01881 0.0
H58 H 0.36634 0.41045 0.13902 0.0
C59 C 0.33199 0.41254 0.09416 0.0
C60 C 0.82759 0.64061 0.44006 0.0
C61 C 0.84334 0.66941 0.45412 0.0
C62 C 0.83478 0.68074 0.48862 0.0
C63 C 0.79212 0.63631 0.49337 0.0
C64 C 0.80201 0.62452 0.46003 0.0
C65 C 0.7812 0.59471 0.44797 0.0
H66 H 0.64847 0.48773 0.47796 0.0
C67 C 0.76293 0.61544 0.50569 0.0
C68 C 0.7563 0.59111 0.47899 0.0
H69 H 0.71462 0.49076 0.38542 0.0
H70 H 0.74776 0.53608 0.41222 0.0
H71 H 0.71206 0.49826 0.53678 0.0
H72 H 0.63907 0.56578 0.48652 0.0
H73 H 0.64073 0.57611 0.53206 0.0
H74 H 0.62597 0.53477 0.51883 0.0
H75 H 0.66682 0.49625 0.54616 0.0
H76 H 0.69508 0.52452 0.5701 0.0
C77 C 0.80579 0.56403 0.44522 0.0
C78 C 0.76308 0.60435 0.41238 0.0
C79 C 0.70311 0.64114 0.62443 0.0
C80 C 0.67435 0.62648 0.64096 0.0
C81 C 0.65938 0.59744 0.62619 0.0
C82 C 0.67166 0.58386 0.59415 0.0
C83 C 0.69927 0.59956 0.57657 0.0
C84 C 0.71516 0.6272 0.5921 0.0
C85 C 0.74433 0.64019 0.56941 0.0
C86 C 0.74238 0.61655 0.5372 0.0
C87 C 0.71597 0.59281 0.54179 0.0
C88 C 0.77803 0.6351 0.59084 0.0
C89 C 0.73639 0.67742 0.55956 0.0
C90 C 0.6703 0.49816 0.46373 0.0
C91 C 0.6791 0.48624 0.42974 0.0
C92 C 0.70756 0.49995 0.41176 0.0
C93 C 0.7265 0.52641 0.42732 0.0
C94 C 0.7166 0.5392 0.46104 0.0
C95 C 0.68925 0.52456 0.4788 0.0
C96 C 0.68225 0.54073 0.51435 0.0
C97 C 0.70925 0.56832 0.51488 0.0
C98 C 0.72943 0.56728 0.48371 0.0
C99 C 0.68903 0.5137 0.5436 0.0
C100 C 0.64506 0.55498 0.51335 0.0
H101 H 0.8035 0.67425 0.53445 0.0
H102 H 0.83419 0.63152 0.41354 0.0
H103 H 0.75361 0.63089 0.41338 0.0
H104 H 0.74004 0.58912 0.40668 0.0
H105 H 0.7811 0.60225 0.3894 0.0
H106 H 0.82323 0.56303 0.46889 0.0
H107 H 0.82204 0.56577 0.42083 0.0
H108 H 0.79233 0.53955 0.44517 0.0
H109 H 0.71501 0.66355 0.63557 0.0
H110 H 0.6373 0.58582 0.63889 0.0
H111 H 0.65852 0.56208 0.58407 0.0
H112 H 0.77837 0.60976 0.60377 0.0
H113 H 0.78054 0.65441 0.61229 0.0
H114 H 0.80125 0.6357 0.57395 0.0
H115 H 0.70871 0.68055 0.55272 0.0
H116 H 0.75031 0.68638 0.53572 0.0
H117 H 0.74222 0.69451 0.5824 0.0
H118 H 0.84718 0.70289 0.4998 0.0
C119 C 0.80925 0.66422 0.50847 0.0
C120 C 0.70234 0.49171 0.92559 0.0
C121 C 0.6739 0.51137 0.93576 0.0
C122 C 0.65881 0.50668 0.96945 0.0
C123 C 0.69854 0.4612 0.98205 0.0
C124 C 0.71427 0.46666 0.94933 0.0
C125 C 0.74366 0.44251 0.94323 0.0
H126 H 0.83509 0.30559 0.99785 0.0
C127 C 0.71557 0.43231 0.99966 0.0
C128 C 0.74198 0.421 0.97711 0.0
H129 H 0.84621 0.36355 0.90057 0.0
H130 H 0.80244 0.40228 0.92002 0.0
H131 H 0.82399 0.37641 0.05136 0.0
H132 H 0.75392 0.30567 0.00108 0.0
H133 H 0.74138 0.31241 0.04568 0.0
H134 H 0.78232 0.29295 0.03665 0.0
H135 H 0.82309 0.33246 0.06352 0.0
H136 H 0.79343 0.3624 0.08268 0.0
C137 C 0.77712 0.46363 0.94163 0.0
C138 C 0.73573 0.42205 0.90877 0.0
C139 C 0.67064 0.39159 0.1195 0.0
C140 C 0.67952 0.36447 0.14167 0.0
C141 C 0.70845 0.34463 0.13355 0.0
C142 C 0.7275 0.35081 0.10228 0.0
C143 C 0.71728 0.37703 0.07903 0.0
C144 C 0.68973 0.39734 0.08836 0.0
C145 C 0.68236 0.42405 0.06092 0.0
C146 C 0.70928 0.41593 0.03284 0.0
C147 C 0.72982 0.38846 0.04356 0.0
C148 C 0.68899 0.45881 0.07879 0.0
C149 C 0.64514 0.41856 0.04702 0.0
C150 C 0.82802 0.32693 0.98116 0.0
C151 C 0.8433 0.33171 0.94754 0.0
C152 C 0.83418 0.35957 0.92642 0.0
C153 C 0.80858 0.38186 0.93771 0.0
C154 C 0.79191 0.37609 0.97049 0.0
C155 C 0.80229 0.34955 0.99216 0.0
C156 C 0.78185 0.34783 0.02633 0.0
C157 C 0.7566 0.37678 0.0208 0.0
C158 C 0.76282 0.39327 0.98801 0.0
C159 C 0.80671 0.35487 0.05785 0.0
C160 C 0.76398 0.3129 0.02794 0.0
H161 H 0.6579 0.4794 0.01775 0.0
H162 H 0.71431 0.49511 0.89963 0.0
H163 H 0.70802 0.41517 0.90761 0.0
H164 H 0.74944 0.39771 0.90726 0.0
H165 H 0.74172 0.43709 0.88442 0.0
H166 H 0.77677 0.48387 0.96234 0.0
H167 H 0.78004 0.47596 0.91506 0.0
H168 H 0.8005 0.44887 0.94762 0.0
H169 H 0.64845 0.4072 0.12549 0.0
H170 H 0.71559 0.32367 0.15072 0.0
H171 H 0.74894 0.33447 0.09715 0.0
H172 H 0.71196 0.45762 0.09658 0.0
H173 H 0.66671 0.4667 0.09539 0.0
H174 H 0.69509 0.47904 0.05949 0.0
H175 H 0.63916 0.39113 0.04502 0.0
H176 H 0.64075 0.42825 0.01969 0.0
H177 H 0.62606 0.43014 0.06547 0.0
H178 H 0.63693 0.52187 0.97754 0.0
C179 C 0.67096 0.48179 0.99267 0.0
C180 C 0.17171 0.63652 0.44275 0.0
C181 C 0.15625 0.66562 0.45657 0.0
C182 C 0.16463 0.67676 0.49121 0.0
C183 C 0.20611 0.63118 0.49688 0.0
C184 C 0.19666 0.6198 0.46322 0.0
C185 C 0.2176 0.59001 0.4512 0.0
H186 H 0.35153 0.48387 0.48121 0.0
C187 C 0.23456 0.60948 0.50989 0.0
C188 C 0.24118 0.58506 0.48324 0.0
H189 H 0.28593 0.48715 0.38806 0.0
H190 H 0.25154 0.53133 0.41535 0.0
H191 H 0.35696 0.56398 0.48923 0.0
H192 H 0.29069 0.49105 0.54048 0.0
H193 H 0.30548 0.51855 0.57374 0.0
H194 H 0.336 0.49268 0.54961 0.0
H195 H 0.37329 0.53286 0.51991 0.0
H196 H 0.35675 0.57289 0.53514 0.0
C197 C 0.23757 0.60068 0.41714 0.0
C198 C 0.19282 0.55989 0.44572 0.0
C199 C 0.29759 0.63781 0.62633 0.0
C200 C 0.32696 0.62357 0.64231 0.0
C201 C 0.34114 0.59381 0.62828 0.0
C202 C 0.32749 0.5791 0.59742 0.0
C203 C 0.29924 0.59432 0.58028 0.0
C204 C 0.28416 0.62272 0.59515 0.0
C205 C 0.25478 0.63565 0.57255 0.0
C206 C 0.25515 0.61057 0.54147 0.0
C207 C 0.2815 0.58667 0.54622 0.0
C208 C 0.26383 0.67199 0.56041 0.0
C209 C 0.22159 0.63302 0.59515 0.0
C210 C 0.32938 0.49391 0.46705 0.0
C211 C 0.32111 0.48238 0.43276 0.0
C212 C 0.29245 0.49586 0.41475 0.0
C213 C 0.27266 0.52156 0.43067 0.0
C214 C 0.28184 0.53379 0.46488 0.0
C215 C 0.30961 0.51957 0.48248 0.0
C216 C 0.31658 0.53583 0.51799 0.0
C217 C 0.28822 0.56213 0.51934 0.0
C218 C 0.26809 0.56115 0.48806 0.0
C219 C 0.35281 0.55211 0.51593 0.0
C220 C 0.31234 0.5083 0.54721 0.0
H221 H 0.1954 0.6698 0.53742 0.0
H222 H 0.16548 0.62772 0.41601 0.0
H223 H 0.17398 0.5585 0.46808 0.0
H224 H 0.20589 0.53517 0.44575 0.0
H225 H 0.17812 0.56269 0.42033 0.0
H226 H 0.24817 0.62663 0.42032 0.0
H227 H 0.22046 0.60075 0.39327 0.0
H228 H 0.26007 0.58463 0.41147 0.0
H229 H 0.28638 0.66085 0.63683 0.0
H230 H 0.36378 0.5826 0.64047 0.0
H231 H 0.34043 0.55711 0.58755 0.0
H232 H 0.29131 0.67351 0.55227 0.0
H233 H 0.25971 0.69037 0.5825 0.0
H234 H 0.24926 0.68048 0.53674 0.0
H235 H 0.22059 0.60832 0.60936 0.0
H236 H 0.19787 0.63395 0.579 0.0
H237 H 0.22063 0.65334 0.61569 0.0
H238 H 0.15268 0.69929 0.5021 0.0
C239 C 0.1895 0.65961 0.51155 0.0
C240 C 0.80088 0.85503 0.12373 0.0
C241 C 0.82975 0.8696 0.14019 0.0
C242 C 0.84448 0.89886 0.12571 0.0
C243 C 0.80429 0.89699 0.07625 0.0
C244 C 0.78855 0.86922 0.09163 0.0
C245 C 0.75928 0.8563 0.06897 0.0
H246 H 0.66849 0.86565 0.91347 0.0
C247 C 0.78752 0.90379 0.04149 0.0
C248 C 0.76115 0.87999 0.03681 0.0
H249 H 0.65553 0.79433 0.99976 0.0
H250 H 0.69998 0.82235 0.03404 0.0
H251 H 0.68024 0.93372 0.96839 0.0
H252 H 0.74965 0.86563 0.91317 0.0
H253 H 0.76314 0.90741 0.90626 0.0
H254 H 0.72202 0.89413 0.88908 0.0
H255 H 0.68148 0.93108 0.92033 0.0
H256 H 0.71127 0.95713 0.94489 0.0
C257 C 0.72569 0.86141 0.09048 0.0
C258 C 0.76711 0.81906 0.05906 0.0
C259 C 0.8331 -0.00148 0.96358 0.0
C260 C 0.82425 0.01048 0.92958 0.0
C261 C 0.79581 0.99671 0.91152 0.0
C262 C 0.77694 0.97018 0.92699 0.0
C263 C 0.78688 0.95739 0.96073 0.0
C264 C 0.81421 0.97206 0.97858 0.0
C265 C 0.82122 0.95588 0.01415 0.0
C266 C 0.79423 0.92827 0.0146 0.0
C267 C 0.77405 0.92929 0.98337 0.0
C268 C 0.81444 0.9829 0.04339 0.0
C269 C 0.85842 0.94165 0.01326 0.0
C270 C 0.67525 0.85644 0.93992 0.0
C271 C 0.65923 0.82786 0.95412 0.0
C272 C 0.66808 0.81635 0.98851 0.0
C273 C 0.69403 0.83252 0.00815 0.0
C274 C 0.71127 0.86031 0.99298 0.0
C275 C 0.70124 0.87221 0.9597 0.0
C276 C 0.72215 0.90192 0.9476 0.0
C277 C 0.74717 0.90545 0.9786 0.0
C278 C 0.74058 0.8811 0.00527 0.0
C279 C 0.6977 0.9327 0.94481 0.0
C280 C 0.74014 0.89216 0.91205 0.0
H281 H 0.84488 0.93461 0.08397 0.0
H282 H 0.78915 0.83248 0.13473 0.0
H283 H 0.79479 0.81584 0.05237 0.0
H284 H 0.75319 0.81021 0.03512 0.0
H285 H 0.76117 0.80193 0.08183 0.0
H286 H 0.72539 0.8868 0.10331 0.0
H287 H 0.72333 0.84217 0.11202 0.0
H288 H 0.70237 0.86072 0.07368 0.0
H289 H 0.85493 0.00898 0.97788 0.0
H290 H 0.7887 0.00591 0.88518 0.0
H291 H 0.75571 0.96046 0.91183 0.0
H292 H 0.79149 -0.00156 0.03643 0.0
H293 H 0.83671 0.00027 0.04613 0.0
H294 H 0.80824 0.97206 0.06983 0.0
H295 H 0.86436 0.93075 0.98647 0.0
H296 H 0.86282 0.9206 0.03205 0.0
H297 H 0.87751 0.9619 0.01866 0.0
H298 H 0.86662 0.91043 0.13843 0.0
C299 C 0.83191 0.91268 0.09389 0.0
C300 C 0.32805 0.13985 0.4399 0.0
C301 C 0.34412 0.16848 0.45397 0.0
C302 C 0.33541 0.18009 0.48833 0.0
C303 C 0.29221 0.13615 0.49301 0.0
C304 C 0.30213 0.12415 0.45976 0.0
C305 C 0.28116 0.09442 0.44778 0.0
H306 H 0.14874 0.98723 0.47867 0.0
C307 C 0.26291 0.11543 0.50539 0.0
C308 C 0.25622 0.09102 0.47878 0.0
H309 H 0.21468 0.98997 0.38596 0.0
H310 H 0.24748 0.0358 0.4122 0.0
H311 H 0.21204 -0.00173 0.53711 0.0
H312 H 0.13909 0.06565 0.48659 0.0
H313 H 0.14068 0.07606 0.53211 0.0
H314 H 0.126 0.03468 0.51896 0.0
H315 H 0.16685 0.99649 0.54677 0.0
H316 H 0.19536 0.02481 0.57033 0.0
C317 C 0.3056 0.06362 0.44509 0.0
C318 C 0.26308 0.10409 0.41218 0.0
C319 C 0.2032 0.14154 0.62409 0.0
C320 C 0.17441 0.12697 0.64065 0.0
C321 C 0.15945 0.09785 0.62604 0.0
C322 C 0.17176 0.08413 0.59409 0.0
C323 C 0.19937 0.09975 0.57644 0.0
C324 C 0.21527 0.12744 0.59185 0.0
C325 C 0.24446 0.14032 0.56911 0.0
C326 C 0.24242 0.11663 0.53694 0.0
C327 C 0.21601 0.09291 0.54166 0.0
C328 C 0.27815 0.1352 0.59053 0.0
C329 C 0.2366 0.17756 0.55919 0.0
C330 C 0.17048 0.99768 0.4643 0.0
C331 C 0.17933 0.98552 0.43043 0.0
C332 C 0.20762 -0.00068 0.41224 0.0
C333 C 0.22637 0.02606 0.42748 0.0
C334 C 0.2165 0.039 0.46114 0.0
C335 C 0.18927 0.02434 0.47908 0.0
C336 C 0.18228 0.0407 0.51453 0.0
C337 C 0.20923 0.06834 0.51485 0.0
C338 C 0.22933 0.06723 0.48363 0.0
C339 C 0.18911 0.01384 0.54395 0.0
C340 C 0.14507 0.0549 0.51346 0.0
H341 H 0.30368 0.17422 0.53392 0.0
H342 H 0.33472 0.13056 0.41348 0.0
H343 H 0.25357 0.13061 0.41321 0.0
H344 H 0.24008 0.08881 0.40642 0.0
H345 H 0.28115 0.10205 0.38923 0.0
H346 H 0.32307 0.06262 0.46872 0.0
H347 H 0.3218 0.06521 0.42065 0.0
H348 H 0.29203 0.03919 0.44516 0.0
H349 H 0.21509 0.16399 0.63513 0.0
H350 H 0.13735 0.08631 0.63879 0.0
H351 H 0.15862 0.0623 0.58413 0.0
H352 H 0.27853 0.10979 0.60332 0.0
H353 H 0.2806 0.15441 0.6121 0.0
H354 H 0.30139 0.13595 0.57368 0.0
H355 H 0.20892 0.18075 0.55239 0.0
H356 H 0.25053 0.18642 0.53531 0.0
H357 H 0.24251 0.19467 0.58199 0.0
H358 H 0.34799 0.20214 0.49949 0.0
C359 C 0.30952 0.16398 0.50806 0.0
C360 C 0.20251 0.99228 0.92592 0.0
C361 C 0.17413 0.01194 0.93627 0.0
C362 C 0.159 0.007 0.96989 0.0
C363 C 0.19863 0.96136 0.98211 0.0
C364 C 0.21438 0.967 0.94944 0.0
C365 C 0.24371 0.94278 0.94317 0.0
H366 H 0.33502 0.80557 0.99776 0.0
C367 C 0.21565 0.9324 0.99956 0.0
C368 C 0.24206 0.92114 0.97698 0.0
H369 H 0.34617 0.86334 0.90037 0.0
H370 H 0.30251 0.90224 0.91981 0.0
H371 H 0.32407 0.87644 0.0512 0.0
H372 H 0.25404 0.80571 0.00092 0.0
H373 H 0.24131 0.81254 0.04543 0.0
H374 H 0.28228 0.79305 0.03664 0.0
H375 H 0.32309 0.83251 0.06342 0.0
H376 H 0.29346 0.86253 0.08252 0.0
C377 C 0.27722 0.9638 0.94154 0.0
C378 C 0.23565 0.92246 0.90866 0.0
C379 C 0.17045 0.89134 0.11906 0.0
C380 C 0.17919 0.86405 0.14105 0.0
C381 C 0.20822 0.84433 0.13304 0.0
C382 C 0.22749 0.85075 0.10199 0.0
C383 C 0.21734 0.87705 0.07882 0.0
C384 C 0.18973 0.89729 0.08811 0.0
C385 C 0.18241 0.92407 0.06074 0.0
C386 C 0.20937 0.916 0.03271 0.0
C387 C 0.22993 0.88855 0.04341 0.0
C388 C 0.18904 0.95879 0.07872 0.0
C389 C 0.1452 0.91862 0.04675 0.0
C390 C 0.32799 0.8269 0.98104 0.0
C391 C 0.34323 0.83158 0.94739 0.0
C392 C 0.33415 0.85944 0.92624 0.0
C393 C 0.30861 0.88182 0.93752 0.0
C394 C 0.29197 0.87614 0.97032 0.0
C395 C 0.30233 0.8496 0.99202 0.0
C396 C 0.2819 0.8479 0.02618 0.0
C397 C 0.25668 0.87688 0.02063 0.0
C398 C 0.26289 0.89338 0.98784 0.0
C399 C 0.30675 0.85494 0.05771 0.0
C400 C 0.26399 0.81299 0.02779 0.0
H401 H 0.15795 0.97932 0.0179 0.0
H402 H 0.21449 0.99585 0.89999 0.0
H403 H 0.20799 0.91534 0.90776 0.0
H404 H 0.2496 0.89828 0.90682 0.0
H405 H 0.24126 0.93771 0.88436 0.0
H406 H 0.27705 0.98388 0.96243 0.0
H407 H 0.28001 0.97633 0.91506 0.0
H408 H 0.30059 0.94891 0.94722 0.0
H409 H 0.14819 0.90688 0.125 0.0
H410 H 0.21527 0.82328 0.15012 0.0
H411 H 0.24901 0.83449 0.09693 0.0
H412 H 0.2119 0.95751 0.09668 0.0
H413 H 0.16668 0.96673 0.09518 0.0
H414 H 0.19535 0.97903 0.0595 0.0
H415 H 0.13906 0.8912 0.04505 0.0
H416 H 0.14101 0.928 0.01926 0.0
H417 H 0.12611 0.93051 0.06494 0.0
H418 H 0.13713 0.02216 0.97811 0.0
C419 C 0.17107 0.9819 0.99287 0.0
C420 C 0.67166 0.13637 0.44264 0.0
C421 C 0.65617 0.16551 0.45632 0.0
C422 C 0.66447 0.17674 0.49096 0.0
C423 C 0.70598 0.1312 0.49686 0.0
C424 C 0.69658 0.11973 0.46321 0.0
C425 C 0.7176 0.09 0.45125 0.0
H426 H 0.85189 0.98445 0.48098 0.0
C427 C 0.73446 0.10956 0.50995 0.0
C428 C 0.74112 0.08512 0.48334 0.0
H429 H 0.78644 0.98804 0.38772 0.0
H430 H 0.75159 0.03162 0.4154 0.0
H431 H 0.857 0.06417 0.48946 0.0
H432 H 0.79061 0.9912 0.54048 0.0
H433 H 0.80557 0.01856 0.57382 0.0
H434 H 0.83595 0.99269 0.54951 0.0
H435 H 0.87328 0.03311 0.52022 0.0
H436 H 0.85663 0.07313 0.53534 0.0
C437 C 0.73762 0.10073 0.41723 0.0
C438 C 0.6929 0.05981 0.44574 0.0
C439 C 0.79758 0.13808 0.62635 0.0
C440 C 0.82694 0.12382 0.64235 0.0
C441 C 0.84107 0.09403 0.62836 0.0
C442 C 0.82738 0.07927 0.59755 0.0
C443 C 0.79915 0.0945 0.58038 0.0
C444 C 0.7841 0.12294 0.59521 0.0
C445 C 0.7547 0.13582 0.57258 0.0
C446 C 0.75504 0.11069 0.54155 0.0
C447 C 0.7814 0.0868 0.54634 0.0
C448 C 0.76371 0.17215 0.56037 0.0
C449 C 0.72151 0.13323 0.59519 0.0
C450 C 0.82968 0.99442 0.46689 0.0
C451 C 0.82159 0.98319 0.43244 0.0
C452 C 0.79283 0.99655 0.41452 0.0
C453 C 0.77279 0.02192 0.43066 0.0
C454 C 0.78185 0.03397 0.46497 0.0
C455 C 0.80968 0.01981 0.48253 0.0
C456 C 0.81656 0.03598 0.5181 0.0
C457 C 0.78814 0.06224 0.51949 0.0
C458 C 0.76803 0.06123 0.48821 0.0
C459 C 0.85278 0.05232 0.51615 0.0
C460 C 0.81232 0.00837 0.54722 0.0
H461 H 0.69517 0.16991 0.53726 0.0
H462 H 0.66551 0.12751 0.41591 0.0
H463 H 0.67391 0.05848 0.46797 0.0
H464 H 0.70601 0.03511 0.44599 0.0
H465 H 0.67835 0.06248 0.42024 0.0
H466 H 0.74796 0.12679 0.42033 0.0
H467 H 0.72061 0.10055 0.39328 0.0
H468 H 0.76031 0.0849 0.41173 0.0
H469 H 0.7864 0.16114 0.63682 0.0
H470 H 0.8637 0.0828 0.64056 0.0
H471 H 0.84028 0.05724 0.58772 0.0
H472 H 0.79116 0.17365 0.55212 0.0
H473 H 0.75968 0.19054 0.58246 0.0
H474 H 0.74903 0.18061 0.53676 0.0
H475 H 0.72045 0.1085 0.60933 0.0
H476 H 0.69779 0.13429 0.57905 0.0
H477 H 0.72062 0.15351 0.61579 0.0
H478 H 0.65249 0.1993 0.50174 0.0
C479 C 0.68931 0.15966 0.51141 0.0
Sc480 Sc 0.00203 0.78682 0.30011 0.0
Sc481 Sc 1.00138 0.87604 0.30616 0.0
Sc482 Sc 1.00131 0.82684 0.38475 0.0
O483 O 1.0016 0.82979 0.33034 0.0
C484 C 0.95125 0.76673 0.36343 0.0
C485 C 0.94922 0.83413 0.25774 0.0
C486 C 0.94923 0.8877 0.3705 0.0
C487 C 0.05385 0.83474 0.25763 0.0
C488 C 0.05149 0.76615 0.36439 0.0
C489 C 0.05399 0.88688 0.37063 0.0
O490 O 0.96271 0.76279 0.33184 0.0
O491 O 0.96111 0.86178 0.26964 0.0
O492 O 0.96126 0.86425 0.39004 0.0
O493 O 0.04239 0.80567 0.2657 0.0
O494 O 0.03992 0.78815 0.38595 0.0
O495 O 0.04172 0.8949 0.34026 0.0
O496 O 0.04128 0.76288 0.33223 0.0
O497 O 0.04129 0.86212 0.26943 0.0
O498 O 0.04193 0.86347 0.39014 0.0
O499 O 0.96163 0.80533 0.26548 0.0
O500 O 0.96197 0.78908 0.38507 0.0
O501 O 0.96129 0.89535 0.34005 0.0
Sc502 Sc 1.00143 0.20973 0.79938 0.0
Sc503 Sc 0.00178 0.12055 0.80491 0.0
Sc504 Sc 0.00218 0.1692 0.88383 0.0
O505 O 0.00176 0.16661 0.82939 0.0
C506 C 0.05181 0.22987 0.8631 0.0
C507 C 0.05452 0.16252 0.75732 0.0
C508 C 0.05469 0.10917 0.86899 0.0
C509 C 0.94915 0.16225 0.75656 0.0
C510 C 0.95138 0.22918 0.86343 0.0
C511 C 0.94955 0.10904 0.86939 0.0
O512 O 0.0406 0.23374 0.83139 0.0
O513 O 0.0422 0.13487 0.7687 0.0
O514 O 0.04281 0.13244 0.88882 0.0
O515 O 0.96109 0.19113 0.76464 0.0
O516 O 0.96308 0.20711 0.88481 0.0
O517 O 0.96148 0.10147 0.8388 0.0
O518 O 0.96187 0.2332 0.83147 0.0
O519 O 0.96155 0.13469 0.76823 0.0
O520 O 0.96193 0.13212 0.88916 0.0
O521 O 0.04219 0.19135 0.76511 0.0
O522 O 0.04099 0.20751 0.88462 0.0
O523 O 0.04204 0.10137 0.83879 0.0
Sc524 Sc 0.50208 0.287 0.29983 0.0
Sc525 Sc 0.50063 0.37618 0.30654 0.0
Sc526 Sc 0.50184 0.32647 0.38476 0.0
O527 O 0.50154 0.32977 0.33039 0.0
C528 C 0.45222 0.26587 0.36349 0.0
C529 C 0.44857 0.3342 0.25817 0.0
C530 C 0.4487 0.38665 0.37134 0.0
C531 C 0.5536 0.33568 0.25779 0.0
C532 C 0.5522 0.26622 0.36358 0.0
C533 C 0.55353 0.38739 0.3706 0.0
O534 O 0.46309 0.26249 0.3316 0.0
O535 O 0.46033 0.36184 0.27018 0.0
O536 O 0.46125 0.36328 0.39065 0.0
O537 O 0.54233 0.30647 0.2656 0.0
O538 O 0.54096 0.28827 0.38528 0.0
O539 O 0.54086 0.39544 0.34044 0.0
O540 O 0.54154 0.26293 0.33158 0.0
O541 O 0.54068 0.3629 0.26963 0.0
O542 O 0.54201 0.36365 0.39002 0.0
O543 O 0.46133 0.30545 0.26553 0.0
O544 O 0.46311 0.28805 0.38524 0.0
O545 O 0.46044 0.39467 0.34084 0.0
Sc546 Sc 0.5013 0.70953 0.79951 0.0
Sc547 Sc 0.50128 0.62034 0.80492 0.0
Sc548 Sc 0.50237 0.66893 0.88388 0.0
O549 O 0.50163 0.6664 0.82945 0.0
C550 C 0.55135 0.7301 0.86342 0.0
C551 C 0.55443 0.6622 0.75762 0.0
C552 C 0.55454 0.6087 0.86861 0.0
C553 C 0.44903 0.6622 0.75646 0.0
C554 C 0.45121 0.7287 0.86356 0.0
C555 C 0.44935 0.60905 0.86964 0.0
O556 O 0.54003 0.73395 0.83176 0.0
O557 O 0.54172 0.63458 0.76866 0.0
O558 O 0.54308 0.63217 0.88846 0.0
O559 O 0.46124 0.691 0.76438 0.0
O560 O 0.46322 0.70682 0.88499 0.0
O561 O 0.46091 0.60153 0.83888 0.0
O562 O 0.46145 0.73265 0.83149 0.0
O563 O 0.46109 0.63461 0.76835 0.0
O564 O 0.46217 0.63186 0.88944 0.0
O565 O 0.54238 0.69112 0.76561 0.0
O566 O 0.54103 0.70735 0.88474 0.0
O567 O 0.54149 0.60084 0.83863 0.0
C568 C 0.11802 0.29196 0.91292 0.0
C569 C 0.13728 0.30797 0.93152 0.0
C570 C 0.09599 0.27186 0.89203 0.0
C571 C 0.07596 0.25371 0.87688 0.0
C572 C 0.88536 0.70462 0.41333 0.0
C573 C 0.86622 0.68865 0.43203 0.0
C574 C 0.90721 0.72468 0.39228 0.0
C575 C 0.92717 0.74282 0.37708 0.0
C576 C 0.88563 0.28937 0.91616 0.0
C577 C 0.86631 0.30719 0.93267 0.0
C578 C 0.90732 0.26966 0.89456 0.0
C579 C 0.92713 0.25247 0.87794 0.0
C580 C 0.11537 0.7021 0.41535 0.0
C581 C 0.13401 0.68546 0.43412 0.0
C582 C 0.09423 0.72302 0.3942 0.0
C583 C 0.07492 0.74175 0.37868 0.0
C584 C 0.61617 0.79322 0.91381 0.0
C585 C 0.63579 0.80897 0.93226 0.0
C586 C 0.5943 0.77302 0.89285 0.0
C587 C 0.5748 0.75446 0.87748 0.0
C588 C 0.38705 0.20301 0.41351 0.0
C589 C 0.36748 0.18731 0.43201 0.0
C590 C 0.40893 0.22314 0.39254 0.0
C591 C 0.42853 0.24161 0.37725 0.0
C592 C 0.38538 0.78896 0.91616 0.0
C593 C 0.36614 0.80695 0.93257 0.0
C594 C 0.40704 0.76909 0.89469 0.0
C595 C 0.42688 0.75189 0.87812 0.0
C596 C 0.6156 0.20187 0.41466 0.0
C597 C 0.63409 0.18531 0.43367 0.0
C598 C 0.59469 0.22278 0.39325 0.0
C599 C 0.57549 0.24159 0.37768 0.0
C600 C 0.36662 0.55585 0.90291 0.0
C601 C 0.34591 0.53558 0.91349 0.0
C602 C 0.39437 0.57615 0.89173 0.0
C603 C 0.41948 0.59147 0.88216 0.0
C604 C 0.63602 0.44182 0.4024 0.0
C605 C 0.65699 0.46191 0.41284 0.0
C606 C 0.60824 0.4213 0.39176 0.0
C607 C 0.58328 0.40545 0.38268 0.0
C608 C 0.63819 0.55485 0.89832 0.0
C609 C 0.65753 0.53474 0.91175 0.0
C610 C 0.61042 0.57539 0.88756 0.0
C611 C 0.58494 0.59103 0.87961 0.0
C612 C 0.36551 0.43945 0.40474 0.0
C613 C 0.34402 0.45888 0.41557 0.0
C614 C 0.39367 0.4196 0.39354 0.0
C615 C 0.41879 0.40422 0.38396 0.0
C616 C 0.86711 0.05504 0.9021 0.0
C617 C 0.84629 0.03488 0.9127 0.0
C618 C 0.8948 0.07551 0.89108 0.0
C619 C 0.9198 0.09114 0.88172 0.0
C620 C 0.1366 0.94063 0.40333 0.0
C621 C 0.15736 0.96093 0.41375 0.0
C622 C 0.10887 0.92017 0.39239 0.0
C623 C 0.08382 0.90464 0.383 0.0
C624 C 0.13844 0.05577 0.89926 0.0
C625 C 0.15779 0.03554 0.91249 0.0
C626 C 0.11063 0.07624 0.88849 0.0
C627 C 0.08511 0.09171 0.8803 0.0
C628 C 0.8664 0.94107 0.40383 0.0
C629 C 0.84476 0.96015 0.41498 0.0
C630 C 0.89454 0.92133 0.39239 0.0
C631 C 0.91951 0.90573 0.3828 0.0
C632 C 0.36534 0.34557 0.19443 0.0
C633 C 0.3462 0.35393 0.17062 0.0
C634 C 0.39288 0.33899 0.21804 0.0
C635 C 0.41828 0.33567 0.23624 0.0
C636 C 0.63804 0.65051 0.69451 0.0
C637 C 0.65722 0.64232 0.6707 0.0
C638 C 0.61043 0.65701 0.71805 0.0
C639 C 0.58492 0.66044 0.73603 0.0
C640 C 0.63585 0.34943 0.19333 0.0
C641 C 0.65669 0.3551 0.17026 0.0
C642 C 0.60829 0.34291 0.21682 0.0
C643 C 0.5834 0.33844 0.23541 0.0
C644 C 0.36558 0.64965 0.69308 0.0
C645 C 0.34548 0.6405 0.67046 0.0
C646 C 0.39354 0.65686 0.716 0.0
C647 C 0.41883 0.66057 0.73433 0.0
C648 C 0.86649 0.8451 0.1932 0.0
C649 C 0.84715 0.85349 0.1696 0.0
C650 C 0.89399 0.83874 0.21692 0.0
C651 C 0.91919 0.83562 0.23546 0.0
C652 C 0.138 0.15124 0.69398 0.0
C653 C 0.15724 0.14297 0.67026 0.0
C654 C 0.11038 0.15766 0.71751 0.0
C655 C 0.08492 0.16094 0.73559 0.0
C656 C 0.13528 0.8484 0.19222 0.0
C657 C 0.15617 0.85442 0.16934 0.0
C658 C 0.10792 0.84163 0.21585 0.0
C659 C 0.08331 0.83716 0.23479 0.0
C660 C 0.86562 0.14973 0.69318 0.0
C661 C 0.84548 0.14071 0.67055 0.0
C662 C 0.89361 0.1568 0.71615 0.0
C663 C 0.91892 0.16046 0.73448 0.0
loop_
_geom_bond_atom_site_label_1
_geom_bond_atom_site_label_2
_geom_bond_distance
_geom_bond_site_symmetry_2
_ccdc_geom_bond_type
C0 C1 1.391 . S
C0 C4 1.391 . S
C0 H42 0.948 . S
C1 C0 1.391 . S
C1 C2 1.391 . S
C2 C1 1.391 . S
C2 H58 0.947 . S
C2 C59 1.392 . S
C3 C4 1.391 . S
C3 C7 1.397 . S
C3 C59 1.419 . S
C4 C0 1.391 . S
C4 C3 1.391 . S
C4 C5 1.399 . S
C5 C4 1.399 . S
C5 C8 1.396 . S
C5 C17 1.453 . S
C5 C18 1.684 . S
H6 C30 0.948 . S
C7 C3 1.397 . S
C7 C8 1.394 . S
C7 C26 1.723 . S
C8 C5 1.396 . S
C8 C7 1.394 . S
C8 C38 1.723 . S
H9 C32 0.947 1_554 S
H10 C33 0.948 . S
H11 C39 0.982 . S
H12 C40 0.979 . S
H13 C40 0.980 . S
H14 C40 0.983 . S
H15 C39 0.979 . S
H16 C39 0.977 . S
C17 C5 1.453 . S
C17 H46 0.982 . S
C17 H47 0.979 . S
C17 H48 0.977 . S
C18 C5 1.684 . S
C18 H43 0.979 . S
C18 H44 0.980 . S
C18 H45 0.983 . S
C19 C20 1.391 . S
C19 C24 1.391 . S
C19 H49 0.948 . S
C20 C19 1.391 . S
C20 C21 1.391 . S
C21 C20 1.391 . S
C21 C22 1.392 . S
C21 H50 0.947 . S
C22 C21 1.392 . S
C22 C23 1.419 . S
C22 H51 0.948 . S
C23 C22 1.419 . S
C23 C24 1.391 . S
C23 C27 1.397 . S
C24 C19 1.391 . S
C24 C23 1.391 . S
C24 C25 1.399 1_556 S
C25 C24 1.399 1_554 S
C25 C26 1.396 . S
C25 C28 1.453 . S
C25 C29 1.684 . S
C26 C7 1.723 . S
C26 C25 1.396 . S
C26 C27 1.394 1_554 S
C27 C23 1.397 . S
C27 C26 1.394 1_556 S
C27 C37 1.723 . S
C28 C25 1.453 . S
C28 H52 0.982 . S
C28 H53 0.979 . S
C28 H54 0.977 . S
C29 C25 1.684 . S
C29 H55 0.979 . S
C29 H56 0.980 . S
C29 H57 0.983 . S
C30 H6 0.948 . S
C30 C31 1.391 . S
C30 C35 1.391 . S
C31 C30 1.391 . S
C31 C32 1.391 . S
C32 H9 0.947 1_556 S
C32 C31 1.391 . S
C32 C33 1.392 1_556 S
C33 H10 0.948 . S
C33 C32 1.392 1_554 S
C33 C34 1.419 1_554 S
C34 C33 1.419 1_556 S
C34 C35 1.391 . S
C34 C38 1.397 1_556 S
C35 C30 1.391 . S
C35 C34 1.391 . S
C35 C36 1.399 . S
C36 C35 1.399 . S
C36 C37 1.396 . S
C36 C39 1.453 . S
C36 C40 1.684 . S
C37 C27 1.723 . S
C37 C36 1.396 . S
C37 C38 1.394 1_556 S
C38 C8 1.723 . S
C38 C34 1.397 1_554 S
C38 C37 1.394 1_554 S
C39 H11 0.982 . S
C39 H15 0.979 . S
C39 H16 0.977 . S
C39 C36 1.453 . S
C40 H12 0.979 . S
C40 H13 0.980 . S
C40 H14 0.983 . S
C40 C36 1.684 . S
H41 C59 0.948 . S
H42 C0 0.948 . S
H43 C18 0.979 . S
H44 C18 0.980 . S
H45 C18 0.983 . S
H46 C17 0.982 . S
H47 C17 0.979 . S
H48 C17 0.977 . S
H49 C19 0.948 . S
H50 C21 0.947 . S
H51 C22 0.948 . S
H52 C28 0.982 . S
H53 C28 0.979 . S
H54 C28 0.977 . S
H55 C29 0.979 . S
H56 C29 0.980 . S
H57 C29 0.983 . S
H58 C2 0.947 . S
C59 C2 1.392 . S
C59 C3 1.419 . S
C59 H41 0.948 . S
C60 C61 1.391 . S
C60 C64 1.391 . S
C60 H102 0.948 . S
C61 C60 1.391 . S
C61 C62 1.391 . S
C62 C61 1.391 . S
C62 H118 0.947 . S
C62 C119 1.392 . S
C63 C64 1.391 . S
C63 C67 1.397 . S
C63 C119 1.419 . S
C64 C60 1.391 . S
C64 C63 1.391 . S
C64 C65 1.399 . S
C65 C64 1.399 . S
C65 C68 1.396 . S
C65 C77 1.453 . S
C65 C78 1.684 . S
H66 C90 0.948 . S
C67 C63 1.397 . S
C67 C68 1.394 . S
C67 C86 1.723 . S
C68 C65 1.396 . S
C68 C67 1.394 . S
C68 C98 1.723 . S
H69 C92 0.947 . S
H70 C93 0.948 . S
H71 C99 0.982 . S
H72 C100 0.979 . S
H73 C100 0.980 . S
H74 C100 0.983 . S
H75 C99 0.979 . S
H76 C99 0.977 . S
C77 C65 1.453 . S
C77 H106 0.982 . S
C77 H107 0.979 . S
C77 H108 0.977 . S
C78 C65 1.684 . S
C78 H103 0.979 . S
C78 H104 0.980 . S
C78 H105 0.983 . S
C79 C80 1.391 . S
C79 C84 1.391 . S
C79 H109 0.948 . S
C80 C79 1.391 . S
C80 C81 1.391 . S
C81 C80 1.391 . S
C81 C82 1.392 . S
C81 H110 0.947 . S
C82 C81 1.392 . S
C82 C83 1.419 . S
C82 H111 0.948 . S
C83 C82 1.419 . S
C83 C84 1.391 . S
C83 C87 1.397 . S
C84 C79 1.391 . S
C84 C83 1.391 . S
C84 C85 1.399 . S
C85 C84 1.399 . S
C85 C86 1.396 . S
C85 C88 1.453 . S
C85 C89 1.684 . S
C86 C67 1.723 . S
C86 C85 1.396 . S
C86 C87 1.394 . S
C87 C83 1.397 . S
C87 C86 1.394 . S
C87 C97 1.723 . S
C88 C85 1.453 . S
C88 H112 0.982 . S
C88 H113 0.979 . S
C88 H114 0.977 . S
C89 C85 1.684 . S
C89 H115 0.979 . S
C89 H116 0.980 . S
C89 H117 0.983 . S
C90 H66 0.948 . S
C90 C91 1.391 . S
C90 C95 1.391 . S
C91 C90 1.391 . S
C91 C92 1.391 . S
C92 H69 0.947 . S
C92 C91 1.391 . S
C92 C93 1.392 . S
C93 H70 0.948 . S
C93 C92 1.392 . S
C93 C94 1.419 . S
C94 C93 1.419 . S
C94 C95 1.391 . S
C94 C98 1.397 . S
C95 C90 1.391 . S
C95 C94 1.391 . S
C95 C96 1.399 . S
C96 C95 1.399 . S
C96 C97 1.396 . S
C96 C99 1.453 . S
C96 C100 1.684 . S
C97 C87 1.723 . S
C97 C96 1.396 . S
C97 C98 1.394 . S
C98 C68 1.723 . S
C98 C94 1.397 . S
C98 C97 1.394 . S
C99 H71 0.982 . S
C99 H75 0.979 . S
C99 H76 0.977 . S
C99 C96 1.453 . S
C100 H72 0.979 . S
C100 H73 0.980 . S
C100 H74 0.983 . S
C100 C96 1.684 . S
H101 C119 0.948 . S
H102 C60 0.948 . S
H103 C78 0.979 . S
H104 C78 0.980 . S
H105 C78 0.983 . S
H106 C77 0.982 . S
H107 C77 0.979 . S
H108 C77 0.977 . S
H109 C79 0.948 . S
H110 C81 0.947 . S
H111 C82 0.948 . S
H112 C88 0.982 . S
H113 C88 0.979 . S
H114 C88 0.977 . S
H115 C89 0.979 . S
H116 C89 0.980 . S
H117 C89 0.983 . S
H118 C62 0.947 . S
C119 C62 1.392 . S
C119 C63 1.419 . S
C119 H101 0.948 . S
C120 C121 1.391 . S
C120 C124 1.391 . S
C120 H162 0.948 . S
C121 C120 1.391 . S
C121 C122 1.391 . S
C122 C121 1.391 . S
C122 H178 0.947 . S
C122 C179 1.392 . S
C123 C124 1.391 . S
C123 C127 1.397 . S
C123 C179 1.419 . S
C124 C120 1.391 . S
C124 C123 1.391 . S
C124 C125 1.399 . S
C125 C124 1.399 . S
C125 C128 1.396 . S
C125 C137 1.453 . S
C125 C138 1.684 . S
H126 C150 0.948 . S
C127 C123 1.397 . S
C127 C128 1.394 . S
C127 C146 1.723 1_556 S
C128 C125 1.396 . S
C128 C127 1.394 . S
C128 C158 1.723 . S
H129 C152 0.947 . S
H130 C153 0.948 . S
H131 C159 0.982 . S
H132 C160 0.979 . S
H133 C160 0.980 . S
H134 C160 0.983 . S
H135 C159 0.979 . S
H136 C159 0.977 . S
C137 C125 1.453 . S
C137 H166 0.982 . S
C137 H167 0.979 . S
C137 H168 0.977 . S
C138 C125 1.684 . S
C138 H163 0.979 . S
C138 H164 0.980 . S
C138 H165 0.983 . S
C139 C140 1.391 . S
C139 C144 1.391 . S
C139 H169 0.948 . S
C140 C139 1.391 . S
C140 C141 1.391 . S
C141 C140 1.391 . S
C141 C142 1.392 . S
C141 H170 0.947 . S
C142 C141 1.392 . S
C142 C143 1.419 . S
C142 H171 0.948 . S
C143 C142 1.419 . S
C143 C144 1.391 . S
C143 C147 1.397 . S
C144 C139 1.391 . S
C144 C143 1.391 . S
C144 C145 1.399 . S
C145 C144 1.399 . S
C145 C146 1.396 . S
C145 C148 1.453 . S
C145 C149 1.684 . S
C146 C127 1.723 1_554 S
C146 C145 1.396 . S
C146 C147 1.394 . S
C147 C143 1.397 . S
C147 C146 1.394 . S
C147 C157 1.723 . S
C148 C145 1.453 . S
C148 H172 0.982 . S
C148 H173 0.979 . S
C148 H174 0.977 . S
C149 C145 1.684 . S
C149 H175 0.979 . S
C149 H176 0.980 . S
C149 H177 0.983 . S
C150 H126 0.948 . S
C150 C151 1.391 . S
C150 C155 1.391 . S
C151 C150 1.391 . S
C151 C152 1.391 . S
C152 H129 0.947 . S
C152 C151 1.391 . S
C152 C153 1.392 . S
C153 H130 0.948 . S
C153 C152 1.392 . S
C153 C154 1.419 . S
C154 C153 1.419 . S
C154 C155 1.391 . S
C154 C158 1.397 . S
C155 C150 1.391 . S
C155 C154 1.391 . S
C155 C156 1.399 1_556 S
C156 C155 1.399 1_554 S
C156 C157 1.396 . S
C156 C159 1.453 . S
C156 C160 1.684 . S
C157 C147 1.723 . S
C157 C156 1.396 . S
C157 C158 1.394 1_554 S
C158 C128 1.723 . S
C158 C154 1.397 . S
C158 C157 1.394 1_556 S
C159 H131 0.982 . S
C159 H135 0.979 . S
C159 H136 0.977 . S
C159 C156 1.453 . S
C160 H132 0.979 . S
C160 H133 0.980 . S
C160 H134 0.983 . S
C160 C156 1.684 . S
H161 C179 0.948 1_554 S
H162 C120 0.948 . S
H163 C138 0.979 . S
H164 C138 0.980 . S
H165 C138 0.983 . S
H166 C137 0.982 . S
H167 C137 0.979 . S
H168 C137 0.977 . S
H169 C139 0.948 . S
H170 C141 0.947 . S
H171 C142 0.948 . S
H172 C148 0.982 . S
H173 C148 0.979 . S
H174 C148 0.977 . S
H175 C149 0.979 . S
H176 C149 0.980 . S
H177 C149 0.983 . S
H178 C122 0.947 . S
C179 C122 1.392 . S
C179 C123 1.419 . S
C179 H161 0.948 1_556 S
C180 C181 1.391 . S
C180 C184 1.391 . S
C180 H222 0.948 . S
C181 C180 1.391 . S
C181 C182 1.391 . S
C182 C181 1.391 . S
C182 H238 0.947 . S
C182 C239 1.392 . S
C183 C184 1.391 . S
C183 C187 1.397 . S
C183 C239 1.419 . S
C184 C180 1.391 . S
C184 C183 1.391 . S
C184 C185 1.399 . S
C185 C184 1.399 . S
C185 C188 1.396 . S
C185 C197 1.453 . S
C185 C198 1.684 . S
H186 C210 0.948 . S
C187 C183 1.397 . S
C187 C188 1.394 . S
C187 C206 1.723 . S
C188 C185 1.396 . S
C188 C187 1.394 . S
C188 C218 1.723 . S
H189 C212 0.947 . S
H190 C213 0.948 . S
H191 C219 0.982 . S
H192 C220 0.979 . S
H193 C220 0.980 . S
H194 C220 0.983 . S
H195 C219 0.979 . S
H196 C219 0.977 . S
C197 C185 1.453 . S
C197 H226 0.982 . S
C197 H227 0.979 . S
C197 H228 0.977 . S
C198 C185 1.684 . S
C198 H223 0.979 . S
C198 H224 0.980 . S
C198 H225 0.983 . S
C199 C200 1.391 . S
C199 C204 1.391 . S
C199 H229 0.948 . S
C200 C199 1.391 . S
C200 C201 1.391 . S
C201 C200 1.391 . S
C201 C202 1.392 . S
C201 H230 0.947 . S
C202 C201 1.392 . S
C202 C203 1.419 . S
C202 H231 0.948 . S
C203 C202 1.419 . S
C203 C204 1.391 . S
C203 C207 1.397 . S
C204 C199 1.391 . S
C204 C203 1.391 . S
C204 C205 1.399 . S
C205 C204 1.399 . S
C205 C206 1.396 . S
C205 C208 1.453 . S
C205 C209 1.684 . S
C206 C187 1.723 . S
C206 C205 1.396 . S
C206 C207 1.394 . S
C207 C203 1.397 . S
C207 C206 1.394 . S
C207 C217 1.723 . S
C208 C205 1.453 . S
C208 H232 0.982 . S
C208 H233 0.979 . S
C208 H234 0.977 . S
C209 C205 1.684 . S
C209 H235 0.979 . S
C209 H236 0.980 . S
C209 H237 0.983 . S
C210 H186 0.948 . S
C210 C211 1.391 . S
C210 C215 1.391 . S
C211 C210 1.391 . S
C211 C212 1.391 . S
C212 H189 0.947 . S
C212 C211 1.391 . S
C212 C213 1.392 . S
C213 H190 0.948 . S
C213 C212 1.392 . S
C213 C214 1.419 . S
C214 C213 1.419 . S
C214 C215 1.391 . S
C214 C218 1.397 . S
C215 C210 1.391 . S
C215 C214 1.391 . S
C215 C216 1.399 . S
C216 C215 1.399 . S
C216 C217 1.396 . S
C216 C219 1.453 . S
C216 C220 1.684 . S
C217 C207 1.723 . S
C217 C216 1.396 . S
C217 C218 1.394 . S
C218 C188 1.723 . S
C218 C214 1.397 . S
C218 C217 1.394 . S
C219 H191 0.982 . S
C219 H195 0.979 . S
C219 H196 0.977 . S
C219 C216 1.453 . S
C220 H192 0.979 . S
C220 H193 0.980 . S
C220 H194 0.983 . S
C220 C216 1.684 . S
H221 C239 0.948 . S
H222 C180 0.948 . S
H223 C198 0.979 . S
H224 C198 0.980 . S
H225 C198 0.983 . S
H226 C197 0.982 . S
H227 C197 0.979 . S
H228 C197 0.977 . S
H229 C199 0.948 . S
H230 C201 0.947 . S
H231 C202 0.948 . S
H232 C208 0.982 . S
H233 C208 0.979 . S
H234 C208 0.977 . S
H235 C209 0.979 . S
H236 C209 0.980 . S
H237 C209 0.983 . S
H238 C182 0.947 . S
C239 C182 1.392 . S
C239 C183 1.419 . S
C239 H221 0.948 . S
C240 C241 1.391 . S
C240 C244 1.391 . S
C240 H282 0.948 . S
C241 C240 1.391 . S
C241 C242 1.391 . S
C242 C241 1.391 . S
C242 H298 0.947 . S
C242 C299 1.392 . S
C243 C244 1.391 . S
C243 C247 1.397 . S
C243 C299 1.419 . S
C244 C240 1.391 . S
C244 C243 1.391 . S
C244 C245 1.399 . S
C245 C244 1.399 . S
C245 C248 1.396 . S
C245 C257 1.453 . S
C245 C258 1.684 . S
H246 C270 0.948 . S
C247 C243 1.397 . S
C247 C248 1.394 . S
C247 C266 1.723 . S
C248 C245 1.396 . S
C248 C247 1.394 . S
C248 C278 1.723 . S
H249 C272 0.947 1_554 S
H250 C273 0.948 . S
H251 C279 0.982 . S
H252 C280 0.979 . S
H253 C280 0.980 . S
H254 C280 0.983 . S
H255 C279 0.979 . S
H256 C279 0.977 . S
C257 C245 1.453 . S
C257 H286 0.982 . S
C257 H287 0.979 . S
C257 H288 0.977 . S
C258 C245 1.684 . S
C258 H283 0.979 . S
C258 H284 0.980 . S
C258 H285 0.983 . S
C259 C260 1.391 . S
C259 C264 1.391 1_545 S
C259 H289 0.948 . S
C260 C259 1.391 . S
C260 C261 1.391 1_545 S
C261 C260 1.391 1_565 S
C261 C262 1.392 . S
C261 H290 0.947 1_565 S
C262 C261 1.392 . S
C262 C263 1.419 . S
C262 H291 0.948 . S
C263 C262 1.419 . S
C263 C264 1.391 . S
C263 C267 1.397 . S
C264 C259 1.391 1_565 S
C264 C263 1.391 . S
C264 C265 1.399 1_556 S
C265 C264 1.399 1_554 S
C265 C266 1.396 . S
C265 C268 1.453 . S
C265 C269 1.684 . S
C266 C247 1.723 . S
C266 C265 1.396 . S
C266 C267 1.394 1_554 S
C267 C263 1.397 . S
C267 C266 1.394 1_556 S
C267 C277 1.723 . S
C268 C265 1.453 . S
C268 H292 0.982 . S
C268 H293 0.979 . S
C268 H294 0.977 . S
C269 C265 1.684 . S
C269 H295 0.979 . S
C269 H296 0.980 . S
C269 H297 0.983 . S
C270 H246 0.948 . S
C270 C271 1.391 . S
C270 C275 1.391 . S
C271 C270 1.391 . S
C271 C272 1.391 . S
C272 H249 0.947 1_556 S
C272 C271 1.391 . S
C272 C273 1.392 1_556 S
C273 H250 0.948 . S
C273 C272 1.392 1_554 S
C273 C274 1.419 1_554 S
C274 C273 1.419 1_556 S
C274 C275 1.391 . S
C274 C278 1.397 1_556 S
C275 C270 1.391 . S
C275 C274 1.391 . S
C275 C276 1.399 . S
C276 C275 1.399 . S
C276 C277 1.396 . S
C276 C279 1.453 . S
C276 C280 1.684 . S
C277 C267 1.723 . S
C277 C276 1.396 . S
C277 C278 1.394 1_556 S
C278 C248 1.723 . S
C278 C274 1.397 1_554 S
C278 C277 1.394 1_554 S
C279 H251 0.982 . S
C279 H255 0.979 . S
C279 H256 0.977 . S
C279 C276 1.453 . S
C280 H252 0.979 . S
C280 H253 0.980 . S
C280 H254 0.983 . S
C280 C276 1.684 . S
H281 C299 0.948 . S
H282 C240 0.948 . S
H283 C258 0.979 . S
H284 C258 0.980 . S
H285 C258 0.983 . S
H286 C257 0.982 . S
H287 C257 0.979 . S
H288 C257 0.977 . S
H289 C259 0.948 . S
H290 C261 0.947 1_545 S
H291 C262 0.948 . S
H292 C268 0.982 . S
H293 C268 0.979 . S
H294 C268 0.977 . S
H295 C269 0.979 . S
H296 C269 0.980 . S
H297 C269 0.983 . S
H298 C242 0.947 . S
C299 C242 1.392 . S
C299 C243 1.419 . S
C299 H281 0.948 . S
C300 C301 1.391 . S
C300 C304 1.391 . S
C300 H342 0.948 . S
C301 C300 1.391 . S
C301 C302 1.391 . S
C302 C301 1.391 . S
C302 H358 0.947 . S
C302 C359 1.392 . S
C303 C304 1.391 . S
C303 C307 1.397 . S
C303 C359 1.419 . S
C304 C300 1.391 . S
C304 C303 1.391 . S
C304 C305 1.399 . S
C305 C304 1.399 . S
C305 C308 1.396 . S
C305 C317 1.453 . S
C305 C318 1.684 . S
H306 C330 0.948 . S
C307 C303 1.397 . S
C307 C308 1.394 . S
C307 C326 1.723 . S
C308 C305 1.396 . S
C308 C307 1.394 . S
C308 C338 1.723 . S
H309 C332 0.947 1_565 S
H310 C333 0.948 . S
H311 C339 0.982 . S
H312 C340 0.979 . S
H313 C340 0.980 . S
H314 C340 0.983 . S
H315 C339 0.979 . S
H316 C339 0.977 . S
C317 C305 1.453 . S
C317 H346 0.982 . S
C317 H347 0.979 . S
C317 H348 0.977 . S
C318 C305 1.684 . S
C318 H343 0.979 . S
C318 H344 0.980 . S
C318 H345 0.983 . S
C319 C320 1.391 . S
C319 C324 1.391 . S
C319 H349 0.948 . S
C320 C319 1.391 . S
C320 C321 1.391 . S
C321 C320 1.391 . S
C321 C322 1.392 . S
C321 H350 0.947 . S
C322 C321 1.392 . S
C322 C323 1.419 . S
C322 H351 0.948 . S
C323 C322 1.419 . S
C323 C324 1.391 . S
C323 C327 1.397 . S
C324 C319 1.391 . S
C324 C323 1.391 . S
C324 C325 1.399 . S
C325 C324 1.399 . S
C325 C326 1.396 . S
C325 C328 1.453 . S
C325 C329 1.684 . S
C326 C307 1.723 . S
C326 C325 1.396 . S
C326 C327 1.394 . S
C327 C323 1.397 . S
C327 C326 1.394 . S
C327 C337 1.723 . S
C328 C325 1.453 . S
C328 H352 0.982 . S
C328 H353 0.979 . S
C328 H354 0.977 . S
C329 C325 1.684 . S
C329 H355 0.979 . S
C329 H356 0.980 . S
C329 H357 0.983 . S
C330 H306 0.948 . S
C330 C331 1.391 . S
C330 C335 1.391 1_565 S
C331 C330 1.391 . S
C331 C332 1.391 1_565 S
C332 H309 0.947 1_545 S
C332 C331 1.391 1_545 S
C332 C333 1.392 . S
C333 H310 0.948 . S
C333 C332 1.392 . S
C333 C334 1.419 . S
C334 C333 1.419 . S
C334 C335 1.391 . S
C334 C338 1.397 . S
C335 C330 1.391 1_545 S
C335 C334 1.391 . S
C335 C336 1.399 . S
C336 C335 1.399 . S
C336 C337 1.396 . S
C336 C339 1.453 . S
C336 C340 1.684 . S
C337 C327 1.723 . S
C337 C336 1.396 . S
C337 C338 1.394 . S
C338 C308 1.723 . S
C338 C334 1.397 . S
C338 C337 1.394 . S
C339 H311 0.982 . S
C339 H315 0.979 . S
C339 H316 0.977 . S
C339 C336 1.453 . S
C340 H312 0.979 . S
C340 H313 0.980 . S
C340 H314 0.983 . S
C340 C336 1.684 . S
H341 C359 0.948 . S
H342 C300 0.948 . S
H343 C318 0.979 . S
H344 C318 0.980 . S
H345 C318 0.983 . S
H346 C317 0.982 . S
H347 C317 0.979 . S
H348 C317 0.977 . S
H349 C319 0.948 . S
H350 C321 0.947 . S
H351 C322 0.948 . S
H352 C328 0.982 . S
H353 C328 0.979 . S
H354 C328 0.977 . S
H355 C329 0.979 . S
H356 C329 0.980 . S
H357 C329 0.983 . S
H358 C302 0.947 . S
C359 C302 1.392 . S
C359 C303 1.419 . S
C359 H341 0.948 . S
C360 C361 1.391 1_565 S
C360 C364 1.391 . S
C360 H402 0.953 . S
C361 C360 1.391 1_545 S
C361 C362 1.391 . S
C362 C361 1.391 . S
C362 H418 0.947 . S
C362 C419 1.392 1_545 S
C363 C364 1.391 . S
C363 C367 1.397 . S
C363 C419 1.419 . S
C364 C360 1.391 . S
C364 C363 1.391 . S
C364 C365 1.399 . S
C365 C364 1.399 . S
C365 C368 1.396 . S
C365 C377 1.453 . S
C365 C378 1.684 . S
H366 C390 0.948 . S
C367 C363 1.397 . S
C367 C368 1.394 . S
C367 C386 1.723 1_556 S
C368 C365 1.396 . S
C368 C367 1.394 . S
C368 C398 1.723 . S
H369 C392 0.947 . S
H370 C393 0.948 . S
H371 C399 0.982 . S
H372 C400 0.979 . S
H373 C400 0.980 . S
H374 C400 0.983 . S
H375 C399 0.979 . S
H376 C399 0.977 . S
C377 C365 1.453 . S
C377 H406 0.982 . S
C377 H407 0.979 . S
C377 H408 0.977 . S
C378 C365 1.684 . S
C378 H403 0.979 . S
C378 H404 0.980 . S
C378 H405 0.983 . S
C379 C380 1.391 . S
C379 C384 1.391 . S
C379 H409 0.948 . S
C380 C379 1.391 . S
C380 C381 1.391 . S
C381 C380 1.391 . S
C381 C382 1.392 . S
C381 H410 0.947 . S
C382 C381 1.392 . S
C382 C383 1.419 . S
C382 H411 0.948 . S
C383 C382 1.419 . S
C383 C384 1.391 . S
C383 C387 1.397 . S
C384 C379 1.391 . S
C384 C383 1.391 . S
C384 C385 1.399 . S
C385 C384 1.399 . S
C385 C386 1.396 . S
C385 C388 1.453 . S
C385 C389 1.684 . S
C386 C367 1.723 1_554 S
C386 C385 1.396 . S
C386 C387 1.394 . S
C387 C383 1.397 . S
C387 C386 1.394 . S
C387 C397 1.723 . S
C388 C385 1.453 . S
C388 H412 0.982 . S
C388 H413 0.979 . S
C388 H414 0.977 . S
C389 C385 1.684 . S
C389 H415 0.979 . S
C389 H416 0.980 . S
C389 H417 0.983 . S
C390 H366 0.948 . S
C390 C391 1.391 . S
C390 C395 1.391 . S
C391 C390 1.391 . S
C391 C392 1.391 . S
C392 H369 0.947 . S
C392 C391 1.391 . S
C392 C393 1.392 . S
C393 H370 0.948 . S
C393 C392 1.392 . S
C393 C394 1.419 . S
C394 C393 1.419 . S
C394 C395 1.391 . S
C394 C398 1.397 . S
C395 C390 1.391 . S
C395 C394 1.391 . S
C395 C396 1.399 1_556 S
C396 C395 1.399 1_554 S
C396 C397 1.396 . S
C396 C399 1.453 . S
C396 C400 1.684 . S
C397 C387 1.723 . S
C397 C396 1.396 . S
C397 C398 1.394 1_554 S
C398 C368 1.723 . S
C398 C394 1.397 . S
C398 C397 1.394 1_556 S
C399 H371 0.982 . S
C399 H375 0.979 . S
C399 H376 0.977 . S
C399 C396 1.453 . S
C400 H372 0.979 . S
C400 H373 0.980 . S
C400 H374 0.983 . S
C400 C396 1.684 . S
H401 C419 0.948 1_554 S
H402 C360 0.953 . S
H403 C378 0.979 . S
H404 C378 0.980 . S
H405 C378 0.983 . S
H406 C377 0.982 . S
H407 C377 0.979 . S
H408 C377 0.977 . S
H409 C379 0.948 . S
H410 C381 0.947 . S
H411 C382 0.948 . S
H412 C388 0.982 . S
H413 C388 0.979 . S
H414 C388 0.977 . S
H415 C389 0.979 . S
H416 C389 0.980 . S
H417 C389 0.983 . S
H418 C362 0.947 . S
C419 C362 1.392 1_565 S
C419 C363 1.419 . S
C419 H401 0.948 1_556 S
C420 C421 1.391 . S
C420 C424 1.391 . S
C420 H462 0.948 . S
C421 C420 1.391 . S
C421 C422 1.391 . S
C422 C421 1.391 . S
C422 H478 0.947 . S
C422 C479 1.392 . S
C423 C424 1.391 . S
C423 C427 1.397 . S
C423 C479 1.419 . S
C424 C420 1.391 . S
C424 C423 1.391 . S
C424 C425 1.399 . S
C425 C424 1.399 . S
C425 C428 1.396 . S
C425 C437 1.453 . S
C425 C438 1.684 . S
H426 C450 0.948 . S
C427 C423 1.397 . S
C427 C428 1.394 . S
C427 C446 1.723 . S
C428 C425 1.396 . S
C428 C427 1.394 . S
C428 C458 1.723 . S
H429 C452 0.947 . S
H430 C453 0.948 . S
H431 C459 0.982 . S
H432 C460 0.979 1_565 S
H433 C460 0.980 . S
H434 C460 0.983 1_565 S
H435 C459 0.979 . S
H436 C459 0.977 . S
C437 C425 1.453 . S
C437 H466 0.982 . S
C437 H467 0.979 . S
C437 H468 0.977 . S
C438 C425 1.684 . S
C438 H463 0.979 . S
C438 H464 0.980 . S
C438 H465 0.983 . S
C439 C440 1.391 . S
C439 C444 1.391 . S
C439 H469 0.948 . S
C440 C439 1.391 . S
C440 C441 1.391 . S
C441 C440 1.391 . S
C441 C442 1.392 . S
C441 H470 0.947 . S
C442 C441 1.392 . S
C442 C443 1.419 . S
C442 H471 0.948 . S
C443 C442 1.419 . S
C443 C444 1.391 . S
C443 C447 1.397 . S
C444 C439 1.391 . S
C444 C443 1.391 . S
C444 C445 1.399 . S
C445 C444 1.399 . S
C445 C446 1.396 . S
C445 C448 1.453 . S
C445 C449 1.684 . S
C446 C427 1.723 . S
C446 C445 1.396 . S
C446 C447 1.394 . S
C447 C443 1.397 . S
C447 C446 1.394 . S
C447 C457 1.723 . S
C448 C445 1.453 . S
C448 H472 0.982 . S
C448 H473 0.979 . S
C448 H474 0.977 . S
C449 C445 1.684 . S
C449 H475 0.979 . S
C449 H476 0.980 . S
C449 H477 0.983 . S
C450 H426 0.948 . S
C450 C451 1.391 . S
C450 C455 1.391 1_565 S
C451 C450 1.391 . S
C451 C452 1.391 . S
C452 H429 0.947 . S
C452 C451 1.391 . S
C452 C453 1.392 1_565 S
C453 H430 0.948 . S
C453 C452 1.392 1_545 S
C453 C454 1.419 . S
C454 C453 1.419 . S
C454 C455 1.391 . S
C454 C458 1.397 . S
C455 C450 1.391 1_545 S
C455 C454 1.391 . S
C455 C456 1.399 . S
C456 C455 1.399 . S
C456 C457 1.396 . S
C456 C459 1.453 . S
C456 C460 1.684 . S
C457 C447 1.723 . S
C457 C456 1.396 . S
C457 C458 1.394 . S
C458 C428 1.723 . S
C458 C454 1.397 . S
C458 C457 1.394 . S
C459 H431 0.982 . S
C459 H435 0.979 . S
C459 H436 0.977 . S
C459 C456 1.453 . S
C460 H432 0.979 1_545 S
C460 H433 0.980 . S
C460 H434 0.983 1_545 S
C460 C456 1.684 . S
H461 C479 0.948 . S
H462 C420 0.948 . S
H463 C438 0.979 . S
H464 C438 0.980 . S
H465 C438 0.983 . S
H466 C437 0.982 . S
H467 C437 0.979 . S
H468 C437 0.977 . S
H469 C439 0.948 . S
H470 C441 0.947 . S
H471 C442 0.948 . S
H472 C448 0.982 . S
H473 C448 0.979 . S
H474 C448 0.977 . S
H475 C449 0.979 . S
H476 C449 0.980 . S
H477 C449 0.983 . S
H478 C422 0.947 . S
C479 C422 1.392 . S
C479 C423 1.419 . S
C479 H461 0.948 . S
Sc480 O483 2.025 . S
Sc480 O490 2.105 1_455 S
Sc480 O493 2.105 . S
Sc480 O496 2.105 . S
Sc480 O499 2.105 1_455 S
Sc481 O483 2.025 . S
Sc481 O491 2.105 1_455 S
Sc481 O495 2.105 . S
Sc481 O497 2.105 . S
Sc481 O501 2.105 1_455 S
Sc482 O483 2.025 . S
Sc482 O492 2.105 1_455 S
Sc482 O494 2.105 . S
Sc482 O498 2.105 . S
Sc482 O500 2.105 1_455 S
O483 Sc480 2.025 . S
O483 Sc481 2.025 . S
O483 Sc482 2.025 . S
C484 O490 1.268 . S
C484 O500 1.268 . S
C485 O491 1.268 . S
C485 O499 1.268 . S
C486 O492 1.268 . S
C486 O501 1.268 . S
C487 O493 1.268 . S
C487 O497 1.268 . S
C488 O494 1.268 . S
C488 O496 1.268 . S
C489 O495 1.268 . S
C489 O498 1.268 . S
O490 Sc480 2.105 1_655 S
O490 C484 1.268 . S
O491 Sc481 2.105 1_655 S
O491 C485 1.268 . S
O492 Sc482 2.105 1_655 S
O492 C486 1.268 . S
O493 Sc480 2.105 . S
O493 C487 1.268 . S
O494 Sc482 2.105 . S
O494 C488 1.268 . S
O495 Sc481 2.105 . S
O495 C489 1.268 . S
O496 Sc480 2.105 . S
O496 C488 1.268 . S
O497 Sc481 2.105 . S
O497 C487 1.268 . S
O498 Sc482 2.105 . S
O498 C489 1.268 . S
O499 Sc480 2.105 1_655 S
O499 C485 1.268 . S
O500 Sc482 2.105 1_655 S
O500 C484 1.268 . S
O501 Sc481 2.105 1_655 S
O501 C486 1.268 . S
Sc502 O505 2.025 . S
Sc502 O512 2.105 . S
Sc502 O515 2.105 1_455 S
Sc502 O518 2.105 1_455 S
Sc502 O521 2.105 . S
Sc503 O505 2.025 . S
Sc503 O513 2.105 . S
Sc503 O517 2.105 1_455 S
Sc503 O519 2.105 1_455 S
Sc503 O523 2.105 . S
Sc504 O505 2.025 . S
Sc504 O514 2.105 . S
Sc504 O516 2.105 1_455 S
Sc504 O520 2.105 1_455 S
Sc504 O522 2.105 . S
O505 Sc502 2.025 . S
O505 Sc503 2.025 . S
O505 Sc504 2.025 . S
C506 O512 1.268 . S
C506 O522 1.268 . S
C507 O513 1.268 . S
C507 O521 1.268 . S
C508 O514 1.268 . S
C508 O523 1.268 . S
C509 O515 1.268 . S
C509 O519 1.268 . S
C510 O516 1.268 . S
C510 O518 1.268 . S
C511 O517 1.268 . S
C511 O520 1.268 . S
O512 Sc502 2.105 . S
O512 C506 1.268 . S
O513 Sc503 2.105 . S
O513 C507 1.268 . S
O514 Sc504 2.105 . S
O514 C508 1.268 . S
O515 Sc502 2.105 1_655 S
O515 C509 1.268 . S
O516 Sc504 2.105 1_655 S
O516 C510 1.268 . S
O517 Sc503 2.105 1_655 S
O517 C511 1.268 . S
O518 Sc502 2.105 1_655 S
O518 C510 1.268 . S
O519 Sc503 2.105 1_655 S
O519 C509 1.268 . S
O520 Sc504 2.105 1_655 S
O520 C511 1.268 . S
O521 Sc502 2.105 . S
O521 C507 1.268 . S
O522 Sc504 2.105 . S
O522 C506 1.268 . S
O523 Sc503 2.105 . S
O523 C508 1.268 . S
Sc524 O527 2.025 . S
Sc524 O534 2.105 . S
Sc524 O537 2.105 . S
Sc524 O540 2.105 . S
Sc524 O543 2.105 . S
Sc525 O527 2.025 . S
Sc525 O535 2.105 . S
Sc525 O539 2.105 . S
Sc525 O541 2.105 . S
Sc525 O545 2.105 . S
Sc526 O527 2.025 . S
Sc526 O536 2.105 . S
Sc526 O538 2.105 . S
Sc526 O542 2.105 . S
Sc526 O544 2.105 . S
O527 Sc524 2.025 . S
O527 Sc525 2.025 . S
O527 Sc526 2.025 . S
C528 O534 1.268 . S
C528 O544 1.268 . S
C529 O535 1.268 . S
C529 O543 1.268 . S
C530 O536 1.268 . S
C530 O545 1.268 . S
C531 O537 1.268 . S
C531 O541 1.268 . S
C532 O538 1.268 . S
C532 O540 1.268 . S
C533 O539 1.268 . S
C533 O542 1.268 . S
O534 Sc524 2.105 . S
O534 C528 1.268 . S
O535 Sc525 2.105 . S
O535 C529 1.268 . S
O536 Sc526 2.105 . S
O536 C530 1.268 . S
O537 Sc524 2.105 . S
O537 C531 1.268 . S
O538 Sc526 2.105 . S
O538 C532 1.268 . S
O539 Sc525 2.105 . S
O539 C533 1.268 . S
O540 Sc524 2.105 . S
O540 C532 1.268 . S
O541 Sc525 2.105 . S
O541 C531 1.268 . S
O542 Sc526 2.105 . S
O542 C533 1.268 . S
O543 Sc524 2.105 . S
O543 C529 1.268 . S
O544 Sc526 2.105 . S
O544 C528 1.268 . S
O545 Sc525 2.105 . S
O545 C530 1.268 . S
Sc546 O549 2.025 . S
Sc546 O556 2.105 . S
Sc546 O559 2.105 . S
Sc546 O562 2.105 . S
Sc546 O565 2.105 . S
Sc547 O549 2.025 . S
Sc547 O557 2.105 . S
Sc547 O561 2.105 . S
Sc547 O563 2.105 . S
Sc547 O567 2.105 . S
Sc548 O549 2.025 . S
Sc548 O558 2.105 . S
Sc548 O560 2.105 . S
Sc548 O564 2.105 . S
Sc548 O566 2.105 . S
O549 Sc546 2.025 . S
O549 Sc547 2.025 . S
O549 Sc548 2.025 . S
C550 O556 1.268 . S
C550 O566 1.268 . S
C551 O557 1.268 . S
C551 O565 1.268 . S
C552 O558 1.268 . S
C552 O567 1.268 . S
C553 O559 1.268 . S
C553 O563 1.268 . S
C554 O560 1.268 . S
C554 O562 1.268 . S
C555 O561 1.268 . S
C555 O564 1.268 . S
O556 Sc546 2.105 . S
O556 C550 1.268 . S
O557 Sc547 2.105 . S
O557 C551 1.268 . S
O558 Sc548 2.105 . S
O558 C552 1.268 . S
O559 Sc546 2.105 . S
O559 C553 1.268 . S
O560 Sc548 2.105 . S
O560 C554 1.268 . S
O561 Sc547 2.105 . S
O561 C555 1.268 . S
O562 Sc546 2.105 . S
O562 C554 1.268 . S
O563 Sc547 2.105 . S
O563 C553 1.268 . S
O564 Sc548 2.105 . S
O564 C555 1.268 . S
O565 Sc546 2.105 . S
O565 C551 1.268 . S
O566 Sc548 2.105 . S
O566 C550 1.268 . S
O567 Sc547 2.105 . S
O567 C552 1.268 . S
C568 C569 1.170 . S
C568 C570 1.380 . S
C569 C568 1.170 . S
C570 C568 1.380 . S
C570 C571 1.170 . S
C571 C570 1.170 . S
C572 C573 1.170 . S
C572 C574 1.380 . S
C573 C572 1.170 . S
C574 C572 1.380 . S
C574 C575 1.170 . S
C575 C574 1.170 . S
C576 C577 1.170 . S
C576 C578 1.380 . S
C577 C576 1.170 . S
C578 C576 1.380 . S
C578 C579 1.170 . S
C579 C578 1.170 . S
C580 C581 1.170 . S
C580 C582 1.380 . S
C581 C580 1.170 . S
C582 C580 1.380 . S
C582 C583 1.170 . S
C583 C582 1.170 . S
C584 C585 1.170 . S
C584 C586 1.380 . S
C585 C584 1.170 . S
C586 C584 1.380 . S
C586 C587 1.170 . S
C587 C586 1.170 . S
C588 C589 1.170 . S
C588 C590 1.380 . S
C589 C588 1.170 . S
C590 C588 1.380 . S
C590 C591 1.170 . S
C591 C590 1.170 . S
C592 C593 1.170 . S
C592 C594 1.380 . S
C593 C592 1.170 . S
C594 C592 1.380 . S
C594 C595 1.170 . S
C595 C594 1.170 . S
C596 C597 1.170 . S
C596 C598 1.380 . S
C597 C596 1.170 . S
C598 C596 1.380 . S
C598 C599 1.170 . S
C599 C598 1.170 . S
C600 C601 1.170 . S
C600 C602 1.380 . S
C601 C600 1.170 . S
C602 C600 1.380 . S
C602 C603 1.170 . S
C603 C602 1.170 . S
C604 C605 1.170 . S
C604 C606 1.380 . S
C605 C604 1.170 . S
C606 C604 1.380 . S
C606 C607 1.170 . S
C607 C606 1.170 . S
C608 C609 1.170 . S
C608 C610 1.380 . S
C609 C608 1.170 . S
C610 C608 1.380 . S
C610 C611 1.170 . S
C611 C610 1.170 . S
C612 C613 1.170 . S
C612 C614 1.380 . S
C613 C612 1.170 . S
C614 C612 1.380 . S
C614 C615 1.170 . S
C615 C614 1.170 . S
C616 C617 1.170 . S
C616 C618 1.380 . S
C617 C616 1.170 . S
C618 C616 1.380 . S
C618 C619 1.170 . S
C619 C618 1.170 . S
C620 C621 1.170 . S
C620 C622 1.380 . S
C621 C620 1.170 . S
C622 C620 1.380 . S
C622 C623 1.170 . S
C623 C622 1.170 . S
C624 C625 1.170 . S
C624 C626 1.380 . S
C625 C624 1.170 . S
C626 C624 1.380 . S
C626 C627 1.170 . S
C627 C626 1.170 . S
C628 C629 1.170 . S
C628 C630 1.380 . S
C629 C628 1.170 . S
C630 C628 1.380 . S
C630 C631 1.170 . S
C631 C630 1.170 . S
C632 C633 1.170 . S
C632 C634 1.380 . S
C633 C632 1.170 . S
C634 C632 1.380 . S
C634 C635 1.170 . S
C635 C634 1.170 . S
C636 C637 1.170 . S
C636 C638 1.380 . S
C637 C636 1.170 . S
C638 C636 1.380 . S
C638 C639 1.170 . S
C639 C638 1.170 . S
C640 C641 1.170 . S
C640 C642 1.380 . S
C641 C640 1.170 . S
C642 C640 1.380 . S
C642 C643 1.170 . S
C643 C642 1.170 . S
C644 C645 1.170 . S
C644 C646 1.380 . S
C645 C644 1.170 . S
C646 C644 1.380 . S
C646 C647 1.170 . S
C647 C646 1.170 . S
C648 C649 1.170 . S
C648 C650 1.380 . S
C649 C648 1.170 . S
C650 C648 1.380 . S
C650 C651 1.170 . S
C651 C650 1.170 . S
C652 C653 1.170 . S
C652 C654 1.380 . S
C653 C652 1.170 . S
C654 C652 1.380 . S
C654 C655 1.170 . S
C655 C654 1.170 . S
C656 C657 1.170 . S
C656 C658 1.380 . S
C657 C656 1.170 . S
C658 C656 1.380 . S
C658 C659 1.170 . S
C659 C658 1.170 . S
C660 C661 1.170 . S
C660 C662 1.380 . S
C661 C660 1.170 . S
C662 C660 1.380 . S
C662 C663 1.170 . S
C663 C662 1.170 . S
C569 C31 1.509 . S
C571 C506 1.547 . S
C575 C484 1.543 . S
C573 C61 1.513 . S
C579 C510 1.548 . S
C577 C151 1.480 . S
C583 C488 1.510 . S
C581 C181 1.576 . S
C587 C550 1.510 . S
C585 C271 1.547 . S
C591 C528 1.513 . S
C589 C301 1.545 . S
C593 C391 1.478 . S
C595 C554 1.547 . S
C599 C532 1.521 . S
C597 C421 1.584 . S
C601 C20 1.585 . S
C603 C555 1.612 . S
C607 C533 1.600 . S
C605 C91 1.556 . S
C609 C121 1.471 . S
C611 C552 1.605 . S
C613 C211 1.614 . S
C615 C530 1.608 . S
C619 C511 1.606 . S
C617 C260 1.571 . S
C621 C331 1.577 . S
C623 C489 1.608 . S
C627 C508 1.602 . S
C625 C361 1.470 . S
C631 C486 1.603 . S
C629 C451 1.608 . S
C635 C529 1.592 . S
C633 C1 1.497 . S
C639 C551 1.592 . S
C637 C80 1.497 . S
C641 C140 1.560 . S
C643 C531 1.595 . S
C647 C553 1.582 . S
C645 C200 1.514 . S
C651 C485 1.592 . S
C649 C241 1.448 . S
C653 C320 1.484 . S
C655 C507 1.596 . S
C657 C380 1.525 . S
C659 C487 1.579 . S
C661 C440 1.525 . S
C663 C509 1.587 . S
