# Generated by pormake.
# Topology anh, (6,3)-cn, num edge types: 1
# Building blocks:
#     Node 0, Type 0, BuildingBlock: BETFAJ_clean_sbu_0, # of connection points: 6
#     Node 1, Type 0, BuildingBlock: BETFAJ_clean_sbu_0, # of connection points: 6
#     Node 2, Type 0, BuildingBlock: BETFAJ_clean_sbu_0, # of connection points: 6
#     Node 3, Type 1, BuildingBlock: ESEHIV_clean_linker_0, # of connection points: 3
#     Node 4, Type 1, BuildingBlock: ESEHIV_clean_linker_0, # of connection points: 3
#     Node 5, Type 1, BuildingBlock: ESEHIV_clean_linker_0, # of connection points: 3
#     Node 6, Type 1, BuildingBlock: ESEHIV_clean_linker_0, # of connection points: 3
#     Node 7, Type 1, BuildingBlock: ESEHIV_clean_linker_0, # of connection points: 3
#     Node 8, Type 1, BuildingBlock: ESEHIV_clean_linker_0, # of connection points: 3
#     Edge 9, Type (0, 1), BuildingBlock: ZUJKAS_clean_linker_0, # of connection points: 2
#     Edge 10, Type (0, 1), BuildingBlock: ZUJKAS_clean_linker_0, # of connection points: 2
#     Edge 11, Type (0, 1), BuildingBlock: ZUJKAS_clean_linker_0, # of connection points: 2
#     Edge 12, Type (0, 1), BuildingBlock: ZUJKAS_clean_linker_0, # of connection points: 2
#     Edge 13, Type (0, 1), BuildingBlock: ZUJKAS_clean_linker_0, # of connection points: 2
#     Edge 14, Type (0, 1), BuildingBlock: ZUJKAS_clean_linker_0, # of connection points: 2
#     Edge 15, Type (0, 1), BuildingBlock: ZUJKAS_clean_linker_0, # of connection points: 2
#     Edge 16, Type (0, 1), BuildingBlock: ZUJKAS_clean_linker_0, # of connection points: 2
#     Edge 17, Type (0, 1), BuildingBlock: ZUJKAS_clean_linker_0, # of connection points: 2
#     Edge 18, Type (0, 1), BuildingBlock: ZUJKAS_clean_linker_0, # of connection points: 2
#     Edge 19, Type (0, 1), BuildingBlock: ZUJKAS_clean_linker_0, # of connection points: 2
#     Edge 20, Type (0, 1), BuildingBlock: ZUJKAS_clean_linker_0, # of connection points: 2
#     Edge 21, Type (0, 1), BuildingBlock: ZUJKAS_clean_linker_0, # of connection points: 2
#     Edge 22, Type (0, 1), BuildingBlock: ZUJKAS_clean_linker_0, # of connection points: 2
#     Edge 23, Type (0, 1), BuildingBlock: ZUJKAS_clean_linker_0, # of connection points: 2
#     Edge 24, Type (0, 1), BuildingBlock: ZUJKAS_clean_linker_0, # of connection points: 2
#     Edge 25, Type (0, 1), BuildingBlock: ZUJKAS_clean_linker_0, # of connection points: 2
#     Edge 26, Type (0, 1), BuildingBlock: ZUJKAS_clean_linker_0, # of connection points: 2
# Relax obj value: 0.182
# Max RMSD: 0.208
# Mean RMSD: 0.155
data_MOF--net-anh--node1-BETFAJ_clean_sbu_0--node2-ESEHIV_clean_linker_0--edge1-ZUJKAS_clean_linker_0
_symmetry_space_group_name_H-M    P1
_symmetry_Int_Tables_number       1
_symmetry_cell_setting            triclinic
loop_
_symmetry_equiv_pos_as_xyz
'x, y, z'
_cell_length_a     39.305414
_cell_length_b     44.35427
_cell_length_c     67.814887
_cell_angle_alpha  92.080265
_cell_angle_beta   89.761362
_cell_angle_gamma 128.6993
loop_
_atom_site_label
_atom_site_type_symbol
_atom_site_fract_x
_atom_site_fract_y
_atom_site_fract_z
_atom_type_partial_charge
Sm0 Sm 0.07623 0.51827 0.14032 0.0
Sm1 Sm 1.02387 0.54845 0.15302 0.0
C2 C 0.12188 0.50256 0.12108 0.0
C3 C 0.16159 0.508 0.12674 0.0
C4 C 0.1993 0.53124 0.11559 0.0
C5 C 0.23765 0.5379 0.12138 0.0
C6 C 0.23865 0.52111 0.13831 0.0
C7 C 0.20107 0.49824 0.14957 0.0
C8 C 0.16296 0.49189 0.14391 0.0
C9 C 0.07478 0.52349 0.18116 0.0
C10 C 0.12917 0.61238 0.15106 0.0
C11 C 0.97095 0.55935 0.1693 0.0
C12 C 0.93102 0.53515 0.1807 0.0
C13 C 0.91717 0.55201 0.19254 0.0
C14 C 0.8765 0.52863 0.20144 0.0
C15 C 0.84929 0.4881 0.1986 0.0
C16 C 0.86487 0.47146 0.18786 0.0
C17 C 0.9052 0.49478 0.17893 0.0
C18 C 0.04193 0.5506 0.11339 0.0
C19 C 0.97286 0.45387 0.14822 0.0
O20 O 0.12694 0.53434 0.11858 0.0
O21 O 0.08643 0.47646 0.13053 0.0
O22 O 0.05877 0.53174 0.1686 0.0
O23 O 0.09385 0.51175 0.17195 0.0
O24 O 0.12878 0.58558 0.14134 0.0
O25 O 0.09363 0.60427 0.15902 0.0
O26 O 1.00692 0.57034 0.17806 0.0
O27 O 0.96742 0.54798 0.15079 0.0
O28 O 1.03035 0.52394 0.12471 0.0
O29 O 0.04213 0.5769 0.12266 0.0
O30 O 0.97502 0.48214 0.15715 0.0
O31 O 1.0057 0.461 0.13792 0.0
H32 H 0.19907 0.54422 0.10241 0.0
H33 H 0.26612 0.55524 0.11232 0.0
H34 H 0.20115 0.48513 0.16272 0.0
H35 H 0.13466 0.47437 0.15304 0.0
H36 H 0.9369 0.58317 0.1942 0.0
H37 H 0.8654 0.54226 0.20971 0.0
H38 H 0.84455 0.44047 0.18501 0.0
H39 H 0.915 0.48118 0.16973 0.0
Sm40 Sm 0.57769 0.01336 0.47552 0.0
Sm41 Sm 0.52593 0.0405 0.46801 0.0
C42 C 0.60994 0.98085 0.48999 0.0
C43 C 0.59839 0.943 0.49438 0.0
C44 C 0.59861 0.93445 0.51408 0.0
C45 C 0.59167 0.90054 0.51863 0.0
C46 C 0.58467 0.87441 0.50357 0.0
C47 C 0.58332 0.88249 0.48383 0.0
C48 C 0.59018 0.91646 0.47928 0.0
C49 C 0.57203 0.02392 0.43636 0.0
C50 C 0.47086 0.94823 0.4673 0.0
C51 C 0.49441 0.07572 0.45706 0.0
C52 C 0.50186 0.11146 0.46363 0.0
C53 C 0.49001 0.12835 0.4513 0.0
C54 C 0.49667 0.16215 0.45759 0.0
C55 C 0.51526 0.17964 0.47638 0.0
C56 C 0.52734 0.16258 0.48861 0.0
C57 C 0.52087 0.12895 0.48226 0.0
C58 C 0.53466 0.03231 0.50741 0.0
C59 C 0.63429 0.10544 0.47132 0.0
O60 O 0.59278 0.99291 0.50096 0.0
O61 O 0.61302 0.98953 0.4715 0.0
O62 O 0.54089 0.00863 0.4482 0.0
O63 O 0.60671 0.03207 0.44473 0.0
O64 O 0.50568 0.95639 0.47641 0.0
O65 O 0.47253 0.97602 0.45953 0.0
O66 O 0.52694 0.08017 0.44834 0.0
O67 O 0.47537 0.04818 0.46964 0.0
O68 O 0.56458 0.04707 0.49501 0.0
O69 O 0.49929 0.02306 0.49938 0.0
O70 O 0.59715 0.09676 0.46505 0.0
O71 O 0.63523 0.07872 0.4786 0.0
H72 H 0.605 0.95443 0.52601 0.0
H73 H 0.59214 0.89495 0.534 0.0
H74 H 0.57839 0.8632 0.47186 0.0
H75 H 0.59 0.92225 0.46392 0.0
H76 H 0.47558 0.11539 0.43681 0.0
H77 H 0.48759 0.17475 0.44765 0.0
H78 H 0.54114 0.1748 0.50325 0.0
H79 H 0.5304 0.11638 0.49198 0.0
Sm80 Sm 0.59015 0.56616 0.84438 0.0
Sm81 Sm 0.53044 0.48091 0.84758 0.0
C82 C 0.62882 0.63743 0.83284 0.0
C83 C 0.61925 0.66422 0.82912 0.0
C84 C 0.57935 0.65113 0.82057 0.0
C85 C 0.57226 0.67747 0.81606 0.0
C86 C 0.60478 0.71745 0.82011 0.0
C87 C 0.6443 0.73023 0.82905 0.0
C88 C 0.65142 0.70392 0.83346 0.0
C89 C 0.57892 0.54244 0.8822 0.0
C90 C 0.48037 0.52062 0.84903 0.0
C91 C 0.49302 0.40795 0.85518 0.0
C92 C 0.49997 0.37997 0.84861 0.0
C93 C 0.49104 0.35158 0.86125 0.0
C94 C 0.49704 0.32468 0.85504 0.0
C95 C 0.51203 0.3255 0.83598 0.0
C96 C 0.52127 0.35435 0.82344 0.0
C97 C 0.51551 0.38132 0.8297 0.0
C98 C 0.54338 0.50402 0.80938 0.0
C99 C 0.64132 0.52772 0.84677 0.0
O100 O 0.611 0.60729 0.82065 0.0
O101 O 0.62944 0.62958 0.85118 0.0
O102 O 0.54896 0.52805 0.86929 0.0
O103 O 0.61628 0.57189 0.87576 0.0
O104 O 0.51972 0.55184 0.84353 0.0
O105 O 0.47667 0.48954 0.85363 0.0
O106 O 0.52354 0.43732 0.86656 0.0
O107 O 0.47831 0.41792 0.84178 0.0
O108 O 0.57284 0.51875 0.82258 0.0
O109 O 0.50605 0.47528 0.81596 0.0
O110 O 0.60093 0.49569 0.8504 0.0
O111 O 0.64597 0.55929 0.84231 0.0
H112 H 0.55383 0.6206 0.81716 0.0
H113 H 0.54123 0.66651 0.80943 0.0
H114 H 0.67028 0.76075 0.83218 0.0
H115 H 0.6825 0.71472 0.83997 0.0
H116 H 0.47936 0.35017 0.87596 0.0
H117 H 0.49028 0.30348 0.86529 0.0
H118 H 0.53226 0.35577 0.80858 0.0
H119 H 0.5229 0.40309 0.81968 0.0
H120 H 0.49318 0.97868 0.2217 0.0
H121 H 0.61363 0.09422 0.22443 0.0
H122 H 0.55638 0.03471 0.16777 0.0
C123 C 0.51999 1.00369 0.21416 0.0
C124 C 0.5201 1.00276 0.19344 0.0
C125 C 0.55363 0.03638 0.22534 0.0
C126 C 0.58808 0.06884 0.21563 0.0
C127 C 0.59025 0.06883 0.19486 0.0
C128 C 0.55568 0.03539 0.18374 0.0
H129 H 0.57603 0.58463 0.59852 0.0
H130 H 0.56866 0.48383 0.59446 0.0
H131 H 0.56497 0.53265 0.54158 0.0
C132 C 0.57355 0.56251 0.58962 0.0
C133 C 0.57062 0.56216 0.56894 0.0
C134 C 0.57312 0.53455 0.59897 0.0
C135 C 0.57 0.50603 0.58734 0.0
C136 C 0.56677 0.50491 0.56664 0.0
C137 C 0.56678 0.53296 0.55754 0.0
H138 H 1.01028 0.52974 0.89968 0.0
H139 H 0.11691 0.52683 0.89898 0.0
H140 H 0.06111 0.52574 0.84357 0.0
C141 C 0.03324 0.52939 0.89097 0.0
C142 C 1.03036 0.52872 0.87024 0.0
C143 C 0.06404 0.52905 0.90116 0.0
C144 C 0.09338 0.52682 0.89068 0.0
C145 C 0.09416 0.5255 0.86993 0.0
C146 C 0.06169 0.52644 0.85953 0.0
H147 H 0.99621 0.46002 0.39458 0.0
H148 H 0.10345 0.58157 0.3962 0.0
H149 H 0.0525 0.52246 0.45059 0.0
C150 C 1.01998 0.48674 0.403 0.0
C151 C 1.02029 0.4867 0.42379 0.0
C152 C 0.0499 0.52067 0.39293 0.0
C153 C 0.08044 0.5552 0.40389 0.0
C154 C 0.08192 0.55644 0.42462 0.0
C155 C 0.05165 0.52191 0.43461 0.0
H156 H 0.55773 0.07086 0.72286 0.0
H157 H 0.5694 0.98089 0.71953 0.0
H158 H 0.56613 0.02607 0.77628 0.0
C159 C 0.56072 0.05127 0.73019 0.0
C160 C 0.56145 0.05155 0.75094 0.0
C161 C 0.56386 0.02609 0.71877 0.0
C162 C 0.56795 1.00091 0.72835 0.0
C163 C 0.56868 1.00037 0.74911 0.0
C164 C 0.56494 0.02564 0.76031 0.0
H165 H 0.47966 0.42792 0.07511 0.0
H166 H 0.53014 0.36558 0.07771 0.0
H167 H 0.49425 0.39456 0.13098 0.0
C168 C 0.48763 0.41265 0.08351 0.0
C169 C 0.48428 0.41247 0.10407 0.0
C170 C 0.50387 0.39568 0.07381 0.0
C171 C 0.51668 0.37806 0.08499 0.0
C172 C 0.51238 0.37685 0.10564 0.0
C173 C 0.4962 0.39416 0.11503 0.0
H174 H 0.32398 0.58678 0.14129 0.0
H175 H 0.3884 0.59021 0.14569 0.0
H176 H 0.3043 0.46616 0.14986 0.0
H177 H 0.24054 0.46289 0.14625 0.0
H178 H 0.37568 0.50167 0.1741 0.0
H179 H 0.42398 0.55928 0.09852 0.0
H180 H 0.42262 0.58792 0.11741 0.0
H181 H 0.37266 0.54286 0.10847 0.0
C182 C 0.31953 0.56045 0.14347 0.0
C183 C 0.27749 0.52453 0.14324 0.0
C184 C 0.35621 0.56242 0.14596 0.0
C185 C 0.35114 0.52837 0.14773 0.0
C186 C 0.30904 0.49285 0.14861 0.0
H187 H 0.41401 0.40768 0.09473 0.0
H188 H 0.39425 0.44597 0.10908 0.0
C189 C 0.27258 0.49096 0.14647 0.0
C190 C 0.38828 0.52782 0.14608 0.0
H191 H 0.45082 0.52933 0.11052 0.0
C192 C 0.39329 0.50877 0.16047 0.0
C193 C 0.41147 0.5375 0.12831 0.0
C194 C 0.4075 0.55787 0.11222 0.0
C195 C 0.41651 0.49491 0.15656 0.0
C196 C 0.43574 0.50113 0.13798 0.0
C197 C 0.43541 0.52437 0.12465 0.0
C198 C 0.44797 0.47759 0.13039 0.0
C199 C 0.41666 0.47053 0.17144 0.0
C200 C 0.4843 0.48235 0.1379 0.0
C201 C 0.49545 0.46019 0.12978 0.0
C202 C 0.47056 0.43338 0.11397 0.0
C203 C 0.43384 0.42833 0.10679 0.0
C204 C 0.42263 0.45019 0.11495 0.0
H205 H 0.39828 0.46693 0.18484 0.0
H206 H 0.40208 0.44149 0.1647 0.0
H207 H 0.45075 0.48426 0.17598 0.0
H208 H 0.50442 0.50363 0.1497 0.0
H209 H 0.52426 0.4649 0.1354 0.0
H210 H 0.64382 0.16766 0.4575 0.0
H211 H 0.71107 0.23278 0.4525 0.0
H212 H 0.78629 0.20101 0.47549 0.0
H213 H 0.71882 0.13551 0.48074 0.0
H214 H 0.81681 0.27575 0.48935 0.0
H215 H 0.79506 0.25893 0.40787 0.0
H216 H 0.74931 0.24923 0.42072 0.0
H217 H 0.76382 0.21839 0.42366 0.0
C218 C 0.67455 0.17435 0.46159 0.0
C219 C 0.67561 0.14592 0.46941 0.0
C220 C 0.71316 0.21175 0.45862 0.0
C221 C 0.75404 0.22187 0.46328 0.0
C222 C 0.75527 0.194 0.47167 0.0
H223 H 0.9988 0.416 0.41502 0.0
H224 H 0.93652 0.35306 0.4263 0.0
C225 C 0.71656 0.15644 0.47464 0.0
C226 C 0.79527 0.26113 0.4589 0.0
H227 H 0.85192 0.3217 0.4211 0.0
C228 C 0.82454 0.28578 0.47442 0.0
C229 C 0.80584 0.27428 0.43941 0.0
C230 C 0.77713 0.24877 0.42191 0.0
C231 C 0.8635 0.3232 0.47101 0.0
C232 C 0.87347 0.33667 0.45156 0.0
C233 C 0.84439 0.31175 0.43605 0.0
C234 C 0.91432 0.37585 0.44665 0.0
C235 C 0.89406 0.34768 0.48822 0.0
C236 C 0.92369 0.4102 0.45459 0.0
C237 C 0.95974 0.44657 0.44816 0.0
C238 C 0.98692 0.44935 0.43348 0.0
C239 C 0.97843 0.415 0.42622 0.0
C240 C 0.94267 0.37888 0.43265 0.0
H241 H 0.88758 0.32997 0.50103 0.0
H242 H 0.92857 0.36368 0.48401 0.0
H243 H 0.88951 0.36914 0.49296 0.0
H244 H 0.90209 0.40888 0.46514 0.0
H245 H 0.96496 0.47232 0.45388 0.0
H246 H 0.6282 0.7821 0.84139 0.0
H247 H 0.61999 0.82992 0.83173 0.0
H248 H 0.5592 0.76576 0.77659 0.0
H249 H 0.56702 0.71774 0.7862 0.0
H250 H 0.65398 0.87716 0.80149 0.0
H251 H 0.47408 0.78254 0.79442 0.0
H252 H 0.50212 0.76742 0.80605 0.0
H253 H 0.49666 0.7649 0.77957 0.0
C254 C 0.61298 0.77808 0.82721 0.0
C255 C 0.59813 0.74586 0.81462 0.0
C256 C 0.60817 0.80543 0.82173 0.0
C257 C 0.58831 0.80129 0.80354 0.0
C258 C 0.57352 0.7692 0.79093 0.0
H259 H 0.62098 0.98166 0.73829 0.0
H260 H 0.62543 0.9345 0.75253 0.0
C261 C 0.57811 0.74171 0.79644 0.0
C262 C 0.58493 0.8314 0.79742 0.0
H263 H 0.51339 0.84459 0.78043 0.0
C264 C 0.62314 0.87001 0.79703 0.0
C265 C 0.54468 0.82243 0.79189 0.0
C266 C 0.502 0.78215 0.79319 0.0
C267 C 0.62242 0.89951 0.79074 0.0
C268 C 0.58252 0.89019 0.78422 0.0
C269 C 0.54409 0.85181 0.78519 0.0
C270 C 0.58014 0.91954 0.77583 0.0
C271 C 0.66449 0.9405 0.79135 0.0
C272 C 0.55241 0.92647 0.78384 0.0
C273 C 0.54925 0.95319 0.77549 0.0
C274 C 0.57348 0.97335 0.75882 0.0
C275 C 0.60141 0.96645 0.75096 0.0
C276 C 0.60446 0.93977 0.75927 0.0
H277 H 0.68822 0.94465 0.80228 0.0
H278 H 0.67953 0.94704 0.77664 0.0
H279 H 0.65875 0.96155 0.79512 0.0
H280 H 0.53306 0.91108 0.79653 0.0
H281 H 0.52703 0.95734 0.78181 0.0
H282 H 0.79713 0.41557 0.21385 0.0
H283 H 0.7174 0.36898 0.21033 0.0
H284 H 0.71623 0.45862 0.18865 0.0
H285 H 0.79471 0.50485 0.19248 0.0
H286 H 0.64208 0.40554 0.20765 0.0
H287 H 0.67884 0.33151 0.15387 0.0
H288 H 0.69099 0.33356 0.1796 0.0
H289 H 0.72222 0.37698 0.16598 0.0
C290 C 0.77954 0.42548 0.20897 0.0
C291 C 0.80225 0.46368 0.20303 0.0
C292 C 0.73407 0.3988 0.20688 0.0
C293 C 0.71105 0.40999 0.19856 0.0
C294 C 0.73326 0.44917 0.19499 0.0
H295 H 0.5922 0.39503 0.10396 0.0
H296 H 0.6274 0.38497 0.12939 0.0
C297 C 0.77839 0.47578 0.19725 0.0
C298 C 0.66624 0.38146 0.19017 0.0
H299 H 0.61711 0.32598 0.14776 0.0
C300 C 0.63563 0.38695 0.19493 0.0
C301 C 0.65779 0.35679 0.17373 0.0
C302 C 0.68907 0.34924 0.16786 0.0
C303 C 0.60047 0.3735 0.18208 0.0
C304 C 0.59506 0.35275 0.1644 0.0
C305 C 0.62182 0.34232 0.16121 0.0
C306 C 0.57001 0.35027 0.14728 0.0
C307 C 0.57275 0.38563 0.18644 0.0
C308 C 0.52544 0.33233 0.14832 0.0
C309 C 0.5054 0.3385 0.13384 0.0
C310 C 0.52952 0.36205 0.11798 0.0
C311 C 0.57283 0.3766 0.11595 0.0
C312 C 0.59295 0.37089 0.13052 0.0
H313 H 0.58436 0.40508 0.19985 0.0
H314 H 0.57271 0.40082 0.17379 0.0
H315 H 0.53865 0.35964 0.1888 0.0
H316 H 0.50686 0.31548 0.16085 0.0
H317 H 0.47174 0.32663 0.13556 0.0
H318 H 0.45544 0.88242 0.48009 0.0
H319 H 0.38887 0.81519 0.47552 0.0
H320 H 0.32662 0.85354 0.44533 0.0
H321 H 0.39299 0.92057 0.44958 0.0
H322 H 0.30326 0.77711 0.48741 0.0
H323 H 0.30893 0.77354 0.4058 0.0
H324 H 0.35464 0.8118 0.42107 0.0
H325 H 0.31011 0.81221 0.41579 0.0
C326 C 0.42763 0.87662 0.47245 0.0
C327 C 0.42996 0.90717 0.46507 0.0
C328 C 0.38945 0.83804 0.46988 0.0
C329 C 0.35271 0.82896 0.45977 0.0
C330 C 0.35467 0.85948 0.45279 0.0
H331 H 0.09659 0.62452 0.42074 0.0
H332 H 0.16128 0.68939 0.43135 0.0
C333 C 0.39275 0.89799 0.45534 0.0
C334 C 0.31247 0.78775 0.45638 0.0
H335 H 0.24345 0.72079 0.42 0.0
C336 C 0.29033 0.76471 0.47266 0.0
C337 C 0.29549 0.77123 0.43715 0.0
C338 C 0.31871 0.7933 0.41894 0.0
C339 C 0.25112 0.72635 0.47025 0.0
C340 C 0.23372 0.71019 0.45102 0.0
C341 C 0.25635 0.73305 0.43477 0.0
C342 C 0.19174 0.67008 0.44718 0.0
C343 C 0.22797 0.70389 0.48835 0.0
C344 C 0.18623 0.63708 0.45298 0.0
C345 C 0.14873 0.59965 0.44704 0.0
C346 C 0.11622 0.5945 0.43502 0.0
C347 C 0.12093 0.62747 0.43006 0.0
C348 C 0.15811 0.66465 0.43603 0.0
H349 H 0.23923 0.72318 0.50182 0.0
H350 H 0.19214 0.68685 0.48654 0.0
H351 H 0.23476 0.68345 0.49065 0.0
H352 H 0.21186 0.64026 0.46126 0.0
H353 H 0.14648 0.57493 0.45079 0.0
H354 H 0.57544 0.3362 0.81214 0.0
H355 H 0.58259 0.28803 0.79982 0.0
H356 H 0.47052 0.20088 0.83274 0.0
H357 H 0.46162 0.24833 0.84428 0.0
H358 H 0.59735 0.24454 0.81835 0.0
H359 H 0.43694 0.14744 0.77904 0.0
H360 H 0.45905 0.19513 0.78853 0.0
H361 H 0.43292 0.15541 0.80477 0.0
C362 C 0.55179 0.30668 0.81655 0.0
C363 C 0.51761 0.29631 0.8291 0.0
C364 C 0.55621 0.27916 0.80961 0.0
C365 C 0.52664 0.2405 0.815 0.0
C366 C 0.49318 0.23022 0.82792 0.0
H367 H 0.51001 0.03745 0.78259 0.0
H368 H 0.50231 0.08265 0.79976 0.0
C369 C 0.48853 0.25767 0.83478 0.0
C370 C 0.53125 0.21126 0.80721 0.0
H371 H 0.47788 0.12497 0.78091 0.0
C372 C 0.57118 0.21843 0.81016 0.0
C373 C 0.49716 0.17703 0.79649 0.0
C374 C 0.45426 0.16838 0.79183 0.0
C375 C 0.57789 0.19248 0.80276 0.0
C376 C 0.54393 0.15847 0.79198 0.0
C377 C 0.5038 0.15092 0.78928 0.0
C378 C 0.55019 0.13148 0.78244 0.0
C379 C 0.62127 0.20156 0.80662 0.0
C380 C 0.57965 0.14385 0.76704 0.0
C381 C 0.58395 0.11814 0.7572 0.0
C382 C 0.55891 0.07936 0.76253 0.0
C383 C 0.53002 0.06717 0.77825 0.0
C384 C 0.52543 0.09291 0.78799 0.0
H385 H 0.63967 0.22316 0.81907 0.0
H386 H 0.61683 0.17498 0.80995 0.0
H387 H 0.64124 0.21368 0.79323 0.0
H388 H 0.59871 0.17328 0.76232 0.0
H389 H 0.60672 0.12856 0.74527 0.0
H390 H 0.63111 0.86968 0.53141 0.0
H391 H 0.62415 0.81306 0.53987 0.0
H392 H 0.52271 0.74406 0.49527 0.0
H393 H 0.52906 0.80066 0.48681 0.0
H394 H 0.5489 0.74227 0.55301 0.0
H395 H 0.60839 0.72174 0.4832 0.0
H396 H 0.61751 0.76616 0.48976 0.0
H397 H 0.56484 0.72446 0.48072 0.0
C398 C 0.60703 0.84244 0.52347 0.0
C399 C 0.58049 0.83975 0.50847 0.0
C400 C 0.60332 0.81014 0.52825 0.0
C401 C 0.57326 0.77445 0.51807 0.0
C402 C 0.54669 0.77151 0.50307 0.0
H403 H 0.5194 0.55338 0.53814 0.0
H404 H 0.5177 0.6031 0.52464 0.0
C405 C 0.55035 0.80389 0.49826 0.0
C406 C 0.56913 0.7403 0.52376 0.0
H407 H 0.58591 0.67662 0.50775 0.0
C408 C 0.55683 0.72783 0.54308 0.0
C409 C 0.57918 0.72132 0.51074 0.0
C410 C 0.59354 0.73414 0.48997 0.0
C411 C 0.55489 0.69728 0.54984 0.0
C412 C 0.56631 0.67912 0.53705 0.0
C413 C 0.57733 0.69072 0.51753 0.0
C414 C 0.56907 0.64942 0.54411 0.0
C415 C 0.54066 0.68469 0.57066 0.0
C416 C 0.59939 0.65928 0.55907 0.0
C417 C 0.60059 0.63114 0.56671 0.0
C418 C 0.57152 0.59246 0.55952 0.0
C419 C 0.54231 0.58292 0.54395 0.0
C420 C 0.54116 0.61122 0.53629 0.0
H421 H 0.52198 0.69397 0.5766 0.0
H422 H 0.52021 0.65278 0.57137 0.0
H423 H 0.56992 0.69802 0.58034 0.0
H424 H 0.62188 0.68878 0.56501 0.0
H425 H 0.62416 0.63966 0.57837 0.0
H426 H 0.72807 0.58117 0.83308 0.0
H427 H 0.79043 0.58067 0.83482 0.0
H428 H 0.71169 0.47426 0.86507 0.0
H429 H 0.64921 0.47426 0.86294 0.0
H430 H 0.81005 0.53089 0.82077 0.0
H431 H 0.81884 0.53499 0.9022 0.0
H432 H 0.76619 0.49618 0.89162 0.0
H433 H 0.78743 0.54536 0.88922 0.0
C434 C 0.72347 0.55742 0.84015 0.0
C435 C 0.68176 0.52782 0.84787 0.0
C436 C 0.76 0.55708 0.84114 0.0
C437 C 0.75811 0.52767 0.85035 0.0
C438 C 0.7164 0.49812 0.85807 0.0
H439 H 1.01433 0.57943 0.8826 0.0
H440 H 0.9515 0.57745 0.87754 0.0
C441 C 0.67966 0.49803 0.85673 0.0
C442 C 0.79874 0.52789 0.85195 0.0
H443 H 0.86492 0.52629 0.88524 0.0
C444 C 0.82148 0.52971 0.83501 0.0
C445 C 0.81616 0.52673 0.87021 0.0
C446 C 0.79633 0.52604 0.88941 0.0
C447 C 0.85841 0.52968 0.83577 0.0
C448 C 0.87555 0.52816 0.85403 0.0
C449 C 0.85327 0.52708 0.87097 0.0
C450 C 0.91694 0.52955 0.85609 0.0
C451 C 0.87965 0.53229 0.81668 0.0
C452 C 0.92208 0.50384 0.84579 0.0
C453 C 0.95921 0.50463 0.84892 0.0
C454 C 0.99433 0.53161 0.86238 0.0
C455 C 0.98946 0.55795 0.87199 0.0
C456 C 0.95239 0.55671 0.86916 0.0
H457 H 0.87059 0.5426 0.80466 0.0
H458 H 0.91571 0.55206 0.81854 0.0
H459 H 0.86886 0.50318 0.81209 0.0
H460 H 0.89631 0.48173 0.83571 0.0
H461 H 0.95929 0.48277 0.84134 0.0
H462 H 0.21098 0.64188 0.13798 0.0
H463 H 0.27921 0.70832 0.14235 0.0
H464 H 0.21026 0.74181 0.17275 0.0
H465 H 0.14236 0.67573 0.16874 0.0
H466 H 0.3045 0.77932 0.13048 0.0
H467 H 0.30808 0.77856 0.21204 0.0
H468 H 0.27208 0.73492 0.19682 0.0
H469 H 0.25811 0.76595 0.2023 0.0
C470 C 0.21026 0.66333 0.14563 0.0
C471 C 0.1709 0.65305 0.15314 0.0
C472 C 0.24942 0.70144 0.14808 0.0
C473 C 0.2503 0.73019 0.15821 0.0
C474 C 0.21089 0.72016 0.16529 0.0
H475 H 0.43471 0.97048 0.19642 0.0
H476 H 0.3711 0.90516 0.18572 0.0
C477 C 0.17185 0.68219 0.16288 0.0
C478 C 0.29216 0.77055 0.16152 0.0
H479 H 0.35704 0.83989 0.19782 0.0
C480 C 0.3162 0.79247 0.14521 0.0
C481 C 0.30786 0.78787 0.18073 0.0
C482 C 0.28547 0.76552 0.19898 0.0
C483 C 0.35424 0.83146 0.14757 0.0
C484 C 0.36912 0.84904 0.16678 0.0
C485 C 0.34562 0.82676 0.18306 0.0
C486 C 0.40802 0.89069 0.17057 0.0
C487 C 0.37735 0.85391 0.12946 0.0
C488 C 0.45034 0.90521 0.16515 0.0
C489 C 0.48701 0.94303 0.17115 0.0
C490 C 0.48207 0.96692 0.1828 0.0
C491 C 0.43959 0.95292 0.18734 0.0
C492 C 0.40317 0.91541 0.18133 0.0
H493 H 0.35653 0.83934 0.11591 0.0
H494 H 0.38748 0.88354 0.13107 0.0
H495 H 0.40712 0.8565 0.12752 0.0
H496 H 0.45526 0.88669 0.15716 0.0
H497 H 0.51931 0.95267 0.16776 0.0
H498 H 0.46099 0.19785 0.47037 0.0
H499 H 0.47091 0.25559 0.48236 0.0
H500 H 0.59217 0.29861 0.51111 0.0
H501 H 0.58369 0.24204 0.49837 0.0
H502 H 0.47544 0.28003 0.51982 0.0
H503 H 0.62872 0.39271 0.48301 0.0
H504 H 0.59705 0.34195 0.4762 0.0
H505 H 0.63385 0.36244 0.49729 0.0
C506 C 0.49027 0.21995 0.47889 0.0
C507 C 0.52162 0.21522 0.48331 0.0
C508 C 0.4957 0.25284 0.48587 0.0
C509 C 0.53263 0.28181 0.49738 0.0
C510 C 0.56391 0.27716 0.50187 0.0
H511 H 0.61422 0.47961 0.5709 0.0
H512 H 0.60486 0.42601 0.55278 0.0
C513 C 0.55864 0.24442 0.49481 0.0
C514 C 0.53736 0.31588 0.50555 0.0
H515 H 0.60751 0.41469 0.50949 0.0
C516 C 0.50408 0.30947 0.51735 0.0
C517 C 0.5747 0.35435 0.50231 0.0
C518 C 0.61039 0.36334 0.48885 0.0
C519 C 0.50779 0.34037 0.52651 0.0
C520 C 0.54564 0.3787 0.5237 0.0
C521 C 0.57859 0.38522 0.51165 0.0
C522 C 0.55233 0.41228 0.53385 0.0
C523 C 0.47188 0.33184 0.53965 0.0
C524 C 0.52639 0.42274 0.52894 0.0
C525 C 0.53172 0.45344 0.53924 0.0
C526 C 0.56294 0.47404 0.55471 0.0
C527 C 0.58951 0.46398 0.55924 0.0
C528 C 0.58437 0.43352 0.54885 0.0
H529 H 0.44822 0.30068 0.54284 0.0
H530 H 0.48573 0.34898 0.55384 0.0
H531 H 0.45393 0.34024 0.53228 0.0
H532 H 0.50174 0.40689 0.51727 0.0
H533 H 0.51063 0.46037 0.53548 0.0
H534 H 0.39181 0.46243 0.85932 0.0
H535 H 0.32991 0.46346 0.86083 0.0
H536 H 0.41375 0.58157 0.84371 0.0
H537 H 0.47501 0.58013 0.84168 0.0
H538 H 0.29929 0.49205 0.87985 0.0
H539 H 0.32161 0.55643 0.80838 0.0
H540 H 0.35278 0.54124 0.8154 0.0
H541 H 0.36905 0.58764 0.82407 0.0
C542 C 0.39751 0.48879 0.85567 0.0
C543 C 0.44024 0.52105 0.85017 0.0
C544 C 0.36119 0.48945 0.8566 0.0
C545 C 0.36436 0.52229 0.85194 0.0
C546 C 0.4074 0.55474 0.84677 0.0
H547 H 0.17859 0.583 0.85481 0.0
H548 H 0.24034 0.58199 0.85062 0.0
C549 C 0.44366 0.55407 0.84581 0.0
C550 C 0.3239 0.52268 0.85299 0.0
H551 H 0.27138 0.553 0.82969 0.0
C552 C 0.29365 0.50531 0.8686 0.0
C553 C 0.31387 0.5397 0.83882 0.0
C554 C 0.3407 0.55696 0.82063 0.0
C555 C 0.25682 0.50524 0.87065 0.0
C556 C 0.24676 0.52221 0.85648 0.0
C557 C 0.27704 0.53969 0.84089 0.0
C558 C 0.20604 0.52218 0.85761 0.0
C559 C 0.2299 0.48792 0.88882 0.0
C560 C 0.16308 0.48901 0.86221 0.0
C561 C 0.1269 0.48951 0.86432 0.0
C562 C 0.12997 0.52285 0.86149 0.0
C563 C 0.1726 0.55584 0.85635 0.0
C564 C 0.20898 0.55536 0.85421 0.0
H565 H 0.24893 0.48842 0.90108 0.0
H566 H 0.21775 0.50359 0.89404 0.0
H567 H 0.20156 0.45725 0.88535 0.0
H568 H 0.15706 0.46206 0.86448 0.0
H569 H 0.09616 0.46347 0.86898 0.0
H570 H 0.91124 0.42546 0.17675 0.0
H571 H 0.8462 0.35879 0.18088 0.0
H572 H 0.87688 0.3226 0.12854 0.0
H573 H 0.94297 0.38931 0.12472 0.0
H574 H 0.77452 0.30928 0.16036 0.0
H575 H 0.8592 0.24636 0.16507 0.0
H576 H 0.8884 0.29779 0.16524 0.0
H577 H 0.86858 0.26953 0.1423 0.0
C578 C 0.90419 0.40341 0.16605 0.0
C579 C 0.93262 0.41299 0.1504 0.0
C580 C 0.86682 0.36507 0.16846 0.0
C581 C 0.85654 0.33504 0.15527 0.0
C582 C 0.88439 0.3447 0.13934 0.0
H583 H 0.5931 0.10526 0.16172 0.0
H584 H 0.65604 0.16768 0.14959 0.0
C585 C 0.92218 0.38305 0.13707 0.0
C586 C 0.81674 0.29398 0.15832 0.0
H587 H 0.78214 0.20222 0.16385 0.0
C588 C 0.77628 0.2859 0.1611 0.0
C589 C 0.81863 0.26316 0.15953 0.0
C590 C 0.86108 0.26962 0.15808 0.0
C591 C 0.73824 0.24851 0.16528 0.0
C592 C 0.73997 0.21755 0.16611 0.0
C593 C 0.78031 0.22554 0.16303 0.0
C594 C 0.70169 0.17765 0.17196 0.0
C595 C 0.69709 0.24312 0.16961 0.0
C596 C 0.70641 0.16083 0.18778 0.0
C597 C 0.67083 0.12481 0.19436 0.0
C598 C 0.62901 0.10434 0.18551 0.0
C599 C 0.62462 0.12012 0.16899 0.0
C600 C 0.66058 0.15625 0.16224 0.0
H601 H 0.70399 0.27107 0.17345 0.0
H602 H 0.67529 0.23013 0.15631 0.0
H603 H 0.67947 0.22356 0.18198 0.0
H604 H 0.73756 0.17611 0.19548 0.0
H605 H 0.676 0.11334 0.2068 0.0
H606 H 0.0428 0.4975 0.09212 0.0
H607 H 0.05158 0.4945 0.05645 0.0
H608 H 0.06363 0.59727 0.0504 0.0
H609 H 0.05592 0.60087 0.08607 0.0
H610 H 1.00117 0.48558 0.02628 0.0
H611 H 0.1667 0.6249 0.01964 0.0
H612 H 0.14418 0.60402 0.04316 0.0
H613 H 0.13003 0.63069 0.03138 0.0
C614 C 0.04776 0.51967 0.08319 0.0
C615 C 0.04883 0.54952 0.09191 0.0
C616 C 0.05271 0.5179 0.06279 0.0
C617 C 0.05898 0.54599 0.05067 0.0
C618 C 0.05999 0.57579 0.05941 0.0
H619 H 0.06197 0.5784 0.92555 0.0
H620 H 0.06166 0.58123 0.96166 0.0
C621 C 0.05527 0.57769 0.07982 0.0
C622 C 0.06249 0.54318 0.02883 0.0
H623 H 0.12542 0.5941 0.98953 0.0
C624 C 1.02859 0.50917 0.01829 0.0
C625 C 0.09828 0.57388 0.0183 0.0
C626 C 0.13707 0.61026 0.02872 0.0
C627 C 1.02883 0.50554 -0.00242 0.0
C628 C 0.06411 0.53658 0.98706 0.0
C629 C 0.0983 0.57036 -0.00242 0.0
C630 C 0.06535 0.53505 0.96509 0.0
C631 C 0.99065 0.46896 0.98703 0.0
C632 C 0.06822 0.50853 0.95494 0.0
C633 C 0.06845 0.50686 0.93423 0.0
C634 C 0.06564 0.5316 0.92324 0.0
C635 C 0.06354 0.55856 0.93352 0.0
C636 C 0.0636 0.56036 0.95418 0.0
H637 H 0.96233 0.45105 -0.0032 0.0
H638 H 0.9802 0.47581 0.9739 0.0
H639 H 1.00056 0.45149 0.98187 0.0
H640 H 0.07021 0.48907 0.96304 0.0
H641 H 0.06997 0.48571 0.92681 0.0
H642 H 0.63005 0.04069 0.40808 0.0
H643 H 0.62359 0.04488 0.37269 0.0
H644 H 0.49935 0.01976 0.38098 0.0
H645 H 0.505 0.01405 0.41649 0.0
H646 H 0.49494 0.97954 0.35006 0.0
H647 H 0.64308 0.13095 0.34372 0.0
H648 H 0.65595 0.10268 0.35435 0.0
H649 H 0.62127 0.10995 0.36728 0.0
C650 C 0.60143 0.03621 0.40238 0.0
C651 C 0.56807 0.02714 0.41502 0.0
C652 C 0.59794 0.03896 0.38214 0.0
C653 C 0.56148 0.03358 0.37416 0.0
C654 C 0.52796 0.02433 0.38679 0.0
H655 H 0.5654 0.0911 0.25129 0.0
H656 H 0.56368 0.09033 0.28743 0.0
C657 C 0.5312 0.02109 0.40705 0.0
C658 C 0.55775 0.03606 0.35253 0.0
H659 H 0.61379 0.0923 0.31343 0.0
C660 C 0.52072 1.0044 0.34208 0.0
C661 C 0.59088 0.06879 0.3421 0.0
C662 C 0.62976 0.10515 0.35249 0.0
C663 C 0.51669 1.00395 0.32147 0.0
C664 C 0.5513 0.03551 0.31089 0.0
C665 C 0.58754 0.06779 0.32143 0.0
C666 C 0.55106 0.03543 0.28892 0.0
C667 C 0.4751 0.96978 0.31133 0.0
C668 C 0.54511 1.00515 0.27767 0.0
C669 C 0.54555 1.00535 0.25706 0.0
C670 C 0.55294 0.03627 0.24725 0.0
C671 C 0.55978 0.06697 0.25848 0.0
C672 C 0.5587 0.06649 0.27911 0.0
H673 H 0.44725 0.95559 0.32152 0.0
H674 H 0.46681 0.97844 0.29819 0.0
H675 H 0.47916 0.94803 0.30652 0.0
H676 H 0.54068 0.98153 0.28483 0.0
H677 H 0.54092 0.98163 0.24878 0.0
H678 H 0.62138 0.5555 0.79128 0.0
H679 H 0.63316 0.56526 0.75567 0.0
H680 H 0.4946 0.48053 0.74437 0.0
H681 H 0.48272 0.47044 0.77968 0.0
H682 H 0.54456 0.46854 0.7211 0.0
H683 H 0.60512 0.62014 0.71915 0.0
H684 H 0.63304 0.61167 0.73616 0.0
H685 H 0.57707 0.59052 0.74005 0.0
C686 C 0.59349 0.53925 0.78116 0.0
C687 C 0.55116 0.51214 0.7882 0.0
C688 C 0.60023 0.54494 0.76087 0.0
C689 C 0.5647 0.52376 0.7474 0.0
C690 C 0.52245 0.49713 0.7545 0.0
H691 H 0.52988 0.54685 0.62554 0.0
H692 H 0.53187 0.54595 0.66153 0.0
C693 C 0.51573 0.49145 0.77469 0.0
C694 C 0.57107 0.52791 0.72581 0.0
H695 H 0.6025 0.59046 0.68894 0.0
C696 C 0.5575 0.49526 0.71406 0.0
C697 C 0.5876 0.56272 0.71669 0.0
C698 C 0.60128 0.59826 0.72858 0.0
C699 C 0.55943 0.49627 0.6934 0.0
C700 C 0.57604 0.53108 0.68426 0.0
C701 C 0.59008 0.5639 0.69601 0.0
C702 C 0.57682 0.53333 0.66247 0.0
C703 C 0.54225 0.45968 0.68151 0.0
C704 C 0.60191 0.52704 0.65107 0.0
C705 C 0.6009 0.52758 0.63047 0.0
C706 C 0.575 0.53471 0.6209 0.0
C707 C 0.55055 0.5417 0.63243 0.0
C708 C 0.55155 0.5411 0.653 0.0
H709 H 0.52197 0.43366 0.69048 0.0
H710 H 0.52241 0.45582 0.66859 0.0
H711 H 0.5701 0.46158 0.67595 0.0
H712 H 0.62224 0.52166 0.65811 0.0
H713 H 0.62065 0.52272 0.62204 0.0
H714 H 0.47539 0.01054 0.5359 0.0
H715 H 0.48448 0.00982 0.57144 0.0
H716 H 0.61535 0.04946 0.56303 0.0
H717 H 0.60685 0.05154 0.52738 0.0
H718 H 0.49939 0.96931 0.59252 0.0
H719 H 0.63671 0.12579 0.60541 0.0
H720 H 0.60598 0.1062 0.58241 0.0
H721 H 0.64776 0.10211 0.58763 0.0
C722 C 0.50621 0.01931 0.54162 0.0
C723 C 0.54051 0.03133 0.52887 0.0
C724 C 0.51135 0.0188 0.56196 0.0
C725 C 0.55084 0.03017 0.57004 0.0
C726 C 0.58494 0.04149 0.55726 0.0
H727 H 0.61719 0.02569 0.69276 0.0
H728 H 0.61514 0.02587 0.65657 0.0
C729 C 0.57995 0.04235 0.53687 0.0
C730 C 0.55559 0.0295 0.59178 0.0
H731 H 0.61535 0.08612 0.63276 0.0
C732 C 0.5248 0.99489 0.60128 0.0
C733 C 0.58869 0.06289 0.6033 0.0
C734 C 0.62144 0.10145 0.59423 0.0
C735 C 0.52609 0.99282 0.62186 0.0
C736 C 0.559 0.02615 0.63329 0.0
C737 C 0.59026 0.06058 0.62388 0.0
C738 C 0.56033 0.02606 0.65515 0.0
C739 C 0.49222 0.95506 0.63135 0.0
C740 C 0.53034 0.02631 0.66627 0.0
C741 C 0.53155 0.02641 0.6869 0.0
C742 C 0.56264 0.02599 0.6968 0.0
C743 C 0.59261 0.02565 0.68557 0.0
C744 C 0.59163 0.02594 0.66492 0.0
H745 H 0.47279 0.93057 0.62029 0.0
H746 H 0.50801 0.94851 0.64198 0.0
H747 H 0.46965 0.95751 0.63972 0.0
H748 H 0.50602 0.02652 0.65898 0.0
H749 H 0.5078 0.02634 0.6951 0.0
H750 H 0.50477 0.47672 0.89598 0.0
H751 H 0.49526 0.44793 0.92774 0.0
H752 H 0.62983 0.54098 0.94356 0.0
H753 H 0.63976 0.56985 0.91172 0.0
H754 H 0.55051 0.42775 0.94492 0.0
H755 H 0.55038 0.53674 0.98844 0.0
H756 H 0.53791 0.52759 0.96226 0.0
H757 H 0.59317 0.55436 0.97101 0.0
C758 C 0.53232 0.49105 0.90624 0.0
C759 C 0.57295 0.52562 0.90149 0.0
C760 C 0.52688 0.47448 0.92429 0.0
C761 C 0.56184 0.49243 0.93791 0.0
C762 C 0.60249 0.52685 0.9332 0.0
H763 H 0.57684 0.42013 0.05344 0.0
H764 H 0.592 0.43985 0.01906 0.0
C765 C 0.60805 0.54331 0.91508 0.0
C766 C 0.55527 0.47568 0.95733 0.0
H767 H 0.54334 0.4884 0.00604 0.0
C768 C 0.5492 0.44104 0.95833 0.0
C769 C 0.55338 0.49313 0.97468 0.0
C770 C 0.55878 0.52991 0.9742 0.0
C771 C 0.54115 0.42331 0.9764 0.0
C772 C 0.53893 0.44064 0.99368 0.0
C773 C 0.54528 0.47537 0.99268 0.0
C774 C 0.52786 0.42245 0.01293 0.0
C775 C 0.53407 0.38581 0.97698 0.0
C776 C 0.48646 0.40516 0.02049 0.0
C777 C 0.47766 0.3937 0.03995 0.0
C778 C 0.51031 0.39972 0.05224 0.0
C779 C 0.55097 0.41482 0.04424 0.0
C780 C 0.55974 0.42624 0.02468 0.0
H781 H 0.53468 0.37499 0.96205 0.0
H782 H 0.55989 0.39002 0.9864 0.0
H783 H 0.50224 0.36349 0.98371 0.0
H784 H 0.46153 0.40208 0.01159 0.0
H785 H 0.44594 0.38184 0.04569 0.0
H786 H 0.10774 0.50456 0.2087 0.0
H787 H 0.09866 0.50304 0.24445 0.0
H788 H 1.02148 0.5408 0.23827 0.0
H789 H 1.03057 0.54237 0.20238 0.0
H790 H 0.0871 0.58132 0.26875 0.0
H791 H 0.98599 0.42234 0.27398 0.0
H792 H 0.03568 0.44391 0.2609 0.0
H793 H 0.99421 0.44507 0.25096 0.0
C794 C 0.08881 0.51252 0.21495 0.0
C795 C 0.06984 0.52362 0.20277 0.0
C796 C 0.08344 0.51142 0.23537 0.0
C797 C 0.05886 0.52125 0.24399 0.0
C798 C 0.04038 0.5329 0.23189 0.0
H799 H 0.97915 0.48254 0.3673 0.0
H800 H 0.9793 0.48278 0.33117 0.0
C801 C 0.04565 0.53389 0.21142 0.0
C802 C 0.05339 0.5201 0.26569 0.0
H803 H 1.01522 0.45993 0.30425 0.0
C804 C 0.0711 0.55475 0.27651 0.0
C805 C 1.032 0.48532 0.27577 0.0
C806 C 1.01049 0.44695 0.26482 0.0
C807 C 0.06931 0.55576 0.29721 0.0
C808 C 0.04971 0.52128 0.30734 0.0
C809 C 1.03064 0.4864 0.29647 0.0
C810 C 0.04958 0.52098 0.32923 0.0
C811 C 0.08835 0.59373 0.30806 0.0
C812 C 0.089 0.54178 0.3401 0.0
C813 C 0.08904 0.54145 0.36071 0.0
C814 C 0.0496 0.52022 0.37092 0.0
C815 C 1.01009 0.49893 0.35994 0.0
C816 C 1.01011 0.4992 0.33929 0.0
H817 H 0.0914 0.61474 0.2982 0.0
H818 H 0.06801 0.58949 0.32075 0.0
H819 H 0.12143 0.60653 0.31384 0.0
H820 H 0.11981 0.55803 0.33263 0.0
H821 H 0.12002 0.55751 0.36864 0.0
loop_
_geom_bond_atom_site_label_1
_geom_bond_atom_site_label_2
_geom_bond_distance
_geom_bond_site_symmetry_2
_ccdc_geom_bond_type
Sm0 C2 2.846 . S
Sm0 O20 2.543 . S
Sm0 O21 2.450 . S
Sm0 O22 2.681 . S
Sm0 O23 2.464 . S
Sm0 O24 2.396 . S
Sm0 O28 2.386 . S
Sm0 O31 2.408 1_455 S
Sm1 C11 2.846 . S
Sm1 O22 2.386 1_655 S
Sm1 O25 2.408 1_655 S
Sm1 O26 2.543 . S
Sm1 O27 2.450 . S
Sm1 O28 2.681 1_655 S
Sm1 O29 2.464 . S
Sm1 O30 2.396 . S
C2 Sm0 2.846 . S
C2 C3 1.506 . S
C2 O20 1.261 . S
C2 O21 1.242 . S
C3 C2 1.506 . S
C3 C4 1.358 . S
C3 C8 1.382 . S
C4 C3 1.358 . S
C4 C5 1.385 . S
C4 H32 0.930 . S
C5 C4 1.385 . S
C5 C6 1.395 . S
C5 H33 0.929 . S
C6 C5 1.395 . S
C6 C7 1.335 . S
C7 C6 1.335 . S
C7 C8 1.398 . S
C7 H34 0.930 . S
C8 C3 1.382 . S
C8 C7 1.398 . S
C8 H35 0.929 . S
C9 O22 1.271 . S
C9 O23 1.251 . S
C10 O24 1.252 . S
C10 O25 1.272 . S
C11 Sm1 2.846 . S
C11 C12 1.506 . S
C11 O26 1.261 . S
C11 O27 1.242 . S
C12 C11 1.506 . S
C12 C13 1.358 . S
C12 C17 1.382 . S
C13 C12 1.358 . S
C13 C14 1.385 . S
C13 H36 0.930 . S
C14 C13 1.385 . S
C14 C15 1.395 . S
C14 H37 0.929 . S
C15 C14 1.395 . S
C15 C16 1.335 . S
C16 C15 1.335 . S
C16 C17 1.398 . S
C16 H38 0.930 . S
C17 C12 1.382 . S
C17 C16 1.398 . S
C17 H39 0.929 . S
C18 O28 1.271 . S
C18 O29 1.251 1_455 S
C19 O30 1.252 . S
C19 O31 1.272 . S
O20 Sm0 2.543 . S
O20 C2 1.261 . S
O21 Sm0 2.450 . S
O21 C2 1.242 . S
O22 Sm0 2.681 . S
O22 Sm1 2.386 1_455 S
O22 C9 1.271 . S
O23 Sm0 2.464 . S
O23 C9 1.251 . S
O24 Sm0 2.396 . S
O24 C10 1.252 . S
O25 Sm1 2.408 1_455 S
O25 C10 1.272 . S
O26 Sm1 2.543 . S
O26 C11 1.261 . S
O27 Sm1 2.450 . S
O27 C11 1.242 . S
O28 Sm0 2.386 . S
O28 Sm1 2.681 1_455 S
O28 C18 1.271 . S
O29 Sm1 2.464 . S
O29 C18 1.251 1_655 S
O30 Sm1 2.396 . S
O30 C19 1.252 . S
O31 Sm0 2.408 1_655 S
O31 C19 1.272 . S
H32 C4 0.930 . S
H33 C5 0.929 . S
H34 C7 0.930 . S
H35 C8 0.929 . S
H36 C13 0.930 . S
H37 C14 0.929 . S
H38 C16 0.930 . S
H39 C17 0.929 . S
Sm40 C42 2.846 . S
Sm40 O60 2.543 . S
Sm40 O61 2.450 . S
Sm40 O62 2.681 1_565 S
Sm40 O63 2.464 . S
Sm40 O64 2.396 . S
Sm40 O68 2.405 . S
Sm40 O71 2.408 1_565 S
Sm41 C51 2.846 . S
Sm41 O62 2.386 . S
Sm41 O65 2.408 1_545 S
Sm41 O66 2.543 . S
Sm41 O67 2.450 . S
Sm41 O68 2.652 1_545 S
Sm41 O69 2.464 . S
Sm41 O70 2.396 . S
C42 Sm40 2.846 . S
C42 C43 1.506 . S
C42 O60 1.261 . S
C42 O61 1.242 . S
C43 C42 1.506 . S
C43 C44 1.358 . S
C43 C48 1.382 . S
C44 C43 1.358 . S
C44 C45 1.385 . S
C44 H72 0.930 . S
C45 C44 1.385 . S
C45 C46 1.395 . S
C45 H73 0.929 . S
C46 C45 1.395 . S
C46 C47 1.335 . S
C47 C46 1.335 . S
C47 C48 1.398 . S
C47 H74 0.930 . S
C48 C43 1.382 . S
C48 C47 1.398 . S
C48 H75 0.929 . S
C49 O62 1.271 . S
C49 O63 1.251 1_545 S
C50 O64 1.252 . S
C50 O65 1.272 . S
C51 Sm41 2.846 . S
C51 C52 1.506 . S
C51 O66 1.261 . S
C51 O67 1.242 . S
C52 C51 1.506 . S
C52 C53 1.358 . S
C52 C57 1.382 . S
C53 C52 1.358 . S
C53 C54 1.385 . S
C53 H76 0.930 . S
C54 C53 1.385 . S
C54 C55 1.395 . S
C54 H77 0.929 . S
C55 C54 1.395 . S
C55 C56 1.335 . S
C56 C55 1.335 . S
C56 C57 1.398 . S
C56 H78 0.930 . S
C57 C52 1.382 . S
C57 C56 1.398 . S
C57 H79 0.929 . S
C58 O68 1.255 1_545 S
C58 O69 1.251 . S
C59 O70 1.252 . S
C59 O71 1.272 . S
O60 Sm40 2.543 . S
O60 C42 1.261 . S
O61 Sm40 2.450 . S
O61 C42 1.242 . S
O62 Sm40 2.681 1_545 S
O62 Sm41 2.386 . S
O62 C49 1.271 . S
O63 Sm40 2.464 . S
O63 C49 1.251 1_565 S
O64 Sm40 2.396 . S
O64 C50 1.252 . S
O65 Sm41 2.408 1_565 S
O65 C50 1.272 . S
O66 Sm41 2.543 . S
O66 C51 1.261 . S
O67 Sm41 2.450 . S
O67 C51 1.242 . S
O68 Sm40 2.405 . S
O68 Sm41 2.652 1_565 S
O68 C58 1.255 1_565 S
O69 Sm41 2.464 . S
O69 C58 1.251 . S
O70 Sm41 2.396 . S
O70 C59 1.252 . S
O71 Sm40 2.408 1_545 S
O71 C59 1.272 . S
H72 C44 0.930 . S
H73 C45 0.929 . S
H74 C47 0.930 . S
H75 C48 0.929 . S
H76 C53 0.930 . S
H77 C54 0.929 . S
H78 C56 0.930 . S
H79 C57 0.929 . S
Sm80 C82 2.846 . S
Sm80 O100 2.543 . S
Sm80 O101 2.450 . S
Sm80 O102 2.681 . S
Sm80 O103 2.464 . S
Sm80 O104 2.396 . S
Sm80 O108 2.386 . S
Sm80 O111 2.408 . S
Sm81 C91 2.846 . S
Sm81 O102 2.386 . S
Sm81 O105 2.408 . S
Sm81 O106 2.543 . S
Sm81 O107 2.450 . S
Sm81 O108 2.681 . S
Sm81 O109 2.464 . S
Sm81 O110 2.396 . S
C82 Sm80 2.846 . S
C82 C83 1.506 . S
C82 O100 1.261 . S
C82 O101 1.242 . S
C83 C82 1.506 . S
C83 C84 1.358 . S
C83 C88 1.382 . S
C84 C83 1.358 . S
C84 C85 1.385 . S
C84 H112 0.930 . S
C85 C84 1.385 . S
C85 C86 1.395 . S
C85 H113 0.929 . S
C86 C85 1.395 . S
C86 C87 1.335 . S
C87 C86 1.335 . S
C87 C88 1.398 . S
C87 H114 0.930 . S
C88 C83 1.382 . S
C88 C87 1.398 . S
C88 H115 0.929 . S
C89 O102 1.271 . S
C89 O103 1.251 . S
C90 O104 1.252 . S
C90 O105 1.272 . S
C91 Sm81 2.846 . S
C91 C92 1.506 . S
C91 O106 1.261 . S
C91 O107 1.242 . S
C92 C91 1.506 . S
C92 C93 1.358 . S
C92 C97 1.382 . S
C93 C92 1.358 . S
C93 C94 1.385 . S
C93 H116 0.930 . S
C94 C93 1.385 . S
C94 C95 1.395 . S
C94 H117 0.929 . S
C95 C94 1.395 . S
C95 C96 1.335 . S
C96 C95 1.335 . S
C96 C97 1.398 . S
C96 H118 0.930 . S
C97 C92 1.382 . S
C97 C96 1.398 . S
C97 H119 0.929 . S
C98 O108 1.271 . S
C98 O109 1.251 . S
C99 O110 1.252 . S
C99 O111 1.272 . S
O100 Sm80 2.543 . S
O100 C82 1.261 . S
O101 Sm80 2.450 . S
O101 C82 1.242 . S
O102 Sm80 2.681 . S
O102 Sm81 2.386 . S
O102 C89 1.271 . S
O103 Sm80 2.464 . S
O103 C89 1.251 . S
O104 Sm80 2.396 . S
O104 C90 1.252 . S
O105 Sm81 2.408 . S
O105 C90 1.272 . S
O106 Sm81 2.543 . S
O106 C91 1.261 . S
O107 Sm81 2.450 . S
O107 C91 1.242 . S
O108 Sm80 2.386 . S
O108 Sm81 2.681 . S
O108 C98 1.271 . S
O109 Sm81 2.464 . S
O109 C98 1.251 . S
O110 Sm81 2.396 . S
O110 C99 1.252 . S
O111 Sm80 2.408 . S
O111 C99 1.272 . S
H112 C84 0.930 . S
H113 C85 0.929 . S
H114 C87 0.930 . S
H115 C88 0.929 . S
H116 C93 0.930 . S
H117 C94 0.929 . S
H118 C96 0.930 . S
H119 C97 0.929 . S
H120 C123 0.931 . S
H121 C126 0.928 . S
H122 C128 0.930 . S
C123 H120 0.931 . S
C123 C124 1.413 . S
C123 C125 1.360 1_565 S
C124 C123 1.413 . S
C124 C128 1.429 1_565 S
C125 C123 1.360 1_545 S
C125 C126 1.372 . S
C126 H121 0.928 . S
C126 C125 1.372 . S
C126 C127 1.404 . S
C127 C126 1.404 . S
C127 C128 1.391 . S
C128 H122 0.930 . S
C128 C124 1.429 1_545 S
C128 C127 1.391 . S
H129 C132 0.931 . S
H130 C135 0.928 . S
H131 C137 0.930 . S
C132 H129 0.931 . S
C132 C133 1.413 . S
C132 C134 1.360 . S
C133 C132 1.413 . S
C133 C137 1.429 . S
C134 C132 1.360 . S
C134 C135 1.372 . S
C135 H130 0.928 . S
C135 C134 1.372 . S
C135 C136 1.404 . S
C136 C135 1.404 . S
C136 C137 1.391 . S
C137 H131 0.930 . S
C137 C133 1.429 . S
C137 C136 1.391 . S
H138 C141 0.931 1_655 S
H139 C144 0.928 . S
H140 C146 0.930 . S
C141 H138 0.931 1_455 S
C141 C142 1.413 . S
C141 C143 1.360 . S
C142 C141 1.413 . S
C142 C146 1.429 . S
C143 C141 1.360 . S
C143 C144 1.372 . S
C144 H139 0.928 . S
C144 C143 1.372 . S
C144 C145 1.404 . S
C145 C144 1.404 . S
C145 C146 1.391 . S
C146 H140 0.930 . S
C146 C142 1.429 . S
C146 C145 1.391 . S
H147 C150 0.931 . S
H148 C153 0.928 . S
H149 C155 0.930 . S
C150 H147 0.931 . S
C150 C151 1.413 . S
C150 C152 1.360 1_655 S
C151 C150 1.413 . S
C151 C155 1.429 1_655 S
C152 C150 1.360 1_455 S
C152 C153 1.371 . S
C153 H148 0.928 . S
C153 C152 1.371 . S
C153 C154 1.404 . S
C154 C153 1.404 . S
C154 C155 1.391 . S
C155 H149 0.930 . S
C155 C151 1.429 1_455 S
C155 C154 1.391 . S
H156 C159 0.931 . S
H157 C162 0.928 . S
H158 C164 0.930 . S
C159 H156 0.931 . S
C159 C160 1.413 . S
C159 C161 1.389 . S
C160 C159 1.413 . S
C160 C164 1.429 . S
C161 C159 1.389 . S
C161 C162 1.343 1_545 S
C162 H157 0.928 . S
C162 C161 1.343 1_565 S
C162 C163 1.404 . S
C163 C162 1.404 . S
C163 C164 1.391 1_565 S
C164 H158 0.930 . S
C164 C160 1.429 . S
C164 C163 1.391 1_545 S
H165 C168 0.931 . S
H166 C171 0.928 . S
H167 C173 0.930 . S
C168 H165 0.931 . S
C168 C169 1.413 . S
C168 C170 1.360 . S
C169 C168 1.413 . S
C169 C173 1.429 . S
C170 C168 1.360 . S
C170 C171 1.372 . S
C171 H166 0.928 . S
C171 C170 1.372 . S
C171 C172 1.404 . S
C172 C171 1.404 . S
C172 C173 1.391 . S
C173 H167 0.930 . S
C173 C169 1.429 . S
C173 C172 1.391 . S
H174 C182 0.929 . S
H175 C184 0.930 . S
H176 C186 0.930 . S
H177 C189 0.929 . S
H178 C192 0.930 . S
H179 C194 0.960 . S
H180 C194 0.960 . S
H181 C194 0.960 . S
C182 H174 0.929 . S
C182 C183 1.377 . S
C182 C184 1.384 . S
C183 C182 1.377 . S
C183 C189 1.390 . S
C184 H175 0.930 . S
C184 C182 1.384 . S
C184 C185 1.372 . S
C185 C184 1.372 . S
C185 C186 1.400 . S
C185 C190 1.490 . S
C186 H176 0.930 . S
C186 C185 1.400 . S
C186 C189 1.386 . S
H187 C203 0.930 . S
H188 C204 0.931 . S
C189 H177 0.929 . S
C189 C183 1.390 . S
C189 C186 1.386 . S
C190 C185 1.490 . S
C190 C192 1.395 . S
C190 C193 1.403 . S
H191 C197 0.930 . S
C192 H178 0.930 . S
C192 C190 1.395 . S
C192 C195 1.403 . S
C193 C190 1.403 . S
C193 C194 1.524 . S
C193 C197 1.400 . S
C194 H179 0.960 . S
C194 H180 0.960 . S
C194 H181 0.960 . S
C194 C193 1.524 . S
C195 C192 1.403 . S
C195 C196 1.392 . S
C195 C199 1.495 . S
C196 C195 1.392 . S
C196 C197 1.385 . S
C196 C198 1.478 . S
C197 H191 0.930 . S
C197 C193 1.400 . S
C197 C196 1.385 . S
C198 C196 1.478 . S
C198 C200 1.381 . S
C198 C204 1.383 . S
C199 C195 1.495 . S
C199 H205 0.959 . S
C199 H206 0.961 . S
C199 H207 0.960 . S
C200 C198 1.381 . S
C200 C201 1.394 . S
C200 H208 0.930 . S
C201 C200 1.394 . S
C201 C202 1.383 . S
C201 H209 0.929 . S
C202 C201 1.383 . S
C202 C203 1.377 . S
C203 H187 0.930 . S
C203 C202 1.377 . S
C203 C204 1.379 . S
C204 H188 0.931 . S
C204 C198 1.383 . S
C204 C203 1.379 . S
H205 C199 0.959 . S
H206 C199 0.961 . S
H207 C199 0.960 . S
H208 C200 0.930 . S
H209 C201 0.929 . S
H210 C218 0.929 . S
H211 C220 0.930 . S
H212 C222 0.930 . S
H213 C225 0.929 . S
H214 C228 0.930 . S
H215 C230 0.960 . S
H216 C230 0.960 . S
H217 C230 0.960 . S
C218 H210 0.929 . S
C218 C219 1.377 . S
C218 C220 1.384 . S
C219 C218 1.377 . S
C219 C225 1.390 . S
C220 H211 0.930 . S
C220 C218 1.384 . S
C220 C221 1.372 . S
C221 C220 1.372 . S
C221 C222 1.400 . S
C221 C226 1.490 . S
C222 H212 0.930 . S
C222 C221 1.400 . S
C222 C225 1.386 . S
H223 C239 0.930 . S
H224 C240 0.931 . S
C225 H213 0.929 . S
C225 C219 1.390 . S
C225 C222 1.386 . S
C226 C221 1.490 . S
C226 C228 1.395 . S
C226 C229 1.403 . S
H227 C233 0.930 . S
C228 H214 0.930 . S
C228 C226 1.395 . S
C228 C231 1.403 . S
C229 C226 1.403 . S
C229 C230 1.524 . S
C229 C233 1.400 . S
C230 H215 0.960 . S
C230 H216 0.960 . S
C230 H217 0.960 . S
C230 C229 1.524 . S
C231 C228 1.403 . S
C231 C232 1.392 . S
C231 C235 1.495 . S
C232 C231 1.392 . S
C232 C233 1.385 . S
C232 C234 1.478 . S
C233 H227 0.930 . S
C233 C229 1.400 . S
C233 C232 1.385 . S
C234 C232 1.478 . S
C234 C236 1.381 . S
C234 C240 1.383 . S
C235 C231 1.495 . S
C235 H241 0.959 . S
C235 H242 0.961 . S
C235 H243 0.960 . S
C236 C234 1.381 . S
C236 C237 1.394 . S
C236 H244 0.930 . S
C237 C236 1.394 . S
C237 C238 1.383 . S
C237 H245 0.929 . S
C238 C237 1.383 . S
C238 C239 1.377 . S
C239 H223 0.930 . S
C239 C238 1.377 . S
C239 C240 1.379 . S
C240 H224 0.931 . S
C240 C234 1.383 . S
C240 C239 1.379 . S
H241 C235 0.959 . S
H242 C235 0.961 . S
H243 C235 0.960 . S
H244 C236 0.930 . S
H245 C237 0.929 . S
H246 C254 0.929 . S
H247 C256 0.930 . S
H248 C258 0.930 . S
H249 C261 0.929 . S
H250 C264 0.930 . S
H251 C266 0.960 . S
H252 C266 0.960 . S
H253 C266 0.960 . S
C254 H246 0.929 . S
C254 C255 1.377 . S
C254 C256 1.384 . S
C255 C254 1.377 . S
C255 C261 1.390 . S
C256 H247 0.930 . S
C256 C254 1.384 . S
C256 C257 1.372 . S
C257 C256 1.372 . S
C257 C258 1.400 . S
C257 C262 1.490 . S
C258 H248 0.930 . S
C258 C257 1.400 . S
C258 C261 1.386 . S
H259 C275 0.930 . S
H260 C276 0.931 . S
C261 H249 0.929 . S
C261 C255 1.390 . S
C261 C258 1.386 . S
C262 C257 1.490 . S
C262 C264 1.395 . S
C262 C265 1.403 . S
H263 C269 0.930 . S
C264 H250 0.930 . S
C264 C262 1.395 . S
C264 C267 1.403 . S
C265 C262 1.403 . S
C265 C266 1.524 . S
C265 C269 1.400 . S
C266 H251 0.960 . S
C266 H252 0.960 . S
C266 H253 0.960 . S
C266 C265 1.524 . S
C267 C264 1.403 . S
C267 C268 1.392 . S
C267 C271 1.495 . S
C268 C267 1.392 . S
C268 C269 1.385 . S
C268 C270 1.478 . S
C269 H263 0.930 . S
C269 C265 1.400 . S
C269 C268 1.385 . S
C270 C268 1.478 . S
C270 C272 1.381 . S
C270 C276 1.383 . S
C271 C267 1.495 . S
C271 H277 0.959 . S
C271 H278 0.961 . S
C271 H279 0.960 . S
C272 C270 1.381 . S
C272 C273 1.394 . S
C272 H280 0.930 . S
C273 C272 1.394 . S
C273 C274 1.383 . S
C273 H281 0.929 . S
C274 C273 1.383 . S
C274 C275 1.377 . S
C275 H259 0.930 . S
C275 C274 1.377 . S
C275 C276 1.379 . S
C276 H260 0.931 . S
C276 C270 1.383 . S
C276 C275 1.379 . S
H277 C271 0.959 . S
H278 C271 0.961 . S
H279 C271 0.960 . S
H280 C272 0.930 . S
H281 C273 0.929 . S
H282 C290 0.929 . S
H283 C292 0.930 . S
H284 C294 0.930 . S
H285 C297 0.929 . S
H286 C300 0.930 . S
H287 C302 0.960 . S
H288 C302 0.960 . S
H289 C302 0.960 . S
C290 H282 0.929 . S
C290 C291 1.377 . S
C290 C292 1.384 . S
C291 C290 1.377 . S
C291 C297 1.390 . S
C292 H283 0.930 . S
C292 C290 1.384 . S
C292 C293 1.372 . S
C293 C292 1.372 . S
C293 C294 1.400 . S
C293 C298 1.490 . S
C294 H284 0.930 . S
C294 C293 1.400 . S
C294 C297 1.386 . S
H295 C311 0.930 . S
H296 C312 0.931 . S
C297 H285 0.929 . S
C297 C291 1.390 . S
C297 C294 1.386 . S
C298 C293 1.490 . S
C298 C300 1.395 . S
C298 C301 1.403 . S
H299 C305 0.930 . S
C300 H286 0.930 . S
C300 C298 1.395 . S
C300 C303 1.403 . S
C301 C298 1.403 . S
C301 C302 1.524 . S
C301 C305 1.400 . S
C302 H287 0.960 . S
C302 H288 0.960 . S
C302 H289 0.960 . S
C302 C301 1.524 . S
C303 C300 1.403 . S
C303 C304 1.392 . S
C303 C307 1.495 . S
C304 C303 1.392 . S
C304 C305 1.385 . S
C304 C306 1.478 . S
C305 H299 0.930 . S
C305 C301 1.400 . S
C305 C304 1.385 . S
C306 C304 1.478 . S
C306 C308 1.381 . S
C306 C312 1.383 . S
C307 C303 1.495 . S
C307 H313 0.959 . S
C307 H314 0.961 . S
C307 H315 0.960 . S
C308 C306 1.381 . S
C308 C309 1.394 . S
C308 H316 0.930 . S
C309 C308 1.394 . S
C309 C310 1.383 . S
C309 H317 0.929 . S
C310 C309 1.383 . S
C310 C311 1.377 . S
C311 H295 0.930 . S
C311 C310 1.377 . S
C311 C312 1.379 . S
C312 H296 0.931 . S
C312 C306 1.383 . S
C312 C311 1.379 . S
H313 C307 0.959 . S
H314 C307 0.961 . S
H315 C307 0.960 . S
H316 C308 0.930 . S
H317 C309 0.929 . S
H318 C326 0.929 . S
H319 C328 0.930 . S
H320 C330 0.930 . S
H321 C333 0.929 . S
H322 C336 0.930 . S
H323 C338 0.960 . S
H324 C338 0.960 . S
H325 C338 0.960 . S
C326 H318 0.929 . S
C326 C327 1.377 . S
C326 C328 1.384 . S
C327 C326 1.377 . S
C327 C333 1.390 . S
C328 H319 0.930 . S
C328 C326 1.384 . S
C328 C329 1.372 . S
C329 C328 1.372 . S
C329 C330 1.400 . S
C329 C334 1.490 . S
C330 H320 0.930 . S
C330 C329 1.400 . S
C330 C333 1.386 . S
H331 C347 0.930 . S
H332 C348 0.931 . S
C333 H321 0.929 . S
C333 C327 1.390 . S
C333 C330 1.386 . S
C334 C329 1.490 . S
C334 C336 1.395 . S
C334 C337 1.403 . S
H335 C341 0.930 . S
C336 H322 0.930 . S
C336 C334 1.395 . S
C336 C339 1.403 . S
C337 C334 1.403 . S
C337 C338 1.524 . S
C337 C341 1.400 . S
C338 H323 0.960 . S
C338 H324 0.960 . S
C338 H325 0.960 . S
C338 C337 1.524 . S
C339 C336 1.403 . S
C339 C340 1.392 . S
C339 C343 1.495 . S
C340 C339 1.392 . S
C340 C341 1.385 . S
C340 C342 1.478 . S
C341 H335 0.930 . S
C341 C337 1.400 . S
C341 C340 1.385 . S
C342 C340 1.478 . S
C342 C344 1.381 . S
C342 C348 1.383 . S
C343 C339 1.495 . S
C343 H349 0.959 . S
C343 H350 0.961 . S
C343 H351 0.960 . S
C344 C342 1.381 . S
C344 C345 1.394 . S
C344 H352 0.930 . S
C345 C344 1.394 . S
C345 C346 1.383 . S
C345 H353 0.929 . S
C346 C345 1.383 . S
C346 C347 1.377 . S
C347 H331 0.930 . S
C347 C346 1.377 . S
C347 C348 1.379 . S
C348 H332 0.931 . S
C348 C342 1.383 . S
C348 C347 1.379 . S
H349 C343 0.959 . S
H350 C343 0.961 . S
H351 C343 0.960 . S
H352 C344 0.930 . S
H353 C345 0.929 . S
H354 C362 0.929 . S
H355 C364 0.930 . S
H356 C366 0.930 . S
H357 C369 0.929 . S
H358 C372 0.930 . S
H359 C374 0.960 . S
H360 C374 0.960 . S
H361 C374 0.960 . S
C362 H354 0.929 . S
C362 C363 1.377 . S
C362 C364 1.384 . S
C363 C362 1.377 . S
C363 C369 1.390 . S
C364 H355 0.930 . S
C364 C362 1.384 . S
C364 C365 1.372 . S
C365 C364 1.372 . S
C365 C366 1.400 . S
C365 C370 1.490 . S
C366 H356 0.930 . S
C366 C365 1.400 . S
C366 C369 1.386 . S
H367 C383 0.930 . S
H368 C384 0.931 . S
C369 H357 0.929 . S
C369 C363 1.390 . S
C369 C366 1.386 . S
C370 C365 1.490 . S
C370 C372 1.395 . S
C370 C373 1.403 . S
H371 C377 0.930 . S
C372 H358 0.930 . S
C372 C370 1.395 . S
C372 C375 1.403 . S
C373 C370 1.403 . S
C373 C374 1.524 . S
C373 C377 1.400 . S
C374 H359 0.960 . S
C374 H360 0.960 . S
C374 H361 0.960 . S
C374 C373 1.524 . S
C375 C372 1.403 . S
C375 C376 1.392 . S
C375 C379 1.495 . S
C376 C375 1.392 . S
C376 C377 1.385 . S
C376 C378 1.478 . S
C377 H371 0.930 . S
C377 C373 1.400 . S
C377 C376 1.385 . S
C378 C376 1.478 . S
C378 C380 1.381 . S
C378 C384 1.383 . S
C379 C375 1.495 . S
C379 H385 0.959 . S
C379 H386 0.961 . S
C379 H387 0.960 . S
C380 C378 1.381 . S
C380 C381 1.394 . S
C380 H388 0.930 . S
C381 C380 1.394 . S
C381 C382 1.383 . S
C381 H389 0.929 . S
C382 C381 1.383 . S
C382 C383 1.377 . S
C383 H367 0.930 . S
C383 C382 1.377 . S
C383 C384 1.379 . S
C384 H368 0.931 . S
C384 C378 1.383 . S
C384 C383 1.379 . S
H385 C379 0.959 . S
H386 C379 0.961 . S
H387 C379 0.960 . S
H388 C380 0.930 . S
H389 C381 0.929 . S
H390 C398 0.929 . S
H391 C400 0.930 . S
H392 C402 0.930 . S
H393 C405 0.929 . S
H394 C408 0.930 . S
H395 C410 0.960 . S
H396 C410 0.960 . S
H397 C410 0.960 . S
C398 H390 0.929 . S
C398 C399 1.377 . S
C398 C400 1.384 . S
C399 C398 1.377 . S
C399 C405 1.390 . S
C400 H391 0.930 . S
C400 C398 1.384 . S
C400 C401 1.372 . S
C401 C400 1.372 . S
C401 C402 1.400 . S
C401 C406 1.490 . S
C402 H392 0.930 . S
C402 C401 1.400 . S
C402 C405 1.386 . S
H403 C419 0.930 . S
H404 C420 0.931 . S
C405 H393 0.929 . S
C405 C399 1.390 . S
C405 C402 1.386 . S
C406 C401 1.490 . S
C406 C408 1.395 . S
C406 C409 1.403 . S
H407 C413 0.930 . S
C408 H394 0.930 . S
C408 C406 1.395 . S
C408 C411 1.403 . S
C409 C406 1.403 . S
C409 C410 1.524 . S
C409 C413 1.400 . S
C410 H395 0.960 . S
C410 H396 0.960 . S
C410 H397 0.960 . S
C410 C409 1.524 . S
C411 C408 1.403 . S
C411 C412 1.392 . S
C411 C415 1.495 . S
C412 C411 1.392 . S
C412 C413 1.385 . S
C412 C414 1.478 . S
C413 H407 0.930 . S
C413 C409 1.400 . S
C413 C412 1.385 . S
C414 C412 1.478 . S
C414 C416 1.381 . S
C414 C420 1.383 . S
C415 C411 1.495 . S
C415 H421 0.959 . S
C415 H422 0.961 . S
C415 H423 0.960 . S
C416 C414 1.381 . S
C416 C417 1.394 . S
C416 H424 0.930 . S
C417 C416 1.394 . S
C417 C418 1.383 . S
C417 H425 0.929 . S
C418 C417 1.383 . S
C418 C419 1.377 . S
C419 H403 0.930 . S
C419 C418 1.377 . S
C419 C420 1.379 . S
C420 H404 0.931 . S
C420 C414 1.383 . S
C420 C419 1.379 . S
H421 C415 0.959 . S
H422 C415 0.961 . S
H423 C415 0.960 . S
H424 C416 0.930 . S
H425 C417 0.929 . S
H426 C434 0.929 . S
H427 C436 0.930 . S
H428 C438 0.930 . S
H429 C441 0.929 . S
H430 C444 0.930 . S
H431 C446 0.960 . S
H432 C446 0.960 . S
H433 C446 0.960 . S
C434 H426 0.929 . S
C434 C435 1.377 . S
C434 C436 1.384 . S
C435 C434 1.377 . S
C435 C441 1.390 . S
C436 H427 0.930 . S
C436 C434 1.384 . S
C436 C437 1.372 . S
C437 C436 1.372 . S
C437 C438 1.400 . S
C437 C442 1.490 . S
C438 H428 0.930 . S
C438 C437 1.400 . S
C438 C441 1.386 . S
H439 C455 0.930 . S
H440 C456 0.931 . S
C441 H429 0.929 . S
C441 C435 1.390 . S
C441 C438 1.386 . S
C442 C437 1.490 . S
C442 C444 1.395 . S
C442 C445 1.403 . S
H443 C449 0.930 . S
C444 H430 0.930 . S
C444 C442 1.395 . S
C444 C447 1.403 . S
C445 C442 1.403 . S
C445 C446 1.524 . S
C445 C449 1.400 . S
C446 H431 0.960 . S
C446 H432 0.960 . S
C446 H433 0.960 . S
C446 C445 1.524 . S
C447 C444 1.403 . S
C447 C448 1.392 . S
C447 C451 1.495 . S
C448 C447 1.392 . S
C448 C449 1.385 . S
C448 C450 1.478 . S
C449 H443 0.930 . S
C449 C445 1.400 . S
C449 C448 1.385 . S
C450 C448 1.478 . S
C450 C452 1.381 . S
C450 C456 1.383 . S
C451 C447 1.495 . S
C451 H457 0.959 . S
C451 H458 0.961 . S
C451 H459 0.960 . S
C452 C450 1.381 . S
C452 C453 1.394 . S
C452 H460 0.930 . S
C453 C452 1.394 . S
C453 C454 1.383 . S
C453 H461 0.929 . S
C454 C453 1.383 . S
C454 C455 1.377 . S
C455 H439 0.930 . S
C455 C454 1.377 . S
C455 C456 1.379 . S
C456 H440 0.931 . S
C456 C450 1.383 . S
C456 C455 1.379 . S
H457 C451 0.959 . S
H458 C451 0.961 . S
H459 C451 0.960 . S
H460 C452 0.930 . S
H461 C453 0.929 . S
H462 C470 0.929 . S
H463 C472 0.930 . S
H464 C474 0.930 . S
H465 C477 0.929 . S
H466 C480 0.930 . S
H467 C482 0.960 . S
H468 C482 0.960 . S
H469 C482 0.960 . S
C470 H462 0.929 . S
C470 C471 1.377 . S
C470 C472 1.384 . S
C471 C470 1.377 . S
C471 C477 1.390 . S
C472 H463 0.930 . S
C472 C470 1.384 . S
C472 C473 1.372 . S
C473 C472 1.372 . S
C473 C474 1.400 . S
C473 C478 1.490 . S
C474 H464 0.930 . S
C474 C473 1.400 . S
C474 C477 1.386 . S
H475 C491 0.930 . S
H476 C492 0.931 . S
C477 H465 0.929 . S
C477 C471 1.390 . S
C477 C474 1.386 . S
C478 C473 1.490 . S
C478 C480 1.395 . S
C478 C481 1.403 . S
H479 C485 0.930 . S
C480 H466 0.930 . S
C480 C478 1.395 . S
C480 C483 1.403 . S
C481 C478 1.403 . S
C481 C482 1.524 . S
C481 C485 1.400 . S
C482 H467 0.960 . S
C482 H468 0.960 . S
C482 H469 0.960 . S
C482 C481 1.524 . S
C483 C480 1.403 . S
C483 C484 1.392 . S
C483 C487 1.495 . S
C484 C483 1.392 . S
C484 C485 1.385 . S
C484 C486 1.478 . S
C485 H479 0.930 . S
C485 C481 1.400 . S
C485 C484 1.385 . S
C486 C484 1.478 . S
C486 C488 1.381 . S
C486 C492 1.383 . S
C487 C483 1.495 . S
C487 H493 0.959 . S
C487 H494 0.961 . S
C487 H495 0.960 . S
C488 C486 1.381 . S
C488 C489 1.394 . S
C488 H496 0.930 . S
C489 C488 1.394 . S
C489 C490 1.383 . S
C489 H497 0.929 . S
C490 C489 1.383 . S
C490 C491 1.377 . S
C491 H475 0.930 . S
C491 C490 1.377 . S
C491 C492 1.379 . S
C492 H476 0.931 . S
C492 C486 1.383 . S
C492 C491 1.379 . S
H493 C487 0.959 . S
H494 C487 0.961 . S
H495 C487 0.960 . S
H496 C488 0.930 . S
H497 C489 0.929 . S
H498 C506 0.929 . S
H499 C508 0.930 . S
H500 C510 0.930 . S
H501 C513 0.929 . S
H502 C516 0.930 . S
H503 C518 0.960 . S
H504 C518 0.960 . S
H505 C518 0.960 . S
C506 H498 0.929 . S
C506 C507 1.377 . S
C506 C508 1.384 . S
C507 C506 1.377 . S
C507 C513 1.390 . S
C508 H499 0.930 . S
C508 C506 1.384 . S
C508 C509 1.372 . S
C509 C508 1.372 . S
C509 C510 1.400 . S
C509 C514 1.490 . S
C510 H500 0.930 . S
C510 C509 1.400 . S
C510 C513 1.386 . S
H511 C527 0.930 . S
H512 C528 0.931 . S
C513 H501 0.929 . S
C513 C507 1.390 . S
C513 C510 1.386 . S
C514 C509 1.490 . S
C514 C516 1.395 . S
C514 C517 1.403 . S
H515 C521 0.930 . S
C516 H502 0.930 . S
C516 C514 1.395 . S
C516 C519 1.403 . S
C517 C514 1.403 . S
C517 C518 1.524 . S
C517 C521 1.400 . S
C518 H503 0.960 . S
C518 H504 0.960 . S
C518 H505 0.960 . S
C518 C517 1.524 . S
C519 C516 1.403 . S
C519 C520 1.392 . S
C519 C523 1.495 . S
C520 C519 1.392 . S
C520 C521 1.385 . S
C520 C522 1.478 . S
C521 H515 0.930 . S
C521 C517 1.400 . S
C521 C520 1.385 . S
C522 C520 1.478 . S
C522 C524 1.381 . S
C522 C528 1.383 . S
C523 C519 1.495 . S
C523 H529 0.959 . S
C523 H530 0.961 . S
C523 H531 0.960 . S
C524 C522 1.381 . S
C524 C525 1.394 . S
C524 H532 0.930 . S
C525 C524 1.394 . S
C525 C526 1.383 . S
C525 H533 0.929 . S
C526 C525 1.383 . S
C526 C527 1.377 . S
C527 H511 0.930 . S
C527 C526 1.377 . S
C527 C528 1.379 . S
C528 H512 0.931 . S
C528 C522 1.383 . S
C528 C527 1.379 . S
H529 C523 0.959 . S
H530 C523 0.961 . S
H531 C523 0.960 . S
H532 C524 0.930 . S
H533 C525 0.929 . S
H534 C542 0.929 . S
H535 C544 0.930 . S
H536 C546 0.930 . S
H537 C549 0.929 . S
H538 C552 0.930 . S
H539 C554 0.960 . S
H540 C554 0.960 . S
H541 C554 0.960 . S
C542 H534 0.929 . S
C542 C543 1.377 . S
C542 C544 1.384 . S
C543 C542 1.377 . S
C543 C549 1.390 . S
C544 H535 0.930 . S
C544 C542 1.384 . S
C544 C545 1.372 . S
C545 C544 1.372 . S
C545 C546 1.400 . S
C545 C550 1.490 . S
C546 H536 0.930 . S
C546 C545 1.400 . S
C546 C549 1.386 . S
H547 C563 0.930 . S
H548 C564 0.931 . S
C549 H537 0.929 . S
C549 C543 1.390 . S
C549 C546 1.386 . S
C550 C545 1.490 . S
C550 C552 1.395 . S
C550 C553 1.403 . S
H551 C557 0.930 . S
C552 H538 0.930 . S
C552 C550 1.395 . S
C552 C555 1.403 . S
C553 C550 1.403 . S
C553 C554 1.524 . S
C553 C557 1.400 . S
C554 H539 0.960 . S
C554 H540 0.960 . S
C554 H541 0.960 . S
C554 C553 1.524 . S
C555 C552 1.403 . S
C555 C556 1.392 . S
C555 C559 1.495 . S
C556 C555 1.392 . S
C556 C557 1.385 . S
C556 C558 1.478 . S
C557 H551 0.930 . S
C557 C553 1.400 . S
C557 C556 1.385 . S
C558 C556 1.478 . S
C558 C560 1.381 . S
C558 C564 1.383 . S
C559 C555 1.495 . S
C559 H565 0.959 . S
C559 H566 0.961 . S
C559 H567 0.960 . S
C560 C558 1.381 . S
C560 C561 1.394 . S
C560 H568 0.930 . S
C561 C560 1.394 . S
C561 C562 1.383 . S
C561 H569 0.929 . S
C562 C561 1.383 . S
C562 C563 1.377 . S
C563 H547 0.930 . S
C563 C562 1.377 . S
C563 C564 1.379 . S
C564 H548 0.931 . S
C564 C558 1.383 . S
C564 C563 1.379 . S
H565 C559 0.959 . S
H566 C559 0.961 . S
H567 C559 0.960 . S
H568 C560 0.930 . S
H569 C561 0.929 . S
H570 C578 0.929 . S
H571 C580 0.930 . S
H572 C582 0.930 . S
H573 C585 0.929 . S
H574 C588 0.930 . S
H575 C590 0.960 . S
H576 C590 0.960 . S
H577 C590 0.960 . S
C578 H570 0.929 . S
C578 C579 1.377 . S
C578 C580 1.384 . S
C579 C578 1.377 . S
C579 C585 1.390 . S
C580 H571 0.930 . S
C580 C578 1.384 . S
C580 C581 1.372 . S
C581 C580 1.372 . S
C581 C582 1.400 . S
C581 C586 1.490 . S
C582 H572 0.930 . S
C582 C581 1.400 . S
C582 C585 1.386 . S
H583 C599 0.930 . S
H584 C600 0.931 . S
C585 H573 0.929 . S
C585 C579 1.390 . S
C585 C582 1.386 . S
C586 C581 1.490 . S
C586 C588 1.395 . S
C586 C589 1.403 . S
H587 C593 0.930 . S
C588 H574 0.930 . S
C588 C586 1.395 . S
C588 C591 1.403 . S
C589 C586 1.403 . S
C589 C590 1.524 . S
C589 C593 1.400 . S
C590 H575 0.960 . S
C590 H576 0.960 . S
C590 H577 0.960 . S
C590 C589 1.524 . S
C591 C588 1.403 . S
C591 C592 1.392 . S
C591 C595 1.495 . S
C592 C591 1.392 . S
C592 C593 1.385 . S
C592 C594 1.478 . S
C593 H587 0.930 . S
C593 C589 1.400 . S
C593 C592 1.385 . S
C594 C592 1.478 . S
C594 C596 1.381 . S
C594 C600 1.383 . S
C595 C591 1.495 . S
C595 H601 0.959 . S
C595 H602 0.961 . S
C595 H603 0.960 . S
C596 C594 1.381 . S
C596 C597 1.394 . S
C596 H604 0.930 . S
C597 C596 1.394 . S
C597 C598 1.383 . S
C597 H605 0.929 . S
C598 C597 1.383 . S
C598 C599 1.377 . S
C599 H583 0.930 . S
C599 C598 1.377 . S
C599 C600 1.379 . S
C600 H584 0.931 . S
C600 C594 1.383 . S
C600 C599 1.379 . S
H601 C595 0.959 . S
H602 C595 0.961 . S
H603 C595 0.960 . S
H604 C596 0.930 . S
H605 C597 0.929 . S
H606 C614 0.929 . S
H607 C616 0.930 . S
H608 C618 0.930 1_655 S
H609 C621 0.929 1_655 S
H610 C624 0.930 . S
H611 C626 0.960 . S
H612 C626 0.960 . S
H613 C626 0.960 . S
C614 H606 0.929 . S
C614 C615 1.377 . S
C614 C616 1.384 . S
C615 C614 1.377 . S
C615 C621 1.390 . S
C616 H607 0.930 . S
C616 C614 1.384 . S
C616 C617 1.372 . S
C617 C616 1.372 . S
C617 C618 1.400 . S
C617 C622 1.490 . S
C618 H608 0.930 1_455 S
C618 C617 1.400 . S
C618 C621 1.386 . S
H619 C635 0.930 1_655 S
H620 C636 0.931 1_655 S
C621 H609 0.929 1_455 S
C621 C615 1.390 . S
C621 C618 1.386 . S
C622 C617 1.490 . S
C622 C624 1.395 . S
C622 C625 1.403 . S
H623 C629 0.930 . S
C624 H610 0.930 . S
C624 C622 1.395 . S
C624 C627 1.403 . S
C625 C622 1.403 . S
C625 C626 1.524 . S
C625 C629 1.400 . S
C626 H611 0.960 . S
C626 H612 0.960 . S
C626 H613 0.960 . S
C626 C625 1.524 . S
C627 C624 1.403 . S
C627 C628 1.377 1_554 S
C627 C631 1.495 1_554 S
C628 C627 1.377 1_556 S
C628 C629 1.370 1_556 S
C628 C630 1.509 . S
C629 H623 0.930 . S
C629 C625 1.400 . S
C629 C628 1.370 1_554 S
C630 C628 1.509 . S
C630 C632 1.381 . S
C630 C636 1.383 . S
C631 C627 1.495 1_556 S
C631 H637 0.959 1_556 S
C631 H638 0.961 1_455 S
C631 H639 0.960 . S
C632 C630 1.381 . S
C632 C633 1.394 . S
C632 H640 0.930 . S
C633 C632 1.394 . S
C633 C634 1.383 . S
C633 H641 0.929 . S
C634 C633 1.383 . S
C634 C635 1.377 . S
C635 H619 0.930 1_455 S
C635 C634 1.377 . S
C635 C636 1.379 . S
C636 H620 0.931 1_455 S
C636 C630 1.383 . S
C636 C635 1.379 . S
H637 C631 0.959 1_554 S
H638 C631 0.961 1_655 S
H639 C631 0.960 . S
H640 C632 0.930 . S
H641 C633 0.929 . S
H642 C650 0.929 . S
H643 C652 0.930 . S
H644 C654 0.930 . S
H645 C657 0.929 . S
H646 C660 0.930 . S
H647 C662 0.960 . S
H648 C662 0.960 . S
H649 C662 0.960 . S
C650 H642 0.929 . S
C650 C651 1.377 1_565 S
C650 C652 1.384 . S
C651 C650 1.377 1_545 S
C651 C657 1.390 . S
C652 H643 0.930 . S
C652 C650 1.384 . S
C652 C653 1.372 1_565 S
C653 C652 1.372 1_545 S
C653 C654 1.400 . S
C653 C658 1.490 . S
C654 H644 0.930 . S
C654 C653 1.400 . S
C654 C657 1.386 . S
H655 C671 0.930 . S
H656 C672 0.931 . S
C657 H645 0.929 . S
C657 C651 1.390 . S
C657 C654 1.386 . S
C658 C653 1.490 . S
C658 C660 1.395 1_545 S
C658 C661 1.403 . S
H659 C665 0.930 . S
C660 H646 0.930 . S
C660 C658 1.395 1_565 S
C660 C663 1.403 . S
C661 C658 1.403 . S
C661 C662 1.524 . S
C661 C665 1.400 . S
C662 H647 0.960 . S
C662 H648 0.960 . S
C662 H649 0.960 . S
C662 C661 1.524 . S
C663 C660 1.403 . S
C663 C664 1.392 1_565 S
C663 C667 1.495 . S
C664 C663 1.392 1_545 S
C664 C665 1.385 . S
C664 C666 1.478 . S
C665 H659 0.930 . S
C665 C661 1.400 . S
C665 C664 1.385 . S
C666 C664 1.478 . S
C666 C668 1.381 1_545 S
C666 C672 1.383 . S
C667 C663 1.495 . S
C667 H673 0.959 . S
C667 H674 0.961 . S
C667 H675 0.960 . S
C668 C666 1.381 1_565 S
C668 C669 1.391 1_565 S
C668 H676 0.930 . S
C669 C668 1.391 1_545 S
C669 C670 1.415 . S
C669 H677 0.902 1_545 S
C670 C669 1.415 . S
C670 C671 1.377 . S
C671 H655 0.930 . S
C671 C670 1.377 . S
C671 C672 1.379 . S
C672 H656 0.931 . S
C672 C666 1.383 . S
C672 C671 1.379 . S
H673 C667 0.959 . S
H674 C667 0.961 . S
H675 C667 0.960 . S
H676 C668 0.930 . S
H677 C669 0.902 1_565 S
H678 C686 0.929 . S
H679 C688 0.930 . S
H680 C690 0.930 . S
H681 C693 0.929 . S
H682 C696 0.930 . S
H683 C698 0.960 . S
H684 C698 0.960 . S
H685 C698 0.960 . S
C686 H678 0.929 . S
C686 C687 1.377 . S
C686 C688 1.384 . S
C687 C686 1.377 . S
C687 C693 1.390 . S
C688 H679 0.930 . S
C688 C686 1.384 . S
C688 C689 1.372 . S
C689 C688 1.372 . S
C689 C690 1.400 . S
C689 C694 1.490 . S
C690 H680 0.930 . S
C690 C689 1.400 . S
C690 C693 1.386 . S
H691 C707 0.930 . S
H692 C708 0.931 . S
C693 H681 0.929 . S
C693 C687 1.390 . S
C693 C690 1.386 . S
C694 C689 1.490 . S
C694 C696 1.395 . S
C694 C697 1.403 . S
H695 C701 0.930 . S
C696 H682 0.930 . S
C696 C694 1.395 . S
C696 C699 1.403 . S
C697 C694 1.403 . S
C697 C698 1.524 . S
C697 C701 1.400 . S
C698 H683 0.960 . S
C698 H684 0.960 . S
C698 H685 0.960 . S
C698 C697 1.524 . S
C699 C696 1.403 . S
C699 C700 1.392 . S
C699 C703 1.495 . S
C700 C699 1.392 . S
C700 C701 1.385 . S
C700 C702 1.478 . S
C701 H695 0.930 . S
C701 C697 1.400 . S
C701 C700 1.385 . S
C702 C700 1.478 . S
C702 C704 1.381 . S
C702 C708 1.383 . S
C703 C699 1.495 . S
C703 H709 0.959 . S
C703 H710 0.961 . S
C703 H711 0.960 . S
C704 C702 1.381 . S
C704 C705 1.394 . S
C704 H712 0.930 . S
C705 C704 1.394 . S
C705 C706 1.383 . S
C705 H713 0.929 . S
C706 C705 1.383 . S
C706 C707 1.377 . S
C707 H691 0.930 . S
C707 C706 1.377 . S
C707 C708 1.379 . S
C708 H692 0.931 . S
C708 C702 1.383 . S
C708 C707 1.379 . S
H709 C703 0.959 . S
H710 C703 0.961 . S
H711 C703 0.960 . S
H712 C704 0.930 . S
H713 C705 0.929 . S
H714 C722 0.933 1_565 S
H715 C724 0.918 . S
H716 C726 0.930 . S
H717 C729 0.929 . S
H718 C732 0.930 . S
H719 C734 0.960 . S
H720 C734 0.960 . S
H721 C734 0.960 . S
C722 H714 0.933 1_545 S
C722 C723 1.374 . S
C722 C724 1.382 1_545 S
C723 C722 1.374 . S
C723 C729 1.390 . S
C724 H715 0.918 . S
C724 C722 1.382 1_565 S
C724 C725 1.386 1_565 S
C725 C724 1.386 1_545 S
C725 C726 1.400 . S
C725 C730 1.490 . S
C726 H716 0.930 . S
C726 C725 1.400 . S
C726 C729 1.386 . S
H727 C743 0.947 1_545 S
H728 C744 0.931 . S
C729 H717 0.929 . S
C729 C723 1.390 . S
C729 C726 1.386 . S
C730 C725 1.490 . S
C730 C732 1.395 1_545 S
C730 C733 1.403 . S
H731 C737 0.930 . S
C732 H718 0.930 . S
C732 C730 1.395 1_565 S
C732 C735 1.403 . S
C733 C730 1.403 . S
C733 C734 1.524 . S
C733 C737 1.400 . S
C734 H719 0.960 . S
C734 H720 0.960 . S
C734 H721 0.960 . S
C734 C733 1.524 . S
C735 C732 1.403 . S
C735 C736 1.392 . S
C735 C739 1.495 . S
C736 C735 1.392 . S
C736 C737 1.385 1_565 S
C736 C738 1.478 . S
C737 H731 0.930 . S
C737 C733 1.400 . S
C737 C736 1.385 1_545 S
C738 C736 1.478 . S
C738 C740 1.381 . S
C738 C744 1.383 . S
C739 C735 1.495 . S
C739 H745 0.959 . S
C739 H746 0.961 . S
C739 H747 0.960 . S
C740 C738 1.381 . S
C740 C741 1.394 . S
C740 H748 0.930 . S
C741 C740 1.394 . S
C741 C742 1.383 . S
C741 H749 0.929 . S
C742 C741 1.383 . S
C742 C743 1.361 . S
C743 H727 0.947 1_565 S
C743 C742 1.361 . S
C743 C744 1.379 . S
C744 H728 0.931 . S
C744 C738 1.383 . S
C744 C743 1.379 . S
H745 C739 0.959 . S
H746 C739 0.961 . S
H747 C739 0.960 . S
H748 C740 0.930 . S
H749 C741 0.929 . S
H750 C758 0.929 . S
H751 C760 0.930 . S
H752 C762 0.930 . S
H753 C765 0.929 . S
H754 C768 0.930 . S
H755 C770 0.960 . S
H756 C770 0.960 . S
H757 C770 0.960 . S
C758 H750 0.929 . S
C758 C759 1.377 . S
C758 C760 1.384 . S
C759 C758 1.377 . S
C759 C765 1.390 . S
C760 H751 0.930 . S
C760 C758 1.384 . S
C760 C761 1.372 . S
C761 C760 1.372 . S
C761 C762 1.400 . S
C761 C766 1.490 . S
C762 H752 0.930 . S
C762 C761 1.400 . S
C762 C765 1.386 . S
H763 C779 0.930 . S
H764 C780 0.931 . S
C765 H753 0.929 . S
C765 C759 1.390 . S
C765 C762 1.386 . S
C766 C761 1.490 . S
C766 C768 1.395 . S
C766 C769 1.403 . S
H767 C773 0.930 . S
C768 H754 0.930 . S
C768 C766 1.395 . S
C768 C771 1.403 . S
C769 C766 1.403 . S
C769 C770 1.524 . S
C769 C773 1.400 . S
C770 H755 0.960 . S
C770 H756 0.960 . S
C770 H757 0.960 . S
C770 C769 1.524 . S
C771 C768 1.403 . S
C771 C772 1.392 . S
C771 C775 1.495 . S
C772 C771 1.392 . S
C772 C773 1.385 . S
C772 C774 1.478 1_556 S
C773 H767 0.930 . S
C773 C769 1.400 . S
C773 C772 1.385 . S
C774 C772 1.478 1_554 S
C774 C776 1.381 . S
C774 C780 1.383 . S
C775 C771 1.495 . S
C775 H781 0.959 . S
C775 H782 0.961 . S
C775 H783 0.960 . S
C776 C774 1.381 . S
C776 C777 1.394 . S
C776 H784 0.930 . S
C777 C776 1.394 . S
C777 C778 1.383 . S
C777 H785 0.929 . S
C778 C777 1.383 . S
C778 C779 1.377 . S
C779 H763 0.930 . S
C779 C778 1.377 . S
C779 C780 1.379 . S
C780 H764 0.931 . S
C780 C774 1.383 . S
C780 C779 1.379 . S
H781 C775 0.959 . S
H782 C775 0.961 . S
H783 C775 0.960 . S
H784 C776 0.930 . S
H785 C777 0.929 . S
H786 C794 0.929 . S
H787 C796 0.930 . S
H788 C798 0.930 . S
H789 C801 0.929 . S
H790 C804 0.930 . S
H791 C806 0.960 . S
H792 C806 0.960 1_455 S
H793 C806 0.960 . S
C794 H786 0.929 . S
C794 C795 1.377 . S
C794 C796 1.384 . S
C795 C794 1.377 . S
C795 C801 1.390 1_455 S
C796 H787 0.930 . S
C796 C794 1.384 . S
C796 C797 1.372 . S
C797 C796 1.372 . S
C797 C798 1.400 1_455 S
C797 C802 1.490 . S
C798 H788 0.930 . S
C798 C797 1.400 1_655 S
C798 C801 1.386 . S
H799 C815 0.930 . S
H800 C816 0.931 . S
C801 H789 0.929 . S
C801 C795 1.390 1_655 S
C801 C798 1.386 . S
C802 C797 1.490 . S
C802 C804 1.395 . S
C802 C805 1.403 1_455 S
H803 C809 0.930 . S
C804 H790 0.930 . S
C804 C802 1.395 . S
C804 C807 1.403 . S
C805 C802 1.403 1_655 S
C805 C806 1.524 . S
C805 C809 1.400 . S
C806 H791 0.960 . S
C806 H792 0.960 1_655 S
C806 H793 0.960 . S
C806 C805 1.524 . S
C807 C804 1.403 . S
C807 C808 1.392 . S
C807 C811 1.495 . S
C808 C807 1.392 . S
C808 C809 1.385 1_455 S
C808 C810 1.478 . S
C809 H803 0.930 . S
C809 C805 1.400 . S
C809 C808 1.385 1_655 S
C810 C808 1.478 . S
C810 C812 1.381 . S
C810 C816 1.383 1_455 S
C811 C807 1.495 . S
C811 H817 0.959 . S
C811 H818 0.961 . S
C811 H819 0.960 . S
C812 C810 1.381 . S
C812 C813 1.394 . S
C812 H820 0.930 . S
C813 C812 1.394 . S
C813 C814 1.406 . S
C813 H821 0.929 . S
C814 C813 1.406 . S
C814 C815 1.356 1_455 S
C815 H799 0.930 . S
C815 C814 1.356 1_655 S
C815 C816 1.379 . S
C816 H800 0.931 . S
C816 C810 1.383 1_655 S
C816 C815 1.379 . S
H817 C811 0.959 . S
H818 C811 0.961 . S
H819 C811 0.960 . S
H820 C812 0.930 . S
H821 C813 0.929 . S
C183 C6 0.500 . S
C202 C169 0.475 . S
C219 C59 1.772 . S
C238 C151 1.759 . S
C255 C86 1.178 . S
C274 C163 1.192 . S
C291 C15 0.432 . S
C310 C172 0.330 . S
C346 C154 1.795 . S
C327 C50 1.785 . S
C382 C160 1.283 . S
C363 C95 1.255 . S
C399 C46 1.176 . S
C418 C133 1.183 . S
C435 C99 2.945 . S
C454 C142 2.915 1_655 S
C471 C10 1.826 . S
C490 C124 1.853 . S
C526 C136 1.255 . S
C507 C55 1.236 . S
C562 C145 2.812 . S
C543 C90 2.817 . S
C579 C19 1.750 . S
C598 C127 1.723 . S
C634 C143 1.769 . S
C615 C18 1.706 . S
C651 C49 1.325 . S
C670 C125 1.373 . S
C687 C98 1.453 . S
C706 C134 1.504 . S
C742 C161 1.484 1_565 S
C723 C58 1.433 . S
C778 C170 1.091 . S
C759 C89 1.066 . S
C795 C9 1.319 . S
C814 C152 1.364 . S
