# Generated by pormake.
# Topology pto, (3,4)-cn, num edge types: 1
# Building blocks:
#     Node 0, Type 0, BuildingBlock: MIDCAF_clean_linker_0, # of connection points: 3
#     Node 1, Type 0, BuildingBlock: MIDCAF_clean_linker_0, # of connection points: 3
#     Node 2, Type 0, BuildingBlock: MIDCAF_clean_linker_0, # of connection points: 3
#     Node 3, Type 0, BuildingBlock: MIDCAF_clean_linker_0, # of connection points: 3
#     Node 4, Type 0, BuildingBlock: MIDCAF_clean_linker_0, # of connection points: 3
#     Node 5, Type 0, BuildingBlock: MIDCAF_clean_linker_0, # of connection points: 3
#     Node 6, Type 0, BuildingBlock: MIDCAF_clean_linker_0, # of connection points: 3
#     Node 7, Type 0, BuildingBlock: MIDCAF_clean_linker_0, # of connection points: 3
#     Node 8, Type 1, BuildingBlock: KOZSID_clean_sbu_0, # of connection points: 4
#     Node 9, Type 1, BuildingBlock: KOZSID_clean_sbu_0, # of connection points: 4
#     Node 10, Type 1, BuildingBlock: KOZSID_clean_sbu_0, # of connection points: 4
#     Node 11, Type 1, BuildingBlock: KOZSID_clean_sbu_0, # of connection points: 4
#     Node 12, Type 1, BuildingBlock: KOZSID_clean_sbu_0, # of connection points: 4
#     Node 13, Type 1, BuildingBlock: KOZSID_clean_sbu_0, # of connection points: 4
#     Edge 14, Type (0, 1), BuildingBlock: UVAHIK_clean_linker_0, # of connection points: 2
#     Edge 15, Type (0, 1), BuildingBlock: UVAHIK_clean_linker_0, # of connection points: 2
#     Edge 16, Type (0, 1), BuildingBlock: UVAHIK_clean_linker_0, # of connection points: 2
#     Edge 17, Type (0, 1), BuildingBlock: UVAHIK_clean_linker_0, # of connection points: 2
#     Edge 18, Type (0, 1), BuildingBlock: UVAHIK_clean_linker_0, # of connection points: 2
#     Edge 19, Type (0, 1), BuildingBlock: UVAHIK_clean_linker_0, # of connection points: 2
#     Edge 20, Type (0, 1), BuildingBlock: UVAHIK_clean_linker_0, # of connection points: 2
#     Edge 21, Type (0, 1), BuildingBlock: UVAHIK_clean_linker_0, # of connection points: 2
#     Edge 22, Type (0, 1), BuildingBlock: UVAHIK_clean_linker_0, # of connection points: 2
#     Edge 23, Type (0, 1), BuildingBlock: UVAHIK_clean_linker_0, # of connection points: 2
#     Edge 24, Type (0, 1), BuildingBlock: UVAHIK_clean_linker_0, # of connection points: 2
#     Edge 25, Type (0, 1), BuildingBlock: UVAHIK_clean_linker_0, # of connection points: 2
#     Edge 26, Type (0, 1), BuildingBlock: UVAHIK_clean_linker_0, # of connection points: 2
#     Edge 27, Type (0, 1), BuildingBlock: UVAHIK_clean_linker_0, # of connection points: 2
#     Edge 28, Type (0, 1), BuildingBlock: UVAHIK_clean_linker_0, # of connection points: 2
#     Edge 29, Type (0, 1), BuildingBlock: UVAHIK_clean_linker_0, # of connection points: 2
#     Edge 30, Type (0, 1), BuildingBlock: UVAHIK_clean_linker_0, # of connection points: 2
#     Edge 31, Type (0, 1), BuildingBlock: UVAHIK_clean_linker_0, # of connection points: 2
#     Edge 32, Type (0, 1), BuildingBlock: UVAHIK_clean_linker_0, # of connection points: 2
#     Edge 33, Type (0, 1), BuildingBlock: UVAHIK_clean_linker_0, # of connection points: 2
#     Edge 34, Type (0, 1), BuildingBlock: UVAHIK_clean_linker_0, # of connection points: 2
#     Edge 35, Type (0, 1), BuildingBlock: UVAHIK_clean_linker_0, # of connection points: 2
#     Edge 36, Type (0, 1), BuildingBlock: UVAHIK_clean_linker_0, # of connection points: 2
#     Edge 37, Type (0, 1), BuildingBlock: UVAHIK_clean_linker_0, # of connection points: 2
# Relax obj value: 0.000
# Max RMSD: 0.019
# Mean RMSD: 0.008
data_MOF--net-pto--node1-KOZSID_clean_sbu_0--node2-MIDCAF_clean_linker_0--edge1-UVAHIK_clean_linker_0
_symmetry_space_group_name_H-M    P1
_symmetry_Int_Tables_number       1
_symmetry_cell_setting            triclinic
loop_
_symmetry_equiv_pos_as_xyz
'x, y, z'
_cell_length_a     56.973664
_cell_length_b     77.149234
_cell_length_c     67.186816
_cell_angle_alpha  87.937824
_cell_angle_beta   87.950203
_cell_angle_gamma 92.320131
loop_
_atom_site_label
_atom_site_type_symbol
_atom_site_fract_x
_atom_site_fract_y
_atom_site_fract_z
_atom_type_partial_charge
C0 C 0.32296 0.24203 0.25179 0.0
C1 C 0.33208 0.25736 0.24202 0.0
C2 C 0.32762 0.27339 0.25035 0.0
C3 C 0.31396 0.27408 0.26799 0.0
H4 H 0.26224 0.30407 0.29397 0.0
H5 H 0.23918 0.32931 0.30042 0.0
H6 H 0.21763 0.30717 0.35845 0.0
H7 H 0.24075 0.28188 0.35215 0.0
H8 H 0.24507 0.24119 0.35965 0.0
H9 H 0.23594 0.2145 0.37938 0.0
H10 H 0.27876 0.18619 0.3385 0.0
H11 H 0.28766 0.21272 0.31857 0.0
H12 H 0.30278 0.23061 0.27667 0.0
H13 H 0.32632 0.2295 0.24574 0.0
H14 H 0.33436 0.28541 0.24304 0.0
H15 H 0.31066 0.28665 0.27396 0.0
N16 N 0.27974 0.27431 0.30121 0.0
N17 N 0.26178 0.26023 0.32966 0.0
N18 N 0.28592 0.2449 0.30817 0.0
C19 C 0.26558 0.27484 0.31788 0.0
C20 C 0.27192 0.24521 0.32493 0.0
C21 C 0.29001 0.25939 0.29629 0.0
C22 C 0.25322 0.29084 0.32248 0.0
C23 C 0.25281 0.30461 0.3082 0.0
C24 C 0.2395 0.31905 0.31183 0.0
C25 C 0.2265 0.32013 0.32987 0.0
C26 C 0.2276 0.30672 0.34446 0.0
C27 C 0.24074 0.29218 0.34077 0.0
C28 C 0.26704 0.22915 0.33744 0.0
C29 C 0.2526 0.2293 0.35486 0.0
C30 C 0.24744 0.21402 0.36624 0.0
C31 C 0.25654 0.19823 0.36045 0.0
C32 C 0.27119 0.1981 0.34319 0.0
C33 C 0.2764 0.21337 0.33183 0.0
C34 C 0.3048 0.25873 0.27779 0.0
C35 C 0.30961 0.24269 0.26956 0.0
C36 C 0.21461 0.70253 0.72637 0.0
C37 C 0.20733 0.69884 0.70718 0.0
C38 C 0.21453 0.71012 0.69107 0.0
C39 C 0.22831 0.72512 0.69418 0.0
H40 H 0.23269 0.77761 0.67524 0.0
H41 H 0.22695 0.80379 0.65497 0.0
H42 H 0.2767 0.83222 0.6898 0.0
H43 H 0.28217 0.80621 0.71033 0.0
H44 H 0.2989 0.7898 0.74997 0.0
H45 H 0.3225 0.79182 0.77935 0.0
H46 H 0.30713 0.73745 0.79382 0.0
H47 H 0.28374 0.73528 0.76431 0.0
H48 H 0.23394 0.71989 0.74443 0.0
H49 H 0.20934 0.69394 0.73899 0.0
H50 H 0.20903 0.70754 0.67615 0.0
H51 H 0.23332 0.73375 0.68154 0.0
N52 N 0.24817 0.75908 0.70424 0.0
N53 N 0.27348 0.77508 0.72409 0.0
N54 N 0.26272 0.74618 0.73319 0.0
C55 C 0.26014 0.77418 0.70777 0.0
C56 C 0.27495 0.76114 0.73683 0.0
C57 C 0.24938 0.74503 0.71689 0.0
C58 C 0.25778 0.78978 0.69455 0.0
C59 C 0.24252 0.7894 0.67854 0.0
C60 C 0.23929 0.8044 0.66684 0.0
C61 C 0.25125 0.82011 0.67086 0.0
C62 C 0.26691 0.82039 0.68654 0.0
C63 C 0.27014 0.80542 0.69824 0.0
C64 C 0.28938 0.76237 0.75471 0.0
C65 C 0.30053 0.77824 0.75936 0.0
C66 C 0.31396 0.77945 0.77628 0.0
C67 C 0.31665 0.7648 0.7889 0.0
C68 C 0.30559 0.74892 0.78425 0.0
C69 C 0.29207 0.74772 0.76737 0.0
C70 C 0.23551 0.72889 0.71341 0.0
C71 C 0.22877 0.71732 0.72943 0.0
C72 C 0.71574 0.748 0.24878 0.0
C73 C 0.70636 0.76395 0.2432 0.0
C74 C 0.71116 0.77847 0.25465 0.0
C75 C 0.72497 0.77706 0.27136 0.0
H76 H 0.75407 0.80563 0.3149 0.0
H77 H 0.76056 0.83063 0.33527 0.0
H78 H 0.79051 0.79782 0.3804 0.0
H79 H 0.78471 0.77283 0.35971 0.0
H80 H 0.79636 0.73402 0.349 0.0
H81 H 0.81798 0.70783 0.35526 0.0
H82 H 0.79916 0.68923 0.29789 0.0
H83 H 0.77765 0.71536 0.29147 0.0
H84 H 0.73659 0.73409 0.26925 0.0
H85 H 0.71257 0.73662 0.24011 0.0
H86 H 0.70397 0.79089 0.25085 0.0
H87 H 0.72822 0.78852 0.27985 0.0
N88 N 0.75207 0.77329 0.30664 0.0
N89 N 0.77586 0.75691 0.32723 0.0
N90 N 0.75969 0.74459 0.29914 0.0
C91 C 0.76541 0.77205 0.32294 0.0
C92 C 0.77314 0.74313 0.31537 0.0
C93 C 0.74903 0.7596 0.2947 0.0
C94 C 0.76889 0.78719 0.33564 0.0
C95 C 0.762 0.8037 0.32918 0.0
C96 C 0.76561 0.81805 0.34093 0.0
C97 C 0.77602 0.81626 0.35951 0.0
C98 C 0.78277 0.79973 0.36603 0.0
C99 C 0.77932 0.78537 0.35421 0.0
C100 C 0.78534 0.72687 0.31968 0.0
C101 C 0.79674 0.72434 0.33772 0.0
C102 C 0.80902 0.70929 0.34139 0.0
C103 C 0.81033 0.69655 0.32702 0.0
C104 C 0.79866 0.69894 0.30913 0.0
C105 C 0.78623 0.71389 0.30552 0.0
C106 C 0.73438 0.7611 0.27696 0.0
C107 C 0.72963 0.74659 0.26543 0.0
C108 C 0.79299 0.2248 0.68393 0.0
C109 C 0.77807 0.20984 0.68505 0.0
C110 C 0.75794 0.20937 0.69779 0.0
C111 C 0.75302 0.2235 0.70944 0.0
H112 H 0.72854 0.2336 0.76783 0.0
H113 H 0.70303 0.22933 0.79773 0.0
H114 H 0.69827 0.28481 0.80152 0.0
H115 H 0.72386 0.2892 0.7717 0.0
H116 H 0.78121 0.30707 0.75604 0.0
H117 H 0.80491 0.33399 0.7499 0.0
H118 H 0.81226 0.32294 0.68755 0.0
H119 H 0.78894 0.2958 0.69363 0.0
H120 H 0.79984 0.25035 0.69425 0.0
H121 H 0.80852 0.22552 0.67411 0.0
H122 H 0.74624 0.19793 0.69903 0.0
H123 H 0.73748 0.22266 0.71926 0.0
N124 N 0.74818 0.25105 0.73736 0.0
N125 N 0.75545 0.28004 0.74544 0.0
N126 N 0.77418 0.269 0.71723 0.0
C127 C 0.7442 0.26439 0.74953 0.0
C128 C 0.7704 0.28245 0.72928 0.0
C129 C 0.76313 0.25326 0.72117 0.0
C130 C 0.72827 0.26176 0.76738 0.0
C131 C 0.722 0.24491 0.77497 0.0
C132 C 0.70751 0.24244 0.79215 0.0
C133 C 0.69873 0.25674 0.8019 0.0
C134 C 0.70469 0.27356 0.79419 0.0
C135 C 0.71944 0.27606 0.77718 0.0
C136 C 0.78331 0.29929 0.72533 0.0
C137 C 0.7877 0.31043 0.74099 0.0
C138 C 0.80132 0.32578 0.73753 0.0
C139 C 0.81036 0.33043 0.71828 0.0
C140 C 0.80536 0.31962 0.70249 0.0
C141 C 0.79214 0.30409 0.70602 0.0
C142 C 0.76797 0.23848 0.7084 0.0
C143 C 0.7879 0.23904 0.69538 0.0
C144 C 0.6946 0.77776 0.78307 0.0
C145 C 0.69308 0.76404 0.79744 0.0
C146 C 0.70573 0.74911 0.79403 0.0
C147 C 0.71995 0.74803 0.77679 0.0
H148 H 0.76922 0.71768 0.75097 0.0
H149 H 0.79128 0.69177 0.74519 0.0
H150 H 0.81274 0.71212 0.68636 0.0
H151 H 0.79071 0.73804 0.692 0.0
H152 H 0.79803 0.78377 0.69513 0.0
H153 H 0.80677 0.81004 0.6743 0.0
H154 H 0.73709 0.82746 0.68746 0.0
H155 H 0.72839 0.80136 0.70874 0.0
H156 H 0.70993 0.78766 0.75523 0.0
H157 H 0.6852 0.78949 0.78536 0.0
H158 H 0.70464 0.73822 0.80471 0.0
H159 H 0.72963 0.73639 0.77478 0.0
N160 N 0.74986 0.74653 0.74139 0.0
N161 N 0.76918 0.7602 0.71333 0.0
N162 N 0.74195 0.77528 0.73232 0.0
C163 C 0.76533 0.74591 0.72559 0.0
C164 C 0.75754 0.7749 0.71658 0.0
C165 C 0.73806 0.76115 0.74484 0.0
C166 C 0.77823 0.72998 0.72197 0.0
C167 C 0.77855 0.71663 0.73676 0.0
C168 C 0.79127 0.70182 0.73351 0.0
C169 C 0.80373 0.69997 0.71534 0.0
C170 C 0.80314 0.71316 0.70044 0.0
C171 C 0.79063 0.72805 0.70375 0.0
C172 C 0.76252 0.79053 0.70356 0.0
C173 C 0.78454 0.79317 0.69355 0.0
C174 C 0.78961 0.8082 0.68174 0.0
C175 C 0.77258 0.82067 0.67937 0.0
C176 C 0.75044 0.81795 0.68907 0.0
C177 C 0.74553 0.80309 0.70126 0.0
C178 C 0.72193 0.76191 0.76258 0.0
C179 C 0.7089 0.77673 0.76584 0.0
C180 C 0.79015 0.2153 0.37089 0.0
C181 C 0.77973 0.19918 0.36632 0.0
C182 C 0.76558 0.19822 0.34966 0.0
C183 C 0.76196 0.21305 0.3378 0.0
H184 H 0.73177 0.22892 0.28659 0.0
H185 H 0.70827 0.22671 0.25725 0.0
H186 H 0.71451 0.28241 0.24759 0.0
H187 H 0.73858 0.28463 0.27667 0.0
H188 H 0.77761 0.30553 0.30006 0.0
H189 H 0.79993 0.33226 0.30623 0.0
H190 H 0.82663 0.30838 0.3595 0.0
H191 H 0.80478 0.28155 0.3532 0.0
H192 H 0.79501 0.2423 0.36295 0.0
H193 H 0.80137 0.21642 0.3835 0.0
H194 H 0.75706 0.18603 0.3459 0.0
H195 H 0.75094 0.21181 0.32508 0.0
N196 N 0.75511 0.24396 0.31354 0.0
N197 N 0.763 0.27356 0.30586 0.0
N198 N 0.77976 0.26029 0.33357 0.0
C199 C 0.75201 0.25823 0.30163 0.0
C200 C 0.77691 0.27469 0.32181 0.0
C201 C 0.76892 0.24488 0.32956 0.0
C202 C 0.73717 0.25696 0.28402 0.0
C203 C 0.72813 0.24073 0.27827 0.0
C204 C 0.71451 0.23946 0.26147 0.0
C205 C 0.70949 0.25438 0.25005 0.0
C206 C 0.71834 0.27062 0.25588 0.0
C207 C 0.73206 0.2719 0.27264 0.0
C208 C 0.78947 0.2913 0.32605 0.0
C209 C 0.78815 0.30596 0.31314 0.0
C210 C 0.80085 0.32135 0.31673 0.0
C211 C 0.81515 0.32243 0.3333 0.0
C212 C 0.81609 0.30789 0.34641 0.0
C213 C 0.80343 0.29251 0.34283 0.0
C214 C 0.77247 0.22918 0.3423 0.0
C215 C 0.78659 0.23013 0.35902 0.0
C216 C 0.26551 0.20406 0.69514 0.0
C217 C 0.25522 0.20622 0.67657 0.0
C218 C 0.24924 0.22291 0.67004 0.0
C219 C 0.25297 0.23711 0.68204 0.0
H220 H 0.23581 0.28804 0.68789 0.0
H221 H 0.21469 0.31425 0.68109 0.0
H222 H 0.22715 0.33088 0.74068 0.0
H223 H 0.24891 0.30495 0.7473 0.0
H224 H 0.27678 0.28012 0.77704 0.0
H225 H 0.29891 0.27681 0.80713 0.0
H226 H 0.33819 0.23643 0.78004 0.0
H227 H 0.31524 0.23921 0.75035 0.0
H228 H 0.2772 0.21609 0.72138 0.0
H229 H 0.27052 0.19136 0.70043 0.0
H230 H 0.24115 0.22493 0.65584 0.0
H231 H 0.24783 0.24976 0.67667 0.0
N232 N 0.25493 0.26479 0.70994 0.0
N233 N 0.26917 0.27651 0.7391 0.0
N234 N 0.27861 0.24835 0.73056 0.0
C235 C 0.2565 0.27821 0.72244 0.0
C236 C 0.2804 0.26166 0.74318 0.0
C237 C 0.26585 0.2498 0.71393 0.0
C238 C 0.24405 0.29434 0.71816 0.0
C239 C 0.23412 0.2973 0.69954 0.0
C240 C 0.22188 0.31231 0.69567 0.0
C241 C 0.21913 0.32467 0.71035 0.0
C242 C 0.22923 0.32177 0.72891 0.0
C243 C 0.24161 0.30683 0.73275 0.0
C244 C 0.29421 0.2599 0.76132 0.0
C245 C 0.29015 0.27054 0.77752 0.0
C246 C 0.30297 0.2687 0.79476 0.0
C247 C 0.32042 0.25635 0.7961 0.0
C248 C 0.3246 0.24583 0.77976 0.0
C249 C 0.31153 0.2475 0.76265 0.0
C250 C 0.26298 0.23493 0.70076 0.0
C251 C 0.26946 0.21827 0.70706 0.0
C252 C 0.22666 0.6915 0.3063 0.0
C253 C 0.21268 0.68949 0.32397 0.0
C254 C 0.21174 0.70339 0.33688 0.0
C255 C 0.22408 0.71907 0.33205 0.0
H256 H 0.23813 0.76744 0.35306 0.0
H257 H 0.23093 0.79223 0.37355 0.0
H258 H 0.26092 0.82684 0.3266 0.0
H259 H 0.26812 0.80208 0.30596 0.0
H260 H 0.30146 0.78427 0.27304 0.0
H261 H 0.32526 0.78785 0.24221 0.0
H262 H 0.30411 0.7359 0.22642 0.0
H263 H 0.28008 0.73228 0.25712 0.0
H264 H 0.24932 0.70835 0.28757 0.0
H265 H 0.22757 0.68109 0.29593 0.0
H266 H 0.20143 0.70216 0.35075 0.0
H267 H 0.22273 0.72952 0.34231 0.0
N268 N 0.24702 0.75198 0.32035 0.0
N269 N 0.27099 0.76953 0.29811 0.0
N270 N 0.26341 0.74021 0.29162 0.0
C271 C 0.25748 0.7677 0.31519 0.0
C272 C 0.27411 0.75584 0.28627 0.0
C273 C 0.24986 0.73817 0.30866 0.0
C274 C 0.25369 0.78275 0.32783 0.0
C275 C 0.24323 0.78031 0.34707 0.0
C276 C 0.23921 0.7945 0.35887 0.0
C277 C 0.24534 0.81144 0.35164 0.0
C278 C 0.25582 0.81392 0.33246 0.0
C279 C 0.26007 0.79971 0.32071 0.0
C280 C 0.28879 0.75798 0.2676 0.0
C281 C 0.30183 0.77358 0.26302 0.0
C282 C 0.31559 0.77562 0.2454 0.0
C283 C 0.31653 0.76216 0.2319 0.0
C284 C 0.30352 0.74657 0.23644 0.0
C285 C 0.28986 0.74448 0.25411 0.0
C286 C 0.23769 0.72123 0.31418 0.0
C287 C 0.23903 0.70718 0.30146 0.0
C288 C 0.0497 0.53007 0.36873 0.0
C289 C 0.05828 0.53468 0.38697 0.0
C290 C 0.0454 0.5251 0.40125 0.0
C291 C 0.02987 0.51516 0.39096 0.0
N292 N 0.03202 0.51779 0.37095 0.0
Co293 Co 0.01353 0.50558 0.35036 0.0
N294 N 0.9938 0.49215 0.37144 0.0
C295 C 0.99469 0.49367 0.3914 0.0
C296 C 0.9786 0.48305 0.40209 0.0
C297 C 0.96669 0.47419 0.38814 0.0
C298 C 0.97637 0.47989 0.36968 0.0
N299 N 0.99566 0.49286 0.32975 0.0
C300 C 0.9786 0.48011 0.33197 0.0
C301 C 0.97171 0.4742 0.31369 0.0
C302 C 0.98483 0.48357 0.29941 0.0
C303 C 0.99902 0.49454 0.30972 0.0
N304 N 0.03264 0.51949 0.32927 0.0
C305 C 0.0304 0.51901 0.3093 0.0
C306 C 0.04524 0.53057 0.29861 0.0
C307 C 0.05763 0.53905 0.31255 0.0
C308 C 0.04969 0.53205 0.33103 0.0
N309 N 0.0368 0.48712 0.3502 0.0
C310 C 0.06851 0.45999 0.34957 0.0
C311 C 0.06346 0.46926 0.3321 0.0
C312 C 0.04768 0.4826 0.33274 0.0
C313 C 0.05774 0.46479 0.36744 0.0
C314 C 0.04215 0.47832 0.36742 0.0
N315 N 0.9902 0.52402 0.35051 0.0
C316 C 0.96364 0.54227 0.33294 0.0
C317 C 0.95743 0.55039 0.35046 0.0
C318 C 0.96783 0.5451 0.36804 0.0
C319 C 0.98392 0.53191 0.36776 0.0
C320 C 0.98 0.5293 0.33327 0.0
H321 H 0.99104 0.52834 0.38169 0.0
H322 H 0.98417 0.52384 0.31934 0.0
H323 H 0.04451 0.48899 0.31886 0.0
H324 H 0.03448 0.48129 0.38152 0.0
C325 C 0.012 0.50419 0.39967 0.0
C326 C 0.05867 0.53793 0.34979 0.0
C327 C 0.96866 0.47302 0.35097 0.0
C328 C 0.01495 0.50704 0.30101 0.0
H329 H 0.07225 0.54414 0.38968 0.0
H330 H 0.04689 0.52556 0.41724 0.0
H331 H 0.97614 0.48166 0.41813 0.0
H332 H 0.95266 0.46448 0.3912 0.0
H333 H 0.9586 0.46411 0.31095 0.0
H334 H 0.98407 0.48255 0.28342 0.0
H335 H 0.04693 0.53254 0.28258 0.0
H336 H 0.07097 0.54926 0.30944 0.0
H337 H 0.07171 0.46632 0.31791 0.0
H338 H 0.06091 0.45794 0.38138 0.0
H339 H 0.95625 0.54612 0.3189 0.0
H340 H 0.96337 0.55098 0.38201 0.0
C341 C 0.04655 0.53976 0.70675 0.0
C342 C 0.05452 0.54519 0.72492 0.0
C343 C 0.04226 0.53542 0.73938 0.0
C344 C 0.02771 0.52455 0.7293 0.0
N345 N 0.03011 0.52659 0.70922 0.0
Co346 Co 0.01246 0.51338 0.68889 0.0
N347 N 0.99414 0.49922 0.71027 0.0
C348 C 0.99607 0.50026 0.73023 0.0
C349 C 0.98097 0.48908 0.74118 0.0
C350 C 0.96881 0.4802 0.72744 0.0
C351 C 0.97738 0.48641 0.70879 0.0
N352 N 0.99441 0.50041 0.66859 0.0
C353 C 0.97773 0.48737 0.67104 0.0
C354 C 0.97012 0.48175 0.65285 0.0
C355 C 0.98223 0.49167 0.63842 0.0
C356 C 0.99658 0.50267 0.64853 0.0
N357 N 0.03116 0.52732 0.66754 0.0
C358 C 0.02978 0.52586 0.6476 0.0
C359 C 0.0443 0.53745 0.63665 0.0
C360 C 0.05563 0.54695 0.65037 0.0
C361 C 0.04741 0.54051 0.66902 0.0
N362 N 0.03671 0.49559 0.68863 0.0
C363 C 0.07029 0.46978 0.68855 0.0
C364 C 0.06076 0.47567 0.67082 0.0
C365 C 0.04424 0.48857 0.67118 0.0
C366 C 0.06288 0.47708 0.70628 0.0
C367 C 0.04615 0.48977 0.70599 0.0
N368 N 0.98822 0.53114 0.68917 0.0
C369 C 0.96455 0.55173 0.67182 0.0
C370 C 0.95425 0.55662 0.68981 0.0
C371 C 0.96115 0.54856 0.70743 0.0
C372 C 0.97812 0.53605 0.70679 0.0
C373 C 0.98125 0.53895 0.67183 0.0
H374 H 0.98289 0.53066 0.72078 0.0
H375 H 0.98828 0.53565 0.65765 0.0
H376 H 0.03779 0.49258 0.65717 0.0
H377 H 0.04102 0.49454 0.72006 0.0
C378 C 0.01178 0.5122 0.73827 0.0
C379 C 0.05484 0.54779 0.68765 0.0
C380 C 0.9692 0.47953 0.69017 0.0
C381 C 0.01334 0.51444 0.6396 0.0
H382 H 0.06774 0.55524 0.72749 0.0
H383 H 0.04374 0.53618 0.75535 0.0
H384 H 0.97898 0.48763 0.75724 0.0
H385 H 0.95517 0.47025 0.73082 0.0
H386 H 0.95744 0.47136 0.65019 0.0
H387 H 0.98111 0.4907 0.62244 0.0
H388 H 0.04593 0.53914 0.62058 0.0
H389 H 0.06813 0.55766 0.64696 0.0
H390 H 0.06617 0.47046 0.65669 0.0
H391 H 0.06958 0.47274 0.72042 0.0
H392 H 0.95958 0.55761 0.65778 0.0
H393 H 0.95384 0.55214 0.72174 0.0
C394 C 0.24107 0.98552 0.54755 0.0
C395 C 0.26275 0.98145 0.55482 0.0
C396 C 0.27934 0.99062 0.54315 0.0
C397 C 0.26689 -0.00024 0.52953 0.0
N398 N 0.24331 0.99712 0.53193 0.0
Co399 Co 0.21857 0.00785 0.51557 0.0
N400 N 0.243 0.01965 0.49697 0.0
C401 C 0.26654 0.01794 0.49712 0.0
C402 C 0.27874 0.02767 0.4824 0.0
C403 C 0.26202 0.03625 0.47239 0.0
C404 C 0.24054 0.03128 0.4817 0.0
N405 N 0.19388 0.01927 0.49974 0.0
C406 C 0.19625 0.03152 0.48476 0.0
C407 C 0.17462 0.037 0.47874 0.0
C408 C 0.15795 0.02804 0.49054 0.0
C409 C 0.17032 0.01772 0.50307 0.0
N410 N 0.19414 0.99538 0.53364 0.0
C411 C 0.17053 0.99587 0.53243 0.0
C412 C 0.15831 0.98508 0.54614 0.0
C413 C 0.17512 0.97693 0.5565 0.0
C414 C 0.19667 0.98332 0.54848 0.0
N415 N 0.21932 0.0281 0.53295 0.0
C416 C 0.22041 0.05763 0.55635 0.0
C417 C 0.19945 0.04799 0.55418 0.0
C418 C 0.19927 0.03343 0.54239 0.0
C419 C 0.24082 0.05214 0.54687 0.0
C420 C 0.23993 0.03741 0.53546 0.0
N421 N 0.21787 0.9876 0.49816 0.0
C422 C 0.19648 0.96703 0.47851 0.0
C423 C 0.21695 0.95826 0.47445 0.0
C424 C 0.23789 0.96448 0.48225 0.0
C425 C 0.23799 0.97911 0.49383 0.0
C426 C 0.1973 0.9815 0.49043 0.0
H427 H 0.25458 0.98322 0.49915 0.0
H428 H 0.18102 0.98743 0.4933 0.0
H429 H 0.18268 0.0268 0.541 0.0
H430 H 0.25616 0.03388 0.52877 0.0
C431 C 0.27678 0.00904 0.51284 0.0
C432 C 0.21902 0.97707 0.55496 0.0
C433 C 0.21855 0.03889 0.47646 0.0
C434 C 0.1604 0.00657 0.5182 0.0
H435 H 0.26622 0.97234 0.56688 0.0
H436 H 0.29824 0.99007 0.54392 0.0
H437 H 0.2976 0.029 0.47985 0.0
H438 H 0.2653 0.04559 0.46009 0.0
H439 H 0.1713 0.04669 0.46724 0.0
H440 H 0.13908 0.02915 0.49027 0.0
H441 H 0.13943 0.98316 0.54816 0.0
H442 H 0.17194 0.9672 0.56841 0.0
H443 H 0.18318 0.05186 0.56122 0.0
H444 H 0.25754 0.05908 0.54841 0.0
H445 H 0.17983 0.96256 0.47283 0.0
H446 H 0.25425 0.95821 0.47923 0.0
C447 C 0.47354 0.79127 0.0441 0.0
C448 C 0.46527 0.80729 0.04909 0.0
C449 C 0.47865 0.81953 0.0382 0.0
C450 C 0.49414 0.81032 0.02715 0.0
N451 N 0.49138 0.79291 0.03019 0.0
Co452 Co 0.50988 0.77468 0.01695 0.0
N453 N 0.53059 0.79274 0.00199 0.0
C454 C 0.53016 0.81016 0.00357 0.0
C455 C 0.54655 0.81921 0.99142 0.0
C456 C 0.55801 0.80686 0.98132 0.0
C457 C 0.54777 0.79094 0.98785 0.0
N458 N 0.52796 0.75643 0.00322 0.0
C459 C 0.54494 0.75811 0.98855 0.0
C460 C 0.55176 0.74206 0.98222 0.0
C461 C 0.53857 0.7298 0.99323 0.0
C462 C 0.52441 0.73901 0.00548 0.0
N463 N 0.48958 0.75659 0.03234 0.0
C464 C 0.49121 0.73916 0.03188 0.0
C465 C 0.47577 0.73008 0.04484 0.0
C466 C 0.46368 0.74243 0.05436 0.0
C467 C 0.47239 0.75842 0.0465 0.0
N468 N 0.4877 0.77466 0.99485 0.0
C469 C 0.4583 0.77422 0.962 0.0
C470 C 0.46286 0.75893 0.97267 0.0
C471 C 0.47746 0.75943 0.98887 0.0
C472 C 0.46825 0.78981 0.96838 0.0
C473 C 0.48273 0.78974 0.98474 0.0
N474 N 0.5321 0.77467 0.03907 0.0
C475 C 0.55524 0.75897 0.0626 0.0
C476 C 0.56162 0.77427 0.07188 0.0
C477 C 0.55341 0.78985 0.06415 0.0
C478 C 0.53884 0.78976 0.04785 0.0
C479 C 0.54062 0.75946 0.0464 0.0
H480 H 0.53304 0.80205 0.0428 0.0
H481 H 0.53637 0.74732 0.04018 0.0
H482 H 0.48033 0.74731 0.9962 0.0
H483 H 0.48996 0.80202 0.98875 0.0
C484 C 0.51264 0.81766 0.01504 0.0
C485 C 0.46439 0.77494 0.05349 0.0
C486 C 0.55432 0.77455 0.97956 0.0
C487 C 0.5074 0.73167 0.01906 0.0
H488 H 0.45129 0.80986 0.05978 0.0
H489 H 0.47761 0.83349 0.03868 0.0
H490 H 0.54931 0.83316 0.98963 0.0
H491 H 0.57194 0.80929 0.97007 0.0
H492 H 0.56462 0.73943 0.9706 0.0
H493 H 0.53895 0.71585 0.99215 0.0
H494 H 0.47374 0.71614 0.04725 0.0
H495 H 0.45022 0.73991 0.06598 0.0
H496 H 0.45515 0.74654 0.96859 0.0
H497 H 0.46536 0.80201 0.96055 0.0
H498 H 0.56155 0.74659 0.06774 0.0
H499 H 0.55774 0.80206 0.07089 0.0
C500 C 0.83509 0.98682 0.55337 0.0
C501 C 0.85719 0.98143 0.55826 0.0
C502 C 0.87315 0.99156 0.54702 0.0
C503 C 0.85998 0.00245 0.53585 0.0
N504 N 0.83654 4e-05 0.53945 0.0
Co505 Co 0.81091 0.01224 0.52559 0.0
N506 N 0.83434 0.02559 0.50729 0.0
C507 C 0.85801 0.02455 0.50689 0.0
C508 C 0.86946 0.03558 0.49298 0.0
C509 C 0.8521 0.04432 0.48404 0.0
C510 C 0.83099 0.03806 0.49308 0.0
N511 N 0.78525 0.02447 0.51184 0.0
C512 C 0.78664 0.0371 0.49726 0.0
C513 C 0.76455 0.04228 0.49205 0.0
C514 C 0.74861 0.03278 0.50401 0.0
C515 C 0.7618 0.02237 0.51573 0.0
N516 N 0.78745 -0.00117 0.54374 0.0
C517 C 0.76379 1e-05 0.54436 0.0
C518 C 0.75239 0.98914 0.55844 0.0
C519 C 0.76974 0.9802 0.56709 0.0
C520 C 0.79078 0.98609 0.5576 0.0
N521 N 0.8128 0.03111 0.54492 0.0
C522 C 0.81486 0.05856 0.57137 0.0
C523 C 0.79351 0.0501 0.56758 0.0
C524 C 0.79286 0.03665 0.55431 0.0
C525 C 0.83525 0.05305 0.56186 0.0
C526 C 0.83386 0.03925 0.54896 0.0
N527 N 0.80902 0.99341 0.5063 0.0
C528 C 0.78597 0.9723 0.48876 0.0
C529 C 0.80625 0.9657 0.48015 0.0
C530 C 0.82795 0.97336 0.4847 0.0
C531 C 0.82893 0.98706 0.49772 0.0
C532 C 0.78773 0.98607 0.5016 0.0
H533 H 0.84599 0.99222 0.50072 0.0
H534 H 0.77162 0.9904 0.50771 0.0
H535 H 0.77594 0.03112 0.55174 0.0
H536 H 0.85004 0.03551 0.54235 0.0
C537 C 0.869 0.0138 0.52054 0.0
C538 C 0.81322 0.9784 0.56142 0.0
C539 C 0.80837 0.045 0.48838 0.0
C540 C 0.75273 0.01098 0.53098 0.0
H541 H 0.86141 0.97094 0.56845 0.0
H542 H 0.89206 0.99062 0.54644 0.0
H543 H 0.88822 0.03736 0.49003 0.0
H544 H 0.85472 0.05443 0.47249 0.0
H545 H 0.76043 0.05211 0.48096 0.0
H546 H 0.72968 0.0336 0.50436 0.0
H547 H 0.73366 0.9876 0.56171 0.0
H548 H 0.76715 0.97015 0.57871 0.0
H549 H 0.77722 0.05414 0.57445 0.0
H550 H 0.85219 0.05927 0.56449 0.0
H551 H 0.76872 0.96668 0.48598 0.0
H552 H 0.84419 0.9689 0.47819 0.0
C553 C 0.48102 0.26195 0.05 0.0
C554 C 0.47339 0.27832 0.0543 0.0
C555 C 0.48695 0.28996 0.04272 0.0
C556 C 0.50187 0.28009 0.03192 0.0
N557 N 0.49851 0.26281 0.03576 0.0
Co558 Co 0.51568 0.24375 0.02284 0.0
N559 N 0.53712 0.26095 0.00729 0.0
C560 C 0.53784 0.27843 0.00855 0.0
C561 C 0.55482 0.28677 0.99635 0.0
C562 C 0.56541 0.27387 0.9865 0.0
C563 C 0.55404 0.25837 0.99317 0.0
N564 N 0.53234 0.22472 0.00929 0.0
C565 C 0.54882 0.22564 0.99417 0.0
C566 C 0.5543 0.20927 0.98795 0.0
C567 C 0.54076 0.19759 -0.0005 0.0
C568 C 0.52772 0.20744 0.01194 0.0
N569 N 0.49479 0.22656 0.03902 0.0
C570 C 0.49542 0.20904 0.03895 0.0
C571 C 0.4802 0.20064 0.05265 0.0
C572 C 0.46937 0.21354 0.06229 0.0
C573 C 0.47851 0.22916 0.05372 0.0
N574 N 0.49301 0.24404 0.00108 0.0
C575 C 0.4618 0.2444 0.9694 0.0
C576 C 0.46503 0.22917 0.9807 0.0
C577 C 0.48067 0.22925 0.99625 0.0
C578 C 0.47441 0.25945 0.97436 0.0
C579 C 0.4896 0.25901 0.99017 0.0
N580 N 0.53834 0.2435 0.0446 0.0
C581 C 0.56139 0.22779 0.06823 0.0
C582 C 0.56921 0.24328 0.07642 0.0
C583 C 0.5615 0.25885 0.0683 0.0
C584 C 0.54617 0.25866 0.0526 0.0
C585 C 0.54618 0.2282 0.05237 0.0
H586 H 0.5407 0.27097 0.04735 0.0
H587 H 0.54092 0.21598 0.04674 0.0
H588 H 0.48251 0.21717 0.0041 0.0
H589 H 0.49855 0.27096 0.99313 0.0
C590 C 0.52068 0.28669 0.01965 0.0
C591 C 0.47187 0.2461 0.06053 0.0
C592 C 0.55888 0.2417 0.98469 0.0
C593 C 0.51069 0.20087 0.02595 0.0
H594 H 0.4598 0.28153 0.06505 0.0
H595 H 0.4865 0.30398 0.04265 0.0
H596 H 0.55846 0.30061 0.99429 0.0
H597 H 0.57941 0.2757 0.97521 0.0
H598 H 0.56643 0.20604 0.97604 0.0
H599 H 0.54013 0.1836 0.99863 0.0
H600 H 0.4776 0.18679 0.05554 0.0
H601 H 0.45653 0.2116 0.07448 0.0
H602 H 0.45545 0.21719 0.97771 0.0
H603 H 0.47294 0.27155 0.96591 0.0
H604 H 0.56711 0.21541 0.07393 0.0
H605 H 0.56686 0.27118 0.07433 0.0
C606 C 0.2103 0.34331 0.35114 0.0
C607 C 0.21087 0.33476 0.33301 0.0
C608 C 0.19499 0.35678 0.35413 0.0
C609 C 0.13958 0.37345 0.33696 0.0
H610 H 0.16154 0.41723 0.35769 0.0
C611 C 0.0842 0.43394 0.33309 0.0
C612 C 0.08458 0.44528 0.349 0.0
C613 C 0.09941 0.42024 0.33231 0.0
C614 C 0.15501 0.40499 0.35219 0.0
H615 H 0.19576 0.33347 0.30391 0.0
H616 H 0.16905 0.35694 0.30914 0.0
H617 H 0.18863 0.39368 0.35434 0.0
H618 H 0.10136 0.45102 0.37664 0.0
H619 H 0.12744 0.42674 0.37559 0.0
H620 H 0.10597 0.38456 0.33493 0.0
C621 C 0.18043 0.35325 0.32102 0.0
C622 C 0.17056 0.39153 0.35023 0.0
C623 C 0.19588 0.33994 0.31795 0.0
C624 C 0.10044 0.44245 0.36425 0.0
C625 C 0.1156 0.42865 0.36352 0.0
C626 C 0.124 0.38681 0.33908 0.0
C627 C 0.17976 0.36176 0.33915 0.0
C628 C 0.16307 0.37572 0.34233 0.0
C629 C 0.11529 0.4174 0.34751 0.0
C630 C 0.13159 0.40285 0.34644 0.0
H631 H 0.22176 0.33961 0.36295 0.0
H632 H 0.19476 0.36309 0.36828 0.0
H633 H 0.13323 0.36128 0.33115 0.0
H634 H 0.07199 0.43556 0.32124 0.0
H635 H 0.09889 0.41201 0.31961 0.0
C636 C 0.19772 0.67132 0.69001 0.0
C637 C 0.1917 0.68348 0.70414 0.0
C638 C 0.18305 0.65664 0.68749 0.0
C639 C 0.13326 0.63058 0.71282 0.0
H640 H 0.12762 0.61099 0.66075 0.0
C641 C 0.0617 0.579 0.6953 0.0
C642 C 0.07024 0.5638 0.68738 0.0
C643 C 0.07656 0.59373 0.69654 0.0
C644 C 0.12915 0.61633 0.67537 0.0
H645 H 0.16547 0.69031 0.72627 0.0
H646 H 0.13931 0.66521 0.72135 0.0
H647 H 0.15324 0.63674 0.66447 0.0
H648 H 0.1006 0.55194 0.67427 0.0
H649 H 0.12657 0.57805 0.67579 0.0
H650 H 0.10847 0.61045 0.72346 0.0
C651 C 0.15573 0.66648 0.7127 0.0
C652 C 0.14392 0.63101 0.67757 0.0
C653 C 0.17061 0.68095 0.71546 0.0
C654 C 0.09368 0.56363 0.68024 0.0
C655 C 0.10844 0.57849 0.68112 0.0
C656 C 0.11819 0.61614 0.71051 0.0
C657 C 0.16183 0.65402 0.69882 0.0
C658 C 0.14619 0.63834 0.69635 0.0
C659 C 0.10008 0.59356 0.68956 0.0
C660 C 0.11603 0.60889 0.69179 0.0
H661 H 0.21401 0.67299 0.6812 0.0
H662 H 0.18859 0.64724 0.67691 0.0
H663 H 0.13493 0.63552 0.7276 0.0
H664 H 0.04366 0.57934 0.70089 0.0
H665 H 0.06972 0.60524 0.703 0.0
C666 C 0.82274 0.67164 0.34877 0.0
C667 C 0.82435 0.681 0.33041 0.0
C668 C 0.83602 0.65699 0.35183 0.0
C669 C 0.86937 0.62454 0.32423 0.0
H670 H 0.89731 0.61587 0.37523 0.0
C671 C 0.91966 0.56266 0.33978 0.0
C672 C 0.94049 0.56447 0.35021 0.0
C673 C 0.90427 0.57626 0.33859 0.0
C674 C 0.88977 0.61816 0.36085 0.0
H675 H 0.84154 0.68267 0.30107 0.0
H676 H 0.86499 0.65736 0.30647 0.0
H677 H 0.87344 0.64108 0.37043 0.0
H678 H 0.96146 0.58182 0.36774 0.0
H679 H 0.93487 0.60575 0.36533 0.0
H680 H 0.88643 0.60209 0.31435 0.0
C681 C 0.85303 0.66099 0.31835 0.0
C682 C 0.87581 0.63251 0.35818 0.0
C683 C 0.83964 0.67552 0.31525 0.0
C684 C 0.94541 0.58002 0.35976 0.0
C685 C 0.93012 0.5937 0.35842 0.0
C686 C 0.88342 0.61029 0.32685 0.0
C687 C 0.85133 0.65148 0.33664 0.0
C688 C 0.86556 0.63593 0.33979 0.0
C689 C 0.90947 0.59206 0.34762 0.0
C690 C 0.89389 0.60695 0.34516 0.0
H691 H 0.81093 0.67549 0.36065 0.0
H692 H 0.83402 0.64985 0.366 0.0
H693 H 0.86147 0.62661 0.30996 0.0
H694 H 0.91526 0.5507 0.33253 0.0
H695 H 0.8883 0.57438 0.33053 0.0
C696 C 0.82102 0.35875 0.70021 0.0
C697 C 0.82587 0.34614 0.71488 0.0
C698 C 0.83589 0.37355 0.69704 0.0
C699 C 0.88417 0.39867 0.72074 0.0
H700 H 0.89463 0.41917 0.66743 0.0
C701 C 0.95997 0.44818 0.69895 0.0
C702 C 0.95279 0.46405 0.6909 0.0
C703 C 0.9441 0.43393 0.70117 0.0
C704 C 0.89173 0.41357 0.68238 0.0
H705 H 0.85016 0.3387 0.73738 0.0
H706 H 0.87669 0.36399 0.73134 0.0
H707 H 0.86772 0.39383 0.67283 0.0
H708 H 0.92383 0.47754 0.67842 0.0
H709 H 0.89611 0.45224 0.6816 0.0
H710 H 0.90903 0.41807 0.73001 0.0
C711 C 0.86101 0.36299 0.72275 0.0
C712 C 0.87621 0.39914 0.68555 0.0
C713 C 0.84591 0.34841 0.72617 0.0
C714 C 0.92971 0.46534 0.68452 0.0
C715 C 0.91395 0.45096 0.68635 0.0
C716 C 0.90001 0.41285 0.71748 0.0
C717 C 0.85615 0.37584 0.70823 0.0
C718 C 0.87227 0.39145 0.70479 0.0
C719 C 0.92094 0.43524 0.695 0.0
C720 C 0.90394 0.42038 0.69829 0.0
H721 H 0.80556 0.35728 0.6914 0.0
H722 H 0.83129 0.38325 0.68597 0.0
H723 H 0.8812 0.39347 0.73584 0.0
H724 H 0.97773 0.44696 0.70393 0.0
H725 H 0.94987 0.42188 0.70778 0.0
C726 C 0.25058 0.18158 0.39316 0.0
C727 C 0.25066 0.1819 0.37223 0.0
C728 C 0.2454 0.16611 0.40419 0.0
C729 C 0.24449 0.11857 0.39972 0.0
H730 H 0.20683 0.11834 0.44898 0.0
C731 C 0.21652 0.05506 0.44372 0.0
C732 C 0.21922 0.05528 0.46434 0.0
C733 C 0.21865 0.07052 0.43219 0.0
C734 C 0.2175 0.11823 0.43532 0.0
H735 H 0.24471 0.16634 0.34649 0.0
H736 H 0.23561 0.13938 0.36573 0.0
H737 H 0.21388 0.14541 0.42936 0.0
H738 H 0.22599 0.07136 0.48936 0.0
H739 H 0.22979 0.09852 0.46927 0.0
H740 H 0.24821 0.09141 0.40573 0.0
C741 C 0.23998 0.15101 0.37361 0.0
C742 C 0.22157 0.13373 0.4241 0.0
C743 C 0.2452 0.16646 0.36259 0.0
C744 C 0.22371 0.07107 0.47343 0.0
C745 C 0.22577 0.08654 0.46195 0.0
C746 C 0.24037 0.10307 0.41091 0.0
C747 C 0.24014 0.15063 0.39454 0.0
C748 C 0.23523 0.13409 0.40623 0.0
C749 C 0.22348 0.08642 0.44118 0.0
C750 C 0.22695 0.10275 0.42889 0.0
H751 H 0.25499 0.19322 0.40101 0.0
H752 H 0.24602 0.16622 0.42028 0.0
H753 H 0.25539 0.11844 0.38619 0.0
H754 H 0.2131 0.04291 0.43654 0.0
H755 H 0.21656 0.07005 0.41626 0.0
C756 C 0.34655 0.75307 0.81174 0.0
C757 C 0.33096 0.76608 0.80686 0.0
C758 C 0.36003 0.75426 0.82864 0.0
C759 C 0.38274 0.78558 0.86442 0.0
H760 H 0.39195 0.74397 0.89685 0.0
C761 C 0.42736 0.78669 0.94054 0.0
C762 C 0.44355 0.77378 0.94421 0.0
C763 C 0.41337 0.78607 0.92387 0.0
C764 C 0.38971 0.75568 0.88784 0.0
H765 H 0.31704 0.79042 0.816 0.0
H766 H 0.34044 0.79243 0.8456 0.0
H767 H 0.36789 0.74226 0.86767 0.0
H768 H 0.45821 0.75038 0.9329 0.0
H769 H 0.4337 0.74923 0.90399 0.0
H770 H 0.40454 0.79898 0.88471 0.0
C771 C 0.34256 0.78147 0.83618 0.0
C772 C 0.37595 0.75469 0.87111 0.0
C773 C 0.32914 0.78031 0.81923 0.0
C774 C 0.44557 0.76033 0.93075 0.0
C775 C 0.43155 0.75968 0.91416 0.0
C776 C 0.39646 0.78657 0.88121 0.0
C777 C 0.35815 0.76844 0.84109 0.0
C778 C 0.37241 0.76961 0.85912 0.0
C779 C 0.41524 0.7725 0.91057 0.0
C780 C 0.4002 0.7716 0.89303 0.0
H781 H 0.34861 0.74209 0.80233 0.0
H782 H 0.37217 0.74415 0.83179 0.0
H783 H 0.38063 0.79727 0.85536 0.0
H784 H 0.42518 0.79712 0.95073 0.0
H785 H 0.40078 0.79604 0.9216 0.0
C786 C 0.76314 0.84448 0.37294 0.0
C787 C 0.7799 0.83161 0.37194 0.0
C788 C 0.76698 0.85909 0.38425 0.0
C789 C 0.79956 0.875 0.42641 0.0
H790 H 0.7872 0.9205 0.4037 0.0
C791 C 0.82116 0.93768 0.46767 0.0
C792 C 0.8047 0.95077 0.46679 0.0
C793 C 0.81921 0.92337 0.45558 0.0
C794 C 0.79048 0.90788 0.41036 0.0
H795 H 0.81394 0.82413 0.38207 0.0
H796 H 0.82037 0.84951 0.40214 0.0
H797 H 0.78135 0.89493 0.38389 0.0
H798 H 0.77362 0.95922 0.45209 0.0
H799 H 0.76975 0.93403 0.43157 0.0
H800 H 0.80819 0.88783 0.45303 0.0
C801 C 0.80423 0.84819 0.39419 0.0
C802 C 0.78717 0.89325 0.39898 0.0
C803 C 0.80048 0.83364 0.38274 0.0
C804 C 0.78642 0.94928 0.45337 0.0
C805 C 0.78439 0.93492 0.44138 0.0
C806 C 0.80268 0.88962 0.43786 0.0
C807 C 0.78757 0.86111 0.39497 0.0
C808 C 0.79158 0.87665 0.40692 0.0
C809 C 0.80069 0.92175 0.44239 0.0
C810 C 0.79808 0.90624 0.43 0.0
H811 H 0.74689 0.84319 0.36514 0.0
H812 H 0.75366 0.86871 0.38484 0.0
H813 H 0.80285 0.86234 0.43297 0.0
H814 H 0.83532 0.93831 0.47798 0.0
H815 H 0.83225 0.91358 0.45657 0.0
C816 C 0.6902 0.24301 0.83586 0.0
C817 C 0.68361 0.25415 0.82024 0.0
C818 C 0.6763 0.24097 0.85342 0.0
C819 C 0.62931 0.26234 0.88203 0.0
H820 H 0.62319 0.21787 0.91096 0.0
C821 C 0.56325 0.24891 0.94822 0.0
C822 C 0.57243 0.24143 0.96544 0.0
C823 C 0.57646 0.24981 0.93029 0.0
C824 C 0.62487 0.23038 0.90306 0.0
H825 H 0.65705 0.27149 0.81041 0.0
H826 H 0.63237 0.26758 0.84076 0.0
H827 H 0.64656 0.22059 0.87974 0.0
H828 H 0.60233 0.22897 0.97771 0.0
H829 H 0.62542 0.23015 0.94608 0.0
H830 H 0.6072 0.27198 0.90521 0.0
C831 C 0.64861 0.26079 0.83979 0.0
C832 C 0.63832 0.23198 0.88522 0.0
C833 C 0.66267 0.26299 0.82235 0.0
C834 C 0.59487 0.2346 0.96447 0.0
C835 C 0.608 0.23528 0.94645 0.0
C836 C 0.61564 0.26067 0.89971 0.0
C837 C 0.65535 0.24987 0.85564 0.0
C838 C 0.64077 0.24801 0.87449 0.0
C839 C 0.59901 0.24308 0.92925 0.0
C840 C 0.61334 0.24469 0.91041 0.0
H841 H 0.70641 0.23618 0.83468 0.0
H842 H 0.68228 0.23268 0.86539 0.0
H843 H 0.63117 0.27498 0.87445 0.0
H844 H 0.54597 0.25429 0.94874 0.0
H845 H 0.56906 0.25576 0.91721 0.0
C846 C 0.24478 0.85207 0.66859 0.0
C847 C 0.247 0.83626 0.65907 0.0
C848 C 0.24065 0.86727 0.65761 0.0
C849 C 0.21859 0.88322 0.60962 0.0
H850 H 0.2526 0.92587 0.6218 0.0
C851 C 0.22047 0.94491 0.55826 0.0
C852 C 0.21955 0.96091 0.56739 0.0
C853 C 0.22246 0.92966 0.56978 0.0
C854 C 0.24272 0.91413 0.61839 0.0
H855 H 0.24683 0.82405 0.63049 0.0
H856 H 0.23964 0.85064 0.61128 0.0
H857 H 0.25904 0.89928 0.64114 0.0
H858 H 0.21958 0.97389 0.59535 0.0
H859 H 0.22281 0.94713 0.61575 0.0
H860 H 0.20238 0.89808 0.58678 0.0
C861 C 0.24078 0.85121 0.6273 0.0
C862 C 0.24643 0.89888 0.62946 0.0
C863 C 0.24492 0.83599 0.6383 0.0
C864 C 0.22026 0.96157 0.58815 0.0
C865 C 0.22227 0.94631 0.59972 0.0
C866 C 0.21487 0.89848 0.59855 0.0
C867 C 0.23863 0.86702 0.63683 0.0
C868 C 0.23447 0.88325 0.62517 0.0
C869 C 0.22361 0.9302 0.59064 0.0
C870 C 0.22695 0.91409 0.60277 0.0
H871 H 0.24586 0.85265 0.68462 0.0
H872 H 0.23871 0.87919 0.66543 0.0
H873 H 0.20884 0.87144 0.60615 0.0
H874 H 0.22009 0.94429 0.54218 0.0
H875 H 0.22375 0.9175 0.56232 0.0
C876 C 0.67427 0.75247 0.22208 0.0
C877 C 0.69155 0.76541 0.22554 0.0
C878 C 0.66036 0.75379 0.20544 0.0
C879 C 0.64021 0.78532 0.16759 0.0
H880 H 0.62532 0.74386 0.13879 0.0
C881 C 0.5942 0.78674 0.09203 0.0
C882 C 0.57647 0.77385 0.08962 0.0
C883 C 0.60835 0.78608 0.1086 0.0
C884 C 0.62915 0.75553 0.14679 0.0
H885 H 0.70798 0.78979 0.21416 0.0
H886 H 0.68383 0.79204 0.18499 0.0
H887 H 0.64993 0.74198 0.16764 0.0
H888 H 0.55924 0.75048 0.10309 0.0
H889 H 0.58403 0.74927 0.13184 0.0
H890 H 0.61948 0.79886 0.14658 0.0
C891 C 0.68074 0.78102 0.19533 0.0
C892 C 0.64322 0.75445 0.16334 0.0
C893 C 0.6946 0.77972 0.21202 0.0
C894 C 0.57306 0.76041 0.10426 0.0
C895 C 0.58724 0.75973 0.12076 0.0
C896 C 0.62618 0.78641 0.15097 0.0
C897 C 0.66348 0.76805 0.19182 0.0
C898 C 0.64882 0.76931 0.17401 0.0
C899 C 0.60512 0.77249 0.12307 0.0
C900 C 0.6204 0.7715 0.14046 0.0
H901 H 0.67125 0.74143 0.2324 0.0
H902 H 0.64694 0.74373 0.20338 0.0
H903 H 0.64393 0.79698 0.17562 0.0
H904 H 0.59746 0.79716 0.08092 0.0
H905 H 0.62215 0.79601 0.10988 0.0
C906 C 0.7661 0.18631 0.66237 0.0
C907 C 0.7836 0.19462 0.6732 0.0
C908 C 0.77109 0.17167 0.65163 0.0
C909 C 0.82042 0.14695 0.63086 0.0
H910 H 0.77183 0.1104 0.62967 0.0
C911 C 0.82608 0.08941 0.57819 0.0
C912 C 0.81542 0.07339 0.5847 0.0
C913 C 0.82409 0.10396 0.58985 0.0
C914 C 0.78577 0.12033 0.63006 0.0
H915 H 0.82001 0.19419 0.68137 0.0
H916 H 0.82866 0.16832 0.66303 0.0
H917 H 0.7646 0.13608 0.6483 0.0
H918 H 0.79562 0.05964 0.60889 0.0
H919 H 0.79286 0.08481 0.62962 0.0
H920 H 0.84187 0.13085 0.61314 0.0
C921 C 0.81121 0.17333 0.6624 0.0
C922 C 0.78145 0.13525 0.64049 0.0
C923 C 0.80626 0.18811 0.67296 0.0
C924 C 0.80374 0.07194 0.60346 0.0
C925 C 0.80203 0.08639 0.61524 0.0
C926 C 0.82484 0.13191 0.62057 0.0
C927 C 0.79364 0.16486 0.65169 0.0
C928 C 0.79861 0.14883 0.64089 0.0
C929 C 0.81163 0.1027 0.60837 0.0
C930 C 0.80751 0.11845 0.61996 0.0
H931 H 0.74856 0.19123 0.66208 0.0
H932 H 0.75726 0.16574 0.64319 0.0
H933 H 0.83398 0.1572 0.63069 0.0
H934 H 0.83502 0.09085 0.56368 0.0
H935 H 0.8315 0.11632 0.58396 0.0
C936 C 0.36768 0.2659 0.22039 0.0
C937 C 0.34605 0.2566 0.22309 0.0
C938 C 0.38104 0.26491 0.20265 0.0
C939 C 0.38768 0.23797 0.15811 0.0
H940 H 0.42407 0.27841 0.13669 0.0
C941 C 0.43337 0.24151 0.07964 0.0
C942 C 0.45702 0.24737 0.07897 0.0
C943 C 0.41954 0.24271 0.09711 0.0
C944 C 0.41407 0.267 0.14258 0.0
H945 H 0.32108 0.23935 0.20926 0.0
H946 H 0.34395 0.238 0.17804 0.0
H947 H 0.40014 0.28053 0.16727 0.0
H948 H 0.48479 0.25938 0.09552 0.0
H949 H 0.46046 0.26183 0.12606 0.0
H950 H 0.40131 0.22462 0.13306 0.0
C951 C 0.35105 0.24565 0.1898 0.0
C952 C 0.40044 0.26816 0.16015 0.0
C953 C 0.33786 0.24647 0.20764 0.0
C954 C 0.46656 0.25476 0.09582 0.0
C955 C 0.45267 0.2562 0.11318 0.0
C956 C 0.40106 0.23689 0.1404 0.0
C957 C 0.37289 0.25478 0.1871 0.0
C958 C 0.38715 0.25364 0.16821 0.0
C959 C 0.42906 0.2501 0.11402 0.0
C960 C 0.41448 0.25137 0.13254 0.0
H961 H 0.37449 0.27367 0.23218 0.0
H962 H 0.39794 0.27187 0.20128 0.0
H963 H 0.37806 0.22642 0.16402 0.0
H964 H 0.42567 0.23597 0.06668 0.0
H965 H 0.40133 0.23807 0.09732 0.0
C966 C 0.83268 0.67858 0.7268 0.0
C967 C 0.81771 0.68448 0.71209 0.0
C968 C 0.8463 0.66422 0.72363 0.0
C969 C 0.8702 0.63745 0.68353 0.0
H970 H 0.88134 0.60574 0.72793 0.0
C971 C 0.94118 0.58617 0.67977 0.0
C972 C 0.93677 0.57029 0.69037 0.0
C973 C 0.92546 0.59953 0.68148 0.0
C974 C 0.87818 0.61431 0.71527 0.0
H975 H 0.80489 0.67987 0.6827 0.0
H976 H 0.82827 0.65452 0.67728 0.0
H977 H 0.85568 0.62971 0.73283 0.0
H978 H 0.91205 0.55557 0.71029 0.0
H979 H 0.88425 0.57865 0.71287 0.0
H980 H 0.89218 0.62172 0.66584 0.0
C981 C 0.82994 0.6612 0.69109 0.0
C982 C 0.86372 0.62824 0.71817 0.0
C983 C 0.81648 0.67568 0.6942 0.0
C984 C 0.91601 0.56779 0.70219 0.0
C985 C 0.90016 0.58106 0.70372 0.0
C986 C 0.88451 0.62341 0.68058 0.0
C987 C 0.84508 0.65533 0.70575 0.0
C988 C 0.85973 0.6401 0.7024 0.0
C989 C 0.90487 0.5972 0.69366 0.0
C990 C 0.88883 0.61174 0.69647 0.0
H991 H 0.83423 0.68528 0.74061 0.0
H992 H 0.8581 0.6603 0.73508 0.0
H993 H 0.86772 0.64642 0.67108 0.0
H994 H 0.95719 0.58848 0.67071 0.0
H995 H 0.92984 0.61185 0.67374 0.0
C996 C 0.85277 0.33741 0.34281 0.0
C997 C 0.82954 0.33848 0.33663 0.0
C998 C 0.86653 0.35243 0.34565 0.0
C999 C 0.87229 0.3988 0.33087 0.0
H1000 H 0.91344 0.40111 0.37554 0.0
C1001 C 0.92809 0.4607 0.34615 0.0
C1002 C 0.95137 0.45816 0.35125 0.0
C1003 C 0.91208 0.44654 0.34557 0.0
C1004 C 0.90218 0.40061 0.3629 0.0
H1005 H 0.80244 0.35621 0.3289 0.0
H1006 H 0.82655 0.3825 0.33379 0.0
H1007 H 0.88748 0.37554 0.37224 0.0
H1008 H 0.9764 0.43926 0.35998 0.0
H1009 H 0.94853 0.41436 0.35883 0.0
H1010 H 0.88721 0.42375 0.32137 0.0
C1011 C 0.83416 0.37 0.33623 0.0
C1012 C 0.88731 0.38597 0.36102 0.0
C1013 C 0.82037 0.35495 0.33342 0.0
C1014 C 0.95842 0.4414 0.35608 0.0
C1015 C 0.94245 0.42723 0.35551 0.0
C1016 C 0.88719 0.41343 0.33274 0.0
C1017 C 0.85741 0.3689 0.34234 0.0
C1018 C 0.87235 0.38483 0.34488 0.0
C1019 C 0.91912 0.42962 0.35011 0.0
C1020 C 0.90246 0.41444 0.34868 0.0
H1021 H 0.86052 0.32493 0.34507 0.0
H1022 H 0.88451 0.35114 0.35002 0.0
H1023 H 0.8612 0.39821 0.31813 0.0
H1024 H 0.92242 0.47361 0.34243 0.0
H1025 H 0.89418 0.44884 0.34161 0.0
C1026 C 0.21256 0.35647 0.7139 0.0
C1027 C 0.2054 0.34035 0.70648 0.0
C1028 C 0.19919 0.37104 0.71086 0.0
C1029 C 0.15438 0.3893 0.67908 0.0
H1030 H 0.14017 0.41703 0.72463 0.0
C1031 C 0.0835 0.44078 0.67809 0.0
C1032 C 0.08749 0.45588 0.68874 0.0
C1033 C 0.09898 0.42721 0.67929 0.0
C1034 C 0.14427 0.40963 0.71165 0.0
H1035 H 0.17847 0.32701 0.69001 0.0
H1036 H 0.15538 0.35253 0.68445 0.0
H1037 H 0.16542 0.3925 0.72838 0.0
H1038 H 0.11126 0.46899 0.70829 0.0
H1039 H 0.13858 0.44552 0.71006 0.0
H1040 H 0.13335 0.40647 0.66229 0.0
C1041 C 0.17146 0.35387 0.69249 0.0
C1042 C 0.1587 0.39554 0.71384 0.0
C1043 C 0.18473 0.33926 0.69566 0.0
C1044 C 0.10758 0.45737 0.70016 0.0
C1045 C 0.12317 0.44389 0.70122 0.0
C1046 C 0.14008 0.40349 0.67683 0.0
C1047 C 0.17845 0.36987 0.70021 0.0
C1048 C 0.16378 0.38517 0.69762 0.0
C1049 C 0.1189 0.42854 0.69102 0.0
C1050 C 0.13474 0.41378 0.69313 0.0
H1051 H 0.2286 0.35786 0.72198 0.0
H1052 H 0.20515 0.38328 0.71675 0.0
H1053 H 0.15823 0.38164 0.66626 0.0
H1054 H 0.068 0.43921 0.66934 0.0
H1055 H 0.09494 0.4155 0.67146 0.0
C1056 C 0.17535 0.67373 0.33637 0.0
C1057 C 0.19854 0.67315 0.32862 0.0
C1058 C 0.16173 0.65846 0.34024 0.0
C1059 C 0.1563 0.61301 0.32581 0.0
H1060 H 0.11442 0.60783 0.37264 0.0
C1061 C 0.09962 0.5503 0.34355 0.0
C1062 C 0.07621 0.55264 0.34958 0.0
C1063 C 0.11586 0.5644 0.34242 0.0
C1064 C 0.12591 0.60914 0.35942 0.0
H1065 H 0.22578 0.65603 0.31928 0.0
H1066 H 0.20192 0.62931 0.32601 0.0
H1067 H 0.14056 0.63361 0.36803 0.0
H1068 H 0.05116 0.57111 0.35946 0.0
H1069 H 0.07945 0.59591 0.35738 0.0
H1070 H 0.14141 0.58868 0.31704 0.0
C1071 C 0.19422 0.64163 0.32885 0.0
C1072 C 0.14088 0.6239 0.35679 0.0
C1073 C 0.20787 0.65692 0.32499 0.0
C1074 C 0.06924 0.56912 0.35484 0.0
C1075 C 0.08545 0.58322 0.35374 0.0
C1076 C 0.14132 0.59826 0.32844 0.0
C1077 C 0.17095 0.64224 0.33643 0.0
C1078 C 0.15606 0.62609 0.33984 0.0
C1079 C 0.10891 0.58105 0.34734 0.0
C1080 C 0.12578 0.59624 0.34517 0.0
H1081 H 0.1675 0.68603 0.33901 0.0
H1082 H 0.14374 0.65939 0.34575 0.0
H1083 H 0.16755 0.61442 0.31246 0.0
H1084 H 0.10523 0.5376 0.3395 0.0
H1085 H 0.13385 0.56226 0.33768 0.0
C1086 C 0.76379 0.84077 0.65094 0.0
C1087 C 0.77798 0.83653 0.66686 0.0
C1088 C 0.76902 0.8557 0.63897 0.0
C1089 C 0.81679 0.88947 0.62666 0.0
H1090 H 0.76535 0.91432 0.60453 0.0
C1091 C 0.82237 0.95985 0.59137 0.0
C1092 C 0.81319 0.96133 0.57231 0.0
C1093 C 0.81996 0.9441 0.60236 0.0
C1094 C 0.77986 0.90742 0.61056 0.0
H1095 H 0.80845 0.84448 0.68311 0.0
H1096 H 0.81703 0.87104 0.66292 0.0
H1097 H 0.75688 0.88821 0.62538 0.0
H1098 H 0.79459 0.94779 0.5496 0.0
H1099 H 0.78972 0.92032 0.5691 0.0
H1100 H 0.83959 0.90939 0.61238 0.0
C1101 C 0.80236 0.86261 0.65908 0.0
C1102 C 0.77507 0.89238 0.6224 0.0
C1103 C 0.79739 0.84748 0.67077 0.0
C1104 C 0.80189 0.94683 0.56426 0.0
C1105 C 0.79906 0.93122 0.57538 0.0
C1106 C 0.82152 0.90475 0.61513 0.0
C1107 C 0.78828 0.86693 0.64297 0.0
C1108 C 0.79347 0.8831 0.63051 0.0
C1109 C 0.80784 0.9298 0.59458 0.0
C1110 C 0.80309 0.91374 0.60689 0.0
H1111 H 0.74887 0.83237 0.64756 0.0
H1112 H 0.75807 0.8583 0.62647 0.0
H1113 H 0.83148 0.88256 0.63231 0.0
H1114 H 0.83081 0.97099 0.59794 0.0
H1115 H 0.8267 0.94328 0.61723 0.0
C1116 C 0.70126 0.26322 0.21471 0.0
C1117 C 0.69526 0.25296 0.23201 0.0
C1118 C 0.688 0.26181 0.19771 0.0
C1119 C 0.64706 0.23229 0.1729 0.0
H1120 H 0.63001 0.27415 0.1442 0.0
C1121 C 0.58048 0.23162 0.10991 0.0
C1122 C 0.58491 0.24329 0.09354 0.0
C1123 C 0.59448 0.23234 0.12655 0.0
C1124 C 0.6349 0.26232 0.15186 0.0
H1125 H 0.67037 0.23335 0.24505 0.0
H1126 H 0.64739 0.23079 0.21528 0.0
H1127 H 0.65332 0.2764 0.17376 0.0
H1128 H 0.608 0.26437 0.08141 0.0
H1129 H 0.63265 0.26548 0.11028 0.0
H1130 H 0.62877 0.21819 0.15093 0.0
C1131 C 0.66251 0.23978 0.21484 0.0
C1132 C 0.64821 0.26362 0.16883 0.0
C1133 C 0.6757 0.24124 0.23188 0.0
C1134 C 0.60395 0.2554 0.09395 0.0
C1135 C 0.61802 0.25605 0.11051 0.0
C1136 C 0.63383 0.23097 0.15585 0.0
C1137 C 0.66851 0.25007 0.19759 0.0
C1138 C 0.65442 0.24863 0.17954 0.0
C1139 C 0.61329 0.24468 0.12712 0.0
C1140 C 0.62758 0.24598 0.14513 0.0
H1141 H 0.71645 0.27215 0.21417 0.0
H1142 H 0.69323 0.26974 0.18454 0.0
H1143 H 0.65184 0.2205 0.18072 0.0
H1144 H 0.56576 0.22227 0.11011 0.0
H1145 H 0.59015 0.22353 0.13918 0.0
C1146 C 0.23965 0.17574 0.67293 0.0
C1147 C 0.25031 0.19105 0.66424 0.0
C1148 C 0.23476 0.16147 0.66131 0.0
C1149 C 0.22833 0.14905 0.60882 0.0
H1150 H 0.23778 0.10275 0.63068 0.0
C1151 C 0.23325 0.08855 0.56101 0.0
C1152 C 0.22117 0.0733 0.56842 0.0
C1153 C 0.23493 0.10313 0.57266 0.0
C1154 C 0.2348 0.11559 0.62447 0.0
H1155 H 0.26448 0.20342 0.63669 0.0
H1156 H 0.25648 0.1784 0.61644 0.0
H1157 H 0.24493 0.12776 0.6511 0.0
H1158 H 0.20117 0.06136 0.59369 0.0
H1159 H 0.20426 0.08689 0.61421 0.0
H1160 H 0.21884 0.1368 0.58198 0.0
C1161 C 0.25134 0.17751 0.63213 0.0
C1162 C 0.23885 0.12994 0.63617 0.0
C1163 C 0.25603 0.19183 0.64372 0.0
C1164 C 0.21048 0.07299 0.5876 0.0
C1165 C 0.2124 0.08752 0.59937 0.0
C1166 C 0.2245 0.13471 0.59707 0.0
C1167 C 0.24061 0.16215 0.64077 0.0
C1168 C 0.23577 0.14686 0.62846 0.0
C1169 C 0.22477 0.10269 0.59204 0.0
C1170 C 0.22779 0.11785 0.60476 0.0
H1171 H 0.23474 0.17488 0.68867 0.0
H1172 H 0.22611 0.14999 0.66841 0.0
H1173 H 0.22534 0.16186 0.60252 0.0
H1174 H 0.24146 0.08918 0.54619 0.0
H1175 H 0.24471 0.11461 0.5667 0.0
C1176 C 0.35386 0.77196 0.21314 0.0
C1177 C 0.33103 0.76436 0.21312 0.0
C1178 C 0.36761 0.77385 0.1955 0.0
C1179 C 0.37329 0.7567 0.14495 0.0
H1180 H 0.41348 0.79801 0.13429 0.0
C1181 C 0.4245 0.76962 0.06992 0.0
C1182 C 0.44812 0.77516 0.07118 0.0
C1183 C 0.4095 0.7691 0.08686 0.0
C1184 C 0.40246 0.78635 0.13714 0.0
H1185 H 0.3045 0.75315 0.19454 0.0
H1186 H 0.32837 0.7566 0.16369 0.0
H1187 H 0.38855 0.79553 0.16464 0.0
H1188 H 0.47469 0.78487 0.09058 0.0
H1189 H 0.44848 0.78403 0.12035 0.0
H1190 H 0.38719 0.74754 0.11743 0.0
C1191 C 0.33586 0.76078 0.1774 0.0
C1192 C 0.38821 0.7849 0.15453 0.0
C1193 C 0.32216 0.75882 0.19507 0.0
C1194 C 0.45647 0.78058 0.08941 0.0
C1195 C 0.44146 0.78015 0.10633 0.0
C1196 C 0.38745 0.75818 0.12752 0.0
C1197 C 0.35878 0.76826 0.17741 0.0
C1198 C 0.37354 0.77002 0.1587 0.0
C1199 C 0.41788 0.77423 0.10529 0.0
C1200 C 0.40227 0.77298 0.12348 0.0
H1201 H 0.36128 0.77615 0.22688 0.0
H1202 H 0.38532 0.77941 0.1961 0.0
H1203 H 0.3625 0.74493 0.14784 0.0
H1204 H 0.41779 0.7655 0.05589 0.0
H1205 H 0.39135 0.76469 0.08555 0.0
C1206 C 0.78304 0.18414 0.39977 0.0
C1207 C 0.7836 0.18342 0.37889 0.0
C1208 C 0.78652 0.16929 0.41161 0.0
C1209 C 0.81155 0.12598 0.41032 0.0
H1210 H 0.7711 0.1163 0.45739 0.0
C1211 C 0.80943 0.0604 0.45497 0.0
C1212 C 0.80742 0.06104 0.47576 0.0
C1213 C 0.80739 0.07548 0.44311 0.0
C1214 C 0.78275 0.11893 0.44444 0.0
H1215 H 0.78863 0.16659 0.35405 0.0
H1216 H 0.79436 0.14058 0.37474 0.0
H1217 H 0.76585 0.14238 0.43677 0.0
H1218 H 0.80202 0.07752 0.50072 0.0
H1219 H 0.79874 0.10405 0.48007 0.0
H1220 H 0.82843 0.10249 0.41801 0.0
C1221 C 0.79139 0.15268 0.38194 0.0
C1222 C 0.77972 0.13386 0.43262 0.0
C1223 C 0.78785 0.16753 0.3701 0.0
C1224 C 0.8036 0.07688 0.48464 0.0
C1225 C 0.80158 0.09196 0.47283 0.0
C1226 C 0.8146 0.11103 0.42217 0.0
C1227 C 0.7907 0.15338 0.40283 0.0
C1228 C 0.79408 0.13755 0.41543 0.0
C1229 C 0.80326 0.09142 0.45192 0.0
C1230 C 0.80023 0.10734 0.43937 0.0
H1231 H 0.77961 0.19616 0.40699 0.0
H1232 H 0.78611 0.17028 0.42765 0.0
H1233 H 0.82309 0.12858 0.39731 0.0
H1234 H 0.81223 0.0482 0.44794 0.0
H1235 H 0.80849 0.07459 0.42706 0.0
C1236 C 0.34123 0.23804 0.82117 0.0
C1237 C 0.33421 0.25446 0.81443 0.0
C1238 C 0.35437 0.23631 0.83825 0.0
C1239 C 0.36709 0.25674 0.88492 0.0
H1240 H 0.42505 0.23212 0.8826 0.0
C1241 C 0.43266 0.25931 0.94813 0.0
C1242 C 0.44569 0.24462 0.95242 0.0
C1243 C 0.41834 0.25987 0.93171 0.0
C1244 C 0.40871 0.23876 0.88367 0.0
H1245 H 0.33587 0.28196 0.82043 0.0
H1246 H 0.35806 0.27877 0.8506 0.0
H1247 H 0.40123 0.2341 0.85323 0.0
H1248 H 0.45351 0.21886 0.94275 0.0
H1249 H 0.42767 0.21949 0.91476 0.0
H1250 H 0.3741 0.26113 0.9154 0.0
C1251 C 0.35333 0.26728 0.84258 0.0
C1252 C 0.39515 0.23996 0.86679 0.0
C1253 C 0.34051 0.26907 0.82534 0.0
C1254 C 0.44358 0.23034 0.94008 0.0
C1255 C 0.429 0.2308 0.92379 0.0
C1256 C 0.38044 0.25533 0.9019 0.0
C1257 C 0.36045 0.25091 0.84913 0.0
C1258 C 0.37436 0.24911 0.86722 0.0
C1259 C 0.41637 0.24565 0.91927 0.0
C1260 C 0.40157 0.24648 0.90145 0.0
H1261 H 0.33635 0.22644 0.81343 0.0
H1262 H 0.35947 0.22351 0.84313 0.0
H1263 H 0.35095 0.26369 0.88568 0.0
H1264 H 0.43349 0.27046 0.95746 0.0
H1265 H 0.40916 0.27162 0.9286 0.0
C1266 C 0.23042 0.84124 0.35596 0.0
C1267 C 0.24072 0.82648 0.3641 0.0
C1268 C 0.22579 0.85533 0.36779 0.0
C1269 C 0.21958 0.86751 0.42068 0.0
H1270 H 0.2306 0.91432 0.39837 0.0
C1271 C 0.22819 0.92784 0.46847 0.0
C1272 C 0.21666 0.94271 0.46217 0.0
C1273 C 0.22891 0.91342 0.45655 0.0
C1274 C 0.22717 0.90132 0.40472 0.0
H1275 H 0.25466 0.81498 0.39085 0.0
H1276 H 0.24713 0.83967 0.41141 0.0
H1277 H 0.23664 0.88966 0.37735 0.0
H1278 H 0.19664 0.95415 0.43862 0.0
H1279 H 0.19806 0.92888 0.41759 0.0
H1280 H 0.21082 0.87927 0.44823 0.0
C1281 C 0.242 0.84024 0.39605 0.0
C1282 C 0.23058 0.88717 0.39268 0.0
C1283 C 0.24642 0.82611 0.38426 0.0
C1284 C 0.20555 0.9428 0.44385 0.0
C1285 C 0.2065 0.92843 0.43179 0.0
C1286 C 0.21639 0.88165 0.43275 0.0
C1287 C 0.23156 0.85501 0.38798 0.0
C1288 C 0.22702 0.87008 0.40056 0.0
C1289 C 0.21831 0.91364 0.43799 0.0
C1290 C 0.22032 0.89868 0.42492 0.0
H1291 H 0.22557 0.84178 0.34051 0.0
H1292 H 0.21742 0.86637 0.36116 0.0
H1293 H 0.21619 0.85455 0.42714 0.0
H1294 H 0.23674 0.9274 0.48262 0.0
H1295 H 0.23828 0.90224 0.46163 0.0
C1296 C 0.65634 0.77231 0.81592 0.0
C1297 C 0.67881 0.76545 0.81618 0.0
C1298 C 0.64305 0.77371 0.83364 0.0
C1299 C 0.63773 0.75649 0.88579 0.0
H1300 H 0.60136 0.7972 0.89412 0.0
C1301 C 0.59249 0.76933 0.96164 0.0
C1302 C 0.56929 0.77466 0.96107 0.0
C1303 C 0.60621 0.76877 0.94403 0.0
C1304 C 0.61128 0.78569 0.89193 0.0
H1305 H 0.70515 0.75501 0.83525 0.0
H1306 H 0.68206 0.75756 0.86615 0.0
H1307 H 0.62451 0.79496 0.86312 0.0
H1308 H 0.54221 0.78399 0.94219 0.0
H1309 H 0.56617 0.78305 0.91126 0.0
H1310 H 0.62456 0.74725 0.91463 0.0
C1311 C 0.67449 0.76153 0.85224 0.0
C1312 C 0.6245 0.78439 0.87416 0.0
C1313 C 0.68773 0.76008 0.83453 0.0
C1314 C 0.56012 0.77983 0.94282 0.0
C1315 C 0.57384 0.77936 0.92522 0.0
C1316 C 0.62458 0.75782 0.90357 0.0
C1317 C 0.65197 0.76833 0.85201 0.0
C1318 C 0.63787 0.76976 0.87088 0.0
C1319 C 0.59696 0.77365 0.92561 0.0
C1320 C 0.6112 0.77243 0.90683 0.0
H1321 H 0.6489 0.77638 0.80199 0.0
H1322 H 0.62563 0.77877 0.83291 0.0
H1323 H 0.6475 0.74491 0.88361 0.0
H1324 H 0.59985 0.76542 0.97567 0.0
H1325 H 0.62406 0.76455 0.94484 0.0
loop_
_geom_bond_atom_site_label_1
_geom_bond_atom_site_label_2
_geom_bond_distance
_geom_bond_site_symmetry_2
_ccdc_geom_bond_type
C0 C1 1.384 . S
C0 H13 0.947 . S
C0 C35 1.382 . S
C1 C0 1.384 . S
C1 C2 1.378 . S
C2 C1 1.378 . S
C2 C3 1.378 . S
C2 H14 0.952 . S
C3 C2 1.378 . S
C3 H15 0.950 . S
C3 C34 1.383 . S
H4 C23 0.947 . S
H5 C24 0.946 . S
H6 C26 0.953 . S
H7 C27 0.945 . S
H8 C29 0.952 . S
H9 C30 0.949 . S
H10 C32 0.950 . S
H11 C33 0.948 . S
H12 C35 0.951 . S
H13 C0 0.947 . S
H14 C2 0.952 . S
H15 C3 0.950 . S
N16 C19 1.382 . S
N16 C21 1.363 . S
N17 C19 1.371 . S
N17 C20 1.372 . S
N18 C20 1.361 . S
N18 C21 1.377 . S
C19 N16 1.382 . S
C19 N17 1.371 . S
C19 C22 1.480 . S
C20 N17 1.372 . S
C20 N18 1.361 . S
C20 C28 1.457 . S
C21 N16 1.363 . S
C21 N18 1.377 . S
C21 C34 1.479 . S
C22 C19 1.480 . S
C22 C23 1.383 . S
C22 C27 1.385 . S
C23 H4 0.947 . S
C23 C22 1.383 . S
C23 C24 1.388 . S
C24 H5 0.946 . S
C24 C23 1.388 . S
C24 C25 1.384 . S
C25 C24 1.384 . S
C25 C26 1.377 . S
C26 H6 0.953 . S
C26 C25 1.377 . S
C26 C27 1.369 . S
C27 H7 0.945 . S
C27 C22 1.385 . S
C27 C26 1.369 . S
C28 C20 1.457 . S
C28 C29 1.372 . S
C28 C33 1.364 . S
C29 H8 0.952 . S
C29 C28 1.372 . S
C29 C30 1.389 . S
C30 H9 0.949 . S
C30 C29 1.389 . S
C30 C31 1.387 . S
C31 C30 1.387 . S
C31 C32 1.372 . S
C32 H10 0.950 . S
C32 C31 1.372 . S
C32 C33 1.379 . S
C33 H11 0.948 . S
C33 C28 1.364 . S
C33 C32 1.379 . S
C34 C3 1.383 . S
C34 C21 1.479 . S
C34 C35 1.398 . S
C35 C0 1.382 . S
C35 H12 0.951 . S
C35 C34 1.398 . S
C36 C37 1.384 . S
C36 H49 0.947 . S
C36 C71 1.382 . S
C37 C36 1.384 . S
C37 C38 1.378 . S
C38 C37 1.378 . S
C38 C39 1.378 . S
C38 H50 0.952 . S
C39 C38 1.378 . S
C39 H51 0.950 . S
C39 C70 1.383 . S
H40 C59 0.947 . S
H41 C60 0.946 . S
H42 C62 0.953 . S
H43 C63 0.945 . S
H44 C65 0.952 . S
H45 C66 0.949 . S
H46 C68 0.950 . S
H47 C69 0.948 . S
H48 C71 0.951 . S
H49 C36 0.947 . S
H50 C38 0.952 . S
H51 C39 0.950 . S
N52 C55 1.382 . S
N52 C57 1.363 . S
N53 C55 1.371 . S
N53 C56 1.372 . S
N54 C56 1.361 . S
N54 C57 1.377 . S
C55 N52 1.382 . S
C55 N53 1.371 . S
C55 C58 1.480 . S
C56 N53 1.372 . S
C56 N54 1.361 . S
C56 C64 1.457 . S
C57 N52 1.363 . S
C57 N54 1.377 . S
C57 C70 1.479 . S
C58 C55 1.480 . S
C58 C59 1.383 . S
C58 C63 1.385 . S
C59 H40 0.947 . S
C59 C58 1.383 . S
C59 C60 1.388 . S
C60 H41 0.946 . S
C60 C59 1.388 . S
C60 C61 1.384 . S
C61 C60 1.384 . S
C61 C62 1.377 . S
C62 H42 0.953 . S
C62 C61 1.377 . S
C62 C63 1.369 . S
C63 H43 0.945 . S
C63 C58 1.385 . S
C63 C62 1.369 . S
C64 C56 1.457 . S
C64 C65 1.372 . S
C64 C69 1.364 . S
C65 H44 0.952 . S
C65 C64 1.372 . S
C65 C66 1.389 . S
C66 H45 0.949 . S
C66 C65 1.389 . S
C66 C67 1.387 . S
C67 C66 1.387 . S
C67 C68 1.372 . S
C68 H46 0.950 . S
C68 C67 1.372 . S
C68 C69 1.379 . S
C69 H47 0.948 . S
C69 C64 1.364 . S
C69 C68 1.379 . S
C70 C39 1.383 . S
C70 C57 1.479 . S
C70 C71 1.398 . S
C71 C36 1.382 . S
C71 H48 0.951 . S
C71 C70 1.398 . S
C72 C73 1.384 . S
C72 H85 0.947 . S
C72 C107 1.382 . S
C73 C72 1.384 . S
C73 C74 1.378 . S
C74 C73 1.378 . S
C74 C75 1.378 . S
C74 H86 0.952 . S
C75 C74 1.378 . S
C75 H87 0.950 . S
C75 C106 1.383 . S
H76 C95 0.947 . S
H77 C96 0.946 . S
H78 C98 0.953 . S
H79 C99 0.945 . S
H80 C101 0.952 . S
H81 C102 0.949 . S
H82 C104 0.950 . S
H83 C105 0.948 . S
H84 C107 0.951 . S
H85 C72 0.947 . S
H86 C74 0.952 . S
H87 C75 0.950 . S
N88 C91 1.382 . S
N88 C93 1.363 . S
N89 C91 1.371 . S
N89 C92 1.372 . S
N90 C92 1.361 . S
N90 C93 1.377 . S
C91 N88 1.382 . S
C91 N89 1.371 . S
C91 C94 1.480 . S
C92 N89 1.372 . S
C92 N90 1.361 . S
C92 C100 1.457 . S
C93 N88 1.363 . S
C93 N90 1.377 . S
C93 C106 1.479 . S
C94 C91 1.480 . S
C94 C95 1.383 . S
C94 C99 1.385 . S
C95 H76 0.947 . S
C95 C94 1.383 . S
C95 C96 1.388 . S
C96 H77 0.946 . S
C96 C95 1.388 . S
C96 C97 1.384 . S
C97 C96 1.384 . S
C97 C98 1.377 . S
C98 H78 0.953 . S
C98 C97 1.377 . S
C98 C99 1.369 . S
C99 H79 0.945 . S
C99 C94 1.385 . S
C99 C98 1.369 . S
C100 C92 1.457 . S
C100 C101 1.372 . S
C100 C105 1.364 . S
C101 H80 0.952 . S
C101 C100 1.372 . S
C101 C102 1.389 . S
C102 H81 0.949 . S
C102 C101 1.389 . S
C102 C103 1.387 . S
C103 C102 1.387 . S
C103 C104 1.372 . S
C104 H82 0.950 . S
C104 C103 1.372 . S
C104 C105 1.379 . S
C105 H83 0.948 . S
C105 C100 1.364 . S
C105 C104 1.379 . S
C106 C75 1.383 . S
C106 C93 1.479 . S
C106 C107 1.398 . S
C107 C72 1.382 . S
C107 H84 0.951 . S
C107 C106 1.398 . S
C108 C109 1.384 . S
C108 H121 0.947 . S
C108 C143 1.382 . S
C109 C108 1.384 . S
C109 C110 1.378 . S
C110 C109 1.378 . S
C110 C111 1.378 . S
C110 H122 0.952 . S
C111 C110 1.378 . S
C111 H123 0.950 . S
C111 C142 1.383 . S
H112 C131 0.947 . S
H113 C132 0.946 . S
H114 C134 0.953 . S
H115 C135 0.945 . S
H116 C137 0.952 . S
H117 C138 0.949 . S
H118 C140 0.950 . S
H119 C141 0.948 . S
H120 C143 0.951 . S
H121 C108 0.947 . S
H122 C110 0.952 . S
H123 C111 0.950 . S
N124 C127 1.382 . S
N124 C129 1.363 . S
N125 C127 1.371 . S
N125 C128 1.372 . S
N126 C128 1.361 . S
N126 C129 1.377 . S
C127 N124 1.382 . S
C127 N125 1.371 . S
C127 C130 1.480 . S
C128 N125 1.372 . S
C128 N126 1.361 . S
C128 C136 1.457 . S
C129 N124 1.363 . S
C129 N126 1.377 . S
C129 C142 1.479 . S
C130 C127 1.480 . S
C130 C131 1.383 . S
C130 C135 1.385 . S
C131 H112 0.947 . S
C131 C130 1.383 . S
C131 C132 1.388 . S
C132 H113 0.946 . S
C132 C131 1.388 . S
C132 C133 1.384 . S
C133 C132 1.384 . S
C133 C134 1.377 . S
C134 H114 0.953 . S
C134 C133 1.377 . S
C134 C135 1.369 . S
C135 H115 0.945 . S
C135 C130 1.385 . S
C135 C134 1.369 . S
C136 C128 1.457 . S
C136 C137 1.372 . S
C136 C141 1.364 . S
C137 H116 0.952 . S
C137 C136 1.372 . S
C137 C138 1.389 . S
C138 H117 0.949 . S
C138 C137 1.389 . S
C138 C139 1.387 . S
C139 C138 1.387 . S
C139 C140 1.372 . S
C140 H118 0.950 . S
C140 C139 1.372 . S
C140 C141 1.379 . S
C141 H119 0.948 . S
C141 C136 1.364 . S
C141 C140 1.379 . S
C142 C111 1.383 . S
C142 C129 1.479 . S
C142 C143 1.398 . S
C143 C108 1.382 . S
C143 H120 0.951 . S
C143 C142 1.398 . S
C144 C145 1.384 . S
C144 H157 0.947 . S
C144 C179 1.382 . S
C145 C144 1.384 . S
C145 C146 1.378 . S
C146 C145 1.378 . S
C146 C147 1.378 . S
C146 H158 0.952 . S
C147 C146 1.378 . S
C147 H159 0.950 . S
C147 C178 1.383 . S
H148 C167 0.947 . S
H149 C168 0.946 . S
H150 C170 0.953 . S
H151 C171 0.945 . S
H152 C173 0.952 . S
H153 C174 0.949 . S
H154 C176 0.950 . S
H155 C177 0.948 . S
H156 C179 0.951 . S
H157 C144 0.947 . S
H158 C146 0.952 . S
H159 C147 0.950 . S
N160 C163 1.382 . S
N160 C165 1.363 . S
N161 C163 1.371 . S
N161 C164 1.372 . S
N162 C164 1.361 . S
N162 C165 1.377 . S
C163 N160 1.382 . S
C163 N161 1.371 . S
C163 C166 1.480 . S
C164 N161 1.372 . S
C164 N162 1.361 . S
C164 C172 1.457 . S
C165 N160 1.363 . S
C165 N162 1.377 . S
C165 C178 1.479 . S
C166 C163 1.480 . S
C166 C167 1.383 . S
C166 C171 1.385 . S
C167 H148 0.947 . S
C167 C166 1.383 . S
C167 C168 1.388 . S
C168 H149 0.946 . S
C168 C167 1.388 . S
C168 C169 1.384 . S
C169 C168 1.384 . S
C169 C170 1.377 . S
C170 H150 0.953 . S
C170 C169 1.377 . S
C170 C171 1.369 . S
C171 H151 0.945 . S
C171 C166 1.385 . S
C171 C170 1.369 . S
C172 C164 1.457 . S
C172 C173 1.372 . S
C172 C177 1.364 . S
C173 H152 0.952 . S
C173 C172 1.372 . S
C173 C174 1.389 . S
C174 H153 0.949 . S
C174 C173 1.389 . S
C174 C175 1.387 . S
C175 C174 1.387 . S
C175 C176 1.372 . S
C176 H154 0.950 . S
C176 C175 1.372 . S
C176 C177 1.379 . S
C177 H155 0.948 . S
C177 C172 1.364 . S
C177 C176 1.379 . S
C178 C147 1.383 . S
C178 C165 1.479 . S
C178 C179 1.398 . S
C179 C144 1.382 . S
C179 H156 0.951 . S
C179 C178 1.398 . S
C180 C181 1.384 . S
C180 H193 0.947 . S
C180 C215 1.382 . S
C181 C180 1.384 . S
C181 C182 1.378 . S
C182 C181 1.378 . S
C182 C183 1.378 . S
C182 H194 0.952 . S
C183 C182 1.378 . S
C183 H195 0.950 . S
C183 C214 1.383 . S
H184 C203 0.947 . S
H185 C204 0.946 . S
H186 C206 0.953 . S
H187 C207 0.945 . S
H188 C209 0.952 . S
H189 C210 0.949 . S
H190 C212 0.950 . S
H191 C213 0.948 . S
H192 C215 0.951 . S
H193 C180 0.947 . S
H194 C182 0.952 . S
H195 C183 0.950 . S
N196 C199 1.382 . S
N196 C201 1.363 . S
N197 C199 1.371 . S
N197 C200 1.372 . S
N198 C200 1.361 . S
N198 C201 1.377 . S
C199 N196 1.382 . S
C199 N197 1.371 . S
C199 C202 1.480 . S
C200 N197 1.372 . S
C200 N198 1.361 . S
C200 C208 1.457 . S
C201 N196 1.363 . S
C201 N198 1.377 . S
C201 C214 1.479 . S
C202 C199 1.480 . S
C202 C203 1.383 . S
C202 C207 1.385 . S
C203 H184 0.947 . S
C203 C202 1.383 . S
C203 C204 1.388 . S
C204 H185 0.946 . S
C204 C203 1.388 . S
C204 C205 1.384 . S
C205 C204 1.384 . S
C205 C206 1.377 . S
C206 H186 0.953 . S
C206 C205 1.377 . S
C206 C207 1.369 . S
C207 H187 0.945 . S
C207 C202 1.385 . S
C207 C206 1.369 . S
C208 C200 1.457 . S
C208 C209 1.372 . S
C208 C213 1.364 . S
C209 H188 0.952 . S
C209 C208 1.372 . S
C209 C210 1.389 . S
C210 H189 0.949 . S
C210 C209 1.389 . S
C210 C211 1.387 . S
C211 C210 1.387 . S
C211 C212 1.372 . S
C212 H190 0.950 . S
C212 C211 1.372 . S
C212 C213 1.379 . S
C213 H191 0.948 . S
C213 C208 1.364 . S
C213 C212 1.379 . S
C214 C183 1.383 . S
C214 C201 1.479 . S
C214 C215 1.398 . S
C215 C180 1.382 . S
C215 H192 0.951 . S
C215 C214 1.398 . S
C216 C217 1.384 . S
C216 H229 0.947 . S
C216 C251 1.382 . S
C217 C216 1.384 . S
C217 C218 1.378 . S
C218 C217 1.378 . S
C218 C219 1.378 . S
C218 H230 0.952 . S
C219 C218 1.378 . S
C219 H231 0.950 . S
C219 C250 1.383 . S
H220 C239 0.947 . S
H221 C240 0.946 . S
H222 C242 0.953 . S
H223 C243 0.945 . S
H224 C245 0.952 . S
H225 C246 0.949 . S
H226 C248 0.950 . S
H227 C249 0.948 . S
H228 C251 0.951 . S
H229 C216 0.947 . S
H230 C218 0.952 . S
H231 C219 0.950 . S
N232 C235 1.382 . S
N232 C237 1.363 . S
N233 C235 1.371 . S
N233 C236 1.372 . S
N234 C236 1.361 . S
N234 C237 1.377 . S
C235 N232 1.382 . S
C235 N233 1.371 . S
C235 C238 1.480 . S
C236 N233 1.372 . S
C236 N234 1.361 . S
C236 C244 1.457 . S
C237 N232 1.363 . S
C237 N234 1.377 . S
C237 C250 1.479 . S
C238 C235 1.480 . S
C238 C239 1.383 . S
C238 C243 1.385 . S
C239 H220 0.947 . S
C239 C238 1.383 . S
C239 C240 1.388 . S
C240 H221 0.946 . S
C240 C239 1.388 . S
C240 C241 1.384 . S
C241 C240 1.384 . S
C241 C242 1.377 . S
C242 H222 0.953 . S
C242 C241 1.377 . S
C242 C243 1.369 . S
C243 H223 0.945 . S
C243 C238 1.385 . S
C243 C242 1.369 . S
C244 C236 1.457 . S
C244 C245 1.372 . S
C244 C249 1.364 . S
C245 H224 0.952 . S
C245 C244 1.372 . S
C245 C246 1.389 . S
C246 H225 0.949 . S
C246 C245 1.389 . S
C246 C247 1.387 . S
C247 C246 1.387 . S
C247 C248 1.372 . S
C248 H226 0.950 . S
C248 C247 1.372 . S
C248 C249 1.379 . S
C249 H227 0.948 . S
C249 C244 1.364 . S
C249 C248 1.379 . S
C250 C219 1.383 . S
C250 C237 1.479 . S
C250 C251 1.398 . S
C251 C216 1.382 . S
C251 H228 0.951 . S
C251 C250 1.398 . S
C252 C253 1.384 . S
C252 H265 0.947 . S
C252 C287 1.382 . S
C253 C252 1.384 . S
C253 C254 1.378 . S
C254 C253 1.378 . S
C254 C255 1.378 . S
C254 H266 0.952 . S
C255 C254 1.378 . S
C255 H267 0.950 . S
C255 C286 1.383 . S
H256 C275 0.947 . S
H257 C276 0.946 . S
H258 C278 0.953 . S
H259 C279 0.945 . S
H260 C281 0.952 . S
H261 C282 0.949 . S
H262 C284 0.950 . S
H263 C285 0.948 . S
H264 C287 0.951 . S
H265 C252 0.947 . S
H266 C254 0.952 . S
H267 C255 0.950 . S
N268 C271 1.382 . S
N268 C273 1.363 . S
N269 C271 1.371 . S
N269 C272 1.372 . S
N270 C272 1.361 . S
N270 C273 1.377 . S
C271 N268 1.382 . S
C271 N269 1.371 . S
C271 C274 1.480 . S
C272 N269 1.372 . S
C272 N270 1.361 . S
C272 C280 1.457 . S
C273 N268 1.363 . S
C273 N270 1.377 . S
C273 C286 1.479 . S
C274 C271 1.480 . S
C274 C275 1.383 . S
C274 C279 1.385 . S
C275 H256 0.947 . S
C275 C274 1.383 . S
C275 C276 1.388 . S
C276 H257 0.946 . S
C276 C275 1.388 . S
C276 C277 1.384 . S
C277 C276 1.384 . S
C277 C278 1.377 . S
C278 H258 0.953 . S
C278 C277 1.377 . S
C278 C279 1.369 . S
C279 H259 0.945 . S
C279 C274 1.385 . S
C279 C278 1.369 . S
C280 C272 1.457 . S
C280 C281 1.372 . S
C280 C285 1.364 . S
C281 H260 0.952 . S
C281 C280 1.372 . S
C281 C282 1.389 . S
C282 H261 0.949 . S
C282 C281 1.389 . S
C282 C283 1.387 . S
C283 C282 1.387 . S
C283 C284 1.372 . S
C284 H262 0.950 . S
C284 C283 1.372 . S
C284 C285 1.379 . S
C285 H263 0.948 . S
C285 C280 1.364 . S
C285 C284 1.379 . S
C286 C255 1.383 . S
C286 C273 1.479 . S
C286 C287 1.398 . S
C287 C252 1.382 . S
C287 H264 0.951 . S
C287 C286 1.398 . S
C288 C289 1.443 . S
C288 N292 1.376 . S
C288 C326 1.389 . S
C289 C288 1.443 . S
C289 C290 1.340 . S
C289 H329 0.951 . S
C290 C289 1.340 . S
C290 C291 1.439 . S
C290 H330 0.950 . S
C291 C290 1.439 . S
C291 N292 1.374 . S
C291 C325 1.395 . S
N292 C288 1.376 . S
N292 C291 1.374 . S
N292 Co293 2.008 . S
Co293 N292 2.008 . S
Co293 N294 1.995 1_455 S
Co293 N299 2.008 . S
Co293 N304 1.995 . S
Co293 N309 2.282 . S
Co293 N315 2.282 1_455 S
N294 Co293 1.995 1_655 S
N294 C295 1.376 . S
N294 C298 1.383 . S
C295 N294 1.376 . S
C295 C296 1.446 . S
C295 C325 1.391 1_655 S
C296 C295 1.446 . S
C296 C297 1.339 . S
C296 H331 0.949 . S
C297 C296 1.339 . S
C297 C298 1.439 . S
C297 H332 0.950 . S
C298 N294 1.383 . S
C298 C297 1.439 . S
C298 C327 1.392 . S
N299 Co293 2.008 . S
N299 C300 1.376 1_455 S
N299 C303 1.374 . S
C300 N299 1.376 1_655 S
C300 C301 1.443 . S
C300 C327 1.389 . S
C301 C300 1.443 . S
C301 C302 1.340 . S
C301 H333 0.951 . S
C302 C301 1.340 . S
C302 C303 1.439 1_655 S
C302 H334 0.950 . S
C303 N299 1.374 . S
C303 C302 1.439 1_455 S
C303 C328 1.395 . S
N304 Co293 1.995 . S
N304 C305 1.376 . S
N304 C308 1.383 . S
C305 N304 1.376 . S
C305 C306 1.446 . S
C305 C328 1.391 . S
C306 C305 1.446 . S
C306 C307 1.339 . S
C306 H335 0.949 . S
C307 C306 1.339 . S
C307 C308 1.439 . S
C307 H336 0.950 . S
C308 N304 1.383 . S
C308 C307 1.439 . S
C308 C326 1.392 . S
N309 Co293 2.282 . S
N309 C312 1.332 . S
N309 C314 1.332 . S
C310 C311 1.386 . S
C310 C313 1.388 . S
C311 C310 1.386 . S
C311 C312 1.382 . S
C311 H337 0.950 . S
C312 N309 1.332 . S
C312 C311 1.382 . S
C312 H323 0.952 . S
C313 C310 1.388 . S
C313 C314 1.382 . S
C313 H338 0.950 . S
C314 N309 1.332 . S
C314 C313 1.382 . S
C314 H324 0.948 . S
N315 Co293 2.282 1_655 S
N315 C319 1.332 . S
N315 C320 1.332 . S
C316 C317 1.388 . S
C316 C320 1.382 . S
C316 H339 0.950 . S
C317 C316 1.388 . S
C317 C318 1.386 . S
C318 C317 1.386 . S
C318 C319 1.382 . S
C318 H340 0.950 . S
C319 N315 1.332 . S
C319 C318 1.382 . S
C319 H321 0.952 . S
C320 N315 1.332 . S
C320 C316 1.382 . S
C320 H322 0.948 . S
H321 C319 0.952 . S
H322 C320 0.948 . S
H323 C312 0.952 . S
H324 C314 0.948 . S
C325 C291 1.395 . S
C325 C295 1.391 1_455 S
C326 C288 1.389 . S
C326 C308 1.392 . S
C327 C298 1.392 . S
C327 C300 1.389 . S
C328 C303 1.395 . S
C328 C305 1.391 . S
H329 C289 0.951 . S
H330 C290 0.950 . S
H331 C296 0.949 . S
H332 C297 0.950 . S
H333 C301 0.951 . S
H334 C302 0.950 . S
H335 C306 0.949 . S
H336 C307 0.950 . S
H337 C311 0.950 . S
H338 C313 0.950 . S
H339 C316 0.950 . S
H340 C318 0.950 . S
C341 C342 1.443 . S
C341 N345 1.376 . S
C341 C379 1.389 . S
C342 C341 1.443 . S
C342 C343 1.340 . S
C342 H382 0.951 . S
C343 C342 1.340 . S
C343 C344 1.439 . S
C343 H383 0.950 . S
C344 C343 1.439 . S
C344 N345 1.374 . S
C344 C378 1.395 . S
N345 C341 1.376 . S
N345 C344 1.374 . S
N345 Co346 2.008 . S
Co346 N345 2.008 . S
Co346 N347 1.995 1_455 S
Co346 N352 2.008 1_455 S
Co346 N357 1.995 . S
Co346 N362 2.282 . S
Co346 N368 2.282 1_455 S
N347 Co346 1.995 1_655 S
N347 C348 1.376 . S
N347 C351 1.383 . S
C348 N347 1.376 . S
C348 C349 1.446 . S
C348 C378 1.391 1_655 S
C349 C348 1.446 . S
C349 C350 1.339 . S
C349 H384 0.949 . S
C350 C349 1.339 . S
C350 C351 1.439 . S
C350 H385 0.950 . S
C351 N347 1.383 . S
C351 C350 1.439 . S
C351 C380 1.392 . S
N352 Co346 2.008 1_655 S
N352 C353 1.376 . S
N352 C356 1.371 1_655 S
C353 N352 1.376 . S
C353 C354 1.443 . S
C353 C380 1.389 . S
C354 C353 1.443 . S
C354 C355 1.340 . S
C354 H386 0.951 . S
C355 C354 1.340 . S
C355 C356 1.432 1_655 S
C355 H387 0.950 . S
C356 N352 1.371 1_455 S
C356 C355 1.432 1_455 S
C356 C381 1.404 . S
N357 Co346 1.995 . S
N357 C358 1.376 . S
N357 C361 1.383 . S
C358 N357 1.376 . S
C358 C359 1.446 . S
C358 C381 1.391 . S
C359 C358 1.446 . S
C359 C360 1.339 . S
C359 H388 0.949 . S
C360 C359 1.339 . S
C360 C361 1.439 . S
C360 H389 0.950 . S
C361 N357 1.383 . S
C361 C360 1.439 . S
C361 C379 1.392 . S
N362 Co346 2.282 . S
N362 C365 1.332 . S
N362 C367 1.332 . S
C363 C364 1.386 . S
C363 C366 1.388 . S
C364 C363 1.386 . S
C364 C365 1.382 . S
C364 H390 0.950 . S
C365 N362 1.332 . S
C365 C364 1.382 . S
C365 H376 0.952 . S
C366 C363 1.388 . S
C366 C367 1.382 . S
C366 H391 0.950 . S
C367 N362 1.332 . S
C367 C366 1.382 . S
C367 H377 0.948 . S
N368 Co346 2.282 1_655 S
N368 C372 1.332 . S
N368 C373 1.332 . S
C369 C370 1.388 . S
C369 C373 1.382 . S
C369 H392 0.950 . S
C370 C369 1.388 . S
C370 C371 1.386 . S
C371 C370 1.386 . S
C371 C372 1.382 . S
C371 H393 0.950 . S
C372 N368 1.332 . S
C372 C371 1.382 . S
C372 H374 0.952 . S
C373 N368 1.332 . S
C373 C369 1.382 . S
C373 H375 0.948 . S
H374 C372 0.952 . S
H375 C373 0.948 . S
H376 C365 0.952 . S
H377 C367 0.948 . S
C378 C344 1.395 . S
C378 C348 1.391 1_455 S
C379 C341 1.389 . S
C379 C361 1.392 . S
C380 C351 1.392 . S
C380 C353 1.389 . S
C381 C356 1.404 . S
C381 C358 1.391 . S
H382 C342 0.951 . S
H383 C343 0.950 . S
H384 C349 0.949 . S
H385 C350 0.950 . S
H386 C354 0.951 . S
H387 C355 0.950 . S
H388 C359 0.949 . S
H389 C360 0.950 . S
H390 C364 0.950 . S
H391 C366 0.950 . S
H392 C369 0.950 . S
H393 C371 0.950 . S
C394 C395 1.443 . S
C394 N398 1.376 . S
C394 C432 1.389 . S
C395 C394 1.443 . S
C395 C396 1.340 . S
C395 H435 0.951 . S
C396 C395 1.340 . S
C396 C397 1.439 . S
C396 H436 0.950 . S
C397 C396 1.439 . S
C397 N398 1.374 . S
C397 C431 1.395 1_565 S
N398 C394 1.376 . S
N398 C397 1.374 . S
N398 Co399 2.008 1_565 S
Co399 N398 2.008 1_545 S
Co399 N400 1.995 . S
Co399 N405 2.008 . S
Co399 N410 1.995 1_545 S
Co399 N415 2.282 . S
Co399 N421 2.282 1_545 S
N400 Co399 1.995 . S
N400 C401 1.376 . S
N400 C404 1.383 . S
C401 N400 1.376 . S
C401 C402 1.446 . S
C401 C431 1.391 . S
C402 C401 1.446 . S
C402 C403 1.339 . S
C402 H437 0.949 . S
C403 C402 1.339 . S
C403 C404 1.439 . S
C403 H438 0.950 . S
C404 N400 1.383 . S
C404 C403 1.439 . S
C404 C433 1.392 . S
N405 Co399 2.008 . S
N405 C406 1.376 . S
N405 C409 1.374 . S
C406 N405 1.376 . S
C406 C407 1.443 . S
C406 C433 1.389 . S
C407 C406 1.443 . S
C407 C408 1.340 . S
C407 H439 0.951 . S
C408 C407 1.340 . S
C408 C409 1.439 . S
C408 H440 0.950 . S
C409 N405 1.374 . S
C409 C408 1.439 . S
C409 C434 1.395 . S
N410 Co399 1.995 1_565 S
N410 C411 1.376 . S
N410 C414 1.383 . S
C411 N410 1.376 . S
C411 C412 1.446 . S
C411 C434 1.391 1_565 S
C412 C411 1.446 . S
C412 C413 1.339 . S
C412 H441 0.949 . S
C413 C412 1.339 . S
C413 C414 1.439 . S
C413 H442 0.950 . S
C414 N410 1.383 . S
C414 C413 1.439 . S
C414 C432 1.392 . S
N415 Co399 2.282 . S
N415 C418 1.332 . S
N415 C420 1.332 . S
C416 C417 1.386 . S
C416 C419 1.388 . S
C417 C416 1.386 . S
C417 C418 1.382 . S
C417 H443 0.950 . S
C418 N415 1.332 . S
C418 C417 1.382 . S
C418 H429 0.952 . S
C419 C416 1.388 . S
C419 C420 1.382 . S
C419 H444 0.950 . S
C420 N415 1.332 . S
C420 C419 1.382 . S
C420 H430 0.948 . S
N421 Co399 2.282 1_565 S
N421 C425 1.332 . S
N421 C426 1.332 . S
C422 C423 1.388 . S
C422 C426 1.382 . S
C422 H445 0.950 . S
C423 C422 1.388 . S
C423 C424 1.386 . S
C424 C423 1.386 . S
C424 C425 1.382 . S
C424 H446 0.950 . S
C425 N421 1.332 . S
C425 C424 1.382 . S
C425 H427 0.952 . S
C426 N421 1.332 . S
C426 C422 1.382 . S
C426 H428 0.948 . S
H427 C425 0.952 . S
H428 C426 0.948 . S
H429 C418 0.952 . S
H430 C420 0.948 . S
C431 C397 1.395 1_545 S
C431 C401 1.391 . S
C432 C394 1.389 . S
C432 C414 1.392 . S
C433 C404 1.392 . S
C433 C406 1.389 . S
C434 C409 1.395 . S
C434 C411 1.391 1_545 S
H435 C395 0.951 . S
H436 C396 0.950 . S
H437 C402 0.949 . S
H438 C403 0.950 . S
H439 C407 0.951 . S
H440 C408 0.950 . S
H441 C412 0.949 . S
H442 C413 0.950 . S
H443 C417 0.950 . S
H444 C419 0.950 . S
H445 C422 0.950 . S
H446 C424 0.950 . S
C447 C448 1.443 . S
C447 N451 1.376 . S
C447 C485 1.389 . S
C448 C447 1.443 . S
C448 C449 1.340 . S
C448 H488 0.951 . S
C449 C448 1.340 . S
C449 C450 1.439 . S
C449 H489 0.950 . S
C450 C449 1.439 . S
C450 N451 1.374 . S
C450 C484 1.395 . S
N451 C447 1.376 . S
N451 C450 1.374 . S
N451 Co452 2.008 . S
Co452 N451 2.008 . S
Co452 N453 1.995 . S
Co452 N458 2.003 1_554 S
Co452 N463 1.995 . S
Co452 N468 2.282 1_554 S
Co452 N474 2.282 . S
N453 Co452 1.995 . S
N453 C454 1.376 . S
N453 C457 1.383 1_554 S
C454 N453 1.376 . S
C454 C455 1.446 1_554 S
C454 C484 1.391 . S
C455 C454 1.446 1_556 S
C455 C456 1.339 . S
C455 H490 0.949 . S
C456 C455 1.339 . S
C456 C457 1.439 . S
C456 H491 0.950 . S
C457 N453 1.383 1_556 S
C457 C456 1.439 . S
C457 C486 1.392 . S
N458 Co452 2.003 1_556 S
N458 C459 1.384 . S
N458 C462 1.374 1_556 S
C459 N458 1.384 . S
C459 C460 1.443 . S
C459 C486 1.389 . S
C460 C459 1.443 . S
C460 C461 1.340 . S
C460 H492 0.951 . S
C461 C460 1.340 . S
C461 C462 1.408 1_556 S
C461 H493 0.950 . S
C462 N458 1.374 1_554 S
C462 C461 1.408 1_554 S
C462 C487 1.422 . S
N463 Co452 1.995 . S
N463 C464 1.376 . S
N463 C467 1.383 . S
C464 N463 1.376 . S
C464 C465 1.446 . S
C464 C487 1.391 . S
C465 C464 1.446 . S
C465 C466 1.339 . S
C465 H494 0.949 . S
C466 C465 1.339 . S
C466 C467 1.439 . S
C466 H495 0.950 . S
C467 N463 1.383 . S
C467 C466 1.439 . S
C467 C485 1.392 . S
N468 Co452 2.282 1_556 S
N468 C471 1.332 . S
N468 C473 1.332 . S
C469 C470 1.386 . S
C469 C472 1.388 . S
C470 C469 1.386 . S
C470 C471 1.382 . S
C470 H496 0.950 . S
C471 N468 1.332 . S
C471 C470 1.382 . S
C471 H482 0.952 . S
C472 C469 1.388 . S
C472 C473 1.382 . S
C472 H497 0.950 . S
C473 N468 1.332 . S
C473 C472 1.382 . S
C473 H483 0.948 . S
N474 Co452 2.282 . S
N474 C478 1.332 . S
N474 C479 1.332 . S
C475 C476 1.388 . S
C475 C479 1.382 . S
C475 H498 0.950 . S
C476 C475 1.388 . S
C476 C477 1.386 . S
C477 C476 1.386 . S
C477 C478 1.382 . S
C477 H499 0.950 . S
C478 N474 1.332 . S
C478 C477 1.382 . S
C478 H480 0.952 . S
C479 N474 1.332 . S
C479 C475 1.382 . S
C479 H481 0.948 . S
H480 C478 0.952 . S
H481 C479 0.948 . S
H482 C471 0.952 . S
H483 C473 0.948 . S
C484 C450 1.395 . S
C484 C454 1.391 . S
C485 C447 1.389 . S
C485 C467 1.392 . S
C486 C457 1.392 . S
C486 C459 1.389 . S
C487 C462 1.422 . S
C487 C464 1.391 . S
H488 C448 0.951 . S
H489 C449 0.950 . S
H490 C455 0.949 . S
H491 C456 0.950 . S
H492 C460 0.951 . S
H493 C461 0.950 . S
H494 C465 0.949 . S
H495 C466 0.950 . S
H496 C470 0.950 . S
H497 C472 0.950 . S
H498 C475 0.950 . S
H499 C477 0.950 . S
C500 C501 1.443 . S
C500 N504 1.360 1_565 S
C500 C538 1.389 . S
C501 C500 1.443 . S
C501 C502 1.340 . S
C501 H541 0.951 . S
C502 C501 1.340 . S
C502 C503 1.439 1_565 S
C502 H542 0.950 . S
C503 C502 1.439 1_545 S
C503 N504 1.374 . S
C503 C537 1.395 . S
N504 C500 1.360 1_545 S
N504 C503 1.374 . S
N504 Co505 2.020 . S
Co505 N504 2.020 . S
Co505 N506 1.995 . S
Co505 N511 2.008 . S
Co505 N516 1.995 . S
Co505 N521 2.282 . S
Co505 N527 2.282 1_545 S
N506 Co505 1.995 . S
N506 C507 1.376 . S
N506 C510 1.383 . S
C507 N506 1.376 . S
C507 C508 1.446 . S
C507 C537 1.391 . S
C508 C507 1.446 . S
C508 C509 1.339 . S
C508 H543 0.949 . S
C509 C508 1.339 . S
C509 C510 1.439 . S
C509 H544 0.950 . S
C510 N506 1.383 . S
C510 C509 1.439 . S
C510 C539 1.392 . S
N511 Co505 2.008 . S
N511 C512 1.376 . S
N511 C515 1.374 . S
C512 N511 1.376 . S
C512 C513 1.443 . S
C512 C539 1.389 . S
C513 C512 1.443 . S
C513 C514 1.340 . S
C513 H545 0.951 . S
C514 C513 1.340 . S
C514 C515 1.439 . S
C514 H546 0.950 . S
C515 N511 1.374 . S
C515 C514 1.439 . S
C515 C540 1.395 . S
N516 Co505 1.995 . S
N516 C517 1.376 . S
N516 C520 1.383 1_545 S
C517 N516 1.376 . S
C517 C518 1.446 1_545 S
C517 C540 1.391 . S
C518 C517 1.446 1_565 S
C518 C519 1.339 . S
C518 H547 0.949 . S
C519 C518 1.339 . S
C519 C520 1.439 . S
C519 H548 0.950 . S
C520 N516 1.383 1_565 S
C520 C519 1.439 . S
C520 C538 1.392 . S
N521 Co505 2.282 . S
N521 C524 1.332 . S
N521 C526 1.332 . S
C522 C523 1.386 . S
C522 C525 1.388 . S
C523 C522 1.386 . S
C523 C524 1.382 . S
C523 H549 0.950 . S
C524 N521 1.332 . S
C524 C523 1.382 . S
C524 H535 0.952 . S
C525 C522 1.388 . S
C525 C526 1.382 . S
C525 H550 0.950 . S
C526 N521 1.332 . S
C526 C525 1.382 . S
C526 H536 0.948 . S
N527 Co505 2.282 1_565 S
N527 C531 1.332 . S
N527 C532 1.332 . S
C528 C529 1.388 . S
C528 C532 1.382 . S
C528 H551 0.950 . S
C529 C528 1.388 . S
C529 C530 1.386 . S
C530 C529 1.386 . S
C530 C531 1.382 . S
C530 H552 0.950 . S
C531 N527 1.332 . S
C531 C530 1.382 . S
C531 H533 0.952 . S
C532 N527 1.332 . S
C532 C528 1.382 . S
C532 H534 0.948 . S
H533 C531 0.952 . S
H534 C532 0.948 . S
H535 C524 0.952 . S
H536 C526 0.948 . S
C537 C503 1.395 . S
C537 C507 1.391 . S
C538 C500 1.389 . S
C538 C520 1.392 . S
C539 C510 1.392 . S
C539 C512 1.389 . S
C540 C515 1.395 . S
C540 C517 1.391 . S
H541 C501 0.951 . S
H542 C502 0.950 . S
H543 C508 0.949 . S
H544 C509 0.950 . S
H545 C513 0.951 . S
H546 C514 0.950 . S
H547 C518 0.949 . S
H548 C519 0.950 . S
H549 C523 0.950 . S
H550 C525 0.950 . S
H551 C528 0.950 . S
H552 C530 0.950 . S
C553 C554 1.443 . S
C553 N557 1.376 . S
C553 C591 1.389 . S
C554 C553 1.443 . S
C554 C555 1.340 . S
C554 H594 0.951 . S
C555 C554 1.340 . S
C555 C556 1.439 . S
C555 H595 0.950 . S
C556 C555 1.439 . S
C556 N557 1.374 . S
C556 C590 1.395 . S
N557 C553 1.376 . S
N557 C556 1.374 . S
N557 Co558 2.008 . S
Co558 N557 2.008 . S
Co558 N559 1.995 . S
Co558 N564 2.008 . S
Co558 N569 1.995 . S
Co558 N574 2.289 . S
Co558 N580 2.282 . S
N559 Co558 1.995 . S
N559 C560 1.376 . S
N559 C563 1.383 1_554 S
C560 N559 1.376 . S
C560 C561 1.446 1_554 S
C560 C590 1.391 . S
C561 C560 1.446 1_556 S
C561 C562 1.339 . S
C561 H596 0.949 . S
C562 C561 1.339 . S
C562 C563 1.439 . S
C562 H597 0.950 . S
C563 N559 1.383 1_556 S
C563 C562 1.439 . S
C563 C592 1.392 . S
N564 Co558 2.008 . S
N564 C565 1.376 1_554 S
N564 C568 1.374 . S
C565 N564 1.376 1_556 S
C565 C566 1.443 . S
C565 C592 1.389 . S
C566 C565 1.443 . S
C566 C567 1.340 . S
C566 H598 0.951 . S
C567 C566 1.340 . S
C567 C568 1.439 1_556 S
C567 H599 0.950 . S
C568 N564 1.374 . S
C568 C567 1.439 1_554 S
C568 C593 1.395 . S
N569 Co558 1.995 . S
N569 C570 1.376 . S
N569 C573 1.383 . S
C570 N569 1.376 . S
C570 C571 1.446 . S
C570 C593 1.391 . S
C571 C570 1.446 . S
C571 C572 1.339 . S
C571 H600 0.949 . S
C572 C571 1.339 . S
C572 C573 1.439 . S
C572 H601 0.950 . S
C573 N569 1.383 . S
C573 C572 1.439 . S
C573 C591 1.392 . S
N574 Co558 2.289 . S
N574 C577 1.329 1_554 S
N574 C579 1.327 1_554 S
C575 C576 1.386 . S
C575 C578 1.388 . S
C576 C575 1.386 . S
C576 C577 1.382 . S
C576 H602 0.950 . S
C577 N574 1.329 1_556 S
C577 C576 1.382 . S
C577 H588 0.952 1_556 S
C578 C575 1.388 . S
C578 C579 1.382 . S
C578 H603 0.950 . S
C579 N574 1.327 1_556 S
C579 C578 1.382 . S
C579 H589 0.948 . S
N580 Co558 2.282 . S
N580 C584 1.332 . S
N580 C585 1.332 . S
C581 C582 1.388 . S
C581 C585 1.382 . S
C581 H604 0.950 . S
C582 C581 1.388 . S
C582 C583 1.386 . S
C583 C582 1.386 . S
C583 C584 1.382 . S
C583 H605 0.950 . S
C584 N580 1.332 . S
C584 C583 1.382 . S
C584 H586 0.952 . S
C585 N580 1.332 . S
C585 C581 1.382 . S
C585 H587 0.948 . S
H586 C584 0.952 . S
H587 C585 0.948 . S
H588 C577 0.952 1_554 S
H589 C579 0.948 . S
C590 C556 1.395 . S
C590 C560 1.391 . S
C591 C553 1.389 . S
C591 C573 1.392 . S
C592 C563 1.392 . S
C592 C565 1.389 . S
C593 C568 1.395 . S
C593 C570 1.391 . S
H594 C554 0.951 . S
H595 C555 0.950 . S
H596 C561 0.949 . S
H597 C562 0.950 . S
H598 C566 0.951 . S
H599 C567 0.950 . S
H600 C571 0.949 . S
H601 C572 0.950 . S
H602 C576 0.950 . S
H603 C578 0.950 . S
H604 C581 0.950 . S
H605 C583 0.950 . S
C606 C607 1.349 . S
C606 C608 1.327 . S
C606 H631 0.950 . S
C607 C606 1.349 . S
C607 C623 1.349 . S
C608 C606 1.327 . S
C608 C627 1.429 . S
C608 H632 0.950 . S
C609 C626 1.574 . S
C609 C628 1.368 . S
C609 H633 0.949 . S
H610 C614 0.949 . S
C611 C612 1.349 . S
C611 C613 1.327 . S
C611 H634 0.950 . S
C612 C611 1.349 . S
C612 C624 1.349 . S
C613 C611 1.327 . S
C613 C629 1.429 . S
C613 H635 0.950 . S
C614 H610 0.949 . S
C614 C622 1.574 . S
C614 C630 1.368 . S
H615 C623 0.950 . S
H616 C621 0.950 . S
H617 C622 0.949 . S
H618 C624 0.950 . S
H619 C625 0.950 . S
H620 C626 0.949 . S
C621 H616 0.950 . S
C621 C623 1.327 . S
C621 C627 1.429 . S
C622 C614 1.574 . S
C622 H617 0.949 . S
C622 C628 1.368 . S
C623 C607 1.349 . S
C623 H615 0.950 . S
C623 C621 1.327 . S
C624 C612 1.349 . S
C624 H618 0.950 . S
C624 C625 1.327 . S
C625 H619 0.950 . S
C625 C624 1.327 . S
C625 C629 1.429 . S
C626 C609 1.574 . S
C626 H620 0.949 . S
C626 C630 1.368 . S
C627 C608 1.429 . S
C627 C621 1.429 . S
C627 C628 1.523 . S
C628 C609 1.368 . S
C628 C622 1.368 . S
C628 C627 1.523 . S
C629 C613 1.429 . S
C629 C625 1.429 . S
C629 C630 1.523 . S
C630 C614 1.368 . S
C630 C626 1.368 . S
C630 C629 1.523 . S
H631 C606 0.950 . S
H632 C608 0.950 . S
H633 C609 0.949 . S
H634 C611 0.950 . S
H635 C613 0.950 . S
C636 C637 1.349 . S
C636 C638 1.327 . S
C636 H661 0.950 . S
C637 C636 1.349 . S
C637 C653 1.349 . S
C638 C636 1.327 . S
C638 C657 1.429 . S
C638 H662 0.950 . S
C639 C656 1.574 . S
C639 C658 1.368 . S
C639 H663 0.949 . S
H640 C644 0.949 . S
C641 C642 1.349 . S
C641 C643 1.327 . S
C641 H664 0.950 . S
C642 C641 1.349 . S
C642 C654 1.349 . S
C643 C641 1.327 . S
C643 C659 1.429 . S
C643 H665 0.950 . S
C644 H640 0.949 . S
C644 C652 1.574 . S
C644 C660 1.368 . S
H645 C653 0.950 . S
H646 C651 0.950 . S
H647 C652 0.949 . S
H648 C654 0.950 . S
H649 C655 0.950 . S
H650 C656 0.949 . S
C651 H646 0.950 . S
C651 C653 1.327 . S
C651 C657 1.429 . S
C652 C644 1.574 . S
C652 H647 0.949 . S
C652 C658 1.368 . S
C653 C637 1.349 . S
C653 H645 0.950 . S
C653 C651 1.327 . S
C654 C642 1.349 . S
C654 H648 0.950 . S
C654 C655 1.327 . S
C655 H649 0.950 . S
C655 C654 1.327 . S
C655 C659 1.429 . S
C656 C639 1.574 . S
C656 H650 0.949 . S
C656 C660 1.368 . S
C657 C638 1.429 . S
C657 C651 1.429 . S
C657 C658 1.523 . S
C658 C639 1.368 . S
C658 C652 1.368 . S
C658 C657 1.523 . S
C659 C643 1.429 . S
C659 C655 1.429 . S
C659 C660 1.523 . S
C660 C644 1.368 . S
C660 C656 1.368 . S
C660 C659 1.523 . S
H661 C636 0.950 . S
H662 C638 0.950 . S
H663 C639 0.949 . S
H664 C641 0.950 . S
H665 C643 0.950 . S
C666 C667 1.349 . S
C666 C668 1.327 . S
C666 H691 0.950 . S
C667 C666 1.349 . S
C667 C683 1.349 . S
C668 C666 1.327 . S
C668 C687 1.429 . S
C668 H692 0.950 . S
C669 C686 1.574 . S
C669 C688 1.368 . S
C669 H693 0.949 . S
H670 C674 0.949 . S
C671 C672 1.349 . S
C671 C673 1.327 . S
C671 H694 0.950 . S
C672 C671 1.349 . S
C672 C684 1.349 . S
C673 C671 1.327 . S
C673 C689 1.429 . S
C673 H695 0.950 . S
C674 H670 0.949 . S
C674 C682 1.574 . S
C674 C690 1.368 . S
H675 C683 0.950 . S
H676 C681 0.950 . S
H677 C682 0.949 . S
H678 C684 0.950 . S
H679 C685 0.950 . S
H680 C686 0.949 . S
C681 H676 0.950 . S
C681 C683 1.327 . S
C681 C687 1.429 . S
C682 C674 1.574 . S
C682 H677 0.949 . S
C682 C688 1.368 . S
C683 C667 1.349 . S
C683 H675 0.950 . S
C683 C681 1.327 . S
C684 C672 1.349 . S
C684 H678 0.950 . S
C684 C685 1.327 . S
C685 H679 0.950 . S
C685 C684 1.327 . S
C685 C689 1.429 . S
C686 C669 1.574 . S
C686 H680 0.949 . S
C686 C690 1.368 . S
C687 C668 1.429 . S
C687 C681 1.429 . S
C687 C688 1.523 . S
C688 C669 1.368 . S
C688 C682 1.368 . S
C688 C687 1.523 . S
C689 C673 1.429 . S
C689 C685 1.429 . S
C689 C690 1.523 . S
C690 C674 1.368 . S
C690 C686 1.368 . S
C690 C689 1.523 . S
H691 C666 0.950 . S
H692 C668 0.950 . S
H693 C669 0.949 . S
H694 C671 0.950 . S
H695 C673 0.950 . S
C696 C697 1.349 . S
C696 C698 1.327 . S
C696 H721 0.950 . S
C697 C696 1.349 . S
C697 C713 1.349 . S
C698 C696 1.327 . S
C698 C717 1.429 . S
C698 H722 0.950 . S
C699 C716 1.574 . S
C699 C718 1.368 . S
C699 H723 0.949 . S
H700 C704 0.949 . S
C701 C702 1.349 . S
C701 C703 1.327 . S
C701 H724 0.950 . S
C702 C701 1.349 . S
C702 C714 1.349 . S
C703 C701 1.327 . S
C703 C719 1.429 . S
C703 H725 0.950 . S
C704 H700 0.949 . S
C704 C712 1.574 . S
C704 C720 1.368 . S
H705 C713 0.950 . S
H706 C711 0.950 . S
H707 C712 0.949 . S
H708 C714 0.950 . S
H709 C715 0.950 . S
H710 C716 0.949 . S
C711 H706 0.950 . S
C711 C713 1.327 . S
C711 C717 1.429 . S
C712 C704 1.574 . S
C712 H707 0.949 . S
C712 C718 1.368 . S
C713 C697 1.349 . S
C713 H705 0.950 . S
C713 C711 1.327 . S
C714 C702 1.349 . S
C714 H708 0.950 . S
C714 C715 1.327 . S
C715 H709 0.950 . S
C715 C714 1.327 . S
C715 C719 1.429 . S
C716 C699 1.574 . S
C716 H710 0.949 . S
C716 C720 1.368 . S
C717 C698 1.429 . S
C717 C711 1.429 . S
C717 C718 1.523 . S
C718 C699 1.368 . S
C718 C712 1.368 . S
C718 C717 1.523 . S
C719 C703 1.429 . S
C719 C715 1.429 . S
C719 C720 1.523 . S
C720 C704 1.368 . S
C720 C716 1.368 . S
C720 C719 1.523 . S
H721 C696 0.950 . S
H722 C698 0.950 . S
H723 C699 0.949 . S
H724 C701 0.950 . S
H725 C703 0.950 . S
C726 C727 1.349 . S
C726 C728 1.327 . S
C726 H751 0.950 . S
C727 C726 1.349 . S
C727 C743 1.349 . S
C728 C726 1.327 . S
C728 C747 1.429 . S
C728 H752 0.950 . S
C729 C746 1.574 . S
C729 C748 1.368 . S
C729 H753 0.949 . S
H730 C734 0.949 . S
C731 C732 1.349 . S
C731 C733 1.327 . S
C731 H754 0.950 . S
C732 C731 1.349 . S
C732 C744 1.349 . S
C733 C731 1.327 . S
C733 C749 1.429 . S
C733 H755 0.950 . S
C734 H730 0.949 . S
C734 C742 1.574 . S
C734 C750 1.368 . S
H735 C743 0.950 . S
H736 C741 0.950 . S
H737 C742 0.949 . S
H738 C744 0.950 . S
H739 C745 0.950 . S
H740 C746 0.949 . S
C741 H736 0.950 . S
C741 C743 1.327 . S
C741 C747 1.429 . S
C742 C734 1.574 . S
C742 H737 0.949 . S
C742 C748 1.368 . S
C743 C727 1.349 . S
C743 H735 0.950 . S
C743 C741 1.327 . S
C744 C732 1.349 . S
C744 H738 0.950 . S
C744 C745 1.327 . S
C745 H739 0.950 . S
C745 C744 1.327 . S
C745 C749 1.429 . S
C746 C729 1.574 . S
C746 H740 0.949 . S
C746 C750 1.368 . S
C747 C728 1.429 . S
C747 C741 1.429 . S
C747 C748 1.523 . S
C748 C729 1.368 . S
C748 C742 1.368 . S
C748 C747 1.523 . S
C749 C733 1.429 . S
C749 C745 1.429 . S
C749 C750 1.523 . S
C750 C734 1.368 . S
C750 C746 1.368 . S
C750 C749 1.523 . S
H751 C726 0.950 . S
H752 C728 0.950 . S
H753 C729 0.949 . S
H754 C731 0.950 . S
H755 C733 0.950 . S
C756 C757 1.349 . S
C756 C758 1.327 . S
C756 H781 0.950 . S
C757 C756 1.349 . S
C757 C773 1.349 . S
C758 C756 1.327 . S
C758 C777 1.429 . S
C758 H782 0.950 . S
C759 C776 1.574 . S
C759 C778 1.368 . S
C759 H783 0.949 . S
H760 C764 0.949 . S
C761 C762 1.349 . S
C761 C763 1.327 . S
C761 H784 0.950 . S
C762 C761 1.349 . S
C762 C774 1.349 . S
C763 C761 1.327 . S
C763 C779 1.429 . S
C763 H785 0.950 . S
C764 H760 0.949 . S
C764 C772 1.574 . S
C764 C780 1.368 . S
H765 C773 0.950 . S
H766 C771 0.950 . S
H767 C772 0.949 . S
H768 C774 0.950 . S
H769 C775 0.950 . S
H770 C776 0.949 . S
C771 H766 0.950 . S
C771 C773 1.327 . S
C771 C777 1.429 . S
C772 C764 1.574 . S
C772 H767 0.949 . S
C772 C778 1.368 . S
C773 C757 1.349 . S
C773 H765 0.950 . S
C773 C771 1.327 . S
C774 C762 1.349 . S
C774 H768 0.950 . S
C774 C775 1.327 . S
C775 H769 0.950 . S
C775 C774 1.327 . S
C775 C779 1.429 . S
C776 C759 1.574 . S
C776 H770 0.949 . S
C776 C780 1.368 . S
C777 C758 1.429 . S
C777 C771 1.429 . S
C777 C778 1.523 . S
C778 C759 1.368 . S
C778 C772 1.368 . S
C778 C777 1.523 . S
C779 C763 1.429 . S
C779 C775 1.429 . S
C779 C780 1.523 . S
C780 C764 1.368 . S
C780 C776 1.368 . S
C780 C779 1.523 . S
H781 C756 0.950 . S
H782 C758 0.950 . S
H783 C759 0.949 . S
H784 C761 0.950 . S
H785 C763 0.950 . S
C786 C787 1.349 . S
C786 C788 1.327 . S
C786 H811 0.950 . S
C787 C786 1.349 . S
C787 C803 1.349 . S
C788 C786 1.327 . S
C788 C807 1.429 . S
C788 H812 0.950 . S
C789 C806 1.574 . S
C789 C808 1.368 . S
C789 H813 0.949 . S
H790 C794 0.949 . S
C791 C792 1.349 . S
C791 C793 1.327 . S
C791 H814 0.950 . S
C792 C791 1.349 . S
C792 C804 1.349 . S
C793 C791 1.327 . S
C793 C809 1.429 . S
C793 H815 0.950 . S
C794 H790 0.949 . S
C794 C802 1.574 . S
C794 C810 1.368 . S
H795 C803 0.950 . S
H796 C801 0.950 . S
H797 C802 0.949 . S
H798 C804 0.950 . S
H799 C805 0.950 . S
H800 C806 0.949 . S
C801 H796 0.950 . S
C801 C803 1.327 . S
C801 C807 1.429 . S
C802 C794 1.574 . S
C802 H797 0.949 . S
C802 C808 1.368 . S
C803 C787 1.349 . S
C803 H795 0.950 . S
C803 C801 1.327 . S
C804 C792 1.349 . S
C804 H798 0.950 . S
C804 C805 1.327 . S
C805 H799 0.950 . S
C805 C804 1.327 . S
C805 C809 1.429 . S
C806 C789 1.574 . S
C806 H800 0.949 . S
C806 C810 1.368 . S
C807 C788 1.429 . S
C807 C801 1.429 . S
C807 C808 1.523 . S
C808 C789 1.368 . S
C808 C802 1.368 . S
C808 C807 1.523 . S
C809 C793 1.429 . S
C809 C805 1.429 . S
C809 C810 1.523 . S
C810 C794 1.368 . S
C810 C806 1.368 . S
C810 C809 1.523 . S
H811 C786 0.950 . S
H812 C788 0.950 . S
H813 C789 0.949 . S
H814 C791 0.950 . S
H815 C793 0.950 . S
C816 C817 1.349 . S
C816 C818 1.327 . S
C816 H841 0.950 . S
C817 C816 1.349 . S
C817 C833 1.349 . S
C818 C816 1.327 . S
C818 C837 1.429 . S
C818 H842 0.950 . S
C819 C836 1.574 . S
C819 C838 1.368 . S
C819 H843 0.949 . S
H820 C824 0.949 . S
C821 C822 1.349 . S
C821 C823 1.327 . S
C821 H844 0.950 . S
C822 C821 1.349 . S
C822 C834 1.349 . S
C823 C821 1.327 . S
C823 C839 1.429 . S
C823 H845 0.950 . S
C824 H820 0.949 . S
C824 C832 1.574 . S
C824 C840 1.368 . S
H825 C833 0.950 . S
H826 C831 0.950 . S
H827 C832 0.949 . S
H828 C834 0.950 . S
H829 C835 0.950 . S
H830 C836 0.949 . S
C831 H826 0.950 . S
C831 C833 1.327 . S
C831 C837 1.429 . S
C832 C824 1.574 . S
C832 H827 0.949 . S
C832 C838 1.368 . S
C833 C817 1.349 . S
C833 H825 0.950 . S
C833 C831 1.327 . S
C834 C822 1.349 . S
C834 H828 0.950 . S
C834 C835 1.327 . S
C835 H829 0.950 . S
C835 C834 1.327 . S
C835 C839 1.429 . S
C836 C819 1.574 . S
C836 H830 0.949 . S
C836 C840 1.368 . S
C837 C818 1.429 . S
C837 C831 1.429 . S
C837 C838 1.523 . S
C838 C819 1.368 . S
C838 C832 1.368 . S
C838 C837 1.523 . S
C839 C823 1.429 . S
C839 C835 1.429 . S
C839 C840 1.523 . S
C840 C824 1.368 . S
C840 C836 1.368 . S
C840 C839 1.523 . S
H841 C816 0.950 . S
H842 C818 0.950 . S
H843 C819 0.949 . S
H844 C821 0.950 . S
H845 C823 0.950 . S
C846 C847 1.349 . S
C846 C848 1.327 . S
C846 H871 0.950 . S
C847 C846 1.349 . S
C847 C863 1.349 . S
C848 C846 1.327 . S
C848 C867 1.429 . S
C848 H872 0.950 . S
C849 C866 1.574 . S
C849 C868 1.368 . S
C849 H873 0.949 . S
H850 C854 0.949 . S
C851 C852 1.349 . S
C851 C853 1.327 . S
C851 H874 0.950 . S
C852 C851 1.349 . S
C852 C864 1.349 . S
C853 C851 1.327 . S
C853 C869 1.429 . S
C853 H875 0.950 . S
C854 H850 0.949 . S
C854 C862 1.574 . S
C854 C870 1.368 . S
H855 C863 0.950 . S
H856 C861 0.950 . S
H857 C862 0.949 . S
H858 C864 0.950 . S
H859 C865 0.950 . S
H860 C866 0.949 . S
C861 H856 0.950 . S
C861 C863 1.327 . S
C861 C867 1.429 . S
C862 C854 1.574 . S
C862 H857 0.949 . S
C862 C868 1.368 . S
C863 C847 1.349 . S
C863 H855 0.950 . S
C863 C861 1.327 . S
C864 C852 1.349 . S
C864 H858 0.950 . S
C864 C865 1.327 . S
C865 H859 0.950 . S
C865 C864 1.327 . S
C865 C869 1.429 . S
C866 C849 1.574 . S
C866 H860 0.949 . S
C866 C870 1.368 . S
C867 C848 1.429 . S
C867 C861 1.429 . S
C867 C868 1.523 . S
C868 C849 1.368 . S
C868 C862 1.368 . S
C868 C867 1.523 . S
C869 C853 1.429 . S
C869 C865 1.429 . S
C869 C870 1.523 . S
C870 C854 1.368 . S
C870 C866 1.368 . S
C870 C869 1.523 . S
H871 C846 0.950 . S
H872 C848 0.950 . S
H873 C849 0.949 . S
H874 C851 0.950 . S
H875 C853 0.950 . S
C876 C877 1.349 . S
C876 C878 1.327 . S
C876 H901 0.950 . S
C877 C876 1.349 . S
C877 C893 1.349 . S
C878 C876 1.327 . S
C878 C897 1.429 . S
C878 H902 0.950 . S
C879 C896 1.574 . S
C879 C898 1.368 . S
C879 H903 0.949 . S
H880 C884 0.949 . S
C881 C882 1.349 . S
C881 C883 1.327 . S
C881 H904 0.950 . S
C882 C881 1.349 . S
C882 C894 1.349 . S
C883 C881 1.327 . S
C883 C899 1.429 . S
C883 H905 0.950 . S
C884 H880 0.949 . S
C884 C892 1.574 . S
C884 C900 1.368 . S
H885 C893 0.950 . S
H886 C891 0.950 . S
H887 C892 0.949 . S
H888 C894 0.950 . S
H889 C895 0.950 . S
H890 C896 0.949 . S
C891 H886 0.950 . S
C891 C893 1.327 . S
C891 C897 1.429 . S
C892 C884 1.574 . S
C892 H887 0.949 . S
C892 C898 1.368 . S
C893 C877 1.349 . S
C893 H885 0.950 . S
C893 C891 1.327 . S
C894 C882 1.349 . S
C894 H888 0.950 . S
C894 C895 1.327 . S
C895 H889 0.950 . S
C895 C894 1.327 . S
C895 C899 1.429 . S
C896 C879 1.574 . S
C896 H890 0.949 . S
C896 C900 1.368 . S
C897 C878 1.429 . S
C897 C891 1.429 . S
C897 C898 1.523 . S
C898 C879 1.368 . S
C898 C892 1.368 . S
C898 C897 1.523 . S
C899 C883 1.429 . S
C899 C895 1.429 . S
C899 C900 1.523 . S
C900 C884 1.368 . S
C900 C896 1.368 . S
C900 C899 1.523 . S
H901 C876 0.950 . S
H902 C878 0.950 . S
H903 C879 0.949 . S
H904 C881 0.950 . S
H905 C883 0.950 . S
C906 C907 1.349 . S
C906 C908 1.327 . S
C906 H931 0.950 . S
C907 C906 1.349 . S
C907 C923 1.349 . S
C908 C906 1.327 . S
C908 C927 1.429 . S
C908 H932 0.950 . S
C909 C926 1.574 . S
C909 C928 1.368 . S
C909 H933 0.949 . S
H910 C914 0.949 . S
C911 C912 1.349 . S
C911 C913 1.327 . S
C911 H934 0.950 . S
C912 C911 1.349 . S
C912 C924 1.349 . S
C913 C911 1.327 . S
C913 C929 1.429 . S
C913 H935 0.950 . S
C914 H910 0.949 . S
C914 C922 1.574 . S
C914 C930 1.368 . S
H915 C923 0.950 . S
H916 C921 0.950 . S
H917 C922 0.949 . S
H918 C924 0.950 . S
H919 C925 0.950 . S
H920 C926 0.949 . S
C921 H916 0.950 . S
C921 C923 1.327 . S
C921 C927 1.429 . S
C922 C914 1.574 . S
C922 H917 0.949 . S
C922 C928 1.368 . S
C923 C907 1.349 . S
C923 H915 0.950 . S
C923 C921 1.327 . S
C924 C912 1.349 . S
C924 H918 0.950 . S
C924 C925 1.327 . S
C925 H919 0.950 . S
C925 C924 1.327 . S
C925 C929 1.429 . S
C926 C909 1.574 . S
C926 H920 0.949 . S
C926 C930 1.368 . S
C927 C908 1.429 . S
C927 C921 1.429 . S
C927 C928 1.523 . S
C928 C909 1.368 . S
C928 C922 1.368 . S
C928 C927 1.523 . S
C929 C913 1.429 . S
C929 C925 1.429 . S
C929 C930 1.523 . S
C930 C914 1.368 . S
C930 C926 1.368 . S
C930 C929 1.523 . S
H931 C906 0.950 . S
H932 C908 0.950 . S
H933 C909 0.949 . S
H934 C911 0.950 . S
H935 C913 0.950 . S
C936 C937 1.349 . S
C936 C938 1.327 . S
C936 H961 0.950 . S
C937 C936 1.349 . S
C937 C953 1.349 . S
C938 C936 1.327 . S
C938 C957 1.429 . S
C938 H962 0.950 . S
C939 C956 1.574 . S
C939 C958 1.368 . S
C939 H963 0.949 . S
H940 C944 0.949 . S
C941 C942 1.349 . S
C941 C943 1.327 . S
C941 H964 0.950 . S
C942 C941 1.349 . S
C942 C954 1.349 . S
C943 C941 1.327 . S
C943 C959 1.429 . S
C943 H965 0.950 . S
C944 H940 0.949 . S
C944 C952 1.574 . S
C944 C960 1.368 . S
H945 C953 0.950 . S
H946 C951 0.950 . S
H947 C952 0.949 . S
H948 C954 0.950 . S
H949 C955 0.950 . S
H950 C956 0.949 . S
C951 H946 0.950 . S
C951 C953 1.327 . S
C951 C957 1.429 . S
C952 C944 1.574 . S
C952 H947 0.949 . S
C952 C958 1.368 . S
C953 C937 1.349 . S
C953 H945 0.950 . S
C953 C951 1.327 . S
C954 C942 1.349 . S
C954 H948 0.950 . S
C954 C955 1.327 . S
C955 H949 0.950 . S
C955 C954 1.327 . S
C955 C959 1.429 . S
C956 C939 1.574 . S
C956 H950 0.949 . S
C956 C960 1.368 . S
C957 C938 1.429 . S
C957 C951 1.429 . S
C957 C958 1.523 . S
C958 C939 1.368 . S
C958 C952 1.368 . S
C958 C957 1.523 . S
C959 C943 1.429 . S
C959 C955 1.429 . S
C959 C960 1.523 . S
C960 C944 1.368 . S
C960 C956 1.368 . S
C960 C959 1.523 . S
H961 C936 0.950 . S
H962 C938 0.950 . S
H963 C939 0.949 . S
H964 C941 0.950 . S
H965 C943 0.950 . S
C966 C967 1.349 . S
C966 C968 1.327 . S
C966 H991 0.950 . S
C967 C966 1.349 . S
C967 C983 1.349 . S
C968 C966 1.327 . S
C968 C987 1.429 . S
C968 H992 0.950 . S
C969 C986 1.574 . S
C969 C988 1.368 . S
C969 H993 0.949 . S
H970 C974 0.949 . S
C971 C972 1.349 . S
C971 C973 1.327 . S
C971 H994 0.950 . S
C972 C971 1.349 . S
C972 C984 1.349 . S
C973 C971 1.327 . S
C973 C989 1.429 . S
C973 H995 0.950 . S
C974 H970 0.949 . S
C974 C982 1.574 . S
C974 C990 1.368 . S
H975 C983 0.950 . S
H976 C981 0.950 . S
H977 C982 0.949 . S
H978 C984 0.950 . S
H979 C985 0.950 . S
H980 C986 0.949 . S
C981 H976 0.950 . S
C981 C983 1.327 . S
C981 C987 1.429 . S
C982 C974 1.574 . S
C982 H977 0.949 . S
C982 C988 1.368 . S
C983 C967 1.349 . S
C983 H975 0.950 . S
C983 C981 1.327 . S
C984 C972 1.349 . S
C984 H978 0.950 . S
C984 C985 1.327 . S
C985 H979 0.950 . S
C985 C984 1.327 . S
C985 C989 1.429 . S
C986 C969 1.574 . S
C986 H980 0.949 . S
C986 C990 1.368 . S
C987 C968 1.429 . S
C987 C981 1.429 . S
C987 C988 1.523 . S
C988 C969 1.368 . S
C988 C982 1.368 . S
C988 C987 1.523 . S
C989 C973 1.429 . S
C989 C985 1.429 . S
C989 C990 1.523 . S
C990 C974 1.368 . S
C990 C986 1.368 . S
C990 C989 1.523 . S
H991 C966 0.950 . S
H992 C968 0.950 . S
H993 C969 0.949 . S
H994 C971 0.950 . S
H995 C973 0.950 . S
C996 C997 1.349 . S
C996 C998 1.327 . S
C996 H1021 0.950 . S
C997 C996 1.349 . S
C997 C1013 1.349 . S
C998 C996 1.327 . S
C998 C1017 1.429 . S
C998 H1022 0.950 . S
C999 C1016 1.574 . S
C999 C1018 1.368 . S
C999 H1023 0.949 . S
H1000 C1004 0.949 . S
C1001 C1002 1.349 . S
C1001 C1003 1.327 . S
C1001 H1024 0.950 . S
C1002 C1001 1.349 . S
C1002 C1014 1.349 . S
C1003 C1001 1.327 . S
C1003 C1019 1.429 . S
C1003 H1025 0.950 . S
C1004 H1000 0.949 . S
C1004 C1012 1.574 . S
C1004 C1020 1.368 . S
H1005 C1013 0.950 . S
H1006 C1011 0.950 . S
H1007 C1012 0.949 . S
H1008 C1014 0.950 . S
H1009 C1015 0.950 . S
H1010 C1016 0.949 . S
C1011 H1006 0.950 . S
C1011 C1013 1.327 . S
C1011 C1017 1.429 . S
C1012 C1004 1.574 . S
C1012 H1007 0.949 . S
C1012 C1018 1.368 . S
C1013 C997 1.349 . S
C1013 H1005 0.950 . S
C1013 C1011 1.327 . S
C1014 C1002 1.349 . S
C1014 H1008 0.950 . S
C1014 C1015 1.327 . S
C1015 H1009 0.950 . S
C1015 C1014 1.327 . S
C1015 C1019 1.429 . S
C1016 C999 1.574 . S
C1016 H1010 0.949 . S
C1016 C1020 1.368 . S
C1017 C998 1.429 . S
C1017 C1011 1.429 . S
C1017 C1018 1.523 . S
C1018 C999 1.368 . S
C1018 C1012 1.368 . S
C1018 C1017 1.523 . S
C1019 C1003 1.429 . S
C1019 C1015 1.429 . S
C1019 C1020 1.523 . S
C1020 C1004 1.368 . S
C1020 C1016 1.368 . S
C1020 C1019 1.523 . S
H1021 C996 0.950 . S
H1022 C998 0.950 . S
H1023 C999 0.949 . S
H1024 C1001 0.950 . S
H1025 C1003 0.950 . S
C1026 C1027 1.349 . S
C1026 C1028 1.327 . S
C1026 H1051 0.950 . S
C1027 C1026 1.349 . S
C1027 C1043 1.349 . S
C1028 C1026 1.327 . S
C1028 C1047 1.429 . S
C1028 H1052 0.950 . S
C1029 C1046 1.574 . S
C1029 C1048 1.368 . S
C1029 H1053 0.949 . S
H1030 C1034 0.949 . S
C1031 C1032 1.349 . S
C1031 C1033 1.327 . S
C1031 H1054 0.950 . S
C1032 C1031 1.349 . S
C1032 C1044 1.349 . S
C1033 C1031 1.327 . S
C1033 C1049 1.429 . S
C1033 H1055 0.950 . S
C1034 H1030 0.949 . S
C1034 C1042 1.574 . S
C1034 C1050 1.368 . S
H1035 C1043 0.950 . S
H1036 C1041 0.950 . S
H1037 C1042 0.949 . S
H1038 C1044 0.950 . S
H1039 C1045 0.950 . S
H1040 C1046 0.949 . S
C1041 H1036 0.950 . S
C1041 C1043 1.327 . S
C1041 C1047 1.429 . S
C1042 C1034 1.574 . S
C1042 H1037 0.949 . S
C1042 C1048 1.368 . S
C1043 C1027 1.349 . S
C1043 H1035 0.950 . S
C1043 C1041 1.327 . S
C1044 C1032 1.349 . S
C1044 H1038 0.950 . S
C1044 C1045 1.327 . S
C1045 H1039 0.950 . S
C1045 C1044 1.327 . S
C1045 C1049 1.429 . S
C1046 C1029 1.574 . S
C1046 H1040 0.949 . S
C1046 C1050 1.368 . S
C1047 C1028 1.429 . S
C1047 C1041 1.429 . S
C1047 C1048 1.523 . S
C1048 C1029 1.368 . S
C1048 C1042 1.368 . S
C1048 C1047 1.523 . S
C1049 C1033 1.429 . S
C1049 C1045 1.429 . S
C1049 C1050 1.523 . S
C1050 C1034 1.368 . S
C1050 C1046 1.368 . S
C1050 C1049 1.523 . S
H1051 C1026 0.950 . S
H1052 C1028 0.950 . S
H1053 C1029 0.949 . S
H1054 C1031 0.950 . S
H1055 C1033 0.950 . S
C1056 C1057 1.349 . S
C1056 C1058 1.327 . S
C1056 H1081 0.950 . S
C1057 C1056 1.349 . S
C1057 C1073 1.349 . S
C1058 C1056 1.327 . S
C1058 C1077 1.429 . S
C1058 H1082 0.950 . S
C1059 C1076 1.574 . S
C1059 C1078 1.368 . S
C1059 H1083 0.949 . S
H1060 C1064 0.949 . S
C1061 C1062 1.349 . S
C1061 C1063 1.327 . S
C1061 H1084 0.950 . S
C1062 C1061 1.349 . S
C1062 C1074 1.349 . S
C1063 C1061 1.327 . S
C1063 C1079 1.429 . S
C1063 H1085 0.950 . S
C1064 H1060 0.949 . S
C1064 C1072 1.574 . S
C1064 C1080 1.368 . S
H1065 C1073 0.950 . S
H1066 C1071 0.950 . S
H1067 C1072 0.949 . S
H1068 C1074 0.950 . S
H1069 C1075 0.950 . S
H1070 C1076 0.949 . S
C1071 H1066 0.950 . S
C1071 C1073 1.327 . S
C1071 C1077 1.429 . S
C1072 C1064 1.574 . S
C1072 H1067 0.949 . S
C1072 C1078 1.368 . S
C1073 C1057 1.349 . S
C1073 H1065 0.950 . S
C1073 C1071 1.327 . S
C1074 C1062 1.349 . S
C1074 H1068 0.950 . S
C1074 C1075 1.327 . S
C1075 H1069 0.950 . S
C1075 C1074 1.327 . S
C1075 C1079 1.429 . S
C1076 C1059 1.574 . S
C1076 H1070 0.949 . S
C1076 C1080 1.368 . S
C1077 C1058 1.429 . S
C1077 C1071 1.429 . S
C1077 C1078 1.523 . S
C1078 C1059 1.368 . S
C1078 C1072 1.368 . S
C1078 C1077 1.523 . S
C1079 C1063 1.429 . S
C1079 C1075 1.429 . S
C1079 C1080 1.523 . S
C1080 C1064 1.368 . S
C1080 C1076 1.368 . S
C1080 C1079 1.523 . S
H1081 C1056 0.950 . S
H1082 C1058 0.950 . S
H1083 C1059 0.949 . S
H1084 C1061 0.950 . S
H1085 C1063 0.950 . S
C1086 C1087 1.349 . S
C1086 C1088 1.327 . S
C1086 H1111 0.950 . S
C1087 C1086 1.349 . S
C1087 C1103 1.349 . S
C1088 C1086 1.327 . S
C1088 C1107 1.429 . S
C1088 H1112 0.950 . S
C1089 C1106 1.574 . S
C1089 C1108 1.368 . S
C1089 H1113 0.949 . S
H1090 C1094 0.949 . S
C1091 C1092 1.349 . S
C1091 C1093 1.327 . S
C1091 H1114 0.950 . S
C1092 C1091 1.349 . S
C1092 C1104 1.349 . S
C1093 C1091 1.327 . S
C1093 C1109 1.429 . S
C1093 H1115 0.950 . S
C1094 H1090 0.949 . S
C1094 C1102 1.574 . S
C1094 C1110 1.368 . S
H1095 C1103 0.950 . S
H1096 C1101 0.950 . S
H1097 C1102 0.949 . S
H1098 C1104 0.950 . S
H1099 C1105 0.950 . S
H1100 C1106 0.949 . S
C1101 H1096 0.950 . S
C1101 C1103 1.327 . S
C1101 C1107 1.429 . S
C1102 C1094 1.574 . S
C1102 H1097 0.949 . S
C1102 C1108 1.368 . S
C1103 C1087 1.349 . S
C1103 H1095 0.950 . S
C1103 C1101 1.327 . S
C1104 C1092 1.349 . S
C1104 H1098 0.950 . S
C1104 C1105 1.327 . S
C1105 H1099 0.950 . S
C1105 C1104 1.327 . S
C1105 C1109 1.429 . S
C1106 C1089 1.574 . S
C1106 H1100 0.949 . S
C1106 C1110 1.368 . S
C1107 C1088 1.429 . S
C1107 C1101 1.429 . S
C1107 C1108 1.523 . S
C1108 C1089 1.368 . S
C1108 C1102 1.368 . S
C1108 C1107 1.523 . S
C1109 C1093 1.429 . S
C1109 C1105 1.429 . S
C1109 C1110 1.523 . S
C1110 C1094 1.368 . S
C1110 C1106 1.368 . S
C1110 C1109 1.523 . S
H1111 C1086 0.950 . S
H1112 C1088 0.950 . S
H1113 C1089 0.949 . S
H1114 C1091 0.950 . S
H1115 C1093 0.950 . S
C1116 C1117 1.349 . S
C1116 C1118 1.327 . S
C1116 H1141 0.950 . S
C1117 C1116 1.349 . S
C1117 C1133 1.349 . S
C1118 C1116 1.327 . S
C1118 C1137 1.429 . S
C1118 H1142 0.950 . S
C1119 C1136 1.574 . S
C1119 C1138 1.368 . S
C1119 H1143 0.949 . S
H1120 C1124 0.949 . S
C1121 C1122 1.349 . S
C1121 C1123 1.327 . S
C1121 H1144 0.950 . S
C1122 C1121 1.349 . S
C1122 C1134 1.349 . S
C1123 C1121 1.327 . S
C1123 C1139 1.429 . S
C1123 H1145 0.950 . S
C1124 H1120 0.949 . S
C1124 C1132 1.574 . S
C1124 C1140 1.368 . S
H1125 C1133 0.950 . S
H1126 C1131 0.950 . S
H1127 C1132 0.949 . S
H1128 C1134 0.950 . S
H1129 C1135 0.950 . S
H1130 C1136 0.949 . S
C1131 H1126 0.950 . S
C1131 C1133 1.327 . S
C1131 C1137 1.429 . S
C1132 C1124 1.574 . S
C1132 H1127 0.949 . S
C1132 C1138 1.368 . S
C1133 C1117 1.349 . S
C1133 H1125 0.950 . S
C1133 C1131 1.327 . S
C1134 C1122 1.349 . S
C1134 H1128 0.950 . S
C1134 C1135 1.327 . S
C1135 H1129 0.950 . S
C1135 C1134 1.327 . S
C1135 C1139 1.429 . S
C1136 C1119 1.574 . S
C1136 H1130 0.949 . S
C1136 C1140 1.368 . S
C1137 C1118 1.429 . S
C1137 C1131 1.429 . S
C1137 C1138 1.523 . S
C1138 C1119 1.368 . S
C1138 C1132 1.368 . S
C1138 C1137 1.523 . S
C1139 C1123 1.429 . S
C1139 C1135 1.429 . S
C1139 C1140 1.523 . S
C1140 C1124 1.368 . S
C1140 C1136 1.368 . S
C1140 C1139 1.523 . S
H1141 C1116 0.950 . S
H1142 C1118 0.950 . S
H1143 C1119 0.949 . S
H1144 C1121 0.950 . S
H1145 C1123 0.950 . S
C1146 C1147 1.349 . S
C1146 C1148 1.327 . S
C1146 H1171 0.950 . S
C1147 C1146 1.349 . S
C1147 C1163 1.349 . S
C1148 C1146 1.327 . S
C1148 C1167 1.429 . S
C1148 H1172 0.950 . S
C1149 C1166 1.574 . S
C1149 C1168 1.368 . S
C1149 H1173 0.949 . S
H1150 C1154 0.949 . S
C1151 C1152 1.349 . S
C1151 C1153 1.327 . S
C1151 H1174 0.950 . S
C1152 C1151 1.349 . S
C1152 C1164 1.349 . S
C1153 C1151 1.327 . S
C1153 C1169 1.429 . S
C1153 H1175 0.950 . S
C1154 H1150 0.949 . S
C1154 C1162 1.574 . S
C1154 C1170 1.368 . S
H1155 C1163 0.950 . S
H1156 C1161 0.950 . S
H1157 C1162 0.949 . S
H1158 C1164 0.950 . S
H1159 C1165 0.950 . S
H1160 C1166 0.949 . S
C1161 H1156 0.950 . S
C1161 C1163 1.327 . S
C1161 C1167 1.429 . S
C1162 C1154 1.574 . S
C1162 H1157 0.949 . S
C1162 C1168 1.368 . S
C1163 C1147 1.349 . S
C1163 H1155 0.950 . S
C1163 C1161 1.327 . S
C1164 C1152 1.349 . S
C1164 H1158 0.950 . S
C1164 C1165 1.327 . S
C1165 H1159 0.950 . S
C1165 C1164 1.327 . S
C1165 C1169 1.429 . S
C1166 C1149 1.574 . S
C1166 H1160 0.949 . S
C1166 C1170 1.368 . S
C1167 C1148 1.429 . S
C1167 C1161 1.429 . S
C1167 C1168 1.523 . S
C1168 C1149 1.368 . S
C1168 C1162 1.368 . S
C1168 C1167 1.523 . S
C1169 C1153 1.429 . S
C1169 C1165 1.429 . S
C1169 C1170 1.523 . S
C1170 C1154 1.368 . S
C1170 C1166 1.368 . S
C1170 C1169 1.523 . S
H1171 C1146 0.950 . S
H1172 C1148 0.950 . S
H1173 C1149 0.949 . S
H1174 C1151 0.950 . S
H1175 C1153 0.950 . S
C1176 C1177 1.349 . S
C1176 C1178 1.327 . S
C1176 H1201 0.950 . S
C1177 C1176 1.349 . S
C1177 C1193 1.349 . S
C1178 C1176 1.327 . S
C1178 C1197 1.429 . S
C1178 H1202 0.950 . S
C1179 C1196 1.574 . S
C1179 C1198 1.368 . S
C1179 H1203 0.949 . S
H1180 C1184 0.949 . S
C1181 C1182 1.349 . S
C1181 C1183 1.327 . S
C1181 H1204 0.950 . S
C1182 C1181 1.349 . S
C1182 C1194 1.349 . S
C1183 C1181 1.327 . S
C1183 C1199 1.429 . S
C1183 H1205 0.950 . S
C1184 H1180 0.949 . S
C1184 C1192 1.574 . S
C1184 C1200 1.368 . S
H1185 C1193 0.950 . S
H1186 C1191 0.950 . S
H1187 C1192 0.949 . S
H1188 C1194 0.950 . S
H1189 C1195 0.950 . S
H1190 C1196 0.949 . S
C1191 H1186 0.950 . S
C1191 C1193 1.327 . S
C1191 C1197 1.429 . S
C1192 C1184 1.574 . S
C1192 H1187 0.949 . S
C1192 C1198 1.368 . S
C1193 C1177 1.349 . S
C1193 H1185 0.950 . S
C1193 C1191 1.327 . S
C1194 C1182 1.349 . S
C1194 H1188 0.950 . S
C1194 C1195 1.327 . S
C1195 H1189 0.950 . S
C1195 C1194 1.327 . S
C1195 C1199 1.429 . S
C1196 C1179 1.574 . S
C1196 H1190 0.949 . S
C1196 C1200 1.368 . S
C1197 C1178 1.429 . S
C1197 C1191 1.429 . S
C1197 C1198 1.523 . S
C1198 C1179 1.368 . S
C1198 C1192 1.368 . S
C1198 C1197 1.523 . S
C1199 C1183 1.429 . S
C1199 C1195 1.429 . S
C1199 C1200 1.523 . S
C1200 C1184 1.368 . S
C1200 C1196 1.368 . S
C1200 C1199 1.523 . S
H1201 C1176 0.950 . S
H1202 C1178 0.950 . S
H1203 C1179 0.949 . S
H1204 C1181 0.950 . S
H1205 C1183 0.950 . S
C1206 C1207 1.349 . S
C1206 C1208 1.327 . S
C1206 H1231 0.950 . S
C1207 C1206 1.349 . S
C1207 C1223 1.349 . S
C1208 C1206 1.327 . S
C1208 C1227 1.429 . S
C1208 H1232 0.950 . S
C1209 C1226 1.574 . S
C1209 C1228 1.368 . S
C1209 H1233 0.949 . S
H1210 C1214 0.949 . S
C1211 C1212 1.349 . S
C1211 C1213 1.327 . S
C1211 H1234 0.950 . S
C1212 C1211 1.349 . S
C1212 C1224 1.349 . S
C1213 C1211 1.327 . S
C1213 C1229 1.429 . S
C1213 H1235 0.950 . S
C1214 H1210 0.949 . S
C1214 C1222 1.574 . S
C1214 C1230 1.368 . S
H1215 C1223 0.950 . S
H1216 C1221 0.950 . S
H1217 C1222 0.949 . S
H1218 C1224 0.950 . S
H1219 C1225 0.950 . S
H1220 C1226 0.949 . S
C1221 H1216 0.950 . S
C1221 C1223 1.327 . S
C1221 C1227 1.429 . S
C1222 C1214 1.574 . S
C1222 H1217 0.949 . S
C1222 C1228 1.368 . S
C1223 C1207 1.349 . S
C1223 H1215 0.950 . S
C1223 C1221 1.327 . S
C1224 C1212 1.349 . S
C1224 H1218 0.950 . S
C1224 C1225 1.327 . S
C1225 H1219 0.950 . S
C1225 C1224 1.327 . S
C1225 C1229 1.429 . S
C1226 C1209 1.574 . S
C1226 H1220 0.949 . S
C1226 C1230 1.368 . S
C1227 C1208 1.429 . S
C1227 C1221 1.429 . S
C1227 C1228 1.523 . S
C1228 C1209 1.368 . S
C1228 C1222 1.368 . S
C1228 C1227 1.523 . S
C1229 C1213 1.429 . S
C1229 C1225 1.429 . S
C1229 C1230 1.523 . S
C1230 C1214 1.368 . S
C1230 C1226 1.368 . S
C1230 C1229 1.523 . S
H1231 C1206 0.950 . S
H1232 C1208 0.950 . S
H1233 C1209 0.949 . S
H1234 C1211 0.950 . S
H1235 C1213 0.950 . S
C1236 C1237 1.349 . S
C1236 C1238 1.327 . S
C1236 H1261 0.950 . S
C1237 C1236 1.349 . S
C1237 C1253 1.349 . S
C1238 C1236 1.327 . S
C1238 C1257 1.429 . S
C1238 H1262 0.950 . S
C1239 C1256 1.574 . S
C1239 C1258 1.368 . S
C1239 H1263 0.949 . S
H1240 C1244 0.949 . S
C1241 C1242 1.349 . S
C1241 C1243 1.327 . S
C1241 H1264 0.950 . S
C1242 C1241 1.349 . S
C1242 C1254 1.349 . S
C1243 C1241 1.327 . S
C1243 C1259 1.429 . S
C1243 H1265 0.950 . S
C1244 H1240 0.949 . S
C1244 C1252 1.574 . S
C1244 C1260 1.368 . S
H1245 C1253 0.950 . S
H1246 C1251 0.950 . S
H1247 C1252 0.949 . S
H1248 C1254 0.950 . S
H1249 C1255 0.950 . S
H1250 C1256 0.949 . S
C1251 H1246 0.950 . S
C1251 C1253 1.327 . S
C1251 C1257 1.429 . S
C1252 C1244 1.574 . S
C1252 H1247 0.949 . S
C1252 C1258 1.368 . S
C1253 C1237 1.349 . S
C1253 H1245 0.950 . S
C1253 C1251 1.327 . S
C1254 C1242 1.349 . S
C1254 H1248 0.950 . S
C1254 C1255 1.327 . S
C1255 H1249 0.950 . S
C1255 C1254 1.327 . S
C1255 C1259 1.429 . S
C1256 C1239 1.574 . S
C1256 H1250 0.949 . S
C1256 C1260 1.368 . S
C1257 C1238 1.429 . S
C1257 C1251 1.429 . S
C1257 C1258 1.523 . S
C1258 C1239 1.368 . S
C1258 C1252 1.368 . S
C1258 C1257 1.523 . S
C1259 C1243 1.429 . S
C1259 C1255 1.429 . S
C1259 C1260 1.523 . S
C1260 C1244 1.368 . S
C1260 C1256 1.368 . S
C1260 C1259 1.523 . S
H1261 C1236 0.950 . S
H1262 C1238 0.950 . S
H1263 C1239 0.949 . S
H1264 C1241 0.950 . S
H1265 C1243 0.950 . S
C1266 C1267 1.349 . S
C1266 C1268 1.327 . S
C1266 H1291 0.950 . S
C1267 C1266 1.349 . S
C1267 C1283 1.349 . S
C1268 C1266 1.327 . S
C1268 C1287 1.429 . S
C1268 H1292 0.950 . S
C1269 C1286 1.574 . S
C1269 C1288 1.368 . S
C1269 H1293 0.949 . S
H1270 C1274 0.949 . S
C1271 C1272 1.349 . S
C1271 C1273 1.327 . S
C1271 H1294 0.950 . S
C1272 C1271 1.349 . S
C1272 C1284 1.349 . S
C1273 C1271 1.327 . S
C1273 C1289 1.429 . S
C1273 H1295 0.950 . S
C1274 H1270 0.949 . S
C1274 C1282 1.574 . S
C1274 C1290 1.368 . S
H1275 C1283 0.950 . S
H1276 C1281 0.950 . S
H1277 C1282 0.949 . S
H1278 C1284 0.950 . S
H1279 C1285 0.950 . S
H1280 C1286 0.949 . S
C1281 H1276 0.950 . S
C1281 C1283 1.327 . S
C1281 C1287 1.429 . S
C1282 C1274 1.574 . S
C1282 H1277 0.949 . S
C1282 C1288 1.368 . S
C1283 C1267 1.349 . S
C1283 H1275 0.950 . S
C1283 C1281 1.327 . S
C1284 C1272 1.349 . S
C1284 H1278 0.950 . S
C1284 C1285 1.327 . S
C1285 H1279 0.950 . S
C1285 C1284 1.327 . S
C1285 C1289 1.429 . S
C1286 C1269 1.574 . S
C1286 H1280 0.949 . S
C1286 C1290 1.368 . S
C1287 C1268 1.429 . S
C1287 C1281 1.429 . S
C1287 C1288 1.523 . S
C1288 C1269 1.368 . S
C1288 C1282 1.368 . S
C1288 C1287 1.523 . S
C1289 C1273 1.429 . S
C1289 C1285 1.429 . S
C1289 C1290 1.523 . S
C1290 C1274 1.368 . S
C1290 C1286 1.368 . S
C1290 C1289 1.523 . S
H1291 C1266 0.950 . S
H1292 C1268 0.950 . S
H1293 C1269 0.949 . S
H1294 C1271 0.950 . S
H1295 C1273 0.950 . S
C1296 C1297 1.349 . S
C1296 C1298 1.327 . S
C1296 H1321 0.950 . S
C1297 C1296 1.349 . S
C1297 C1313 1.349 . S
C1298 C1296 1.327 . S
C1298 C1317 1.429 . S
C1298 H1322 0.950 . S
C1299 C1316 1.574 . S
C1299 C1318 1.368 . S
C1299 H1323 0.949 . S
H1300 C1304 0.949 . S
C1301 C1302 1.349 . S
C1301 C1303 1.327 . S
C1301 H1324 0.950 . S
C1302 C1301 1.349 . S
C1302 C1314 1.349 . S
C1303 C1301 1.327 . S
C1303 C1319 1.429 . S
C1303 H1325 0.950 . S
C1304 H1300 0.949 . S
C1304 C1312 1.574 . S
C1304 C1320 1.368 . S
H1305 C1313 0.950 . S
H1306 C1311 0.950 . S
H1307 C1312 0.949 . S
H1308 C1314 0.950 . S
H1309 C1315 0.950 . S
H1310 C1316 0.949 . S
C1311 H1306 0.950 . S
C1311 C1313 1.327 . S
C1311 C1317 1.429 . S
C1312 C1304 1.574 . S
C1312 H1307 0.949 . S
C1312 C1318 1.368 . S
C1313 C1297 1.349 . S
C1313 H1305 0.950 . S
C1313 C1311 1.327 . S
C1314 C1302 1.349 . S
C1314 H1308 0.950 . S
C1314 C1315 1.327 . S
C1315 H1309 0.950 . S
C1315 C1314 1.327 . S
C1315 C1319 1.429 . S
C1316 C1299 1.574 . S
C1316 H1310 0.949 . S
C1316 C1320 1.368 . S
C1317 C1298 1.429 . S
C1317 C1311 1.429 . S
C1317 C1318 1.523 . S
C1318 C1299 1.368 . S
C1318 C1312 1.368 . S
C1318 C1317 1.523 . S
C1319 C1303 1.429 . S
C1319 C1315 1.429 . S
C1319 C1320 1.523 . S
C1320 C1304 1.368 . S
C1320 C1316 1.368 . S
C1320 C1319 1.523 . S
H1321 C1296 0.950 . S
H1322 C1298 0.950 . S
H1323 C1299 0.949 . S
H1324 C1301 0.950 . S
H1325 C1303 0.950 . S
C612 C310 1.560 . S
C607 C25 1.560 . S
C642 C379 1.549 . S
C637 C37 1.553 . S
C672 C317 1.569 . S
C667 C103 1.568 . S
C702 C380 1.556 . S
C697 C139 1.557 . S
C732 C433 1.546 . S
C727 C31 1.549 . S
C762 C469 1.526 . S
C757 C67 1.526 . S
C787 C97 1.561 . S
C792 C529 1.568 . S
C822 C592 1.517 . S
C817 C133 1.516 . S
C852 C432 1.538 . S
C847 C61 1.544 . S
C877 C73 1.524 . S
C882 C476 1.531 . S
C912 C522 1.558 . S
C907 C109 1.563 . S
C942 C591 1.521 . S
C937 C1 1.523 . S
C967 C169 1.553 . S
C972 C370 1.558 . S
C1002 C327 1.556 . S
C997 C211 1.554 . S
C1027 C241 1.551 . S
C1032 C363 1.546 . S
C1057 C253 1.550 . S
C1062 C326 1.552 . S
C1092 C538 1.566 . S
C1087 C175 1.559 . S
C1122 C582 1.524 . S
C1117 C205 1.515 . S
C1152 C416 1.544 . S
C1147 C217 1.549 . S
C1177 C283 1.523 . S
C1182 C485 1.531 . S
C1212 C539 1.561 . S
C1207 C181 1.559 . S
C1242 C575 1.525 . S
C1237 C247 1.526 . S
C1272 C423 1.550 . S
C1267 C277 1.542 . S
C1297 C145 1.527 . S
C1302 C486 1.533 . S
