# Generated by pormake.
# Topology zzz, (3,6)-cn, num edge types: 1
# Building blocks:
#     Node 0, Type 0, BuildingBlock: BETDIP_clean_linker_0, # of connection points: 3
#     Node 1, Type 0, BuildingBlock: BETDIP_clean_linker_0, # of connection points: 3
#     Node 2, Type 0, BuildingBlock: BETDIP_clean_linker_0, # of connection points: 3
#     Node 3, Type 0, BuildingBlock: BETDIP_clean_linker_0, # of connection points: 3
#     Node 4, Type 0, BuildingBlock: BETDIP_clean_linker_0, # of connection points: 3
#     Node 5, Type 0, BuildingBlock: BETDIP_clean_linker_0, # of connection points: 3
#     Node 6, Type 0, BuildingBlock: BETDIP_clean_linker_0, # of connection points: 3
#     Node 7, Type 0, BuildingBlock: BETDIP_clean_linker_0, # of connection points: 3
#     Node 8, Type 1, BuildingBlock: PAMTOO_clean_sbu_0, # of connection points: 6
#     Node 9, Type 1, BuildingBlock: PAMTOO_clean_sbu_0, # of connection points: 6
#     Node 10, Type 1, BuildingBlock: PAMTOO_clean_sbu_0, # of connection points: 6
#     Node 11, Type 1, BuildingBlock: PAMTOO_clean_sbu_0, # of connection points: 6
#     Edge 12, Type (0, 1), BuildingBlock: UVAHIK_clean_linker_0, # of connection points: 2
#     Edge 13, Type (0, 1), BuildingBlock: UVAHIK_clean_linker_0, # of connection points: 2
#     Edge 14, Type (0, 1), BuildingBlock: UVAHIK_clean_linker_0, # of connection points: 2
#     Edge 15, Type (0, 1), BuildingBlock: UVAHIK_clean_linker_0, # of connection points: 2
#     Edge 16, Type (0, 1), BuildingBlock: UVAHIK_clean_linker_0, # of connection points: 2
#     Edge 17, Type (0, 1), BuildingBlock: UVAHIK_clean_linker_0, # of connection points: 2
#     Edge 18, Type (0, 1), BuildingBlock: UVAHIK_clean_linker_0, # of connection points: 2
#     Edge 19, Type (0, 1), BuildingBlock: UVAHIK_clean_linker_0, # of connection points: 2
#     Edge 20, Type (0, 1), BuildingBlock: UVAHIK_clean_linker_0, # of connection points: 2
#     Edge 21, Type (0, 1), BuildingBlock: UVAHIK_clean_linker_0, # of connection points: 2
#     Edge 22, Type (0, 1), BuildingBlock: UVAHIK_clean_linker_0, # of connection points: 2
#     Edge 23, Type (0, 1), BuildingBlock: UVAHIK_clean_linker_0, # of connection points: 2
#     Edge 24, Type (0, 1), BuildingBlock: UVAHIK_clean_linker_0, # of connection points: 2
#     Edge 25, Type (0, 1), BuildingBlock: UVAHIK_clean_linker_0, # of connection points: 2
#     Edge 26, Type (0, 1), BuildingBlock: UVAHIK_clean_linker_0, # of connection points: 2
#     Edge 27, Type (0, 1), BuildingBlock: UVAHIK_clean_linker_0, # of connection points: 2
#     Edge 28, Type (0, 1), BuildingBlock: UVAHIK_clean_linker_0, # of connection points: 2
#     Edge 29, Type (0, 1), BuildingBlock: UVAHIK_clean_linker_0, # of connection points: 2
#     Edge 30, Type (0, 1), BuildingBlock: UVAHIK_clean_linker_0, # of connection points: 2
#     Edge 31, Type (0, 1), BuildingBlock: UVAHIK_clean_linker_0, # of connection points: 2
#     Edge 32, Type (0, 1), BuildingBlock: UVAHIK_clean_linker_0, # of connection points: 2
#     Edge 33, Type (0, 1), BuildingBlock: UVAHIK_clean_linker_0, # of connection points: 2
#     Edge 34, Type (0, 1), BuildingBlock: UVAHIK_clean_linker_0, # of connection points: 2
#     Edge 35, Type (0, 1), BuildingBlock: UVAHIK_clean_linker_0, # of connection points: 2
# Relax obj value: 0.188
# Max RMSD: 0.232
# Mean RMSD: 0.119
data_MOF--net-zzz--node1-PAMTOO_clean_sbu_0--node2-BETDIP_clean_linker_0--edge1-UVAHIK_clean_linker_0
_symmetry_space_group_name_H-M    P1
_symmetry_Int_Tables_number       1
_symmetry_cell_setting            triclinic
loop_
_symmetry_equiv_pos_as_xyz
'x, y, z'
_cell_length_a     72.71762
_cell_length_b     64.306169
_cell_length_c     20.031234
_cell_angle_alpha  91.245077
_cell_angle_beta   81.511724
_cell_angle_gamma 86.377273
loop_
_atom_site_label
_atom_site_type_symbol
_atom_site_fract_x
_atom_site_fract_y
_atom_site_fract_z
_atom_type_partial_charge
H0 H 0.78876 0.52718 0.47331 0.0
H1 H 0.78872 0.48732 0.29763 0.0
H2 H 0.83095 0.47707 0.42461 0.0
H3 H 0.78073 0.52635 0.26724 0.0
C4 C 0.76813 0.52431 0.30246 0.0
C5 C 0.79469 0.51387 0.44149 0.0
C6 C 0.81095 0.50271 0.45538 0.0
C7 C 0.78644 0.50807 0.38493 0.0
C8 C 0.79473 0.49133 0.34219 0.0
C9 C 0.81092 0.4802 0.35556 0.0
C10 C 0.8185 0.48564 0.41343 0.0
N11 N 0.77002 0.51915 0.37004 0.0
H12 H 0.99892 0.73294 0.4657 0.0
H13 H 0.97493 0.72025 0.28586 0.0
H14 H 0.98209 0.78334 0.34561 0.0
H15 H 0.96109 0.69295 0.38901 0.0
C16 C 0.97577 0.68827 0.37364 0.0
C17 C 0.99255 0.73849 0.42323 0.0
C18 C 0.99084 0.76002 0.41168 0.0
C19 C 0.98638 0.72409 0.37867 0.0
C20 C 0.97884 0.73131 0.32201 0.0
C21 C 0.97726 0.75265 0.30986 0.0
C22 C 0.98295 0.76682 0.35556 0.0
N23 N 0.9892 0.70231 0.38734 0.0
H24 H 0.75899 0.99525 0.30495 0.0
H25 H 0.76722 0.03224 0.12756 0.0
H26 H 0.71366 0.03445 0.25222 0.0
H27 H 0.78145 0.99623 0.09132 0.0
C28 C 0.7912 0.99816 0.12695 0.0
C29 C 0.75366 0.00653 0.27201 0.0
C30 C 0.73507 0.01501 0.28692 0.0
C31 C 0.76521 0.01242 0.21336 0.0
C32 C 0.75815 0.02721 0.17118 0.0
C33 C 0.7396 0.03544 0.18465 0.0
C34 C 0.72826 0.02909 0.24252 0.0
N35 N 0.78378 0.00335 0.19573 0.0
H36 H 0.52075 0.73961 0.27598 0.0
H37 H 0.49557 0.73551 0.09465 0.0
H38 H 0.48816 0.68796 0.24111 0.0
H39 H 0.52455 0.75061 0.05599 0.0
C40 C 0.52209 0.76341 0.09328 0.0
C41 C 0.51218 0.73164 0.2451 0.0
C42 C 0.50458 0.7129 0.26652 0.0
C43 C 0.50905 0.73989 0.18303 0.0
C44 C 0.49817 0.72928 0.14245 0.0
C45 C 0.49036 0.71072 0.16376 0.0
C46 C 0.49352 0.70278 0.22593 0.0
N47 N 0.51671 0.75896 0.16239 0.0
H48 H 0.24631 0.50148 0.00211 0.0
H49 H 0.25395 0.53091 0.19063 0.0
H50 H 0.19942 0.53163 0.13357 0.0
H51 H 0.28147 0.541 0.08513 0.0
C52 C 0.28493 0.52472 0.0944 0.0
C53 C 0.24054 0.50994 0.04861 0.0
C54 C 0.22135 0.51635 0.06122 0.0
C55 C 0.25244 0.51558 0.09478 0.0
C56 C 0.24495 0.52688 0.15439 0.0
C57 C 0.22587 0.53231 0.16884 0.0
C58 C 0.2142 0.52709 0.12231 0.0
N59 N 0.27191 0.50996 0.08213 0.0
H60 H 0.02384 0.27125 0.00732 0.0
H61 H 0.05002 0.27751 0.18539 0.0
H62 H 0.05978 0.22104 0.06355 0.0
H63 H 1.00995 0.28926 0.20288 0.0
C64 C 0.01679 0.30184 0.17597 0.0
C65 C 0.03344 0.26515 0.03974 0.0
C66 C 0.04201 0.24488 0.02749 0.0
C67 C 0.03659 0.27709 0.09631 0.0
C68 C 0.04814 0.26861 0.14059 0.0
C69 C 0.0568 0.24854 0.1285 0.0
C70 C 0.05399 0.23704 0.07106 0.0
N71 N 0.02742 0.29717 0.11131 0.0
H72 H 0.27351 0.01155 0.12032 0.0
H73 H 0.2638 0.99183 0.32655 0.0
H74 H 0.31907 0.00335 0.23446 0.0
H75 H 0.24377 0.97031 0.26118 0.0
C76 C 0.23633 0.9851 0.2537 0.0
C77 C 0.27868 0.00767 0.16683 0.0
C78 C 0.29789 0.00834 0.17093 0.0
C79 C 0.26623 0.00161 0.22311 0.0
C80 C 0.27319 0.9963 0.28287 0.0
C81 C 0.29213 0.99717 0.28735 0.0
C82 C 0.30429 0.00328 0.23155 0.0
N83 N 0.24675 1.00098 0.22056 0.0
H84 H 0.50489 0.26362 0.18818 0.0
H85 H 0.52814 0.26296 0.3746 0.0
H86 H 0.5121 0.3211 0.2925 0.0
H87 H 0.54443 0.23324 0.31215 0.0
C88 C 0.53163 0.22618 0.30502 0.0
C89 C 0.50914 0.27183 0.23057 0.0
C90 C 0.50748 0.29377 0.23465 0.0
C91 C 0.51658 0.26051 0.28096 0.0
C92 C 0.52248 0.27136 0.33512 0.0
C93 C 0.52064 0.29314 0.33951 0.0
C94 C 0.513 0.30418 0.28975 0.0
N95 N 0.51765 0.23832 0.27774 0.0
Dy96 Dy 1.00921 0.0096 0.65428 0.0
Dy97 Dy 0.02554 0.99358 0.78799 0.0
C98 C 0.05262 0.00339 0.65301 0.0
O99 O 0.01629 0.97518 0.63879 0.0
O100 O 0.01164 0.9668 0.74944 0.0
O101 O 1.00947 0.00619 0.54672 0.0
O102 O 0.99169 0.03064 0.604 0.0
O103 O 0.9953 0.00288 0.8221 0.0
O104 O 0.98401 0.9998 0.72157 0.0
O105 O 0.03118 0.02736 0.78743 0.0
O106 O 1.00969 0.03814 0.71991 0.0
O107 O 0.02562 0.99274 0.89591 0.0
O108 O 0.0454 0.9728 0.82787 0.0
C109 C 0.0132 0.96129 0.68549 0.0
O110 O 0.03928 0.01628 0.63812 0.0
O111 O 0.04916 0.99011 0.7014 0.0
C112 C 1.00943 0.03989 0.50291 0.0
C113 C 0.02818 0.0741 0.44814 0.0
C114 C 0.03827 0.05589 0.46301 0.0
C115 C 0.02901 0.03898 0.49001 0.0
C116 C 0.99927 0.05766 0.48526 0.0
C117 C 1.00857 0.07462 0.45789 0.0
C118 C 0.99994 0.02398 0.5444 0.0
C119 C 0.9813 0.00118 0.788 0.0
C120 C 0.02121 0.04224 0.76255 0.0
C121 C 0.03038 0.9574 0.92281 0.0
C122 C 0.01838 0.91767 0.95695 0.0
C123 C 1.00551 0.93382 0.94446 0.0
C124 C 0.01146 0.95344 0.92715 0.0
C125 C 0.04314 0.94164 0.93818 0.0
C126 C 0.0372 0.92193 0.95514 0.0
C127 C 0.03719 0.9762 0.88978 0.0
H128 H 0.05336 0.05502 0.45688 0.0
H129 H 0.03727 0.02558 0.50371 0.0
H130 H 0.98418 0.05876 0.49528 0.0
H131 H 1.0004 0.08832 0.44581 0.0
H132 H 0.99087 0.9312 0.94665 0.0
H133 H 1.00137 0.96522 0.91422 0.0
H134 H 0.05785 0.94426 0.93361 0.0
H135 H 0.04751 0.90978 0.96383 0.0
Dy136 Dy 0.5126 0.98716 0.67081 0.0
Dy137 Dy 0.52436 0.01467 0.79411 0.0
C138 C 0.51598 0.03535 0.65923 0.0
O139 O 0.54232 0.99326 0.63354 0.0
O140 O 0.55139 1.00083 0.73607 0.0
O141 O 0.50589 0.98311 0.56989 0.0
O142 O 0.50517 0.95718 0.63703 0.0
O143 O 0.5173 0.98358 0.83492 0.0
O144 O 0.52742 0.96609 0.73536 0.0
O145 O 0.49314 0.01939 0.80852 0.0
O146 O 0.48698 0.99051 0.74859 0.0
O147 O 0.53776 0.01699 0.88282 0.0
O148 O 0.52491 0.04466 0.84444 0.0
C149 C 0.55544 0.99628 0.67086 0.0
O150 O 0.5047 0.02056 0.65269 0.0
O151 O 0.52812 0.0334 0.70132 0.0
C152 C 0.4812 0.96109 0.57257 0.0
C153 C 0.44381 0.95303 0.56817 0.0
C154 C 0.44821 0.97085 0.60284 0.0
C155 C 0.46672 0.97482 0.6051 0.0
C156 C 0.47697 0.94332 0.53772 0.0
C157 C 0.45838 0.93934 0.53527 0.0
C158 C 0.50046 0.96439 0.58129 0.0
C159 C 0.52319 0.96613 0.80123 0.0
C160 C 0.48141 0.00609 0.79188 0.0
C161 C 0.55357 0.04747 0.88334 0.0
C162 C 0.58894 0.06253 0.8847 0.0
C163 C 0.58517 0.05116 0.82828 0.0
C164 C 0.56758 0.04382 0.8274 0.0
C165 C 0.55699 0.05962 0.93853 0.0
C166 C 0.57458 0.06725 0.93904 0.0
C167 C 0.53601 0.03733 0.88514 0.0
H168 H 0.43736 0.98191 0.62762 0.0
H169 H 0.46974 0.98852 0.63292 0.0
H170 H 0.48801 0.9324 0.51337 0.0
H171 H 0.4554 0.92543 0.50848 0.0
H172 H 0.59603 0.04736 0.78584 0.0
H173 H 0.56511 0.03464 0.78406 0.0
H174 H 0.54629 0.06259 0.982 0.0
H175 H 0.57727 0.07583 0.98334 0.0
Dy176 Dy 0.53421 0.51095 0.78713 0.0
Dy177 Dy 0.50028 0.49805 0.6967 0.0
C178 C 0.50987 0.47136 0.82546 0.0
O179 O 0.54321 0.48025 0.73574 0.0
O180 O 0.52882 0.48734 0.645 0.0
O181 O 0.5633 0.51655 0.78555 0.0
O182 O 0.5437 0.52207 0.87806 0.0
O183 O 0.50497 0.53107 0.67456 0.0
O184 O 0.53513 0.53128 0.69649 0.0
O185 O 0.48491 0.51999 0.7772 0.0
O186 O 0.5094 0.532 0.82668 0.0
O187 O 0.47393 0.48572 0.68432 0.0
O188 O 0.49377 0.49217 0.59619 0.0
C189 C 0.54053 0.47565 0.6742 0.0
O190 O 0.51987 0.48592 0.84639 0.0
O191 O 0.50335 0.47211 0.76754 0.0
C192 C 0.57594 0.51599 0.89025 0.0
C193 C 0.6062 0.51155 0.96499 0.0
C194 C 0.58844 0.51939 0.9963 0.0
C195 C 0.57355 0.52165 0.95936 0.0
C196 C 0.59348 0.50738 0.85945 0.0
C197 C 0.60839 0.50513 0.89641 0.0
C198 C 0.56105 0.52211 0.84956 0.0
C199 C 0.52086 0.53987 0.67102 0.0
C200 C 0.49165 0.53221 0.82002 0.0
C201 C 0.46212 0.49004 0.57964 0.0
C202 C 0.43199 0.49607 0.50558 0.0
C203 C 0.44582 0.47981 0.4877 0.0
C204 C 0.46067 0.47687 0.52425 0.0
C205 C 0.44857 0.50655 0.59744 0.0
C206 C 0.43365 0.50959 0.5605 0.0
C207 C 0.47755 0.48534 0.61845 0.0
H208 H 0.58621 0.52475 0.04868 0.0
H209 H 0.56032 0.52869 0.98437 0.0
H210 H 0.59591 0.50303 0.80619 0.0
H211 H 0.62178 0.49872 0.87079 0.0
H212 H 0.44522 0.46934 0.44509 0.0
H213 H 0.471 0.46406 0.50956 0.0
H214 H 0.44941 0.5169 0.64013 0.0
H215 H 0.42321 0.52222 0.57581 0.0
Dy216 Dy 0.02378 0.52188 0.69036 0.0
Dy217 Dy 0.0136 0.48232 0.78504 0.0
C218 C 0.02622 0.47637 0.62955 0.0
O219 O 0.99258 0.52311 0.70395 0.0
O220 O 0.98801 0.48967 0.73783 0.0
O221 O 0.03779 0.53408 0.59867 0.0
O222 O 0.02146 0.55503 0.67439 0.0
O223 O 1.00216 0.51096 0.84714 0.0
O224 O 0.0238 0.53219 0.79744 0.0
O225 O 0.04168 0.4898 0.80751 0.0
O226 O 0.05137 0.50787 0.7123 0.0
O227 O 1.00782 0.46676 0.87972 0.0
O228 O 1.00863 0.44962 0.78495 0.0
C229 C 0.9818 0.50752 0.71589 0.0
O230 O 0.01897 0.49522 0.62261 0.0
O231 O 0.03089 0.47116 0.68788 0.0
C232 C 0.04925 0.5666 0.61662 0.0
C233 C 0.08172 0.58874 0.5982 0.0
C234 C 0.08058 0.57125 0.63934 0.0
C235 C 0.06447 0.56036 0.64869 0.0
C236 C 0.04976 0.58473 0.57916 0.0
C237 C 0.06585 0.59582 0.57034 0.0
C238 C 0.03345 0.55344 0.61896 0.0
C239 C 0.0113 0.52791 0.84856 0.0
C240 C 0.05488 0.49825 0.76697 0.0
C241 C 0.98606 0.44121 0.87362 0.0
C242 C 0.95079 0.42526 0.90838 0.0
C243 C 0.95282 0.4469 0.91053 0.0
C244 C 0.97022 0.45479 0.89277 0.0
C245 C 0.98422 0.41965 0.87132 0.0
C246 C 0.96672 0.41171 0.88852 0.0
C247 C 1.00418 0.44949 0.8503 0.0
H248 H 0.09252 0.56507 0.66092 0.0
H249 H 0.06421 0.54648 0.67839 0.0
H250 H 0.038 0.58988 0.55478 0.0
H251 H 0.06611 0.60943 0.53939 0.0
H252 H 0.941 0.45783 0.92704 0.0
H253 H 0.97128 0.47152 0.89376 0.0
H254 H 0.99627 0.40897 0.85536 0.0
H255 H 0.96567 0.395 0.88569 0.0
C256 C 0.20903 0.97258 0.32762 0.0
C257 C 0.21677 0.98857 0.28834 0.0
C258 C 0.19104 0.97523 0.36377 0.0
C259 C 0.15363 0.01563 0.43304 0.0
H260 H 0.12412 0.96742 0.45628 0.0
C261 C 0.0763 0.01912 0.56717 0.0
C262 C 0.07153 0.00313 0.61222 0.0
C263 C 0.0938 0.01835 0.52648 0.0
C264 C 0.13222 0.98101 0.45078 0.0
H265 H 0.21157 0.02001 0.25584 0.0
H266 H 0.17975 0.02459 0.31793 0.0
H267 H 0.15431 0.96439 0.38482 0.0
H268 H 0.08167 0.97392 0.65009 0.0
H269 H 0.11205 0.97251 0.57897 0.0
H270 H 0.13117 0.03226 0.49855 0.0
C271 C 0.18778 0.01001 0.32164 0.0
C272 C 0.14963 0.97929 0.40979 0.0
C273 C 0.20598 0.00737 0.28557 0.0
C274 C 0.08482 0.98651 0.61607 0.0
C275 C 0.10222 0.98563 0.57489 0.0
C276 C 0.13607 0.0174 0.47362 0.0
C277 C 0.18005 0.99394 0.36139 0.0
C278 C 0.16079 0.99645 0.40113 0.0
C279 C 0.10691 0.00145 0.5292 0.0
C280 C 0.12527 1.00001 0.48384 0.0
H281 H 0.21706 0.95798 0.33134 0.0
H282 H 0.18592 0.96263 0.39479 0.0
H283 H 0.1618 0.02916 0.42835 0.0
H284 H 0.06647 0.03223 0.563 0.0
H285 H 0.0969 0.03076 0.49168 0.0
C286 C 0.51219 0.19511 0.32686 0.0
C287 C 0.52883 0.20488 0.32959 0.0
C288 C 0.50973 0.1754 0.35432 0.0
C289 C 0.53635 0.12951 0.41261 0.0
H290 H 0.48942 0.11926 0.52229 0.0
C291 C 0.53075 0.06709 0.61297 0.0
C292 C 0.51599 0.05387 0.61633 0.0
C293 C 0.53129 0.08432 0.57171 0.0
C294 C 0.50252 0.1218 0.49105 0.0
H295 H 0.55588 0.20179 0.36251 0.0
H296 H 0.55158 0.1678 0.41092 0.0
H297 H 0.49233 0.15153 0.46011 0.0
H298 H 0.49003 0.0486 0.5795 0.0
H299 H 0.49085 0.07912 0.50781 0.0
H300 H 0.54673 0.10017 0.44542 0.0
C301 C 0.54053 0.17496 0.38669 0.0
C302 C 0.50419 0.14025 0.45527 0.0
C303 C 0.54297 0.19454 0.3593 0.0
C304 C 0.50162 0.05846 0.57792 0.0
C305 C 0.50204 0.07595 0.5371 0.0
C306 C 0.53472 0.11121 0.44868 0.0
C307 C 0.52386 0.16512 0.38487 0.0
C308 C 0.52128 0.14455 0.41681 0.0
C309 C 0.517 0.08893 0.53315 0.0
C310 C 0.51792 0.10734 0.48945 0.0
H311 H 0.50102 0.20274 0.30431 0.0
H312 H 0.49678 0.16821 0.35155 0.0
H313 H 0.54957 0.13201 0.38218 0.0
H314 H 0.54207 0.06406 0.64177 0.0
H315 H 0.54286 0.09419 0.5705 0.0
C316 C 0.3107 0.53642 0.15183 0.0
C317 C 0.30048 0.51996 0.13337 0.0
C318 C 0.32455 0.53306 0.19262 0.0
C319 C 0.35619 0.49271 0.25195 0.0
H320 H 0.35819 0.53366 0.3953 0.0
C321 C 0.40734 0.48106 0.44633 0.0
C322 C 0.41596 0.49861 0.4669 0.0
C323 C 0.39285 0.4832 0.40755 0.0
C324 C 0.35803 0.52219 0.35506 0.0
H325 H 0.29705 0.48686 0.14214 0.0
H326 H 0.32151 0.48087 0.21338 0.0
H327 H 0.33406 0.53782 0.3234 0.0
H328 H 0.4159 0.53225 0.4628 0.0
H329 H 0.39076 0.53602 0.39466 0.0
H330 H 0.38034 0.47722 0.28291 0.0
C331 C 0.31875 0.49644 0.19608 0.0
C332 C 0.34412 0.52456 0.31383 0.0
C333 C 0.30472 0.49986 0.15539 0.0
C334 C 0.40947 0.51842 0.44851 0.0
C335 C 0.39501 0.52056 0.40939 0.0
C336 C 0.37019 0.49039 0.29301 0.0
C337 C 0.32866 0.51309 0.21596 0.0
C338 C 0.34308 0.50994 0.2614 0.0
C339 C 0.38655 0.50296 0.38797 0.0
C340 C 0.37138 0.50517 0.34497 0.0
H341 H 0.30775 0.55208 0.13553 0.0
H342 H 0.33209 0.54617 0.20582 0.0
H343 H 0.35593 0.48127 0.21165 0.0
H344 H 0.41174 0.46558 0.46058 0.0
H345 H 0.38648 0.46931 0.39342 0.0
C346 C 1.00572 0.3254 0.27557 0.0
C347 C 0.01708 0.32204 0.21284 0.0
C348 C 1.00692 0.34323 0.31532 0.0
C349 C 0.02474 0.3962 0.31457 0.0
H350 H 0.0222 0.38719 0.50637 0.0
C351 C 0.01887 0.46375 0.51713 0.0
C352 C 0.0277 0.46031 0.57422 0.0
C353 C 0.01868 0.4477 0.46872 0.0
C354 C 0.02316 0.39002 0.45291 0.0
H355 H 0.03833 0.33504 0.14141 0.0
H356 H 0.04066 0.36623 0.21142 0.0
H357 H 0.01956 0.35808 0.43019 0.0
H358 H 0.04408 0.4376 0.62325 0.0
H359 H 0.04411 0.40992 0.53858 0.0
H360 H 0.02874 0.4282 0.33772 0.0
C361 C 0.03062 0.35515 0.22959 0.0
C362 C 0.02135 0.37332 0.40916 0.0
C363 C 0.02932 0.33725 0.18948 0.0
C364 C 0.03698 0.44075 0.5803 0.0
C365 C 0.03688 0.4248 0.53186 0.0
C366 C 0.02658 0.41299 0.35854 0.0
C367 C 0.01968 0.35814 0.29369 0.0
C368 C 0.02198 0.37615 0.33944 0.0
C369 C 0.02738 0.42786 0.47617 0.0
C370 C 0.0258 0.41011 0.42838 0.0
H371 H 0.9961 0.31396 0.29464 0.0
H372 H 0.99795 0.3452 0.36355 0.0
H373 H 0.0252 0.399 0.26126 0.0
H374 H 0.01154 0.47862 0.51097 0.0
H375 H 0.01111 0.45062 0.42683 0.0
C376 C 0.81677 0.99249 0.03016 0.0
C377 C 0.81142 0.99694 0.09949 0.0
C378 C 0.83545 0.99211 1.00077 0.0
C379 C 0.88128 0.01087 0.02596 0.0
H380 H 0.89948 0.97124 0.8787 0.0
C381 C 0.95875 0.0032 0.89679 0.0
C382 C 0.96207 1.00056 0.82593 0.0
C383 C 0.94075 0.00239 0.93274 0.0
C384 C 0.8946 0.98255 0.91929 0.0
H385 H 0.8216 0.00442 0.19283 0.0
H386 H 0.85452 0.00349 0.14162 0.0
H387 H 0.86792 0.96983 0.93835 0.0
H388 H 0.94882 0.99499 0.73765 0.0
H389 H 0.9175 0.99359 0.80023 0.0
H390 H 0.9081 0.02351 0.00669 0.0
C391 C 0.84413 1.00049 0.1097 0.0
C392 C 0.87645 0.98176 0.95366 0.0
C393 C 0.82529 1.00088 0.13925 0.0
C394 C 0.94686 0.99708 0.79209 0.0
C395 C 0.92887 0.99615 0.82811 0.0
C396 C 0.89952 0.01159 0.9917 0.0
C397 C 0.84947 0.99612 0.03988 0.0
C398 C 0.86938 0.99609 0.0069 0.0
C399 C 0.92555 0.99876 0.89897 0.0
C400 C 0.90636 0.99761 0.9373 0.0
H401 H 0.80639 0.98955 0.99808 0.0
H402 H 0.83883 0.98912 0.94681 0.0
H403 H 0.87634 0.02232 0.06606 0.0
H404 H 0.97009 0.00585 0.92478 0.0
H405 H 0.93879 0.00426 0.98724 0.0
C406 C 0.51888 0.80245 0.11355 0.0
C407 C 0.52375 0.78497 0.06969 0.0
C408 C 0.51938 0.82263 0.08841 0.0
C409 C 0.51773 0.85016 0.92889 0.0
H410 H 0.53567 0.89646 0.0223 0.0
C411 C 0.53065 0.92759 0.79934 0.0
C412 C 0.52449 0.94616 0.83652 0.0
C413 C 0.5309 0.90849 0.83108 0.0
C414 C 0.53044 0.88372 0.996 0.0
H415 H 0.53348 0.77481 0.96609 0.0
H416 H 0.53466 0.80983 0.92244 0.0
H417 H 0.53561 0.862 0.07202 0.0
H418 H 0.5142 0.95921 0.93682 0.0
H419 H 0.51459 0.92568 0.9924 0.0
H420 H 0.5126 0.87168 0.85289 0.0
C421 C 0.5301 0.80809 0.97587 0.0
C422 C 0.5304 0.86399 0.02447 0.0
C423 C 0.52956 0.78802 1.0009 0.0
C424 C 0.51902 0.9452 0.90669 0.0
C425 C 0.51931 0.92601 0.93858 0.0
C426 C 0.5178 0.86978 0.90051 0.0
C427 C 0.52473 0.82566 0.01902 0.0
C428 C 0.52424 0.84691 0.99079 0.0
C429 C 0.525 0.90739 0.90089 0.0
C430 C 0.52435 0.88677 0.93323 0.0
H431 H 0.51431 0.80057 0.16688 0.0
H432 H 0.51506 0.83581 0.12297 0.0
H433 H 0.51245 0.83751 0.90233 0.0
H434 H 0.53508 0.92771 0.74531 0.0
H435 H 0.5357 0.89451 0.80073 0.0
C436 C 0.75005 0.52899 0.20724 0.0
C437 C 0.75023 0.52407 0.27507 0.0
C438 C 0.734 0.5273 0.1774 0.0
C439 C 0.68279 0.52376 0.21298 0.0
H440 H 0.68998 0.50069 0.02977 0.0
C441 C 0.62078 0.50623 0.07113 0.0
C442 C 0.62254 0.51132 0.00253 0.0
C443 C 0.63598 0.50698 0.10671 0.0
C444 C 0.68769 0.50736 0.08066 0.0
H445 H 0.7335 0.51393 0.36559 0.0
H446 H 0.70527 0.51087 0.31328 0.0
H447 H 0.71674 0.50392 0.08817 0.0
H448 H 0.6418 0.52152 0.91828 0.0
H449 H 0.66815 0.52273 0.97984 0.0
H450 H 0.65366 0.52727 0.20504 0.0
C451 C 0.7176 0.51619 0.28322 0.0
C452 C 0.70308 0.50922 0.11426 0.0
C453 C 0.73377 0.5179 0.31321 0.0
C454 C 0.63996 0.51705 0.97053 0.0
C455 C 0.65512 0.51779 0.00601 0.0
C456 C 0.66734 0.5219 0.17923 0.0
C457 C 0.71762 0.52054 0.21451 0.0
C458 C 0.70091 0.5177 0.18057 0.0
C459 C 0.65336 0.51281 0.07465 0.0
C460 C 0.66961 0.51389 0.11226 0.0
H461 H 0.76251 0.53387 0.17668 0.0
H462 H 0.73446 0.53124 0.12491 0.0
H463 H 0.68059 0.53048 0.26379 0.0
H464 H 0.60766 0.50153 0.09734 0.0
H465 H 0.63414 0.50277 0.15921 0.0
C466 C 0.99832 0.66599 0.28953 0.0
C467 C 0.98073 0.66939 0.3292 0.0
C468 C 1.00193 0.64921 0.24252 0.0
C469 C 0.97696 0.61257 0.14634 0.0
H470 H 0.02608 0.5844 0.10077 0.0
C471 C 0.99219 0.54137 0.95809 0.0
C472 C 1.00795 0.54238 0.90858 0.0
C473 C 0.98893 0.55566 0.01316 0.0
C474 C 0.0123 0.59218 0.11283 0.0
H475 H 0.9534 0.65758 0.35278 0.0
H476 H 0.95982 0.62791 0.27315 0.0
H477 H 0.02049 0.6112 0.19091 0.0
H478 H 0.03284 0.55894 0.87916 0.0
H479 H 0.02723 0.58357 0.97513 0.0
H480 H 0.96879 0.59336 0.06845 0.0
C481 C 0.97072 0.63844 0.27639 0.0
C482 C 1.00909 0.60763 0.16436 0.0
C483 C 0.96707 0.65534 0.32264 0.0
C484 C 0.02052 0.55772 0.91615 0.0
C485 C 0.01739 0.57179 0.97148 0.0
C486 C 0.98013 0.59697 0.09535 0.0
C487 C 0.98807 0.63534 0.2346 0.0
C488 C 0.99141 0.61821 0.18152 0.0
C489 C 1.00149 0.57106 0.0204 0.0
C490 C 0.99787 0.58673 0.0775 0.0
H491 H 1.00909 0.67669 0.29299 0.0
H492 H 0.01538 0.64756 0.21085 0.0
H493 H 0.96325 0.62057 0.15686 0.0
H494 H 0.98223 0.52976 0.95379 0.0
H495 H 0.97661 0.55462 0.05028 0.0
C496 C 0.05584 0.2369 0.24644 0.0
C497 C 0.06574 0.23771 0.18097 0.0
C498 C 0.06041 0.22116 0.28915 0.0
C499 C 0.07663 0.16721 0.25953 0.0
H500 H 0.06172 0.1649 0.45297 0.0
C501 C 0.05493 0.09083 0.38081 0.0
C502 C 0.03812 0.09279 0.42597 0.0
C503 C 0.06435 0.10843 0.36071 0.0
C504 C 0.06599 0.16529 0.3989 0.0
H505 H 0.08991 0.22499 0.11266 0.0
H506 H 0.09814 0.19765 0.18782 0.0
H507 H 0.06974 0.19806 0.40282 0.0
H508 H 0.01844 0.11474 0.48748 0.0
H509 H 0.03439 0.14549 0.45016 0.0
H510 H 0.07177 0.13491 0.25458 0.0
C511 C 0.08652 0.20876 0.20547 0.0
C512 C 0.07068 0.18424 0.37029 0.0
C513 C 0.08187 0.22443 0.16258 0.0
C514 C 0.03115 0.11271 0.45155 0.0
C515 C 0.04051 0.13032 0.43121 0.0
C516 C 0.07192 0.14834 0.28802 0.0
C517 C 0.075 0.20603 0.26704 0.0
C518 C 0.07526 0.18558 0.29992 0.0
C519 C 0.05713 0.12841 0.38505 0.0
C520 C 0.06576 0.14735 0.35762 0.0
H521 H 0.04331 0.24691 0.26193 0.0
H522 H 0.05121 0.21956 0.33618 0.0
H523 H 0.07981 0.16765 0.20505 0.0
H524 H 0.06066 0.0757 0.36001 0.0
H525 H 0.07718 0.10641 0.32542 0.0
C526 C 0.31201 0.00324 0.37609 0.0
C527 C 0.29968 0.99074 0.34881 0.0
C528 C 0.32192 0.99566 0.42588 0.0
C529 C 0.34254 0.94631 0.46943 0.0
H530 H 0.36172 0.98163 0.59873 0.0
C531 C 0.41878 0.94347 0.50211 0.0
C532 C 0.42406 0.94948 0.56396 0.0
C533 C 0.39998 0.94317 0.49536 0.0
C534 C 0.35629 0.97126 0.56421 0.0
H535 H 0.28692 0.96117 0.35521 0.0
H536 H 0.30439 0.94775 0.44258 0.0
H537 H 0.33305 0.99278 0.55683 0.0
H538 H 0.41384 0.95807 0.66885 0.0
H539 H 0.38092 0.9577 0.65681 0.0
H540 H 0.36625 0.92524 0.47446 0.0
C541 C 0.30642 0.96339 0.42524 0.0
C542 C 0.33993 0.97777 0.53977 0.0
C543 C 0.29637 0.97109 0.37562 0.0
C544 C 0.41017 0.95381 0.62012 0.0
C545 C 0.39134 0.95352 0.61336 0.0
C546 C 0.35889 0.93978 0.49397 0.0
C547 C 0.31976 0.97535 0.44914 0.0
C548 C 0.33347 0.96589 0.48942 0.0
C549 C 0.38605 0.94885 0.55034 0.0
C550 C 0.36646 0.95273 0.53882 0.0
H551 H 0.31467 0.01851 0.3565 0.0
H552 H 0.33223 0.00519 0.44255 0.0
H553 H 0.33795 0.93679 0.43061 0.0
H554 H 0.42913 0.94022 0.45778 0.0
H555 H 0.39642 0.93981 0.44581 0.0
C556 C 0.54659 0.306 0.39392 0.0
C557 C 0.52739 0.30494 0.39377 0.0
C558 C 0.55311 0.32089 0.43505 0.0
C559 C 0.55899 0.36613 0.47372 0.0
H560 H 0.53559 0.38278 0.65523 0.0
C561 C 0.54642 0.4507 0.57478 0.0
C562 C 0.54764 0.45515 0.64286 0.0
C563 C 0.54962 0.43027 0.54859 0.0
C564 C 0.54256 0.37816 0.60504 0.0
H565 H 0.4999 0.31741 0.43831 0.0
H566 H 0.51119 0.34307 0.51154 0.0
H567 H 0.52991 0.34892 0.60752 0.0
H568 H 0.55428 0.44188 0.73587 0.0
H569 H 0.55964 0.40616 0.69009 0.0
H570 H 0.57076 0.39589 0.46982 0.0
C571 C 0.52125 0.3325 0.48022 0.0
C572 C 0.53921 0.35884 0.57768 0.0
C573 C 0.51477 0.31789 0.43839 0.0
C574 C 0.55328 0.43898 0.6831 0.0
C575 C 0.55624 0.4185 0.65712 0.0
C576 C 0.56217 0.38555 0.50081 0.0
C577 C 0.54047 0.33465 0.47717 0.0
C578 C 0.54694 0.35292 0.51106 0.0
C579 C 0.55389 0.41388 0.59019 0.0
C580 C 0.55353 0.392 0.56598 0.0
H581 H 0.55652 0.29628 0.35911 0.0
H582 H 0.56798 0.32223 0.4319 0.0
H583 H 0.565 0.36204 0.422 0.0
H584 H 0.54212 0.46283 0.54255 0.0
H585 H 0.54756 0.42715 0.49695 0.0
C586 C 0.20357 0.53466 0.27577 0.0
C587 C 0.21789 0.54332 0.23289 0.0
C588 C 0.19478 0.54568 0.33356 0.0
C589 C 0.18023 0.5979 0.3902 0.0
H590 H 0.16166 0.56989 0.55348 0.0
C591 C 0.10531 0.60193 0.50811 0.0
C592 C 0.10016 0.59719 0.57622 0.0
C593 C 0.12393 0.60413 0.48219 0.0
C594 C 0.16704 0.57836 0.50945 0.0
H595 H 0.23478 0.56983 0.21706 0.0
H596 H 0.21885 0.5896 0.31798 0.0
H597 H 0.18848 0.55433 0.47802 0.0
H598 H 0.11022 0.59412 0.67254 0.0
H599 H 0.14291 0.59739 0.62656 0.0
H600 H 0.15787 0.62114 0.41909 0.0
C601 C 0.21469 0.57415 0.30718 0.0
C602 C 0.18232 0.5693 0.46592 0.0
C603 C 0.22375 0.56291 0.24976 0.0
C604 C 0.11379 0.59714 0.61938 0.0
C605 C 0.1325 0.59915 0.59322 0.0
C606 C 0.16487 0.60695 0.43368 0.0
C607 C 0.19996 0.56571 0.3491 0.0
C608 C 0.1883 0.57834 0.404 0.0
C609 C 0.13785 0.60148 0.52362 0.0
C610 C 0.15741 0.59656 0.49154 0.0
H611 H 0.19892 0.51954 0.26369 0.0
H612 H 0.18327 0.53892 0.36428 0.0
H613 H 0.18461 0.60523 0.34281 0.0
H614 H 0.09532 0.60199 0.47304 0.0
H615 H 0.12753 0.60576 0.42821 0.0
C616 C 0.96108 0.77883 0.2447 0.0
C617 C 0.97252 0.76043 0.2451 0.0
C618 C 0.96184 0.79045 0.18652 0.0
C619 C 0.99931 0.80093 0.05553 0.0
H620 H 0.96408 0.84567 0.02038 0.0
C621 C 0.01964 0.88412 0.01804 0.0
C622 C 0.01225 0.89634 0.96986 0.0
C623 C 0.01377 0.86417 0.0307 0.0
C624 C 0.97405 0.83307 0.02839 0.0
H625 H 0.99153 0.73809 0.18276 0.0
H626 H 0.99255 0.75817 0.08051 0.0
H627 H 0.95265 0.81433 0.07465 0.0
H628 H 0.99327 0.89688 0.89558 0.0
H629 H 0.98262 0.86213 0.91944 0.0
H630 H 0.0207 0.82006 0.01239 0.0
C631 C 0.98336 0.76391 0.12556 0.0
C632 C 0.96751 0.81518 0.05973 0.0
C633 C 0.98265 0.7523 0.18397 0.0
C634 C 0.99897 0.88804 0.93408 0.0
C635 C 0.99296 0.86811 0.94725 0.0
C636 C 1.0058 0.81877 0.02438 0.0
C637 C 0.97404 0.78382 0.1277 0.0
C638 C 0.98013 0.79938 0.07674 0.0
C639 C 1.0003 0.85601 0.99575 0.0
C640 C 0.99329 0.83543 0.01367 0.0
H641 H 0.95293 0.78524 0.29109 0.0
H642 H 0.95441 0.80566 0.1902 0.0
H643 H 1.00949 0.7892 0.06811 0.0
H644 H 0.02967 0.89013 0.04717 0.0
H645 H 0.01939 0.85536 0.06943 0.0
C646 C 0.71644 0.06382 0.15938 0.0
C647 C 0.73134 0.04922 0.13616 0.0
C648 C 0.70566 0.073 0.1145 0.0
C649 C 0.69457 0.06091 0.94236 0.0
H650 H 0.65431 0.10204 0.00656 0.0
C651 C 0.62198 0.05039 0.88439 0.0
C652 C 0.60832 0.06695 0.89052 0.0
C653 C 0.63995 0.05364 0.89648 0.0
C654 C 0.66557 0.09082 0.9863 0.0
H655 H 0.7483 0.03547 0.04566 0.0
H656 H 0.73088 0.05311 0.96742 0.0
H657 H 0.68237 0.10102 0.05758 0.0
H658 H 0.60275 0.1001 0.91077 0.0
H659 H 0.63459 0.10621 0.92851 0.0
H660 H 0.6783 0.05169 0.86804 0.0
C661 C 0.72641 0.0562 0.02083 0.0
C662 C 0.68166 0.08989 0.01694 0.0
C663 C 0.73677 0.04634 0.06604 0.0
C664 C 0.61312 0.08708 0.90616 0.0
C665 C 0.63133 0.09049 0.9167 0.0
C666 C 0.67885 0.06242 0.90997 0.0
C667 C 0.70991 0.06853 0.0445 0.0
C668 C 0.6958 0.07388 0.99895 0.0
C669 C 0.64492 0.0737 0.9136 0.0
C670 C 0.66352 0.0763 0.93479 0.0
H671 H 0.71232 0.06728 0.21283 0.0
H672 H 0.69328 0.08239 0.13606 0.0
H673 H 0.70498 0.04844 0.92544 0.0
H674 H 0.61851 0.03466 0.87332 0.0
H675 H 0.64961 0.0401 0.89548 0.0
C676 C 0.48892 0.69248 0.0535 0.0
C677 C 0.48038 0.6983 0.11923 0.0
C678 C 0.48164 0.67711 0.01659 0.0
C679 C 0.45499 0.63101 0.0521 0.0
H680 H 0.46654 0.62312 0.85771 0.0
C681 C 0.48236 0.55375 0.92475 0.0
C682 C 0.47941 0.5487 0.85893 0.0
C683 C 0.47449 0.5723 0.95694 0.0
C684 C 0.46273 0.62515 0.91191 0.0
H685 H 0.4566 0.69427 0.19551 0.0
H686 H 0.44348 0.66791 0.13032 0.0
H687 H 0.4671 0.65775 0.90885 0.0
H688 H 0.46507 0.55831 0.77622 0.0
H689 H 0.45123 0.59112 0.83269 0.0
H690 H 0.4511 0.59834 0.05525 0.0
C691 C 0.45613 0.67466 0.10792 0.0
C692 C 0.46332 0.64498 0.94136 0.0
C693 C 0.46356 0.68983 0.14514 0.0
C694 C 0.46735 0.56181 0.8274 0.0
C695 C 0.45961 0.58063 0.85942 0.0
C696 C 0.45426 0.61127 0.02265 0.0
C697 C 0.46555 0.6674 0.04444 0.0
C698 C 0.4604 0.64794 0.01205 0.0
C699 C 0.46364 0.58638 0.92368 0.0
C700 C 0.4591 0.60789 0.95256 0.0
H701 H 0.50198 0.69867 0.03257 0.0
H702 H 0.48945 0.67184 0.96831 0.0
H703 H 0.45269 0.63253 0.10667 0.0
H704 H 0.49169 0.54389 0.94989 0.0
H705 H 0.47811 0.57628 0.00595 0.0
C706 C 0.81155 0.45031 0.2706 0.0
C707 C 0.82103 0.46421 0.30648 0.0
C708 C 0.82151 0.4359 0.22293 0.0
C709 C 0.86863 0.4106 0.17205 0.0
H710 H 0.8602 0.41727 0.98703 0.0
C711 C 0.93063 0.39944 0.97084 0.0
C712 C 0.93226 0.41713 0.93088 0.0
C713 C 0.91323 0.39458 0.00419 0.0
C714 C 0.8627 0.41501 0.03842 0.0
H715 H 0.8484 0.47419 0.31829 0.0
H716 H 0.8655 0.44895 0.23785 0.0
H717 H 0.83607 0.42988 0.07949 0.0
H718 H 0.91659 0.44161 0.88639 0.0
H719 H 0.8867 0.43423 0.94776 0.0
H720 H 0.89584 0.39803 0.13266 0.0
C721 C 0.85045 0.44881 0.24733 0.0
C722 C 0.84874 0.422 0.09135 0.0
C723 C 0.84059 0.4633 0.29373 0.0
C724 C 0.91592 0.42837 0.91899 0.0
C725 C 0.89861 0.4238 0.95333 0.0
C726 C 0.8826 0.40387 0.11947 0.0
C727 C 0.84108 0.43498 0.2114 0.0
C728 C 0.85219 0.42115 0.15838 0.0
C729 C 0.89718 0.4076 0.99958 0.0
C730 C 0.88033 0.40739 0.05194 0.0
H731 H 0.79648 0.45057 0.27931 0.0
H732 H 0.81399 0.42551 0.1952 0.0
H733 H 0.87144 0.40942 0.22354 0.0
H734 H 0.94287 0.39021 0.98057 0.0
H735 H 0.9126 0.38154 0.03754 0.0
C736 C 0.05061 0.21966 0.92956 0.0
C737 C 0.03671 0.23002 0.9771 0.0
C738 C 0.04714 0.2012 0.89665 0.0
C739 C 0.01979 0.15628 0.9327 0.0
H740 H 0.03767 0.139 0.74654 0.0
C741 C 0.03 0.06953 0.84203 0.0
C742 C 0.02274 0.06436 0.783 0.0
C743 C 0.0308 0.09044 0.86206 0.0
C744 C 0.03253 0.14363 0.79859 0.0
H745 H 1.00806 0.22978 0.02515 0.0
H746 H 1.00194 0.19747 0.96762 0.0
H747 H 0.0396 0.17529 0.7835 0.0
H748 H 0.01106 0.0772 0.69787 0.0
H749 H 0.01281 0.11361 0.73228 0.0
H750 H 0.01315 0.12456 0.94834 0.0
C751 C 0.0155 0.20367 0.9556 0.0
C752 C 0.03368 0.16438 0.81976 0.0
C753 C 0.0189 0.22232 0.98776 0.0
C754 C 0.01664 0.08061 0.74385 0.0
C755 C 0.01773 0.10149 0.76331 0.0
C756 C 0.01891 0.13549 0.91183 0.0
C757 C 0.02979 0.19251 0.91156 0.0
C758 C 0.02736 0.17093 0.88713 0.0
C759 C 0.02466 0.10666 0.82295 0.0
C760 C 0.02535 0.12889 0.84463 0.0
H761 H 0.06455 0.22508 0.92145 0.0
H762 H 0.05847 0.19294 0.86333 0.0
H763 H 0.01503 0.16074 0.98516 0.0
H764 H 0.03479 0.05743 0.87337 0.0
H765 H 0.03638 0.09393 0.90798 0.0
C766 C 0.32334 0.02992 0.1198 0.0
C767 C 0.31215 0.01318 0.11312 0.0
C768 C 0.34029 0.03122 0.07718 0.0
C769 C 0.37034 0.00899 0.92085 0.0
H770 H 0.41031 0.02324 0.01834 0.0
C771 C 0.44871 0.99405 0.80727 0.0
C772 C 0.46141 0.00834 0.82353 0.0
C773 C 0.43002 0.99579 0.83804 0.0
C774 C 0.39935 0.01954 0.98975 0.0
H775 H 0.30961 0.98514 0.05463 0.0
H776 H 0.33921 0.9874 0.9795 0.0
H777 H 0.37848 0.02491 0.07651 0.0
H778 H 0.46404 0.03601 0.88426 0.0
H779 H 0.43153 0.03922 0.93706 0.0
H780 H 0.39137 0.00343 0.8341 0.0
C781 C 0.3348 0.99972 0.01724 0.0
C782 C 0.38098 0.02052 0.02329 0.0
C783 C 0.31773 0.99847 0.05994 0.0
C784 C 0.45477 0.02461 0.87071 0.0
C785 C 0.43607 0.02637 0.9014 0.0
C786 C 0.38878 0.00806 0.88712 0.0
C787 C 0.34667 0.01568 0.02704 0.0
C788 C 0.36616 0.01526 0.9895 0.0
C789 C 0.42341 0.0119 0.88602 0.0
C790 C 0.4036 0.01329 0.92112 0.0
H791 H 0.31949 0.04133 0.1609 0.0
H792 H 0.34878 0.04401 0.08542 0.0
H793 H 0.35934 0.00497 0.89291 0.0
H794 H 0.45322 0.98131 0.77114 0.0
H795 H 0.42086 0.98418 0.82523 0.0
C796 C 0.51287 0.30652 0.11703 0.0
C797 C 0.50155 0.30659 0.18016 0.0
C798 C 0.51081 0.32287 0.07301 0.0
C799 C 0.50113 0.35801 0.98073 0.0
H800 H 0.49446 0.41166 0.07662 0.0
C801 C 0.49721 0.43612 0.84294 0.0
C802 C 0.50685 0.45249 0.86614 0.0
C803 C 0.49505 0.41789 0.87927 0.0
C804 C 0.49643 0.39683 0.04899 0.0
H805 H 0.47823 0.32261 0.24462 0.0
H806 H 0.4741 0.35069 0.16702 0.0
H807 H 0.49255 0.37985 0.13986 0.0
H808 H 0.5217 0.4624 0.94634 0.0
H809 H 0.51799 0.43058 0.00951 0.0
H810 H 0.50567 0.37513 0.88983 0.0
C811 C 0.48493 0.33843 0.152 0.0
C812 C 0.49505 0.37853 0.08524 0.0
C813 C 0.48709 0.32222 0.19605 0.0
C814 C 0.51411 0.45021 0.92704 0.0
C815 C 0.51191 0.43197 0.96345 0.0
C816 C 0.5025 0.37636 0.94438 0.0
C817 C 0.49733 0.33951 0.09142 0.0
C818 C 0.49749 0.35886 0.0517 0.0
C819 C 0.50242 0.41554 0.93987 0.0
C820 C 0.50034 0.396 0.97814 0.0
H821 H 0.5243 0.2948 0.10418 0.0
H822 H 0.52065 0.3232 0.02693 0.0
H823 H 0.50302 0.34315 0.95325 0.0
H824 H 0.49141 0.43726 0.79627 0.0
H825 H 0.48745 0.40569 0.86007 0.0
C826 C 0.20647 0.49302 0.98392 0.0
C827 C 0.20839 0.51292 0.01139 0.0
C828 C 0.1921 0.48974 0.9456 0.0
C829 C 0.15633 0.51812 0.85713 0.0
H830 H 0.1285 0.46933 0.8968 0.0
C831 C 0.08892 0.50554 0.74229 0.0
C832 C 0.0741 0.49746 0.78498 0.0
C833 C 0.10676 0.5056 0.76122 0.0
C834 C 0.13602 0.48313 0.88532 0.0
H835 H 0.1975 0.54515 0.0168 0.0
H836 H 0.17262 0.53953 0.95142 0.0
H837 H 0.15722 0.47312 0.94361 0.0
H838 H 0.06665 0.48295 0.88115 0.0
H839 H 0.09738 0.48347 0.91456 0.0
H840 H 0.13469 0.52869 0.80183 0.0
C841 C 0.18209 0.52637 0.9586 0.0
C842 C 0.15272 0.48514 0.91142 0.0
C843 C 0.19631 0.52959 0.99673 0.0
C844 C 0.07768 0.48921 0.84663 0.0
C845 C 0.09545 0.48937 0.86569 0.0
C846 C 0.1396 0.51617 0.83136 0.0
C847 C 0.17947 0.50633 0.93352 0.0
C848 C 0.16294 0.50288 0.89889 0.0
C849 C 0.11026 0.49768 0.82355 0.0
C850 C 0.12898 0.49883 0.84609 0.0
H851 H 0.21552 0.47986 0.99453 0.0
H852 H 0.1907 0.47413 0.92642 0.0
H853 H 0.16392 0.53184 0.84525 0.0
H854 H 0.08675 0.51198 0.69432 0.0
H855 H 0.1178 0.51187 0.72683 0.0
C856 C 1.00989 0.79042 0.42307 0.0
C857 C 0.99798 0.77596 0.45432 0.0
C858 C 0.01364 0.80824 0.45829 0.0
C859 C 0.99271 0.84295 0.60312 0.0
H860 H 0.03812 0.87119 0.55416 0.0
C861 C 1.00553 0.92461 0.71443 0.0
C862 C 0.01201 0.93904 0.66596 0.0
C863 C 1.00474 0.90355 0.69606 0.0
C864 C 0.02534 0.8635 0.5683 0.0
H865 H 0.98156 0.76815 0.54831 0.0
H866 H 0.98852 0.79918 0.61124 0.0
H867 H 0.03634 0.83554 0.51306 0.0
H868 H 0.02286 0.94251 0.56029 0.0
H869 H 0.02173 0.90579 0.52861 0.0
H870 H 0.98184 0.87109 0.6587 0.0
C871 C 0.99466 0.79693 0.55876 0.0
C872 C 0.02428 0.84305 0.54463 0.0
C873 C 0.99087 0.779 0.52314 0.0
C874 C 0.01775 0.93187 0.59886 0.0
C875 C 0.01722 0.91079 0.58077 0.0
C876 C 0.99389 0.86335 0.6276 0.0
C877 C 1.00567 0.81211 0.52616 0.0
C878 C 1.00776 0.83265 0.56002 0.0
C879 C 0.01072 0.89639 0.62909 0.0
C880 C 0.01005 0.87404 0.60897 0.0
H881 H 0.01556 0.78846 0.36999 0.0
H882 H 0.02196 0.81953 0.43081 0.0
H883 H 0.97968 0.83565 0.61558 0.0
H884 H 1.00102 0.92957 0.76663 0.0
H885 H 0.99973 0.89281 0.73446 0.0
C886 C 0.71587 0.98875 0.35181 0.0
C887 C 0.72173 0.00912 0.34623 0.0
C888 C 0.69971 0.98465 0.39617 0.0
C889 C 0.65812 0.98427 0.45001 0.0
H890 H 0.64115 0.01678 0.61527 0.0
C891 C 0.58015 0.99282 0.56792 0.0
C892 C 0.57536 0.99501 0.6385 0.0
C893 C 0.59881 0.99249 0.5373 0.0
C894 C 0.64566 0.0073 0.56977 0.0
H895 H 0.71596 0.04085 0.3853 0.0
H896 H 0.68806 0.03389 0.46202 0.0
H897 H 0.67292 0.01874 0.55874 0.0
H898 H 0.58673 0.99823 0.73214 0.0
H899 H 0.61916 0.99715 0.67915 0.0
H900 H 0.63095 0.97255 0.46167 0.0
C901 C 0.69582 0.0209 0.43321 0.0
C902 C 0.66392 0.00864 0.53669 0.0
C903 C 0.71188 0.02495 0.38909 0.0
C904 C 0.58982 0.99658 0.67764 0.0
C905 C 0.60849 0.99611 0.64705 0.0
C906 C 0.63988 0.98282 0.48334 0.0
C907 C 0.68908 1.00084 0.43589 0.0
C908 C 0.67036 0.99746 0.47555 0.0
C909 C 0.61331 0.99421 0.57629 0.0
C910 C 0.63323 0.9946 0.54314 0.0
H911 H 0.72303 0.9763 0.31876 0.0
H912 H 0.6952 0.96892 0.39756 0.0
H913 H 0.66237 0.97555 0.40283 0.0
H914 H 0.56945 0.99172 0.53596 0.0
H915 H 0.60179 0.9914 0.48272 0.0
C916 C 0.49475 0.69464 0.37332 0.0
C917 C 0.50907 0.70252 0.32808 0.0
C918 C 0.4989 0.68085 0.42268 0.0
C919 C 0.53506 0.64089 0.44899 0.0
H920 H 0.5029 0.63587 0.61955 0.0
C921 C 0.53961 0.56873 0.61902 0.0
C922 C 0.52229 0.5604 0.63899 0.0
C923 C 0.54052 0.58826 0.58913 0.0
C924 C 0.51204 0.63709 0.57215 0.0
H925 H 0.53898 0.70319 0.30152 0.0
H926 H 0.54633 0.67915 0.38869 0.0
H927 H 0.50026 0.66757 0.55599 0.0
H928 H 0.49235 0.56631 0.64461 0.0
H929 H 0.49397 0.60008 0.5931 0.0
H930 H 0.54645 0.6101 0.46454 0.0
C931 C 0.53186 0.6835 0.38544 0.0
C932 C 0.51053 0.65524 0.5357 0.0
C933 C 0.52768 0.69745 0.33611 0.0
C934 C 0.50595 0.57212 0.62936 0.0
C935 C 0.50685 0.59164 0.60047 0.0
C936 C 0.53664 0.62274 0.48572 0.0
C937 C 0.51749 0.67452 0.42791 0.0
C938 C 0.52156 0.65709 0.47252 0.0
C939 C 0.52411 0.59994 0.57986 0.0
C940 C 0.52469 0.62037 0.54654 0.0
H941 H 0.48029 0.69831 0.36816 0.0
H942 H 0.48745 0.67414 0.45388 0.0
H943 H 0.54366 0.64167 0.40026 0.0
H944 H 0.55244 0.56012 0.62591 0.0
H945 H 0.55402 0.59429 0.57377 0.0
C946 C 0.83255 0.52674 0.49828 0.0
C947 C 0.82185 0.50933 0.50831 0.0
C948 C 0.84775 0.52903 0.53308 0.0
C949 C 0.88151 0.49492 0.60759 0.0
H950 H 0.90067 0.54656 0.66165 0.0
C951 C 0.94975 0.49438 0.72226 0.0
C952 C 0.9622 0.50973 0.702 0.0
C953 C 0.9316 0.49577 0.70638 0.0
C954 C 0.8956 0.532 0.64627 0.0
H955 H 0.81774 0.48152 0.56594 0.0
H956 H 0.84369 0.48585 0.62857 0.0
H957 H 0.87014 0.54717 0.62387 0.0
H958 H 0.96501 0.53887 0.65012 0.0
H959 H 0.93349 0.54109 0.62131 0.0
H960 H 0.90698 0.47974 0.62803 0.0
C961 C 0.84072 0.49754 0.59283 0.0
C962 C 0.87804 0.53236 0.62478 0.0
C963 C 0.82563 0.49522 0.55787 0.0
C964 C 0.95583 0.52677 0.66668 0.0
C965 C 0.93767 0.5281 0.65044 0.0
C966 C 0.89901 0.49457 0.62878 0.0
C967 C 0.85255 0.51389 0.57852 0.0
C968 C 0.87075 0.5138 0.60511 0.0
C969 C 0.92535 0.51248 0.66933 0.0
C970 C 0.90637 0.51308 0.64837 0.0
H971 H 0.83019 0.53758 0.45928 0.0
H972 H 0.85654 0.54178 0.5205 0.0
H973 H 0.87666 0.48035 0.59117 0.0
H974 H 0.95404 0.48114 0.7502 0.0
H975 H 0.92247 0.48365 0.72316 0.0
loop_
_geom_bond_atom_site_label_1
_geom_bond_atom_site_label_2
_geom_bond_distance
_geom_bond_site_symmetry_2
_ccdc_geom_bond_type
H0 C5 0.930 . S
H1 C8 0.930 . S
H2 C10 0.930 . S
H3 C4 1.016 . S
C4 H3 1.016 . S
C4 N11 1.286 . S
C5 H0 0.930 . S
C5 C6 1.397 . S
C5 C7 1.361 . S
C6 C5 1.397 . S
C6 C10 1.390 . S
C7 C5 1.361 . S
C7 C8 1.393 . S
C7 N11 1.413 . S
C8 H1 0.930 . S
C8 C7 1.393 . S
C8 C9 1.399 . S
C9 C8 1.399 . S
C9 C10 1.381 . S
C10 H2 0.930 . S
C10 C6 1.390 . S
C10 C9 1.381 . S
N11 C4 1.286 . S
N11 C7 1.413 . S
H12 C17 0.930 . S
H13 C20 0.930 . S
H14 C22 0.930 . S
H15 C16 1.016 . S
C16 H15 1.016 . S
C16 N23 1.289 1_655 S
C17 H12 0.930 . S
C17 C18 1.397 . S
C17 C19 1.361 . S
C18 C17 1.397 . S
C18 C22 1.390 . S
C19 C17 1.361 . S
C19 C20 1.393 . S
C19 N23 1.413 1_655 S
C20 H13 0.930 . S
C20 C19 1.393 . S
C20 C21 1.399 . S
C21 C20 1.399 . S
C21 C22 1.381 . S
C22 H14 0.930 . S
C22 C18 1.390 . S
C22 C21 1.381 . S
N23 C16 1.289 1_455 S
N23 C19 1.413 1_455 S
H24 C29 0.930 . S
H25 C32 0.930 . S
H26 C34 0.930 . S
H27 C28 1.016 . S
C28 H27 1.016 . S
C28 N35 1.286 1_565 S
C29 H24 0.930 . S
C29 C30 1.387 1_545 S
C29 C31 1.361 . S
C30 C29 1.387 1_565 S
C30 C34 1.397 . S
C31 C29 1.361 . S
C31 C32 1.393 . S
C31 N35 1.413 . S
C32 H25 0.930 . S
C32 C31 1.393 . S
C32 C33 1.399 1_545 S
C33 C32 1.399 1_565 S
C33 C34 1.381 . S
C34 H26 0.930 . S
C34 C30 1.397 . S
C34 C33 1.381 . S
N35 C28 1.286 1_545 S
N35 C31 1.413 . S
H36 C41 0.930 . S
H37 C44 0.930 . S
H38 C46 0.930 . S
H39 C40 1.016 . S
C40 H39 1.016 . S
C40 N47 1.286 . S
C41 H36 0.930 . S
C41 C42 1.397 . S
C41 C43 1.361 . S
C42 C41 1.397 . S
C42 C46 1.390 . S
C43 C41 1.361 . S
C43 C44 1.393 . S
C43 N47 1.413 . S
C44 H37 0.930 . S
C44 C43 1.393 . S
C44 C45 1.399 . S
C45 C44 1.399 . S
C45 C46 1.381 . S
C46 H38 0.930 . S
C46 C42 1.390 . S
C46 C45 1.381 . S
N47 C40 1.286 . S
N47 C43 1.413 . S
H48 C53 0.930 . S
H49 C56 0.930 . S
H50 C58 0.930 . S
H51 C52 1.016 . S
C52 H51 1.016 . S
C52 N59 1.286 1_554 S
C53 H48 0.930 . S
C53 C54 1.397 . S
C53 C55 1.361 . S
C54 C53 1.397 . S
C54 C58 1.390 . S
C55 C53 1.361 . S
C55 C56 1.393 1_556 S
C55 N59 1.413 . S
C56 H49 0.930 . S
C56 C55 1.393 1_554 S
C56 C57 1.399 . S
C57 C56 1.399 . S
C57 C58 1.381 1_554 S
C58 H50 0.930 . S
C58 C54 1.390 . S
C58 C57 1.381 1_556 S
N59 C52 1.286 1_556 S
N59 C55 1.413 . S
H60 C65 0.930 . S
H61 C68 0.930 . S
H62 C70 0.930 . S
H63 C64 1.016 . S
C64 H63 1.016 . S
C64 N71 1.286 . S
C65 H60 0.930 . S
C65 C66 1.397 . S
C65 C67 1.361 . S
C66 C65 1.397 . S
C66 C70 1.390 . S
C67 C65 1.361 . S
C67 C68 1.393 . S
C67 N71 1.413 . S
C68 H61 0.930 . S
C68 C67 1.393 . S
C68 C69 1.399 . S
C69 C68 1.399 . S
C69 C70 1.381 . S
C70 H62 0.930 . S
C70 C66 1.390 . S
C70 C69 1.381 . S
N71 C64 1.286 . S
N71 C67 1.413 . S
H72 C77 0.930 . S
H73 C80 0.930 . S
H74 C82 0.930 . S
H75 C76 1.031 . S
C76 H75 1.031 . S
C76 N83 1.286 . S
C77 H72 0.930 . S
C77 C78 1.397 . S
C77 C79 1.361 . S
C78 C77 1.397 . S
C78 C82 1.390 . S
C79 C77 1.361 . S
C79 C80 1.393 . S
C79 N83 1.413 . S
C80 H73 0.930 . S
C80 C79 1.393 . S
C80 C81 1.399 . S
C81 C80 1.399 . S
C81 C82 1.381 . S
C82 H74 0.930 . S
C82 C78 1.390 . S
C82 C81 1.381 . S
N83 C76 1.286 . S
N83 C79 1.413 . S
H84 C89 0.930 . S
H85 C92 0.930 . S
H86 C94 0.930 . S
H87 C88 1.016 . S
C88 H87 1.016 . S
C88 N95 1.286 . S
C89 H84 0.930 . S
C89 C90 1.397 . S
C89 C91 1.361 . S
C90 C89 1.397 . S
C90 C94 1.390 . S
C91 C89 1.361 . S
C91 C92 1.393 . S
C91 N95 1.413 . S
C92 H85 0.930 . S
C92 C91 1.393 . S
C92 C93 1.399 . S
C93 C92 1.399 . S
C93 C94 1.381 . S
C94 H86 0.930 . S
C94 C90 1.390 . S
C94 C93 1.381 . S
N95 C88 1.286 . S
N95 C91 1.413 . S
Dy96 O99 2.307 1_545 S
Dy96 O101 2.395 1_655 S
Dy96 O102 2.379 . S
Dy96 O104 2.339 . S
Dy96 O106 2.298 1_655 S
Dy96 O110 2.275 1_655 S
Dy96 C118 2.738 . S
Dy97 O100 2.298 . S
Dy97 O103 2.284 1_455 S
Dy97 O105 2.307 1_565 S
Dy97 O107 2.424 . S
Dy97 O108 2.379 . S
Dy97 O111 2.339 . S
Dy97 C127 2.738 . S
C98 O110 1.255 1_565 S
C98 O111 1.254 . S
O99 Dy96 2.307 1_565 S
O99 C109 1.266 1_655 S
O100 Dy97 2.298 . S
O100 C109 1.236 . S
O101 Dy96 2.395 1_455 S
O101 C118 1.255 1_455 S
O102 Dy96 2.379 . S
O102 C118 1.249 . S
O103 Dy97 2.284 1_655 S
O103 C119 1.248 1_565 S
O104 Dy96 2.339 . S
O104 C119 1.257 . S
O105 Dy97 2.307 1_545 S
O105 C120 1.266 . S
O106 Dy96 2.298 1_455 S
O106 C120 1.236 . S
O107 Dy97 2.424 . S
O107 C127 1.311 . S
O108 Dy97 2.379 . S
O108 C127 1.249 . S
C109 O99 1.266 1_455 S
C109 O100 1.236 . S
O110 Dy96 2.275 1_455 S
O110 C98 1.255 1_545 S
O111 Dy97 2.339 . S
O111 C98 1.254 . S
C112 C115 1.344 1_655 S
C112 C116 1.328 . S
C112 C118 1.516 . S
C113 C114 1.304 1_655 S
C113 C117 1.323 . S
C114 C113 1.304 1_455 S
C114 C115 1.371 . S
C114 H128 0.930 . S
C115 C112 1.344 1_455 S
C115 C114 1.371 . S
C115 H129 0.931 . S
C116 C112 1.328 . S
C116 C117 1.433 . S
C116 H130 0.931 . S
C117 C113 1.323 . S
C117 C116 1.433 . S
C117 H131 0.933 . S
C118 Dy96 2.738 . S
C118 O101 1.255 1_655 S
C118 O102 1.249 . S
C118 C112 1.516 . S
C119 O103 1.248 1_545 S
C119 O104 1.257 . S
C120 O105 1.266 . S
C120 O106 1.236 . S
C121 C124 1.346 . S
C121 C125 1.328 . S
C121 C127 1.516 . S
C122 C123 1.301 . S
C122 C126 1.323 . S
C123 C122 1.301 . S
C123 C124 1.371 . S
C123 H132 0.933 1_455 S
C124 C121 1.346 . S
C124 C123 1.371 . S
C124 H133 0.929 1_455 S
C125 C121 1.328 . S
C125 C126 1.433 . S
C125 H134 0.931 . S
C126 C122 1.323 . S
C126 C125 1.433 . S
C126 H135 0.933 . S
C127 Dy97 2.738 . S
C127 O107 1.311 . S
C127 O108 1.249 . S
C127 C121 1.516 . S
H128 C114 0.930 . S
H129 C115 0.931 . S
H130 C116 0.931 . S
H131 C117 0.933 . S
H132 C123 0.933 1_655 S
H133 C124 0.929 1_655 S
H134 C125 0.931 . S
H135 C126 0.933 . S
Dy136 O139 2.307 . S
Dy136 O141 2.395 1_565 S
Dy136 O142 2.379 . S
Dy136 O144 2.339 . S
Dy136 O146 2.298 . S
Dy136 O150 2.275 1_565 S
Dy136 C158 2.738 . S
Dy137 O140 2.298 . S
Dy137 O143 2.275 1_545 S
Dy137 O145 2.307 . S
Dy137 O147 2.395 1_545 S
Dy137 O148 2.379 . S
Dy137 O151 2.339 . S
Dy137 C167 2.738 . S
C138 O150 1.254 . S
C138 O151 1.257 . S
O139 Dy136 2.307 . S
O139 C149 1.266 . S
O140 Dy137 2.298 . S
O140 C149 1.236 1_545 S
O141 Dy136 2.395 1_545 S
O141 C158 1.255 1_545 S
O142 Dy136 2.379 . S
O142 C158 1.249 . S
O143 Dy137 2.275 1_565 S
O143 C159 1.254 . S
O144 Dy136 2.339 . S
O144 C159 1.257 . S
O145 Dy137 2.307 . S
O145 C160 1.266 . S
O146 Dy136 2.298 . S
O146 C160 1.236 1_565 S
O147 Dy137 2.395 1_565 S
O147 C167 1.255 1_565 S
O148 Dy137 2.379 . S
O148 C167 1.249 . S
C149 O139 1.266 . S
C149 O140 1.236 1_565 S
O150 Dy136 2.275 1_545 S
O150 C138 1.254 . S
O151 Dy137 2.339 . S
O151 C138 1.257 . S
C152 C155 1.344 1_565 S
C152 C156 1.328 . S
C152 C158 1.516 . S
C153 C154 1.304 1_565 S
C153 C157 1.323 . S
C154 C153 1.304 1_545 S
C154 C155 1.371 . S
C154 H168 0.930 . S
C155 C152 1.344 1_545 S
C155 C154 1.371 . S
C155 H169 0.931 . S
C156 C152 1.328 . S
C156 C157 1.433 . S
C156 H170 0.931 . S
C157 C153 1.323 . S
C157 C156 1.433 . S
C157 H171 0.933 . S
C158 Dy136 2.738 . S
C158 O141 1.255 1_565 S
C158 O142 1.249 . S
C158 C152 1.516 . S
C159 O143 1.254 . S
C159 O144 1.257 . S
C160 O145 1.266 . S
C160 O146 1.236 1_545 S
C161 C164 1.344 1_545 S
C161 C165 1.328 . S
C161 C167 1.516 . S
C162 C163 1.304 1_545 S
C162 C166 1.323 . S
C163 C162 1.304 1_565 S
C163 C164 1.371 . S
C163 H172 0.930 . S
C164 C161 1.344 1_565 S
C164 C163 1.371 . S
C164 H173 0.931 . S
C165 C161 1.328 . S
C165 C166 1.433 . S
C165 H174 0.931 . S
C166 C162 1.323 . S
C166 C165 1.433 . S
C166 H175 0.933 . S
C167 Dy137 2.738 . S
C167 O147 1.255 1_545 S
C167 O148 1.249 . S
C167 C161 1.516 . S
H168 C154 0.930 . S
H169 C155 0.931 . S
H170 C156 0.931 . S
H171 C157 0.933 . S
H172 C163 0.930 . S
H173 C164 0.931 . S
H174 C165 0.931 . S
H175 C166 0.933 . S
Dy176 O179 2.307 . S
Dy176 O181 2.395 . S
Dy176 O182 2.379 . S
Dy176 O184 2.339 . S
Dy176 O186 2.298 . S
Dy176 O190 2.275 . S
Dy176 C198 2.738 . S
Dy177 O180 2.298 . S
Dy177 O183 2.275 . S
Dy177 O185 2.307 . S
Dy177 O187 2.395 . S
Dy177 O188 2.379 . S
Dy177 O191 2.339 . S
Dy177 C207 2.738 . S
C178 O190 1.254 . S
C178 O191 1.257 . S
O179 Dy176 2.307 . S
O179 C189 1.266 . S
O180 Dy177 2.298 . S
O180 C189 1.236 . S
O181 Dy176 2.395 . S
O181 C198 1.255 . S
O182 Dy176 2.379 . S
O182 C198 1.249 . S
O183 Dy177 2.275 . S
O183 C199 1.254 . S
O184 Dy176 2.339 . S
O184 C199 1.257 . S
O185 Dy177 2.307 . S
O185 C200 1.266 . S
O186 Dy176 2.298 . S
O186 C200 1.236 . S
O187 Dy177 2.395 . S
O187 C207 1.255 . S
O188 Dy177 2.379 . S
O188 C207 1.249 . S
C189 O179 1.266 . S
C189 O180 1.236 . S
O190 Dy176 2.275 . S
O190 C178 1.254 . S
O191 Dy177 2.339 . S
O191 C178 1.257 . S
C192 C195 1.344 . S
C192 C196 1.328 . S
C192 C198 1.516 . S
C193 C194 1.304 . S
C193 C197 1.323 . S
C194 C193 1.304 . S
C194 C195 1.371 . S
C194 H208 0.930 . S
C195 C192 1.344 . S
C195 C194 1.371 . S
C195 H209 0.931 . S
C196 C192 1.328 . S
C196 C197 1.433 . S
C196 H210 0.931 . S
C197 C193 1.323 . S
C197 C196 1.433 . S
C197 H211 0.933 . S
C198 Dy176 2.738 . S
C198 O181 1.255 . S
C198 O182 1.249 . S
C198 C192 1.516 . S
C199 O183 1.254 . S
C199 O184 1.257 . S
C200 O185 1.266 . S
C200 O186 1.236 . S
C201 C204 1.344 . S
C201 C205 1.328 . S
C201 C207 1.516 . S
C202 C203 1.304 . S
C202 C206 1.323 . S
C203 C202 1.304 . S
C203 C204 1.371 . S
C203 H212 0.930 . S
C204 C201 1.344 . S
C204 C203 1.371 . S
C204 H213 0.931 . S
C205 C201 1.328 . S
C205 C206 1.433 . S
C205 H214 0.931 . S
C206 C202 1.323 . S
C206 C205 1.433 . S
C206 H215 0.933 . S
C207 Dy177 2.738 . S
C207 O187 1.255 . S
C207 O188 1.249 . S
C207 C201 1.516 . S
H208 C194 0.930 . S
H209 C195 0.931 . S
H210 C196 0.931 . S
H211 C197 0.933 . S
H212 C203 0.930 . S
H213 C204 0.931 . S
H214 C205 0.931 . S
H215 C206 0.933 . S
Dy216 O219 2.307 1_455 S
Dy216 O221 2.395 . S
Dy216 O222 2.379 . S
Dy216 O224 2.339 . S
Dy216 O226 2.298 . S
Dy216 O230 2.275 . S
Dy216 C238 2.738 . S
Dy217 O220 2.298 . S
Dy217 O223 2.275 1_655 S
Dy217 O225 2.307 1_655 S
Dy217 O227 2.395 . S
Dy217 O228 2.379 . S
Dy217 O231 2.339 . S
Dy217 C247 2.738 . S
C218 O230 1.254 . S
C218 O231 1.257 1_455 S
O219 Dy216 2.307 1_655 S
O219 C229 1.266 . S
O220 Dy217 2.298 . S
O220 C229 1.236 . S
O221 Dy216 2.395 . S
O221 C238 1.255 . S
O222 Dy216 2.379 . S
O222 C238 1.249 . S
O223 Dy217 2.275 1_455 S
O223 C239 1.254 . S
O224 Dy216 2.339 . S
O224 C239 1.257 . S
O225 Dy217 2.307 1_455 S
O225 C240 1.266 . S
O226 Dy216 2.298 . S
O226 C240 1.236 . S
O227 Dy217 2.395 . S
O227 C247 1.255 . S
O228 Dy217 2.379 . S
O228 C247 1.249 . S
C229 O219 1.266 . S
C229 O220 1.236 . S
O230 Dy216 2.275 . S
O230 C218 1.254 . S
O231 Dy217 2.339 . S
O231 C218 1.257 1_655 S
C232 C235 1.344 . S
C232 C236 1.328 . S
C232 C238 1.516 . S
C233 C234 1.304 . S
C233 C237 1.323 . S
C234 C233 1.304 . S
C234 C235 1.371 . S
C234 H248 0.930 . S
C235 C232 1.344 . S
C235 C234 1.371 . S
C235 H249 0.931 . S
C236 C232 1.328 . S
C236 C237 1.433 . S
C236 H250 0.931 . S
C237 C233 1.323 . S
C237 C236 1.433 . S
C237 H251 0.933 . S
C238 Dy216 2.738 . S
C238 O221 1.255 . S
C238 O222 1.249 . S
C238 C232 1.516 . S
C239 O223 1.254 . S
C239 O224 1.257 . S
C240 O225 1.266 . S
C240 O226 1.236 . S
C241 C244 1.344 . S
C241 C245 1.328 . S
C241 C247 1.516 . S
C242 C243 1.304 . S
C242 C246 1.323 1_554 S
C243 C242 1.304 . S
C243 C244 1.371 1_554 S
C243 H252 0.930 . S
C244 C241 1.344 . S
C244 C243 1.371 1_556 S
C244 H253 0.931 . S
C245 C241 1.328 . S
C245 C246 1.433 . S
C245 H254 0.931 . S
C246 C242 1.323 1_556 S
C246 C245 1.433 . S
C246 H255 0.933 1_556 S
C247 Dy217 2.738 . S
C247 O227 1.255 . S
C247 O228 1.249 . S
C247 C241 1.516 . S
H248 C234 0.930 . S
H249 C235 0.931 . S
H250 C236 0.931 . S
H251 C237 0.933 . S
H252 C243 0.930 . S
H253 C244 0.931 . S
H254 C245 0.931 . S
H255 C246 0.933 1_554 S
C256 C257 1.349 1_565 S
C256 C258 1.327 . S
C256 H281 0.950 . S
C257 C256 1.349 1_545 S
C257 C273 1.349 . S
C258 C256 1.327 . S
C258 C277 1.429 1_565 S
C258 H282 0.950 . S
C259 C276 1.574 . S
C259 C278 1.368 . S
C259 H283 0.949 . S
H260 C264 0.949 . S
C261 C262 1.349 . S
C261 C263 1.327 . S
C261 H284 0.950 . S
C262 C261 1.349 . S
C262 C274 1.349 1_545 S
C263 C261 1.327 . S
C263 C279 1.429 . S
C263 H285 0.950 . S
C264 H260 0.949 . S
C264 C272 1.574 . S
C264 C280 1.368 1_565 S
H265 C273 0.950 . S
H266 C271 0.950 . S
H267 C272 0.949 . S
H268 C274 0.950 . S
H269 C275 0.950 . S
H270 C276 0.949 . S
C271 H266 0.950 . S
C271 C273 1.327 . S
C271 C277 1.429 . S
C272 C264 1.574 . S
C272 H267 0.949 . S
C272 C278 1.368 1_565 S
C273 C257 1.349 . S
C273 H265 0.950 . S
C273 C271 1.327 . S
C274 C262 1.349 1_565 S
C274 H268 0.950 . S
C274 C275 1.327 . S
C275 H269 0.950 . S
C275 C274 1.327 . S
C275 C279 1.429 1_565 S
C276 C259 1.574 . S
C276 H270 0.949 . S
C276 C280 1.368 . S
C277 C258 1.429 1_545 S
C277 C271 1.429 . S
C277 C278 1.523 . S
C278 C259 1.368 . S
C278 C272 1.368 1_545 S
C278 C277 1.523 . S
C279 C263 1.429 . S
C279 C275 1.429 1_545 S
C279 C280 1.523 . S
C280 C264 1.368 1_545 S
C280 C276 1.368 . S
C280 C279 1.523 . S
H281 C256 0.950 . S
H282 C258 0.950 . S
H283 C259 0.949 . S
H284 C261 0.950 . S
H285 C263 0.950 . S
C286 C287 1.349 . S
C286 C288 1.327 . S
C286 H311 0.950 . S
C287 C286 1.349 . S
C287 C303 1.349 . S
C288 C286 1.327 . S
C288 C307 1.429 . S
C288 H312 0.950 . S
C289 C306 1.574 . S
C289 C308 1.368 . S
C289 H313 0.949 . S
H290 C294 0.949 . S
C291 C292 1.349 . S
C291 C293 1.327 . S
C291 H314 0.950 . S
C292 C291 1.349 . S
C292 C304 1.349 . S
C293 C291 1.327 . S
C293 C309 1.429 . S
C293 H315 0.950 . S
C294 H290 0.949 . S
C294 C302 1.574 . S
C294 C310 1.368 . S
H295 C303 0.950 . S
H296 C301 0.950 . S
H297 C302 0.949 . S
H298 C304 0.950 . S
H299 C305 0.950 . S
H300 C306 0.949 . S
C301 H296 0.950 . S
C301 C303 1.327 . S
C301 C307 1.429 . S
C302 C294 1.574 . S
C302 H297 0.949 . S
C302 C308 1.368 . S
C303 C287 1.349 . S
C303 H295 0.950 . S
C303 C301 1.327 . S
C304 C292 1.349 . S
C304 H298 0.950 . S
C304 C305 1.327 . S
C305 H299 0.950 . S
C305 C304 1.327 . S
C305 C309 1.429 . S
C306 C289 1.574 . S
C306 H300 0.949 . S
C306 C310 1.368 . S
C307 C288 1.429 . S
C307 C301 1.429 . S
C307 C308 1.523 . S
C308 C289 1.368 . S
C308 C302 1.368 . S
C308 C307 1.523 . S
C309 C293 1.429 . S
C309 C305 1.429 . S
C309 C310 1.523 . S
C310 C294 1.368 . S
C310 C306 1.368 . S
C310 C309 1.523 . S
H311 C286 0.950 . S
H312 C288 0.950 . S
H313 C289 0.949 . S
H314 C291 0.950 . S
H315 C293 0.950 . S
C316 C317 1.349 . S
C316 C318 1.327 . S
C316 H341 0.950 . S
C317 C316 1.349 . S
C317 C333 1.349 . S
C318 C316 1.327 . S
C318 C337 1.429 . S
C318 H342 0.950 . S
C319 C336 1.574 . S
C319 C338 1.368 . S
C319 H343 0.949 . S
H320 C324 0.949 . S
C321 C322 1.349 . S
C321 C323 1.327 . S
C321 H344 0.950 . S
C322 C321 1.349 . S
C322 C334 1.349 . S
C323 C321 1.327 . S
C323 C339 1.429 . S
C323 H345 0.950 . S
C324 H320 0.949 . S
C324 C332 1.574 . S
C324 C340 1.368 . S
H325 C333 0.950 . S
H326 C331 0.950 . S
H327 C332 0.949 . S
H328 C334 0.950 . S
H329 C335 0.950 . S
H330 C336 0.949 . S
C331 H326 0.950 . S
C331 C333 1.327 . S
C331 C337 1.429 . S
C332 C324 1.574 . S
C332 H327 0.949 . S
C332 C338 1.368 . S
C333 C317 1.349 . S
C333 H325 0.950 . S
C333 C331 1.327 . S
C334 C322 1.349 . S
C334 H328 0.950 . S
C334 C335 1.327 . S
C335 H329 0.950 . S
C335 C334 1.327 . S
C335 C339 1.429 . S
C336 C319 1.574 . S
C336 H330 0.949 . S
C336 C340 1.368 . S
C337 C318 1.429 . S
C337 C331 1.429 . S
C337 C338 1.523 . S
C338 C319 1.368 . S
C338 C332 1.368 . S
C338 C337 1.523 . S
C339 C323 1.429 . S
C339 C335 1.429 . S
C339 C340 1.523 . S
C340 C324 1.368 . S
C340 C336 1.368 . S
C340 C339 1.523 . S
H341 C316 0.950 . S
H342 C318 0.950 . S
H343 C319 0.949 . S
H344 C321 0.950 . S
H345 C323 0.950 . S
C346 C347 1.349 . S
C346 C348 1.327 . S
C346 H371 0.950 . S
C347 C346 1.349 . S
C347 C363 1.349 . S
C348 C346 1.327 . S
C348 C367 1.429 . S
C348 H372 0.950 . S
C349 C366 1.574 . S
C349 C368 1.368 . S
C349 H373 0.949 . S
H350 C354 0.949 . S
C351 C352 1.349 . S
C351 C353 1.327 . S
C351 H374 0.950 . S
C352 C351 1.349 . S
C352 C364 1.349 . S
C353 C351 1.327 . S
C353 C369 1.429 . S
C353 H375 0.950 . S
C354 H350 0.949 . S
C354 C362 1.574 . S
C354 C370 1.368 . S
H355 C363 0.950 . S
H356 C361 0.950 . S
H357 C362 0.949 . S
H358 C364 0.950 . S
H359 C365 0.950 . S
H360 C366 0.949 . S
C361 H356 0.950 . S
C361 C363 1.327 . S
C361 C367 1.429 . S
C362 C354 1.574 . S
C362 H357 0.949 . S
C362 C368 1.368 . S
C363 C347 1.349 . S
C363 H355 0.950 . S
C363 C361 1.327 . S
C364 C352 1.349 . S
C364 H358 0.950 . S
C364 C365 1.327 . S
C365 H359 0.950 . S
C365 C364 1.327 . S
C365 C369 1.429 . S
C366 C349 1.574 . S
C366 H360 0.949 . S
C366 C370 1.368 . S
C367 C348 1.429 . S
C367 C361 1.429 . S
C367 C368 1.523 . S
C368 C349 1.368 . S
C368 C362 1.368 . S
C368 C367 1.523 . S
C369 C353 1.429 . S
C369 C365 1.429 . S
C369 C370 1.523 . S
C370 C354 1.368 . S
C370 C366 1.368 . S
C370 C369 1.523 . S
H371 C346 0.950 . S
H372 C348 0.950 . S
H373 C349 0.949 . S
H374 C351 0.950 . S
H375 C353 0.950 . S
C376 C377 1.349 . S
C376 C378 1.327 . S
C376 H401 0.950 . S
C377 C376 1.349 . S
C377 C393 1.349 1_565 S
C378 C376 1.327 . S
C378 C397 1.461 . S
C378 H402 0.950 . S
C379 C396 1.574 . S
C379 C398 1.349 1_545 S
C379 H403 0.949 . S
H380 C384 0.949 . S
C381 C382 1.349 . S
C381 C383 1.327 . S
C381 H404 0.950 . S
C382 C381 1.349 . S
C382 C394 1.349 1_545 S
C383 C381 1.327 . S
C383 C399 1.443 . S
C383 H405 0.950 . S
C384 H380 0.949 . S
C384 C392 1.574 . S
C384 C400 1.369 1_565 S
H385 C393 0.950 . S
H386 C391 0.950 . S
H387 C392 0.949 . S
H388 C394 0.950 . S
H389 C395 0.950 . S
H390 C396 0.949 . S
C391 H386 0.950 . S
C391 C393 1.327 . S
C391 C397 1.401 1_545 S
C392 C384 1.574 . S
C392 H387 0.949 . S
C392 C398 1.386 1_556 S
C393 C377 1.349 1_545 S
C393 H385 0.950 . S
C393 C391 1.327 . S
C394 C382 1.349 1_565 S
C394 H388 0.950 . S
C394 C395 1.327 . S
C395 H389 0.950 . S
C395 C394 1.327 . S
C395 C399 1.417 1_565 S
C396 C379 1.574 . S
C396 H390 0.949 . S
C396 C400 1.367 1_554 S
C397 C378 1.461 . S
C397 C391 1.401 1_565 S
C397 C398 1.521 . S
C398 C379 1.349 1_565 S
C398 C392 1.386 1_554 S
C398 C397 1.521 . S
C399 C383 1.443 . S
C399 C395 1.417 1_545 S
C399 C400 1.521 . S
C400 C384 1.369 1_545 S
C400 C396 1.367 1_556 S
C400 C399 1.521 . S
H401 C376 0.950 . S
H402 C378 0.950 . S
H403 C379 0.949 . S
H404 C381 0.950 . S
H405 C383 0.950 . S
C406 C407 1.349 . S
C406 C408 1.327 . S
C406 H431 0.950 . S
C407 C406 1.349 . S
C407 C423 1.349 1_554 S
C408 C406 1.327 . S
C408 C427 1.429 1_554 S
C408 H432 0.950 . S
C409 C426 1.574 . S
C409 C428 1.368 . S
C409 H433 0.949 . S
H410 C414 0.949 . S
C411 C412 1.349 . S
C411 C413 1.327 . S
C411 H434 0.950 . S
C412 C411 1.349 . S
C412 C424 1.349 . S
C413 C411 1.327 . S
C413 C429 1.429 . S
C413 H435 0.950 . S
C414 H410 0.949 . S
C414 C422 1.574 . S
C414 C430 1.368 . S
H415 C423 0.950 . S
H416 C421 0.950 . S
H417 C422 0.949 1_554 S
H418 C424 0.950 . S
H419 C425 0.950 . S
H420 C426 0.949 . S
C421 H416 0.950 . S
C421 C423 1.327 . S
C421 C427 1.429 . S
C422 C414 1.574 . S
C422 H417 0.949 1_556 S
C422 C428 1.368 . S
C423 C407 1.349 1_556 S
C423 H415 0.950 . S
C423 C421 1.327 . S
C424 C412 1.349 . S
C424 H418 0.950 . S
C424 C425 1.327 . S
C425 H419 0.950 . S
C425 C424 1.327 . S
C425 C429 1.429 . S
C426 C409 1.574 . S
C426 H420 0.949 . S
C426 C430 1.368 . S
C427 C408 1.429 1_556 S
C427 C421 1.429 . S
C427 C428 1.523 . S
C428 C409 1.368 . S
C428 C422 1.368 . S
C428 C427 1.523 . S
C429 C413 1.429 . S
C429 C425 1.429 . S
C429 C430 1.523 . S
C430 C414 1.368 . S
C430 C426 1.368 . S
C430 C429 1.523 . S
H431 C406 0.950 . S
H432 C408 0.950 . S
H433 C409 0.949 . S
H434 C411 0.950 . S
H435 C413 0.950 . S
C436 C437 1.349 . S
C436 C438 1.327 . S
C436 H461 0.950 . S
C437 C436 1.349 . S
C437 C453 1.349 . S
C438 C436 1.327 . S
C438 C457 1.429 . S
C438 H462 0.950 . S
C439 C456 1.574 . S
C439 C458 1.368 . S
C439 H463 0.949 . S
H440 C444 0.949 . S
C441 C442 1.349 1_554 S
C441 C443 1.327 . S
C441 H464 0.950 . S
C442 C441 1.349 1_556 S
C442 C454 1.349 . S
C443 C441 1.327 . S
C443 C459 1.429 . S
C443 H465 0.950 . S
C444 H440 0.949 . S
C444 C452 1.574 . S
C444 C460 1.368 . S
H445 C453 0.950 . S
H446 C451 0.950 . S
H447 C452 0.949 . S
H448 C454 0.950 . S
H449 C455 0.950 . S
H450 C456 0.949 . S
C451 H446 0.950 . S
C451 C453 1.327 . S
C451 C457 1.429 . S
C452 C444 1.574 . S
C452 H447 0.949 . S
C452 C458 1.368 . S
C453 C437 1.349 . S
C453 H445 0.950 . S
C453 C451 1.327 . S
C454 C442 1.349 . S
C454 H448 0.950 . S
C454 C455 1.327 1_556 S
C455 H449 0.950 . S
C455 C454 1.327 1_554 S
C455 C459 1.429 . S
C456 C439 1.574 . S
C456 H450 0.949 . S
C456 C460 1.368 . S
C457 C438 1.429 . S
C457 C451 1.429 . S
C457 C458 1.523 . S
C458 C439 1.368 . S
C458 C452 1.368 . S
C458 C457 1.523 . S
C459 C443 1.429 . S
C459 C455 1.429 . S
C459 C460 1.523 . S
C460 C444 1.368 . S
C460 C456 1.368 . S
C460 C459 1.523 . S
H461 C436 0.950 . S
H462 C438 0.950 . S
H463 C439 0.949 . S
H464 C441 0.950 . S
H465 C443 0.950 . S
C466 C467 1.349 1_455 S
C466 C468 1.327 . S
C466 H491 0.950 . S
C467 C466 1.349 1_655 S
C467 C483 1.349 . S
C468 C466 1.327 . S
C468 C487 1.429 1_455 S
C468 H492 0.950 . S
C469 C486 1.574 . S
C469 C488 1.368 . S
C469 H493 0.949 . S
H470 C474 0.949 1_556 S
C471 C472 1.349 1_655 S
C471 C473 1.327 . S
C471 H494 0.950 . S
C472 C471 1.349 1_455 S
C472 C484 1.349 . S
C473 C471 1.327 . S
C473 C489 1.409 1_655 S
C473 H495 0.950 . S
C474 H470 0.949 1_554 S
C474 C482 1.574 . S
C474 C490 1.314 1_455 S
H475 C483 0.950 . S
H476 C481 0.950 . S
H477 C482 0.949 . S
H478 C484 0.950 . S
H479 C485 0.950 . S
H480 C486 0.949 . S
C481 H476 0.950 . S
C481 C483 1.327 . S
C481 C487 1.429 . S
C482 C474 1.574 . S
C482 H477 0.949 . S
C482 C488 1.368 1_455 S
C483 C467 1.349 . S
C483 H475 0.950 . S
C483 C481 1.327 . S
C484 C472 1.349 . S
C484 H478 0.950 . S
C484 C485 1.327 . S
C485 H479 0.950 . S
C485 C484 1.327 . S
C485 C489 1.445 . S
C486 C469 1.574 . S
C486 H480 0.949 . S
C486 C490 1.419 . S
C487 C468 1.429 1_655 S
C487 C481 1.429 . S
C487 C488 1.523 . S
C488 C469 1.368 . S
C488 C482 1.368 1_655 S
C488 C487 1.523 . S
C489 C473 1.409 1_455 S
C489 C485 1.445 . S
C489 C490 1.533 1_456 S
C490 C474 1.314 1_655 S
C490 C486 1.419 . S
C490 C489 1.533 1_654 S
H491 C466 0.950 . S
H492 C468 0.950 . S
H493 C469 0.949 . S
H494 C471 0.950 . S
H495 C473 0.950 . S
C496 C497 1.349 . S
C496 C498 1.327 . S
C496 H521 0.950 . S
C497 C496 1.349 . S
C497 C513 1.349 . S
C498 C496 1.327 . S
C498 C517 1.429 . S
C498 H522 0.950 . S
C499 C516 1.574 . S
C499 C518 1.368 . S
C499 H523 0.949 . S
H500 C504 0.949 . S
C501 C502 1.349 . S
C501 C503 1.327 1_655 S
C501 H524 0.950 . S
C502 C501 1.349 . S
C502 C514 1.349 . S
C503 C501 1.327 1_455 S
C503 C519 1.429 . S
C503 H525 0.950 . S
C504 H500 0.949 . S
C504 C512 1.574 . S
C504 C520 1.368 . S
H505 C513 0.950 . S
H506 C511 0.950 . S
H507 C512 0.949 . S
H508 C514 0.950 . S
H509 C515 0.950 . S
H510 C516 0.949 . S
C511 H506 0.950 . S
C511 C513 1.327 . S
C511 C517 1.429 . S
C512 C504 1.574 . S
C512 H507 0.949 . S
C512 C518 1.368 . S
C513 C497 1.349 . S
C513 H505 0.950 . S
C513 C511 1.327 . S
C514 C502 1.349 . S
C514 H508 0.950 . S
C514 C515 1.327 . S
C515 H509 0.950 . S
C515 C514 1.327 . S
C515 C519 1.429 1_655 S
C516 C499 1.574 . S
C516 H510 0.949 . S
C516 C520 1.368 . S
C517 C498 1.429 . S
C517 C511 1.429 . S
C517 C518 1.523 . S
C518 C499 1.368 . S
C518 C512 1.368 . S
C518 C517 1.523 . S
C519 C503 1.429 . S
C519 C515 1.429 1_455 S
C519 C520 1.523 . S
C520 C504 1.368 . S
C520 C516 1.368 . S
C520 C519 1.523 . S
H521 C496 0.950 . S
H522 C498 0.950 . S
H523 C499 0.949 . S
H524 C501 0.950 . S
H525 C503 0.950 . S
C526 C527 1.349 . S
C526 C528 1.327 . S
C526 H551 0.950 . S
C527 C526 1.349 . S
C527 C543 1.349 1_545 S
C528 C526 1.327 . S
C528 C547 1.429 . S
C528 H552 0.950 . S
C529 C546 1.574 . S
C529 C548 1.368 . S
C529 H553 0.949 . S
H530 C534 0.949 . S
C531 C532 1.349 . S
C531 C533 1.327 . S
C531 H554 0.950 . S
C532 C531 1.349 . S
C532 C544 1.349 1_565 S
C533 C531 1.327 . S
C533 C549 1.429 . S
C533 H555 0.950 . S
C534 H530 0.949 . S
C534 C542 1.574 . S
C534 C550 1.368 1_545 S
H535 C543 0.950 . S
H536 C541 0.950 . S
H537 C542 0.949 . S
H538 C544 0.950 . S
H539 C545 0.950 . S
H540 C546 0.949 . S
C541 H536 0.950 . S
C541 C543 1.327 . S
C541 C547 1.429 1_565 S
C542 C534 1.574 . S
C542 H537 0.949 . S
C542 C548 1.368 1_545 S
C543 C527 1.349 1_565 S
C543 H535 0.950 . S
C543 C541 1.327 . S
C544 C532 1.349 1_545 S
C544 H538 0.950 . S
C544 C545 1.327 . S
C545 H539 0.950 . S
C545 C544 1.327 . S
C545 C549 1.429 1_545 S
C546 C529 1.574 . S
C546 H540 0.949 . S
C546 C550 1.368 . S
C547 C528 1.429 . S
C547 C541 1.429 1_545 S
C547 C548 1.523 1_545 S
C548 C529 1.368 . S
C548 C542 1.368 1_565 S
C548 C547 1.523 1_565 S
C549 C533 1.429 . S
C549 C545 1.429 1_565 S
C549 C550 1.523 . S
C550 C534 1.368 1_565 S
C550 C546 1.368 . S
C550 C549 1.523 . S
H551 C526 0.950 . S
H552 C528 0.950 . S
H553 C529 0.949 . S
H554 C531 0.950 . S
H555 C533 0.950 . S
C556 C557 1.349 . S
C556 C558 1.327 . S
C556 H581 0.950 . S
C557 C556 1.349 . S
C557 C573 1.349 . S
C558 C556 1.327 . S
C558 C577 1.429 . S
C558 H582 0.950 . S
C559 C576 1.574 . S
C559 C578 1.368 . S
C559 H583 0.949 . S
H560 C564 0.949 . S
C561 C562 1.349 . S
C561 C563 1.327 . S
C561 H584 0.950 . S
C562 C561 1.349 . S
C562 C574 1.349 . S
C563 C561 1.327 . S
C563 C579 1.429 . S
C563 H585 0.950 . S
C564 H560 0.949 . S
C564 C572 1.574 . S
C564 C580 1.368 . S
H565 C573 0.950 . S
H566 C571 0.950 . S
H567 C572 0.949 . S
H568 C574 0.950 . S
H569 C575 0.950 . S
H570 C576 0.949 . S
C571 H566 0.950 . S
C571 C573 1.327 . S
C571 C577 1.429 . S
C572 C564 1.574 . S
C572 H567 0.949 . S
C572 C578 1.368 . S
C573 C557 1.349 . S
C573 H565 0.950 . S
C573 C571 1.327 . S
C574 C562 1.349 . S
C574 H568 0.950 . S
C574 C575 1.327 . S
C575 H569 0.950 . S
C575 C574 1.327 . S
C575 C579 1.429 . S
C576 C559 1.574 . S
C576 H570 0.949 . S
C576 C580 1.368 . S
C577 C558 1.429 . S
C577 C571 1.429 . S
C577 C578 1.523 . S
C578 C559 1.368 . S
C578 C572 1.368 . S
C578 C577 1.523 . S
C579 C563 1.429 . S
C579 C575 1.429 . S
C579 C580 1.523 . S
C580 C564 1.368 . S
C580 C576 1.368 . S
C580 C579 1.523 . S
H581 C556 0.950 . S
H582 C558 0.950 . S
H583 C559 0.949 . S
H584 C561 0.950 . S
H585 C563 0.950 . S
C586 C587 1.349 . S
C586 C588 1.327 . S
C586 H611 0.950 . S
C587 C586 1.349 . S
C587 C603 1.349 . S
C588 C586 1.327 . S
C588 C607 1.429 . S
C588 H612 0.950 . S
C589 C606 1.574 . S
C589 C608 1.368 . S
C589 H613 0.949 . S
H590 C594 0.949 . S
C591 C592 1.349 . S
C591 C593 1.327 . S
C591 H614 0.950 . S
C592 C591 1.349 . S
C592 C604 1.349 . S
C593 C591 1.327 . S
C593 C609 1.429 . S
C593 H615 0.950 . S
C594 H590 0.949 . S
C594 C602 1.574 . S
C594 C610 1.368 . S
H595 C603 0.950 . S
H596 C601 0.950 . S
H597 C602 0.949 . S
H598 C604 0.950 . S
H599 C605 0.950 . S
H600 C606 0.949 . S
C601 H596 0.950 . S
C601 C603 1.327 . S
C601 C607 1.429 . S
C602 C594 1.574 . S
C602 H597 0.949 . S
C602 C608 1.368 . S
C603 C587 1.349 . S
C603 H595 0.950 . S
C603 C601 1.327 . S
C604 C592 1.349 . S
C604 H598 0.950 . S
C604 C605 1.327 . S
C605 H599 0.950 . S
C605 C604 1.327 . S
C605 C609 1.429 . S
C606 C589 1.574 . S
C606 H600 0.949 . S
C606 C610 1.368 . S
C607 C588 1.429 . S
C607 C601 1.429 . S
C607 C608 1.523 . S
C608 C589 1.368 . S
C608 C602 1.368 . S
C608 C607 1.523 . S
C609 C593 1.429 . S
C609 C605 1.429 . S
C609 C610 1.523 . S
C610 C594 1.368 . S
C610 C606 1.368 . S
C610 C609 1.523 . S
H611 C586 0.950 . S
H612 C588 0.950 . S
H613 C589 0.949 . S
H614 C591 0.950 . S
H615 C593 0.950 . S
C616 C617 1.349 . S
C616 C618 1.327 . S
C616 H641 0.950 . S
C617 C616 1.349 . S
C617 C633 1.349 1_655 S
C618 C616 1.327 . S
C618 C637 1.429 . S
C618 H642 0.950 . S
C619 C636 1.574 . S
C619 C638 1.368 . S
C619 H643 0.949 . S
H620 C624 0.949 . S
C621 C622 1.349 1_554 S
C621 C623 1.327 . S
C621 H644 0.950 . S
C622 C621 1.349 1_556 S
C622 C634 1.349 . S
C623 C621 1.327 . S
C623 C639 1.429 . S
C623 H645 0.950 . S
C624 H620 0.949 . S
C624 C632 1.574 . S
C624 C640 1.368 1_655 S
H625 C633 0.950 . S
H626 C631 0.950 . S
H627 C632 0.949 . S
H628 C634 0.950 . S
H629 C635 0.950 1_655 S
H630 C636 0.949 . S
C631 H626 0.950 . S
C631 C633 1.327 . S
C631 C637 1.429 1_455 S
C632 C624 1.574 . S
C632 H627 0.949 . S
C632 C638 1.368 1_655 S
C633 C617 1.349 1_455 S
C633 H625 0.950 . S
C633 C631 1.327 . S
C634 C622 1.349 . S
C634 H628 0.950 . S
C634 C635 1.327 . S
C635 H629 0.950 1_455 S
C635 C634 1.327 . S
C635 C639 1.429 1_556 S
C636 C619 1.574 . S
C636 H630 0.949 . S
C636 C640 1.368 . S
C637 C618 1.429 . S
C637 C631 1.429 1_655 S
C637 C638 1.523 1_655 S
C638 C619 1.368 . S
C638 C632 1.368 1_455 S
C638 C637 1.523 1_455 S
C639 C623 1.429 . S
C639 C635 1.429 1_554 S
C639 C640 1.523 . S
C640 C624 1.368 1_455 S
C640 C636 1.368 . S
C640 C639 1.523 . S
H641 C616 0.950 . S
H642 C618 0.950 . S
H643 C619 0.949 . S
H644 C621 0.950 . S
H645 C623 0.950 . S
C646 C647 1.349 1_545 S
C646 C648 1.327 . S
C646 H671 0.950 . S
C647 C646 1.349 1_565 S
C647 C663 1.349 . S
C648 C646 1.327 . S
C648 C667 1.429 . S
C648 H672 0.950 . S
C649 C666 1.574 . S
C649 C668 1.368 1_565 S
C649 H673 0.949 . S
H650 C654 0.949 . S
C651 C652 1.349 1_554 S
C651 C653 1.327 1_545 S
C651 H674 0.950 1_545 S
C652 C651 1.349 1_556 S
C652 C664 1.349 . S
C653 C651 1.327 1_565 S
C653 C669 1.429 1_565 S
C653 H675 0.950 . S
C654 H650 0.949 . S
C654 C662 1.574 . S
C654 C670 1.368 . S
H655 C663 0.950 . S
H656 C661 0.950 . S
H657 C662 0.949 . S
H658 C664 0.950 . S
H659 C665 0.950 . S
H660 C666 0.949 . S
C661 H656 0.950 . S
C661 C663 1.327 . S
C661 C667 1.429 1_565 S
C662 C654 1.574 . S
C662 H657 0.949 . S
C662 C668 1.368 . S
C663 C647 1.349 . S
C663 H655 0.950 . S
C663 C661 1.327 . S
C664 C652 1.349 . S
C664 H658 0.950 . S
C664 C665 1.327 . S
C665 H659 0.950 . S
C665 C664 1.327 . S
C665 C669 1.429 1_556 S
C666 C649 1.574 . S
C666 H660 0.949 . S
C666 C670 1.368 1_565 S
C667 C648 1.429 . S
C667 C661 1.429 1_545 S
C667 C668 1.523 . S
C668 C649 1.368 1_545 S
C668 C662 1.368 . S
C668 C667 1.523 . S
C669 C653 1.429 1_545 S
C669 C665 1.429 1_554 S
C669 C670 1.523 . S
C670 C654 1.368 . S
C670 C666 1.368 1_545 S
C670 C669 1.523 . S
H671 C646 0.950 . S
H672 C648 0.950 . S
H673 C649 0.949 . S
H674 C651 0.950 1_565 S
H675 C653 0.950 . S
C676 C677 1.349 1_556 S
C676 C678 1.327 . S
C676 H701 0.950 . S
C677 C676 1.349 1_554 S
C677 C693 1.349 . S
C678 C676 1.327 . S
C678 C697 1.429 1_556 S
C678 H702 0.950 . S
C679 C696 1.574 1_554 S
C679 C698 1.368 1_554 S
C679 H703 0.949 . S
H680 C684 0.949 . S
C681 C682 1.349 . S
C681 C683 1.327 . S
C681 H704 0.950 . S
C682 C681 1.349 . S
C682 C694 1.349 . S
C683 C681 1.327 . S
C683 C699 1.429 . S
C683 H705 0.950 . S
C684 H680 0.949 . S
C684 C692 1.574 . S
C684 C700 1.368 . S
H685 C693 0.950 . S
H686 C691 0.950 . S
H687 C692 0.949 . S
H688 C694 0.950 . S
H689 C695 0.950 . S
H690 C696 0.949 1_554 S
C691 H686 0.950 . S
C691 C693 1.327 . S
C691 C697 1.429 . S
C692 C684 1.574 . S
C692 H687 0.949 . S
C692 C698 1.368 . S
C693 C677 1.349 . S
C693 H685 0.950 . S
C693 C691 1.327 . S
C694 C682 1.349 . S
C694 H688 0.950 . S
C694 C695 1.327 . S
C695 H689 0.950 . S
C695 C694 1.327 . S
C695 C699 1.429 . S
C696 C679 1.574 1_556 S
C696 H690 0.949 1_556 S
C696 C700 1.368 . S
C697 C678 1.429 1_554 S
C697 C691 1.429 . S
C697 C698 1.523 1_554 S
C698 C679 1.368 1_556 S
C698 C692 1.368 . S
C698 C697 1.523 1_556 S
C699 C683 1.429 . S
C699 C695 1.429 . S
C699 C700 1.523 . S
C700 C684 1.368 . S
C700 C696 1.368 . S
C700 C699 1.523 . S
H701 C676 0.950 . S
H702 C678 0.950 . S
H703 C679 0.949 . S
H704 C681 0.950 . S
H705 C683 0.950 . S
C706 C707 1.349 . S
C706 C708 1.327 . S
C706 H731 0.950 . S
C707 C706 1.349 . S
C707 C723 1.349 . S
C708 C706 1.327 . S
C708 C727 1.429 . S
C708 H732 0.950 . S
C709 C726 1.574 . S
C709 C728 1.368 . S
C709 H733 0.949 . S
H710 C714 0.949 . S
C711 C712 1.349 . S
C711 C713 1.327 . S
C711 H734 0.950 . S
C712 C711 1.349 . S
C712 C724 1.349 . S
C713 C711 1.327 . S
C713 C729 1.429 . S
C713 H735 0.950 . S
C714 H710 0.949 . S
C714 C722 1.574 . S
C714 C730 1.368 . S
H715 C723 0.950 . S
H716 C721 0.950 . S
H717 C722 0.949 . S
H718 C724 0.950 1_556 S
H719 C725 0.950 . S
H720 C726 0.949 . S
C721 H716 0.950 . S
C721 C723 1.327 . S
C721 C727 1.429 . S
C722 C714 1.574 . S
C722 H717 0.949 . S
C722 C728 1.368 . S
C723 C707 1.349 . S
C723 H715 0.950 . S
C723 C721 1.327 . S
C724 C712 1.349 . S
C724 H718 0.950 1_554 S
C724 C725 1.327 . S
C725 H719 0.950 . S
C725 C724 1.327 . S
C725 C729 1.429 . S
C726 C709 1.574 . S
C726 H720 0.949 . S
C726 C730 1.368 . S
C727 C708 1.429 . S
C727 C721 1.429 . S
C727 C728 1.523 . S
C728 C709 1.368 . S
C728 C722 1.368 . S
C728 C727 1.523 . S
C729 C713 1.429 . S
C729 C725 1.429 . S
C729 C730 1.523 . S
C730 C714 1.368 . S
C730 C726 1.368 . S
C730 C729 1.523 . S
H731 C706 0.950 . S
H732 C708 0.950 . S
H733 C709 0.949 . S
H734 C711 0.950 . S
H735 C713 0.950 . S
C736 C737 1.349 . S
C736 C738 1.327 . S
C736 H761 0.950 . S
C737 C736 1.349 . S
C737 C753 1.349 1_556 S
C738 C736 1.327 . S
C738 C757 1.429 . S
C738 H762 0.950 . S
C739 C756 1.574 . S
C739 C758 1.368 . S
C739 H763 0.949 1_556 S
H740 C744 0.949 . S
C741 C742 1.349 . S
C741 C743 1.327 . S
C741 H764 0.950 . S
C742 C741 1.349 . S
C742 C754 1.349 . S
C743 C741 1.327 . S
C743 C759 1.429 . S
C743 H765 0.950 . S
C744 H740 0.949 . S
C744 C752 1.574 . S
C744 C760 1.368 . S
H745 C753 0.950 . S
H746 C751 0.950 . S
H747 C752 0.949 . S
H748 C754 0.950 . S
H749 C755 0.950 . S
H750 C756 0.949 . S
C751 H746 0.950 . S
C751 C753 1.327 . S
C751 C757 1.429 1_554 S
C752 C744 1.574 . S
C752 H747 0.949 . S
C752 C758 1.368 . S
C753 C737 1.349 1_554 S
C753 H745 0.950 . S
C753 C751 1.327 . S
C754 C742 1.349 . S
C754 H748 0.950 . S
C754 C755 1.327 . S
C755 H749 0.950 . S
C755 C754 1.327 . S
C755 C759 1.429 . S
C756 C739 1.574 . S
C756 H750 0.949 . S
C756 C760 1.368 . S
C757 C738 1.429 . S
C757 C751 1.429 1_556 S
C757 C758 1.523 . S
C758 C739 1.368 . S
C758 C752 1.368 . S
C758 C757 1.523 . S
C759 C743 1.429 . S
C759 C755 1.429 . S
C759 C760 1.523 . S
C760 C744 1.368 . S
C760 C756 1.368 . S
C760 C759 1.523 . S
H761 C736 0.950 . S
H762 C738 0.950 . S
H763 C739 0.949 1_554 S
H764 C741 0.950 . S
H765 C743 0.950 . S
C766 C767 1.349 . S
C766 C768 1.327 . S
C766 H791 0.950 . S
C767 C766 1.349 . S
C767 C783 1.349 1_545 S
C768 C766 1.327 . S
C768 C787 1.429 . S
C768 H792 0.950 . S
C769 C786 1.574 . S
C769 C788 1.368 1_565 S
C769 H793 0.949 . S
H770 C774 0.949 . S
C771 C772 1.349 1_565 S
C771 C773 1.327 . S
C771 H794 0.950 . S
C772 C771 1.349 1_545 S
C772 C784 1.349 . S
C773 C771 1.327 . S
C773 C789 1.429 1_565 S
C773 H795 0.950 . S
C774 H770 0.949 . S
C774 C782 1.574 . S
C774 C790 1.368 . S
H775 C783 0.950 . S
H776 C781 0.950 . S
H777 C782 0.949 1_554 S
H778 C784 0.950 . S
H779 C785 0.950 . S
H780 C786 0.949 . S
C781 H776 0.950 . S
C781 C783 1.327 1_556 S
C781 C787 1.429 1_566 S
C782 C774 1.574 . S
C782 H777 0.949 1_556 S
C782 C788 1.368 . S
C783 C767 1.349 1_565 S
C783 H775 0.950 . S
C783 C781 1.327 1_554 S
C784 C772 1.349 . S
C784 H778 0.950 . S
C784 C785 1.327 . S
C785 H779 0.950 . S
C785 C784 1.327 . S
C785 C789 1.429 . S
C786 C769 1.574 . S
C786 H780 0.949 . S
C786 C790 1.368 1_565 S
C787 C768 1.429 . S
C787 C781 1.429 1_544 S
C787 C788 1.523 1_554 S
C788 C769 1.368 1_545 S
C788 C782 1.368 . S
C788 C787 1.523 1_556 S
C789 C773 1.429 1_545 S
C789 C785 1.429 . S
C789 C790 1.523 . S
C790 C774 1.368 . S
C790 C786 1.368 1_545 S
C790 C789 1.523 . S
H791 C766 0.950 . S
H792 C768 0.950 . S
H793 C769 0.949 . S
H794 C771 0.950 . S
H795 C773 0.950 . S
C796 C797 1.349 . S
C796 C798 1.327 . S
C796 H821 0.950 . S
C797 C796 1.349 . S
C797 C813 1.349 . S
C798 C796 1.327 . S
C798 C817 1.429 . S
C798 H822 0.950 . S
C799 C816 1.574 1_554 S
C799 C818 1.368 . S
C799 H823 0.949 . S
H800 C804 0.949 . S
C801 C802 1.349 . S
C801 C803 1.327 . S
C801 H824 0.950 . S
C802 C801 1.349 . S
C802 C814 1.349 . S
C803 C801 1.327 . S
C803 C819 1.429 . S
C803 H825 0.950 . S
C804 H800 0.949 . S
C804 C812 1.574 . S
C804 C820 1.368 . S
H805 C813 0.950 . S
H806 C811 0.950 . S
H807 C812 0.949 . S
H808 C814 0.950 . S
H809 C815 0.950 1_554 S
H810 C816 0.949 . S
C811 H806 0.950 . S
C811 C813 1.327 . S
C811 C817 1.429 . S
C812 C804 1.574 . S
C812 H807 0.949 . S
C812 C818 1.368 . S
C813 C797 1.349 . S
C813 H805 0.950 . S
C813 C811 1.327 . S
C814 C802 1.349 . S
C814 H808 0.950 . S
C814 C815 1.327 . S
C815 H809 0.950 1_556 S
C815 C814 1.327 . S
C815 C819 1.429 . S
C816 C799 1.574 1_556 S
C816 H810 0.949 . S
C816 C820 1.368 1_556 S
C817 C798 1.429 . S
C817 C811 1.429 . S
C817 C818 1.523 . S
C818 C799 1.368 . S
C818 C812 1.368 . S
C818 C817 1.523 . S
C819 C803 1.429 . S
C819 C815 1.429 . S
C819 C820 1.523 1_556 S
C820 C804 1.368 . S
C820 C816 1.368 1_554 S
C820 C819 1.523 1_554 S
H821 C796 0.950 . S
H822 C798 0.950 . S
H823 C799 0.949 . S
H824 C801 0.950 . S
H825 C803 0.950 . S
C826 C827 1.349 . S
C826 C828 1.327 . S
C826 H851 0.950 . S
C827 C826 1.349 . S
C827 C843 1.349 . S
C828 C826 1.327 . S
C828 C847 1.429 . S
C828 H852 0.950 . S
C829 C846 1.574 . S
C829 C848 1.368 . S
C829 H853 0.949 . S
H830 C834 0.949 . S
C831 C832 1.349 . S
C831 C833 1.327 . S
C831 H854 0.950 . S
C832 C831 1.349 . S
C832 C844 1.349 . S
C833 C831 1.327 . S
C833 C849 1.429 . S
C833 H855 0.950 . S
C834 H830 0.949 . S
C834 C842 1.574 . S
C834 C850 1.368 . S
H835 C843 0.950 . S
H836 C841 0.950 . S
H837 C842 0.949 . S
H838 C844 0.950 . S
H839 C845 0.950 . S
H840 C846 0.949 . S
C841 H836 0.950 . S
C841 C843 1.327 . S
C841 C847 1.429 . S
C842 C834 1.574 . S
C842 H837 0.949 . S
C842 C848 1.368 . S
C843 C827 1.349 . S
C843 H835 0.950 . S
C843 C841 1.327 . S
C844 C832 1.349 . S
C844 H838 0.950 . S
C844 C845 1.327 . S
C845 H839 0.950 . S
C845 C844 1.327 . S
C845 C849 1.429 . S
C846 C829 1.574 . S
C846 H840 0.949 . S
C846 C850 1.368 . S
C847 C828 1.429 . S
C847 C841 1.429 . S
C847 C848 1.523 . S
C848 C829 1.368 . S
C848 C842 1.368 . S
C848 C847 1.523 . S
C849 C833 1.429 . S
C849 C845 1.429 . S
C849 C850 1.523 . S
C850 C834 1.368 . S
C850 C846 1.368 . S
C850 C849 1.523 . S
H851 C826 0.950 . S
H852 C828 0.950 . S
H853 C829 0.949 . S
H854 C831 0.950 . S
H855 C833 0.950 . S
C856 C857 1.349 . S
C856 C858 1.327 . S
C856 H881 0.950 . S
C857 C856 1.349 . S
C857 C873 1.369 . S
C858 C856 1.327 . S
C858 C877 1.429 . S
C858 H882 0.950 . S
C859 C876 1.574 . S
C859 C878 1.368 1_455 S
C859 H883 0.949 . S
H860 C864 0.949 . S
C861 C862 1.349 1_455 S
C861 C863 1.327 . S
C861 H884 0.950 . S
C862 C861 1.349 1_655 S
C862 C874 1.349 . S
C863 C861 1.327 . S
C863 C879 1.429 1_455 S
C863 H885 0.950 . S
C864 H860 0.949 . S
C864 C872 1.574 . S
C864 C880 1.368 . S
H865 C873 0.937 1_455 S
H866 C871 0.950 . S
H867 C872 0.949 . S
H868 C874 0.950 . S
H869 C875 0.950 . S
H870 C876 0.949 . S
C871 H866 0.950 . S
C871 C873 1.322 1_455 S
C871 C877 1.428 1_455 S
C872 C864 1.574 . S
C872 H867 0.949 . S
C872 C878 1.368 . S
C873 C857 1.369 . S
C873 H865 0.937 1_655 S
C873 C871 1.322 1_655 S
C874 C862 1.349 . S
C874 H868 0.950 . S
C874 C875 1.327 . S
C875 H869 0.950 . S
C875 C874 1.327 . S
C875 C879 1.429 . S
C876 C859 1.574 . S
C876 H870 0.949 . S
C876 C880 1.368 1_455 S
C877 C858 1.429 . S
C877 C871 1.428 1_655 S
C877 C878 1.523 . S
C878 C859 1.368 1_655 S
C878 C872 1.368 . S
C878 C877 1.523 . S
C879 C863 1.429 1_655 S
C879 C875 1.429 . S
C879 C880 1.523 . S
C880 C864 1.368 . S
C880 C876 1.368 1_655 S
C880 C879 1.523 . S
H881 C856 0.950 . S
H882 C858 0.950 . S
H883 C859 0.949 . S
H884 C861 0.950 . S
H885 C863 0.950 . S
C886 C887 1.349 . S
C886 C888 1.327 . S
C886 H911 0.950 . S
C887 C886 1.349 . S
C887 C903 1.349 1_565 S
C888 C886 1.327 . S
C888 C907 1.429 . S
C888 H912 0.950 . S
C889 C906 1.574 . S
C889 C908 1.368 1_545 S
C889 H913 0.949 . S
H890 C894 0.949 . S
C891 C892 1.349 1_545 S
C891 C893 1.327 . S
C891 H914 0.950 . S
C892 C891 1.349 1_565 S
C892 C904 1.349 . S
C893 C891 1.327 . S
C893 C909 1.429 1_545 S
C893 H915 0.950 . S
C894 H890 0.949 . S
C894 C902 1.574 . S
C894 C910 1.368 . S
H895 C903 0.950 . S
H896 C901 0.950 . S
H897 C902 0.949 . S
H898 C904 0.950 . S
H899 C905 0.950 . S
H900 C906 0.949 . S
C901 H896 0.950 . S
C901 C903 1.327 . S
C901 C907 1.429 1_545 S
C902 C894 1.574 . S
C902 H897 0.949 . S
C902 C908 1.368 . S
C903 C887 1.349 1_545 S
C903 H895 0.950 . S
C903 C901 1.327 . S
C904 C892 1.349 . S
C904 H898 0.950 . S
C904 C905 1.327 . S
C905 H899 0.950 . S
C905 C904 1.327 . S
C905 C909 1.429 . S
C906 C889 1.574 . S
C906 H900 0.949 . S
C906 C910 1.368 1_545 S
C907 C888 1.429 . S
C907 C901 1.429 1_565 S
C907 C908 1.523 . S
C908 C889 1.368 1_565 S
C908 C902 1.368 . S
C908 C907 1.523 . S
C909 C893 1.429 1_565 S
C909 C905 1.429 . S
C909 C910 1.523 . S
C910 C894 1.368 . S
C910 C906 1.368 1_565 S
C910 C909 1.523 . S
H911 C886 0.950 . S
H912 C888 0.950 . S
H913 C889 0.949 . S
H914 C891 0.950 . S
H915 C893 0.950 . S
C916 C917 1.349 . S
C916 C918 1.327 . S
C916 H941 0.950 . S
C917 C916 1.349 . S
C917 C933 1.349 . S
C918 C916 1.327 . S
C918 C937 1.429 . S
C918 H942 0.950 . S
C919 C936 1.574 . S
C919 C938 1.368 . S
C919 H943 0.949 . S
H920 C924 0.949 . S
C921 C922 1.349 . S
C921 C923 1.327 . S
C921 H944 0.950 . S
C922 C921 1.349 . S
C922 C934 1.349 . S
C923 C921 1.327 . S
C923 C939 1.429 . S
C923 H945 0.950 . S
C924 H920 0.949 . S
C924 C932 1.574 . S
C924 C940 1.368 . S
H925 C933 0.950 . S
H926 C931 0.950 . S
H927 C932 0.949 . S
H928 C934 0.950 . S
H929 C935 0.950 . S
H930 C936 0.949 . S
C931 H926 0.950 . S
C931 C933 1.327 . S
C931 C937 1.429 . S
C932 C924 1.574 . S
C932 H927 0.949 . S
C932 C938 1.368 . S
C933 C917 1.349 . S
C933 H925 0.950 . S
C933 C931 1.327 . S
C934 C922 1.349 . S
C934 H928 0.950 . S
C934 C935 1.327 . S
C935 H929 0.950 . S
C935 C934 1.327 . S
C935 C939 1.429 . S
C936 C919 1.574 . S
C936 H930 0.949 . S
C936 C940 1.368 . S
C937 C918 1.429 . S
C937 C931 1.429 . S
C937 C938 1.523 . S
C938 C919 1.368 . S
C938 C932 1.368 . S
C938 C937 1.523 . S
C939 C923 1.429 . S
C939 C935 1.429 . S
C939 C940 1.523 . S
C940 C924 1.368 . S
C940 C936 1.368 . S
C940 C939 1.523 . S
H941 C916 0.950 . S
H942 C918 0.950 . S
H943 C919 0.949 . S
H944 C921 0.950 . S
H945 C923 0.950 . S
C946 C947 1.349 . S
C946 C948 1.327 . S
C946 H971 0.950 . S
C947 C946 1.349 . S
C947 C963 1.349 . S
C948 C946 1.327 . S
C948 C967 1.429 . S
C948 H972 0.950 . S
C949 C966 1.574 . S
C949 C968 1.368 . S
C949 H973 0.949 . S
H950 C954 0.949 . S
C951 C952 1.349 . S
C951 C953 1.327 . S
C951 H974 0.950 . S
C952 C951 1.349 . S
C952 C964 1.349 . S
C953 C951 1.327 . S
C953 C969 1.429 . S
C953 H975 0.950 . S
C954 H950 0.949 . S
C954 C962 1.574 . S
C954 C970 1.368 . S
H955 C963 0.950 . S
H956 C961 0.950 . S
H957 C962 0.949 . S
H958 C964 0.950 . S
H959 C965 0.950 . S
H960 C966 0.949 . S
C961 H956 0.950 . S
C961 C963 1.327 . S
C961 C967 1.429 . S
C962 C954 1.574 . S
C962 H957 0.949 . S
C962 C968 1.368 . S
C963 C947 1.349 . S
C963 H955 0.950 . S
C963 C961 1.327 . S
C964 C952 1.349 . S
C964 H958 0.950 . S
C964 C965 1.327 . S
C965 H959 0.950 . S
C965 C964 1.327 . S
C965 C969 1.429 . S
C966 C949 1.574 . S
C966 H960 0.949 . S
C966 C970 1.368 . S
C967 C948 1.429 . S
C967 C961 1.429 . S
C967 C968 1.523 . S
C968 C949 1.368 . S
C968 C962 1.368 . S
C968 C967 1.523 . S
C969 C953 1.429 . S
C969 C965 1.429 . S
C969 C970 1.523 . S
C970 C954 1.368 . S
C970 C966 1.368 . S
C970 C969 1.523 . S
H971 C946 0.950 . S
H972 C948 0.950 . S
H973 C949 0.949 . S
H974 C951 0.950 . S
H975 C953 0.950 . S
C257 C76 1.864 . S
C262 C98 1.921 1_545 S
C292 C138 2.070 . S
C287 C88 2.036 . S
C322 C202 1.843 . S
C317 C52 1.734 . S
C352 C218 1.471 . S
C347 C64 1.357 . S
C382 C119 1.920 . S
C377 C28 1.865 . S
C407 C40 2.045 . S
C412 C159 2.071 . S
C437 C4 1.741 . S
C442 C193 1.843 . S
C467 C16 1.358 . S
C472 C239 1.469 . S
C502 C113 0.289 . S
C497 C69 0.288 . S
C532 C153 0.570 . S
C527 C81 0.581 . S
C562 C189 0.441 . S
C557 C93 0.443 . S
C587 C57 0.383 . S
C592 C233 0.447 . S
C617 C21 0.310 . S
C622 C122 0.289 . S
C652 C162 0.569 . S
C647 C33 0.583 . S
C682 C200 0.440 . S
C677 C45 0.458 . S
C707 C9 0.407 . S
C712 C242 0.448 . S
C737 C66 1.807 1_556 S
C742 C120 1.962 . S
C767 C78 1.786 . S
C772 C160 1.911 . S
C802 C178 1.493 . S
C797 C90 1.488 . S
C832 C240 2.316 . S
C827 C54 2.128 . S
C857 C18 1.803 . S
C862 C109 1.960 1_655 S
C892 C149 1.912 . S
C887 C30 1.793 . S
C922 C199 1.494 . S
C917 C42 1.479 . S
C947 C6 2.118 . S
C952 C229 2.315 . S
