# Generated by pormake.
# Topology ctn, (3,4)-cn, num edge types: 1
# Building blocks:
#     Node 0, Type 0, BuildingBlock: CUQRIR_clean_linker_1, # of connection points: 3
#     Node 1, Type 0, BuildingBlock: CUQRIR_clean_linker_1, # of connection points: 3
#     Node 2, Type 0, BuildingBlock: CUQRIR_clean_linker_1, # of connection points: 3
#     Node 3, Type 0, BuildingBlock: CUQRIR_clean_linker_1, # of connection points: 3
#     Node 4, Type 0, BuildingBlock: CUQRIR_clean_linker_1, # of connection points: 3
#     Node 5, Type 0, BuildingBlock: CUQRIR_clean_linker_1, # of connection points: 3
#     Node 6, Type 0, BuildingBlock: CUQRIR_clean_linker_1, # of connection points: 3
#     Node 7, Type 0, BuildingBlock: CUQRIR_clean_linker_1, # of connection points: 3
#     Node 8, Type 0, BuildingBlock: CUQRIR_clean_linker_1, # of connection points: 3
#     Node 9, Type 0, BuildingBlock: CUQRIR_clean_linker_1, # of connection points: 3
#     Node 10, Type 0, BuildingBlock: CUQRIR_clean_linker_1, # of connection points: 3
#     Node 11, Type 0, BuildingBlock: CUQRIR_clean_linker_1, # of connection points: 3
#     Node 12, Type 0, BuildingBlock: CUQRIR_clean_linker_1, # of connection points: 3
#     Node 13, Type 0, BuildingBlock: CUQRIR_clean_linker_1, # of connection points: 3
#     Node 14, Type 0, BuildingBlock: CUQRIR_clean_linker_1, # of connection points: 3
#     Node 15, Type 0, BuildingBlock: CUQRIR_clean_linker_1, # of connection points: 3
#     Node 16, Type 1, BuildingBlock: NAHDIM_clean_sbu_0, # of connection points: 4
#     Node 17, Type 1, BuildingBlock: NAHDIM_clean_sbu_0, # of connection points: 4
#     Node 18, Type 1, BuildingBlock: NAHDIM_clean_sbu_0, # of connection points: 4
#     Node 19, Type 1, BuildingBlock: NAHDIM_clean_sbu_0, # of connection points: 4
#     Node 20, Type 1, BuildingBlock: NAHDIM_clean_sbu_0, # of connection points: 4
#     Node 21, Type 1, BuildingBlock: NAHDIM_clean_sbu_0, # of connection points: 4
#     Node 22, Type 1, BuildingBlock: NAHDIM_clean_sbu_0, # of connection points: 4
#     Node 23, Type 1, BuildingBlock: NAHDIM_clean_sbu_0, # of connection points: 4
#     Node 24, Type 1, BuildingBlock: NAHDIM_clean_sbu_0, # of connection points: 4
#     Node 25, Type 1, BuildingBlock: NAHDIM_clean_sbu_0, # of connection points: 4
#     Node 26, Type 1, BuildingBlock: NAHDIM_clean_sbu_0, # of connection points: 4
#     Node 27, Type 1, BuildingBlock: NAHDIM_clean_sbu_0, # of connection points: 4
#     Edge 28, Type (0, 1), BuildingBlock: XUDNAN_clean_linker_2, # of connection points: 2
#     Edge 29, Type (0, 1), BuildingBlock: XUDNAN_clean_linker_2, # of connection points: 2
#     Edge 30, Type (0, 1), BuildingBlock: XUDNAN_clean_linker_2, # of connection points: 2
#     Edge 31, Type (0, 1), BuildingBlock: XUDNAN_clean_linker_2, # of connection points: 2
#     Edge 32, Type (0, 1), BuildingBlock: XUDNAN_clean_linker_2, # of connection points: 2
#     Edge 33, Type (0, 1), BuildingBlock: XUDNAN_clean_linker_2, # of connection points: 2
#     Edge 34, Type (0, 1), BuildingBlock: XUDNAN_clean_linker_2, # of connection points: 2
#     Edge 35, Type (0, 1), BuildingBlock: XUDNAN_clean_linker_2, # of connection points: 2
#     Edge 36, Type (0, 1), BuildingBlock: XUDNAN_clean_linker_2, # of connection points: 2
#     Edge 37, Type (0, 1), BuildingBlock: XUDNAN_clean_linker_2, # of connection points: 2
#     Edge 38, Type (0, 1), BuildingBlock: XUDNAN_clean_linker_2, # of connection points: 2
#     Edge 39, Type (0, 1), BuildingBlock: XUDNAN_clean_linker_2, # of connection points: 2
#     Edge 40, Type (0, 1), BuildingBlock: XUDNAN_clean_linker_2, # of connection points: 2
#     Edge 41, Type (0, 1), BuildingBlock: XUDNAN_clean_linker_2, # of connection points: 2
#     Edge 42, Type (0, 1), BuildingBlock: XUDNAN_clean_linker_2, # of connection points: 2
#     Edge 43, Type (0, 1), BuildingBlock: XUDNAN_clean_linker_2, # of connection points: 2
#     Edge 44, Type (0, 1), BuildingBlock: XUDNAN_clean_linker_2, # of connection points: 2
#     Edge 45, Type (0, 1), BuildingBlock: XUDNAN_clean_linker_2, # of connection points: 2
#     Edge 46, Type (0, 1), BuildingBlock: XUDNAN_clean_linker_2, # of connection points: 2
#     Edge 47, Type (0, 1), BuildingBlock: XUDNAN_clean_linker_2, # of connection points: 2
#     Edge 48, Type (0, 1), BuildingBlock: XUDNAN_clean_linker_2, # of connection points: 2
#     Edge 49, Type (0, 1), BuildingBlock: XUDNAN_clean_linker_2, # of connection points: 2
#     Edge 50, Type (0, 1), BuildingBlock: XUDNAN_clean_linker_2, # of connection points: 2
#     Edge 51, Type (0, 1), BuildingBlock: XUDNAN_clean_linker_2, # of connection points: 2
#     Edge 52, Type (0, 1), BuildingBlock: XUDNAN_clean_linker_2, # of connection points: 2
#     Edge 53, Type (0, 1), BuildingBlock: XUDNAN_clean_linker_2, # of connection points: 2
#     Edge 54, Type (0, 1), BuildingBlock: XUDNAN_clean_linker_2, # of connection points: 2
#     Edge 55, Type (0, 1), BuildingBlock: XUDNAN_clean_linker_2, # of connection points: 2
#     Edge 56, Type (0, 1), BuildingBlock: XUDNAN_clean_linker_2, # of connection points: 2
#     Edge 57, Type (0, 1), BuildingBlock: XUDNAN_clean_linker_2, # of connection points: 2
#     Edge 58, Type (0, 1), BuildingBlock: XUDNAN_clean_linker_2, # of connection points: 2
#     Edge 59, Type (0, 1), BuildingBlock: XUDNAN_clean_linker_2, # of connection points: 2
#     Edge 60, Type (0, 1), BuildingBlock: XUDNAN_clean_linker_2, # of connection points: 2
#     Edge 61, Type (0, 1), BuildingBlock: XUDNAN_clean_linker_2, # of connection points: 2
#     Edge 62, Type (0, 1), BuildingBlock: XUDNAN_clean_linker_2, # of connection points: 2
#     Edge 63, Type (0, 1), BuildingBlock: XUDNAN_clean_linker_2, # of connection points: 2
#     Edge 64, Type (0, 1), BuildingBlock: XUDNAN_clean_linker_2, # of connection points: 2
#     Edge 65, Type (0, 1), BuildingBlock: XUDNAN_clean_linker_2, # of connection points: 2
#     Edge 66, Type (0, 1), BuildingBlock: XUDNAN_clean_linker_2, # of connection points: 2
#     Edge 67, Type (0, 1), BuildingBlock: XUDNAN_clean_linker_2, # of connection points: 2
#     Edge 68, Type (0, 1), BuildingBlock: XUDNAN_clean_linker_2, # of connection points: 2
#     Edge 69, Type (0, 1), BuildingBlock: XUDNAN_clean_linker_2, # of connection points: 2
#     Edge 70, Type (0, 1), BuildingBlock: XUDNAN_clean_linker_2, # of connection points: 2
#     Edge 71, Type (0, 1), BuildingBlock: XUDNAN_clean_linker_2, # of connection points: 2
#     Edge 72, Type (0, 1), BuildingBlock: XUDNAN_clean_linker_2, # of connection points: 2
#     Edge 73, Type (0, 1), BuildingBlock: XUDNAN_clean_linker_2, # of connection points: 2
#     Edge 74, Type (0, 1), BuildingBlock: XUDNAN_clean_linker_2, # of connection points: 2
#     Edge 75, Type (0, 1), BuildingBlock: XUDNAN_clean_linker_2, # of connection points: 2
# Relax obj value: 0.079
# Max RMSD: 0.205
# Mean RMSD: 0.128
data_MOF--net-ctn--node1-NAHDIM_clean_sbu_0--node2-CUQRIR_clean_linker_1--edge1-XUDNAN_clean_linker_2
_symmetry_space_group_name_H-M    P1
_symmetry_Int_Tables_number       1
_symmetry_cell_setting            triclinic
loop_
_symmetry_equiv_pos_as_xyz
'x, y, z'
_cell_length_a     51.696286
_cell_length_b     48.327219
_cell_length_c     49.172052
_cell_angle_alpha  97.847465
_cell_angle_beta   88.888328
_cell_angle_gamma 94.83882
loop_
_atom_site_label
_atom_site_type_symbol
_atom_site_fract_x
_atom_site_fract_y
_atom_site_fract_z
_atom_type_partial_charge
C0 C 0.04333 0.01782 0.07832 0.0
N1 N 0.05517 0.02592 0.05548 0.0
N2 N 0.02387 0.03404 0.08655 0.0
C3 C 0.05027 0.99378 0.09251 0.0
C4 C 0.024 0.05224 0.06801 0.0
N5 N 0.04269 0.04699 0.04868 0.0
C6 C 0.00693 0.07622 0.0699 0.0
H7 H 0.03313 0.9848 0.10322 0.0
H8 H 0.06532 1.00155 0.10812 0.0
H9 H 0.05801 0.97704 0.07764 0.0
H10 H 0.01783 0.09512 0.06359 0.0
H11 H 0.99914 0.08145 0.09097 0.0
H12 H 0.99025 0.0702 0.05587 0.0
C13 C 0.28945 0.73513 0.21628 0.0
N14 N 0.29724 0.72309 0.23772 0.0
N15 N 0.3063 0.75705 0.21175 0.0
C16 C 0.26607 0.7246 0.19888 0.0
C17 C 0.32467 0.75789 0.23126 0.0
N18 N 0.31898 0.73746 0.24734 0.0
C19 C 0.34882 0.77776 0.23379 0.0
H20 H 0.27191 0.70869 0.18194 0.0
H21 H 0.2581 0.74172 0.18968 0.0
H22 H 0.25059 0.71465 0.21116 0.0
H23 H 0.34702 0.79355 0.25219 0.0
H24 H 0.35194 0.78911 0.21574 0.0
H25 H 0.36601 0.76618 0.23657 0.0
C26 C 0.9713 0.49792 0.07977 0.0
N27 N 0.98797 0.47758 0.07655 0.0
N28 N 0.95239 0.4926 0.06067 0.0
C29 C 0.97361 0.52313 0.10148 0.0
C30 C 0.95809 0.46812 0.04573 0.0
N31 N 0.9797 0.45882 0.05551 0.0
C32 C 0.94243 0.4531 0.02182 0.0
H33 H 0.96313 0.51778 0.12021 0.0
H34 H 0.96484 0.54111 0.09453 0.0
H35 H 0.9942 0.52934 0.10695 0.0
H36 H 0.93043 0.46726 0.01263 0.0
H37 H 0.92913 0.43636 0.02907 0.0
H38 H 0.95537 0.44319 0.00575 0.0
C39 C 0.68117 0.77675 0.22168 0.0
N40 N 0.70136 0.79103 0.21025 0.0
N41 N 0.67503 0.79026 0.24659 0.0
C42 C 0.66727 0.74975 0.20864 0.0
C43 C 0.69201 0.81328 0.24998 0.0
N44 N 0.70778 0.81401 0.22773 0.0
C45 C 0.69399 0.83443 0.27551 0.0
H46 H 0.64699 0.74749 0.21629 0.0
H47 H 0.67742 0.73194 0.21405 0.0
H48 H 0.6672 0.74867 0.18595 0.0
H49 H 0.71465 0.8398 0.28123 0.0
H50 H 0.68314 0.82674 0.29303 0.0
H51 H 0.6858 0.8539 0.27132 0.0
C52 C 0.03299 0.96232 0.48421 0.0
N53 N 0.05364 0.96917 0.50116 0.0
N54 N 0.03338 0.97953 0.4647 0.0
C55 C 0.0133 0.93767 0.48552 0.0
C56 C 0.05521 0.99675 0.46986 0.0
N57 N 0.06787 0.99027 0.49182 0.0
C58 C 0.06382 0.02 0.45341 0.0
H59 H 0.02264 0.91964 0.49164 0.0
H60 H 1.0034 0.93102 0.46563 0.0
H61 H 0.99826 0.94372 0.50109 0.0
H62 H 0.04689 0.02817 0.44459 0.0
H63 H 0.07634 0.01169 0.43614 0.0
H64 H 0.07497 0.03748 0.46626 0.0
C65 C 0.18359 0.73019 0.80524 0.0
N66 N 0.20535 0.72189 0.81551 0.0
N67 N 0.17539 0.71223 0.78297 0.0
C68 C 0.1702 0.7557 0.81704 0.0
C69 C 0.19295 0.69276 0.77991 0.0
N70 N 0.21145 0.69886 0.79949 0.0
C71 C 0.1917 0.66748 0.75824 0.0
H72 H 0.15875 0.76358 0.80135 0.0
H73 H 0.18451 0.77276 0.82599 0.0
H74 H 0.15667 0.75006 0.83357 0.0
H75 H 0.17195 0.66248 0.74962 0.0
H76 H 0.19788 0.649 0.76678 0.0
H77 H 0.20517 0.67181 0.74121 0.0
C78 C 0.96241 0.52725 0.46489 0.0
N79 N 0.97948 0.54995 0.46434 0.0
N80 N 0.94429 0.53223 0.48471 0.0
C81 C 0.96414 0.49964 0.44696 0.0
C82 C 0.95103 0.55878 0.49646 0.0
N83 N 0.97239 0.56978 0.48391 0.0
C84 C 0.93889 0.57238 0.5225 0.0
H85 H 0.94477 0.48782 0.44462 0.0
H86 H 0.97735 0.48697 0.45663 0.0
H87 H 0.97217 0.50292 0.42643 0.0
H88 H 0.95396 0.58409 0.53634 0.0
H89 H 0.92776 0.55676 0.53366 0.0
H90 H 0.92534 0.58742 0.51724 0.0
C91 C 0.77729 0.78623 0.81876 0.0
N92 N 0.79809 0.77109 0.81315 0.0
N93 N 0.7765 0.80573 0.80152 0.0
C94 C 0.757 0.78098 0.84025 0.0
C95 C 0.79767 0.80198 0.7852 0.0
N96 N 0.81089 0.78095 0.79224 0.0
C97 C 0.80395 0.81688 0.7606 0.0
H98 H 0.7444 0.76185 0.83269 0.0
H99 H 0.74485 0.7989 0.84497 0.0
H100 H 0.76625 0.77727 0.85944 0.0
H101 H 0.81803 0.83519 0.76678 0.0
H102 H 0.78636 0.82453 0.75257 0.0
H103 H 0.81293 0.80292 0.74391 0.0
C104 C 0.2825 0.30762 0.32417 0.0
N105 N 0.30025 0.28867 0.31707 0.0
N106 N 0.28503 0.32824 0.30805 0.0
C107 C 0.26356 0.30684 0.34779 0.0
C108 C 0.3052 0.32162 0.29122 0.0
N109 N 0.3148 0.29776 0.29691 0.0
C110 C 0.31535 0.33857 0.2692 0.0
H111 H 0.25654 0.32772 0.3547 0.0
H112 H 0.27259 0.2992 0.36535 0.0
H113 H 0.24648 0.2922 0.3411 0.0
H114 H 0.33112 0.35411 0.27782 0.0
H115 H 0.29989 0.3502 0.26181 0.0
H116 H 0.32326 0.32493 0.25154 0.0
C117 C 0.47719 1.00014 0.57844 0.0
N118 N 0.48762 0.97543 0.57924 0.0
N119 N 0.45901 0.99751 0.55855 0.0
C120 C 0.48312 0.02622 0.59855 0.0
C121 C 0.45864 0.97028 0.54736 0.0
N122 N 0.47581 0.95683 0.56007 0.0
C123 C 0.44234 0.9571 0.52324 0.0
H124 H 0.46638 0.03931 0.60087 0.0
H125 H 0.50004 0.03871 0.59089 0.0
H126 H 0.48804 0.02085 0.61895 0.0
H127 H 0.4519 0.93967 0.51111 0.0
H128 H 0.43853 0.97284 0.50968 0.0
H129 H 0.42347 0.94844 0.53094 0.0
C130 C 0.18948 0.27309 0.72187 0.0
N131 N 0.20922 0.28667 0.7091 0.0
N132 N 0.18324 0.28842 0.74587 0.0
C133 C 0.17794 0.24382 0.71229 0.0
C134 C 0.19991 0.3117 0.74737 0.0
N135 N 0.21592 0.31054 0.72518 0.0
C136 C 0.19925 0.33635 0.76963 0.0
H137 H 0.16171 0.24491 0.69814 0.0
H138 H 0.17019 0.23334 0.7298 0.0
H139 H 0.19259 0.23099 0.70107 0.0
H140 H 0.21309 0.33398 0.78596 0.0
H141 H 0.17958 0.33743 0.77894 0.0
H142 H 0.20501 0.35627 0.76142 0.0
C143 C 0.78602 0.22545 0.73121 0.0
N144 N 0.79448 0.2134 0.75227 0.0
N145 N 0.80182 0.24837 0.72726 0.0
C146 C 0.76147 0.21588 0.7154 0.0
C147 C 0.82026 0.24981 0.74679 0.0
N148 N 0.81586 0.22844 0.76197 0.0
C149 C 0.84198 0.2726 0.7518 0.0
H150 H 0.76666 0.20461 0.6951 0.0
H151 H 0.75108 0.2342 0.71177 0.0
H152 H 0.7483 0.20157 0.72616 0.0
H153 H 0.84063 0.28328 0.77318 0.0
H154 H 0.84164 0.28817 0.73725 0.0
H155 H 0.8609 0.26326 0.74956 0.0
C156 C 0.55199 0.52651 0.59178 0.0
N157 N 0.56164 0.5325 0.56721 0.0
N158 N 0.53217 0.54225 0.59998 0.0
C159 C 0.56077 0.50418 0.60723 0.0
C160 C 0.52983 0.55797 0.57958 0.0
N161 N 0.5475 0.55177 0.55934 0.0
C162 C 0.5122 0.58143 0.58097 0.0
H163 H 0.54476 0.49611 0.62012 0.0
H164 H 0.57698 0.51331 0.62096 0.0
H165 H 0.56765 0.48648 0.59291 0.0
H166 H 0.5218 0.59948 0.57189 0.0
H167 H 0.50643 0.5887 0.60243 0.0
H168 H 0.49436 0.57378 0.56913 0.0
C169 C 0.5278 0.45745 0.97438 0.0
N170 N 0.54815 0.46552 0.99132 0.0
N171 N 0.52742 0.47427 0.9546 0.0
C172 C 0.50781 0.43359 0.97763 0.0
C173 C 0.54825 0.49304 0.96018 0.0
N174 N 0.56078 0.48793 0.98278 0.0
C175 C 0.5578 0.51442 0.94193 0.0
H176 H 0.51516 0.41373 0.96766 0.0
H177 H 0.48922 0.43647 0.96787 0.0
H178 H 0.50424 0.43174 0.99966 0.0
H179 H 0.5501 0.50883 0.92082 0.0
H180 H 0.57933 0.51643 0.94092 0.0
H181 H 0.5512 0.53508 0.95058 0.0
C182 C 0.68935 0.23123 0.32631 0.0
N183 N 0.70993 0.22007 0.33609 0.0
N184 N 0.68264 0.21778 0.30117 0.0
C185 C 0.67781 0.2574 0.33969 0.0
C186 C 0.70008 0.19843 0.29569 0.0
N187 N 0.71664 0.19973 0.31688 0.0
C188 C 0.70189 0.17954 0.26892 0.0
H189 H 0.66596 0.26655 0.32517 0.0
H190 H 0.69337 0.27334 0.34805 0.0
H191 H 0.66509 0.25216 0.357 0.0
H192 H 0.7156 0.18993 0.25509 0.0
H193 H 0.68267 0.1755 0.25883 0.0
H194 H 0.70935 0.15937 0.27217 0.0
C195 C 0.46644 0.03414 0.96743 0.0
N196 N 0.48675 0.0537 0.97181 0.0
N197 N 0.44737 0.03966 0.98609 0.0
C198 C 0.46527 0.00961 0.94498 0.0
C199 C 0.45673 0.06335 1.00198 0.0
N200 N 0.48067 0.07208 0.99314 0.0
C201 C 0.44234 0.07813 0.02589 0.0
H202 H 0.45155 0.99223 0.95036 0.0
H203 H 0.48478 1.00193 0.94085 0.0
H204 H 0.4585 0.01648 0.92589 0.0
H205 H 0.45607 0.08825 0.04204 0.0
H206 H 0.42801 0.06366 0.03501 0.0
H207 H 0.43164 0.09463 0.0186 0.0
C208 C 0.20067 0.91219 0.00849 0.0
O209 O 0.21088 0.90322 0.98456 0.0
O210 O 0.24111 0.85609 0.99254 0.0
Zn211 Zn 0.24432 0.88672 0.02541 0.0
O212 O 0.27261 0.91549 0.01652 0.0
C213 C 0.27455 0.85593 0.05595 0.0
O214 O 0.28749 0.85555 0.03268 0.0
O215 O 0.21115 0.90682 0.03021 0.0
C216 C 0.29123 0.92643 0.03192 0.0
O217 O 0.29278 0.91971 0.0568 0.0
C218 C 0.25966 0.85318 0.97521 0.0
O219 O 0.2808 0.87031 0.97871 0.0
O220 O 0.25405 0.86898 0.05885 0.0
C221 C 0.18174 0.48748 0.29838 0.0
O222 O 0.18061 0.5107 0.31558 0.0
O223 O 0.11969 0.5172 0.30656 0.0
Zn224 Zn 0.14422 0.51491 0.27394 0.0
O225 O 0.16719 0.5512 0.27692 0.0
C226 C 0.10371 0.49399 0.23293 0.0
O227 O 0.09232 0.48193 0.2529 0.0
O228 O 0.16727 0.48367 0.27733 0.0
C229 C 0.18481 0.55528 0.25917 0.0
O230 O 0.18749 0.53586 0.23808 0.0
C231 C 0.10292 0.535 0.3121 0.0
O232 O 0.09962 0.55297 0.29494 0.0
O233 O 0.12528 0.50852 0.23745 0.0
C234 C 0.82049 0.60873 0.00709 0.0
O235 O 0.8228 0.61122 0.98087 0.0
O236 O 0.78286 0.65653 0.97238 0.0
Zn237 Zn 0.77254 0.63897 0.00709 0.0
O238 O 0.74196 0.60942 1.00077 0.0
C239 C 0.76108 0.69439 0.03565 0.0
O240 O 0.76492 0.70278 0.01148 0.0
O241 O 0.80177 0.61926 0.0209 0.0
C242 C 0.71833 0.61429 0.00527 0.0
O243 O 0.7126 0.6402 0.01289 0.0
C244 C 0.77905 0.64313 0.94847 0.0
O245 O 0.76863 0.61717 0.94615 0.0
O246 O 0.7632 0.66881 0.03811 0.0
C247 C 0.8354 0.05315 0.3143 0.0
O248 O 0.82671 0.03427 0.32984 0.0
O249 O 0.89588 0.00779 0.32321 0.0
Zn250 Zn 0.87495 0.01418 0.29063 0.0
O251 O 0.85274 0.97859 0.27702 0.0
C252 C 0.90174 0.0096 0.23717 0.0
O253 O 0.88382 0.98928 0.22949 0.0
O254 O 0.85438 0.04827 0.298 0.0
C255 C 0.83002 0.97746 0.26725 0.0
O256 O 0.81902 1.00081 0.26621 0.0
C257 C 0.91016 0.98751 0.31781 0.0
O258 O 0.90876 0.97282 0.29326 0.0
O259 O 0.90127 0.02246 0.26148 0.0
C260 C 0.33138 0.12047 0.50844 0.0
O261 O 0.33458 0.14675 0.504 0.0
O262 O 0.28861 0.15024 0.46642 0.0
Zn263 Zn 0.27909 0.13146 0.50044 0.0
O264 O 0.24484 0.10673 0.49799 0.0
C265 C 0.25737 0.17556 0.53827 0.0
O266 O 0.23728 0.17019 0.52187 0.0
O267 O 0.30853 0.10838 0.50778 0.0
C268 C 0.2354 0.10004 0.52057 0.0
O269 O 0.2482 0.10902 0.54333 0.0
C270 C 0.27351 0.15623 0.44833 0.0
O271 O 0.24848 0.14922 0.45018 0.0
O272 O 0.27726 0.16192 0.53293 0.0
C273 C 0.34184 0.56312 0.77942 0.0
O274 O 0.35012 0.56 0.75384 0.0
O275 O 0.39188 0.50531 0.81279 0.0
Zn276 Zn 0.3703 0.5144 0.78186 0.0
O277 O 0.34719 0.4799 0.76738 0.0
C278 C 0.41653 0.5388 0.75922 0.0
O279 O 0.4208 0.54725 0.78541 0.0
O280 O 0.34826 0.54624 0.79533 0.0
C281 C 0.33883 0.4756 0.74288 0.0
O282 O 0.34514 0.49431 0.72634 0.0
C283 C 0.40393 0.48325 0.80828 0.0
O284 O 0.40079 0.46716 0.78459 0.0
O285 O 0.39527 0.52475 0.75212 0.0
C286 C 0.70421 0.41543 0.51972 0.0
O287 O 0.71136 0.4013 0.49645 0.0
O288 O 0.74431 0.35802 0.50887 0.0
Zn289 Zn 0.74715 0.38963 0.54101 0.0
O290 O 0.77991 0.41488 0.53643 0.0
C291 C 0.75581 0.34855 0.57742 0.0
O292 O 0.75926 0.33251 0.55406 0.0
O293 O 0.71632 0.41334 0.54157 0.0
C294 C 0.80115 0.41031 0.54701 0.0
O295 O 0.80147 0.38937 0.56141 0.0
C296 C 0.76425 0.35113 0.49475 0.0
O297 O 0.78685 0.36474 0.50102 0.0
O298 O 0.7496 0.37345 0.577 0.0
C299 C 0.65442 0.94502 0.77779 0.0
O300 O 0.629 0.94191 0.77569 0.0
O301 O 0.62317 1.00655 0.81352 0.0
Zn302 Zn 0.64282 1.00124 0.77749 0.0
O303 O 0.66431 0.03788 0.77529 0.0
C304 C 0.61737 1.0003 0.72354 0.0
O305 O 0.63567 0.0197 0.71891 0.0
O306 O 0.6658 0.9695 0.7787 0.0
C307 C 0.68709 0.04079 0.76525 0.0
O308 O 0.69797 0.01863 0.7533 0.0
C309 C 0.60571 0.02371 0.81773 0.0
O310 O 0.5997 0.03755 0.79784 0.0
O311 O 0.61698 0.99048 0.74629 0.0
C312 C 0.03406 0.19675 0.9383 0.0
O313 O 0.05194 0.2164 0.93327 0.0
O314 O 0.9705 0.22559 0.89006 0.0
Zn315 Zn 1.0035 0.23265 0.91289 0.0
O316 O 1.00137 0.26752 0.94135 0.0
C317 C 0.03486 0.24171 0.86261 0.0
O318 O 0.01308 0.23853 0.84878 0.0
O319 O 0.01067 0.19889 0.93165 0.0
C320 C 0.02193 0.28341 0.94754 0.0
O321 O 0.044 0.27644 0.936 0.0
C322 C 0.94819 0.22758 0.9012 0.0
O323 O 0.94659 0.2334 0.92805 0.0
O324 O 0.0343 0.23989 0.88816 0.0
C325 C 0.53047 0.69274 0.44078 0.0
O326 O 0.54691 0.71435 0.4376 0.0
O327 O 0.46701 0.71629 0.38934 0.0
Zn328 Zn 0.49861 0.72602 0.41414 0.0
O329 O 0.4922 0.75831 0.44409 0.0
C330 C 0.53004 0.74544 0.36818 0.0
O331 O 0.50795 0.75033 0.35774 0.0
O332 O 0.50728 0.69253 0.43237 0.0
C333 C 0.50617 0.7815 0.44736 0.0
O334 O 0.52578 0.78536 0.43053 0.0
C335 C 0.45205 0.7349 0.38514 0.0
O336 O 0.45682 0.76056 0.39771 0.0
O337 O 0.53002 0.73597 0.39106 0.0
C338 C 0.03996 0.82744 0.62309 0.0
O339 O 0.05681 0.81023 0.62879 0.0
O340 O 0.97083 0.7849 0.66453 0.0
Zn341 Zn 1.00495 0.78448 0.64239 0.0
O342 O 1.00256 0.75357 0.60964 0.0
C343 C 0.02794 0.75145 0.67709 0.0
O344 O 0.00631 0.73594 0.6705 0.0
O345 O 0.016 0.82162 0.62819 0.0
C346 C 0.02302 0.74211 0.60103 0.0
O347 O 0.0452 0.75108 0.61304 0.0
C348 C 0.95432 0.76361 0.6613 0.0
O349 O 0.95852 0.74287 0.64195 0.0
O350 O 0.03223 0.77463 0.66762 0.0
C351 C 0.53008 0.32477 0.11322 0.0
O352 O 0.5401 0.30183 0.10192 0.0
O353 O 0.47779 0.28615 0.17536 0.0
Zn354 Zn 0.5108 0.28756 0.15172 0.0
O355 O 0.50998 0.25405 0.12148 0.0
C356 C 0.54183 0.26779 0.19245 0.0
O357 O 0.52097 0.25085 0.19514 0.0
O358 O 0.51618 0.32398 0.13483 0.0
C359 C 0.53021 0.24099 0.11568 0.0
O360 O 0.55176 0.24966 0.12906 0.0
C361 C 0.46359 0.26338 0.17608 0.0
O362 O 0.46991 0.24058 0.16054 0.0
O363 O 0.54159 0.28569 0.17579 0.0
H364 H 0.18701 0.73628 0.86678 0.0
H365 H 0.25608 0.74034 0.81593 0.0
H366 H 0.27941 0.77107 0.85379 0.0
H367 H 0.19163 0.80656 0.89328 0.0
H368 H 0.17953 0.80187 0.92712 0.0
H369 H 0.16991 0.77642 0.89815 0.0
H370 H 0.18665 0.73695 0.92218 0.0
H371 H 0.19614 0.76225 0.95142 0.0
H372 H 0.21964 0.74032 0.9342 0.0
H373 H 0.29306 0.80577 0.89479 0.0
H374 H 0.2968 0.84098 0.93609 0.0
H375 H 0.21784 0.81566 0.95964 0.0
C376 C 0.20719 0.7433 0.86395 0.0
C377 C 0.21991 0.73614 0.83866 0.0
C378 C 0.24627 0.74549 0.8354 0.0
C379 C 0.25954 0.76296 0.85671 0.0
C380 C 0.24609 0.77067 0.88108 0.0
C381 C 0.22053 0.76095 0.88487 0.0
C382 C 0.20973 0.77427 0.91191 0.0
C383 C 0.18633 0.79076 0.90733 0.0
C384 C 0.20263 0.75212 0.93106 0.0
C385 C 0.23295 0.79366 0.92244 0.0
C386 C 0.25382 0.79101 0.90452 0.0
C387 C 0.27698 0.80776 0.90914 0.0
C388 C 0.27885 0.82779 0.93264 0.0
C389 C 0.25762 0.83108 0.95117 0.0
C390 C 0.23448 0.81354 0.94602 0.0
H391 H 0.98947 0.57647 0.41977 0.0
H392 H 0.02099 0.52242 0.47164 0.0
H393 H 0.058 0.51524 0.43946 0.0
H394 H 1.00295 0.53642 0.35774 0.0
H395 H 0.01151 0.56519 0.33862 0.0
H396 H 0.98964 0.56968 0.36751 0.0
H397 H 0.01942 0.61195 0.39024 0.0
H398 H 0.04125 0.6079 0.36119 0.0
H399 H 0.05325 0.60786 0.39536 0.0
H400 H 0.0882 0.50947 0.39963 0.0
H401 H 0.11179 0.50745 0.35551 0.0
H402 H 0.06104 0.5653 0.32841 0.0
C403 C 1.00478 0.56404 0.42464 0.0
C404 C 1.003 0.55045 0.4483 0.0
C405 C 0.02259 0.53333 0.45378 0.0
C406 C 0.04352 0.52912 0.43562 0.0
C407 C 0.04445 0.54214 0.412 0.0
C408 C 0.0258 0.5595 0.40653 0.0
C409 C 0.03046 0.56916 0.3786 0.0
C410 C 0.00726 0.55953 0.3595 0.0
C411 C 0.03646 0.60112 0.38153 0.0
C412 C 0.05421 0.55396 0.36903 0.0
C413 C 0.06198 0.53863 0.38871 0.0
C414 C 0.08256 0.52171 0.38419 0.0
C415 C 0.09575 0.52057 0.35896 0.0
C416 C 0.08836 0.53627 0.33847 0.0
C417 C 0.06731 0.55324 0.34371 0.0
H418 H 0.81782 0.77055 0.86332 0.0
H419 H 0.78372 0.71761 0.79316 0.0
H420 H 0.78127 0.677 0.81874 0.0
H421 H 0.85218 0.71603 0.89413 0.0
H422 H 0.84294 0.73009 0.92846 0.0
H423 H 0.84849 0.75299 0.90253 0.0
H424 H 0.8026 0.77 0.91191 0.0
H425 H 0.79666 0.74686 0.93746 0.0
H426 H 0.77474 0.74473 0.90903 0.0
H427 H 0.77675 0.64392 0.8536 0.0
H428 H 0.7693 0.62097 0.89514 0.0
H429 H 0.80223 0.69633 0.94502 0.0
C430 C 0.81132 0.74995 0.85304 0.0
C431 C 0.80278 0.74666 0.82557 0.0
C432 C 0.79231 0.72003 0.81329 0.0
C433 C 0.79037 0.69697 0.82795 0.0
C434 C 0.79833 0.70104 0.85524 0.0
C435 C 0.80856 0.72691 0.86776 0.0
C436 C 0.81178 0.72673 0.89839 0.0
C437 C 0.84057 0.73175 0.90634 0.0
C438 C 0.79547 0.74836 0.91517 0.0
C439 C 0.80121 0.69698 0.90123 0.0
C440 C 0.794 0.68241 0.87599 0.0
C441 C 0.78262 0.65501 0.87343 0.0
C442 C 0.77839 0.64216 0.89723 0.0
C443 C 0.78518 0.65675 0.92345 0.0
C444 C 0.79696 0.6845 0.92531 0.0
H445 H 0.99487 0.01163 0.4555 0.0
H446 H 0.03607 0.94078 0.42051 0.0
H447 H 0.00804 0.93436 0.37935 0.0
H448 H 0.93104 0.98397 0.43117 0.0
H449 H 0.92145 0.0172 0.42391 0.0
H450 H 0.94459 0.01609 0.45059 0.0
H451 H 0.97759 0.04892 0.42723 0.0
H452 H 0.95452 0.05024 0.40054 0.0
H453 H 0.98647 0.03934 0.39177 0.0
H454 H 0.9758 0.93561 0.34267 0.0
H455 H 0.94225 0.94513 0.31117 0.0
H456 H 0.92163 0.01595 0.36944 0.0
C457 C 0.99781 0.99488 0.43903 0.0
C458 C 0.01734 0.97654 0.44082 0.0
C459 C 0.02103 0.95482 0.41916 0.0
C460 C 1.00524 0.95107 0.3959 0.0
C461 C 0.98596 0.96936 0.3947 0.0
C462 C 0.98222 0.99093 0.41558 0.0
C463 C 0.96032 0.00782 0.40885 0.0
C464 C 0.93803 1.00616 0.42988 0.0
C465 C 0.97033 0.03839 0.40698 0.0
C466 C 0.95236 0.99238 0.38093 0.0
C467 C 0.96738 0.97022 0.37329 0.0
C468 C 0.96391 0.9529 0.34839 0.0
C469 C 0.94474 0.9585 0.33065 0.0
C470 C 0.92925 0.98129 0.33778 0.0
C471 C 0.93306 0.99832 0.36341 0.0
H472 H 0.18718 0.26789 0.66003 0.0
H473 H 0.26049 0.28019 0.70273 0.0
H474 H 0.28212 0.25641 0.66161 0.0
H475 H 0.19489 0.19979 0.62887 0.0
H476 H 0.17935 0.20317 0.59712 0.0
H477 H 0.17061 0.22439 0.62837 0.0
H478 H 0.18156 0.2694 0.60574 0.0
H479 H 0.19021 0.2483 0.57431 0.0
H480 H 0.21318 0.27541 0.59049 0.0
H481 H 0.29442 0.22681 0.61765 0.0
H482 H 0.29694 0.19504 0.57401 0.0
H483 H 0.21513 0.20166 0.56026 0.0
C484 C 0.20787 0.26594 0.66039 0.0
C485 C 0.22233 0.27592 0.68427 0.0
C486 C 0.2493 0.273 0.68435 0.0
C487 C 0.26164 0.25944 0.66118 0.0
C488 C 0.24666 0.24909 0.63814 0.0
C489 C 0.22038 0.2524 0.63751 0.0
C490 C 0.2083 0.23775 0.61103 0.0
C491 C 0.18704 0.21492 0.6167 0.0
C492 C 0.19769 0.25899 0.59441 0.0
C493 C 0.23174 0.22511 0.59705 0.0
C494 C 0.25372 0.23204 0.61291 0.0
C495 C 0.27741 0.22157 0.6049 0.0
C496 C 0.27862 0.20346 0.5801 0.0
C497 C 0.25627 0.19595 0.56361 0.0
C498 C 0.23264 0.20723 0.57219 0.0
H499 H 0.48097 0.5308 0.60931 0.0
H500 H 0.55424 0.55877 0.64913 0.0
H501 H 0.53211 0.56311 0.69455 0.0
H502 H 0.44045 0.57494 0.65476 0.0
H503 H 0.41375 0.54839 0.65451 0.0
H504 H 0.4352 0.54867 0.62521 0.0
H505 H 0.44469 0.49742 0.62844 0.0
H506 H 0.42323 0.49695 0.65768 0.0
H507 H 0.45636 0.48864 0.66024 0.0
H508 H 0.50211 0.56424 0.73516 0.0
H509 H 0.46685 0.55921 0.76904 0.0
H510 H 0.4129 0.52875 0.70293 0.0
C511 C 0.49213 0.53794 0.62771 0.0
C512 C 0.51914 0.54456 0.62613 0.0
C513 C 0.53349 0.5536 0.65032 0.0
C514 C 0.52108 0.55622 0.67602 0.0
C515 C 0.49436 0.54951 0.67702 0.0
C516 C 0.48005 0.54036 0.65356 0.0
C517 C 0.45177 0.53339 0.66047 0.0
C518 C 0.43426 0.55249 0.648 0.0
C519 C 0.44354 0.50225 0.65116 0.0
C520 C 0.45244 0.53992 0.69149 0.0
C521 C 0.47715 0.54948 0.70055 0.0
C522 C 0.48268 0.55678 0.72833 0.0
C523 C 0.46248 0.5539 0.74742 0.0
C524 C 0.43712 0.54355 0.73866 0.0
C525 C 0.43208 0.5367 0.71027 0.0
H526 H 0.7986 0.2386 0.67203 0.0
H527 H 0.79335 0.30273 0.74198 0.0
H528 H 0.78103 0.33609 0.71124 0.0
H529 H 0.82458 0.28446 0.62321 0.0
H530 H 0.80607 0.26533 0.59498 0.0
H531 H 0.81577 0.24746 0.62249 0.0
H532 H 0.76773 0.23013 0.63034 0.0
H533 H 0.75785 0.24814 0.60303 0.0
H534 H 0.74377 0.25531 0.63683 0.0
H535 H 0.76744 0.36155 0.6727 0.0
H536 H 0.75558 0.37788 0.62942 0.0
H537 H 0.76929 0.29645 0.58482 0.0
C538 C 0.79516 0.25982 0.68066 0.0
C539 C 0.79724 0.26843 0.70916 0.0
C540 C 0.79231 0.29613 0.72005 0.0
C541 C 0.78516 0.31504 0.7028 0.0
C542 C 0.78295 0.3058 0.67473 0.0
C543 C 0.78797 0.27887 0.66373 0.0
C544 C 0.78366 0.27391 0.63302 0.0
C545 C 0.80903 0.26741 0.61751 0.0
C546 C 0.76196 0.25049 0.62537 0.0
C547 C 0.77534 0.3022 0.62843 0.0
C548 C 0.775 0.32032 0.65271 0.0
C549 C 0.76773 0.34757 0.65355 0.0
C550 C 0.76093 0.35662 0.62887 0.0
C551 C 0.76148 0.33848 0.60369 0.0
C552 C 0.76865 0.31088 0.60367 0.0
H553 H 0.53462 1.00364 0.58864 0.0
H554 H 0.48313 0.93642 0.61393 0.0
H555 H 0.51286 0.93266 0.65199 0.0
H556 H 0.5968 0.97817 0.60778 0.0
H557 H 0.6105 0.01318 0.61969 0.0
H558 H 0.58716 0.00742 0.59232 0.0
H559 H 0.5585 0.04294 0.62003 0.0
H560 H 0.58153 0.04859 0.64761 0.0
H561 H 0.54807 0.03766 0.65427 0.0
H562 H 0.54564 0.94035 0.69041 0.0
H563 H 0.57965 0.957 0.72476 0.0
H564 H 0.60936 0.02026 0.67481 0.0
C565 C 0.53005 0.98771 0.60186 0.0
C566 C 0.50684 0.97006 0.5983 0.0
C567 C 0.50114 0.94964 0.61604 0.0
C568 C 0.51781 0.94757 0.63779 0.0
C569 C 0.54012 0.96604 0.64139 0.0
C570 C 0.54639 0.98554 0.62371 0.0
C571 C 0.5704 1.00433 0.63314 0.0
C572 C 0.59253 1.00054 0.61197 0.0
C573 C 0.56424 0.0352 0.63912 0.0
C574 C 0.57639 0.99282 0.65926 0.0
C575 C 0.55881 0.97062 0.66358 0.0
C576 C 0.55969 0.95747 0.68703 0.0
C577 C 0.57905 0.96717 0.7065 0.0
C578 C 0.5973 0.9899 0.70251 0.0
C579 C 0.5959 1.0027 0.67843 0.0
H580 H 0.8662 0.21719 0.76297 0.0
H581 H 0.79864 0.2321 0.81441 0.0
H582 H 0.82449 0.22954 0.85569 0.0
H583 H 0.89618 0.17031 0.80425 0.0
H584 H 0.92863 0.18524 0.79843 0.0
H585 H 0.904 0.18476 0.77289 0.0
H586 H 0.91255 0.23853 0.7743 0.0
H587 H 0.93711 0.23922 0.7999 0.0
H588 H 0.91036 0.26088 0.80661 0.0
H589 H 0.85853 0.22905 0.89143 0.0
H590 H 0.898 0.23101 0.91923 0.0
H591 H 0.9444 0.21842 0.84468 0.0
C592 C 0.85689 0.21943 0.78296 0.0
C593 C 0.83032 0.22419 0.78562 0.0
C594 C 0.81871 0.22746 0.81198 0.0
C595 C 0.83334 0.22631 0.8355 0.0
C596 C 0.85963 0.22203 0.83227 0.0
C597 C 0.87133 0.21861 0.80665 0.0
C598 C 0.90027 0.21625 0.80895 0.0
C599 C 0.9077 0.18742 0.79532 0.0
C600 C 0.91599 0.24014 0.79672 0.0
C601 C 0.90312 0.21935 0.83988 0.0
C602 C 0.8794 0.2224 0.85292 0.0
C603 C 0.87717 0.22646 0.88144 0.0
C604 C 0.89976 0.22758 0.89707 0.0
C605 C 0.92438 0.22482 0.88422 0.0
C606 C 0.92591 0.22043 0.85519 0.0
H607 H 0.51343 0.93807 0.52559 0.0
H608 H 0.44863 0.91167 0.57532 0.0
H609 H 0.45182 0.86226 0.55464 0.0
H610 H 0.49415 0.89542 0.46628 0.0
H611 H 0.52611 0.88737 0.45401 0.0
H612 H 0.52194 0.91958 0.47611 0.0
H613 H 0.55486 0.90696 0.51057 0.0
H614 H 0.55951 0.87485 0.48835 0.0
H615 H 0.55005 0.87384 0.5237 0.0
H616 H 0.45866 0.81709 0.52441 0.0
H617 H 0.46932 0.77911 0.48809 0.0
H618 H 0.52938 0.83519 0.45699 0.0
C619 C 0.50078 0.92156 0.53284 0.0
C620 C 0.48136 0.92815 0.55259 0.0
C621 C 0.46408 0.90655 0.5608 0.0
C622 C 0.46571 0.8786 0.54905 0.0
C623 C 0.48465 0.87274 0.52897 0.0
C624 C 0.50204 0.89359 0.52107 0.0
C625 C 0.51881 0.88222 0.49717 0.0
C626 C 0.51501 0.89703 0.47191 0.0
C627 C 0.54751 0.8846 0.50545 0.0
C628 C 0.50777 0.8519 0.49246 0.0
C629 C 0.48823 0.84681 0.51114 0.0
C630 C 0.47419 0.82074 0.50992 0.0
C631 C 0.48032 0.79931 0.48913 0.0
C632 C 0.50026 0.80406 0.46971 0.0
C633 C 0.5142 0.83073 0.47164 0.0
H634 H 0.13163 0.27459 0.73948 0.0
H635 H 0.19388 0.28498 0.79853 0.0
H636 H 0.1626 0.27313 0.8348 0.0
H637 H 0.0835 0.30462 0.78498 0.0
H638 H 0.05702 0.2805 0.77107 0.0
H639 H 0.08441 0.28884 0.7496 0.0
H640 H 0.09153 0.23606 0.73822 0.0
H641 H 0.0641 0.22755 0.7596 0.0
H642 H 0.09534 0.21573 0.7658 0.0
H643 H 0.12481 0.26119 0.86446 0.0
H644 H 0.0827 0.25011 0.88636 0.0
H645 H 0.04425 0.2474 0.80812 0.0
C646 C 0.13852 0.27408 0.76005 0.0
C647 C 0.16499 0.28068 0.76649 0.0
C648 C 0.17356 0.28014 0.79351 0.0
C649 C 0.156 0.27335 0.81409 0.0
C650 C 0.12994 0.26714 0.80721 0.0
C651 C 0.12117 0.2674 0.78087 0.0
C652 C 0.09203 0.2605 0.77918 0.0
C653 C 0.07845 0.28508 0.77071 0.0
C654 C 0.08537 0.23334 0.75953 0.0
C655 C 0.0858 0.2565 0.80872 0.0
C656 C 0.108 0.26033 0.82445 0.0
C657 C 0.10728 0.25806 0.85237 0.0
C658 C 0.08322 0.25176 0.8646 0.0
C659 C 0.0601 0.24786 0.84898 0.0
C660 C 0.06153 0.25021 0.82062 0.0
H661 H 0.51242 0.56058 0.5222 0.0
H662 H 0.59303 0.57811 0.54535 0.0
H663 H 0.59883 0.61246 0.51221 0.0
H664 H 0.51946 0.57325 0.44836 0.0
H665 H 0.48947 0.58994 0.44992 0.0
H666 H 0.4934 0.56244 0.47048 0.0
H667 H 0.48178 0.59565 0.51408 0.0
H668 H 0.47823 0.62339 0.49385 0.0
H669 H 0.50044 0.62888 0.52227 0.0
H670 H 0.59389 0.64995 0.48257 0.0
H671 H 0.57947 0.68665 0.45758 0.0
H672 H 0.50099 0.64661 0.45542 0.0
C673 C 0.53146 0.57105 0.51951 0.0
C674 C 0.55239 0.56662 0.536 0.0
C675 C 0.57698 0.58084 0.53242 0.0
C676 C 0.58033 0.6005 0.51381 0.0
C677 C 0.55888 0.60557 0.49895 0.0
C678 C 0.53494 0.59102 0.50139 0.0
C679 C 0.51428 0.60269 0.48577 0.0
C680 C 0.50352 0.58077 0.46223 0.0
C681 C 0.4924 0.61328 0.50515 0.0
C682 C 0.53009 0.62671 0.47489 0.0
C683 C 0.55584 0.62773 0.48239 0.0
C684 C 0.57388 0.64907 0.47621 0.0
C685 C 0.56542 0.66994 0.4621 0.0
C686 C 0.53907 0.66954 0.45443 0.0
C687 C 0.52129 0.64739 0.46072 0.0
H688 H 0.85792 0.80826 0.78666 0.0
H689 H 0.81183 0.73066 0.76083 0.0
H690 H 0.84556 0.71617 0.72704 0.0
H691 H 0.87562 0.82065 0.72116 0.0
H692 H 0.90805 0.83603 0.72904 0.0
H693 H 0.88319 0.83806 0.75521 0.0
H694 H 0.91139 0.81445 0.78685 0.0
H695 H 0.93666 0.81286 0.76104 0.0
H696 H 0.92391 0.78137 0.77416 0.0
H697 H 0.88121 0.71289 0.6921 0.0
H698 H 0.9175 0.71953 0.65989 0.0
H699 H 0.94031 0.80075 0.70622 0.0
C700 C 0.85568 0.78767 0.77471 0.0
C701 C 0.8329 0.76983 0.7774 0.0
C702 C 0.82976 0.74375 0.76042 0.0
C703 C 0.84866 0.73564 0.74075 0.0
C704 C 0.87052 0.75407 0.73804 0.0
C705 C 0.87427 0.77949 0.75469 0.0
C706 C 0.8981 0.79663 0.74567 0.0
C707 C 0.8908 0.82448 0.73727 0.0
C708 C 0.91875 0.80161 0.76828 0.0
C709 C 0.90688 0.77711 0.72101 0.0
C710 C 0.89074 0.75262 0.71713 0.0
C711 C 0.89417 0.73182 0.69514 0.0
C712 C 0.91483 0.73589 0.67684 0.0
C713 C 0.9319 0.76066 0.68044 0.0
C714 C 0.92771 0.78155 0.70287 0.0
H715 H 0.02203 0.95722 0.54303 0.0
H716 H 0.09863 0.94612 0.50842 0.0
H717 H 0.10572 0.91281 0.54115 0.0
H718 H 0.035 0.94594 0.61504 0.0
H719 H 1.00406 0.92626 0.6177 0.0
H720 H 0.00755 0.95378 0.59624 0.0
H721 H 0.99015 0.91864 0.55482 0.0
H722 H 0.98687 0.89096 0.57596 0.0
H723 H 1.00609 0.887 0.5449 0.0
H724 H 0.10203 0.8763 0.57343 0.0
H725 H 0.08803 0.83891 0.60121 0.0
H726 H 0.01177 0.87042 0.61145 0.0
C727 C 0.04051 0.94823 0.54287 0.0
C728 C 0.0599 0.95433 0.52343 0.0
C729 C 0.0838 0.94215 0.52357 0.0
C730 C 0.08787 0.92309 0.54197 0.0
C731 C 0.06774 0.91637 0.55993 0.0
C732 C 0.04452 0.92865 0.56052 0.0
C733 C 0.02473 0.91526 0.57898 0.0
C734 C 0.01741 0.93658 0.60344 0.0
C735 C 1.00055 0.90219 0.56269 0.0
C736 C 0.04017 0.89296 0.58817 0.0
C737 C 0.0651 0.89436 0.57743 0.0
C738 C 0.08265 0.87524 0.58216 0.0
C739 C 0.07446 0.854 0.59798 0.0
C740 C 0.04876 0.85165 0.60858 0.0
C741 C 0.03155 0.87168 0.60379 0.0
H742 H 0.16529 0.74906 0.74877 0.0
H743 H 0.13286 0.67645 0.78409 0.0
H744 H 0.09131 0.67809 0.7601 0.0
H745 H 0.1077 0.78564 0.7551 0.0
H746 H 0.11264 0.80008 0.7233 0.0
H747 H 0.14012 0.79215 0.74196 0.0
H748 H 0.15552 0.7605 0.69888 0.0
H749 H 0.12816 0.76844 0.68004 0.0
H750 H 0.13357 0.73249 0.68244 0.0
H751 H 0.05351 0.68835 0.73314 0.0
H752 H 0.02141 0.70627 0.70501 0.0
H753 H 0.07806 0.77354 0.68818 0.0
C754 C 0.14939 0.73347 0.75111 0.0
C755 C 0.15196 0.71246 0.76789 0.0
C756 C 0.13099 0.69243 0.77098 0.0
C757 C 0.10746 0.69331 0.75755 0.0
C758 C 0.10535 0.71449 0.7413 0.0
C759 C 0.12573 0.73423 0.73802 0.0
C760 C 0.11812 0.7553 0.72009 0.0
C761 C 0.11974 0.78505 0.73607 0.0
C762 C 0.13484 0.75409 0.6938 0.0
C763 C 0.09026 0.74436 0.71383 0.0
C764 C 0.08335 0.72075 0.72619 0.0
C765 C 0.05867 0.70681 0.72334 0.0
C766 C 0.04058 0.71717 0.70732 0.0
C767 C 0.0472 0.74134 0.69444 0.0
C768 C 0.07237 0.75512 0.69788 0.0
H769 H 0.95376 0.62068 0.49454 0.0
H770 H 0.02336 0.57734 0.49742 0.0
H771 H 0.04602 0.62016 0.52193 0.0
H772 H 0.98476 0.69359 0.49312 0.0
H773 H 0.96068 0.70855 0.51637 0.0
H774 H 0.95213 0.67714 0.49299 0.0
H775 H 0.93582 0.6518 0.534 0.0
H776 H 0.94458 0.6829 0.55753 0.0
H777 H 0.95754 0.65032 0.5619 0.0
H778 H 0.05915 0.66514 0.55158 0.0
H779 H 0.06159 0.70796 0.58523 0.0
H780 H 0.98175 0.72058 0.56777 0.0
C781 C 0.97402 0.62061 0.49963 0.0
C782 C 0.98703 0.59595 0.49341 0.0
C783 C 0.01335 0.59627 0.50088 0.0
C784 C 0.02628 0.62047 0.51513 0.0
C785 C 0.0125 0.64406 0.52207 0.0
C786 C 0.9869 0.64432 0.51459 0.0
C787 C 0.9753 0.67066 0.52803 0.0
C788 C 0.96778 0.68855 0.50633 0.0
C789 C 0.95194 0.66348 0.54646 0.0
C790 C 0.99813 0.68481 0.54487 0.0
C791 C 0.01956 0.66941 0.54064 0.0
C792 C 0.04261 0.67754 0.5548 0.0
C793 C 0.04376 0.70191 0.57395 0.0
C794 C 0.02186 0.71768 0.57916 0.0
C795 C 0.99885 0.70908 0.56416 0.0
H796 H 0.70661 0.86983 0.22956 0.0
H797 H 0.75806 0.80314 0.22233 0.0
H798 H 0.79612 0.83832 0.22754 0.0
H799 H 0.74985 0.9208 0.19508 0.0
H800 H 0.74002 0.95015 0.21851 0.0
H801 H 0.7176 0.91974 0.20973 0.0
H802 H 0.71131 0.91517 0.26137 0.0
H803 H 0.73393 0.94525 0.27034 0.0
H804 H 0.73923 0.91237 0.28192 0.0
H805 H 0.82763 0.88066 0.24036 0.0
H806 H 0.85066 0.92671 0.25634 0.0
H807 H 0.77827 0.96597 0.25527 0.0
C808 C 0.72599 0.86282 0.22834 0.0
C809 C 0.72968 0.834 0.22539 0.0
C810 C 0.7551 0.82523 0.22415 0.0
C811 C 0.7767 0.84505 0.22724 0.0
C812 C 0.77239 0.87346 0.23129 0.0
C813 C 0.74764 0.88232 0.23142 0.0
C814 C 0.74803 0.91387 0.23827 0.0
C815 C 0.73831 0.92691 0.21394 0.0
C816 C 0.73219 0.92214 0.26453 0.0
C817 C 0.77678 0.92138 0.24281 0.0
C818 C 0.79053 0.89781 0.23854 0.0
C819 C 0.81713 0.8993 0.24328 0.0
C820 C 0.83001 0.92554 0.25252 0.0
C821 C 0.8163 0.94998 0.25693 0.0
C822 C 0.78937 0.94777 0.25176 0.0
H823 H 0.72295 0.15779 0.34668 0.0
H824 H 0.75964 0.20551 0.28617 0.0
H825 H 0.79633 0.1753 0.28205 0.0
H826 H 0.78326 0.14135 0.37921 0.0
H827 H 0.77035 0.10629 0.38322 0.0
H828 H 0.74886 0.13391 0.38411 0.0
H829 H 0.72172 0.10445 0.34502 0.0
H830 H 0.74318 0.07685 0.34386 0.0
H831 H 0.73754 0.09204 0.31322 0.0
H832 H 0.82683 0.13823 0.28185 0.0
H833 H 0.84924 0.09574 0.28435 0.0
H834 H 0.79218 0.07008 0.34399 0.0
C835 C 0.73917 0.16214 0.33322 0.0
C836 C 0.73906 0.18411 0.31709 0.0
C837 C 0.75989 0.18891 0.29887 0.0
C838 C 0.78068 0.17192 0.29647 0.0
C839 C 0.78013 0.15005 0.31229 0.0
C840 C 0.75994 0.14503 0.33031 0.0
C841 C 0.76307 0.11861 0.34302 0.0
C842 C 0.7666 0.12546 0.37425 0.0
C843 C 0.74001 0.0967 0.33584 0.0
C844 C 0.78786 0.10931 0.32892 0.0
C845 C 0.79749 0.12799 0.31157 0.0
C846 C 0.81962 0.12355 0.29554 0.0
C847 C 0.83218 0.09926 0.29708 0.0
C848 C 0.82253 0.07949 0.31439 0.0
C849 C 0.80017 0.08482 0.3307 0.0
H850 H 0.43032 0.01148 0.02753 0.0
H851 H 0.40923 0.03301 0.94883 0.0
H852 H 0.36612 1.00674 0.95215 0.0
H853 H 0.3987 0.94172 0.01929 0.0
H854 H 0.38833 0.94344 0.05465 0.0
H855 H 0.4173 0.96377 0.04576 0.0
H856 H 0.39869 0.00903 0.06989 0.0
H857 H 0.36963 0.98883 0.07881 0.0
H858 H 0.36741 0.01795 0.05987 0.0
H859 H 0.3258 0.9781 0.96424 0.0
H860 H 0.2909 0.94849 0.98362 0.0
H861 H 0.3381 0.94654 0.05535 0.0
C862 C 0.41642 0.01068 0.01119 0.0
C863 C 0.4226 0.02429 0.98805 0.0
C864 C 0.40446 0.02266 0.96668 0.0
C865 C 0.38007 0.00791 0.96847 0.0
C866 C 0.37435 0.99497 0.9918 0.0
C867 C 0.392 0.99618 0.01277 0.0
C868 C 0.38108 0.9804 0.03555 0.0
C869 C 0.39732 0.95588 0.039 0.0
C870 C 0.37908 1.00024 0.06263 0.0
C871 C 0.35451 0.97006 0.02411 0.0
C872 C 0.35104 0.97867 0.99885 0.0
C873 C 0.32825 0.97129 0.98403 0.0
C874 C 0.30855 0.95446 0.99523 0.0
C875 C 0.31172 0.94527 0.02105 0.0
C876 C 0.33498 0.9534 0.03569 0.0
H877 H 0.24793 0.3415 0.27515 0.0
H878 H 0.29366 0.37208 0.3474 0.0
H879 H 0.27211 0.41654 0.35281 0.0
H880 H 0.24897 0.40772 0.24849 0.0
H881 H 0.21612 0.40186 0.23604 0.0
H882 H 0.23495 0.37251 0.23811 0.0
H883 H 0.19908 0.351 0.26831 0.0
H884 H 0.18014 0.38027 0.26632 0.0
H885 H 0.18856 0.37151 0.29933 0.0
H886 H 0.2457 0.45708 0.35029 0.0
H887 H 0.21625 0.49181 0.34032 0.0
H888 H 0.18747 0.43534 0.26897 0.0
C889 C 0.25321 0.35769 0.29204 0.0
C890 C 0.27221 0.35372 0.31102 0.0
C891 C 0.27899 0.37506 0.33289 0.0
C892 C 0.2669 0.40022 0.33602 0.0
C893 C 0.24817 0.40361 0.31699 0.0
C894 C 0.24134 0.38298 0.29539 0.0
C895 C 0.2207 0.39208 0.27779 0.0
C896 C 0.23079 0.39364 0.24836 0.0
C897 C 0.19563 0.37255 0.27796 0.0
C898 C 0.21695 0.42102 0.29289 0.0
C899 C 0.23301 0.42718 0.31543 0.0
C900 C 0.23304 0.45252 0.33269 0.0
C901 C 0.2162 0.47213 0.32682 0.0
C902 C 0.19951 0.46637 0.30385 0.0
C903 C 0.2 0.44042 0.28666 0.0
H904 H 0.11208 0.99931 0.46272 0.0
H905 H 0.07907 0.0112 0.54464 0.0
H906 H 0.1198 0.03842 0.56168 0.0
H907 H 0.17985 0.99593 0.48134 0.0
H908 H 0.19219 0.01563 0.4546 0.0
H909 H 0.16196 0.99416 0.44996 0.0
H910 H 0.13887 0.03727 0.44018 0.0
H911 H 0.16895 0.05893 0.44495 0.0
H912 H 0.14072 0.06844 0.46504 0.0
H913 H 0.16318 0.06679 0.56881 0.0
H914 H 0.20524 0.09443 0.56593 0.0
H915 H 0.2084 0.06726 0.47816 0.0
C916 C 0.11353 0.00755 0.48427 0.0
C917 C 0.09247 1.00331 0.50243 0.0
C918 C 0.09512 0.01403 0.53054 0.0
C919 C 0.11809 0.0296 0.54029 0.0
C920 C 0.13813 0.03434 0.52157 0.0
C921 C 0.13604 0.02359 0.49413 0.0
C922 C 0.15949 0.03329 0.47783 0.0
C923 C 0.17424 0.00826 0.46519 0.0
C924 C 0.15153 0.05051 0.4557 0.0
C925 C 0.17508 0.0515 0.50031 0.0
C926 C 0.16257 0.05151 0.52544 0.0
C927 C 0.17314 0.06684 0.54926 0.0
C928 C 0.19708 0.0825 0.54738 0.0
C929 C 0.21015 0.08309 0.52181 0.0
C930 C 0.19888 0.06736 0.49798 0.0
H931 H 0.7985 0.15852 0.73541 0.0
H932 H 0.75788 0.21695 0.79155 0.0
H933 H 0.72755 0.17806 0.80379 0.0
H934 H 0.74376 0.11919 0.70874 0.0
H935 H 0.75691 0.08549 0.70499 0.0
H936 H 0.77823 0.11678 0.70414 0.0
H937 H 0.8052 0.1043 0.74392 0.0
H938 H 0.78428 0.07261 0.74458 0.0
H939 H 0.78912 0.09725 0.7754 0.0
H940 H 0.69852 0.13438 0.80504 0.0
H941 H 0.67408 0.08798 0.79806 0.0
H942 H 0.7332 0.05702 0.74054 0.0
C943 C 0.7839 0.16267 0.75118 0.0
C944 C 0.78103 0.19032 0.76358 0.0
C945 C 0.76093 0.19562 0.78297 0.0
C946 C 0.74352 0.17373 0.78972 0.0
C947 C 0.74643 0.14668 0.77669 0.0
C948 C 0.76629 0.14096 0.75804 0.0
C949 C 0.7637 0.11047 0.74524 0.0
C950 C 0.76045 0.10785 0.71393 0.0
C951 C 0.78696 0.09525 0.75275 0.0
C952 C 0.73896 0.10014 0.7591 0.0
C953 C 0.7294 0.12138 0.7772 0.0
C954 C 0.70603 0.11745 0.79127 0.0
C955 C 0.69219 0.09103 0.787 0.0
C956 C 0.70174 0.06877 0.76884 0.0
C957 C 0.7255 0.0735 0.75476 0.0
H958 H 0.40669 0.99576 0.55349 0.0
H959 H 0.47817 0.04754 0.54521 0.0
H960 H 0.45319 0.08478 0.53128 0.0
H961 H 0.37458 0.01483 0.49474 0.0
H962 H 0.34297 0.0145 0.51089 0.0
H963 H 0.3665 0.99218 0.52043 0.0
H964 H 0.3622 0.01381 0.57135 0.0
H965 H 0.33868 0.03622 0.56196 0.0
H966 H 0.36739 0.05127 0.58048 0.0
H967 H 0.42053 0.11618 0.51856 0.0
H968 H 0.38249 0.14002 0.50769 0.0
H969 H 0.3318 0.0674 0.5232 0.0
C970 C 0.41697 0.01491 0.54855 0.0
C971 C 0.44428 0.019 0.55043 0.0
C972 C 0.45721 0.04432 0.54412 0.0
C973 C 0.44321 0.06543 0.53609 0.0
C974 C 0.41627 0.06079 0.5344 0.0
C975 C 0.40325 0.03616 0.54041 0.0
C976 C 0.3742 0.03651 0.53694 0.0
C977 C 0.36396 0.01312 0.51441 0.0
C978 C 0.35977 0.03433 0.56431 0.0
C979 C 0.37291 0.06523 0.52812 0.0
C980 C 0.39741 0.07885 0.52681 0.0
C981 C 0.40125 0.10571 0.51945 0.0
C982 C 0.37947 0.11909 0.51333 0.0
C983 C 0.35411 0.10561 0.51454 0.0
C984 C 0.3509 0.07825 0.52197 0.0
H985 H 0.60908 0.52777 0.58717 0.0
H986 H 0.56183 0.50767 0.51439 0.0
H987 H 0.59553 0.47826 0.49212 0.0
H988 H 0.67392 0.52614 0.55349 0.0
H989 H 0.68702 0.50974 0.5804 0.0
H990 H 0.66157 0.53298 0.58808 0.0
H991 H 0.63369 0.49382 0.60885 0.0
H992 H 0.65881 0.47033 0.60093 0.0
H993 H 0.62642 0.46037 0.5882 0.0
H994 H 0.6324 0.44695 0.48022 0.0
H995 H 0.66902 0.41709 0.47913 0.0
H996 H 0.6902 0.45526 0.5616 0.0
C997 C 0.60614 0.51756 0.56634 0.0
C998 C 0.58296 0.51984 0.5524 0.0
C999 C 0.57966 0.50637 0.52517 0.0
C1000 C 0.59861 0.48954 0.51252 0.0
C1001 C 0.62068 0.48652 0.52746 0.0
C1002 C 0.62456 0.50035 0.55375 0.0
C1003 C 0.64849 0.49163 0.56655 0.0
C1004 C 0.66896 0.51661 0.57247 0.0
C1005 C 0.64142 0.47824 0.59267 0.0
C1006 C 0.65727 0.4702 0.54362 0.0
C1007 C 0.64123 0.46784 0.52108 0.0
C1008 C 0.64517 0.44884 0.49767 0.0
C1009 C 0.66601 0.43191 0.49729 0.0
C1010 C 0.68248 0.43375 0.5203 0.0
C1011 C 0.67797 0.45326 0.5437 0.0
H1012 H 0.69201 0.23218 0.38789 0.0
H1013 H 0.76098 0.23785 0.33704 0.0
H1014 H 0.78443 0.26703 0.37533 0.0
H1015 H 0.69671 0.30204 0.41299 0.0
H1016 H 0.68432 0.29851 0.44697 0.0
H1017 H 0.67486 0.27223 0.41861 0.0
H1018 H 0.69133 0.23366 0.44404 0.0
H1019 H 0.70052 0.25975 0.47278 0.0
H1020 H 0.72418 0.23741 0.45651 0.0
H1021 H 0.79832 0.30088 0.41634 0.0
H1022 H 0.80177 0.33724 0.45671 0.0
H1023 H 0.72221 0.31366 0.47955 0.0
C1024 C 0.7123 0.23889 0.38526 0.0
C1025 C 0.72494 0.23217 0.35981 0.0
C1026 C 0.75129 0.24175 0.3567 0.0
C1027 C 0.76465 0.25864 0.37828 0.0
C1028 C 0.75125 0.266 0.40272 0.0
C1029 C 0.72563 0.2564 0.40636 0.0
C1030 C 0.71456 0.27052 0.43297 0.0
C1031 C 0.69125 0.28679 0.42755 0.0
C1032 C 0.70722 0.24905 0.45275 0.0
C1033 C 0.73771 0.29018 0.44333 0.0
C1034 C 0.75881 0.28681 0.42584 0.0
C1035 C 0.78204 0.30346 0.43037 0.0
C1036 C 0.78377 0.32414 0.45334 0.0
C1037 C 0.76225 0.32834 0.47131 0.0
C1038 C 0.73901 0.31093 0.46625 0.0
H1039 H 0.49456 0.07388 0.92375 0.0
H1040 H 0.53015 0.03079 0.98277 0.0
H1041 H 0.56712 0.0218 0.95086 0.0
H1042 H 0.50817 0.02702 0.86712 0.0
H1043 H 0.51445 0.05222 0.84344 0.0
H1044 H 0.49333 0.05981 0.87253 0.0
H1045 H 0.52169 0.10569 0.88858 0.0
H1046 H 0.54272 0.09855 0.85923 0.0
H1047 H 0.55605 0.10447 0.89333 0.0
H1048 H 0.59682 0.01221 0.91044 0.0
H1049 H 0.61858 1.00458 0.86523 0.0
H1050 H 0.56328 0.05347 0.83173 0.0
C1051 C 0.51083 0.06373 0.93023 0.0
C1052 C 0.51037 0.05407 0.95601 0.0
C1053 C 0.53101 0.03938 0.96353 0.0
C1054 C 0.55184 0.03398 0.94544 0.0
C1055 C 0.55153 0.04325 0.91981 0.0
C1056 C 0.53168 0.05806 0.91227 0.0
C1057 C 0.53474 0.06333 0.88265 0.0
C1058 C 0.51128 0.04978 0.86543 0.0
C1059 C 0.53907 0.09489 0.88085 0.0
C1060 C 0.55902 0.04859 0.87451 0.0
C1061 C 0.56847 0.03729 0.89629 0.0
C1062 C 0.58984 0.02135 0.89335 0.0
C1063 C 0.60199 0.01699 0.86753 0.0
C1064 C 0.59273 0.02852 0.84493 0.0
C1065 C 0.57101 0.04462 0.84863 0.0
H1066 H 0.2639 0.24742 0.32604 0.0
H1067 H 0.34435 0.27711 0.34058 0.0
H1068 H 0.34786 0.24186 0.37233 0.0
H1069 H 0.24864 0.24242 0.39366 0.0
H1070 H 0.22602 0.21181 0.38734 0.0
H1071 H 0.23137 0.23489 0.36166 0.0
H1072 H 0.24361 0.19342 0.32595 0.0
H1073 H 0.23799 0.17003 0.35144 0.0
H1074 H 0.26881 0.17217 0.33374 0.0
H1075 H 0.34056 0.20769 0.40716 0.0
H1076 H 0.32374 0.17764 0.44139 0.0
H1077 H 0.24695 0.17248 0.40594 0.0
C1078 C 0.2824 0.24592 0.33542 0.0
C1079 C 0.30393 0.26475 0.33083 0.0
C1080 C 0.32783 0.26247 0.34349 0.0
C1081 C 0.32988 0.24265 0.36166 0.0
C1082 C 0.30783 0.2253 0.36686 0.0
C1083 C 0.28457 0.22664 0.35389 0.0
C1084 C 0.263 0.20802 0.3651 0.0
C1085 C 0.24097 0.22532 0.37769 0.0
C1086 C 0.25275 0.18451 0.34272 0.0
C1087 C 0.27751 0.1965 0.38696 0.0
C1088 C 0.30343 0.20635 0.38739 0.0
C1089 C 0.32038 0.1996 0.40673 0.0
C1090 C 0.3106 0.18253 0.42616 0.0
C1091 C 0.28399 0.17258 0.42641 0.0
C1092 C 0.2674 0.17952 0.40627 0.0
H1093 H 0.49649 0.51208 0.93974 0.0
H1094 H 0.52066 0.4284 0.91702 0.0
H1095 H 0.49097 0.42122 0.87725 0.0
H1096 H 0.42908 0.49558 0.92209 0.0
H1097 H 0.42568 0.52809 0.90891 0.0
H1098 H 0.44901 0.52674 0.93533 0.0
H1099 H 0.48567 0.54633 0.90481 0.0
H1100 H 0.46243 0.54787 0.87835 0.0
H1101 H 0.49068 0.52867 0.87062 0.0
H1102 H 0.45914 0.42336 0.84011 0.0
H1103 H 0.42707 0.43443 0.80758 0.0
H1104 H 0.42277 0.51679 0.85466 0.0
C1105 C 0.49548 0.49237 0.9262 0.0
C1106 C 0.51062 0.47068 0.93121 0.0
C1107 C 0.50894 0.44506 0.91339 0.0
C1108 C 0.49223 0.44087 0.89084 0.0
C1109 C 0.47734 0.46257 0.8865 0.0
C1110 C 0.47877 0.48784 0.90364 0.0
C1111 C 0.46054 0.50763 0.89438 0.0
C1112 C 0.43985 0.51493 0.9165 0.0
C1113 C 0.47574 0.53419 0.88657 0.0
C1114 C 0.44868 0.48955 0.86936 0.0
C1115 C 0.4587 0.46368 0.86519 0.0
C1116 C 0.45109 0.44352 0.84319 0.0
C1117 C 0.43285 0.45002 0.82482 0.0
C1118 C 0.42232 0.47642 0.82861 0.0
C1119 C 0.43029 0.49633 0.85132 0.0
H1120 H 0.72009 0.74125 0.1915 0.0
H1121 H 0.70932 0.82321 0.16957 0.0
H1122 H 0.72612 0.80843 0.12266 0.0
H1123 H 0.7787 0.72809 0.15017 0.0
H1124 H 0.76865 0.69143 0.14089 0.0
H1125 H 0.75844 0.70965 0.17324 0.0
H1126 H 0.71038 0.69451 0.1607 0.0
H1127 H 0.7204 0.67637 0.12829 0.0
H1128 H 0.69772 0.70284 0.12917 0.0
H1129 H 0.74097 0.78314 0.07719 0.0
H1130 H 0.75341 0.75008 0.03716 0.0
H1131 H 0.75291 0.68403 0.08886 0.0
C1132 C 0.72144 0.75606 0.1768 0.0
C1133 C 0.71337 0.7833 0.18392 0.0
C1134 C 0.71566 0.80233 0.16441 0.0
C1135 C 0.72505 0.79406 0.13778 0.0
C1136 C 0.73211 0.76669 0.13112 0.0
C1137 C 0.73055 0.74803 0.15016 0.0
C1138 C 0.73803 0.71942 0.13755 0.0
C1139 C 0.76241 0.7117 0.15128 0.0
C1140 C 0.71528 0.69697 0.13901 0.0
C1141 C 0.74364 0.72468 0.10828 0.0
C1142 C 0.74033 0.75212 0.10501 0.0
C1143 C 0.7438 0.76167 0.07958 0.0
C1144 C 0.75082 0.7427 0.05694 0.0
C1145 C 0.75417 0.71443 0.0598 0.0
C1146 C 0.75059 0.70549 0.08593 0.0
H1147 H 0.98069 1.00097 0.09503 0.0
H1148 H 0.03399 0.06793 0.13361 0.0
H1149 H 0.00833 0.0692 0.17695 0.0
H1150 H 0.9223 0.02618 0.12702 0.0
H1151 H 0.90757 0.99178 0.13092 0.0
H1152 H 0.93022 0.99621 0.10325 0.0
H1153 H 0.95837 0.95981 0.11955 0.0
H1154 H 0.93579 0.95524 0.14726 0.0
H1155 H 0.96965 0.96487 0.15448 0.0
H1156 H 0.97685 0.06314 0.21546 0.0
H1157 H 0.94187 0.05019 0.24728 0.0
H1158 H 0.90884 0.98665 0.18351 0.0
C1159 C 0.98676 0.01577 0.11275 0.0
C1160 C 0.00904 0.03442 0.11146 0.0
C1161 C 0.01682 0.05363 0.13467 0.0
C1162 C 1.00242 0.05444 0.15916 0.0
C1163 C 0.9804 0.03579 0.1599 0.0
C1164 C 0.9726 0.01678 0.13735 0.0
C1165 C 0.94822 0.99905 0.14362 0.0
C1166 C 0.92575 1.00359 0.1251 0.0
C1167 C 0.95332 0.9679 0.14108 0.0
C1168 C 0.94348 0.01109 0.1732 0.0
C1169 C 0.96227 0.03226 0.18216 0.0
C1170 C 0.96203 0.04659 0.20871 0.0
C1171 C 0.94205 0.03907 0.22662 0.0
C1172 C 0.92258 0.0174 0.21791 0.0
C1173 C 0.9234 1.0033 0.1908 0.0
H1174 H 0.27253 0.79346 0.19946 0.0
H1175 H 0.34134 0.75292 0.17069 0.0
H1176 H 0.34171 0.77576 0.12849 0.0
H1177 H 0.24174 0.78532 0.13419 0.0
H1178 H 0.22772 0.81857 0.13968 0.0
H1179 H 0.23403 0.80086 0.16851 0.0
H1180 H 0.2619 0.84486 0.19084 0.0
H1181 H 0.25563 0.86275 0.1621 0.0
H1182 H 0.28859 0.8595 0.17176 0.0
H1183 H 0.33369 0.80123 0.08916 0.0
H1184 H 0.31778 0.82723 0.05415 0.0
H1185 H 0.25283 0.85073 0.10725 0.0
C1186 C 0.28775 0.78977 0.18429 0.0
C1187 C 0.30714 0.77181 0.18819 0.0
C1188 C 0.32664 0.76699 0.16799 0.0
C1189 C 0.32692 0.77978 0.14406 0.0
C1190 C 0.3074 0.79721 0.14062 0.0
C1191 C 0.28813 0.80223 0.16011 0.0
C1192 C 0.26878 0.82081 0.15066 0.0
C1193 C 0.24145 0.80547 0.14811 0.0
C1194 C 0.26873 0.84863 0.16999 0.0
C1195 C 0.28009 0.82528 0.12273 0.0
C1196 C 0.30245 0.81158 0.11752 0.0
C1197 C 0.31627 0.81213 0.09302 0.0
C1198 C 0.307 0.82698 0.07322 0.0
C1199 C 0.28402 0.84109 0.07786 0.0
C1200 C 0.27047 0.84026 0.10308 0.0
H1201 H 0.98892 0.45508 0.12373 0.0
H1202 H 0.03592 0.50106 0.06864 0.0
H1203 H 0.0725 0.50692 0.10135 0.0
H1204 H 0.00845 0.49841 0.1835 0.0
H1205 H 0.00839 0.47115 0.20514 0.0
H1206 H 0.98749 0.46665 0.17575 0.0
H1207 H 0.00753 0.42041 0.15697 0.0
H1208 H 0.02832 0.42456 0.18651 0.0
H1209 H 0.04221 0.42038 0.15243 0.0
H1210 H 0.10212 0.51165 0.14179 0.0
H1211 H 0.12305 0.51489 0.1869 0.0
H1212 H 0.05625 0.46695 0.21691 0.0
C1213 C 0.00734 0.46538 0.11831 0.0
C1214 C 0.01027 0.47661 0.09332 0.0
C1215 C 0.03396 0.49136 0.08725 0.0
C1216 C 0.05465 0.49494 0.10578 0.0
C1217 C 0.05113 0.48392 0.13049 0.0
C1218 C 0.0281 0.46935 0.13678 0.0
C1219 C 0.02855 0.46187 0.16574 0.0
C1220 C 0.00694 0.47533 0.18358 0.0
C1221 C 0.02654 0.4299 0.16538 0.0
C1222 C 0.0552 0.47495 0.17491 0.0
C1223 C 0.06798 0.48735 0.15417 0.0
C1224 C 0.09242 0.50175 0.15809 0.0
C1225 C 0.10413 0.50355 0.18385 0.0
C1226 C 0.09138 0.49113 0.20552 0.0
C1227 C 0.06663 0.47651 0.20078 0.0
H1228 H 0.33784 0.7713 0.29229 0.0
H1229 H 0.33773 0.68713 0.24892 0.0
H1230 H 0.36953 0.67571 0.28196 0.0
H1231 H 0.40516 0.78087 0.30343 0.0
H1232 H 0.40295 0.8012 0.33685 0.0
H1233 H 0.37788 0.80141 0.31201 0.0
H1234 H 0.34321 0.78545 0.34666 0.0
H1235 H 0.36819 0.78528 0.37169 0.0
H1236 H 0.34688 0.75416 0.36193 0.0
H1237 H 0.40425 0.67503 0.31766 0.0
H1238 H 0.43856 0.68486 0.35283 0.0
H1239 H 0.41697 0.7703 0.37165 0.0
C1240 C 0.3444 0.75043 0.28998 0.0
C1241 C 0.33534 0.73001 0.26822 0.0
C1242 C 0.34416 0.70285 0.26579 0.0
C1243 C 0.36231 0.69628 0.28435 0.0
C1244 C 0.37142 0.71716 0.30522 0.0
C1245 C 0.36265 0.74367 0.30817 0.0
C1246 C 0.37664 0.76289 0.33115 0.0
C1247 C 0.39154 0.78807 0.3202 0.0
C1248 C 0.35759 0.7725 0.35423 0.0
C1249 C 0.39501 0.74325 0.34039 0.0
C1250 C 0.39156 0.71689 0.32538 0.0
C1251 C 0.40694 0.69554 0.32968 0.0
C1252 C 0.42642 0.70133 0.34971 0.0
C1253 C 0.43049 0.72833 0.36511 0.0
C1254 C 0.41434 0.74939 0.3604 0.0
H1255 H 0.95756 0.40548 0.04597 0.0
H1256 H 0.02938 0.45663 0.03777 0.0
H1257 H 0.04941 0.41555 0.01347 0.0
H1258 H 0.9852 0.33819 0.051 0.0
H1259 H 0.96027 0.31812 0.02984 0.0
H1260 H 0.95313 0.35019 0.05083 0.0
H1261 H 0.93748 0.36932 0.00781 0.0
H1262 H 0.94471 0.33744 0.98667 0.0
H1263 H 0.959 0.37072 0.97865 0.0
H1264 H 0.06033 0.37022 0.98664 0.0
H1265 H 0.06135 0.32451 0.95781 0.0
H1266 H 0.98092 0.30331 0.97932 0.0
C1267 C 0.97763 0.40781 0.03942 0.0
C1268 C 0.99218 0.43409 0.04431 0.0
C1269 C 0.01828 0.43651 0.03523 0.0
C1270 C 0.02968 0.41332 0.02112 0.0
C1271 C 0.01457 0.38789 0.01594 0.0
C1272 C 0.98907 0.385 0.02472 0.0
C1273 C 0.97629 0.35623 0.01403 0.0
C1274 C 0.96825 0.3397 0.03785 0.0
C1275 C 0.953 0.35858 0.9957 0.0
C1276 C 0.99848 0.34356 0.99744 0.0
C1277 C 0.02047 0.36207 0.99923 0.0
C1278 C 0.04328 0.35549 0.98524 0.0
C1279 C 0.04363 0.32941 0.96886 0.0
C1280 C 0.02121 0.31022 0.96622 0.0
C1281 C 0.99839 0.31744 0.98091 0.0
H1282 H 0.62299 0.79231 0.24735 0.0
H1283 H 0.68712 0.76691 0.2906 0.0
H1284 H 0.65677 0.7521 0.32666 0.0
H1285 H 0.58773 0.82028 0.30665 0.0
H1286 H 0.55615 0.80806 0.29277 0.0
H1287 H 0.58277 0.81569 0.27006 0.0
H1288 H 0.57577 0.7655 0.24361 0.0
H1289 H 0.54903 0.75775 0.26615 0.0
H1290 H 0.57572 0.73578 0.26214 0.0
H1291 H 0.61977 0.74164 0.35833 0.0
H1292 H 0.57845 0.73471 0.38331 0.0
H1293 H 0.53783 0.76669 0.31919 0.0
C1294 C 0.63038 0.78336 0.26437 0.0
C1295 C 0.65712 0.7805 0.26651 0.0
C1296 C 0.66654 0.769 0.28892 0.0
C1297 C 0.6495 0.76064 0.30935 0.0
C1298 C 0.62315 0.76392 0.30688 0.0
C1299 C 0.61358 0.77487 0.28491 0.0
C1300 C 0.58445 0.77644 0.28738 0.0
C1301 C 0.57737 0.80693 0.28934 0.0
C1302 C 0.57042 0.75775 0.2634 0.0
C1303 C 0.57917 0.76485 0.31426 0.0
C1304 C 0.60177 0.75778 0.32514 0.0
C1305 C 0.60193 0.74699 0.34997 0.0
C1306 C 0.57833 0.74318 0.36403 0.0
C1307 C 0.55484 0.75012 0.35323 0.0
C1308 C 0.5554 0.76113 0.32799 0.0
H1309 H 0.01005 0.05867 0.01059 0.0
H1310 H 0.08931 0.07379 0.03886 0.0
H1311 H 0.09728 0.11084 0.00871 0.0
H1312 H 0.02088 0.0769 0.93909 0.0
H1313 H 0.99109 0.09394 0.94037 0.0
H1314 H 0.99367 0.06466 0.95901 0.0
H1315 H 0.98031 0.09509 1.00374 0.0
H1316 H 0.97814 0.1246 0.98548 0.0
H1317 H 0.99893 0.12775 0.01495 0.0
H1318 H 0.09441 0.15067 0.98112 0.0
H1319 H 0.08186 0.18921 0.95747 0.0
H1320 H 1.00307 0.15025 0.94972 0.0
C1321 C 0.02928 0.06925 0.00966 0.0
C1322 C 0.04918 0.06337 0.02675 0.0
C1323 C 0.07405 0.07769 0.02544 0.0
C1324 C 0.07862 0.09887 0.00855 0.0
C1325 C 0.05806 0.10534 0.99316 0.0
C1326 C 0.03391 0.09075 0.99338 0.0
C1327 C 0.01422 0.10388 0.97778 0.0
C1328 C 1.00439 0.08364 0.95256 0.0
C1329 C 0.99158 0.11339 0.99662 0.0
C1330 C 0.03081 0.12871 0.96939 0.0
C1331 C 0.05613 0.1289 0.97808 0.0
C1332 C 0.07474 0.15048 0.97391 0.0
C1333 C 0.06735 0.17238 0.96052 0.0
C1334 C 0.04144 0.17282 0.95167 0.0
C1335 C 0.02303 0.15051 0.95609 0.0
H1336 H 0.36285 0.32263 0.29034 0.0
H1337 H 0.31555 0.24434 0.27193 0.0
H1338 H 0.35042 0.22521 0.24126 0.0
H1339 H 0.38404 0.3263 0.22355 0.0
H1340 H 0.41623 0.34191 0.23228 0.0
H1341 H 0.38987 0.34746 0.25631 0.0
H1342 H 0.41531 0.32805 0.29344 0.0
H1343 H 0.44197 0.32278 0.26966 0.0
H1344 H 0.42744 0.29392 0.28587 0.0
H1345 H 0.38859 0.21697 0.20874 0.0
H1346 H 0.42696 0.21933 0.17822 0.0
H1347 H 0.44806 0.30455 0.21606 0.0
C1348 C 0.36015 0.30126 0.28023 0.0
C1349 C 0.33663 0.28485 0.28337 0.0
C1350 C 0.33361 0.25701 0.26995 0.0
C1351 C 0.35323 0.24613 0.25242 0.0
C1352 C 0.37571 0.26343 0.24866 0.0
C1353 C 0.37932 0.29036 0.26241 0.0
C1354 C 0.40406 0.30561 0.25312 0.0
C1355 C 0.39819 0.33186 0.24057 0.0
C1356 C 0.42334 0.31302 0.27694 0.0
C1357 C 0.41365 0.2833 0.23152 0.0
C1358 C 0.3972 0.25901 0.22947 0.0
C1359 C 0.40168 0.2358 0.21038 0.0
C1360 C 0.42353 0.2374 0.19305 0.0
C1361 C 0.44058 0.26214 0.19466 0.0
C1362 C 0.43546 0.28533 0.21425 0.0
H1363 H 0.56289 0.41359 0.99057 0.0
H1364 H 0.5435 0.48732 0.04441 0.0
H1365 H 0.54034 0.46001 0.08383 0.0
H1366 H 0.51897 0.36782 0.01609 0.0
H1367 H 0.53851 0.33836 0.01312 0.0
H1368 H 0.54457 0.36467 0.99071 0.0
H1369 H 0.59248 0.37338 0.00628 0.0
H1370 H 0.58686 0.34651 0.02829 0.0
H1371 H 0.59974 0.38123 0.04236 0.0
H1372 H 0.53148 0.42219 0.11495 0.0
H1373 H 0.52273 0.37876 0.13634 0.0
H1374 H 0.5487 0.33003 0.06166 0.0
C1375 C 0.55926 0.42413 0.01099 0.0
C1376 C 0.55393 0.45251 0.01485 0.0
C1377 C 0.54826 0.46572 0.04146 0.0
C1378 C 0.54621 0.45028 0.06378 0.0
C1379 C 0.55023 0.42178 0.05904 0.0
C1380 C 0.55723 0.40901 0.03335 0.0
C1381 C 0.55821 0.37774 0.03289 0.0
C1382 C 0.53892 0.36119 0.01197 0.0
C1383 C 0.58598 0.36922 0.02712 0.0
C1384 C 0.54984 0.37465 0.06205 0.0
C1385 C 0.54536 0.40023 0.0769 0.0
C1386 C 0.53549 0.40215 0.10367 0.0
C1387 C 0.53039 0.37736 0.11559 0.0
C1388 C 0.53523 0.35101 0.10078 0.0
C1389 C 0.54518 0.34985 0.07371 0.0
H1390 H 0.63121 0.20414 0.29551 0.0
H1391 H 0.69662 0.25265 0.26456 0.0
H1392 H 0.66747 0.27151 0.23328 0.0
H1393 H 0.59771 0.18609 0.2301 0.0
H1394 H 0.56587 0.18851 0.24538 0.0
H1395 H 0.59204 0.17879 0.2648 0.0
H1396 H 0.58418 0.21958 0.30328 0.0
H1397 H 0.55811 0.22957 0.28388 0.0
H1398 H 0.58478 0.25482 0.29493 0.0
H1399 H 0.63101 0.28609 0.20695 0.0
H1400 H 0.59017 0.29345 0.18484 0.0
H1401 H 0.54831 0.23433 0.23227 0.0
C1402 C 0.63919 0.21853 0.28187 0.0
C1403 C 0.6659 0.22705 0.282 0.0
C1404 C 0.67609 0.24598 0.26427 0.0
C1405 C 0.65972 0.25676 0.24666 0.0
C1406 C 0.6333 0.24818 0.24707 0.0
C1407 C 0.6231 0.22929 0.26402 0.0
C1408 C 0.59405 0.22341 0.26033 0.0
C1409 C 0.58701 0.19236 0.2495 0.0
C1410 C 0.57943 0.23239 0.2872 0.0
C1411 C 0.58947 0.2421 0.23885 0.0
C1412 C 0.61234 0.25628 0.23158 0.0
C1413 C 0.61299 0.27501 0.21237 0.0
C1414 C 0.58966 0.27912 0.20001 0.0
C1415 C 0.56603 0.26446 0.2068 0.0
C1416 C 0.56604 0.24582 0.22659 0.0
H1417 H 0.46638 0.12491 1.00049 0.0
H1418 H 0.529 0.07454 0.01393 0.0
H1419 H 0.55177 0.1153 0.04208 0.0
H1420 H 0.50441 0.19492 1.00393 0.0
H1421 H 0.47892 0.2123 0.02305 0.0
H1422 H 0.47101 0.18158 0.99856 0.0
H1423 H 0.44603 0.15788 0.03655 0.0
H1424 H 0.45414 0.18824 0.06126 0.0
H1425 H 0.46259 0.15428 0.06764 0.0
H1426 H 0.56455 0.15936 0.07377 0.0
H1427 H 0.56627 0.20251 0.10707 0.0
H1428 H 0.49269 0.22261 0.07692 0.0
C1429 C 0.48528 0.12286 0.00872 0.0
C1430 C 0.49628 0.09685 1.00463 0.0
C1431 C 0.52076 0.09455 0.01602 0.0
C1432 C 0.53365 0.11754 0.03227 0.0
C1433 C 0.52161 0.14256 0.03708 0.0
C1434 C 0.49795 0.14535 0.02558 0.0
C1435 C 0.48731 0.1729 0.03697 0.0
C1436 C 0.48531 0.19153 0.01427 0.0
C1437 C 0.46097 0.16802 0.05147 0.0
C1438 C 0.50832 0.18488 0.05729 0.0
C1439 C 0.52819 0.16733 0.0566 0.0
C1440 C 0.54926 0.17339 0.07425 0.0
C1441 C 0.55001 0.19795 0.09315 0.0
C1442 C 0.52959 0.21593 0.09463 0.0
C1443 C 0.5086 0.20931 0.07628 0.0
H1444 H 0.2547 0.33297 0.7592 0.0
H1445 H 0.22194 0.336 0.6795 0.0
H1446 H 0.25298 0.37678 0.67318 0.0
H1447 H 0.25993 0.40487 0.77955 0.0
H1448 H 0.28978 0.40595 0.79816 0.0
H1449 H 0.26805 0.3746 0.79432 0.0
H1450 H 0.3051 0.3458 0.77254 0.0
H1451 H 0.32708 0.37705 0.77652 0.0
H1452 H 0.32261 0.35661 0.74319 0.0
H1453 H 0.28458 0.42024 0.67814 0.0
H1454 H 0.31428 0.46208 0.69328 0.0
H1455 H 0.32474 0.43127 0.7709 0.0
C1456 C 0.25444 0.34204 0.74027 0.0
C1457 C 0.23609 0.33157 0.71979 0.0
C1458 C 0.23614 0.3437 0.69521 0.0
C1459 C 0.25359 0.36685 0.69156 0.0
C1460 C 0.27083 0.37741 0.71271 0.0
C1461 C 0.27147 0.36523 0.73651 0.0
C1462 C 0.29025 0.38176 0.75708 0.0
C1463 C 0.27615 0.39243 0.78385 0.0
C1464 C 0.31259 0.36426 0.76265 0.0
C1465 C 0.29968 0.40559 0.74146 0.0
C1466 C 0.28853 0.40258 0.71578 0.0
C1467 C 0.29362 0.42263 0.69809 0.0
C1468 C 0.31047 0.44637 0.7069 0.0
C1469 C 0.32185 0.45 0.73328 0.0
C1470 C 0.31643 0.42914 0.7506 0.0
H1471 H 0.24809 0.68223 0.76231 0.0
H1472 H 0.22181 0.6776 0.84575 0.0
H1473 H 0.25529 0.64496 0.85136 0.0
H1474 H 0.25685 0.61092 0.74558 0.0
H1475 H 0.28515 0.61583 0.72422 0.0
H1476 H 0.26161 0.6415 0.7282 0.0
H1477 H 0.29764 0.68038 0.74484 0.0
H1478 H 0.32136 0.65483 0.7408 0.0
H1479 H 0.31766 0.67629 0.7734 0.0
H1480 H 0.28893 0.60944 0.84605 0.0
H1481 H 0.32015 0.57441 0.83074 0.0
H1482 H 0.32337 0.60148 0.75002 0.0
C1483 C 0.24966 0.6745 0.7818 0.0
C1484 C 0.23255 0.68228 0.80365 0.0
C1485 C 0.23507 0.67202 0.82897 0.0
C1486 C 0.25391 0.65345 0.83224 0.0
C1487 C 0.27007 0.64551 0.80997 0.0
C1488 C 0.26821 0.65586 0.78528 0.0
C1489 C 0.28661 0.64269 0.76395 0.0
C1490 C 0.27166 0.62679 0.73902 0.0
C1491 C 0.30703 0.66487 0.75525 0.0
C1492 C 0.29872 0.6228 0.78025 0.0
C1493 C 0.28915 0.62492 0.80683 0.0
C1494 C 0.29675 0.60782 0.82537 0.0
C1495 C 0.31446 0.58793 0.81645 0.0
C1496 C 0.32427 0.58518 0.78918 0.0
C1497 C 0.31639 0.60311 0.77103 0.0
H1498 H 0.89187 0.52952 0.48486 0.0
H1499 H 0.95774 0.48936 0.50924 0.0
H1500 H 0.92805 0.45429 0.52923 0.0
H1501 H 0.85122 0.51968 0.54403 0.0
H1502 H 0.82157 0.5126 0.5247 0.0
H1503 H 0.84798 0.53476 0.51282 0.0
H1504 H 0.84795 0.50277 0.46601 0.0
H1505 H 0.82148 0.48058 0.4777 0.0
H1506 H 0.85103 0.46579 0.46523 0.0
H1507 H 0.89152 0.42435 0.54681 0.0
H1508 H 0.8503 0.39919 0.55871 0.0
H1509 H 0.80756 0.45785 0.52161 0.0
C1510 C 0.8998 0.51323 0.49443 0.0
C1511 C 0.92684 0.51174 0.49561 0.0
C1512 C 0.93695 0.49039 0.50815 0.0
C1513 C 0.92029 0.47061 0.51958 0.0
C1514 C 0.89362 0.47253 0.51813 0.0
C1515 C 0.88338 0.49314 0.50572 0.0
C1516 C 0.85397 0.48998 0.50634 0.0
C1517 C 0.84305 0.51579 0.52297 0.0
C1518 C 0.84297 0.48444 0.47708 0.0
C1519 C 0.8493 0.46437 0.521 0.0
C1520 C 0.87246 0.45482 0.52781 0.0
C1521 C 0.87324 0.43157 0.54155 0.0
C1522 C 0.8497 0.41746 0.54827 0.0
C1523 C 0.82569 0.4265 0.54106 0.0
C1524 C 0.82559 0.45038 0.52736 0.0
H1525 H 0.77835 0.8621 0.80219 0.0
H1526 H 0.727 0.78599 0.79089 0.0
H1527 H 0.69014 0.81349 0.7833 0.0
H1528 H 0.73251 0.90682 0.83796 0.0
H1529 H 0.74343 0.93696 0.82162 0.0
H1530 H 0.76569 0.91131 0.82632 0.0
H1531 H 0.77583 0.90475 0.77414 0.0
H1532 H 0.75356 0.93037 0.76927 0.0
H1533 H 0.74958 0.89574 0.7501 0.0
H1534 H 0.65912 0.84894 0.77724 0.0
H1535 H 0.63538 0.89019 0.77292 0.0
H1536 H 0.70681 0.94398 0.78729 0.0
C1537 C 0.75927 0.85143 0.79816 0.0
C1538 C 0.75522 0.82208 0.79745 0.0
C1539 C 0.73018 0.80854 0.79195 0.0
C1540 C 0.70927 0.82395 0.78748 0.0
C1541 C 0.7138 0.8529 0.78842 0.0
C1542 C 0.73815 0.86656 0.79357 0.0
C1543 C 0.73764 0.89787 0.79333 0.0
C1544 C 0.74527 0.9142 0.82148 0.0
C1545 C 0.75519 0.90776 0.77033 0.0
C1546 C 0.70919 0.89964 0.78735 0.0
C1547 C 0.69585 0.87342 0.78459 0.0
C1548 C 0.66934 0.86959 0.77931 0.0
C1549 C 0.65602 0.8932 0.7769 0.0
C1550 C 0.66919 0.92037 0.77973 0.0
C1551 C 0.69619 0.92351 0.78491 0.0
H1552 H 0.5728 0.54325 0.99816 0.0
H1553 H 0.60474 0.46257 0.98732 0.0
H1554 H 0.64905 0.48611 0.99468 0.0
H1555 H 0.62026 0.57713 0.96114 0.0
H1556 H 0.62129 0.61053 0.98266 0.0
H1557 H 0.59202 0.58741 0.98079 0.0
H1558 H 0.59189 0.58833 0.0336 0.0
H1559 H 0.62095 0.61188 0.03574 0.0
H1560 H 0.62029 0.57948 0.05016 0.0
H1561 H 0.69005 0.51888 0.99718 0.0
H1562 H 0.72435 0.55789 0.99882 0.0
H1563 H 0.66544 0.61748 0.00786 0.0
C1564 C 0.58914 0.53065 0.99816 0.0
C1565 C 0.58553 0.50116 0.9925 0.0
C1566 C 0.60721 0.48516 0.9922 0.0
C1567 C 0.63239 0.49839 0.99611 0.0
C1568 C 0.63544 0.52763 1.00049 0.0
C1569 C 0.61434 0.54356 1.00199 0.0
C1570 C 0.62288 0.57461 1.00521 0.0
C1571 C 0.61356 0.58821 0.98101 0.0
C1572 C 0.61344 0.58945 0.03282 0.0
C1573 C 0.65212 0.57372 1.00466 0.0
C1574 C 0.65898 0.54644 1.00199 0.0
C1575 C 0.68488 0.54032 0.99968 0.0
C1576 C 0.70423 0.56265 1.00047 0.0
C1577 C 0.69766 0.59081 1.00358 0.0
C1578 C 0.67118 0.59625 0.00569 0.0
H1579 H 0.28689 0.67152 0.20964 0.0
H1580 H 0.27795 0.72113 0.28882 0.0
H1581 H 0.2499 0.68197 0.3046 0.0
H1582 H 0.22299 0.64282 0.20331 0.0
H1583 H 0.23048 0.60877 0.18677 0.0
H1584 H 0.25232 0.6391 0.18319 0.0
H1585 H 0.29014 0.61541 0.20193 0.0
H1586 H 0.26848 0.58481 0.20529 0.0
H1587 H 0.28649 0.60243 0.23458 0.0
H1588 H 0.21882 0.63939 0.30932 0.0
H1589 H 0.18974 0.59573 0.30414 0.0
H1590 H 0.21944 0.57405 0.22148 0.0
C1591 C 0.27934 0.67377 0.23044 0.0
C1592 C 0.28433 0.6991 0.24814 0.0
C1593 C 0.27432 0.70166 0.27521 0.0
C1594 C 0.25837 0.67962 0.2842 0.0
C1595 C 0.25296 0.65518 0.26585 0.0
C1596 C 0.26347 0.65202 0.23964 0.0
C1597 C 0.25364 0.62439 0.22338 0.0
C1598 C 0.23899 0.62906 0.19765 0.0
C1599 C 0.27602 0.60565 0.21586 0.0
C1600 C 0.23542 0.61271 0.24424 0.0
C1601 C 0.23534 0.6307 0.26865 0.0
C1602 C 0.21901 0.62498 0.29044 0.0
C1603 C 0.20246 0.60019 0.28724 0.0
C1604 C 0.20237 0.58139 0.26244 0.0
C1605 C 0.2192 0.58781 0.24079 0.0
H1606 H 0.94216 0.51808 0.01672 0.0
H1607 H 0.91494 0.50484 0.09807 0.0
H1608 H 0.87863 0.5344 0.09381 0.0
H1609 H 0.92661 0.58967 0.02 0.0
H1610 H 0.91617 0.58598 0.98483 0.0
H1611 H 0.94017 0.56431 0.99457 0.0
H1612 H 0.91168 0.51972 0.97469 0.0
H1613 H 0.88766 0.54126 0.96475 0.0
H1614 H 0.87856 0.5147 0.98637 0.0
H1615 H 0.84564 0.56539 0.0806 0.0
H1616 H 0.81697 0.59419 0.05899 0.0
H1617 H 0.86474 0.58601 0.98514 0.0
C1618 C 0.92831 0.52126 0.03342 0.0
C1619 C 0.93097 0.5091 0.05763 0.0
C1620 C 0.91297 0.51402 0.0794 0.0
C1621 C 0.8924 0.53071 0.07712 0.0
C1622 C 0.89016 0.54228 0.05288 0.0
C1623 C 0.90753 0.53767 0.03134 0.0
C1624 C 0.90047 0.55215 0.00736 0.0
C1625 C 0.92215 0.57435 1.00135 0.0
C1626 C 0.89421 0.53067 0.98178 0.0
C1627 C 0.87638 0.56563 0.01875 0.0
C1628 C 0.8709 0.55981 0.0451 0.0
C1629 C 0.84971 0.57004 0.05996 0.0
C1630 C 0.83356 0.58645 0.04749 0.0
C1631 C 0.83852 0.59239 0.02032 0.0
C1632 C 0.86035 0.58185 0.0059 0.0
H1633 H 0.10047 0.018 0.07845 0.0
H1634 H 0.05913 1.00579 1.00153 0.0
H1635 H 0.0938 0.97742 0.9798 0.0
H1636 H 0.16741 0.0185 0.05049 0.0
H1637 H 0.17805 0.99908 0.07642 0.0
H1638 H 0.15242 0.02208 0.08406 0.0
H1639 H 0.12254 0.98078 0.09866 0.0
H1640 H 0.14787 0.95754 0.09069 0.0
H1641 H 0.11654 0.94919 0.07479 0.0
H1642 H 0.13106 0.94671 0.96813 0.0
H1643 H 0.1679 0.91716 0.96679 0.0
H1644 H 0.18269 0.94658 0.0529 0.0
C1645 C 0.09902 0.0097 0.0569 0.0
C1646 C 0.07723 0.01392 0.04156 0.0
C1647 C 0.07589 1.00298 0.01342 0.0
C1648 C 0.09538 0.98673 1.00107 0.0
C1649 C 0.11597 0.9817 0.01723 0.0
C1650 C 0.11796 0.99305 0.04453 0.0
C1651 C 0.14063 0.98265 0.05815 0.0
C1652 C 0.16083 1.00703 0.06784 0.0
C1653 C 0.13133 0.96659 0.08197 0.0
C1654 C 0.15093 0.96322 0.0344 0.0
C1655 C 0.13668 0.96324 0.01088 0.0
C1656 C 0.14241 0.94669 0.98639 0.0
C1657 C 0.16334 0.9299 0.98587 0.0
C1658 C 0.17813 0.92943 0.00977 0.0
C1659 C 0.17168 0.9463 0.03434 0.0
loop_
_geom_bond_atom_site_label_1
_geom_bond_atom_site_label_2
_geom_bond_distance
_geom_bond_site_symmetry_2
_ccdc_geom_bond_type
C0 N1 1.317 . S
C0 N2 1.314 1_455 S
C0 C3 1.485 1_545 S
N1 C0 1.317 . S
N1 N5 1.370 . S
N2 C0 1.314 1_655 S
N2 C4 1.351 . S
C3 C0 1.485 1_565 S
C3 H7 0.960 . S
C3 H8 0.961 . S
C3 H9 0.960 . S
C4 N2 1.351 . S
C4 N5 1.307 1_655 S
C4 C6 1.486 . S
N5 N1 1.370 . S
N5 C4 1.307 1_455 S
C6 C4 1.486 . S
C6 H10 0.960 . S
C6 H11 0.960 . S
C6 H12 0.959 . S
H7 C3 0.960 . S
H8 C3 0.961 . S
H9 C3 0.960 . S
H10 C6 0.960 . S
H11 C6 0.960 . S
H12 C6 0.959 . S
C13 N14 1.317 . S
C13 N15 1.348 . S
C13 C16 1.485 . S
N14 C13 1.317 . S
N14 N18 1.370 . S
N15 C13 1.348 . S
N15 C17 1.346 . S
C16 C13 1.485 . S
C16 H20 0.960 . S
C16 H21 0.961 . S
C16 H22 0.960 . S
C17 N15 1.346 . S
C17 N18 1.307 . S
C17 C19 1.486 . S
N18 N14 1.370 . S
N18 C17 1.307 . S
C19 C17 1.486 . S
C19 H23 0.960 . S
C19 H24 0.960 . S
C19 H25 0.959 . S
H20 C16 0.960 . S
H21 C16 0.961 . S
H22 C16 0.960 . S
H23 C19 0.960 . S
H24 C19 0.960 . S
H25 C19 0.959 . S
C26 N27 1.317 . S
C26 N28 1.348 . S
C26 C29 1.485 . S
N27 C26 1.317 . S
N27 N31 1.370 . S
N28 C26 1.348 . S
N28 C30 1.346 . S
C29 C26 1.485 . S
C29 H33 0.960 . S
C29 H34 0.961 . S
C29 H35 0.960 . S
C30 N28 1.346 . S
C30 N31 1.307 . S
C30 C32 1.486 . S
N31 N27 1.370 . S
N31 C30 1.307 . S
C32 C30 1.486 . S
C32 H36 0.960 1_554 S
C32 H37 0.960 . S
C32 H38 0.959 . S
H33 C29 0.960 . S
H34 C29 0.961 . S
H35 C29 0.960 . S
H36 C32 0.960 1_556 S
H37 C32 0.960 . S
H38 C32 0.959 . S
C39 N40 1.317 . S
C39 N41 1.348 . S
C39 C42 1.485 . S
N40 C39 1.317 . S
N40 N44 1.370 . S
N41 C39 1.348 . S
N41 C43 1.346 . S
C42 C39 1.485 . S
C42 H46 0.960 . S
C42 H47 0.961 . S
C42 H48 0.960 . S
C43 N41 1.346 . S
C43 N44 1.307 . S
C43 C45 1.486 . S
N44 N40 1.370 . S
N44 C43 1.307 . S
C45 C43 1.486 . S
C45 H49 0.960 . S
C45 H50 0.960 . S
C45 H51 0.959 . S
H46 C42 0.960 . S
H47 C42 0.961 . S
H48 C42 0.960 . S
H49 C45 0.960 . S
H50 C45 0.960 . S
H51 C45 0.959 . S
C52 N53 1.317 . S
C52 N54 1.348 . S
C52 C55 1.478 1_455 S
N53 C52 1.317 . S
N53 N57 1.370 . S
N54 C52 1.348 . S
N54 C56 1.346 . S
C55 C52 1.478 1_655 S
C55 H59 0.956 1_655 S
C55 H60 0.970 . S
C55 H61 0.958 1_655 S
C56 N54 1.346 . S
C56 N57 1.307 . S
C56 C58 1.486 1_565 S
N57 N53 1.370 . S
N57 C56 1.307 . S
C58 C56 1.486 1_545 S
C58 H62 0.960 . S
C58 H63 0.960 . S
C58 H64 0.959 . S
H59 C55 0.956 1_455 S
H60 C55 0.970 . S
H61 C55 0.958 1_455 S
H62 C58 0.960 . S
H63 C58 0.960 . S
H64 C58 0.959 . S
C65 N66 1.317 . S
C65 N67 1.348 . S
C65 C68 1.485 . S
N66 C65 1.317 . S
N66 N70 1.370 . S
N67 C65 1.348 . S
N67 C69 1.346 . S
C68 C65 1.485 . S
C68 H72 0.960 . S
C68 H73 0.961 . S
C68 H74 0.960 . S
C69 N67 1.346 . S
C69 N70 1.307 . S
C69 C71 1.486 . S
N70 N66 1.370 . S
N70 C69 1.307 . S
C71 C69 1.486 . S
C71 H75 0.960 . S
C71 H76 0.960 . S
C71 H77 0.959 . S
H72 C68 0.960 . S
H73 C68 0.961 . S
H74 C68 0.960 . S
H75 C71 0.960 . S
H76 C71 0.960 . S
H77 C71 0.959 . S
C78 N79 1.317 . S
C78 N80 1.348 . S
C78 C81 1.485 . S
N79 C78 1.317 . S
N79 N83 1.370 . S
N80 C78 1.348 . S
N80 C82 1.346 . S
C81 C78 1.485 . S
C81 H85 0.960 . S
C81 H86 0.961 . S
C81 H87 0.960 . S
C82 N80 1.346 . S
C82 N83 1.307 . S
C82 C84 1.486 . S
N83 N79 1.370 . S
N83 C82 1.307 . S
C84 C82 1.486 . S
C84 H88 0.960 . S
C84 H89 0.960 . S
C84 H90 0.959 . S
H85 C81 0.960 . S
H86 C81 0.961 . S
H87 C81 0.960 . S
H88 C84 0.960 . S
H89 C84 0.960 . S
H90 C84 0.959 . S
C91 N92 1.317 . S
C91 N93 1.348 . S
C91 C94 1.485 . S
N92 C91 1.317 . S
N92 N96 1.370 . S
N93 C91 1.348 . S
N93 C95 1.346 . S
C94 C91 1.485 . S
C94 H98 0.960 . S
C94 H99 0.961 . S
C94 H100 0.960 . S
C95 N93 1.346 . S
C95 N96 1.307 . S
C95 C97 1.486 . S
N96 N92 1.370 . S
N96 C95 1.307 . S
C97 C95 1.486 . S
C97 H101 0.960 . S
C97 H102 0.960 . S
C97 H103 0.959 . S
H98 C94 0.960 . S
H99 C94 0.961 . S
H100 C94 0.960 . S
H101 C97 0.960 . S
H102 C97 0.960 . S
H103 C97 0.959 . S
C104 N105 1.317 . S
C104 N106 1.348 . S
C104 C107 1.485 . S
N105 C104 1.317 . S
N105 N109 1.370 . S
N106 C104 1.348 . S
N106 C108 1.346 . S
C107 C104 1.485 . S
C107 H111 0.960 . S
C107 H112 0.961 . S
C107 H113 0.960 . S
C108 N106 1.346 . S
C108 N109 1.307 . S
C108 C110 1.486 . S
N109 N105 1.370 . S
N109 C108 1.307 . S
C110 C108 1.486 . S
C110 H114 0.960 . S
C110 H115 0.960 . S
C110 H116 0.959 . S
H111 C107 0.960 . S
H112 C107 0.961 . S
H113 C107 0.960 . S
H114 C110 0.960 . S
H115 C110 0.960 . S
H116 C110 0.959 . S
C117 N118 1.317 . S
C117 N119 1.348 . S
C117 C120 1.485 1_565 S
N118 C117 1.317 . S
N118 N122 1.370 . S
N119 C117 1.348 . S
N119 C121 1.346 . S
C120 C117 1.485 1_545 S
C120 H124 0.960 . S
C120 H125 0.961 . S
C120 H126 0.960 . S
C121 N119 1.346 . S
C121 N122 1.307 . S
C121 C123 1.486 . S
N122 N118 1.370 . S
N122 C121 1.307 . S
C123 C121 1.486 . S
C123 H127 0.960 . S
C123 H128 0.960 . S
C123 H129 0.959 . S
H124 C120 0.960 . S
H125 C120 0.961 . S
H126 C120 0.960 . S
H127 C123 0.960 . S
H128 C123 0.960 . S
H129 C123 0.959 . S
C130 N131 1.317 . S
C130 N132 1.348 . S
C130 C133 1.485 . S
N131 C130 1.317 . S
N131 N135 1.370 . S
N132 C130 1.348 . S
N132 C134 1.346 . S
C133 C130 1.485 . S
C133 H137 0.960 . S
C133 H138 0.961 . S
C133 H139 0.960 . S
C134 N132 1.346 . S
C134 N135 1.307 . S
C134 C136 1.486 . S
N135 N131 1.370 . S
N135 C134 1.307 . S
C136 C134 1.486 . S
C136 H140 0.960 . S
C136 H141 0.960 . S
C136 H142 0.959 . S
H137 C133 0.960 . S
H138 C133 0.961 . S
H139 C133 0.960 . S
H140 C136 0.960 . S
H141 C136 0.960 . S
H142 C136 0.959 . S
C143 N144 1.317 . S
C143 N145 1.348 . S
C143 C146 1.485 . S
N144 C143 1.317 . S
N144 N148 1.370 . S
N145 C143 1.348 . S
N145 C147 1.346 . S
C146 C143 1.485 . S
C146 H150 0.960 . S
C146 H151 0.961 . S
C146 H152 0.960 . S
C147 N145 1.346 . S
C147 N148 1.307 . S
C147 C149 1.486 . S
N148 N144 1.370 . S
N148 C147 1.307 . S
C149 C147 1.486 . S
C149 H153 0.960 . S
C149 H154 0.960 . S
C149 H155 0.959 . S
H150 C146 0.960 . S
H151 C146 0.961 . S
H152 C146 0.960 . S
H153 C149 0.960 . S
H154 C149 0.960 . S
H155 C149 0.959 . S
C156 N157 1.317 . S
C156 N158 1.348 . S
C156 C159 1.485 . S
N157 C156 1.317 . S
N157 N161 1.370 . S
N158 C156 1.348 . S
N158 C160 1.346 . S
C159 C156 1.485 . S
C159 H163 0.960 . S
C159 H164 0.961 . S
C159 H165 0.960 . S
C160 N158 1.346 . S
C160 N161 1.307 . S
C160 C162 1.486 . S
N161 N157 1.370 . S
N161 C160 1.307 . S
C162 C160 1.486 . S
C162 H166 0.960 . S
C162 H167 0.960 . S
C162 H168 0.959 . S
H163 C159 0.960 . S
H164 C159 0.961 . S
H165 C159 0.960 . S
H166 C162 0.960 . S
H167 C162 0.960 . S
H168 C162 0.959 . S
C169 N170 1.317 . S
C169 N171 1.348 . S
C169 C172 1.485 . S
N170 C169 1.317 . S
N170 N174 1.370 . S
N171 C169 1.348 . S
N171 C173 1.346 . S
C172 C169 1.485 . S
C172 H176 0.960 . S
C172 H177 0.961 . S
C172 H178 0.960 . S
C173 N171 1.346 . S
C173 N174 1.307 . S
C173 C175 1.486 . S
N174 N170 1.370 . S
N174 C173 1.307 . S
C175 C173 1.486 . S
C175 H179 0.960 . S
C175 H180 0.960 . S
C175 H181 0.959 . S
H176 C172 0.960 . S
H177 C172 0.961 . S
H178 C172 0.960 . S
H179 C175 0.960 . S
H180 C175 0.960 . S
H181 C175 0.959 . S
C182 N183 1.317 . S
C182 N184 1.348 . S
C182 C185 1.485 . S
N183 C182 1.317 . S
N183 N187 1.370 . S
N184 C182 1.348 . S
N184 C186 1.346 . S
C185 C182 1.485 . S
C185 H189 0.960 . S
C185 H190 0.961 . S
C185 H191 0.960 . S
C186 N184 1.346 . S
C186 N187 1.307 . S
C186 C188 1.486 . S
N187 N183 1.370 . S
N187 C186 1.307 . S
C188 C186 1.486 . S
C188 H192 0.960 . S
C188 H193 0.960 . S
C188 H194 0.959 . S
H189 C185 0.960 . S
H190 C185 0.961 . S
H191 C185 0.960 . S
H192 C188 0.960 . S
H193 C188 0.960 . S
H194 C188 0.959 . S
C195 N196 1.317 . S
C195 N197 1.348 . S
C195 C198 1.485 1_545 S
N196 C195 1.317 . S
N196 N200 1.370 . S
N197 C195 1.348 . S
N197 C199 1.346 . S
C198 C195 1.485 1_565 S
C198 H202 0.970 . S
C198 H203 0.961 . S
C198 H204 0.960 . S
C199 N197 1.346 . S
C199 N200 1.307 . S
C199 C201 1.486 1_556 S
N200 N196 1.370 . S
N200 C199 1.307 . S
C201 C199 1.486 1_554 S
C201 H205 0.960 . S
C201 H206 0.960 . S
C201 H207 0.959 . S
H202 C198 0.970 . S
H203 C198 0.961 . S
H204 C198 0.960 . S
H205 C201 0.960 . S
H206 C201 0.960 . S
H207 C201 0.959 . S
C208 O209 1.160 . S
C208 O215 1.185 . S
O209 C208 1.160 . S
O210 Zn211 1.899 1_556 S
O210 C218 1.284 . S
Zn211 O210 1.899 1_554 S
Zn211 O212 2.032 . S
Zn211 O215 2.086 . S
Zn211 O220 1.977 . S
O212 Zn211 2.032 . S
O212 C216 1.278 . S
C213 O214 1.203 . S
C213 O220 1.267 . S
O214 C213 1.203 . S
O215 C208 1.185 . S
O215 Zn211 2.086 . S
C216 O212 1.278 . S
C216 O217 1.211 . S
O217 C216 1.211 . S
C218 O210 1.284 . S
C218 O219 1.273 . S
O219 C218 1.273 . S
O220 Zn211 1.977 . S
O220 C213 1.267 . S
C221 O222 1.160 . S
C221 O228 1.185 . S
O222 C221 1.160 . S
O223 Zn224 1.899 . S
O223 C231 1.284 . S
Zn224 O223 1.899 . S
Zn224 O225 2.032 . S
Zn224 O228 2.086 . S
Zn224 O233 1.977 . S
O225 Zn224 2.032 . S
O225 C229 1.278 . S
C226 O227 1.203 . S
C226 O233 1.267 . S
O227 C226 1.203 . S
O228 C221 1.185 . S
O228 Zn224 2.086 . S
C229 O225 1.278 . S
C229 O230 1.211 . S
O230 C229 1.211 . S
C231 O223 1.284 . S
C231 O232 1.273 . S
O232 C231 1.273 . S
O233 Zn224 1.977 . S
O233 C226 1.267 . S
C234 O235 1.160 1_554 S
C234 O241 1.185 . S
O235 C234 1.160 1_556 S
O236 Zn237 1.899 1_556 S
O236 C244 1.284 . S
Zn237 O236 1.899 1_554 S
Zn237 O238 2.032 1_554 S
Zn237 O241 2.086 . S
Zn237 O246 1.977 . S
O238 Zn237 2.032 1_556 S
O238 C242 1.278 . S
C239 O240 1.203 . S
C239 O246 1.267 . S
O240 C239 1.203 . S
O241 C234 1.185 . S
O241 Zn237 2.086 . S
C242 O238 1.278 . S
C242 O243 1.211 1_556 S
O243 C242 1.211 1_554 S
C244 O236 1.284 . S
C244 O245 1.273 . S
O245 C244 1.273 . S
O246 Zn237 1.977 . S
O246 C239 1.267 . S
C247 O248 1.160 . S
C247 O254 1.185 . S
O248 C247 1.160 . S
O249 Zn250 1.899 . S
O249 C257 1.284 . S
Zn250 O249 1.899 . S
Zn250 O251 2.032 1_545 S
Zn250 O254 2.086 . S
Zn250 O259 1.977 . S
O251 Zn250 2.032 1_565 S
O251 C255 1.278 . S
C252 O253 1.203 1_545 S
C252 O259 1.267 . S
O253 C252 1.203 1_565 S
O254 C247 1.185 . S
O254 Zn250 2.086 . S
C255 O251 1.278 . S
C255 O256 1.211 . S
O256 C255 1.211 . S
C257 O249 1.284 . S
C257 O258 1.273 1_545 S
O258 C257 1.273 1_565 S
O259 Zn250 1.977 . S
O259 C252 1.267 . S
C260 O261 1.160 . S
C260 O267 1.185 . S
O261 C260 1.160 . S
O262 Zn263 1.899 . S
O262 C270 1.284 . S
Zn263 O262 1.899 . S
Zn263 O264 2.032 . S
Zn263 O267 2.086 . S
Zn263 O272 1.977 . S
O264 Zn263 2.032 . S
O264 C268 1.278 . S
C265 O266 1.203 . S
C265 O272 1.267 . S
O266 C265 1.203 . S
O267 C260 1.185 . S
O267 Zn263 2.086 . S
C268 O264 1.278 . S
C268 O269 1.211 . S
O269 C268 1.211 . S
C270 O262 1.284 . S
C270 O271 1.273 . S
O271 C270 1.273 . S
O272 Zn263 1.977 . S
O272 C265 1.267 . S
C273 O274 1.160 . S
C273 O280 1.185 . S
O274 C273 1.160 . S
O275 Zn276 1.899 . S
O275 C283 1.284 . S
Zn276 O275 1.899 . S
Zn276 O277 2.032 . S
Zn276 O280 2.086 . S
Zn276 O285 1.977 . S
O277 Zn276 2.032 . S
O277 C281 1.278 . S
C278 O279 1.203 . S
C278 O285 1.267 . S
O279 C278 1.203 . S
O280 C273 1.185 . S
O280 Zn276 2.086 . S
C281 O277 1.278 . S
C281 O282 1.211 . S
O282 C281 1.211 . S
C283 O275 1.284 . S
C283 O284 1.273 . S
O284 C283 1.273 . S
O285 Zn276 1.977 . S
O285 C278 1.267 . S
C286 O287 1.160 . S
C286 O293 1.185 . S
O287 C286 1.160 . S
O288 Zn289 1.899 . S
O288 C296 1.284 . S
Zn289 O288 1.899 . S
Zn289 O290 2.032 . S
Zn289 O293 2.086 . S
Zn289 O298 1.977 . S
O290 Zn289 2.032 . S
O290 C294 1.278 . S
C291 O292 1.203 . S
C291 O298 1.267 . S
O292 C291 1.203 . S
O293 C286 1.185 . S
O293 Zn289 2.086 . S
C294 O290 1.278 . S
C294 O295 1.211 . S
O295 C294 1.211 . S
C296 O288 1.284 . S
C296 O297 1.273 . S
O297 C296 1.273 . S
O298 Zn289 1.977 . S
O298 C291 1.267 . S
C299 O300 1.160 . S
C299 O306 1.185 . S
O300 C299 1.160 . S
O301 Zn302 1.899 . S
O301 C309 1.284 1_565 S
Zn302 O301 1.899 . S
Zn302 O303 2.032 1_565 S
Zn302 O306 2.086 . S
Zn302 O311 1.977 . S
O303 Zn302 2.032 1_545 S
O303 C307 1.278 . S
C304 O305 1.203 1_565 S
C304 O311 1.267 . S
O305 C304 1.203 1_545 S
O306 C299 1.185 . S
O306 Zn302 2.086 . S
C307 O303 1.278 . S
C307 O308 1.211 . S
O308 C307 1.211 . S
C309 O301 1.284 1_545 S
C309 O310 1.273 . S
O310 C309 1.273 . S
O311 Zn302 1.977 . S
O311 C304 1.267 . S
C312 O313 1.160 . S
C312 O319 1.185 1_655 S
O313 C312 1.160 . S
O314 Zn315 1.899 1_655 S
O314 C322 1.284 . S
Zn315 O314 1.899 1_455 S
Zn315 O316 2.032 1_455 S
Zn315 O319 2.086 . S
Zn315 O324 1.977 . S
O316 Zn315 2.032 1_655 S
O316 C320 1.278 1_655 S
C317 O318 1.203 . S
C317 O324 1.267 . S
O318 C317 1.203 . S
O319 C312 1.185 1_455 S
O319 Zn315 2.086 . S
C320 O316 1.278 1_455 S
C320 O321 1.211 . S
O321 C320 1.211 . S
C322 O314 1.284 . S
C322 O323 1.273 . S
O323 C322 1.273 . S
O324 Zn315 1.977 . S
O324 C317 1.267 . S
C325 O326 1.160 . S
C325 O332 1.185 . S
O326 C325 1.160 . S
O327 Zn328 1.899 . S
O327 C335 1.284 . S
Zn328 O327 1.899 . S
Zn328 O329 2.032 . S
Zn328 O332 2.086 . S
Zn328 O337 1.977 . S
O329 Zn328 2.032 . S
O329 C333 1.278 . S
C330 O331 1.203 . S
C330 O337 1.267 . S
O331 C330 1.203 . S
O332 C325 1.185 . S
O332 Zn328 2.086 . S
C333 O329 1.278 . S
C333 O334 1.211 . S
O334 C333 1.211 . S
C335 O327 1.284 . S
C335 O336 1.273 . S
O336 C335 1.273 . S
O337 Zn328 1.977 . S
O337 C330 1.267 . S
C338 O339 1.160 . S
C338 O345 1.185 . S
O339 C338 1.160 . S
O340 Zn341 1.917 . S
O340 C348 1.265 1_455 S
Zn341 O340 1.917 . S
Zn341 O342 2.032 . S
Zn341 O345 2.086 . S
Zn341 O350 1.977 . S
O342 Zn341 2.032 . S
O342 C346 1.278 . S
C343 O344 1.203 . S
C343 O350 1.267 . S
O344 C343 1.203 . S
O345 C338 1.185 . S
O345 Zn341 2.086 . S
C346 O342 1.278 . S
C346 O347 1.211 . S
O347 C346 1.211 . S
C348 O340 1.265 1_655 S
C348 O349 1.273 . S
O349 C348 1.273 . S
O350 Zn341 1.977 . S
O350 C343 1.267 . S
C351 O352 1.160 . S
C351 O358 1.185 . S
O352 C351 1.160 . S
O353 Zn354 1.899 . S
O353 C361 1.284 . S
Zn354 O353 1.899 . S
Zn354 O355 2.032 . S
Zn354 O358 2.086 . S
Zn354 O363 1.977 . S
O355 Zn354 2.032 . S
O355 C359 1.278 . S
C356 O357 1.203 . S
C356 O363 1.267 . S
O357 C356 1.203 . S
O358 C351 1.185 . S
O358 Zn354 2.086 . S
C359 O355 1.278 . S
C359 O360 1.211 . S
O360 C359 1.211 . S
C361 O353 1.284 . S
C361 O362 1.273 . S
O362 C361 1.273 . S
O363 Zn354 1.977 . S
O363 C356 1.267 . S
H364 C376 0.930 . S
H365 C378 0.930 . S
H366 C379 0.930 . S
H367 C383 0.959 . S
H368 C383 0.959 . S
H369 C383 0.961 . S
H370 C384 0.960 . S
H371 C384 0.961 . S
H372 C384 0.959 . S
H373 C387 0.929 . S
H374 C388 0.931 . S
H375 C390 0.930 . S
C376 H364 0.930 . S
C376 C377 1.399 . S
C376 C381 1.399 . S
C377 C376 1.399 . S
C377 C378 1.376 . S
C378 H365 0.930 . S
C378 C377 1.376 . S
C378 C379 1.388 . S
C379 H366 0.930 . S
C379 C378 1.388 . S
C379 C380 1.390 . S
C380 C379 1.390 . S
C380 C381 1.394 . S
C380 C386 1.465 . S
C381 C376 1.399 . S
C381 C380 1.394 . S
C381 C382 1.516 . S
C382 C381 1.516 . S
C382 C383 1.502 . S
C382 C384 1.561 . S
C382 C385 1.526 . S
C383 H367 0.959 . S
C383 H368 0.959 . S
C383 H369 0.961 . S
C383 C382 1.502 . S
C384 H370 0.960 . S
C384 H371 0.961 . S
C384 H372 0.959 . S
C384 C382 1.561 . S
C385 C382 1.526 . S
C385 C386 1.396 . S
C385 C390 1.390 . S
C386 C380 1.465 . S
C386 C385 1.396 . S
C386 C387 1.399 . S
C387 H373 0.929 . S
C387 C386 1.399 . S
C387 C388 1.385 . S
C388 H374 0.931 . S
C388 C387 1.385 . S
C388 C389 1.389 . S
C389 C388 1.389 . S
C389 C390 1.387 . S
C390 H375 0.930 . S
C390 C385 1.390 . S
C390 C389 1.387 . S
H391 C403 0.928 1_655 S
H392 C405 0.930 1_655 S
H393 C406 0.930 . S
H394 C410 0.959 . S
H395 C410 0.959 . S
H396 C410 0.961 . S
H397 C411 0.960 . S
H398 C411 0.961 . S
H399 C411 0.959 . S
H400 C414 0.929 . S
H401 C415 0.931 . S
H402 C417 0.930 . S
C403 H391 0.928 1_455 S
C403 C404 1.398 1_455 S
C403 C408 1.402 . S
C404 C403 1.398 1_655 S
C404 C405 1.376 1_655 S
C405 H392 0.930 1_455 S
C405 C404 1.376 1_455 S
C405 C406 1.388 . S
C406 H393 0.930 . S
C406 C405 1.388 . S
C406 C407 1.390 . S
C407 C406 1.390 . S
C407 C408 1.394 . S
C407 C413 1.465 . S
C408 C403 1.402 . S
C408 C407 1.394 . S
C408 C409 1.516 . S
C409 C408 1.516 . S
C409 C410 1.502 . S
C409 C411 1.561 . S
C409 C412 1.526 . S
C410 H394 0.959 . S
C410 H395 0.959 . S
C410 H396 0.961 . S
C410 C409 1.502 . S
C411 H397 0.960 . S
C411 H398 0.961 . S
C411 H399 0.959 . S
C411 C409 1.561 . S
C412 C409 1.526 . S
C412 C413 1.396 . S
C412 C417 1.390 . S
C413 C407 1.465 . S
C413 C412 1.396 . S
C413 C414 1.399 . S
C414 H400 0.929 . S
C414 C413 1.399 . S
C414 C415 1.385 . S
C415 H401 0.931 . S
C415 C414 1.385 . S
C415 C416 1.389 . S
C416 C415 1.389 . S
C416 C417 1.387 . S
C417 H402 0.930 . S
C417 C412 1.390 . S
C417 C416 1.387 . S
H418 C430 0.930 . S
H419 C432 0.930 . S
H420 C433 0.930 . S
H421 C437 0.959 . S
H422 C437 0.959 . S
H423 C437 0.961 . S
H424 C438 0.960 . S
H425 C438 0.961 . S
H426 C438 0.959 . S
H427 C441 0.929 . S
H428 C442 0.931 . S
H429 C444 0.930 . S
C430 H418 0.930 . S
C430 C431 1.399 . S
C430 C435 1.399 . S
C431 C430 1.399 . S
C431 C432 1.376 . S
C432 H419 0.930 . S
C432 C431 1.376 . S
C432 C433 1.388 . S
C433 H420 0.930 . S
C433 C432 1.388 . S
C433 C434 1.390 . S
C434 C433 1.390 . S
C434 C435 1.394 . S
C434 C440 1.465 . S
C435 C430 1.399 . S
C435 C434 1.394 . S
C435 C436 1.516 . S
C436 C435 1.516 . S
C436 C437 1.502 . S
C436 C438 1.561 . S
C436 C439 1.526 . S
C437 H421 0.959 . S
C437 H422 0.959 . S
C437 H423 0.961 . S
C437 C436 1.502 . S
C438 H424 0.960 . S
C438 H425 0.961 . S
C438 H426 0.959 . S
C438 C436 1.561 . S
C439 C436 1.526 . S
C439 C440 1.396 . S
C439 C444 1.390 . S
C440 C434 1.465 . S
C440 C439 1.396 . S
C440 C441 1.399 . S
C441 H427 0.929 . S
C441 C440 1.399 . S
C441 C442 1.385 . S
C442 H428 0.931 . S
C442 C441 1.385 . S
C442 C443 1.389 . S
C443 C442 1.389 . S
C443 C444 1.387 . S
C444 H429 0.930 . S
C444 C439 1.390 . S
C444 C443 1.387 . S
H445 C457 0.930 . S
H446 C459 0.930 . S
H447 C460 0.930 . S
H448 C464 0.959 . S
H449 C464 0.959 . S
H450 C464 0.961 . S
H451 C465 0.960 1_455 S
H452 C465 0.961 . S
H453 C465 0.959 1_565 S
H454 C468 0.929 . S
H455 C469 0.931 . S
H456 C471 0.930 . S
C457 H445 0.930 . S
C457 C458 1.399 1_545 S
C457 C462 1.399 1_455 S
C458 C457 1.399 1_565 S
C458 C459 1.376 1_455 S
C459 H446 0.930 . S
C459 C458 1.376 1_655 S
C459 C460 1.388 . S
C460 H447 0.930 . S
C460 C459 1.388 . S
C460 C461 1.390 . S
C461 C460 1.390 . S
C461 C462 1.394 1_565 S
C461 C467 1.465 . S
C462 C457 1.399 1_655 S
C462 C461 1.394 1_545 S
C462 C463 1.516 . S
C463 C462 1.516 . S
C463 C464 1.502 . S
C463 C465 1.561 . S
C463 C466 1.526 . S
C464 H448 0.959 . S
C464 H449 0.959 . S
C464 H450 0.961 . S
C464 C463 1.502 . S
C465 H451 0.960 1_655 S
C465 H452 0.961 . S
C465 H453 0.959 1_545 S
C465 C463 1.561 . S
C466 C463 1.526 . S
C466 C467 1.396 1_545 S
C466 C471 1.390 . S
C467 C461 1.465 . S
C467 C466 1.396 1_565 S
C467 C468 1.399 . S
C468 H454 0.929 . S
C468 C467 1.399 . S
C468 C469 1.385 . S
C469 H455 0.931 . S
C469 C468 1.385 . S
C469 C470 1.389 1_565 S
C470 C469 1.389 1_545 S
C470 C471 1.387 . S
C471 H456 0.930 . S
C471 C466 1.390 . S
C471 C470 1.387 . S
H472 C484 0.930 . S
H473 C486 0.930 . S
H474 C487 0.930 . S
H475 C491 0.959 . S
H476 C491 0.959 . S
H477 C491 0.961 . S
H478 C492 0.960 . S
H479 C492 0.961 . S
H480 C492 0.959 . S
H481 C495 0.929 . S
H482 C496 0.931 . S
H483 C498 0.930 . S
C484 H472 0.930 . S
C484 C485 1.399 . S
C484 C489 1.399 . S
C485 C484 1.399 . S
C485 C486 1.376 . S
C486 H473 0.930 . S
C486 C485 1.376 . S
C486 C487 1.388 . S
C487 H474 0.930 . S
C487 C486 1.388 . S
C487 C488 1.390 . S
C488 C487 1.390 . S
C488 C489 1.394 . S
C488 C494 1.465 . S
C489 C484 1.399 . S
C489 C488 1.394 . S
C489 C490 1.516 . S
C490 C489 1.516 . S
C490 C491 1.502 . S
C490 C492 1.561 . S
C490 C493 1.526 . S
C491 H475 0.959 . S
C491 H476 0.959 . S
C491 H477 0.961 . S
C491 C490 1.502 . S
C492 H478 0.960 . S
C492 H479 0.961 . S
C492 H480 0.959 . S
C492 C490 1.561 . S
C493 C490 1.526 . S
C493 C494 1.396 . S
C493 C498 1.390 . S
C494 C488 1.465 . S
C494 C493 1.396 . S
C494 C495 1.399 . S
C495 H481 0.929 . S
C495 C494 1.399 . S
C495 C496 1.385 . S
C496 H482 0.931 . S
C496 C495 1.385 . S
C496 C497 1.389 . S
C497 C496 1.389 . S
C497 C498 1.387 . S
C498 H483 0.930 . S
C498 C493 1.390 . S
C498 C497 1.387 . S
H499 C511 0.930 . S
H500 C513 0.930 . S
H501 C514 0.930 . S
H502 C518 0.959 . S
H503 C518 0.959 . S
H504 C518 0.961 . S
H505 C519 0.960 . S
H506 C519 0.961 . S
H507 C519 0.959 . S
H508 C522 0.929 . S
H509 C523 0.931 . S
H510 C525 0.930 . S
C511 H499 0.930 . S
C511 C512 1.399 . S
C511 C516 1.399 . S
C512 C511 1.399 . S
C512 C513 1.376 . S
C513 H500 0.930 . S
C513 C512 1.376 . S
C513 C514 1.388 . S
C514 H501 0.930 . S
C514 C513 1.388 . S
C514 C515 1.390 . S
C515 C514 1.390 . S
C515 C516 1.394 . S
C515 C521 1.465 . S
C516 C511 1.399 . S
C516 C515 1.394 . S
C516 C517 1.516 . S
C517 C516 1.516 . S
C517 C518 1.502 . S
C517 C519 1.561 . S
C517 C520 1.526 . S
C518 H502 0.959 . S
C518 H503 0.959 . S
C518 H504 0.961 . S
C518 C517 1.502 . S
C519 H505 0.960 . S
C519 H506 0.961 . S
C519 H507 0.959 . S
C519 C517 1.561 . S
C520 C517 1.526 . S
C520 C521 1.396 . S
C520 C525 1.390 . S
C521 C515 1.465 . S
C521 C520 1.396 . S
C521 C522 1.399 . S
C522 H508 0.929 . S
C522 C521 1.399 . S
C522 C523 1.385 . S
C523 H509 0.931 . S
C523 C522 1.385 . S
C523 C524 1.389 . S
C524 C523 1.389 . S
C524 C525 1.387 . S
C525 H510 0.930 . S
C525 C520 1.390 . S
C525 C524 1.387 . S
H526 C538 0.930 . S
H527 C540 0.930 . S
H528 C541 0.930 . S
H529 C545 0.959 . S
H530 C545 0.959 . S
H531 C545 0.961 . S
H532 C546 0.960 . S
H533 C546 0.961 . S
H534 C546 0.959 . S
H535 C549 0.929 . S
H536 C550 0.931 . S
H537 C552 0.930 . S
C538 H526 0.930 . S
C538 C539 1.399 . S
C538 C543 1.399 . S
C539 C538 1.399 . S
C539 C540 1.376 . S
C540 H527 0.930 . S
C540 C539 1.376 . S
C540 C541 1.388 . S
C541 H528 0.930 . S
C541 C540 1.388 . S
C541 C542 1.390 . S
C542 C541 1.390 . S
C542 C543 1.394 . S
C542 C548 1.465 . S
C543 C538 1.399 . S
C543 C542 1.394 . S
C543 C544 1.516 . S
C544 C543 1.516 . S
C544 C545 1.502 . S
C544 C546 1.561 . S
C544 C547 1.526 . S
C545 H529 0.959 . S
C545 H530 0.959 . S
C545 H531 0.961 . S
C545 C544 1.502 . S
C546 H532 0.960 . S
C546 H533 0.961 . S
C546 H534 0.959 . S
C546 C544 1.561 . S
C547 C544 1.526 . S
C547 C548 1.396 . S
C547 C552 1.390 . S
C548 C542 1.465 . S
C548 C547 1.396 . S
C548 C549 1.399 . S
C549 H535 0.929 . S
C549 C548 1.399 . S
C549 C550 1.385 . S
C550 H536 0.931 . S
C550 C549 1.385 . S
C550 C551 1.389 . S
C551 C550 1.389 . S
C551 C552 1.387 . S
C552 H537 0.930 . S
C552 C547 1.390 . S
C552 C551 1.387 . S
H553 C565 0.930 1_545 S
H554 C567 0.930 . S
H555 C568 0.930 . S
H556 C572 0.959 . S
H557 C572 0.959 . S
H558 C572 0.961 . S
H559 C573 0.960 . S
H560 C573 0.961 . S
H561 C573 0.959 . S
H562 C576 0.929 . S
H563 C577 0.931 . S
H564 C579 0.930 . S
C565 H553 0.930 1_565 S
C565 C566 1.399 . S
C565 C570 1.399 . S
C566 C565 1.399 . S
C566 C567 1.376 . S
C567 H554 0.930 . S
C567 C566 1.376 . S
C567 C568 1.388 . S
C568 H555 0.930 . S
C568 C567 1.388 . S
C568 C569 1.390 . S
C569 C568 1.390 . S
C569 C570 1.394 . S
C569 C575 1.465 . S
C570 C565 1.399 . S
C570 C569 1.394 . S
C570 C571 1.516 1_565 S
C571 C570 1.516 1_545 S
C571 C572 1.502 . S
C571 C573 1.561 . S
C571 C574 1.526 1_545 S
C572 H556 0.959 . S
C572 H557 0.959 . S
C572 H558 0.961 . S
C572 C571 1.502 . S
C573 H559 0.960 . S
C573 H560 0.961 . S
C573 H561 0.959 . S
C573 C571 1.561 . S
C574 C571 1.526 1_565 S
C574 C575 1.396 . S
C574 C579 1.390 1_565 S
C575 C569 1.465 . S
C575 C574 1.396 . S
C575 C576 1.399 . S
C576 H562 0.929 . S
C576 C575 1.399 . S
C576 C577 1.385 . S
C577 H563 0.931 . S
C577 C576 1.385 . S
C577 C578 1.389 . S
C578 C577 1.389 . S
C578 C579 1.387 1_565 S
C579 H564 0.930 . S
C579 C574 1.390 1_545 S
C579 C578 1.387 1_545 S
H580 C592 0.930 . S
H581 C594 0.930 . S
H582 C595 0.930 . S
H583 C599 0.959 . S
H584 C599 0.959 . S
H585 C599 0.961 . S
H586 C600 0.960 . S
H587 C600 0.961 . S
H588 C600 0.959 . S
H589 C603 0.929 . S
H590 C604 0.931 . S
H591 C606 0.930 . S
C592 H580 0.930 . S
C592 C593 1.399 . S
C592 C597 1.399 . S
C593 C592 1.399 . S
C593 C594 1.376 . S
C594 H581 0.930 . S
C594 C593 1.376 . S
C594 C595 1.388 . S
C595 H582 0.930 . S
C595 C594 1.388 . S
C595 C596 1.390 . S
C596 C595 1.390 . S
C596 C597 1.394 . S
C596 C602 1.465 . S
C597 C592 1.399 . S
C597 C596 1.394 . S
C597 C598 1.516 . S
C598 C597 1.516 . S
C598 C599 1.502 . S
C598 C600 1.561 . S
C598 C601 1.526 . S
C599 H583 0.959 . S
C599 H584 0.959 . S
C599 H585 0.961 . S
C599 C598 1.502 . S
C600 H586 0.960 . S
C600 H587 0.961 . S
C600 H588 0.959 . S
C600 C598 1.561 . S
C601 C598 1.526 . S
C601 C602 1.396 . S
C601 C606 1.390 . S
C602 C596 1.465 . S
C602 C601 1.396 . S
C602 C603 1.399 . S
C603 H589 0.929 . S
C603 C602 1.399 . S
C603 C604 1.385 . S
C604 H590 0.931 . S
C604 C603 1.385 . S
C604 C605 1.389 . S
C605 C604 1.389 . S
C605 C606 1.387 . S
C606 H591 0.930 . S
C606 C601 1.390 . S
C606 C605 1.387 . S
H607 C619 0.930 . S
H608 C621 0.930 . S
H609 C622 0.930 . S
H610 C626 0.959 . S
H611 C626 0.959 . S
H612 C626 0.961 . S
H613 C627 0.960 . S
H614 C627 0.961 . S
H615 C627 0.959 . S
H616 C630 0.929 . S
H617 C631 0.931 . S
H618 C633 0.930 . S
C619 H607 0.930 . S
C619 C620 1.399 . S
C619 C624 1.399 . S
C620 C619 1.399 . S
C620 C621 1.376 . S
C621 H608 0.930 . S
C621 C620 1.376 . S
C621 C622 1.388 . S
C622 H609 0.930 . S
C622 C621 1.388 . S
C622 C623 1.390 . S
C623 C622 1.390 . S
C623 C624 1.394 . S
C623 C629 1.465 . S
C624 C619 1.399 . S
C624 C623 1.394 . S
C624 C625 1.516 . S
C625 C624 1.516 . S
C625 C626 1.502 . S
C625 C627 1.561 . S
C625 C628 1.526 . S
C626 H610 0.959 . S
C626 H611 0.959 . S
C626 H612 0.961 . S
C626 C625 1.502 . S
C627 H613 0.960 . S
C627 H614 0.961 . S
C627 H615 0.959 . S
C627 C625 1.561 . S
C628 C625 1.526 . S
C628 C629 1.396 . S
C628 C633 1.390 . S
C629 C623 1.465 . S
C629 C628 1.396 . S
C629 C630 1.399 . S
C630 H616 0.929 . S
C630 C629 1.399 . S
C630 C631 1.385 . S
C631 H617 0.931 . S
C631 C630 1.385 . S
C631 C632 1.389 . S
C632 C631 1.389 . S
C632 C633 1.387 . S
C633 H618 0.930 . S
C633 C628 1.390 . S
C633 C632 1.387 . S
H634 C646 0.930 . S
H635 C648 0.930 . S
H636 C649 0.930 . S
H637 C653 0.959 . S
H638 C653 0.959 . S
H639 C653 0.961 . S
H640 C654 0.960 . S
H641 C654 0.961 . S
H642 C654 0.959 . S
H643 C657 0.929 . S
H644 C658 0.931 . S
H645 C660 0.930 . S
C646 H634 0.930 . S
C646 C647 1.399 . S
C646 C651 1.399 . S
C647 C646 1.399 . S
C647 C648 1.376 . S
C648 H635 0.930 . S
C648 C647 1.376 . S
C648 C649 1.388 . S
C649 H636 0.930 . S
C649 C648 1.388 . S
C649 C650 1.390 . S
C650 C649 1.390 . S
C650 C651 1.394 . S
C650 C656 1.465 . S
C651 C646 1.399 . S
C651 C650 1.394 . S
C651 C652 1.516 . S
C652 C651 1.516 . S
C652 C653 1.502 . S
C652 C654 1.561 . S
C652 C655 1.526 . S
C653 H637 0.959 . S
C653 H638 0.959 . S
C653 H639 0.961 . S
C653 C652 1.502 . S
C654 H640 0.960 . S
C654 H641 0.961 . S
C654 H642 0.959 . S
C654 C652 1.561 . S
C655 C652 1.526 . S
C655 C656 1.396 . S
C655 C660 1.390 . S
C656 C650 1.465 . S
C656 C655 1.396 . S
C656 C657 1.399 . S
C657 H643 0.929 . S
C657 C656 1.399 . S
C657 C658 1.385 . S
C658 H644 0.931 . S
C658 C657 1.385 . S
C658 C659 1.389 . S
C659 C658 1.389 . S
C659 C660 1.387 . S
C660 H645 0.930 . S
C660 C655 1.390 . S
C660 C659 1.387 . S
H661 C673 0.930 . S
H662 C675 0.930 . S
H663 C676 0.930 . S
H664 C680 0.959 . S
H665 C680 0.959 . S
H666 C680 0.961 . S
H667 C681 0.960 . S
H668 C681 0.961 . S
H669 C681 0.959 . S
H670 C684 0.929 . S
H671 C685 0.931 . S
H672 C687 0.930 . S
C673 H661 0.930 . S
C673 C674 1.399 . S
C673 C678 1.399 . S
C674 C673 1.399 . S
C674 C675 1.376 . S
C675 H662 0.930 . S
C675 C674 1.376 . S
C675 C676 1.388 . S
C676 H663 0.930 . S
C676 C675 1.388 . S
C676 C677 1.390 . S
C677 C676 1.390 . S
C677 C678 1.394 . S
C677 C683 1.465 . S
C678 C673 1.399 . S
C678 C677 1.394 . S
C678 C679 1.516 . S
C679 C678 1.516 . S
C679 C680 1.502 . S
C679 C681 1.561 . S
C679 C682 1.526 . S
C680 H664 0.959 . S
C680 H665 0.959 . S
C680 H666 0.961 . S
C680 C679 1.502 . S
C681 H667 0.960 . S
C681 H668 0.961 . S
C681 H669 0.959 . S
C681 C679 1.561 . S
C682 C679 1.526 . S
C682 C683 1.396 . S
C682 C687 1.390 . S
C683 C677 1.465 . S
C683 C682 1.396 . S
C683 C684 1.399 . S
C684 H670 0.929 . S
C684 C683 1.399 . S
C684 C685 1.385 . S
C685 H671 0.931 . S
C685 C684 1.385 . S
C685 C686 1.389 . S
C686 C685 1.389 . S
C686 C687 1.387 . S
C687 H672 0.930 . S
C687 C682 1.390 . S
C687 C686 1.387 . S
H688 C700 0.930 . S
H689 C702 0.930 . S
H690 C703 0.930 . S
H691 C707 0.959 . S
H692 C707 0.959 . S
H693 C707 0.961 . S
H694 C708 0.960 . S
H695 C708 0.961 . S
H696 C708 0.959 . S
H697 C711 0.929 . S
H698 C712 0.931 . S
H699 C714 0.930 . S
C700 H688 0.930 . S
C700 C701 1.399 . S
C700 C705 1.399 . S
C701 C700 1.399 . S
C701 C702 1.376 . S
C702 H689 0.930 . S
C702 C701 1.376 . S
C702 C703 1.388 . S
C703 H690 0.930 . S
C703 C702 1.388 . S
C703 C704 1.390 . S
C704 C703 1.390 . S
C704 C705 1.394 . S
C704 C710 1.465 . S
C705 C700 1.399 . S
C705 C704 1.394 . S
C705 C706 1.516 . S
C706 C705 1.516 . S
C706 C707 1.502 . S
C706 C708 1.561 . S
C706 C709 1.526 . S
C707 H691 0.959 . S
C707 H692 0.959 . S
C707 H693 0.961 . S
C707 C706 1.502 . S
C708 H694 0.960 . S
C708 H695 0.961 . S
C708 H696 0.959 . S
C708 C706 1.561 . S
C709 C706 1.526 . S
C709 C710 1.396 . S
C709 C714 1.390 . S
C710 C704 1.465 . S
C710 C709 1.396 . S
C710 C711 1.399 . S
C711 H697 0.929 . S
C711 C710 1.399 . S
C711 C712 1.385 . S
C712 H698 0.931 . S
C712 C711 1.385 . S
C712 C713 1.389 . S
C713 C712 1.389 . S
C713 C714 1.387 . S
C714 H699 0.930 . S
C714 C709 1.390 . S
C714 C713 1.387 . S
H715 C727 0.930 . S
H716 C729 0.930 . S
H717 C730 0.930 . S
H718 C734 0.959 . S
H719 C734 0.959 . S
H720 C734 0.961 . S
H721 C735 0.960 . S
H722 C735 0.961 . S
H723 C735 0.959 . S
H724 C738 0.929 . S
H725 C739 0.931 . S
H726 C741 0.930 . S
C727 H715 0.930 . S
C727 C728 1.399 . S
C727 C732 1.399 . S
C728 C727 1.399 . S
C728 C729 1.376 . S
C729 H716 0.930 . S
C729 C728 1.376 . S
C729 C730 1.388 . S
C730 H717 0.930 . S
C730 C729 1.388 . S
C730 C731 1.390 . S
C731 C730 1.390 . S
C731 C732 1.394 . S
C731 C737 1.465 . S
C732 C727 1.399 . S
C732 C731 1.394 . S
C732 C733 1.516 . S
C733 C732 1.516 . S
C733 C734 1.502 . S
C733 C735 1.561 . S
C733 C736 1.526 . S
C734 H718 0.959 . S
C734 H719 0.959 . S
C734 H720 0.961 . S
C734 C733 1.502 . S
C735 H721 0.960 . S
C735 H722 0.961 . S
C735 H723 0.959 . S
C735 C733 1.561 . S
C736 C733 1.526 . S
C736 C737 1.396 . S
C736 C741 1.390 . S
C737 C731 1.465 . S
C737 C736 1.396 . S
C737 C738 1.399 . S
C738 H724 0.929 . S
C738 C737 1.399 . S
C738 C739 1.385 . S
C739 H725 0.931 . S
C739 C738 1.385 . S
C739 C740 1.389 . S
C740 C739 1.389 . S
C740 C741 1.387 . S
C741 H726 0.930 . S
C741 C736 1.390 . S
C741 C740 1.387 . S
H742 C754 0.930 . S
H743 C756 0.930 . S
H744 C757 0.930 . S
H745 C761 0.959 . S
H746 C761 0.959 . S
H747 C761 0.961 . S
H748 C762 0.960 . S
H749 C762 0.961 . S
H750 C762 0.959 . S
H751 C765 0.929 . S
H752 C766 0.931 . S
H753 C768 0.930 . S
C754 H742 0.930 . S
C754 C755 1.399 . S
C754 C759 1.399 . S
C755 C754 1.399 . S
C755 C756 1.376 . S
C756 H743 0.930 . S
C756 C755 1.376 . S
C756 C757 1.388 . S
C757 H744 0.930 . S
C757 C756 1.388 . S
C757 C758 1.390 . S
C758 C757 1.390 . S
C758 C759 1.394 . S
C758 C764 1.465 . S
C759 C754 1.399 . S
C759 C758 1.394 . S
C759 C760 1.516 . S
C760 C759 1.516 . S
C760 C761 1.502 . S
C760 C762 1.561 . S
C760 C763 1.526 . S
C761 H745 0.959 . S
C761 H746 0.959 . S
C761 H747 0.961 . S
C761 C760 1.502 . S
C762 H748 0.960 . S
C762 H749 0.961 . S
C762 H750 0.959 . S
C762 C760 1.561 . S
C763 C760 1.526 . S
C763 C764 1.396 . S
C763 C768 1.390 . S
C764 C758 1.465 . S
C764 C763 1.396 . S
C764 C765 1.399 . S
C765 H751 0.929 . S
C765 C764 1.399 . S
C765 C766 1.385 . S
C766 H752 0.931 . S
C766 C765 1.385 . S
C766 C767 1.389 . S
C767 C766 1.389 . S
C767 C768 1.387 . S
C768 H753 0.930 . S
C768 C763 1.390 . S
C768 C767 1.387 . S
H769 C781 0.930 . S
H770 C783 0.930 . S
H771 C784 0.930 . S
H772 C788 0.959 . S
H773 C788 0.959 . S
H774 C788 0.961 . S
H775 C789 0.960 . S
H776 C789 0.961 . S
H777 C789 0.959 . S
H778 C792 0.929 . S
H779 C793 0.931 . S
H780 C795 0.930 . S
C781 H769 0.930 . S
C781 C782 1.399 . S
C781 C786 1.399 . S
C782 C781 1.399 . S
C782 C783 1.376 . S
C783 H770 0.930 . S
C783 C782 1.376 . S
C783 C784 1.388 . S
C784 H771 0.930 . S
C784 C783 1.388 . S
C784 C785 1.390 . S
C785 C784 1.390 . S
C785 C786 1.394 . S
C785 C791 1.465 . S
C786 C781 1.399 . S
C786 C785 1.394 . S
C786 C787 1.516 . S
C787 C786 1.516 . S
C787 C788 1.502 1_655 S
C787 C789 1.561 . S
C787 C790 1.526 . S
C788 H772 0.959 . S
C788 H773 0.959 . S
C788 H774 0.961 . S
C788 C787 1.502 1_455 S
C789 H775 0.960 . S
C789 H776 0.961 . S
C789 H777 0.959 . S
C789 C787 1.561 . S
C790 C787 1.526 . S
C790 C791 1.396 . S
C790 C795 1.390 1_655 S
C791 C785 1.465 . S
C791 C790 1.396 . S
C791 C792 1.399 . S
C792 H778 0.929 . S
C792 C791 1.399 . S
C792 C793 1.385 . S
C793 H779 0.931 . S
C793 C792 1.385 . S
C793 C794 1.389 1_655 S
C794 C793 1.389 1_455 S
C794 C795 1.387 . S
C795 H780 0.930 . S
C795 C790 1.390 1_455 S
C795 C794 1.387 . S
H796 C808 0.930 . S
H797 C810 0.930 . S
H798 C811 0.930 . S
H799 C815 0.959 . S
H800 C815 0.959 . S
H801 C815 0.961 . S
H802 C816 0.960 . S
H803 C816 0.961 . S
H804 C816 0.959 . S
H805 C819 0.929 . S
H806 C820 0.931 . S
H807 C822 0.930 . S
C808 H796 0.930 . S
C808 C809 1.399 . S
C808 C813 1.399 . S
C809 C808 1.399 . S
C809 C810 1.376 . S
C810 H797 0.930 . S
C810 C809 1.376 . S
C810 C811 1.388 . S
C811 H798 0.930 . S
C811 C810 1.388 . S
C811 C812 1.390 . S
C812 C811 1.390 . S
C812 C813 1.394 . S
C812 C818 1.465 . S
C813 C808 1.399 . S
C813 C812 1.394 . S
C813 C814 1.516 . S
C814 C813 1.516 . S
C814 C815 1.502 . S
C814 C816 1.561 . S
C814 C817 1.526 . S
C815 H799 0.959 . S
C815 H800 0.959 . S
C815 H801 0.961 . S
C815 C814 1.502 . S
C816 H802 0.960 . S
C816 H803 0.961 . S
C816 H804 0.959 . S
C816 C814 1.561 . S
C817 C814 1.526 . S
C817 C818 1.396 . S
C817 C822 1.390 . S
C818 C812 1.465 . S
C818 C817 1.396 . S
C818 C819 1.399 . S
C819 H805 0.929 . S
C819 C818 1.399 . S
C819 C820 1.385 . S
C820 H806 0.931 . S
C820 C819 1.385 . S
C820 C821 1.389 . S
C821 C820 1.389 . S
C821 C822 1.387 . S
C822 H807 0.930 . S
C822 C817 1.390 . S
C822 C821 1.387 . S
H823 C835 0.930 . S
H824 C837 0.930 . S
H825 C838 0.930 . S
H826 C842 0.959 . S
H827 C842 0.959 . S
H828 C842 0.961 . S
H829 C843 0.960 . S
H830 C843 0.961 . S
H831 C843 0.959 . S
H832 C846 0.929 . S
H833 C847 0.931 . S
H834 C849 0.930 . S
C835 H823 0.930 . S
C835 C836 1.399 . S
C835 C840 1.399 . S
C836 C835 1.399 . S
C836 C837 1.376 . S
C837 H824 0.930 . S
C837 C836 1.376 . S
C837 C838 1.388 . S
C838 H825 0.930 . S
C838 C837 1.388 . S
C838 C839 1.390 . S
C839 C838 1.390 . S
C839 C840 1.394 . S
C839 C845 1.465 . S
C840 C835 1.399 . S
C840 C839 1.394 . S
C840 C841 1.516 . S
C841 C840 1.516 . S
C841 C842 1.502 . S
C841 C843 1.561 . S
C841 C844 1.526 . S
C842 H826 0.959 . S
C842 H827 0.959 . S
C842 H828 0.961 . S
C842 C841 1.502 . S
C843 H829 0.960 . S
C843 H830 0.961 . S
C843 H831 0.959 . S
C843 C841 1.561 . S
C844 C841 1.526 . S
C844 C845 1.396 . S
C844 C849 1.390 . S
C845 C839 1.465 . S
C845 C844 1.396 . S
C845 C846 1.399 . S
C846 H832 0.929 . S
C846 C845 1.399 . S
C846 C847 1.385 . S
C847 H833 0.931 . S
C847 C846 1.385 . S
C847 C848 1.389 . S
C848 C847 1.389 . S
C848 C849 1.387 . S
C849 H834 0.930 . S
C849 C844 1.390 . S
C849 C848 1.387 . S
H850 C862 0.923 1_554 S
H851 C864 0.930 . S
H852 C865 0.938 . S
H853 C869 0.959 . S
H854 C869 0.959 . S
H855 C869 0.961 . S
H856 C870 0.960 . S
H857 C870 0.961 . S
H858 C870 0.959 . S
H859 C873 0.929 . S
H860 C874 0.931 . S
H861 C876 0.930 . S
C862 H850 0.923 1_556 S
C862 C863 1.407 1_565 S
C862 C867 1.398 1_556 S
C863 C862 1.407 1_545 S
C863 C864 1.376 . S
C864 H851 0.930 . S
C864 C863 1.376 . S
C864 C865 1.400 . S
C865 H852 0.938 . S
C865 C864 1.400 . S
C865 C866 1.371 1_545 S
C866 C865 1.371 1_565 S
C866 C867 1.394 1_556 S
C866 C872 1.465 . S
C867 C862 1.398 1_554 S
C867 C866 1.394 1_554 S
C867 C868 1.516 . S
C868 C867 1.516 . S
C868 C869 1.502 . S
C868 C870 1.561 . S
C868 C871 1.526 . S
C869 H853 0.959 . S
C869 H854 0.959 . S
C869 H855 0.961 . S
C869 C868 1.502 . S
C870 H856 0.960 . S
C870 H857 0.961 . S
C870 H858 0.959 . S
C870 C868 1.561 . S
C871 C868 1.526 . S
C871 C872 1.396 1_554 S
C871 C876 1.390 . S
C872 C866 1.465 . S
C872 C871 1.396 1_556 S
C872 C873 1.399 . S
C873 H859 0.929 . S
C873 C872 1.399 . S
C873 C874 1.385 . S
C874 H860 0.931 . S
C874 C873 1.385 . S
C874 C875 1.389 1_556 S
C875 C874 1.389 1_554 S
C875 C876 1.387 . S
C876 H861 0.930 . S
C876 C871 1.390 . S
C876 C875 1.387 . S
H877 C889 0.930 . S
H878 C891 0.930 . S
H879 C892 0.930 . S
H880 C896 0.959 . S
H881 C896 0.959 . S
H882 C896 0.961 . S
H883 C897 0.960 . S
H884 C897 0.961 . S
H885 C897 0.959 . S
H886 C900 0.929 . S
H887 C901 0.931 . S
H888 C903 0.930 . S
C889 H877 0.930 . S
C889 C890 1.399 . S
C889 C894 1.399 . S
C890 C889 1.399 . S
C890 C891 1.376 . S
C891 H878 0.930 . S
C891 C890 1.376 . S
C891 C892 1.388 . S
C892 H879 0.930 . S
C892 C891 1.388 . S
C892 C893 1.390 . S
C893 C892 1.390 . S
C893 C894 1.394 . S
C893 C899 1.465 . S
C894 C889 1.399 . S
C894 C893 1.394 . S
C894 C895 1.516 . S
C895 C894 1.516 . S
C895 C896 1.502 . S
C895 C897 1.561 . S
C895 C898 1.526 . S
C896 H880 0.959 . S
C896 H881 0.959 . S
C896 H882 0.961 . S
C896 C895 1.502 . S
C897 H883 0.960 . S
C897 H884 0.961 . S
C897 H885 0.959 . S
C897 C895 1.561 . S
C898 C895 1.526 . S
C898 C899 1.396 . S
C898 C903 1.390 . S
C899 C893 1.465 . S
C899 C898 1.396 . S
C899 C900 1.399 . S
C900 H886 0.929 . S
C900 C899 1.399 . S
C900 C901 1.385 . S
C901 H887 0.931 . S
C901 C900 1.385 . S
C901 C902 1.389 . S
C902 C901 1.389 . S
C902 C903 1.387 . S
C903 H888 0.930 . S
C903 C898 1.390 . S
C903 C902 1.387 . S
H904 C916 0.930 . S
H905 C918 0.930 . S
H906 C919 0.930 . S
H907 C923 0.959 . S
H908 C923 0.959 . S
H909 C923 0.977 . S
H910 C924 0.960 . S
H911 C924 0.961 . S
H912 C924 0.959 . S
H913 C927 0.929 . S
H914 C928 0.931 . S
H915 C930 0.930 . S
C916 H904 0.930 . S
C916 C917 1.399 . S
C916 C921 1.399 . S
C917 C916 1.399 . S
C917 C918 1.376 . S
C918 H905 0.930 . S
C918 C917 1.376 . S
C918 C919 1.388 . S
C919 H906 0.930 . S
C919 C918 1.388 . S
C919 C920 1.390 . S
C920 C919 1.390 . S
C920 C921 1.394 . S
C920 C926 1.465 . S
C921 C916 1.399 . S
C921 C920 1.394 . S
C921 C922 1.516 . S
C922 C921 1.516 . S
C922 C923 1.502 . S
C922 C924 1.561 . S
C922 C925 1.526 . S
C923 H907 0.959 . S
C923 H908 0.959 . S
C923 H909 0.977 . S
C923 C922 1.502 . S
C924 H910 0.960 . S
C924 H911 0.961 . S
C924 H912 0.959 . S
C924 C922 1.561 . S
C925 C922 1.526 . S
C925 C926 1.396 . S
C925 C930 1.390 . S
C926 C920 1.465 . S
C926 C925 1.396 . S
C926 C927 1.399 . S
C927 H913 0.929 . S
C927 C926 1.399 . S
C927 C928 1.385 . S
C928 H914 0.931 . S
C928 C927 1.385 . S
C928 C929 1.389 . S
C929 C928 1.389 . S
C929 C930 1.387 . S
C930 H915 0.930 . S
C930 C925 1.390 . S
C930 C929 1.387 . S
H931 C943 0.930 . S
H932 C945 0.930 . S
H933 C946 0.930 . S
H934 C950 0.959 . S
H935 C950 0.959 . S
H936 C950 0.961 . S
H937 C951 0.960 . S
H938 C951 0.961 . S
H939 C951 0.959 . S
H940 C954 0.929 . S
H941 C955 0.931 . S
H942 C957 0.930 . S
C943 H931 0.930 . S
C943 C944 1.399 . S
C943 C948 1.399 . S
C944 C943 1.399 . S
C944 C945 1.376 . S
C945 H932 0.930 . S
C945 C944 1.376 . S
C945 C946 1.388 . S
C946 H933 0.930 . S
C946 C945 1.388 . S
C946 C947 1.390 . S
C947 C946 1.390 . S
C947 C948 1.394 . S
C947 C953 1.465 . S
C948 C943 1.399 . S
C948 C947 1.394 . S
C948 C949 1.516 . S
C949 C948 1.516 . S
C949 C950 1.502 . S
C949 C951 1.561 . S
C949 C952 1.526 . S
C950 H934 0.959 . S
C950 H935 0.959 . S
C950 H936 0.961 . S
C950 C949 1.502 . S
C951 H937 0.960 . S
C951 H938 0.961 . S
C951 H939 0.959 . S
C951 C949 1.561 . S
C952 C949 1.526 . S
C952 C953 1.396 . S
C952 C957 1.390 . S
C953 C947 1.465 . S
C953 C952 1.396 . S
C953 C954 1.399 . S
C954 H940 0.929 . S
C954 C953 1.399 . S
C954 C955 1.385 . S
C955 H941 0.931 . S
C955 C954 1.385 . S
C955 C956 1.389 . S
C956 C955 1.389 . S
C956 C957 1.387 . S
C957 H942 0.930 . S
C957 C952 1.390 . S
C957 C956 1.387 . S
H958 C970 0.930 . S
H959 C972 0.930 1_565 S
H960 C973 0.930 . S
H961 C977 0.959 . S
H962 C977 0.959 . S
H963 C977 0.961 . S
H964 C978 0.960 . S
H965 C978 0.961 . S
H966 C978 0.959 . S
H967 C981 0.929 . S
H968 C982 0.931 . S
H969 C984 0.930 . S
C970 H958 0.930 . S
C970 C971 1.399 1_545 S
C970 C975 1.399 . S
C971 C970 1.399 1_565 S
C971 C972 1.376 1_565 S
C972 H959 0.930 1_545 S
C972 C971 1.376 1_545 S
C972 C973 1.388 . S
C973 H960 0.930 . S
C973 C972 1.388 . S
C973 C974 1.390 . S
C974 C973 1.390 . S
C974 C975 1.394 . S
C974 C980 1.465 . S
C975 C970 1.399 . S
C975 C974 1.394 . S
C975 C976 1.516 . S
C976 C975 1.516 . S
C976 C977 1.502 . S
C976 C978 1.561 . S
C976 C979 1.526 . S
C977 H961 0.959 . S
C977 H962 0.959 . S
C977 H963 0.961 . S
C977 C976 1.502 . S
C978 H964 0.960 . S
C978 H965 0.961 . S
C978 H966 0.959 . S
C978 C976 1.561 . S
C979 C976 1.526 . S
C979 C980 1.396 . S
C979 C984 1.390 . S
C980 C974 1.465 . S
C980 C979 1.396 . S
C980 C981 1.399 . S
C981 H967 0.929 . S
C981 C980 1.399 . S
C981 C982 1.385 . S
C982 H968 0.931 . S
C982 C981 1.385 . S
C982 C983 1.389 . S
C983 C982 1.389 . S
C983 C984 1.387 . S
C984 H969 0.930 . S
C984 C979 1.390 . S
C984 C983 1.387 . S
H985 C997 0.930 . S
H986 C999 0.930 . S
H987 C1000 0.930 . S
H988 C1004 0.959 . S
H989 C1004 0.959 . S
H990 C1004 0.961 . S
H991 C1005 0.960 . S
H992 C1005 0.961 . S
H993 C1005 0.959 . S
H994 C1008 0.929 . S
H995 C1009 0.931 . S
H996 C1011 0.930 . S
C997 H985 0.930 . S
C997 C998 1.399 . S
C997 C1002 1.399 . S
C998 C997 1.399 . S
C998 C999 1.376 . S
C999 H986 0.930 . S
C999 C998 1.376 . S
C999 C1000 1.388 . S
C1000 H987 0.930 . S
C1000 C999 1.388 . S
C1000 C1001 1.390 . S
C1001 C1000 1.390 . S
C1001 C1002 1.394 . S
C1001 C1007 1.465 . S
C1002 C997 1.399 . S
C1002 C1001 1.394 . S
C1002 C1003 1.516 . S
C1003 C1002 1.516 . S
C1003 C1004 1.502 . S
C1003 C1005 1.561 . S
C1003 C1006 1.526 . S
C1004 H988 0.959 . S
C1004 H989 0.959 . S
C1004 H990 0.961 . S
C1004 C1003 1.502 . S
C1005 H991 0.960 . S
C1005 H992 0.961 . S
C1005 H993 0.959 . S
C1005 C1003 1.561 . S
C1006 C1003 1.526 . S
C1006 C1007 1.396 . S
C1006 C1011 1.390 . S
C1007 C1001 1.465 . S
C1007 C1006 1.396 . S
C1007 C1008 1.399 . S
C1008 H994 0.929 . S
C1008 C1007 1.399 . S
C1008 C1009 1.385 . S
C1009 H995 0.931 . S
C1009 C1008 1.385 . S
C1009 C1010 1.389 . S
C1010 C1009 1.389 . S
C1010 C1011 1.387 . S
C1011 H996 0.930 . S
C1011 C1006 1.390 . S
C1011 C1010 1.387 . S
H1012 C1024 0.930 . S
H1013 C1026 0.930 . S
H1014 C1027 0.930 . S
H1015 C1031 0.959 . S
H1016 C1031 0.959 . S
H1017 C1031 0.961 . S
H1018 C1032 0.960 . S
H1019 C1032 0.961 . S
H1020 C1032 0.959 . S
H1021 C1035 0.929 . S
H1022 C1036 0.931 . S
H1023 C1038 0.930 . S
C1024 H1012 0.930 . S
C1024 C1025 1.399 . S
C1024 C1029 1.399 . S
C1025 C1024 1.399 . S
C1025 C1026 1.376 . S
C1026 H1013 0.930 . S
C1026 C1025 1.376 . S
C1026 C1027 1.388 . S
C1027 H1014 0.930 . S
C1027 C1026 1.388 . S
C1027 C1028 1.390 . S
C1028 C1027 1.390 . S
C1028 C1029 1.394 . S
C1028 C1034 1.465 . S
C1029 C1024 1.399 . S
C1029 C1028 1.394 . S
C1029 C1030 1.516 . S
C1030 C1029 1.516 . S
C1030 C1031 1.502 . S
C1030 C1032 1.561 . S
C1030 C1033 1.526 . S
C1031 H1015 0.959 . S
C1031 H1016 0.959 . S
C1031 H1017 0.961 . S
C1031 C1030 1.502 . S
C1032 H1018 0.960 . S
C1032 H1019 0.961 . S
C1032 H1020 0.959 . S
C1032 C1030 1.561 . S
C1033 C1030 1.526 . S
C1033 C1034 1.396 . S
C1033 C1038 1.390 . S
C1034 C1028 1.465 . S
C1034 C1033 1.396 . S
C1034 C1035 1.399 . S
C1035 H1021 0.929 . S
C1035 C1034 1.399 . S
C1035 C1036 1.385 . S
C1036 H1022 0.931 . S
C1036 C1035 1.385 . S
C1036 C1037 1.389 . S
C1037 C1036 1.389 . S
C1037 C1038 1.387 . S
C1038 H1023 0.930 . S
C1038 C1033 1.390 . S
C1038 C1037 1.387 . S
H1039 C1051 0.930 . S
H1040 C1053 0.930 . S
H1041 C1054 0.930 1_565 S
H1042 C1058 0.959 . S
H1043 C1058 0.959 . S
H1044 C1058 0.961 . S
H1045 C1059 0.960 . S
H1046 C1059 0.961 . S
H1047 C1059 0.959 . S
H1048 C1062 0.929 1_565 S
H1049 C1063 0.931 1_565 S
H1050 C1065 0.930 . S
C1051 H1039 0.930 . S
C1051 C1052 1.399 . S
C1051 C1056 1.399 . S
C1052 C1051 1.399 . S
C1052 C1053 1.376 . S
C1053 H1040 0.930 . S
C1053 C1052 1.376 . S
C1053 C1054 1.388 . S
C1054 H1041 0.930 1_545 S
C1054 C1053 1.388 . S
C1054 C1055 1.390 . S
C1055 C1054 1.390 . S
C1055 C1056 1.394 . S
C1055 C1061 1.465 . S
C1056 C1051 1.399 . S
C1056 C1055 1.394 . S
C1056 C1057 1.516 . S
C1057 C1056 1.516 . S
C1057 C1058 1.502 . S
C1057 C1059 1.561 . S
C1057 C1060 1.526 . S
C1058 H1042 0.959 . S
C1058 H1043 0.959 . S
C1058 H1044 0.961 . S
C1058 C1057 1.502 . S
C1059 H1045 0.960 . S
C1059 H1046 0.961 . S
C1059 H1047 0.959 . S
C1059 C1057 1.561 . S
C1060 C1057 1.526 . S
C1060 C1061 1.396 . S
C1060 C1065 1.390 . S
C1061 C1055 1.465 . S
C1061 C1060 1.396 . S
C1061 C1062 1.399 . S
C1062 H1048 0.929 1_545 S
C1062 C1061 1.399 . S
C1062 C1063 1.385 . S
C1063 H1049 0.931 1_545 S
C1063 C1062 1.385 . S
C1063 C1064 1.389 . S
C1064 C1063 1.389 . S
C1064 C1065 1.387 . S
C1065 H1050 0.930 . S
C1065 C1060 1.390 . S
C1065 C1064 1.387 . S
H1066 C1078 0.930 . S
H1067 C1080 0.930 . S
H1068 C1081 0.930 . S
H1069 C1085 0.959 . S
H1070 C1085 0.959 . S
H1071 C1085 0.961 . S
H1072 C1086 0.960 . S
H1073 C1086 0.961 . S
H1074 C1086 0.959 . S
H1075 C1089 0.929 . S
H1076 C1090 0.931 . S
H1077 C1092 0.930 . S
C1078 H1066 0.930 . S
C1078 C1079 1.399 . S
C1078 C1083 1.399 . S
C1079 C1078 1.399 . S
C1079 C1080 1.376 . S
C1080 H1067 0.930 . S
C1080 C1079 1.376 . S
C1080 C1081 1.388 . S
C1081 H1068 0.930 . S
C1081 C1080 1.388 . S
C1081 C1082 1.390 . S
C1082 C1081 1.390 . S
C1082 C1083 1.394 . S
C1082 C1088 1.465 . S
C1083 C1078 1.399 . S
C1083 C1082 1.394 . S
C1083 C1084 1.516 . S
C1084 C1083 1.516 . S
C1084 C1085 1.502 . S
C1084 C1086 1.561 . S
C1084 C1087 1.526 . S
C1085 H1069 0.959 . S
C1085 H1070 0.959 . S
C1085 H1071 0.961 . S
C1085 C1084 1.502 . S
C1086 H1072 0.960 . S
C1086 H1073 0.961 . S
C1086 H1074 0.959 . S
C1086 C1084 1.561 . S
C1087 C1084 1.526 . S
C1087 C1088 1.396 . S
C1087 C1092 1.390 . S
C1088 C1082 1.465 . S
C1088 C1087 1.396 . S
C1088 C1089 1.399 . S
C1089 H1075 0.929 . S
C1089 C1088 1.399 . S
C1089 C1090 1.385 . S
C1090 H1076 0.931 . S
C1090 C1089 1.385 . S
C1090 C1091 1.389 . S
C1091 C1090 1.389 . S
C1091 C1092 1.387 . S
C1092 H1077 0.930 . S
C1092 C1087 1.390 . S
C1092 C1091 1.387 . S
H1093 C1105 0.930 . S
H1094 C1107 0.930 . S
H1095 C1108 0.930 . S
H1096 C1112 0.959 . S
H1097 C1112 0.959 . S
H1098 C1112 0.961 . S
H1099 C1113 0.960 . S
H1100 C1113 0.961 . S
H1101 C1113 0.959 . S
H1102 C1116 0.929 . S
H1103 C1117 0.931 . S
H1104 C1119 0.930 . S
C1105 H1093 0.930 . S
C1105 C1106 1.399 . S
C1105 C1110 1.399 . S
C1106 C1105 1.399 . S
C1106 C1107 1.376 . S
C1107 H1094 0.930 . S
C1107 C1106 1.376 . S
C1107 C1108 1.388 . S
C1108 H1095 0.930 . S
C1108 C1107 1.388 . S
C1108 C1109 1.390 . S
C1109 C1108 1.390 . S
C1109 C1110 1.394 . S
C1109 C1115 1.465 . S
C1110 C1105 1.399 . S
C1110 C1109 1.394 . S
C1110 C1111 1.516 . S
C1111 C1110 1.516 . S
C1111 C1112 1.502 . S
C1111 C1113 1.561 . S
C1111 C1114 1.526 . S
C1112 H1096 0.959 . S
C1112 H1097 0.959 . S
C1112 H1098 0.961 . S
C1112 C1111 1.502 . S
C1113 H1099 0.960 . S
C1113 H1100 0.961 . S
C1113 H1101 0.959 . S
C1113 C1111 1.561 . S
C1114 C1111 1.526 . S
C1114 C1115 1.396 . S
C1114 C1119 1.390 . S
C1115 C1109 1.465 . S
C1115 C1114 1.396 . S
C1115 C1116 1.399 . S
C1116 H1102 0.929 . S
C1116 C1115 1.399 . S
C1116 C1117 1.385 . S
C1117 H1103 0.931 . S
C1117 C1116 1.385 . S
C1117 C1118 1.389 . S
C1118 C1117 1.389 . S
C1118 C1119 1.387 . S
C1119 H1104 0.930 . S
C1119 C1114 1.390 . S
C1119 C1118 1.387 . S
H1120 C1132 0.930 . S
H1121 C1134 0.930 . S
H1122 C1135 0.930 . S
H1123 C1139 0.959 . S
H1124 C1139 0.959 . S
H1125 C1139 0.961 . S
H1126 C1140 0.960 . S
H1127 C1140 0.961 . S
H1128 C1140 0.959 . S
H1129 C1143 0.929 . S
H1130 C1144 0.931 . S
H1131 C1146 0.930 . S
C1132 H1120 0.930 . S
C1132 C1133 1.399 . S
C1132 C1137 1.399 . S
C1133 C1132 1.399 . S
C1133 C1134 1.376 . S
C1134 H1121 0.930 . S
C1134 C1133 1.376 . S
C1134 C1135 1.388 . S
C1135 H1122 0.930 . S
C1135 C1134 1.388 . S
C1135 C1136 1.390 . S
C1136 C1135 1.390 . S
C1136 C1137 1.394 . S
C1136 C1142 1.465 . S
C1137 C1132 1.399 . S
C1137 C1136 1.394 . S
C1137 C1138 1.516 . S
C1138 C1137 1.516 . S
C1138 C1139 1.502 . S
C1138 C1140 1.561 . S
C1138 C1141 1.526 . S
C1139 H1123 0.959 . S
C1139 H1124 0.959 . S
C1139 H1125 0.961 . S
C1139 C1138 1.502 . S
C1140 H1126 0.960 . S
C1140 H1127 0.961 . S
C1140 H1128 0.959 . S
C1140 C1138 1.561 . S
C1141 C1138 1.526 . S
C1141 C1142 1.396 . S
C1141 C1146 1.390 . S
C1142 C1136 1.465 . S
C1142 C1141 1.396 . S
C1142 C1143 1.399 . S
C1143 H1129 0.929 . S
C1143 C1142 1.399 . S
C1143 C1144 1.385 . S
C1144 H1130 0.931 . S
C1144 C1143 1.385 . S
C1144 C1145 1.389 . S
C1145 C1144 1.389 . S
C1145 C1146 1.387 . S
C1146 H1131 0.930 . S
C1146 C1141 1.390 . S
C1146 C1145 1.387 . S
H1147 C1159 0.930 . S
H1148 C1161 0.947 . S
H1149 C1162 0.930 . S
H1150 C1166 0.959 . S
H1151 C1166 0.959 . S
H1152 C1166 0.961 . S
H1153 C1167 0.960 . S
H1154 C1167 0.961 . S
H1155 C1167 0.959 . S
H1156 C1170 0.929 . S
H1157 C1171 0.931 . S
H1158 C1173 0.930 . S
C1159 H1147 0.930 . S
C1159 C1160 1.399 1_565 S
C1159 C1164 1.399 . S
C1160 C1159 1.399 1_545 S
C1160 C1161 1.376 . S
C1161 H1148 0.947 . S
C1161 C1160 1.376 . S
C1161 C1162 1.388 . S
C1162 H1149 0.930 . S
C1162 C1161 1.388 . S
C1162 C1163 1.390 . S
C1163 C1162 1.390 . S
C1163 C1164 1.394 1_545 S
C1163 C1169 1.465 . S
C1164 C1159 1.399 . S
C1164 C1163 1.394 1_565 S
C1164 C1165 1.516 . S
C1165 C1164 1.516 . S
C1165 C1166 1.502 . S
C1165 C1167 1.561 . S
C1165 C1168 1.526 . S
C1166 H1150 0.959 . S
C1166 H1151 0.959 . S
C1166 H1152 0.961 . S
C1166 C1165 1.502 . S
C1167 H1153 0.960 . S
C1167 H1154 0.961 . S
C1167 H1155 0.959 . S
C1167 C1165 1.561 . S
C1168 C1165 1.526 . S
C1168 C1169 1.396 1_565 S
C1168 C1173 1.390 . S
C1169 C1163 1.465 . S
C1169 C1168 1.396 1_545 S
C1169 C1170 1.399 . S
C1170 H1156 0.929 . S
C1170 C1169 1.399 . S
C1170 C1171 1.385 . S
C1171 H1157 0.931 . S
C1171 C1170 1.385 . S
C1171 C1172 1.389 . S
C1172 C1171 1.389 . S
C1172 C1173 1.387 1_545 S
C1173 H1158 0.930 . S
C1173 C1168 1.390 . S
C1173 C1172 1.387 1_565 S
H1174 C1186 0.930 . S
H1175 C1188 0.930 . S
H1176 C1189 0.930 . S
H1177 C1193 0.959 . S
H1178 C1193 0.959 . S
H1179 C1193 0.961 . S
H1180 C1194 0.960 . S
H1181 C1194 0.961 . S
H1182 C1194 0.959 . S
H1183 C1197 0.929 . S
H1184 C1198 0.931 . S
H1185 C1200 0.930 . S
C1186 H1174 0.930 . S
C1186 C1187 1.399 . S
C1186 C1191 1.399 . S
C1187 C1186 1.399 . S
C1187 C1188 1.376 . S
C1188 H1175 0.930 . S
C1188 C1187 1.376 . S
C1188 C1189 1.388 . S
C1189 H1176 0.930 . S
C1189 C1188 1.388 . S
C1189 C1190 1.390 . S
C1190 C1189 1.390 . S
C1190 C1191 1.394 . S
C1190 C1196 1.465 . S
C1191 C1186 1.399 . S
C1191 C1190 1.394 . S
C1191 C1192 1.516 . S
C1192 C1191 1.516 . S
C1192 C1193 1.502 . S
C1192 C1194 1.561 . S
C1192 C1195 1.526 . S
C1193 H1177 0.959 . S
C1193 H1178 0.959 . S
C1193 H1179 0.961 . S
C1193 C1192 1.502 . S
C1194 H1180 0.960 . S
C1194 H1181 0.961 . S
C1194 H1182 0.959 . S
C1194 C1192 1.561 . S
C1195 C1192 1.526 . S
C1195 C1196 1.396 . S
C1195 C1200 1.390 . S
C1196 C1190 1.465 . S
C1196 C1195 1.396 . S
C1196 C1197 1.399 . S
C1197 H1183 0.929 . S
C1197 C1196 1.399 . S
C1197 C1198 1.385 . S
C1198 H1184 0.931 . S
C1198 C1197 1.385 . S
C1198 C1199 1.389 . S
C1199 C1198 1.389 . S
C1199 C1200 1.387 . S
C1200 H1185 0.930 . S
C1200 C1195 1.390 . S
C1200 C1199 1.387 . S
H1201 C1213 0.930 . S
H1202 C1215 0.930 . S
H1203 C1216 0.930 . S
H1204 C1220 0.959 . S
H1205 C1220 0.959 . S
H1206 C1220 0.961 . S
H1207 C1221 0.960 . S
H1208 C1221 0.961 . S
H1209 C1221 0.959 . S
H1210 C1224 0.929 . S
H1211 C1225 0.931 . S
H1212 C1227 0.930 . S
C1213 H1201 0.930 . S
C1213 C1214 1.399 . S
C1213 C1218 1.399 . S
C1214 C1213 1.399 . S
C1214 C1215 1.376 . S
C1215 H1202 0.930 . S
C1215 C1214 1.376 . S
C1215 C1216 1.388 . S
C1216 H1203 0.930 . S
C1216 C1215 1.388 . S
C1216 C1217 1.390 . S
C1217 C1216 1.390 . S
C1217 C1218 1.394 . S
C1217 C1223 1.465 . S
C1218 C1213 1.399 . S
C1218 C1217 1.394 . S
C1218 C1219 1.516 . S
C1219 C1218 1.516 . S
C1219 C1220 1.502 . S
C1219 C1221 1.561 . S
C1219 C1222 1.526 . S
C1220 H1204 0.959 . S
C1220 H1205 0.959 . S
C1220 H1206 0.961 . S
C1220 C1219 1.502 . S
C1221 H1207 0.960 . S
C1221 H1208 0.961 . S
C1221 H1209 0.959 . S
C1221 C1219 1.561 . S
C1222 C1219 1.526 . S
C1222 C1223 1.396 . S
C1222 C1227 1.390 . S
C1223 C1217 1.465 . S
C1223 C1222 1.396 . S
C1223 C1224 1.399 . S
C1224 H1210 0.929 . S
C1224 C1223 1.399 . S
C1224 C1225 1.385 . S
C1225 H1211 0.931 . S
C1225 C1224 1.385 . S
C1225 C1226 1.389 . S
C1226 C1225 1.389 . S
C1226 C1227 1.387 . S
C1227 H1212 0.930 . S
C1227 C1222 1.390 . S
C1227 C1226 1.387 . S
H1228 C1240 0.930 . S
H1229 C1242 0.930 . S
H1230 C1243 0.930 . S
H1231 C1247 0.959 . S
H1232 C1247 0.959 . S
H1233 C1247 0.961 . S
H1234 C1248 0.960 . S
H1235 C1248 0.961 . S
H1236 C1248 0.959 . S
H1237 C1251 0.929 . S
H1238 C1252 0.931 . S
H1239 C1254 0.930 . S
C1240 H1228 0.930 . S
C1240 C1241 1.399 . S
C1240 C1245 1.399 . S
C1241 C1240 1.399 . S
C1241 C1242 1.376 . S
C1242 H1229 0.930 . S
C1242 C1241 1.376 . S
C1242 C1243 1.388 . S
C1243 H1230 0.930 . S
C1243 C1242 1.388 . S
C1243 C1244 1.390 . S
C1244 C1243 1.390 . S
C1244 C1245 1.394 . S
C1244 C1250 1.465 . S
C1245 C1240 1.399 . S
C1245 C1244 1.394 . S
C1245 C1246 1.516 . S
C1246 C1245 1.516 . S
C1246 C1247 1.502 . S
C1246 C1248 1.561 . S
C1246 C1249 1.526 . S
C1247 H1231 0.959 . S
C1247 H1232 0.959 . S
C1247 H1233 0.961 . S
C1247 C1246 1.502 . S
C1248 H1234 0.960 . S
C1248 H1235 0.961 . S
C1248 H1236 0.959 . S
C1248 C1246 1.561 . S
C1249 C1246 1.526 . S
C1249 C1250 1.396 . S
C1249 C1254 1.390 . S
C1250 C1244 1.465 . S
C1250 C1249 1.396 . S
C1250 C1251 1.399 . S
C1251 H1237 0.929 . S
C1251 C1250 1.399 . S
C1251 C1252 1.385 . S
C1252 H1238 0.931 . S
C1252 C1251 1.385 . S
C1252 C1253 1.389 . S
C1253 C1252 1.389 . S
C1253 C1254 1.387 . S
C1254 H1239 0.930 . S
C1254 C1249 1.390 . S
C1254 C1253 1.387 . S
H1255 C1267 0.930 . S
H1256 C1269 0.930 . S
H1257 C1270 0.930 . S
H1258 C1274 0.959 . S
H1259 C1274 0.959 . S
H1260 C1274 0.961 . S
H1261 C1275 0.960 . S
H1262 C1275 0.961 . S
H1263 C1275 0.959 . S
H1264 C1278 0.929 . S
H1265 C1279 0.931 . S
H1266 C1281 0.930 . S
C1267 H1255 0.930 . S
C1267 C1268 1.399 . S
C1267 C1272 1.399 1_554 S
C1268 C1267 1.399 . S
C1268 C1269 1.376 1_655 S
C1269 H1256 0.930 . S
C1269 C1268 1.376 1_455 S
C1269 C1270 1.388 . S
C1270 H1257 0.930 . S
C1270 C1269 1.388 . S
C1270 C1271 1.390 1_455 S
C1271 C1270 1.390 1_655 S
C1271 C1272 1.394 1_554 S
C1271 C1277 1.465 1_654 S
C1272 C1267 1.399 1_556 S
C1272 C1271 1.394 1_556 S
C1272 C1273 1.516 . S
C1273 C1272 1.516 . S
C1273 C1274 1.502 . S
C1273 C1275 1.561 . S
C1273 C1276 1.526 . S
C1274 H1258 0.959 . S
C1274 H1259 0.959 . S
C1274 H1260 0.961 . S
C1274 C1273 1.502 . S
C1275 H1261 0.960 . S
C1275 H1262 0.961 . S
C1275 H1263 0.959 . S
C1275 C1273 1.561 . S
C1276 C1273 1.526 . S
C1276 C1277 1.396 1_655 S
C1276 C1281 1.390 . S
C1277 C1271 1.465 1_456 S
C1277 C1276 1.396 1_455 S
C1277 C1278 1.399 . S
C1278 H1264 0.929 . S
C1278 C1277 1.399 . S
C1278 C1279 1.385 . S
C1279 H1265 0.931 . S
C1279 C1278 1.385 . S
C1279 C1280 1.389 1_455 S
C1280 C1279 1.389 1_655 S
C1280 C1281 1.387 . S
C1281 H1266 0.930 . S
C1281 C1276 1.390 . S
C1281 C1280 1.387 . S
H1282 C1294 0.930 . S
H1283 C1296 0.930 . S
H1284 C1297 0.930 . S
H1285 C1301 0.959 . S
H1286 C1301 0.959 . S
H1287 C1301 0.961 . S
H1288 C1302 0.960 . S
H1289 C1302 0.961 . S
H1290 C1302 0.959 . S
H1291 C1305 0.929 . S
H1292 C1306 0.931 . S
H1293 C1308 0.930 . S
C1294 H1282 0.930 . S
C1294 C1295 1.399 . S
C1294 C1299 1.399 . S
C1295 C1294 1.399 . S
C1295 C1296 1.376 . S
C1296 H1283 0.930 . S
C1296 C1295 1.376 . S
C1296 C1297 1.388 . S
C1297 H1284 0.930 . S
C1297 C1296 1.388 . S
C1297 C1298 1.390 . S
C1298 C1297 1.390 . S
C1298 C1299 1.394 . S
C1298 C1304 1.465 . S
C1299 C1294 1.399 . S
C1299 C1298 1.394 . S
C1299 C1300 1.516 . S
C1300 C1299 1.516 . S
C1300 C1301 1.502 . S
C1300 C1302 1.561 . S
C1300 C1303 1.526 . S
C1301 H1285 0.959 . S
C1301 H1286 0.959 . S
C1301 H1287 0.961 . S
C1301 C1300 1.502 . S
C1302 H1288 0.960 . S
C1302 H1289 0.961 . S
C1302 H1290 0.959 . S
C1302 C1300 1.561 . S
C1303 C1300 1.526 . S
C1303 C1304 1.396 . S
C1303 C1308 1.390 . S
C1304 C1298 1.465 . S
C1304 C1303 1.396 . S
C1304 C1305 1.399 . S
C1305 H1291 0.929 . S
C1305 C1304 1.399 . S
C1305 C1306 1.385 . S
C1306 H1292 0.931 . S
C1306 C1305 1.385 . S
C1306 C1307 1.389 . S
C1307 C1306 1.389 . S
C1307 C1308 1.387 . S
C1308 H1293 0.930 . S
C1308 C1303 1.390 . S
C1308 C1307 1.387 . S
H1309 C1321 0.930 1_556 S
H1310 C1323 0.930 . S
H1311 C1324 0.930 1_655 S
H1312 C1328 0.959 . S
H1313 C1328 0.959 . S
H1314 C1328 0.961 . S
H1315 C1329 0.960 . S
H1316 C1329 0.961 . S
H1317 C1329 0.959 . S
H1318 C1332 0.929 . S
H1319 C1333 0.931 . S
H1320 C1335 0.930 . S
C1321 H1309 0.930 1_554 S
C1321 C1322 1.399 . S
C1321 C1326 1.399 1_554 S
C1322 C1321 1.399 . S
C1322 C1323 1.376 . S
C1323 H1310 0.930 . S
C1323 C1322 1.376 . S
C1323 C1324 1.388 . S
C1324 H1311 0.930 1_455 S
C1324 C1323 1.388 . S
C1324 C1325 1.390 . S
C1325 C1324 1.390 . S
C1325 C1326 1.394 1_554 S
C1325 C1331 1.465 1_554 S
C1326 C1321 1.399 1_556 S
C1326 C1325 1.394 1_556 S
C1326 C1327 1.516 . S
C1327 C1326 1.516 . S
C1327 C1328 1.502 . S
C1327 C1329 1.561 1_455 S
C1327 C1330 1.526 . S
C1328 H1312 0.959 . S
C1328 H1313 0.959 . S
C1328 H1314 0.961 . S
C1328 C1327 1.502 . S
C1329 H1315 0.960 . S
C1329 H1316 0.961 . S
C1329 H1317 0.959 . S
C1329 C1327 1.561 1_655 S
C1330 C1327 1.526 . S
C1330 C1331 1.396 . S
C1330 C1335 1.390 . S
C1331 C1325 1.465 1_556 S
C1331 C1330 1.396 . S
C1331 C1332 1.399 1_456 S
C1332 H1318 0.929 . S
C1332 C1331 1.399 1_654 S
C1332 C1333 1.385 1_554 S
C1333 H1319 0.931 . S
C1333 C1332 1.385 1_556 S
C1333 C1334 1.389 1_655 S
C1334 C1333 1.389 1_455 S
C1334 C1335 1.387 . S
C1335 H1320 0.930 . S
C1335 C1330 1.390 . S
C1335 C1334 1.387 . S
H1336 C1348 0.930 . S
H1337 C1350 0.930 . S
H1338 C1351 0.930 . S
H1339 C1355 0.959 . S
H1340 C1355 0.959 . S
H1341 C1355 0.961 . S
H1342 C1356 0.960 . S
H1343 C1356 0.961 . S
H1344 C1356 0.959 . S
H1345 C1359 0.929 . S
H1346 C1360 0.931 . S
H1347 C1362 0.930 . S
C1348 H1336 0.930 . S
C1348 C1349 1.399 . S
C1348 C1353 1.399 . S
C1349 C1348 1.399 . S
C1349 C1350 1.376 . S
C1350 H1337 0.930 . S
C1350 C1349 1.376 . S
C1350 C1351 1.388 . S
C1351 H1338 0.930 . S
C1351 C1350 1.388 . S
C1351 C1352 1.390 . S
C1352 C1351 1.390 . S
C1352 C1353 1.394 . S
C1352 C1358 1.465 . S
C1353 C1348 1.399 . S
C1353 C1352 1.394 . S
C1353 C1354 1.516 . S
C1354 C1353 1.516 . S
C1354 C1355 1.502 . S
C1354 C1356 1.561 . S
C1354 C1357 1.526 . S
C1355 H1339 0.959 . S
C1355 H1340 0.959 . S
C1355 H1341 0.961 . S
C1355 C1354 1.502 . S
C1356 H1342 0.960 . S
C1356 H1343 0.961 . S
C1356 H1344 0.959 . S
C1356 C1354 1.561 . S
C1357 C1354 1.526 . S
C1357 C1358 1.396 . S
C1357 C1362 1.390 . S
C1358 C1352 1.465 . S
C1358 C1357 1.396 . S
C1358 C1359 1.399 . S
C1359 H1345 0.929 . S
C1359 C1358 1.399 . S
C1359 C1360 1.385 . S
C1360 H1346 0.931 . S
C1360 C1359 1.385 . S
C1360 C1361 1.389 . S
C1361 C1360 1.389 . S
C1361 C1362 1.387 . S
C1362 H1347 0.930 . S
C1362 C1357 1.390 . S
C1362 C1361 1.387 . S
H1363 C1375 0.930 . S
H1364 C1377 0.930 . S
H1365 C1378 0.930 . S
H1366 C1382 0.959 . S
H1367 C1382 0.959 . S
H1368 C1382 0.961 1_556 S
H1369 C1383 0.960 . S
H1370 C1383 0.961 . S
H1371 C1383 0.959 . S
H1372 C1386 0.929 . S
H1373 C1387 0.931 . S
H1374 C1389 0.930 . S
C1375 H1363 0.930 . S
C1375 C1376 1.399 . S
C1375 C1380 1.399 1_556 S
C1376 C1375 1.399 . S
C1376 C1377 1.376 1_556 S
C1377 H1364 0.930 . S
C1377 C1376 1.376 1_554 S
C1377 C1378 1.388 . S
C1378 H1365 0.930 . S
C1378 C1377 1.388 . S
C1378 C1379 1.390 . S
C1379 C1378 1.390 . S
C1379 C1380 1.394 . S
C1379 C1385 1.465 . S
C1380 C1375 1.399 1_554 S
C1380 C1379 1.394 . S
C1380 C1381 1.516 . S
C1381 C1380 1.516 . S
C1381 C1382 1.502 . S
C1381 C1383 1.561 1_554 S
C1381 C1384 1.526 . S
C1382 H1366 0.959 . S
C1382 H1367 0.959 . S
C1382 H1368 0.961 1_554 S
C1382 C1381 1.502 . S
C1383 H1369 0.960 . S
C1383 H1370 0.961 . S
C1383 H1371 0.959 . S
C1383 C1381 1.561 1_556 S
C1384 C1381 1.526 . S
C1384 C1385 1.396 . S
C1384 C1389 1.390 . S
C1385 C1379 1.465 . S
C1385 C1384 1.396 . S
C1385 C1386 1.399 . S
C1386 H1372 0.929 . S
C1386 C1385 1.399 . S
C1386 C1387 1.385 . S
C1387 H1373 0.931 . S
C1387 C1386 1.385 . S
C1387 C1388 1.389 . S
C1388 C1387 1.389 . S
C1388 C1389 1.387 . S
C1389 H1374 0.930 . S
C1389 C1384 1.390 . S
C1389 C1388 1.387 . S
H1390 C1402 0.930 . S
H1391 C1404 0.930 . S
H1392 C1405 0.930 . S
H1393 C1409 0.959 . S
H1394 C1409 0.959 . S
H1395 C1409 0.961 . S
H1396 C1410 0.960 . S
H1397 C1410 0.961 . S
H1398 C1410 0.959 . S
H1399 C1413 0.929 . S
H1400 C1414 0.931 . S
H1401 C1416 0.930 . S
C1402 H1390 0.930 . S
C1402 C1403 1.399 . S
C1402 C1407 1.399 . S
C1403 C1402 1.399 . S
C1403 C1404 1.376 . S
C1404 H1391 0.930 . S
C1404 C1403 1.376 . S
C1404 C1405 1.388 . S
C1405 H1392 0.930 . S
C1405 C1404 1.388 . S
C1405 C1406 1.390 . S
C1406 C1405 1.390 . S
C1406 C1407 1.394 . S
C1406 C1412 1.465 . S
C1407 C1402 1.399 . S
C1407 C1406 1.394 . S
C1407 C1408 1.516 . S
C1408 C1407 1.516 . S
C1408 C1409 1.502 . S
C1408 C1410 1.561 . S
C1408 C1411 1.526 . S
C1409 H1393 0.959 . S
C1409 H1394 0.959 . S
C1409 H1395 0.961 . S
C1409 C1408 1.502 . S
C1410 H1396 0.960 . S
C1410 H1397 0.961 . S
C1410 H1398 0.959 . S
C1410 C1408 1.561 . S
C1411 C1408 1.526 . S
C1411 C1412 1.396 . S
C1411 C1416 1.390 . S
C1412 C1406 1.465 . S
C1412 C1411 1.396 . S
C1412 C1413 1.399 . S
C1413 H1399 0.929 . S
C1413 C1412 1.399 . S
C1413 C1414 1.385 . S
C1414 H1400 0.931 . S
C1414 C1413 1.385 . S
C1414 C1415 1.389 . S
C1415 C1414 1.389 . S
C1415 C1416 1.387 . S
C1416 H1401 0.930 . S
C1416 C1411 1.390 . S
C1416 C1415 1.387 . S
H1417 C1429 0.922 1_556 S
H1418 C1431 0.930 . S
H1419 C1432 0.930 . S
H1420 C1436 0.950 1_556 S
H1421 C1436 0.959 . S
H1422 C1436 0.961 1_556 S
H1423 C1437 0.960 . S
H1424 C1437 0.961 . S
H1425 C1437 0.959 . S
H1426 C1440 0.929 . S
H1427 C1441 0.931 . S
H1428 C1443 0.930 . S
C1429 H1417 0.922 1_554 S
C1429 C1430 1.404 1_554 S
C1429 C1434 1.406 . S
C1430 C1429 1.404 1_556 S
C1430 C1431 1.351 1_556 S
C1431 H1418 0.930 . S
C1431 C1430 1.351 1_554 S
C1431 C1432 1.388 . S
C1432 H1419 0.930 . S
C1432 C1431 1.388 . S
C1432 C1433 1.390 . S
C1433 C1432 1.390 . S
C1433 C1434 1.394 . S
C1433 C1439 1.465 . S
C1434 C1429 1.406 . S
C1434 C1433 1.394 . S
C1434 C1435 1.516 . S
C1435 C1434 1.516 . S
C1435 C1436 1.502 . S
C1435 C1437 1.561 . S
C1435 C1438 1.526 . S
C1436 H1420 0.950 1_554 S
C1436 H1421 0.959 . S
C1436 H1422 0.961 1_554 S
C1436 C1435 1.502 . S
C1437 H1423 0.960 . S
C1437 H1424 0.961 . S
C1437 H1425 0.959 . S
C1437 C1435 1.561 . S
C1438 C1435 1.526 . S
C1438 C1439 1.396 . S
C1438 C1443 1.390 . S
C1439 C1433 1.465 . S
C1439 C1438 1.396 . S
C1439 C1440 1.399 . S
C1440 H1426 0.929 . S
C1440 C1439 1.399 . S
C1440 C1441 1.385 . S
C1441 H1427 0.931 . S
C1441 C1440 1.385 . S
C1441 C1442 1.389 . S
C1442 C1441 1.389 . S
C1442 C1443 1.387 . S
C1443 H1428 0.930 . S
C1443 C1438 1.390 . S
C1443 C1442 1.387 . S
H1444 C1456 0.930 . S
H1445 C1458 0.930 . S
H1446 C1459 0.930 . S
H1447 C1463 0.959 . S
H1448 C1463 0.959 . S
H1449 C1463 0.961 . S
H1450 C1464 0.960 . S
H1451 C1464 0.961 . S
H1452 C1464 0.959 . S
H1453 C1467 0.929 . S
H1454 C1468 0.931 . S
H1455 C1470 0.930 . S
C1456 H1444 0.930 . S
C1456 C1457 1.399 . S
C1456 C1461 1.399 . S
C1457 C1456 1.399 . S
C1457 C1458 1.376 . S
C1458 H1445 0.930 . S
C1458 C1457 1.376 . S
C1458 C1459 1.388 . S
C1459 H1446 0.930 . S
C1459 C1458 1.388 . S
C1459 C1460 1.390 . S
C1460 C1459 1.390 . S
C1460 C1461 1.394 . S
C1460 C1466 1.465 . S
C1461 C1456 1.399 . S
C1461 C1460 1.394 . S
C1461 C1462 1.516 . S
C1462 C1461 1.516 . S
C1462 C1463 1.502 . S
C1462 C1464 1.561 . S
C1462 C1465 1.526 . S
C1463 H1447 0.959 . S
C1463 H1448 0.959 . S
C1463 H1449 0.961 . S
C1463 C1462 1.502 . S
C1464 H1450 0.960 . S
C1464 H1451 0.961 . S
C1464 H1452 0.959 . S
C1464 C1462 1.561 . S
C1465 C1462 1.526 . S
C1465 C1466 1.396 . S
C1465 C1470 1.390 . S
C1466 C1460 1.465 . S
C1466 C1465 1.396 . S
C1466 C1467 1.399 . S
C1467 H1453 0.929 . S
C1467 C1466 1.399 . S
C1467 C1468 1.385 . S
C1468 H1454 0.931 . S
C1468 C1467 1.385 . S
C1468 C1469 1.389 . S
C1469 C1468 1.389 . S
C1469 C1470 1.387 . S
C1470 H1455 0.930 . S
C1470 C1465 1.390 . S
C1470 C1469 1.387 . S
H1471 C1483 0.930 . S
H1472 C1485 0.930 . S
H1473 C1486 0.930 . S
H1474 C1490 0.959 . S
H1475 C1490 0.959 . S
H1476 C1490 0.961 . S
H1477 C1491 0.960 . S
H1478 C1491 0.961 . S
H1479 C1491 0.959 . S
H1480 C1494 0.929 . S
H1481 C1495 0.931 . S
H1482 C1497 0.930 . S
C1483 H1471 0.930 . S
C1483 C1484 1.399 . S
C1483 C1488 1.399 . S
C1484 C1483 1.399 . S
C1484 C1485 1.376 . S
C1485 H1472 0.930 . S
C1485 C1484 1.376 . S
C1485 C1486 1.388 . S
C1486 H1473 0.930 . S
C1486 C1485 1.388 . S
C1486 C1487 1.390 . S
C1487 C1486 1.390 . S
C1487 C1488 1.394 . S
C1487 C1493 1.465 . S
C1488 C1483 1.399 . S
C1488 C1487 1.394 . S
C1488 C1489 1.516 . S
C1489 C1488 1.516 . S
C1489 C1490 1.502 . S
C1489 C1491 1.561 . S
C1489 C1492 1.526 . S
C1490 H1474 0.959 . S
C1490 H1475 0.959 . S
C1490 H1476 0.961 . S
C1490 C1489 1.502 . S
C1491 H1477 0.960 . S
C1491 H1478 0.961 . S
C1491 H1479 0.959 . S
C1491 C1489 1.561 . S
C1492 C1489 1.526 . S
C1492 C1493 1.396 . S
C1492 C1497 1.390 . S
C1493 C1487 1.465 . S
C1493 C1492 1.396 . S
C1493 C1494 1.399 . S
C1494 H1480 0.929 . S
C1494 C1493 1.399 . S
C1494 C1495 1.385 . S
C1495 H1481 0.931 . S
C1495 C1494 1.385 . S
C1495 C1496 1.389 . S
C1496 C1495 1.389 . S
C1496 C1497 1.387 . S
C1497 H1482 0.930 . S
C1497 C1492 1.390 . S
C1497 C1496 1.387 . S
H1498 C1510 0.930 . S
H1499 C1512 0.930 . S
H1500 C1513 0.930 . S
H1501 C1517 0.959 . S
H1502 C1517 0.959 . S
H1503 C1517 0.961 . S
H1504 C1518 0.960 . S
H1505 C1518 0.961 . S
H1506 C1518 0.959 . S
H1507 C1521 0.929 . S
H1508 C1522 0.931 . S
H1509 C1524 0.930 . S
C1510 H1498 0.930 . S
C1510 C1511 1.399 . S
C1510 C1515 1.399 . S
C1511 C1510 1.399 . S
C1511 C1512 1.376 . S
C1512 H1499 0.930 . S
C1512 C1511 1.376 . S
C1512 C1513 1.388 . S
C1513 H1500 0.930 . S
C1513 C1512 1.388 . S
C1513 C1514 1.390 . S
C1514 C1513 1.390 . S
C1514 C1515 1.394 . S
C1514 C1520 1.465 . S
C1515 C1510 1.399 . S
C1515 C1514 1.394 . S
C1515 C1516 1.516 . S
C1516 C1515 1.516 . S
C1516 C1517 1.502 . S
C1516 C1518 1.561 . S
C1516 C1519 1.526 . S
C1517 H1501 0.959 . S
C1517 H1502 0.959 . S
C1517 H1503 0.961 . S
C1517 C1516 1.502 . S
C1518 H1504 0.960 . S
C1518 H1505 0.961 . S
C1518 H1506 0.959 . S
C1518 C1516 1.561 . S
C1519 C1516 1.526 . S
C1519 C1520 1.396 . S
C1519 C1524 1.390 . S
C1520 C1514 1.465 . S
C1520 C1519 1.396 . S
C1520 C1521 1.399 . S
C1521 H1507 0.929 . S
C1521 C1520 1.399 . S
C1521 C1522 1.385 . S
C1522 H1508 0.931 . S
C1522 C1521 1.385 . S
C1522 C1523 1.389 . S
C1523 C1522 1.389 . S
C1523 C1524 1.387 . S
C1524 H1509 0.930 . S
C1524 C1519 1.390 . S
C1524 C1523 1.387 . S
H1525 C1537 0.930 . S
H1526 C1539 0.930 . S
H1527 C1540 0.930 . S
H1528 C1544 0.959 . S
H1529 C1544 0.959 . S
H1530 C1544 0.961 . S
H1531 C1545 0.960 . S
H1532 C1545 0.961 . S
H1533 C1545 0.959 . S
H1534 C1548 0.929 . S
H1535 C1549 0.931 . S
H1536 C1551 0.930 . S
C1537 H1525 0.930 . S
C1537 C1538 1.399 . S
C1537 C1542 1.399 . S
C1538 C1537 1.399 . S
C1538 C1539 1.376 . S
C1539 H1526 0.930 . S
C1539 C1538 1.376 . S
C1539 C1540 1.388 . S
C1540 H1527 0.930 . S
C1540 C1539 1.388 . S
C1540 C1541 1.390 . S
C1541 C1540 1.390 . S
C1541 C1542 1.394 . S
C1541 C1547 1.465 . S
C1542 C1537 1.399 . S
C1542 C1541 1.394 . S
C1542 C1543 1.516 . S
C1543 C1542 1.516 . S
C1543 C1544 1.502 . S
C1543 C1545 1.561 . S
C1543 C1546 1.526 . S
C1544 H1528 0.959 . S
C1544 H1529 0.959 . S
C1544 H1530 0.961 . S
C1544 C1543 1.502 . S
C1545 H1531 0.960 . S
C1545 H1532 0.961 . S
C1545 H1533 0.959 . S
C1545 C1543 1.561 . S
C1546 C1543 1.526 . S
C1546 C1547 1.396 . S
C1546 C1551 1.390 . S
C1547 C1541 1.465 . S
C1547 C1546 1.396 . S
C1547 C1548 1.399 . S
C1548 H1534 0.929 . S
C1548 C1547 1.399 . S
C1548 C1549 1.385 . S
C1549 H1535 0.931 . S
C1549 C1548 1.385 . S
C1549 C1550 1.389 . S
C1550 C1549 1.389 . S
C1550 C1551 1.387 . S
C1551 H1536 0.930 . S
C1551 C1546 1.390 . S
C1551 C1550 1.387 . S
H1552 C1564 0.930 1_554 S
H1553 C1566 0.930 . S
H1554 C1567 0.930 . S
H1555 C1571 0.959 . S
H1556 C1571 0.959 . S
H1557 C1571 0.961 . S
H1558 C1572 0.960 . S
H1559 C1572 0.961 . S
H1560 C1572 0.959 . S
H1561 C1575 0.929 . S
H1562 C1576 0.931 . S
H1563 C1578 0.930 . S
C1564 H1552 0.930 1_556 S
C1564 C1565 1.399 . S
C1564 C1569 1.399 . S
C1565 C1564 1.399 . S
C1565 C1566 1.376 . S
C1566 H1553 0.930 . S
C1566 C1565 1.376 . S
C1566 C1567 1.388 . S
C1567 H1554 0.930 . S
C1567 C1566 1.388 . S
C1567 C1568 1.390 . S
C1568 C1567 1.390 . S
C1568 C1569 1.394 . S
C1568 C1574 1.465 . S
C1569 C1564 1.399 . S
C1569 C1568 1.394 . S
C1569 C1570 1.516 1_556 S
C1570 C1569 1.516 1_554 S
C1570 C1571 1.502 . S
C1570 C1572 1.561 . S
C1570 C1573 1.526 1_554 S
C1571 H1555 0.959 . S
C1571 H1556 0.959 . S
C1571 H1557 0.961 . S
C1571 C1570 1.502 . S
C1572 H1558 0.960 . S
C1572 H1559 0.961 . S
C1572 H1560 0.959 . S
C1572 C1570 1.561 . S
C1573 C1570 1.526 1_556 S
C1573 C1574 1.396 . S
C1573 C1578 1.390 1_556 S
C1574 C1568 1.465 . S
C1574 C1573 1.396 . S
C1574 C1575 1.399 . S
C1575 H1561 0.929 . S
C1575 C1574 1.399 . S
C1575 C1576 1.385 . S
C1576 H1562 0.931 . S
C1576 C1575 1.385 . S
C1576 C1577 1.389 . S
C1577 C1576 1.389 . S
C1577 C1578 1.387 1_556 S
C1578 H1563 0.930 . S
C1578 C1573 1.390 1_554 S
C1578 C1577 1.387 1_554 S
H1579 C1591 0.930 . S
H1580 C1593 0.930 . S
H1581 C1594 0.930 . S
H1582 C1598 0.959 . S
H1583 C1598 0.959 . S
H1584 C1598 0.961 . S
H1585 C1599 0.960 . S
H1586 C1599 0.961 . S
H1587 C1599 0.959 . S
H1588 C1602 0.929 . S
H1589 C1603 0.931 . S
H1590 C1605 0.930 . S
C1591 H1579 0.930 . S
C1591 C1592 1.399 . S
C1591 C1596 1.399 . S
C1592 C1591 1.399 . S
C1592 C1593 1.376 . S
C1593 H1580 0.930 . S
C1593 C1592 1.376 . S
C1593 C1594 1.388 . S
C1594 H1581 0.930 . S
C1594 C1593 1.388 . S
C1594 C1595 1.390 . S
C1595 C1594 1.390 . S
C1595 C1596 1.394 . S
C1595 C1601 1.465 . S
C1596 C1591 1.399 . S
C1596 C1595 1.394 . S
C1596 C1597 1.516 . S
C1597 C1596 1.516 . S
C1597 C1598 1.502 . S
C1597 C1599 1.561 . S
C1597 C1600 1.526 . S
C1598 H1582 0.959 . S
C1598 H1583 0.959 . S
C1598 H1584 0.961 . S
C1598 C1597 1.502 . S
C1599 H1585 0.960 . S
C1599 H1586 0.961 . S
C1599 H1587 0.959 . S
C1599 C1597 1.561 . S
C1600 C1597 1.526 . S
C1600 C1601 1.396 . S
C1600 C1605 1.390 . S
C1601 C1595 1.465 . S
C1601 C1600 1.396 . S
C1601 C1602 1.399 . S
C1602 H1588 0.929 . S
C1602 C1601 1.399 . S
C1602 C1603 1.385 . S
C1603 H1589 0.931 . S
C1603 C1602 1.385 . S
C1603 C1604 1.389 . S
C1604 C1603 1.389 . S
C1604 C1605 1.387 . S
C1605 H1590 0.930 . S
C1605 C1600 1.390 . S
C1605 C1604 1.387 . S
H1606 C1618 0.930 . S
H1607 C1620 0.930 . S
H1608 C1621 0.930 . S
H1609 C1625 0.959 1_554 S
H1610 C1625 0.959 . S
H1611 C1625 0.961 . S
H1612 C1626 0.960 . S
H1613 C1626 0.961 . S
H1614 C1626 0.959 . S
H1615 C1629 0.929 . S
H1616 C1630 0.931 . S
H1617 C1632 0.955 . S
C1618 H1606 0.930 . S
C1618 C1619 1.399 . S
C1618 C1623 1.399 . S
C1619 C1618 1.399 . S
C1619 C1620 1.376 . S
C1620 H1607 0.930 . S
C1620 C1619 1.376 . S
C1620 C1621 1.388 . S
C1621 H1608 0.930 . S
C1621 C1620 1.388 . S
C1621 C1622 1.390 . S
C1622 C1621 1.390 . S
C1622 C1623 1.394 . S
C1622 C1628 1.465 . S
C1623 C1618 1.399 . S
C1623 C1622 1.394 . S
C1623 C1624 1.516 1_554 S
C1624 C1623 1.516 1_556 S
C1624 C1625 1.502 . S
C1624 C1626 1.561 . S
C1624 C1627 1.526 1_556 S
C1625 H1609 0.959 1_556 S
C1625 H1610 0.959 . S
C1625 H1611 0.961 . S
C1625 C1624 1.502 . S
C1626 H1612 0.960 . S
C1626 H1613 0.961 . S
C1626 H1614 0.959 . S
C1626 C1624 1.561 . S
C1627 C1624 1.526 1_554 S
C1627 C1628 1.396 . S
C1627 C1632 1.377 1_554 S
C1628 C1622 1.465 . S
C1628 C1627 1.396 . S
C1628 C1629 1.399 . S
C1629 H1615 0.929 . S
C1629 C1628 1.399 . S
C1629 C1630 1.385 . S
C1630 H1616 0.931 . S
C1630 C1629 1.385 . S
C1630 C1631 1.389 . S
C1631 C1630 1.389 . S
C1631 C1632 1.374 1_554 S
C1632 H1617 0.955 . S
C1632 C1627 1.377 1_556 S
C1632 C1631 1.374 1_556 S
H1633 C1645 0.930 . S
H1634 C1647 0.930 1_545 S
H1635 C1648 0.930 1_556 S
H1636 C1652 0.959 . S
H1637 C1652 0.959 . S
H1638 C1652 0.961 . S
H1639 C1653 0.960 . S
H1640 C1653 0.961 . S
H1641 C1653 0.959 . S
H1642 C1656 0.929 1_556 S
H1643 C1657 0.931 1_556 S
H1644 C1659 0.930 . S
C1645 H1633 0.930 . S
C1645 C1646 1.399 . S
C1645 C1650 1.399 . S
C1646 C1645 1.399 . S
C1646 C1647 1.376 . S
C1647 H1634 0.930 1_565 S
C1647 C1646 1.376 . S
C1647 C1648 1.388 . S
C1648 H1635 0.930 1_554 S
C1648 C1647 1.388 . S
C1648 C1649 1.390 . S
C1649 C1648 1.390 . S
C1649 C1650 1.394 . S
C1649 C1655 1.465 . S
C1650 C1645 1.399 . S
C1650 C1649 1.394 . S
C1650 C1651 1.516 . S
C1651 C1650 1.516 . S
C1651 C1652 1.502 . S
C1651 C1653 1.561 . S
C1651 C1654 1.526 . S
C1652 H1636 0.959 . S
C1652 H1637 0.959 . S
C1652 H1638 0.961 . S
C1652 C1651 1.502 . S
C1653 H1639 0.960 . S
C1653 H1640 0.961 . S
C1653 H1641 0.959 . S
C1653 C1651 1.561 . S
C1654 C1651 1.526 . S
C1654 C1655 1.396 . S
C1654 C1659 1.390 . S
C1655 C1649 1.465 . S
C1655 C1654 1.396 . S
C1655 C1656 1.399 . S
C1656 H1642 0.929 1_554 S
C1656 C1655 1.399 . S
C1656 C1657 1.385 . S
C1657 H1643 0.931 1_554 S
C1657 C1656 1.385 . S
C1657 C1658 1.389 . S
C1658 C1657 1.389 . S
C1658 C1659 1.387 . S
C1659 H1644 0.930 . S
C1659 C1654 1.390 . S
C1659 C1658 1.387 . S
C389 C218 1.200 . S
C377 N66 1.152 . S
C416 C231 1.647 . S
C404 N79 1.610 . S
C431 N92 1.745 . S
C443 C244 1.740 . S
C470 C257 1.343 . S
C458 N54 1.379 . S
C497 C265 1.489 . S
C485 N131 1.505 . S
C524 C278 1.106 . S
C512 N158 1.122 . S
C539 N145 1.557 . S
C551 C291 1.561 . S
C578 C304 1.728 . S
C566 N118 1.735 . S
C593 N148 1.838 . S
C605 C322 1.804 . S
C632 C333 1.591 . S
C620 N122 1.628 . S
C647 N132 1.199 . S
C659 C317 1.215 . S
C686 C325 1.455 . S
C674 N161 1.400 . S
C701 N96 1.890 . S
C713 C348 1.874 . S
C728 N53 1.668 . S
C740 C338 1.679 . S
C755 N67 1.114 . S
C767 C343 1.025 . S
C782 N83 1.371 . S
C794 C346 1.383 . S
C809 N44 1.345 . S
C821 C255 1.393 . S
C836 N187 1.406 . S
C848 C247 1.433 . S
C875 C216 1.270 . S
C863 N197 1.268 . S
C902 C221 1.286 . S
C890 N106 1.326 . S
C917 N57 1.816 1_545 S
C929 C268 1.738 . S
C956 C307 1.475 . S
C944 N144 1.477 . S
C983 C260 1.376 . S
C971 N119 1.396 . S
C1010 C286 1.669 . S
C998 N157 1.736 . S
C1037 C296 1.187 . S
C1025 N183 1.166 . S
C1052 N196 1.615 . S
C1064 C309 1.645 . S
C1079 N105 1.746 . S
C1091 C270 1.770 . S
C1118 C283 1.337 . S
C1106 N171 1.387 . S
C1133 N40 1.484 . S
C1145 C239 1.459 . S
C1172 C252 1.125 . S
C1160 N2 1.144 . S
C1199 C213 1.516 . S
C1187 N15 1.564 . S
C1226 C226 1.705 . S
C1214 N27 1.707 1_455 S
C1241 N18 1.864 . S
C1253 C335 1.839 . S
C1268 N31 1.624 . S
C1280 C320 1.575 1_655 S
C1295 N41 1.204 . S
C1307 C330 1.190 . S
C1322 N5 1.399 . S
C1334 C312 1.458 1_455 S
C1361 C361 1.870 . S
C1349 N109 1.890 . S
C1388 C351 1.674 . S
C1376 N170 1.707 . S
C1415 C356 1.080 . S
C1403 N184 1.081 . S
C1430 N200 1.404 . S
C1442 C359 1.368 . S
C1457 N135 1.398 . S
C1469 C281 1.330 . S
C1496 C273 1.442 . S
C1484 N70 1.407 . S
C1523 C294 1.208 . S
C1511 N80 1.256 . S
C1550 C299 1.288 . S
C1538 N93 1.326 . S
C1565 N174 1.809 . S
C1577 C242 1.800 . S
C1604 C229 1.476 . S
C1592 N14 1.477 . S
C1619 N28 1.405 . S
C1631 C234 1.405 . S
C1658 C208 1.672 . S
C1646 N1 1.738 1_565 S
