# Generated by pormake.
# Topology apo, (3,6)-cn, num edge types: 1
# Building blocks:
#     Node 0, Type 0, BuildingBlock: BELTOD_clean_linker_0, # of connection points: 3
#     Node 1, Type 0, BuildingBlock: BELTOD_clean_linker_0, # of connection points: 3
#     Node 2, Type 0, BuildingBlock: BELTOD_clean_linker_0, # of connection points: 3
#     Node 3, Type 0, BuildingBlock: BELTOD_clean_linker_0, # of connection points: 3
#     Node 4, Type 0, BuildingBlock: BELTOD_clean_linker_0, # of connection points: 3
#     Node 5, Type 0, BuildingBlock: BELTOD_clean_linker_0, # of connection points: 3
#     Node 6, Type 0, BuildingBlock: BELTOD_clean_linker_0, # of connection points: 3
#     Node 7, Type 0, BuildingBlock: BELTOD_clean_linker_0, # of connection points: 3
#     Node 8, Type 1, BuildingBlock: KUMJIN_clean_sbu_1, # of connection points: 6
#     Node 9, Type 1, BuildingBlock: KUMJIN_clean_sbu_1, # of connection points: 6
#     Node 10, Type 1, BuildingBlock: KUMJIN_clean_sbu_1, # of connection points: 6
#     Node 11, Type 1, BuildingBlock: KUMJIN_clean_sbu_1, # of connection points: 6
#     Edge 12, Type (0, 1), BuildingBlock: TEMPAE_clean_linker_10, # of connection points: 2
#     Edge 13, Type (0, 1), BuildingBlock: TEMPAE_clean_linker_10, # of connection points: 2
#     Edge 14, Type (0, 1), BuildingBlock: TEMPAE_clean_linker_10, # of connection points: 2
#     Edge 15, Type (0, 1), BuildingBlock: TEMPAE_clean_linker_10, # of connection points: 2
#     Edge 16, Type (0, 1), BuildingBlock: TEMPAE_clean_linker_10, # of connection points: 2
#     Edge 17, Type (0, 1), BuildingBlock: TEMPAE_clean_linker_10, # of connection points: 2
#     Edge 18, Type (0, 1), BuildingBlock: TEMPAE_clean_linker_10, # of connection points: 2
#     Edge 19, Type (0, 1), BuildingBlock: TEMPAE_clean_linker_10, # of connection points: 2
#     Edge 20, Type (0, 1), BuildingBlock: TEMPAE_clean_linker_10, # of connection points: 2
#     Edge 21, Type (0, 1), BuildingBlock: TEMPAE_clean_linker_10, # of connection points: 2
#     Edge 22, Type (0, 1), BuildingBlock: TEMPAE_clean_linker_10, # of connection points: 2
#     Edge 23, Type (0, 1), BuildingBlock: TEMPAE_clean_linker_10, # of connection points: 2
#     Edge 24, Type (0, 1), BuildingBlock: TEMPAE_clean_linker_10, # of connection points: 2
#     Edge 25, Type (0, 1), BuildingBlock: TEMPAE_clean_linker_10, # of connection points: 2
#     Edge 26, Type (0, 1), BuildingBlock: TEMPAE_clean_linker_10, # of connection points: 2
#     Edge 27, Type (0, 1), BuildingBlock: TEMPAE_clean_linker_10, # of connection points: 2
#     Edge 28, Type (0, 1), BuildingBlock: TEMPAE_clean_linker_10, # of connection points: 2
#     Edge 29, Type (0, 1), BuildingBlock: TEMPAE_clean_linker_10, # of connection points: 2
#     Edge 30, Type (0, 1), BuildingBlock: TEMPAE_clean_linker_10, # of connection points: 2
#     Edge 31, Type (0, 1), BuildingBlock: TEMPAE_clean_linker_10, # of connection points: 2
#     Edge 32, Type (0, 1), BuildingBlock: TEMPAE_clean_linker_10, # of connection points: 2
#     Edge 33, Type (0, 1), BuildingBlock: TEMPAE_clean_linker_10, # of connection points: 2
#     Edge 34, Type (0, 1), BuildingBlock: TEMPAE_clean_linker_10, # of connection points: 2
#     Edge 35, Type (0, 1), BuildingBlock: TEMPAE_clean_linker_10, # of connection points: 2
# Relax obj value: 0.009
# Max RMSD: 0.110
# Mean RMSD: 0.081
data_MOF--net-apo--node1-KUMJIN_clean_sbu_1--node2-BELTOD_clean_linker_0--edge1-TEMPAE_clean_linker_10
_symmetry_space_group_name_H-M    P1
_symmetry_Int_Tables_number       1
_symmetry_cell_setting            triclinic
loop_
_symmetry_equiv_pos_as_xyz
'x, y, z'
_cell_length_a     27.700242
_cell_length_b     48.942791
_cell_length_c     60.719849
_cell_angle_alpha  89.672446
_cell_angle_beta   90.003474
_cell_angle_gamma 90.007461
loop_
_atom_site_label
_atom_site_type_symbol
_atom_site_fract_x
_atom_site_fract_y
_atom_site_fract_z
_atom_type_partial_charge
P0 P 0.33334 0.3576 0.40499 0.0
H1 H 0.37424 0.32307 0.4394 0.0
H2 H 0.37449 0.32615 0.47937 0.0
H3 H 0.27661 0.39488 0.4756 0.0
H4 H 0.27826 0.39223 0.43532 0.0
H5 H 0.32486 0.33981 0.36004 0.0
H6 H 0.26579 0.31216 0.34055 0.0
H7 H 0.17911 0.30703 0.39964 0.0
H8 H 0.23942 0.33443 0.41925 0.0
H9 H 0.41074 0.39745 0.40589 0.0
H10 H 0.26533 0.39315 0.38063 0.0
O11 O 0.38538 0.34211 0.39905 0.0
H12 H 0.42244 0.44126 0.38681 0.0
H13 H 0.2771 0.43712 0.36161 0.0
C14 C 0.32711 0.35781 0.43445 0.0
C15 C 0.35262 0.33872 0.44717 0.0
C16 C 0.35233 0.34036 0.4701 0.0
C17 C 0.32591 0.36094 0.48079 0.0
C18 C 0.29817 0.37914 0.46792 0.0
C19 C 0.29881 0.37758 0.44491 0.0
C20 C 0.28676 0.33885 0.39108 0.0
C21 C 0.29302 0.33284 0.36877 0.0
C22 C 0.25894 0.31723 0.3576 0.0
C23 C 0.21762 0.3074 0.36852 0.0
C24 C 0.21081 0.31407 0.39084 0.0
C25 C 0.24515 0.32977 0.40205 0.0
C26 C 0.33764 0.39183 0.39425 0.0
C27 C 0.38114 0.40613 0.39653 0.0
C28 C 0.38778 0.43109 0.38572 0.0
C29 C 0.35068 0.44224 0.37279 0.0
C30 C 0.30603 0.4288 0.37161 0.0
C31 C 0.29947 0.40368 0.38236 0.0
P32 P 0.29505 0.09816 0.91304 0.0
H33 H 0.32486 0.06177 0.87802 0.0
H34 H 0.28061 0.03095 0.85369 0.0
H35 H 0.14631 0.05681 0.88311 0.0
H36 H 0.19086 0.08776 0.90734 0.0
H37 H 0.3895 0.12291 0.9049 0.0
H38 H 0.41519 0.16224 0.88307 0.0
H39 H 0.2664 0.17936 0.86656 0.0
H40 H 0.241 0.13936 0.88818 0.0
H41 H 0.2443 0.0637 0.94429 0.0
H42 H 0.27524 0.14962 0.93677 0.0
O43 O 0.34423 0.08095 0.92085 0.0
H44 H 0.20742 0.07244 0.98008 0.0
H45 H 0.23876 0.15848 0.97279 0.0
C46 C 0.26125 0.07648 0.89483 0.0
C47 C 0.28589 0.0608 0.87922 0.0
C48 C 0.26055 0.04335 0.86523 0.0
C49 C 0.21003 0.04131 0.86662 0.0
C50 C 0.1853 0.05765 0.88192 0.0
C51 C 0.21072 0.07531 0.89578 0.0
C52 C 0.31336 0.12819 0.89803 0.0
C53 C 0.36233 0.13513 0.89666 0.0
C54 C 0.37698 0.15777 0.88427 0.0
C55 C 0.34285 0.17395 0.87307 0.0
C56 C 0.29362 0.16711 0.87477 0.0
C57 C 0.27902 0.14439 0.88718 0.0
C58 C 0.26198 0.10599 0.93775 0.0
C59 C 0.24244 0.08452 0.95019 0.0
C60 C 0.22169 0.08952 0.97071 0.0
C61 C 0.2205 0.11613 0.9793 0.0
C62 C 0.23878 0.13781 0.9665 0.0
C63 C 0.25971 0.13274 0.94591 0.0
P64 P 0.84008 0.14041 0.60225 0.0
H65 H 0.81424 0.17798 0.56698 0.0
H66 H 0.81807 0.17409 0.52694 0.0
H67 H 0.85429 0.08854 0.53347 0.0
H68 H 0.8514 0.09271 0.57347 0.0
H69 H 0.84415 0.17942 0.63776 0.0
H70 H 0.7842 0.20894 0.65478 0.0
H71 H 0.67412 0.17598 0.61213 0.0
H72 H 0.73504 0.14625 0.59487 0.0
H73 H 0.9219 0.11057 0.62022 0.0
H74 H 0.76806 0.099 0.61456 0.0
O75 O 0.89255 0.15683 0.60497 0.0
H76 H 0.9296 0.06632 0.63809 0.0
H77 H 0.77563 0.05384 0.63211 0.0
C78 C 0.83161 0.13558 0.5732 0.0
C79 C 0.82169 0.15822 0.55977 0.0
C80 C 0.82393 0.15594 0.53688 0.0
C81 C 0.83652 0.13097 0.52704 0.0
C82 C 0.84491 0.10808 0.54058 0.0
C83 C 0.84271 0.11041 0.56348 0.0
C84 C 0.79424 0.16123 0.61469 0.0
C85 C 0.80726 0.17863 0.6319 0.0
C86 C 0.77298 0.19551 0.6416 0.0
C87 C 0.72475 0.19508 0.63448 0.0
C88 C 0.71117 0.1768 0.6178 0.0
C89 C 0.74585 0.15996 0.6079 0.0
C90 C 0.84433 0.1082 0.61639 0.0
C91 C 0.88966 0.09851 0.62289 0.0
C92 C 0.89408 0.07297 0.63288 0.0
C93 C 0.85328 0.05638 0.63631 0.0
C94 C 0.80768 0.0662 0.6298 0.0
C95 C 0.8033 0.09195 0.61981 0.0
P96 P 0.79489 0.40131 0.09127 0.0
H97 H 0.82171 0.43823 0.1265 0.0
H98 H 0.77484 0.46714 0.15124 0.0
H99 H 0.64284 0.43692 0.12227 0.0
H100 H 0.69018 0.40809 0.09746 0.0
H101 H 0.88673 0.38241 0.10934 0.0
H102 H 0.90995 0.34205 0.13028 0.0
H103 H 0.76375 0.31151 0.1258 0.0
H104 H 0.74034 0.35293 0.10558 0.0
H105 H 0.74409 0.43794 0.06137 0.0
H106 H 0.77928 0.35217 0.06423 0.0
O107 O 0.84466 0.41889 0.08494 0.0
H108 H 0.70797 0.43167 0.02499 0.0
H109 H 0.74162 0.34551 0.02842 0.0
C110 C 0.75943 0.42166 0.10977 0.0
C111 C 0.78268 0.43789 0.12545 0.0
C112 C 0.75582 0.45422 0.1397 0.0
C113 C 0.7051 0.45448 0.13861 0.0
C114 C 0.68187 0.43751 0.12326 0.0
C115 C 0.70886 0.42104 0.10908 0.0
C116 C 0.812 0.37042 0.10554 0.0
C117 C 0.85968 0.36697 0.11268 0.0
C118 C 0.87301 0.34368 0.12459 0.0
C119 C 0.83893 0.32322 0.12957 0.0
C120 C 0.79094 0.32687 0.12243 0.0
C121 C 0.77755 0.3504 0.11069 0.0
C122 C 0.76345 0.39545 0.06575 0.0
C123 C 0.74307 0.41764 0.05438 0.0
C124 C 0.72229 0.41401 0.0336 0.0
C125 C 0.72184 0.38809 0.02374 0.0
C126 C 0.74182 0.36583 0.03539 0.0
C127 C 0.76287 0.36954 0.05607 0.0
P128 P 0.78848 0.60483 0.58957 0.0
H129 H 0.82715 0.62668 0.54876 0.0
H130 H 0.79058 0.63712 0.51305 0.0
H131 H 0.64986 0.61769 0.53955 0.0
H132 H 0.6867 0.60777 0.57541 0.0
H133 H 0.86811 0.61319 0.61995 0.0
H134 H 0.89304 0.65199 0.64237 0.0
H135 H 0.77161 0.69857 0.61793 0.0
H136 H 0.74719 0.65964 0.59527 0.0
H137 H 0.74758 0.55193 0.579 0.0
H138 H 0.74701 0.60678 0.63436 0.0
O139 O 0.83821 0.58764 0.58269 0.0
H140 H 0.70177 0.51837 0.60051 0.0
H141 H 0.7022 0.57318 0.65606 0.0
C142 C 0.75979 0.61569 0.56445 0.0
C143 C 0.78838 0.62493 0.54693 0.0
C144 C 0.76745 0.63088 0.52656 0.0
C145 C 0.71746 0.6278 0.52342 0.0
C146 C 0.68846 0.62028 0.54148 0.0
C147 C 0.70953 0.61432 0.56191 0.0
C148 C 0.80646 0.6338 0.60565 0.0
C149 C 0.84706 0.63183 0.61929 0.0
C150 C 0.86103 0.65393 0.63223 0.0
C151 C 0.83434 0.67836 0.63186 0.0
C152 C 0.79326 0.68015 0.6183 0.0
C153 C 0.77924 0.65794 0.60539 0.0
C154 C 0.75083 0.58175 0.60508 0.0
C155 C 0.73735 0.55678 0.59575 0.0
C156 C 0.71146 0.53758 0.6081 0.0
C157 C 0.69867 0.54303 0.63005 0.0
C158 C 0.71113 0.56845 0.63914 0.0
C159 C 0.73703 0.58765 0.62675 0.0
P160 P 0.82233 0.86413 0.10549 0.0
H161 H 0.83602 0.87906 0.15092 0.0
H162 H 0.84035 0.92271 0.16979 0.0
H163 H 0.804 0.96451 0.10908 0.0
H164 H 0.80084 0.92042 0.09013 0.0
H165 H 0.81143 0.80546 0.1028 0.0
H166 H 0.75408 0.77349 0.11943 0.0
H167 H 0.67172 0.8413 0.14485 0.0
H168 H 0.72895 0.87326 0.12785 0.0
H169 H 0.89653 0.8847 0.07625 0.0
H170 H 0.75413 0.84999 0.06993 0.0
O171 O 0.87425 0.84985 0.11341 0.0
H172 H 0.90525 0.8851 0.0362 0.0
H173 H 0.76289 0.84989 0.02979 0.0
C174 C 0.81893 0.89659 0.11912 0.0
C175 C 0.82853 0.89762 0.14172 0.0
C176 C 0.83051 0.92263 0.15254 0.0
C177 C 0.82261 0.94721 0.14096 0.0
C178 C 0.81088 0.94599 0.11841 0.0
C179 C 0.80896 0.92082 0.10756 0.0
C180 C 0.77501 0.84161 0.11454 0.0
C181 C 0.78067 0.81344 0.1117 0.0
C182 C 0.74801 0.79523 0.12126 0.0
C183 C 0.70898 0.80493 0.13376 0.0
C184 C 0.70152 0.83327 0.13532 0.0
C185 C 0.73438 0.85153 0.12574 0.0
C186 C 0.82498 0.86707 0.076 0.0
C187 C 0.86709 0.87724 0.0662 0.0
C188 C 0.87219 0.87721 0.04334 0.0
C189 C 0.8351 0.86707 0.02986 0.0
C190 C 0.79212 0.85779 0.03975 0.0
C191 C 0.7871 0.8578 0.06268 0.0
P192 P 0.28868 0.89714 0.41505 0.0
H193 H 0.32109 0.86986 0.4549 0.0
H194 H 0.28359 0.86196 0.49077 0.0
H195 H 0.1504 0.89694 0.46656 0.0
H196 H 0.18837 0.90494 0.4307 0.0
H197 H 0.35804 0.89085 0.37985 0.0
H198 H 0.38176 0.85242 0.3569 0.0
H199 H 0.28256 0.80021 0.39253 0.0
H200 H 0.25778 0.83925 0.41497 0.0
H201 H 0.2566 0.9529 0.42219 0.0
H202 H 0.2439 0.8925 0.37102 0.0
O203 O 0.33898 0.91359 0.42223 0.0
H204 H 0.21331 0.98596 0.39902 0.0
H205 H 0.20154 0.9256 0.34772 0.0
C206 C 0.25778 0.88821 0.44021 0.0
C207 C 0.28366 0.87555 0.45724 0.0
C208 C 0.26207 0.87098 0.47772 0.0
C209 C 0.21401 0.87897 0.48159 0.0
C210 C 0.18767 0.89093 0.46422 0.0
C211 C 0.20932 0.89539 0.44366 0.0
C212 C 0.3068 0.86778 0.39932 0.0
C213 C 0.34167 0.87107 0.38282 0.0
C214 C 0.35534 0.84901 0.36976 0.0
C215 C 0.33446 0.82309 0.37297 0.0
C216 C 0.29915 0.81992 0.3895 0.0
C217 C 0.28524 0.84215 0.4025 0.0
C218 C 0.25384 0.92036 0.39829 0.0
C219 C 0.24436 0.94674 0.40602 0.0
C220 C 0.21959 0.96556 0.39282 0.0
C221 C 0.20441 0.95834 0.37155 0.0
C222 C 0.21338 0.93175 0.36396 0.0
C223 C 0.23755 0.91282 0.37731 0.0
P224 P 0.32312 0.63129 0.903 0.0
H225 H 0.33244 0.61858 0.85677 0.0
H226 H 0.33743 0.5754 0.83681 0.0
H227 H 0.3073 0.53118 0.89698 0.0
H228 H 0.30083 0.57444 0.91679 0.0
H229 H 0.32539 0.68999 0.89529 0.0
H230 H 0.26994 0.72113 0.8765 0.0
H231 H 0.16588 0.65593 0.87029 0.0
H232 H 0.22188 0.62465 0.88918 0.0
H233 H 0.38393 0.59838 0.93152 0.0
H234 H 0.26469 0.65413 0.9391 0.0
O235 O 0.37708 0.64412 0.89642 0.0
H236 H 0.39068 0.59397 0.97146 0.0
H237 H 0.2725 0.6509 0.97907 0.0
C238 C 0.31756 0.59966 0.88832 0.0
C239 C 0.32588 0.59962 0.86557 0.0
C240 C 0.32843 0.575 0.85417 0.0
C241 C 0.3231 0.55006 0.86545 0.0
C242 C 0.31192 0.5502 0.88801 0.0
C243 C 0.3086 0.57491 0.89934 0.0
C244 C 0.27812 0.65492 0.89318 0.0
C245 C 0.29047 0.68242 0.89014 0.0
C246 C 0.25885 0.70017 0.87933 0.0
C247 C 0.21405 0.69078 0.87159 0.0
C248 C 0.20028 0.66365 0.87603 0.0
C249 C 0.23222 0.64579 0.88676 0.0
C250 C 0.32351 0.62634 0.93238 0.0
C251 C 0.35888 0.60949 0.94184 0.0
C252 C 0.36298 0.60718 0.96469 0.0
C253 C 0.33228 0.62213 0.97857 0.0
C254 C 0.29624 0.63868 0.96894 0.0
C255 C 0.29187 0.64073 0.94604 0.0
Eu256 Eu 0.06115 0.13164 0.23157 0.0
C257 C 0.84324 0.11526 0.25548 0.0
N258 N 0.86756 0.1394 0.25524 0.0
C259 C 0.80313 0.16075 0.23527 0.0
C260 C 0.79794 0.11285 0.24509 0.0
C261 C 0.84822 0.16209 0.24555 0.0
C262 C 0.77794 0.13601 0.23496 0.0
C263 C 0.84112 0.06711 0.26523 0.0
C264 C 0.86496 0.09259 0.26524 0.0
C265 C 0.79607 0.06461 0.2548 0.0
C266 C 0.77456 0.0874 0.24476 0.0
Eu267 Eu 0.9446 0.13948 0.27165 0.0
N268 N 0.9094 0.09541 0.27461 0.0
C269 C 0.86309 0.04494 0.27586 0.0
C270 C 0.92903 0.07441 0.28643 0.0
C271 C 0.90682 0.04875 0.28685 0.0
H272 H 0.86759 0.18124 0.24582 0.0
H273 H 0.92316 0.03202 0.29589 0.0
H274 H 0.13574 0.08679 0.25577 0.0
H275 H 0.08709 0.2405 0.21309 0.0
H276 H 0.96105 0.07738 0.29611 0.0
H277 H 0.84598 0.02504 0.27621 0.0
H278 H 0.04469 0.19655 0.21236 0.0
H279 H 0.78795 0.17876 0.2275 0.0
H280 H 0.77746 0.04514 0.25449 0.0
H281 H 0.73988 0.0851 0.23673 0.0
H282 H 0.21717 0.08622 0.27241 0.0
H283 H 0.74322 0.13498 0.22679 0.0
H284 H 0.16833 0.24365 0.22975 0.0
N285 N 0.13863 0.12894 0.24737 0.0
C286 C 0.16526 0.15228 0.24701 0.0
C287 C 0.20297 0.10494 0.26537 0.0
C288 C 0.21197 0.15285 0.25625 0.0
C289 C 0.15676 0.10537 0.25613 0.0
C290 C 0.2307 0.12878 0.26546 0.0
N291 N 0.09883 0.17511 0.23026 0.0
C292 C 0.07889 0.19765 0.22058 0.0
C293 C 0.17092 0.20076 0.23864 0.0
C294 C 0.14474 0.17603 0.23837 0.0
C295 C 0.14943 0.22426 0.22981 0.0
C296 C 0.10345 0.22261 0.22053 0.0
H297 H 0.2664 0.12842 0.27275 0.0
H298 H 0.2739 0.1783 0.26353 0.0
H299 H 0.23805 0.22018 0.24812 0.0
O300 O 0.06838 0.13472 0.19529 0.0
O301 O 0.0729 0.15202 0.26488 0.0
O302 O 0.00018 0.17289 0.26924 0.0
O303 O 0.10845 0.10394 0.2141 0.0
O304 O 0.996 0.15489 0.21796 0.0
O305 O 0.96128 0.17478 0.24861 0.0
O306 O 0.93959 0.1384 0.30788 0.0
O307 O 0.93338 0.12023 0.23807 0.0
O308 O 0.00507 0.09807 0.23295 0.0
O309 O 0.89593 0.16721 0.28866 0.0
O310 O 0.01017 0.11626 0.28493 0.0
O311 O 0.04344 0.09613 0.25412 0.0
C312 C 0.04535 0.16988 0.27489 0.0
C313 C 0.12099 0.10327 0.17474 0.0
C314 C 0.13725 0.10505 0.1353 0.0
C315 C 0.1617 0.08001 0.13693 0.0
C316 C 0.14591 0.07826 0.17597 0.0
C317 C 0.16607 0.06676 0.15717 0.0
C318 C 0.1169 0.11679 0.15425 0.0
C319 C 0.96668 0.17276 0.22714 0.0
C320 C 0.09878 0.11437 0.19489 0.0
C321 C 0.23804 0.17745 0.25645 0.0
C322 C 0.21755 0.20133 0.24771 0.0
C323 C 0.95901 0.10106 0.2287 0.0
C324 C 0.88674 0.1694 0.32832 0.0
C325 C 0.87639 0.16887 0.36821 0.0
C326 C 0.85096 0.19364 0.36674 0.0
C327 C 0.86081 0.19405 0.32724 0.0
C328 C 0.89404 0.15664 0.34892 0.0
C329 C 0.84303 0.20603 0.34636 0.0
C330 C 0.03846 0.09807 0.27556 0.0
C331 C 0.90802 0.15814 0.30806 0.0
H332 H 0.17764 0.07078 0.12246 0.0
H333 H 0.14951 0.06737 0.19146 0.0
H334 H 0.18505 0.04747 0.15828 0.0
H335 H 0.0979 0.13609 0.15298 0.0
H336 H 0.83678 0.20326 0.38141 0.0
H337 H 0.85485 0.20435 0.31164 0.0
H338 H 0.91404 0.13764 0.35003 0.0
H339 H 0.82328 0.22508 0.34538 0.0
Eu340 Eu 0.44294 0.36396 0.73542 0.0
C341 C 0.66878 0.38695 0.76291 0.0
N342 N 0.64396 0.36332 0.75973 0.0
C343 C 0.71253 0.34364 0.74168 0.0
C344 C 0.7165 0.38995 0.75513 0.0
C345 C 0.66537 0.34161 0.74972 0.0
C346 C 0.73813 0.36797 0.74427 0.0
C347 C 0.67147 0.43289 0.77774 0.0
C348 C 0.64644 0.40821 0.77407 0.0
C349 C 0.71882 0.43599 0.76986 0.0
C350 C 0.74123 0.41461 0.75855 0.0
Eu351 Eu 0.56479 0.36181 0.77411 0.0
N352 N 0.60015 0.40489 0.78111 0.0
C353 C 0.64812 0.45377 0.78923 0.0
C354 C 0.57848 0.42453 0.79352 0.0
C355 C 0.60162 0.44944 0.79736 0.0
H356 H 0.64665 0.3225 0.7484 0.0
H357 H 0.58384 0.46511 0.80691 0.0
H358 H 0.36861 0.40962 0.75871 0.0
H359 H 0.4264 0.25285 0.72792 0.0
H360 H 0.54398 0.42092 0.8011 0.0
H361 H 0.66603 0.47306 0.79231 0.0
H362 H 0.46376 0.29779 0.72155 0.0
H363 H 0.72926 0.32633 0.7337 0.0
H364 H 0.73845 0.45486 0.77244 0.0
H365 H 0.77783 0.41729 0.75263 0.0
H366 H 0.29156 0.40964 0.77924 0.0
H367 H 0.77475 0.36946 0.73809 0.0
H368 H 0.34944 0.24941 0.74838 0.0
N369 N 0.36984 0.36651 0.75493 0.0
C370 C 0.34611 0.34239 0.75784 0.0
C371 C 0.30665 0.39059 0.77344 0.0
C372 C 0.30199 0.34149 0.7694 0.0
C373 C 0.35048 0.39049 0.76205 0.0
C374 C 0.28243 0.36598 0.77725 0.0
N375 N 0.41025 0.3196 0.73927 0.0
C376 C 0.43097 0.29662 0.73093 0.0
C377 C 0.3438 0.29303 0.75355 0.0
C378 C 0.36683 0.31835 0.74986 0.0
C379 C 0.3659 0.26926 0.74577 0.0
C380 C 0.40947 0.27109 0.73429 0.0
H381 H 0.24856 0.36612 0.78618 0.0
H382 H 0.24507 0.31521 0.78176 0.0
H383 H 0.28155 0.2729 0.76791 0.0
O384 O 0.42314 0.35417 0.7014 0.0
O385 O 0.44238 0.34584 0.77007 0.0
O386 O 0.5158 0.32543 0.77094 0.0
O387 O 0.38771 0.38738 0.71817 0.0
O388 O 0.50815 0.3429 0.72063 0.0
O389 O 0.55788 0.32755 0.7491 0.0
O390 O 0.55962 0.361 0.81054 0.0
O391 O 0.57208 0.39027 0.74467 0.0
O392 O 0.49932 0.39489 0.72533 0.0
O393 O 0.61511 0.33741 0.79319 0.0
O394 O 0.49655 0.38369 0.78511 0.0
O395 O 0.46069 0.40234 0.7541 0.0
C396 C 0.47103 0.32659 0.77743 0.0
C397 C 0.4 0.39246 0.67991 0.0
C398 C 0.39517 0.39879 0.64012 0.0
C399 C 0.41223 0.42561 0.64245 0.0
C400 C 0.41675 0.41946 0.68194 0.0
C401 C 0.42251 0.43593 0.6633 0.0
C402 C 0.38883 0.38227 0.65891 0.0
C403 C 0.54297 0.32724 0.7284 0.0
C404 C 0.39385 0.3749 0.69952 0.0
C405 C 0.27896 0.31629 0.77289 0.0
C406 C 0.29979 0.29217 0.76502 0.0
C407 C 0.54508 0.40084 0.7289 0.0
C408 C 0.61441 0.33235 0.83269 0.0
C409 C 0.62787 0.33442 0.87237 0.0
C410 C 0.64677 0.30778 0.8718 0.0
C411 C 0.63383 0.30584 0.83252 0.0
C412 C 0.61173 0.34674 0.85268 0.0
C413 C 0.64984 0.29367 0.85199 0.0
C414 C 0.47175 0.40304 0.77511 0.0
C415 C 0.59611 0.34423 0.81198 0.0
H416 H 0.41703 0.43865 0.62813 0.0
H417 H 0.42563 0.42783 0.69791 0.0
H418 H 0.43524 0.45671 0.66501 0.0
H419 H 0.37562 0.36154 0.65716 0.0
H420 H 0.65997 0.29802 0.88669 0.0
H421 H 0.63611 0.29437 0.81735 0.0
H422 H 0.59704 0.36727 0.85296 0.0
H423 H 0.66469 0.27322 0.85172 0.0
Eu424 Eu 0.05455 0.85944 0.73337 0.0
C425 C 0.83414 0.84468 0.75902 0.0
N426 N 0.86052 0.86802 0.75728 0.0
C427 C 0.7957 0.89025 0.73819 0.0
C428 C 0.78732 0.84318 0.74998 0.0
C429 C 0.84202 0.89076 0.7473 0.0
C430 C 0.76823 0.86636 0.73951 0.0
C431 C 0.82895 0.79704 0.77021 0.0
C432 C 0.85501 0.82177 0.76894 0.0
C433 C 0.78218 0.79558 0.76134 0.0
C434 C 0.76142 0.81857 0.7513 0.0
Eu435 Eu 0.93758 0.86706 0.77354 0.0
N436 N 0.90094 0.82352 0.77692 0.0
C437 C 0.85061 0.77445 0.7804 0.0
C438 C 0.92096 0.80199 0.78799 0.0
C439 C 0.89658 0.77705 0.78953 0.0
H440 H 0.86269 0.90945 0.74672 0.0
H441 H 0.913 0.75995 0.79808 0.0
H442 H 0.13049 0.81549 0.75749 0.0
H443 H 0.07678 0.96849 0.71481 0.0
H444 H 0.95498 0.80398 0.79628 0.0
H445 H 0.83179 0.7551 0.78168 0.0
H446 H 0.03726 0.92363 0.71309 0.0
H447 H 0.78116 0.90831 0.73024 0.0
H448 H 0.76177 0.77671 0.76213 0.0
H449 H 0.72544 0.81703 0.74441 0.0
H450 H 0.21085 0.81607 0.77525 0.0
H451 H 0.73241 0.866 0.73235 0.0
H452 H 0.156 0.97315 0.73323 0.0
N453 N 0.13192 0.85774 0.74935 0.0
C454 C 0.15711 0.88158 0.74977 0.0
C455 C 0.19612 0.83463 0.76818 0.0
C456 C 0.20286 0.8829 0.75988 0.0
C457 C 0.15063 0.83437 0.7582 0.0
C458 C 0.22232 0.85901 0.76907 0.0
N459 N 0.09086 0.9033 0.73207 0.0
C460 C 0.07055 0.92545 0.72199 0.0
C461 C 0.16049 0.93025 0.74191 0.0
C462 C 0.13593 0.90503 0.74098 0.0
C463 C 0.13838 0.95339 0.73278 0.0
C464 C 0.09352 0.95088 0.72252 0.0
H465 H 0.25737 0.85919 0.77699 0.0
H466 H 0.26234 0.90947 0.76867 0.0
H467 H 0.22539 0.95084 0.75287 0.0
O468 O 0.05947 0.86255 0.69712 0.0
O469 O 0.06477 0.87954 0.76676 0.0
O470 O 0.99258 0.90132 0.77205 0.0
O471 O 0.10164 0.83197 0.71522 0.0
O472 O 0.98874 0.88187 0.71973 0.0
O473 O 0.95545 0.90184 0.75047 0.0
O474 O 0.92968 0.86616 0.80989 0.0
O475 O 0.92548 0.84564 0.74061 0.0
O476 O 0.99925 0.82599 0.73619 0.0
O477 O 0.88851 0.89499 0.78964 0.0
O478 O 0.00338 0.84434 0.7871 0.0
O479 O 0.03786 0.82412 0.75647 0.0
C480 C 0.03906 0.89902 0.7757 0.0
C481 C 0.11054 0.83164 0.67549 0.0
C482 C 0.12758 0.83566 0.63616 0.0
C483 C 0.14685 0.80916 0.63643 0.0
C484 C 0.13025 0.80518 0.67536 0.0
C485 C 0.14819 0.79405 0.65593 0.0
C486 C 0.10927 0.84695 0.65573 0.0
C487 C 0.95921 0.8994 0.72904 0.0
C488 C 0.09001 0.84233 0.69617 0.0
C489 C 0.22724 0.90803 0.76088 0.0
C490 C 0.20613 0.93162 0.75193 0.0
C491 C 0.95414 0.8286 0.73031 0.0
C492 C 0.87426 0.89775 0.82878 0.0
C493 C 0.86095 0.89999 0.86845 0.0
C494 C 0.83061 0.92266 0.8652 0.0
C495 C 0.84353 0.92039 0.82598 0.0
C496 C 0.88252 0.88735 0.85015 0.0
C497 C 0.82185 0.93267 0.84408 0.0
C498 C 0.03189 0.82603 0.77794 0.0
C499 C 0.89802 0.88589 0.80928 0.0
H500 H 0.16114 0.80022 0.62149 0.0
H501 H 0.13127 0.79289 0.69025 0.0
H502 H 0.16311 0.77361 0.65598 0.0
H503 H 0.09424 0.8674 0.65553 0.0
H504 H 0.81329 0.9325 0.87905 0.0
H505 H 0.8364 0.92881 0.80977 0.0
H506 H 0.90613 0.86994 0.85259 0.0
H507 H 0.7983 0.9501 0.84174 0.0
Eu508 Eu 0.4368 0.63427 0.2304 0.0
C509 C 0.64727 0.66025 0.2519 0.0
N510 N 0.62459 0.63567 0.25405 0.0
C511 C 0.69098 0.61351 0.23609 0.0
C512 C 0.69188 0.66246 0.24081 0.0
C513 C 0.64716 0.61227 0.24748 0.0
C514 C 0.713 0.63876 0.23236 0.0
C515 C 0.6512 0.70852 0.26107 0.0
C516 C 0.6273 0.6831 0.26193 0.0
C517 C 0.69462 0.71093 0.24931 0.0
C518 C 0.71484 0.68799 0.23916 0.0
Eu519 Eu 0.54997 0.63648 0.2732 0.0
N520 N 0.58462 0.68041 0.27278 0.0
C521 C 0.63102 0.73067 0.27233 0.0
C522 C 0.56608 0.70145 0.28478 0.0
C523 C 0.58859 0.72702 0.28446 0.0
H524 H 0.6321 0.59247 0.25125 0.0
H525 H 0.57327 0.74386 0.29359 0.0
H526 H 0.35548 0.67388 0.25611 0.0
H527 H 0.41767 0.53043 0.1984 0.0
H528 H 0.53361 0.69846 0.29435 0.0
H529 H 0.64831 0.75053 0.27205 0.0
H530 H 0.45768 0.57474 0.20355 0.0
H531 H 0.70808 0.59493 0.23045 0.0
H532 H 0.71323 0.73037 0.24824 0.0
H533 H 0.74887 0.69008 0.23051 0.0
H534 H 0.27353 0.66993 0.27133 0.0
H535 H 0.74721 0.63961 0.22373 0.0
H536 H 0.33619 0.5225 0.21379 0.0
N537 N 0.35884 0.63246 0.24576 0.0
C538 C 0.33403 0.60884 0.24271 0.0
C539 C 0.29032 0.65247 0.26359 0.0
C540 C 0.28655 0.60586 0.2508 0.0
C541 C 0.33723 0.65449 0.25528 0.0
C542 C 0.26501 0.62796 0.26155 0.0
N543 N 0.40185 0.59105 0.22364 0.0
C544 C 0.42331 0.57123 0.21133 0.0
C545 C 0.33121 0.56275 0.2282 0.0
C546 C 0.35617 0.58755 0.23145 0.0
C547 C 0.35412 0.54185 0.21657 0.0
C548 C 0.40019 0.54621 0.20794 0.0
H549 H 0.22858 0.62649 0.26794 0.0
H550 H 0.2255 0.57844 0.25391 0.0
H551 H 0.26458 0.54069 0.23421 0.0
O552 O 0.40741 0.63147 0.19695 0.0
O553 O 0.42663 0.61293 0.2636 0.0
O554 O 0.50349 0.59847 0.27291 0.0
O555 O 0.40892 0.67093 0.21397 0.0
O556 O 0.50397 0.61074 0.21995 0.0
O557 O 0.54678 0.59837 0.25166 0.0
O558 O 0.54364 0.63974 0.30909 0.0
O559 O 0.53493 0.67123 0.24922 0.0
O560 O 0.5114 0.64673 0.2197 0.0
O561 O 0.60885 0.6237 0.29464 0.0
O562 O 0.4778 0.65226 0.28473 0.0
O563 O 0.44267 0.67072 0.25354 0.0
C564 C 0.45626 0.59718 0.27498 0.0
C565 C 0.37517 0.67069 0.17691 0.0
C566 C 0.35741 0.67178 0.13741 0.0
C567 C 0.32977 0.69558 0.14078 0.0
C568 C 0.34834 0.69472 0.17966 0.0
C569 C 0.32561 0.70697 0.16168 0.0
C570 C 0.37976 0.65929 0.15576 0.0
C571 C 0.53456 0.59496 0.2308 0.0
C572 C 0.39752 0.65747 0.19623 0.0
C573 C 0.26192 0.58111 0.24774 0.0
C574 C 0.28418 0.55963 0.2365 0.0
C575 C 0.5318 0.66838 0.22788 0.0
C576 C 0.59026 0.60928 0.33085 0.0
C577 C 0.6005 0.60063 0.37024 0.0
C578 C 0.60602 0.5726 0.36567 0.0
C579 C 0.59572 0.58129 0.32668 0.0
C580 C 0.5922 0.61881 0.3526 0.0
C581 C 0.60346 0.56307 0.34407 0.0
C582 C 0.45003 0.67041 0.27502 0.0
C583 C 0.586 0.6292 0.31278 0.0
H584 H 0.31077 0.70532 0.12727 0.0
H585 H 0.34426 0.70379 0.19578 0.0
H586 H 0.30436 0.72529 0.16398 0.0
H587 H 0.40136 0.64104 0.15358 0.0
H588 H 0.6136 0.55805 0.37872 0.0
H589 H 0.5945 0.57357 0.31 0.0
H590 H 0.58792 0.64047 0.35568 0.0
H591 H 0.60802 0.54151 0.34079 0.0
C592 C 0.14087 0.99381 0.3652 0.0
C593 C 0.17999 0.97867 0.35722 0.0
C594 C 0.11757 0.01324 0.35184 0.0
C595 C 0.13446 0.01799 0.33014 0.0
C596 C 0.17428 0.00292 0.32207 0.0
C597 C 0.19626 0.98321 0.33565 0.0
C598 C 0.0746 0.0285 0.36088 0.0
C599 C 0.194 0.00783 0.2992 0.0
C600 C 0.05047 0.05011 0.28787 0.0
C601 C 0.06269 0.07774 0.28953 0.0
C602 C 0.07282 0.03049 0.30136 0.0
C603 C 0.11017 0.03861 0.31586 0.0
C604 C 0.12385 0.06649 0.31689 0.0
C605 C 0.09898 0.08587 0.30408 0.0
C606 C 0.05601 0.00118 0.30031 0.0
C607 C 0.16498 0.07579 0.33133 0.0
H608 H 0.12807 0.99015 0.38183 0.0
H609 H 0.22687 0.9717 0.32955 0.0
H610 H 0.08229 0.05073 0.36113 0.0
H611 H 0.04284 0.02542 0.35003 0.0
H612 H 0.06506 0.02178 0.37783 0.0
H613 H 0.22619 0.99503 0.29569 0.0
H614 H 0.16589 0.00331 0.28674 0.0
H615 H 0.20405 0.02965 0.29717 0.0
H616 H 0.02253 0.04399 0.2764 0.0
H617 H 0.1088 0.1073 0.30493 0.0
H618 H 0.0452 0.994 0.31697 0.0
H619 H 0.08594 0.98787 0.29473 0.0
H620 H 0.02492 0.99853 0.28895 0.0
H621 H 0.15604 0.07199 0.34889 0.0
H622 H 0.17311 0.09787 0.32911 0.0
H623 H 0.19801 0.06387 0.32755 0.0
C624 C 0.37163 0.50752 0.863 0.0
C625 C 0.3354 0.5243 0.85421 0.0
C626 C 0.39048 0.48575 0.85084 0.0
C627 C 0.37185 0.48039 0.82959 0.0
C628 C 0.3328 0.49605 0.82132 0.0
C629 C 0.31547 0.51816 0.83363 0.0
C630 C 0.43262 0.46981 0.86008 0.0
C631 C 0.31089 0.49027 0.79907 0.0
C632 C 0.45662 0.45052 0.78707 0.0
C633 C 0.44606 0.42272 0.78883 0.0
C634 C 0.43319 0.46947 0.80059 0.0
C635 C 0.39653 0.46038 0.8152 0.0
C636 C 0.38473 0.43227 0.8164 0.0
C637 C 0.41095 0.41361 0.80371 0.0
C638 C 0.44826 0.4991 0.7995 0.0
C639 C 0.34436 0.42194 0.83093 0.0
H640 H 0.38736 0.5125 0.87884 0.0
H641 H 0.28723 0.5311 0.82693 0.0
H642 H 0.42538 0.44756 0.85935 0.0
H643 H 0.46523 0.47385 0.84994 0.0
H644 H 0.44068 0.47534 0.87741 0.0
H645 H 0.27654 0.50155 0.79649 0.0
H646 H 0.33655 0.49642 0.78592 0.0
H647 H 0.30394 0.46807 0.7972 0.0
H648 H 0.48426 0.45728 0.77562 0.0
H649 H 0.40302 0.39194 0.80487 0.0
H650 H 0.45878 0.50626 0.81614 0.0
H651 H 0.41751 0.51189 0.79394 0.0
H652 H 0.47909 0.50249 0.7881 0.0
H653 H 0.35435 0.42437 0.84849 0.0
H654 H 0.33612 0.40005 0.82793 0.0
H655 H 0.3111 0.43409 0.82804 0.0
C656 C 0.63631 0.52892 0.65789 0.0
C657 C 0.67421 0.52186 0.6437 0.0
C658 C 0.61418 0.5092 0.67141 0.0
C659 C 0.63051 0.48181 0.67079 0.0
C660 C 0.6683 0.47448 0.6563 0.0
C661 C 0.68969 0.49458 0.64294 0.0
C662 C 0.57355 0.51769 0.68646 0.0
C663 C 0.68641 0.44542 0.65507 0.0
C664 C 0.60718 0.43682 0.7208 0.0
C665 C 0.56728 0.42143 0.71402 0.0
C666 C 0.62814 0.4565 0.70689 0.0
C667 C 0.60873 0.46089 0.68561 0.0
C668 C 0.56878 0.4452 0.67851 0.0
C669 C 0.54844 0.42576 0.69283 0.0
C670 C 0.67117 0.47253 0.71497 0.0
C671 C 0.54707 0.4491 0.6559 0.0
H672 H 0.62379 0.5499 0.65835 0.0
H673 H 0.71933 0.48902 0.63221 0.0
H674 H 0.5407 0.50558 0.68276 0.0
H675 H 0.58347 0.51338 0.70385 0.0
H676 H 0.56472 0.53975 0.68481 0.0
H677 H 0.71546 0.44296 0.64263 0.0
H678 H 0.7005 0.43888 0.67137 0.0
H679 H 0.65623 0.43148 0.65085 0.0
H680 H 0.62164 0.43388 0.7371 0.0
H681 H 0.51814 0.41364 0.68728 0.0
H682 H 0.66384 0.49477 0.71373 0.0
H683 H 0.70294 0.46818 0.70442 0.0
H684 H 0.68058 0.46752 0.7323 0.0
H685 H 0.52507 0.46805 0.65575 0.0
H686 H 0.52355 0.43169 0.65123 0.0
H687 H 0.57549 0.45144 0.64316 0.0
C688 C 0.85697 0.99461 0.14152 0.0
C689 C 0.83092 0.97377 0.15216 0.0
C690 C 0.87247 0.01778 0.15306 0.0
C691 C 0.86211 0.01999 0.17581 0.0
C692 C 0.83306 0.0 0.18627 0.0
C693 C 0.81754 0.97722 0.17427 0.0
C694 C 0.90278 0.03891 0.14125 0.0
C695 C 0.82115 0.00171 0.2105 0.0
C696 C 0.95607 0.05535 0.21091 0.0
C697 C 0.93422 0.08062 0.21496 0.0
C698 C 0.93281 0.03551 0.19822 0.0
C699 C 0.88668 0.04116 0.18921 0.0
C700 C 0.86449 0.06672 0.19313 0.0
C701 C 0.88861 0.08619 0.20597 0.0
C702 C 0.95753 0.00839 0.19458 0.0
C703 C 0.81553 0.07356 0.1837 0.0
H704 H 0.86775 0.99212 0.12449 0.0
H705 H 0.79647 0.96152 0.18248 0.0
H706 H 0.89043 0.05983 0.14537 0.0
H707 H 0.94088 0.03706 0.1467 0.0
H708 H 0.90156 0.0364 0.12309 0.0
H709 H 0.7942 0.9861 0.21562 0.0
H710 H 0.85451 0.99859 0.22032 0.0
H711 H 0.80695 0.02224 0.2146 0.0
H712 H 0.99123 0.05088 0.2179 0.0
H713 H 0.87192 0.10589 0.20877 0.0
H714 H 0.96294 0.00498 0.17671 0.0
H715 H 0.93443 0.99153 0.20087 0.0
H716 H 0.99318 0.00717 0.20291 0.0
H717 H 0.8168 0.07247 0.16546 0.0
H718 H 0.8031 0.09427 0.18851 0.0
H719 H 0.78845 0.05839 0.18938 0.0
C720 C 0.82725 0.02062 0.66368 0.0
C721 C 0.85908 0.02926 0.64706 0.0
C722 C 0.83682 0.99693 0.67609 0.0
C723 C 0.87954 0.98193 0.67198 0.0
C724 C 0.91003 0.98956 0.6543 0.0
C725 C 0.89909 0.01294 0.64191 0.0
C726 C 0.80277 0.98895 0.69444 0.0
C727 C 0.95608 0.97419 0.64943 0.0
C728 C 0.943 0.94784 0.71995 0.0
C729 C 0.93643 0.92022 0.7151 0.0
C730 C 0.92397 0.96815 0.70616 0.0
C731 C 0.89589 0.96051 0.68768 0.0
C732 C 0.88696 0.93254 0.68345 0.0
C733 C 0.90836 0.91261 0.697 0.0
C734 C 0.93559 0.9977 0.71088 0.0
C735 C 0.85538 0.92372 0.66453 0.0
H736 H 0.79618 0.03308 0.66774 0.0
H737 H 0.92304 0.01908 0.62865 0.0
H738 H 0.79709 0.96651 0.6948 0.0
H739 H 0.81869 0.99484 0.71049 0.0
H740 H 0.76719 0.99923 0.69277 0.0
H741 H 0.97402 0.98163 0.63417 0.0
H742 H 0.98159 0.97656 0.66339 0.0
H743 H 0.94867 0.95205 0.64767 0.0
H744 H 0.96482 0.95351 0.73405 0.0
H745 H 0.90274 0.89109 0.69365 0.0
H746 H 0.90181 0.00957 0.71292 0.0
H747 H 0.95551 0.00675 0.69676 0.0
H748 H 0.95787 0.0001 0.72597 0.0
H749 H 0.82014 0.93446 0.66525 0.0
H750 H 0.84876 0.90132 0.66465 0.0
H751 H 0.87261 0.92939 0.64867 0.0
C752 C 0.63862 0.48848 0.14431 0.0
C753 C 0.67685 0.47303 0.15301 0.0
C754 C 0.61368 0.50742 0.15735 0.0
C755 C 0.62739 0.51105 0.17961 0.0
C756 C 0.66515 0.49503 0.18864 0.0
C757 C 0.68938 0.4762 0.17524 0.0
C758 C 0.57345 0.52402 0.14715 0.0
C759 C 0.68083 0.49831 0.21229 0.0
C760 C 0.59802 0.57989 0.20483 0.0
C761 C 0.55886 0.57335 0.21837 0.0
C762 C 0.62162 0.5596 0.19267 0.0
C763 C 0.60373 0.53248 0.19316 0.0
C764 C 0.56315 0.526 0.20642 0.0
C765 C 0.54185 0.54647 0.21931 0.0
C766 C 0.66568 0.56722 0.17934 0.0
C767 C 0.54181 0.49763 0.2067 0.0
H768 H 0.62909 0.48636 0.12709 0.0
H769 H 0.71843 0.46403 0.18214 0.0
H770 H 0.54032 0.52242 0.15734 0.0
H771 H 0.58388 0.5459 0.14659 0.0
H772 H 0.56486 0.51734 0.13014 0.0
H773 H 0.70998 0.4838 0.21695 0.0
H774 H 0.69398 0.51946 0.21495 0.0
H775 H 0.64972 0.49505 0.22349 0.0
H776 H 0.61045 0.60087 0.20394 0.0
H777 H 0.51111 0.54166 0.22969 0.0
H778 H 0.65852 0.56395 0.16158 0.0
H779 H 0.69649 0.5539 0.18401 0.0
H780 H 0.67648 0.58886 0.18176 0.0
H781 H 0.53184 0.49151 0.18972 0.0
H782 H 0.50918 0.49622 0.21729 0.0
H783 H 0.56895 0.48272 0.21276 0.0
C784 C 0.38936 0.46269 0.3399 0.0
C785 C 0.36081 0.4661 0.35867 0.0
C786 C 0.40166 0.48506 0.32654 0.0
C787 C 0.38554 0.5115 0.33236 0.0
C788 C 0.3562 0.51498 0.35127 0.0
C789 C 0.34382 0.49209 0.36418 0.0
C790 C 0.43259 0.48044 0.30642 0.0
C791 C 0.33922 0.54295 0.35817 0.0
C792 C 0.4633 0.56834 0.30882 0.0
C793 C 0.43612 0.57678 0.29055 0.0
C794 C 0.44599 0.54818 0.32331 0.0
C795 C 0.40109 0.53548 0.31899 0.0
C796 C 0.37286 0.54443 0.30091 0.0
C797 C 0.39048 0.56526 0.28712 0.0
C798 C 0.47675 0.53995 0.34277 0.0
C799 C 0.32511 0.53119 0.29552 0.0
H800 H 0.40228 0.44244 0.33576 0.0
H801 H 0.3219 0.49454 0.37883 0.0
H802 H 0.41473 0.48919 0.29162 0.0
H803 H 0.46767 0.49108 0.30841 0.0
H804 H 0.43972 0.45842 0.30351 0.0
H805 H 0.31577 0.54214 0.373 0.0
H806 H 0.37089 0.55609 0.36176 0.0
H807 H 0.31892 0.55286 0.34454 0.0
H808 H 0.49819 0.57756 0.31185 0.0
H809 H 0.36912 0.57177 0.27326 0.0
H810 H 0.49845 0.52173 0.33838 0.0
H811 H 0.45438 0.53464 0.35733 0.0
H812 H 0.50187 0.55658 0.34749 0.0
H813 H 0.33162 0.51022 0.28932 0.0
H814 H 0.3048 0.54279 0.28278 0.0
H815 H 0.30229 0.52935 0.31046 0.0
C816 C 0.14863 0.00428 0.86185 0.0
C817 C 0.18352 0.02161 0.85256 0.0
C818 C 0.12497 0.98459 0.84905 0.0
C819 C 0.1361 0.98238 0.82636 0.0
C820 C 0.17065 0.00016 0.8168 0.0
C821 C 0.19417 0.01946 0.83005 0.0
C822 C 0.08871 0.9658 0.85989 0.0
C823 C 0.18295 0.99867 0.7926 0.0
C824 C 0.10895 0.91501 0.79815 0.0
C825 C 0.06415 0.92046 0.78834 0.0
C826 C 0.133 0.93506 0.81041 0.0
C827 C 0.11189 0.96124 0.81274 0.0
C828 C 0.06708 0.967 0.80249 0.0
C829 C 0.04356 0.94646 0.79054 0.0
C830 C 0.1806 0.92804 0.82115 0.0
C831 C 0.04392 0.99483 0.80421 0.0
H832 H 0.14072 0.00564 0.87929 0.0
H833 H 0.22079 0.03301 0.82278 0.0
H834 H 0.05318 0.96768 0.8516 0.0
H835 H 0.10058 0.94426 0.85817 0.0
H836 H 0.08391 0.97027 0.87767 0.0
H837 H 0.20901 0.01476 0.78751 0.0
H838 H 0.19878 0.97842 0.78882 0.0
H839 H 0.14972 0.00079 0.78253 0.0
H840 H 0.12486 0.89489 0.79657 0.0
H841 H 0.00921 0.95087 0.78274 0.0
H842 H 0.1776 0.93041 0.83927 0.0
H843 H 0.20907 0.94231 0.81538 0.0
H844 H 0.1923 0.90682 0.81753 0.0
H845 H 0.03538 0.9993 0.82167 0.0
H846 H 0.01013 0.99637 0.79442 0.0
H847 H 0.06939 0.01082 0.7984 0.0
C848 C 0.21893 0.10308 0.01901 0.0
C849 C 0.20334 0.12066 0.00217 0.0
C850 C 0.20269 0.10618 0.04067 0.0
C851 C 0.16983 0.12742 0.04574 0.0
C852 C 0.15455 0.14564 0.02892 0.0
C853 C 0.17174 0.14212 0.00729 0.0
C854 C 0.22036 0.08639 0.05811 0.0
C855 C 0.11968 0.16852 0.03373 0.0
C856 C 0.10411 0.10698 0.09747 0.0
C857 C 0.13434 0.11825 0.11348 0.0
C858 C 0.11163 0.11253 0.07504 0.0
C859 C 0.15084 0.12937 0.06862 0.0
C860 C 0.17804 0.14313 0.08492 0.0
C861 C 0.16951 0.13731 0.10727 0.0
C862 C 0.08124 0.09775 0.05826 0.0
C863 C 0.21981 0.16147 0.07884 0.0
H864 H 0.24418 0.08685 0.01523 0.0
H865 H 0.15966 0.15577 0.99429 0.0
H866 H 0.23768 0.0977 0.07178 0.0
H867 H 0.18938 0.07491 0.06514 0.0
H868 H 0.24679 0.07146 0.05152 0.0
H869 H 0.11095 0.18075 0.01878 0.0
H870 H 0.08568 0.16008 0.04063 0.0
H871 H 0.13519 0.18229 0.04633 0.0
H872 H 0.07712 0.09209 0.10239 0.0
H873 H 0.1931 0.14579 0.11974 0.0
H874 H 0.10186 0.0801 0.05178 0.0
H875 H 0.07243 0.11134 0.04414 0.0
H876 H 0.04708 0.08997 0.06556 0.0
H877 H 0.25151 0.14869 0.07458 0.0
H878 H 0.23011 0.17502 0.09269 0.0
H879 H 0.21103 0.17426 0.06425 0.0
C880 C 0.33392 0.39068 0.51409 0.0
C881 C 0.33015 0.36443 0.50508 0.0
C882 C 0.34213 0.39438 0.53667 0.0
C883 C 0.34736 0.37128 0.55061 0.0
C884 C 0.34257 0.34473 0.54177 0.0
C885 C 0.33369 0.34162 0.51915 0.0
C886 C 0.34662 0.42307 0.5455 0.0
C887 C 0.34823 0.31961 0.55608 0.0
C888 C 0.41985 0.38517 0.60236 0.0
C889 C 0.38327 0.38853 0.61799 0.0
C890 C 0.40875 0.37813 0.58057 0.0
C891 C 0.3598 0.37513 0.57424 0.0
C892 C 0.32282 0.3778 0.5902 0.0
C893 C 0.33509 0.38426 0.612 0.0
C894 C 0.44929 0.37485 0.56417 0.0
C895 C 0.27024 0.37518 0.58402 0.0
H896 H 0.33208 0.40843 0.50338 0.0
H897 H 0.33011 0.32126 0.51242 0.0
H898 H 0.32172 0.42594 0.55961 0.0
H899 H 0.38385 0.42647 0.55164 0.0
H900 H 0.3385 0.43882 0.53279 0.0
H901 H 0.34162 0.30044 0.54685 0.0
H902 H 0.38532 0.31892 0.56297 0.0
H903 H 0.32289 0.32044 0.5702 0.0
H904 H 0.45711 0.38849 0.60714 0.0
H905 H 0.30694 0.38711 0.62418 0.0
H906 H 0.44766 0.39156 0.55178 0.0
H907 H 0.44539 0.35527 0.55521 0.0
H908 H 0.48534 0.37529 0.57218 0.0
H909 H 0.26007 0.39219 0.57278 0.0
H910 H 0.24618 0.37571 0.59865 0.0
H911 H 0.26387 0.35584 0.57505 0.0
C912 C 0.6603 0.39779 0.99411 0.0
C913 C 0.70252 0.38437 0.00106 0.0
C914 C 0.64176 0.39394 0.97277 0.0
C915 C 0.66584 0.37611 0.95814 0.0
C916 C 0.70886 0.36292 0.96497 0.0
C917 C 0.72672 0.3673 0.98624 0.0
C918 C 0.59593 0.40845 0.96608 0.0
C919 C 0.73578 0.34376 0.94988 0.0
C920 C 0.60739 0.3363 0.91227 0.0
C921 C 0.62721 0.34908 0.89365 0.0
C922 C 0.61596 0.34647 0.93344 0.0
C923 C 0.64552 0.36983 0.93603 0.0
C924 C 0.6619 0.38425 0.91714 0.0
C925 C 0.65243 0.37369 0.89608 0.0
C926 C 0.59699 0.33073 0.95307 0.0
C927 C 0.69297 0.40943 0.91919 0.0
H928 H 0.64118 0.41089 0.00549 0.0
H929 H 0.75996 0.35738 0.99124 0.0
H930 H 0.6007 0.41878 0.94992 0.0
H931 H 0.56642 0.39333 0.96418 0.0
H932 H 0.58458 0.42386 0.97841 0.0
H933 H 0.76929 0.33562 0.95753 0.0
H934 H 0.71226 0.32627 0.94546 0.0
H935 H 0.74555 0.35448 0.93437 0.0
H936 H 0.58735 0.31743 0.91032 0.0
H937 H 0.66775 0.38359 0.88167 0.0
H938 H 0.58192 0.34481 0.96555 0.0
H939 H 0.62712 0.31934 0.96092 0.0
H940 H 0.5686 0.31585 0.94832 0.0
H941 H 0.67854 0.42328 0.93201 0.0
H942 H 0.69556 0.42085 0.90337 0.0
H943 H 0.72991 0.40334 0.9243 0.0
C944 C 0.81214 0.14293 0.48853 0.0
C945 C 0.84398 0.12949 0.50286 0.0
C946 C 0.82173 0.14462 0.46591 0.0
C947 C 0.86419 0.13251 0.45737 0.0
C948 C 0.89516 0.1176 0.47154 0.0
C949 C 0.88476 0.11634 0.49417 0.0
C950 C 0.7875 0.16054 0.45132 0.0
C951 C 0.94062 0.10426 0.4631 0.0
C952 C 0.86291 0.1307 0.39501 0.0
C953 C 0.88343 0.15617 0.39011 0.0
C954 C 0.85978 0.12142 0.41692 0.0
C955 C 0.87785 0.13804 0.43408 0.0
C956 C 0.90278 0.16249 0.42887 0.0
C957 C 0.90492 0.17137 0.40693 0.0
C958 C 0.83368 0.09502 0.42181 0.0
C959 C 0.92366 0.18048 0.44661 0.0
H960 H 0.78016 0.15271 0.49511 0.0
H961 H 0.90977 0.10609 0.50518 0.0
H962 H 0.80595 0.17904 0.44485 0.0
H963 H 0.7766 0.14803 0.43698 0.0
H964 H 0.75446 0.16705 0.46024 0.0
H965 H 0.95526 0.0891 0.47505 0.0
H966 H 0.93399 0.09392 0.44718 0.0
H967 H 0.96851 0.12015 0.46023 0.0
H968 H 0.84637 0.11896 0.38193 0.0
H969 H 0.92128 0.19093 0.403 0.0
H970 H 0.79712 0.09965 0.42826 0.0
H971 H 0.85299 0.08304 0.43463 0.0
H972 H 0.82971 0.08225 0.40685 0.0
H973 H 0.89386 0.19038 0.45581 0.0
H974 H 0.94736 0.19672 0.4397 0.0
H975 H 0.94482 0.16814 0.45856 0.0
C976 C 0.88543 0.85788 0.9964 0.0
C977 C 0.84148 0.86643 0.00559 0.0
C978 C 0.89335 0.85916 0.97359 0.0
C979 C 0.85653 0.86938 0.95967 0.0
C980 C 0.81134 0.87688 0.96875 0.0
C981 C 0.80435 0.87529 0.9916 0.0
C982 C 0.94179 0.85066 0.96453 0.0
C983 C 0.77107 0.88783 0.95444 0.0
C984 C 0.88406 0.90847 0.90734 0.0
C985 C 0.86912 0.89002 0.89118 0.0
C986 C 0.88311 0.9013 0.92968 0.0
C987 C 0.86642 0.87507 0.93601 0.0
C988 C 0.85457 0.85565 0.91965 0.0
C989 C 0.85617 0.86337 0.89731 0.0
C990 C 0.89689 0.92247 0.94656 0.0
C991 C 0.83714 0.82739 0.92574 0.0
H992 H 0.91394 0.85049 0.00712 0.0
H993 H 0.7704 0.88202 0.99861 0.0
H994 H 0.93715 0.83739 0.94992 0.0
H995 H 0.96204 0.86906 0.95909 0.0
H996 H 0.96387 0.83959 0.97698 0.0
H997 H 0.73705 0.89084 0.96381 0.0
H998 H 0.78202 0.90773 0.94715 0.0
H999 H 0.76387 0.87365 0.94063 0.0
H1000 H 0.89453 0.929 0.90249 0.0
H1001 H 0.84451 0.84914 0.88476 0.0
H1002 H 0.92258 0.91373 0.9587 0.0
H1003 H 0.86422 0.92896 0.95573 0.0
H1004 H 0.9136 0.94085 0.9389 0.0
H1005 H 0.85996 0.81837 0.93892 0.0
H1006 H 0.83712 0.81346 0.91136 0.0
H1007 H 0.79976 0.8287 0.93223 0.0
C1008 C 0.65287 0.64312 0.49687 0.0
C1009 C 0.69667 0.62958 0.50092 0.0
C1010 C 0.63189 0.64302 0.47576 0.0
C1011 C 0.65484 0.62856 0.45854 0.0
C1012 C 0.6996 0.61544 0.4625 0.0
C1013 C 0.71995 0.6162 0.48357 0.0
C1014 C 0.58471 0.65776 0.47207 0.0
C1015 C 0.72527 0.59969 0.44465 0.0
C1016 C 0.58976 0.5953 0.41107 0.0
C1017 C 0.6066 0.61082 0.39316 0.0
C1018 C 0.6021 0.60212 0.43275 0.0
C1019 C 0.63141 0.62528 0.43667 0.0
C1020 C 0.64465 0.64251 0.41888 0.0
C1021 C 0.63252 0.63494 0.39729 0.0
C1022 C 0.58694 0.58327 0.45127 0.0
C1023 C 0.67466 0.66784 0.42244 0.0
H1024 H 0.63495 0.65366 0.51023 0.0
H1025 H 0.75342 0.60536 0.48667 0.0
H1026 H 0.58598 0.66993 0.4566 0.0
H1027 H 0.55517 0.64263 0.47034 0.0
H1028 H 0.5757 0.67156 0.48594 0.0
H1029 H 0.76034 0.59118 0.45032 0.0
H1030 H 0.70215 0.58257 0.43903 0.0
H1031 H 0.73205 0.61313 0.43021 0.0
H1032 H 0.56842 0.57712 0.4081 0.0
H1033 H 0.64576 0.64716 0.38364 0.0
H1034 H 0.57187 0.59512 0.46518 0.0
H1035 H 0.619 0.57207 0.45753 0.0
H1036 H 0.5596 0.5681 0.44589 0.0
H1037 H 0.66178 0.67925 0.43704 0.0
H1038 H 0.67385 0.68167 0.40787 0.0
H1039 H 0.7127 0.66189 0.42557 0.0
C1040 C 0.3001 0.62333 0.01722 0.0
C1041 C 0.33971 0.622 0.00288 0.0
C1042 C 0.30663 0.62715 0.03991 0.0
C1043 C 0.35395 0.62938 0.04855 0.0
C1044 C 0.39411 0.62578 0.03446 0.0
C1045 C 0.38655 0.62241 0.01177 0.0
C1046 C 0.26279 0.63059 0.0544 0.0
C1047 C 0.44514 0.62713 0.04312 0.0
C1048 C 0.3649 0.67799 0.09656 0.0
C1049 C 0.36215 0.66029 0.11479 0.0
C1050 C 0.3636 0.66804 0.07499 0.0
C1051 C 0.36097 0.63953 0.0714 0.0
C1052 C 0.36172 0.62136 0.08963 0.0
C1053 C 0.36169 0.63195 0.11113 0.0
C1054 C 0.36301 0.68819 0.05604 0.0
C1055 C 0.36062 0.59079 0.0865 0.0
H1056 H 0.26381 0.62223 0.01062 0.0
H1057 H 0.41753 0.62146 0.00091 0.0
H1058 H 0.26531 0.617 0.06903 0.0
H1059 H 0.26118 0.65194 0.06044 0.0
H1060 H 0.22867 0.62603 0.04554 0.0
H1061 H 0.47167 0.61918 0.03103 0.0
H1062 H 0.45456 0.64865 0.04681 0.0
H1063 H 0.44855 0.61527 0.05867 0.0
H1064 H 0.36705 0.69985 0.09912 0.0
H1065 H 0.35961 0.618 0.12502 0.0
H1066 H 0.32883 0.68606 0.04666 0.0
H1067 H 0.3931 0.68386 0.04453 0.0
H1068 H 0.36621 0.70969 0.06163 0.0
H1069 H 0.32327 0.58429 0.08256 0.0
H1070 H 0.37237 0.57971 0.1016 0.0
H1071 H 0.3841 0.5846 0.07259 0.0
C1072 C 0.20093 0.85147 0.516 0.0
C1073 C 0.19233 0.87544 0.50387 0.0
C1074 C 0.18429 0.84857 0.5377 0.0
C1075 C 0.15809 0.87013 0.5476 0.0
C1076 C 0.14772 0.89402 0.53522 0.0
C1077 C 0.16506 0.89642 0.5135 0.0
C1078 C 0.19583 0.82262 0.55022 0.0
C1079 C 0.11969 0.91738 0.5451 0.0
C1080 C 0.0936 0.84551 0.59904 0.0
C1081 C 0.1283 0.85102 0.61517 0.0
C1082 C 0.10063 0.85393 0.5771 0.0
C1083 C 0.14382 0.86767 0.57122 0.0
C1084 C 0.17704 0.87515 0.58789 0.0
C1085 C 0.16887 0.86667 0.60972 0.0
C1086 C 0.06379 0.84606 0.55997 0.0
C1087 C 0.22337 0.88993 0.5824 0.0
H1088 H 0.22118 0.83498 0.50855 0.0
H1089 H 0.15858 0.91511 0.50431 0.0
H1090 H 0.21834 0.82744 0.56481 0.0
H1091 H 0.16208 0.813 0.55631 0.0
H1092 H 0.21548 0.80754 0.53996 0.0
H1093 H 0.10904 0.93278 0.53249 0.0
H1094 H 0.08671 0.90974 0.55347 0.0
H1095 H 0.14215 0.92765 0.55771 0.0
H1096 H 0.06244 0.83316 0.60332 0.0
H1097 H 0.19588 0.87061 0.62224 0.0
H1098 H 0.07761 0.82852 0.55034 0.0
H1099 H 0.05738 0.86317 0.54827 0.0
H1100 H 0.02883 0.84004 0.56754 0.0
H1101 H 0.24812 0.87579 0.57371 0.0
H1102 H 0.24194 0.89753 0.59738 0.0
H1103 H 0.21628 0.90746 0.57121 0.0
C1104 C 0.16621 0.26524 0.367 0.0
C1105 C 0.18365 0.28904 0.35675 0.0
C1106 C 0.13948 0.24589 0.35512 0.0
C1107 C 0.13036 0.2504 0.33245 0.0
C1108 C 0.14575 0.27499 0.3223 0.0
C1109 C 0.17197 0.29407 0.33461 0.0
C1110 C 0.12311 0.22003 0.36656 0.0
C1111 C 0.13648 0.2806 0.29818 0.0
C1112 C 0.11649 0.18921 0.29493 0.0
C1113 C 0.06681 0.18941 0.29064 0.0
C1114 C 0.13754 0.20881 0.30866 0.0
C1115 C 0.10794 0.22863 0.3189 0.0
C1116 C 0.05743 0.22816 0.31548 0.0
C1117 C 0.03751 0.20869 0.30126 0.0
C1118 C 0.19166 0.20877 0.3117 0.0
C1119 C 0.02454 0.24853 0.32651 0.0
H1120 H 0.17533 0.26108 0.38405 0.0
H1121 H 0.18445 0.31269 0.32671 0.0
H1122 H 0.08446 0.21602 0.36303 0.0
H1123 H 0.14402 0.20243 0.3602 0.0
H1124 H 0.12817 0.22102 0.38469 0.0
H1125 H 0.14824 0.30141 0.29313 0.0
H1126 H 0.15614 0.26543 0.28805 0.0
H1127 H 0.09749 0.27838 0.29443 0.0
H1128 H 0.13921 0.17398 0.28736 0.0
H1129 H 0.99889 0.20872 0.29837 0.0
H1130 H 0.20094 0.20875 0.32947 0.0
H1131 H 0.20713 0.22763 0.30432 0.0
H1132 H 0.20909 0.19084 0.30387 0.0
H1133 H 0.03093 0.24854 0.34455 0.0
H1134 H 0.98578 0.24409 0.32346 0.0
H1135 H 0.0326 0.2694 0.32032 0.0
C1136 C 0.39554 0.21493 0.86679 0.0
C1137 C 0.35892 0.19747 0.85931 0.0
C1138 C 0.41271 0.23643 0.85357 0.0
C1139 C 0.39282 0.24058 0.83234 0.0
C1140 C 0.35541 0.2233 0.82479 0.0
C1141 C 0.33883 0.20198 0.83839 0.0
C1142 C 0.45249 0.25455 0.86223 0.0
C1143 C 0.33355 0.22704 0.80219 0.0
C1144 C 0.41059 0.30963 0.80464 0.0
C1145 C 0.45093 0.30462 0.79136 0.0
C1146 C 0.39118 0.28897 0.81807 0.0
C1147 C 0.41213 0.26258 0.81784 0.0
C1148 C 0.45226 0.2573 0.80405 0.0
C1149 C 0.47155 0.27851 0.79115 0.0
C1150 C 0.34876 0.29549 0.83272 0.0
C1151 C 0.47481 0.22926 0.80291 0.0
H1152 H 0.41077 0.2118 0.88305 0.0
H1153 H 0.31096 0.18837 0.83239 0.0
H1154 H 0.48485 0.25286 0.85156 0.0
H1155 H 0.4408 0.27623 0.8618 0.0
H1156 H 0.46299 0.24915 0.87937 0.0
H1157 H 0.30448 0.212 0.79883 0.0
H1158 H 0.31834 0.2479 0.80056 0.0
H1159 H 0.36192 0.22494 0.78941 0.0
H1160 H 0.39464 0.32986 0.80479 0.0
H1161 H 0.50233 0.27452 0.78062 0.0
H1162 H 0.35856 0.29171 0.8502 0.0
H1163 H 0.31795 0.2819 0.82879 0.0
H1164 H 0.33673 0.31705 0.83093 0.0
H1165 H 0.48936 0.2234 0.81929 0.0
H1166 H 0.50455 0.22828 0.79067 0.0
H1167 H 0.44705 0.2139 0.79848 0.0
C1168 C 0.70204 0.24167 0.647 0.0
C1169 C 0.68964 0.21409 0.64459 0.0
C1170 C 0.67295 0.25946 0.65914 0.0
C1171 C 0.63024 0.24944 0.6691 0.0
C1172 C 0.61595 0.22199 0.66564 0.0
C1173 C 0.64593 0.20456 0.65338 0.0
C1174 C 0.68936 0.28862 0.66229 0.0
C1175 C 0.57024 0.21071 0.67572 0.0
C1176 C 0.59477 0.28609 0.72146 0.0
C1177 C 0.56272 0.30602 0.71349 0.0
C1178 C 0.61629 0.26721 0.70724 0.0
C1179 C 0.60343 0.26719 0.68467 0.0
C1180 C 0.56827 0.2858 0.67683 0.0
C1181 C 0.549 0.30532 0.69122 0.0
C1182 C 0.65422 0.24797 0.71622 0.0
C1183 C 0.55204 0.28567 0.65309 0.0
H1184 H 0.73546 0.24914 0.63987 0.0
H1185 H 0.6363 0.18323 0.65152 0.0
H1186 H 0.66016 0.30302 0.65761 0.0
H1187 H 0.69772 0.2921 0.67993 0.0
H1188 H 0.72197 0.29358 0.6524 0.0
H1189 H 0.56068 0.1904 0.66891 0.0
H1190 H 0.57498 0.20854 0.69378 0.0
H1191 H 0.53964 0.22495 0.67292 0.0
H1192 H 0.60369 0.28536 0.7388 0.0
H1193 H 0.52335 0.32013 0.6849 0.0
H1194 H 0.68915 0.25178 0.70779 0.0
H1195 H 0.6439 0.22649 0.71291 0.0
H1196 H 0.65971 0.25037 0.73423 0.0
H1197 H 0.58133 0.29377 0.64245 0.0
H1198 H 0.51928 0.29838 0.65046 0.0
H1199 H 0.54427 0.26451 0.64766 0.0
C1200 C 0.82274 0.28746 0.15868 0.0
C1201 C 0.85357 0.29864 0.14261 0.0
C1202 C 0.83759 0.26546 0.17203 0.0
C1203 C 0.8847 0.25469 0.16956 0.0
C1204 C 0.91552 0.26538 0.15304 0.0
C1205 C 0.89941 0.28696 0.13964 0.0
C1206 C 0.80337 0.25426 0.1892 0.0
C1207 C 0.96617 0.25459 0.14998 0.0
C1208 C 0.94474 0.22097 0.2189 0.0
C1209 C 0.94374 0.19342 0.21292 0.0
C1210 C 0.92538 0.24112 0.20497 0.0
C1211 C 0.90296 0.23333 0.18498 0.0
C1212 C 0.90016 0.20532 0.17936 0.0
C1213 C 0.92145 0.18569 0.19324 0.0
C1214 C 0.93031 0.27078 0.2113 0.0
C1215 C 0.87507 0.19612 0.15862 0.0
H1216 H 0.78745 0.2964 0.16132 0.0
H1217 H 0.92312 0.29492 0.12694 0.0
H1218 H 0.80137 0.23166 0.18811 0.0
H1219 H 0.81694 0.25928 0.20588 0.0
H1220 H 0.76639 0.26278 0.18742 0.0
H1221 H 0.98538 0.26485 0.13617 0.0
H1222 H 0.98729 0.25764 0.16531 0.0
H1223 H 0.96525 0.23231 0.14677 0.0
H1224 H 0.9623 0.22683 0.23413 0.0
H1225 H 0.92022 0.16424 0.18886 0.0
H1226 H 0.89424 0.28056 0.21202 0.0
H1227 H 0.9516 0.28184 0.19859 0.0
H1228 H 0.94837 0.27336 0.22749 0.0
H1229 H 0.83803 0.20471 0.15791 0.0
H1230 H 0.87273 0.17351 0.15753 0.0
H1231 H 0.89482 0.20389 0.14398 0.0
C1232 C 0.86389 0.69744 0.66754 0.0
C1233 C 0.84943 0.70178 0.64566 0.0
C1234 C 0.87954 0.71919 0.68065 0.0
C1235 C 0.88093 0.74592 0.67165 0.0
C1236 C 0.86599 0.75051 0.64965 0.0
C1237 C 0.85026 0.72837 0.63692 0.0
C1238 C 0.8949 0.71354 0.70411 0.0
C1239 C 0.86737 0.77872 0.63947 0.0
C1240 C 0.88476 0.80453 0.71229 0.0
C1241 C 0.93448 0.80921 0.71402 0.0
C1242 C 0.86662 0.78424 0.69831 0.0
C1243 C 0.89899 0.7689 0.68524 0.0
C1244 C 0.94903 0.77465 0.68596 0.0
C1245 C 0.9662 0.79452 0.70051 0.0
C1246 C 0.81306 0.7785 0.69825 0.0
C1247 C 0.98465 0.7593 0.67183 0.0
H1248 H 0.86268 0.67699 0.67446 0.0
H1249 H 0.83959 0.73176 0.61994 0.0
H1250 H 0.93339 0.71918 0.70631 0.0
H1251 H 0.87348 0.72625 0.71561 0.0
H1252 H 0.89036 0.69171 0.7088 0.0
H1253 H 0.85368 0.77893 0.62228 0.0
H1254 H 0.84535 0.79304 0.64939 0.0
H1255 H 0.90496 0.78656 0.6395 0.0
H1256 H 0.85998 0.81613 0.72225 0.0
H1257 H 0.00469 0.7984 0.70141 0.0
H1258 H 0.80628 0.75829 0.70603 0.0
H1259 H 0.79914 0.77757 0.68114 0.0
H1260 H 0.79232 0.79418 0.7074 0.0
H1261 H 0.98609 0.7376 0.67717 0.0
H1262 H 0.02164 0.76801 0.67284 0.0
H1263 H 0.9729 0.75962 0.65436 0.0
C1264 C 0.62849 0.78763 0.14692 0.0
C1265 C 0.67896 0.78549 0.14662 0.0
C1266 C 0.60042 0.76933 0.15945 0.0
C1267 C 0.62355 0.74874 0.17209 0.0
C1268 C 0.67449 0.74669 0.17193 0.0
C1269 C 0.70151 0.76504 0.15918 0.0
C1270 C 0.54613 0.772 0.1592 0.0
C1271 C 0.70056 0.72541 0.18556 0.0
C1272 C 0.56243 0.71567 0.22129 0.0
C1273 C 0.55124 0.68974 0.21308 0.0
C1274 C 0.58464 0.73545 0.20795 0.0
C1275 C 0.59495 0.7293 0.1857 0.0
C1276 C 0.58136 0.70366 0.17698 0.0
C1277 C 0.55979 0.68411 0.19082 0.0
C1278 C 0.59892 0.76243 0.21798 0.0
C1279 C 0.59134 0.69647 0.15327 0.0
H1280 H 0.611 0.80341 0.1372 0.0
H1281 H 0.74058 0.76371 0.15936 0.0
H1282 H 0.52958 0.75263 0.15353 0.0
H1283 H 0.53267 0.77577 0.17612 0.0
H1284 H 0.53369 0.78889 0.1483 0.0
H1285 H 0.74029 0.72603 0.18311 0.0
H1286 H 0.69282 0.72877 0.20324 0.0
H1287 H 0.68738 0.70466 0.18139 0.0
H1288 H 0.55443 0.72042 0.23829 0.0
H1289 H 0.55082 0.66416 0.18431 0.0
H1290 H 0.58788 0.77968 0.20718 0.0
H1291 H 0.63878 0.76328 0.21967 0.0
H1292 H 0.58268 0.76538 0.23453 0.0
H1293 H 0.57732 0.71269 0.14216 0.0
H1294 H 0.5748 0.67666 0.14856 0.0
H1295 H 0.63089 0.69515 0.15059 0.0
C1296 C 0.39804 0.79643 0.35292 0.0
C1297 C 0.34942 0.79969 0.35892 0.0
C1298 C 0.41263 0.77519 0.339 0.0
C1299 C 0.37788 0.75651 0.33101 0.0
C1300 C 0.32889 0.75936 0.33723 0.0
C1301 C 0.3152 0.78096 0.35104 0.0
C1302 C 0.46529 0.77277 0.33282 0.0
C1303 C 0.29092 0.73965 0.32918 0.0
C1304 C 0.41169 0.71643 0.27977 0.0
C1305 C 0.42834 0.69186 0.28897 0.0
C1306 C 0.39422 0.7375 0.29323 0.0
C1307 C 0.39318 0.73379 0.31639 0.0
C1308 C 0.40877 0.70874 0.32569 0.0
C1309 C 0.42627 0.68814 0.31189 0.0
C1310 C 0.37817 0.76401 0.28273 0.0
C1311 C 0.40799 0.70388 0.35028 0.0
H1312 H 0.42491 0.81044 0.35923 0.0
H1313 H 0.27751 0.78346 0.35535 0.0
H1314 H 0.47966 0.75272 0.33838 0.0
H1315 H 0.46932 0.77366 0.31465 0.0
H1316 H 0.48767 0.78919 0.34018 0.0
H1317 H 0.25447 0.74448 0.33572 0.0
H1318 H 0.28942 0.74009 0.31093 0.0
H1319 H 0.3005 0.7185 0.33419 0.0
H1320 H 0.41343 0.71948 0.26209 0.0
H1321 H 0.43875 0.66912 0.31914 0.0
H1322 H 0.40192 0.78088 0.28829 0.0
H1323 H 0.3409 0.76905 0.28801 0.0
H1324 H 0.37917 0.76321 0.26446 0.0
H1325 H 0.43284 0.71839 0.3585 0.0
H1326 H 0.41899 0.68274 0.35478 0.0
H1327 H 0.37128 0.70767 0.35688 0.0
C1328 C 0.20477 0.723 0.83994 0.0
C1329 C 0.18371 0.70891 0.85766 0.0
C1330 C 0.17766 0.74099 0.82685 0.0
C1331 C 0.12824 0.74516 0.83169 0.0
C1332 C 0.1064 0.73054 0.84927 0.0
C1333 C 0.13441 0.71241 0.86201 0.0
C1334 C 0.20214 0.75588 0.80806 0.0
C1335 C 0.05376 0.73444 0.85484 0.0
C1336 C 0.07566 0.81272 0.81212 0.0
C1337 C 0.05446 0.8052 0.79215 0.0
C1338 C 0.09921 0.79325 0.82534 0.0
C1339 C 0.10021 0.76555 0.81868 0.0
C1340 C 0.07721 0.75777 0.79885 0.0
C1341 C 0.05527 0.77781 0.78562 0.0
C1342 C 0.12428 0.80246 0.84609 0.0
C1343 C 0.07653 0.72839 0.79142 0.0
H1344 H 0.24269 0.7199 0.83629 0.0
H1345 H 0.11809 0.7015 0.8757 0.0
H1346 H 0.18289 0.75184 0.79239 0.0
H1347 H 0.20073 0.77824 0.8109 0.0
H1348 H 0.2405 0.74972 0.8061 0.0
H1349 H 0.04161 0.7205 0.86824 0.0
H1350 H 0.04749 0.75583 0.86009 0.0
H1351 H 0.03108 0.73089 0.84007 0.0
H1352 H 0.07518 0.83399 0.81701 0.0
H1353 H 0.03828 0.77205 0.77024 0.0
H1354 H 0.16361 0.79846 0.84475 0.0
H1355 H 0.11077 0.79063 0.86045 0.0
H1356 H 0.11887 0.82458 0.84929 0.0
H1357 H 0.11377 0.72167 0.78748 0.0
H1358 H 0.05353 0.72541 0.77664 0.0
H1359 H 0.06301 0.71496 0.80485 0.0
loop_
_geom_bond_atom_site_label_1
_geom_bond_atom_site_label_2
_geom_bond_distance
_geom_bond_site_symmetry_2
_ccdc_geom_bond_type
P0 O11 1.490 . S
P0 C14 1.812 . S
P0 C20 1.803 . S
P0 C26 1.819 . S
H1 C15 0.941 . S
H2 C16 0.939 . S
H3 C18 0.940 . S
H4 C19 0.940 . S
H5 C21 0.939 . S
H6 C22 0.942 . S
H7 C24 0.940 . S
H8 C25 0.939 . S
H9 C27 0.941 . S
H10 C31 0.939 . S
O11 P0 1.490 . S
H12 C28 0.939 . S
H13 C30 0.940 . S
C14 P0 1.812 . S
C14 C15 1.389 . S
C14 C19 1.391 . S
C15 H1 0.941 . S
C15 C14 1.389 . S
C15 C16 1.397 . S
C16 H2 0.939 . S
C16 C15 1.397 . S
C16 C17 1.378 . S
C17 C16 1.378 . S
C17 C18 1.378 . S
C18 H3 0.940 . S
C18 C17 1.378 . S
C18 C19 1.396 . S
C19 H4 0.940 . S
C19 C14 1.391 . S
C19 C18 1.396 . S
C20 P0 1.803 . S
C20 C21 1.378 . S
C20 C25 1.400 . S
C21 H5 0.939 . S
C21 C20 1.378 . S
C21 C22 1.361 . S
C22 H6 0.942 . S
C22 C21 1.361 . S
C22 C23 1.369 . S
C23 C22 1.369 . S
C23 C24 1.404 . S
C24 H7 0.940 . S
C24 C23 1.404 . S
C24 C25 1.389 . S
C25 H8 0.939 . S
C25 C20 1.400 . S
C25 C24 1.389 . S
C26 P0 1.819 . S
C26 C27 1.391 . S
C26 C31 1.391 . S
C27 H9 0.941 . S
C27 C26 1.391 . S
C27 C28 1.396 . S
C28 H12 0.939 . S
C28 C27 1.396 . S
C28 C29 1.397 . S
C29 C28 1.397 . S
C29 C30 1.385 . S
C30 H13 0.940 . S
C30 C29 1.385 . S
C30 C31 1.388 . S
C31 H10 0.939 . S
C31 C26 1.391 . S
C31 C30 1.388 . S
P32 O43 1.490 . S
P32 C46 1.812 . S
P32 C52 1.803 . S
P32 C58 1.819 . S
H33 C47 0.941 . S
H34 C48 0.939 . S
H35 C50 0.940 . S
H36 C51 0.940 . S
H37 C53 0.939 . S
H38 C54 0.942 . S
H39 C56 0.940 . S
H40 C57 0.939 . S
H41 C59 0.941 . S
H42 C63 0.939 . S
O43 P32 1.490 . S
H44 C60 0.939 . S
H45 C62 0.940 . S
C46 P32 1.812 . S
C46 C47 1.389 . S
C46 C51 1.391 . S
C47 H33 0.941 . S
C47 C46 1.389 . S
C47 C48 1.397 . S
C48 H34 0.939 . S
C48 C47 1.397 . S
C48 C49 1.378 . S
C49 C48 1.378 . S
C49 C50 1.378 . S
C50 H35 0.940 . S
C50 C49 1.378 . S
C50 C51 1.396 . S
C51 H36 0.940 . S
C51 C46 1.391 . S
C51 C50 1.396 . S
C52 P32 1.803 . S
C52 C53 1.378 . S
C52 C57 1.400 . S
C53 H37 0.939 . S
C53 C52 1.378 . S
C53 C54 1.361 . S
C54 H38 0.942 . S
C54 C53 1.361 . S
C54 C55 1.369 . S
C55 C54 1.369 . S
C55 C56 1.404 . S
C56 H39 0.940 . S
C56 C55 1.404 . S
C56 C57 1.389 . S
C57 H40 0.939 . S
C57 C52 1.400 . S
C57 C56 1.389 . S
C58 P32 1.819 . S
C58 C59 1.391 . S
C58 C63 1.391 . S
C59 H41 0.941 . S
C59 C58 1.391 . S
C59 C60 1.396 . S
C60 H44 0.939 . S
C60 C59 1.396 . S
C60 C61 1.397 . S
C61 C60 1.397 . S
C61 C62 1.385 . S
C62 H45 0.940 . S
C62 C61 1.385 . S
C62 C63 1.388 . S
C63 H42 0.939 . S
C63 C58 1.391 . S
C63 C62 1.388 . S
P64 O75 1.490 . S
P64 C78 1.812 . S
P64 C84 1.803 . S
P64 C90 1.819 . S
H65 C79 0.941 . S
H66 C80 0.939 . S
H67 C82 0.940 . S
H68 C83 0.940 . S
H69 C85 0.939 . S
H70 C86 0.942 . S
H71 C88 0.940 . S
H72 C89 0.939 . S
H73 C91 0.941 . S
H74 C95 0.939 . S
O75 P64 1.490 . S
H76 C92 0.939 . S
H77 C94 0.940 . S
C78 P64 1.812 . S
C78 C79 1.389 . S
C78 C83 1.391 . S
C79 H65 0.941 . S
C79 C78 1.389 . S
C79 C80 1.397 . S
C80 H66 0.939 . S
C80 C79 1.397 . S
C80 C81 1.378 . S
C81 C80 1.378 . S
C81 C82 1.378 . S
C82 H67 0.940 . S
C82 C81 1.378 . S
C82 C83 1.396 . S
C83 H68 0.940 . S
C83 C78 1.391 . S
C83 C82 1.396 . S
C84 P64 1.803 . S
C84 C85 1.378 . S
C84 C89 1.400 . S
C85 H69 0.939 . S
C85 C84 1.378 . S
C85 C86 1.361 . S
C86 H70 0.942 . S
C86 C85 1.361 . S
C86 C87 1.369 . S
C87 C86 1.369 . S
C87 C88 1.404 . S
C88 H71 0.940 . S
C88 C87 1.404 . S
C88 C89 1.389 . S
C89 H72 0.939 . S
C89 C84 1.400 . S
C89 C88 1.389 . S
C90 P64 1.819 . S
C90 C91 1.391 . S
C90 C95 1.391 . S
C91 H73 0.941 . S
C91 C90 1.391 . S
C91 C92 1.396 . S
C92 H76 0.939 . S
C92 C91 1.396 . S
C92 C93 1.397 . S
C93 C92 1.397 . S
C93 C94 1.385 . S
C94 H77 0.940 . S
C94 C93 1.385 . S
C94 C95 1.388 . S
C95 H74 0.939 . S
C95 C90 1.391 . S
C95 C94 1.388 . S
P96 O107 1.490 . S
P96 C110 1.812 . S
P96 C116 1.803 . S
P96 C122 1.819 . S
H97 C111 0.941 . S
H98 C112 0.939 . S
H99 C114 0.940 . S
H100 C115 0.940 . S
H101 C117 0.939 . S
H102 C118 0.942 . S
H103 C120 0.940 . S
H104 C121 0.939 . S
H105 C123 0.941 . S
H106 C127 0.939 . S
O107 P96 1.490 . S
H108 C124 0.939 . S
H109 C126 0.940 . S
C110 P96 1.812 . S
C110 C111 1.389 . S
C110 C115 1.391 . S
C111 H97 0.941 . S
C111 C110 1.389 . S
C111 C112 1.397 . S
C112 H98 0.939 . S
C112 C111 1.397 . S
C112 C113 1.378 . S
C113 C112 1.378 . S
C113 C114 1.378 . S
C114 H99 0.940 . S
C114 C113 1.378 . S
C114 C115 1.396 . S
C115 H100 0.940 . S
C115 C110 1.391 . S
C115 C114 1.396 . S
C116 P96 1.803 . S
C116 C117 1.378 . S
C116 C121 1.400 . S
C117 H101 0.939 . S
C117 C116 1.378 . S
C117 C118 1.361 . S
C118 H102 0.942 . S
C118 C117 1.361 . S
C118 C119 1.369 . S
C119 C118 1.369 . S
C119 C120 1.404 . S
C120 H103 0.940 . S
C120 C119 1.404 . S
C120 C121 1.389 . S
C121 H104 0.939 . S
C121 C116 1.400 . S
C121 C120 1.389 . S
C122 P96 1.819 . S
C122 C123 1.391 . S
C122 C127 1.391 . S
C123 H105 0.941 . S
C123 C122 1.391 . S
C123 C124 1.396 . S
C124 H108 0.939 . S
C124 C123 1.396 . S
C124 C125 1.397 . S
C125 C124 1.397 . S
C125 C126 1.385 . S
C126 H109 0.940 . S
C126 C125 1.385 . S
C126 C127 1.388 . S
C127 H106 0.939 . S
C127 C122 1.391 . S
C127 C126 1.388 . S
P128 O139 1.490 . S
P128 C142 1.812 . S
P128 C148 1.803 . S
P128 C154 1.819 . S
H129 C143 0.941 . S
H130 C144 0.939 . S
H131 C146 0.940 . S
H132 C147 0.940 . S
H133 C149 0.939 . S
H134 C150 0.942 . S
H135 C152 0.940 . S
H136 C153 0.939 . S
H137 C155 0.941 . S
H138 C159 0.939 . S
O139 P128 1.490 . S
H140 C156 0.939 . S
H141 C158 0.940 . S
C142 P128 1.812 . S
C142 C143 1.389 . S
C142 C147 1.391 . S
C143 H129 0.941 . S
C143 C142 1.389 . S
C143 C144 1.397 . S
C144 H130 0.939 . S
C144 C143 1.397 . S
C144 C145 1.378 . S
C145 C144 1.378 . S
C145 C146 1.378 . S
C146 H131 0.940 . S
C146 C145 1.378 . S
C146 C147 1.396 . S
C147 H132 0.940 . S
C147 C142 1.391 . S
C147 C146 1.396 . S
C148 P128 1.803 . S
C148 C149 1.378 . S
C148 C153 1.400 . S
C149 H133 0.939 . S
C149 C148 1.378 . S
C149 C150 1.361 . S
C150 H134 0.942 . S
C150 C149 1.361 . S
C150 C151 1.369 . S
C151 C150 1.369 . S
C151 C152 1.404 . S
C152 H135 0.940 . S
C152 C151 1.404 . S
C152 C153 1.389 . S
C153 H136 0.939 . S
C153 C148 1.400 . S
C153 C152 1.389 . S
C154 P128 1.819 . S
C154 C155 1.391 . S
C154 C159 1.391 . S
C155 H137 0.941 . S
C155 C154 1.391 . S
C155 C156 1.396 . S
C156 H140 0.939 . S
C156 C155 1.396 . S
C156 C157 1.397 . S
C157 C156 1.397 . S
C157 C158 1.385 . S
C158 H141 0.940 . S
C158 C157 1.385 . S
C158 C159 1.388 . S
C159 H138 0.939 . S
C159 C154 1.391 . S
C159 C158 1.388 . S
P160 O171 1.490 . S
P160 C174 1.812 . S
P160 C180 1.803 . S
P160 C186 1.819 . S
H161 C175 0.941 . S
H162 C176 0.939 . S
H163 C178 0.940 . S
H164 C179 0.940 . S
H165 C181 0.939 . S
H166 C182 0.942 . S
H167 C184 0.940 . S
H168 C185 0.939 . S
H169 C187 0.941 . S
H170 C191 0.939 . S
O171 P160 1.490 . S
H172 C188 0.939 . S
H173 C190 0.940 . S
C174 P160 1.812 . S
C174 C175 1.389 . S
C174 C179 1.391 . S
C175 H161 0.941 . S
C175 C174 1.389 . S
C175 C176 1.397 . S
C176 H162 0.939 . S
C176 C175 1.397 . S
C176 C177 1.378 . S
C177 C176 1.378 . S
C177 C178 1.378 . S
C178 H163 0.940 . S
C178 C177 1.378 . S
C178 C179 1.396 . S
C179 H164 0.940 . S
C179 C174 1.391 . S
C179 C178 1.396 . S
C180 P160 1.803 . S
C180 C181 1.378 . S
C180 C185 1.400 . S
C181 H165 0.939 . S
C181 C180 1.378 . S
C181 C182 1.361 . S
C182 H166 0.942 . S
C182 C181 1.361 . S
C182 C183 1.369 . S
C183 C182 1.369 . S
C183 C184 1.404 . S
C184 H167 0.940 . S
C184 C183 1.404 . S
C184 C185 1.389 . S
C185 H168 0.939 . S
C185 C180 1.400 . S
C185 C184 1.389 . S
C186 P160 1.819 . S
C186 C187 1.391 . S
C186 C191 1.391 . S
C187 H169 0.941 . S
C187 C186 1.391 . S
C187 C188 1.396 . S
C188 H172 0.939 . S
C188 C187 1.396 . S
C188 C189 1.397 . S
C189 C188 1.397 . S
C189 C190 1.385 . S
C190 H173 0.940 . S
C190 C189 1.385 . S
C190 C191 1.388 . S
C191 H170 0.939 . S
C191 C186 1.391 . S
C191 C190 1.388 . S
P192 O203 1.490 . S
P192 C206 1.812 . S
P192 C212 1.803 . S
P192 C218 1.819 . S
H193 C207 0.941 . S
H194 C208 0.939 . S
H195 C210 0.940 . S
H196 C211 0.940 . S
H197 C213 0.939 . S
H198 C214 0.942 . S
H199 C216 0.940 . S
H200 C217 0.939 . S
H201 C219 0.941 . S
H202 C223 0.939 . S
O203 P192 1.490 . S
H204 C220 0.939 . S
H205 C222 0.940 . S
C206 P192 1.812 . S
C206 C207 1.389 . S
C206 C211 1.391 . S
C207 H193 0.941 . S
C207 C206 1.389 . S
C207 C208 1.397 . S
C208 H194 0.939 . S
C208 C207 1.397 . S
C208 C209 1.378 . S
C209 C208 1.378 . S
C209 C210 1.378 . S
C210 H195 0.940 . S
C210 C209 1.378 . S
C210 C211 1.396 . S
C211 H196 0.940 . S
C211 C206 1.391 . S
C211 C210 1.396 . S
C212 P192 1.803 . S
C212 C213 1.378 . S
C212 C217 1.400 . S
C213 H197 0.939 . S
C213 C212 1.378 . S
C213 C214 1.361 . S
C214 H198 0.942 . S
C214 C213 1.361 . S
C214 C215 1.369 . S
C215 C214 1.369 . S
C215 C216 1.404 . S
C216 H199 0.940 . S
C216 C215 1.404 . S
C216 C217 1.389 . S
C217 H200 0.939 . S
C217 C212 1.400 . S
C217 C216 1.389 . S
C218 P192 1.819 . S
C218 C219 1.391 . S
C218 C223 1.391 . S
C219 H201 0.941 . S
C219 C218 1.391 . S
C219 C220 1.396 . S
C220 H204 0.939 . S
C220 C219 1.396 . S
C220 C221 1.397 . S
C221 C220 1.397 . S
C221 C222 1.385 . S
C222 H205 0.940 . S
C222 C221 1.385 . S
C222 C223 1.388 . S
C223 H202 0.939 . S
C223 C218 1.391 . S
C223 C222 1.388 . S
P224 O235 1.490 . S
P224 C238 1.812 . S
P224 C244 1.803 . S
P224 C250 1.819 . S
H225 C239 0.941 . S
H226 C240 0.939 . S
H227 C242 0.940 . S
H228 C243 0.940 . S
H229 C245 0.939 . S
H230 C246 0.942 . S
H231 C248 0.940 . S
H232 C249 0.939 . S
H233 C251 0.941 . S
H234 C255 0.939 . S
O235 P224 1.490 . S
H236 C252 0.939 . S
H237 C254 0.940 . S
C238 P224 1.812 . S
C238 C239 1.389 . S
C238 C243 1.391 . S
C239 H225 0.941 . S
C239 C238 1.389 . S
C239 C240 1.397 . S
C240 H226 0.939 . S
C240 C239 1.397 . S
C240 C241 1.378 . S
C241 C240 1.378 . S
C241 C242 1.378 . S
C242 H227 0.940 . S
C242 C241 1.378 . S
C242 C243 1.396 . S
C243 H228 0.940 . S
C243 C238 1.391 . S
C243 C242 1.396 . S
C244 P224 1.803 . S
C244 C245 1.378 . S
C244 C249 1.400 . S
C245 H229 0.939 . S
C245 C244 1.378 . S
C245 C246 1.361 . S
C246 H230 0.942 . S
C246 C245 1.361 . S
C246 C247 1.369 . S
C247 C246 1.369 . S
C247 C248 1.404 . S
C248 H231 0.940 . S
C248 C247 1.404 . S
C248 C249 1.389 . S
C249 H232 0.939 . S
C249 C244 1.400 . S
C249 C248 1.389 . S
C250 P224 1.819 . S
C250 C251 1.391 . S
C250 C255 1.391 . S
C251 H233 0.941 . S
C251 C250 1.391 . S
C251 C252 1.396 . S
C252 H236 0.939 . S
C252 C251 1.396 . S
C252 C253 1.397 . S
C253 C252 1.397 . S
C253 C254 1.385 . S
C254 H237 0.940 . S
C254 C253 1.385 . S
C254 C255 1.388 . S
C255 H234 0.939 . S
C255 C250 1.391 . S
C255 C254 1.388 . S
Eu256 N285 2.600 . S
Eu256 N291 2.562 . S
Eu256 O300 2.462 . S
Eu256 O301 2.373 . S
Eu256 O303 2.432 . S
Eu256 O304 2.291 . S
Eu256 O308 2.335 . S
Eu256 O311 2.372 . S
Eu256 C320 2.787 . S
C257 N258 1.365 . S
C257 C260 1.405 . S
C257 C264 1.448 . S
N258 C257 1.365 . S
N258 C261 1.319 . S
N258 Eu267 2.600 . S
C259 C261 1.397 . S
C259 C262 1.367 . S
C259 H279 0.931 . S
C260 C257 1.405 . S
C260 C262 1.403 . S
C260 C266 1.439 . S
C261 N258 1.319 . S
C261 C259 1.397 . S
C261 H272 0.930 . S
C262 C259 1.367 . S
C262 C260 1.403 . S
C262 H283 0.929 . S
C263 C264 1.430 . S
C263 C265 1.387 . S
C263 C269 1.404 . S
C264 C257 1.448 . S
C264 C263 1.430 . S
C264 N268 1.351 . S
C265 C263 1.387 . S
C265 C266 1.374 . S
C265 H280 0.931 . S
C266 C260 1.439 . S
C266 C265 1.374 . S
C266 H281 0.931 . S
Eu267 N258 2.600 . S
Eu267 N268 2.562 . S
Eu267 O302 2.335 1_655 S
Eu267 O305 2.372 . S
Eu267 O306 2.462 . S
Eu267 O307 2.373 . S
Eu267 O309 2.432 . S
Eu267 O310 2.291 1_655 S
Eu267 C331 2.787 . S
N268 C264 1.351 . S
N268 Eu267 2.562 . S
N268 C270 1.325 . S
C269 C263 1.404 . S
C269 C271 1.366 . S
C269 H277 0.930 . S
C270 N268 1.325 . S
C270 C271 1.416 . S
C270 H276 0.929 . S
C271 C269 1.366 . S
C271 C270 1.416 . S
C271 H273 0.930 . S
H272 C261 0.930 . S
H273 C271 0.930 . S
H274 C289 0.930 . S
H275 C296 0.930 . S
H276 C270 0.929 . S
H277 C269 0.930 . S
H278 C292 0.929 . S
H279 C259 0.931 . S
H280 C265 0.931 . S
H281 C266 0.931 . S
H282 C287 0.931 . S
H283 C262 0.929 . S
H284 C295 0.930 . S
N285 Eu256 2.600 . S
N285 C286 1.365 . S
N285 C289 1.319 . S
C286 N285 1.365 . S
C286 C288 1.405 . S
C286 C294 1.448 . S
C287 H282 0.931 . S
C287 C289 1.397 . S
C287 C290 1.367 . S
C288 C286 1.405 . S
C288 C290 1.403 . S
C288 C321 1.439 . S
C289 H274 0.930 . S
C289 N285 1.319 . S
C289 C287 1.397 . S
C290 C287 1.367 . S
C290 C288 1.403 . S
C290 H297 0.929 . S
N291 Eu256 2.562 . S
N291 C292 1.325 . S
N291 C294 1.351 . S
C292 H278 0.929 . S
C292 N291 1.325 . S
C292 C296 1.416 . S
C293 C294 1.430 . S
C293 C295 1.404 . S
C293 C322 1.387 . S
C294 C286 1.448 . S
C294 N291 1.351 . S
C294 C293 1.430 . S
C295 H284 0.930 . S
C295 C293 1.404 . S
C295 C296 1.366 . S
C296 H275 0.930 . S
C296 C292 1.416 . S
C296 C295 1.366 . S
H297 C290 0.929 . S
H298 C321 0.931 . S
H299 C322 0.931 . S
O300 Eu256 2.462 . S
O300 C320 1.252 . S
O301 Eu256 2.373 . S
O301 C312 1.249 . S
O302 Eu267 2.335 1_455 S
O302 C312 1.264 . S
O303 Eu256 2.432 . S
O303 C320 1.268 . S
O304 Eu256 2.291 . S
O304 C319 1.255 1_455 S
O305 Eu267 2.372 . S
O305 C319 1.257 . S
O306 Eu267 2.462 . S
O306 C331 1.252 . S
O307 Eu267 2.373 . S
O307 C323 1.249 . S
O308 Eu256 2.335 . S
O308 C323 1.264 1_455 S
O309 Eu267 2.432 . S
O309 C331 1.268 . S
O310 Eu267 2.291 1_455 S
O310 C330 1.255 . S
O311 Eu256 2.372 . S
O311 C330 1.257 . S
C312 O301 1.249 . S
C312 O302 1.264 . S
C313 C316 1.382 . S
C313 C318 1.390 . S
C313 C320 1.506 . S
C314 C315 1.398 . S
C314 C318 1.392 . S
C315 C314 1.398 . S
C315 C317 1.372 . S
C315 H332 0.931 . S
C316 C313 1.382 . S
C316 C317 1.390 . S
C316 H333 0.931 . S
C317 C315 1.372 . S
C317 C316 1.390 . S
C317 H334 0.929 . S
C318 C313 1.390 . S
C318 C314 1.392 . S
C318 H335 0.930 . S
C319 O304 1.255 1_655 S
C319 O305 1.257 . S
C320 Eu256 2.787 . S
C320 O300 1.252 . S
C320 O303 1.268 . S
C320 C313 1.506 . S
C321 C288 1.439 . S
C321 H298 0.931 . S
C321 C322 1.374 . S
C322 C293 1.387 . S
C322 H299 0.931 . S
C322 C321 1.374 . S
C323 O307 1.249 . S
C323 O308 1.264 1_655 S
C324 C327 1.382 . S
C324 C328 1.390 . S
C324 C331 1.506 . S
C325 C326 1.398 . S
C325 C328 1.392 . S
C326 C325 1.398 . S
C326 C329 1.372 . S
C326 H336 0.931 . S
C327 C324 1.382 . S
C327 C329 1.390 . S
C327 H337 0.931 . S
C328 C324 1.390 . S
C328 C325 1.392 . S
C328 H338 0.930 . S
C329 C326 1.372 . S
C329 C327 1.390 . S
C329 H339 0.929 . S
C330 O310 1.255 . S
C330 O311 1.257 . S
C331 Eu267 2.787 . S
C331 O306 1.252 . S
C331 O309 1.268 . S
C331 C324 1.506 . S
H332 C315 0.931 . S
H333 C316 0.931 . S
H334 C317 0.929 . S
H335 C318 0.930 . S
H336 C326 0.931 . S
H337 C327 0.931 . S
H338 C328 0.930 . S
H339 C329 0.929 . S
Eu340 N369 2.600 . S
Eu340 N375 2.562 . S
Eu340 O384 2.462 . S
Eu340 O385 2.373 . S
Eu340 O387 2.432 . S
Eu340 O388 2.291 . S
Eu340 O392 2.335 . S
Eu340 O395 2.372 . S
Eu340 C404 2.787 . S
C341 N342 1.365 . S
C341 C344 1.405 . S
C341 C348 1.448 . S
N342 C341 1.365 . S
N342 C345 1.319 . S
N342 Eu351 2.600 . S
C343 C345 1.397 . S
C343 C346 1.367 . S
C343 H363 0.931 . S
C344 C341 1.405 . S
C344 C346 1.403 . S
C344 C350 1.439 . S
C345 N342 1.319 . S
C345 C343 1.397 . S
C345 H356 0.930 . S
C346 C343 1.367 . S
C346 C344 1.403 . S
C346 H367 0.929 . S
C347 C348 1.430 . S
C347 C349 1.387 . S
C347 C353 1.404 . S
C348 C341 1.448 . S
C348 C347 1.430 . S
C348 N352 1.351 . S
C349 C347 1.387 . S
C349 C350 1.374 . S
C349 H364 0.931 . S
C350 C344 1.439 . S
C350 C349 1.374 . S
C350 H365 0.931 . S
Eu351 N342 2.600 . S
Eu351 N352 2.562 . S
Eu351 O386 2.335 . S
Eu351 O389 2.372 . S
Eu351 O390 2.462 . S
Eu351 O391 2.373 . S
Eu351 O393 2.432 . S
Eu351 O394 2.291 . S
Eu351 C415 2.787 . S
N352 C348 1.351 . S
N352 Eu351 2.562 . S
N352 C354 1.325 . S
C353 C347 1.404 . S
C353 C355 1.366 . S
C353 H361 0.930 . S
C354 N352 1.325 . S
C354 C355 1.416 . S
C354 H360 0.929 . S
C355 C353 1.366 . S
C355 C354 1.416 . S
C355 H357 0.930 . S
H356 C345 0.930 . S
H357 C355 0.930 . S
H358 C373 0.930 . S
H359 C380 0.930 . S
H360 C354 0.929 . S
H361 C353 0.930 . S
H362 C376 0.929 . S
H363 C343 0.931 . S
H364 C349 0.931 . S
H365 C350 0.931 . S
H366 C371 0.931 . S
H367 C346 0.929 . S
H368 C379 0.930 . S
N369 Eu340 2.600 . S
N369 C370 1.365 . S
N369 C373 1.319 . S
C370 N369 1.365 . S
C370 C372 1.405 . S
C370 C378 1.448 . S
C371 H366 0.931 . S
C371 C373 1.397 . S
C371 C374 1.367 . S
C372 C370 1.405 . S
C372 C374 1.403 . S
C372 C405 1.439 . S
C373 H358 0.930 . S
C373 N369 1.319 . S
C373 C371 1.397 . S
C374 C371 1.367 . S
C374 C372 1.403 . S
C374 H381 0.929 . S
N375 Eu340 2.562 . S
N375 C376 1.325 . S
N375 C378 1.351 . S
C376 H362 0.929 . S
C376 N375 1.325 . S
C376 C380 1.416 . S
C377 C378 1.430 . S
C377 C379 1.404 . S
C377 C406 1.387 . S
C378 C370 1.448 . S
C378 N375 1.351 . S
C378 C377 1.430 . S
C379 H368 0.930 . S
C379 C377 1.404 . S
C379 C380 1.366 . S
C380 H359 0.930 . S
C380 C376 1.416 . S
C380 C379 1.366 . S
H381 C374 0.929 . S
H382 C405 0.931 . S
H383 C406 0.931 . S
O384 Eu340 2.462 . S
O384 C404 1.252 . S
O385 Eu340 2.373 . S
O385 C396 1.249 . S
O386 Eu351 2.335 . S
O386 C396 1.264 . S
O387 Eu340 2.432 . S
O387 C404 1.268 . S
O388 Eu340 2.291 . S
O388 C403 1.255 . S
O389 Eu351 2.372 . S
O389 C403 1.257 . S
O390 Eu351 2.462 . S
O390 C415 1.252 . S
O391 Eu351 2.373 . S
O391 C407 1.249 . S
O392 Eu340 2.335 . S
O392 C407 1.264 . S
O393 Eu351 2.432 . S
O393 C415 1.268 . S
O394 Eu351 2.291 . S
O394 C414 1.255 . S
O395 Eu340 2.372 . S
O395 C414 1.257 . S
C396 O385 1.249 . S
C396 O386 1.264 . S
C397 C400 1.382 . S
C397 C402 1.390 . S
C397 C404 1.506 . S
C398 C399 1.398 . S
C398 C402 1.392 . S
C399 C398 1.398 . S
C399 C401 1.372 . S
C399 H416 0.931 . S
C400 C397 1.382 . S
C400 C401 1.390 . S
C400 H417 0.931 . S
C401 C399 1.372 . S
C401 C400 1.390 . S
C401 H418 0.929 . S
C402 C397 1.390 . S
C402 C398 1.392 . S
C402 H419 0.930 . S
C403 O388 1.255 . S
C403 O389 1.257 . S
C404 Eu340 2.787 . S
C404 O384 1.252 . S
C404 O387 1.268 . S
C404 C397 1.506 . S
C405 C372 1.439 . S
C405 H382 0.931 . S
C405 C406 1.374 . S
C406 C377 1.387 . S
C406 H383 0.931 . S
C406 C405 1.374 . S
C407 O391 1.249 . S
C407 O392 1.264 . S
C408 C411 1.382 . S
C408 C412 1.390 . S
C408 C415 1.506 . S
C409 C410 1.398 . S
C409 C412 1.392 . S
C410 C409 1.398 . S
C410 C413 1.372 . S
C410 H420 0.931 . S
C411 C408 1.382 . S
C411 C413 1.390 . S
C411 H421 0.931 . S
C412 C408 1.390 . S
C412 C409 1.392 . S
C412 H422 0.930 . S
C413 C410 1.372 . S
C413 C411 1.390 . S
C413 H423 0.929 . S
C414 O394 1.255 . S
C414 O395 1.257 . S
C415 Eu351 2.787 . S
C415 O390 1.252 . S
C415 O393 1.268 . S
C415 C408 1.506 . S
H416 C399 0.931 . S
H417 C400 0.931 . S
H418 C401 0.929 . S
H419 C402 0.930 . S
H420 C410 0.931 . S
H421 C411 0.931 . S
H422 C412 0.930 . S
H423 C413 0.929 . S
Eu424 N453 2.600 . S
Eu424 N459 2.562 . S
Eu424 O468 2.462 . S
Eu424 O469 2.373 . S
Eu424 O471 2.432 . S
Eu424 O472 2.291 . S
Eu424 O476 2.335 . S
Eu424 O479 2.372 . S
Eu424 C488 2.787 . S
C425 N426 1.365 . S
C425 C428 1.405 . S
C425 C432 1.448 . S
N426 C425 1.365 . S
N426 C429 1.319 . S
N426 Eu435 2.600 . S
C427 C429 1.397 . S
C427 C430 1.367 . S
C427 H447 0.931 . S
C428 C425 1.405 . S
C428 C430 1.403 . S
C428 C434 1.439 . S
C429 N426 1.319 . S
C429 C427 1.397 . S
C429 H440 0.930 . S
C430 C427 1.367 . S
C430 C428 1.403 . S
C430 H451 0.929 . S
C431 C432 1.430 . S
C431 C433 1.387 . S
C431 C437 1.404 . S
C432 C425 1.448 . S
C432 C431 1.430 . S
C432 N436 1.351 . S
C433 C431 1.387 . S
C433 C434 1.374 . S
C433 H448 0.931 . S
C434 C428 1.439 . S
C434 C433 1.374 . S
C434 H449 0.931 . S
Eu435 N426 2.600 . S
Eu435 N436 2.562 . S
Eu435 O470 2.335 1_655 S
Eu435 O473 2.372 . S
Eu435 O474 2.462 . S
Eu435 O475 2.373 . S
Eu435 O477 2.432 . S
Eu435 O478 2.277 1_655 S
Eu435 C499 2.787 . S
N436 C432 1.351 . S
N436 Eu435 2.562 . S
N436 C438 1.325 . S
C437 C431 1.404 . S
C437 C439 1.366 . S
C437 H445 0.930 . S
C438 N436 1.325 . S
C438 C439 1.416 . S
C438 H444 0.929 . S
C439 C437 1.366 . S
C439 C438 1.416 . S
C439 H441 0.930 . S
H440 C429 0.930 . S
H441 C439 0.930 . S
H442 C457 0.930 . S
H443 C464 0.930 . S
H444 C438 0.929 . S
H445 C437 0.930 . S
H446 C460 0.929 . S
H447 C427 0.931 . S
H448 C433 0.931 . S
H449 C434 0.931 . S
H450 C455 0.931 . S
H451 C430 0.929 . S
H452 C463 0.930 . S
N453 Eu424 2.600 . S
N453 C454 1.365 . S
N453 C457 1.319 . S
C454 N453 1.365 . S
C454 C456 1.405 . S
C454 C462 1.448 . S
C455 H450 0.931 . S
C455 C457 1.397 . S
C455 C458 1.367 . S
C456 C454 1.405 . S
C456 C458 1.403 . S
C456 C489 1.439 . S
C457 H442 0.930 . S
C457 N453 1.319 . S
C457 C455 1.397 . S
C458 C455 1.367 . S
C458 C456 1.403 . S
C458 H465 0.929 . S
N459 Eu424 2.562 . S
N459 C460 1.325 . S
N459 C462 1.351 . S
C460 H446 0.929 . S
C460 N459 1.325 . S
C460 C464 1.416 . S
C461 C462 1.430 . S
C461 C463 1.404 . S
C461 C490 1.387 . S
C462 C454 1.448 . S
C462 N459 1.351 . S
C462 C461 1.430 . S
C463 H452 0.930 . S
C463 C461 1.404 . S
C463 C464 1.366 . S
C464 H443 0.930 . S
C464 C460 1.416 . S
C464 C463 1.366 . S
H465 C458 0.929 . S
H466 C489 0.931 . S
H467 C490 0.931 . S
O468 Eu424 2.462 . S
O468 C488 1.252 . S
O469 Eu424 2.373 . S
O469 C480 1.249 . S
O470 Eu435 2.335 1_455 S
O470 C480 1.264 . S
O471 Eu424 2.432 . S
O471 C488 1.268 . S
O472 Eu424 2.291 . S
O472 C487 1.255 1_455 S
O473 Eu435 2.372 . S
O473 C487 1.257 . S
O474 Eu435 2.462 . S
O474 C499 1.252 . S
O475 Eu435 2.373 . S
O475 C491 1.249 . S
O476 Eu424 2.335 . S
O476 C491 1.264 1_455 S
O477 Eu435 2.432 . S
O477 C499 1.268 . S
O478 Eu435 2.277 1_455 S
O478 C498 1.273 . S
O479 Eu424 2.372 . S
O479 C498 1.257 . S
C480 O469 1.249 . S
C480 O470 1.264 . S
C481 C484 1.382 . S
C481 C486 1.390 . S
C481 C488 1.506 . S
C482 C483 1.398 . S
C482 C486 1.392 . S
C483 C482 1.398 . S
C483 C485 1.372 . S
C483 H500 0.931 . S
C484 C481 1.382 . S
C484 C485 1.390 . S
C484 H501 0.931 . S
C485 C483 1.372 . S
C485 C484 1.390 . S
C485 H502 0.929 . S
C486 C481 1.390 . S
C486 C482 1.392 . S
C486 H503 0.930 . S
C487 O472 1.255 1_655 S
C487 O473 1.257 . S
C488 Eu424 2.787 . S
C488 O468 1.252 . S
C488 O471 1.268 . S
C488 C481 1.506 . S
C489 C456 1.439 . S
C489 H466 0.931 . S
C489 C490 1.374 . S
C490 C461 1.387 . S
C490 H467 0.931 . S
C490 C489 1.374 . S
C491 O475 1.249 . S
C491 O476 1.264 1_655 S
C492 C495 1.382 . S
C492 C496 1.390 . S
C492 C499 1.506 . S
C493 C494 1.398 . S
C493 C496 1.392 . S
C494 C493 1.398 . S
C494 C497 1.372 . S
C494 H504 0.931 . S
C495 C492 1.382 . S
C495 C497 1.390 . S
C495 H505 0.931 . S
C496 C492 1.390 . S
C496 C493 1.392 . S
C496 H506 0.930 . S
C497 C494 1.372 . S
C497 C495 1.390 . S
C497 H507 0.929 . S
C498 O478 1.273 . S
C498 O479 1.257 . S
C499 Eu435 2.787 . S
C499 O474 1.252 . S
C499 O477 1.268 . S
C499 C492 1.506 . S
H500 C483 0.931 . S
H501 C484 0.931 . S
H502 C485 0.929 . S
H503 C486 0.930 . S
H504 C494 0.931 . S
H505 C495 0.931 . S
H506 C496 0.930 . S
H507 C497 0.929 . S
Eu508 N537 2.600 . S
Eu508 N543 2.562 . S
Eu508 O552 2.462 . S
Eu508 O553 2.373 . S
Eu508 O555 2.432 . S
Eu508 O556 2.291 . S
Eu508 O560 2.335 . S
Eu508 O563 2.372 . S
Eu508 C572 2.787 . S
C509 N510 1.365 . S
C509 C512 1.405 . S
C509 C516 1.448 . S
N510 C509 1.365 . S
N510 C513 1.319 . S
N510 Eu519 2.600 . S
C511 C513 1.397 . S
C511 C514 1.367 . S
C511 H531 0.931 . S
C512 C509 1.405 . S
C512 C514 1.403 . S
C512 C518 1.439 . S
C513 N510 1.319 . S
C513 C511 1.397 . S
C513 H524 0.930 . S
C514 C511 1.367 . S
C514 C512 1.403 . S
C514 H535 0.929 . S
C515 C516 1.430 . S
C515 C517 1.387 . S
C515 C521 1.404 . S
C516 C509 1.448 . S
C516 C515 1.430 . S
C516 N520 1.351 . S
C517 C515 1.387 . S
C517 C518 1.374 . S
C517 H532 0.931 . S
C518 C512 1.439 . S
C518 C517 1.374 . S
C518 H533 0.931 . S
Eu519 N510 2.600 . S
Eu519 N520 2.562 . S
Eu519 O554 2.335 . S
Eu519 O557 2.372 . S
Eu519 O558 2.462 . S
Eu519 O559 2.373 . S
Eu519 O561 2.432 . S
Eu519 O562 2.291 . S
Eu519 C583 2.787 . S
N520 C516 1.351 . S
N520 Eu519 2.562 . S
N520 C522 1.325 . S
C521 C515 1.404 . S
C521 C523 1.366 . S
C521 H529 0.930 . S
C522 N520 1.325 . S
C522 C523 1.416 . S
C522 H528 0.929 . S
C523 C521 1.366 . S
C523 C522 1.416 . S
C523 H525 0.930 . S
H524 C513 0.930 . S
H525 C523 0.930 . S
H526 C541 0.930 . S
H527 C548 0.930 . S
H528 C522 0.929 . S
H529 C521 0.930 . S
H530 C544 0.929 . S
H531 C511 0.931 . S
H532 C517 0.931 . S
H533 C518 0.931 . S
H534 C539 0.931 . S
H535 C514 0.929 . S
H536 C547 0.930 . S
N537 Eu508 2.600 . S
N537 C538 1.365 . S
N537 C541 1.319 . S
C538 N537 1.365 . S
C538 C540 1.405 . S
C538 C546 1.448 . S
C539 H534 0.931 . S
C539 C541 1.397 . S
C539 C542 1.367 . S
C540 C538 1.405 . S
C540 C542 1.403 . S
C540 C573 1.439 . S
C541 H526 0.930 . S
C541 N537 1.319 . S
C541 C539 1.397 . S
C542 C539 1.367 . S
C542 C540 1.403 . S
C542 H549 0.929 . S
N543 Eu508 2.562 . S
N543 C544 1.325 . S
N543 C546 1.351 . S
C544 H530 0.929 . S
C544 N543 1.325 . S
C544 C548 1.416 . S
C545 C546 1.430 . S
C545 C547 1.404 . S
C545 C574 1.387 . S
C546 C538 1.448 . S
C546 N543 1.351 . S
C546 C545 1.430 . S
C547 H536 0.930 . S
C547 C545 1.404 . S
C547 C548 1.366 . S
C548 H527 0.930 . S
C548 C544 1.416 . S
C548 C547 1.366 . S
H549 C542 0.929 . S
H550 C573 0.931 . S
H551 C574 0.931 . S
O552 Eu508 2.462 . S
O552 C572 1.252 . S
O553 Eu508 2.373 . S
O553 C564 1.249 . S
O554 Eu519 2.335 . S
O554 C564 1.264 . S
O555 Eu508 2.432 . S
O555 C572 1.268 . S
O556 Eu508 2.291 . S
O556 C571 1.255 . S
O557 Eu519 2.372 . S
O557 C571 1.257 . S
O558 Eu519 2.462 . S
O558 C583 1.252 . S
O559 Eu519 2.373 . S
O559 C575 1.249 . S
O560 Eu508 2.335 . S
O560 C575 1.264 . S
O561 Eu519 2.432 . S
O561 C583 1.268 . S
O562 Eu519 2.291 . S
O562 C582 1.255 . S
O563 Eu508 2.372 . S
O563 C582 1.257 . S
C564 O553 1.249 . S
C564 O554 1.264 . S
C565 C568 1.382 . S
C565 C570 1.390 . S
C565 C572 1.506 . S
C566 C567 1.398 . S
C566 C570 1.392 . S
C567 C566 1.398 . S
C567 C569 1.372 . S
C567 H584 0.931 . S
C568 C565 1.382 . S
C568 C569 1.390 . S
C568 H585 0.931 . S
C569 C567 1.372 . S
C569 C568 1.390 . S
C569 H586 0.929 . S
C570 C565 1.390 . S
C570 C566 1.392 . S
C570 H587 0.930 . S
C571 O556 1.255 . S
C571 O557 1.257 . S
C572 Eu508 2.787 . S
C572 O552 1.252 . S
C572 O555 1.268 . S
C572 C565 1.506 . S
C573 C540 1.439 . S
C573 H550 0.931 . S
C573 C574 1.374 . S
C574 C545 1.387 . S
C574 H551 0.931 . S
C574 C573 1.374 . S
C575 O559 1.249 . S
C575 O560 1.264 . S
C576 C579 1.382 . S
C576 C580 1.390 . S
C576 C583 1.506 . S
C577 C578 1.398 . S
C577 C580 1.392 . S
C578 C577 1.398 . S
C578 C581 1.372 . S
C578 H588 0.931 . S
C579 C576 1.382 . S
C579 C581 1.390 . S
C579 H589 0.931 . S
C580 C576 1.390 . S
C580 C577 1.392 . S
C580 H590 0.930 . S
C581 C578 1.372 . S
C581 C579 1.390 . S
C581 H591 0.929 . S
C582 O562 1.255 . S
C582 O563 1.257 . S
C583 Eu519 2.787 . S
C583 O558 1.252 . S
C583 O561 1.268 . S
C583 C576 1.506 . S
H584 C567 0.931 . S
H585 C568 0.931 . S
H586 C569 0.929 . S
H587 C570 0.930 . S
H588 C578 0.931 . S
H589 C579 0.931 . S
H590 C580 0.930 . S
H591 C581 0.929 . S
C592 C593 1.391 . S
C592 C594 1.394 1_565 S
C592 H608 0.931 . S
C593 C592 1.391 . S
C593 C597 1.376 . S
C594 C592 1.394 1_545 S
C594 C595 1.369 . S
C594 C598 1.531 . S
C595 C594 1.369 . S
C595 C596 1.410 1_545 S
C595 C603 1.503 . S
C596 C595 1.410 1_565 S
C596 C597 1.392 . S
C596 C599 1.515 . S
C597 C593 1.376 . S
C597 C596 1.392 . S
C597 H609 0.929 . S
C598 C594 1.531 . S
C598 H610 0.960 . S
C598 H611 0.962 . S
C598 H612 0.960 . S
C599 C596 1.515 . S
C599 H613 1.000 . S
C599 H614 0.944 1_565 S
C599 H615 0.936 1_565 S
C600 C601 1.370 . S
C600 C602 1.363 . S
C600 H616 0.931 . S
C601 C600 1.370 . S
C601 C605 1.408 . S
C602 C600 1.363 . S
C602 C603 1.370 . S
C602 C606 1.524 . S
C603 C595 1.503 . S
C603 C602 1.370 . S
C603 C604 1.403 . S
C604 C603 1.403 . S
C604 C605 1.404 . S
C604 C607 1.539 . S
C605 C601 1.408 . S
C605 C604 1.404 . S
C605 H617 0.930 . S
C606 C602 1.524 . S
C606 H618 0.956 . S
C606 H619 0.961 1_545 S
C606 H620 0.961 . S
C607 C604 1.539 . S
C607 H621 0.958 . S
C607 H622 0.961 . S
C607 H623 0.960 . S
H608 C592 0.931 . S
H609 C597 0.929 . S
H610 C598 0.960 . S
H611 C598 0.962 . S
H612 C598 0.960 . S
H613 C599 1.000 . S
H614 C599 0.944 1_545 S
H615 C599 0.936 1_545 S
H616 C600 0.931 . S
H617 C605 0.930 . S
H618 C606 0.956 . S
H619 C606 0.961 1_565 S
H620 C606 0.961 . S
H621 C607 0.958 . S
H622 C607 0.961 . S
H623 C607 0.960 . S
C624 C625 1.391 . S
C624 C626 1.394 . S
C624 H640 0.931 . S
C625 C624 1.391 . S
C625 C629 1.376 . S
C626 C624 1.394 . S
C626 C627 1.369 . S
C626 C630 1.531 . S
C627 C626 1.369 . S
C627 C628 1.410 . S
C627 C635 1.503 . S
C628 C627 1.410 . S
C628 C629 1.392 . S
C628 C631 1.511 . S
C629 C625 1.376 . S
C629 C628 1.392 . S
C629 H641 0.929 . S
C630 C626 1.531 . S
C630 H642 0.960 . S
C630 H643 0.962 . S
C630 H644 0.960 . S
C631 C628 1.511 . S
C631 H645 0.961 . S
C631 H646 0.961 . S
C631 H647 0.961 . S
C632 C633 1.370 . S
C632 C634 1.363 . S
C632 H648 0.931 . S
C633 C632 1.370 . S
C633 C637 1.408 . S
C634 C632 1.363 . S
C634 C635 1.370 . S
C634 C638 1.524 . S
C635 C627 1.503 . S
C635 C634 1.370 . S
C635 C636 1.403 . S
C636 C635 1.403 . S
C636 C637 1.404 . S
C636 C639 1.539 . S
C637 C633 1.408 . S
C637 C636 1.404 . S
C637 H649 0.930 . S
C638 C634 1.524 . S
C638 H650 0.956 . S
C638 H651 0.961 . S
C638 H652 0.961 . S
C639 C636 1.539 . S
C639 H653 0.958 . S
C639 H654 0.961 . S
C639 H655 0.960 . S
H640 C624 0.931 . S
H641 C629 0.929 . S
H642 C630 0.960 . S
H643 C630 0.962 . S
H644 C630 0.960 . S
H645 C631 0.961 . S
H646 C631 0.961 . S
H647 C631 0.961 . S
H648 C632 0.931 . S
H649 C637 0.930 . S
H650 C638 0.956 . S
H651 C638 0.961 . S
H652 C638 0.961 . S
H653 C639 0.958 . S
H654 C639 0.961 . S
H655 C639 0.960 . S
C656 C657 1.391 . S
C656 C658 1.394 . S
C656 H672 0.931 . S
C657 C656 1.391 . S
C657 C661 1.376 . S
C658 C656 1.394 . S
C658 C659 1.369 . S
C658 C662 1.531 . S
C659 C658 1.369 . S
C659 C660 1.410 . S
C659 C667 1.503 . S
C660 C659 1.410 . S
C660 C661 1.392 . S
C660 C663 1.511 . S
C661 C657 1.376 . S
C661 C660 1.392 . S
C661 H673 0.929 . S
C662 C658 1.531 . S
C662 H674 0.960 . S
C662 H675 0.962 . S
C662 H676 0.960 . S
C663 C660 1.511 . S
C663 H677 0.961 . S
C663 H678 0.961 . S
C663 H679 0.961 . S
C664 C665 1.370 . S
C664 C666 1.363 . S
C664 H680 0.931 . S
C665 C664 1.370 . S
C665 C669 1.408 . S
C666 C664 1.363 . S
C666 C667 1.370 . S
C666 C670 1.524 . S
C667 C659 1.503 . S
C667 C666 1.370 . S
C667 C668 1.403 . S
C668 C667 1.403 . S
C668 C669 1.404 . S
C668 C671 1.539 . S
C669 C665 1.408 . S
C669 C668 1.404 . S
C669 H681 0.930 . S
C670 C666 1.524 . S
C670 H682 0.956 . S
C670 H683 0.961 . S
C670 H684 0.961 . S
C671 C668 1.539 . S
C671 H685 0.958 . S
C671 H686 0.961 . S
C671 H687 0.960 . S
H672 C656 0.931 . S
H673 C661 0.929 . S
H674 C662 0.960 . S
H675 C662 0.962 . S
H676 C662 0.960 . S
H677 C663 0.961 . S
H678 C663 0.961 . S
H679 C663 0.961 . S
H680 C664 0.931 . S
H681 C669 0.930 . S
H682 C670 0.956 . S
H683 C670 0.961 . S
H684 C670 0.961 . S
H685 C671 0.958 . S
H686 C671 0.961 . S
H687 C671 0.960 . S
C688 C689 1.391 . S
C688 C690 1.394 1_565 S
C688 H704 0.931 . S
C689 C688 1.391 . S
C689 C693 1.376 . S
C690 C688 1.394 1_545 S
C690 C691 1.369 . S
C690 C694 1.531 . S
C691 C690 1.369 . S
C691 C692 1.410 . S
C691 C699 1.503 . S
C692 C691 1.410 . S
C692 C693 1.392 1_545 S
C692 C695 1.511 . S
C693 C689 1.376 . S
C693 C692 1.392 1_565 S
C693 H705 0.929 . S
C694 C690 1.531 . S
C694 H706 0.960 . S
C694 H707 0.962 . S
C694 H708 0.960 . S
C695 C692 1.511 . S
C695 H709 0.961 1_545 S
C695 H710 0.961 . S
C695 H711 0.961 . S
C696 C697 1.370 . S
C696 C698 1.363 . S
C696 H712 0.931 . S
C697 C696 1.370 . S
C697 C701 1.408 . S
C698 C696 1.363 . S
C698 C699 1.370 . S
C698 C702 1.524 . S
C699 C691 1.503 . S
C699 C698 1.370 . S
C699 C700 1.403 . S
C700 C699 1.403 . S
C700 C701 1.404 . S
C700 C703 1.539 . S
C701 C697 1.408 . S
C701 C700 1.404 . S
C701 H713 0.930 . S
C702 C698 1.524 . S
C702 H714 0.956 . S
C702 H715 0.961 1_545 S
C702 H716 0.961 . S
C703 C700 1.539 . S
C703 H717 0.958 . S
C703 H718 0.961 . S
C703 H719 0.960 . S
H704 C688 0.931 . S
H705 C693 0.929 . S
H706 C694 0.960 . S
H707 C694 0.962 . S
H708 C694 0.960 . S
H709 C695 0.961 1_565 S
H710 C695 0.961 . S
H711 C695 0.961 . S
H712 C696 0.931 . S
H713 C701 0.930 . S
H714 C702 0.956 . S
H715 C702 0.961 1_565 S
H716 C702 0.961 . S
H717 C703 0.958 . S
H718 C703 0.961 . S
H719 C703 0.960 . S
C720 C721 1.391 . S
C720 C722 1.394 1_545 S
C720 H736 0.931 . S
C721 C720 1.391 . S
C721 C725 1.376 . S
C722 C720 1.394 1_565 S
C722 C723 1.369 . S
C722 C726 1.531 . S
C723 C722 1.369 . S
C723 C724 1.410 . S
C723 C731 1.503 . S
C724 C723 1.410 . S
C724 C725 1.392 1_565 S
C724 C727 1.511 . S
C725 C721 1.376 . S
C725 C724 1.392 1_545 S
C725 H737 0.929 . S
C726 C722 1.531 . S
C726 H738 0.960 . S
C726 H739 0.962 . S
C726 H740 0.960 . S
C727 C724 1.511 . S
C727 H741 0.961 . S
C727 H742 0.961 . S
C727 H743 0.961 . S
C728 C729 1.370 . S
C728 C730 1.363 . S
C728 H744 0.931 . S
C729 C728 1.370 . S
C729 C733 1.408 . S
C730 C728 1.363 . S
C730 C731 1.370 . S
C730 C734 1.496 1_565 S
C731 C723 1.503 . S
C731 C730 1.370 . S
C731 C732 1.403 . S
C732 C731 1.403 . S
C732 C733 1.404 . S
C732 C735 1.539 . S
C733 C729 1.408 . S
C733 C732 1.404 . S
C733 H745 0.930 . S
C734 C730 1.496 1_545 S
C734 H746 0.970 . S
C734 H747 0.972 . S
C734 H748 0.964 . S
C735 C732 1.539 . S
C735 H749 0.958 . S
C735 H750 0.961 . S
C735 H751 0.960 . S
H736 C720 0.931 . S
H737 C725 0.929 . S
H738 C726 0.960 . S
H739 C726 0.962 . S
H740 C726 0.960 . S
H741 C727 0.961 . S
H742 C727 0.961 . S
H743 C727 0.961 . S
H744 C728 0.931 . S
H745 C733 0.930 . S
H746 C734 0.970 . S
H747 C734 0.972 . S
H748 C734 0.964 . S
H749 C735 0.958 . S
H750 C735 0.961 . S
H751 C735 0.960 . S
C752 C753 1.391 . S
C752 C754 1.394 . S
C752 H768 0.931 . S
C753 C752 1.391 . S
C753 C757 1.376 . S
C754 C752 1.394 . S
C754 C755 1.369 . S
C754 C758 1.531 . S
C755 C754 1.369 . S
C755 C756 1.410 . S
C755 C763 1.503 . S
C756 C755 1.410 . S
C756 C757 1.392 . S
C756 C759 1.511 . S
C757 C753 1.376 . S
C757 C756 1.392 . S
C757 H769 0.929 . S
C758 C754 1.531 . S
C758 H770 0.960 . S
C758 H771 0.962 . S
C758 H772 0.960 . S
C759 C756 1.511 . S
C759 H773 0.961 . S
C759 H774 0.961 . S
C759 H775 0.961 . S
C760 C761 1.370 . S
C760 C762 1.363 . S
C760 H776 0.931 . S
C761 C760 1.370 . S
C761 C765 1.408 . S
C762 C760 1.363 . S
C762 C763 1.370 . S
C762 C766 1.524 . S
C763 C755 1.503 . S
C763 C762 1.370 . S
C763 C764 1.403 . S
C764 C763 1.403 . S
C764 C765 1.404 . S
C764 C767 1.539 . S
C765 C761 1.408 . S
C765 C764 1.404 . S
C765 H777 0.930 . S
C766 C762 1.524 . S
C766 H778 0.956 . S
C766 H779 0.961 . S
C766 H780 0.961 . S
C767 C764 1.539 . S
C767 H781 0.958 . S
C767 H782 0.961 . S
C767 H783 0.960 . S
H768 C752 0.931 . S
H769 C757 0.929 . S
H770 C758 0.960 . S
H771 C758 0.962 . S
H772 C758 0.960 . S
H773 C759 0.961 . S
H774 C759 0.961 . S
H775 C759 0.961 . S
H776 C760 0.931 . S
H777 C765 0.930 . S
H778 C766 0.956 . S
H779 C766 0.961 . S
H780 C766 0.961 . S
H781 C767 0.958 . S
H782 C767 0.961 . S
H783 C767 0.960 . S
C784 C785 1.391 . S
C784 C786 1.394 . S
C784 H800 0.931 . S
C785 C784 1.391 . S
C785 C789 1.376 . S
C786 C784 1.394 . S
C786 C787 1.369 . S
C786 C790 1.531 . S
C787 C786 1.369 . S
C787 C788 1.410 . S
C787 C795 1.503 . S
C788 C787 1.410 . S
C788 C789 1.392 . S
C788 C791 1.511 . S
C789 C785 1.376 . S
C789 C788 1.392 . S
C789 H801 0.929 . S
C790 C786 1.531 . S
C790 H802 0.960 . S
C790 H803 0.962 . S
C790 H804 0.960 . S
C791 C788 1.511 . S
C791 H805 0.961 . S
C791 H806 0.961 . S
C791 H807 0.961 . S
C792 C793 1.370 . S
C792 C794 1.363 . S
C792 H808 0.931 . S
C793 C792 1.370 . S
C793 C797 1.408 . S
C794 C792 1.363 . S
C794 C795 1.370 . S
C794 C798 1.524 . S
C795 C787 1.503 . S
C795 C794 1.370 . S
C795 C796 1.403 . S
C796 C795 1.403 . S
C796 C797 1.404 . S
C796 C799 1.539 . S
C797 C793 1.408 . S
C797 C796 1.404 . S
C797 H809 0.930 . S
C798 C794 1.524 . S
C798 H810 0.956 . S
C798 H811 0.961 . S
C798 H812 0.961 . S
C799 C796 1.539 . S
C799 H813 0.958 . S
C799 H814 0.961 . S
C799 H815 0.960 . S
H800 C784 0.931 . S
H801 C789 0.929 . S
H802 C790 0.960 . S
H803 C790 0.962 . S
H804 C790 0.960 . S
H805 C791 0.961 . S
H806 C791 0.961 . S
H807 C791 0.961 . S
H808 C792 0.931 . S
H809 C797 0.930 . S
H810 C798 0.956 . S
H811 C798 0.961 . S
H812 C798 0.961 . S
H813 C799 0.958 . S
H814 C799 0.961 . S
H815 C799 0.960 . S
C816 C817 1.391 . S
C816 C818 1.394 1_545 S
C816 H832 0.931 . S
C817 C816 1.391 . S
C817 C821 1.376 . S
C818 C816 1.394 1_565 S
C818 C819 1.369 . S
C818 C822 1.531 . S
C819 C818 1.369 . S
C819 C820 1.410 1_565 S
C819 C827 1.503 . S
C820 C819 1.410 1_545 S
C820 C821 1.392 . S
C820 C823 1.511 . S
C821 C817 1.376 . S
C821 C820 1.392 . S
C821 H833 0.929 . S
C822 C818 1.531 . S
C822 H834 0.960 . S
C822 H835 0.962 . S
C822 H836 0.960 . S
C823 C820 1.511 . S
C823 H837 0.961 . S
C823 H838 0.961 1_545 S
C823 H839 0.961 . S
C824 C825 1.370 . S
C824 C826 1.363 . S
C824 H840 0.931 . S
C825 C824 1.370 . S
C825 C829 1.408 . S
C826 C824 1.363 . S
C826 C827 1.370 . S
C826 C830 1.524 . S
C827 C819 1.503 . S
C827 C826 1.370 . S
C827 C828 1.403 . S
C828 C827 1.403 . S
C828 C829 1.404 . S
C828 C831 1.538 . S
C829 C825 1.408 . S
C829 C828 1.404 . S
C829 H841 0.930 . S
C830 C826 1.524 . S
C830 H842 0.956 . S
C830 H843 0.961 . S
C830 H844 0.961 . S
C831 C828 1.538 . S
C831 H845 0.958 1_565 S
C831 H846 0.961 1_565 S
C831 H847 0.960 1_565 S
H832 C816 0.931 . S
H833 C821 0.929 . S
H834 C822 0.960 . S
H835 C822 0.962 . S
H836 C822 0.960 . S
H837 C823 0.961 . S
H838 C823 0.961 1_565 S
H839 C823 0.961 . S
H840 C824 0.931 . S
H841 C829 0.930 . S
H842 C830 0.956 . S
H843 C830 0.961 . S
H844 C830 0.961 . S
H845 C831 0.958 1_545 S
H846 C831 0.961 1_545 S
H847 C831 0.960 1_545 S
C848 C849 1.391 1_554 S
C848 C850 1.394 . S
C848 H864 0.931 . S
C849 C848 1.391 1_556 S
C849 C853 1.376 1_556 S
C850 C848 1.394 . S
C850 C851 1.369 . S
C850 C854 1.531 . S
C851 C850 1.369 . S
C851 C852 1.410 . S
C851 C859 1.503 . S
C852 C851 1.410 . S
C852 C853 1.392 . S
C852 C855 1.511 . S
C853 C849 1.376 1_554 S
C853 C852 1.392 . S
C853 H865 0.929 1_554 S
C854 C850 1.531 . S
C854 H866 0.960 . S
C854 H867 0.962 . S
C854 H868 0.960 . S
C855 C852 1.511 . S
C855 H869 0.961 . S
C855 H870 0.961 . S
C855 H871 0.961 . S
C856 C857 1.370 . S
C856 C858 1.363 . S
C856 H872 0.931 . S
C857 C856 1.370 . S
C857 C861 1.408 . S
C858 C856 1.363 . S
C858 C859 1.370 . S
C858 C862 1.524 . S
C859 C851 1.503 . S
C859 C858 1.370 . S
C859 C860 1.403 . S
C860 C859 1.403 . S
C860 C861 1.404 . S
C860 C863 1.539 . S
C861 C857 1.408 . S
C861 C860 1.404 . S
C861 H873 0.930 . S
C862 C858 1.524 . S
C862 H874 0.956 . S
C862 H875 0.961 . S
C862 H876 0.961 . S
C863 C860 1.539 . S
C863 H877 0.958 . S
C863 H878 0.961 . S
C863 H879 0.960 . S
H864 C848 0.931 . S
H865 C853 0.929 1_556 S
H866 C854 0.960 . S
H867 C854 0.962 . S
H868 C854 0.960 . S
H869 C855 0.961 . S
H870 C855 0.961 . S
H871 C855 0.961 . S
H872 C856 0.931 . S
H873 C861 0.930 . S
H874 C862 0.956 . S
H875 C862 0.961 . S
H876 C862 0.961 . S
H877 C863 0.958 . S
H878 C863 0.961 . S
H879 C863 0.960 . S
C880 C881 1.391 . S
C880 C882 1.394 . S
C880 H896 0.931 . S
C881 C880 1.391 . S
C881 C885 1.376 . S
C882 C880 1.394 . S
C882 C883 1.369 . S
C882 C886 1.531 . S
C883 C882 1.369 . S
C883 C884 1.410 . S
C883 C891 1.503 . S
C884 C883 1.410 . S
C884 C885 1.392 . S
C884 C887 1.511 . S
C885 C881 1.376 . S
C885 C884 1.392 . S
C885 H897 0.929 . S
C886 C882 1.531 . S
C886 H898 0.960 . S
C886 H899 0.962 . S
C886 H900 0.960 . S
C887 C884 1.511 . S
C887 H901 0.961 . S
C887 H902 0.961 . S
C887 H903 0.961 . S
C888 C889 1.370 . S
C888 C890 1.363 . S
C888 H904 0.931 . S
C889 C888 1.370 . S
C889 C893 1.408 . S
C890 C888 1.363 . S
C890 C891 1.370 . S
C890 C894 1.524 . S
C891 C883 1.503 . S
C891 C890 1.370 . S
C891 C892 1.403 . S
C892 C891 1.403 . S
C892 C893 1.404 . S
C892 C895 1.539 . S
C893 C889 1.408 . S
C893 C892 1.404 . S
C893 H905 0.930 . S
C894 C890 1.524 . S
C894 H906 0.956 . S
C894 H907 0.961 . S
C894 H908 0.961 . S
C895 C892 1.539 . S
C895 H909 0.958 . S
C895 H910 0.961 . S
C895 H911 0.960 . S
H896 C880 0.931 . S
H897 C885 0.929 . S
H898 C886 0.960 . S
H899 C886 0.962 . S
H900 C886 0.960 . S
H901 C887 0.961 . S
H902 C887 0.961 . S
H903 C887 0.961 . S
H904 C888 0.931 . S
H905 C893 0.930 . S
H906 C894 0.956 . S
H907 C894 0.961 . S
H908 C894 0.961 . S
H909 C895 0.958 . S
H910 C895 0.961 . S
H911 C895 0.960 . S
C912 C913 1.391 . S
C912 C914 1.394 1_554 S
C912 H928 0.931 . S
C913 C912 1.391 . S
C913 C917 1.376 1_554 S
C914 C912 1.394 1_556 S
C914 C915 1.369 . S
C914 C918 1.531 . S
C915 C914 1.369 . S
C915 C916 1.410 . S
C915 C923 1.503 . S
C916 C915 1.410 . S
C916 C917 1.392 . S
C916 C919 1.511 . S
C917 C913 1.376 1_556 S
C917 C916 1.392 . S
C917 H929 0.929 . S
C918 C914 1.531 . S
C918 H930 0.960 . S
C918 H931 0.962 . S
C918 H932 0.960 . S
C919 C916 1.511 . S
C919 H933 0.961 . S
C919 H934 0.961 . S
C919 H935 0.961 . S
C920 C921 1.370 . S
C920 C922 1.363 . S
C920 H936 0.931 . S
C921 C920 1.370 . S
C921 C925 1.408 . S
C922 C920 1.363 . S
C922 C923 1.370 . S
C922 C926 1.524 . S
C923 C915 1.503 . S
C923 C922 1.370 . S
C923 C924 1.403 . S
C924 C923 1.403 . S
C924 C925 1.404 . S
C924 C927 1.539 . S
C925 C921 1.408 . S
C925 C924 1.404 . S
C925 H937 0.930 . S
C926 C922 1.524 . S
C926 H938 0.956 . S
C926 H939 0.961 . S
C926 H940 0.961 . S
C927 C924 1.539 . S
C927 H941 0.958 . S
C927 H942 0.961 . S
C927 H943 0.960 . S
H928 C912 0.931 . S
H929 C917 0.929 . S
H930 C918 0.960 . S
H931 C918 0.962 . S
H932 C918 0.960 . S
H933 C919 0.961 . S
H934 C919 0.961 . S
H935 C919 0.961 . S
H936 C920 0.931 . S
H937 C925 0.930 . S
H938 C926 0.956 . S
H939 C926 0.961 . S
H940 C926 0.961 . S
H941 C927 0.958 . S
H942 C927 0.961 . S
H943 C927 0.960 . S
C944 C945 1.391 . S
C944 C946 1.394 . S
C944 H960 0.931 . S
C945 C944 1.391 . S
C945 C949 1.376 . S
C946 C944 1.394 . S
C946 C947 1.369 . S
C946 C950 1.531 . S
C947 C946 1.369 . S
C947 C948 1.410 . S
C947 C955 1.503 . S
C948 C947 1.410 . S
C948 C949 1.392 . S
C948 C951 1.511 . S
C949 C945 1.376 . S
C949 C948 1.392 . S
C949 H961 0.929 . S
C950 C946 1.531 . S
C950 H962 0.960 . S
C950 H963 0.962 . S
C950 H964 0.960 . S
C951 C948 1.511 . S
C951 H965 0.961 . S
C951 H966 0.961 . S
C951 H967 0.961 . S
C952 C953 1.370 . S
C952 C954 1.363 . S
C952 H968 0.931 . S
C953 C952 1.370 . S
C953 C957 1.408 . S
C954 C952 1.363 . S
C954 C955 1.370 . S
C954 C958 1.524 . S
C955 C947 1.503 . S
C955 C954 1.370 . S
C955 C956 1.403 . S
C956 C955 1.403 . S
C956 C957 1.404 . S
C956 C959 1.539 . S
C957 C953 1.408 . S
C957 C956 1.404 . S
C957 H969 0.930 . S
C958 C954 1.524 . S
C958 H970 0.956 . S
C958 H971 0.961 . S
C958 H972 0.961 . S
C959 C956 1.539 . S
C959 H973 0.958 . S
C959 H974 0.961 . S
C959 H975 0.960 . S
H960 C944 0.931 . S
H961 C949 0.929 . S
H962 C950 0.960 . S
H963 C950 0.962 . S
H964 C950 0.960 . S
H965 C951 0.961 . S
H966 C951 0.961 . S
H967 C951 0.961 . S
H968 C952 0.931 . S
H969 C957 0.930 . S
H970 C958 0.956 . S
H971 C958 0.961 . S
H972 C958 0.961 . S
H973 C959 0.958 . S
H974 C959 0.961 . S
H975 C959 0.960 . S
C976 C977 1.391 . S
C976 C978 1.394 1_554 S
C976 H992 0.931 . S
C977 C976 1.391 . S
C977 C981 1.376 1_554 S
C978 C976 1.394 1_556 S
C978 C979 1.369 . S
C978 C982 1.531 . S
C979 C978 1.369 . S
C979 C980 1.410 . S
C979 C987 1.503 . S
C980 C979 1.410 . S
C980 C981 1.392 . S
C980 C983 1.511 . S
C981 C977 1.376 1_556 S
C981 C980 1.392 . S
C981 H993 0.929 . S
C982 C978 1.531 . S
C982 H994 0.960 . S
C982 H995 0.962 . S
C982 H996 0.960 . S
C983 C980 1.511 . S
C983 H997 0.961 . S
C983 H998 0.961 . S
C983 H999 0.961 . S
C984 C985 1.370 . S
C984 C986 1.363 . S
C984 H1000 0.931 . S
C985 C984 1.370 . S
C985 C989 1.408 . S
C986 C984 1.363 . S
C986 C987 1.370 . S
C986 C990 1.524 . S
C987 C979 1.503 . S
C987 C986 1.370 . S
C987 C988 1.403 . S
C988 C987 1.403 . S
C988 C989 1.404 . S
C988 C991 1.539 . S
C989 C985 1.408 . S
C989 C988 1.404 . S
C989 H1001 0.930 . S
C990 C986 1.524 . S
C990 H1002 0.956 . S
C990 H1003 0.961 . S
C990 H1004 0.961 . S
C991 C988 1.539 . S
C991 H1005 0.958 . S
C991 H1006 0.961 . S
C991 H1007 0.960 . S
H992 C976 0.931 . S
H993 C981 0.929 . S
H994 C982 0.960 . S
H995 C982 0.962 . S
H996 C982 0.960 . S
H997 C983 0.961 . S
H998 C983 0.961 . S
H999 C983 0.961 . S
H1000 C984 0.931 . S
H1001 C989 0.930 . S
H1002 C990 0.956 . S
H1003 C990 0.961 . S
H1004 C990 0.961 . S
H1005 C991 0.958 . S
H1006 C991 0.961 . S
H1007 C991 0.960 . S
C1008 C1009 1.391 . S
C1008 C1010 1.394 . S
C1008 H1024 0.931 . S
C1009 C1008 1.391 . S
C1009 C1013 1.376 . S
C1010 C1008 1.394 . S
C1010 C1011 1.369 . S
C1010 C1014 1.531 . S
C1011 C1010 1.369 . S
C1011 C1012 1.410 . S
C1011 C1019 1.503 . S
C1012 C1011 1.410 . S
C1012 C1013 1.392 . S
C1012 C1015 1.511 . S
C1013 C1009 1.376 . S
C1013 C1012 1.392 . S
C1013 H1025 0.929 . S
C1014 C1010 1.531 . S
C1014 H1026 0.960 . S
C1014 H1027 0.962 . S
C1014 H1028 0.960 . S
C1015 C1012 1.511 . S
C1015 H1029 0.961 . S
C1015 H1030 0.961 . S
C1015 H1031 0.961 . S
C1016 C1017 1.370 . S
C1016 C1018 1.363 . S
C1016 H1032 0.931 . S
C1017 C1016 1.370 . S
C1017 C1021 1.408 . S
C1018 C1016 1.363 . S
C1018 C1019 1.370 . S
C1018 C1022 1.524 . S
C1019 C1011 1.503 . S
C1019 C1018 1.370 . S
C1019 C1020 1.403 . S
C1020 C1019 1.403 . S
C1020 C1021 1.404 . S
C1020 C1023 1.539 . S
C1021 C1017 1.408 . S
C1021 C1020 1.404 . S
C1021 H1033 0.930 . S
C1022 C1018 1.524 . S
C1022 H1034 0.956 . S
C1022 H1035 0.961 . S
C1022 H1036 0.961 . S
C1023 C1020 1.539 . S
C1023 H1037 0.958 . S
C1023 H1038 0.961 . S
C1023 H1039 0.960 . S
H1024 C1008 0.931 . S
H1025 C1013 0.929 . S
H1026 C1014 0.960 . S
H1027 C1014 0.962 . S
H1028 C1014 0.960 . S
H1029 C1015 0.961 . S
H1030 C1015 0.961 . S
H1031 C1015 0.961 . S
H1032 C1016 0.931 . S
H1033 C1021 0.930 . S
H1034 C1022 0.956 . S
H1035 C1022 0.961 . S
H1036 C1022 0.961 . S
H1037 C1023 0.958 . S
H1038 C1023 0.961 . S
H1039 C1023 0.960 . S
C1040 C1041 1.391 1_554 S
C1040 C1042 1.394 . S
C1040 H1056 0.931 . S
C1041 C1040 1.391 1_556 S
C1041 C1045 1.383 . S
C1042 C1040 1.394 . S
C1042 C1043 1.369 . S
C1042 C1046 1.531 . S
C1043 C1042 1.369 . S
C1043 C1044 1.410 . S
C1043 C1051 1.503 . S
C1044 C1043 1.410 . S
C1044 C1045 1.357 1_554 S
C1044 C1047 1.511 . S
C1045 C1041 1.383 . S
C1045 C1044 1.357 1_556 S
C1045 H1057 0.959 . S
C1046 C1042 1.531 . S
C1046 H1058 0.960 . S
C1046 H1059 0.962 . S
C1046 H1060 0.960 . S
C1047 C1044 1.511 . S
C1047 H1061 0.961 . S
C1047 H1062 0.961 . S
C1047 H1063 0.961 . S
C1048 C1049 1.370 . S
C1048 C1050 1.363 . S
C1048 H1064 0.931 . S
C1049 C1048 1.370 . S
C1049 C1053 1.408 . S
C1050 C1048 1.363 . S
C1050 C1051 1.370 . S
C1050 C1054 1.524 . S
C1051 C1043 1.503 . S
C1051 C1050 1.370 . S
C1051 C1052 1.403 . S
C1052 C1051 1.403 . S
C1052 C1053 1.404 . S
C1052 C1055 1.539 . S
C1053 C1049 1.408 . S
C1053 C1052 1.404 . S
C1053 H1065 0.930 . S
C1054 C1050 1.524 . S
C1054 H1066 0.956 . S
C1054 H1067 0.961 . S
C1054 H1068 0.961 . S
C1055 C1052 1.539 . S
C1055 H1069 0.958 . S
C1055 H1070 0.961 . S
C1055 H1071 0.960 . S
H1056 C1040 0.931 . S
H1057 C1045 0.959 . S
H1058 C1046 0.960 . S
H1059 C1046 0.962 . S
H1060 C1046 0.960 . S
H1061 C1047 0.961 . S
H1062 C1047 0.961 . S
H1063 C1047 0.961 . S
H1064 C1048 0.931 . S
H1065 C1053 0.930 . S
H1066 C1054 0.956 . S
H1067 C1054 0.961 . S
H1068 C1054 0.961 . S
H1069 C1055 0.958 . S
H1070 C1055 0.961 . S
H1071 C1055 0.960 . S
C1072 C1073 1.391 . S
C1072 C1074 1.394 . S
C1072 H1088 0.931 . S
C1073 C1072 1.391 . S
C1073 C1077 1.376 . S
C1074 C1072 1.394 . S
C1074 C1075 1.369 . S
C1074 C1078 1.531 . S
C1075 C1074 1.369 . S
C1075 C1076 1.410 . S
C1075 C1083 1.503 . S
C1076 C1075 1.410 . S
C1076 C1077 1.392 . S
C1076 C1079 1.511 . S
C1077 C1073 1.376 . S
C1077 C1076 1.392 . S
C1077 H1089 0.929 . S
C1078 C1074 1.531 . S
C1078 H1090 0.960 . S
C1078 H1091 0.962 . S
C1078 H1092 0.960 . S
C1079 C1076 1.511 . S
C1079 H1093 0.961 . S
C1079 H1094 0.961 . S
C1079 H1095 0.961 . S
C1080 C1081 1.370 . S
C1080 C1082 1.363 . S
C1080 H1096 0.931 . S
C1081 C1080 1.370 . S
C1081 C1085 1.408 . S
C1082 C1080 1.363 . S
C1082 C1083 1.370 . S
C1082 C1086 1.524 . S
C1083 C1075 1.503 . S
C1083 C1082 1.370 . S
C1083 C1084 1.403 . S
C1084 C1083 1.403 . S
C1084 C1085 1.404 . S
C1084 C1087 1.539 . S
C1085 C1081 1.408 . S
C1085 C1084 1.404 . S
C1085 H1097 0.930 . S
C1086 C1082 1.524 . S
C1086 H1098 0.956 . S
C1086 H1099 0.961 . S
C1086 H1100 0.961 . S
C1087 C1084 1.539 . S
C1087 H1101 0.958 . S
C1087 H1102 0.961 . S
C1087 H1103 0.960 . S
H1088 C1072 0.931 . S
H1089 C1077 0.929 . S
H1090 C1078 0.960 . S
H1091 C1078 0.962 . S
H1092 C1078 0.960 . S
H1093 C1079 0.961 . S
H1094 C1079 0.961 . S
H1095 C1079 0.961 . S
H1096 C1080 0.931 . S
H1097 C1085 0.930 . S
H1098 C1086 0.956 . S
H1099 C1086 0.961 . S
H1100 C1086 0.961 . S
H1101 C1087 0.958 . S
H1102 C1087 0.961 . S
H1103 C1087 0.960 . S
C1104 C1105 1.391 . S
C1104 C1106 1.394 . S
C1104 H1120 0.931 . S
C1105 C1104 1.391 . S
C1105 C1109 1.376 . S
C1106 C1104 1.394 . S
C1106 C1107 1.369 . S
C1106 C1110 1.531 . S
C1107 C1106 1.369 . S
C1107 C1108 1.410 . S
C1107 C1115 1.503 . S
C1108 C1107 1.410 . S
C1108 C1109 1.392 . S
C1108 C1111 1.511 . S
C1109 C1105 1.376 . S
C1109 C1108 1.392 . S
C1109 H1121 0.929 . S
C1110 C1106 1.531 . S
C1110 H1122 0.960 . S
C1110 H1123 0.962 . S
C1110 H1124 0.960 . S
C1111 C1108 1.511 . S
C1111 H1125 0.961 . S
C1111 H1126 0.961 . S
C1111 H1127 0.961 . S
C1112 C1113 1.370 . S
C1112 C1114 1.363 . S
C1112 H1128 0.931 . S
C1113 C1112 1.370 . S
C1113 C1117 1.408 . S
C1114 C1112 1.363 . S
C1114 C1115 1.370 . S
C1114 C1118 1.524 . S
C1115 C1107 1.503 . S
C1115 C1114 1.370 . S
C1115 C1116 1.403 . S
C1116 C1115 1.403 . S
C1116 C1117 1.404 . S
C1116 C1119 1.539 . S
C1117 C1113 1.408 . S
C1117 C1116 1.404 . S
C1117 H1129 0.930 . S
C1118 C1114 1.524 . S
C1118 H1130 0.956 . S
C1118 H1131 0.961 . S
C1118 H1132 0.961 . S
C1119 C1116 1.539 . S
C1119 H1133 0.958 . S
C1119 H1134 0.961 1_455 S
C1119 H1135 0.960 . S
H1120 C1104 0.931 . S
H1121 C1109 0.929 . S
H1122 C1110 0.960 . S
H1123 C1110 0.962 . S
H1124 C1110 0.960 . S
H1125 C1111 0.961 . S
H1126 C1111 0.961 . S
H1127 C1111 0.961 . S
H1128 C1112 0.931 . S
H1129 C1117 0.930 . S
H1130 C1118 0.956 . S
H1131 C1118 0.961 . S
H1132 C1118 0.961 . S
H1133 C1119 0.958 . S
H1134 C1119 0.961 1_655 S
H1135 C1119 0.960 . S
C1136 C1137 1.391 . S
C1136 C1138 1.394 . S
C1136 H1152 0.931 . S
C1137 C1136 1.391 . S
C1137 C1141 1.376 . S
C1138 C1136 1.394 . S
C1138 C1139 1.369 . S
C1138 C1142 1.531 . S
C1139 C1138 1.369 . S
C1139 C1140 1.410 . S
C1139 C1147 1.503 . S
C1140 C1139 1.410 . S
C1140 C1141 1.392 . S
C1140 C1143 1.511 . S
C1141 C1137 1.376 . S
C1141 C1140 1.392 . S
C1141 H1153 0.929 . S
C1142 C1138 1.531 . S
C1142 H1154 0.960 . S
C1142 H1155 0.962 . S
C1142 H1156 0.960 . S
C1143 C1140 1.511 . S
C1143 H1157 0.961 . S
C1143 H1158 0.961 . S
C1143 H1159 0.961 . S
C1144 C1145 1.370 . S
C1144 C1146 1.363 . S
C1144 H1160 0.931 . S
C1145 C1144 1.370 . S
C1145 C1149 1.408 . S
C1146 C1144 1.363 . S
C1146 C1147 1.370 . S
C1146 C1150 1.524 . S
C1147 C1139 1.503 . S
C1147 C1146 1.370 . S
C1147 C1148 1.403 . S
C1148 C1147 1.403 . S
C1148 C1149 1.404 . S
C1148 C1151 1.539 . S
C1149 C1145 1.408 . S
C1149 C1148 1.404 . S
C1149 H1161 0.930 . S
C1150 C1146 1.524 . S
C1150 H1162 0.956 . S
C1150 H1163 0.961 . S
C1150 H1164 0.961 . S
C1151 C1148 1.539 . S
C1151 H1165 0.958 . S
C1151 H1166 0.961 . S
C1151 H1167 0.960 . S
H1152 C1136 0.931 . S
H1153 C1141 0.929 . S
H1154 C1142 0.960 . S
H1155 C1142 0.962 . S
H1156 C1142 0.960 . S
H1157 C1143 0.961 . S
H1158 C1143 0.961 . S
H1159 C1143 0.961 . S
H1160 C1144 0.931 . S
H1161 C1149 0.930 . S
H1162 C1150 0.956 . S
H1163 C1150 0.961 . S
H1164 C1150 0.961 . S
H1165 C1151 0.958 . S
H1166 C1151 0.961 . S
H1167 C1151 0.960 . S
C1168 C1169 1.391 . S
C1168 C1170 1.394 . S
C1168 H1184 0.931 . S
C1169 C1168 1.391 . S
C1169 C1173 1.376 . S
C1170 C1168 1.394 . S
C1170 C1171 1.369 . S
C1170 C1174 1.531 . S
C1171 C1170 1.369 . S
C1171 C1172 1.410 . S
C1171 C1179 1.503 . S
C1172 C1171 1.410 . S
C1172 C1173 1.392 . S
C1172 C1175 1.511 . S
C1173 C1169 1.376 . S
C1173 C1172 1.392 . S
C1173 H1185 0.929 . S
C1174 C1170 1.531 . S
C1174 H1186 0.960 . S
C1174 H1187 0.962 . S
C1174 H1188 0.960 . S
C1175 C1172 1.511 . S
C1175 H1189 0.961 . S
C1175 H1190 0.961 . S
C1175 H1191 0.961 . S
C1176 C1177 1.370 . S
C1176 C1178 1.363 . S
C1176 H1192 0.931 . S
C1177 C1176 1.370 . S
C1177 C1181 1.408 . S
C1178 C1176 1.363 . S
C1178 C1179 1.370 . S
C1178 C1182 1.524 . S
C1179 C1171 1.503 . S
C1179 C1178 1.370 . S
C1179 C1180 1.403 . S
C1180 C1179 1.403 . S
C1180 C1181 1.404 . S
C1180 C1183 1.539 . S
C1181 C1177 1.408 . S
C1181 C1180 1.404 . S
C1181 H1193 0.930 . S
C1182 C1178 1.524 . S
C1182 H1194 0.956 . S
C1182 H1195 0.961 . S
C1182 H1196 0.961 . S
C1183 C1180 1.539 . S
C1183 H1197 0.958 . S
C1183 H1198 0.961 . S
C1183 H1199 0.960 . S
H1184 C1168 0.931 . S
H1185 C1173 0.929 . S
H1186 C1174 0.960 . S
H1187 C1174 0.962 . S
H1188 C1174 0.960 . S
H1189 C1175 0.961 . S
H1190 C1175 0.961 . S
H1191 C1175 0.961 . S
H1192 C1176 0.931 . S
H1193 C1181 0.930 . S
H1194 C1182 0.956 . S
H1195 C1182 0.961 . S
H1196 C1182 0.961 . S
H1197 C1183 0.958 . S
H1198 C1183 0.961 . S
H1199 C1183 0.960 . S
C1200 C1201 1.391 . S
C1200 C1202 1.394 . S
C1200 H1216 0.931 . S
C1201 C1200 1.391 . S
C1201 C1205 1.376 . S
C1202 C1200 1.394 . S
C1202 C1203 1.369 . S
C1202 C1206 1.531 . S
C1203 C1202 1.369 . S
C1203 C1204 1.410 . S
C1203 C1211 1.503 . S
C1204 C1203 1.410 . S
C1204 C1205 1.392 . S
C1204 C1207 1.511 . S
C1205 C1201 1.376 . S
C1205 C1204 1.392 . S
C1205 H1217 0.929 . S
C1206 C1202 1.531 . S
C1206 H1218 0.960 . S
C1206 H1219 0.962 . S
C1206 H1220 0.960 . S
C1207 C1204 1.511 . S
C1207 H1221 0.961 . S
C1207 H1222 0.961 . S
C1207 H1223 0.961 . S
C1208 C1209 1.370 . S
C1208 C1210 1.363 . S
C1208 H1224 0.931 . S
C1209 C1208 1.370 . S
C1209 C1213 1.408 . S
C1210 C1208 1.363 . S
C1210 C1211 1.370 . S
C1210 C1214 1.524 . S
C1211 C1203 1.503 . S
C1211 C1210 1.370 . S
C1211 C1212 1.403 . S
C1212 C1211 1.403 . S
C1212 C1213 1.404 . S
C1212 C1215 1.539 . S
C1213 C1209 1.408 . S
C1213 C1212 1.404 . S
C1213 H1225 0.930 . S
C1214 C1210 1.524 . S
C1214 H1226 0.956 . S
C1214 H1227 0.961 . S
C1214 H1228 0.961 . S
C1215 C1212 1.539 . S
C1215 H1229 0.958 . S
C1215 H1230 0.961 . S
C1215 H1231 0.960 . S
H1216 C1200 0.931 . S
H1217 C1205 0.929 . S
H1218 C1206 0.960 . S
H1219 C1206 0.962 . S
H1220 C1206 0.960 . S
H1221 C1207 0.961 . S
H1222 C1207 0.961 . S
H1223 C1207 0.961 . S
H1224 C1208 0.931 . S
H1225 C1213 0.930 . S
H1226 C1214 0.956 . S
H1227 C1214 0.961 . S
H1228 C1214 0.961 . S
H1229 C1215 0.958 . S
H1230 C1215 0.961 . S
H1231 C1215 0.960 . S
C1232 C1233 1.391 . S
C1232 C1234 1.394 . S
C1232 H1248 0.931 . S
C1233 C1232 1.391 . S
C1233 C1237 1.376 . S
C1234 C1232 1.394 . S
C1234 C1235 1.369 . S
C1234 C1238 1.531 . S
C1235 C1234 1.369 . S
C1235 C1236 1.410 . S
C1235 C1243 1.503 . S
C1236 C1235 1.410 . S
C1236 C1237 1.392 . S
C1236 C1239 1.511 . S
C1237 C1233 1.376 . S
C1237 C1236 1.392 . S
C1237 H1249 0.929 . S
C1238 C1234 1.531 . S
C1238 H1250 0.960 . S
C1238 H1251 0.962 . S
C1238 H1252 0.960 . S
C1239 C1236 1.511 . S
C1239 H1253 0.961 . S
C1239 H1254 0.961 . S
C1239 H1255 0.961 . S
C1240 C1241 1.370 . S
C1240 C1242 1.363 . S
C1240 H1256 0.931 . S
C1241 C1240 1.370 . S
C1241 C1245 1.408 . S
C1242 C1240 1.363 . S
C1242 C1243 1.370 . S
C1242 C1246 1.524 . S
C1243 C1235 1.503 . S
C1243 C1242 1.370 . S
C1243 C1244 1.403 . S
C1244 C1243 1.403 . S
C1244 C1245 1.404 . S
C1244 C1247 1.539 . S
C1245 C1241 1.408 . S
C1245 C1244 1.404 . S
C1245 H1257 0.930 1_655 S
C1246 C1242 1.524 . S
C1246 H1258 0.956 . S
C1246 H1259 0.961 . S
C1246 H1260 0.961 . S
C1247 C1244 1.539 . S
C1247 H1261 0.958 1_655 S
C1247 H1262 0.961 1_655 S
C1247 H1263 0.960 . S
H1248 C1232 0.931 . S
H1249 C1237 0.929 . S
H1250 C1238 0.960 . S
H1251 C1238 0.962 . S
H1252 C1238 0.960 . S
H1253 C1239 0.961 . S
H1254 C1239 0.961 . S
H1255 C1239 0.961 . S
H1256 C1240 0.931 . S
H1257 C1245 0.930 1_455 S
H1258 C1246 0.956 . S
H1259 C1246 0.961 . S
H1260 C1246 0.961 . S
H1261 C1247 0.958 1_455 S
H1262 C1247 0.961 1_455 S
H1263 C1247 0.960 . S
C1264 C1265 1.391 . S
C1264 C1266 1.394 . S
C1264 H1280 0.931 . S
C1265 C1264 1.391 . S
C1265 C1269 1.376 . S
C1266 C1264 1.394 . S
C1266 C1267 1.369 . S
C1266 C1270 1.531 . S
C1267 C1266 1.369 . S
C1267 C1268 1.410 . S
C1267 C1275 1.503 . S
C1268 C1267 1.410 . S
C1268 C1269 1.392 . S
C1268 C1271 1.511 . S
C1269 C1265 1.376 . S
C1269 C1268 1.392 . S
C1269 H1281 0.929 . S
C1270 C1266 1.531 . S
C1270 H1282 0.960 . S
C1270 H1283 0.962 . S
C1270 H1284 0.960 . S
C1271 C1268 1.511 . S
C1271 H1285 0.961 . S
C1271 H1286 0.961 . S
C1271 H1287 0.961 . S
C1272 C1273 1.370 . S
C1272 C1274 1.363 . S
C1272 H1288 0.931 . S
C1273 C1272 1.370 . S
C1273 C1277 1.408 . S
C1274 C1272 1.363 . S
C1274 C1275 1.370 . S
C1274 C1278 1.524 . S
C1275 C1267 1.503 . S
C1275 C1274 1.370 . S
C1275 C1276 1.403 . S
C1276 C1275 1.403 . S
C1276 C1277 1.404 . S
C1276 C1279 1.539 . S
C1277 C1273 1.408 . S
C1277 C1276 1.404 . S
C1277 H1289 0.930 . S
C1278 C1274 1.524 . S
C1278 H1290 0.956 . S
C1278 H1291 0.961 . S
C1278 H1292 0.961 . S
C1279 C1276 1.539 . S
C1279 H1293 0.958 . S
C1279 H1294 0.961 . S
C1279 H1295 0.960 . S
H1280 C1264 0.931 . S
H1281 C1269 0.929 . S
H1282 C1270 0.960 . S
H1283 C1270 0.962 . S
H1284 C1270 0.960 . S
H1285 C1271 0.961 . S
H1286 C1271 0.961 . S
H1287 C1271 0.961 . S
H1288 C1272 0.931 . S
H1289 C1277 0.930 . S
H1290 C1278 0.956 . S
H1291 C1278 0.961 . S
H1292 C1278 0.961 . S
H1293 C1279 0.958 . S
H1294 C1279 0.961 . S
H1295 C1279 0.960 . S
C1296 C1297 1.391 . S
C1296 C1298 1.394 . S
C1296 H1312 0.931 . S
C1297 C1296 1.391 . S
C1297 C1301 1.376 . S
C1298 C1296 1.394 . S
C1298 C1299 1.369 . S
C1298 C1302 1.531 . S
C1299 C1298 1.369 . S
C1299 C1300 1.410 . S
C1299 C1307 1.503 . S
C1300 C1299 1.410 . S
C1300 C1301 1.392 . S
C1300 C1303 1.511 . S
C1301 C1297 1.376 . S
C1301 C1300 1.392 . S
C1301 H1313 0.929 . S
C1302 C1298 1.531 . S
C1302 H1314 0.960 . S
C1302 H1315 0.962 . S
C1302 H1316 0.960 . S
C1303 C1300 1.511 . S
C1303 H1317 0.961 . S
C1303 H1318 0.961 . S
C1303 H1319 0.961 . S
C1304 C1305 1.370 . S
C1304 C1306 1.363 . S
C1304 H1320 0.931 . S
C1305 C1304 1.370 . S
C1305 C1309 1.408 . S
C1306 C1304 1.363 . S
C1306 C1307 1.370 . S
C1306 C1310 1.524 . S
C1307 C1299 1.503 . S
C1307 C1306 1.370 . S
C1307 C1308 1.403 . S
C1308 C1307 1.403 . S
C1308 C1309 1.404 . S
C1308 C1311 1.539 . S
C1309 C1305 1.408 . S
C1309 C1308 1.404 . S
C1309 H1321 0.930 . S
C1310 C1306 1.524 . S
C1310 H1322 0.956 . S
C1310 H1323 0.961 . S
C1310 H1324 0.961 . S
C1311 C1308 1.539 . S
C1311 H1325 0.958 . S
C1311 H1326 0.961 . S
C1311 H1327 0.960 . S
H1312 C1296 0.931 . S
H1313 C1301 0.929 . S
H1314 C1302 0.960 . S
H1315 C1302 0.962 . S
H1316 C1302 0.960 . S
H1317 C1303 0.961 . S
H1318 C1303 0.961 . S
H1319 C1303 0.961 . S
H1320 C1304 0.931 . S
H1321 C1309 0.930 . S
H1322 C1310 0.956 . S
H1323 C1310 0.961 . S
H1324 C1310 0.961 . S
H1325 C1311 0.958 . S
H1326 C1311 0.961 . S
H1327 C1311 0.960 . S
C1328 C1329 1.391 . S
C1328 C1330 1.394 . S
C1328 H1344 0.931 . S
C1329 C1328 1.391 . S
C1329 C1333 1.376 . S
C1330 C1328 1.394 . S
C1330 C1331 1.369 . S
C1330 C1334 1.531 . S
C1331 C1330 1.369 . S
C1331 C1332 1.410 . S
C1331 C1339 1.503 . S
C1332 C1331 1.410 . S
C1332 C1333 1.392 . S
C1332 C1335 1.511 . S
C1333 C1329 1.376 . S
C1333 C1332 1.392 . S
C1333 H1345 0.929 . S
C1334 C1330 1.531 . S
C1334 H1346 0.960 . S
C1334 H1347 0.962 . S
C1334 H1348 0.960 . S
C1335 C1332 1.511 . S
C1335 H1349 0.961 . S
C1335 H1350 0.961 . S
C1335 H1351 0.961 . S
C1336 C1337 1.370 . S
C1336 C1338 1.363 . S
C1336 H1352 0.931 . S
C1337 C1336 1.370 . S
C1337 C1341 1.408 . S
C1338 C1336 1.363 . S
C1338 C1339 1.370 . S
C1338 C1342 1.524 . S
C1339 C1331 1.503 . S
C1339 C1338 1.370 . S
C1339 C1340 1.403 . S
C1340 C1339 1.403 . S
C1340 C1341 1.404 . S
C1340 C1343 1.539 . S
C1341 C1337 1.408 . S
C1341 C1340 1.404 . S
C1341 H1353 0.930 . S
C1342 C1338 1.524 . S
C1342 H1354 0.956 . S
C1342 H1355 0.961 . S
C1342 H1356 0.961 . S
C1343 C1340 1.539 . S
C1343 H1357 0.958 . S
C1343 H1358 0.961 . S
C1343 H1359 0.960 . S
H1344 C1328 0.931 . S
H1345 C1333 0.929 . S
H1346 C1334 0.960 . S
H1347 C1334 0.962 . S
H1348 C1334 0.960 . S
H1349 C1335 0.961 . S
H1350 C1335 0.961 . S
H1351 C1335 0.961 . S
H1352 C1336 0.931 . S
H1353 C1341 0.930 . S
H1354 C1342 0.956 . S
H1355 C1342 0.961 . S
H1356 C1342 0.961 . S
H1357 C1343 0.958 . S
H1358 C1343 0.961 . S
H1359 C1343 0.960 . S
C593 C221 1.451 . S
C601 C330 1.475 . S
C633 C414 1.477 . S
C625 C241 1.473 . S
C665 C407 1.478 . S
C657 C157 1.476 . S
C689 C177 1.464 . S
C697 C323 1.479 . S
C729 C487 1.479 . S
C721 C93 1.466 . S
C761 C571 1.473 . S
C753 C113 1.492 . S
C785 C29 1.430 . S
C793 C564 1.479 . S
C817 C49 1.483 . S
C825 C480 1.487 . S
C857 C314 1.336 . S
C849 C61 1.493 . S
C889 C398 1.324 . S
C881 C17 1.491 . S
C921 C409 1.390 . S
C913 C125 1.503 . S
C953 C325 1.393 . S
C945 C81 1.461 . S
C985 C493 1.343 . S
C977 C189 1.444 . S
C1009 C145 1.497 . S
C1017 C577 1.341 . S
C1049 C566 1.410 . S
C1041 C253 1.488 . S
C1073 C209 1.503 . S
C1081 C482 1.385 . S
C1113 C312 1.559 . S
C1105 C23 1.535 . S
C1145 C396 1.574 . S
C1137 C55 1.536 . S
C1169 C87 1.527 . S
C1177 C403 1.542 . S
C1209 C319 1.556 . S
C1201 C119 1.560 . S
C1241 C491 1.557 . S
C1233 C151 1.536 . S
C1265 C183 1.513 . S
C1273 C575 1.567 . S
C1297 C215 1.541 . S
C1305 C582 1.546 . S
C1329 C247 1.512 . S
C1337 C498 1.545 . S
