# Generated by pormake.
# Topology cml, (3,6)-cn, num edge types: 1
# Building blocks:
#     Node 0, Type 0, BuildingBlock: BETDIP_clean_linker_0, # of connection points: 3
#     Node 1, Type 0, BuildingBlock: BETDIP_clean_linker_0, # of connection points: 3
#     Node 2, Type 0, BuildingBlock: BETDIP_clean_linker_0, # of connection points: 3
#     Node 3, Type 0, BuildingBlock: BETDIP_clean_linker_0, # of connection points: 3
#     Node 4, Type 0, BuildingBlock: BETDIP_clean_linker_0, # of connection points: 3
#     Node 5, Type 0, BuildingBlock: BETDIP_clean_linker_0, # of connection points: 3
#     Node 6, Type 0, BuildingBlock: BETDIP_clean_linker_0, # of connection points: 3
#     Node 7, Type 0, BuildingBlock: BETDIP_clean_linker_0, # of connection points: 3
#     Node 8, Type 1, BuildingBlock: IZENUY_clean_sbu_0, # of connection points: 6
#     Node 9, Type 1, BuildingBlock: IZENUY_clean_sbu_0, # of connection points: 6
#     Node 10, Type 1, BuildingBlock: IZENUY_clean_sbu_0, # of connection points: 6
#     Node 11, Type 1, BuildingBlock: IZENUY_clean_sbu_0, # of connection points: 6
#     Edge 12, Type (0, 1), BuildingBlock: KIFKEQ_clean_linker_1, # of connection points: 2
#     Edge 13, Type (0, 1), BuildingBlock: KIFKEQ_clean_linker_1, # of connection points: 2
#     Edge 14, Type (0, 1), BuildingBlock: KIFKEQ_clean_linker_1, # of connection points: 2
#     Edge 15, Type (0, 1), BuildingBlock: KIFKEQ_clean_linker_1, # of connection points: 2
#     Edge 16, Type (0, 1), BuildingBlock: KIFKEQ_clean_linker_1, # of connection points: 2
#     Edge 17, Type (0, 1), BuildingBlock: KIFKEQ_clean_linker_1, # of connection points: 2
#     Edge 18, Type (0, 1), BuildingBlock: KIFKEQ_clean_linker_1, # of connection points: 2
#     Edge 19, Type (0, 1), BuildingBlock: KIFKEQ_clean_linker_1, # of connection points: 2
#     Edge 20, Type (0, 1), BuildingBlock: KIFKEQ_clean_linker_1, # of connection points: 2
#     Edge 21, Type (0, 1), BuildingBlock: KIFKEQ_clean_linker_1, # of connection points: 2
#     Edge 22, Type (0, 1), BuildingBlock: KIFKEQ_clean_linker_1, # of connection points: 2
#     Edge 23, Type (0, 1), BuildingBlock: KIFKEQ_clean_linker_1, # of connection points: 2
#     Edge 24, Type (0, 1), BuildingBlock: KIFKEQ_clean_linker_1, # of connection points: 2
#     Edge 25, Type (0, 1), BuildingBlock: KIFKEQ_clean_linker_1, # of connection points: 2
#     Edge 26, Type (0, 1), BuildingBlock: KIFKEQ_clean_linker_1, # of connection points: 2
#     Edge 27, Type (0, 1), BuildingBlock: KIFKEQ_clean_linker_1, # of connection points: 2
#     Edge 28, Type (0, 1), BuildingBlock: KIFKEQ_clean_linker_1, # of connection points: 2
#     Edge 29, Type (0, 1), BuildingBlock: KIFKEQ_clean_linker_1, # of connection points: 2
#     Edge 30, Type (0, 1), BuildingBlock: KIFKEQ_clean_linker_1, # of connection points: 2
#     Edge 31, Type (0, 1), BuildingBlock: KIFKEQ_clean_linker_1, # of connection points: 2
#     Edge 32, Type (0, 1), BuildingBlock: KIFKEQ_clean_linker_1, # of connection points: 2
#     Edge 33, Type (0, 1), BuildingBlock: KIFKEQ_clean_linker_1, # of connection points: 2
#     Edge 34, Type (0, 1), BuildingBlock: KIFKEQ_clean_linker_1, # of connection points: 2
#     Edge 35, Type (0, 1), BuildingBlock: KIFKEQ_clean_linker_1, # of connection points: 2
# Relax obj value: 0.003
# Max RMSD: 0.067
# Mean RMSD: 0.052
data_MOF--net-cml--node1-IZENUY_clean_sbu_0--node2-BETDIP_clean_linker_0--edge1-KIFKEQ_clean_linker_1
_symmetry_space_group_name_H-M    P1
_symmetry_Int_Tables_number       1
_symmetry_cell_setting            triclinic
loop_
_symmetry_equiv_pos_as_xyz
'x, y, z'
_cell_length_a     37.854931
_cell_length_b     41.456303
_cell_length_c     37.239253
_cell_angle_alpha  90.021919
_cell_angle_beta   90.06893
_cell_angle_gamma 89.83678
loop_
_atom_site_label
_atom_site_type_symbol
_atom_site_fract_x
_atom_site_fract_y
_atom_site_fract_z
_atom_type_partial_charge
H0 H 0.27582 0.36346 0.05846 0.0
H1 H 0.26868 0.4245 0.96499 0.0
H2 H 0.34706 0.44291 0.04579 0.0
H3 H 0.22165 0.39699 0.95122 0.0
C4 C 0.22103 0.37452 0.96607 0.0
C5 C 0.28464 0.38427 0.04333 0.0
C6 C 0.31296 0.40271 0.05607 0.0
C7 C 0.26851 0.39159 0.01039 0.0
C8 C 0.28055 0.41839 0.99048 0.0
C9 C 0.30854 0.43749 0.00339 0.0
C10 C 0.32469 0.42915 0.03605 0.0
N11 N 0.24168 0.37041 0.99769 0.0
H12 H 0.72761 0.67102 0.5509 0.0
H13 H 0.71554 0.61926 0.45136 0.0
H14 H 0.65824 0.58946 0.54512 0.0
H15 H 0.76767 0.64041 0.43792 0.0
C16 C 0.77035 0.66291 0.45256 0.0
C17 C 0.7159 0.6515 0.53564 0.0
C18 C 0.69179 0.6307 0.55216 0.0
C19 C 0.72576 0.64688 0.49974 0.0
C20 C 0.70982 0.622 0.47962 0.0
C21 C 0.68501 0.60133 0.49568 0.0
C22 C 0.67687 0.60551 0.5322 0.0
N23 N 0.75115 0.6682 0.48482 0.0
H24 H 0.72441 0.3464 0.04951 0.0
H25 H 0.72431 0.4029 0.9525 0.0
H26 H 0.66387 0.43414 0.04373 0.0
H27 H 0.77947 0.38105 0.94749 0.0
C28 C 0.77665 0.3565 0.95724 0.0
C29 C 0.7156 0.36742 0.03466 0.0
C30 C 0.69304 0.38994 0.05098 0.0
C31 C 0.72797 0.37237 0.99965 0.0
C32 C 0.71607 0.39939 0.98004 0.0
C33 C 0.69311 0.42195 0.99593 0.0
C34 C 0.68214 0.4172 0.03153 0.0
N35 N 0.75212 0.34958 0.98502 0.0
H36 H 0.2795 0.65551 0.56119 0.0
H37 H 0.27553 0.60486 0.46022 0.0
H38 H 0.34713 0.5736 0.54293 0.0
H39 H 0.26731 0.66253 0.44356 0.0
C40 C 0.24587 0.66715 0.46229 0.0
C41 C 0.28834 0.63586 0.54418 0.0
C42 C 0.31531 0.61514 0.55602 0.0
C43 C 0.27437 0.63276 0.50945 0.0
C44 C 0.28648 0.60774 0.48692 0.0
C45 C 0.31205 0.58581 0.49941 0.0
C46 C 0.32649 0.58985 0.53376 0.0
N47 N 0.24821 0.65512 0.49794 0.0
H48 H 0.78579 0.85298 0.0545 0.0
H49 H 0.7942 0.90016 0.95194 0.0
H50 H 0.86135 0.92893 0.03921 0.0
H51 H 0.73643 0.88331 0.94741 0.0
C52 C 0.73692 0.85957 0.95975 0.0
C53 C 0.79803 0.87103 0.03758 0.0
C54 C 0.82486 0.89078 0.05142 0.0
C55 C 0.7862 0.87467 0.00213 0.0
C56 C 0.80206 0.89797 0.97978 0.0
C57 C 0.82952 0.91746 0.99299 0.0
C58 C 0.84029 0.91389 0.02889 0.0
N59 N 0.75939 0.85351 0.98959 0.0
H60 H 0.23214 0.16919 0.5517 0.0
H61 H 0.22096 0.11555 0.45322 0.0
H62 H 0.1637 0.08699 0.54755 0.0
H63 H 0.27234 0.13746 0.43879 0.0
C64 C 0.27493 0.16007 0.45322 0.0
C65 C 0.22089 0.1492 0.53683 0.0
C66 C 0.19687 0.12851 0.55363 0.0
C67 C 0.23095 0.14402 0.50107 0.0
C68 C 0.21523 0.1187 0.48143 0.0
C69 C 0.19047 0.09821 0.49786 0.0
C70 C 0.18228 0.10287 0.53428 0.0
N71 N 0.25608 0.16539 0.4857 0.0
H72 H 0.22791 0.84713 0.05313 0.0
H73 H 0.22654 0.90663 0.95844 0.0
H74 H 0.15991 0.93002 0.04816 0.0
H75 H 0.24466 0.85869 0.9329 0.0
C76 C 0.26343 0.84957 0.95253 0.0
C77 C 0.21792 0.86804 0.03887 0.0
C78 C 0.19138 0.88721 0.05427 0.0
C79 C 0.2306 0.87474 0.0043 0.0
C80 C 0.21696 0.90139 0.98515 0.0
C81 C 0.19085 0.92128 1.00055 0.0
C82 C 0.179 0.91424 0.03539 0.0
N83 N 0.25718 0.85428 0.98979 0.0
H84 H 0.79424 0.17263 0.54963 0.0
H85 H 0.7901 0.11299 0.45487 0.0
H86 H 0.86182 0.08971 0.54041 0.0
H87 H 0.76541 0.1568 0.43037 0.0
C88 C 0.7513 0.16958 0.45139 0.0
C89 C 0.80334 0.15174 0.53473 0.0
C90 C 0.83045 0.13234 0.54871 0.0
C91 C 0.78877 0.14527 0.50084 0.0
C92 C 0.8011 0.11845 0.48096 0.0
C93 C 0.8281 0.0986 0.49484 0.0
C94 C 0.84193 0.10551 0.52894 0.0
N95 N 0.76196 0.16641 0.48785 0.0
Fe96 Fe 0.00988 0.83221 0.32138 0.0
Fe97 Fe 0.00623 0.86766 0.39378 0.0
O98 O 0.00802 0.8687 0.34624 0.0
Fe99 Fe 0.00786 0.9061 0.3234 0.0
O100 O 0.96757 0.89586 0.2996 0.0
O101 O 0.98537 0.84786 0.28248 0.0
O102 O 0.96788 0.81929 0.33944 0.0
C103 C 0.9611 0.81658 0.37245 0.0
C104 C 0.05695 0.86848 0.28363 0.0
O105 O 0.98039 0.83015 0.39585 0.0
C106 C 0.05177 0.92054 0.37939 0.0
O107 O 0.03457 0.80961 0.35569 0.0
O108 O 0.04804 0.84604 0.39625 0.0
O109 O 0.03571 0.89202 0.28638 0.0
O110 O 0.05208 0.84296 0.30144 0.0
C111 C 0.95919 0.91653 0.38007 0.0
O112 O 0.03146 0.90496 0.40007 0.0
O113 O 0.04806 0.91901 0.34576 0.0
C114 C 0.05396 0.81932 0.38117 0.0
O115 O 0.96445 0.8895 0.39481 0.0
O116 O 0.97998 0.92694 0.35619 0.0
C117 C 0.96417 0.87141 0.27977 0.0
Fe118 Fe 0.01053 0.14993 0.89278 0.0
Fe119 Fe 0.01282 0.11077 0.82272 0.0
O120 O 0.01145 0.14851 0.84511 0.0
Fe121 Fe 0.01095 0.18481 0.81989 0.0
O122 O 0.05127 0.19871 0.84105 0.0
O123 O 0.03538 0.18786 0.89642 0.0
O124 O 0.05246 0.12868 0.89623 0.0
C125 C 0.05873 0.10158 0.88208 0.0
C126 C 0.96252 0.19721 0.87628 0.0
O127 O 0.03918 0.09058 0.85737 0.0
C128 C 0.96662 0.14796 0.779 0.0
O129 O 0.98564 0.11227 0.89797 0.0
O130 O 0.97153 0.09805 0.84302 0.0
O131 O 0.98312 0.20692 0.85181 0.0
O132 O 0.96848 0.17114 0.89273 0.0
C133 C 0.05914 0.14509 0.7815 0.0
O134 O 0.98705 0.12415 0.78386 0.0
O135 O 0.97054 0.17362 0.79672 0.0
C136 C 0.96646 0.09638 0.87643 0.0
O137 O 0.05408 0.12055 0.80078 0.0
O138 O 0.03871 0.16927 0.78333 0.0
C139 C 0.05551 0.2021 0.87441 0.0
Fe140 Fe 0.5086 0.33385 0.31658 0.0
Fe141 Fe 0.50616 0.36766 0.38998 0.0
O142 O 0.5066 0.36978 0.3424 0.0
Fe143 Fe 0.50492 0.40766 0.32048 0.0
O144 O 0.46436 0.3971 0.29726 0.0
O145 O 0.48272 0.3497 0.27882 0.0
O146 O 0.46742 0.31964 0.33553 0.0
C147 C 0.46163 0.31617 0.36866 0.0
C148 C 0.55379 0.37179 0.27842 0.0
O149 O 0.48127 0.32965 0.3918 0.0
C150 C 0.54979 0.42199 0.37581 0.0
O151 O 0.53485 0.31117 0.34946 0.0
O152 O 0.54846 0.34671 0.39087 0.0
O153 O 0.5323 0.39499 0.28241 0.0
O154 O 0.54991 0.34587 0.29574 0.0
C155 C 0.45754 0.41578 0.37873 0.0
O156 O 0.53065 0.40532 0.39658 0.0
O157 O 0.54527 0.42106 0.34225 0.0
C158 C 0.55476 0.32058 0.37467 0.0
O159 O 0.46398 0.38864 0.3927 0.0
O160 O 0.47724 0.42717 0.35445 0.0
C161 C 0.46109 0.37295 0.27695 0.0
Fe162 Fe 0.50576 0.65127 0.8915 0.0
Fe163 Fe 0.50685 0.611 0.82234 0.0
O164 O 0.50709 0.64907 0.84395 0.0
Fe165 Fe 0.50846 0.68481 0.81784 0.0
O166 O 0.53423 0.70789 0.85059 0.0
O167 O 0.54722 0.67321 0.89331 0.0
O168 O 0.53161 0.61411 0.89848 0.0
C169 C 0.55193 0.59829 0.87785 0.0
C170 C 0.46043 0.70217 0.86942 0.0
O171 O 0.54767 0.59907 0.84424 0.0
C172 C 0.46195 0.6444 0.77857 0.0
O173 O 0.46409 0.62956 0.89324 0.0
O174 O 0.48016 0.59083 0.85656 0.0
O175 O 0.46697 0.69897 0.8364 0.0
O176 O 0.47966 0.68866 0.89292 0.0
C177 C 0.55464 0.64731 0.78006 0.0
O178 O 0.46591 0.62043 0.79907 0.0
O179 O 0.48287 0.66816 0.78027 0.0
C180 C 0.45923 0.60192 0.87997 0.0
O181 O 0.53358 0.62392 0.78401 0.0
O182 O 0.55013 0.67318 0.7973 0.0
C183 C 0.55355 0.69901 0.87655 0.0
H184 H 0.17883 0.37566 0.90732 0.0
H185 H 0.21075 0.31431 0.99531 0.0
H186 H 0.13996 0.33316 0.88505 0.0
H187 H 0.17244 0.27161 0.97277 0.0
H188 H 0.06933 0.21852 0.94425 0.0
H189 H 0.10993 0.25949 0.96629 0.0
H190 H 0.14214 0.27999 0.85744 0.0
H191 H 0.10106 0.23941 0.83525 0.0
C192 C 0.17758 0.35303 0.9218 0.0
C193 C 0.1977 0.34837 0.95305 0.0
C194 C 0.15554 0.3286 0.90893 0.0
C195 C 0.15312 0.29893 0.92708 0.0
C196 C 0.17336 0.29429 0.95838 0.0
C197 C 0.19544 0.31873 0.97122 0.0
C198 C 0.08515 0.23165 0.92497 0.0
C199 C 0.08172 0.22576 0.88793 0.0
C200 C 0.10859 0.25505 0.93766 0.0
C201 C 0.1292 0.27315 0.91364 0.0
C202 C 0.12625 0.26685 0.87664 0.0
C203 C 0.10283 0.24342 0.86394 0.0
H204 H 0.81438 0.65715 0.39566 0.0
H205 H 0.78652 0.72179 0.48213 0.0
H206 H 0.86004 0.69475 0.37605 0.0
H207 H 0.83157 0.75965 0.46219 0.0
H208 H 0.94209 0.80064 0.44109 0.0
H209 H 0.89544 0.76407 0.45999 0.0
H210 H 0.86728 0.74759 0.34904 0.0
H211 H 0.91439 0.78363 0.33003 0.0
C212 C 0.81791 0.67951 0.41029 0.0
C213 C 0.79704 0.68648 0.44042 0.0
C214 C 0.84389 0.70112 0.39898 0.0
C215 C 0.8495 0.7302 0.41759 0.0
C216 C 0.82829 0.73727 0.44758 0.0
C217 C 0.80232 0.71564 0.45888 0.0
C218 C 0.92596 0.78926 0.42069 0.0
C219 C 0.93215 0.79497 0.38402 0.0
C220 C 0.89905 0.76843 0.43156 0.0
C221 C 0.87765 0.75286 0.40603 0.0
C222 C 0.88362 0.75881 0.36937 0.0
C223 C 0.91054 0.77962 0.3585 0.0
H224 H 0.83402 0.36614 0.91561 0.0
H225 H 0.77697 0.29134 0.97126 0.0
H226 H 0.87787 0.32672 0.89627 0.0
H227 H 0.82006 0.25145 0.9508 0.0
H228 H 0.92543 0.19617 0.93961 0.0
H229 H 0.87958 0.23387 0.95901 0.0
H230 H 0.8862 0.28295 0.85683 0.0
H231 H 0.93276 0.24619 0.83817 0.0
C232 C 0.83074 0.34114 0.92339 0.0
C233 C 0.80222 0.33183 0.94495 0.0
C234 C 0.85571 0.31845 0.91212 0.0
C235 C 0.85251 0.28576 0.9218 0.0
C236 C 0.82369 0.27644 0.94323 0.0
C237 C 0.79885 0.29926 0.95479 0.0
C238 C 0.91694 0.21496 0.9213 0.0
C239 C 0.93301 0.21842 0.88753 0.0
C240 C 0.89052 0.2365 0.93233 0.0
C241 C 0.87934 0.26173 0.90965 0.0
C242 C 0.89469 0.26439 0.87541 0.0
C243 C 0.9213 0.24316 0.8646 0.0
H244 H 0.24782 0.71156 0.40891 0.0
H245 H 0.18038 0.67442 0.49257 0.0
H246 H 0.20137 0.75001 0.39149 0.0
H247 H 0.13359 0.71213 0.47425 0.0
H248 H 0.05487 0.75366 0.37998 0.0
H249 H 0.10142 0.71755 0.40192 0.0
H250 H 0.16314 0.79968 0.43484 0.0
H251 H 0.116 0.83607 0.41396 0.0
C252 C 0.22307 0.71165 0.4235 0.0
C253 C 0.21767 0.69018 0.45211 0.0
C254 C 0.19668 0.73365 0.41365 0.0
C255 C 0.16417 0.73396 0.4317 0.0
C256 C 0.15859 0.71232 0.4601 0.0
C257 C 0.1853 0.69085 0.47054 0.0
C258 C 0.07828 0.76404 0.39206 0.0
C259 C 0.08185 0.79768 0.39527 0.0
C260 C 0.10475 0.74338 0.40469 0.0
C261 C 0.13566 0.75597 0.41995 0.0
C262 C 0.13943 0.78954 0.42312 0.0
C263 C 0.11251 0.81025 0.41131 0.0
H264 H 0.68159 0.86862 0.91478 0.0
H265 H 0.73376 0.79542 0.97806 0.0
H266 H 0.63775 0.82931 0.89547 0.0
H267 H 0.6909 0.75559 0.95763 0.0
H268 H 0.58689 0.70033 0.94212 0.0
H269 H 0.63138 0.73871 0.96266 0.0
H270 H 0.63023 0.78428 0.85824 0.0
H271 H 0.58492 0.74694 0.83843 0.0
C272 C 0.68378 0.844 0.9243 0.0
C273 C 0.71095 0.83512 0.94794 0.0
C274 C 0.65882 0.82134 0.91306 0.0
C275 C 0.66075 0.78908 0.92479 0.0
C276 C 0.68817 0.78024 0.94843 0.0
C277 C 0.71291 0.80305 0.95999 0.0
C278 C 0.59626 0.71852 0.92359 0.0
C279 C 0.58211 0.72079 0.88878 0.0
C280 C 0.62191 0.74047 0.93528 0.0
C281 C 0.6343 0.76491 0.91225 0.0
C282 C 0.62077 0.76642 0.87709 0.0
C283 C 0.59489 0.74482 0.86561 0.0
H284 H 0.29084 0.21933 0.48204 0.0
H285 H 0.31783 0.15462 0.39536 0.0
H286 H 0.33485 0.25767 0.46087 0.0
H287 H 0.36246 0.19272 0.37449 0.0
H288 H 0.41487 0.28227 0.32706 0.0
H289 H 0.36869 0.24558 0.34704 0.0
H290 H 0.39854 0.26273 0.45741 0.0
H291 H 0.44419 0.29989 0.43757 0.0
C292 C 0.30623 0.21326 0.45849 0.0
C293 C 0.30101 0.18393 0.44035 0.0
C294 C 0.3316 0.23517 0.44646 0.0
C295 C 0.35229 0.22824 0.41605 0.0
C296 C 0.34672 0.199 0.39774 0.0
C297 C 0.32133 0.1771 0.40978 0.0
C298 C 0.41158 0.27826 0.3556 0.0
C299 C 0.43336 0.29398 0.38069 0.0
C300 C 0.3852 0.25708 0.36704 0.0
C301 C 0.37993 0.25116 0.40382 0.0
C302 C 0.40156 0.26706 0.4289 0.0
C303 C 0.42792 0.28822 0.41748 0.0
H304 H 0.32054 0.82813 0.99116 0.0
H305 H 0.27231 0.82382 0.88622 0.0
H306 H 0.36829 0.79334 0.97052 0.0
H307 H 0.31922 0.78773 0.86576 0.0
H308 H 0.42606 0.74845 0.83007 0.0
H309 H 0.37932 0.78475 0.85004 0.0
H310 H 0.38125 0.73979 0.95479 0.0
H311 H 0.42896 0.70457 0.93521 0.0
C312 C 0.32001 0.81948 0.96371 0.0
C313 C 0.29267 0.82854 0.94027 0.0
C314 C 0.34729 0.79932 0.95189 0.0
C315 C 0.34766 0.78744 0.91646 0.0
C316 C 0.32021 0.79671 0.89304 0.0
C317 C 0.29317 0.81721 0.90478 0.0
C318 C 0.41649 0.74637 0.85737 0.0
C319 C 0.43138 0.72376 0.88111 0.0
C320 C 0.3895 0.76707 0.8688 0.0
C321 C 0.37641 0.76537 0.90413 0.0
C322 C 0.39107 0.74237 0.92766 0.0
C323 C 0.41834 0.72199 0.91636 0.0
H324 H 0.70952 0.20714 0.49528 0.0
H325 H 0.7293 0.18388 0.38409 0.0
H326 H 0.66256 0.24422 0.47714 0.0
H327 H 0.68291 0.22146 0.3658 0.0
H328 H 0.57232 0.26128 0.34826 0.0
H329 H 0.61963 0.22566 0.36754 0.0
H330 H 0.65164 0.29558 0.44714 0.0
H331 H 0.60349 0.33122 0.42829 0.0
C332 C 0.70396 0.21007 0.46694 0.0
C333 C 0.72298 0.19252 0.44103 0.0
C334 C 0.67718 0.2315 0.45652 0.0
C335 C 0.66885 0.23581 0.42 0.0
C336 C 0.68821 0.21839 0.39418 0.0
C337 C 0.7149 0.19698 0.4046 0.0
C338 C 0.58936 0.26918 0.36991 0.0
C339 C 0.584 0.29919 0.38673 0.0
C340 C 0.61672 0.24877 0.38081 0.0
C341 C 0.63962 0.25777 0.40878 0.0
C342 C 0.63427 0.28775 0.42574 0.0
C343 C 0.60678 0.30825 0.41482 0.0
H344 H 0.319 0.44152 0.93056 0.0
H345 H 0.33008 0.4962 0.02869 0.0
H346 H 0.34891 0.48422 0.89766 0.0
H347 H 0.36201 0.53778 0.9964 0.0
H348 H 0.40613 0.61694 0.92754 0.0
H349 H 0.36301 0.58017 0.95389 0.0
H350 H 0.40798 0.50136 0.89296 0.0
H351 H 0.44978 0.53804 0.86585 0.0
C352 C 0.32737 0.46282 0.94506 0.0
C353 C 0.32256 0.46519 0.98238 0.0
C354 C 0.345 0.48715 0.92628 0.0
C355 C 0.35851 0.51428 0.94441 0.0
C356 C 0.3519 0.51742 0.98139 0.0
C357 C 0.33399 0.49329 1.00006 0.0
C358 C 0.40651 0.59181 0.91957 0.0
C359 C 0.4316 0.58044 0.89478 0.0
C360 C 0.38188 0.57068 0.93476 0.0
C361 C 0.38197 0.53768 0.92569 0.0
C362 C 0.40655 0.52663 0.90019 0.0
C363 C 0.43086 0.54772 0.88484 0.0
H364 H 0.71277 0.56058 0.44439 0.0
H365 H 0.61542 0.5847 0.49881 0.0
H366 H 0.68254 0.51643 0.41314 0.0
H367 H 0.58587 0.54038 0.4685 0.0
H368 H 0.55863 0.43607 0.44674 0.0
H369 H 0.59311 0.47938 0.47308 0.0
H370 H 0.63029 0.50674 0.36794 0.0
H371 H 0.59545 0.46314 0.34109 0.0
C372 C 0.68494 0.55669 0.44946 0.0
C373 C 0.66668 0.57584 0.47459 0.0
C374 C 0.66772 0.5314 0.43164 0.0
C375 C 0.63206 0.52471 0.43889 0.0
C376 C 0.61359 0.54455 0.46301 0.0
C377 C 0.6306 0.56987 0.48047 0.0
C378 C 0.57432 0.45104 0.42908 0.0
C379 C 0.5739 0.44629 0.39169 0.0
C380 C 0.59396 0.47597 0.44424 0.0
C381 C 0.61397 0.49665 0.4225 0.0
C382 C 0.61504 0.49111 0.38529 0.0
C383 C 0.59502 0.46624 0.36997 0.0
H384 H 0.69001 0.48481 0.01729 0.0
H385 H 0.66434 0.42214 0.92853 0.0
H386 H 0.66077 0.52966 0.98697 0.0
H387 H 0.63425 0.46677 0.89841 0.0
H388 H 0.59915 0.5589 0.84277 0.0
H389 H 0.63838 0.51845 0.86913 0.0
H390 H 0.6011 0.54437 0.97494 0.0
H391 H 0.56286 0.58517 0.94887 0.0
C392 C 0.67823 0.48072 0.99116 0.0
C393 C 0.67919 0.44994 0.97539 0.0
C394 C 0.66133 0.50636 0.97384 0.0
C395 C 0.64467 0.50179 0.94044 0.0
C396 C 0.64705 0.47129 0.92393 0.0
C397 C 0.66424 0.44567 0.94119 0.0
C398 C 0.59962 0.55617 0.8717 0.0
C399 C 0.5777 0.57525 0.89366 0.0
C400 C 0.62197 0.53283 0.88679 0.0
C401 C 0.62292 0.52804 0.92418 0.0
C402 C 0.60157 0.54767 0.9461 0.0
C403 C 0.57938 0.571 0.93108 0.0
H404 H 0.30642 0.52165 0.51227 0.0
H405 H 0.34852 0.59021 0.43679 0.0
H406 H 0.3355 0.47768 0.48012 0.0
H407 H 0.37951 0.54683 0.40561 0.0
H408 H 0.4207 0.46268 0.34394 0.0
H409 H 0.37918 0.50132 0.36943 0.0
H410 H 0.39177 0.45633 0.4735 0.0
H411 H 0.43168 0.41667 0.44729 0.0
C412 C 0.32168 0.52712 0.48845 0.0
C413 C 0.32519 0.55911 0.47676 0.0
C414 C 0.33873 0.50205 0.47024 0.0
C415 C 0.3604 0.50851 0.4404 0.0
C416 C 0.36272 0.54062 0.42805 0.0
C417 C 0.34507 0.56561 0.44591 0.0
C418 C 0.41411 0.46083 0.37217 0.0
C419 C 0.42954 0.43677 0.39368 0.0
C420 C 0.39051 0.48317 0.38691 0.0
C421 C 0.38226 0.48243 0.42374 0.0
C422 C 0.39689 0.45755 0.44495 0.0
C423 C 0.41999 0.43481 0.43 0.0
H424 H 0.90031 0.92817 0.98846 0.0
H425 H 0.8005 0.96068 0.94502 0.0
H426 H 0.93035 0.97213 0.95799 0.0
H427 H 0.83114 1.00456 0.9135 0.0
H428 H 0.91836 0.05873 0.84001 0.0
H429 H 0.88284 0.01441 0.86452 0.0
H430 H 0.92451 0.03387 0.97018 0.0
H431 H 0.95947 0.07795 0.94626 0.0
C432 C 0.88478 0.94462 0.97223 0.0
C433 C 0.84789 0.94137 0.96983 0.0
C434 C 0.90203 0.96973 0.95472 0.0
C435 C 0.88295 0.99201 0.93395 0.0
C436 C 0.84639 0.98769 0.92947 0.0
C437 C 0.82894 0.96258 0.9474 0.0
C438 C 0.91961 0.05375 0.86853 0.0
C439 C 0.94204 0.07174 0.89109 0.0
C440 C 0.89923 0.02848 0.8825 0.0
C441 C 0.90137 0.02054 0.9191 0.0
C442 C 0.92278 0.03922 0.94175 0.0
C443 C 0.94269 0.0646 0.928 0.0
H444 H 0.21775 0.05648 0.44729 0.0
H445 H 0.12068 0.08262 0.50106 0.0
H446 H 0.1868 0.01244 0.41651 0.0
H447 H 0.0904 0.03851 0.47119 0.0
H448 H 0.06045 0.93498 0.45024 0.0
H449 H 0.09602 0.97763 0.4764 0.0
H450 H 0.1348 1.00315 0.37127 0.0
H451 H 0.09893 0.96018 0.34462 0.0
C452 C 0.18985 0.05302 0.45233 0.0
C453 C 0.17184 0.0727 0.47714 0.0
C454 C 0.17221 0.02781 0.43478 0.0
C455 C 0.1364 0.02178 0.44199 0.0
C456 C 0.11822 0.04215 0.46578 0.0
C457 C 0.13564 0.06736 0.48297 0.0
C458 C 0.07671 0.94941 0.43256 0.0
C459 C 0.07645 0.94436 0.39522 0.0
C460 C 0.09699 0.97395 0.44761 0.0
C461 C 0.11776 0.99394 0.4258 0.0
C462 C 0.11898 0.98805 0.38866 0.0
C463 C 0.09836 0.96354 0.37346 0.0
H464 H 0.22315 0.96382 0.9538 0.0
H465 H 0.12196 0.94141 0.00151 0.0
H466 H 0.19623 0.01051 0.92361 0.0
H467 H 0.09633 0.98887 0.97333 0.0
H468 H 0.08006 0.09842 0.95212 0.0
H469 H 0.11641 0.05609 0.97972 0.0
H470 H 0.13388 0.01331 0.87565 0.0
H471 H 0.09676 0.05504 0.84801 0.0
C472 C 0.19533 0.96869 0.95788 0.0
C473 C 0.17495 0.949 0.98064 0.0
C474 C 0.18011 0.99555 0.94087 0.0
C475 C 0.14452 1.00343 0.9469 0.0
C476 C 0.12405 0.98359 0.96899 0.0
C477 C 0.13891 0.9565 0.98526 0.0
C478 C 0.09232 0.08043 0.93505 0.0
C479 C 0.08545 0.07984 0.89799 0.0
C480 C 0.11298 0.05625 0.95083 0.0
C481 C 0.12782 0.03166 0.92966 0.0
C482 C 0.12287 0.03222 0.89237 0.0
C483 C 0.10156 0.05595 0.87669 0.0
H484 H 0.89742 0.08135 0.48908 0.0
H485 H 0.79313 0.05353 0.45333 0.0
H486 H 0.92234 0.03364 0.46042 0.0
H487 H 0.81892 1.00611 0.42317 0.0
H488 H 0.92749 0.96621 0.34469 0.0
H489 H 0.89001 1.00859 0.37029 0.0
H490 H 0.89285 0.96068 0.47293 0.0
H491 H 0.92993 0.91778 0.4474 0.0
C492 C 0.87974 0.06505 0.47519 0.0
C493 C 0.84311 0.07103 0.47408 0.0
C494 C 0.89412 0.03784 0.45872 0.0
C495 C 0.87238 0.01622 0.44022 0.0
C496 C 0.83601 0.0225 0.43768 0.0
C497 C 0.8214 0.0497 0.45462 0.0
C498 C 0.91945 0.96429 0.37252 0.0
C499 C 0.93186 0.93879 0.39414 0.0
C500 C 0.89788 0.98841 0.38699 0.0
C501 C 0.88857 0.98759 0.42336 0.0
C502 C 0.89948 0.96144 0.44465 0.0
C503 C 0.92066 0.937 0.43005 0.0
H504 H 0.28564 0.39701 0.12367 0.0
H505 H 0.38258 0.38925 0.06343 0.0
H506 H 0.31853 0.38708 0.17964 0.0
H507 H 0.41525 0.37901 0.11888 0.0
H508 H 0.45691 0.33184 0.21992 0.0
H509 H 0.41806 0.33571 0.16794 0.0
H510 H 0.36749 0.41941 0.21409 0.0
H511 H 0.4066 0.4158 0.26638 0.0
C512 C 0.31385 0.39272 0.12247 0.0
C513 C 0.33172 0.3939 0.08947 0.0
C514 C 0.33263 0.38727 0.15434 0.0
C515 C 0.36937 0.38227 0.15348 0.0
C516 C 0.38691 0.38251 0.12027 0.0
C517 C 0.36831 0.38848 0.08862 0.0
C518 C 0.4373 0.35091 0.21929 0.0
C519 C 0.43513 0.37375 0.24717 0.0
C520 C 0.41513 0.35312 0.18945 0.0
C521 C 0.38997 0.37794 0.18697 0.0
C522 C 0.38658 0.39993 0.21548 0.0
C523 C 0.4091 0.39797 0.24526 0.0
H524 H 0.69319 0.58674 0.60625 0.0
H525 H 0.66507 0.68537 0.58261 0.0
H526 H 0.66699 0.59193 0.66578 0.0
H527 H 0.63746 0.69041 0.64167 0.0
H528 H 0.60096 0.6943 0.75753 0.0
H529 H 0.64131 0.69166 0.70631 0.0
H530 H 0.60775 0.59384 0.68544 0.0
H531 H 0.56876 0.59608 0.7367 0.0
C532 C 0.68164 0.60964 0.61406 0.0
C533 C 0.68079 0.63556 0.58988 0.0
C534 C 0.66645 0.6126 0.64803 0.0
C535 C 0.64948 0.6414 0.65833 0.0
C536 C 0.65049 0.66796 0.6348 0.0
C537 C 0.66617 0.66509 0.60093 0.0
C538 C 0.60263 0.67212 0.74223 0.0
C539 C 0.58142 0.64548 0.75111 0.0
C540 C 0.6256 0.67066 0.71277 0.0
C541 C 0.62785 0.64254 0.69168 0.0
C542 C 0.60733 0.61571 0.70135 0.0
C543 C 0.5846 0.61711 0.73069 0.0
H544 H 0.663 0.33579 0.07933 0.0
H545 H 0.69344 0.43313 0.10597 0.0
H546 H 0.63444 0.33037 0.13784 0.0
H547 H 0.666 0.42756 0.16482 0.0
H548 H 0.56798 0.42364 0.23614 0.0
H549 H 0.60644 0.42628 0.18446 0.0
H550 H 0.6392 0.32767 0.20266 0.0
H551 H 0.59946 0.32465 0.25432 0.0
C552 C 0.66426 0.35573 0.09809 0.0
C553 C 0.67997 0.38502 0.08805 0.0
C554 C 0.64803 0.35263 0.13166 0.0
C555 C 0.6475 0.37868 0.15591 0.0
C556 C 0.66514 0.40728 0.1465 0.0
C557 C 0.68097 0.41048 0.11287 0.0
C558 C 0.58353 0.40251 0.22944 0.0
C559 C 0.58034 0.37383 0.24928 0.0
C560 C 0.60593 0.40413 0.19985 0.0
C561 C 0.62604 0.3772 0.18933 0.0
C562 C 0.62377 0.34875 0.2098 0.0
C563 C 0.60117 0.34708 0.23953 0.0
H564 H 0.38561 0.623 0.56497 0.0
H565 H 0.28741 0.62103 0.62366 0.0
H566 H 0.41793 0.63212 0.62078 0.0
H567 H 0.32004 0.6298 0.68008 0.0
H568 H 0.40774 0.60129 0.76901 0.0
H569 H 0.36904 0.59625 0.71647 0.0
H570 H 0.41977 0.67843 0.66791 0.0
H571 H 0.45806 0.68382 0.72011 0.0
C572 C 0.37101 0.62447 0.58993 0.0
C573 C 0.33411 0.62123 0.59017 0.0
C574 C 0.38943 0.62987 0.62177 0.0
C575 C 0.37141 0.63172 0.65463 0.0
C576 C 0.33447 0.62836 0.65503 0.0
C577 C 0.31587 0.62353 0.62291 0.0
C578 C 0.41034 0.61849 0.74728 0.0
C579 C 0.43622 0.64276 0.74861 0.0
C580 C 0.38808 0.61569 0.71738 0.0
C581 C 0.39167 0.63684 0.68815 0.0
C582 C 0.4167 0.66168 0.69 0.0
C583 C 0.43855 0.66476 0.71998 0.0
H584 H 0.84306 0.93808 0.09921 0.0
H585 H 0.83667 0.83449 0.08835 0.0
H586 H 0.87263 0.93176 0.15665 0.0
H587 H 0.86424 0.82813 0.14709 0.0
H588 H 0.96049 0.83035 0.22261 0.0
H589 H 0.92183 0.8339 0.17076 0.0
H590 H 0.86966 0.91668 0.2177 0.0
H591 H 0.9095 0.91384 0.26914 0.0
C592 C 0.84758 0.91391 0.10931 0.0
C593 C 0.83805 0.88679 0.08882 0.0
C594 C 0.8641 0.91028 0.1426 0.0
C595 C 0.87119 0.8794 0.15651 0.0
C596 C 0.85985 0.85228 0.13692 0.0
C597 C 0.84358 0.85592 0.10341 0.0
C598 C 0.9406 0.84917 0.22206 0.0
C599 C 0.93837 0.87204 0.24986 0.0
C600 C 0.91815 0.85106 0.19237 0.0
C601 C 0.89259 0.87565 0.18986 0.0
C602 C 0.88944 0.89777 0.21838 0.0
C603 C 0.91218 0.89608 0.24796 0.0
H604 H 0.15924 0.17958 0.57827 0.0
H605 H 0.20661 0.08985 0.61171 0.0
H606 H 0.13045 0.18477 0.63648 0.0
H607 H 0.17988 0.09571 0.67101 0.0
H608 H 0.08663 0.09169 0.749 0.0
H609 H 0.12491 0.08973 0.69683 0.0
H610 H 0.13206 0.1939 0.69777 0.0
H611 H 0.09185 0.1957 0.7488 0.0
C612 C 0.16431 0.16151 0.59868 0.0
C613 C 0.18498 0.13435 0.59078 0.0
C614 C 0.14797 0.16446 0.63216 0.0
C615 C 0.15246 0.14051 0.65866 0.0
C616 C 0.17498 0.11424 0.65114 0.0
C617 C 0.19068 0.111 0.61738 0.0
C618 C 0.09671 0.11414 0.73828 0.0
C619 C 0.08599 0.14386 0.75275 0.0
C620 C 0.11896 0.11307 0.7084 0.0
C621 C 0.13164 0.14169 0.69267 0.0
C622 C 0.12223 0.17137 0.70845 0.0
C623 C 0.09938 0.17244 0.7379 0.0
H624 H 0.22394 0.86704 0.11678 0.0
H625 H 0.12157 0.88806 0.07073 0.0
H626 H 0.19596 0.85931 0.17585 0.0
H627 H 0.09432 0.88131 0.12935 0.0
H628 H 0.07421 0.91992 0.24215 0.0
H629 H 0.11054 0.92035 0.18847 0.0
H630 H 0.1373 0.82028 0.20498 0.0
H631 H 0.10018 0.81937 0.25915 0.0
C632 C 0.19556 0.86957 0.11914 0.0
C633 C 0.17504 0.87886 0.0893 0.0
C634 C 0.17966 0.86517 0.15282 0.0
C635 C 0.14319 0.87018 0.15694 0.0
C636 C 0.12259 0.87777 0.12681 0.0
C637 C 0.13826 0.88183 0.09336 0.0
C638 C 0.08808 0.89799 0.23482 0.0
C639 C 0.08371 0.86942 0.25464 0.0
C640 C 0.10893 0.89835 0.20409 0.0
C641 C 0.12628 0.87029 0.19262 0.0
C642 C 0.12409 0.84219 0.2135 0.0
C643 C 0.10283 0.84172 0.24435 0.0
H644 H 0.80014 0.1513 0.61265 0.0
H645 H 0.90086 0.13127 0.56275 0.0
H646 H 0.83002 0.15774 0.67092 0.0
H647 H 0.9301 0.13685 0.62058 0.0
H648 H 0.95742 0.09891 0.73139 0.0
H649 H 0.92191 0.09887 0.67711 0.0
H650 H 0.88304 0.19415 0.70219 0.0
H651 H 0.91915 0.19462 0.75707 0.0
C652 C 0.82859 0.14872 0.61401 0.0
C653 C 0.84807 0.14009 0.58329 0.0
C654 C 0.84559 0.15236 0.64727 0.0
C655 C 0.88218 0.14721 0.65014 0.0
C656 C 0.90175 0.14033 0.61912 0.0
C657 C 0.88496 0.13701 0.58608 0.0
C658 C 0.94116 0.11985 0.72574 0.0
C659 C 0.94158 0.14698 0.7484 0.0
C660 C 0.92088 0.11978 0.69455 0.0
C661 C 0.9002 0.14666 0.68536 0.0
C662 C 0.89889 0.17318 0.70879 0.0
C663 C 0.91961 0.17343 0.74005 0.0
loop_
_geom_bond_atom_site_label_1
_geom_bond_atom_site_label_2
_geom_bond_distance
_geom_bond_site_symmetry_2
_ccdc_geom_bond_type
H0 C5 0.930 . S
H1 C8 0.930 . S
H2 C10 0.930 . S
H3 C4 1.016 . S
C4 H3 1.016 . S
C4 N11 1.286 . S
C5 H0 0.930 . S
C5 C6 1.397 . S
C5 C7 1.361 . S
C6 C5 1.397 . S
C6 C10 1.390 . S
C7 C5 1.361 . S
C7 C8 1.393 1_554 S
C7 N11 1.413 1_554 S
C8 H1 0.930 . S
C8 C7 1.393 1_556 S
C8 C9 1.399 . S
C9 C8 1.399 . S
C9 C10 1.381 1_556 S
C10 H2 0.930 . S
C10 C6 1.390 . S
C10 C9 1.381 1_554 S
N11 C4 1.286 . S
N11 C7 1.413 1_556 S
H12 C17 0.930 . S
H13 C20 0.930 . S
H14 C22 0.930 . S
H15 C16 1.016 . S
C16 H15 1.016 . S
C16 N23 1.286 . S
C17 H12 0.930 . S
C17 C18 1.397 . S
C17 C19 1.361 . S
C18 C17 1.397 . S
C18 C22 1.390 . S
C19 C17 1.361 . S
C19 C20 1.393 . S
C19 N23 1.413 . S
C20 H13 0.930 . S
C20 C19 1.393 . S
C20 C21 1.399 . S
C21 C20 1.399 . S
C21 C22 1.381 . S
C22 H14 0.930 . S
C22 C18 1.390 . S
C22 C21 1.381 . S
N23 C16 1.286 . S
N23 C19 1.413 . S
H24 C29 0.930 . S
H25 C32 0.930 . S
H26 C34 0.930 . S
H27 C28 1.016 . S
C28 H27 1.016 . S
C28 N35 1.286 1_556 S
C29 H24 0.930 . S
C29 C30 1.397 . S
C29 C31 1.361 . S
C30 C29 1.397 . S
C30 C34 1.390 . S
C31 C29 1.361 . S
C31 C32 1.393 1_554 S
C31 N35 1.413 . S
C32 H25 0.930 . S
C32 C31 1.393 1_556 S
C32 C33 1.399 . S
C33 C32 1.399 . S
C33 C34 1.381 1_556 S
C34 H26 0.930 . S
C34 C30 1.390 . S
C34 C33 1.381 1_554 S
N35 C28 1.286 1_554 S
N35 C31 1.413 . S
H36 C41 0.930 . S
H37 C44 0.930 . S
H38 C46 0.930 . S
H39 C40 1.016 . S
C40 H39 1.016 . S
C40 N47 1.286 . S
C41 H36 0.930 . S
C41 C42 1.397 . S
C41 C43 1.361 . S
C42 C41 1.397 . S
C42 C46 1.390 . S
C43 C41 1.361 . S
C43 C44 1.393 . S
C43 N47 1.413 . S
C44 H37 0.930 . S
C44 C43 1.393 . S
C44 C45 1.399 . S
C45 C44 1.399 . S
C45 C46 1.381 . S
C46 H38 0.930 . S
C46 C42 1.390 . S
C46 C45 1.381 . S
N47 C40 1.286 . S
N47 C43 1.413 . S
H48 C53 0.930 . S
H49 C56 0.930 . S
H50 C58 0.930 . S
H51 C52 1.016 . S
C52 H51 1.016 . S
C52 N59 1.286 . S
C53 H48 0.930 . S
C53 C54 1.397 . S
C53 C55 1.361 . S
C54 C53 1.397 . S
C54 C58 1.390 . S
C55 C53 1.361 . S
C55 C56 1.393 1_554 S
C55 N59 1.413 1_554 S
C56 H49 0.930 . S
C56 C55 1.393 1_556 S
C56 C57 1.399 . S
C57 C56 1.399 . S
C57 C58 1.381 1_556 S
C58 H50 0.930 . S
C58 C54 1.390 . S
C58 C57 1.381 1_554 S
N59 C52 1.286 . S
N59 C55 1.413 1_556 S
H60 C65 0.930 . S
H61 C68 0.930 . S
H62 C70 0.930 . S
H63 C64 1.016 . S
C64 H63 1.016 . S
C64 N71 1.286 . S
C65 H60 0.930 . S
C65 C66 1.397 . S
C65 C67 1.361 . S
C66 C65 1.397 . S
C66 C70 1.390 . S
C67 C65 1.361 . S
C67 C68 1.393 . S
C67 N71 1.413 . S
C68 H61 0.930 . S
C68 C67 1.393 . S
C68 C69 1.399 . S
C69 C68 1.399 . S
C69 C70 1.381 . S
C70 H62 0.930 . S
C70 C66 1.390 . S
C70 C69 1.381 . S
N71 C64 1.286 . S
N71 C67 1.413 . S
H72 C77 0.930 . S
H73 C80 0.930 . S
H74 C82 0.930 . S
H75 C76 1.016 . S
C76 H75 1.016 . S
C76 N83 1.286 1_556 S
C77 H72 0.930 . S
C77 C78 1.397 . S
C77 C79 1.361 . S
C78 C77 1.397 . S
C78 C82 1.390 . S
C79 C77 1.361 . S
C79 C80 1.393 1_554 S
C79 N83 1.413 . S
C80 H73 0.930 . S
C80 C79 1.393 1_556 S
C80 C81 1.399 . S
C81 C80 1.399 . S
C81 C82 1.381 1_556 S
C82 H74 0.930 . S
C82 C78 1.390 . S
C82 C81 1.381 1_554 S
N83 C76 1.286 1_554 S
N83 C79 1.413 . S
H84 C89 0.930 . S
H85 C92 0.930 . S
H86 C94 0.930 . S
H87 C88 1.016 . S
C88 H87 1.016 . S
C88 N95 1.286 . S
C89 H84 0.930 . S
C89 C90 1.397 . S
C89 C91 1.361 . S
C90 C89 1.397 . S
C90 C94 1.390 . S
C91 C89 1.361 . S
C91 C92 1.393 . S
C91 N95 1.413 . S
C92 H85 0.930 . S
C92 C91 1.393 . S
C92 C93 1.399 . S
C93 C92 1.399 . S
C93 C94 1.381 . S
C94 H86 0.930 . S
C94 C90 1.390 . S
C94 C93 1.381 . S
N95 C88 1.286 . S
N95 C91 1.413 . S
Fe96 O98 1.918 . S
Fe96 O101 1.997 1_455 S
Fe96 O102 2.002 1_455 S
Fe96 O107 1.976 . S
Fe96 O110 1.996 . S
Fe97 O98 1.918 . S
Fe97 O105 1.997 1_455 S
Fe97 O108 1.996 . S
Fe97 O112 1.976 . S
Fe97 O115 2.002 1_455 S
O98 Fe96 1.918 . S
O98 Fe97 1.918 . S
O98 Fe99 1.918 . S
Fe99 O98 1.918 . S
Fe99 O100 2.002 1_455 S
Fe99 O109 1.976 . S
Fe99 O113 1.996 . S
Fe99 O116 1.997 1_455 S
O100 Fe99 2.002 1_655 S
O100 C117 1.295 . S
O101 Fe96 1.997 1_655 S
O101 C117 1.235 . S
O102 Fe96 2.002 1_655 S
O102 C103 1.295 . S
C103 O102 1.295 . S
C103 O105 1.235 . S
C104 O109 1.287 . S
C104 O110 1.255 . S
O105 Fe97 1.997 1_655 S
O105 C103 1.235 . S
C106 O112 1.287 . S
C106 O113 1.255 . S
O107 Fe96 1.976 . S
O107 C114 1.287 . S
O108 Fe97 1.996 . S
O108 C114 1.255 . S
O109 Fe99 1.976 . S
O109 C104 1.287 . S
O110 Fe96 1.996 . S
O110 C104 1.255 . S
C111 O115 1.295 . S
C111 O116 1.235 . S
O112 Fe97 1.976 . S
O112 C106 1.287 . S
O113 Fe99 1.996 . S
O113 C106 1.255 . S
C114 O107 1.287 . S
C114 O108 1.255 . S
O115 Fe97 2.002 1_655 S
O115 C111 1.295 . S
O116 Fe99 1.997 1_655 S
O116 C111 1.235 . S
C117 O100 1.295 . S
C117 O101 1.235 . S
Fe118 O120 1.918 . S
Fe118 O123 1.997 1_655 S
Fe118 O124 2.002 1_655 S
Fe118 O129 1.976 . S
Fe118 O132 1.996 . S
Fe119 O120 1.918 . S
Fe119 O127 1.997 1_655 S
Fe119 O130 1.996 . S
Fe119 O134 1.976 . S
Fe119 O137 2.002 1_655 S
O120 Fe118 1.918 . S
O120 Fe119 1.918 . S
O120 Fe121 1.918 . S
Fe121 O120 1.918 . S
Fe121 O122 2.002 1_655 S
Fe121 O131 1.976 . S
Fe121 O135 1.996 . S
Fe121 O138 1.997 1_655 S
O122 Fe121 2.002 1_455 S
O122 C139 1.295 . S
O123 Fe118 1.997 1_455 S
O123 C139 1.235 . S
O124 Fe118 2.002 1_455 S
O124 C125 1.295 . S
C125 O124 1.295 . S
C125 O127 1.235 . S
C126 O131 1.287 . S
C126 O132 1.255 . S
O127 Fe119 1.997 1_455 S
O127 C125 1.235 . S
C128 O134 1.287 . S
C128 O135 1.255 . S
O129 Fe118 1.976 . S
O129 C136 1.287 . S
O130 Fe119 1.996 . S
O130 C136 1.255 . S
O131 Fe121 1.976 . S
O131 C126 1.287 . S
O132 Fe118 1.996 . S
O132 C126 1.255 . S
C133 O137 1.295 . S
C133 O138 1.235 . S
O134 Fe119 1.976 . S
O134 C128 1.287 . S
O135 Fe121 1.996 . S
O135 C128 1.255 . S
C136 O129 1.287 . S
C136 O130 1.255 . S
O137 Fe119 2.002 1_455 S
O137 C133 1.295 . S
O138 Fe121 1.997 1_455 S
O138 C133 1.235 . S
C139 O122 1.295 . S
C139 O123 1.235 . S
Fe140 O142 1.918 . S
Fe140 O145 1.997 . S
Fe140 O146 2.002 . S
Fe140 O151 1.976 . S
Fe140 O154 1.996 . S
Fe141 O142 1.918 . S
Fe141 O149 1.997 . S
Fe141 O152 1.996 . S
Fe141 O156 1.976 . S
Fe141 O159 2.002 . S
O142 Fe140 1.918 . S
O142 Fe141 1.918 . S
O142 Fe143 1.918 . S
Fe143 O142 1.918 . S
Fe143 O144 2.002 . S
Fe143 O153 1.976 . S
Fe143 O157 1.996 . S
Fe143 O160 1.997 . S
O144 Fe143 2.002 . S
O144 C161 1.295 . S
O145 Fe140 1.997 . S
O145 C161 1.235 . S
O146 Fe140 2.002 . S
O146 C147 1.295 . S
C147 O146 1.295 . S
C147 O149 1.235 . S
C148 O153 1.287 . S
C148 O154 1.255 . S
O149 Fe141 1.997 . S
O149 C147 1.235 . S
C150 O156 1.287 . S
C150 O157 1.255 . S
O151 Fe140 1.976 . S
O151 C158 1.287 . S
O152 Fe141 1.996 . S
O152 C158 1.255 . S
O153 Fe143 1.976 . S
O153 C148 1.287 . S
O154 Fe140 1.996 . S
O154 C148 1.255 . S
C155 O159 1.295 . S
C155 O160 1.235 . S
O156 Fe141 1.976 . S
O156 C150 1.287 . S
O157 Fe143 1.996 . S
O157 C150 1.255 . S
C158 O151 1.287 . S
C158 O152 1.255 . S
O159 Fe141 2.002 . S
O159 C155 1.295 . S
O160 Fe143 1.997 . S
O160 C155 1.235 . S
C161 O144 1.295 . S
C161 O145 1.235 . S
Fe162 O164 1.918 . S
Fe162 O167 1.997 . S
Fe162 O168 2.002 . S
Fe162 O173 1.976 . S
Fe162 O176 1.996 . S
Fe163 O164 1.918 . S
Fe163 O171 1.997 . S
Fe163 O174 1.996 . S
Fe163 O178 1.976 . S
Fe163 O181 2.002 . S
O164 Fe162 1.918 . S
O164 Fe163 1.918 . S
O164 Fe165 1.918 . S
Fe165 O164 1.918 . S
Fe165 O166 2.002 . S
Fe165 O175 1.976 . S
Fe165 O179 1.996 . S
Fe165 O182 1.997 . S
O166 Fe165 2.002 . S
O166 C183 1.295 . S
O167 Fe162 1.997 . S
O167 C183 1.235 . S
O168 Fe162 2.002 . S
O168 C169 1.295 . S
C169 O168 1.295 . S
C169 O171 1.235 . S
C170 O175 1.287 . S
C170 O176 1.255 . S
O171 Fe163 1.997 . S
O171 C169 1.235 . S
C172 O178 1.287 . S
C172 O179 1.255 . S
O173 Fe162 1.976 . S
O173 C180 1.287 . S
O174 Fe163 1.996 . S
O174 C180 1.255 . S
O175 Fe165 1.976 . S
O175 C170 1.287 . S
O176 Fe162 1.996 . S
O176 C170 1.255 . S
C177 O181 1.295 . S
C177 O182 1.235 . S
O178 Fe163 1.976 . S
O178 C172 1.287 . S
O179 Fe165 1.996 . S
O179 C172 1.255 . S
C180 O173 1.287 . S
C180 O174 1.255 . S
O181 Fe163 2.002 . S
O181 C177 1.295 . S
O182 Fe165 1.997 . S
O182 C177 1.235 . S
C183 O166 1.295 . S
C183 O167 1.235 . S
H184 C192 0.950 . S
H185 C197 0.946 1_554 S
H186 C194 0.950 . S
H187 C196 0.950 . S
H188 C198 0.950 . S
H189 C200 0.950 . S
H190 C202 0.950 . S
H191 C203 0.950 . S
C192 H184 0.950 . S
C192 C193 1.386 . S
C192 C194 1.391 . S
C193 C192 1.386 . S
C193 C197 1.393 . S
C194 H186 0.950 . S
C194 C192 1.391 . S
C194 C195 1.400 . S
C195 C194 1.400 . S
C195 C196 1.398 . S
C195 C201 1.491 . S
C196 H187 0.950 . S
C196 C195 1.398 . S
C196 C197 1.391 . S
C197 H185 0.946 1_556 S
C197 C193 1.393 . S
C197 C196 1.391 . S
C198 H188 0.950 . S
C198 C199 1.386 . S
C198 C200 1.391 . S
C199 C198 1.386 . S
C199 C203 1.393 . S
C200 H189 0.950 . S
C200 C198 1.391 . S
C200 C201 1.400 . S
C201 C195 1.491 . S
C201 C200 1.400 . S
C201 C202 1.398 . S
C202 H190 0.950 . S
C202 C201 1.398 . S
C202 C203 1.391 . S
C203 H191 0.950 . S
C203 C199 1.393 . S
C203 C202 1.391 . S
H204 C212 0.950 . S
H205 C217 0.950 . S
H206 C214 0.950 . S
H207 C216 0.950 . S
H208 C218 0.950 . S
H209 C220 0.950 . S
H210 C222 0.950 . S
H211 C223 0.950 . S
C212 H204 0.950 . S
C212 C213 1.386 . S
C212 C214 1.391 . S
C213 C212 1.386 . S
C213 C217 1.393 . S
C214 H206 0.950 . S
C214 C212 1.391 . S
C214 C215 1.400 . S
C215 C214 1.400 . S
C215 C216 1.398 . S
C215 C221 1.491 . S
C216 H207 0.950 . S
C216 C215 1.398 . S
C216 C217 1.391 . S
C217 H205 0.950 . S
C217 C213 1.393 . S
C217 C216 1.391 . S
C218 H208 0.950 . S
C218 C219 1.386 . S
C218 C220 1.391 . S
C219 C218 1.386 . S
C219 C223 1.393 . S
C220 H209 0.950 . S
C220 C218 1.391 . S
C220 C221 1.400 . S
C221 C215 1.491 . S
C221 C220 1.400 . S
C221 C222 1.398 . S
C222 H210 0.950 . S
C222 C221 1.398 . S
C222 C223 1.391 . S
C223 H211 0.950 . S
C223 C219 1.393 . S
C223 C222 1.391 . S
H224 C232 0.950 . S
H225 C237 0.950 . S
H226 C234 0.950 . S
H227 C236 0.950 . S
H228 C238 0.950 . S
H229 C240 0.950 . S
H230 C242 0.950 . S
H231 C243 0.950 . S
C232 H224 0.950 . S
C232 C233 1.386 . S
C232 C234 1.391 . S
C233 C232 1.386 . S
C233 C237 1.393 . S
C234 H226 0.950 . S
C234 C232 1.391 . S
C234 C235 1.400 . S
C235 C234 1.400 . S
C235 C236 1.398 . S
C235 C241 1.491 . S
C236 H227 0.950 . S
C236 C235 1.398 . S
C236 C237 1.391 . S
C237 H225 0.950 . S
C237 C233 1.393 . S
C237 C236 1.391 . S
C238 H228 0.950 . S
C238 C239 1.386 . S
C238 C240 1.391 . S
C239 C238 1.386 . S
C239 C243 1.393 . S
C240 H229 0.950 . S
C240 C238 1.391 . S
C240 C241 1.400 . S
C241 C235 1.491 . S
C241 C240 1.400 . S
C241 C242 1.398 . S
C242 H230 0.950 . S
C242 C241 1.398 . S
C242 C243 1.391 . S
C243 H231 0.950 . S
C243 C239 1.393 . S
C243 C242 1.391 . S
H244 C252 0.950 . S
H245 C257 0.950 . S
H246 C254 0.950 . S
H247 C256 0.950 . S
H248 C258 0.950 . S
H249 C260 0.950 . S
H250 C262 0.950 . S
H251 C263 0.950 . S
C252 H244 0.950 . S
C252 C253 1.386 . S
C252 C254 1.391 . S
C253 C252 1.386 . S
C253 C257 1.393 . S
C254 H246 0.950 . S
C254 C252 1.391 . S
C254 C255 1.400 . S
C255 C254 1.400 . S
C255 C256 1.398 . S
C255 C261 1.491 . S
C256 H247 0.950 . S
C256 C255 1.398 . S
C256 C257 1.391 . S
C257 H245 0.950 . S
C257 C253 1.393 . S
C257 C256 1.391 . S
C258 H248 0.950 . S
C258 C259 1.386 . S
C258 C260 1.391 . S
C259 C258 1.386 . S
C259 C263 1.393 . S
C260 H249 0.950 . S
C260 C258 1.391 . S
C260 C261 1.400 . S
C261 C255 1.491 . S
C261 C260 1.400 . S
C261 C262 1.398 . S
C262 H250 0.950 . S
C262 C261 1.398 . S
C262 C263 1.391 . S
C263 H251 0.950 . S
C263 C259 1.393 . S
C263 C262 1.391 . S
H264 C272 0.950 . S
H265 C277 0.950 . S
H266 C274 0.950 . S
H267 C276 0.950 . S
H268 C278 0.950 . S
H269 C280 0.950 . S
H270 C282 0.950 . S
H271 C283 0.950 . S
C272 H264 0.950 . S
C272 C273 1.386 . S
C272 C274 1.391 . S
C273 C272 1.386 . S
C273 C277 1.393 . S
C274 H266 0.950 . S
C274 C272 1.391 . S
C274 C275 1.400 . S
C275 C274 1.400 . S
C275 C276 1.398 . S
C275 C281 1.491 . S
C276 H267 0.950 . S
C276 C275 1.398 . S
C276 C277 1.391 . S
C277 H265 0.950 . S
C277 C273 1.393 . S
C277 C276 1.391 . S
C278 H268 0.950 . S
C278 C279 1.386 . S
C278 C280 1.391 . S
C279 C278 1.386 . S
C279 C283 1.393 . S
C280 H269 0.950 . S
C280 C278 1.391 . S
C280 C281 1.400 . S
C281 C275 1.491 . S
C281 C280 1.400 . S
C281 C282 1.398 . S
C282 H270 0.950 . S
C282 C281 1.398 . S
C282 C283 1.391 . S
C283 H271 0.950 . S
C283 C279 1.393 . S
C283 C282 1.391 . S
H284 C292 0.950 . S
H285 C297 0.950 . S
H286 C294 0.950 . S
H287 C296 0.950 . S
H288 C298 0.950 . S
H289 C300 0.950 . S
H290 C302 0.950 . S
H291 C303 0.950 . S
C292 H284 0.950 . S
C292 C293 1.386 . S
C292 C294 1.391 . S
C293 C292 1.386 . S
C293 C297 1.393 . S
C294 H286 0.950 . S
C294 C292 1.391 . S
C294 C295 1.400 . S
C295 C294 1.400 . S
C295 C296 1.398 . S
C295 C301 1.491 . S
C296 H287 0.950 . S
C296 C295 1.398 . S
C296 C297 1.391 . S
C297 H285 0.950 . S
C297 C293 1.393 . S
C297 C296 1.391 . S
C298 H288 0.950 . S
C298 C299 1.386 . S
C298 C300 1.391 . S
C299 C298 1.386 . S
C299 C303 1.393 . S
C300 H289 0.950 . S
C300 C298 1.391 . S
C300 C301 1.400 . S
C301 C295 1.491 . S
C301 C300 1.400 . S
C301 C302 1.398 . S
C302 H290 0.950 . S
C302 C301 1.398 . S
C302 C303 1.391 . S
C303 H291 0.950 . S
C303 C299 1.393 . S
C303 C302 1.391 . S
H304 C312 0.950 . S
H305 C317 0.950 . S
H306 C314 0.950 . S
H307 C316 0.950 . S
H308 C318 0.950 . S
H309 C320 0.950 . S
H310 C322 0.950 . S
H311 C323 0.950 . S
C312 H304 0.950 . S
C312 C313 1.386 . S
C312 C314 1.391 . S
C313 C312 1.386 . S
C313 C317 1.393 . S
C314 H306 0.950 . S
C314 C312 1.391 . S
C314 C315 1.400 . S
C315 C314 1.400 . S
C315 C316 1.398 . S
C315 C321 1.491 . S
C316 H307 0.950 . S
C316 C315 1.398 . S
C316 C317 1.391 . S
C317 H305 0.950 . S
C317 C313 1.393 . S
C317 C316 1.391 . S
C318 H308 0.950 . S
C318 C319 1.386 . S
C318 C320 1.391 . S
C319 C318 1.386 . S
C319 C323 1.393 . S
C320 H309 0.950 . S
C320 C318 1.391 . S
C320 C321 1.400 . S
C321 C315 1.491 . S
C321 C320 1.400 . S
C321 C322 1.398 . S
C322 H310 0.950 . S
C322 C321 1.398 . S
C322 C323 1.391 . S
C323 H311 0.950 . S
C323 C319 1.393 . S
C323 C322 1.391 . S
H324 C332 0.950 . S
H325 C337 0.950 . S
H326 C334 0.950 . S
H327 C336 0.950 . S
H328 C338 0.950 . S
H329 C340 0.950 . S
H330 C342 0.950 . S
H331 C343 0.950 . S
C332 H324 0.950 . S
C332 C333 1.386 . S
C332 C334 1.391 . S
C333 C332 1.386 . S
C333 C337 1.393 . S
C334 H326 0.950 . S
C334 C332 1.391 . S
C334 C335 1.400 . S
C335 C334 1.400 . S
C335 C336 1.398 . S
C335 C341 1.491 . S
C336 H327 0.950 . S
C336 C335 1.398 . S
C336 C337 1.391 . S
C337 H325 0.950 . S
C337 C333 1.393 . S
C337 C336 1.391 . S
C338 H328 0.950 . S
C338 C339 1.386 . S
C338 C340 1.391 . S
C339 C338 1.386 . S
C339 C343 1.393 . S
C340 H329 0.950 . S
C340 C338 1.391 . S
C340 C341 1.400 . S
C341 C335 1.491 . S
C341 C340 1.400 . S
C341 C342 1.398 . S
C342 H330 0.950 . S
C342 C341 1.398 . S
C342 C343 1.391 . S
C343 H331 0.950 . S
C343 C339 1.393 . S
C343 C342 1.391 . S
H344 C352 0.950 . S
H345 C357 0.950 . S
H346 C354 0.950 . S
H347 C356 0.950 . S
H348 C358 0.950 . S
H349 C360 0.950 . S
H350 C362 0.950 . S
H351 C363 0.950 . S
C352 H344 0.950 . S
C352 C353 1.386 . S
C352 C354 1.391 . S
C353 C352 1.386 . S
C353 C357 1.393 . S
C354 H346 0.950 . S
C354 C352 1.391 . S
C354 C355 1.400 . S
C355 C354 1.400 . S
C355 C356 1.398 . S
C355 C361 1.491 . S
C356 H347 0.950 . S
C356 C355 1.398 . S
C356 C357 1.391 . S
C357 H345 0.950 . S
C357 C353 1.393 . S
C357 C356 1.391 . S
C358 H348 0.950 . S
C358 C359 1.386 . S
C358 C360 1.391 . S
C359 C358 1.386 . S
C359 C363 1.393 . S
C360 H349 0.950 . S
C360 C358 1.391 . S
C360 C361 1.400 . S
C361 C355 1.491 . S
C361 C360 1.400 . S
C361 C362 1.398 . S
C362 H350 0.950 . S
C362 C361 1.398 . S
C362 C363 1.391 . S
C363 H351 0.950 . S
C363 C359 1.393 . S
C363 C362 1.391 . S
H364 C372 0.950 . S
H365 C377 0.950 . S
H366 C374 0.950 . S
H367 C376 0.950 . S
H368 C378 0.950 . S
H369 C380 0.950 . S
H370 C382 0.950 . S
H371 C383 0.950 . S
C372 H364 0.950 . S
C372 C373 1.386 . S
C372 C374 1.391 . S
C373 C372 1.386 . S
C373 C377 1.393 . S
C374 H366 0.950 . S
C374 C372 1.391 . S
C374 C375 1.400 . S
C375 C374 1.400 . S
C375 C376 1.398 . S
C375 C381 1.491 . S
C376 H367 0.950 . S
C376 C375 1.398 . S
C376 C377 1.391 . S
C377 H365 0.950 . S
C377 C373 1.393 . S
C377 C376 1.391 . S
C378 H368 0.950 . S
C378 C379 1.386 . S
C378 C380 1.391 . S
C379 C378 1.386 . S
C379 C383 1.393 . S
C380 H369 0.950 . S
C380 C378 1.391 . S
C380 C381 1.400 . S
C381 C375 1.491 . S
C381 C380 1.400 . S
C381 C382 1.398 . S
C382 H370 0.950 . S
C382 C381 1.398 . S
C382 C383 1.391 . S
C383 H371 0.950 . S
C383 C379 1.393 . S
C383 C382 1.391 . S
H384 C392 0.950 1_554 S
H385 C397 0.950 . S
H386 C394 0.950 . S
H387 C396 0.950 . S
H388 C398 0.950 . S
H389 C400 0.950 . S
H390 C402 0.950 . S
H391 C403 0.950 . S
C392 H384 0.950 1_556 S
C392 C393 1.386 . S
C392 C394 1.391 . S
C393 C392 1.386 . S
C393 C397 1.393 . S
C394 H386 0.950 . S
C394 C392 1.391 . S
C394 C395 1.400 . S
C395 C394 1.400 . S
C395 C396 1.398 . S
C395 C401 1.491 . S
C396 H387 0.950 . S
C396 C395 1.398 . S
C396 C397 1.391 . S
C397 H385 0.950 . S
C397 C393 1.393 . S
C397 C396 1.391 . S
C398 H388 0.950 . S
C398 C399 1.386 . S
C398 C400 1.391 . S
C399 C398 1.386 . S
C399 C403 1.393 . S
C400 H389 0.950 . S
C400 C398 1.391 . S
C400 C401 1.400 . S
C401 C395 1.491 . S
C401 C400 1.400 . S
C401 C402 1.398 . S
C402 H390 0.950 . S
C402 C401 1.398 . S
C402 C403 1.391 . S
C403 H391 0.950 . S
C403 C399 1.393 . S
C403 C402 1.391 . S
H404 C412 0.950 . S
H405 C417 0.950 . S
H406 C414 0.950 . S
H407 C416 0.950 . S
H408 C418 0.950 . S
H409 C420 0.950 . S
H410 C422 0.950 . S
H411 C423 0.950 . S
C412 H404 0.950 . S
C412 C413 1.386 . S
C412 C414 1.391 . S
C413 C412 1.386 . S
C413 C417 1.393 . S
C414 H406 0.950 . S
C414 C412 1.391 . S
C414 C415 1.400 . S
C415 C414 1.400 . S
C415 C416 1.398 . S
C415 C421 1.491 . S
C416 H407 0.950 . S
C416 C415 1.398 . S
C416 C417 1.391 . S
C417 H405 0.950 . S
C417 C413 1.393 . S
C417 C416 1.391 . S
C418 H408 0.950 . S
C418 C419 1.386 . S
C418 C420 1.391 . S
C419 C418 1.386 . S
C419 C423 1.393 . S
C420 H409 0.950 . S
C420 C418 1.391 . S
C420 C421 1.400 . S
C421 C415 1.491 . S
C421 C420 1.400 . S
C421 C422 1.398 . S
C422 H410 0.950 . S
C422 C421 1.398 . S
C422 C423 1.391 . S
C423 H411 0.950 . S
C423 C419 1.393 . S
C423 C422 1.391 . S
H424 C432 0.950 1_554 S
H425 C437 0.950 . S
H426 C434 0.950 . S
H427 C436 0.950 . S
H428 C438 0.950 . S
H429 C440 0.950 . S
H430 C442 0.950 1_565 S
H431 C443 0.950 . S
C432 H424 0.950 1_556 S
C432 C433 1.386 . S
C432 C434 1.391 . S
C433 C432 1.386 . S
C433 C437 1.393 . S
C434 H426 0.950 . S
C434 C432 1.391 . S
C434 C435 1.400 . S
C435 C434 1.400 . S
C435 C436 1.398 . S
C435 C441 1.468 1_565 S
C436 H427 0.950 . S
C436 C435 1.398 . S
C436 C437 1.391 . S
C437 H425 0.950 . S
C437 C433 1.393 . S
C437 C436 1.391 . S
C438 H428 0.950 . S
C438 C439 1.386 . S
C438 C440 1.391 . S
C439 C438 1.386 . S
C439 C443 1.393 . S
C440 H429 0.950 . S
C440 C438 1.391 . S
C440 C441 1.420 . S
C441 C435 1.468 1_545 S
C441 C440 1.420 . S
C441 C442 1.403 . S
C442 H430 0.950 1_545 S
C442 C441 1.403 . S
C442 C443 1.391 . S
C443 H431 0.950 . S
C443 C439 1.393 . S
C443 C442 1.391 . S
H444 C452 0.950 . S
H445 C457 0.950 . S
H446 C454 0.950 . S
H447 C456 0.950 . S
H448 C458 0.950 . S
H449 C460 0.950 . S
H450 C462 0.950 . S
H451 C463 0.950 . S
C452 H444 0.950 . S
C452 C453 1.386 . S
C452 C454 1.391 . S
C453 C452 1.386 . S
C453 C457 1.393 . S
C454 H446 0.950 . S
C454 C452 1.391 . S
C454 C455 1.400 . S
C455 C454 1.400 . S
C455 C456 1.398 . S
C455 C461 1.487 1_545 S
C456 H447 0.950 . S
C456 C455 1.398 . S
C456 C457 1.391 . S
C457 H445 0.950 . S
C457 C453 1.393 . S
C457 C456 1.391 . S
C458 H448 0.950 . S
C458 C459 1.386 . S
C458 C460 1.391 . S
C459 C458 1.386 . S
C459 C463 1.393 . S
C460 H449 0.950 . S
C460 C458 1.391 . S
C460 C461 1.402 . S
C461 C455 1.487 1_565 S
C461 C460 1.402 . S
C461 C462 1.400 . S
C462 H450 0.950 . S
C462 C461 1.400 . S
C462 C463 1.391 . S
C463 H451 0.950 . S
C463 C459 1.393 . S
C463 C462 1.391 . S
H464 C472 0.950 . S
H465 C477 0.950 1_554 S
H466 C474 0.950 . S
H467 C476 0.950 . S
H468 C478 0.950 . S
H469 C480 0.950 . S
H470 C482 0.950 . S
H471 C483 0.950 . S
C472 H464 0.950 . S
C472 C473 1.386 . S
C472 C474 1.391 . S
C473 C472 1.386 . S
C473 C477 1.393 . S
C474 H466 0.950 . S
C474 C472 1.391 . S
C474 C475 1.400 . S
C475 C474 1.400 . S
C475 C476 1.398 . S
C475 C481 1.491 1_565 S
C476 H467 0.950 . S
C476 C475 1.398 . S
C476 C477 1.391 . S
C477 H465 0.950 1_556 S
C477 C473 1.393 . S
C477 C476 1.391 . S
C478 H468 0.950 . S
C478 C479 1.386 . S
C478 C480 1.391 . S
C479 C478 1.386 . S
C479 C483 1.393 . S
C480 H469 0.950 . S
C480 C478 1.391 . S
C480 C481 1.400 . S
C481 C475 1.491 1_545 S
C481 C480 1.400 . S
C481 C482 1.398 . S
C482 H470 0.950 . S
C482 C481 1.398 . S
C482 C483 1.391 . S
C483 H471 0.950 . S
C483 C479 1.393 . S
C483 C482 1.391 . S
H484 C492 0.950 . S
H485 C497 0.950 . S
H486 C494 0.950 . S
H487 C496 0.950 . S
H488 C498 0.950 . S
H489 C500 0.950 . S
H490 C502 0.950 . S
H491 C503 0.950 . S
C492 H484 0.950 . S
C492 C493 1.386 . S
C492 C494 1.391 . S
C493 C492 1.386 . S
C493 C497 1.393 . S
C494 H486 0.950 . S
C494 C492 1.391 . S
C494 C495 1.400 . S
C495 C494 1.400 . S
C495 C496 1.398 . S
C495 C501 1.491 1_545 S
C496 H487 0.950 . S
C496 C495 1.398 . S
C496 C497 1.391 . S
C497 H485 0.950 . S
C497 C493 1.393 . S
C497 C496 1.391 . S
C498 H488 0.950 . S
C498 C499 1.386 . S
C498 C500 1.391 . S
C499 C498 1.386 . S
C499 C503 1.393 . S
C500 H489 0.950 . S
C500 C498 1.391 . S
C500 C501 1.400 . S
C501 C495 1.491 1_565 S
C501 C500 1.400 . S
C501 C502 1.398 . S
C502 H490 0.950 . S
C502 C501 1.398 . S
C502 C503 1.391 . S
C503 H491 0.950 . S
C503 C499 1.393 . S
C503 C502 1.391 . S
H504 C512 0.950 . S
H505 C517 0.950 . S
H506 C514 0.950 . S
H507 C516 0.950 . S
H508 C518 0.950 . S
H509 C520 0.950 . S
H510 C522 0.950 . S
H511 C523 0.950 . S
C512 H504 0.950 . S
C512 C513 1.386 . S
C512 C514 1.391 . S
C513 C512 1.386 . S
C513 C517 1.393 . S
C514 H506 0.950 . S
C514 C512 1.391 . S
C514 C515 1.400 . S
C515 C514 1.400 . S
C515 C516 1.398 . S
C515 C521 1.491 . S
C516 H507 0.950 . S
C516 C515 1.398 . S
C516 C517 1.391 . S
C517 H505 0.950 . S
C517 C513 1.393 . S
C517 C516 1.391 . S
C518 H508 0.950 . S
C518 C519 1.386 . S
C518 C520 1.391 . S
C519 C518 1.386 . S
C519 C523 1.393 . S
C520 H509 0.950 . S
C520 C518 1.391 . S
C520 C521 1.400 . S
C521 C515 1.491 . S
C521 C520 1.400 . S
C521 C522 1.398 . S
C522 H510 0.950 . S
C522 C521 1.398 . S
C522 C523 1.391 . S
C523 H511 0.950 . S
C523 C519 1.393 . S
C523 C522 1.391 . S
H524 C532 0.950 . S
H525 C537 0.950 . S
H526 C534 0.950 . S
H527 C536 0.950 . S
H528 C538 0.950 . S
H529 C540 0.950 . S
H530 C542 0.950 . S
H531 C543 0.950 . S
C532 H524 0.950 . S
C532 C533 1.386 . S
C532 C534 1.391 . S
C533 C532 1.386 . S
C533 C537 1.393 . S
C534 H526 0.950 . S
C534 C532 1.391 . S
C534 C535 1.400 . S
C535 C534 1.400 . S
C535 C536 1.398 . S
C535 C541 1.491 . S
C536 H527 0.950 . S
C536 C535 1.398 . S
C536 C537 1.391 . S
C537 H525 0.950 . S
C537 C533 1.393 . S
C537 C536 1.391 . S
C538 H528 0.950 . S
C538 C539 1.386 . S
C538 C540 1.391 . S
C539 C538 1.386 . S
C539 C543 1.393 . S
C540 H529 0.950 . S
C540 C538 1.391 . S
C540 C541 1.400 . S
C541 C535 1.491 . S
C541 C540 1.400 . S
C541 C542 1.398 . S
C542 H530 0.950 . S
C542 C541 1.398 . S
C542 C543 1.391 . S
C543 H531 0.950 . S
C543 C539 1.393 . S
C543 C542 1.391 . S
H544 C552 0.950 . S
H545 C557 0.950 . S
H546 C554 0.950 . S
H547 C556 0.950 . S
H548 C558 0.950 . S
H549 C560 0.950 . S
H550 C562 0.950 . S
H551 C563 0.950 . S
C552 H544 0.950 . S
C552 C553 1.386 . S
C552 C554 1.391 . S
C553 C552 1.386 . S
C553 C557 1.393 . S
C554 H546 0.950 . S
C554 C552 1.391 . S
C554 C555 1.400 . S
C555 C554 1.400 . S
C555 C556 1.398 . S
C555 C561 1.491 . S
C556 H547 0.950 . S
C556 C555 1.398 . S
C556 C557 1.391 . S
C557 H545 0.950 . S
C557 C553 1.393 . S
C557 C556 1.391 . S
C558 H548 0.950 . S
C558 C559 1.386 . S
C558 C560 1.391 . S
C559 C558 1.386 . S
C559 C563 1.393 . S
C560 H549 0.950 . S
C560 C558 1.391 . S
C560 C561 1.400 . S
C561 C555 1.491 . S
C561 C560 1.400 . S
C561 C562 1.398 . S
C562 H550 0.950 . S
C562 C561 1.398 . S
C562 C563 1.391 . S
C563 H551 0.950 . S
C563 C559 1.393 . S
C563 C562 1.391 . S
H564 C572 0.950 . S
H565 C577 0.950 . S
H566 C574 0.950 . S
H567 C576 0.950 . S
H568 C578 0.950 . S
H569 C580 0.950 . S
H570 C582 0.950 . S
H571 C583 0.950 . S
C572 H564 0.950 . S
C572 C573 1.386 . S
C572 C574 1.391 . S
C573 C572 1.386 . S
C573 C577 1.393 . S
C574 H566 0.950 . S
C574 C572 1.391 . S
C574 C575 1.400 . S
C575 C574 1.400 . S
C575 C576 1.398 . S
C575 C581 1.491 . S
C576 H567 0.950 . S
C576 C575 1.398 . S
C576 C577 1.391 . S
C577 H565 0.950 . S
C577 C573 1.393 . S
C577 C576 1.391 . S
C578 H568 0.950 . S
C578 C579 1.386 . S
C578 C580 1.391 . S
C579 C578 1.386 . S
C579 C583 1.393 . S
C580 H569 0.950 . S
C580 C578 1.391 . S
C580 C581 1.400 . S
C581 C575 1.491 . S
C581 C580 1.400 . S
C581 C582 1.398 . S
C582 H570 0.950 . S
C582 C581 1.398 . S
C582 C583 1.391 . S
C583 H571 0.950 . S
C583 C579 1.393 . S
C583 C582 1.391 . S
H584 C592 0.950 . S
H585 C597 0.950 . S
H586 C594 0.950 . S
H587 C596 0.950 . S
H588 C598 0.950 . S
H589 C600 0.950 . S
H590 C602 0.950 . S
H591 C603 0.950 . S
C592 H584 0.950 . S
C592 C593 1.386 . S
C592 C594 1.391 . S
C593 C592 1.386 . S
C593 C597 1.393 . S
C594 H586 0.950 . S
C594 C592 1.391 . S
C594 C595 1.400 . S
C595 C594 1.400 . S
C595 C596 1.398 . S
C595 C601 1.491 . S
C596 H587 0.950 . S
C596 C595 1.398 . S
C596 C597 1.391 . S
C597 H585 0.950 . S
C597 C593 1.393 . S
C597 C596 1.391 . S
C598 H588 0.950 . S
C598 C599 1.386 . S
C598 C600 1.391 . S
C599 C598 1.386 . S
C599 C603 1.393 . S
C600 H589 0.950 . S
C600 C598 1.391 . S
C600 C601 1.400 . S
C601 C595 1.491 . S
C601 C600 1.400 . S
C601 C602 1.398 . S
C602 H590 0.950 . S
C602 C601 1.398 . S
C602 C603 1.391 . S
C603 H591 0.950 . S
C603 C599 1.393 . S
C603 C602 1.391 . S
H604 C612 0.950 . S
H605 C617 0.950 . S
H606 C614 0.950 . S
H607 C616 0.950 . S
H608 C618 0.950 . S
H609 C620 0.950 . S
H610 C622 0.950 . S
H611 C623 0.950 . S
C612 H604 0.950 . S
C612 C613 1.386 . S
C612 C614 1.391 . S
C613 C612 1.386 . S
C613 C617 1.393 . S
C614 H606 0.950 . S
C614 C612 1.391 . S
C614 C615 1.400 . S
C615 C614 1.400 . S
C615 C616 1.398 . S
C615 C621 1.491 . S
C616 H607 0.950 . S
C616 C615 1.398 . S
C616 C617 1.391 . S
C617 H605 0.950 . S
C617 C613 1.393 . S
C617 C616 1.391 . S
C618 H608 0.950 . S
C618 C619 1.386 . S
C618 C620 1.391 . S
C619 C618 1.386 . S
C619 C623 1.393 . S
C620 H609 0.950 . S
C620 C618 1.391 . S
C620 C621 1.400 . S
C621 C615 1.491 . S
C621 C620 1.400 . S
C621 C622 1.398 . S
C622 H610 0.950 . S
C622 C621 1.398 . S
C622 C623 1.391 . S
C623 H611 0.950 . S
C623 C619 1.393 . S
C623 C622 1.391 . S
H624 C632 0.950 . S
H625 C637 0.950 . S
H626 C634 0.950 . S
H627 C636 0.950 . S
H628 C638 0.950 . S
H629 C640 0.950 . S
H630 C642 0.950 . S
H631 C643 0.950 . S
C632 H624 0.950 . S
C632 C633 1.386 . S
C632 C634 1.391 . S
C633 C632 1.386 . S
C633 C637 1.393 . S
C634 H626 0.950 . S
C634 C632 1.391 . S
C634 C635 1.400 . S
C635 C634 1.400 . S
C635 C636 1.398 . S
C635 C641 1.491 . S
C636 H627 0.950 . S
C636 C635 1.398 . S
C636 C637 1.391 . S
C637 H625 0.950 . S
C637 C633 1.393 . S
C637 C636 1.391 . S
C638 H628 0.950 . S
C638 C639 1.386 . S
C638 C640 1.391 . S
C639 C638 1.386 . S
C639 C643 1.393 . S
C640 H629 0.950 . S
C640 C638 1.391 . S
C640 C641 1.400 . S
C641 C635 1.491 . S
C641 C640 1.400 . S
C641 C642 1.398 . S
C642 H630 0.950 . S
C642 C641 1.398 . S
C642 C643 1.391 . S
C643 H631 0.950 . S
C643 C639 1.393 . S
C643 C642 1.391 . S
H644 C652 0.950 . S
H645 C657 0.950 . S
H646 C654 0.950 . S
H647 C656 0.950 . S
H648 C658 0.950 . S
H649 C660 0.950 . S
H650 C662 0.950 . S
H651 C663 0.950 . S
C652 H644 0.950 . S
C652 C653 1.386 . S
C652 C654 1.391 . S
C653 C652 1.386 . S
C653 C657 1.393 . S
C654 H646 0.950 . S
C654 C652 1.391 . S
C654 C655 1.400 . S
C655 C654 1.400 . S
C655 C656 1.398 . S
C655 C661 1.491 . S
C656 H647 0.950 . S
C656 C655 1.398 . S
C656 C657 1.391 . S
C657 H645 0.950 . S
C657 C653 1.393 . S
C657 C656 1.391 . S
C658 H648 0.950 . S
C658 C659 1.386 . S
C658 C660 1.391 . S
C659 C658 1.386 . S
C659 C663 1.393 . S
C660 H649 0.950 . S
C660 C658 1.391 . S
C660 C661 1.400 . S
C661 C655 1.491 . S
C661 C660 1.400 . S
C661 C662 1.398 . S
C662 H650 0.950 . S
C662 C661 1.398 . S
C662 C663 1.391 . S
C663 H651 0.950 . S
C663 C659 1.393 . S
C663 C662 1.391 . S
C193 C4 1.545 . S
C199 C139 1.534 . S
C219 C103 1.534 . S
C213 C16 1.546 . S
C239 C126 1.544 . S
C233 C28 1.536 . S
C259 C114 1.542 . S
C253 C40 1.526 . S
C279 C183 1.535 . S
C273 C52 1.544 . S
C299 C147 1.544 . S
C293 C64 1.554 . S
C313 C76 1.530 . S
C319 C170 1.541 . S
C339 C158 1.539 . S
C333 C88 1.525 . S
C353 C9 1.499 . S
C359 C180 1.526 . S
C379 C150 1.527 . S
C373 C21 1.491 . S
C393 C33 1.532 . S
C399 C169 1.541 . S
C413 C45 1.536 . S
C419 C155 1.539 . S
C439 C136 1.527 . S
C433 C57 1.495 . S
C453 C69 1.498 . S
C459 C106 1.526 . S
C479 C125 1.548 . S
C473 C81 1.523 . S
C499 C111 1.542 . S
C493 C93 1.530 . S
C519 C161 1.519 . S
C513 C6 1.515 . S
C539 C177 1.517 . S
C533 C18 1.516 . S
C553 C30 1.492 . S
C559 C148 1.493 . S
C579 C172 1.494 . S
C573 C42 1.493 . S
C599 C117 1.515 . S
C593 C54 1.519 . S
C613 C66 1.509 . S
C619 C133 1.526 . S
C633 C78 1.488 . S
C639 C104 1.495 . S
C653 C90 1.487 . S
C659 C128 1.495 . S
