# Generated by pormake.
# Topology zzz, (3,6)-cn, num edge types: 1
# Building blocks:
#     Node 0, Type 0, BuildingBlock: PAMTOO_clean_linker_0, # of connection points: 3
#     Node 1, Type 0, BuildingBlock: PAMTOO_clean_linker_0, # of connection points: 3
#     Node 2, Type 0, BuildingBlock: PAMTOO_clean_linker_0, # of connection points: 3
#     Node 3, Type 0, BuildingBlock: PAMTOO_clean_linker_0, # of connection points: 3
#     Node 4, Type 0, BuildingBlock: PAMTOO_clean_linker_0, # of connection points: 3
#     Node 5, Type 0, BuildingBlock: PAMTOO_clean_linker_0, # of connection points: 3
#     Node 6, Type 0, BuildingBlock: PAMTOO_clean_linker_0, # of connection points: 3
#     Node 7, Type 0, BuildingBlock: PAMTOO_clean_linker_0, # of connection points: 3
#     Node 8, Type 1, BuildingBlock: CIFDUS_clean_sbu_1, # of connection points: 6
#     Node 9, Type 1, BuildingBlock: CIFDUS_clean_sbu_1, # of connection points: 6
#     Node 10, Type 1, BuildingBlock: CIFDUS_clean_sbu_1, # of connection points: 6
#     Node 11, Type 1, BuildingBlock: CIFDUS_clean_sbu_1, # of connection points: 6
#     Edge 12, Type (0, 1), BuildingBlock: MIFKUJ_clean_linker_0, # of connection points: 2
#     Edge 13, Type (0, 1), BuildingBlock: MIFKUJ_clean_linker_0, # of connection points: 2
#     Edge 14, Type (0, 1), BuildingBlock: MIFKUJ_clean_linker_0, # of connection points: 2
#     Edge 15, Type (0, 1), BuildingBlock: MIFKUJ_clean_linker_0, # of connection points: 2
#     Edge 16, Type (0, 1), BuildingBlock: MIFKUJ_clean_linker_0, # of connection points: 2
#     Edge 17, Type (0, 1), BuildingBlock: MIFKUJ_clean_linker_0, # of connection points: 2
#     Edge 18, Type (0, 1), BuildingBlock: MIFKUJ_clean_linker_0, # of connection points: 2
#     Edge 19, Type (0, 1), BuildingBlock: MIFKUJ_clean_linker_0, # of connection points: 2
#     Edge 20, Type (0, 1), BuildingBlock: MIFKUJ_clean_linker_0, # of connection points: 2
#     Edge 21, Type (0, 1), BuildingBlock: MIFKUJ_clean_linker_0, # of connection points: 2
#     Edge 22, Type (0, 1), BuildingBlock: MIFKUJ_clean_linker_0, # of connection points: 2
#     Edge 23, Type (0, 1), BuildingBlock: MIFKUJ_clean_linker_0, # of connection points: 2
#     Edge 24, Type (0, 1), BuildingBlock: MIFKUJ_clean_linker_0, # of connection points: 2
#     Edge 25, Type (0, 1), BuildingBlock: MIFKUJ_clean_linker_0, # of connection points: 2
#     Edge 26, Type (0, 1), BuildingBlock: MIFKUJ_clean_linker_0, # of connection points: 2
#     Edge 27, Type (0, 1), BuildingBlock: MIFKUJ_clean_linker_0, # of connection points: 2
#     Edge 28, Type (0, 1), BuildingBlock: MIFKUJ_clean_linker_0, # of connection points: 2
#     Edge 29, Type (0, 1), BuildingBlock: MIFKUJ_clean_linker_0, # of connection points: 2
#     Edge 30, Type (0, 1), BuildingBlock: MIFKUJ_clean_linker_0, # of connection points: 2
#     Edge 31, Type (0, 1), BuildingBlock: MIFKUJ_clean_linker_0, # of connection points: 2
#     Edge 32, Type (0, 1), BuildingBlock: MIFKUJ_clean_linker_0, # of connection points: 2
#     Edge 33, Type (0, 1), BuildingBlock: MIFKUJ_clean_linker_0, # of connection points: 2
#     Edge 34, Type (0, 1), BuildingBlock: MIFKUJ_clean_linker_0, # of connection points: 2
#     Edge 35, Type (0, 1), BuildingBlock: MIFKUJ_clean_linker_0, # of connection points: 2
# Relax obj value: 0.142
# Max RMSD: 0.188
# Mean RMSD: 0.105
data_MOF--net-zzz--node1-CIFDUS_clean_sbu_1--node2-PAMTOO_clean_linker_0--edge1-MIFKUJ_clean_linker_0
_symmetry_space_group_name_H-M    P1
_symmetry_Int_Tables_number       1
_symmetry_cell_setting            triclinic
loop_
_symmetry_equiv_pos_as_xyz
'x, y, z'
_cell_length_a     64.946042
_cell_length_b     64.945466
_cell_length_c     20.614004
_cell_angle_alpha  89.828329
_cell_angle_beta   89.948953
_cell_angle_gamma 90.000313
loop_
_atom_site_label
_atom_site_type_symbol
_atom_site_fract_x
_atom_site_fract_y
_atom_site_fract_z
_atom_type_partial_charge
H0 H 0.82866 0.55588 0.1406 0.0
H1 H 0.76894 0.55662 0.05218 0.0
H2 H 0.77496 0.54282 0.25605 0.0
H3 H 0.7327 0.52124 0.1782 0.0
C4 C 0.73849 0.52989 0.13534 0.0
O5 O 0.74869 0.54735 0.15682 0.0
H6 H 0.74922 0.51934 0.10939 0.0
C7 C 0.81207 0.55484 0.14552 0.0
C8 C 0.8036 0.54991 0.20611 0.0
C9 C 0.79978 0.55746 0.09031 0.0
C10 C 0.77851 0.55488 0.09491 0.0
C11 C 0.76948 0.54949 0.15425 0.0
C12 C 0.78202 0.54681 0.2101 0.0
H13 H 0.95863 0.82489 0.15941 0.0
H14 H 0.95881 0.7665 0.0621 0.0
H15 H 0.97517 0.77004 0.26424 0.0
H16 H 0.99601 0.72922 0.18189 0.0
C17 C 0.9877 0.73628 0.14036 0.0
O18 O 0.96963 0.74505 0.16311 0.0
H19 H 0.99807 0.74826 0.11931 0.0
C20 C 0.96002 0.80823 0.16137 0.0
C21 C 0.96666 0.79898 0.21893 0.0
C22 C 0.95739 0.79674 0.10464 0.0
C23 C 0.96022 0.77541 0.10625 0.0
C24 C 0.9663 0.76566 0.16379 0.0
C25 C 0.96968 0.77746 0.22044 0.0
H26 H 0.69704 0.95755 0.14226 0.0
H27 H 0.75814 0.96177 0.0651 0.0
H28 H 0.74845 0.96592 0.27163 0.0
H29 H 0.79613 0.98796 0.20528 0.0
C30 C 0.78737 0.98323 0.16159 0.0
O31 O 0.77654 0.96537 0.17615 0.0
H32 H 0.77658 0.99607 0.14994 0.0
C33 C 0.7135 0.9585 0.15088 0.0
C34 C 0.72083 0.96093 0.21427 0.0
C35 C 0.72678 0.95897 0.09752 0.0
C36 C 0.7479 0.96114 0.10663 0.0
C37 C 0.75584 0.96354 0.16915 0.0
C38 C 0.74229 0.96383 0.22331 0.0
H39 H 0.56534 0.69446 0.15631 0.0
H40 H 0.56049 0.75313 0.06163 0.0
H41 H 0.55384 0.74886 0.26936 0.0
H42 H 0.53275 0.79275 0.19916 0.0
C43 C 0.53787 0.78493 0.15414 0.0
O44 O 0.55604 0.77448 0.16718 0.0
H45 H 0.52547 0.7739 0.14037 0.0
C46 C 0.56374 0.71104 0.15968 0.0
C47 C 0.55999 0.71997 0.22015 0.0
C48 C 0.56353 0.72275 0.10268 0.0
C49 C 0.56082 0.74404 0.10581 0.0
C50 C 0.55779 0.75363 0.16573 0.0
C51 C 0.5568 0.74153 0.22316 0.0
H52 H 0.19589 0.4594 0.30434 0.0
H53 H 0.25525 0.46115 0.39318 0.0
H54 H 0.24936 0.47178 0.18717 0.0
H55 H 0.2721 0.49943 0.33154 0.0
C56 C 0.28389 0.48927 0.30873 0.0
O57 O 0.27527 0.47086 0.28826 0.0
H58 H 0.28978 0.49773 0.26562 0.0
C59 C 0.21246 0.46039 0.29874 0.0
C60 C 0.22086 0.46425 0.23739 0.0
C61 C 0.22466 0.45854 0.35414 0.0
C62 C 0.24579 0.46191 0.34994 0.0
C63 C 0.25472 0.46711 0.29018 0.0
C64 C 0.2423 0.4682 0.23344 0.0
H65 H 0.0586 0.19211 0.28736 0.0
H66 H 0.05127 0.249 0.38892 0.0
H67 H 0.0475 0.24799 0.17996 0.0
H68 H 0.06252 0.29475 0.2492 0.0
C69 C 0.06017 0.2864 0.29571 0.0
O70 O 0.0451 0.27153 0.28672 0.0
H71 H 0.0752 0.27912 0.30831 0.0
C72 C 0.05687 0.20872 0.2856 0.0
C73 C 0.05395 0.21847 0.22564 0.0
C74 C 0.05648 0.21957 0.34401 0.0
C75 C 0.05224 0.24062 0.34362 0.0
C76 C 0.04926 0.25102 0.28481 0.0
C77 C 0.05003 0.23997 0.22537 0.0
H78 H 0.32507 0.06496 0.29176 0.0
H79 H 0.2663 0.06152 0.3849 0.0
H80 H 0.2716 0.04724 0.18176 0.0
H81 H 0.24949 0.02474 0.33726 0.0
C82 C 0.23767 0.03312 0.30821 0.0
O83 O 0.24559 0.05134 0.28288 0.0
H84 H 0.23357 0.02283 0.26724 0.0
C85 C 0.30848 0.0632 0.28776 0.0
C86 C 0.30004 0.05648 0.22907 0.0
C87 C 0.29659 0.06404 0.34422 0.0
C88 C 0.27536 0.06133 0.34078 0.0
C89 C 0.2661 0.05564 0.28233 0.0
C90 C 0.2785 0.05289 0.22608 0.0
H91 H 0.46829 0.32222 0.29069 0.0
H92 H 0.47742 0.26288 0.37624 0.0
H93 H 0.4672 0.26808 0.17017 0.0
H94 H 0.45127 0.22148 0.24232 0.0
C95 C 0.45721 0.22869 0.28739 0.0
O96 O 0.4731 0.24195 0.27018 0.0
H97 H 0.44417 0.23729 0.30972 0.0
C98 C 0.46836 0.30559 0.28524 0.0
C99 C 0.46674 0.29697 0.22334 0.0
C100 C 0.47235 0.29339 0.33966 0.0
C101 C 0.47386 0.27213 0.33393 0.0
C102 C 0.47136 0.26278 0.27352 0.0
C103 C 0.46819 0.27522 0.21746 0.0
O104 O 0.02461 0.0316 0.78568 0.0
Mn105 Mn 0.0121 0.00745 0.72672 0.0
O106 O 0.99998 0.03932 0.85301 0.0
Mn107 Mn 0.98423 0.03449 0.78134 0.0
O108 O 0.0022 0.98327 0.66339 0.0
O109 O 0.04162 0.00517 0.68808 0.0
Mn110 Mn 0.04648 0.97815 0.69155 0.0
O111 O 0.01674 0.98692 0.8014 0.0
O112 O 0.03119 0.96915 0.62235 0.0
O113 O 0.00629 0.02838 0.65412 0.0
O114 O 0.98827 0.05133 0.71039 0.0
O115 O 0.07159 0.99018 0.6941 0.0
O116 O 0.04043 0.96476 0.76799 0.0
C117 C 0.96217 0.01298 0.78331 0.0
C118 C 0.01861 0.04035 0.83811 0.0
C119 C 0.01167 0.97135 0.62258 0.0
C120 C 0.06157 0.00738 0.69465 0.0
C121 C 0.02736 0.97066 0.80934 0.0
C122 C 0.99719 0.04572 0.65863 0.0
O123 O 0.9808 0.00794 0.76091 0.0
O124 O 0.95835 0.03172 0.80128 0.0
O125 O 0.53292 0.00703 0.79751 0.0
Mn126 Mn 0.51122 0.01028 0.72446 0.0
O127 O 0.54872 0.03682 0.80969 0.0
Mn128 Mn 0.54297 0.04226 0.72435 0.0
O129 O 0.49005 0.01431 0.64979 0.0
O130 O 0.50594 0.9784 0.74719 0.0
Mn131 Mn 0.48009 0.98149 0.7166 0.0
O132 O 0.48894 0.01931 0.79343 0.0
O133 O 0.47829 0.98381 0.62859 0.0
O134 O 0.53415 0.0014 0.65542 0.0
O135 O 0.55735 0.02675 0.66497 0.0
O136 O 0.47944 0.95575 0.74108 0.0
O137 O 0.46323 0.99841 0.76645 0.0
C138 C 0.51973 0.06162 0.69505 0.0
C139 C 0.54556 0.01854 0.82783 0.0
C140 C 0.48036 0.00224 0.61215 0.0
C141 C 0.49833 0.95956 0.7573 0.0
C142 C 0.47017 0.01335 0.79938 0.0
C143 C 0.55164 0.00972 0.64055 0.0
O144 O 0.51621 0.04182 0.7062 0.0
O145 O 0.53829 0.06844 0.70385 0.0
O146 O 0.50908 0.53069 0.7963 0.0
Mn147 Mn 0.50935 0.50954 0.72166 0.0
O148 O 0.47856 0.54594 0.79906 0.0
Mn149 Mn 0.47329 0.53762 0.71573 0.0
O150 O 0.50936 0.48855 0.64633 0.0
O151 O 0.54104 0.50815 0.74323 0.0
Mn152 Mn 0.54448 0.48214 0.71792 0.0
O153 O 0.50311 0.48525 0.788 0.0
O154 O 0.54146 0.47947 0.63019 0.0
O155 O 0.51565 0.53374 0.65392 0.0
O156 O 0.48667 0.55243 0.65203 0.0
O157 O 0.56971 0.48862 0.74366 0.0
O158 O 0.52957 0.46401 0.76967 0.0
C159 C 0.45776 0.51091 0.69128 0.0
C160 C 0.49642 0.54328 0.82197 0.0
C161 C 0.52299 0.47956 0.61213 0.0
C162 C 0.56097 0.50615 0.75553 0.0
C163 C 0.51246 0.46794 0.79722 0.0
C164 C 0.50491 0.54906 0.63218 0.0
O165 O 0.47772 0.51088 0.70345 0.0
O166 O 0.44805 0.52823 0.69752 0.0
O167 O 0.03494 0.50265 0.79411 0.0
Mn168 Mn 0.01119 0.51049 0.72703 0.0
O169 O 0.05439 0.53083 0.80113 0.0
Mn170 Mn 0.0401 0.54447 0.73776 0.0
O171 O 0.98692 0.51675 0.66147 0.0
O172 O 0.00907 0.47918 0.70403 0.0
Mn173 Mn 0.98385 0.47497 0.73433 0.0
O174 O 0.98978 0.51078 0.80256 0.0
O175 O 0.96553 0.49053 0.68464 0.0
O176 O 0.03262 0.51047 0.65175 0.0
O177 O 0.04939 0.5401 0.65547 0.0
O178 O 0.99093 0.44993 0.70597 0.0
O179 O 0.98299 0.4784 0.8224 0.0
C180 C 0.01526 0.56231 0.75809 0.0
C181 C 0.05057 0.51241 0.81714 0.0
C182 C 0.96949 0.50737 0.65483 0.0
C183 C 0.00769 0.45944 0.6896 0.0
C184 C 0.98158 0.49701 0.83844 0.0
C185 C 0.04613 0.52288 0.62925 0.0
O186 O 0.01286 0.54235 0.74652 0.0
O187 O 0.03363 0.57014 0.7556 0.0
H188 H 0.19684 0.02696 0.27958 0.0
H189 H 0.16702 0.02916 0.35168 0.0
H190 H 0.20624 0.04982 0.50714 0.0
H191 H 0.23632 0.04689 0.4352 0.0
H192 H 0.17941 0.02158 0.55167 0.0
H193 H 0.17249 0.08383 0.42791 0.0
H194 H 0.17215 0.10363 0.32562 0.0
H195 H 0.12076 0.06804 0.2581 0.0
H196 H 0.12093 0.04791 0.35981 0.0
H197 H 0.09197 0.03013 0.74961 0.0
H198 H 0.12219 0.04242 0.69006 0.0
H199 H 0.09084 0.03067 0.50948 0.0
H200 H 0.06026 0.01985 0.56928 0.0
H201 H 0.11597 0.05859 0.48544 0.0
H202 H 0.125 0.99383 0.60021 0.0
H203 H 0.12668 0.97123 0.69651 0.0
H204 H 0.17461 0.00886 0.77688 0.0
H205 H 0.17305 0.03181 0.68132 0.0
C206 C 0.19909 0.03223 0.32886 0.0
C207 C 0.21897 0.0369 0.35133 0.0
C208 C 0.18198 0.03353 0.37024 0.0
C209 C 0.18415 0.03994 0.43508 0.0
C210 C 0.20401 0.04488 0.4575 0.0
C211 C 0.2212 0.04342 0.41608 0.0
C212 C 0.16568 0.04106 0.47908 0.0
C213 C 0.16568 0.03001 0.53777 0.0
C214 C 0.14751 0.05169 0.46103 0.0
C215 C 0.14674 0.06438 0.40131 0.0
C216 C 0.16111 0.08026 0.39123 0.0
C217 C 0.16097 0.09152 0.33336 0.0
C218 C 0.14645 0.08709 0.28538 0.0
C219 C 0.13197 0.07148 0.29535 0.0
C220 C 0.13204 0.06018 0.35317 0.0
C221 C 0.09107 0.03149 0.69729 0.0
C222 C 0.0735 0.02432 0.66439 0.0
C223 C 0.10866 0.0379 0.66296 0.0
C224 C 0.1094 0.03659 0.59476 0.0
C225 C 0.09103 0.03166 0.56192 0.0
C226 C 0.07326 0.0258 0.5963 0.0
C227 C 0.12938 0.03866 0.55771 0.0
C228 C 0.12973 0.05035 0.50013 0.0
C229 C 0.14782 0.02839 0.57662 0.0
C230 C 0.14873 0.01465 0.63407 0.0
C231 C 0.13581 0.99734 0.63863 0.0
C232 C 0.13675 0.98447 0.69303 0.0
C233 C 0.1507 0.98865 0.74287 0.0
C234 C 0.16378 0.00568 0.73832 0.0
C235 C 0.16287 0.01861 0.68407 0.0
H236 H 0.15141 0.97866 0.78493 0.0
H237 H 0.14641 0.09577 0.24048 0.0
H238 H 0.48945 0.22826 0.37854 0.0
H239 H 0.49708 0.20163 0.45968 0.0
H240 H 0.44687 0.16488 0.38709 0.0
H241 H 0.43893 0.19165 0.30732 0.0
H242 H 0.44671 0.16431 0.51678 0.0
H243 H 0.50037 0.15602 0.34949 0.0
H244 H 0.52999 0.16843 0.28528 0.0
H245 H 0.56323 0.18133 0.46055 0.0
H246 H 0.53371 0.16921 0.52571 0.0
H247 H 0.49389 0.05956 0.58864 0.0
H248 H 0.47875 0.08948 0.53208 0.0
H249 H 0.50118 0.12928 0.68305 0.0
H250 H 0.51424 0.09954 0.74213 0.0
H251 H 0.51508 0.13047 0.5255 0.0
H252 H 0.46612 0.13942 0.69481 0.0
H253 H 0.43837 0.1294 0.76962 0.0
H254 H 0.3973 0.12122 0.60868 0.0
H255 H 0.425 0.13083 0.53288 0.0
C256 C 0.48012 0.21447 0.37949 0.0
C257 C 0.46381 0.21192 0.3351 0.0
C258 C 0.48452 0.19917 0.42605 0.0
C259 C 0.47274 0.18096 0.42937 0.0
C260 C 0.45629 0.17865 0.38578 0.0
C261 C 0.45188 0.1939 0.33961 0.0
C262 C 0.47742 0.16407 0.47715 0.0
C263 C 0.46161 0.15679 0.51811 0.0
C264 C 0.4971 0.15474 0.48166 0.0
C265 C 0.5148 0.16189 0.44234 0.0
C266 C 0.51396 0.16161 0.37424 0.0
C267 C 0.53073 0.16858 0.33772 0.0
C268 C 0.54846 0.1757 0.36881 0.0
C269 C 0.54948 0.17583 0.43652 0.0
C270 C 0.53275 0.16891 0.47325 0.0
C271 C 0.49403 0.07443 0.61218 0.0
C272 C 0.5045 0.07698 0.6713 0.0
C273 C 0.48582 0.09164 0.57915 0.0
C274 C 0.48846 0.11169 0.60388 0.0
C275 C 0.49829 0.11405 0.66384 0.0
C276 C 0.50574 0.09693 0.69768 0.0
C277 C 0.48417 0.13025 0.56301 0.0
C278 C 0.50012 0.13791 0.52382 0.0
C279 C 0.46487 0.1404 0.56214 0.0
C280 C 0.44809 0.13465 0.60765 0.0
C281 C 0.45145 0.13474 0.67506 0.0
C282 C 0.43561 0.1294 0.71784 0.0
C283 C 0.41616 0.12432 0.6939 0.0
C284 C 0.41246 0.12483 0.62717 0.0
C285 C 0.42828 0.13014 0.58423 0.0
H286 H 0.40389 0.12025 0.72709 0.0
H287 H 0.56143 0.18109 0.34044 0.0
H288 H 0.28302 0.49029 0.44274 0.0
H289 H 0.31205 0.48694 0.51854 0.0
H290 H 0.35309 0.47651 0.35729 0.0
H291 H 0.32406 0.47959 0.28188 0.0
H292 H 0.36121 0.45064 0.45622 0.0
H293 H 0.34711 0.52465 0.43806 0.0
H294 H 0.32511 0.55532 0.45128 0.0
H295 H 0.31887 0.5423 0.65473 0.0
H296 H 0.34056 0.51137 0.64248 0.0
H297 H 0.45927 0.49358 0.57075 0.0
H298 H 0.42837 0.4811 0.51469 0.0
H299 H 0.39565 0.47962 0.69639 0.0
H300 H 0.42642 0.49195 0.75221 0.0
H301 H 0.38053 0.50829 0.60062 0.0
H302 H 0.39645 0.43953 0.63135 0.0
H303 H 0.41208 0.40507 0.63213 0.0
H304 H 0.40926 0.40299 0.42421 0.0
H305 H 0.39451 0.43787 0.4217 0.0
C306 C 0.29825 0.48717 0.42368 0.0
C307 C 0.30136 0.48551 0.35627 0.0
C308 C 0.31486 0.48538 0.46699 0.0
C309 C 0.33495 0.48189 0.44378 0.0
C310 C 0.33784 0.47936 0.37661 0.0
C311 C 0.32126 0.48113 0.33344 0.0
C312 C 0.35311 0.4809 0.48856 0.0
C313 C 0.36577 0.4634 0.48685 0.0
C314 C 0.3582 0.49695 0.53213 0.0
C315 C 0.34525 0.51559 0.53917 0.0
C316 C 0.34091 0.52824 0.48548 0.0
C317 C 0.32851 0.54568 0.49283 0.0
C318 C 0.32054 0.55072 0.55376 0.0
C319 C 0.325 0.53836 0.60753 0.0
C320 C 0.33734 0.52088 0.6004 0.0
C321 C 0.44598 0.48917 0.59937 0.0
C322 C 0.44548 0.49343 0.66626 0.0
C323 C 0.42815 0.48226 0.56709 0.0
C324 C 0.40957 0.4794 0.60115 0.0
C325 C 0.40975 0.48155 0.66891 0.0
C326 C 0.42752 0.4883 0.70105 0.0
C327 C 0.38947 0.47838 0.56564 0.0
C328 C 0.37631 0.49553 0.56949 0.0
C329 C 0.38363 0.46168 0.52553 0.0
C330 C 0.39464 0.44163 0.52636 0.0
C331 C 0.39969 0.43207 0.58559 0.0
C332 C 0.40826 0.41233 0.58637 0.0
C333 C 0.41156 0.4018 0.52829 0.0
C334 C 0.40655 0.41109 0.46921 0.0
C335 C 0.3982 0.43092 0.46809 0.0
H336 H 0.41812 0.38648 0.52904 0.0
H337 H 0.31095 0.56423 0.55934 0.0
H338 H 0.02538 0.31052 0.30213 0.0
H339 H 0.01842 0.33945 0.3754 0.0
H340 H 0.07493 0.32698 0.47774 0.0
H341 H 0.08175 0.29788 0.40518 0.0
H342 H 0.04231 0.34055 0.56154 0.0
H343 H 0.07583 0.36259 0.3609 0.0
H344 H 0.07776 0.36275 0.24133 0.0
H345 H 0.01734 0.38944 0.23093 0.0
H346 H 0.01501 0.38926 0.35048 0.0
H347 H 0.04277 0.43757 0.71741 0.0
H348 H 0.05529 0.40822 0.65367 0.0
H349 H 0.01228 0.42375 0.50157 0.0
H350 H 0.0012 0.45368 0.56288 0.0
H351 H 0.04053 0.4075 0.44515 0.0
H352 H 0.00416 0.38556 0.63664 0.0
H353 H 0.99717 0.38232 0.75389 0.0
H354 H 0.05599 0.35345 0.78197 0.0
H355 H 0.06341 0.35673 0.66493 0.0
C356 C 0.03605 0.31366 0.34123 0.0
C357 C 0.0541 0.3019 0.34768 0.0
C358 C 0.03212 0.33025 0.38301 0.0
C359 C 0.04629 0.33566 0.43179 0.0
C360 C 0.06374 0.32319 0.4407 0.0
C361 C 0.06765 0.30656 0.39898 0.0
C362 C 0.04402 0.35546 0.46845 0.0
C363 C 0.04215 0.35524 0.53634 0.0
C364 C 0.04334 0.37465 0.43583 0.0
C365 C 0.04526 0.37593 0.36439 0.0
C366 C 0.063 0.36856 0.33302 0.0
C367 C 0.06415 0.36861 0.26531 0.0
C368 C 0.04768 0.3761 0.22856 0.0
C369 C 0.03009 0.38368 0.25946 0.0
C370 C 0.02888 0.38367 0.32717 0.0
C371 C 0.03694 0.43534 0.66871 0.0
C372 C 0.02142 0.4483 0.64441 0.0
C373 C 0.04363 0.41814 0.63289 0.0
C374 C 0.03426 0.41302 0.57325 0.0
C375 C 0.01988 0.42699 0.54717 0.0
C376 C 0.01367 0.44439 0.58203 0.0
C377 C 0.03834 0.39289 0.5391 0.0
C378 C 0.0407 0.39296 0.47119 0.0
C379 C 0.03882 0.37354 0.57185 0.0
C380 C 0.03444 0.37162 0.64221 0.0
C381 C 0.01565 0.37865 0.66792 0.0
C382 C 0.01161 0.37679 0.7343 0.0
C383 C 0.02615 0.36775 0.77538 0.0
C384 C 0.04475 0.3605 0.75011 0.0
C385 C 0.04889 0.36235 0.68376 0.0
H386 H 0.02299 0.36631 0.82675 0.0
H387 H 0.04856 0.37604 0.17613 0.0
H388 H 0.79739 0.01021 0.06382 0.0
H389 H 0.82496 0.00754 0.98337 0.0
H390 H 0.8399 0.94687 0.05476 0.0
H391 H 0.81262 0.94981 0.13668 0.0
H392 H 0.87349 0.96878 0.04442 0.0
H393 H 0.81603 0.95723 0.8983 0.0
H394 H 0.78302 0.9658 0.8455 0.0
H395 H 0.80853 0.02266 0.77539 0.0
H396 H 0.84158 0.01458 0.8284 0.0
H397 H 0.95942 0.97328 0.83572 0.0
H398 H 0.92764 0.95848 0.88091 0.0
H399 H 0.89302 0.00893 0.79785 0.0
H400 H 0.92377 0.02159 0.7466 0.0
H401 H 0.86774 0.98424 0.80978 0.0
H402 H 0.9189 0.00365 0.97518 0.0
H403 H 0.95227 1.00007 0.03152 0.0
H404 H 0.93923 0.93637 0.07051 0.0
H405 H 0.90586 0.93961 0.0141 0.0
C406 C 0.80627 0.99612 0.06146 0.0
C407 C 0.80251 0.98007 0.10597 0.0
C408 C 0.82203 0.99455 0.0151 0.0
C409 C 0.83446 0.97683 0.01175 0.0
C410 C 0.83052 0.96065 0.05568 0.0
C411 C 0.81481 0.96228 0.10235 0.0
C412 C 0.8526 0.97593 0.96657 0.0
C413 C 0.87216 0.97193 0.99286 0.0
C414 C 0.85119 0.98053 0.89944 0.0
C415 C 0.83125 0.98532 0.86767 0.0
C416 C 0.81455 0.97162 0.87199 0.0
C417 C 0.79584 0.97638 0.84194 0.0
C418 C 0.79367 0.99477 0.80719 0.0
C419 C 0.81022 0.00842 0.80231 0.0
C420 C 0.82895 0.00374 0.83228 0.0
C421 C 0.94484 0.98046 0.82455 0.0
C422 C 0.94423 0.99883 0.78844 0.0
C423 C 0.92661 0.97239 0.85212 0.0
C424 C 0.90769 0.98315 0.84681 0.0
C425 C 0.90704 1.00014 0.80444 0.0
C426 C 0.92486 0.0075 0.77471 0.0
C427 C 0.889 0.97842 0.88818 0.0
C428 C 0.86921 0.98112 0.86126 0.0
C429 C 0.89024 0.97364 0.95542 0.0
C430 C 0.9101 0.9718 0.98989 0.0
C431 C 0.92322 0.9889 0.99574 0.0
C432 C 0.94211 0.98692 0.02761 0.0
C433 C 0.9479 0.96798 0.05436 0.0
C434 C 0.93476 0.95101 0.04963 0.0
C435 C 0.91586 0.95291 0.01778 0.0
H436 H 0.96255 0.96647 0.07888 0.0
H437 H 0.77918 0.99842 0.78398 0.0
H438 H 0.57216 0.8088 0.1214 0.0
H439 H 0.57393 0.83742 0.04331 0.0
H440 H 0.51022 0.82742 0.99345 0.0
H441 H 0.50869 0.79856 0.0694 0.0
H442 H 0.53056 0.83655 0.88774 0.0
H443 H 0.52969 0.86511 0.10845 0.0
H444 H 0.54471 0.87035 0.21708 0.0
H445 H 0.59941 0.89561 0.13078 0.0
H446 H 0.58485 0.89018 0.02166 0.0
H447 H 0.48089 0.92458 0.80252 0.0
H448 H 0.49609 0.89578 0.85732 0.0
H449 H 0.55557 0.92513 0.8501 0.0
H450 H 0.53997 0.95491 0.79266 0.0
H451 H 0.54751 0.90612 0.97031 0.0
H452 H 0.54685 0.88445 0.75231 0.0
H453 H 0.53295 0.87989 0.64206 0.0
H454 H 0.48427 0.84205 0.71767 0.0
H455 H 0.49767 0.84663 0.82855 0.0
C456 C 0.55868 0.81245 0.09273 0.0
C457 C 0.54036 0.80111 0.10092 0.0
C458 C 0.55963 0.82899 0.04844 0.0
C459 C 0.54212 0.83493 0.01261 0.0
C460 C 0.52401 0.82327 0.01995 0.0
C461 C 0.52313 0.8067 0.06354 0.0
C462 C 0.54195 0.85365 0.96947 0.0
C463 C 0.53435 0.85173 0.90592 0.0
C464 C 0.54778 0.87353 0.9914 0.0
C465 C 0.55631 0.87697 0.05702 0.0
C466 C 0.54498 0.87164 0.1127 0.0
C467 C 0.55341 0.87465 0.17433 0.0
C468 C 0.57303 0.88322 0.18082 0.0
C469 C 0.58424 0.88889 0.1257 0.0
C470 C 0.57592 0.88583 0.06398 0.0
C471 C 0.4973 0.92523 0.81157 0.0
C472 C 0.50921 0.9424 0.79228 0.0
C473 C 0.50601 0.90845 0.84323 0.0
C474 C 0.52709 0.90785 0.85676 0.0
C475 C 0.53924 0.92508 0.83956 0.0
C476 C 0.53036 0.94217 0.80709 0.0
C477 C 0.53552 0.88905 0.88977 0.0
C478 C 0.54448 0.89089 0.95136 0.0
C479 C 0.5313 0.86904 0.86568 0.0
C480 C 0.52329 0.86592 0.7989 0.0
C481 C 0.53313 0.87522 0.74551 0.0
C482 C 0.52534 0.87264 0.68287 0.0
C483 C 0.50774 0.86069 0.67287 0.0
C484 C 0.49792 0.85128 0.72549 0.0
C485 C 0.50564 0.85383 0.78826 0.0
H486 H 0.50172 0.85872 0.62434 0.0
H487 H 0.57953 0.88553 0.22858 0.0
H488 H 0.73504 0.5254 0.00248 0.0
H489 H 0.70417 0.52949 0.93511 0.0
H490 H 0.67038 0.55092 0.10199 0.0
H491 H 0.70119 0.54649 0.1695 0.0
H492 H 0.65065 0.52002 0.04261 0.0
H493 H 0.68461 0.58273 0.96756 0.0
H494 H 0.71301 0.60222 0.91687 0.0
H495 H 0.70731 0.56606 0.74376 0.0
H496 H 0.67911 0.54616 0.79372 0.0
H497 H 0.55738 0.52338 0.87662 0.0
H498 H 0.58626 0.53686 0.94012 0.0
H499 H 0.62541 0.53231 0.77132 0.0
H500 H 0.59611 0.52133 0.70718 0.0
H501 H 0.6423 0.55784 0.83524 0.0
H502 H 0.61712 0.4919 0.89867 0.0
H503 H 0.59266 0.46575 0.93885 0.0
H504 H 0.5867 0.49852 0.11857 0.0
H505 H 0.61088 0.52504 0.07897 0.0
C506 C 0.7211 0.53131 0.02449 0.0
C507 C 0.72046 0.53541 0.09152 0.0
C508 C 0.70345 0.53376 0.98581 0.0
C509 C 0.6848 0.54059 0.01313 0.0
C510 C 0.68449 0.54561 0.07953 0.0
C511 C 0.70211 0.54313 0.11815 0.0
C512 C 0.66517 0.54058 0.97473 0.0
C513 C 0.6487 0.52865 0.99788 0.0
C514 C 0.66286 0.55085 0.91436 0.0
C515 C 0.67984 0.56287 0.88463 0.0
C516 C 0.68952 0.57884 0.9189 0.0
C517 C 0.70557 0.58997 0.89024 0.0
C518 C 0.71199 0.58536 0.82719 0.0
C519 C 0.70235 0.56962 0.7926 0.0
C520 C 0.68632 0.55842 0.82106 0.0
C521 C 0.57175 0.52678 0.85217 0.0
C522 C 0.57426 0.52186 0.78633 0.0
C523 C 0.58858 0.53378 0.88908 0.0
C524 C 0.60854 0.53481 0.8618 0.0
C525 C 0.61047 0.53164 0.7946 0.0
C526 C 0.59355 0.52546 0.75746 0.0
C527 C 0.6276 0.53717 0.90301 0.0
C528 C 0.64404 0.54941 0.88038 0.0
C529 C 0.6304 0.52622 0.96216 0.0
C530 C 0.61552 0.51059 0.9855 0.0
C531 C 0.61042 0.49362 0.9465 0.0
C532 C 0.59663 0.47873 0.96919 0.0
C533 C 0.58806 0.48052 0.03113 0.0
C534 C 0.59328 0.49719 0.07052 0.0
C535 C 0.607 0.51217 0.04795 0.0
H536 H 0.57743 0.46894 0.04869 0.0
H537 H 0.7244 0.59401 0.8051 0.0
H538 H 0.00723 0.72961 0.02379 0.0
H539 H 0.00344 0.70035 0.95014 0.0
H540 H 0.95525 0.67573 0.07181 0.0
H541 H 0.95938 0.7048 0.1464 0.0
H542 H 0.98354 0.64727 0.04546 0.0
H543 H 0.94675 0.6981 0.91365 0.0
H544 H 0.9441 0.73095 0.85372 0.0
H545 H 0.99585 0.71396 0.73563 0.0
H546 H 0.99897 0.68118 0.79533 0.0
H547 H 0.98484 0.5587 0.85156 0.0
H548 H 0.96946 0.58809 0.9084 0.0
H549 H 0.99791 0.62911 0.76896 0.0
H550 H 0.01007 0.59994 0.7087 0.0
H551 H 0.97275 0.64985 0.80789 0.0
H552 H 0.01868 0.60827 0.94338 0.0
H553 H 0.02947 0.57721 0.00382 0.0
H554 H 0.97307 0.57849 0.11279 0.0
H555 H 0.96192 0.60944 0.05253 0.0
C556 C 0.99553 0.71817 0.03411 0.0
C557 C 0.98337 0.71969 0.09045 0.0
C558 C 0.99331 0.70145 0.99176 0.0
C559 C 0.97881 0.68587 0.0046 0.0
C560 C 0.96643 0.68758 0.06038 0.0
C561 C 0.96872 0.70425 0.10288 0.0
C562 C 0.9778 0.66695 0.96347 0.0
C563 C 0.98097 0.6478 0.99347 0.0
C564 C 0.97525 0.66756 0.89529 0.0
C565 C 0.97312 0.68723 0.8592 0.0
C566 C 0.95761 0.70143 0.87513 0.0
C567 C 0.95603 0.72003 0.84116 0.0
C568 C 0.9698 0.72455 0.79095 0.0
C569 C 0.98518 0.71046 0.7745 0.0
C570 C 0.98684 0.69186 0.80833 0.0
C571 C 0.98659 0.57394 0.83145 0.0
C572 C 0.99875 0.57697 0.77605 0.0
C573 C 0.97854 0.59097 0.86534 0.0
C574 C 0.98348 0.61135 0.8462 0.0
C575 C 0.99372 0.61397 0.78655 0.0
C576 C 1.00074 0.59706 0.75143 0.0
C577 C 0.97985 0.62989 0.88897 0.0
C578 C 0.9755 0.64907 0.85969 0.0
C579 C 0.98275 0.62953 0.95736 0.0
C580 C 0.98937 0.6109 0.99296 0.0
C581 C 0.00857 0.60182 0.98002 0.0
C582 C 0.01474 0.58427 0.01422 0.0
C583 C 0.00193 0.57584 0.06192 0.0
C584 C 0.98295 0.58498 0.07568 0.0
C585 C 0.97669 0.60251 0.04154 0.0
H586 H 0.00674 0.56225 0.08838 0.0
H587 H 0.96855 0.73896 0.76476 0.0
H588 H 0.02916 0.2187 0.44372 0.0
H589 H 0.02348 0.18842 0.51211 0.0
H590 H 0.08037 0.16202 0.44369 0.0
H591 H 0.08656 0.1926 0.37731 0.0
H592 H 0.03849 0.14514 0.39812 0.0
H593 H 0.08049 0.15982 0.58146 0.0
H594 H 0.09412 0.17947 0.67401 0.0
H595 H 0.03436 0.17926 0.76325 0.0
H596 H 0.02026 0.15988 0.67061 0.0
H597 H 0.02577 0.04616 0.56134 0.0
H598 H 0.03736 0.07717 0.5045 0.0
H599 H 0.98691 0.11144 0.5871 0.0
H600 H 0.97492 0.08062 0.64277 0.0
H601 H 0.02873 0.12295 0.62643 0.0
H602 H 0.98614 0.11071 0.44033 0.0
H603 H 0.97236 0.08995 0.35038 0.0
H604 H 0.03293 0.08507 0.26815 0.0
H605 H 0.04713 0.1056 0.35825 0.0
C606 C 0.04112 0.20711 0.44675 0.0
C607 C 0.05805 0.20764 0.40454 0.0
C608 C 0.0378 0.18978 0.48544 0.0
C609 C 0.05139 0.17305 0.48163 0.0
C610 C 0.0698 0.17489 0.44691 0.0
C611 C 0.07331 0.19234 0.40927 0.0
C612 C 0.04382 0.15254 0.49882 0.0
C613 C 0.0367 0.14004 0.448 0.0
C614 C 0.04107 0.14642 0.56377 0.0
C615 C 0.04926 0.15865 0.61861 0.0
C616 C 0.07017 0.16424 0.6203 0.0
C617 C 0.07801 0.17525 0.67293 0.0
C618 C 0.0651 0.18068 0.72437 0.0
C619 C 0.04432 0.17509 0.72328 0.0
C620 C 0.03641 0.16409 0.67072 0.0
C621 C 0.01662 0.06005 0.56496 0.0
C622 C 0.9998 0.06122 0.60767 0.0
C623 C 0.0233 0.07772 0.53277 0.0
C624 C 0.01313 0.09644 0.54318 0.0
C625 C 0.99495 0.09703 0.57942 0.0
C626 C 0.98817 0.07943 0.61102 0.0
C627 C 0.02318 0.11579 0.52587 0.0
C628 C 0.0307 0.12802 0.57658 0.0
C629 C 0.02621 0.1217 0.4609 0.0
C630 C 0.01774 0.10951 0.40636 0.0
C631 C 0.99656 0.10506 0.40338 0.0
C632 C 0.98866 0.09337 0.35231 0.0
C633 C 0.00177 0.08615 0.30366 0.0
C634 C 0.0228 0.09066 0.30591 0.0
C635 C 0.03078 0.10234 0.35694 0.0
H636 H 0.99563 0.0771 0.26416 0.0
H637 H 0.07121 0.18916 0.76516 0.0
H638 H 0.30229 0.02651 0.38975 0.0
H639 H 0.33315 0.01588 0.44418 0.0
H640 H 0.34649 0.07931 0.49235 0.0
H641 H 0.31693 0.09011 0.42675 0.0
H642 H 0.37648 0.06667 0.43737 0.0
H643 H 0.33847 0.03232 0.61083 0.0
H644 H 0.31141 0.00953 0.65492 0.0
H645 H 0.33559 0.95888 0.54516 0.0
H646 H 0.36271 0.98136 0.50035 0.0
H647 H 0.46453 0.04065 0.61709 0.0
H648 H 0.43159 0.05133 0.57451 0.0
H649 H 0.42551 0.99338 0.47439 0.0
H650 H 0.45902 0.98246 0.51695 0.0
H651 H 0.39289 0.00234 0.55666 0.0
H652 H 0.4316 0.03569 0.39075 0.0
H653 H 0.46042 0.05713 0.35227 0.0
H654 H 0.43557 0.10931 0.45198 0.0
H655 H 0.40672 0.08807 0.49305 0.0
C656 C 0.31126 0.0381 0.41485 0.0
C657 C 0.30742 0.05906 0.40431 0.0
C658 C 0.329 0.03197 0.44677 0.0
C659 C 0.34236 0.0467 0.47335 0.0
C660 C 0.33661 0.06763 0.47154 0.0
C661 C 0.31952 0.07386 0.43538 0.0
C662 C 0.36373 0.04076 0.49047 0.0
C663 C 0.37987 0.0529 0.46523 0.0
C664 C 0.36852 0.02217 0.52355 0.0
C665 C 0.35257 0.00855 0.55221 0.0
C666 C 0.33799 0.01633 0.59615 0.0
C667 C 0.32265 0.00346 0.62125 0.0
C668 C 0.32177 0.98278 0.6028 0.0
C669 C 0.3363 0.97488 0.55953 0.0
C670 C 0.35171 0.98766 0.5345 0.0
C671 C 0.4569 0.0306 0.58298 0.0
C672 C 0.46455 0.01085 0.5694 0.0
C673 C 0.43784 0.0366 0.55962 0.0
C674 C 0.42623 0.02307 0.52171 0.0
C675 C 0.43437 0.00392 0.50395 0.0
C676 C 0.45354 0.99785 0.52748 0.0
C677 C 0.40499 0.02856 0.50525 0.0
C678 C 0.38912 0.01627 0.52995 0.0
C679 C 0.40043 0.04703 0.47236 0.0
C680 C 0.41699 0.06025 0.445 0.0
C681 C 0.43227 0.05173 0.4048 0.0
C682 C 0.44864 0.06383 0.38277 0.0
C683 C 0.44983 0.08455 0.40015 0.0
C684 C 0.43457 0.09324 0.43917 0.0
C685 C 0.41818 0.08119 0.46166 0.0
H686 H 0.46256 0.09391 0.38328 0.0
H687 H 0.30982 0.97288 0.62206 0.0
H688 H 0.51119 0.30146 0.37128 0.0
H689 H 0.52177 0.33151 0.43203 0.0
H690 H 0.45928 0.33976 0.49965 0.0
H691 H 0.44844 0.3105 0.43324 0.0
H692 H 0.47025 0.37156 0.43756 0.0
H693 H 0.50479 0.33189 0.60519 0.0
H694 H 0.52807 0.30455 0.64444 0.0
H695 H 0.57867 0.33264 0.54324 0.0
H696 H 0.55566 0.36004 0.50302 0.0
H697 H 0.48902 0.45688 0.63188 0.0
H698 H 0.4844 0.42162 0.59822 0.0
H699 H 0.53739 0.42611 0.47272 0.0
H700 H 0.54355 0.4614 0.51172 0.0
H701 H 0.53301 0.38868 0.56385 0.0
H702 H 0.49457 0.41767 0.36629 0.0
H703 H 0.47589 0.44922 0.33369 0.0
H704 H 0.43764 0.44406 0.50268 0.0
H705 H 0.45483 0.41166 0.53286 0.0
C706 C 0.49999 0.30905 0.40206 0.0
C707 C 0.47911 0.30387 0.39828 0.0
C708 C 0.50603 0.32625 0.43698 0.0
C709 C 0.49132 0.33793 0.47055 0.0
C710 C 0.47084 0.33098 0.47376 0.0
C711 C 0.46467 0.31416 0.43677 0.0
C712 C 0.49638 0.35914 0.49024 0.0
C713 C 0.4838 0.37506 0.46624 0.0
C714 C 0.51455 0.36403 0.52497 0.0
C715 C 0.5285 0.34796 0.55101 0.0
C716 C 0.52088 0.33221 0.5913 0.0
C717 C 0.53402 0.3167 0.61369 0.0
C718 C 0.55483 0.31684 0.59629 0.0
C719 C 0.56256 0.33256 0.55676 0.0
C720 C 0.54949 0.34812 0.53434 0.0
C721 C 0.49938 0.45076 0.59548 0.0
C722 C 0.51648 0.46198 0.57339 0.0
C723 C 0.49681 0.4305 0.57689 0.0
C724 C 0.51041 0.42157 0.53261 0.0
C725 C 0.52683 0.43297 0.50714 0.0
C726 C 0.53001 0.45313 0.52809 0.0
C727 C 0.50666 0.40036 0.51248 0.0
C728 C 0.5195 0.38472 0.53557 0.0
C729 C 0.48889 0.39557 0.47686 0.0
C730 C 0.47566 0.41215 0.45105 0.0
C731 C 0.48158 0.42288 0.39486 0.0
C732 C 0.47121 0.44087 0.37676 0.0
C733 C 0.45526 0.44847 0.41546 0.0
C734 C 0.44945 0.43786 0.47156 0.0
C735 C 0.45921 0.41948 0.48846 0.0
H736 H 0.44758 0.46268 0.40246 0.0
H737 H 0.56496 0.30478 0.61348 0.0
H738 H 0.19929 0.42722 0.38761 0.0
H739 H 0.16719 0.43423 0.44491 0.0
H740 H 0.19265 0.49093 0.51749 0.0
H741 H 0.22436 0.48467 0.45646 0.0
H742 H 0.15842 0.46119 0.59611 0.0
H743 H 0.17653 0.50414 0.40876 0.0
H744 H 0.18716 0.51218 0.29687 0.0
H745 H 0.1382 0.47454 0.22321 0.0
H746 H 0.12797 0.46536 0.3349 0.0
H747 H 0.08274 0.54102 0.60016 0.0
H748 H 0.11333 0.52346 0.56164 0.0
H749 H 0.0775 0.46916 0.52097 0.0
H750 H 0.04658 0.4862 0.56333 0.0
H751 H 0.11513 0.4938 0.42595 0.0
H752 H 0.09484 0.4542 0.61634 0.0
H753 H 0.08428 0.44772 0.72923 0.0
H754 H 0.13739 0.48045 0.79775 0.0
H755 H 0.14754 0.48828 0.6852 0.0
C756 C 0.1985 0.44054 0.41907 0.0
C757 C 0.21386 0.45578 0.41617 0.0
C758 C 0.18007 0.44465 0.45086 0.0
C759 C 0.17754 0.46344 0.48275 0.0
C760 C 0.19443 0.47655 0.49159 0.0
C761 C 0.21266 0.47279 0.45778 0.0
C762 C 0.15671 0.47083 0.49657 0.0
C763 C 0.1489 0.46836 0.55916 0.0
C764 C 0.14437 0.47976 0.44735 0.0
C765 C 0.15192 0.4835 0.38038 0.0
C766 C 0.16853 0.49691 0.36887 0.0
C767 C 0.17437 0.50184 0.30541 0.0
C768 C 0.16341 0.49383 0.253 0.0
C769 C 0.14679 0.4806 0.26387 0.0
C770 C 0.14107 0.4754 0.32724 0.0
C771 C 0.08109 0.52549 0.58179 0.0
C772 C 0.06222 0.51487 0.58583 0.0
C773 C 0.09869 0.51546 0.56046 0.0
C774 C 0.0976 0.4949 0.54118 0.0
C775 C 0.07853 0.48491 0.53787 0.0
C776 C 0.06089 0.49476 0.56103 0.0
C777 C 0.11676 0.48414 0.52559 0.0
C778 C 0.12443 0.4862 0.46263 0.0
C779 C 0.129 0.475 0.57456 0.0
C780 C 0.12166 0.47227 0.64215 0.0
C781 C 0.10383 0.46072 0.65535 0.0
C782 C 0.09797 0.4567 0.71939 0.0
C783 C 0.1101 0.46373 0.77067 0.0
C784 C 0.12789 0.47516 0.75805 0.0
C785 C 0.13361 0.47955 0.69414 0.0
H786 H 0.10577 0.46017 0.82015 0.0
H787 H 0.16768 0.49804 0.20401 0.0
H788 H 0.92919 0.8252 0.06559 0.0
H789 H 0.93846 0.85503 0.9991 0.0
H790 H 0.99503 0.82505 0.94388 0.0
H791 H 0.98571 0.79515 0.00943 0.0
H792 H 0.99806 0.85982 0.03179 0.0
H793 H 0.96943 0.84035 0.8287 0.0
H794 H 0.94269 0.82822 0.75325 0.0
H795 H 0.9057 0.88124 0.79658 0.0
H796 H 0.93211 0.89354 0.87321 0.0
H797 H 0.04801 0.93631 0.84769 0.0
H798 H 0.03233 0.90623 0.89765 0.0
H799 H 0.97654 0.94063 0.93213 0.0
H800 H 0.99231 0.97109 0.88264 0.0
H801 H 0.9713 0.90462 0.85577 0.0
H802 H 0.0012 0.92414 0.05854 0.0
H803 H 0.02951 0.93655 0.12782 0.0
H804 H 0.06526 0.88305 0.08027 0.0
H805 H 0.03725 0.87044 0.01003 0.0
C806 C 0.94289 0.82446 0.03567 0.0
C807 C 0.95689 0.80813 0.04301 0.0
C808 C 0.94825 0.84152 0.99813 0.0
C809 C 0.96757 0.84223 0.96796 0.0
C810 C 0.98008 0.82466 0.96722 0.0
C811 C 0.97463 0.80752 0.00413 0.0
C812 C 0.97664 0.86234 0.95217 0.0
C813 C 0.99242 0.86952 0.99271 0.0
C814 C 0.96865 0.87511 0.90291 0.0
C815 C 0.95264 0.86773 0.85733 0.0
C816 C 0.95549 0.84931 0.82277 0.0
C817 C 0.94042 0.84243 0.77963 0.0
C818 C 0.92247 0.85391 0.77029 0.0
C819 C 0.91959 0.87234 0.80398 0.0
C820 C 0.93462 0.87928 0.84725 0.0
C821 C 0.03268 0.93775 0.86798 0.0
C822 C 0.02114 0.95585 0.85963 0.0
C823 C 0.02372 0.92052 0.89629 0.0
C824 C 0.00321 0.92123 0.91727 0.0
C825 C 0.99233 0.93984 0.91523 0.0
C826 C 0.0014 0.9572 0.88739 0.0
C827 C 0.9928 0.90196 0.93503 0.0
C828 C 0.97676 0.89496 0.89519 0.0
C829 C 1.00058 0.88926 0.98483 0.0
C830 C 0.01715 0.89637 0.02893 0.0
C831 C 0.01512 0.91504 0.06277 0.0
C832 C 0.03111 0.92212 0.10218 0.0
C833 C 0.04918 0.9106 0.10841 0.0
C834 C 0.05125 0.89194 0.07546 0.0
C835 C 0.0353 0.88479 0.03597 0.0
H836 H 0.06157 0.91613 0.13881 0.0
H837 H 0.91083 0.84857 0.73681 0.0
H838 H 0.70796 0.92926 0.02686 0.0
H839 H 0.6791 0.93634 0.95401 0.0
H840 H 0.69341 0.00124 0.96172 0.0
H841 H 0.72289 0.99391 0.02999 0.0
H842 H 0.65003 0.95587 0.01203 0.0
H843 H 0.66926 0.02905 0.87416 0.0
H844 H 0.69676 0.04361 0.80515 0.0
H845 H 0.71034 0.98333 0.73138 0.0
H846 H 0.68308 0.96842 0.8007 0.0
H847 H 0.56886 0.03464 0.92588 0.0
H848 H 0.60259 0.02137 0.96089 0.0
H849 H 0.59458 0.96829 0.83843 0.0
H850 H 0.56144 0.98133 0.8035 0.0
H851 H 0.63398 0.00626 0.83797 0.0
H852 H 0.59642 0.94468 0.93481 0.0
H853 H 0.56865 0.93255 0.00705 0.0
H854 H 0.59228 0.9699 0.16143 0.0
H855 H 0.61991 0.98265 0.08947 0.0
C856 C 0.70577 0.94478 0.00865 0.0
C857 C 0.71746 0.96109 0.03335 0.0
C858 C 0.68918 0.94888 0.96778 0.0
C859 C 0.68394 0.96934 0.9529 0.0
C860 C 0.6973 0.98531 0.97103 0.0
C861 C 0.71421 0.98112 0.01027 0.0
C862 C 0.66261 0.97435 0.93383 0.0
C863 C 0.64661 0.96646 0.97268 0.0
C864 C 0.65804 0.98886 0.88469 0.0
C865 C 0.6742 0.99766 0.84239 0.0
C866 C 0.67807 0.01895 0.84289 0.0
C867 C 0.69367 0.02724 0.80405 0.0
C868 C 0.70528 0.0144 0.76385 0.0
C869 C 0.70137 0.99324 0.76264 0.0
C870 C 0.68594 0.98484 0.80196 0.0
C871 C 0.57396 0.0197 0.90897 0.0
C872 C 0.56217 0.00855 0.86411 0.0
C873 C 0.5932 0.0123 0.92827 0.0
C874 C 0.60073 0.99386 0.90232 0.0
C875 C 0.58868 0.98234 0.8598 0.0
C876 C 0.56951 0.98957 0.8411 0.0
C877 C 0.62186 0.98727 0.91486 0.0
C878 C 0.63764 0.9952 0.8758 0.0
C879 C 0.62629 0.97272 0.96337 0.0
C880 C 0.61005 0.9647 0.00682 0.0
C881 C 0.59557 0.9504 0.98403 0.0
C882 C 0.57987 0.94341 0.0249 0.0
C883 C 0.57865 0.95044 0.08879 0.0
C884 C 0.59318 0.96449 0.11194 0.0
C885 C 0.60885 0.97162 0.07114 0.0
H886 H 0.56649 0.94497 0.12036 0.0
H887 H 0.71731 0.02085 0.73364 0.0
H888 H 0.53092 0.72209 0.02263 0.0
H889 H 0.52154 0.69221 0.95737 0.0
H890 H 0.58247 0.66718 0.98326 0.0
H891 H 0.59181 0.69692 0.04974 0.0
H892 H 0.55636 0.6578 0.85413 0.0
H893 H 0.55941 0.65066 0.09405 0.0
H894 H 0.55173 0.65987 0.20746 0.0
H895 H 0.48758 0.66586 0.161 0.0
H896 H 0.49488 0.6563 0.0474 0.0
H897 H 0.53667 0.55181 0.84477 0.0
H898 H 0.55037 0.58441 0.88268 0.0
H899 H 0.48878 0.60521 0.92583 0.0
H900 H 0.47493 0.57224 0.88992 0.0
H901 H 0.51567 0.61754 0.01454 0.0
H902 H 0.51115 0.61762 0.78254 0.0
H903 H 0.51739 0.60626 0.67024 0.0
H904 H 0.5825 0.61371 0.69716 0.0
H905 H 0.57668 0.62492 0.80992 0.0
C906 C 0.54269 0.71088 0.01086 0.0
C907 C 0.56201 0.71159 0.04114 0.0
C908 C 0.53727 0.69378 0.97411 0.0
C909 C 0.55128 0.67756 0.96673 0.0
C910 C 0.57156 0.67969 0.98863 0.0
C911 C 0.57692 0.69668 0.02613 0.0
C912 C 0.54355 0.65706 0.95031 0.0
C913 C 0.54761 0.64883 0.88905 0.0
C914 C 0.53186 0.64573 0.99585 0.0
C915 C 0.52774 0.6532 0.06225 0.0
C916 C 0.54373 0.6543 0.10786 0.0
C917 C 0.53942 0.65942 0.17226 0.0
C918 C 0.51921 0.66366 0.19133 0.0
C919 C 0.50325 0.66272 0.14607 0.0
C920 C 0.50744 0.65739 0.08177 0.0
C921 C 0.52609 0.56286 0.86525 0.0
C922 C 0.50471 0.55941 0.86437 0.0
C923 C 0.53393 0.58169 0.88539 0.0
C924 C 0.52048 0.59733 0.9047 0.0
C925 C 0.49933 0.59332 0.90994 0.0
C926 C 0.49147 0.57443 0.89002 0.0
C927 C 0.52835 0.61806 0.91807 0.0
C928 C 0.52434 0.6264 0.9791 0.0
C929 C 0.53992 0.62943 0.8719 0.0
C930 C 0.54348 0.62192 0.80491 0.0
C931 C 0.52681 0.61659 0.76481 0.0
C932 C 0.53028 0.61023 0.70098 0.0
C933 C 0.55034 0.60924 0.67666 0.0
C934 C 0.56698 0.61448 0.71614 0.0
C935 C 0.56361 0.62085 0.77997 0.0
H936 H 0.55303 0.60455 0.62716 0.0
H937 H 0.51587 0.66748 0.24125 0.0
H938 H 0.79581 0.53414 0.98152 0.0
H939 H 0.82437 0.52797 0.90689 0.0
H940 H 0.85694 0.57976 0.98807 0.0
H941 H 0.82796 0.58671 0.05928 0.0
H942 H 0.87328 0.57027 0.87521 0.0
H943 H 0.85339 0.53137 0.07378 0.0
H944 H 0.82999 0.50896 0.13681 0.0
H945 H 0.83046 0.46448 0.98293 0.0
H946 H 0.85366 0.48678 0.91891 0.0
H947 H 0.97534 0.53139 0.91277 0.0
H948 H 0.94141 0.54605 0.93907 0.0
H949 H 0.91233 0.49093 0.8663 0.0
H950 H 0.94559 0.47637 0.84213 0.0
H951 H 0.89345 0.50224 0.96483 0.0
H952 H 0.92006 0.53758 0.77652 0.0
H953 H 0.94326 0.55985 0.71281 0.0
H954 H 0.93055 0.61046 0.84031 0.0
H955 H 0.9078 0.58831 0.90611 0.0
C956 C 0.80841 0.54506 0.98006 0.0
C957 C 0.81019 0.56041 0.02749 0.0
C958 C 0.82484 0.5414 0.93792 0.0
C959 C 0.84315 0.55272 0.94481 0.0
C960 C 0.84313 0.57053 0.983 0.0
C961 C 0.82655 0.5745 0.02384 0.0
C962 C 0.8632 0.54347 0.9279 0.0
C963 C 0.87775 0.55533 0.89418 0.0
C964 C 0.869 0.52401 0.95305 0.0
C965 C 0.85494 0.51082 0.99138 0.0
C966 C 0.84834 0.51688 0.05335 0.0
C967 C 0.83514 0.50421 0.0892 0.0
C968 C 0.82867 0.48535 0.06376 0.0
C969 C 0.83541 0.47912 0.00248 0.0
C970 C 0.84856 0.49176 0.9664 0.0
C971 C 0.96162 0.52243 0.90372 0.0
C972 C 0.96306 0.503 0.87451 0.0
C973 C 0.94232 0.5308 0.9181 0.0
C974 C 0.92435 0.51983 0.90254 0.0
C975 C 0.92596 0.49977 0.87827 0.0
C976 C 0.9451 0.49134 0.86516 0.0
C977 C 0.90365 0.52881 0.91085 0.0
C978 C 0.88904 0.51699 0.94414 0.0
C979 C 0.89793 0.54819 0.88472 0.0
C980 C 0.91234 0.56121 0.84662 0.0
C981 C 0.92246 0.55335 0.79165 0.0
C982 C 0.93551 0.56597 0.75506 0.0
C983 C 0.93825 0.58659 0.77222 0.0
C984 C 0.92826 0.59454 0.82672 0.0
C985 C 0.91539 0.58192 0.86389 0.0
H986 H 0.94822 0.59639 0.74353 0.0
H987 H 0.81848 0.47553 0.09163 0.0
H988 H 0.02755 0.21775 0.11916 0.0
H989 H 0.02466 0.19017 0.03834 0.0
H990 H 0.07671 0.15934 0.12585 0.0
H991 H 0.0813 0.18793 0.19856 0.0
H992 H 0.07921 0.1479 0.02115 0.0
H993 H 0.01787 0.1488 0.15133 0.0
H994 H 0.98578 0.16232 0.19922 0.0
H995 H 0.96053 0.17133 0.00875 0.0
H996 H 0.99256 0.15804 0.95977 0.0
H997 H 0.03037 0.04474 0.96421 0.0
H998 H 0.03948 0.07724 0.01818 0.0
H999 H 0.03804 0.1086 0.8338 0.0
H1000 H 0.0298 0.07599 0.77948 0.0
H1001 H 0.00976 0.11985 0.97615 0.0
H1002 H 0.07733 0.11226 0.85998 0.0
H1003 H 0.10781 0.09065 0.8385 0.0
H1004 H 0.11958 0.08611 0.04305 0.0
H1005 H 0.08888 0.1073 0.06566 0.0
C1006 C 0.03882 0.20546 0.11918 0.0
C1007 C 0.05441 0.20496 0.16651 0.0
C1008 C 0.03684 0.18928 0.07396 0.0
C1009 C 0.04986 0.1718 0.07679 0.0
C1010 C 0.06621 0.17222 0.12144 0.0
C1011 C 0.06875 0.18868 0.16405 0.0
C1012 C 0.04654 0.15282 0.03556 0.0
C1013 C 0.06388 0.14198 0.01218 0.0
C1014 C 0.02673 0.14435 0.02274 0.0
C1015 C 0.00769 0.15275 0.05194 0.0
C1016 C 0.00553 0.15385 0.11971 0.0
C1017 C 0.98735 0.16143 0.14703 0.0
C1018 C 0.97116 0.16776 0.10704 0.0
C1019 C 0.9731 0.16649 0.03965 0.0
C1020 C 0.99126 0.15894 0.01209 0.0
C1021 C 0.03296 0.05839 0.93497 0.0
C1022 C 0.03011 0.05768 0.8674 0.0
C1023 C 0.03785 0.07699 0.9659 0.0
C1024 C 0.03942 0.09536 0.93005 0.0
C1025 C 0.03711 0.09459 0.86235 0.0
C1026 C 0.03273 0.0759 0.83124 0.0
C1027 C 0.04228 0.11546 0.96373 0.0
C1028 C 0.0249 0.12625 0.98542 0.0
C1029 C 0.06197 0.12323 0.9786 0.0
C1030 C 0.08076 0.11118 0.96444 0.0
C1031 C 0.08632 0.1065 0.90031 0.0
C1032 C 0.10364 0.09434 0.88796 0.0
C1033 C 0.1156 0.08697 0.93938 0.0
C1034 C 0.11031 0.09181 0.00326 0.0
C1035 C 0.09296 0.10388 0.01585 0.0
H1036 H 0.129 0.07756 0.92971 0.0
H1037 H 0.95708 0.1736 0.12828 0.0
H1038 H 0.33145 0.0292 0.23929 0.0
H1039 H 0.36057 0.0244 0.16592 0.0
H1040 H 0.33268 0.06599 0.02838 0.0
H1041 H 0.30333 0.07108 0.10291 0.0
H1042 H 0.35082 0.03081 0.97027 0.0
H1043 H 0.37056 0.08217 0.12935 0.0
H1044 H 0.37612 0.09489 0.24062 0.0
H1045 H 0.4191 0.04591 0.27605 0.0
H1046 H 0.41353 0.03271 0.16587 0.0
H1047 H 0.4379 0.03828 0.77082 0.0
H1048 H 0.40962 0.04832 0.84277 0.0
H1049 H 0.44016 0.01839 0.0032 0.0
H1050 H 0.46897 0.00929 0.93141 0.0
H1051 H 0.4205 0.04907 0.05017 0.0
H1052 H 0.40067 0.9949 0.91041 0.0
H1053 H 0.39585 0.97687 0.80646 0.0
H1054 H 0.35369 0.02378 0.74362 0.0
H1055 H 0.35853 0.04229 0.84694 0.0
C1056 C 0.33129 0.03708 0.19286 0.0
C1057 C 0.31499 0.05053 0.17695 0.0
C1058 C 0.3481 0.03445 0.15115 0.0
C1059 C 0.34917 0.04515 0.09199 0.0
C1060 C 0.33235 0.05768 0.07399 0.0
C1061 C 0.31546 0.06044 0.11624 0.0
C1062 C 0.36798 0.04337 0.04997 0.0
C1063 C 0.36599 0.03521 0.9873 0.0
C1064 C 0.38803 0.04814 0.07305 0.0
C1065 C 0.39149 0.05634 0.13935 0.0
C1066 C 0.38108 0.07402 0.16107 0.0
C1067 C 0.38425 0.08134 0.22405 0.0
C1068 C 0.39793 0.07122 0.26559 0.0
C1069 C 0.40849 0.05378 0.24415 0.0
C1070 C 0.40534 0.04637 0.18138 0.0
C1071 C 0.43886 0.03446 0.82194 0.0
C1072 C 0.45577 0.02328 0.84572 0.0
C1073 C 0.42251 0.03992 0.86302 0.0
C1074 C 0.42226 0.03366 0.92854 0.0
C1075 C 0.43975 0.0234 0.95306 0.0
C1076 C 0.45632 0.01827 0.91208 0.0
C1077 C 0.40335 0.03668 0.96993 0.0
C1078 C 0.40532 0.04492 0.03265 0.0
C1079 C 0.38333 0.03127 0.94794 0.0
C1080 C 0.38014 0.0201 0.88609 0.0
C1081 C 0.39047 0.00144 0.87425 0.0
C1082 C 0.38773 0.99114 0.81546 0.0
C1083 C 0.37452 0.99921 0.76836 0.0
C1084 C 0.36395 0.01758 0.7801 0.0
C1085 C 0.36669 0.02798 0.83878 0.0
H1086 H 0.37242 0.99122 0.72283 0.0
H1087 H 0.40036 0.07691 0.31428 0.0
H1088 H 0.49223 0.29907 0.11684 0.0
H1089 H 0.49666 0.32864 0.0437 0.0
H1090 H 0.44542 0.3592 0.13553 0.0
H1091 H 0.44047 0.32938 0.20629 0.0
H1092 H 0.44466 0.37064 0.0191 0.0
H1093 H 0.49747 0.37001 0.17476 0.0
H1094 H 0.52638 0.35741 0.24135 0.0
H1095 H 0.56311 0.34946 0.06989 0.0
H1096 H 0.53429 0.36174 0.00215 0.0
H1097 H 0.4812 0.46998 0.89066 0.0
H1098 H 0.46959 0.44203 0.96348 0.0
H1099 H 0.51217 0.40036 0.87153 0.0
H1100 H 0.52383 0.42772 0.80055 0.0
H1101 H 0.51574 0.39768 0.99933 0.0
H1102 H 0.45719 0.40045 0.84724 0.0
H1103 H 0.42741 0.41784 0.79686 0.0
H1104 H 0.40079 0.4278 0.98498 0.0
H1105 H 0.43053 0.41068 0.03642 0.0
C1106 C 0.48142 0.31174 0.11963 0.0
C1107 C 0.46594 0.31174 0.16731 0.0
C1108 C 0.48422 0.32891 0.07865 0.0
C1109 C 0.47177 0.34663 0.08488 0.0
C1110 C 0.45539 0.34597 0.12944 0.0
C1111 C 0.4525 0.32879 0.16988 0.0
C1112 C 0.47631 0.36607 0.04725 0.0
C1113 C 0.46023 0.37656 0.01532 0.0
C1114 C 0.49644 0.37446 0.04308 0.0
C1115 C 0.51363 0.36655 0.08332 0.0
C1116 C 0.51163 0.36535 0.15119 0.0
C1117 C 0.52802 0.35832 0.18916 0.0
C1118 C 0.54655 0.35257 0.15985 0.0
C1119 C 0.54873 0.35386 0.09251 0.0
C1120 C 0.53237 0.36086 0.0543 0.0
C1121 C 0.48795 0.45482 0.88581 0.0
C1122 C 0.50368 0.45133 0.83991 0.0
C1123 C 0.48126 0.43878 0.92741 0.0
C1124 C 0.49001 0.41891 0.92342 0.0
C1125 C 0.50525 0.41545 0.87647 0.0
C1126 C 0.51194 0.43129 0.8356 0.0
C1127 C 0.48433 0.40159 0.96868 0.0
C1128 C 0.50021 0.39163 0.00284 0.0
C1129 C 0.46393 0.39425 0.97689 0.0
C1130 C 0.44615 0.40448 0.94562 0.0
C1131 C 0.44505 0.40648 0.87781 0.0
C1132 C 0.42817 0.41627 0.84909 0.0
C1133 C 0.41225 0.42397 0.8877 0.0
C1134 C 0.41314 0.42186 0.95512 0.0
C1135 C 0.42999 0.41211 0.98406 0.0
H1136 H 0.39919 0.43153 0.86537 0.0
H1137 H 0.55924 0.34718 0.18934 0.0
H1138 H 0.18753 0.43928 0.2193 0.0
H1139 H 0.15817 0.44578 0.15279 0.0
H1140 H 0.19187 0.49296 0.04932 0.0
H1141 H 0.22019 0.48941 0.12731 0.0
H1142 H 0.15833 0.50679 0.05695 0.0
H1143 H 0.17301 0.43555 0.99413 0.0
H1144 H 0.17953 0.39888 0.01857 0.0
H1145 H 0.12132 0.39465 0.11675 0.0
H1146 H 0.11455 0.43128 0.09338 0.0
H1147 H 0.09108 0.5161 0.79859 0.0
H1148 H 0.11901 0.505 0.86799 0.0
H1149 H 0.07575 0.47441 0.99449 0.0
H1150 H 0.04709 0.48585 0.92375 0.0
H1151 H 0.11151 0.45185 0.97893 0.0
H1152 H 0.0965 0.52208 0.03647 0.0
H1153 H 0.08903 0.55825 0.0081 0.0
H1154 H 0.1479 0.56343 0.91436 0.0
H1155 H 0.15562 0.52724 0.94171 0.0
C1156 C 0.18881 0.45129 0.18296 0.0
C1157 C 0.20616 0.46438 0.18097 0.0
C1158 C 0.17194 0.45452 0.14256 0.0
C1159 C 0.17243 0.4695 0.09337 0.0
C1160 C 0.19065 0.48133 0.08688 0.0
C1161 C 0.20717 0.47906 0.13082 0.0
C1162 C 0.15351 0.47391 0.05287 0.0
C1163 C 0.14854 0.49455 0.039 0.0
C1164 C 0.13962 0.45834 0.03112 0.0
C1165 C 0.14333 0.43612 0.04213 0.0
C1166 C 0.1616 0.42675 0.02071 0.0
C1167 C 0.16535 0.406 0.03453 0.0
C1168 C 0.15086 0.39445 0.06923 0.0
C1169 C 0.13252 0.40359 0.08983 0.0
C1170 C 0.12869 0.42432 0.07615 0.0
C1171 C 0.08739 0.5069 0.84098 0.0
C1172 C 0.06682 0.50207 0.85604 0.0
C1173 C 0.10345 0.50061 0.8809 0.0
C1174 C 0.0996 0.48925 0.93746 0.0
C1175 C 0.07914 0.4833 0.95124 0.0
C1176 C 0.06279 0.48971 0.91074 0.0
C1177 C 0.11717 0.48438 0.98186 0.0
C1178 C 0.12166 0.46383 0.99674 0.0
C1179 C 0.13073 0.49993 0.00408 0.0
C1180 C 0.12663 0.522 0.99117 0.0
C1181 C 0.10786 0.53098 0.01002 0.0
C1182 C 0.10357 0.55146 0.99399 0.0
C1183 C 0.11798 0.56313 0.95946 0.0
C1184 C 0.13677 0.55439 0.94124 0.0
C1185 C 0.14115 0.53392 0.95718 0.0
H1186 H 0.11459 0.57896 0.9468 0.0
H1187 H 0.15385 0.37842 0.08014 0.0
H1188 H 0.94679 0.80551 0.33484 0.0
H1189 H 0.95198 0.83491 0.40816 0.0
H1190 H 0.00339 0.85502 0.29113 0.0
H1191 H 0.99864 0.82542 0.22015 0.0
H1192 H 0.01252 0.8629 0.40625 0.0
H1193 H 0.95343 0.87604 0.27855 0.0
H1194 H 0.91917 0.87014 0.23073 0.0
H1195 H 0.89187 0.87112 0.42053 0.0
H1196 H 0.92606 0.87671 0.4696 0.0
H1197 H 0.01942 0.9658 0.49507 0.0
H1198 H 0.00844 0.93682 0.42818 0.0
H1199 H 0.96884 0.91572 0.58263 0.0
H1200 H 0.97949 0.94523 0.64947 0.0
H1201 H 0.95281 0.90809 0.45386 0.0
H1202 H 0.0172 0.89782 0.57345 0.0
H1203 H 0.05239 0.90845 0.60359 0.0
H1204 H 0.0706 0.90695 0.40332 0.0
H1205 H 0.03545 0.89662 0.37196 0.0
C1206 C 0.95964 0.81582 0.32655 0.0
C1207 C 0.97256 0.813 0.27264 0.0
C1208 C 0.96239 0.83286 0.36763 0.0
C1209 C 0.97786 0.84756 0.35477 0.0
C1210 C 0.99136 0.84404 0.30262 0.0
C1211 C 0.98874 0.827 0.26218 0.0
C1212 C 0.97983 0.86692 0.3938 0.0
C1213 C 0.9994 0.87273 0.41617 0.0
C1214 C 0.96286 0.88008 0.40693 0.0
C1215 C 0.94233 0.8765 0.37782 0.0
C1216 C 0.94015 0.87478 0.31015 0.0
C1217 C 0.92074 0.87153 0.2828 0.0
C1218 C 0.90336 0.87018 0.32258 0.0
C1219 C 0.90536 0.87211 0.3898 0.0
C1220 C 0.92474 0.87532 0.41741 0.0
C1221 C 0.00777 0.95542 0.51386 0.0
C1222 C 1.00024 0.95782 0.57738 0.0
C1223 C 0.00163 0.93875 0.47577 0.0
C1224 C 0.98819 0.92377 0.50085 0.0
C1225 C 0.97929 0.92702 0.56229 0.0
C1226 C 0.98526 0.94396 0.60033 0.0
C1227 C 0.98541 0.90383 0.46598 0.0
C1228 C 0.96577 0.898 0.44441 0.0
C1229 C 0.00244 0.89102 0.45111 0.0
C1230 C 0.02371 0.89653 0.47041 0.0
C1231 C 0.02872 0.8998 0.53589 0.0
C1232 C 0.04864 0.90579 0.55316 0.0
C1233 C 0.06372 0.90839 0.5054 0.0
C1234 C 0.05892 0.90493 0.44028 0.0
C1235 C 0.03901 0.89898 0.42274 0.0
H1236 H 0.07912 0.91306 0.51887 0.0
H1237 H 0.88834 0.8677 0.30132 0.0
H1238 H 0.71684 0.98893 0.31432 0.0
H1239 H 0.68696 0.99322 0.38673 0.0
H1240 H 0.65864 0.93941 0.30375 0.0
H1241 H 0.68854 0.93466 0.23331 0.0
H1242 H 0.63195 0.97579 0.30907 0.0
H1243 H 0.67611 0.93421 0.44876 0.0
H1244 H 0.7089 0.92697 0.50475 0.0
H1245 H 0.70505 0.98504 0.60323 0.0
H1246 H 0.67233 0.99266 0.5474 0.0
H1247 H 0.54648 0.98106 0.53918 0.0
H1248 H 0.57374 0.96804 0.4659 0.0
H1249 H 0.61875 0.00405 0.5697 0.0
H1250 H 0.59259 0.01579 0.64297 0.0
H1251 H 0.63566 0.9715 0.54878 0.0
H1252 H 0.59592 0.01666 0.41141 0.0
H1253 H 0.56537 0.02911 0.35217 0.0
H1254 H 0.56239 0.97222 0.24701 0.0
H1255 H 0.59287 0.95936 0.30604 0.0
C1256 C 0.70454 0.97769 0.31288 0.0
C1257 C 0.70515 0.96148 0.2678 0.0
C1258 C 0.68732 0.98029 0.35367 0.0
C1259 C 0.67034 0.96681 0.35002 0.0
C1260 C 0.67133 0.9502 0.30692 0.0
C1261 C 0.68855 0.94744 0.26697 0.0
C1262 C 0.65158 0.9699 0.39112 0.0
C1263 C 0.63264 0.97466 0.36155 0.0
C1264 C 0.65246 0.9688 0.45944 0.0
C1265 C 0.67189 0.96403 0.49371 0.0
C1266 C 0.68233 0.94545 0.48217 0.0
C1267 C 0.70087 0.94127 0.51391 0.0
C1268 C 0.70907 0.95554 0.55748 0.0
C1269 C 0.69869 0.97399 0.56955 0.0
C1270 C 0.68013 0.97823 0.53797 0.0
C1271 C 0.56227 0.98587 0.54663 0.0
C1272 C 0.56716 0.99968 0.59696 0.0
C1273 C 0.57786 0.97863 0.50422 0.0
C1274 C 0.59854 0.98515 0.51133 0.0
C1275 C 0.60317 0.99854 0.56248 0.0
C1276 C 0.58793 0.00547 0.60449 0.0
C1277 C 0.61586 0.97843 0.46748 0.0
C1278 C 0.63467 0.97266 0.49637 0.0
C1279 C 0.61495 0.97941 0.39867 0.0
C1280 C 0.59643 0.98691 0.36401 0.0
C1281 C 0.58861 0.00672 0.37618 0.0
C1282 C 0.57135 0.01388 0.34247 0.0
C1283 C 0.56189 0.00143 0.29605 0.0
C1284 C 0.5697 0.98181 0.28314 0.0
C1285 C 0.58696 0.97459 0.3167 0.0
H1286 H 0.54855 0.00701 0.26994 0.0
H1287 H 0.72345 0.95229 0.58193 0.0
H1288 H 0.52676 0.7142 0.30048 0.0
H1289 H 0.52057 0.68461 0.37226 0.0
H1290 H 0.58202 0.66248 0.33467 0.0
H1291 H 0.58811 0.69193 0.26275 0.0
H1292 H 0.55519 0.63165 0.32079 0.0
H1293 H 0.56787 0.68255 0.48449 0.0
H1294 H 0.56284 0.71608 0.53802 0.0
H1295 H 0.49919 0.70155 0.57153 0.0
H1296 H 0.50379 0.66804 0.51733 0.0
H1297 H 0.5444 0.55228 0.57775 0.0
H1298 H 0.55734 0.58027 0.50703 0.0
H1299 H 0.49741 0.60868 0.50987 0.0
H1300 H 0.48442 0.58121 0.57746 0.0
H1301 H 0.52761 0.63568 0.54469 0.0
H1302 H 0.51376 0.58621 0.37759 0.0
H1303 H 0.51716 0.55352 0.31813 0.0
H1304 H 0.58149 0.56539 0.28753 0.0
H1305 H 0.57855 0.59801 0.3479 0.0
C1306 C 0.53919 0.70347 0.3096 0.0
C1307 C 0.55804 0.70565 0.27678 0.0
C1308 C 0.53561 0.68638 0.35021 0.0
C1309 C 0.55082 0.67112 0.35916 0.0
C1310 C 0.56997 0.67384 0.32861 0.0
C1311 C 0.57354 0.69087 0.28813 0.0
C1312 C 0.54658 0.65206 0.39848 0.0
C1313 C 0.54953 0.63255 0.37022 0.0
C1314 C 0.53881 0.653 0.46258 0.0
C1315 C 0.53614 0.67288 0.49653 0.0
C1316 C 0.55279 0.68656 0.50306 0.0
C1317 C 0.55001 0.70555 0.53349 0.0
C1318 C 0.5307 0.71096 0.55805 0.0
C1319 C 0.51414 0.69734 0.55246 0.0
C1320 C 0.51682 0.67834 0.52196 0.0
C1321 C 0.53395 0.56433 0.56245 0.0
C1322 C 0.51338 0.56441 0.58444 0.0
C1323 C 0.54135 0.58033 0.5219 0.0
C1324 C 0.52839 0.5968 0.50359 0.0
C1325 C 0.50782 0.59639 0.52371 0.0
C1326 C 0.50041 0.58047 0.56279 0.0
C1327 C 0.53596 0.61527 0.46686 0.0
C1328 C 0.53361 0.63473 0.49563 0.0
C1329 C 0.54412 0.6142 0.4032 0.0
C1330 C 0.54601 0.59438 0.3683 0.0
C1331 C 0.52871 0.58171 0.35908 0.0
C1332 C 0.53053 0.56322 0.32498 0.0
C1333 C 0.54955 0.55733 0.29934 0.0
C1334 C 0.56678 0.56993 0.30765 0.0
C1335 C 0.56505 0.58841 0.34185 0.0
H1336 H 0.55092 0.54304 0.2728 0.0
H1337 H 0.52857 0.72569 0.58152 0.0
H1338 H 0.83551 0.57546 0.23661 0.0
H1339 H 0.8636 0.56937 0.31269 0.0
H1340 H 0.83337 0.51445 0.38132 0.0
H1341 H 0.80538 0.51988 0.30216 0.0
H1342 H 0.85247 0.54751 0.48034 0.0
H1343 H 0.86746 0.50341 0.29535 0.0
H1344 H 0.87203 0.49723 0.17829 0.0
H1345 H 0.92042 0.54222 0.17174 0.0
H1346 H 0.91594 0.5489 0.28873 0.0
H1347 H 0.92874 0.49823 0.66022 0.0
H1348 H 0.90147 0.50803 0.58629 0.0
H1349 H 0.9442 0.54502 0.47614 0.0
H1350 H 0.97219 0.53478 0.55062 0.0
H1351 H 0.91967 0.52326 0.39462 0.0
H1352 H 0.90615 0.56986 0.56504 0.0
H1353 H 0.9017 0.58232 0.67702 0.0
H1354 H 0.85264 0.53902 0.70725 0.0
H1355 H 0.8565 0.52661 0.59472 0.0
C1356 C 0.83469 0.56205 0.26792 0.0
C1357 C 0.81817 0.54801 0.26242 0.0
C1358 C 0.85083 0.55863 0.31149 0.0
C1359 C 0.85079 0.54133 0.35214 0.0
C1360 C 0.83378 0.52788 0.35008 0.0
C1361 C 0.81767 0.5311 0.30528 0.0
C1362 C 0.8688 0.53735 0.39555 0.0
C1363 C 0.86703 0.54182 0.46182 0.0
C1364 C 0.88821 0.53112 0.37081 0.0
C1365 C 0.89118 0.52684 0.30071 0.0
C1366 C 0.87893 0.51214 0.26886 0.0
C1367 C 0.88153 0.50852 0.20251 0.0
C1368 C 0.89642 0.51941 0.16748 0.0
C1369 C 0.90884 0.53384 0.19888 0.0
C1370 C 0.9063 0.53753 0.26524 0.0
C1371 C 0.93252 0.50854 0.62055 0.0
C1372 C 0.95286 0.51559 0.61154 0.0
C1373 C 0.91673 0.51427 0.57826 0.0
C1374 C 0.92053 0.52744 0.52551 0.0
C1375 C 0.94077 0.53483 0.5164 0.0
C1376 C 0.95676 0.5291 0.55932 0.0
C1377 C 0.9032 0.53282 0.48022 0.0
C1378 C 0.9051 0.52882 0.41341 0.0
C1379 C 0.88402 0.54008 0.50393 0.0
C1380 C 0.8817 0.54723 0.57173 0.0
C1381 C 0.89448 0.56293 0.5957 0.0
C1382 C 0.89202 0.57003 0.65914 0.0
C1383 C 0.877 0.56137 0.69938 0.0
C1384 C 0.86428 0.5457 0.67602 0.0
C1385 C 0.86649 0.53873 0.61226 0.0
H1386 H 0.87516 0.56686 0.74853 0.0
H1387 H 0.89836 0.51662 0.11608 0.0
loop_
_geom_bond_atom_site_label_1
_geom_bond_atom_site_label_2
_geom_bond_distance
_geom_bond_site_symmetry_2
_ccdc_geom_bond_type
H0 C7 0.929 . S
H1 C10 0.930 . S
H2 C12 0.929 . S
H3 C4 0.969 . S
C4 H3 0.969 . S
C4 O5 1.550 . S
C4 H6 0.973 . S
O5 C4 1.550 . S
O5 C11 1.412 . S
H6 C4 0.973 . S
C7 H0 0.929 . S
C7 C8 1.400 . S
C7 C9 1.364 . S
C8 C7 1.400 . S
C8 C12 1.377 . S
C9 C7 1.364 . S
C9 C10 1.374 . S
C10 H1 0.930 . S
C10 C9 1.374 . S
C10 C11 1.383 . S
C11 O5 1.412 . S
C11 C10 1.383 . S
C11 C12 1.394 . S
C12 H2 0.929 . S
C12 C8 1.377 . S
C12 C11 1.394 . S
H13 C20 0.929 . S
H14 C23 0.930 . S
H15 C25 0.929 . S
H16 C17 0.969 . S
C17 H16 0.969 . S
C17 O18 1.550 . S
C17 H19 0.973 . S
O18 C17 1.550 . S
O18 C24 1.412 . S
H19 C17 0.973 . S
C20 H13 0.929 . S
C20 C21 1.400 . S
C20 C22 1.364 . S
C21 C20 1.400 . S
C21 C25 1.377 . S
C22 C20 1.364 . S
C22 C23 1.374 . S
C23 H14 0.930 . S
C23 C22 1.374 . S
C23 C24 1.383 . S
C24 O18 1.412 . S
C24 C23 1.383 . S
C24 C25 1.394 . S
C25 H15 0.929 . S
C25 C21 1.377 . S
C25 C24 1.394 . S
H26 C33 0.929 . S
H27 C36 0.930 . S
H28 C38 0.929 . S
H29 C30 0.969 . S
C30 H29 0.969 . S
C30 O31 1.550 . S
C30 H32 0.973 . S
O31 C30 1.550 . S
O31 C37 1.412 . S
H32 C30 0.973 . S
C33 H26 0.929 . S
C33 C34 1.400 . S
C33 C35 1.364 . S
C34 C33 1.400 . S
C34 C38 1.377 . S
C35 C33 1.364 . S
C35 C36 1.374 . S
C36 H27 0.930 . S
C36 C35 1.374 . S
C36 C37 1.383 . S
C37 O31 1.412 . S
C37 C36 1.383 . S
C37 C38 1.394 . S
C38 H28 0.929 . S
C38 C34 1.377 . S
C38 C37 1.394 . S
H39 C46 0.929 . S
H40 C49 0.930 . S
H41 C51 0.929 . S
H42 C43 0.969 . S
C43 H42 0.969 . S
C43 O44 1.550 . S
C43 H45 0.973 . S
O44 C43 1.550 . S
O44 C50 1.412 . S
H45 C43 0.973 . S
C46 H39 0.929 . S
C46 C47 1.400 . S
C46 C48 1.364 . S
C47 C46 1.400 . S
C47 C51 1.377 . S
C48 C46 1.364 . S
C48 C49 1.374 . S
C49 H40 0.930 . S
C49 C48 1.374 . S
C49 C50 1.383 . S
C50 O44 1.412 . S
C50 C49 1.383 . S
C50 C51 1.394 . S
C51 H41 0.929 . S
C51 C47 1.377 . S
C51 C50 1.394 . S
H52 C59 0.929 . S
H53 C62 0.930 . S
H54 C64 0.929 . S
H55 C56 0.969 . S
C56 H55 0.969 . S
C56 O57 1.550 . S
C56 H58 0.973 . S
O57 C56 1.550 . S
O57 C63 1.412 . S
H58 C56 0.973 . S
C59 H52 0.929 . S
C59 C60 1.400 . S
C59 C61 1.364 . S
C60 C59 1.400 . S
C60 C64 1.377 . S
C61 C59 1.364 . S
C61 C62 1.374 . S
C62 H53 0.930 . S
C62 C61 1.374 . S
C62 C63 1.383 . S
C63 O57 1.412 . S
C63 C62 1.383 . S
C63 C64 1.394 . S
C64 H54 0.929 . S
C64 C60 1.377 . S
C64 C63 1.394 . S
H65 C72 0.929 . S
H66 C75 0.930 . S
H67 C77 0.929 . S
H68 C69 0.969 . S
C69 H68 0.969 . S
C69 O70 1.550 . S
C69 H71 0.973 . S
O70 C69 1.550 . S
O70 C76 1.412 . S
H71 C69 0.973 . S
C72 H65 0.929 . S
C72 C73 1.400 . S
C72 C74 1.364 . S
C73 C72 1.400 . S
C73 C77 1.377 . S
C74 C72 1.364 . S
C74 C75 1.374 . S
C75 H66 0.930 . S
C75 C74 1.374 . S
C75 C76 1.383 . S
C76 O70 1.412 . S
C76 C75 1.383 . S
C76 C77 1.394 . S
C77 H67 0.929 . S
C77 C73 1.377 . S
C77 C76 1.394 . S
H78 C85 0.929 . S
H79 C88 0.930 . S
H80 C90 0.929 . S
H81 C82 0.969 . S
C82 H81 0.969 . S
C82 O83 1.550 . S
C82 H84 0.973 . S
O83 C82 1.550 . S
O83 C89 1.412 . S
H84 C82 0.973 . S
C85 H78 0.929 . S
C85 C86 1.400 . S
C85 C87 1.364 . S
C86 C85 1.400 . S
C86 C90 1.377 . S
C87 C85 1.364 . S
C87 C88 1.374 . S
C88 H79 0.930 . S
C88 C87 1.374 . S
C88 C89 1.383 . S
C89 O83 1.412 . S
C89 C88 1.383 . S
C89 C90 1.394 . S
C90 H80 0.929 . S
C90 C86 1.377 . S
C90 C89 1.394 . S
H91 C98 0.929 . S
H92 C101 0.930 . S
H93 C103 0.929 . S
H94 C95 0.969 . S
C95 H94 0.969 . S
C95 O96 1.550 . S
C95 H97 0.973 . S
O96 C95 1.550 . S
O96 C102 1.412 . S
H97 C95 0.973 . S
C98 H91 0.929 . S
C98 C99 1.400 . S
C98 C100 1.364 . S
C99 C98 1.400 . S
C99 C103 1.377 . S
C100 C98 1.364 . S
C100 C101 1.374 . S
C101 H92 0.930 . S
C101 C100 1.374 . S
C101 C102 1.383 . S
C102 O96 1.412 . S
C102 C101 1.383 . S
C102 C103 1.394 . S
C103 H93 0.929 . S
C103 C99 1.377 . S
C103 C102 1.394 . S
O104 Mn105 2.163 . S
O104 C118 1.244 . S
Mn105 O104 2.163 . S
Mn105 O108 2.160 1_445 S
Mn105 O109 2.221 . S
Mn105 O111 2.163 1_545 S
Mn105 O113 2.160 . S
Mn105 O123 2.221 1_455 S
O106 Mn107 2.098 . S
O106 C118 1.242 1_655 S
Mn107 O106 2.098 . S
Mn107 O114 2.089 . S
Mn107 O123 2.290 . S
Mn107 O124 2.251 . S
O108 Mn105 2.160 1_665 S
O108 C119 1.239 1_655 S
O109 Mn105 2.221 . S
O109 Mn110 2.290 1_545 S
O109 C120 1.278 . S
Mn110 O109 2.290 1_565 S
Mn110 O112 2.089 . S
Mn110 O115 2.251 . S
Mn110 O116 2.087 . S
O111 Mn105 2.163 1_565 S
O111 C121 1.244 . S
O112 Mn110 2.089 . S
O112 C119 1.256 . S
O113 Mn105 2.160 . S
O113 C122 1.239 . S
O114 Mn107 2.089 . S
O114 C122 1.256 1_655 S
O115 Mn110 2.251 . S
O115 C120 1.241 1_565 S
O116 Mn110 2.087 . S
O116 C121 1.256 . S
C117 O123 1.278 . S
C117 O124 1.241 . S
C118 O104 1.244 . S
C118 O106 1.242 1_455 S
C119 O108 1.239 1_455 S
C119 O112 1.256 . S
C120 O109 1.278 . S
C120 O115 1.241 1_545 S
C121 O111 1.244 . S
C121 O116 1.256 . S
C122 O113 1.239 . S
C122 O114 1.256 1_455 S
O123 Mn105 2.221 1_655 S
O123 Mn107 2.290 . S
O123 C117 1.278 . S
O124 Mn107 2.251 . S
O124 C117 1.241 . S
O125 Mn126 2.163 . S
O125 C139 1.244 . S
Mn126 O125 2.163 . S
Mn126 O129 2.160 . S
Mn126 O130 2.221 1_545 S
Mn126 O132 2.163 . S
Mn126 O134 2.160 1_545 S
Mn126 O144 2.221 . S
O127 Mn128 2.087 . S
O127 C139 1.256 . S
Mn128 O127 2.087 . S
Mn128 O135 2.089 . S
Mn128 O144 2.290 . S
Mn128 O145 2.251 . S
O129 Mn126 2.160 . S
O129 C140 1.239 . S
O130 Mn126 2.221 1_565 S
O130 Mn131 2.290 . S
O130 C141 1.278 . S
Mn131 O130 2.290 . S
Mn131 O133 2.089 . S
Mn131 O136 2.251 . S
Mn131 O137 2.087 . S
O132 Mn126 2.163 . S
O132 C142 1.244 . S
O133 Mn131 2.089 . S
O133 C140 1.256 1_565 S
O134 Mn126 2.160 1_565 S
O134 C143 1.244 . S
O135 Mn128 2.089 . S
O135 C143 1.235 1_545 S
O136 Mn131 2.251 . S
O136 C141 1.241 . S
O137 Mn131 2.087 . S
O137 C142 1.256 1_565 S
C138 O144 1.278 . S
C138 O145 1.241 . S
C139 O125 1.244 . S
C139 O127 1.256 . S
C140 O129 1.239 . S
C140 O133 1.256 1_545 S
C141 O130 1.278 . S
C141 O136 1.241 . S
C142 O132 1.244 . S
C142 O137 1.256 1_545 S
C143 O134 1.244 . S
C143 O135 1.235 1_565 S
O144 Mn126 2.221 . S
O144 Mn128 2.290 . S
O144 C138 1.278 . S
O145 Mn128 2.251 . S
O145 C138 1.241 . S
O146 Mn147 2.163 . S
O146 C160 1.244 . S
Mn147 O146 2.163 . S
Mn147 O150 2.160 . S
Mn147 O151 2.221 . S
Mn147 O153 2.163 . S
Mn147 O155 2.160 . S
Mn147 O165 2.221 . S
O148 Mn149 2.087 . S
O148 C160 1.256 . S
Mn149 O148 2.087 . S
Mn149 O156 2.089 . S
Mn149 O165 2.290 . S
Mn149 O166 2.251 . S
O150 Mn147 2.160 . S
O150 C161 1.239 . S
O151 Mn147 2.221 . S
O151 Mn152 2.290 . S
O151 C162 1.278 . S
Mn152 O151 2.290 . S
Mn152 O154 2.089 . S
Mn152 O157 2.251 . S
Mn152 O158 2.087 . S
O153 Mn147 2.163 . S
O153 C163 1.244 . S
O154 Mn152 2.089 . S
O154 C161 1.256 . S
O155 Mn147 2.160 . S
O155 C164 1.239 . S
O156 Mn149 2.089 . S
O156 C164 1.256 . S
O157 Mn152 2.251 . S
O157 C162 1.241 . S
O158 Mn152 2.087 . S
O158 C163 1.256 . S
C159 O165 1.278 . S
C159 O166 1.241 . S
C160 O146 1.244 . S
C160 O148 1.256 . S
C161 O150 1.239 . S
C161 O154 1.256 . S
C162 O151 1.278 . S
C162 O157 1.241 . S
C163 O153 1.244 . S
C163 O158 1.256 . S
C164 O155 1.239 . S
C164 O156 1.256 . S
O165 Mn147 2.221 . S
O165 Mn149 2.290 . S
O165 C159 1.278 . S
O166 Mn149 2.251 . S
O166 C159 1.241 . S
O167 Mn168 2.163 . S
O167 C181 1.244 . S
Mn168 O167 2.163 . S
Mn168 O171 2.160 1_455 S
Mn168 O172 2.221 . S
Mn168 O174 2.163 1_455 S
Mn168 O176 2.160 . S
Mn168 O186 2.221 . S
O169 Mn170 2.087 . S
O169 C181 1.256 . S
Mn170 O169 2.087 . S
Mn170 O177 2.089 . S
Mn170 O186 2.290 . S
Mn170 O187 2.251 . S
O171 Mn168 2.160 1_655 S
O171 C182 1.239 . S
O172 Mn168 2.221 . S
O172 Mn173 2.290 1_455 S
O172 C183 1.278 . S
Mn173 O172 2.290 1_655 S
Mn173 O175 2.089 . S
Mn173 O178 2.251 . S
Mn173 O179 2.087 . S
O174 Mn168 2.163 1_655 S
O174 C184 1.244 . S
O175 Mn173 2.089 . S
O175 C182 1.256 . S
O176 Mn168 2.160 . S
O176 C185 1.239 . S
O177 Mn170 2.089 . S
O177 C185 1.256 . S
O178 Mn173 2.251 . S
O178 C183 1.241 1_655 S
O179 Mn173 2.087 . S
O179 C184 1.256 . S
C180 O186 1.278 . S
C180 O187 1.241 . S
C181 O167 1.244 . S
C181 O169 1.256 . S
C182 O171 1.239 . S
C182 O175 1.256 . S
C183 O172 1.278 . S
C183 O178 1.241 1_455 S
C184 O174 1.244 . S
C184 O179 1.256 . S
C185 O176 1.239 . S
C185 O177 1.256 . S
O186 Mn168 2.221 . S
O186 Mn170 2.290 . S
O186 C180 1.278 . S
O187 Mn170 2.251 . S
O187 C180 1.241 . S
H188 C206 0.951 . S
H189 C208 0.951 . S
H190 C210 0.950 . S
H191 C211 0.950 . S
H192 C213 0.950 . S
H193 C216 0.950 . S
H194 C217 0.950 . S
H195 C219 0.950 . S
H196 C220 0.950 . S
H197 C221 0.951 . S
H198 C223 0.951 . S
H199 C225 0.950 . S
H200 C226 0.950 . S
H201 C228 0.950 . S
H202 C231 0.950 . S
H203 C232 0.950 . S
H204 C234 0.950 . S
H205 C235 0.950 . S
C206 H188 0.951 . S
C206 C207 1.366 . S
C206 C208 1.388 . S
C207 C206 1.366 . S
C207 C211 1.385 . S
C208 H189 0.951 . S
C208 C206 1.388 . S
C208 C209 1.366 . S
C209 C208 1.366 . S
C209 C210 1.414 . S
C209 C212 1.499 . S
C210 H190 0.950 . S
C210 C209 1.414 . S
C210 C211 1.374 . S
C211 H191 0.950 . S
C211 C207 1.385 . S
C211 C210 1.374 . S
C212 C209 1.499 . S
C212 C213 1.373 . S
C212 C214 1.389 . S
C213 H192 0.950 . S
C213 C212 1.373 . S
C213 C229 1.377 . S
C214 C212 1.389 . S
C214 C215 1.524 . S
C214 C228 1.377 . S
C215 C214 1.524 . S
C215 C216 1.397 . S
C215 C220 1.363 . S
C216 H193 0.950 . S
C216 C215 1.397 . S
C216 C217 1.334 . S
C217 H194 0.950 . S
C217 C216 1.334 . S
C217 C218 1.287 . S
C218 C217 1.287 . S
C218 C219 1.524 . S
C218 H237 0.913 . S
C219 H195 0.950 . S
C219 C218 1.524 . S
C219 C220 1.415 . S
C220 H196 0.950 . S
C220 C215 1.363 . S
C220 C219 1.415 . S
C221 H197 0.951 . S
C221 C222 1.366 . S
C221 C223 1.388 . S
C222 C221 1.366 . S
C222 C226 1.385 . S
C223 H198 0.951 . S
C223 C221 1.388 . S
C223 C224 1.366 . S
C224 C223 1.366 . S
C224 C225 1.414 . S
C224 C227 1.499 . S
C225 H199 0.950 . S
C225 C224 1.414 . S
C225 C226 1.374 . S
C226 H200 0.950 . S
C226 C222 1.385 . S
C226 C225 1.374 . S
C227 C224 1.499 . S
C227 C228 1.373 . S
C227 C229 1.389 . S
C228 H201 0.950 . S
C228 C214 1.377 . S
C228 C227 1.373 . S
C229 C213 1.377 . S
C229 C227 1.389 . S
C229 C230 1.524 . S
C230 C229 1.524 . S
C230 C231 1.397 1_545 S
C230 C235 1.363 . S
C231 H202 0.950 . S
C231 C230 1.397 1_565 S
C231 C232 1.334 . S
C232 H203 0.950 . S
C232 C231 1.334 . S
C232 C233 1.287 . S
C233 C232 1.287 . S
C233 C234 1.524 1_565 S
C233 H236 0.999 . S
C234 H204 0.950 . S
C234 C233 1.524 1_545 S
C234 C235 1.415 . S
C235 H205 0.950 . S
C235 C230 1.363 . S
C235 C234 1.415 . S
H236 C233 0.999 . S
H237 C218 0.913 . S
H238 C256 0.951 . S
H239 C258 0.951 . S
H240 C260 0.950 . S
H241 C261 0.950 . S
H242 C263 0.950 . S
H243 C266 0.950 . S
H244 C267 0.950 . S
H245 C269 0.950 . S
H246 C270 0.950 . S
H247 C271 0.951 . S
H248 C273 0.951 . S
H249 C275 0.950 . S
H250 C276 0.950 . S
H251 C278 0.950 . S
H252 C281 0.950 . S
H253 C282 0.950 . S
H254 C284 0.950 . S
H255 C285 0.950 . S
C256 H238 0.951 . S
C256 C257 1.366 . S
C256 C258 1.388 . S
C257 C256 1.366 . S
C257 C261 1.385 . S
C258 H239 0.951 . S
C258 C256 1.388 . S
C258 C259 1.366 . S
C259 C258 1.366 . S
C259 C260 1.414 . S
C259 C262 1.499 . S
C260 H240 0.950 . S
C260 C259 1.414 . S
C260 C261 1.374 . S
C261 H241 0.950 . S
C261 C257 1.385 . S
C261 C260 1.374 . S
C262 C259 1.499 . S
C262 C263 1.373 . S
C262 C264 1.389 . S
C263 H242 0.950 . S
C263 C262 1.373 . S
C263 C279 1.377 . S
C264 C262 1.389 . S
C264 C265 1.524 . S
C264 C278 1.377 . S
C265 C264 1.524 . S
C265 C266 1.397 . S
C265 C270 1.363 . S
C266 H243 0.950 . S
C266 C265 1.397 . S
C266 C267 1.334 . S
C267 H244 0.950 . S
C267 C266 1.334 . S
C267 C268 1.287 . S
C268 C267 1.287 . S
C268 C269 1.524 . S
C268 H287 0.913 . S
C269 H245 0.950 . S
C269 C268 1.524 . S
C269 C270 1.415 . S
C270 H246 0.950 . S
C270 C265 1.363 . S
C270 C269 1.415 . S
C271 H247 0.951 . S
C271 C272 1.366 . S
C271 C273 1.388 . S
C272 C271 1.366 . S
C272 C276 1.385 . S
C273 H248 0.951 . S
C273 C271 1.388 . S
C273 C274 1.366 . S
C274 C273 1.366 . S
C274 C275 1.414 . S
C274 C277 1.499 . S
C275 H249 0.950 . S
C275 C274 1.414 . S
C275 C276 1.374 . S
C276 H250 0.950 . S
C276 C272 1.385 . S
C276 C275 1.374 . S
C277 C274 1.499 . S
C277 C278 1.373 . S
C277 C279 1.389 . S
C278 H251 0.950 . S
C278 C264 1.377 . S
C278 C277 1.373 . S
C279 C263 1.377 . S
C279 C277 1.389 . S
C279 C280 1.524 . S
C280 C279 1.524 . S
C280 C281 1.397 . S
C280 C285 1.363 . S
C281 H252 0.950 . S
C281 C280 1.397 . S
C281 C282 1.334 . S
C282 H253 0.950 . S
C282 C281 1.334 . S
C282 C283 1.287 . S
C283 C282 1.287 . S
C283 C284 1.524 . S
C283 H286 0.999 . S
C284 H254 0.950 . S
C284 C283 1.524 . S
C284 C285 1.415 . S
C285 H255 0.950 . S
C285 C280 1.363 . S
C285 C284 1.415 . S
H286 C283 0.999 . S
H287 C268 0.913 . S
H288 C306 0.951 . S
H289 C308 0.951 . S
H290 C310 0.950 . S
H291 C311 0.950 . S
H292 C313 0.950 . S
H293 C316 0.950 . S
H294 C317 0.950 . S
H295 C319 0.950 . S
H296 C320 0.950 . S
H297 C321 0.951 . S
H298 C323 0.951 . S
H299 C325 0.950 . S
H300 C326 0.950 . S
H301 C328 0.950 . S
H302 C331 0.950 . S
H303 C332 0.950 . S
H304 C334 0.950 . S
H305 C335 0.950 . S
C306 H288 0.951 . S
C306 C307 1.366 . S
C306 C308 1.388 . S
C307 C306 1.366 . S
C307 C311 1.385 . S
C308 H289 0.951 . S
C308 C306 1.388 . S
C308 C309 1.366 . S
C309 C308 1.366 . S
C309 C310 1.414 . S
C309 C312 1.499 . S
C310 H290 0.950 . S
C310 C309 1.414 . S
C310 C311 1.374 . S
C311 H291 0.950 . S
C311 C307 1.385 . S
C311 C310 1.374 . S
C312 C309 1.499 . S
C312 C313 1.373 . S
C312 C314 1.389 . S
C313 H292 0.950 . S
C313 C312 1.373 . S
C313 C329 1.377 . S
C314 C312 1.389 . S
C314 C315 1.524 . S
C314 C328 1.377 . S
C315 C314 1.524 . S
C315 C316 1.397 . S
C315 C320 1.363 . S
C316 H293 0.950 . S
C316 C315 1.397 . S
C316 C317 1.334 . S
C317 H294 0.950 . S
C317 C316 1.334 . S
C317 C318 1.287 . S
C318 C317 1.287 . S
C318 C319 1.524 . S
C318 H337 0.913 . S
C319 H295 0.950 . S
C319 C318 1.524 . S
C319 C320 1.415 . S
C320 H296 0.950 . S
C320 C315 1.363 . S
C320 C319 1.415 . S
C321 H297 0.951 . S
C321 C322 1.366 . S
C321 C323 1.388 . S
C322 C321 1.366 . S
C322 C326 1.385 . S
C323 H298 0.951 . S
C323 C321 1.388 . S
C323 C324 1.366 . S
C324 C323 1.366 . S
C324 C325 1.414 . S
C324 C327 1.499 . S
C325 H299 0.950 . S
C325 C324 1.414 . S
C325 C326 1.374 . S
C326 H300 0.950 . S
C326 C322 1.385 . S
C326 C325 1.374 . S
C327 C324 1.499 . S
C327 C328 1.373 . S
C327 C329 1.389 . S
C328 H301 0.950 . S
C328 C314 1.377 . S
C328 C327 1.373 . S
C329 C313 1.377 . S
C329 C327 1.389 . S
C329 C330 1.524 . S
C330 C329 1.524 . S
C330 C331 1.397 . S
C330 C335 1.363 . S
C331 H302 0.950 . S
C331 C330 1.397 . S
C331 C332 1.334 . S
C332 H303 0.950 . S
C332 C331 1.334 . S
C332 C333 1.287 . S
C333 C332 1.287 . S
C333 C334 1.524 . S
C333 H336 0.999 . S
C334 H304 0.950 . S
C334 C333 1.524 . S
C334 C335 1.415 . S
C335 H305 0.950 . S
C335 C330 1.363 . S
C335 C334 1.415 . S
H336 C333 0.999 . S
H337 C318 0.913 . S
H338 C356 0.951 . S
H339 C358 0.951 . S
H340 C360 0.950 . S
H341 C361 0.950 . S
H342 C363 0.950 . S
H343 C366 0.950 . S
H344 C367 0.950 . S
H345 C369 0.950 . S
H346 C370 0.950 . S
H347 C371 0.951 . S
H348 C373 0.951 . S
H349 C375 0.950 1_655 S
H350 C376 0.950 1_655 S
H351 C378 0.950 . S
H352 C381 0.993 . S
H353 C382 0.950 1_655 S
H354 C384 0.950 . S
H355 C385 0.950 . S
C356 H338 0.951 . S
C356 C357 1.366 . S
C356 C358 1.388 . S
C357 C356 1.366 . S
C357 C361 1.385 . S
C358 H339 0.951 . S
C358 C356 1.388 . S
C358 C359 1.366 . S
C359 C358 1.366 . S
C359 C360 1.414 . S
C359 C362 1.499 . S
C360 H340 0.950 . S
C360 C359 1.414 . S
C360 C361 1.374 . S
C361 H341 0.950 . S
C361 C357 1.385 . S
C361 C360 1.374 . S
C362 C359 1.499 . S
C362 C363 1.373 . S
C362 C364 1.389 . S
C363 H342 0.950 . S
C363 C362 1.373 . S
C363 C379 1.377 . S
C364 C362 1.389 . S
C364 C365 1.524 . S
C364 C378 1.377 . S
C365 C364 1.524 . S
C365 C366 1.397 . S
C365 C370 1.363 . S
C366 H343 0.950 . S
C366 C365 1.397 . S
C366 C367 1.334 . S
C367 H344 0.950 . S
C367 C366 1.334 . S
C367 C368 1.287 . S
C368 C367 1.287 . S
C368 C369 1.524 . S
C368 H387 0.913 . S
C369 H345 0.950 . S
C369 C368 1.524 . S
C369 C370 1.415 . S
C370 H346 0.950 . S
C370 C365 1.363 . S
C370 C369 1.415 . S
C371 H347 0.951 . S
C371 C372 1.366 . S
C371 C373 1.388 . S
C372 C371 1.366 . S
C372 C376 1.385 . S
C373 H348 0.951 . S
C373 C371 1.388 . S
C373 C374 1.366 . S
C374 C373 1.366 . S
C374 C375 1.414 . S
C374 C377 1.499 . S
C375 H349 0.950 1_455 S
C375 C374 1.414 . S
C375 C376 1.374 . S
C376 H350 0.950 1_455 S
C376 C372 1.385 . S
C376 C375 1.374 . S
C377 C374 1.499 . S
C377 C378 1.373 . S
C377 C379 1.389 . S
C378 H351 0.950 . S
C378 C364 1.377 . S
C378 C377 1.373 . S
C379 C363 1.377 . S
C379 C377 1.389 . S
C379 C380 1.524 . S
C380 C379 1.524 . S
C380 C381 1.397 . S
C380 C385 1.363 . S
C381 H352 0.993 . S
C381 C380 1.397 . S
C381 C382 1.334 . S
C382 H353 0.950 1_455 S
C382 C381 1.334 . S
C382 C383 1.287 . S
C383 C382 1.287 . S
C383 C384 1.524 . S
C383 H386 0.999 . S
C384 H354 0.950 . S
C384 C383 1.524 . S
C384 C385 1.415 . S
C385 H355 0.950 . S
C385 C380 1.363 . S
C385 C384 1.415 . S
H386 C383 0.999 . S
H387 C368 0.913 . S
H388 C406 0.924 1_545 S
H389 C408 0.951 1_545 S
H390 C410 0.951 . S
H391 C411 0.950 . S
H392 C413 0.950 1_554 S
H393 C416 0.950 . S
H394 C417 0.950 . S
H395 C419 0.950 . S
H396 C420 0.950 . S
H397 C421 0.951 . S
H398 C423 0.951 . S
H399 C425 0.950 . S
H400 C426 0.950 . S
H401 C428 0.950 1_545 S
H402 C431 0.950 1_546 S
H403 C432 0.950 . S
H404 C434 0.950 . S
H405 C435 0.950 . S
C406 H388 0.924 1_565 S
C406 C407 1.366 . S
C406 C408 1.388 1_554 S
C407 C406 1.366 . S
C407 C411 1.385 . S
C408 H389 0.951 1_565 S
C408 C406 1.388 1_556 S
C408 C409 1.366 . S
C409 C408 1.366 . S
C409 C410 1.414 1_556 S
C409 C412 1.499 . S
C410 H390 0.951 . S
C410 C409 1.414 1_554 S
C410 C411 1.374 . S
C411 H391 0.950 . S
C411 C407 1.385 . S
C411 C410 1.374 . S
C412 C409 1.499 . S
C412 C413 1.373 . S
C412 C414 1.389 . S
C413 H392 0.950 1_556 S
C413 C412 1.373 . S
C413 C429 1.377 . S
C414 C412 1.389 . S
C414 C415 1.524 . S
C414 C428 1.377 . S
C415 C414 1.524 . S
C415 C416 1.397 . S
C415 C420 1.363 1_565 S
C416 H393 0.950 . S
C416 C415 1.397 . S
C416 C417 1.334 . S
C417 H394 0.950 . S
C417 C416 1.334 . S
C417 C418 1.287 1_565 S
C418 C417 1.287 1_545 S
C418 C419 1.524 . S
C418 H437 0.913 . S
C419 H395 0.950 . S
C419 C418 1.524 . S
C419 C420 1.415 . S
C420 H396 0.950 . S
C420 C415 1.363 1_545 S
C420 C419 1.415 . S
C421 H397 0.951 . S
C421 C422 1.330 1_565 S
C421 C423 1.388 . S
C422 C421 1.330 1_545 S
C422 C426 1.414 . S
C423 H398 0.951 . S
C423 C421 1.388 . S
C423 C424 1.366 . S
C424 C423 1.366 . S
C424 C425 1.414 1_565 S
C424 C427 1.499 . S
C425 H399 0.950 . S
C425 C424 1.414 1_545 S
C425 C426 1.374 . S
C426 H400 0.950 . S
C426 C422 1.414 . S
C426 C425 1.374 . S
C427 C424 1.499 . S
C427 C428 1.373 . S
C427 C429 1.389 . S
C428 H401 0.950 1_565 S
C428 C414 1.377 . S
C428 C427 1.373 . S
C429 C413 1.377 . S
C429 C427 1.389 . S
C429 C430 1.524 . S
C430 C429 1.524 . S
C430 C431 1.397 1_556 S
C430 C435 1.363 1_556 S
C431 H402 0.950 1_564 S
C431 C430 1.397 1_554 S
C431 C432 1.334 . S
C432 H403 0.950 . S
C432 C431 1.334 . S
C432 C433 1.287 . S
C433 C432 1.287 . S
C433 C434 1.524 . S
C433 H436 0.999 . S
C434 H404 0.950 . S
C434 C433 1.524 . S
C434 C435 1.415 . S
C435 H405 0.950 . S
C435 C430 1.363 1_554 S
C435 C434 1.415 . S
H436 C433 0.999 . S
H437 C418 0.913 . S
H438 C456 0.951 . S
H439 C458 0.951 1_556 S
H440 C460 0.950 . S
H441 C461 0.950 . S
H442 C463 0.950 . S
H443 C466 0.950 . S
H444 C467 0.950 . S
H445 C469 0.950 . S
H446 C470 0.950 . S
H447 C471 0.951 . S
H448 C473 0.951 . S
H449 C475 0.950 . S
H450 C476 0.950 . S
H451 C478 0.950 . S
H452 C481 0.950 . S
H453 C482 0.950 . S
H454 C484 0.950 . S
H455 C485 0.950 . S
C456 H438 0.951 . S
C456 C457 1.366 . S
C456 C458 1.387 . S
C457 C456 1.366 . S
C457 C461 1.385 . S
C458 H439 0.951 1_554 S
C458 C456 1.387 . S
C458 C459 1.366 1_554 S
C459 C458 1.366 1_556 S
C459 C460 1.414 . S
C459 C462 1.499 . S
C460 H440 0.950 . S
C460 C459 1.414 . S
C460 C461 1.374 1_556 S
C461 H441 0.950 . S
C461 C457 1.385 . S
C461 C460 1.374 1_554 S
C462 C459 1.499 . S
C462 C463 1.373 . S
C462 C464 1.389 . S
C463 H442 0.950 . S
C463 C462 1.373 . S
C463 C479 1.377 . S
C464 C462 1.389 . S
C464 C465 1.524 1_556 S
C464 C478 1.377 . S
C465 C464 1.524 1_554 S
C465 C466 1.397 . S
C465 C470 1.363 . S
C466 H443 0.950 . S
C466 C465 1.397 . S
C466 C467 1.334 . S
C467 H444 0.950 . S
C467 C466 1.334 . S
C467 C468 1.287 . S
C468 C467 1.287 . S
C468 C469 1.524 . S
C468 H487 0.913 . S
C469 H445 0.950 . S
C469 C468 1.524 . S
C469 C470 1.415 . S
C470 H446 0.950 . S
C470 C465 1.363 . S
C470 C469 1.415 . S
C471 H447 0.951 . S
C471 C472 1.366 . S
C471 C473 1.388 . S
C472 C471 1.366 . S
C472 C476 1.385 . S
C473 H448 0.951 . S
C473 C471 1.388 . S
C473 C474 1.366 . S
C474 C473 1.366 . S
C474 C475 1.414 . S
C474 C477 1.499 . S
C475 H449 0.950 . S
C475 C474 1.414 . S
C475 C476 1.374 . S
C476 H450 0.950 . S
C476 C472 1.385 . S
C476 C475 1.374 . S
C477 C474 1.499 . S
C477 C478 1.373 . S
C477 C479 1.389 . S
C478 H451 0.950 . S
C478 C464 1.377 . S
C478 C477 1.373 . S
C479 C463 1.377 . S
C479 C477 1.389 . S
C479 C480 1.524 . S
C480 C479 1.524 . S
C480 C481 1.397 . S
C480 C485 1.363 . S
C481 H452 0.950 . S
C481 C480 1.397 . S
C481 C482 1.334 . S
C482 H453 0.950 . S
C482 C481 1.334 . S
C482 C483 1.287 . S
C483 C482 1.287 . S
C483 C484 1.524 . S
C483 H486 0.999 . S
C484 H454 0.950 . S
C484 C483 1.524 . S
C484 C485 1.415 . S
C485 H455 0.950 . S
C485 C480 1.363 . S
C485 C484 1.415 . S
H486 C483 0.999 . S
H487 C468 0.913 . S
H488 C506 0.951 . S
H489 C508 0.951 . S
H490 C510 0.950 . S
H491 C511 0.950 . S
H492 C513 0.950 1_554 S
H493 C516 0.950 . S
H494 C517 0.950 . S
H495 C519 0.950 . S
H496 C520 0.950 . S
H497 C521 0.951 . S
H498 C523 0.951 . S
H499 C525 0.950 . S
H500 C526 0.950 . S
H501 C528 0.950 . S
H502 C531 0.950 . S
H503 C532 0.950 . S
H504 C534 0.950 . S
H505 C535 0.950 . S
C506 H488 0.951 . S
C506 C507 1.366 1_556 S
C506 C508 1.388 . S
C507 C506 1.366 1_554 S
C507 C511 1.385 . S
C508 H489 0.951 . S
C508 C506 1.388 . S
C508 C509 1.366 . S
C509 C508 1.366 . S
C509 C510 1.414 1_556 S
C509 C512 1.499 . S
C510 H490 0.950 . S
C510 C509 1.414 1_554 S
C510 C511 1.374 . S
C511 H491 0.950 . S
C511 C507 1.385 . S
C511 C510 1.374 . S
C512 C509 1.499 . S
C512 C513 1.373 . S
C512 C514 1.389 . S
C513 H492 0.950 1_556 S
C513 C512 1.373 . S
C513 C529 1.377 . S
C514 C512 1.389 . S
C514 C515 1.524 . S
C514 C528 1.377 . S
C515 C514 1.524 . S
C515 C516 1.397 . S
C515 C520 1.363 . S
C516 H493 0.950 . S
C516 C515 1.397 . S
C516 C517 1.334 . S
C517 H494 0.950 . S
C517 C516 1.334 . S
C517 C518 1.287 . S
C518 C517 1.287 . S
C518 C519 1.524 . S
C518 H537 0.913 . S
C519 H495 0.950 . S
C519 C518 1.524 . S
C519 C520 1.415 . S
C520 H496 0.950 . S
C520 C515 1.363 . S
C520 C519 1.415 . S
C521 H497 0.951 . S
C521 C522 1.366 . S
C521 C523 1.388 . S
C522 C521 1.366 . S
C522 C526 1.385 . S
C523 H498 0.951 . S
C523 C521 1.388 . S
C523 C524 1.366 . S
C524 C523 1.366 . S
C524 C525 1.414 . S
C524 C527 1.499 . S
C525 H499 0.950 . S
C525 C524 1.414 . S
C525 C526 1.374 . S
C526 H500 0.950 . S
C526 C522 1.385 . S
C526 C525 1.374 . S
C527 C524 1.499 . S
C527 C528 1.373 . S
C527 C529 1.389 . S
C528 H501 0.950 . S
C528 C514 1.377 . S
C528 C527 1.373 . S
C529 C513 1.377 . S
C529 C527 1.389 . S
C529 C530 1.524 . S
C530 C529 1.524 . S
C530 C531 1.397 . S
C530 C535 1.363 1_556 S
C531 H502 0.950 . S
C531 C530 1.397 . S
C531 C532 1.334 . S
C532 H503 0.950 . S
C532 C531 1.334 . S
C532 C533 1.287 1_556 S
C533 C532 1.287 1_554 S
C533 C534 1.524 . S
C533 H536 0.999 . S
C534 H504 0.950 . S
C534 C533 1.524 . S
C534 C535 1.415 . S
C535 H505 0.950 . S
C535 C530 1.363 1_554 S
C535 C534 1.415 . S
H536 C533 0.999 . S
H537 C518 0.913 . S
H538 C556 0.951 . S
H539 C558 0.951 1_455 S
H540 C560 0.950 . S
H541 C561 0.950 . S
H542 C563 0.950 1_554 S
H543 C566 0.950 . S
H544 C567 0.950 . S
H545 C569 0.950 1_455 S
H546 C570 0.935 1_455 S
H547 C571 0.951 . S
H548 C573 0.951 . S
H549 C575 0.950 . S
H550 C576 0.950 . S
H551 C578 0.950 . S
H552 C581 0.950 . S
H553 C582 0.950 . S
H554 C584 0.950 . S
H555 C585 0.950 . S
C556 H538 0.951 . S
C556 C557 1.366 1_556 S
C556 C558 1.388 . S
C557 C556 1.366 1_554 S
C557 C561 1.385 . S
C558 H539 0.951 1_655 S
C558 C556 1.388 . S
C558 C559 1.366 . S
C559 C558 1.366 . S
C559 C560 1.414 1_556 S
C559 C562 1.499 . S
C560 H540 0.950 . S
C560 C559 1.414 1_554 S
C560 C561 1.374 . S
C561 H541 0.950 . S
C561 C557 1.385 . S
C561 C560 1.374 . S
C562 C559 1.499 . S
C562 C563 1.373 . S
C562 C564 1.389 . S
C563 H542 0.950 1_556 S
C563 C562 1.373 . S
C563 C579 1.377 . S
C564 C562 1.389 . S
C564 C565 1.524 . S
C564 C578 1.377 . S
C565 C564 1.524 . S
C565 C566 1.397 . S
C565 C570 1.376 . S
C566 H543 0.950 . S
C566 C565 1.397 . S
C566 C567 1.334 . S
C567 H544 0.950 . S
C567 C566 1.334 . S
C567 C568 1.287 . S
C568 C567 1.287 . S
C568 C569 1.524 . S
C568 H587 0.913 . S
C569 H545 0.950 1_655 S
C569 C568 1.524 . S
C569 C570 1.417 . S
C570 H546 0.935 1_655 S
C570 C565 1.376 . S
C570 C569 1.417 . S
C571 H547 0.951 . S
C571 C572 1.366 1_655 S
C571 C573 1.388 . S
C572 C571 1.366 1_455 S
C572 C576 1.385 . S
C573 H548 0.951 . S
C573 C571 1.388 . S
C573 C574 1.366 . S
C574 C573 1.366 . S
C574 C575 1.414 1_655 S
C574 C577 1.499 . S
C575 H549 0.950 . S
C575 C574 1.414 1_455 S
C575 C576 1.374 . S
C576 H550 0.950 . S
C576 C572 1.385 . S
C576 C575 1.374 . S
C577 C574 1.499 . S
C577 C578 1.373 . S
C577 C579 1.389 . S
C578 H551 0.950 . S
C578 C564 1.377 . S
C578 C577 1.373 . S
C579 C563 1.377 . S
C579 C577 1.389 . S
C579 C580 1.525 . S
C580 C579 1.525 . S
C580 C581 1.397 1_655 S
C580 C585 1.362 1_556 S
C581 H552 0.950 . S
C581 C580 1.397 1_455 S
C581 C582 1.334 1_556 S
C582 H553 0.950 . S
C582 C581 1.334 1_554 S
C582 C583 1.287 . S
C583 C582 1.287 . S
C583 C584 1.524 1_455 S
C583 H586 0.999 . S
C584 H554 0.950 . S
C584 C583 1.524 1_655 S
C584 C585 1.415 . S
C585 H555 0.950 . S
C585 C580 1.362 1_554 S
C585 C584 1.415 . S
H586 C583 0.999 . S
H587 C568 0.913 . S
H588 C606 0.951 . S
H589 C608 0.951 . S
H590 C610 0.950 . S
H591 C611 0.950 . S
H592 C613 0.950 . S
H593 C616 0.950 . S
H594 C617 0.950 . S
H595 C619 0.950 . S
H596 C620 0.950 . S
H597 C621 0.951 . S
H598 C623 0.951 . S
H599 C625 0.950 1_655 S
H600 C626 0.950 . S
H601 C628 0.950 . S
H602 C631 0.950 . S
H603 C632 0.950 . S
H604 C634 0.950 . S
H605 C635 0.950 . S
C606 H588 0.951 . S
C606 C607 1.366 . S
C606 C608 1.388 . S
C607 C606 1.366 . S
C607 C611 1.385 . S
C608 H589 0.951 . S
C608 C606 1.388 . S
C608 C609 1.366 . S
C609 C608 1.366 . S
C609 C610 1.414 . S
C609 C612 1.499 . S
C610 H590 0.950 . S
C610 C609 1.414 . S
C610 C611 1.374 . S
C611 H591 0.950 . S
C611 C607 1.385 . S
C611 C610 1.374 . S
C612 C609 1.499 . S
C612 C613 1.373 . S
C612 C614 1.389 . S
C613 H592 0.950 . S
C613 C612 1.373 . S
C613 C629 1.377 . S
C614 C612 1.389 . S
C614 C615 1.524 . S
C614 C628 1.377 . S
C615 C614 1.524 . S
C615 C616 1.397 . S
C615 C620 1.363 . S
C616 H593 0.950 . S
C616 C615 1.397 . S
C616 C617 1.334 . S
C617 H594 0.950 . S
C617 C616 1.334 . S
C617 C618 1.287 . S
C618 C617 1.287 . S
C618 C619 1.524 . S
C618 H637 0.913 . S
C619 H595 0.950 . S
C619 C618 1.524 . S
C619 C620 1.415 . S
C620 H596 0.950 . S
C620 C615 1.363 . S
C620 C619 1.415 . S
C621 H597 0.951 . S
C621 C622 1.366 . S
C621 C623 1.388 . S
C622 C621 1.366 . S
C622 C626 1.385 1_455 S
C623 H598 0.951 . S
C623 C621 1.388 . S
C623 C624 1.366 . S
C624 C623 1.366 . S
C624 C625 1.414 . S
C624 C627 1.499 . S
C625 H599 0.950 1_455 S
C625 C624 1.414 . S
C625 C626 1.374 1_455 S
C626 H600 0.950 . S
C626 C622 1.385 1_655 S
C626 C625 1.374 1_655 S
C627 C624 1.499 . S
C627 C628 1.373 . S
C627 C629 1.389 . S
C628 H601 0.950 . S
C628 C614 1.377 . S
C628 C627 1.373 . S
C629 C613 1.377 . S
C629 C627 1.389 . S
C629 C630 1.524 . S
C630 C629 1.524 . S
C630 C631 1.397 1_455 S
C630 C635 1.363 . S
C631 H602 0.950 . S
C631 C630 1.397 1_655 S
C631 C632 1.334 . S
C632 H603 0.950 . S
C632 C631 1.334 . S
C632 C633 1.287 . S
C633 C632 1.287 . S
C633 C634 1.524 1_655 S
C633 H636 0.999 . S
C634 H604 0.950 . S
C634 C633 1.524 1_455 S
C634 C635 1.415 . S
C635 H605 0.950 . S
C635 C630 1.363 . S
C635 C634 1.415 . S
H636 C633 0.999 . S
H637 C618 0.913 . S
H638 C656 0.951 . S
H639 C658 0.951 . S
H640 C660 0.950 . S
H641 C661 0.950 . S
H642 C663 0.950 . S
H643 C666 0.950 . S
H644 C667 0.950 . S
H645 C669 0.950 . S
H646 C670 0.950 . S
H647 C671 0.951 . S
H648 C673 0.951 . S
H649 C675 0.950 . S
H650 C676 0.950 . S
H651 C678 0.950 1_565 S
H652 C681 0.950 . S
H653 C682 0.950 . S
H654 C684 0.950 . S
H655 C685 0.950 . S
C656 H638 0.951 . S
C656 C657 1.366 . S
C656 C658 1.388 . S
C657 C656 1.366 . S
C657 C661 1.385 . S
C658 H639 0.951 . S
C658 C656 1.388 . S
C658 C659 1.366 . S
C659 C658 1.366 . S
C659 C660 1.414 . S
C659 C662 1.499 . S
C660 H640 0.950 . S
C660 C659 1.414 . S
C660 C661 1.374 . S
C661 H641 0.950 . S
C661 C657 1.385 . S
C661 C660 1.374 . S
C662 C659 1.499 . S
C662 C663 1.373 . S
C662 C664 1.389 . S
C663 H642 0.950 . S
C663 C662 1.373 . S
C663 C679 1.377 . S
C664 C662 1.389 . S
C664 C665 1.524 1_545 S
C664 C678 1.377 . S
C665 C664 1.524 1_565 S
C665 C666 1.397 1_565 S
C665 C670 1.363 . S
C666 H643 0.950 . S
C666 C665 1.397 1_545 S
C666 C667 1.334 1_545 S
C667 H644 0.950 . S
C667 C666 1.334 1_565 S
C667 C668 1.287 . S
C668 C667 1.287 . S
C668 C669 1.524 . S
C668 H687 0.913 . S
C669 H645 0.950 . S
C669 C668 1.524 . S
C669 C670 1.415 . S
C670 H646 0.950 . S
C670 C665 1.363 . S
C670 C669 1.415 . S
C671 H647 0.951 . S
C671 C672 1.366 . S
C671 C673 1.388 . S
C672 C671 1.366 . S
C672 C676 1.385 1_545 S
C673 H648 0.951 . S
C673 C671 1.388 . S
C673 C674 1.366 . S
C674 C673 1.366 . S
C674 C675 1.414 1_545 S
C674 C677 1.499 . S
C675 H649 0.950 . S
C675 C674 1.414 1_565 S
C675 C676 1.374 . S
C676 H650 0.950 . S
C676 C672 1.385 1_565 S
C676 C675 1.374 . S
C677 C674 1.499 . S
C677 C678 1.373 . S
C677 C679 1.389 . S
C678 H651 0.950 1_545 S
C678 C664 1.377 . S
C678 C677 1.373 . S
C679 C663 1.377 . S
C679 C677 1.389 . S
C679 C680 1.524 . S
C680 C679 1.524 . S
C680 C681 1.397 . S
C680 C685 1.363 . S
C681 H652 0.950 . S
C681 C680 1.397 . S
C681 C682 1.334 . S
C682 H653 0.950 . S
C682 C681 1.334 . S
C682 C683 1.287 . S
C683 C682 1.287 . S
C683 C684 1.524 . S
C683 H686 0.999 . S
C684 H654 0.950 . S
C684 C683 1.524 . S
C684 C685 1.415 . S
C685 H655 0.950 . S
C685 C680 1.363 . S
C685 C684 1.415 . S
H686 C683 0.999 . S
H687 C668 0.913 . S
H688 C706 0.951 . S
H689 C708 0.951 . S
H690 C710 0.950 . S
H691 C711 0.950 . S
H692 C713 0.950 . S
H693 C716 0.950 . S
H694 C717 0.950 . S
H695 C719 0.950 . S
H696 C720 0.950 . S
H697 C721 0.951 . S
H698 C723 0.951 . S
H699 C725 0.950 . S
H700 C726 0.950 . S
H701 C728 0.950 . S
H702 C731 0.950 . S
H703 C732 0.950 . S
H704 C734 0.950 . S
H705 C735 0.950 . S
C706 H688 0.951 . S
C706 C707 1.366 . S
C706 C708 1.388 . S
C707 C706 1.366 . S
C707 C711 1.385 . S
C708 H689 0.951 . S
C708 C706 1.388 . S
C708 C709 1.366 . S
C709 C708 1.366 . S
C709 C710 1.414 . S
C709 C712 1.499 . S
C710 H690 0.950 . S
C710 C709 1.414 . S
C710 C711 1.374 . S
C711 H691 0.950 . S
C711 C707 1.385 . S
C711 C710 1.374 . S
C712 C709 1.499 . S
C712 C713 1.373 . S
C712 C714 1.389 . S
C713 H692 0.950 . S
C713 C712 1.373 . S
C713 C729 1.377 . S
C714 C712 1.389 . S
C714 C715 1.524 . S
C714 C728 1.377 . S
C715 C714 1.524 . S
C715 C716 1.397 . S
C715 C720 1.363 . S
C716 H693 0.950 . S
C716 C715 1.397 . S
C716 C717 1.334 . S
C717 H694 0.950 . S
C717 C716 1.334 . S
C717 C718 1.287 . S
C718 C717 1.287 . S
C718 C719 1.524 . S
C718 H737 0.913 . S
C719 H695 0.950 . S
C719 C718 1.524 . S
C719 C720 1.415 . S
C720 H696 0.950 . S
C720 C715 1.363 . S
C720 C719 1.415 . S
C721 H697 0.951 . S
C721 C722 1.366 . S
C721 C723 1.388 . S
C722 C721 1.366 . S
C722 C726 1.385 . S
C723 H698 0.951 . S
C723 C721 1.388 . S
C723 C724 1.366 . S
C724 C723 1.366 . S
C724 C725 1.414 . S
C724 C727 1.499 . S
C725 H699 0.950 . S
C725 C724 1.414 . S
C725 C726 1.374 . S
C726 H700 0.950 . S
C726 C722 1.385 . S
C726 C725 1.374 . S
C727 C724 1.499 . S
C727 C728 1.373 . S
C727 C729 1.389 . S
C728 H701 0.950 . S
C728 C714 1.377 . S
C728 C727 1.373 . S
C729 C713 1.377 . S
C729 C727 1.389 . S
C729 C730 1.524 . S
C730 C729 1.524 . S
C730 C731 1.397 . S
C730 C735 1.363 . S
C731 H702 0.950 . S
C731 C730 1.397 . S
C731 C732 1.334 . S
C732 H703 0.950 . S
C732 C731 1.334 . S
C732 C733 1.287 . S
C733 C732 1.287 . S
C733 C734 1.524 . S
C733 H736 0.999 . S
C734 H704 0.950 . S
C734 C733 1.524 . S
C734 C735 1.415 . S
C735 H705 0.950 . S
C735 C730 1.363 . S
C735 C734 1.415 . S
H736 C733 0.999 . S
H737 C718 0.913 . S
H738 C756 0.951 . S
H739 C758 0.951 . S
H740 C760 0.950 . S
H741 C761 0.950 . S
H742 C763 0.950 . S
H743 C766 0.950 . S
H744 C767 0.950 . S
H745 C769 0.950 . S
H746 C770 0.950 . S
H747 C771 0.951 . S
H748 C773 0.951 . S
H749 C775 0.950 . S
H750 C776 0.950 . S
H751 C778 0.950 . S
H752 C781 0.950 . S
H753 C782 0.950 . S
H754 C784 0.950 . S
H755 C785 0.950 . S
C756 H738 0.951 . S
C756 C757 1.366 . S
C756 C758 1.388 . S
C757 C756 1.366 . S
C757 C761 1.385 . S
C758 H739 0.951 . S
C758 C756 1.388 . S
C758 C759 1.366 . S
C759 C758 1.366 . S
C759 C760 1.414 . S
C759 C762 1.499 . S
C760 H740 0.950 . S
C760 C759 1.414 . S
C760 C761 1.374 . S
C761 H741 0.950 . S
C761 C757 1.385 . S
C761 C760 1.374 . S
C762 C759 1.499 . S
C762 C763 1.373 . S
C762 C764 1.389 . S
C763 H742 0.950 . S
C763 C762 1.373 . S
C763 C779 1.377 . S
C764 C762 1.389 . S
C764 C765 1.524 . S
C764 C778 1.377 . S
C765 C764 1.524 . S
C765 C766 1.397 . S
C765 C770 1.363 . S
C766 H743 0.950 . S
C766 C765 1.397 . S
C766 C767 1.334 . S
C767 H744 0.950 . S
C767 C766 1.334 . S
C767 C768 1.287 . S
C768 C767 1.287 . S
C768 C769 1.524 . S
C768 H787 0.913 . S
C769 H745 0.950 . S
C769 C768 1.524 . S
C769 C770 1.415 . S
C770 H746 0.950 . S
C770 C765 1.363 . S
C770 C769 1.415 . S
C771 H747 0.951 . S
C771 C772 1.366 . S
C771 C773 1.388 . S
C772 C771 1.366 . S
C772 C776 1.385 . S
C773 H748 0.951 . S
C773 C771 1.388 . S
C773 C774 1.366 . S
C774 C773 1.366 . S
C774 C775 1.414 . S
C774 C777 1.499 . S
C775 H749 0.950 . S
C775 C774 1.414 . S
C775 C776 1.374 . S
C776 H750 0.950 . S
C776 C772 1.385 . S
C776 C775 1.374 . S
C777 C774 1.499 . S
C777 C778 1.373 . S
C777 C779 1.389 . S
C778 H751 0.950 . S
C778 C764 1.377 . S
C778 C777 1.373 . S
C779 C763 1.377 . S
C779 C777 1.389 . S
C779 C780 1.524 . S
C780 C779 1.524 . S
C780 C781 1.397 . S
C780 C785 1.363 . S
C781 H752 0.950 . S
C781 C780 1.397 . S
C781 C782 1.334 . S
C782 H753 0.950 . S
C782 C781 1.334 . S
C782 C783 1.287 . S
C783 C782 1.287 . S
C783 C784 1.524 . S
C783 H786 0.999 . S
C784 H754 0.950 . S
C784 C783 1.524 . S
C784 C785 1.415 . S
C785 H755 0.950 . S
C785 C780 1.363 . S
C785 C784 1.415 . S
H786 C783 0.999 . S
H787 C768 0.913 . S
H788 C806 0.951 . S
H789 C808 0.949 1_556 S
H790 C810 0.950 1_455 S
H791 C811 0.931 1_455 S
H792 C813 0.950 1_554 S
H793 C816 0.950 . S
H794 C817 0.950 . S
H795 C819 0.950 . S
H796 C820 0.950 . S
H797 C821 0.951 . S
H798 C823 0.951 . S
H799 C825 0.950 . S
H800 C826 0.950 . S
H801 C828 0.950 . S
H802 C831 0.950 . S
H803 C832 0.950 . S
H804 C834 0.950 . S
H805 C835 0.950 . S
C806 H788 0.951 . S
C806 C807 1.366 . S
C806 C808 1.388 . S
C807 C806 1.366 . S
C807 C811 1.385 . S
C808 H789 0.949 1_554 S
C808 C806 1.388 . S
C808 C809 1.366 1_554 S
C809 C808 1.366 1_556 S
C809 C810 1.414 . S
C809 C812 1.499 . S
C810 H790 0.950 1_655 S
C810 C809 1.414 . S
C810 C811 1.374 1_556 S
C811 H791 0.931 1_655 S
C811 C807 1.385 . S
C811 C810 1.374 1_554 S
C812 C809 1.499 . S
C812 C813 1.373 1_655 S
C812 C814 1.389 . S
C813 H792 0.950 1_556 S
C813 C812 1.373 1_455 S
C813 C829 1.377 . S
C814 C812 1.389 . S
C814 C815 1.524 . S
C814 C828 1.377 . S
C815 C814 1.524 . S
C815 C816 1.397 . S
C815 C820 1.363 . S
C816 H793 0.950 . S
C816 C815 1.397 . S
C816 C817 1.334 . S
C817 H794 0.950 . S
C817 C816 1.334 . S
C817 C818 1.287 . S
C818 C817 1.287 . S
C818 C819 1.524 . S
C818 H837 0.913 . S
C819 H795 0.950 . S
C819 C818 1.524 . S
C819 C820 1.415 . S
C820 H796 0.950 . S
C820 C815 1.363 . S
C820 C819 1.415 . S
C821 H797 0.951 . S
C821 C822 1.366 . S
C821 C823 1.388 . S
C822 C821 1.366 . S
C822 C826 1.385 1_455 S
C823 H798 0.951 . S
C823 C821 1.388 . S
C823 C824 1.366 . S
C824 C823 1.366 . S
C824 C825 1.414 1_455 S
C824 C827 1.499 1_455 S
C825 H799 0.950 . S
C825 C824 1.414 1_655 S
C825 C826 1.374 . S
C826 H800 0.950 . S
C826 C822 1.385 1_655 S
C826 C825 1.374 . S
C827 C824 1.499 1_655 S
C827 C828 1.373 . S
C827 C829 1.389 1_655 S
C828 H801 0.950 . S
C828 C814 1.377 . S
C828 C827 1.373 . S
C829 C813 1.377 . S
C829 C827 1.389 1_455 S
C829 C830 1.524 . S
C830 C829 1.524 . S
C830 C831 1.397 1_556 S
C830 C835 1.363 . S
C831 H802 0.950 . S
C831 C830 1.397 1_554 S
C831 C832 1.334 . S
C832 H803 0.950 . S
C832 C831 1.334 . S
C832 C833 1.287 . S
C833 C832 1.287 . S
C833 C834 1.524 . S
C833 H836 0.999 . S
C834 H804 0.950 . S
C834 C833 1.524 . S
C834 C835 1.415 1_554 S
C835 H805 0.950 . S
C835 C830 1.363 . S
C835 C834 1.415 1_556 S
H836 C833 0.999 . S
H837 C818 0.913 . S
H838 C856 0.951 . S
H839 C858 0.951 . S
H840 C860 0.950 . S
H841 C861 0.950 . S
H842 C863 0.950 1_554 S
H843 C866 0.950 . S
H844 C867 0.950 . S
H845 C869 0.948 1_565 S
H846 C870 0.950 . S
H847 C871 0.951 . S
H848 C873 0.951 . S
H849 C875 0.950 . S
H850 C876 0.950 . S
H851 C878 0.950 1_545 S
H852 C881 0.950 . S
H853 C882 0.950 . S
H854 C884 0.950 . S
H855 C885 0.950 . S
C856 H838 0.951 . S
C856 C857 1.366 1_556 S
C856 C858 1.388 . S
C857 C856 1.366 1_554 S
C857 C861 1.385 . S
C858 H839 0.951 . S
C858 C856 1.388 . S
C858 C859 1.366 . S
C859 C858 1.366 . S
C859 C860 1.414 1_556 S
C859 C862 1.499 . S
C860 H840 0.950 . S
C860 C859 1.414 1_554 S
C860 C861 1.374 . S
C861 H841 0.950 . S
C861 C857 1.385 . S
C861 C860 1.374 . S
C862 C859 1.499 . S
C862 C863 1.373 . S
C862 C864 1.389 . S
C863 H842 0.950 1_556 S
C863 C862 1.373 . S
C863 C879 1.377 . S
C864 C862 1.389 . S
C864 C865 1.512 1_565 S
C864 C878 1.377 . S
C865 C864 1.512 1_545 S
C865 C866 1.422 . S
C865 C870 1.354 1_545 S
C866 H843 0.950 . S
C866 C865 1.422 . S
C866 C867 1.334 . S
C867 H844 0.950 . S
C867 C866 1.334 . S
C867 C868 1.287 . S
C868 C867 1.287 . S
C868 C869 1.524 . S
C868 H887 0.913 . S
C869 H845 0.948 1_545 S
C869 C868 1.524 . S
C869 C870 1.415 1_545 S
C870 H846 0.950 . S
C870 C865 1.354 1_565 S
C870 C869 1.415 1_565 S
C871 H847 0.951 . S
C871 C872 1.366 . S
C871 C873 1.388 . S
C872 C871 1.366 . S
C872 C876 1.385 1_545 S
C873 H848 0.951 . S
C873 C871 1.388 . S
C873 C874 1.366 1_545 S
C874 C873 1.366 1_565 S
C874 C875 1.414 . S
C874 C877 1.499 . S
C875 H849 0.950 . S
C875 C874 1.414 . S
C875 C876 1.374 . S
C876 H850 0.950 . S
C876 C872 1.385 1_565 S
C876 C875 1.374 . S
C877 C874 1.499 . S
C877 C878 1.373 . S
C877 C879 1.389 . S
C878 H851 0.950 1_565 S
C878 C864 1.377 . S
C878 C877 1.373 . S
C879 C863 1.377 . S
C879 C877 1.389 . S
C879 C880 1.524 . S
C880 C879 1.524 . S
C880 C881 1.397 . S
C880 C885 1.363 1_556 S
C881 H852 0.950 . S
C881 C880 1.397 . S
C881 C882 1.334 . S
C882 H853 0.950 . S
C882 C881 1.334 . S
C882 C883 1.287 1_556 S
C883 C882 1.287 1_554 S
C883 C884 1.524 . S
C883 H886 0.999 . S
C884 H854 0.950 . S
C884 C883 1.524 . S
C884 C885 1.415 . S
C885 H855 0.950 . S
C885 C880 1.363 1_554 S
C885 C884 1.415 . S
H886 C883 0.999 . S
H887 C868 0.913 . S
H888 C906 0.951 . S
H889 C908 0.951 . S
H890 C910 0.950 . S
H891 C911 0.950 . S
H892 C913 0.950 . S
H893 C916 0.950 . S
H894 C917 0.950 . S
H895 C919 0.950 . S
H896 C920 0.950 . S
H897 C921 0.951 . S
H898 C923 0.951 . S
H899 C925 0.950 . S
H900 C926 0.950 . S
H901 C928 0.950 . S
H902 C931 0.950 . S
H903 C932 0.950 . S
H904 C934 0.950 . S
H905 C935 0.950 . S
C906 H888 0.951 . S
C906 C907 1.366 . S
C906 C908 1.388 . S
C907 C906 1.366 . S
C907 C911 1.385 . S
C908 H889 0.951 . S
C908 C906 1.388 . S
C908 C909 1.366 1_554 S
C909 C908 1.366 1_556 S
C909 C910 1.414 . S
C909 C912 1.499 . S
C910 H890 0.950 . S
C910 C909 1.414 . S
C910 C911 1.374 1_556 S
C911 H891 0.950 . S
C911 C907 1.385 . S
C911 C910 1.374 1_554 S
C912 C909 1.499 . S
C912 C913 1.373 . S
C912 C914 1.389 . S
C913 H892 0.950 . S
C913 C912 1.373 . S
C913 C929 1.377 . S
C914 C912 1.389 . S
C914 C915 1.524 1_556 S
C914 C928 1.377 . S
C915 C914 1.524 1_554 S
C915 C916 1.397 . S
C915 C920 1.363 . S
C916 H893 0.950 . S
C916 C915 1.397 . S
C916 C917 1.334 . S
C917 H894 0.950 . S
C917 C916 1.334 . S
C917 C918 1.287 . S
C918 C917 1.287 . S
C918 C919 1.524 . S
C918 H937 0.913 . S
C919 H895 0.950 . S
C919 C918 1.524 . S
C919 C920 1.415 . S
C920 H896 0.950 . S
C920 C915 1.363 . S
C920 C919 1.415 . S
C921 H897 0.951 . S
C921 C922 1.366 . S
C921 C923 1.388 . S
C922 C921 1.366 . S
C922 C926 1.385 . S
C923 H898 0.951 . S
C923 C921 1.388 . S
C923 C924 1.366 . S
C924 C923 1.366 . S
C924 C925 1.414 . S
C924 C927 1.499 . S
C925 H899 0.950 . S
C925 C924 1.414 . S
C925 C926 1.374 . S
C926 H900 0.950 . S
C926 C922 1.385 . S
C926 C925 1.374 . S
C927 C924 1.499 . S
C927 C928 1.373 . S
C927 C929 1.389 . S
C928 H901 0.950 . S
C928 C914 1.377 . S
C928 C927 1.373 . S
C929 C913 1.377 . S
C929 C927 1.389 . S
C929 C930 1.524 . S
C930 C929 1.524 . S
C930 C931 1.397 . S
C930 C935 1.363 . S
C931 H902 0.950 . S
C931 C930 1.397 . S
C931 C932 1.334 . S
C932 H903 0.950 . S
C932 C931 1.334 . S
C932 C933 1.287 . S
C933 C932 1.287 . S
C933 C934 1.524 . S
C933 H936 0.999 . S
C934 H904 0.950 . S
C934 C933 1.524 . S
C934 C935 1.415 . S
C935 H905 0.950 . S
C935 C930 1.363 . S
C935 C934 1.415 . S
H936 C933 0.999 . S
H937 C918 0.913 . S
H938 C956 0.951 . S
H939 C958 0.951 . S
H940 C960 0.950 . S
H941 C961 0.950 . S
H942 C963 0.950 . S
H943 C966 0.950 . S
H944 C967 0.950 . S
H945 C969 0.950 . S
H946 C970 0.950 . S
H947 C971 0.951 . S
H948 C973 0.951 . S
H949 C975 0.950 . S
H950 C976 0.950 . S
H951 C978 0.950 . S
H952 C981 0.950 . S
H953 C982 0.950 . S
H954 C984 0.950 . S
H955 C985 0.950 . S
C956 H938 0.951 . S
C956 C957 1.366 1_556 S
C956 C958 1.388 . S
C957 C956 1.366 1_554 S
C957 C961 1.385 . S
C958 H939 0.951 . S
C958 C956 1.388 . S
C958 C959 1.366 . S
C959 C958 1.366 . S
C959 C960 1.414 1_556 S
C959 C962 1.499 . S
C960 H940 0.950 . S
C960 C959 1.414 1_554 S
C960 C961 1.374 . S
C961 H941 0.950 . S
C961 C957 1.385 . S
C961 C960 1.374 . S
C962 C959 1.499 . S
C962 C963 1.373 . S
C962 C964 1.389 . S
C963 H942 0.950 . S
C963 C962 1.373 . S
C963 C979 1.377 . S
C964 C962 1.389 . S
C964 C965 1.524 . S
C964 C978 1.377 . S
C965 C964 1.524 . S
C965 C966 1.397 1_556 S
C965 C970 1.363 . S
C966 H943 0.950 . S
C966 C965 1.397 1_554 S
C966 C967 1.334 . S
C967 H944 0.950 . S
C967 C966 1.334 . S
C967 C968 1.287 . S
C968 C967 1.287 . S
C968 C969 1.524 1_554 S
C968 H987 0.913 . S
C969 H945 0.950 . S
C969 C968 1.524 1_556 S
C969 C970 1.415 . S
C970 H946 0.950 . S
C970 C965 1.363 . S
C970 C969 1.415 . S
C971 H947 0.951 . S
C971 C972 1.366 . S
C971 C973 1.388 . S
C972 C971 1.366 . S
C972 C976 1.385 . S
C973 H948 0.951 . S
C973 C971 1.388 . S
C973 C974 1.366 . S
C974 C973 1.366 . S
C974 C975 1.414 . S
C974 C977 1.499 . S
C975 H949 0.950 . S
C975 C974 1.414 . S
C975 C976 1.374 . S
C976 H950 0.950 . S
C976 C972 1.385 . S
C976 C975 1.374 . S
C977 C974 1.499 . S
C977 C978 1.373 . S
C977 C979 1.389 . S
C978 H951 0.950 . S
C978 C964 1.377 . S
C978 C977 1.373 . S
C979 C963 1.377 . S
C979 C977 1.389 . S
C979 C980 1.524 . S
C980 C979 1.524 . S
C980 C981 1.397 . S
C980 C985 1.363 . S
C981 H952 0.950 . S
C981 C980 1.397 . S
C981 C982 1.334 . S
C982 H953 0.950 . S
C982 C981 1.334 . S
C982 C983 1.287 . S
C983 C982 1.287 . S
C983 C984 1.524 . S
C983 H986 0.999 . S
C984 H954 0.950 . S
C984 C983 1.524 . S
C984 C985 1.415 . S
C985 H955 0.950 . S
C985 C980 1.363 . S
C985 C984 1.415 . S
H986 C983 0.999 . S
H987 C968 0.913 . S
H988 C1006 0.951 . S
H989 C1008 0.951 . S
H990 C1010 0.950 . S
H991 C1011 0.950 . S
H992 C1013 0.950 . S
H993 C1016 0.950 1_455 S
H994 C1017 0.950 . S
H995 C1019 0.950 . S
H996 C1020 0.950 1_556 S
H997 C1021 0.951 . S
H998 C1023 0.951 1_554 S
H999 C1025 0.950 . S
H1000 C1026 0.950 . S
H1001 C1028 0.950 1_556 S
H1002 C1031 0.950 . S
H1003 C1032 0.950 . S
H1004 C1034 0.950 . S
H1005 C1035 0.950 . S
C1006 H988 0.951 . S
C1006 C1007 1.366 . S
C1006 C1008 1.388 . S
C1007 C1006 1.366 . S
C1007 C1011 1.385 . S
C1008 H989 0.951 . S
C1008 C1006 1.388 . S
C1008 C1009 1.366 . S
C1009 C1008 1.366 . S
C1009 C1010 1.414 . S
C1009 C1012 1.499 . S
C1010 H990 0.950 . S
C1010 C1009 1.414 . S
C1010 C1011 1.374 . S
C1011 H991 0.950 . S
C1011 C1007 1.385 . S
C1011 C1010 1.374 . S
C1012 C1009 1.499 . S
C1012 C1013 1.373 . S
C1012 C1014 1.389 . S
C1013 H992 0.950 . S
C1013 C1012 1.373 . S
C1013 C1029 1.377 . S
C1014 C1012 1.389 . S
C1014 C1015 1.524 . S
C1014 C1028 1.377 . S
C1015 C1014 1.524 . S
C1015 C1016 1.397 1_455 S
C1015 C1020 1.363 1_455 S
C1016 H993 0.950 1_655 S
C1016 C1015 1.397 1_655 S
C1016 C1017 1.334 . S
C1017 H994 0.950 . S
C1017 C1016 1.334 . S
C1017 C1018 1.287 . S
C1018 C1017 1.287 . S
C1018 C1019 1.524 . S
C1018 H1037 0.913 . S
C1019 H995 0.950 . S
C1019 C1018 1.524 . S
C1019 C1020 1.415 . S
C1020 H996 0.950 1_554 S
C1020 C1015 1.363 1_655 S
C1020 C1019 1.415 . S
C1021 H997 0.951 . S
C1021 C1022 1.366 . S
C1021 C1023 1.388 . S
C1022 C1021 1.366 . S
C1022 C1026 1.385 . S
C1023 H998 0.951 1_556 S
C1023 C1021 1.388 . S
C1023 C1024 1.366 . S
C1024 C1023 1.366 . S
C1024 C1025 1.414 . S
C1024 C1027 1.499 . S
C1025 H999 0.950 . S
C1025 C1024 1.414 . S
C1025 C1026 1.374 . S
C1026 H1000 0.950 . S
C1026 C1022 1.385 . S
C1026 C1025 1.374 . S
C1027 C1024 1.499 . S
C1027 C1028 1.373 1_556 S
C1027 C1029 1.389 1_556 S
C1028 H1001 0.950 1_554 S
C1028 C1014 1.377 . S
C1028 C1027 1.373 1_554 S
C1029 C1013 1.377 . S
C1029 C1027 1.389 1_554 S
C1029 C1030 1.524 . S
C1030 C1029 1.524 . S
C1030 C1031 1.397 1_554 S
C1030 C1035 1.363 . S
C1031 H1002 0.950 . S
C1031 C1030 1.397 1_556 S
C1031 C1032 1.334 . S
C1032 H1003 0.950 . S
C1032 C1031 1.334 . S
C1032 C1033 1.287 . S
C1033 C1032 1.287 . S
C1033 C1034 1.524 1_556 S
C1033 H1036 0.999 . S
C1034 H1004 0.950 . S
C1034 C1033 1.524 1_554 S
C1034 C1035 1.415 . S
C1035 H1005 0.950 . S
C1035 C1030 1.363 . S
C1035 C1034 1.415 . S
H1036 C1033 0.999 . S
H1037 C1018 0.913 . S
H1038 C1056 0.951 . S
H1039 C1058 0.951 . S
H1040 C1060 0.950 . S
H1041 C1061 0.950 . S
H1042 C1063 0.953 . S
H1043 C1066 0.950 . S
H1044 C1067 0.950 . S
H1045 C1069 0.950 . S
H1046 C1070 0.950 . S
H1047 C1071 0.951 . S
H1048 C1073 0.951 . S
H1049 C1075 0.950 1_554 S
H1050 C1076 0.950 . S
H1051 C1078 0.950 . S
H1052 C1081 0.950 . S
H1053 C1082 0.950 . S
H1054 C1084 0.950 . S
H1055 C1085 0.950 . S
C1056 H1038 0.951 . S
C1056 C1057 1.366 . S
C1056 C1058 1.388 . S
C1057 C1056 1.366 . S
C1057 C1061 1.385 . S
C1058 H1039 0.951 . S
C1058 C1056 1.388 . S
C1058 C1059 1.366 . S
C1059 C1058 1.366 . S
C1059 C1060 1.414 . S
C1059 C1062 1.499 . S
C1060 H1040 0.950 . S
C1060 C1059 1.414 . S
C1060 C1061 1.374 . S
C1061 H1041 0.950 . S
C1061 C1057 1.385 . S
C1061 C1060 1.374 . S
C1062 C1059 1.499 . S
C1062 C1063 1.373 . S
C1062 C1064 1.389 . S
C1063 H1042 0.953 . S
C1063 C1062 1.373 . S
C1063 C1079 1.377 1_554 S
C1064 C1062 1.389 . S
C1064 C1065 1.524 . S
C1064 C1078 1.377 . S
C1065 C1064 1.524 . S
C1065 C1066 1.397 . S
C1065 C1070 1.363 . S
C1066 H1043 0.950 . S
C1066 C1065 1.397 . S
C1066 C1067 1.334 . S
C1067 H1044 0.950 . S
C1067 C1066 1.334 . S
C1067 C1068 1.287 . S
C1068 C1067 1.287 . S
C1068 C1069 1.524 . S
C1068 H1087 0.913 . S
C1069 H1045 0.950 . S
C1069 C1068 1.524 . S
C1069 C1070 1.415 . S
C1070 H1046 0.950 . S
C1070 C1065 1.363 . S
C1070 C1069 1.415 . S
C1071 H1047 0.951 . S
C1071 C1072 1.366 . S
C1071 C1073 1.388 . S
C1072 C1071 1.366 . S
C1072 C1076 1.385 . S
C1073 H1048 0.951 . S
C1073 C1071 1.388 . S
C1073 C1074 1.366 . S
C1074 C1073 1.366 . S
C1074 C1075 1.414 . S
C1074 C1077 1.499 . S
C1075 H1049 0.950 1_556 S
C1075 C1074 1.414 . S
C1075 C1076 1.374 . S
C1076 H1050 0.950 . S
C1076 C1072 1.385 . S
C1076 C1075 1.374 . S
C1077 C1074 1.499 . S
C1077 C1078 1.373 1_556 S
C1077 C1079 1.389 . S
C1078 H1051 0.950 . S
C1078 C1064 1.377 . S
C1078 C1077 1.373 1_554 S
C1079 C1063 1.377 1_556 S
C1079 C1077 1.389 . S
C1079 C1080 1.524 . S
C1080 C1079 1.524 . S
C1080 C1081 1.397 1_545 S
C1080 C1085 1.363 . S
C1081 H1052 0.950 . S
C1081 C1080 1.397 1_565 S
C1081 C1082 1.334 . S
C1082 H1053 0.950 . S
C1082 C1081 1.334 . S
C1082 C1083 1.287 . S
C1083 C1082 1.287 . S
C1083 C1084 1.524 1_565 S
C1083 H1086 0.999 . S
C1084 H1054 0.950 . S
C1084 C1083 1.524 1_545 S
C1084 C1085 1.415 . S
C1085 H1055 0.950 . S
C1085 C1080 1.363 . S
C1085 C1084 1.415 . S
H1086 C1083 0.999 . S
H1087 C1068 0.913 . S
H1088 C1106 0.951 . S
H1089 C1108 0.951 . S
H1090 C1110 0.950 . S
H1091 C1111 0.950 . S
H1092 C1113 0.950 . S
H1093 C1116 0.950 . S
H1094 C1117 0.950 . S
H1095 C1119 0.950 . S
H1096 C1120 0.950 . S
H1097 C1121 0.951 . S
H1098 C1123 0.951 . S
H1099 C1125 0.950 . S
H1100 C1126 0.950 . S
H1101 C1128 0.950 . S
H1102 C1131 0.950 . S
H1103 C1132 0.950 . S
H1104 C1134 0.950 1_554 S
H1105 C1135 0.950 . S
C1106 H1088 0.951 . S
C1106 C1107 1.366 . S
C1106 C1108 1.388 . S
C1107 C1106 1.366 . S
C1107 C1111 1.385 . S
C1108 H1089 0.951 . S
C1108 C1106 1.388 . S
C1108 C1109 1.366 . S
C1109 C1108 1.366 . S
C1109 C1110 1.414 . S
C1109 C1112 1.499 . S
C1110 H1090 0.950 . S
C1110 C1109 1.414 . S
C1110 C1111 1.374 . S
C1111 H1091 0.950 . S
C1111 C1107 1.385 . S
C1111 C1110 1.374 . S
C1112 C1109 1.499 . S
C1112 C1113 1.373 . S
C1112 C1114 1.389 . S
C1113 H1092 0.950 . S
C1113 C1112 1.373 . S
C1113 C1129 1.377 . S
C1114 C1112 1.389 . S
C1114 C1115 1.524 . S
C1114 C1128 1.377 . S
C1115 C1114 1.524 . S
C1115 C1116 1.397 . S
C1115 C1120 1.363 . S
C1116 H1093 0.950 . S
C1116 C1115 1.397 . S
C1116 C1117 1.334 . S
C1117 H1094 0.950 . S
C1117 C1116 1.334 . S
C1117 C1118 1.287 . S
C1118 C1117 1.287 . S
C1118 C1119 1.524 . S
C1118 H1137 0.913 . S
C1119 H1095 0.950 . S
C1119 C1118 1.524 . S
C1119 C1120 1.415 . S
C1120 H1096 0.950 . S
C1120 C1115 1.363 . S
C1120 C1119 1.415 . S
C1121 H1097 0.951 . S
C1121 C1122 1.366 . S
C1121 C1123 1.388 . S
C1122 C1121 1.366 . S
C1122 C1126 1.385 . S
C1123 H1098 0.951 . S
C1123 C1121 1.388 . S
C1123 C1124 1.366 . S
C1124 C1123 1.366 . S
C1124 C1125 1.414 . S
C1124 C1127 1.499 . S
C1125 H1099 0.950 . S
C1125 C1124 1.414 . S
C1125 C1126 1.374 . S
C1126 H1100 0.950 . S
C1126 C1122 1.385 . S
C1126 C1125 1.374 . S
C1127 C1124 1.499 . S
C1127 C1128 1.373 1_556 S
C1127 C1129 1.389 1_556 S
C1128 H1101 0.950 . S
C1128 C1114 1.377 . S
C1128 C1127 1.373 1_554 S
C1129 C1113 1.377 . S
C1129 C1127 1.389 1_554 S
C1129 C1130 1.524 1_554 S
C1130 C1129 1.524 1_556 S
C1130 C1131 1.397 . S
C1130 C1135 1.363 1_556 S
C1131 H1102 0.950 . S
C1131 C1130 1.397 . S
C1131 C1132 1.334 . S
C1132 H1103 0.950 . S
C1132 C1131 1.334 . S
C1132 C1133 1.287 . S
C1133 C1132 1.287 . S
C1133 C1134 1.524 . S
C1133 H1136 0.999 . S
C1134 H1104 0.950 1_556 S
C1134 C1133 1.524 . S
C1134 C1135 1.415 1_556 S
C1135 H1105 0.950 . S
C1135 C1130 1.363 1_554 S
C1135 C1134 1.415 1_554 S
H1136 C1133 0.999 . S
H1137 C1118 0.913 . S
H1138 C1156 0.951 . S
H1139 C1158 0.951 . S
H1140 C1160 0.950 . S
H1141 C1161 0.950 . S
H1142 C1163 0.950 . S
H1143 C1166 0.950 . S
H1144 C1167 0.950 . S
H1145 C1169 0.950 . S
H1146 C1170 0.950 . S
H1147 C1171 0.951 . S
H1148 C1173 0.951 . S
H1149 C1175 0.950 1_554 S
H1150 C1176 0.950 . S
H1151 C1178 0.950 . S
H1152 C1181 0.950 . S
H1153 C1182 0.950 . S
H1154 C1184 0.950 . S
H1155 C1185 0.950 . S
C1156 H1138 0.951 . S
C1156 C1157 1.366 . S
C1156 C1158 1.388 . S
C1157 C1156 1.366 . S
C1157 C1161 1.385 . S
C1158 H1139 0.951 . S
C1158 C1156 1.388 . S
C1158 C1159 1.366 . S
C1159 C1158 1.366 . S
C1159 C1160 1.414 . S
C1159 C1162 1.499 . S
C1160 H1140 0.950 . S
C1160 C1159 1.414 . S
C1160 C1161 1.374 . S
C1161 H1141 0.950 . S
C1161 C1157 1.385 . S
C1161 C1160 1.374 . S
C1162 C1159 1.499 . S
C1162 C1163 1.373 . S
C1162 C1164 1.389 . S
C1163 H1142 0.950 . S
C1163 C1162 1.373 . S
C1163 C1179 1.377 . S
C1164 C1162 1.389 . S
C1164 C1165 1.524 . S
C1164 C1178 1.377 . S
C1165 C1164 1.524 . S
C1165 C1166 1.397 . S
C1165 C1170 1.363 . S
C1166 H1143 0.950 . S
C1166 C1165 1.397 . S
C1166 C1167 1.334 . S
C1167 H1144 0.950 . S
C1167 C1166 1.334 . S
C1167 C1168 1.287 . S
C1168 C1167 1.287 . S
C1168 C1169 1.524 . S
C1168 H1187 0.913 . S
C1169 H1145 0.950 . S
C1169 C1168 1.524 . S
C1169 C1170 1.415 . S
C1170 H1146 0.950 . S
C1170 C1165 1.363 . S
C1170 C1169 1.415 . S
C1171 H1147 0.951 . S
C1171 C1172 1.366 . S
C1171 C1173 1.388 . S
C1172 C1171 1.366 . S
C1172 C1176 1.385 . S
C1173 H1148 0.951 . S
C1173 C1171 1.388 . S
C1173 C1174 1.366 . S
C1174 C1173 1.366 . S
C1174 C1175 1.414 . S
C1174 C1177 1.499 . S
C1175 H1149 0.950 1_556 S
C1175 C1174 1.414 . S
C1175 C1176 1.374 . S
C1176 H1150 0.950 . S
C1176 C1172 1.385 . S
C1176 C1175 1.374 . S
C1177 C1174 1.499 . S
C1177 C1178 1.373 1_556 S
C1177 C1179 1.389 1_556 S
C1178 H1151 0.950 . S
C1178 C1164 1.377 . S
C1178 C1177 1.373 1_554 S
C1179 C1163 1.377 . S
C1179 C1177 1.389 1_554 S
C1179 C1180 1.524 1_554 S
C1180 C1179 1.524 1_556 S
C1180 C1181 1.397 1_556 S
C1180 C1185 1.363 . S
C1181 H1152 0.950 . S
C1181 C1180 1.397 1_554 S
C1181 C1182 1.334 1_554 S
C1182 H1153 0.950 . S
C1182 C1181 1.334 1_556 S
C1182 C1183 1.287 . S
C1183 C1182 1.287 . S
C1183 C1184 1.524 . S
C1183 H1186 0.999 . S
C1184 H1154 0.950 . S
C1184 C1183 1.524 . S
C1184 C1185 1.415 . S
C1185 H1155 0.950 . S
C1185 C1180 1.363 . S
C1185 C1184 1.415 . S
H1186 C1183 0.999 . S
H1187 C1168 0.913 . S
H1188 C1206 0.951 . S
H1189 C1208 0.951 . S
H1190 C1210 0.950 . S
H1191 C1211 0.950 . S
H1192 C1213 0.940 1_455 S
H1193 C1216 0.950 . S
H1194 C1217 0.950 . S
H1195 C1219 0.950 . S
H1196 C1220 0.950 . S
H1197 C1221 0.951 . S
H1198 C1223 0.951 . S
H1199 C1225 0.950 . S
H1200 C1226 0.950 . S
H1201 C1228 0.950 . S
H1202 C1231 0.950 . S
H1203 C1232 0.950 . S
H1204 C1234 0.950 . S
H1205 C1235 0.950 . S
C1206 H1188 0.951 . S
C1206 C1207 1.366 . S
C1206 C1208 1.388 . S
C1207 C1206 1.366 . S
C1207 C1211 1.385 . S
C1208 H1189 0.951 . S
C1208 C1206 1.388 . S
C1208 C1209 1.366 . S
C1209 C1208 1.366 . S
C1209 C1210 1.414 . S
C1209 C1212 1.499 . S
C1210 H1190 0.950 . S
C1210 C1209 1.414 . S
C1210 C1211 1.374 . S
C1211 H1191 0.950 . S
C1211 C1207 1.385 . S
C1211 C1210 1.374 . S
C1212 C1209 1.499 . S
C1212 C1213 1.385 . S
C1212 C1214 1.389 . S
C1213 H1192 0.940 1_655 S
C1213 C1212 1.385 . S
C1213 C1229 1.375 1_655 S
C1214 C1212 1.389 . S
C1214 C1215 1.524 . S
C1214 C1228 1.377 . S
C1215 C1214 1.524 . S
C1215 C1216 1.397 . S
C1215 C1220 1.363 . S
C1216 H1193 0.950 . S
C1216 C1215 1.397 . S
C1216 C1217 1.334 . S
C1217 H1194 0.950 . S
C1217 C1216 1.334 . S
C1217 C1218 1.287 . S
C1218 C1217 1.287 . S
C1218 C1219 1.524 . S
C1218 H1237 0.913 . S
C1219 H1195 0.950 . S
C1219 C1218 1.524 . S
C1219 C1220 1.415 . S
C1220 H1196 0.950 . S
C1220 C1215 1.363 . S
C1220 C1219 1.415 . S
C1221 H1197 0.951 . S
C1221 C1222 1.366 1_455 S
C1221 C1223 1.388 . S
C1222 C1221 1.366 1_655 S
C1222 C1226 1.385 . S
C1223 H1198 0.951 . S
C1223 C1221 1.388 . S
C1223 C1224 1.366 1_455 S
C1224 C1223 1.366 1_655 S
C1224 C1225 1.414 . S
C1224 C1227 1.499 . S
C1225 H1199 0.950 . S
C1225 C1224 1.414 . S
C1225 C1226 1.374 . S
C1226 H1200 0.950 . S
C1226 C1222 1.385 . S
C1226 C1225 1.374 . S
C1227 C1224 1.499 . S
C1227 C1228 1.373 . S
C1227 C1229 1.389 1_655 S
C1228 H1201 0.950 . S
C1228 C1214 1.377 . S
C1228 C1227 1.373 . S
C1229 C1213 1.375 1_455 S
C1229 C1227 1.389 1_455 S
C1229 C1230 1.524 . S
C1230 C1229 1.524 . S
C1230 C1231 1.397 . S
C1230 C1235 1.363 . S
C1231 H1202 0.950 . S
C1231 C1230 1.397 . S
C1231 C1232 1.334 . S
C1232 H1203 0.950 . S
C1232 C1231 1.334 . S
C1232 C1233 1.287 . S
C1233 C1232 1.287 . S
C1233 C1234 1.524 . S
C1233 H1236 0.999 . S
C1234 H1204 0.950 . S
C1234 C1233 1.524 . S
C1234 C1235 1.415 . S
C1235 H1205 0.950 . S
C1235 C1230 1.363 . S
C1235 C1234 1.415 . S
H1236 C1233 0.999 . S
H1237 C1218 0.913 . S
H1238 C1256 0.951 . S
H1239 C1258 0.951 . S
H1240 C1260 0.950 . S
H1241 C1261 0.950 . S
H1242 C1263 0.950 . S
H1243 C1266 0.950 . S
H1244 C1267 0.950 . S
H1245 C1269 0.950 . S
H1246 C1270 0.950 . S
H1247 C1271 0.951 . S
H1248 C1273 0.951 . S
H1249 C1275 0.944 1_545 S
H1250 C1276 0.950 . S
H1251 C1278 0.950 . S
H1252 C1281 0.950 . S
H1253 C1282 0.950 . S
H1254 C1284 0.950 . S
H1255 C1285 0.950 . S
C1256 H1238 0.951 . S
C1256 C1257 1.366 . S
C1256 C1258 1.388 . S
C1257 C1256 1.366 . S
C1257 C1261 1.385 . S
C1258 H1239 0.951 . S
C1258 C1256 1.388 . S
C1258 C1259 1.366 . S
C1259 C1258 1.366 . S
C1259 C1260 1.414 . S
C1259 C1262 1.499 . S
C1260 H1240 0.950 . S
C1260 C1259 1.414 . S
C1260 C1261 1.374 . S
C1261 H1241 0.950 . S
C1261 C1257 1.385 . S
C1261 C1260 1.374 . S
C1262 C1259 1.499 . S
C1262 C1263 1.373 . S
C1262 C1264 1.389 . S
C1263 H1242 0.950 . S
C1263 C1262 1.373 . S
C1263 C1279 1.377 . S
C1264 C1262 1.389 . S
C1264 C1265 1.524 . S
C1264 C1278 1.377 . S
C1265 C1264 1.524 . S
C1265 C1266 1.397 . S
C1265 C1270 1.363 . S
C1266 H1243 0.950 . S
C1266 C1265 1.397 . S
C1266 C1267 1.334 . S
C1267 H1244 0.950 . S
C1267 C1266 1.334 . S
C1267 C1268 1.287 . S
C1268 C1267 1.287 . S
C1268 C1269 1.524 . S
C1268 H1287 0.913 . S
C1269 H1245 0.950 . S
C1269 C1268 1.524 . S
C1269 C1270 1.415 . S
C1270 H1246 0.950 . S
C1270 C1265 1.363 . S
C1270 C1269 1.415 . S
C1271 H1247 0.951 . S
C1271 C1272 1.366 . S
C1271 C1273 1.388 . S
C1272 C1271 1.366 . S
C1272 C1276 1.385 1_565 S
C1273 H1248 0.951 . S
C1273 C1271 1.388 . S
C1273 C1274 1.366 . S
C1274 C1273 1.366 . S
C1274 C1275 1.422 . S
C1274 C1277 1.499 . S
C1275 H1249 0.944 1_565 S
C1275 C1274 1.422 . S
C1275 C1276 1.372 1_565 S
C1276 H1250 0.950 . S
C1276 C1272 1.385 1_545 S
C1276 C1275 1.372 1_545 S
C1277 C1274 1.499 . S
C1277 C1278 1.373 . S
C1277 C1279 1.389 . S
C1278 H1251 0.950 . S
C1278 C1264 1.377 . S
C1278 C1277 1.373 . S
C1279 C1263 1.377 . S
C1279 C1277 1.389 . S
C1279 C1280 1.524 . S
C1280 C1279 1.524 . S
C1280 C1281 1.397 1_565 S
C1280 C1285 1.363 . S
C1281 H1252 0.950 . S
C1281 C1280 1.397 1_545 S
C1281 C1282 1.334 . S
C1282 H1253 0.950 . S
C1282 C1281 1.334 . S
C1282 C1283 1.287 . S
C1283 C1282 1.287 . S
C1283 C1284 1.524 1_545 S
C1283 H1286 0.999 . S
C1284 H1254 0.950 . S
C1284 C1283 1.524 1_565 S
C1284 C1285 1.415 . S
C1285 H1255 0.950 . S
C1285 C1280 1.363 . S
C1285 C1284 1.415 . S
H1286 C1283 0.999 . S
H1287 C1268 0.913 . S
H1288 C1306 0.951 . S
H1289 C1308 0.951 . S
H1290 C1310 0.950 . S
H1291 C1311 0.950 . S
H1292 C1313 0.950 . S
H1293 C1316 0.950 . S
H1294 C1317 0.950 . S
H1295 C1319 0.950 . S
H1296 C1320 0.950 . S
H1297 C1321 0.951 . S
H1298 C1323 0.951 . S
H1299 C1325 0.950 . S
H1300 C1326 0.950 . S
H1301 C1328 0.950 . S
H1302 C1331 0.950 . S
H1303 C1332 0.950 . S
H1304 C1334 0.950 . S
H1305 C1335 0.950 . S
C1306 H1288 0.951 . S
C1306 C1307 1.366 . S
C1306 C1308 1.388 . S
C1307 C1306 1.366 . S
C1307 C1311 1.385 . S
C1308 H1289 0.951 . S
C1308 C1306 1.388 . S
C1308 C1309 1.366 . S
C1309 C1308 1.366 . S
C1309 C1310 1.414 . S
C1309 C1312 1.499 . S
C1310 H1290 0.950 . S
C1310 C1309 1.414 . S
C1310 C1311 1.374 . S
C1311 H1291 0.950 . S
C1311 C1307 1.385 . S
C1311 C1310 1.374 . S
C1312 C1309 1.499 . S
C1312 C1313 1.373 . S
C1312 C1314 1.389 . S
C1313 H1292 0.950 . S
C1313 C1312 1.373 . S
C1313 C1329 1.377 . S
C1314 C1312 1.389 . S
C1314 C1315 1.524 . S
C1314 C1328 1.377 . S
C1315 C1314 1.524 . S
C1315 C1316 1.397 . S
C1315 C1320 1.363 . S
C1316 H1293 0.950 . S
C1316 C1315 1.397 . S
C1316 C1317 1.334 . S
C1317 H1294 0.950 . S
C1317 C1316 1.334 . S
C1317 C1318 1.287 . S
C1318 C1317 1.287 . S
C1318 C1319 1.524 . S
C1318 H1337 0.913 . S
C1319 H1295 0.950 . S
C1319 C1318 1.524 . S
C1319 C1320 1.415 . S
C1320 H1296 0.950 . S
C1320 C1315 1.363 . S
C1320 C1319 1.415 . S
C1321 H1297 0.951 . S
C1321 C1322 1.366 . S
C1321 C1323 1.388 . S
C1322 C1321 1.366 . S
C1322 C1326 1.385 . S
C1323 H1298 0.951 . S
C1323 C1321 1.388 . S
C1323 C1324 1.366 . S
C1324 C1323 1.366 . S
C1324 C1325 1.414 . S
C1324 C1327 1.499 . S
C1325 H1299 0.950 . S
C1325 C1324 1.414 . S
C1325 C1326 1.374 . S
C1326 H1300 0.950 . S
C1326 C1322 1.385 . S
C1326 C1325 1.374 . S
C1327 C1324 1.499 . S
C1327 C1328 1.373 . S
C1327 C1329 1.389 . S
C1328 H1301 0.950 . S
C1328 C1314 1.377 . S
C1328 C1327 1.373 . S
C1329 C1313 1.377 . S
C1329 C1327 1.389 . S
C1329 C1330 1.524 . S
C1330 C1329 1.524 . S
C1330 C1331 1.397 . S
C1330 C1335 1.363 . S
C1331 H1302 0.950 . S
C1331 C1330 1.397 . S
C1331 C1332 1.334 . S
C1332 H1303 0.950 . S
C1332 C1331 1.334 . S
C1332 C1333 1.287 . S
C1333 C1332 1.287 . S
C1333 C1334 1.524 . S
C1333 H1336 0.999 . S
C1334 H1304 0.950 . S
C1334 C1333 1.524 . S
C1334 C1335 1.415 . S
C1335 H1305 0.950 . S
C1335 C1330 1.363 . S
C1335 C1334 1.415 . S
H1336 C1333 0.999 . S
H1337 C1318 0.913 . S
H1338 C1356 0.951 . S
H1339 C1358 0.951 . S
H1340 C1360 0.950 . S
H1341 C1361 0.950 . S
H1342 C1363 0.950 . S
H1343 C1366 0.950 . S
H1344 C1367 0.950 . S
H1345 C1369 0.950 . S
H1346 C1370 0.950 . S
H1347 C1371 0.951 . S
H1348 C1373 0.951 . S
H1349 C1375 0.950 . S
H1350 C1376 0.950 . S
H1351 C1378 0.950 . S
H1352 C1381 0.950 . S
H1353 C1382 0.950 . S
H1354 C1384 0.950 . S
H1355 C1385 0.950 . S
C1356 H1338 0.951 . S
C1356 C1357 1.366 . S
C1356 C1358 1.388 . S
C1357 C1356 1.366 . S
C1357 C1361 1.385 . S
C1358 H1339 0.951 . S
C1358 C1356 1.388 . S
C1358 C1359 1.366 . S
C1359 C1358 1.366 . S
C1359 C1360 1.414 . S
C1359 C1362 1.499 . S
C1360 H1340 0.950 . S
C1360 C1359 1.414 . S
C1360 C1361 1.374 . S
C1361 H1341 0.950 . S
C1361 C1357 1.385 . S
C1361 C1360 1.374 . S
C1362 C1359 1.499 . S
C1362 C1363 1.373 . S
C1362 C1364 1.389 . S
C1363 H1342 0.950 . S
C1363 C1362 1.373 . S
C1363 C1379 1.377 . S
C1364 C1362 1.389 . S
C1364 C1365 1.524 . S
C1364 C1378 1.377 . S
C1365 C1364 1.524 . S
C1365 C1366 1.397 . S
C1365 C1370 1.363 . S
C1366 H1343 0.950 . S
C1366 C1365 1.397 . S
C1366 C1367 1.334 . S
C1367 H1344 0.950 . S
C1367 C1366 1.334 . S
C1367 C1368 1.287 . S
C1368 C1367 1.287 . S
C1368 C1369 1.524 . S
C1368 H1387 0.913 . S
C1369 H1345 0.950 . S
C1369 C1368 1.524 . S
C1369 C1370 1.415 . S
C1370 H1346 0.950 . S
C1370 C1365 1.363 . S
C1370 C1369 1.415 . S
C1371 H1347 0.951 . S
C1371 C1372 1.366 . S
C1371 C1373 1.388 . S
C1372 C1371 1.366 . S
C1372 C1376 1.385 . S
C1373 H1348 0.951 . S
C1373 C1371 1.388 . S
C1373 C1374 1.366 . S
C1374 C1373 1.366 . S
C1374 C1375 1.414 . S
C1374 C1377 1.499 . S
C1375 H1349 0.950 . S
C1375 C1374 1.414 . S
C1375 C1376 1.374 . S
C1376 H1350 0.950 . S
C1376 C1372 1.385 . S
C1376 C1375 1.374 . S
C1377 C1374 1.499 . S
C1377 C1378 1.373 . S
C1377 C1379 1.389 . S
C1378 H1351 0.950 . S
C1378 C1364 1.377 . S
C1378 C1377 1.373 . S
C1379 C1363 1.377 . S
C1379 C1377 1.389 . S
C1379 C1380 1.524 . S
C1380 C1379 1.524 . S
C1380 C1381 1.397 . S
C1380 C1385 1.363 . S
C1381 H1352 0.950 . S
C1381 C1380 1.397 . S
C1381 C1382 1.334 . S
C1382 H1353 0.950 . S
C1382 C1381 1.334 . S
C1382 C1383 1.287 . S
C1383 C1382 1.287 . S
C1383 C1384 1.524 . S
C1383 H1386 0.999 . S
C1384 H1354 0.950 . S
C1384 C1383 1.524 . S
C1384 C1385 1.415 . S
C1385 H1355 0.950 . S
C1385 C1380 1.363 . S
C1385 C1384 1.415 . S
H1386 C1383 0.999 . S
H1387 C1368 0.913 . S
C207 C82 1.497 . S
C222 C120 1.406 . S
C272 C138 1.404 . S
C257 C95 1.496 . S
C322 C159 1.405 . S
C307 C56 1.497 . S
C372 C183 1.405 . S
C357 C69 1.496 . S
C422 C117 1.360 . S
C407 C30 1.391 . S
C457 C43 1.389 . S
C472 C141 1.335 . S
C507 C4 1.390 . S
C522 C162 1.336 . S
C557 C17 1.391 . S
C572 C180 1.336 . S
C622 C122 0.417 . S
C607 C74 0.435 . S
C672 C140 0.417 . S
C657 C87 0.436 . S
C722 C161 0.417 . S
C707 C100 0.436 . S
C757 C61 0.439 . S
C772 C185 0.420 . S
C807 C22 0.507 . S
C822 C121 0.477 . S
C872 C139 0.477 . S
C857 C35 0.509 . S
C922 C160 0.479 . S
C907 C48 0.510 . S
C957 C9 0.510 . S
C972 C184 0.478 . S
C1007 C73 1.604 . S
C1022 C118 1.564 . S
C1057 C86 1.604 . S
C1072 C142 1.565 . S
C1122 C163 1.564 . S
C1107 C99 1.604 . S
C1172 C181 1.566 . S
C1157 C60 1.604 . S
C1207 C21 1.450 . S
C1222 C119 1.414 1_655 S
C1272 C143 1.425 . S
C1257 C34 1.450 . S
C1322 C164 1.413 . S
C1307 C47 1.450 . S
C1357 C8 1.451 . S
C1372 C182 1.413 . S
