# Generated by pormake.
# Topology zzz, (3,6)-cn, num edge types: 1
# Building blocks:
#     Node 0, Type 0, BuildingBlock: ESEHIV_clean_linker_0, # of connection points: 3
#     Node 1, Type 0, BuildingBlock: ESEHIV_clean_linker_0, # of connection points: 3
#     Node 2, Type 0, BuildingBlock: ESEHIV_clean_linker_0, # of connection points: 3
#     Node 3, Type 0, BuildingBlock: ESEHIV_clean_linker_0, # of connection points: 3
#     Node 4, Type 0, BuildingBlock: ESEHIV_clean_linker_0, # of connection points: 3
#     Node 5, Type 0, BuildingBlock: ESEHIV_clean_linker_0, # of connection points: 3
#     Node 6, Type 0, BuildingBlock: ESEHIV_clean_linker_0, # of connection points: 3
#     Node 7, Type 0, BuildingBlock: ESEHIV_clean_linker_0, # of connection points: 3
#     Node 8, Type 1, BuildingBlock: PAMTUU_clean_sbu_0, # of connection points: 6
#     Node 9, Type 1, BuildingBlock: PAMTUU_clean_sbu_0, # of connection points: 6
#     Node 10, Type 1, BuildingBlock: PAMTUU_clean_sbu_0, # of connection points: 6
#     Node 11, Type 1, BuildingBlock: PAMTUU_clean_sbu_0, # of connection points: 6
#     Edge 12, Type (0, 1), BuildingBlock: KIFKEQ_clean_linker_1, # of connection points: 2
#     Edge 13, Type (0, 1), BuildingBlock: KIFKEQ_clean_linker_1, # of connection points: 2
#     Edge 14, Type (0, 1), BuildingBlock: KIFKEQ_clean_linker_1, # of connection points: 2
#     Edge 15, Type (0, 1), BuildingBlock: KIFKEQ_clean_linker_1, # of connection points: 2
#     Edge 16, Type (0, 1), BuildingBlock: KIFKEQ_clean_linker_1, # of connection points: 2
#     Edge 17, Type (0, 1), BuildingBlock: KIFKEQ_clean_linker_1, # of connection points: 2
#     Edge 18, Type (0, 1), BuildingBlock: KIFKEQ_clean_linker_1, # of connection points: 2
#     Edge 19, Type (0, 1), BuildingBlock: KIFKEQ_clean_linker_1, # of connection points: 2
#     Edge 20, Type (0, 1), BuildingBlock: KIFKEQ_clean_linker_1, # of connection points: 2
#     Edge 21, Type (0, 1), BuildingBlock: KIFKEQ_clean_linker_1, # of connection points: 2
#     Edge 22, Type (0, 1), BuildingBlock: KIFKEQ_clean_linker_1, # of connection points: 2
#     Edge 23, Type (0, 1), BuildingBlock: KIFKEQ_clean_linker_1, # of connection points: 2
#     Edge 24, Type (0, 1), BuildingBlock: KIFKEQ_clean_linker_1, # of connection points: 2
#     Edge 25, Type (0, 1), BuildingBlock: KIFKEQ_clean_linker_1, # of connection points: 2
#     Edge 26, Type (0, 1), BuildingBlock: KIFKEQ_clean_linker_1, # of connection points: 2
#     Edge 27, Type (0, 1), BuildingBlock: KIFKEQ_clean_linker_1, # of connection points: 2
#     Edge 28, Type (0, 1), BuildingBlock: KIFKEQ_clean_linker_1, # of connection points: 2
#     Edge 29, Type (0, 1), BuildingBlock: KIFKEQ_clean_linker_1, # of connection points: 2
#     Edge 30, Type (0, 1), BuildingBlock: KIFKEQ_clean_linker_1, # of connection points: 2
#     Edge 31, Type (0, 1), BuildingBlock: KIFKEQ_clean_linker_1, # of connection points: 2
#     Edge 32, Type (0, 1), BuildingBlock: KIFKEQ_clean_linker_1, # of connection points: 2
#     Edge 33, Type (0, 1), BuildingBlock: KIFKEQ_clean_linker_1, # of connection points: 2
#     Edge 34, Type (0, 1), BuildingBlock: KIFKEQ_clean_linker_1, # of connection points: 2
#     Edge 35, Type (0, 1), BuildingBlock: KIFKEQ_clean_linker_1, # of connection points: 2
# Relax obj value: 0.419
# Max RMSD: 0.288
# Mean RMSD: 0.219
data_MOF--net-zzz--node1-PAMTUU_clean_sbu_0--node2-ESEHIV_clean_linker_0--edge1-KIFKEQ_clean_linker_1
_symmetry_space_group_name_H-M    P1
_symmetry_Int_Tables_number       1
_symmetry_cell_setting            triclinic
loop_
_symmetry_equiv_pos_as_xyz
'x, y, z'
_cell_length_a     44.088454
_cell_length_b     48.937299
_cell_length_c     16.408573
_cell_angle_alpha  100.85847
_cell_angle_beta   90.09382
_cell_angle_gamma 89.33416
loop_
_atom_site_label
_atom_site_type_symbol
_atom_site_fract_x
_atom_site_fract_y
_atom_site_fract_z
_atom_type_partial_charge
H0 H 0.79602 0.585 0.48217 0.0
H1 H 0.71353 0.57796 0.34127 0.0
H2 H 0.74358 0.51053 0.45788 0.0
C3 C 0.77523 0.5741 0.46252 0.0
C4 C 0.77101 0.54786 0.48342 0.0
C5 C 0.75555 0.58461 0.40823 0.0
C6 C 0.72917 0.56984 0.38219 0.0
C7 C 0.72483 0.54294 0.39763 0.0
C8 C 0.74616 0.5316 0.4476 0.0
H9 H 0.08698 0.79963 0.46917 0.0
H10 H 0.08072 0.73532 0.25333 0.0
H11 H 1.01729 0.73809 0.4545 0.0
C12 C 0.07705 0.78037 0.43744 0.0
C13 C 0.05214 0.76955 0.47361 0.0
C14 C 0.08729 0.76851 0.35783 0.0
C15 C 0.07288 0.74477 0.31494 0.0
C16 C 0.04762 0.73369 0.34891 0.0
C17 C 0.03721 0.74608 0.42875 0.0
H18 H 0.74491 0.94139 0.3739 0.0
H19 H 0.83137 0.9404 0.25473 0.0
H20 H 0.81638 0.99338 0.49329 0.0
C21 C 0.7685 0.94755 0.3758 0.0
C22 C 0.77877 0.96658 0.4449 0.0
C23 C 0.7869 0.93898 0.30588 0.0
C24 C 0.81712 0.9473 0.30872 0.0
C25 C 0.82812 0.96725 0.37445 0.0
C26 C 0.80857 0.97746 0.44286 0.0
H27 H 0.5129 0.72954 0.26455 0.0
H28 H 0.55628 0.80896 0.29374 0.0
H29 H 0.50575 0.77688 0.07071 0.0
C30 C 0.51707 0.74859 0.24168 0.0
C31 C 0.50696 0.75098 0.16263 0.0
C32 C 0.53484 0.76918 0.28906 0.0
C33 C 0.54196 0.79326 0.25792 0.0
C34 C 0.53129 0.79636 0.17878 0.0
C35 C 0.51384 0.775 0.13186 0.0
H36 H 0.24792 0.43558 0.16478 0.0
H37 H 0.32921 0.42901 0.30602 0.0
H38 H 0.30821 0.50446 0.21758 0.0
C39 C 0.26937 0.44359 0.1903 0.0
C40 C 0.27696 0.47044 0.18003 0.0
C41 C 0.28677 0.42888 0.24025 0.0
C42 C 0.3146 0.44033 0.27065 0.0
C43 C 0.32241 0.4677 0.26494 0.0
C44 C 0.30304 0.4831 0.2206 0.0
H45 H 0.98073 0.21063 0.24221 0.0
H46 H 0.98372 0.27636 0.45548 0.0
H47 H 0.04309 0.27783 0.24785 0.0
C48 C 0.98899 0.2308 0.27246 0.0
C49 C 1.01185 0.24344 0.23369 0.0
C50 C 0.979 0.24216 0.35273 0.0
C51 C 0.99143 0.26725 0.39347 0.0
C52 C 1.01441 0.28033 0.35624 0.0
C53 C 1.02472 0.26835 0.27596 0.0
H54 H 0.29667 0.93494 0.17921 0.0
H55 H 0.21967 0.93959 0.3402 0.0
H56 H 0.24165 0.00964 0.22685 0.0
C57 C 0.2766 0.94603 0.20644 0.0
C58 C 0.27072 0.973 0.19194 0.0
C59 C 0.2588 0.93415 0.26099 0.0
C60 C 0.2335 0.94885 0.29819 0.0
C61 C 0.22696 0.97604 0.28717 0.0
C62 C 0.24609 0.9885 0.23485 0.0
H63 H 0.53704 0.28724 0.41665 0.0
H64 H 0.50189 0.20436 0.36646 0.0
H65 H 0.54793 0.2356 0.59824 0.0
C66 C 0.53441 0.26718 0.43486 0.0
C67 C 0.54514 0.26339 0.51199 0.0
C68 C 0.51832 0.24633 0.38328 0.0
C69 C 0.514 0.22055 0.40744 0.0
C70 C 0.52556 0.2159 0.48438 0.0
C71 C 0.54041 0.23793 0.53701 0.0
Tb72 Tb 1.0036 0.01025 0.81533 0.0
Tb73 Tb 0.06267 5e-05 0.9286 0.0
C74 C 0.9968 0.001 1.00173 0.0
C75 C 0.94801 0.03957 0.68172 0.0
C76 C 0.93245 0.08237 0.59612 0.0
C77 C 0.91233 0.07488 0.6541 0.0
C78 C 0.92 0.05352 0.69624 0.0
C79 C 0.96776 0.04639 0.62182 0.0
C80 C 0.95993 0.06753 0.57893 0.0
C81 C 0.957 0.01977 0.73462 0.0
O82 O 0.02666 0.05002 0.84127 0.0
O83 O 0.05028 0.04385 0.96097 0.0
O84 O 0.08099 0.01322 0.81832 0.0
O85 O 0.04146 0.00257 0.72711 0.0
O86 O 0.0852 0.00745 0.0434 0.0
O87 O 0.1072 0.98477 0.93351 0.0
O88 O 0.05139 0.95889 0.86013 0.0
O89 O 1.00225 0.9663 0.82058 0.0
O90 O 0.98805 0.0147 0.94392 0.0
O91 O 1.02381 0.98905 0.99868 0.0
C92 C 0.04045 0.06013 0.91125 0.0
O93 O 0.97762 0.0011 0.70614 0.0
O94 O 0.96178 0.03081 0.81201 0.0
C95 C 0.07036 0.00808 0.74199 0.0
C96 C 0.11983 0.97131 0.05958 0.0
C97 C 0.13966 0.92742 0.13613 0.0
C98 C 0.15775 0.93627 0.07596 0.0
C99 C 0.14797 0.95816 0.03836 0.0
C100 C 0.10219 0.96306 0.12171 0.0
C101 C 0.1121 0.94139 0.15984 0.0
C102 C 0.10884 0.99262 1.01375 0.0
C103 C 1.02508 0.94965 0.82939 0.0
H104 H 0.89101 0.08598 0.66822 0.0
H105 H 0.90451 0.04855 0.7424 0.0
H106 H 0.98964 0.03609 0.61012 0.0
H107 H 0.97604 0.07318 0.53534 0.0
H108 H 0.17915 0.92593 0.05704 0.0
H109 H 0.16201 0.96435 0.99097 0.0
H110 H 0.08038 0.97278 0.13933 0.0
H111 H 0.09753 0.93478 0.20539 0.0
Tb112 Tb 0.50665 0.97816 0.72422 0.0
Tb113 Tb 0.53067 0.02169 0.88452 0.0
C114 C 0.5285 0.95815 0.88236 0.0
C115 C 0.46733 0.92175 0.57625 0.0
C116 C 0.42155 0.88389 0.5141 0.0
C117 C 0.451 0.88053 0.48064 0.0
C118 C 0.47367 0.89941 0.51132 0.0
C119 C 0.43884 0.92377 0.61482 0.0
C120 C 0.4161 0.90501 0.58389 0.0
C121 C 0.48999 0.94361 0.59853 0.0
O122 O 0.46477 0.99043 0.79576 0.0
O123 O 0.48424 0.01392 0.91988 0.0
O124 O 0.50431 0.04603 0.81205 0.0
O125 O 0.51386 0.01816 0.68679 0.0
O126 O 0.5377 0.03152 1.01328 0.0
O127 O 0.55254 0.05922 0.9339 0.0
O128 O 0.56793 0.0175 0.79434 0.0
O129 O 0.55632 0.97526 0.71616 0.0
O130 O 0.50664 0.95641 0.8276 0.0
O131 O 0.54591 0.98008 0.89668 0.0
C132 C 0.46132 0.00253 0.87452 0.0
O133 O 0.47981 0.9692 0.61723 0.0
O134 O 0.51144 0.93865 0.64856 0.0
C135 C 0.50689 0.04266 0.73123 0.0
C136 C 0.5879 0.04535 0.0265 0.0
C137 C 0.63636 0.00885 0.0433 0.0
C138 C 0.61829 0.02048 0.11244 0.0
C139 C 0.59395 0.03824 0.1037 0.0
C140 C 0.60891 0.03751 0.96176 0.0
C141 C 0.63238 0.01891 0.96918 0.0
C142 C 0.55642 0.05125 1.00484 0.0
C143 C 0.57585 0.99527 0.7401 0.0
H144 H 0.45603 0.86428 0.42764 0.0
H145 H 0.49574 0.89734 0.48168 0.0
H146 H 0.43368 0.9407 0.66586 0.0
H147 H 0.39364 0.90845 0.61076 0.0
H148 H 0.62167 0.01466 0.17225 0.0
H149 H 0.57823 0.04418 0.15485 0.0
H150 H 0.60539 0.04324 0.90195 0.0
H151 H 0.64569 0.01101 0.91434 0.0
Tb152 Tb 0.49804 0.49213 0.89381 0.0
Tb153 Tb 0.54717 0.52102 0.78236 0.0
C154 C 0.48222 0.50244 0.71347 0.0
C155 C 0.46473 0.44053 1.00241 0.0
C156 C 0.47108 0.3895 0.05822 0.0
C157 C 0.44629 0.40749 0.08398 0.0
C158 C 0.44317 0.4328 0.05627 0.0
C159 C 0.48934 0.42262 0.97624 0.0
C160 C 0.49244 0.39736 1.00354 0.0
C161 C 0.46174 0.46708 0.9729 0.0
O162 O 0.52262 0.45823 0.81692 0.0
O163 O 0.56452 0.47875 0.7693 0.0
O164 O 0.56752 0.5231 0.90549 0.0
O165 O 0.5411 0.48996 0.95787 0.0
O166 O 0.56684 0.52688 0.66971 0.0
O167 O 0.57963 0.55217 0.7862 0.0
O168 O 0.51086 0.55074 0.82206 0.0
O169 O 0.49612 0.53671 0.94124 0.0
O170 O 0.47256 0.50368 0.79011 0.0
O171 O 0.51136 0.50331 0.69681 0.0
C172 C 0.54952 0.45687 0.78196 0.0
O173 O 0.47952 0.48696 1.00811 0.0
O174 O 0.46148 0.46496 0.89254 0.0
C175 C 0.56425 0.50677 0.96018 0.0
C176 C 0.57811 0.57424 0.67122 0.0
C177 C 0.57316 0.62507 0.61336 0.0
C178 C 0.598 0.60688 0.59031 0.0
C179 C 0.60044 0.58173 0.61909 0.0
C180 C 0.55318 0.59214 0.6938 0.0
C181 C 0.55075 0.61728 0.66538 0.0
C182 C 0.58178 0.54867 0.70581 0.0
C183 C 0.49817 0.55592 0.89552 0.0
H184 H 0.42963 0.4023 0.12688 0.0
H185 H 0.42404 0.44639 0.07729 0.0
H186 H 0.50617 0.4282 0.93455 0.0
H187 H 0.51157 0.38393 0.98143 0.0
H188 H 0.61544 0.61194 0.54937 0.0
H189 H 0.61991 0.56823 0.60115 0.0
H190 H 0.53582 0.58687 0.73453 0.0
H191 H 0.53151 0.63084 0.68539 0.0
Tb192 Tb 0.04196 0.5272 0.75996 0.0
Tb193 Tb 1.0091 0.49911 0.89903 0.0
C194 C 1.01766 0.56332 0.92322 0.0
C195 C 0.09664 0.52596 0.60371 0.0
C196 C 0.13847 0.48289 0.54269 0.0
C197 C 0.14276 0.49994 0.62077 0.0
C198 C 0.12229 0.52132 0.65058 0.0
C199 C 0.09314 0.50991 0.52379 0.0
C200 C 0.11387 0.48856 0.49352 0.0
C201 C 0.07063 0.54214 0.64514 0.0
O202 O 0.0791 0.50863 0.82038 0.0
O203 O 0.05588 0.50551 0.94312 0.0
O204 O 0.03155 0.46347 0.82338 0.0
O205 O 0.03624 0.48334 0.70795 0.0
O206 O 1.00255 0.49905 0.02585 0.0
O207 O 0.97488 0.47381 0.93343 0.0
O208 O 0.97746 0.4982 0.79552 0.0
O209 O 0.99354 0.53684 0.75063 0.0
O210 O 0.03977 0.55999 0.86899 0.0
O211 O 0.99839 0.54337 0.92545 0.0
C212 C 0.08063 0.50598 0.89863 0.0
O213 O 0.04465 0.52952 0.6335 0.0
O214 O 0.07447 0.5535 0.72299 0.0
C215 C 0.03697 0.46149 0.7437 0.0
C216 C 0.95053 0.50389 0.04277 0.0
C217 C 0.91078 0.54795 0.11093 0.0
C218 C 0.92152 0.5288 0.15935 0.0
C219 C 0.94167 0.50726 0.12587 0.0
C220 C 0.93847 0.52186 0.99331 0.0
C221 C 0.91939 0.54386 0.0271 0.0
C222 C 0.97676 0.48639 1.01078 0.0
C223 C 0.97221 0.51865 0.75568 0.0
H224 H 0.16133 0.49611 0.66059 0.0
H225 H 0.12569 0.53307 0.7127 0.0
H226 H 0.07346 0.51285 0.48661 0.0
H227 H 0.11036 0.47624 0.43221 0.0
H228 H 0.91474 0.53054 0.22347 0.0
H229 H 0.95104 0.49387 0.16541 0.0
H230 H 0.94517 0.51991 0.92908 0.0
H231 H 0.91235 0.55812 0.98753 0.0
H232 H 0.22886 0.01903 0.42131 0.0
H233 H 0.16731 0.96319 0.27177 0.0
H234 H 0.18967 0.03104 0.52816 0.0
H235 H 0.12842 0.974 0.37851 0.0
H236 H 0.05734 0.00351 0.57509 0.0
H237 H 0.09263 0.0022 0.45985 0.0
H238 H 0.16772 0.01088 0.63195 0.0
H239 H 0.13243 0.01313 0.74673 0.0
C240 C 0.20653 0.01011 0.40987 0.0
C241 C 0.20105 0.99049 0.33721 0.0
C242 C 0.18414 0.01645 0.47209 0.0
C243 C 0.15568 0.00315 0.46381 0.0
C244 C 0.14967 0.98499 0.38814 0.0
C245 C 0.17198 0.97881 0.32614 0.0
C246 C 0.08137 0.00536 0.5885 0.0
C247 C 0.09181 0.00837 0.6709 0.0
C248 C 0.10178 0.00446 0.52198 0.0
C249 C 0.13342 0.00639 0.53537 0.0
C250 C 0.1437 0.00985 0.61813 0.0
C251 C 0.12331 0.01091 0.68453 0.0
H252 H 0.56565 0.19001 0.5737 0.0
H253 H 0.47739 0.17942 0.45722 0.0
H254 H 0.55814 0.14825 0.631 0.0
H255 H 0.47088 0.13648 0.51155 0.0
H256 H 0.49922 0.04459 0.56611 0.0
H257 H 0.50189 0.0857 0.50057 0.0
H258 H 0.51583 0.13764 0.7405 0.0
H259 H 0.51253 0.09703 0.80625 0.0
C260 C 0.54459 0.1789 0.56022 0.0
C261 C 0.52188 0.18863 0.5119 0.0
C262 C 0.54046 0.15482 0.59272 0.0
C263 C 0.51383 0.13935 0.57633 0.0
C264 C 0.49164 0.14809 0.52499 0.0
C265 C 0.4955 0.17261 0.49356 0.0
C266 C 0.50245 0.06485 0.6049 0.0
C267 C 0.50569 0.06751 0.69141 0.0
C268 C 0.50388 0.08832 0.56739 0.0
C269 C 0.50924 0.11474 0.61555 0.0
C270 C 0.51184 0.11746 0.70199 0.0
C271 C 0.5098 0.09418 0.73957 0.0
H272 H 0.38134 0.44971 0.25465 0.0
H273 H 0.32216 0.51171 0.39569 0.0
H274 H 0.42057 0.46068 0.36051 0.0
H275 H 0.36156 0.52307 0.50203 0.0
H276 H 0.49335 0.49673 0.54603 0.0
H277 H 0.45682 0.4932 0.43274 0.0
H278 H 0.38327 0.50039 0.60907 0.0
H279 H 0.4198 0.50423 0.72252 0.0
C280 C 0.37715 0.46643 0.30704 0.0
C281 C 0.34873 0.48007 0.3161 0.0
C282 C 0.39964 0.47268 0.36819 0.0
C283 C 0.3943 0.49258 0.44094 0.0
C284 C 0.36643 0.50732 0.44771 0.0
C285 C 0.34399 0.5012 0.38599 0.0
C286 C 0.4694 0.49766 0.56094 0.0
C287 C 0.4597 0.50066 0.644 0.0
C288 C 0.44836 0.49554 0.49561 0.0
C289 C 0.41689 0.49651 0.5111 0.0
C290 C 0.40722 0.49994 0.59432 0.0
C291 C 0.42826 0.5019 0.65964 0.0
H292 H 0.04164 0.28594 0.50655 0.0
H293 H 1.01622 0.33213 0.3173 0.0
H294 H 0.054 0.32917 0.60076 0.0
H295 H 0.02767 0.37567 0.41209 0.0
H296 H 0.06159 0.45051 0.58846 0.0
H297 H 0.06364 0.40617 0.49189 0.0
H298 H 1.0239 0.36588 0.67832 0.0
H299 H 1.02259 0.41015 0.7756 0.0
C300 C 0.03927 0.30543 0.48479 0.0
C301 C 0.02789 0.30583 0.405 0.0
C302 C 0.04604 0.3302 0.53893 0.0
C303 C 0.0413 0.35599 0.51479 0.0
C304 C 0.03179 0.35622 0.43278 0.0
C305 C 1.02524 0.33133 0.37827 0.0
C306 C 0.05357 0.43211 0.60918 0.0
C307 C 0.04157 0.4339 0.68953 0.0
C308 C 0.05465 0.4067 0.55356 0.0
C309 C 0.04364 0.38243 0.57673 0.0
C310 C 0.03291 0.38404 0.65843 0.0
C311 C 0.03202 0.40947 0.71432 0.0
H312 H 0.84155 0.01909 0.34557 0.0
H313 H 0.88252 0.93987 0.35977 0.0
H314 H 0.88542 0.03051 0.26767 0.0
H315 H 0.92579 0.95051 0.27975 0.0
H316 H 1.00581 0.97719 0.14059 0.0
H317 H 0.96968 0.97387 0.25131 0.0
H318 H 0.90225 0.01704 0.13033 0.0
H319 H 0.93839 0.02102 0.02205 0.0
C320 C 0.86056 0.00462 0.33536 0.0
C321 C 0.85862 0.97873 0.36022 0.0
C322 C 0.88551 0.01081 0.28861 0.0
C323 C 0.90917 0.99118 0.26473 0.0
C324 C 0.90839 0.96635 0.29643 0.0
C325 C 0.88356 0.96027 0.34335 0.0
C326 C 0.98334 0.98614 0.13794 0.0
C327 C 0.97523 -0.0007 0.07158 0.0
C328 C 0.96244 0.98417 0.20159 0.0
C329 C 0.93269 0.99523 0.20097 0.0
C330 C 0.9249 0.00872 0.135 0.0
C331 C 0.94574 0.01076 0.0718 0.0
H332 H 0.52798 0.85172 0.25256 0.0
H333 H 0.55094 0.79706 0.02188 0.0
H334 H 0.53163 0.89197 0.18346 0.0
H335 H 0.55414 0.83693 0.95326 0.0
H336 H 0.50558 0.90593 0.8443 0.0
H337 H 0.51137 0.86811 0.92042 0.0
H338 H 0.56741 0.91983 0.10157 0.0
H339 H 0.56181 0.95805 0.02449 0.0
C340 C 0.53443 0.84835 0.18774 0.0
C341 C 0.53857 0.82118 0.14229 0.0
C342 C 0.53648 0.87136 0.14819 0.0
C343 C 0.54262 0.86752 0.0626 0.0
C344 C 0.54875 0.8405 0.01884 0.0
C345 C 0.54688 0.81767 0.0582 0.0
C346 C 0.51927 0.90932 0.9001 0.0
C347 C 0.53323 0.93504 0.9282 0.0
C348 C 0.52272 0.88755 0.94353 0.0
C349 C 0.53996 0.89095 0.0168 0.0
C350 C 0.55393 0.91667 0.04541 0.0
C351 C 0.55083 0.93845 1.00105 0.0
H352 H 0.66371 0.54518 0.42651 0.0
H353 H 0.73138 0.50739 0.25064 0.0
H354 H 0.62408 0.53255 0.32141 0.0
H355 H 0.69202 0.49519 0.14494 0.0
H356 H 0.62273 0.5254 0.96205 0.0
H357 H 0.66059 0.52765 0.07193 0.0
H358 H 0.59659 0.49294 0.2218 0.0
H359 H 0.5587 0.49015 0.11088 0.0
C360 C 0.6699 0.53296 0.3666 0.0
C361 C 0.7006 0.52656 0.34769 0.0
C362 C 0.64725 0.52601 0.30593 0.0
C363 C 0.65485 0.51314 0.22422 0.0
C364 C 0.68535 0.50529 0.20692 0.0
C365 C 0.70788 0.5118 0.26794 0.0
C366 C 0.61668 0.51809 0.01814 0.0
C367 C 0.58754 0.50761 0.02724 0.0
C368 C 0.63853 0.51919 0.08106 0.0
C369 C 0.63177 0.51034 0.15578 0.0
C370 C 0.60259 0.49994 0.16519 0.0
C371 C 0.5809 0.49828 0.1014 0.0
H372 H 1.02292 0.73318 0.19783 0.0
H373 H 0.03812 0.68129 0.37957 0.0
H374 H 1.00919 0.6924 0.09499 0.0
H375 H 1.02441 0.64012 0.27611 0.0
H376 H 0.98454 0.57306 0.06723 0.0
H377 H 0.9842 0.61507 0.17534 0.0
H378 H 0.04481 0.65447 0.02752 0.0
H379 H 0.04532 0.6127 0.92009 0.0
C380 C 1.02249 0.71305 0.21624 0.0
C381 C 0.03179 0.71025 0.29621 0.0
C382 C 1.01484 0.68971 0.15731 0.0
C383 C 1.0163 0.66303 0.17703 0.0
C384 C 1.02305 0.66046 0.25921 0.0
C385 C 0.03081 0.68395 0.31847 0.0
C386 C 0.99746 0.59085 0.05735 0.0
C387 C 1.015 0.58955 0.98498 0.0
C388 C 0.99738 0.6148 0.11953 0.0
C389 C 1.01439 0.63807 0.10984 0.0
C390 C 0.03114 0.63701 0.03637 0.0
C391 C 0.03157 0.613 0.97492 0.0
H392 H 0.98419 0.23529 0.51349 0.0
H393 H 0.9301 0.21026 0.29254 0.0
H394 H 0.9614 0.19912 0.57491 0.0
H395 H 0.90796 0.17323 0.35373 0.0
H396 H 0.915 0.13381 0.67739 0.0
H397 H 0.91477 0.17699 0.62295 0.0
H398 H 0.93736 0.13049 0.37955 0.0
H399 H 0.93739 0.08735 0.43387 0.0
C400 C 0.9666 0.2228 0.47912 0.0
C401 C 0.95938 0.22537 0.39742 0.0
C402 C 0.95356 0.20195 0.51441 0.0
C403 C 0.93324 0.18315 0.46852 0.0
C404 C 0.92389 0.18727 0.38989 0.0
C405 C 0.93665 0.20837 0.35491 0.0
C406 C 0.91895 0.13276 0.61172 0.0
C407 C 0.92652 0.10735 0.55982 0.0
C408 C 0.91894 0.15745 0.58077 0.0
C409 C 0.92617 0.15706 0.49727 0.0
C410 C 0.9314 0.13138 0.44403 0.0
C411 C 0.93173 0.10674 0.47516 0.0
H412 H 0.26108 0.92626 0.42044 0.0
H413 H 0.28314 0.8858 0.17005 0.0
H414 H 0.29501 0.89527 0.4743 0.0
H415 H 0.31724 0.85387 0.22447 0.0
H416 H 0.37049 0.86258 0.5748 0.0
H417 H 0.32169 0.85646 0.50359 0.0
H418 H 0.36513 0.86843 0.27702 0.0
H419 H 0.41316 0.87389 0.3469 0.0
C420 C 0.27204 0.90978 0.37668 0.0
C421 C 0.27025 0.90913 0.29088 0.0
C422 C 0.29162 0.89171 0.40781 0.0
C423 C 0.3099 0.87262 0.35375 0.0
C424 C 0.30431 0.869 0.26787 0.0
C425 C 0.28481 0.88729 0.23661 0.0
C426 C 0.36965 0.86283 0.50897 0.0
C427 C 0.39546 0.86976 0.46732 0.0
C428 C 0.3417 0.85931 0.46808 0.0
C429 C 0.33912 0.86316 0.38542 0.0
C430 C 0.36589 0.86552 0.34076 0.0
C431 C 0.39376 0.86878 0.38132 0.0
H432 H 0.52546 0.28633 0.66645 0.0
H433 H 0.59241 0.2956 0.48263 0.0
H434 H 0.53626 0.33283 0.74183 0.0
H435 H 0.60447 0.34192 0.55978 0.0
H436 H 0.57037 0.43424 0.62786 0.0
H437 H 0.57874 0.38482 0.57353 0.0
H438 H 0.56613 0.36718 0.81995 0.0
H439 H 0.55631 0.41648 0.8724 0.0
C440 C 0.54347 0.29794 0.64429 0.0
C441 C 0.55795 0.28758 0.56867 0.0
C442 C 0.54977 0.32468 0.68747 0.0
C443 C 0.57096 0.34148 0.65629 0.0
C444 C 0.58749 0.32991 0.58455 0.0
C445 C 0.58085 0.3033 0.5408 0.0
C446 C 0.57027 0.41978 0.6704 0.0
C447 C 0.56231 0.42887 0.75371 0.0
C448 C 0.57515 0.39141 0.63959 0.0
C449 C 0.57257 0.37178 0.69207 0.0
C450 C 0.56744 0.38151 0.77722 0.0
C451 C 0.562 0.40973 0.80747 0.0
H452 H 0.23826 0.39345 0.18255 0.0
H453 H 0.30116 0.41012 0.3877 0.0
H454 H 0.19733 0.39182 0.27925 0.0
H455 H 0.26122 0.40424 0.48157 0.0
H456 H 0.19968 0.48318 0.56205 0.0
H457 H 0.23592 0.44821 0.50307 0.0
H458 H 0.16336 0.39468 0.39338 0.0
H459 H 0.1264 0.43034 0.45504 0.0
C460 C 0.24378 0.39586 0.24777 0.0
C461 C 0.27193 0.40675 0.27851 0.0
C462 C 0.22021 0.39414 0.30341 0.0
C463 C 0.2257 0.40116 0.38917 0.0
C464 C 0.25598 0.40128 0.41597 0.0
C465 C 0.27914 0.40466 0.36102 0.0
C466 C 0.19121 0.46366 0.52774 0.0
C467 C 0.16014 0.4598 0.51236 0.0
C468 C 0.21214 0.44323 0.49412 0.0
C469 C 0.20273 0.41829 0.44318 0.0
C470 C 0.17144 0.41364 0.4318 0.0
C471 C 0.15033 0.43421 0.46621 0.0
H472 H 0.08557 0.7764 0.1976 0.0
H473 H 0.13843 0.79612 0.42275 0.0
H474 H 0.11228 0.81143 0.14075 0.0
H475 H 0.16476 0.83204 0.36595 0.0
H476 H 0.15819 0.87715 0.04833 0.0
H477 H 0.1592 0.83293 0.09693 0.0
H478 H 0.13917 0.87643 0.34565 0.0
H479 H 0.13844 0.92047 0.29728 0.0
C480 C 0.10376 0.78738 0.2338 0.0
C481 C 0.1094 0.78382 0.31553 0.0
C482 C 0.11913 0.80757 0.20104 0.0
C483 C 0.14029 0.82477 0.24948 0.0
C484 C 0.14823 0.8193 0.32779 0.0
C485 C 0.13306 0.79885 0.36032 0.0
C486 C 0.15516 0.87732 0.11392 0.0
C487 C 0.14775 0.90213 0.16891 0.0
C488 C 0.15562 0.85202 0.1416 0.0
C489 C 0.14893 0.85121 0.22477 0.0
C490 C 0.14463 0.87637 0.28127 0.0
C491 C 0.1439 0.9016 0.25349 0.0
H492 H 0.7986 0.95536 0.15991 0.0
H493 H 0.7418 0.89979 0.26614 0.0
H494 H 0.76176 0.95791 0.05622 0.0
H495 H 0.70443 0.9012 0.1574 0.0
H496 H 0.63206 0.96869 0.13922 0.0
H497 H 0.67025 0.93591 0.1631 0.0
H498 H 0.72471 0.95755 0.96566 0.0
H499 H 0.68876 0.99371 0.95159 0.0
C500 C 0.77888 0.9423 0.15857 0.0
C501 C 0.77235 0.92866 0.22443 0.0
C502 C 0.75725 0.94378 0.09791 0.0
C503 C 0.72869 0.93152 0.10174 0.0
C504 C 0.72523 0.91264 0.15617 0.0
C505 C 0.74678 0.91154 0.21814 0.0
C506 C 0.65255 0.96714 0.10231 0.0
C507 C 0.65789 0.9854 0.04731 0.0
C508 C 0.67427 0.94735 0.11393 0.0
C509 C 0.70164 0.94456 0.06879 0.0
C510 C 0.70483 0.95996 1.00503 0.0
C511 C 0.68375 0.98068 0.99609 0.0
H512 H 0.46141 0.71826 0.20195 0.0
H513 H 0.52274 0.72766 1.00455 0.0
H514 H 0.44927 0.67138 0.12928 0.0
H515 H 0.51113 0.6809 0.93264 0.0
H516 H 0.48573 0.59683 0.80782 0.0
H517 H 0.47739 0.64612 0.86275 0.0
H518 H 0.47969 0.62946 0.11225 0.0
H519 H 0.48737 0.58012 0.05712 0.0
C520 C 0.47167 0.71053 0.14196 0.0
C521 C 0.49327 0.72642 0.10927 0.0
C522 C 0.46488 0.68366 0.10063 0.0
C523 C 0.47966 0.67217 0.02597 0.0
C524 C 0.49913 0.6891 0.9897 0.0
C525 C 0.5058 0.71599 0.03087 0.0
C526 C 0.48398 0.60365 0.8744 0.0
C527 C 0.48781 0.58469 0.92832 0.0
C528 C 0.4792 0.63191 0.90582 0.0
C529 C 0.47828 0.64184 0.99188 0.0
C530 C 0.47996 0.62255 0.04556 0.0
C531 C 0.48456 0.59423 1.01404 0.0
H532 H 0.7914 0.631 0.46149 0.0
H533 H 0.74721 0.5855 0.24305 0.0
H534 H 0.83247 0.64222 0.37478 0.0
H535 H 0.78716 0.5964 0.15849 0.0
H536 H 0.86679 0.5741 0.03141 0.0
H537 H 0.82899 0.60745 0.0936 0.0
H538 H 0.86836 0.60738 0.33528 0.0
H539 H 0.90855 0.57705 0.27177 0.0
C540 C 0.7897 0.62436 0.39485 0.0
C541 C 0.76744 0.60522 0.36025 0.0
C542 C 0.81334 0.63072 0.34503 0.0
C543 C 0.81464 0.618 0.26064 0.0
C544 C 0.78809 0.60555 0.22379 0.0
C545 C 0.76462 0.5992 0.27332 0.0
C546 C 0.86838 0.58199 0.09739 0.0
C547 C 0.89023 0.57161 0.14688 0.0
C548 C 0.84626 0.6011 0.13339 0.0
C549 C 0.84437 0.60918 0.22014 0.0
C550 C 0.8684 0.60151 0.26833 0.0
C551 C 0.89118 0.58321 0.23197 0.0
H552 H 0.06987 0.22456 0.20257 0.0
H553 H 0.98126 0.22411 0.09105 0.0
H554 H 0.08411 0.18308 0.10154 0.0
H555 H 0.9947 0.18221 0.99257 0.0
H556 H 1.0202 0.10187 0.83238 0.0
H557 H 1.02117 0.15201 0.88539 0.0
H558 H 0.06813 0.13729 0.10483 0.0
H559 H 0.068 0.08778 0.05114 0.0
C560 C 0.05394 0.21635 0.15401 0.0
C561 C 1.02436 0.22729 0.15515 0.0
C562 C 0.06185 0.19225 0.09698 0.0
C563 C 0.04021 0.17862 0.04065 0.0
C564 C 1.01201 0.19189 0.0349 0.0
C565 C 1.00424 0.21604 0.09139 0.0
C566 C 0.03118 0.10943 0.89128 0.0
C567 C 0.04361 0.0907 0.938 0.0
C568 C 0.0317 0.1382 0.92178 0.0
C569 C 0.04463 0.14888 0.99971 0.0
C570 C 0.05842 0.1301 0.04404 0.0
C571 C 0.05797 0.10149 1.01357 0.0
H572 H 0.30529 0.02076 0.22239 0.0
H573 H 0.2869 0.94868 0.03476 0.0
H574 H 0.34898 0.03139 0.14173 0.0
H575 H 0.3308 0.95828 0.95608 0.0
H576 H 0.44692 0.01947 0.03962 0.0
H577 H 0.39879 0.01638 0.10904 0.0
H578 H 0.35739 0.98288 0.87309 0.0
H579 H 0.40608 0.98497 0.8041 0.0
C580 C 0.31006 0.0076 0.16288 0.0
C581 C 0.29236 0.98394 0.13512 0.0
C582 C 0.33557 0.01333 0.11702 0.0
C583 C 0.3442 0.99553 0.04205 0.0
C584 C 0.32523 0.97282 1.01244 0.0
C585 C 0.29984 0.96722 0.05793 0.0
C586 C 0.42757 0.01157 1.0021 0.0
C587 C 0.43079 0.00236 0.91572 0.0
C588 C 0.39962 0.01 0.04224 0.0
C589 C 0.37362 -0.00069 0.99762 0.0
C590 C 0.3767 0.99078 0.91071 0.0
C591 C 0.40477 0.99215 0.87061 0.0
H592 H 0.54554 0.24597 0.23504 0.0
H593 H 0.46184 0.26679 0.3684 0.0
H594 H 0.53116 0.27608 0.13793 0.0
H595 H 0.44767 0.29767 0.27369 0.0
H596 H 0.42792 0.35168 0.08352 0.0
H597 H 0.43531 0.30943 0.14096 0.0
H598 H 0.53135 0.32584 0.16345 0.0
H599 H 0.524 0.36765 0.10635 0.0
C600 C 0.52339 0.25597 0.24096 0.0
C601 C 0.50459 0.25382 0.30826 0.0
C602 C 0.51537 0.27368 0.1865 0.0
C603 C 0.4886 0.28992 0.1992 0.0
C604 C 0.46838 0.28548 0.26161 0.0
C605 C 0.47634 0.26759 0.31565 0.0
C606 C 0.4506 0.34619 0.10065 0.0
C607 C 0.47536 0.36311 0.09019 0.0
C608 C 0.45486 0.3219 0.13327 0.0
C609 C 0.48397 0.31397 0.15622 0.0
C610 C 0.5087 0.33075 0.14449 0.0
C611 C 0.50447 0.35491 0.11196 0.0
H612 H 0.26561 0.45931 0.01445 0.0
H613 H 0.2354 0.51099 0.24231 0.0
H614 H 0.2192 0.47021 0.94536 0.0
H615 H 0.18889 0.52253 0.17328 0.0
H616 H 0.09357 0.50261 0.06074 0.0
H617 H 0.14299 0.4992 0.12511 0.0
H618 H 0.18678 0.50177 0.89153 0.0
H619 H 0.13728 0.50454 0.82673 0.0
C620 C 0.2496 0.47409 0.04874 0.0
C621 C 0.25461 0.48482 0.13338 0.0
C622 C 0.22273 0.48021 1.00929 0.0
C623 C 0.19977 0.49706 0.05351 0.0
C624 C 0.20565 0.50912 0.13715 0.0
C625 C 0.23266 0.50303 0.17653 0.0
C626 C 0.11369 0.50244 0.02286 0.0
C627 C 0.11113 0.50375 0.93807 0.0
C628 C 0.14223 0.50077 0.06021 0.0
C629 C 0.16928 0.50034 1.01414 0.0
C630 C 0.16668 0.50178 0.92933 0.0
C631 C 0.13812 0.50347 0.892 0.0
H632 H 0.99444 0.78962 0.51008 0.0
H633 H 0.08404 0.7878 0.6145 0.0
H634 H 0.98099 0.82943 0.61804 0.0
H635 H 0.07192 0.82849 0.71761 0.0
H636 H 0.05214 0.90663 0.88797 0.0
H637 H 0.05078 0.85726 0.82672 0.0
H638 H 0.99078 0.87582 0.6346 0.0
H639 H 0.99045 0.92451 0.70014 0.0
C640 C 1.01093 0.79717 0.55781 0.0
C641 C 0.04045 0.78595 0.55308 0.0
C642 C 1.00351 0.82044 0.61883 0.0
C643 C 1.02566 0.83321 0.6753 0.0
C644 C 0.05403 0.81971 0.67599 0.0
C645 C 0.06115 0.79623 0.6163 0.0
C646 C 0.03824 0.89992 0.83354 0.0
C647 C 1.02168 0.91942 0.79829 0.0
C648 C 0.03756 0.87158 0.7978 0.0
C649 C 1.02115 0.86216 0.72413 0.0
C650 C 1.0034 0.88175 0.69167 0.0
C651 C 1.0034 0.90993 0.72887 0.0
H652 H 0.74832 0.01673 0.48777 0.0
H653 H 0.75518 0.93503 0.54822 0.0
H654 H 0.70041 0.02491 0.56531 0.0
H655 H 0.70776 0.94305 0.62611 0.0
H656 H 0.60382 0.94932 0.6465 0.0
H657 H 0.65498 0.94493 0.589 0.0
H658 H 0.67178 0.03087 0.69644 0.0
H659 H 0.62027 0.03536 0.75334 0.0
C660 C 0.74031 0.001 0.52072 0.0
C661 C 0.75603 0.97544 0.51309 0.0
C662 C 0.71258 0.00553 0.56458 0.0
C663 C 0.6996 0.98447 0.60122 0.0
C664 C 0.71644 0.95961 0.59762 0.0
C665 C 0.74405 0.95517 0.55421 0.0
C666 C 0.61833 0.96735 0.65818 0.0
C667 C 0.60759 0.99268 0.70517 0.0
C668 C 0.64797 0.96477 0.62559 0.0
C669 C 0.66801 0.98747 0.63817 0.0
C670 C 0.65721 0.0129 0.6848 0.0
C671 C 0.62758 0.01542 0.71806 0.0
H672 H 0.59086 0.74826 0.30805 0.0
H673 H 0.50676 0.77149 0.43709 0.0
H674 H 0.60294 0.71711 0.40366 0.0
H675 H 0.51902 0.74103 0.53484 0.0
H676 H 0.52173 0.64866 0.5619 0.0
H677 H 0.51687 0.69106 0.50637 0.0
H678 H 0.61316 0.70472 0.53756 0.0
H679 H 0.61804 0.66201 0.59378 0.0
C680 C 0.57588 0.74799 0.36019 0.0
C681 C 0.54803 0.76242 0.36576 0.0
C682 C 0.58261 0.7299 0.41467 0.0
C683 C 0.56156 0.72596 0.47573 0.0
C684 C 0.53539 0.74303 0.48725 0.0
C685 C 0.52861 0.76095 0.43244 0.0
C686 C 0.54183 0.66091 0.55855 0.0
C687 C 0.57028 0.65178 0.58231 0.0
C688 C 0.53903 0.68541 0.52693 0.0
C689 C 0.56459 0.70158 0.51804 0.0
C690 C 0.59303 0.69273 0.54305 0.0
C691 C 0.59583 0.66816 0.57489 0.0
H692 H 0.80565 0.49942 0.45072 0.0
H693 H 0.79297 0.57497 0.63125 0.0
H694 H 0.85381 0.49061 0.51813 0.0
H695 H 0.84099 0.5666 0.69684 0.0
H696 H 0.9461 0.5641 0.70563 0.0
H697 H 0.89561 0.568 0.64623 0.0
H698 H 0.87864 0.48208 0.65629 0.0
H699 H 0.92896 0.47827 0.71717 0.0
C700 C 0.81258 0.51365 0.50623 0.0
C701 C 0.79533 0.5379 0.53546 0.0
C702 C 0.84037 0.50879 0.5444 0.0
C703 C 0.85168 0.52824 0.61192 0.0
C704 C 0.8334 0.55148 0.64405 0.0
C705 C 0.80564 0.5561 0.60691 0.0
C706 C 0.93169 0.546 0.69508 0.0
C707 C 0.94175 0.52091 0.71652 0.0
C708 C 0.90261 0.54826 0.66139 0.0
C709 C 0.88289 0.52537 0.64666 0.0
C710 C 0.89318 0.5001 0.66644 0.0
C711 C 0.92204 0.49799 0.70171 0.0
loop_
_geom_bond_atom_site_label_1
_geom_bond_atom_site_label_2
_geom_bond_distance
_geom_bond_site_symmetry_2
_ccdc_geom_bond_type
H0 C3 0.931 . S
H1 C6 0.928 . S
H2 C8 0.930 . S
C3 H0 0.931 . S
C3 C4 1.413 . S
C3 C5 1.360 . S
C4 C3 1.413 . S
C4 C8 1.429 . S
C5 C3 1.360 . S
C5 C6 1.372 . S
C6 H1 0.928 . S
C6 C5 1.372 . S
C6 C7 1.404 . S
C7 C6 1.404 . S
C7 C8 1.391 . S
C8 H2 0.930 . S
C8 C4 1.429 . S
C8 C7 1.391 . S
H9 C12 0.931 . S
H10 C15 0.928 . S
H11 C17 0.930 . S
C12 H9 0.931 . S
C12 C13 1.413 . S
C12 C14 1.360 . S
C13 C12 1.413 . S
C13 C17 1.429 1_655 S
C14 C12 1.360 . S
C14 C15 1.373 . S
C15 H10 0.928 . S
C15 C14 1.373 . S
C15 C16 1.404 . S
C16 C15 1.404 . S
C16 C17 1.390 1_655 S
C17 H11 0.930 . S
C17 C13 1.429 1_455 S
C17 C16 1.390 1_455 S
H18 C21 0.930 . S
H19 C24 0.928 . S
H20 C26 0.933 . S
C21 H18 0.930 . S
C21 C22 1.414 . S
C21 C23 1.360 . S
C22 C21 1.414 . S
C22 C26 1.429 1_565 S
C23 C21 1.360 . S
C23 C24 1.371 . S
C24 H19 0.928 . S
C24 C23 1.371 . S
C24 C25 1.402 . S
C25 C24 1.402 . S
C25 C26 1.393 1_565 S
C26 H20 0.933 . S
C26 C22 1.429 1_545 S
C26 C25 1.393 1_545 S
H27 C30 0.931 . S
H28 C33 0.928 . S
H29 C35 0.930 . S
C30 H27 0.931 . S
C30 C31 1.413 1_554 S
C30 C32 1.360 . S
C31 C30 1.413 1_556 S
C31 C35 1.429 . S
C32 C30 1.360 . S
C32 C33 1.372 . S
C33 H28 0.928 . S
C33 C32 1.372 . S
C33 C34 1.404 1_554 S
C34 C33 1.404 1_556 S
C34 C35 1.391 . S
C35 H29 0.930 . S
C35 C31 1.429 . S
C35 C34 1.391 . S
H36 C39 0.931 . S
H37 C42 0.928 . S
H38 C44 0.930 . S
C39 H36 0.931 . S
C39 C40 1.413 . S
C39 C41 1.360 . S
C40 C39 1.413 . S
C40 C44 1.429 . S
C41 C39 1.360 . S
C41 C42 1.372 . S
C42 H37 0.928 . S
C42 C41 1.372 . S
C42 C43 1.404 . S
C43 C42 1.404 . S
C43 C44 1.391 . S
C44 H38 0.930 . S
C44 C40 1.429 . S
C44 C43 1.391 . S
H45 C48 0.930 . S
H46 C51 0.928 . S
H47 C53 0.929 . S
C48 H45 0.930 . S
C48 C49 1.413 . S
C48 C50 1.360 . S
C49 C48 1.413 . S
C49 C53 1.429 1_655 S
C50 C48 1.360 . S
C50 C51 1.372 . S
C51 H46 0.928 . S
C51 C50 1.372 . S
C51 C52 1.404 . S
C52 C51 1.404 . S
C52 C53 1.391 1_655 S
C53 H47 0.929 . S
C53 C49 1.429 1_455 S
C53 C52 1.391 1_455 S
H54 C57 0.931 . S
H55 C60 0.928 . S
H56 C62 0.926 . S
C57 H54 0.931 . S
C57 C58 1.412 . S
C57 C59 1.360 . S
C58 C57 1.412 . S
C58 C62 1.430 1_565 S
C59 C57 1.360 . S
C59 C60 1.373 . S
C60 H55 0.928 . S
C60 C59 1.373 . S
C60 C61 1.405 . S
C61 C60 1.405 . S
C61 C62 1.388 1_565 S
C62 H56 0.926 . S
C62 C58 1.430 1_545 S
C62 C61 1.388 1_545 S
H63 C66 0.931 . S
H64 C69 0.928 . S
H65 C71 0.930 . S
C66 H63 0.931 . S
C66 C67 1.413 . S
C66 C68 1.360 . S
C67 C66 1.413 . S
C67 C71 1.429 . S
C68 C66 1.360 . S
C68 C69 1.372 . S
C69 H64 0.928 . S
C69 C68 1.372 . S
C69 C70 1.404 . S
C70 C69 1.404 . S
C70 C71 1.391 . S
C71 H65 0.930 . S
C71 C67 1.429 . S
C71 C70 1.391 . S
Tb72 C81 2.764 . S
Tb72 O82 2.325 . S
Tb72 O85 2.303 1_655 S
Tb72 O89 2.322 1_545 S
Tb72 O90 2.349 . S
Tb72 O93 2.415 . S
Tb72 O94 2.399 . S
Tb73 O83 2.322 1_565 S
Tb73 O84 2.349 . S
Tb73 O86 2.415 . S
Tb73 O87 2.399 . S
Tb73 O88 2.325 . S
Tb73 O91 2.303 1_455 S
Tb73 C102 2.764 . S
C74 O90 1.261 . S
C74 O91 1.257 1_545 S
C75 C78 1.358 . S
C75 C79 1.332 . S
C75 C81 1.504 . S
C76 C77 1.373 . S
C76 C80 1.308 . S
C77 C76 1.373 . S
C77 C78 1.429 . S
C77 H104 0.932 . S
C78 C75 1.358 . S
C78 C77 1.429 . S
C78 H105 0.930 . S
C79 C75 1.332 . S
C79 C80 1.394 . S
C79 H106 0.932 1_655 S
C80 C76 1.308 . S
C80 C79 1.394 . S
C80 H107 0.929 . S
C81 Tb72 2.764 . S
C81 C75 1.504 . S
C81 O93 1.239 . S
C81 O94 1.263 . S
O82 Tb72 2.325 . S
O82 C92 1.236 1_655 S
O83 Tb73 2.322 1_545 S
O83 C92 1.257 . S
O84 Tb73 2.349 . S
O84 C95 1.261 . S
O85 Tb72 2.303 1_455 S
O85 C95 1.257 1_545 S
O86 Tb73 2.415 . S
O86 C102 1.239 . S
O87 Tb73 2.399 . S
O87 C102 1.263 . S
O88 Tb73 2.325 . S
O88 C103 1.236 1_455 S
O89 Tb72 2.322 1_565 S
O89 C103 1.257 . S
O90 Tb72 2.349 . S
O90 C74 1.261 . S
O91 Tb73 2.303 1_655 S
O91 C74 1.257 1_565 S
C92 O82 1.236 1_455 S
C92 O83 1.257 . S
O93 Tb72 2.415 . S
O93 C81 1.239 . S
O94 Tb72 2.399 . S
O94 C81 1.263 . S
C95 O84 1.261 . S
C95 O85 1.257 1_565 S
C96 C99 1.358 . S
C96 C100 1.332 1_556 S
C96 C102 1.504 . S
C97 C98 1.373 . S
C97 C101 1.308 . S
C98 C97 1.373 . S
C98 C99 1.430 1_554 S
C98 H108 0.932 . S
C99 C96 1.358 . S
C99 C98 1.430 1_556 S
C99 H109 0.929 . S
C100 C96 1.332 1_554 S
C100 C101 1.394 . S
C100 H110 0.901 1_455 S
C101 C97 1.308 . S
C101 C100 1.394 . S
C101 H111 0.929 . S
C102 Tb73 2.764 . S
C102 O86 1.239 . S
C102 O87 1.263 . S
C102 C96 1.504 . S
C103 O88 1.236 1_655 S
C103 O89 1.257 . S
H104 C77 0.932 . S
H105 C78 0.930 . S
H106 C79 0.932 1_455 S
H107 C80 0.929 . S
H108 C98 0.932 . S
H109 C99 0.929 . S
H110 C100 0.901 1_655 S
H111 C101 0.929 . S
Tb112 C121 2.764 . S
Tb112 O122 2.325 . S
Tb112 O125 2.303 1_565 S
Tb112 O129 2.322 . S
Tb112 O130 2.349 . S
Tb112 O133 2.415 1_565 S
Tb112 O134 2.399 . S
Tb113 O123 2.322 . S
Tb113 O124 2.349 . S
Tb113 O126 2.415 1_545 S
Tb113 O127 2.399 . S
Tb113 O128 2.325 . S
Tb113 O131 2.303 1_545 S
Tb113 C142 2.764 1_556 S
C114 O130 1.261 . S
C114 O131 1.257 . S
C115 C118 1.358 . S
C115 C119 1.311 1_565 S
C115 C121 1.504 . S
C116 C117 1.373 . S
C116 C120 1.308 . S
C117 C116 1.373 . S
C117 C118 1.429 . S
C117 H144 0.932 . S
C118 C115 1.358 . S
C118 C117 1.429 . S
C118 H145 0.930 . S
C119 C115 1.311 1_545 S
C119 C120 1.395 1_545 S
C119 H146 0.953 . S
C120 C116 1.308 . S
C120 C119 1.395 1_565 S
C120 H147 0.929 1_565 S
C121 Tb112 2.764 . S
C121 C115 1.504 . S
C121 O133 1.239 1_565 S
C121 O134 1.263 . S
O122 Tb112 2.325 . S
O122 C132 1.236 1_565 S
O123 Tb113 2.322 . S
O123 C132 1.257 . S
O124 Tb113 2.349 . S
O124 C135 1.261 . S
O125 Tb112 2.303 1_545 S
O125 C135 1.257 . S
O126 Tb113 2.415 1_565 S
O126 C142 1.239 1_566 S
O127 Tb113 2.399 . S
O127 C142 1.263 1_556 S
O128 Tb113 2.325 . S
O128 C143 1.236 1_545 S
O129 Tb112 2.322 . S
O129 C143 1.257 . S
O130 Tb112 2.349 . S
O130 C114 1.261 . S
O131 Tb113 2.303 1_565 S
O131 C114 1.257 . S
C132 O122 1.236 1_545 S
C132 O123 1.257 . S
O133 Tb112 2.415 1_545 S
O133 C121 1.239 1_545 S
O134 Tb112 2.399 . S
O134 C121 1.263 . S
C135 O124 1.261 . S
C135 O125 1.257 . S
C136 C139 1.358 . S
C136 C140 1.319 1_545 S
C136 C142 1.504 . S
C137 C138 1.373 . S
C137 C141 1.308 . S
C138 C137 1.373 . S
C138 C139 1.429 . S
C138 H148 0.932 . S
C139 C136 1.358 . S
C139 C138 1.429 . S
C139 H149 0.930 . S
C140 C136 1.319 1_565 S
C140 C141 1.395 1_565 S
C140 H150 0.945 . S
C141 C137 1.308 . S
C141 C140 1.395 1_545 S
C141 H151 0.929 1_545 S
C142 Tb113 2.764 1_554 S
C142 O126 1.239 1_544 S
C142 O127 1.263 1_554 S
C142 C136 1.504 . S
C143 O128 1.236 1_565 S
C143 O129 1.257 . S
H144 C117 0.932 . S
H145 C118 0.930 . S
H146 C119 0.953 . S
H147 C120 0.929 1_545 S
H148 C138 0.932 . S
H149 C139 0.930 . S
H150 C140 0.945 . S
H151 C141 0.929 1_565 S
Tb152 C161 2.764 1_556 S
Tb152 O162 2.325 . S
Tb152 O165 2.303 . S
Tb152 O169 2.322 . S
Tb152 O170 2.349 . S
Tb152 O173 2.415 1_556 S
Tb152 O174 2.399 . S
Tb153 O163 2.322 . S
Tb153 O164 2.349 . S
Tb153 O166 2.415 . S
Tb153 O167 2.399 . S
Tb153 O168 2.325 . S
Tb153 O171 2.303 . S
Tb153 C182 2.764 . S
C154 O170 1.261 . S
C154 O171 1.257 . S
C155 C158 1.358 . S
C155 C159 1.332 . S
C155 C161 1.504 . S
C156 C157 1.373 . S
C156 C160 1.308 . S
C157 C156 1.373 . S
C157 C158 1.429 . S
C157 H184 0.932 . S
C158 C155 1.358 . S
C158 C157 1.429 . S
C158 H185 0.930 . S
C159 C155 1.332 . S
C159 C160 1.394 . S
C159 H186 0.932 . S
C160 C156 1.308 . S
C160 C159 1.394 . S
C160 H187 0.929 . S
C161 Tb152 2.764 1_554 S
C161 C155 1.504 . S
C161 O173 1.239 . S
C161 O174 1.263 1_554 S
O162 Tb152 2.325 . S
O162 C172 1.236 . S
O163 Tb153 2.322 . S
O163 C172 1.257 . S
O164 Tb153 2.349 . S
O164 C175 1.261 . S
O165 Tb152 2.303 . S
O165 C175 1.257 . S
O166 Tb153 2.415 . S
O166 C182 1.239 . S
O167 Tb153 2.399 . S
O167 C182 1.263 . S
O168 Tb153 2.325 . S
O168 C183 1.236 . S
O169 Tb152 2.322 . S
O169 C183 1.257 . S
O170 Tb152 2.349 . S
O170 C154 1.261 . S
O171 Tb153 2.303 . S
O171 C154 1.257 . S
C172 O162 1.236 . S
C172 O163 1.257 . S
O173 Tb152 2.415 1_554 S
O173 C161 1.239 . S
O174 Tb152 2.399 . S
O174 C161 1.263 1_556 S
C175 O164 1.261 . S
C175 O165 1.257 . S
C176 C179 1.358 . S
C176 C180 1.332 . S
C176 C182 1.504 . S
C177 C178 1.373 . S
C177 C181 1.308 . S
C178 C177 1.373 . S
C178 C179 1.429 . S
C178 H188 0.932 . S
C179 C176 1.358 . S
C179 C178 1.429 . S
C179 H189 0.930 . S
C180 C176 1.332 . S
C180 C181 1.394 . S
C180 H190 0.932 . S
C181 C177 1.308 . S
C181 C180 1.394 . S
C181 H191 0.929 . S
C182 Tb153 2.764 . S
C182 O166 1.239 . S
C182 O167 1.263 . S
C182 C176 1.504 . S
C183 O168 1.236 . S
C183 O169 1.257 . S
H184 C157 0.932 . S
H185 C158 0.930 . S
H186 C159 0.932 . S
H187 C160 0.929 . S
H188 C178 0.932 . S
H189 C179 0.930 . S
H190 C180 0.932 . S
H191 C181 0.929 . S
Tb192 C201 2.764 . S
Tb192 O202 2.325 . S
Tb192 O205 2.303 . S
Tb192 O209 2.322 1_455 S
Tb192 O210 2.349 . S
Tb192 O213 2.415 . S
Tb192 O214 2.399 . S
Tb193 O203 2.322 1_655 S
Tb193 O204 2.349 . S
Tb193 O206 2.415 . S
Tb193 O207 2.399 . S
Tb193 O208 2.325 . S
Tb193 O211 2.303 . S
Tb193 C222 2.764 . S
C194 O210 1.261 . S
C194 O211 1.257 1_455 S
C195 C198 1.358 . S
C195 C199 1.332 . S
C195 C201 1.504 . S
C196 C197 1.373 . S
C196 C200 1.308 . S
C197 C196 1.373 . S
C197 C198 1.429 . S
C197 H224 0.932 . S
C198 C195 1.358 . S
C198 C197 1.429 . S
C198 H225 0.930 . S
C199 C195 1.332 . S
C199 C200 1.394 . S
C199 H226 0.932 . S
C200 C196 1.308 . S
C200 C199 1.394 . S
C200 H227 0.929 . S
C201 Tb192 2.764 . S
C201 C195 1.504 . S
C201 O213 1.239 . S
C201 O214 1.263 . S
O202 Tb192 2.325 . S
O202 C212 1.236 . S
O203 Tb193 2.322 1_455 S
O203 C212 1.257 . S
O204 Tb193 2.349 . S
O204 C215 1.261 . S
O205 Tb192 2.303 . S
O205 C215 1.257 1_455 S
O206 Tb193 2.415 . S
O206 C222 1.239 . S
O207 Tb193 2.399 . S
O207 C222 1.263 . S
O208 Tb193 2.325 . S
O208 C223 1.236 . S
O209 Tb192 2.322 1_655 S
O209 C223 1.257 . S
O210 Tb192 2.349 . S
O210 C194 1.261 . S
O211 Tb193 2.303 . S
O211 C194 1.257 1_655 S
C212 O202 1.236 . S
C212 O203 1.257 . S
O213 Tb192 2.415 . S
O213 C201 1.239 . S
O214 Tb192 2.399 . S
O214 C201 1.263 . S
C215 O204 1.261 . S
C215 O205 1.257 1_655 S
C216 C219 1.358 . S
C216 C220 1.332 . S
C216 C222 1.504 1_554 S
C217 C218 1.373 . S
C217 C221 1.308 . S
C218 C217 1.373 . S
C218 C219 1.429 . S
C218 H228 0.932 . S
C219 C216 1.358 . S
C219 C218 1.429 . S
C219 H229 0.930 1_554 S
C220 C216 1.332 . S
C220 C221 1.394 . S
C220 H230 0.932 . S
C221 C217 1.308 . S
C221 C220 1.394 . S
C221 H231 0.929 . S
C222 Tb193 2.764 . S
C222 O206 1.239 . S
C222 O207 1.263 . S
C222 C216 1.504 1_556 S
C223 O208 1.236 . S
C223 O209 1.257 . S
H224 C197 0.932 . S
H225 C198 0.930 . S
H226 C199 0.932 . S
H227 C200 0.929 . S
H228 C218 0.932 . S
H229 C219 0.930 1_556 S
H230 C220 0.932 . S
H231 C221 0.929 . S
H232 C240 0.950 . S
H233 C245 0.950 . S
H234 C242 0.950 . S
H235 C244 0.950 . S
H236 C246 0.950 . S
H237 C248 0.950 . S
H238 C250 0.950 . S
H239 C251 0.950 . S
C240 H232 0.950 . S
C240 C241 1.386 . S
C240 C242 1.391 . S
C241 C240 1.386 . S
C241 C245 1.393 1_545 S
C242 H234 0.950 . S
C242 C240 1.391 . S
C242 C243 1.400 . S
C243 C242 1.400 . S
C243 C244 1.398 1_545 S
C243 C249 1.491 . S
C244 H235 0.950 . S
C244 C243 1.398 1_565 S
C244 C245 1.391 . S
C245 H233 0.950 . S
C245 C241 1.393 1_565 S
C245 C244 1.391 . S
C246 H236 0.950 . S
C246 C247 1.386 1_565 S
C246 C248 1.391 . S
C247 C246 1.386 1_545 S
C247 C251 1.393 . S
C248 H237 0.950 . S
C248 C246 1.391 . S
C248 C249 1.400 1_565 S
C249 C243 1.491 . S
C249 C248 1.400 1_545 S
C249 C250 1.398 . S
C250 H238 0.950 . S
C250 C249 1.398 . S
C250 C251 1.391 . S
C251 H239 0.950 . S
C251 C247 1.393 . S
C251 C250 1.391 . S
H252 C260 0.950 . S
H253 C265 0.950 . S
H254 C262 0.950 . S
H255 C264 0.950 . S
H256 C266 0.950 . S
H257 C268 0.950 . S
H258 C270 0.950 . S
H259 C271 0.950 . S
C260 H252 0.950 . S
C260 C261 1.386 . S
C260 C262 1.391 . S
C261 C260 1.386 . S
C261 C265 1.393 . S
C262 H254 0.950 . S
C262 C260 1.391 . S
C262 C263 1.400 . S
C263 C262 1.400 . S
C263 C264 1.398 . S
C263 C269 1.491 . S
C264 H255 0.950 . S
C264 C263 1.398 . S
C264 C265 1.391 . S
C265 H253 0.950 . S
C265 C261 1.393 . S
C265 C264 1.391 . S
C266 H256 0.950 . S
C266 C267 1.386 . S
C266 C268 1.391 . S
C267 C266 1.386 . S
C267 C271 1.393 . S
C268 H257 0.950 . S
C268 C266 1.391 . S
C268 C269 1.400 . S
C269 C263 1.491 . S
C269 C268 1.400 . S
C269 C270 1.398 . S
C270 H258 0.950 . S
C270 C269 1.398 . S
C270 C271 1.391 . S
C271 H259 0.950 . S
C271 C267 1.393 . S
C271 C270 1.391 . S
H272 C280 0.950 . S
H273 C285 0.950 . S
H274 C282 0.950 . S
H275 C284 0.950 . S
H276 C286 0.950 . S
H277 C288 0.950 . S
H278 C290 0.950 . S
H279 C291 0.950 . S
C280 H272 0.950 . S
C280 C281 1.386 . S
C280 C282 1.391 . S
C281 C280 1.386 . S
C281 C285 1.393 . S
C282 H274 0.950 . S
C282 C280 1.391 . S
C282 C283 1.400 . S
C283 C282 1.400 . S
C283 C284 1.398 . S
C283 C289 1.491 . S
C284 H275 0.950 . S
C284 C283 1.398 . S
C284 C285 1.391 . S
C285 H273 0.950 . S
C285 C281 1.393 . S
C285 C284 1.391 . S
C286 H276 0.950 . S
C286 C287 1.386 . S
C286 C288 1.391 . S
C287 C286 1.386 . S
C287 C291 1.393 . S
C288 H277 0.950 . S
C288 C286 1.391 . S
C288 C289 1.400 . S
C289 C283 1.491 . S
C289 C288 1.400 . S
C289 C290 1.398 . S
C290 H278 0.950 . S
C290 C289 1.398 . S
C290 C291 1.391 . S
C291 H279 0.950 . S
C291 C287 1.393 . S
C291 C290 1.391 . S
H292 C300 0.950 . S
H293 C305 0.950 . S
H294 C302 0.950 . S
H295 C304 0.950 . S
H296 C306 0.950 . S
H297 C308 0.950 . S
H298 C310 0.950 . S
H299 C311 0.950 . S
C300 H292 0.950 . S
C300 C301 1.408 . S
C300 C302 1.391 . S
C301 C300 1.408 . S
C301 C305 1.372 1_455 S
C302 H294 0.950 . S
C302 C300 1.391 . S
C302 C303 1.400 . S
C303 C302 1.400 . S
C303 C304 1.398 1_455 S
C303 C309 1.491 . S
C304 H295 0.950 . S
C304 C303 1.398 1_655 S
C304 C305 1.391 . S
C305 H293 0.950 . S
C305 C301 1.372 1_655 S
C305 C304 1.391 . S
C306 H296 0.950 . S
C306 C307 1.386 1_655 S
C306 C308 1.391 . S
C307 C306 1.386 1_455 S
C307 C311 1.393 . S
C308 H297 0.950 . S
C308 C306 1.391 . S
C308 C309 1.381 1_655 S
C309 C303 1.491 . S
C309 C308 1.381 1_455 S
C309 C310 1.418 . S
C310 H298 0.950 . S
C310 C309 1.418 . S
C310 C311 1.391 . S
C311 H299 0.950 . S
C311 C307 1.393 . S
C311 C310 1.391 . S
H312 C320 0.950 . S
H313 C325 0.950 . S
H314 C322 0.953 . S
H315 C324 0.953 . S
H316 C326 0.950 . S
H317 C328 0.950 . S
H318 C330 0.950 . S
H319 C331 0.950 . S
C320 H312 0.950 . S
C320 C321 1.389 . S
C320 C322 1.396 1_545 S
C321 C320 1.389 . S
C321 C325 1.394 . S
C322 H314 0.953 . S
C322 C320 1.396 1_565 S
C322 C323 1.400 . S
C323 C322 1.400 . S
C323 C324 1.407 1_565 S
C323 C329 1.488 . S
C324 H315 0.953 . S
C324 C323 1.407 1_545 S
C324 C325 1.384 . S
C325 H313 0.950 . S
C325 C321 1.394 . S
C325 C324 1.384 . S
C326 H316 0.950 . S
C326 C327 1.386 1_554 S
C326 C328 1.391 . S
C327 C326 1.386 1_556 S
C327 C331 1.393 . S
C328 H317 0.950 . S
C328 C326 1.391 . S
C328 C329 1.400 . S
C329 C323 1.488 . S
C329 C328 1.400 . S
C329 C330 1.398 . S
C330 H318 0.950 . S
C330 C329 1.398 . S
C330 C331 1.391 1_554 S
C331 H319 0.950 . S
C331 C327 1.393 . S
C331 C330 1.391 1_556 S
H332 C340 0.950 . S
H333 C345 0.950 . S
H334 C342 0.950 1_554 S
H335 C344 0.950 . S
H336 C346 0.950 . S
H337 C348 0.950 . S
H338 C350 0.950 . S
H339 C351 0.950 . S
C340 H332 0.950 . S
C340 C341 1.386 1_554 S
C340 C342 1.391 1_554 S
C341 C340 1.386 1_556 S
C341 C345 1.393 . S
C342 H334 0.950 1_556 S
C342 C340 1.391 1_556 S
C342 C343 1.400 . S
C343 C342 1.400 . S
C343 C344 1.398 . S
C343 C349 1.491 . S
C344 H335 0.950 . S
C344 C343 1.398 . S
C344 C345 1.391 . S
C345 H333 0.950 . S
C345 C341 1.393 . S
C345 C344 1.391 . S
C346 H336 0.950 . S
C346 C347 1.386 . S
C346 C348 1.391 . S
C347 C346 1.386 . S
C347 C351 1.393 . S
C348 H337 0.950 . S
C348 C346 1.391 . S
C348 C349 1.400 . S
C349 C343 1.491 . S
C349 C348 1.400 . S
C349 C350 1.398 . S
C350 H338 0.950 . S
C350 C349 1.398 . S
C350 C351 1.391 . S
C351 H339 0.950 . S
C351 C347 1.393 . S
C351 C350 1.391 . S
H352 C360 0.950 . S
H353 C365 0.950 . S
H354 C362 0.950 . S
H355 C364 0.950 . S
H356 C366 0.950 . S
H357 C368 0.950 . S
H358 C370 0.950 . S
H359 C371 0.950 . S
C360 H352 0.950 . S
C360 C361 1.386 . S
C360 C362 1.391 . S
C361 C360 1.386 . S
C361 C365 1.393 . S
C362 H354 0.950 . S
C362 C360 1.391 . S
C362 C363 1.400 . S
C363 C362 1.400 . S
C363 C364 1.398 . S
C363 C369 1.491 . S
C364 H355 0.950 . S
C364 C363 1.398 . S
C364 C365 1.391 . S
C365 H353 0.950 . S
C365 C361 1.393 . S
C365 C364 1.391 . S
C366 H356 0.950 . S
C366 C367 1.386 . S
C366 C368 1.391 1_556 S
C367 C366 1.386 . S
C367 C371 1.393 1_556 S
C368 H357 0.950 . S
C368 C366 1.391 1_554 S
C368 C369 1.400 . S
C369 C363 1.491 . S
C369 C368 1.400 . S
C369 C370 1.398 . S
C370 H358 0.950 . S
C370 C369 1.398 . S
C370 C371 1.391 . S
C371 H359 0.950 . S
C371 C367 1.393 1_554 S
C371 C370 1.391 . S
H372 C380 0.950 . S
H373 C385 0.950 . S
H374 C382 0.950 . S
H375 C384 0.950 . S
H376 C386 0.950 . S
H377 C388 0.950 . S
H378 C390 0.950 . S
H379 C391 0.950 . S
C380 H372 0.950 . S
C380 C381 1.373 1_655 S
C380 C382 1.391 . S
C381 C380 1.373 1_455 S
C381 C385 1.405 . S
C382 H374 0.950 . S
C382 C380 1.391 . S
C382 C383 1.414 . S
C383 C382 1.414 . S
C383 C384 1.384 1_655 S
C383 C389 1.492 . S
C384 H375 0.950 . S
C384 C383 1.384 1_455 S
C384 C385 1.391 . S
C385 H373 0.950 . S
C385 C381 1.405 . S
C385 C384 1.391 . S
C386 H376 0.950 . S
C386 C387 1.386 1_454 S
C386 C388 1.391 . S
C387 C386 1.386 1_656 S
C387 C391 1.393 . S
C388 H377 0.950 . S
C388 C386 1.391 . S
C388 C389 1.400 1_455 S
C389 C383 1.492 . S
C389 C388 1.400 1_655 S
C389 C390 1.398 . S
C390 H378 0.950 . S
C390 C389 1.398 . S
C390 C391 1.391 1_554 S
C391 H379 0.950 . S
C391 C387 1.393 . S
C391 C390 1.391 1_556 S
H392 C400 0.950 . S
H393 C405 0.950 . S
H394 C402 0.950 . S
H395 C404 0.950 . S
H396 C406 0.950 . S
H397 C408 0.950 . S
H398 C410 0.942 1_455 S
H399 C411 0.950 . S
C400 H392 0.950 . S
C400 C401 1.385 1_455 S
C400 C402 1.391 . S
C401 C400 1.385 1_655 S
C401 C405 1.395 . S
C402 H394 0.950 . S
C402 C400 1.391 . S
C402 C403 1.400 1_455 S
C403 C402 1.400 1_655 S
C403 C404 1.398 . S
C403 C409 1.491 . S
C404 H395 0.950 . S
C404 C403 1.398 . S
C404 C405 1.391 . S
C405 H393 0.950 . S
C405 C401 1.395 . S
C405 C404 1.391 . S
C406 H396 0.950 . S
C406 C407 1.386 . S
C406 C408 1.391 . S
C407 C406 1.386 . S
C407 C411 1.393 . S
C408 H397 0.950 . S
C408 C406 1.391 . S
C408 C409 1.400 . S
C409 C403 1.491 . S
C409 C408 1.400 . S
C409 C410 1.398 . S
C410 H398 0.942 1_655 S
C410 C409 1.398 . S
C410 C411 1.391 . S
C411 H399 0.950 . S
C411 C407 1.393 . S
C411 C410 1.391 . S
H412 C420 0.950 . S
H413 C425 0.950 . S
H414 C422 0.950 . S
H415 C424 0.950 . S
H416 C426 0.950 . S
H417 C428 0.950 . S
H418 C430 0.950 . S
H419 C431 0.950 . S
C420 H412 0.950 . S
C420 C421 1.386 . S
C420 C422 1.391 1_545 S
C421 C420 1.386 . S
C421 C425 1.393 1_545 S
C422 H414 0.950 . S
C422 C420 1.391 1_565 S
C422 C423 1.400 . S
C423 C422 1.400 . S
C423 C424 1.398 . S
C423 C429 1.491 . S
C424 H415 0.950 . S
C424 C423 1.398 . S
C424 C425 1.391 . S
C425 H413 0.950 . S
C425 C421 1.393 1_565 S
C425 C424 1.391 . S
C426 H416 0.950 . S
C426 C427 1.386 . S
C426 C428 1.391 . S
C427 C426 1.386 . S
C427 C431 1.393 . S
C428 H417 0.950 . S
C428 C426 1.391 . S
C428 C429 1.400 . S
C429 C423 1.491 . S
C429 C428 1.400 . S
C429 C430 1.398 . S
C430 H418 0.950 . S
C430 C429 1.398 . S
C430 C431 1.391 . S
C431 H419 0.950 . S
C431 C427 1.393 . S
C431 C430 1.391 . S
H432 C440 0.950 . S
H433 C445 0.950 . S
H434 C442 0.950 . S
H435 C444 0.950 . S
H436 C446 0.950 . S
H437 C448 0.950 . S
H438 C450 0.950 . S
H439 C451 0.950 . S
C440 H432 0.950 . S
C440 C441 1.386 . S
C440 C442 1.391 . S
C441 C440 1.386 . S
C441 C445 1.393 . S
C442 H434 0.950 . S
C442 C440 1.391 . S
C442 C443 1.400 . S
C443 C442 1.400 . S
C443 C444 1.398 . S
C443 C449 1.491 . S
C444 H435 0.950 . S
C444 C443 1.398 . S
C444 C445 1.391 . S
C445 H433 0.950 . S
C445 C441 1.393 . S
C445 C444 1.391 . S
C446 H436 0.950 . S
C446 C447 1.386 . S
C446 C448 1.391 . S
C447 C446 1.386 . S
C447 C451 1.393 . S
C448 H437 0.950 . S
C448 C446 1.391 . S
C448 C449 1.400 . S
C449 C443 1.491 . S
C449 C448 1.400 . S
C449 C450 1.398 . S
C450 H438 0.950 . S
C450 C449 1.398 . S
C450 C451 1.391 . S
C451 H439 0.950 . S
C451 C447 1.393 . S
C451 C450 1.391 . S
H452 C460 0.950 . S
H453 C465 0.950 . S
H454 C462 0.950 . S
H455 C464 0.950 . S
H456 C466 0.950 . S
H457 C468 0.950 . S
H458 C470 0.950 . S
H459 C471 0.950 . S
C460 H452 0.950 . S
C460 C461 1.386 . S
C460 C462 1.391 . S
C461 C460 1.386 . S
C461 C465 1.393 . S
C462 H454 0.950 . S
C462 C460 1.391 . S
C462 C463 1.400 . S
C463 C462 1.400 . S
C463 C464 1.398 . S
C463 C469 1.491 . S
C464 H455 0.950 . S
C464 C463 1.398 . S
C464 C465 1.391 . S
C465 H453 0.950 . S
C465 C461 1.393 . S
C465 C464 1.391 . S
C466 H456 0.950 . S
C466 C467 1.386 . S
C466 C468 1.391 . S
C467 C466 1.386 . S
C467 C471 1.393 . S
C468 H457 0.950 . S
C468 C466 1.391 . S
C468 C469 1.400 . S
C469 C463 1.491 . S
C469 C468 1.400 . S
C469 C470 1.398 . S
C470 H458 0.950 . S
C470 C469 1.398 . S
C470 C471 1.391 . S
C471 H459 0.950 . S
C471 C467 1.393 . S
C471 C470 1.391 . S
H472 C480 0.950 . S
H473 C485 0.950 . S
H474 C482 0.950 . S
H475 C484 0.950 . S
H476 C486 0.950 . S
H477 C488 0.950 . S
H478 C490 0.950 1_655 S
H479 C491 0.950 . S
C480 H472 0.950 . S
C480 C481 1.364 1_655 S
C480 C482 1.391 . S
C481 C480 1.364 1_455 S
C481 C485 1.430 . S
C482 H474 0.950 . S
C482 C480 1.391 . S
C482 C483 1.400 1_655 S
C483 C482 1.400 1_455 S
C483 C484 1.398 . S
C483 C489 1.491 . S
C484 H475 0.950 . S
C484 C483 1.398 . S
C484 C485 1.391 . S
C485 H473 0.950 . S
C485 C481 1.430 . S
C485 C484 1.391 . S
C486 H476 0.950 . S
C486 C487 1.386 . S
C486 C488 1.391 . S
C487 C486 1.386 . S
C487 C491 1.393 . S
C488 H477 0.950 . S
C488 C486 1.391 . S
C488 C489 1.400 . S
C489 C483 1.491 . S
C489 C488 1.400 . S
C489 C490 1.398 . S
C490 H478 0.950 1_455 S
C490 C489 1.398 . S
C490 C491 1.391 . S
C491 H479 0.950 . S
C491 C487 1.393 . S
C491 C490 1.391 . S
H492 C500 0.950 . S
H493 C505 0.950 . S
H494 C502 0.950 . S
H495 C504 0.950 . S
H496 C506 0.950 . S
H497 C508 0.950 1_565 S
H498 C510 0.950 . S
H499 C511 0.950 . S
C500 H492 0.950 . S
C500 C501 1.386 1_545 S
C500 C502 1.391 . S
C501 C500 1.386 1_565 S
C501 C505 1.393 . S
C502 H494 0.950 . S
C502 C500 1.391 . S
C502 C503 1.400 . S
C503 C502 1.400 . S
C503 C504 1.398 1_545 S
C503 C509 1.491 . S
C504 H495 0.950 . S
C504 C503 1.398 1_565 S
C504 C505 1.391 . S
C505 H493 0.950 . S
C505 C501 1.393 . S
C505 C504 1.391 . S
C506 H496 0.950 . S
C506 C507 1.386 . S
C506 C508 1.391 . S
C507 C506 1.386 . S
C507 C511 1.393 . S
C508 H497 0.950 1_545 S
C508 C506 1.391 . S
C508 C509 1.400 . S
C509 C503 1.491 . S
C509 C508 1.400 . S
C509 C510 1.398 . S
C510 H498 0.950 . S
C510 C509 1.398 . S
C510 C511 1.391 . S
C511 H499 0.950 . S
C511 C507 1.393 . S
C511 C510 1.391 . S
H512 C520 0.951 . S
H513 C525 0.950 . S
H514 C522 0.950 . S
H515 C524 0.950 . S
H516 C526 0.950 . S
H517 C528 0.950 . S
H518 C530 0.950 . S
H519 C531 0.950 . S
C520 H512 0.951 . S
C520 C521 1.386 . S
C520 C522 1.391 . S
C521 C520 1.386 . S
C521 C525 1.393 . S
C522 H514 0.950 . S
C522 C520 1.391 . S
C522 C523 1.400 . S
C523 C522 1.400 . S
C523 C524 1.398 . S
C523 C529 1.491 . S
C524 H515 0.950 . S
C524 C523 1.398 . S
C524 C525 1.391 . S
C525 H513 0.950 . S
C525 C521 1.393 . S
C525 C524 1.391 . S
C526 H516 0.950 . S
C526 C527 1.386 . S
C526 C528 1.391 . S
C527 C526 1.386 . S
C527 C531 1.393 . S
C528 H517 0.950 . S
C528 C526 1.391 . S
C528 C529 1.400 . S
C529 C523 1.491 . S
C529 C528 1.400 . S
C529 C530 1.398 . S
C530 H518 0.950 . S
C530 C529 1.398 . S
C530 C531 1.391 . S
C531 H519 0.950 . S
C531 C527 1.393 . S
C531 C530 1.391 . S
H532 C540 0.950 . S
H533 C545 0.950 . S
H534 C542 0.950 . S
H535 C544 0.950 . S
H536 C546 0.950 . S
H537 C548 0.950 . S
H538 C550 0.950 . S
H539 C551 0.950 . S
C540 H532 0.950 . S
C540 C541 1.386 . S
C540 C542 1.391 . S
C541 C540 1.386 . S
C541 C545 1.393 . S
C542 H534 0.950 . S
C542 C540 1.391 . S
C542 C543 1.400 . S
C543 C542 1.400 . S
C543 C544 1.398 . S
C543 C549 1.491 . S
C544 H535 0.950 . S
C544 C543 1.398 . S
C544 C545 1.391 . S
C545 H533 0.950 . S
C545 C541 1.393 . S
C545 C544 1.391 . S
C546 H536 0.950 . S
C546 C547 1.386 . S
C546 C548 1.391 . S
C547 C546 1.386 . S
C547 C551 1.393 . S
C548 H537 0.950 . S
C548 C546 1.391 . S
C548 C549 1.400 . S
C549 C543 1.491 . S
C549 C548 1.400 . S
C549 C550 1.398 . S
C550 H538 0.950 . S
C550 C549 1.398 . S
C550 C551 1.391 . S
C551 H539 0.950 . S
C551 C547 1.393 . S
C551 C550 1.391 . S
H552 C560 0.950 . S
H553 C565 0.950 . S
H554 C562 0.950 . S
H555 C564 0.950 1_556 S
H556 C566 0.950 . S
H557 C568 0.950 . S
H558 C570 0.949 . S
H559 C571 0.950 . S
C560 H552 0.950 . S
C560 C561 1.386 . S
C560 C562 1.391 . S
C561 C560 1.386 . S
C561 C565 1.393 1_455 S
C562 H554 0.950 . S
C562 C560 1.391 . S
C562 C563 1.400 . S
C563 C562 1.400 . S
C563 C564 1.398 1_455 S
C563 C569 1.491 1_554 S
C564 H555 0.950 1_554 S
C564 C563 1.398 1_655 S
C564 C565 1.391 . S
C565 H553 0.950 . S
C565 C561 1.393 1_655 S
C565 C564 1.391 . S
C566 H556 0.950 . S
C566 C567 1.386 1_655 S
C566 C568 1.391 . S
C567 C566 1.386 1_455 S
C567 C571 1.393 . S
C568 H557 0.950 . S
C568 C566 1.391 . S
C568 C569 1.400 1_655 S
C569 C563 1.491 1_556 S
C569 C568 1.400 1_455 S
C569 C570 1.399 1_556 S
C570 H558 0.949 . S
C570 C569 1.399 1_554 S
C570 C571 1.391 1_554 S
C571 H559 0.950 . S
C571 C567 1.393 . S
C571 C570 1.391 1_556 S
H572 C580 0.950 . S
H573 C585 0.950 . S
H574 C582 0.950 . S
H575 C584 0.950 . S
H576 C586 0.950 1_554 S
H577 C588 0.950 . S
H578 C590 0.950 . S
H579 C591 0.950 . S
C580 H572 0.950 . S
C580 C581 1.386 1_556 S
C580 C582 1.391 . S
C581 C580 1.386 1_554 S
C581 C585 1.393 1_545 S
C582 H574 0.950 . S
C582 C580 1.391 . S
C582 C583 1.400 . S
C583 C582 1.400 . S
C583 C584 1.398 1_546 S
C583 C589 1.491 . S
C584 H575 0.950 . S
C584 C583 1.398 1_564 S
C584 C585 1.391 . S
C585 H573 0.950 . S
C585 C581 1.393 1_565 S
C585 C584 1.391 . S
C586 H576 0.950 1_556 S
C586 C587 1.386 1_565 S
C586 C588 1.391 1_556 S
C587 C586 1.386 1_545 S
C587 C591 1.393 . S
C588 H577 0.950 . S
C588 C586 1.391 1_554 S
C588 C589 1.400 1_564 S
C589 C583 1.491 . S
C589 C588 1.400 1_546 S
C589 C590 1.398 . S
C590 H578 0.950 . S
C590 C589 1.398 . S
C590 C591 1.391 . S
C591 H579 0.950 . S
C591 C587 1.393 . S
C591 C590 1.391 . S
H592 C600 0.950 . S
H593 C605 0.950 . S
H594 C602 0.950 . S
H595 C604 0.950 . S
H596 C606 0.950 . S
H597 C608 0.950 . S
H598 C610 0.950 . S
H599 C611 0.950 . S
C600 H592 0.950 . S
C600 C601 1.386 . S
C600 C602 1.391 . S
C601 C600 1.386 . S
C601 C605 1.393 . S
C602 H594 0.950 . S
C602 C600 1.391 . S
C602 C603 1.400 . S
C603 C602 1.400 . S
C603 C604 1.398 . S
C603 C609 1.491 . S
C604 H595 0.950 . S
C604 C603 1.398 . S
C604 C605 1.391 . S
C605 H593 0.950 . S
C605 C601 1.393 . S
C605 C604 1.391 . S
C606 H596 0.950 . S
C606 C607 1.386 . S
C606 C608 1.391 . S
C607 C606 1.386 . S
C607 C611 1.393 . S
C608 H597 0.950 . S
C608 C606 1.391 . S
C608 C609 1.400 . S
C609 C603 1.491 . S
C609 C608 1.400 . S
C609 C610 1.398 . S
C610 H598 0.950 . S
C610 C609 1.398 . S
C610 C611 1.391 . S
C611 H599 0.950 . S
C611 C607 1.393 . S
C611 C610 1.391 . S
H612 C620 0.950 . S
H613 C625 0.950 . S
H614 C622 0.950 . S
H615 C624 0.950 . S
H616 C626 0.950 1_554 S
H617 C628 0.950 . S
H618 C630 0.950 . S
H619 C631 0.950 . S
C620 H612 0.950 . S
C620 C621 1.386 1_556 S
C620 C622 1.391 . S
C621 C620 1.386 1_554 S
C621 C625 1.393 . S
C622 H614 0.950 . S
C622 C620 1.391 . S
C622 C623 1.400 . S
C623 C622 1.400 . S
C623 C624 1.398 1_556 S
C623 C629 1.491 . S
C624 H615 0.950 . S
C624 C623 1.398 1_554 S
C624 C625 1.391 . S
C625 H613 0.950 . S
C625 C621 1.393 . S
C625 C624 1.391 . S
C626 H616 0.950 1_556 S
C626 C627 1.386 . S
C626 C628 1.391 1_556 S
C627 C626 1.386 . S
C627 C631 1.393 . S
C628 H617 0.950 . S
C628 C626 1.391 1_554 S
C628 C629 1.400 1_554 S
C629 C623 1.491 . S
C629 C628 1.400 1_556 S
C629 C630 1.398 . S
C630 H618 0.950 . S
C630 C629 1.398 . S
C630 C631 1.391 . S
C631 H619 0.950 . S
C631 C627 1.393 . S
C631 C630 1.391 . S
H632 C640 0.950 . S
H633 C645 0.950 . S
H634 C642 0.950 . S
H635 C644 0.950 . S
H636 C646 0.950 . S
H637 C648 0.950 . S
H638 C650 0.950 . S
H639 C651 0.950 . S
C640 H632 0.950 . S
C640 C641 1.386 . S
C640 C642 1.391 . S
C641 C640 1.386 . S
C641 C645 1.393 1_655 S
C642 H634 0.950 . S
C642 C640 1.391 . S
C642 C643 1.400 . S
C643 C642 1.400 . S
C643 C644 1.398 1_655 S
C643 C649 1.491 . S
C644 H635 0.950 . S
C644 C643 1.398 1_455 S
C644 C645 1.391 . S
C645 H633 0.950 . S
C645 C641 1.393 1_455 S
C645 C644 1.391 . S
C646 H636 0.950 . S
C646 C647 1.386 1_455 S
C646 C648 1.391 . S
C647 C646 1.386 1_655 S
C647 C651 1.393 . S
C648 H637 0.950 . S
C648 C646 1.391 . S
C648 C649 1.400 1_455 S
C649 C643 1.491 . S
C649 C648 1.400 1_655 S
C649 C650 1.398 . S
C650 H638 0.950 . S
C650 C649 1.398 . S
C650 C651 1.391 . S
C651 H639 0.950 . S
C651 C647 1.393 . S
C651 C650 1.391 . S
H652 C660 0.950 . S
H653 C665 0.950 . S
H654 C662 0.950 . S
H655 C664 0.950 . S
H656 C666 0.950 . S
H657 C668 0.950 . S
H658 C670 0.950 . S
H659 C671 0.950 . S
C660 H652 0.950 . S
C660 C661 1.386 1_545 S
C660 C662 1.391 . S
C661 C660 1.386 1_565 S
C661 C665 1.393 . S
C662 H654 0.950 . S
C662 C660 1.391 . S
C662 C663 1.400 1_545 S
C663 C662 1.400 1_565 S
C663 C664 1.398 . S
C663 C669 1.491 . S
C664 H655 0.950 . S
C664 C663 1.398 . S
C664 C665 1.391 . S
C665 H653 0.950 . S
C665 C661 1.393 . S
C665 C664 1.391 . S
C666 H656 0.950 . S
C666 C667 1.386 . S
C666 C668 1.391 . S
C667 C666 1.386 . S
C667 C671 1.393 1_565 S
C668 H657 0.950 . S
C668 C666 1.391 . S
C668 C669 1.400 . S
C669 C663 1.491 . S
C669 C668 1.400 . S
C669 C670 1.398 1_565 S
C670 H658 0.950 . S
C670 C669 1.398 1_545 S
C670 C671 1.391 . S
C671 H659 0.950 . S
C671 C667 1.393 1_545 S
C671 C670 1.391 . S
H672 C680 0.950 . S
H673 C685 0.950 . S
H674 C682 0.950 . S
H675 C684 0.950 . S
H676 C686 0.950 . S
H677 C688 0.950 . S
H678 C690 0.950 . S
H679 C691 0.950 . S
C680 H672 0.950 . S
C680 C681 1.386 . S
C680 C682 1.391 . S
C681 C680 1.386 . S
C681 C685 1.393 . S
C682 H674 0.950 . S
C682 C680 1.391 . S
C682 C683 1.400 . S
C683 C682 1.400 . S
C683 C684 1.398 . S
C683 C689 1.491 . S
C684 H675 0.950 . S
C684 C683 1.398 . S
C684 C685 1.391 . S
C685 H673 0.950 . S
C685 C681 1.393 . S
C685 C684 1.391 . S
C686 H676 0.950 . S
C686 C687 1.386 . S
C686 C688 1.391 . S
C687 C686 1.386 . S
C687 C691 1.393 . S
C688 H677 0.950 . S
C688 C686 1.391 . S
C688 C689 1.400 . S
C689 C683 1.491 . S
C689 C688 1.400 . S
C689 C690 1.398 . S
C690 H678 0.950 . S
C690 C689 1.398 . S
C690 C691 1.391 . S
C691 H679 0.950 . S
C691 C687 1.393 . S
C691 C690 1.391 . S
H692 C700 0.950 . S
H693 C705 0.950 . S
H694 C702 0.950 . S
H695 C704 0.950 . S
H696 C706 0.950 . S
H697 C708 0.950 . S
H698 C710 0.950 . S
H699 C711 0.950 . S
C700 H692 0.950 . S
C700 C701 1.386 . S
C700 C702 1.391 . S
C701 C700 1.386 . S
C701 C705 1.393 . S
C702 H694 0.950 . S
C702 C700 1.391 . S
C702 C703 1.400 . S
C703 C702 1.400 . S
C703 C704 1.398 . S
C703 C709 1.491 . S
C704 H695 0.950 . S
C704 C703 1.398 . S
C704 C705 1.391 . S
C705 H693 0.950 . S
C705 C701 1.393 . S
C705 C704 1.391 . S
C706 H696 0.950 . S
C706 C707 1.386 . S
C706 C708 1.391 . S
C707 C706 1.386 . S
C707 C711 1.393 . S
C708 H697 0.950 . S
C708 C706 1.391 . S
C708 C709 1.400 . S
C709 C703 1.491 . S
C709 C708 1.400 . S
C709 C710 1.398 . S
C710 H698 0.950 . S
C710 C709 1.398 . S
C710 C711 1.391 . S
C711 H699 0.950 . S
C711 C707 1.393 . S
C711 C710 1.391 . S
C241 C61 1.843 1_545 S
C247 C95 1.968 1_545 S
C267 C135 1.577 . S
C261 C70 1.581 . S
C287 C154 2.027 . S
C281 C43 1.898 . S
C307 C215 1.399 1_455 S
C301 C52 1.337 1_455 S
C327 C74 1.979 1_565 S
C321 C25 1.832 1_545 S
C341 C34 1.582 . S
C347 C114 1.580 . S
C361 C7 1.885 . S
C367 C175 2.028 . S
C381 C16 1.312 1_455 S
C387 C194 1.410 1_655 S
C407 C76 0.824 . S
C401 C50 0.835 . S
C427 C116 0.356 . S
C421 C59 0.286 1_545 S
C447 C172 0.601 . S
C441 C67 0.671 . S
C461 C41 0.415 . S
C467 C196 0.435 . S
C481 C14 0.813 1_455 S
C487 C97 0.809 . S
C507 C137 0.354 . S
C501 C23 0.274 . S
C527 C183 0.600 . S
C521 C31 0.671 . S
C541 C5 0.381 . S
C547 C217 0.448 . S
C561 C49 1.517 1_455 S
C567 C92 1.680 . S
C581 C58 2.118 1_545 S
C587 C132 2.342 . S
C607 C156 1.654 . S
C601 C68 1.664 . S
C627 C212 2.318 . S
C621 C40 2.114 . S
C641 C13 1.550 . S
C647 C103 1.682 . S
C667 C143 2.343 . S
C661 C22 2.114 . S
C687 C177 1.655 . S
C681 C32 1.664 . S
C701 C4 2.108 . S
C707 C223 2.328 . S
