# Generated by pormake.
# Topology csq, (4,8)-cn, num edge types: 1
# Building blocks:
#     Node 0, Type 0, BuildingBlock: IZENUY_clean_linker_0, # of connection points: 4
#     Node 1, Type 0, BuildingBlock: IZENUY_clean_linker_0, # of connection points: 4
#     Node 2, Type 0, BuildingBlock: IZENUY_clean_linker_0, # of connection points: 4
#     Node 3, Type 0, BuildingBlock: IZENUY_clean_linker_0, # of connection points: 4
#     Node 4, Type 0, BuildingBlock: IZENUY_clean_linker_0, # of connection points: 4
#     Node 5, Type 0, BuildingBlock: IZENUY_clean_linker_0, # of connection points: 4
#     Node 6, Type 1, BuildingBlock: TAGTUT_clean_sbu_3, # of connection points: 8
#     Node 7, Type 1, BuildingBlock: TAGTUT_clean_sbu_3, # of connection points: 8
#     Node 8, Type 1, BuildingBlock: TAGTUT_clean_sbu_3, # of connection points: 8
#     Edge 9, Type (0, 1), BuildingBlock: CIFDUS_clean_linker_0, # of connection points: 2
#     Edge 10, Type (0, 1), BuildingBlock: CIFDUS_clean_linker_0, # of connection points: 2
#     Edge 11, Type (0, 1), BuildingBlock: CIFDUS_clean_linker_0, # of connection points: 2
#     Edge 12, Type (0, 1), BuildingBlock: CIFDUS_clean_linker_0, # of connection points: 2
#     Edge 13, Type (0, 1), BuildingBlock: CIFDUS_clean_linker_0, # of connection points: 2
#     Edge 14, Type (0, 1), BuildingBlock: CIFDUS_clean_linker_0, # of connection points: 2
#     Edge 15, Type (0, 1), BuildingBlock: CIFDUS_clean_linker_0, # of connection points: 2
#     Edge 16, Type (0, 1), BuildingBlock: CIFDUS_clean_linker_0, # of connection points: 2
#     Edge 17, Type (0, 1), BuildingBlock: CIFDUS_clean_linker_0, # of connection points: 2
#     Edge 18, Type (0, 1), BuildingBlock: CIFDUS_clean_linker_0, # of connection points: 2
#     Edge 19, Type (0, 1), BuildingBlock: CIFDUS_clean_linker_0, # of connection points: 2
#     Edge 20, Type (0, 1), BuildingBlock: CIFDUS_clean_linker_0, # of connection points: 2
#     Edge 21, Type (0, 1), BuildingBlock: CIFDUS_clean_linker_0, # of connection points: 2
#     Edge 22, Type (0, 1), BuildingBlock: CIFDUS_clean_linker_0, # of connection points: 2
#     Edge 23, Type (0, 1), BuildingBlock: CIFDUS_clean_linker_0, # of connection points: 2
#     Edge 24, Type (0, 1), BuildingBlock: CIFDUS_clean_linker_0, # of connection points: 2
#     Edge 25, Type (0, 1), BuildingBlock: CIFDUS_clean_linker_0, # of connection points: 2
#     Edge 26, Type (0, 1), BuildingBlock: CIFDUS_clean_linker_0, # of connection points: 2
#     Edge 27, Type (0, 1), BuildingBlock: CIFDUS_clean_linker_0, # of connection points: 2
#     Edge 28, Type (0, 1), BuildingBlock: CIFDUS_clean_linker_0, # of connection points: 2
#     Edge 29, Type (0, 1), BuildingBlock: CIFDUS_clean_linker_0, # of connection points: 2
#     Edge 30, Type (0, 1), BuildingBlock: CIFDUS_clean_linker_0, # of connection points: 2
#     Edge 31, Type (0, 1), BuildingBlock: CIFDUS_clean_linker_0, # of connection points: 2
#     Edge 32, Type (0, 1), BuildingBlock: CIFDUS_clean_linker_0, # of connection points: 2
# Relax obj value: 0.054
# Max RMSD: 0.128
# Mean RMSD: 0.120
data_MOF--net-csq--node1-TAGTUT_clean_sbu_3--node2-IZENUY_clean_linker_0--edge1-CIFDUS_clean_linker_0
_symmetry_space_group_name_H-M    P1
_symmetry_Int_Tables_number       1
_symmetry_cell_setting            triclinic
loop_
_symmetry_equiv_pos_as_xyz
'x, y, z'
_cell_length_a     51.371373
_cell_length_b     50.76773
_cell_length_c     16.590412
_cell_angle_alpha  93.559708
_cell_angle_beta   94.250626
_cell_angle_gamma 119.47738
loop_
_atom_site_label
_atom_site_type_symbol
_atom_site_fract_x
_atom_site_fract_y
_atom_site_fract_z
_atom_type_partial_charge
H0 H 0.23165 0.49364 0.04376 0.0
H1 H 0.24363 0.52835 0.2965 0.0
H2 H 0.15847 0.49431 0.15161 0.0
H3 H 0.31855 0.52302 0.26439 0.0
H4 H 0.3166 0.51528 0.00271 0.0
H5 H 0.39465 0.53025 0.15781 0.0
N6 N 0.27191 0.5184 0.18039 0.0
N7 N 0.2845 0.51527 0.12177 0.0
C8 C 0.22294 0.49902 0.09597 0.0
C9 C 0.19268 0.4918 0.08934 0.0
C10 C 0.24162 0.5124 0.17076 0.0
C11 C 0.22967 0.51875 0.23847 0.0
C12 C 0.19948 0.51188 0.23148 0.0
C13 C 0.18157 0.49892 0.15685 0.0
C14 C 0.32957 0.52412 0.21049 0.0
C15 C 0.35864 0.52814 0.21862 0.0
C16 C 0.31444 0.52025 0.13223 0.0
C17 C 0.3286 0.51952 0.06287 0.0
C18 C 0.35802 0.52384 0.07154 0.0
C19 C 0.37272 0.52863 0.14979 0.0
H20 H 0.74025 0.24414 0.951 0.0
H21 H 0.73417 0.24115 0.20939 0.0
H22 H 0.66817 0.16701 0.03788 0.0
H23 H 0.81558 0.31424 0.19519 0.0
H24 H 0.80607 0.33236 0.94687 0.0
H25 H 0.88228 0.39705 0.11487 0.0
N26 N 0.76716 0.27505 0.10214 0.0
N27 N 0.77993 0.29181 0.04914 0.0
C28 C 0.72885 0.23283 0.00139 0.0
C29 C 0.7028 0.20401 -0.0139 0.0
C30 C 0.74035 0.24639 0.08274 0.0
C31 C 0.72531 0.23095 0.14712 0.0
C32 C 0.69874 0.20263 0.131 0.0
C33 C 0.68807 0.18946 0.0507 0.0
C34 C 0.8234 0.32909 0.14769 0.0
C35 C 0.85071 0.35674 0.16365 0.0
C36 C 0.80703 0.32023 0.06904 0.0
C37 C 0.81824 0.33942 0.00758 0.0
C38 C 0.84506 0.36755 0.02424 0.0
C39 C 0.86093 0.3759 0.10234 0.0
H40 H 0.55168 0.74559 0.8949 0.0
H41 H 0.54456 0.73936 0.15154 0.0
H42 H 0.54255 0.66661 -0.00171 0.0
H43 H 0.55288 0.8199 0.12034 0.0
H44 H 0.56345 0.82911 0.86565 0.0
H45 H 0.56643 0.90137 0.02354 0.0
N46 N 0.55103 0.7753 0.03595 0.0
N47 N 0.55472 0.79136 0.97899 0.0
C48 C 0.54898 0.73323 0.94748 0.0
C49 C 0.54704 0.70474 0.93863 0.0
C50 C 0.54817 0.74594 0.02456 0.0
C51 C 0.54501 0.7295 0.0922 0.0
C52 C 0.54241 0.70047 0.08322 0.0
C53 C 0.54358 0.6885 0.00601 0.0
C54 C 0.55647 0.83292 0.06885 0.0
C55 C 0.55939 0.86181 0.07985 0.0
C56 C 0.55775 0.8208 -0.00863 0.0
C57 C 0.5623 0.83823 0.92524 0.0
C58 C 0.56602 0.86766 0.93682 0.0
C59 C 0.56419 0.87896 0.0142 0.0
H60 H 0.74664 0.52077 0.90926 0.0
H61 H 0.76508 0.53464 0.17183 0.0
H62 H 0.69231 0.54237 0.0533 0.0
H63 H 0.83407 0.52744 0.09701 0.0
H64 H 0.81226 0.50613 0.83681 0.0
H65 H 0.88536 0.49978 0.95716 0.0
N66 N 0.78463 0.52328 0.03692 0.0
N67 N 0.79263 0.51813 0.97116 0.0
C68 C 0.74168 0.52602 0.96851 0.0
C69 C 0.71774 0.53171 0.97364 0.0
C70 C 0.75938 0.52765 0.0401 0.0
C71 C 0.75208 0.53405 0.11656 0.0
C72 C 0.72813 0.53989 0.12121 0.0
C73 C 0.71137 0.53875 0.04966 0.0
C74 C 0.83762 0.51913 0.03954 0.0
C75 C 0.86276 0.51522 0.03513 0.0
C76 C 0.81813 0.51414 0.9684 0.0
C77 C 0.82524 0.50703 0.89249 0.0
C78 C 0.84973 0.50201 0.88897 0.0
C79 C 0.86662 0.50386 0.96088 0.0
H80 H 0.2016 0.75451 0.00806 0.0
H81 H 0.23416 0.75707 0.25784 0.0
H82 H 0.15981 0.67469 0.1332 0.0
H83 H 0.28627 0.8399 0.2133 0.0
H84 H 0.26528 0.83966 0.95624 0.0
H85 H 0.33839 0.91942 0.09587 0.0
N86 N 0.24387 0.79038 0.13693 0.0
N87 N 0.24835 0.80551 0.07784 0.0
C88 C 0.20061 0.74327 0.06207 0.0
C89 C 0.17817 0.7127 0.06266 0.0
C90 C 0.22106 0.75937 0.13294 0.0
C91 C 0.21887 0.74463 0.20311 0.0
C92 C 0.19717 0.71398 0.20279 0.0
C93 C 0.17712 0.69827 0.13258 0.0
C94 C 0.29003 0.8516 0.15924 0.0
C95 C 0.31432 0.88141 0.163 0.0
C96 C 0.27178 0.83646 0.08463 0.0
C97 C 0.27809 0.85163 0.01444 0.0
C98 C 0.30183 0.88177 0.0189 0.0
C99 C 0.31932 0.89653 0.09336 0.0
H100 H 0.51466 0.22074 0.08271 0.0
H101 H 0.50525 0.23065 0.33614 0.0
H102 H 0.54632 0.17966 0.25543 0.0
H103 H 0.4811 0.28683 0.23539 0.0
H104 H 0.49929 0.28274 -0.01365 0.0
H105 H 0.46931 0.34357 0.07174 0.0
N106 N 0.50067 0.25091 0.19426 0.0
N107 N 0.5 0.25995 0.1261 0.0
C108 C 0.51887 0.21672 0.14424 0.0
C109 C 0.53071 0.19741 0.15928 0.0
C110 C 0.51105 0.23003 0.20835 0.0
C111 C 0.51311 0.22219 0.28753 0.0
C112 C 0.52541 0.20348 0.30366 0.0
C113 C 0.53579 0.19297 0.24055 0.0
C114 C 0.4814 0.29393 0.17506 0.0
C115 C 0.47338 0.31614 0.16083 0.0
C116 C 0.49049 0.28148 0.11204 0.0
C117 C 0.49159 0.29162 0.03447 0.0
C118 C 0.48348 0.31374 0.01986 0.0
C119 C 0.47425 0.32556 0.08284 0.0
C120 C 0.07474 0.49523 0.51338 0.0
C121 C 0.05479 0.45723 0.79756 0.0
C122 C 0.96825 0.4537 0.74385 0.0
Mg123 Mg 0.0496 0.53386 0.41849 0.0
Mg124 Mg 0.03132 0.57911 0.52218 0.0
O125 O 0.02546 0.53976 0.49962 0.0
Mg126 Mg 0.03343 0.52042 0.58976 0.0
O127 O 0.04164 0.4991 0.67542 0.0
Mg128 Mg 0.01899 0.45628 0.61933 0.0
Mg129 Mg 0.03346 0.50486 0.78115 0.0
C130 C 0.98928 0.54593 0.65478 0.0
O131 O 0.06743 0.56608 0.66756 0.0
O132 O 0.02377 0.54925 0.32853 0.0
O133 O 0.05803 0.55462 0.79547 0.0
O134 O 0.08862 0.58346 0.44716 0.0
O135 O 1.01038 0.57787 0.4057 0.0
O136 O 0.07858 0.61205 0.53237 0.0
O137 O 0.99919 0.4738 0.52033 0.0
O138 O 1.01101 0.48448 0.39496 0.0
C139 C 0.99549 0.46576 0.44378 0.0
C140 C 1.00993 0.56443 0.33737 0.0
O141 O 0.99574 0.52442 0.64964 0.0
O142 O 0.0434 0.44522 0.7241 0.0
O143 O 1.00316 0.57017 0.61963 0.0
O144 O 0.97749 0.4424 0.68944 0.0
O145 O 0.05339 0.47986 0.83124 0.0
O146 O 0.98564 0.47987 0.78308 0.0
O147 O 0.07008 0.51787 0.52111 0.0
O148 O 0.0592 0.47118 0.54748 0.0
C149 C 0.09666 0.6087 0.48979 0.0
C150 C 0.071 0.57386 0.74464 0.0
C151 C 0.50459 0.06922 0.51518 0.0
C152 C 0.58381 0.06605 0.35068 0.0
C153 C 0.54236 0.97006 0.39942 0.0
Mg154 Mg 0.47237 0.03096 0.66328 0.0
Mg155 Mg 0.50431 1.00236 0.78257 0.0
O156 O 0.49388 1.00728 0.67746 0.0
Mg157 Mg 0.52231 0.02225 0.59501 0.0
O158 O 0.54793 0.03733 0.50653 0.0
Mg159 Mg 0.51618 0.01994 0.41036 0.0
Mg160 Mg 0.5811 0.03145 0.50071 0.0
C161 C 0.53703 0.9734 0.68711 0.0
O162 O 0.56558 0.0549 0.68243 0.0
O163 O 0.4366 0.99707 0.74077 0.0
O164 O 0.60221 0.05098 0.6241 0.0
O165 O 0.50004 0.06459 0.77932 0.0
O166 O 0.45897 0.97467 0.80703 0.0
O167 O 0.52428 0.04582 0.85197 0.0
O168 O 0.48237 0.99185 0.49784 0.0
O169 O 0.44631 0.99738 0.54986 0.0
C170 C 0.45496 0.98581 0.49448 0.0
C171 C 0.43573 0.97686 0.78532 0.0
O172 O 0.53375 0.98346 0.61971 0.0
O173 O 0.55484 0.05231 0.33934 0.0
O174 O 0.52995 0.98052 0.75428 0.0
O175 O 0.52504 0.98051 0.37867 0.0
O176 O 0.59829 0.06087 0.40785 0.0
O177 O 0.5653 0.98501 0.4527 0.0
O178 O 0.50937 0.0598 0.58163 0.0
O179 O 0.50694 0.05834 0.44628 0.0
C180 C 0.51794 0.06674 0.84068 0.0
C181 C 0.59315 0.06127 0.68184 0.0
C182 C 0.55552 0.58206 0.68442 0.0
C183 C 0.47126 0.49846 0.82198 0.0
C184 C 0.50852 0.44049 0.74067 0.0
Mg185 Mg 0.58523 0.57818 0.52313 0.0
Mg186 Mg 0.54771 0.52144 0.37692 0.0
O187 O 0.5611 0.53315 0.48769 0.0
Mg188 Mg 0.53335 0.51857 0.57316 0.0
O189 O 0.50808 0.50648 0.66361 0.0
Mg190 Mg 0.53923 0.51807 0.75845 0.0
Mg191 Mg 0.47363 0.46763 0.65745 0.0
C192 C 0.51241 0.4574 0.44788 0.0
O193 O 0.49077 0.51109 0.49503 0.0
O194 O 0.61883 0.57965 0.43268 0.0
O195 O 0.45362 0.46885 0.53874 0.0
O196 O 0.55988 0.59036 0.42375 0.0
O197 O 0.59247 0.53704 0.34419 0.0
O198 O 0.53038 0.54994 0.3338 0.0
O199 O 0.57252 0.52387 0.66268 0.0
O200 O 0.60932 0.56624 0.62234 0.0
C201 C 0.60013 0.54502 0.66881 0.0
C202 C 0.61721 0.56097 0.37371 0.0
O203 O 0.51886 0.46935 0.5224 0.0
O204 O 0.50032 0.51272 0.8349 0.0
O205 O 0.51865 0.4731 0.38699 0.0
O206 O 0.52735 0.46807 0.76923 0.0
O207 O 0.45657 0.47954 0.75868 0.0
O208 O 0.48597 0.4341 0.68903 0.0
O209 O 0.54937 0.56899 0.61178 0.0
O210 O 0.55204 0.56728 0.74611 0.0
C211 C 0.54046 0.5778 0.3606 0.0
C212 C 0.46307 0.48977 0.49073 0.0
H213 H 0.15558 0.46695 0.29709 0.0
H214 H 0.20817 0.56465 0.31527 0.0
H215 H 0.1738 0.56891 0.40437 0.0
H216 H 0.12597 0.54391 0.46896 0.0
H217 H 0.0738 0.44557 0.44221 0.0
H218 H 0.11031 0.44254 0.36373 0.0
C219 C 0.15993 0.48917 0.32248 0.0
C220 C 0.18451 0.51541 0.30104 0.0
C221 C 0.13962 0.49129 0.37057 0.0
C222 C 0.18971 0.54414 0.33266 0.0
C223 C 0.16977 0.54651 0.38243 0.0
C224 C 0.12265 0.52191 0.44561 0.0
C225 C 0.09707 0.49503 0.46174 0.0
C226 C 0.14413 0.52016 0.40021 0.0
C227 C 0.09324 0.46666 0.43142 0.0
C228 C 0.11418 0.46481 0.38652 0.0
H229 H 0.63887 0.17481 0.137 0.0
H230 H 0.72155 0.18915 0.26647 0.0
H231 H 0.69273 0.14763 0.34733 0.0
H232 H 0.64455 0.10376 0.36869 0.0
H233 H 0.56222 0.08717 0.23005 0.0
H234 H 0.59071 0.13244 0.16216 0.0
C235 C 0.65054 0.16912 0.18396 0.0
C236 C 0.68223 0.18469 0.1954 0.0
C237 C 0.634 0.14416 0.226 0.0
C238 C 0.69717 0.17758 0.25704 0.0
C239 C 0.68071 0.1535 0.30204 0.0
C240 C 0.63275 0.10983 0.32323 0.0
C241 C 0.60126 0.09175 0.3038 0.0
C242 C 0.64921 0.13591 0.2846 0.0
C243 C 0.58644 0.10033 0.24545 0.0
C244 C 0.60265 0.12639 0.20717 0.0
H245 H 0.50428 0.64018 0.0917 0.0
H246 H 0.57655 0.72105 0.23205 0.0
H247 H 0.57992 0.69034 0.33613 0.0
H248 H 0.56673 0.63989 0.37786 0.0
H249 H 0.49547 0.55894 0.23425 0.0
H250 H 0.48703 0.59035 0.14212 0.0
C251 C 0.52051 0.65114 0.14567 0.0
C252 C 0.54039 0.68287 0.15358 0.0
C253 C 0.52273 0.63326 0.20433 0.0
C254 C 0.56093 0.69675 0.22448 0.0
C255 C 0.56304 0.67913 0.28366 0.0
C256 C 0.54903 0.62905 0.32707 0.0
C257 C 0.53212 0.59695 0.31249 0.0
C258 C 0.54472 0.64725 0.27288 0.0
C259 C 0.50917 0.58348 0.2465 0.0
C260 C 0.50438 0.60145 0.19343 0.0
H261 H 0.92289 0.54394 0.02539 0.0
H262 H 0.85817 0.51223 0.1992 0.0
H263 H 0.89925 0.52831 0.30908 0.0
H264 H 0.95277 0.54744 0.35322 0.0
H265 H 1.01592 0.57138 0.17629 0.0
H266 H 0.97569 0.56116 0.06816 0.0
C267 C 0.91747 0.53981 0.08695 0.0
C268 C 0.88726 0.52613 0.10364 0.0
C269 C 0.94086 0.54755 0.1486 0.0
C270 C 0.8811 0.52259 0.18452 0.0
C271 C 0.90455 0.53158 0.24717 0.0
C272 C 0.95773 0.5508 0.29099 0.0
C273 C 0.98714 0.56057 0.2721 0.0
C274 C 0.93438 0.54358 0.22952 0.0
C275 C 0.9934 0.56411 0.19157 0.0
C276 C 0.97047 0.55824 0.13022 0.0
H277 H 0.37448 0.90533 0.17199 0.0
H278 H 0.30364 0.8913 0.3179 0.0
H279 H 0.34129 0.92205 0.43463 0.0
H280 H 0.39423 0.95542 0.49138 0.0
H281 H 0.46503 0.96881 0.34528 0.0
H282 H 0.42741 0.93579 0.2317 0.0
C283 C 0.36735 0.9089 0.22966 0.0
C284 C 0.33645 0.89647 0.23656 0.0
C285 C 0.38905 0.92666 0.29572 0.0
C286 C 0.32733 0.90069 0.31155 0.0
C287 C 0.34883 0.9184 0.37784 0.0
C288 C 0.40147 0.95116 0.43465 0.0
C289 C 0.43243 0.96496 0.42636 0.0
C290 C 0.37973 0.93197 0.37002 0.0
C291 C 0.4414 0.95867 0.35309 0.0
C292 C 0.41989 0.93979 0.28816 0.0
H293 H 0.50478 0.33805 0.31212 0.0
H294 H 0.42993 0.33229 0.15977 0.0
H295 H 0.43183 0.37355 0.24816 0.0
H296 H 0.46228 0.41826 0.34888 0.0
H297 H 0.53661 0.42399 0.50254 0.0
H298 H 0.52693 0.37516 0.43512 0.0
C299 C 0.48808 0.34493 0.3001 0.0
C300 C 0.4679 0.33286 0.22801 0.0
C301 C 0.48953 0.36896 0.35079 0.0
C302 C 0.44627 0.3419 0.21367 0.0
C303 C 0.44737 0.36553 0.26406 0.0
C304 C 0.47553 0.40811 0.36948 0.0
C305 C 0.50028 0.42455 0.42933 0.0
C306 C 0.47007 0.38039 0.32975 0.0
C307 C 0.51739 0.41148 0.45641 0.0
C308 C 0.51205 0.38377 0.41728 0.0
H309 H 0.53045 0.85685 0.79351 0.0
H310 H 0.61374 0.92388 0.93464 0.0
H311 H 0.61595 0.96308 0.85286 0.0
H312 H 0.58821 0.98012 0.76381 0.0
H313 H 0.50438 0.91409 0.62418 0.0
H314 H 0.50861 0.87265 0.68037 0.0
C315 C 0.54965 0.87975 0.80391 0.0
C316 C 0.57171 0.8876 0.87062 0.0
C317 C 0.55044 0.90248 0.75743 0.0
C318 C 0.59641 0.91742 0.88396 0.0
C319 C 0.59759 0.93989 0.83753 0.0
C320 C 0.57172 0.95656 0.74262 0.0
C321 C 0.54614 0.95007 0.68976 0.0
C322 C 0.57391 0.93302 0.77718 0.0
C323 C 0.52452 0.91955 0.6638 0.0
C324 C 0.52671 0.89588 0.69709 0.0
H325 H 0.70872 0.57663 0.9299 0.0
H326 H 0.68209 0.48285 0.86066 0.0
H327 H 0.64124 0.47768 0.76205 0.0
H328 H 0.61148 0.49965 0.70166 0.0
H329 H 0.63957 0.59388 0.77202 0.0
H330 H 0.68102 0.59899 0.86632 0.0
C331 C 0.69429 0.55527 0.89183 0.0
C332 C 0.6983 0.53021 0.90155 0.0
C333 C 0.67067 0.55238 0.83758 0.0
C334 C 0.67956 0.50253 0.85279 0.0
C335 C 0.65599 0.49948 0.79759 0.0
C336 C 0.62652 0.52107 0.73868 0.0
C337 C 0.62242 0.54625 0.73154 0.0
C338 C 0.65091 0.52409 0.79091 0.0
C339 C 0.64231 0.5742 0.77772 0.0
C340 C 0.66608 0.57719 0.83093 0.0
H341 H 0.18407 0.69441 0.90974 0.0
H342 H 0.11863 0.69015 0.06447 0.0
H343 H 0.07819 0.64831 0.9723 0.0
H344 H 0.06295 0.60736 0.86195 0.0
H345 H 0.12724 0.61122 0.70373 0.0
H346 H 0.16652 0.65891 0.78175 0.0
C347 C 0.16081 0.68503 0.92126 0.0
C348 C 0.15426 0.69508 -0.0061 0.0
C349 C 0.13759 0.6605 0.86831 0.0
C350 C 0.12409 0.68265 0.00885 0.0
C351 C 0.10101 0.65856 0.9566 0.0
C352 C 0.08542 0.61909 0.84354 0.0
C353 C 0.09244 0.60568 0.77843 0.0
C354 C 0.1077 0.64638 0.8884 0.0
C355 C 0.12142 0.62116 0.75406 0.0
C356 C 0.1439 0.64831 0.79896 0.0
H357 H 0.52896 0.14248 0.16181 0.0
H358 H 0.54102 0.2103 -0.00026 0.0
H359 H 0.5391 0.17635 0.88626 0.0
H360 H 0.52998 0.12534 0.83161 0.0
H361 H 0.5257 0.0624 0.00079 0.0
H362 H 0.53055 0.09782 0.11397 0.0
C363 C 0.53259 0.15106 0.10322 0.0
C364 C 0.53467 0.17927 0.09099 0.0
C365 C 0.53304 0.13222 0.03888 0.0
C366 C 0.53822 0.18845 0.01204 0.0
C367 C 0.5375 0.16913 0.9467 0.0
C368 C 0.53074 0.11977 0.89348 0.0
C369 C 0.52708 0.09116 0.90773 0.0
C370 C 0.53417 0.1406 0.95915 0.0
C371 C 0.52849 0.08427 -0.0119 0.0
C372 C 0.53105 0.10442 0.05296 0.0
H373 H 0.41655 0.55854 0.04737 0.0
H374 H 0.33368 0.4786 0.94358 0.0
H375 H 0.36173 0.46339 0.85696 0.0
H376 H 0.41028 0.46998 0.82249 0.0
H377 H 0.49327 0.54789 0.93644 0.0
H378 H 0.46465 0.56602 0.00965 0.0
C379 C 0.40454 0.53798 0.00488 0.0
C380 C 0.37305 0.51958 0.00255 0.0
C381 C 0.42095 0.52837 0.95962 0.0
C382 C 0.3578 0.49332 0.94623 0.0
C383 C 0.37393 0.48431 0.89793 0.0
C384 C 0.42219 0.49078 0.86407 0.0
C385 C 0.45401 0.50728 0.87464 0.0
C386 C 0.40559 0.50106 0.90651 0.0
C387 C 0.46891 0.53433 0.92823 0.0
C388 C 0.45254 0.5449 0.96963 0.0
H389 H 0.85604 0.35107 0.87749 0.0
H390 H 0.86665 0.42862 0.02919 0.0
H391 H 0.90355 0.46309 0.94632 0.0
H392 H 0.93914 0.47071 0.84775 0.0
H393 H 0.92925 0.3931 0.6971 0.0
H394 H 0.88533 0.35928 0.76126 0.0
C395 C 0.86557 0.37549 0.89037 0.0
C396 C 0.85909 0.38732 0.96 0.0
C397 C 0.88733 0.3952 0.84364 0.0
C398 C 0.87165 0.41904 0.97635 0.0
C399 C 0.89285 0.43875 0.92932 0.0
C400 C 0.92708 0.44646 0.82782 0.0
C401 C 0.93802 0.43443 0.76922 0.0
C402 C 0.902 0.42705 0.86557 0.0
C403 C 0.92164 0.40302 0.74287 0.0
C404 C 0.89651 0.38358 0.77972 0.0
H405 H 0.88633 0.55187 0.82472 0.0
H406 H 0.84831 0.45461 0.79727 0.0
H407 H 0.88897 0.4596 0.71934 0.0
H408 H 0.93968 0.49251 0.67875 0.0
H409 H 0.97907 0.59022 0.7179 0.0
H410 H 0.9344 0.58433 0.77499 0.0
C411 C 0.88629 0.53174 0.79831 0.0
C412 C 0.864 0.5029 0.81452 0.0
C413 C 0.91101 0.53503 0.7601 0.0
C414 C 0.86471 0.47695 0.7831 0.0
C415 C 0.88846 0.47992 0.74078 0.0
C416 C 0.93856 0.51249 0.70043 0.0
C417 C 0.96296 0.54179 0.6953 0.0
C418 C 0.91255 0.50895 0.73267 0.0
C419 C 0.96081 0.56742 0.72188 0.0
C420 C 0.93515 0.56409 0.75392 0.0
H421 H 0.33016 0.86592 0.91567 0.0
H422 H 0.30286 0.93223 0.96723 0.0
H423 H 0.34058 0.96742 0.88654 0.0
H424 H 0.38796 0.98275 0.82561 0.0
H425 H 0.41833 0.91771 0.79218 0.0
H426 H 0.37319 0.87874 0.84125 0.0
C427 C 0.33158 0.88751 0.90573 0.0
C428 C 0.3137 0.89646 0.94595 0.0
C429 C 0.35475 0.90831 0.86495 0.0
C430 C 0.31616 0.92479 0.93521 0.0
C431 C 0.3381 0.94508 0.89048 0.0
C432 C 0.38432 0.95989 0.82798 0.0
C433 C 0.40663 0.95323 0.8071 0.0
C434 C 0.35864 0.93773 0.859 0.0
C435 C 0.40174 0.92354 0.80993 0.0
C436 C 0.37585 0.90116 0.83742 0.0
H437 H 0.53309 0.36123 0.97683 0.0
H438 H 0.43968 0.29823 0.89446 0.0
H439 H 0.4403 0.33039 0.78944 0.0
H440 H 0.4652 0.38058 0.73772 0.0
H441 H 0.55803 0.44491 0.82726 0.0
H442 H 0.56007 0.40813 0.91139 0.0
C443 C 0.5133 0.35403 0.93353 0.0
C444 C 0.48652 0.32723 0.9421 0.0
C445 C 0.51358 0.37328 0.87564 0.0
C446 C 0.46067 0.31848 0.88761 0.0
C447 C 0.46096 0.33708 0.82835 0.0
C448 C 0.48611 0.38628 0.77399 0.0
C449 C 0.51128 0.41573 0.77689 0.0
C450 C 0.48694 0.36518 0.8241 0.0
C451 C 0.53816 0.42263 0.82451 0.0
C452 C 0.53936 0.40158 0.87289 0.0
H453 H 0.13528 0.44498 0.07073 0.0
H454 H 0.20367 0.50813 0.93592 0.0
H455 H 0.16545 0.49629 0.82107 0.0
H456 H 0.11199 0.47745 0.77416 0.0
H457 H 0.04377 0.42129 0.91989 0.0
H458 H 0.08218 0.42075 0.01566 0.0
C459 C 0.14186 0.45567 0.01541 0.0
C460 C 0.17207 0.47798 0.01238 0.0
C461 C 0.11958 0.45031 0.95236 0.0
C462 C 0.18054 0.49104 0.93986 0.0
C463 C 0.15862 0.48455 0.87464 0.0
C464 C 0.1056 0.46419 0.8254 0.0
C465 C 0.07535 0.44916 0.84031 0.0
C466 C 0.12797 0.46561 0.8823 0.0
C467 C 0.067 0.43263 0.90738 0.0
C468 C 0.08896 0.43258 0.9622 0.0
H469 H 0.70624 0.15622 0.92259 0.0
H470 H 0.66637 0.21188 0.8757 0.0
H471 H 0.62678 0.1708 0.77861 0.0
H472 H 0.60015 0.11679 0.72102 0.0
H473 H 0.64009 0.06108 0.76826 0.0
H474 H 0.6826 0.10402 0.85398 0.0
C475 C 0.68968 0.15976 0.88792 0.0
C476 C 0.68942 0.18712 0.90474 0.0
C477 C 0.66621 0.1355 0.8359 0.0
C478 C 0.66741 0.19131 0.86178 0.0
C479 C 0.64437 0.16753 0.80803 0.0
C480 C 0.61801 0.11404 0.75119 0.0
C481 C 0.61668 0.08569 0.74106 0.0
C482 C 0.64282 0.13911 0.79759 0.0
C483 C 0.64041 0.08257 0.77733 0.0
C484 C 0.66483 0.10717 0.82525 0.0
H485 H 0.59422 0.70015 0.89819 0.0
H486 H 0.5043 0.67801 0.80765 0.0
H487 H 0.50217 0.64153 0.6996 0.0
H488 H 0.52142 0.60776 0.65502 0.0
H489 H 0.60928 0.62687 0.75698 0.0
H490 H 0.61748 0.6734 0.83438 0.0
C491 C 0.57473 0.68818 0.8525 0.0
C492 C 0.54941 0.69138 0.86022 0.0
C493 C 0.57333 0.66653 0.79316 0.0
C494 C 0.52402 0.67579 0.80195 0.0
C495 C 0.52275 0.65479 0.74087 0.0
C496 C 0.54288 0.62304 0.69107 0.0
C497 C 0.56483 0.6143 0.70057 0.0
C498 C 0.54661 0.64874 0.73895 0.0
C499 C 0.59232 0.63358 0.74865 0.0
C500 C 0.5968 0.6599 0.79361 0.0
H501 H 0.47619 0.15971 0.35879 0.0
H502 H 0.57223 0.21598 0.41692 0.0
H503 H 0.57279 0.18067 0.51003 0.0
H504 H 0.54778 0.12804 0.54579 0.0
H505 H 0.45277 0.06936 0.4738 0.0
H506 H 0.44953 0.1112 0.41735 0.0
C507 C 0.49694 0.16495 0.39523 0.0
C508 C 0.5241 0.19048 0.3818 0.0
C509 C 0.49723 0.1436 0.44505 0.0
C510 C 0.55104 0.19669 0.42736 0.0
C511 C 0.55138 0.17624 0.47966 0.0
C512 C 0.52615 0.12501 0.52156 0.0
C513 C 0.50044 0.09591 0.5149 0.0
C514 C 0.52489 0.14875 0.48512 0.0
C515 C 0.47267 0.09177 0.48089 0.0
C516 C 0.47095 0.1156 0.44756 0.0
H517 H 0.35003 0.47773 0.28049 0.0
H518 H 0.40357 0.57549 0.31873 0.0
H519 H 0.4424 0.57213 0.40513 0.0
H520 H 0.46341 0.54111 0.45559 0.0
H521 H 0.41028 0.44312 0.41357 0.0
H522 H 0.36921 0.44665 0.34011 0.0
C523 C 0.36956 0.4982 0.31119 0.0
C524 C 0.37379 0.52679 0.29547 0.0
C525 C 0.39239 0.49597 0.35643 0.0
C526 C 0.3996 0.55331 0.3325 0.0
C527 C 0.42206 0.55134 0.38001 0.0
C528 C 0.44297 0.52057 0.42937 0.0
C529 C 0.44002 0.4919 0.4381 0.0
C530 C 0.41921 0.52279 0.38941 0.0
C531 C 0.41313 0.46541 0.40621 0.0
C532 C 0.38958 0.46742 0.36516 0.0
H533 H 0.90449 0.36037 0.18694 0.0
H534 H 0.84199 0.37609 0.31139 0.0
H535 H 0.88187 0.40744 0.42322 0.0
H536 H 0.93665 0.43884 0.46898 0.0
H537 H 0.99917 0.42677 0.33359 0.0
H538 H 0.95743 0.38515 0.24367 0.0
C539 C 0.89945 0.36973 0.24026 0.0
C540 C 0.87054 0.36603 0.24153 0.0
C541 C 0.92275 0.38882 0.30166 0.0
C542 C 0.86409 0.37846 0.30991 0.0
C543 C 0.88699 0.39668 0.37316 0.0
C544 C 0.94094 0.42623 0.42166 0.0
C545 C 0.9708 0.43569 0.40752 0.0
C546 C 0.91675 0.40329 0.36755 0.0
C547 C 0.9763 0.41973 0.34527 0.0
C548 C 0.95246 0.39611 0.29361 0.0
H549 H 0.51263 0.86691 0.12251 0.0
H550 H 0.60201 0.88688 0.21139 0.0
H551 H 0.60298 0.91933 0.32894 0.0
H552 H 0.5813 0.9481 0.39274 0.0
H553 H 0.49217 0.92876 0.29938 0.0
H554 H 0.48786 0.8895 0.19848 0.0
C555 C 0.53188 0.8777 0.16917 0.0
C556 C 0.55719 0.87474 0.15921 0.0
C557 C 0.53243 0.89669 0.23508 0.0
C558 C 0.58225 0.88885 0.21888 0.0
C559 C 0.58285 0.90753 0.28548 0.0
C560 C 0.56065 0.93478 0.3517 0.0
C561 C 0.53739 0.94186 0.35254 0.0
C562 C 0.55851 0.91256 0.2924 0.0
C563 C 0.51067 0.9242 0.2992 0.0
C564 C 0.50817 0.90175 0.24124 0.0
H565 H 0.72695 0.59004 0.18044 0.0
H566 H 0.70298 0.49897 0.22889 0.0
H567 H 0.66727 0.49851 0.3194 0.0
H568 H 0.63646 0.52048 0.36297 0.0
H569 H 0.66018 0.61158 0.31521 0.0
H570 H 0.70241 0.61575 0.24561 0.0
C571 C 0.71486 0.57069 0.2139 0.0
C572 C 0.71754 0.54457 0.19846 0.0
C573 C 0.69366 0.57028 0.26347 0.0
C574 C 0.70156 0.51942 0.2409 0.0
C575 C 0.68074 0.51898 0.29136 0.0
C576 C 0.65124 0.54139 0.33831 0.0
C577 C 0.64505 0.56549 0.3423 0.0
C578 C 0.67552 0.54365 0.2995 0.0
C579 C 0.6645 0.59272 0.31192 0.0
C580 C 0.68856 0.59505 0.27225 0.0
H581 H 0.17921 0.72623 0.34226 0.0
H582 H 0.20382 0.66509 0.22414 0.0
H583 H 0.1802 0.6286 0.3217 0.0
H584 H 0.14262 0.60963 0.41694 0.0
H585 H 0.11402 0.66892 0.52712 0.0
H586 H 0.14989 0.7109 0.45911 0.0
C587 C 0.18046 0.70548 0.34042 0.0
C588 C 0.19296 0.69809 0.27634 0.0
C589 C 0.1656 0.68404 0.39444 0.0
C590 C 0.19425 0.67107 0.2733 0.0
C591 C 0.18052 0.65014 0.32856 0.0
C592 C 0.14484 0.63197 0.42804 0.0
C593 C 0.12494 0.63583 0.47477 0.0
C594 C 0.16454 0.65562 0.38597 0.0
C595 C 0.12868 0.66512 0.49032 0.0
C596 C 0.14903 0.68913 0.45077 0.0
loop_
_geom_bond_atom_site_label_1
_geom_bond_atom_site_label_2
_geom_bond_distance
_geom_bond_site_symmetry_2
_ccdc_geom_bond_type
H0 C8 0.940 . S
H1 C11 0.940 . S
H2 C13 0.940 . S
H3 C14 0.940 . S
H4 C17 0.940 . S
H5 C19 0.940 . S
N6 N7 1.190 . S
N6 C10 1.477 . S
N7 N6 1.190 . S
N7 C16 1.477 . S
C8 H0 0.940 . S
C8 C9 1.390 . S
C8 C10 1.322 . S
C9 C8 1.390 . S
C9 C13 1.370 . S
C10 N6 1.477 . S
C10 C8 1.322 . S
C10 C11 1.447 . S
C11 H1 0.940 . S
C11 C10 1.447 . S
C11 C12 1.373 . S
C12 C11 1.373 . S
C12 C13 1.417 . S
C13 H2 0.940 . S
C13 C9 1.370 . S
C13 C12 1.417 . S
C14 H3 0.940 . S
C14 C15 1.390 . S
C14 C16 1.322 . S
C15 C14 1.390 . S
C15 C19 1.370 . S
C16 N7 1.477 . S
C16 C14 1.322 . S
C16 C17 1.447 . S
C17 H4 0.940 . S
C17 C16 1.447 . S
C17 C18 1.373 . S
C18 C17 1.373 . S
C18 C19 1.417 . S
C19 H5 0.940 . S
C19 C15 1.370 . S
C19 C18 1.417 . S
H20 C28 0.940 1_556 S
H21 C31 0.940 . S
H22 C33 0.940 . S
H23 C34 0.940 . S
H24 C37 0.940 1_556 S
H25 C39 0.940 . S
N26 N27 1.190 . S
N26 C30 1.477 . S
N27 N26 1.190 . S
N27 C36 1.477 . S
C28 H20 0.940 1_554 S
C28 C29 1.390 . S
C28 C30 1.322 . S
C29 C28 1.390 . S
C29 C33 1.370 . S
C30 N26 1.477 . S
C30 C28 1.322 . S
C30 C31 1.447 . S
C31 H21 0.940 . S
C31 C30 1.447 . S
C31 C32 1.373 . S
C32 C31 1.373 . S
C32 C33 1.417 . S
C33 H22 0.940 . S
C33 C29 1.370 . S
C33 C32 1.417 . S
C34 H23 0.940 . S
C34 C35 1.390 . S
C34 C36 1.322 . S
C35 C34 1.390 . S
C35 C39 1.370 . S
C36 N27 1.477 . S
C36 C34 1.322 . S
C36 C37 1.447 . S
C37 H24 0.940 1_554 S
C37 C36 1.447 . S
C37 C38 1.373 . S
C38 C37 1.373 . S
C38 C39 1.417 . S
C39 H25 0.940 . S
C39 C35 1.370 . S
C39 C38 1.417 . S
H40 C48 0.940 . S
H41 C51 0.940 . S
H42 C53 0.940 . S
H43 C54 0.940 . S
H44 C57 0.940 . S
H45 C59 0.940 . S
N46 N47 1.190 1_554 S
N46 C50 1.477 . S
N47 N46 1.190 1_556 S
N47 C56 1.477 1_556 S
C48 H40 0.940 . S
C48 C49 1.390 . S
C48 C50 1.322 1_556 S
C49 C48 1.390 . S
C49 C53 1.370 1_556 S
C50 N46 1.477 . S
C50 C48 1.322 1_554 S
C50 C51 1.447 . S
C51 H41 0.940 . S
C51 C50 1.447 . S
C51 C52 1.373 . S
C52 C51 1.373 . S
C52 C53 1.417 . S
C53 H42 0.940 . S
C53 C49 1.370 1_554 S
C53 C52 1.417 . S
C54 H43 0.940 . S
C54 C55 1.390 . S
C54 C56 1.322 . S
C55 C54 1.390 . S
C55 C59 1.370 . S
C56 N47 1.477 1_554 S
C56 C54 1.322 . S
C56 C57 1.447 1_554 S
C57 H44 0.940 . S
C57 C56 1.447 1_556 S
C57 C58 1.373 . S
C58 C57 1.373 . S
C58 C59 1.417 1_556 S
C59 H45 0.940 . S
C59 C55 1.370 . S
C59 C58 1.417 1_554 S
H60 C68 0.940 . S
H61 C71 0.940 . S
H62 C73 0.940 . S
H63 C74 0.940 . S
H64 C77 0.940 . S
H65 C79 0.940 . S
N66 N67 1.190 1_554 S
N66 C70 1.477 . S
N67 N66 1.190 1_556 S
N67 C76 1.477 . S
C68 H60 0.940 . S
C68 C69 1.390 . S
C68 C70 1.322 1_556 S
C69 C68 1.390 . S
C69 C73 1.370 1_556 S
C70 N66 1.477 . S
C70 C68 1.322 1_554 S
C70 C71 1.447 . S
C71 H61 0.940 . S
C71 C70 1.447 . S
C71 C72 1.373 . S
C72 C71 1.373 . S
C72 C73 1.417 . S
C73 H62 0.940 . S
C73 C69 1.370 1_554 S
C73 C72 1.417 . S
C74 H63 0.940 . S
C74 C75 1.390 . S
C74 C76 1.322 1_554 S
C75 C74 1.390 . S
C75 C79 1.370 . S
C76 N67 1.477 . S
C76 C74 1.322 1_556 S
C76 C77 1.447 . S
C77 H64 0.940 . S
C77 C76 1.447 . S
C77 C78 1.373 . S
C78 C77 1.373 . S
C78 C79 1.417 1_556 S
C79 H65 0.940 . S
C79 C75 1.370 . S
C79 C78 1.417 1_554 S
H80 C88 0.951 . S
H81 C91 0.940 . S
H82 C93 0.940 . S
H83 C94 0.940 . S
H84 C97 0.940 1_556 S
H85 C99 0.940 . S
N86 N87 1.190 . S
N86 C90 1.477 . S
N87 N86 1.190 . S
N87 C96 1.477 . S
C88 H80 0.951 . S
C88 C89 1.390 . S
C88 C90 1.322 . S
C89 C88 1.390 . S
C89 C93 1.370 . S
C90 N86 1.477 . S
C90 C88 1.322 . S
C90 C91 1.447 . S
C91 H81 0.940 . S
C91 C90 1.447 . S
C91 C92 1.373 . S
C92 C91 1.373 . S
C92 C93 1.417 . S
C93 H82 0.940 . S
C93 C89 1.370 . S
C93 C92 1.417 . S
C94 H83 0.940 . S
C94 C95 1.390 . S
C94 C96 1.322 . S
C95 C94 1.390 . S
C95 C99 1.370 . S
C96 N87 1.477 . S
C96 C94 1.322 . S
C96 C97 1.447 . S
C97 H84 0.940 1_554 S
C97 C96 1.447 . S
C97 C98 1.373 . S
C98 C97 1.373 . S
C98 C99 1.417 . S
C99 H85 0.940 . S
C99 C95 1.370 . S
C99 C98 1.417 . S
H100 C108 0.940 . S
H101 C111 0.940 . S
H102 C113 0.940 . S
H103 C114 0.940 . S
H104 C117 0.940 . S
H105 C119 0.940 . S
N106 N107 1.190 . S
N106 C110 1.477 . S
N107 N106 1.190 . S
N107 C116 1.477 . S
C108 H100 0.940 . S
C108 C109 1.390 . S
C108 C110 1.322 . S
C109 C108 1.390 . S
C109 C113 1.370 . S
C110 N106 1.477 . S
C110 C108 1.322 . S
C110 C111 1.447 . S
C111 H101 0.940 . S
C111 C110 1.447 . S
C111 C112 1.373 . S
C112 C111 1.373 . S
C112 C113 1.417 . S
C113 H102 0.940 . S
C113 C109 1.370 . S
C113 C112 1.417 . S
C114 H103 0.940 . S
C114 C115 1.390 . S
C114 C116 1.322 . S
C115 C114 1.390 . S
C115 C119 1.370 . S
C116 N107 1.477 . S
C116 C114 1.322 . S
C116 C117 1.447 . S
C117 H104 0.940 . S
C117 C116 1.447 . S
C117 C118 1.373 . S
C118 C117 1.373 . S
C118 C119 1.417 . S
C119 H105 0.940 . S
C119 C115 1.370 . S
C119 C118 1.417 . S
C120 O147 1.312 . S
C120 O148 1.208 . S
C121 O142 1.331 . S
C121 O145 1.244 . S
C122 O144 1.264 . S
C122 O146 1.273 . S
Mg123 O125 1.936 1_455 S
Mg123 O132 2.081 1_455 S
Mg123 O134 2.023 . S
Mg123 O138 2.031 1_455 S
Mg123 O147 2.291 . S
Mg124 O125 1.963 . S
Mg124 O135 1.942 . S
Mg124 O136 1.955 1_655 S
Mg124 O143 1.986 . S
O125 Mg123 1.936 1_655 S
O125 Mg124 1.963 . S
O125 Mg126 1.915 1_655 S
Mg126 O125 1.915 1_455 S
Mg126 O127 1.915 . S
Mg126 O131 2.013 . S
Mg126 O137 2.114 1_455 S
Mg126 O141 2.013 1_455 S
Mg126 O147 2.114 . S
O127 Mg126 1.915 . S
O127 Mg128 1.936 . S
O127 Mg129 1.963 . S
Mg128 O127 1.936 . S
Mg128 O137 2.291 1_455 S
Mg128 O142 2.081 . S
Mg128 O144 2.023 1_455 S
Mg128 O148 2.031 . S
Mg129 O127 1.963 . S
Mg129 O133 1.986 . S
Mg129 O145 1.942 . S
Mg129 O146 1.955 1_455 S
C130 O141 1.191 . S
C130 O143 1.307 . S
O131 Mg126 2.013 . S
O131 C150 1.191 . S
O132 Mg123 2.081 1_655 S
O132 C140 1.331 . S
O133 Mg129 1.986 . S
O133 C150 1.307 . S
O134 Mg123 2.023 . S
O134 C149 1.264 . S
O135 Mg124 1.942 . S
O135 C140 1.244 . S
O136 Mg124 1.955 1_455 S
O136 C149 1.273 . S
O137 Mg126 2.114 1_655 S
O137 Mg128 2.291 1_655 S
O137 C139 1.312 . S
O138 Mg123 2.031 1_655 S
O138 C139 1.208 . S
C139 O137 1.312 . S
C139 O138 1.208 . S
C140 O132 1.331 . S
C140 O135 1.244 . S
O141 Mg126 2.013 1_655 S
O141 C130 1.191 . S
O142 C121 1.331 . S
O142 Mg128 2.081 . S
O143 Mg124 1.986 . S
O143 C130 1.307 . S
O144 C122 1.264 . S
O144 Mg128 2.023 1_655 S
O145 C121 1.244 . S
O145 Mg129 1.942 . S
O146 C122 1.273 . S
O146 Mg129 1.955 1_655 S
O147 C120 1.312 . S
O147 Mg123 2.291 . S
O147 Mg126 2.114 . S
O148 C120 1.208 . S
O148 Mg128 2.031 . S
C149 O134 1.264 . S
C149 O136 1.273 . S
C150 O131 1.191 . S
C150 O133 1.307 . S
C151 O178 1.312 . S
C151 O179 1.208 . S
C152 O173 1.331 . S
C152 O176 1.244 . S
C153 O175 1.264 . S
C153 O177 1.273 . S
Mg154 O156 1.936 . S
Mg154 O163 2.081 1_545 S
Mg154 O165 2.023 . S
Mg154 O169 2.031 1_545 S
Mg154 O178 2.291 . S
Mg155 O156 1.963 . S
Mg155 O166 1.942 1_545 S
Mg155 O167 1.955 . S
Mg155 O174 1.986 1_545 S
O156 Mg154 1.936 . S
O156 Mg155 1.963 . S
O156 Mg157 1.915 . S
Mg157 O156 1.915 . S
Mg157 O158 1.915 . S
Mg157 O162 2.013 . S
Mg157 O168 2.114 1_545 S
Mg157 O172 2.013 1_545 S
Mg157 O178 2.114 . S
O158 Mg157 1.915 . S
O158 Mg159 1.936 . S
O158 Mg160 1.963 . S
Mg159 O158 1.936 . S
Mg159 O168 2.291 1_545 S
Mg159 O173 2.081 . S
Mg159 O175 2.023 1_545 S
Mg159 O179 2.031 . S
Mg160 O158 1.963 . S
Mg160 O164 1.986 . S
Mg160 O176 1.942 . S
Mg160 O177 1.955 1_545 S
C161 O172 1.191 . S
C161 O174 1.307 . S
O162 Mg157 2.013 . S
O162 C181 1.191 . S
O163 Mg154 2.081 1_565 S
O163 C171 1.331 . S
O164 Mg160 1.986 . S
O164 C181 1.307 . S
O165 Mg154 2.023 . S
O165 C180 1.264 . S
O166 Mg155 1.942 1_565 S
O166 C171 1.244 . S
O167 Mg155 1.955 . S
O167 C180 1.273 . S
O168 Mg157 2.114 1_565 S
O168 Mg159 2.291 1_565 S
O168 C170 1.312 . S
O169 Mg154 2.031 1_565 S
O169 C170 1.208 . S
C170 O168 1.312 . S
C170 O169 1.208 . S
C171 O163 1.331 . S
C171 O166 1.244 . S
O172 Mg157 2.013 1_565 S
O172 C161 1.191 . S
O173 C152 1.331 . S
O173 Mg159 2.081 . S
O174 Mg155 1.986 1_565 S
O174 C161 1.307 . S
O175 C153 1.264 . S
O175 Mg159 2.023 1_565 S
O176 C152 1.244 . S
O176 Mg160 1.942 . S
O177 C153 1.273 . S
O177 Mg160 1.955 1_565 S
O178 C151 1.312 . S
O178 Mg154 2.291 . S
O178 Mg157 2.114 . S
O179 C151 1.208 . S
O179 Mg159 2.031 . S
C180 O165 1.264 . S
C180 O167 1.273 . S
C181 O162 1.191 . S
C181 O164 1.307 . S
C182 O209 1.312 . S
C182 O210 1.208 . S
C183 O204 1.331 . S
C183 O207 1.244 . S
C184 O206 1.264 . S
C184 O208 1.273 . S
Mg185 O187 1.936 . S
Mg185 O194 2.081 . S
Mg185 O196 2.023 . S
Mg185 O200 2.031 . S
Mg185 O209 2.291 . S
Mg186 O187 1.963 . S
Mg186 O197 1.942 . S
Mg186 O198 1.955 . S
Mg186 O205 1.986 . S
O187 Mg185 1.936 . S
O187 Mg186 1.963 . S
O187 Mg188 1.915 . S
Mg188 O187 1.915 . S
Mg188 O189 1.915 . S
Mg188 O193 2.013 . S
Mg188 O199 2.114 . S
Mg188 O203 2.013 . S
Mg188 O209 2.114 . S
O189 Mg188 1.915 . S
O189 Mg190 1.936 . S
O189 Mg191 1.963 . S
Mg190 O189 1.936 . S
Mg190 O199 2.291 . S
Mg190 O204 2.081 . S
Mg190 O206 2.023 . S
Mg190 O210 2.031 . S
Mg191 O189 1.963 . S
Mg191 O195 1.986 . S
Mg191 O207 1.942 . S
Mg191 O208 1.955 . S
C192 O203 1.191 . S
C192 O205 1.307 . S
O193 Mg188 2.013 . S
O193 C212 1.191 . S
O194 Mg185 2.081 . S
O194 C202 1.331 . S
O195 Mg191 1.986 . S
O195 C212 1.307 . S
O196 Mg185 2.023 . S
O196 C211 1.264 . S
O197 Mg186 1.942 . S
O197 C202 1.244 . S
O198 Mg186 1.955 . S
O198 C211 1.273 . S
O199 Mg188 2.114 . S
O199 Mg190 2.291 . S
O199 C201 1.312 . S
O200 Mg185 2.031 . S
O200 C201 1.208 . S
C201 O199 1.312 . S
C201 O200 1.208 . S
C202 O194 1.331 . S
C202 O197 1.244 . S
O203 Mg188 2.013 . S
O203 C192 1.191 . S
O204 C183 1.331 . S
O204 Mg190 2.081 . S
O205 Mg186 1.986 . S
O205 C192 1.307 . S
O206 C184 1.264 . S
O206 Mg190 2.023 . S
O207 C183 1.244 . S
O207 Mg191 1.942 . S
O208 C184 1.273 . S
O208 Mg191 1.955 . S
O209 C182 1.312 . S
O209 Mg185 2.291 . S
O209 Mg188 2.114 . S
O210 C182 1.208 . S
O210 Mg190 2.031 . S
C211 O196 1.264 . S
C211 O198 1.273 . S
C212 O193 1.191 . S
C212 O195 1.307 . S
H213 C219 0.930 . S
H214 C222 0.930 . S
H215 C223 0.930 . S
H216 C224 0.930 . S
H217 C227 0.930 . S
H218 C228 0.930 . S
C219 H213 0.930 . S
C219 C220 1.355 . S
C219 C221 1.415 . S
C220 C219 1.355 . S
C220 C222 1.419 . S
C221 C219 1.415 . S
C221 C226 1.425 . S
C221 C228 1.409 . S
C222 H214 0.930 . S
C222 C220 1.419 . S
C222 C223 1.362 . S
C223 H215 0.930 . S
C223 C222 1.362 . S
C223 C226 1.409 . S
C224 H216 0.930 . S
C224 C225 1.355 . S
C224 C226 1.415 . S
C225 C224 1.355 . S
C225 C227 1.419 . S
C226 C221 1.425 . S
C226 C223 1.409 . S
C226 C224 1.415 . S
C227 H217 0.930 . S
C227 C225 1.419 . S
C227 C228 1.362 . S
C228 H218 0.930 . S
C228 C221 1.409 . S
C228 C227 1.362 . S
H229 C235 0.930 . S
H230 C238 0.930 . S
H231 C239 0.930 . S
H232 C240 0.930 . S
H233 C243 0.930 . S
H234 C244 0.930 . S
C235 H229 0.930 . S
C235 C236 1.355 . S
C235 C237 1.415 . S
C236 C235 1.355 . S
C236 C238 1.419 . S
C237 C235 1.415 . S
C237 C242 1.425 . S
C237 C244 1.409 . S
C238 H230 0.930 . S
C238 C236 1.419 . S
C238 C239 1.362 . S
C239 H231 0.930 . S
C239 C238 1.362 . S
C239 C242 1.409 . S
C240 H232 0.930 . S
C240 C241 1.355 . S
C240 C242 1.415 . S
C241 C240 1.355 . S
C241 C243 1.419 . S
C242 C237 1.425 . S
C242 C239 1.409 . S
C242 C240 1.415 . S
C243 H233 0.930 . S
C243 C241 1.419 . S
C243 C244 1.362 . S
C244 H234 0.930 . S
C244 C237 1.409 . S
C244 C243 1.362 . S
H245 C251 0.930 . S
H246 C254 0.930 . S
H247 C255 0.930 . S
H248 C256 0.930 . S
H249 C259 0.930 . S
H250 C260 0.930 . S
C251 H245 0.930 . S
C251 C252 1.355 . S
C251 C253 1.415 . S
C252 C251 1.355 . S
C252 C254 1.419 . S
C253 C251 1.415 . S
C253 C258 1.425 . S
C253 C260 1.409 . S
C254 H246 0.930 . S
C254 C252 1.419 . S
C254 C255 1.362 . S
C255 H247 0.930 . S
C255 C254 1.362 . S
C255 C258 1.409 . S
C256 H248 0.930 . S
C256 C257 1.355 . S
C256 C258 1.415 . S
C257 C256 1.355 . S
C257 C259 1.419 . S
C258 C253 1.425 . S
C258 C255 1.409 . S
C258 C256 1.415 . S
C259 H249 0.930 . S
C259 C257 1.419 . S
C259 C260 1.362 . S
C260 H250 0.930 . S
C260 C253 1.409 . S
C260 C259 1.362 . S
H261 C267 0.930 . S
H262 C270 0.930 . S
H263 C271 0.930 . S
H264 C272 0.930 . S
H265 C275 0.930 . S
H266 C276 0.930 . S
C267 H261 0.930 . S
C267 C268 1.355 . S
C267 C269 1.415 . S
C268 C267 1.355 . S
C268 C270 1.419 . S
C269 C267 1.415 . S
C269 C274 1.425 . S
C269 C276 1.409 . S
C270 H262 0.930 . S
C270 C268 1.419 . S
C270 C271 1.362 . S
C271 H263 0.930 . S
C271 C270 1.362 . S
C271 C274 1.409 . S
C272 H264 0.930 . S
C272 C273 1.355 . S
C272 C274 1.415 . S
C273 C272 1.355 . S
C273 C275 1.419 . S
C274 C269 1.425 . S
C274 C271 1.409 . S
C274 C272 1.415 . S
C275 H265 0.930 . S
C275 C273 1.419 . S
C275 C276 1.362 . S
C276 H266 0.930 . S
C276 C269 1.409 . S
C276 C275 1.362 . S
H277 C283 0.930 . S
H278 C286 0.930 . S
H279 C287 0.930 . S
H280 C288 0.930 . S
H281 C291 0.930 . S
H282 C292 0.930 . S
C283 H277 0.930 . S
C283 C284 1.355 . S
C283 C285 1.415 . S
C284 C283 1.355 . S
C284 C286 1.419 . S
C285 C283 1.415 . S
C285 C290 1.425 . S
C285 C292 1.409 . S
C286 H278 0.930 . S
C286 C284 1.419 . S
C286 C287 1.362 . S
C287 H279 0.930 . S
C287 C286 1.362 . S
C287 C290 1.409 . S
C288 H280 0.930 . S
C288 C289 1.355 . S
C288 C290 1.415 . S
C289 C288 1.355 . S
C289 C291 1.419 . S
C290 C285 1.425 . S
C290 C287 1.409 . S
C290 C288 1.415 . S
C291 H281 0.930 . S
C291 C289 1.419 . S
C291 C292 1.362 . S
C292 H282 0.930 . S
C292 C285 1.409 . S
C292 C291 1.362 . S
H293 C299 0.930 . S
H294 C302 0.930 . S
H295 C303 0.930 . S
H296 C304 0.930 . S
H297 C307 0.930 . S
H298 C308 0.930 . S
C299 H293 0.930 . S
C299 C300 1.355 . S
C299 C301 1.415 . S
C300 C299 1.355 . S
C300 C302 1.419 . S
C301 C299 1.415 . S
C301 C306 1.425 . S
C301 C308 1.409 . S
C302 H294 0.930 . S
C302 C300 1.419 . S
C302 C303 1.362 . S
C303 H295 0.930 . S
C303 C302 1.362 . S
C303 C306 1.409 . S
C304 H296 0.930 . S
C304 C305 1.355 . S
C304 C306 1.415 . S
C305 C304 1.355 . S
C305 C307 1.419 . S
C306 C301 1.425 . S
C306 C303 1.409 . S
C306 C304 1.415 . S
C307 H297 0.930 . S
C307 C305 1.419 . S
C307 C308 1.362 . S
C308 H298 0.930 . S
C308 C301 1.409 . S
C308 C307 1.362 . S
H309 C315 0.930 . S
H310 C318 0.930 1_554 S
H311 C319 0.930 . S
H312 C320 0.930 . S
H313 C323 0.930 . S
H314 C324 0.930 . S
C315 H309 0.930 . S
C315 C316 1.355 . S
C315 C317 1.415 . S
C316 C315 1.355 . S
C316 C318 1.419 . S
C317 C315 1.415 . S
C317 C322 1.425 . S
C317 C324 1.409 . S
C318 H310 0.930 1_556 S
C318 C316 1.419 . S
C318 C319 1.362 . S
C319 H311 0.930 . S
C319 C318 1.362 . S
C319 C322 1.409 . S
C320 H312 0.930 . S
C320 C321 1.355 . S
C320 C322 1.415 . S
C321 C320 1.355 . S
C321 C323 1.419 . S
C322 C317 1.425 . S
C322 C319 1.409 . S
C322 C320 1.415 . S
C323 H313 0.930 . S
C323 C321 1.419 . S
C323 C324 1.362 . S
C324 H314 0.930 . S
C324 C317 1.409 . S
C324 C323 1.362 . S
H325 C331 0.930 . S
H326 C334 0.930 . S
H327 C335 0.930 . S
H328 C336 0.930 . S
H329 C339 0.930 . S
H330 C340 0.930 . S
C331 H325 0.930 . S
C331 C332 1.355 . S
C331 C333 1.415 . S
C332 C331 1.355 . S
C332 C334 1.419 . S
C333 C331 1.415 . S
C333 C338 1.425 . S
C333 C340 1.409 . S
C334 H326 0.930 . S
C334 C332 1.419 . S
C334 C335 1.362 . S
C335 H327 0.930 . S
C335 C334 1.362 . S
C335 C338 1.409 . S
C336 H328 0.930 . S
C336 C337 1.355 . S
C336 C338 1.415 . S
C337 C336 1.355 . S
C337 C339 1.419 . S
C338 C333 1.425 . S
C338 C335 1.409 . S
C338 C336 1.415 . S
C339 H329 0.930 . S
C339 C337 1.419 . S
C339 C340 1.362 . S
C340 H330 0.930 . S
C340 C333 1.409 . S
C340 C339 1.362 . S
H341 C347 0.930 . S
H342 C350 0.930 . S
H343 C351 0.930 . S
H344 C352 0.930 . S
H345 C355 0.930 . S
H346 C356 0.930 . S
C347 H341 0.930 . S
C347 C348 1.355 . S
C347 C349 1.415 . S
C348 C347 1.355 . S
C348 C350 1.419 . S
C349 C347 1.415 . S
C349 C354 1.425 . S
C349 C356 1.409 . S
C350 H342 0.930 . S
C350 C348 1.419 . S
C350 C351 1.362 . S
C351 H343 0.930 . S
C351 C350 1.362 . S
C351 C354 1.409 . S
C352 H344 0.930 . S
C352 C353 1.355 . S
C352 C354 1.415 . S
C353 C352 1.355 . S
C353 C355 1.419 . S
C354 C349 1.425 . S
C354 C351 1.409 . S
C354 C352 1.415 . S
C355 H345 0.930 . S
C355 C353 1.419 . S
C355 C356 1.362 . S
C356 H346 0.930 . S
C356 C349 1.409 . S
C356 C355 1.362 . S
H357 C363 0.930 . S
H358 C366 0.930 . S
H359 C367 0.930 . S
H360 C368 0.930 . S
H361 C371 0.930 . S
H362 C372 0.930 . S
C363 H357 0.930 . S
C363 C364 1.355 1_556 S
C363 C365 1.415 . S
C364 C363 1.355 1_554 S
C364 C366 1.419 . S
C365 C363 1.415 . S
C365 C370 1.425 . S
C365 C372 1.409 . S
C366 H358 0.930 . S
C366 C364 1.419 . S
C366 C367 1.362 . S
C367 H359 0.930 . S
C367 C366 1.362 . S
C367 C370 1.409 1_554 S
C368 H360 0.930 . S
C368 C369 1.355 . S
C368 C370 1.415 . S
C369 C368 1.355 . S
C369 C371 1.419 . S
C370 C365 1.425 . S
C370 C367 1.409 1_556 S
C370 C368 1.415 . S
C371 H361 0.930 . S
C371 C369 1.419 . S
C371 C372 1.362 . S
C372 H362 0.930 . S
C372 C365 1.409 . S
C372 C371 1.362 . S
H373 C379 0.930 . S
H374 C382 0.930 . S
H375 C383 0.930 . S
H376 C384 0.930 . S
H377 C387 0.930 . S
H378 C388 0.930 . S
C379 H373 0.930 . S
C379 C380 1.355 1_556 S
C379 C381 1.415 . S
C380 C379 1.355 1_554 S
C380 C382 1.419 . S
C381 C379 1.415 . S
C381 C386 1.425 . S
C381 C388 1.409 . S
C382 H374 0.930 . S
C382 C380 1.419 . S
C382 C383 1.362 . S
C383 H375 0.930 . S
C383 C382 1.362 . S
C383 C386 1.409 1_554 S
C384 H376 0.930 . S
C384 C385 1.355 . S
C384 C386 1.415 . S
C385 C384 1.355 . S
C385 C387 1.419 . S
C386 C381 1.425 . S
C386 C383 1.409 1_556 S
C386 C384 1.415 . S
C387 H377 0.930 . S
C387 C385 1.419 . S
C387 C388 1.362 . S
C388 H378 0.930 . S
C388 C381 1.409 . S
C388 C387 1.362 . S
H389 C395 0.930 . S
H390 C398 0.930 1_554 S
H391 C399 0.930 . S
H392 C400 0.930 . S
H393 C403 0.930 . S
H394 C404 0.930 . S
C395 H389 0.930 . S
C395 C396 1.355 . S
C395 C397 1.415 . S
C396 C395 1.355 . S
C396 C398 1.419 . S
C397 C395 1.415 . S
C397 C402 1.425 . S
C397 C404 1.409 . S
C398 H390 0.930 1_556 S
C398 C396 1.419 . S
C398 C399 1.362 . S
C399 H391 0.930 . S
C399 C398 1.362 . S
C399 C402 1.409 . S
C400 H392 0.930 . S
C400 C401 1.355 . S
C400 C402 1.415 . S
C401 C400 1.355 . S
C401 C403 1.419 . S
C402 C397 1.425 . S
C402 C399 1.409 . S
C402 C400 1.415 . S
C403 H393 0.930 . S
C403 C401 1.419 . S
C403 C404 1.362 . S
C404 H394 0.930 . S
C404 C397 1.409 . S
C404 C403 1.362 . S
H405 C411 0.930 . S
H406 C414 0.930 . S
H407 C415 0.930 . S
H408 C416 0.930 . S
H409 C419 0.930 . S
H410 C420 0.930 . S
C411 H405 0.930 . S
C411 C412 1.355 . S
C411 C413 1.415 . S
C412 C411 1.355 . S
C412 C414 1.419 . S
C413 C411 1.415 . S
C413 C418 1.425 . S
C413 C420 1.409 . S
C414 H406 0.930 . S
C414 C412 1.419 . S
C414 C415 1.362 . S
C415 H407 0.930 . S
C415 C414 1.362 . S
C415 C418 1.409 . S
C416 H408 0.930 . S
C416 C417 1.355 . S
C416 C418 1.415 . S
C417 C416 1.355 . S
C417 C419 1.419 . S
C418 C413 1.425 . S
C418 C415 1.409 . S
C418 C416 1.415 . S
C419 H409 0.930 . S
C419 C417 1.419 . S
C419 C420 1.362 . S
C420 H410 0.930 . S
C420 C413 1.409 . S
C420 C419 1.362 . S
H421 C427 0.930 . S
H422 C430 0.930 . S
H423 C431 0.930 . S
H424 C432 0.930 . S
H425 C435 0.930 . S
H426 C436 0.930 . S
C427 H421 0.930 . S
C427 C428 1.355 . S
C427 C429 1.415 . S
C428 C427 1.355 . S
C428 C430 1.419 1_556 S
C429 C427 1.415 . S
C429 C434 1.425 . S
C429 C436 1.409 . S
C430 H422 0.930 . S
C430 C428 1.419 1_554 S
C430 C431 1.362 1_554 S
C431 H423 0.930 . S
C431 C430 1.362 1_556 S
C431 C434 1.409 . S
C432 H424 0.930 . S
C432 C433 1.355 . S
C432 C434 1.415 . S
C433 C432 1.355 . S
C433 C435 1.419 . S
C434 C429 1.425 . S
C434 C431 1.409 . S
C434 C432 1.415 . S
C435 H425 0.930 . S
C435 C433 1.419 . S
C435 C436 1.362 . S
C436 H426 0.930 . S
C436 C429 1.409 . S
C436 C435 1.362 . S
H437 C443 0.930 . S
H438 C446 0.930 . S
H439 C447 0.930 . S
H440 C448 0.930 . S
H441 C451 0.930 . S
H442 C452 0.930 . S
C443 H437 0.930 . S
C443 C444 1.355 1_556 S
C443 C445 1.415 . S
C444 C443 1.355 1_554 S
C444 C446 1.419 . S
C445 C443 1.415 . S
C445 C450 1.425 . S
C445 C452 1.409 . S
C446 H438 0.930 . S
C446 C444 1.419 . S
C446 C447 1.362 . S
C447 H439 0.930 . S
C447 C446 1.362 . S
C447 C450 1.409 1_554 S
C448 H440 0.930 . S
C448 C449 1.355 . S
C448 C450 1.415 . S
C449 C448 1.355 . S
C449 C451 1.419 . S
C450 C445 1.425 . S
C450 C447 1.409 1_556 S
C450 C448 1.415 . S
C451 H441 0.930 . S
C451 C449 1.419 . S
C451 C452 1.362 . S
C452 H442 0.930 . S
C452 C445 1.409 . S
C452 C451 1.362 . S
H453 C459 0.930 . S
H454 C462 0.930 . S
H455 C463 0.930 . S
H456 C464 0.930 . S
H457 C467 0.930 . S
H458 C468 0.930 . S
C459 H453 0.930 . S
C459 C460 1.355 . S
C459 C461 1.415 1_554 S
C460 C459 1.355 . S
C460 C462 1.419 1_554 S
C461 C459 1.415 1_556 S
C461 C466 1.425 . S
C461 C468 1.409 1_556 S
C462 H454 0.930 . S
C462 C460 1.419 1_556 S
C462 C463 1.362 . S
C463 H455 0.930 . S
C463 C462 1.362 . S
C463 C466 1.409 . S
C464 H456 0.930 . S
C464 C465 1.355 . S
C464 C466 1.415 . S
C465 C464 1.355 . S
C465 C467 1.419 . S
C466 C461 1.425 . S
C466 C463 1.409 . S
C466 C464 1.415 . S
C467 H457 0.930 . S
C467 C465 1.419 . S
C467 C468 1.362 1_556 S
C468 H458 0.930 . S
C468 C461 1.409 1_554 S
C468 C467 1.362 1_554 S
H469 C475 0.930 . S
H470 C478 0.930 . S
H471 C479 0.930 . S
H472 C480 0.930 . S
H473 C483 0.930 . S
H474 C484 0.930 . S
C475 H469 0.930 . S
C475 C476 1.355 . S
C475 C477 1.415 . S
C476 C475 1.355 . S
C476 C478 1.419 . S
C477 C475 1.415 . S
C477 C482 1.425 . S
C477 C484 1.409 . S
C478 H470 0.930 . S
C478 C476 1.419 . S
C478 C479 1.362 . S
C479 H471 0.930 . S
C479 C478 1.362 . S
C479 C482 1.409 . S
C480 H472 0.930 . S
C480 C481 1.355 . S
C480 C482 1.415 . S
C481 C480 1.355 . S
C481 C483 1.419 . S
C482 C477 1.425 . S
C482 C479 1.409 . S
C482 C480 1.415 . S
C483 H473 0.930 . S
C483 C481 1.419 . S
C483 C484 1.362 . S
C484 H474 0.930 . S
C484 C477 1.409 . S
C484 C483 1.362 . S
H485 C491 0.930 . S
H486 C494 0.930 . S
H487 C495 0.930 . S
H488 C496 0.930 . S
H489 C499 0.930 . S
H490 C500 0.930 . S
C491 H485 0.930 . S
C491 C492 1.355 . S
C491 C493 1.415 . S
C492 C491 1.355 . S
C492 C494 1.419 . S
C493 C491 1.415 . S
C493 C498 1.425 . S
C493 C500 1.409 . S
C494 H486 0.930 . S
C494 C492 1.419 . S
C494 C495 1.362 . S
C495 H487 0.930 . S
C495 C494 1.362 . S
C495 C498 1.409 . S
C496 H488 0.930 . S
C496 C497 1.355 . S
C496 C498 1.415 . S
C497 C496 1.355 . S
C497 C499 1.419 . S
C498 C493 1.425 . S
C498 C495 1.409 . S
C498 C496 1.415 . S
C499 H489 0.930 . S
C499 C497 1.419 . S
C499 C500 1.362 . S
C500 H490 0.930 . S
C500 C493 1.409 . S
C500 C499 1.362 . S
H501 C507 0.930 . S
H502 C510 0.930 . S
H503 C511 0.930 . S
H504 C512 0.930 . S
H505 C515 0.930 . S
H506 C516 0.930 . S
C507 H501 0.930 . S
C507 C508 1.355 . S
C507 C509 1.415 . S
C508 C507 1.355 . S
C508 C510 1.419 . S
C509 C507 1.415 . S
C509 C514 1.425 . S
C509 C516 1.409 . S
C510 H502 0.930 . S
C510 C508 1.419 . S
C510 C511 1.362 . S
C511 H503 0.930 . S
C511 C510 1.362 . S
C511 C514 1.409 . S
C512 H504 0.930 . S
C512 C513 1.355 . S
C512 C514 1.415 . S
C513 C512 1.355 . S
C513 C515 1.419 . S
C514 C509 1.425 . S
C514 C511 1.409 . S
C514 C512 1.415 . S
C515 H505 0.930 . S
C515 C513 1.419 . S
C515 C516 1.362 . S
C516 H506 0.930 . S
C516 C509 1.409 . S
C516 C515 1.362 . S
H517 C523 0.930 . S
H518 C526 0.930 . S
H519 C527 0.930 . S
H520 C528 0.930 . S
H521 C531 0.930 . S
H522 C532 0.930 . S
C523 H517 0.930 . S
C523 C524 1.355 . S
C523 C525 1.415 . S
C524 C523 1.355 . S
C524 C526 1.419 . S
C525 C523 1.415 . S
C525 C530 1.425 . S
C525 C532 1.409 . S
C526 H518 0.930 . S
C526 C524 1.419 . S
C526 C527 1.362 . S
C527 H519 0.930 . S
C527 C526 1.362 . S
C527 C530 1.409 . S
C528 H520 0.930 . S
C528 C529 1.355 . S
C528 C530 1.415 . S
C529 C528 1.355 . S
C529 C531 1.419 . S
C530 C525 1.425 . S
C530 C527 1.409 . S
C530 C528 1.415 . S
C531 H521 0.930 . S
C531 C529 1.419 . S
C531 C532 1.362 . S
C532 H522 0.930 . S
C532 C525 1.409 . S
C532 C531 1.362 . S
H533 C539 0.930 . S
H534 C542 0.930 . S
H535 C543 0.930 . S
H536 C544 0.930 . S
H537 C547 0.930 . S
H538 C548 0.930 . S
C539 H533 0.930 . S
C539 C540 1.355 . S
C539 C541 1.415 . S
C540 C539 1.355 . S
C540 C542 1.419 . S
C541 C539 1.415 . S
C541 C546 1.425 . S
C541 C548 1.409 . S
C542 H534 0.930 . S
C542 C540 1.419 . S
C542 C543 1.362 . S
C543 H535 0.930 . S
C543 C542 1.362 . S
C543 C546 1.409 . S
C544 H536 0.930 . S
C544 C545 1.355 . S
C544 C546 1.415 . S
C545 C544 1.355 . S
C545 C547 1.419 . S
C546 C541 1.425 . S
C546 C543 1.409 . S
C546 C544 1.415 . S
C547 H537 0.930 . S
C547 C545 1.419 . S
C547 C548 1.362 . S
C548 H538 0.930 . S
C548 C541 1.409 . S
C548 C547 1.362 . S
H549 C555 0.930 . S
H550 C558 0.930 . S
H551 C559 0.930 . S
H552 C560 0.930 . S
H553 C563 0.930 . S
H554 C564 0.930 . S
C555 H549 0.930 . S
C555 C556 1.355 . S
C555 C557 1.415 . S
C556 C555 1.355 . S
C556 C558 1.419 . S
C557 C555 1.415 . S
C557 C562 1.425 . S
C557 C564 1.409 . S
C558 H550 0.930 . S
C558 C556 1.419 . S
C558 C559 1.362 . S
C559 H551 0.930 . S
C559 C558 1.362 . S
C559 C562 1.409 . S
C560 H552 0.930 . S
C560 C561 1.355 . S
C560 C562 1.415 . S
C561 C560 1.355 . S
C561 C563 1.419 . S
C562 C557 1.425 . S
C562 C559 1.409 . S
C562 C560 1.415 . S
C563 H553 0.930 . S
C563 C561 1.419 . S
C563 C564 1.362 . S
C564 H554 0.930 . S
C564 C557 1.409 . S
C564 C563 1.362 . S
H565 C571 0.930 . S
H566 C574 0.930 . S
H567 C575 0.930 . S
H568 C576 0.930 . S
H569 C579 0.930 . S
H570 C580 0.930 . S
C571 H565 0.930 . S
C571 C572 1.355 . S
C571 C573 1.415 . S
C572 C571 1.355 . S
C572 C574 1.419 . S
C573 C571 1.415 . S
C573 C578 1.425 . S
C573 C580 1.409 . S
C574 H566 0.930 . S
C574 C572 1.419 . S
C574 C575 1.362 . S
C575 H567 0.930 . S
C575 C574 1.362 . S
C575 C578 1.409 . S
C576 H568 0.930 . S
C576 C577 1.355 . S
C576 C578 1.415 . S
C577 C576 1.355 . S
C577 C579 1.419 . S
C578 C573 1.425 . S
C578 C575 1.409 . S
C578 C576 1.415 . S
C579 H569 0.930 . S
C579 C577 1.419 . S
C579 C580 1.362 . S
C580 H570 0.930 . S
C580 C573 1.409 . S
C580 C579 1.362 . S
H581 C587 0.930 . S
H582 C590 0.930 . S
H583 C591 0.930 . S
H584 C592 0.930 . S
H585 C595 0.930 . S
H586 C596 0.930 . S
C587 H581 0.930 . S
C587 C588 1.355 . S
C587 C589 1.415 . S
C588 C587 1.355 . S
C588 C590 1.419 . S
C589 C587 1.415 . S
C589 C594 1.425 . S
C589 C596 1.409 . S
C590 H582 0.930 . S
C590 C588 1.419 . S
C590 C591 1.362 . S
C591 H583 0.930 . S
C591 C590 1.362 . S
C591 C594 1.409 . S
C592 H584 0.930 . S
C592 C593 1.355 . S
C592 C594 1.415 . S
C593 C592 1.355 . S
C593 C595 1.419 . S
C594 C589 1.425 . S
C594 C591 1.409 . S
C594 C592 1.415 . S
C595 H585 0.930 . S
C595 C593 1.419 . S
C595 C596 1.362 . S
C596 H586 0.930 . S
C596 C589 1.409 . S
C596 C595 1.362 . S
C220 C12 1.796 . S
C225 C120 1.738 . S
C236 C32 1.554 . S
C241 C152 1.614 . S
C257 C211 1.860 . S
C252 C52 1.916 . S
C273 C140 1.489 . S
C268 C75 1.467 . S
C284 C95 1.707 . S
C289 C170 1.711 . S
C305 C192 1.460 . S
C300 C115 1.350 . S
C321 C161 1.791 . S
C316 C58 1.702 . S
C332 C69 1.342 . S
C337 C201 1.443 . S
C353 C150 1.672 . S
C348 C89 1.654 1_556 S
C364 C109 1.525 . S
C369 C180 1.573 . S
C380 C18 1.799 . S
C385 C183 1.806 . S
C401 C122 1.660 . S
C396 C38 1.626 1_556 S
C417 C130 1.668 . S
C412 C78 1.638 . S
C433 C171 1.582 . S
C428 C98 1.528 1_556 S
C449 C184 1.879 . S
C444 C118 1.872 . S
C465 C121 1.488 . S
C460 C9 1.531 . S
C481 C181 1.590 . S
C476 C29 1.623 1_556 S
C492 C49 1.354 . S
C497 C182 1.361 . S
C513 C151 1.657 . S
C508 C112 1.676 . S
C529 C212 1.410 . S
C524 C15 1.399 . S
C545 C139 1.565 . S
C540 C35 1.624 . S
C561 C153 1.619 . S
C556 C55 1.560 . S
C572 C72 1.783 . S
C577 C202 1.749 . S
C588 C92 1.645 . S
C593 C149 1.635 . S
