# Generated by pormake.
# Topology zzz, (3,6)-cn, num edge types: 1
# Building blocks:
#     Node 0, Type 0, BuildingBlock: BELTOD_clean_linker_0, # of connection points: 3
#     Node 1, Type 0, BuildingBlock: BELTOD_clean_linker_0, # of connection points: 3
#     Node 2, Type 0, BuildingBlock: BELTOD_clean_linker_0, # of connection points: 3
#     Node 3, Type 0, BuildingBlock: BELTOD_clean_linker_0, # of connection points: 3
#     Node 4, Type 0, BuildingBlock: BELTOD_clean_linker_0, # of connection points: 3
#     Node 5, Type 0, BuildingBlock: BELTOD_clean_linker_0, # of connection points: 3
#     Node 6, Type 0, BuildingBlock: BELTOD_clean_linker_0, # of connection points: 3
#     Node 7, Type 0, BuildingBlock: BELTOD_clean_linker_0, # of connection points: 3
#     Node 8, Type 1, BuildingBlock: GEDQOX_clean_sbu_0, # of connection points: 6
#     Node 9, Type 1, BuildingBlock: GEDQOX_clean_sbu_0, # of connection points: 6
#     Node 10, Type 1, BuildingBlock: GEDQOX_clean_sbu_0, # of connection points: 6
#     Node 11, Type 1, BuildingBlock: GEDQOX_clean_sbu_0, # of connection points: 6
#     Edge 12, Type (0, 1), BuildingBlock: AJUNOK_clean_linker_0, # of connection points: 2
#     Edge 13, Type (0, 1), BuildingBlock: AJUNOK_clean_linker_0, # of connection points: 2
#     Edge 14, Type (0, 1), BuildingBlock: AJUNOK_clean_linker_0, # of connection points: 2
#     Edge 15, Type (0, 1), BuildingBlock: AJUNOK_clean_linker_0, # of connection points: 2
#     Edge 16, Type (0, 1), BuildingBlock: AJUNOK_clean_linker_0, # of connection points: 2
#     Edge 17, Type (0, 1), BuildingBlock: AJUNOK_clean_linker_0, # of connection points: 2
#     Edge 18, Type (0, 1), BuildingBlock: AJUNOK_clean_linker_0, # of connection points: 2
#     Edge 19, Type (0, 1), BuildingBlock: AJUNOK_clean_linker_0, # of connection points: 2
#     Edge 20, Type (0, 1), BuildingBlock: AJUNOK_clean_linker_0, # of connection points: 2
#     Edge 21, Type (0, 1), BuildingBlock: AJUNOK_clean_linker_0, # of connection points: 2
#     Edge 22, Type (0, 1), BuildingBlock: AJUNOK_clean_linker_0, # of connection points: 2
#     Edge 23, Type (0, 1), BuildingBlock: AJUNOK_clean_linker_0, # of connection points: 2
#     Edge 24, Type (0, 1), BuildingBlock: AJUNOK_clean_linker_0, # of connection points: 2
#     Edge 25, Type (0, 1), BuildingBlock: AJUNOK_clean_linker_0, # of connection points: 2
#     Edge 26, Type (0, 1), BuildingBlock: AJUNOK_clean_linker_0, # of connection points: 2
#     Edge 27, Type (0, 1), BuildingBlock: AJUNOK_clean_linker_0, # of connection points: 2
#     Edge 28, Type (0, 1), BuildingBlock: AJUNOK_clean_linker_0, # of connection points: 2
#     Edge 29, Type (0, 1), BuildingBlock: AJUNOK_clean_linker_0, # of connection points: 2
#     Edge 30, Type (0, 1), BuildingBlock: AJUNOK_clean_linker_0, # of connection points: 2
#     Edge 31, Type (0, 1), BuildingBlock: AJUNOK_clean_linker_0, # of connection points: 2
#     Edge 32, Type (0, 1), BuildingBlock: AJUNOK_clean_linker_0, # of connection points: 2
#     Edge 33, Type (0, 1), BuildingBlock: AJUNOK_clean_linker_0, # of connection points: 2
#     Edge 34, Type (0, 1), BuildingBlock: AJUNOK_clean_linker_0, # of connection points: 2
#     Edge 35, Type (0, 1), BuildingBlock: AJUNOK_clean_linker_0, # of connection points: 2
# Relax obj value: 0.295
# Max RMSD: 0.324
# Mean RMSD: 0.183
data_MOF--net-zzz--node1-GEDQOX_clean_sbu_0--node2-BELTOD_clean_linker_0--edge1-AJUNOK_clean_linker_0
_symmetry_space_group_name_H-M    P1
_symmetry_Int_Tables_number       1
_symmetry_cell_setting            triclinic
loop_
_symmetry_equiv_pos_as_xyz
'x, y, z'
_cell_length_a     45.300354
_cell_length_b     42.890984
_cell_length_c     16.709967
_cell_angle_alpha  78.915278
_cell_angle_beta   90.265523
_cell_angle_gamma 105.1673
loop_
_atom_site_label
_atom_site_type_symbol
_atom_site_fract_x
_atom_site_fract_y
_atom_site_fract_z
_atom_type_partial_charge
P0 P 0.75224 0.45678 0.16614 0.0
H1 H 0.75496 0.43994 0.34429 0.0
H2 H 0.78917 0.46565 0.44064 0.0
H3 H 0.83194 0.54655 0.24518 0.0
H4 H 0.79689 0.52139 0.14967 0.0
H5 H 0.70863 0.43808 0.04537 0.0
H6 H 0.66522 0.45839 0.99158 0.0
H7 H 0.69043 0.53737 0.12503 0.0
H8 H 0.73359 0.51681 0.1797 0.0
H9 H 0.78157 0.40483 0.15202 0.0
H10 H 0.78427 0.50259 0.02129 0.0
O11 O 0.73352 0.41883 0.21368 0.0
H12 H 0.82564 0.40466 0.06861 0.0
H13 H 0.82958 0.50365 0.94182 0.0
C14 C 0.77367 0.47845 0.23938 0.0
C15 C 0.77136 0.46344 0.32223 0.0
C16 C 0.79111 0.47802 0.37721 0.0
C17 C 0.81376 0.50771 0.35004 0.0
C18 C 0.81483 0.5236 0.26787 0.0
C19 C 0.79491 0.50911 0.21307 0.0
C20 C 0.72423 0.47584 0.11665 0.0
C21 C 0.70516 0.46013 0.06185 0.0
C22 C 0.68044 0.4717 0.03117 0.0
C23 C 0.67459 0.49934 0.05446 0.0
C24 C 0.6947 0.51616 0.1058 0.0
C25 C 0.71929 0.50434 0.13721 0.0
C26 C 0.77961 0.45368 0.09252 0.0
C27 C 0.79122 0.42598 0.10408 0.0
C28 C 0.81657 0.42601 0.05671 0.0
C29 C 0.8312 0.45409 0.99828 0.0
C30 C 0.81852 0.48122 0.98447 0.0
C31 C 0.79277 0.48085 0.03071 0.0
P32 P 0.05018 0.75706 0.26745 0.0
H33 H 0.0582 0.76616 0.43579 0.0
H34 H 0.03379 0.79556 0.51443 0.0
H35 H 0.96272 0.79407 0.34112 0.0
H36 H 0.9877 0.76486 0.26143 0.0
H37 H 0.07372 0.74272 0.12276 0.0
H38 H 0.06219 0.69469 0.059 0.0
H39 H 0.99059 0.64435 0.24438 0.0
H40 H 0.0023 0.69319 0.30851 0.0
H41 H 0.08693 0.82393 0.26404 0.0
H42 H 0.02362 0.77264 0.10899 0.0
O43 O 0.08361 0.75583 0.3085 0.0
H44 H 0.08742 0.8765 0.17547 0.0
H45 H 0.02546 0.82481 0.01762 0.0
C46 C 0.0248 0.76317 0.34255 0.0
C47 C 0.03668 0.77083 0.41621 0.0
C48 C 0.02274 0.7879 0.46114 0.0
C49 C 0.99674 0.79791 0.43295 0.0
C50 C 0.98315 0.78736 0.36343 0.0
C51 C 0.9971 0.77013 0.31857 0.0
C52 C 0.03832 0.72188 0.21908 0.0
C53 C 0.05504 0.72168 0.14885 0.0
C54 C 0.04835 0.69423 0.11215 0.0
C55 C 0.02503 0.66601 0.14553 0.0
C56 C 0.00843 0.66597 0.21676 0.0
C57 C 0.01501 0.6938 0.25326 0.0
C58 C 0.05608 0.79431 0.1917 0.0
C59 C 0.07419 0.8239 0.20904 0.0
C60 C 0.07452 0.85393 0.15818 0.0
C61 C 0.05683 0.85478 0.0888 0.0
C62 C 0.03938 0.82494 0.07051 0.0
C63 C 0.03867 0.79502 0.12214 0.0
P64 P 0.78686 0.06947 0.14434 0.0
H65 H 0.77427 0.06689 0.3175 0.0
H66 H 0.73117 0.03424 0.41021 0.0
H67 H 0.7 0.97272 0.23376 0.0
H68 H 0.74305 0.00618 0.13995 0.0
H69 H 0.83624 0.10431 0.02566 0.0
H70 H 0.87912 0.08922 0.97013 0.0
H71 H 0.84773 0.99116 0.11664 0.0
H72 H 0.80467 0.00654 0.17264 0.0
H73 H 0.73567 0.09757 0.14914 0.0
H74 H 0.7817 0.06406 0.9703 0.0
O75 O 0.8028 0.10285 0.18252 0.0
H76 H 0.6944 0.10147 0.05685 0.0
H77 H 0.7416 0.07021 0.87549 0.0
C78 C 0.76187 0.039 0.22175 0.0
C79 C 0.75874 0.04583 0.29947 0.0
C80 C 0.734 0.0271 0.35255 0.0
C81 C 0.71183 1.00128 0.32869 0.0
C82 C 0.71634 0.9929 0.25315 0.0
C83 C 0.74115 0.0117 0.2 0.0
C84 C 0.81726 0.05654 0.10288 0.0
C85 C 0.83839 0.07945 0.04526 0.0
C86 C 0.86269 0.07069 0.01293 0.0
C87 C 0.86642 0.03882 0.03793 0.0
C88 C 0.84519 0.0158 0.09584 0.0
C89 C 0.82063 0.02457 0.12784 0.0
C90 C 0.7617 0.08046 0.06688 0.0
C91 C 0.73744 0.09219 0.08886 0.0
C92 C 0.71392 0.09457 0.03582 0.0
C93 C 0.71445 0.08555 0.95939 0.0
C94 C 0.74014 0.07645 0.93487 0.0
C95 C 0.76334 0.07335 0.98881 0.0
P96 P 0.50122 0.81824 0.47617 0.0
H97 H 0.51503 0.81169 0.64918 0.0
H98 H 0.53043 0.76773 0.74109 0.0
H99 H 0.55197 0.72972 0.53386 0.0
H100 H 0.53774 0.77462 0.44192 0.0
H101 H 0.51113 0.88898 0.46751 0.0
H102 H 0.52324 0.93453 0.35017 0.0
H103 H 0.54865 0.87141 0.20577 0.0
H104 H 0.53786 0.82619 0.32499 0.0
H105 H 0.47068 0.74772 0.5215 0.0
H106 H 0.47453 0.82616 0.31347 0.0
O107 O 0.47883 0.83006 0.53674 0.0
H108 H 0.44688 0.70727 0.44004 0.0
H109 H 0.45108 0.78557 0.23142 0.0
C110 C 0.52453 0.79594 0.53878 0.0
C111 C 0.52419 0.79471 0.6232 0.0
C112 C 0.53272 0.76935 0.67582 0.0
C113 C 0.54123 0.74455 0.64476 0.0
C114 C 0.54521 0.74826 0.55969 0.0
C115 C 0.53714 0.774 0.507 0.0
C116 C 0.52266 0.85391 0.40415 0.0
C117 C 0.52049 0.8852 0.41174 0.0
C118 C 0.52726 0.91122 0.34436 0.0
C119 C 0.53596 0.90624 0.26811 0.0
C120 C 0.54194 0.87605 0.26356 0.0
C121 C 0.53573 0.85013 0.33177 0.0
C122 C 0.47635 0.78982 0.4221 0.0
C123 C 0.46615 0.75633 0.45858 0.0
C124 C 0.45214 0.73321 0.41225 0.0
C125 C 0.44761 0.74333 0.32908 0.0
C126 C 0.45481 0.77716 0.2951 0.0
C127 C 0.46859 0.80031 0.34182 0.0
P128 P 0.24539 0.48921 0.69766 0.0
H129 H 0.21863 0.42731 0.64179 0.0
H130 H 0.19062 0.41703 0.51968 0.0
H131 H 0.21871 0.52104 0.4157 0.0
H132 H 0.2472 0.53124 0.53717 0.0
H133 H 0.28099 0.48942 0.84203 0.0
H134 H 0.33591 0.50271 0.86298 0.0
H135 H 0.35442 0.53022 0.60199 0.0
H136 H 0.29922 0.51638 0.5813 0.0
H137 H 0.18588 0.49815 0.65325 0.0
H138 H 0.26168 0.54575 0.78327 0.0
O139 O 0.23079 0.45537 0.76836 0.0
H140 H 0.15712 0.5352 0.68262 0.0
H141 H 0.23195 0.58271 0.81519 0.0
C142 C 0.23488 0.4801 0.59872 0.0
C143 C 0.21975 0.44779 0.59157 0.0
C144 C 0.20362 0.4419 0.52196 0.0
C145 C 0.20221 0.46833 0.45915 0.0
C146 C 0.21933 0.50032 0.46374 0.0
C147 C 0.23583 0.50611 0.53267 0.0
C148 C 0.28603 0.50163 0.71018 0.0
C149 C 0.29685 0.49853 0.78926 0.0
C150 C 0.32825 0.50641 0.80122 0.0
C151 C 0.34947 0.51774 0.73414 0.0
C152 C 0.33855 0.52146 0.65479 0.0
C153 C 0.30703 0.51362 0.64289 0.0
C154 C 0.22635 0.51964 0.71401 0.0
C155 C 0.19681 0.51725 0.68597 0.0
C156 C 0.18037 0.53869 0.70221 0.0
C157 C 0.19274 0.56261 0.74862 0.0
C158 C 0.22232 0.56507 0.77729 0.0
C159 C 0.23916 0.54381 0.75954 0.0
P160 P 0.10091 0.34236 0.44434 0.0
H161 H 0.13544 0.35106 0.29086 0.0
H162 H 0.12565 0.31593 0.19006 0.0
H163 H 0.03197 0.27684 0.28252 0.0
H164 H 0.04154 0.31283 0.38237 0.0
H165 H 0.13368 0.39224 0.5315 0.0
H166 H 0.11804 0.43054 0.60118 0.0
H167 H 0.02633 0.39971 0.51975 0.0
H168 H 0.04235 0.36115 0.44836 0.0
H169 H 0.11761 0.28142 0.45228 0.0
H170 H 0.05069 0.31445 0.57246 0.0
O171 O 0.13908 0.35125 0.44406 0.0
H172 H 0.09297 0.22452 0.51816 0.0
H173 H 0.02593 0.25745 0.63816 0.0
C174 C 0.08933 0.33462 0.34486 0.0
C175 C 0.11224 0.33676 0.28625 0.0
C176 C 0.1067 0.31642 0.22873 0.0
C177 C 0.07816 0.29362 0.22922 0.0
C178 C 0.05409 0.29451 0.28062 0.0
C179 C 0.05955 0.31532 0.33736 0.0
C180 C 0.08933 0.37407 0.48348 0.0
C181 C 0.11033 0.39402 0.52686 0.0
C182 C 0.10133 0.41588 0.56722 0.0
C183 C 0.07096 0.41812 0.56594 0.0
C184 C 0.04986 0.39834 0.52196 0.0
C185 C 0.05906 0.37661 0.48048 0.0
C186 C 0.08639 0.30232 0.50844 0.0
C187 C 0.09798 0.27652 0.49405 0.0
C188 C 0.08353 0.24398 0.53029 0.0
C189 C 0.05715 0.23664 0.58154 0.0
C190 C 0.04608 0.26254 0.59812 0.0
C191 C 0.06043 0.29516 0.56116 0.0
P192 P 0.30668 0.10836 0.58188 0.0
H193 H 0.34679 0.16787 0.48259 0.0
H194 H 0.37618 0.176 0.35496 0.0
H195 H 0.3261 0.07923 0.32196 0.0
H196 H 0.29613 0.07142 0.44919 0.0
H197 H 0.26381 0.14215 0.63158 0.0
H198 H 0.20907 0.12397 0.6696 0.0
H199 H 0.20447 0.02957 0.60835 0.0
H200 H 0.25951 0.04783 0.57063 0.0
H201 H 0.35953 0.08645 0.53886 0.0
H202 H 0.29144 0.06082 0.73737 0.0
O203 O 0.32094 0.14078 0.62515 0.0
H204 H 0.3857 0.04831 0.61267 0.0
H205 H 0.31824 0.02225 0.81283 0.0
C206 C 0.31915 0.11903 0.47548 0.0
C207 C 0.34115 0.14889 0.44647 0.0
C208 C 0.35818 0.15344 0.37376 0.0
C209 C 0.35368 0.12814 0.32905 0.0
C210 C 0.32984 0.09934 0.35458 0.0
C211 C 0.31261 0.09487 0.42727 0.0
C212 C 0.26573 0.09624 0.59879 0.0
C213 C 0.25107 0.1176 0.62582 0.0
C214 C 0.21986 0.10713 0.64818 0.0
C215 C 0.20277 0.07518 0.64337 0.0
C216 C 0.21723 0.05427 0.61299 0.0
C217 C 0.24857 0.06471 0.5911 0.0
C218 C 0.32293 0.07596 0.63144 0.0
C219 C 0.34941 0.07172 0.59699 0.0
C220 C 0.36438 0.04957 0.63926 0.0
C221 C 0.35356 0.03156 0.71769 0.0
C222 C 0.32668 0.03531 0.75175 0.0
C223 C 0.31145 0.05738 0.7088 0.0
P224 P 0.45428 0.25233 0.31807 0.0
H225 H 0.42931 0.2677 0.15747 0.0
H226 H 0.44389 0.31914 0.05621 0.0
H227 H 0.52981 0.34726 0.16981 0.0
H228 H 0.51542 0.29587 0.27081 0.0
H229 H 0.42581 0.19093 0.42707 0.0
H230 H 0.44614 0.14843 0.50768 0.0
H231 H 0.53566 0.19633 0.39062 0.0
H232 H 0.51456 0.23799 0.30621 0.0
H233 H 0.43586 0.3121 0.31977 0.0
H234 H 0.49119 0.25651 0.46419 0.0
O235 O 0.41645 0.2394 0.31073 0.0
H236 H 0.45557 0.3578 0.39041 0.0
H237 H 0.51087 0.30196 0.53389 0.0
C238 C 0.4712 0.27786 0.22215 0.0
C239 C 0.45203 0.28392 0.15804 0.0
C240 C 0.46031 0.3134 0.10017 0.0
C241 C 0.48781 0.33704 0.10599 0.0
C242 C 0.50858 0.32918 0.16396 0.0
C243 C 0.50043 0.2996 0.22128 0.0
C244 C 0.46844 0.21726 0.3592 0.0
C245 C 0.44954 0.19165 0.41619 0.0
C246 C 0.46133 0.16758 0.46326 0.0
C247 C 0.49259 0.16908 0.45613 0.0
C248 C 0.51139 0.19413 0.39673 0.0
C249 C 0.49935 0.21803 0.34845 0.0
C250 C 0.46178 0.28073 0.38691 0.0
C251 C 0.45142 0.30925 0.3684 0.0
C252 C 0.46291 0.33545 0.40808 0.0
C253 C 0.48471 0.33333 0.46747 0.0
C254 C 0.49375 0.30403 0.48914 0.0
C255 C 0.48245 0.27797 0.449 0.0
Nd256 Nd 0.01033 0.02162 0.7677 0.0
Nd257 Nd 0.04749 0.05582 0.9049 0.0
C258 C 0.9687 0.98338 0.69266 0.0
C259 C 0.96889 0.95404 0.65879 0.0
C260 C 0.94824 0.94421 0.59985 0.0
C261 C 0.94967 0.9175 0.56435 0.0
C262 C 0.97187 0.90021 0.58705 0.0
C263 C 0.99212 0.9098 0.64737 0.0
C264 C 0.99073 0.93651 0.68258 0.0
C265 C 0.07269 0.03469 0.73407 0.0
C266 C 0.04186 0.97997 0.91357 0.0
C267 C 0.08336 0.0957 0.98938 0.0
C268 C 0.08194 0.12506 0.02106 0.0
C269 C 0.10634 0.1404 0.06388 0.0
C270 C 0.10505 0.16788 0.09586 0.0
C271 C 0.0792 0.18042 0.08599 0.0
C272 C 0.05505 0.16545 0.04121 0.0
C273 C 0.05637 0.1379 0.00918 0.0
C274 C 0.98522 0.03017 0.93651 0.0
C275 C 0.02339 0.10123 0.74745 0.0
O276 O 0.96921 0.97966 0.77244 0.0
O277 O 0.98722 0.0112 0.65471 0.0
O278 O 0.05215 0.02154 0.68743 0.0
O279 O 0.05935 0.04012 0.79344 0.0
O280 O 0.01753 0.97981 0.86919 0.0
O281 O 0.06107 0.00761 0.92467 0.0
O282 O 0.08601 0.09954 0.90993 0.0
O283 O 0.06385 0.06796 0.02333 0.0
O284 O 0.00546 0.02944 0.99159 0.0
O285 O 0.99821 0.04535 0.86827 0.0
O286 O 0.03924 0.09937 0.81394 0.0
O287 O 0.0085 0.07499 0.71881 0.0
H288 H 0.93125 0.95743 0.58058 0.0
H289 H 0.93348 0.91043 0.51892 0.0
H290 H 0.00961 0.89718 0.66575 0.0
H291 H 0.00708 0.94383 0.72752 0.0
H292 H 0.12637 0.13102 0.07294 0.0
H293 H 0.12431 0.17935 0.12841 0.0
H294 H 0.0349 0.17461 0.0325 0.0
H295 H 0.03736 0.12644 0.9758 0.0
Nd296 Nd 0.53068 0.01213 0.79132 0.0
Nd297 Nd 0.5247 0.06257 0.88721 0.0
C298 C 0.53462 0.96344 0.71949 0.0
C299 C 0.55591 0.96205 0.65429 0.0
C300 C 0.5711 0.93699 0.66468 0.0
C301 C 0.59398 0.93779 0.60753 0.0
C302 C 0.60183 0.96353 0.53873 0.0
C303 C 0.58598 0.98804 0.5274 0.0
C304 C 0.56333 0.98736 0.58452 0.0
C305 C 0.53269 0.07294 0.69612 0.0
C306 C 0.59322 0.06007 0.83554 0.0
C307 C 0.52001 0.11255 0.95314 0.0
C308 C 0.4946 0.11791 0.99828 0.0
C309 C 0.49834 0.14671 0.02941 0.0
C310 C 0.47455 0.1508 0.07613 0.0
C311 C 0.44663 0.12616 0.09209 0.0
C312 C 0.44289 0.09755 0.0596 0.0
C313 C 0.46666 0.09349 0.01306 0.0
C314 C 0.5206 0.00157 0.98284 0.0
C315 C 0.46249 0.01339 0.84769 0.0
O316 O 0.54666 0.96744 0.78927 0.0
O317 O 0.51559 0.9815 0.69836 0.0
O318 O 0.55006 0.05473 0.682 0.0
O319 O 0.51503 0.05858 0.75756 0.0
O320 O 0.58053 0.031 0.8184 0.0
O321 O 0.57633 0.07922 0.85135 0.0
O322 O 0.51594 0.11174 0.87599 0.0
O323 O 0.53159 0.08906 0.9902 0.0
O324 O 0.50303 0.02016 0.99265 0.0
O325 O 0.53957 0.01529 0.92329 0.0
O326 O 0.47504 0.04327 0.8602 0.0
O327 O 0.47942 0.99405 0.83318 0.0
H328 H 0.56593 0.91739 0.7183 0.0
H329 H 0.60599 0.91871 0.61792 0.0
H330 H 0.59206 0.00865 0.47618 0.0
H331 H 0.5524 0.00733 0.5753 0.0
H332 H 0.51979 0.16577 0.0187 0.0
H333 H 0.47806 0.17306 0.10058 0.0
H334 H 0.42199 0.07779 0.07247 0.0
H335 H 0.46348 0.07094 0.99011 0.0
Nd336 Nd 0.50458 0.54798 0.97727 0.0
Nd337 Nd 0.54026 0.54021 0.82019 0.0
C338 C 0.47199 0.55998 0.09275 0.0
C339 C 0.45767 0.58451 0.11326 0.0
C340 C 0.44795 0.58136 0.19443 0.0
C341 C 0.43914 0.60696 0.21933 0.0
C342 C 0.43966 0.63611 0.16314 0.0
C343 C 0.44789 0.63841 0.08062 0.0
C344 C 0.45697 0.61279 0.05598 0.0
C345 C 0.56148 0.53757 0.99965 0.0
C346 C 0.53513 0.61315 0.83218 0.0
C347 C 0.57835 0.52793 0.72047 0.0
C348 C 0.57187 0.50324 0.66754 0.0
C349 C 0.58266 0.47497 0.68747 0.0
C350 C 0.57096 0.44796 0.65059 0.0
C351 C 0.54835 0.44885 0.59299 0.0
C352 C 0.53932 0.478 0.56846 0.0
C353 C 0.5509 0.50493 0.60545 0.0
C354 C 0.47885 0.53361 0.79085 0.0
C355 C 0.50323 0.47453 0.95511 0.0
O356 O 0.45957 0.54348 0.03716 0.0
O357 O 0.50197 0.56878 0.08695 0.0
O358 O 0.53869 0.52535 0.05286 0.0
O359 O 0.55439 0.55607 0.93851 0.0
O360 O 0.51458 0.59933 0.89364 0.0
O361 O 0.55166 0.59646 0.80189 0.0
O362 O 0.57603 0.51565 0.79914 0.0
O363 O 0.56606 0.55275 0.70108 0.0
O364 O 0.49829 0.53048 0.73824 0.0
O365 O 0.49251 0.53891 0.85421 0.0
O366 O 0.52573 0.48766 0.89853 0.0
O367 O 0.48787 0.49238 0.98513 0.0
H368 H 0.44875 0.55981 0.23961 0.0
H369 H 0.43389 0.6047 0.28369 0.0
H370 H 0.4486 0.66058 0.03598 0.0
H371 H 0.46468 0.61556 0.99328 0.0
H372 H 0.59887 0.47306 0.73488 0.0
H373 H 0.57877 0.42595 0.66914 0.0
H374 H 0.52201 0.47933 0.52393 0.0
H375 H 0.54204 0.52629 0.58846 0.0
Nd376 Nd 0.01297 0.55486 0.79759 0.0
Nd377 Nd 0.02859 0.49983 0.93352 0.0
C378 C 0.98536 0.59443 0.70434 0.0
C379 C 0.96139 0.58663 0.64538 0.0
C380 C 0.93332 0.59421 0.6532 0.0
C381 C 0.90898 0.58265 0.60512 0.0
C382 C 0.91231 0.56312 0.5489 0.0
C383 C 0.94082 0.55684 0.53867 0.0
C384 C 0.96501 0.56824 0.58666 0.0
C385 C 0.03519 0.50944 0.73907 0.0
C386 C 0.95779 0.48926 0.88628 0.0
C387 C 0.05174 0.45271 0.01129 0.0
C388 C 0.07471 0.45303 0.07389 0.0
C389 C 0.07793 0.42357 0.12191 0.0
C390 C 0.09881 0.42436 0.18421 0.0
C391 C 0.11668 0.45466 0.19922 0.0
C392 C 0.11348 0.48405 0.15035 0.0
C393 C 0.0927 0.48325 0.08839 0.0
C394 C 0.02138 0.55143 1.00346 0.0
C395 C 0.08145 0.56763 0.85414 0.0
O396 O 0.97694 0.58184 0.78106 0.0
O397 O 0.01253 0.59188 0.68535 0.0
O398 O 0.04047 0.54022 0.70459 0.0
O399 O 0.01649 0.50252 0.80031 0.0
O400 O 0.96602 0.51804 0.8353 0.0
O401 O 0.97765 0.47574 0.92787 0.0
O402 O 0.06197 0.46998 0.93852 0.0
O403 O 0.02574 0.45706 0.03444 0.0
O404 O 0.02738 0.52516 0.04479 0.0
O405 O 0.01915 0.54863 0.93021 0.0
O406 O 0.07449 0.53558 0.88384 0.0
O407 O 0.06048 0.58319 0.8285 0.0
H408 H 0.92989 0.60809 0.69849 0.0
H409 H 0.88724 0.58789 0.61405 0.0
H410 H 0.94424 0.5425 0.49445 0.0
H411 H 0.98624 0.56173 0.57933 0.0
H412 H 0.06402 0.40003 0.11207 0.0
H413 H 0.10045 0.40139 0.22185 0.0
H414 H 0.12704 0.50773 0.1603 0.0
H415 H 0.09039 0.50628 0.0523 0.0
C416 C 0.14812 0.0508 0.61624 0.0
C417 C 0.16985 0.06383 0.66958 0.0
C418 C 0.11678 0.04115 0.63838 0.0
C419 C 0.10603 0.04407 0.71479 0.0
H420 H 0.15536 0.04867 0.55624 0.0
H421 H 0.10085 0.03174 0.59471 0.0
S422 S 0.15392 0.07353 0.87969 0.0
N423 N 0.17875 0.0771 0.80421 0.0
N424 N 0.11978 0.05875 0.84596 0.0
C425 C 0.12758 0.05614 0.76965 0.0
C426 C 0.15952 0.06611 0.74698 0.0
C427 C 0.49666 0.14038 0.59921 0.0
C428 C 0.50547 0.14615 0.51582 0.0
C429 C 0.50654 0.11751 0.65699 0.0
C430 C 0.52597 0.09964 0.63426 0.0
H431 H 0.48164 0.15341 0.62011 0.0
H432 H 0.49831 0.11333 0.7199 0.0
S433 S 0.55647 0.10603 0.42423 0.0
N434 N 0.53519 0.13238 0.41349 0.0
N435 N 0.55445 0.08984 0.52274 0.0
C436 C 0.5359 0.10589 0.55158 0.0
C437 C 0.52554 0.12907 0.49228 0.0
C438 C 0.40064 0.50937 0.70424 0.0
C439 C 0.3828 0.5237 0.74716 0.0
C440 C 0.43172 0.51289 0.71881 0.0
C441 C 0.44609 0.53065 0.77722 0.0
H442 H 0.39034 0.49472 0.66027 0.0
H443 H 0.44448 0.50113 0.68494 0.0
S444 S 0.41066 0.57636 0.8985 0.0
N445 N 0.38249 0.55869 0.84551 0.0
N446 N 0.44096 0.56514 0.87294 0.0
C447 C 0.42883 0.54588 0.81892 0.0
C448 C 0.39718 0.54243 0.80389 0.0
C449 C 0.03725 0.43026 0.66934 0.0
C450 C 0.06177 0.44134 0.61025 0.0
C451 C 0.02923 0.45199 0.71354 0.0
C452 C 0.04521 0.48559 0.69915 0.0
H453 H 0.02438 0.40458 0.68196 0.0
H454 H 0.01003 0.44259 0.75779 0.0
S455 S 0.11112 0.52675 0.55055 0.0
N456 N 0.10181 0.48797 0.53992 0.0
N457 N 0.08702 0.52863 0.62217 0.0
C458 C 0.06989 0.49677 0.64055 0.0
C459 C 0.07808 0.47473 0.59626 0.0
C460 C 0.91328 0.0188 0.06534 0.0
C461 C 0.89399 0.03096 0.00856 0.0
C462 C 0.94211 0.01672 0.04059 0.0
C463 C 0.95269 0.02668 0.95814 0.0
H464 H 0.9068 0.01261 0.12995 0.0
H465 H 0.95676 0.00872 0.08706 0.0
S466 S 0.90872 0.05501 0.78402 0.0
N467 N 0.8858 0.04919 0.86523 0.0
N468 N 0.94002 0.0453 0.81858 0.0
C469 C 0.93268 0.03651 0.90003 0.0
C470 C 0.90335 0.03872 0.92531 0.0
C471 C 0.5064 0.94089 0.18392 0.0
C472 C 0.53323 0.93006 0.19277 0.0
C473 C 0.50232 0.96307 0.11446 0.0
C474 C 0.52484 0.97545 0.05052 0.0
H475 H 0.4882 0.932 0.23114 0.0
H476 H 0.48138 0.9709 0.11142 0.0
S477 S 0.59916 0.95457 0.04227 0.0
N478 N 0.58254 0.9329 0.13073 0.0
N479 N 0.5749 0.97486 0.99947 0.0
C480 C 0.55157 0.96435 0.05729 0.0
C481 C 0.55574 0.94158 0.1285 0.0
C482 C 0.64574 0.53972 0.99007 0.0
C483 C 0.64563 0.50815 0.03369 0.0
C484 C 0.61822 0.54881 0.97553 0.0
C485 C 0.58997 0.5269 1.00639 0.0
H486 H 0.66723 0.55752 0.96789 0.0
H487 H 0.61915 0.57347 0.94285 0.0
S488 S 0.57742 0.44105 0.12159 0.0
N489 N 0.61489 0.45464 0.10437 0.0
N490 N 0.56349 0.47193 0.07941 0.0
C491 C 0.58963 0.49512 0.04866 0.0
C492 C 0.61741 0.48568 0.06178 0.0
C493 C 0.02101 0.60584 0.15776 0.0
C494 C 0.02002 0.63611 0.10889 0.0
C495 C 0.02067 0.57843 0.12302 0.0
C496 C 0.01909 0.58013 0.03813 0.0
H497 H 0.02336 0.60368 0.22304 0.0
H498 H 0.02238 0.55595 0.16296 0.0
S499 S 0.01311 0.65278 0.88421 0.0
N500 N 0.01519 0.6655 0.97182 0.0
N501 N 0.0146 0.61403 0.90671 0.0
C502 C 0.01678 0.60981 0.98896 0.0
C503 C 0.01725 0.63778 0.02427 0.0
C504 C 0.03857 0.19362 0.70649 0.0
C505 C 0.04245 0.20206 0.62111 0.0
C506 C 0.02991 0.16061 0.74662 0.0
C507 C 0.02461 0.13483 0.70283 0.0
H508 H 0.04406 0.21258 0.74282 0.0
H509 H 0.02889 0.15527 0.81279 0.0
S510 S 0.02687 0.14425 0.47757 0.0
N511 N 0.03667 0.18241 0.49332 0.0
N512 N 0.0205 0.12011 0.56902 0.0
C513 C 0.02593 0.14298 0.61717 0.0
C514 C 0.03496 0.17669 0.57623 0.0
C515 C 0.3837 0.02479 0.84109 0.0
C516 C 0.37392 0.01462 0.76805 0.0
C517 C 0.41103 0.02009 0.87393 0.0
C518 C 0.42934 0.00499 0.83497 0.0
H519 H 0.37216 0.03973 0.86798 0.0
H520 H 0.41938 0.03135 0.92532 0.0
S521 S 0.4093 0.96609 0.65528 0.0
N522 N 0.381 0.98266 0.66784 0.0
N523 N 0.43265 0.97398 0.7294 0.0
C524 C 0.4175 0.99041 0.76914 0.0
C525 C 0.38967 0.99529 0.73551 0.0
C526 C 0.51331 0.39271 0.4481 0.0
C527 C 0.50008 0.36256 0.50135 0.0
C528 C 0.52925 0.42042 0.47807 0.0
C529 C 0.5326 0.41891 0.5623 0.0
H530 H 0.51176 0.39475 0.38266 0.0
H531 H 0.53922 0.44314 0.43501 0.0
S532 S 0.50007 0.34656 0.72741 0.0
N533 N 0.48999 0.33326 0.64226 0.0
N534 N 0.51986 0.38543 0.69879 0.0
C535 C 0.51911 0.38905 0.61625 0.0
C536 C 0.50288 0.36084 0.58572 0.0
C537 C 0.16383 0.57252 0.86213 0.0
C538 C 0.17195 0.57986 0.77826 0.0
C539 C 0.13523 0.5742 0.8896 0.0
C540 C 0.11416 0.58347 0.83402 0.0
H541 H 0.17769 0.56124 0.90555 0.0
H542 H 0.12807 0.56409 0.9532 0.0
S543 S 0.1285 0.61427 0.61133 0.0
N544 N 0.1599 0.60382 0.64232 0.0
N545 N 0.10607 0.60706 0.69419 0.0
C546 C 0.12419 0.59622 0.7521 0.0
C547 C 0.15322 0.5943 0.72401 0.0
C548 C 0.02502 0.89057 0.01938 0.0
C549 C 0.05417 0.88664 0.04009 0.0
C550 C 0.02138 0.92069 0.97709 0.0
C551 C 0.04671 0.9482 0.95486 0.0
H552 H 0.00468 0.87041 0.03768 0.0
H553 H 0.99843 0.92262 0.96366 0.0
S554 S 0.12817 0.95027 0.98796 0.0
N555 N 0.10905 0.91224 0.0298 0.0
N556 N 0.1021 0.96927 0.9521 0.0
C557 C 0.07606 0.94458 0.97372 0.0
C558 C 0.07981 0.91372 0.01598 0.0
C559 C 0.66977 0.10542 0.90296 0.0
C560 C 0.6865 0.08167 0.91136 0.0
C561 C 0.64031 0.09923 0.87278 0.0
C562 C 0.62649 0.06906 0.84966 0.0
H563 H 0.67897 0.12841 0.92331 0.0
H564 H 0.6278 0.11763 0.87143 0.0
S565 S 0.66205 0.99996 0.85187 0.0
N566 N 0.68791 0.02765 0.88911 0.0
N567 N 0.63325 0.01646 0.82959 0.0
C568 C 0.64397 0.04612 0.85191 0.0
C569 C 0.6738 0.0523 0.88347 0.0
C570 C 0.4607 0.72176 0.20988 0.0
C571 C 0.44036 0.71863 0.27604 0.0
C572 C 0.45881 0.69565 0.16944 0.0
C573 C 0.43641 0.66549 0.19343 0.0
H574 H 0.47959 0.74366 0.19296 0.0
H575 H 0.47641 0.69839 0.12299 0.0
S576 S 0.37405 0.64737 0.35244 0.0
N577 N 0.39468 0.68494 0.3566 0.0
N578 N 0.39063 0.63592 0.27933 0.0
C579 C 0.41429 0.66315 0.25477 0.0
C580 C 0.4164 0.68969 0.29643 0.0
C581 C 0.88425 0.44727 0.01176 0.0
C582 C 0.86195 0.45711 0.96147 0.0
C583 C 0.91495 0.45541 0.98425 0.0
C584 C 0.92468 0.47409 0.90568 0.0
H585 H 0.87845 0.43507 0.07486 0.0
H586 H 0.93144 0.44902 0.02715 0.0
S587 S 0.87457 0.50026 0.74453 0.0
N588 N 0.851 0.48191 0.82485 0.0
N589 N 0.90899 0.4982 0.77383 0.0
C590 C 0.90232 0.48184 0.85246 0.0
C591 C 0.87091 0.47316 0.88021 0.0
C592 C 0.06953 0.26394 0.11133 0.0
C593 C 0.0762 0.26422 0.19339 0.0
C594 C 0.06986 0.23644 0.07715 0.0
C595 C 0.07733 0.20866 0.12376 0.0
H596 H 0.06445 0.28519 0.0733 0.0
H597 H 0.06502 0.23726 0.01335 0.0
S598 S 0.09556 0.19747 0.34248 0.0
N599 N 0.08967 0.23451 0.32081 0.0
N600 N 0.09029 0.183 0.2573 0.0
C601 C 0.08353 0.2087 0.20631 0.0
C602 C 0.08298 0.23645 0.2409 0.0
C603 C 0.40792 0.13763 0.28097 0.0
C604 C 0.37668 0.12988 0.26409 0.0
C605 C 0.43037 0.13739 0.22403 0.0
C606 C 0.42245 0.12904 0.14794 0.0
H607 H 0.41499 0.14273 0.34006 0.0
H608 H 0.45401 0.14261 0.24102 0.0
S609 S 0.34405 0.10906 0.07126 0.0
N610 N 0.33905 0.11528 0.16422 0.0
N611 N 0.38127 0.11463 0.05671 0.0
C612 C 0.39133 0.12191 0.12938 0.0
C613 C 0.36844 0.1223 0.18755 0.0
C614 C 0.49932 0.38323 0.98279 0.0
C615 C 0.49139 0.37182 0.06644 0.0
C616 C 0.5027 0.41651 0.94653 0.0
C617 C 0.49744 0.43908 0.99243 0.0
H618 H 0.50331 0.36649 0.94565 0.0
H619 H 0.50946 0.42461 0.88219 0.0
S620 S 0.47635 0.42073 0.2143 0.0
N621 N 0.47863 0.38519 0.19429 0.0
N622 N 0.48427 0.4473 0.12654 0.0
C623 C 0.48907 0.42758 0.07602 0.0
C624 C 0.48624 0.39404 0.11291 0.0
C625 C 0.15775 0.48068 0.38376 0.0
C626 C 0.18029 0.4633 0.39379 0.0
C627 C 0.13692 0.47711 0.32188 0.0
C628 C 0.13792 0.45614 0.26728 0.0
H629 H 0.15619 0.49718 0.42427 0.0
H630 H 0.11993 0.491 0.31651 0.0
S631 S 0.19323 0.40588 0.26657 0.0
N632 N 0.20254 0.42442 0.34461 0.0
N633 N 0.16376 0.41817 0.22661 0.0
C634 C 0.16017 0.43831 0.27726 0.0
C635 C 0.18127 0.44178 0.34091 0.0
C636 C 0.98352 0.81828 0.55631 0.0
C637 C 0.98644 0.82237 0.47079 0.0
C638 C 0.97787 0.84308 0.59333 0.0
C639 C 0.9749 0.87302 0.54638 0.0
H640 H 0.98625 0.79595 0.59504 0.0
H641 H 0.97628 0.83898 0.65937 0.0
S642 S 0.98166 0.89663 0.32026 0.0
N643 N 0.98644 0.85909 0.34029 0.0
N644 N 0.9757 0.90546 0.40972 0.0
C645 C 0.97716 0.87718 0.46081 0.0
C646 C 0.98295 0.85196 0.42311 0.0
C647 C 0.68392 0.97629 0.46477 0.0
C648 C 0.6829 0.98578 0.37953 0.0
C649 C 0.65723 0.967 0.51557 0.0
C650 C 0.62853 0.96706 0.48311 0.0
H651 H 0.70569 0.97725 0.49269 0.0
H652 H 0.65935 0.96153 0.58106 0.0
S653 S 0.61281 0.98663 0.26378 0.0
N654 N 0.65031 0.99248 0.26466 0.0
N655 N 0.60019 0.97437 0.36023 0.0
C656 C 0.6269 0.97456 0.39779 0.0
C657 C 0.65405 0.98401 0.34598 0.0
C658 C 0.56491 0.69751 0.69273 0.0
C659 C 0.54126 0.71272 0.69948 0.0
C660 C 0.56332 0.6658 0.73793 0.0
C661 C 0.53796 0.64799 0.7914 0.0
H662 H 0.58454 0.71001 0.65122 0.0
H663 H 0.58189 0.65496 0.72966 0.0
S664 S 0.46914 0.67623 0.8274 0.0
N665 N 0.49128 0.70714 0.76181 0.0
N666 N 0.4883 0.64801 0.84637 0.0
C667 C 0.51434 0.66319 0.79918 0.0
C668 C 0.51598 0.69538 0.75334 0.0
C669 C 0.84522 0.55474 0.40926 0.0
C670 C 0.83749 0.52105 0.40548 0.0
C671 C 0.86891 0.5681 0.45741 0.0
C672 C 0.88598 0.54833 0.5026 0.0
H673 H 0.83297 0.57093 0.37432 0.0
H674 H 0.87443 0.59424 0.45758 0.0
S675 S 0.8744 0.45857 0.51564 0.0
N676 N 0.84866 0.46821 0.45226 0.0
N677 N 0.89268 0.49318 0.54346 0.0
C678 C 0.87808 0.51453 0.50065 0.0
C679 C 0.85397 0.50093 0.45201 0.0
loop_
_geom_bond_atom_site_label_1
_geom_bond_atom_site_label_2
_geom_bond_distance
_geom_bond_site_symmetry_2
_ccdc_geom_bond_type
P0 O11 1.490 . S
P0 C14 1.812 . S
P0 C20 1.803 . S
P0 C26 1.819 1_554 S
H1 C15 0.941 . S
H2 C16 0.939 . S
H3 C18 0.940 . S
H4 C19 0.940 . S
H5 C21 0.939 . S
H6 C22 0.942 . S
H7 C24 0.940 1_554 S
H8 C25 0.939 . S
H9 C27 0.941 1_554 S
H10 C31 0.939 . S
O11 P0 1.490 . S
H12 C28 0.939 . S
H13 C30 0.940 . S
C14 P0 1.812 . S
C14 C15 1.389 . S
C14 C19 1.391 . S
C15 H1 0.941 . S
C15 C14 1.389 . S
C15 C16 1.397 . S
C16 H2 0.939 . S
C16 C15 1.397 . S
C16 C17 1.378 . S
C17 C16 1.378 . S
C17 C18 1.378 . S
C18 H3 0.940 . S
C18 C17 1.378 . S
C18 C19 1.396 . S
C19 H4 0.940 . S
C19 C14 1.391 . S
C19 C18 1.396 . S
C20 P0 1.803 . S
C20 C21 1.378 1_554 S
C20 C25 1.400 . S
C21 H5 0.939 . S
C21 C20 1.378 1_556 S
C21 C22 1.361 . S
C22 H6 0.942 . S
C22 C21 1.361 . S
C22 C23 1.369 . S
C23 C22 1.369 . S
C23 C24 1.404 . S
C24 H7 0.940 1_556 S
C24 C23 1.404 . S
C24 C25 1.389 1_556 S
C25 H8 0.939 . S
C25 C20 1.400 . S
C25 C24 1.389 1_554 S
C26 P0 1.819 1_556 S
C26 C27 1.391 . S
C26 C31 1.391 . S
C27 H9 0.941 1_556 S
C27 C26 1.391 . S
C27 C28 1.396 . S
C28 H12 0.939 . S
C28 C27 1.396 . S
C28 C29 1.397 . S
C29 C28 1.397 . S
C29 C30 1.385 . S
C30 H13 0.940 . S
C30 C29 1.385 . S
C30 C31 1.388 . S
C31 H10 0.939 . S
C31 C26 1.391 . S
C31 C30 1.388 . S
P32 O43 1.490 1_655 S
P32 C46 1.812 . S
P32 C52 1.803 . S
P32 C58 1.819 1_554 S
H33 C47 0.941 . S
H34 C48 0.939 . S
H35 C50 0.940 . S
H36 C51 0.940 . S
H37 C53 0.939 1_556 S
H38 C54 0.942 . S
H39 C56 0.940 . S
H40 C57 0.939 . S
H41 C59 0.941 1_554 S
H42 C63 0.939 . S
O43 P32 1.490 1_455 S
H44 C60 0.939 . S
H45 C62 0.940 . S
C46 P32 1.812 . S
C46 C47 1.389 . S
C46 C51 1.391 . S
C47 H33 0.941 . S
C47 C46 1.389 . S
C47 C48 1.397 . S
C48 H34 0.939 . S
C48 C47 1.397 . S
C48 C49 1.378 . S
C49 C48 1.378 . S
C49 C50 1.378 . S
C50 H35 0.940 . S
C50 C49 1.378 . S
C50 C51 1.396 . S
C51 H36 0.940 . S
C51 C46 1.391 . S
C51 C50 1.396 . S
C52 P32 1.803 . S
C52 C53 1.378 . S
C52 C57 1.400 . S
C53 H37 0.939 1_554 S
C53 C52 1.378 . S
C53 C54 1.361 1_554 S
C54 H38 0.942 . S
C54 C53 1.361 1_556 S
C54 C55 1.369 1_556 S
C55 C54 1.369 1_554 S
C55 C56 1.404 . S
C56 H39 0.940 . S
C56 C55 1.404 . S
C56 C57 1.389 . S
C57 H40 0.939 . S
C57 C52 1.400 . S
C57 C56 1.389 . S
C58 P32 1.819 1_556 S
C58 C59 1.391 . S
C58 C63 1.391 . S
C59 H41 0.941 1_556 S
C59 C58 1.391 . S
C59 C60 1.396 . S
C60 H44 0.939 . S
C60 C59 1.396 . S
C60 C61 1.397 . S
C61 C60 1.397 . S
C61 C62 1.385 . S
C62 H45 0.940 . S
C62 C61 1.385 . S
C62 C63 1.388 . S
C63 H42 0.939 . S
C63 C58 1.391 . S
C63 C62 1.388 . S
P64 O75 1.490 . S
P64 C78 1.812 1_556 S
P64 C84 1.803 . S
P64 C90 1.819 . S
H65 C79 0.941 . S
H66 C80 0.939 . S
H67 C82 0.940 . S
H68 C83 0.940 . S
H69 C85 0.939 . S
H70 C86 0.942 . S
H71 C88 0.940 1_554 S
H72 C89 0.939 . S
H73 C91 0.941 . S
H74 C95 0.939 . S
O75 P64 1.490 . S
H76 C92 0.939 . S
H77 C94 0.940 . S
C78 P64 1.812 1_554 S
C78 C79 1.389 . S
C78 C83 1.391 1_545 S
C79 H65 0.941 . S
C79 C78 1.389 . S
C79 C80 1.397 . S
C80 H66 0.939 . S
C80 C79 1.397 . S
C80 C81 1.378 1_545 S
C81 C80 1.378 1_565 S
C81 C82 1.378 . S
C82 H67 0.940 . S
C82 C81 1.378 . S
C82 C83 1.396 . S
C83 H68 0.940 . S
C83 C78 1.391 1_565 S
C83 C82 1.396 . S
C84 P64 1.803 . S
C84 C85 1.378 . S
C84 C89 1.400 1_546 S
C85 H69 0.939 . S
C85 C84 1.378 . S
C85 C86 1.361 . S
C86 H70 0.942 . S
C86 C85 1.361 . S
C86 C87 1.369 1_545 S
C87 C86 1.369 1_565 S
C87 C88 1.404 . S
C88 H71 0.940 1_556 S
C88 C87 1.404 . S
C88 C89 1.389 1_556 S
C89 H72 0.939 . S
C89 C84 1.400 1_564 S
C89 C88 1.389 1_554 S
C90 P64 1.819 . S
C90 C91 1.391 . S
C90 C95 1.391 1_545 S
C91 H73 0.941 . S
C91 C90 1.391 . S
C91 C92 1.396 . S
C92 H76 0.939 . S
C92 C91 1.396 . S
C92 C93 1.397 1_545 S
C93 C92 1.397 1_565 S
C93 C94 1.385 . S
C94 H77 0.940 . S
C94 C93 1.385 . S
C94 C95 1.388 . S
C95 H74 0.939 . S
C95 C90 1.391 1_565 S
C95 C94 1.388 . S
P96 O107 1.490 . S
P96 C110 1.812 . S
P96 C116 1.803 . S
P96 C122 1.819 . S
H97 C111 0.941 . S
H98 C112 0.939 . S
H99 C114 0.940 . S
H100 C115 0.940 . S
H101 C117 0.939 . S
H102 C118 0.942 . S
H103 C120 0.940 . S
H104 C121 0.939 . S
H105 C123 0.941 . S
H106 C127 0.939 . S
O107 P96 1.490 . S
H108 C124 0.939 . S
H109 C126 0.940 . S
C110 P96 1.812 . S
C110 C111 1.389 . S
C110 C115 1.391 . S
C111 H97 0.941 . S
C111 C110 1.389 . S
C111 C112 1.397 . S
C112 H98 0.939 . S
C112 C111 1.397 . S
C112 C113 1.378 . S
C113 C112 1.378 . S
C113 C114 1.378 . S
C114 H99 0.940 . S
C114 C113 1.378 . S
C114 C115 1.396 . S
C115 H100 0.940 . S
C115 C110 1.391 . S
C115 C114 1.396 . S
C116 P96 1.803 . S
C116 C117 1.378 . S
C116 C121 1.400 . S
C117 H101 0.939 . S
C117 C116 1.378 . S
C117 C118 1.361 . S
C118 H102 0.942 . S
C118 C117 1.361 . S
C118 C119 1.369 . S
C119 C118 1.369 . S
C119 C120 1.404 . S
C120 H103 0.940 . S
C120 C119 1.404 . S
C120 C121 1.389 . S
C121 H104 0.939 . S
C121 C116 1.400 . S
C121 C120 1.389 . S
C122 P96 1.819 . S
C122 C123 1.391 . S
C122 C127 1.391 . S
C123 H105 0.941 . S
C123 C122 1.391 . S
C123 C124 1.396 . S
C124 H108 0.939 . S
C124 C123 1.396 . S
C124 C125 1.397 . S
C125 C124 1.397 . S
C125 C126 1.385 . S
C126 H109 0.940 . S
C126 C125 1.385 . S
C126 C127 1.388 . S
C127 H106 0.939 . S
C127 C122 1.391 . S
C127 C126 1.388 . S
P128 O139 1.490 . S
P128 C142 1.812 . S
P128 C148 1.803 . S
P128 C154 1.819 . S
H129 C143 0.941 . S
H130 C144 0.939 . S
H131 C146 0.940 . S
H132 C147 0.940 . S
H133 C149 0.939 . S
H134 C150 0.942 . S
H135 C152 0.940 . S
H136 C153 0.939 . S
H137 C155 0.941 . S
H138 C159 0.939 . S
O139 P128 1.490 . S
H140 C156 0.939 . S
H141 C158 0.940 . S
C142 P128 1.812 . S
C142 C143 1.389 . S
C142 C147 1.391 . S
C143 H129 0.941 . S
C143 C142 1.389 . S
C143 C144 1.397 . S
C144 H130 0.939 . S
C144 C143 1.397 . S
C144 C145 1.378 . S
C145 C144 1.378 . S
C145 C146 1.378 . S
C146 H131 0.940 . S
C146 C145 1.378 . S
C146 C147 1.396 . S
C147 H132 0.940 . S
C147 C142 1.391 . S
C147 C146 1.396 . S
C148 P128 1.803 . S
C148 C149 1.378 . S
C148 C153 1.400 . S
C149 H133 0.939 . S
C149 C148 1.378 . S
C149 C150 1.361 . S
C150 H134 0.942 . S
C150 C149 1.361 . S
C150 C151 1.369 . S
C151 C150 1.369 . S
C151 C152 1.404 . S
C152 H135 0.940 . S
C152 C151 1.404 . S
C152 C153 1.389 . S
C153 H136 0.939 . S
C153 C148 1.400 . S
C153 C152 1.389 . S
C154 P128 1.819 . S
C154 C155 1.391 . S
C154 C159 1.391 . S
C155 H137 0.941 . S
C155 C154 1.391 . S
C155 C156 1.396 . S
C156 H140 0.939 . S
C156 C155 1.396 . S
C156 C157 1.397 . S
C157 C156 1.397 . S
C157 C158 1.385 . S
C158 H141 0.940 . S
C158 C157 1.385 . S
C158 C159 1.388 . S
C159 H138 0.939 . S
C159 C154 1.391 . S
C159 C158 1.388 . S
P160 O171 1.490 . S
P160 C174 1.812 . S
P160 C180 1.803 . S
P160 C186 1.819 . S
H161 C175 0.941 . S
H162 C176 0.939 . S
H163 C178 0.940 . S
H164 C179 0.940 . S
H165 C181 0.939 . S
H166 C182 0.942 . S
H167 C184 0.940 . S
H168 C185 0.939 . S
H169 C187 0.941 . S
H170 C191 0.939 . S
O171 P160 1.490 . S
H172 C188 0.939 . S
H173 C190 0.940 . S
C174 P160 1.812 . S
C174 C175 1.389 . S
C174 C179 1.391 . S
C175 H161 0.941 . S
C175 C174 1.389 . S
C175 C176 1.397 . S
C176 H162 0.939 . S
C176 C175 1.397 . S
C176 C177 1.378 . S
C177 C176 1.378 . S
C177 C178 1.378 . S
C178 H163 0.940 . S
C178 C177 1.378 . S
C178 C179 1.396 . S
C179 H164 0.940 . S
C179 C174 1.391 . S
C179 C178 1.396 . S
C180 P160 1.803 . S
C180 C181 1.378 . S
C180 C185 1.400 . S
C181 H165 0.939 . S
C181 C180 1.378 . S
C181 C182 1.361 . S
C182 H166 0.942 . S
C182 C181 1.361 . S
C182 C183 1.369 . S
C183 C182 1.369 . S
C183 C184 1.404 . S
C184 H167 0.940 . S
C184 C183 1.404 . S
C184 C185 1.389 . S
C185 H168 0.939 . S
C185 C180 1.400 . S
C185 C184 1.389 . S
C186 P160 1.819 . S
C186 C187 1.391 . S
C186 C191 1.391 . S
C187 H169 0.941 . S
C187 C186 1.391 . S
C187 C188 1.396 . S
C188 H172 0.939 . S
C188 C187 1.396 . S
C188 C189 1.397 . S
C189 C188 1.397 . S
C189 C190 1.385 . S
C190 H173 0.940 . S
C190 C189 1.385 . S
C190 C191 1.388 . S
C191 H170 0.939 . S
C191 C186 1.391 . S
C191 C190 1.388 . S
P192 O203 1.490 . S
P192 C206 1.812 . S
P192 C212 1.803 . S
P192 C218 1.819 . S
H193 C207 0.941 . S
H194 C208 0.939 . S
H195 C210 0.940 . S
H196 C211 0.940 . S
H197 C213 0.939 . S
H198 C214 0.942 . S
H199 C216 0.940 . S
H200 C217 0.939 . S
H201 C219 0.941 . S
H202 C223 0.939 . S
O203 P192 1.490 . S
H204 C220 0.939 . S
H205 C222 0.940 . S
C206 P192 1.812 . S
C206 C207 1.389 . S
C206 C211 1.391 . S
C207 H193 0.941 . S
C207 C206 1.389 . S
C207 C208 1.397 . S
C208 H194 0.939 . S
C208 C207 1.397 . S
C208 C209 1.378 . S
C209 C208 1.378 . S
C209 C210 1.378 . S
C210 H195 0.940 . S
C210 C209 1.378 . S
C210 C211 1.396 . S
C211 H196 0.940 . S
C211 C206 1.391 . S
C211 C210 1.396 . S
C212 P192 1.803 . S
C212 C213 1.378 . S
C212 C217 1.400 . S
C213 H197 0.939 . S
C213 C212 1.378 . S
C213 C214 1.361 . S
C214 H198 0.942 . S
C214 C213 1.361 . S
C214 C215 1.369 . S
C215 C214 1.369 . S
C215 C216 1.404 . S
C216 H199 0.940 . S
C216 C215 1.404 . S
C216 C217 1.389 . S
C217 H200 0.939 . S
C217 C212 1.400 . S
C217 C216 1.389 . S
C218 P192 1.819 . S
C218 C219 1.391 . S
C218 C223 1.391 . S
C219 H201 0.941 . S
C219 C218 1.391 . S
C219 C220 1.396 . S
C220 H204 0.939 . S
C220 C219 1.396 . S
C220 C221 1.397 . S
C221 C220 1.397 . S
C221 C222 1.385 . S
C222 H205 0.940 . S
C222 C221 1.385 . S
C222 C223 1.388 . S
C223 H202 0.939 . S
C223 C218 1.391 . S
C223 C222 1.388 . S
P224 O235 1.490 . S
P224 C238 1.812 . S
P224 C244 1.803 . S
P224 C250 1.819 . S
H225 C239 0.941 . S
H226 C240 0.939 . S
H227 C242 0.940 . S
H228 C243 0.940 . S
H229 C245 0.939 . S
H230 C246 0.942 . S
H231 C248 0.940 . S
H232 C249 0.939 . S
H233 C251 0.941 . S
H234 C255 0.939 . S
O235 P224 1.490 . S
H236 C252 0.939 . S
H237 C254 0.940 . S
C238 P224 1.812 . S
C238 C239 1.389 . S
C238 C243 1.391 . S
C239 H225 0.941 . S
C239 C238 1.389 . S
C239 C240 1.397 . S
C240 H226 0.939 . S
C240 C239 1.397 . S
C240 C241 1.378 . S
C241 C240 1.378 . S
C241 C242 1.378 . S
C242 H227 0.940 . S
C242 C241 1.378 . S
C242 C243 1.396 . S
C243 H228 0.940 . S
C243 C238 1.391 . S
C243 C242 1.396 . S
C244 P224 1.803 . S
C244 C245 1.378 . S
C244 C249 1.400 . S
C245 H229 0.939 . S
C245 C244 1.378 . S
C245 C246 1.361 . S
C246 H230 0.942 . S
C246 C245 1.361 . S
C246 C247 1.369 . S
C247 C246 1.369 . S
C247 C248 1.404 . S
C248 H231 0.940 . S
C248 C247 1.404 . S
C248 C249 1.389 . S
C249 H232 0.939 . S
C249 C244 1.400 . S
C249 C248 1.389 . S
C250 P224 1.819 . S
C250 C251 1.391 . S
C250 C255 1.391 . S
C251 H233 0.941 . S
C251 C250 1.391 . S
C251 C252 1.396 . S
C252 H236 0.939 . S
C252 C251 1.396 . S
C252 C253 1.397 . S
C253 C252 1.397 . S
C253 C254 1.385 . S
C254 H237 0.940 . S
C254 C253 1.385 . S
C254 C255 1.388 . S
C255 H234 0.939 . S
C255 C250 1.391 . S
C255 C254 1.388 . S
Nd256 C258 2.836 1_445 S
Nd256 O276 2.500 1_445 S
Nd256 O277 2.492 1_545 S
Nd256 O278 2.487 . S
Nd256 O279 2.682 . S
Nd256 O280 2.410 1_545 S
Nd256 O285 2.414 1_455 S
Nd256 O287 2.424 . S
Nd257 C267 2.836 1_556 S
Nd257 O279 2.414 . S
Nd257 O281 2.424 1_545 S
Nd257 O282 2.500 1_556 S
Nd257 O283 2.492 1_556 S
Nd257 O284 2.487 1_455 S
Nd257 O285 2.682 1_455 S
Nd257 O286 2.410 . S
C258 Nd256 2.836 1_665 S
C258 C259 1.498 . S
C258 O276 1.258 . S
C258 O277 1.239 1_655 S
C259 C258 1.498 . S
C259 C260 1.366 . S
C259 C264 1.407 1_655 S
C260 C259 1.366 . S
C260 C261 1.392 . S
C260 H288 0.930 . S
C261 C260 1.392 . S
C261 C262 1.398 . S
C261 H289 0.929 . S
C262 C261 1.398 . S
C262 C263 1.352 . S
C263 C262 1.352 . S
C263 C264 1.384 1_655 S
C263 H290 0.930 1_655 S
C264 C259 1.407 1_455 S
C264 C263 1.384 1_455 S
C264 H291 0.929 . S
C265 O278 1.241 . S
C265 O279 1.273 . S
C266 O280 1.251 . S
C266 O281 1.268 . S
C267 Nd257 2.836 1_554 S
C267 C268 1.498 . S
C267 O282 1.258 . S
C267 O283 1.239 . S
C268 C267 1.498 . S
C268 C269 1.366 . S
C268 C273 1.407 . S
C269 C268 1.366 . S
C269 C270 1.392 . S
C269 H292 0.930 . S
C270 C269 1.392 . S
C270 C271 1.398 . S
C270 H293 0.929 . S
C271 C270 1.398 . S
C271 C272 1.352 . S
C272 C271 1.352 . S
C272 C273 1.384 . S
C272 H294 0.930 . S
C273 C268 1.407 . S
C273 C272 1.384 . S
C273 H295 0.929 . S
C274 O284 1.241 . S
C274 O285 1.273 . S
C275 O286 1.251 . S
C275 O287 1.268 . S
O276 Nd256 2.500 1_665 S
O276 C258 1.258 . S
O277 Nd256 2.492 1_565 S
O277 C258 1.239 1_455 S
O278 Nd256 2.487 . S
O278 C265 1.241 . S
O279 Nd256 2.682 . S
O279 Nd257 2.414 . S
O279 C265 1.273 . S
O280 Nd256 2.410 1_565 S
O280 C266 1.251 . S
O281 Nd257 2.424 1_565 S
O281 C266 1.268 . S
O282 Nd257 2.500 1_554 S
O282 C267 1.258 . S
O283 Nd257 2.492 1_554 S
O283 C267 1.239 . S
O284 Nd257 2.487 1_655 S
O284 C274 1.241 . S
O285 Nd256 2.414 1_655 S
O285 Nd257 2.682 1_655 S
O285 C274 1.273 . S
O286 Nd257 2.410 . S
O286 C275 1.251 . S
O287 Nd256 2.424 . S
O287 C275 1.268 . S
H288 C260 0.930 . S
H289 C261 0.929 . S
H290 C263 0.930 1_455 S
H291 C264 0.929 . S
H292 C269 0.930 . S
H293 C270 0.929 . S
H294 C272 0.930 . S
H295 C273 0.929 . S
Nd296 C298 2.836 1_545 S
Nd296 O316 2.500 1_545 S
Nd296 O317 2.492 . S
Nd296 O318 2.487 . S
Nd296 O319 2.682 . S
Nd296 O320 2.410 . S
Nd296 O325 2.414 1_545 S
Nd296 O327 2.424 . S
Nd297 C307 2.836 1_556 S
Nd297 O319 2.414 . S
Nd297 O321 2.424 . S
Nd297 O322 2.500 . S
Nd297 O323 2.492 1_556 S
Nd297 O324 2.487 1_546 S
Nd297 O325 2.682 1_545 S
Nd297 O326 2.410 . S
C298 Nd296 2.836 1_565 S
C298 C299 1.498 . S
C298 O316 1.258 . S
C298 O317 1.239 1_565 S
C299 C298 1.498 . S
C299 C300 1.366 . S
C299 C304 1.407 . S
C300 C299 1.366 . S
C300 C301 1.392 . S
C300 H328 0.930 . S
C301 C300 1.392 . S
C301 C302 1.398 . S
C301 H329 0.929 . S
C302 C301 1.398 . S
C302 C303 1.352 . S
C303 C302 1.352 . S
C303 C304 1.384 . S
C303 H330 0.930 . S
C304 C299 1.407 . S
C304 C303 1.384 . S
C304 H331 0.929 1_565 S
C305 O318 1.241 . S
C305 O319 1.273 . S
C306 O320 1.251 . S
C306 O321 1.268 . S
C307 Nd297 2.836 1_554 S
C307 C308 1.498 . S
C307 O322 1.258 1_554 S
C307 O323 1.239 . S
C308 C307 1.498 . S
C308 C309 1.366 . S
C308 C313 1.407 . S
C309 C308 1.366 . S
C309 C310 1.392 . S
C309 H332 0.930 1_554 S
C310 C309 1.392 . S
C310 C311 1.398 . S
C310 H333 0.929 . S
C311 C310 1.398 . S
C311 C312 1.352 . S
C312 C311 1.352 . S
C312 C313 1.384 . S
C312 H334 0.930 . S
C313 C308 1.407 . S
C313 C312 1.384 . S
C313 H335 0.929 . S
C314 O324 1.241 1_556 S
C314 O325 1.273 . S
C315 O326 1.251 . S
C315 O327 1.268 . S
O316 Nd296 2.500 1_565 S
O316 C298 1.258 . S
O317 Nd296 2.492 . S
O317 C298 1.239 1_545 S
O318 Nd296 2.487 . S
O318 C305 1.241 . S
O319 Nd296 2.682 . S
O319 Nd297 2.414 . S
O319 C305 1.273 . S
O320 Nd296 2.410 . S
O320 C306 1.251 . S
O321 Nd297 2.424 . S
O321 C306 1.268 . S
O322 Nd297 2.500 . S
O322 C307 1.258 1_556 S
O323 Nd297 2.492 1_554 S
O323 C307 1.239 . S
O324 Nd297 2.487 1_564 S
O324 C314 1.241 1_554 S
O325 Nd296 2.414 1_565 S
O325 Nd297 2.682 1_565 S
O325 C314 1.273 . S
O326 Nd297 2.410 . S
O326 C315 1.251 . S
O327 Nd296 2.424 . S
O327 C315 1.268 . S
H328 C300 0.930 . S
H329 C301 0.929 . S
H330 C303 0.930 . S
H331 C304 0.929 1_545 S
H332 C309 0.930 1_556 S
H333 C310 0.929 . S
H334 C312 0.930 . S
H335 C313 0.929 . S
Nd336 C338 2.836 1_556 S
Nd336 O356 2.500 . S
Nd336 O357 2.492 1_556 S
Nd336 O358 2.487 . S
Nd336 O359 2.682 . S
Nd336 O360 2.410 . S
Nd336 O365 2.414 . S
Nd336 O367 2.424 . S
Nd337 C347 2.836 . S
Nd337 O359 2.414 . S
Nd337 O361 2.424 . S
Nd337 O362 2.500 . S
Nd337 O363 2.492 . S
Nd337 O364 2.487 . S
Nd337 O365 2.682 . S
Nd337 O366 2.410 . S
C338 Nd336 2.836 1_554 S
C338 C339 1.498 . S
C338 O356 1.258 1_554 S
C338 O357 1.239 . S
C339 C338 1.498 . S
C339 C340 1.368 . S
C339 C344 1.407 . S
C340 C339 1.368 . S
C340 C341 1.397 . S
C340 H368 0.923 1_554 S
C341 C340 1.397 . S
C341 C342 1.398 . S
C341 H369 0.929 . S
C342 C341 1.398 . S
C342 C343 1.352 . S
C343 C342 1.352 . S
C343 C344 1.384 . S
C343 H370 0.930 . S
C344 C339 1.407 . S
C344 C343 1.384 . S
C344 H371 0.929 . S
C345 O358 1.241 . S
C345 O359 1.273 . S
C346 O360 1.251 . S
C346 O361 1.268 . S
C347 Nd337 2.836 . S
C347 C348 1.498 . S
C347 O362 1.258 . S
C347 O363 1.239 . S
C348 C347 1.498 . S
C348 C349 1.366 . S
C348 C353 1.407 . S
C349 C348 1.366 . S
C349 C350 1.392 . S
C349 H372 0.930 . S
C350 C349 1.392 . S
C350 C351 1.398 . S
C350 H373 0.929 . S
C351 C350 1.398 . S
C351 C352 1.352 . S
C352 C351 1.352 . S
C352 C353 1.384 . S
C352 H374 0.930 . S
C353 C348 1.407 . S
C353 C352 1.384 . S
C353 H375 0.929 . S
C354 O364 1.241 . S
C354 O365 1.273 . S
C355 O366 1.251 . S
C355 O367 1.268 . S
O356 Nd336 2.500 . S
O356 C338 1.258 1_556 S
O357 Nd336 2.492 1_554 S
O357 C338 1.239 . S
O358 Nd336 2.487 . S
O358 C345 1.241 . S
O359 Nd336 2.682 . S
O359 Nd337 2.414 . S
O359 C345 1.273 . S
O360 Nd336 2.410 . S
O360 C346 1.251 . S
O361 Nd337 2.424 . S
O361 C346 1.268 . S
O362 Nd337 2.500 . S
O362 C347 1.258 . S
O363 Nd337 2.492 . S
O363 C347 1.239 . S
O364 Nd337 2.487 . S
O364 C354 1.241 . S
O365 Nd336 2.414 . S
O365 Nd337 2.682 . S
O365 C354 1.273 . S
O366 Nd337 2.410 . S
O366 C355 1.251 . S
O367 Nd336 2.424 . S
O367 C355 1.268 . S
H368 C340 0.923 1_556 S
H369 C341 0.929 . S
H370 C343 0.930 . S
H371 C344 0.929 . S
H372 C349 0.930 . S
H373 C350 0.929 . S
H374 C352 0.930 . S
H375 C353 0.929 . S
Nd376 C378 2.836 1_455 S
Nd376 O396 2.500 1_455 S
Nd376 O397 2.492 1_455 S
Nd376 O398 2.487 . S
Nd376 O399 2.682 . S
Nd376 O400 2.410 1_455 S
Nd376 O405 2.414 . S
Nd376 O407 2.424 . S
Nd377 C387 2.836 1_556 S
Nd377 O399 2.414 . S
Nd377 O401 2.424 1_455 S
Nd377 O402 2.500 1_556 S
Nd377 O403 2.492 1_556 S
Nd377 O404 2.487 . S
Nd377 O405 2.682 . S
Nd377 O406 2.410 . S
C378 Nd376 2.836 1_655 S
C378 C379 1.498 . S
C378 O396 1.258 . S
C378 O397 1.239 . S
C379 C378 1.498 . S
C379 C380 1.366 . S
C379 C384 1.407 . S
C380 C379 1.366 . S
C380 C381 1.392 . S
C380 H408 0.930 . S
C381 C380 1.392 . S
C381 C382 1.398 . S
C381 H409 0.929 . S
C382 C381 1.398 . S
C382 C383 1.352 . S
C383 C382 1.352 . S
C383 C384 1.384 . S
C383 H410 0.930 . S
C384 C379 1.407 . S
C384 C383 1.384 . S
C384 H411 0.929 . S
C385 O398 1.241 . S
C385 O399 1.273 . S
C386 O400 1.251 . S
C386 O401 1.268 . S
C387 Nd377 2.836 1_554 S
C387 C388 1.498 . S
C387 O402 1.258 . S
C387 O403 1.239 . S
C388 C387 1.498 . S
C388 C389 1.366 . S
C388 C393 1.407 . S
C389 C388 1.366 . S
C389 C390 1.392 . S
C389 H412 0.930 . S
C390 C389 1.392 . S
C390 C391 1.398 . S
C390 H413 0.929 . S
C391 C390 1.398 . S
C391 C392 1.352 . S
C392 C391 1.352 . S
C392 C393 1.384 . S
C392 H414 0.930 . S
C393 C388 1.407 . S
C393 C392 1.384 . S
C393 H415 0.929 . S
C394 O404 1.241 . S
C394 O405 1.273 . S
C395 O406 1.251 . S
C395 O407 1.268 . S
O396 Nd376 2.500 1_655 S
O396 C378 1.258 . S
O397 Nd376 2.492 1_655 S
O397 C378 1.239 . S
O398 Nd376 2.487 . S
O398 C385 1.241 . S
O399 Nd376 2.682 . S
O399 Nd377 2.414 . S
O399 C385 1.273 . S
O400 Nd376 2.410 1_655 S
O400 C386 1.251 . S
O401 Nd377 2.424 1_655 S
O401 C386 1.268 . S
O402 Nd377 2.500 1_554 S
O402 C387 1.258 . S
O403 Nd377 2.492 1_554 S
O403 C387 1.239 . S
O404 Nd377 2.487 . S
O404 C394 1.241 . S
O405 Nd376 2.414 . S
O405 Nd377 2.682 . S
O405 C394 1.273 . S
O406 Nd377 2.410 . S
O406 C395 1.251 . S
O407 Nd376 2.424 . S
O407 C395 1.268 . S
H408 C380 0.930 . S
H409 C381 0.929 . S
H410 C383 0.930 . S
H411 C384 0.929 . S
H412 C389 0.930 . S
H413 C390 0.929 . S
H414 C392 0.930 . S
H415 C393 0.929 . S
C416 C417 1.369 . S
C416 C418 1.419 . S
C416 H420 0.930 . S
C417 C416 1.369 . S
C417 C426 1.429 . S
C418 C416 1.419 . S
C418 C419 1.363 . S
C418 H421 0.929 . S
C419 C418 1.363 . S
C419 C425 1.428 . S
H420 C416 0.930 . S
H421 C418 0.929 . S
S422 N423 1.613 . S
S422 N424 1.610 . S
N423 S422 1.613 . S
N423 C426 1.350 . S
N424 S422 1.610 . S
N424 C425 1.351 . S
C425 C419 1.428 . S
C425 N424 1.351 . S
C425 C426 1.434 . S
C426 C417 1.429 . S
C426 N423 1.350 . S
C426 C425 1.434 . S
C427 C428 1.369 . S
C427 C429 1.419 . S
C427 H431 0.930 . S
C428 C427 1.369 . S
C428 C437 1.429 . S
C429 C427 1.419 . S
C429 C430 1.363 . S
C429 H432 0.929 . S
C430 C429 1.363 . S
C430 C436 1.428 . S
H431 C427 0.930 . S
H432 C429 0.929 . S
S433 N434 1.613 . S
S433 N435 1.610 . S
N434 S433 1.613 . S
N434 C437 1.350 . S
N435 S433 1.610 . S
N435 C436 1.351 . S
C436 C430 1.428 . S
C436 N435 1.351 . S
C436 C437 1.434 . S
C437 C428 1.429 . S
C437 N434 1.350 . S
C437 C436 1.434 . S
C438 C439 1.369 . S
C438 C440 1.419 . S
C438 H442 0.930 . S
C439 C438 1.369 . S
C439 C448 1.429 . S
C440 C438 1.419 . S
C440 C441 1.363 . S
C440 H443 0.929 . S
C441 C440 1.363 . S
C441 C447 1.428 . S
H442 C438 0.930 . S
H443 C440 0.929 . S
S444 N445 1.613 . S
S444 N446 1.610 . S
N445 S444 1.613 . S
N445 C448 1.350 . S
N446 S444 1.610 . S
N446 C447 1.351 . S
C447 C441 1.428 . S
C447 N446 1.351 . S
C447 C448 1.434 . S
C448 C439 1.429 . S
C448 N445 1.350 . S
C448 C447 1.434 . S
C449 C450 1.369 . S
C449 C451 1.419 . S
C449 H453 0.930 . S
C450 C449 1.369 . S
C450 C459 1.429 . S
C451 C449 1.419 . S
C451 C452 1.363 . S
C451 H454 0.929 . S
C452 C451 1.363 . S
C452 C458 1.428 . S
H453 C449 0.930 . S
H454 C451 0.929 . S
S455 N456 1.613 . S
S455 N457 1.610 . S
N456 S455 1.613 . S
N456 C459 1.350 . S
N457 S455 1.610 . S
N457 C458 1.351 . S
C458 C452 1.428 . S
C458 N457 1.351 . S
C458 C459 1.434 . S
C459 C450 1.429 . S
C459 N456 1.350 . S
C459 C458 1.434 . S
C460 C461 1.369 . S
C460 C462 1.419 . S
C460 H464 0.930 1_556 S
C461 C460 1.369 . S
C461 C470 1.429 1_565 S
C462 C460 1.419 . S
C462 C463 1.363 1_565 S
C462 H465 0.929 . S
C463 C462 1.363 1_545 S
C463 C469 1.428 . S
H464 C460 0.930 1_554 S
H465 C462 0.929 . S
S466 N467 1.613 . S
S466 N468 1.610 . S
N467 S466 1.613 . S
N467 C470 1.350 . S
N468 S466 1.610 . S
N468 C469 1.351 . S
C469 C463 1.428 . S
C469 N468 1.351 . S
C469 C470 1.434 . S
C470 C461 1.429 1_545 S
C470 N467 1.350 . S
C470 C469 1.434 . S
C471 C472 1.369 . S
C471 C473 1.419 . S
C471 H475 0.930 . S
C472 C471 1.369 . S
C472 C481 1.429 . S
C473 C471 1.419 . S
C473 C474 1.363 . S
C473 H476 0.929 . S
C474 C473 1.363 . S
C474 C480 1.428 . S
H475 C471 0.930 . S
H476 C473 0.929 . S
S477 N478 1.613 1_545 S
S477 N479 1.616 1_554 S
N478 S477 1.613 1_565 S
N478 C481 1.350 . S
N479 S477 1.616 1_556 S
N479 C480 1.343 1_546 S
C480 C474 1.428 . S
C480 N479 1.343 1_564 S
C480 C481 1.434 . S
C481 C472 1.429 . S
C481 N478 1.350 . S
C481 C480 1.434 . S
C482 C483 1.369 . S
C482 C484 1.419 . S
C482 H486 0.930 . S
C483 C482 1.369 . S
C483 C492 1.429 . S
C484 C482 1.419 . S
C484 C485 1.363 . S
C484 H487 0.929 . S
C485 C484 1.363 . S
C485 C491 1.428 . S
H486 C482 0.930 . S
H487 C484 0.929 . S
S488 N489 1.613 . S
S488 N490 1.610 . S
N489 S488 1.613 . S
N489 C492 1.350 1_554 S
N490 S488 1.610 . S
N490 C491 1.351 1_554 S
C491 C485 1.428 . S
C491 N490 1.351 1_556 S
C491 C492 1.434 . S
C492 C483 1.429 . S
C492 N489 1.350 1_556 S
C492 C491 1.434 . S
C493 C494 1.369 1_554 S
C493 C495 1.419 1_554 S
C493 H497 0.930 . S
C494 C493 1.369 1_556 S
C494 C503 1.429 . S
C495 C493 1.419 1_556 S
C495 C496 1.363 . S
C495 H498 0.929 1_656 S
C496 C495 1.363 . S
C496 C502 1.428 . S
H497 C493 0.930 . S
H498 C495 0.929 1_454 S
S499 N500 1.613 . S
S499 N501 1.610 . S
N500 S499 1.613 . S
N500 C503 1.350 . S
N501 S499 1.610 . S
N501 C502 1.351 . S
C502 C496 1.428 . S
C502 N501 1.351 . S
C502 C503 1.434 . S
C503 C494 1.429 . S
C503 N500 1.350 . S
C503 C502 1.434 . S
C504 C505 1.369 . S
C504 C506 1.419 . S
C504 H508 0.930 . S
C505 C504 1.369 . S
C505 C514 1.429 . S
C506 C504 1.419 . S
C506 C507 1.363 . S
C506 H509 0.929 . S
C507 C506 1.363 . S
C507 C513 1.428 . S
H508 C504 0.930 . S
H509 C506 0.929 . S
S510 N511 1.613 . S
S510 N512 1.610 . S
N511 S510 1.613 . S
N511 C514 1.350 . S
N512 S510 1.610 . S
N512 C513 1.351 . S
C513 C507 1.428 . S
C513 N512 1.351 . S
C513 C514 1.434 . S
C514 C505 1.429 . S
C514 N511 1.350 . S
C514 C513 1.434 . S
C515 C516 1.369 . S
C515 C517 1.419 . S
C515 H519 0.930 1_556 S
C516 C515 1.369 . S
C516 C525 1.429 . S
C517 C515 1.419 . S
C517 C518 1.363 . S
C517 H520 0.929 . S
C518 C517 1.363 . S
C518 C524 1.428 . S
H519 C515 0.930 1_554 S
H520 C517 0.929 . S
S521 N522 1.613 . S
S521 N523 1.610 . S
N522 S521 1.613 . S
N522 C525 1.350 . S
N523 S521 1.610 . S
N523 C524 1.351 . S
C524 C518 1.428 . S
C524 N523 1.351 . S
C524 C525 1.434 . S
C525 C516 1.429 . S
C525 N522 1.350 . S
C525 C524 1.434 . S
C526 C527 1.369 . S
C526 C528 1.419 . S
C526 H530 0.930 . S
C527 C526 1.369 . S
C527 C536 1.429 . S
C528 C526 1.419 . S
C528 C529 1.363 . S
C528 H531 0.929 . S
C529 C528 1.363 . S
C529 C535 1.428 . S
H530 C526 0.930 . S
H531 C528 0.929 . S
S532 N533 1.613 . S
S532 N534 1.610 . S
N533 S532 1.613 . S
N533 C536 1.350 . S
N534 S532 1.610 . S
N534 C535 1.351 . S
C535 C529 1.428 . S
C535 N534 1.351 . S
C535 C536 1.434 . S
C536 C527 1.429 . S
C536 N533 1.350 . S
C536 C535 1.434 . S
C537 C538 1.369 . S
C537 C539 1.419 . S
C537 H541 0.930 . S
C538 C537 1.369 . S
C538 C547 1.429 . S
C539 C537 1.419 . S
C539 C540 1.363 . S
C539 H542 0.929 . S
C540 C539 1.363 . S
C540 C546 1.428 . S
H541 C537 0.930 . S
H542 C539 0.929 . S
S543 N544 1.613 . S
S543 N545 1.610 . S
N544 S543 1.613 . S
N544 C547 1.350 . S
N545 S543 1.610 . S
N545 C546 1.351 . S
C546 C540 1.428 . S
C546 N545 1.351 . S
C546 C547 1.434 . S
C547 C538 1.429 . S
C547 N544 1.350 . S
C547 C546 1.434 . S
C548 C549 1.369 . S
C548 C550 1.419 . S
C548 H552 0.930 . S
C549 C548 1.369 . S
C549 C558 1.429 . S
C550 C548 1.419 . S
C550 C551 1.363 . S
C550 H553 0.929 . S
C551 C550 1.363 . S
C551 C557 1.428 . S
H552 C548 0.930 . S
H553 C550 0.929 . S
S554 N555 1.613 1_455 S
S554 N556 1.610 . S
N555 S554 1.613 1_655 S
N555 C558 1.350 . S
N556 S554 1.610 . S
N556 C557 1.351 1_455 S
C557 C551 1.428 . S
C557 N556 1.351 1_655 S
C557 C558 1.434 . S
C558 C549 1.429 . S
C558 N555 1.350 . S
C558 C557 1.434 . S
C559 C560 1.369 1_545 S
C559 C561 1.419 . S
C559 H563 0.930 . S
C560 C559 1.369 1_565 S
C560 C569 1.429 . S
C561 C559 1.419 . S
C561 C562 1.363 . S
C561 H564 0.929 . S
C562 C561 1.363 . S
C562 C568 1.428 1_545 S
H563 C559 0.930 . S
H564 C561 0.929 . S
S565 N566 1.613 . S
S565 N567 1.610 . S
N566 S565 1.613 . S
N566 C569 1.350 . S
N567 S565 1.610 . S
N567 C568 1.351 . S
C568 C562 1.428 1_565 S
C568 N567 1.351 . S
C568 C569 1.434 . S
C569 C560 1.429 . S
C569 N566 1.350 . S
C569 C568 1.434 . S
C570 C571 1.369 . S
C570 C572 1.419 . S
C570 H574 0.930 . S
C571 C570 1.369 . S
C571 C580 1.429 . S
C572 C570 1.419 . S
C572 C573 1.363 . S
C572 H575 0.929 . S
C573 C572 1.363 . S
C573 C579 1.428 . S
H574 C570 0.930 . S
H575 C572 0.929 . S
S576 N577 1.613 1_556 S
S576 N578 1.610 . S
N577 S576 1.613 1_554 S
N577 C580 1.350 . S
N578 S576 1.610 . S
N578 C579 1.351 1_556 S
C579 C573 1.428 . S
C579 N578 1.351 1_554 S
C579 C580 1.434 . S
C580 C571 1.429 . S
C580 N577 1.350 . S
C580 C579 1.434 . S
C581 C582 1.369 . S
C581 C583 1.419 . S
C581 H585 0.930 . S
C582 C581 1.369 . S
C582 C591 1.429 . S
C583 C581 1.419 . S
C583 C584 1.363 . S
C583 H586 0.929 . S
C584 C583 1.363 . S
C584 C590 1.428 . S
H585 C581 0.930 . S
H586 C583 0.929 . S
S587 N588 1.613 . S
S587 N589 1.610 . S
N588 S587 1.613 . S
N588 C591 1.350 . S
N589 S587 1.610 . S
N589 C590 1.351 . S
C590 C584 1.428 . S
C590 N589 1.351 . S
C590 C591 1.434 . S
C591 C582 1.429 . S
C591 N588 1.350 . S
C591 C590 1.434 . S
C592 C593 1.369 . S
C592 C594 1.419 . S
C592 H596 0.930 . S
C593 C592 1.369 . S
C593 C602 1.429 . S
C594 C592 1.419 . S
C594 C595 1.363 . S
C594 H597 0.929 . S
C595 C594 1.363 . S
C595 C601 1.428 . S
H596 C592 0.930 . S
H597 C594 0.929 . S
S598 N599 1.613 . S
S598 N600 1.610 . S
N599 S598 1.613 . S
N599 C602 1.350 . S
N600 S598 1.610 . S
N600 C601 1.351 . S
C601 C595 1.428 . S
C601 N600 1.351 . S
C601 C602 1.434 . S
C602 C593 1.429 . S
C602 N599 1.350 . S
C602 C601 1.434 . S
C603 C604 1.369 . S
C603 C605 1.419 . S
C603 H607 0.930 . S
C604 C603 1.369 . S
C604 C613 1.429 . S
C605 C603 1.419 . S
C605 C606 1.363 . S
C605 H608 0.929 . S
C606 C605 1.363 . S
C606 C612 1.428 . S
H607 C603 0.930 . S
H608 C605 0.929 . S
S609 N610 1.613 . S
S609 N611 1.610 . S
N610 S609 1.613 . S
N610 C613 1.350 . S
N611 S609 1.610 . S
N611 C612 1.351 . S
C612 C606 1.428 . S
C612 N611 1.351 . S
C612 C613 1.434 . S
C613 C604 1.429 . S
C613 N610 1.350 . S
C613 C612 1.434 . S
C614 C615 1.369 1_556 S
C614 C616 1.419 . S
C614 H618 0.930 . S
C615 C614 1.369 1_554 S
C615 C624 1.429 . S
C616 C614 1.419 . S
C616 C617 1.363 . S
C616 H619 0.929 . S
C617 C616 1.363 . S
C617 C623 1.428 1_556 S
H618 C614 0.930 . S
H619 C616 0.929 . S
S620 N621 1.613 . S
S620 N622 1.610 . S
N621 S620 1.613 . S
N621 C624 1.350 . S
N622 S620 1.610 . S
N622 C623 1.351 . S
C623 C617 1.428 1_554 S
C623 N622 1.351 . S
C623 C624 1.434 . S
C624 C615 1.429 . S
C624 N621 1.350 . S
C624 C623 1.434 . S
C625 C626 1.369 . S
C625 C627 1.419 . S
C625 H629 0.930 . S
C626 C625 1.369 . S
C626 C635 1.429 . S
C627 C625 1.419 . S
C627 C628 1.363 . S
C627 H630 0.929 . S
C628 C627 1.363 . S
C628 C634 1.428 . S
H629 C625 0.930 . S
H630 C627 0.929 . S
S631 N632 1.613 . S
S631 N633 1.610 . S
N632 S631 1.613 . S
N632 C635 1.350 . S
N633 S631 1.610 . S
N633 C634 1.351 . S
C634 C628 1.428 . S
C634 N633 1.351 . S
C634 C635 1.434 . S
C635 C626 1.429 . S
C635 N632 1.350 . S
C635 C634 1.434 . S
C636 C637 1.369 . S
C636 C638 1.419 . S
C636 H640 0.930 . S
C637 C636 1.369 . S
C637 C646 1.429 . S
C638 C636 1.419 . S
C638 C639 1.363 . S
C638 H641 0.929 . S
C639 C638 1.363 . S
C639 C645 1.428 . S
H640 C636 0.930 . S
H641 C638 0.929 . S
S642 N643 1.613 . S
S642 N644 1.610 . S
N643 S642 1.613 . S
N643 C646 1.350 . S
N644 S642 1.610 . S
N644 C645 1.351 . S
C645 C639 1.428 . S
C645 N644 1.351 . S
C645 C646 1.434 . S
C646 C637 1.429 . S
C646 N643 1.350 . S
C646 C645 1.434 . S
C647 C648 1.369 . S
C647 C649 1.419 . S
C647 H651 0.930 . S
C648 C647 1.369 . S
C648 C657 1.429 . S
C649 C647 1.419 . S
C649 C650 1.363 . S
C649 H652 0.929 . S
C650 C649 1.363 . S
C650 C656 1.428 . S
H651 C647 0.930 . S
H652 C649 0.929 . S
S653 N654 1.613 . S
S653 N655 1.610 1_545 S
N654 S653 1.613 . S
N654 C657 1.350 1_545 S
N655 S653 1.610 1_565 S
N655 C656 1.351 . S
C656 C650 1.428 . S
C656 N655 1.351 . S
C656 C657 1.434 . S
C657 C648 1.429 . S
C657 N654 1.350 1_565 S
C657 C656 1.434 . S
C658 C659 1.369 . S
C658 C660 1.419 . S
C658 H662 0.930 . S
C659 C658 1.369 . S
C659 C668 1.429 . S
C660 C658 1.419 . S
C660 C661 1.363 . S
C660 H663 0.929 . S
C661 C660 1.363 . S
C661 C667 1.428 . S
H662 C658 0.930 . S
H663 C660 0.929 . S
S664 N665 1.613 . S
S664 N666 1.610 . S
N665 S664 1.613 . S
N665 C668 1.350 . S
N666 S664 1.610 . S
N666 C667 1.351 . S
C667 C661 1.428 . S
C667 N666 1.351 . S
C667 C668 1.434 . S
C668 C659 1.429 . S
C668 N665 1.350 . S
C668 C667 1.434 . S
C669 C670 1.369 . S
C669 C671 1.419 . S
C669 H673 0.930 . S
C670 C669 1.369 . S
C670 C679 1.429 . S
C671 C669 1.419 . S
C671 C672 1.363 . S
C671 H674 0.929 . S
C672 C671 1.363 . S
C672 C678 1.428 . S
H673 C669 0.930 . S
H674 C671 0.929 . S
S675 N676 1.613 . S
S675 N677 1.610 . S
N676 S675 1.613 . S
N676 C679 1.350 . S
N677 S675 1.610 . S
N677 C678 1.351 . S
C678 C672 1.428 . S
C678 N677 1.351 . S
C678 C679 1.434 . S
C679 C670 1.429 . S
C679 N676 1.350 . S
C679 C678 1.434 . S
C417 C215 1.492 . S
C419 C265 1.439 . S
C430 C305 1.936 . S
C428 C247 2.141 . S
C441 C354 1.416 . S
C439 C151 1.309 . S
C452 C385 1.916 . S
C450 C183 2.053 . S
C463 C274 1.440 . S
C461 C87 1.349 . S
C472 C119 1.911 . S
C474 C314 1.938 1_554 S
C483 C23 1.451 . S
C485 C345 1.413 . S
C494 C55 1.823 1_556 S
C496 C394 1.919 1_655 S
C507 C275 1.587 . S
C505 C189 1.437 . S
C518 C315 1.674 . S
C516 C221 1.561 . S
C529 C351 0.846 . S
C527 C253 0.848 . S
C538 C157 1.357 . S
C540 C395 1.626 . S
C549 C61 1.137 . S
C551 C266 1.589 1_655 S
C562 C306 1.668 . S
C560 C93 1.328 . S
C573 C342 0.843 . S
C571 C125 0.819 . S
C582 C29 1.469 . S
C584 C386 1.626 . S
C593 C177 1.894 . S
C595 C271 1.949 . S
C604 C209 1.665 . S
C606 C311 1.676 . S
C617 C355 2.728 . S
C615 C241 2.471 . S
C628 C391 1.632 . S
C626 C145 1.522 . S
C637 C49 1.797 . S
C639 C262 1.949 . S
C650 C302 1.676 . S
C648 C81 1.700 . S
C661 C346 2.727 . S
C659 C113 2.349 . S
C670 C17 1.670 . S
C672 C382 1.629 . S
