# Generated by pormake.
# Topology nom, (4,4)-cn, num edge types: 1
# Building blocks:
#     Node 0, Type 0, BuildingBlock: NAWXER_clean_linker_0, # of connection points: 4
#     Node 1, Type 0, BuildingBlock: NAWXER_clean_linker_0, # of connection points: 4
#     Node 2, Type 0, BuildingBlock: NAWXER_clean_linker_0, # of connection points: 4
#     Node 3, Type 0, BuildingBlock: NAWXER_clean_linker_0, # of connection points: 4
#     Node 4, Type 0, BuildingBlock: NAWXER_clean_linker_0, # of connection points: 4
#     Node 5, Type 0, BuildingBlock: NAWXER_clean_linker_0, # of connection points: 4
#     Node 6, Type 1, BuildingBlock: UXUYUI_clean_sbu_0, # of connection points: 4
#     Node 7, Type 1, BuildingBlock: UXUYUI_clean_sbu_0, # of connection points: 4
#     Node 8, Type 1, BuildingBlock: UXUYUI_clean_sbu_0, # of connection points: 4
#     Node 9, Type 1, BuildingBlock: UXUYUI_clean_sbu_0, # of connection points: 4
#     Node 10, Type 1, BuildingBlock: UXUYUI_clean_sbu_0, # of connection points: 4
#     Node 11, Type 1, BuildingBlock: UXUYUI_clean_sbu_0, # of connection points: 4
#     Edge 12, Type (0, 1), BuildingBlock: XIVTED_clean_linker_0, # of connection points: 2
#     Edge 13, Type (0, 1), BuildingBlock: XIVTED_clean_linker_0, # of connection points: 2
#     Edge 14, Type (0, 1), BuildingBlock: XIVTED_clean_linker_0, # of connection points: 2
#     Edge 15, Type (0, 1), BuildingBlock: XIVTED_clean_linker_0, # of connection points: 2
#     Edge 16, Type (0, 1), BuildingBlock: XIVTED_clean_linker_0, # of connection points: 2
#     Edge 17, Type (0, 1), BuildingBlock: XIVTED_clean_linker_0, # of connection points: 2
#     Edge 18, Type (0, 1), BuildingBlock: XIVTED_clean_linker_0, # of connection points: 2
#     Edge 19, Type (0, 1), BuildingBlock: XIVTED_clean_linker_0, # of connection points: 2
#     Edge 20, Type (0, 1), BuildingBlock: XIVTED_clean_linker_0, # of connection points: 2
#     Edge 21, Type (0, 1), BuildingBlock: XIVTED_clean_linker_0, # of connection points: 2
#     Edge 22, Type (0, 1), BuildingBlock: XIVTED_clean_linker_0, # of connection points: 2
#     Edge 23, Type (0, 1), BuildingBlock: XIVTED_clean_linker_0, # of connection points: 2
#     Edge 24, Type (0, 1), BuildingBlock: XIVTED_clean_linker_0, # of connection points: 2
#     Edge 25, Type (0, 1), BuildingBlock: XIVTED_clean_linker_0, # of connection points: 2
#     Edge 26, Type (0, 1), BuildingBlock: XIVTED_clean_linker_0, # of connection points: 2
#     Edge 27, Type (0, 1), BuildingBlock: XIVTED_clean_linker_0, # of connection points: 2
#     Edge 28, Type (0, 1), BuildingBlock: XIVTED_clean_linker_0, # of connection points: 2
#     Edge 29, Type (0, 1), BuildingBlock: XIVTED_clean_linker_0, # of connection points: 2
#     Edge 30, Type (0, 1), BuildingBlock: XIVTED_clean_linker_0, # of connection points: 2
#     Edge 31, Type (0, 1), BuildingBlock: XIVTED_clean_linker_0, # of connection points: 2
#     Edge 32, Type (0, 1), BuildingBlock: XIVTED_clean_linker_0, # of connection points: 2
#     Edge 33, Type (0, 1), BuildingBlock: XIVTED_clean_linker_0, # of connection points: 2
#     Edge 34, Type (0, 1), BuildingBlock: XIVTED_clean_linker_0, # of connection points: 2
#     Edge 35, Type (0, 1), BuildingBlock: XIVTED_clean_linker_0, # of connection points: 2
# Relax obj value: 0.041
# Max RMSD: 0.144
# Mean RMSD: 0.123
data_MOF--net-nom--node1-UXUYUI_clean_sbu_0--node2-NAWXER_clean_linker_0--edge1-XIVTED_clean_linker_0
_symmetry_space_group_name_H-M    P1
_symmetry_Int_Tables_number       1
_symmetry_cell_setting            triclinic
loop_
_symmetry_equiv_pos_as_xyz
'x, y, z'
_cell_length_a     62.479266
_cell_length_b     62.47169
_cell_length_c     69.41296
_cell_angle_alpha  89.959831
_cell_angle_beta   90.062027
_cell_angle_gamma 120.0088
loop_
_atom_site_label
_atom_site_type_symbol
_atom_site_fract_x
_atom_site_fract_y
_atom_site_fract_z
_atom_type_partial_charge
C0 C 0.93644 0.49317 0.33635 0.0
C1 C 0.92333 0.473 0.34885 0.0
C2 C 0.96038 0.5001 0.33059 0.0
C3 C 0.97191 0.48717 0.33727 0.0
C4 C 0.93503 0.46014 0.35563 0.0
C5 C 0.95924 0.46736 0.35003 0.0
C6 C 0.99764 0.49554 0.33159 0.0
C7 C 0.95131 0.45661 0.28005 0.0
C8 C 0.95474 0.47195 0.26413 0.0
C9 C 0.96751 0.46545 0.29573 0.0
C10 C 0.98738 0.48986 0.29587 0.0
C11 C 0.97472 0.49637 0.26432 0.0
C12 C 0.99094 0.50516 0.27996 0.0
C13 C 0.0051 0.49924 0.31214 0.0
C14 C 0.11691 0.55024 0.31645 0.0
C15 C 0.12196 0.56941 0.30336 0.0
C16 C 0.09263 0.53411 0.32245 0.0
C17 C 0.07316 0.53728 0.31574 0.0
C18 C 0.10232 0.57205 0.29635 0.0
C19 C 0.07822 0.55614 0.30243 0.0
C20 C 0.04731 0.52122 0.32202 0.0
C21 C 0.09121 0.55849 0.37565 0.0
C22 C 0.08911 0.54192 0.39028 0.0
C23 C 0.07527 0.55027 0.3598 0.0
C24 C 0.05729 0.5252 0.35797 0.0
C25 C 0.07068 0.51691 0.38858 0.0
C26 C 0.05493 0.50868 0.37262 0.0
C27 C 0.03985 0.51615 0.34153 0.0
H28 H 0.92844 0.50402 0.33126 0.0
H29 H 0.97012 0.51592 0.32115 0.0
H30 H 0.92546 0.44439 0.36513 0.0
H31 H 0.96797 0.45733 0.35547 0.0
H32 H 0.93642 0.43758 0.28023 0.0
H33 H 0.96475 0.45305 0.30758 0.0
H34 H 0.97772 0.50881 0.25244 0.0
H35 H 0.00618 0.52404 0.27972 0.0
H36 H 0.13168 0.54761 0.3219 0.0
H37 H 0.08909 0.51928 0.33233 0.0
H38 H 0.10563 0.58682 0.28646 0.0
H39 H 0.06351 0.55891 0.297 0.0
H40 H 0.10526 0.57783 0.37636 0.0
H41 H 0.07694 0.56357 0.34903 0.0
H42 H 0.06809 0.50371 0.39974 0.0
H43 H 0.04086 0.48934 0.37171 0.0
N44 N 0.01524 0.50365 0.34556 0.0
N45 N 0.02961 0.51231 0.30813 0.0
C46 C 0.46459 0.93449 0.50512 0.0
C47 C 0.4713 0.9244 0.52047 0.0
C48 C 0.48049 0.95857 0.49893 0.0
C49 C 0.50377 0.97292 0.5076 0.0
C50 C 0.4943 0.9389 0.52951 0.0
C51 C 0.51041 0.96299 0.52311 0.0
C52 C 0.52011 -0.00112 0.50154 0.0
C53 C 0.51383 0.95283 0.44995 0.0
C54 C 0.50069 0.95537 0.43451 0.0
C55 C 0.52148 0.96934 0.46544 0.0
C56 C 0.51611 0.98865 0.46573 0.0
C57 C 0.49571 0.97496 0.43472 0.0
C58 C 0.50351 0.99153 0.45011 0.0
C59 C 0.52395 0.00627 0.48201 0.0
C60 C 0.58385 0.11821 0.48638 0.0
C61 C 0.57036 0.12315 0.4726 0.0
C62 C 0.57553 0.09396 0.49253 0.0
C63 C 0.5533 0.07439 0.48532 0.0
C64 C 0.54851 0.10344 0.46508 0.0
C65 C 0.5401 0.07935 0.47136 0.0
C66 C 0.54348 0.04853 0.49168 0.0
C67 C 0.54742 0.09146 0.54519 0.0
C68 C 0.56414 0.09171 0.5589 0.0
C69 C 0.53991 0.07511 0.52961 0.0
C70 C 0.54909 0.05884 0.52742 0.0
C71 C 0.57307 0.07518 0.55674 0.0
C72 C 0.56546 0.05877 0.54121 0.0
C73 C 0.54107 0.04121 0.5112 0.0
H74 H 0.44672 0.92396 0.49822 0.0
H75 H 0.47429 0.96612 0.48761 0.0
H76 H 0.49987 0.93155 0.54141 0.0
H77 H 0.52805 0.97387 0.53027 0.0
H78 H 0.51787 0.93788 0.45019 0.0
H79 H 0.53163 0.96705 0.47715 0.0
H80 H 0.48596 0.9776 0.42288 0.0
H81 H 0.49936 0.00643 0.44995 0.0
H82 H 0.60094 0.13305 0.49221 0.0
H83 H 0.5865 0.09055 0.50284 0.0
H84 H 0.5376 0.10671 0.4546 0.0
H85 H 0.52296 0.06458 0.4655 0.0
H86 H 0.5403 0.10404 0.54641 0.0
H87 H 0.52687 0.07512 0.51932 0.0
H88 H 0.58565 0.07465 0.56723 0.0
H89 H 0.57249 0.04612 0.53989 0.0
N90 N 0.52933 0.01666 0.51538 0.0
N91 N 0.53504 0.03075 0.47788 0.0
C92 C 0.58086 0.51285 0.60983 0.0
C93 C 0.56605 0.50264 0.59339 0.0
C94 C 0.57179 0.51937 0.62581 0.0
C95 C 0.5475 0.51525 0.62586 0.0
C96 C 0.54196 0.49897 0.59328 0.0
C97 C 0.53278 0.50521 0.60935 0.0
C98 C 0.53774 0.52255 0.64255 0.0
C99 C 0.54934 0.46267 0.66595 0.0
C100 C 0.56751 0.46973 0.68033 0.0
C101 C 0.54161 0.47894 0.65975 0.0
C102 C 0.55203 0.50278 0.66763 0.0
C103 C 0.57786 0.4936 0.68829 0.0
C104 C 0.57006 0.50992 0.68207 0.0
C105 C 0.54244 0.51926 0.66195 0.0
C106 C 0.4804 0.54873 0.70802 0.0
C107 C 0.49785 0.56557 0.72116 0.0
C108 C 0.48799 0.54052 0.69212 0.0
C109 C 0.5132 0.54919 0.68894 0.0
C110 C 0.52307 0.57401 0.71802 0.0
C111 C 0.53064 0.56576 0.70212 0.0
C112 C 0.52152 0.5403 0.67242 0.0
C113 C 0.48546 0.5816 0.64762 0.0
C114 C 0.46378 0.56545 0.6375 0.0
C115 C 0.50239 0.57411 0.65276 0.0
C116 C 0.49791 0.55046 0.6477 0.0
C117 C 0.45959 0.54196 0.63227 0.0
C118 C 0.4766 0.53463 0.63719 0.0
C119 C 0.51503 0.54168 0.65316 0.0
H120 H 0.59965 0.51628 0.61016 0.0
H121 H 0.58393 0.52798 0.638 0.0
H122 H 0.5301 0.491 0.58084 0.0
H123 H 0.51408 0.50203 0.60892 0.0
H124 H 0.5405 0.44424 0.65986 0.0
H125 H 0.52699 0.47262 0.64912 0.0
H126 H 0.59199 0.49967 0.69931 0.0
H127 H 0.57809 0.5281 0.68853 0.0
H128 H 0.46085 0.54197 0.70997 0.0
H129 H 0.47414 0.52724 0.68241 0.0
H130 H 0.53694 0.58665 0.72803 0.0
H131 H 0.55016 0.57239 0.70006 0.0
H132 H 0.48909 0.59982 0.65181 0.0
H133 H 0.51891 0.58671 0.66067 0.0
H134 H 0.44321 0.5293 0.62423 0.0
H135 H 0.47289 0.51636 0.63306 0.0
N136 N 0.52368 0.53308 0.63897 0.0
N137 N 0.53474 0.52886 0.67611 0.0
C138 C 0.9285 0.46601 0.82141 0.0
C139 C 0.91726 0.47342 0.80743 0.0
C140 C 0.9529 0.48176 0.82697 0.0
C141 C 0.96656 0.50552 0.81895 0.0
C142 C 0.931 0.49708 0.79918 0.0
C143 C 0.95548 0.51297 0.80487 0.0
C144 C 0.99296 0.52145 0.82403 0.0
C145 C 0.95108 0.51506 0.87794 0.0
C146 C 0.95407 0.50139 0.89271 0.0
C147 C 0.96656 0.52253 0.86183 0.0
C148 C 0.98526 0.51639 0.86018 0.0
C149 C 0.9731 0.49567 0.89119 0.0
C150 C 0.98865 0.50325 0.87514 0.0
C151 C 0.00172 0.52409 0.84316 0.0
C152 C 0.1128 0.58186 0.83558 0.0
C153 C 0.11841 0.56555 0.84536 0.0
C154 C 0.08829 0.5746 0.83093 0.0
C155 C 0.0691 0.55101 0.83613 0.0
C156 C 0.09911 0.54206 0.85063 0.0
C157 C 0.07469 0.53495 0.84619 0.0
C158 C 0.04304 0.5427 0.83151 0.0
C159 C 0.08068 0.54799 0.77474 0.0
C160 C 0.08202 0.56709 0.76315 0.0
C161 C 0.06538 0.53991 0.79094 0.0
C162 C 0.05109 0.55072 0.79575 0.0
C163 C 0.06764 0.57784 0.76801 0.0
C164 C 0.05211 0.56953 0.78408 0.0
C165 C 0.03447 0.54197 0.81257 0.0
H166 H 0.91867 0.44767 0.82766 0.0
H167 H 0.96128 0.47504 0.83719 0.0
H168 H 0.92282 0.50329 0.78837 0.0
H169 H 0.9658 0.53104 0.79823 0.0
H170 H 0.93654 0.51967 0.87869 0.0
H171 H 0.96393 0.53315 0.85068 0.0
H172 H 0.9761 0.48549 0.90248 0.0
H173 H 0.00311 0.49853 0.87428 0.0
H174 H 0.12737 0.60007 0.83136 0.0
H175 H 0.08431 0.5874 0.82339 0.0
H176 H 0.10289 0.52927 0.85841 0.0
H177 H 0.06012 0.51673 0.85043 0.0
H178 H 0.09165 0.53947 0.77136 0.0
H179 H 0.06455 0.52511 0.79963 0.0
H180 H 0.06813 0.5924 0.7592 0.0
H181 H 0.04102 0.57792 0.7875 0.0
N182 N 0.00972 0.53109 0.80948 0.0
N183 N 0.02638 0.53404 0.84611 0.0
C184 C 0.48702 0.9298 0.98766 0.0
C185 C 0.46963 0.91919 0.97273 0.0
C186 C 0.49475 0.95378 0.99391 0.0
C187 C 0.48483 0.96751 0.98571 0.0
C188 C 0.46002 0.93306 0.96423 0.0
C189 C 0.4676 0.95705 0.97066 0.0
C190 C 0.49418 0.99348 0.99163 0.0
C191 C 0.4575 0.94769 0.04404 0.0
C192 C 0.47353 0.95159 0.05957 0.0
C193 C 0.4655 0.96378 0.02826 0.0
C194 C 0.48975 0.98394 0.02763 0.0
C195 C 0.49761 0.97209 0.05905 0.0
C196 C 0.50559 0.98812 0.0433 0.0
C197 C 0.49862 0.00124 0.01108 0.0
C198 C 0.54937 0.11301 0.00569 0.0
C199 C 0.56913 0.11848 0.01828 0.0
C200 C 0.53313 0.08858 9e-05 0.0
C201 C 0.5367 0.06934 0.00673 0.0
C202 C 0.57222 0.09908 0.02522 0.0
C203 C 0.55615 0.0748 0.01955 0.0
C204 C 0.5204 0.04333 0.00084 0.0
C205 C 0.55571 0.08553 0.94614 0.0
C206 C 0.53831 0.08493 0.93293 0.0
C207 C 0.54803 0.06961 0.962 0.0
C208 C 0.52281 0.05295 0.96503 0.0
C209 C 0.51309 0.06804 0.93595 0.0
C210 C 0.50545 0.05208 0.95178 0.0
C211 C 0.51443 0.03563 0.98148 0.0
H212 H 0.49522 0.91981 0.99414 0.0
H213 H 0.50895 0.96175 0.00489 0.0
H214 H 0.4466 0.92532 0.95268 0.0
H215 H 0.46005 0.96745 0.96386 0.0
H216 H 0.43887 0.93205 0.04396 0.0
H217 H 0.45269 0.96049 0.0166 0.0
H218 H 0.51027 0.97591 0.07093 0.0
H219 H 0.52428 0.00369 0.04327 0.0
H220 H 0.54633 0.12756 0.00033 0.0
H221 H 0.51784 0.08476 0.99063 0.0
H222 H 0.58742 0.10271 0.03474 0.0
H223 H 0.55923 0.06026 0.02492 0.0
H224 H 0.57525 0.09841 0.94428 0.0
H225 H 0.5618 0.07022 0.97183 0.0
H226 H 0.49928 0.06684 0.92587 0.0
H227 H 0.48593 0.03911 0.95373 0.0
N228 N 0.50172 0.01099 0.97761 0.0
N229 N 0.51199 0.02582 0.01486 0.0
C230 C 0.48307 0.5739 0.16714 0.0
C231 C 0.4646 0.56644 0.18126 0.0
C232 C 0.49147 0.55807 0.16126 0.0
C233 C 0.48135 0.53425 0.16914 0.0
C234 C 0.45447 0.54259 0.18919 0.0
C235 C 0.46287 0.52667 0.18324 0.0
C236 C 0.49201 0.51851 0.16411 0.0
C237 C 0.456 0.52442 0.11029 0.0
C238 C 0.47231 0.53739 0.09513 0.0
C239 C 0.46425 0.51729 0.12647 0.0
C240 C 0.48905 0.52319 0.12791 0.0
C241 C 0.49702 0.5429 0.09648 0.0
C242 C 0.50525 0.53576 0.11266 0.0
C243 C 0.49807 0.51579 0.145 0.0
C244 C 0.55497 0.46129 0.15459 0.0
C245 C 0.57559 0.47695 0.14321 0.0
C246 C 0.5371 0.46779 0.15898 0.0
C247 C 0.53968 0.49015 0.15218 0.0
C248 C 0.57774 0.49901 0.1361 0.0
C249 C 0.55995 0.50548 0.1405 0.0
C250 C 0.52151 0.49797 0.15681 0.0
C251 C 0.55518 0.49521 0.21387 0.0
C252 C 0.53788 0.47591 0.22556 0.0
C253 C 0.54743 0.50262 0.19756 0.0
C254 C 0.52226 0.49093 0.19274 0.0
C255 C 0.51268 0.46431 0.22071 0.0
C256 C 0.50492 0.47195 0.20453 0.0
C257 C 0.51383 0.49889 0.17576 0.0
H258 H 0.49174 0.59235 0.16111 0.0
H259 H 0.50649 0.56483 0.15099 0.0
H260 H 0.44016 0.53629 0.20007 0.0
H261 H 0.4551 0.50852 0.18973 0.0
H262 H 0.43674 0.51945 0.10954 0.0
H263 H 0.45118 0.50697 0.13778 0.0
H264 H 0.51015 0.55309 0.08517 0.0
H265 H 0.52444 0.54044 0.11339 0.0
H266 H 0.55279 0.44417 0.16028 0.0
H267 H 0.5213 0.45535 0.16763 0.0
H268 H 0.59308 0.51122 0.12696 0.0
H269 H 0.5622 0.5227 0.13493 0.0
H270 H 0.57472 0.50438 0.21724 0.0
H271 H 0.56105 0.51755 0.18875 0.0
H272 H 0.49895 0.44958 0.22958 0.0
H273 H 0.4854 0.4629 0.20111 0.0
N274 N 0.4996 0.50939 0.17873 0.0
N275 N 0.51305 0.50614 0.14214 0.0
Li276 Li 0.64477 0.41611 0.42587 0.0
Li277 Li 0.63609 0.37464 0.41385 0.0
Li278 Li 0.67255 0.41148 0.40481 0.0
Li279 Li 0.63468 0.40487 0.39151 0.0
C280 C 0.68417 0.40172 0.43856 0.0
N281 N 0.72947 0.41015 0.45176 0.0
C282 C 0.68892 0.38217 0.44002 0.0
C283 C 0.70236 0.42553 0.44399 0.0
C284 C 0.71197 0.38682 0.44669 0.0
C285 C 0.72518 0.42942 0.45058 0.0
C286 C 0.59126 0.37836 0.42266 0.0
C287 C 0.54692 0.3592 0.42037 0.0
N288 N 0.54532 0.35733 0.43991 0.0
C289 C 0.58919 0.37633 0.44271 0.0
C290 C 0.56999 0.36984 0.41138 0.0
C291 C 0.5658 0.36561 0.45115 0.0
C292 C 0.62264 0.43984 0.4447 0.0
N293 N 0.63932 0.4321 0.44686 0.0
C294 C 0.64465 0.4433 0.48012 0.0
C295 C 0.65043 0.43375 0.46406 0.0
C296 C 0.62693 0.45083 0.47855 0.0
C297 C 0.61608 0.44924 0.46045 0.0
H298 H 0.61382 0.4379 0.43088 0.0
H299 H 0.66332 0.42709 0.46544 0.0
C300 C 0.63482 0.32951 0.41152 0.0
N301 N 0.62379 0.34088 0.42037 0.0
C302 C 0.6286 0.3055 0.41662 0.0
C303 C 0.59992 0.30532 0.44004 0.0
C304 C 0.60658 0.32932 0.43438 0.0
C305 C 0.61113 0.2932 0.4312 0.0
H306 H 0.64909 0.33939 0.40092 0.0
H307 H 0.59847 0.33884 0.44153 0.0
C308 C 0.67339 0.45278 0.38815 0.0
N309 N 0.69658 0.48589 0.35843 0.0
C310 C 0.67955 0.44506 0.37118 0.0
C311 C 0.67899 0.47731 0.38999 0.0
C312 C 0.69127 0.46209 0.35633 0.0
C313 C 0.69074 0.49378 0.37481 0.0
C314 C 0.63675 0.3656 0.3748 0.0
C315 C 0.6485 0.36019 0.36004 0.0
C316 C 0.61101 0.3519 0.37643 0.0
C317 C 0.63428 0.34119 0.34709 0.0
C318 C 0.59745 0.33305 0.3632 0.0
N319 N 0.60926 0.32813 0.34892 0.0
C320 C 0.71117 0.40389 0.39538 0.0
C321 C 0.72431 0.44645 0.39918 0.0
C322 C 0.73525 0.40941 0.3914 0.0
N323 N 0.70621 0.42229 0.3992 0.0
C324 C 0.74863 0.45286 0.39485 0.0
C325 C 0.75425 0.43416 0.39097 0.0
H326 H 0.69635 0.38485 0.39557 0.0
H327 H 0.71989 0.4607 0.40253 0.0
C328 C 0.60429 0.42022 0.37389 0.0
N329 N 0.6186 0.40998 0.37016 0.0
C330 C 0.59346 0.42623 0.35877 0.0
C331 C 0.61194 0.41064 0.33631 0.0
C332 C 0.62267 0.40523 0.35182 0.0
C333 C 0.59731 0.42148 0.3397 0.0
H334 H 0.60168 0.42411 0.38861 0.0
H335 H 0.63474 0.39785 0.34913 0.0
O336 O 0.66195 0.39765 0.4316 0.0
O337 O 0.61399 0.38924 0.41406 0.0
O338 O 0.66172 0.43649 0.40289 0.0
O339 O 0.65059 0.38425 0.38749 0.0
H340 H 0.67504 0.36364 0.43591 0.0
H341 H 0.69905 0.44091 0.44277 0.0
H342 H 0.71595 0.37189 0.44779 0.0
H343 H 0.73951 0.44778 0.45466 0.0
H344 H 0.5303 0.35248 0.41183 0.0
H345 H 0.60547 0.38275 0.45165 0.0
H346 H 0.57129 0.37144 0.39584 0.0
H347 H 0.56392 0.36385 0.46665 0.0
H348 H 0.6538 0.4445 0.49366 0.0
H349 H 0.60203 0.45438 0.45856 0.0
H350 H 0.63803 0.297 0.4097 0.0
H351 H 0.58628 0.29641 0.4513 0.0
H352 H 0.67541 0.42618 0.36946 0.0
H353 H 0.67428 0.48355 0.40302 0.0
H354 H 0.69615 0.45637 0.34313 0.0
H355 H 0.69519 0.51284 0.37604 0.0
H356 H 0.66842 0.37063 0.35861 0.0
H357 H 0.60157 0.3557 0.38777 0.0
H358 H 0.64313 0.33683 0.33558 0.0
H359 H 0.57752 0.32231 0.36429 0.0
H360 H 0.7389 0.39455 0.3883 0.0
H361 H 0.76293 0.47215 0.39472 0.0
H362 H 0.58225 0.43454 0.36195 0.0
H363 H 0.61572 0.40712 0.32178 0.0
Li364 Li 0.24847 0.6444 0.59641 0.0
Li365 Li 0.28015 0.63593 0.58283 0.0
Li366 Li 0.28057 0.67292 0.57544 0.0
Li367 Li 0.24919 0.63563 0.56135 0.0
C368 C 0.29704 0.68407 0.61083 0.0
N369 N 0.32268 0.72939 0.62905 0.0
C370 C 0.32241 0.69476 0.6142 0.0
C371 C 0.28472 0.69641 0.61681 0.0
C372 C 0.33505 0.7177 0.62339 0.0
C373 C 0.29799 0.71928 0.626 0.0
C374 C 0.23672 0.59516 0.59746 0.0
C375 C 0.21059 0.55318 0.60822 0.0
N376 N 0.22277 0.55903 0.62537 0.0
C377 C 0.249 0.60074 0.61519 0.0
C378 C 0.21737 0.5712 0.59393 0.0
C379 C 0.24166 0.58222 0.62911 0.0
C380 C 0.20245 0.62734 0.61424 0.0
N381 N 0.22713 0.63836 0.61769 0.0
C382 C 0.22043 0.63729 0.65164 0.0
C383 C 0.23634 0.64334 0.63592 0.0
C384 C 0.19482 0.62559 0.64855 0.0
C385 C 0.18584 0.62066 0.62956 0.0
H386 H 0.19569 0.62331 0.59958 0.0
H387 H 0.25599 0.65148 0.63829 0.0
C388 C 0.32579 0.64054 0.58859 0.0
N389 N 0.30151 0.62307 0.58767 0.0
C390 C 0.34348 0.63402 0.59322 0.0
C391 C 0.31098 0.59126 0.59466 0.0
C392 C 0.29386 0.59869 0.59014 0.0
C393 C 0.33617 0.6091 0.59657 0.0
H394 H 0.33137 0.65965 0.58584 0.0
H395 H 0.27453 0.585 0.58869 0.0
C396 C 0.24253 0.68137 0.56898 0.0
N397 N 0.23856 0.72201 0.55889 0.0
C398 C 0.24957 0.69166 0.5506 0.0
C399 C 0.23322 0.69155 0.58217 0.0
C400 C 0.2475 0.71228 0.54579 0.0
C401 C 0.23141 0.71215 0.5768 0.0
C402 C 0.28915 0.63738 0.54397 0.0
C403 C 0.30637 0.64889 0.5292 0.0
C404 C 0.27586 0.61156 0.54505 0.0
C405 C 0.31013 0.63439 0.51582 0.0
C406 C 0.28016 0.59772 0.53141 0.0
N407 N 0.29707 0.60932 0.5172 0.0
C408 C 0.32455 0.70992 0.56095 0.0
C409 C 0.3017 0.72663 0.57529 0.0
C410 C 0.34344 0.73344 0.55595 0.0
N411 N 0.30402 0.70686 0.57014 0.0
C412 C 0.32031 0.75061 0.57069 0.0
C413 C 0.34137 0.75415 0.56068 0.0
H414 H 0.32636 0.69402 0.55759 0.0
H415 H 0.28554 0.72391 0.58299 0.0
C416 C 0.20712 0.60026 0.5405 0.0
N417 N 0.22925 0.62152 0.53918 0.0
C418 C 0.19204 0.59067 0.52423 0.0
C419 C 0.22291 0.62503 0.50566 0.0
C420 C 0.23746 0.63379 0.5222 0.0
C421 C 0.19979 0.60332 0.50659 0.0
H422 H 0.20103 0.59099 0.55424 0.0
H423 H 0.25524 0.65054 0.52156 0.0
O424 O 0.28434 0.66182 0.60151 0.0
O425 O 0.24332 0.61301 0.58364 0.0
O426 O 0.24432 0.66117 0.57398 0.0
O427 O 0.28526 0.6515 0.55706 0.0
H428 H 0.3323 0.6855 0.60985 0.0
H429 H 0.26518 0.68861 0.61412 0.0
H430 H 0.3547 0.72621 0.62604 0.0
H431 H 0.28868 0.72907 0.63059 0.0
H432 H 0.19564 0.53456 0.60567 0.0
H433 H 0.2641 0.61911 0.61819 0.0
H434 H 0.20768 0.56656 0.58028 0.0
H435 H 0.251 0.58629 0.64288 0.0
H436 H 0.22803 0.64101 0.66608 0.0
H437 H 0.1662 0.6117 0.62661 0.0
H438 H 0.36259 0.64849 0.5946 0.0
H439 H 0.30454 0.57178 0.59659 0.0
H440 H 0.25689 0.68405 0.54027 0.0
H441 H 0.22747 0.68363 0.5964 0.0
H442 H 0.25307 0.72057 0.53167 0.0
H443 H 0.22433 0.72029 0.58688 0.0
H444 H 0.31668 0.66883 0.52801 0.0
H445 H 0.26233 0.6022 0.55622 0.0
H446 H 0.32341 0.64307 0.50432 0.0
H447 H 0.27003 0.57775 0.53211 0.0
H448 H 0.35962 0.73541 0.54861 0.0
H449 H 0.31806 0.76615 0.57461 0.0
H450 H 0.17425 0.57397 0.52555 0.0
H451 H 0.22969 0.63513 0.49228 0.0
Li452 Li 0.66666 0.28144 0.75171 0.0
Li453 Li 0.62777 0.24994 0.76483 0.0
Li454 Li 0.63661 0.25205 0.73016 0.0
Li455 Li 0.62889 0.28303 0.74431 0.0
C456 C 0.67314 0.24228 0.75485 0.0
N457 N 0.71411 0.23739 0.76156 0.0
C458 C 0.67495 0.23125 0.77184 0.0
C459 C 0.69209 0.25062 0.74121 0.0
C460 C 0.69583 0.22899 0.77498 0.0
C461 C 0.71267 0.24805 0.74489 0.0
C462 C 0.65603 0.2944 0.7873 0.0
C463 C 0.67302 0.32592 0.81186 0.0
N464 N 0.67987 0.31181 0.82219 0.0
C465 C 0.66318 0.2802 0.79819 0.0
C466 C 0.66093 0.31743 0.7942 0.0
C467 C 0.67523 0.28931 0.81577 0.0
C468 C 0.71158 0.3251 0.74714 0.0
N469 N 0.70082 0.3035 0.75715 0.0
C470 C 0.73709 0.31745 0.77646 0.0
C471 C 0.71313 0.29932 0.77149 0.0
C472 C 0.74845 0.34019 0.76668 0.0
C473 C 0.73553 0.34375 0.75162 0.0
H474 H 0.70123 0.3282 0.73608 0.0
H475 H 0.7042 0.28224 0.7795 0.0
C476 C 0.60826 0.20489 0.78429 0.0
N477 N 0.61158 0.22804 0.78573 0.0
C478 C 0.59851 0.18846 0.79971 0.0
C479 C 0.59467 0.21962 0.81753 0.0
C480 C 0.60461 0.2355 0.80175 0.0
C481 C 0.59194 0.1959 0.81675 0.0
H482 H 0.61379 0.19942 0.77127 0.0
H483 H 0.60736 0.254 0.80248 0.0
C484 C 0.65993 0.29083 0.70757 0.0
N485 N 0.6671 0.29447 0.66817 0.0
C486 C 0.64248 0.29159 0.69542 0.0
C487 C 0.68119 0.29226 0.69972 0.0
C488 C 0.64639 0.29334 0.67553 0.0
C489 C 0.68444 0.29401 0.67975 0.0
C490 C 0.58281 0.24077 0.74963 0.0
C491 C 0.56161 0.2209 0.74172 0.0
C492 C 0.58057 0.25432 0.76473 0.0
C493 C 0.53845 0.21488 0.74906 0.0
C494 C 0.55708 0.24771 0.77168 0.0
N495 N 0.53669 0.22829 0.76377 0.0
C496 C 0.6428 0.22124 0.70279 0.0
C497 C 0.61095 0.23033 0.69628 0.0
C498 C 0.63678 0.20666 0.68622 0.0
N499 N 0.62991 0.23272 0.70744 0.0
C500 C 0.60439 0.21607 0.67956 0.0
C501 C 0.61726 0.20383 0.67437 0.0
H502 H 0.65749 0.22305 0.71207 0.0
H503 H 0.6009 0.23954 0.70043 0.0
C504 C 0.63173 0.32887 0.7451 0.0
N505 N 0.61704 0.30507 0.7394 0.0
C506 C 0.62563 0.34685 0.74029 0.0
C507 C 0.58935 0.31544 0.72377 0.0
C508 C 0.59607 0.29802 0.72904 0.0
C509 C 0.60439 0.34028 0.72924 0.0
H510 H 0.64866 0.33402 0.75281 0.0
H511 H 0.58501 0.27905 0.72434 0.0
O512 O 0.65285 0.24468 0.75152 0.0
O513 O 0.64434 0.28588 0.76997 0.0
O514 O 0.65617 0.28861 0.72705 0.0
O515 O 0.60556 0.24677 0.74257 0.0
H516 H 0.66048 0.2246 0.78256 0.0
H517 H 0.69099 0.25917 0.728 0.0
H518 H 0.69751 0.22059 0.7881 0.0
H519 H 0.72752 0.25457 0.7345 0.0
H520 H 0.67695 0.34372 0.81735 0.0
H521 H 0.65969 0.26242 0.79305 0.0
H522 H 0.65542 0.32863 0.78604 0.0
H523 H 0.68094 0.27853 0.82429 0.0
H524 H 0.74648 0.31381 0.78803 0.0
H525 H 0.74341 0.3611 0.74388 0.0
H526 H 0.59632 0.1702 0.79838 0.0
H527 H 0.59 0.22616 0.83041 0.0
H528 H 0.62592 0.2905 0.70125 0.0
H529 H 0.69508 0.29212 0.70893 0.0
H530 H 0.63293 0.29373 0.66594 0.0
H531 H 0.70076 0.29503 0.67347 0.0
H532 H 0.56306 0.21025 0.73001 0.0
H533 H 0.59673 0.2698 0.77102 0.0
H534 H 0.52188 0.19954 0.74307 0.0
H535 H 0.55507 0.25802 0.78336 0.0
H536 H 0.64695 0.19725 0.68298 0.0
H537 H 0.58945 0.21474 0.67076 0.0
H538 H 0.63794 0.36585 0.74449 0.0
H539 H 0.57277 0.30962 0.71531 0.0
Li540 Li 0.4016 0.63162 0.92659 0.0
Li541 Li 0.41021 0.67068 0.91171 0.0
Li542 Li 0.37005 0.63174 0.90481 0.0
Li543 Li 0.40918 0.63901 0.89132 0.0
C544 C 0.37034 0.6473 0.9461 0.0
N545 N 0.34439 0.64341 0.97941 0.0
C546 C 0.38067 0.66571 0.9602 0.0
C547 C 0.34657 0.62716 0.94881 0.0
C548 C 0.36734 0.66334 0.97698 0.0
C549 C 0.33381 0.62546 0.96578 0.0
C550 C 0.45474 0.67578 0.91753 0.0
C551 C 0.4903 0.71488 0.90912 0.0
N552 N 0.49995 0.71611 0.92693 0.0
C553 C 0.46509 0.67732 0.9357 0.0
C554 C 0.46751 0.69459 0.90407 0.0
C555 C 0.48794 0.6979 0.94019 0.0
C556 C 0.41005 0.59721 0.94659 0.0
N557 N 0.40764 0.61752 0.94884 0.0
C558 C 0.41619 0.61882 0.98252 0.0
C559 C 0.41072 0.62847 0.96632 0.0
C560 C 0.4187 0.59778 0.98069 0.0
C561 C 0.41545 0.5869 0.96241 0.0
H562 H 0.40794 0.58912 0.93245 0.0
H563 H 0.4096 0.64509 0.96763 0.0
C564 C 0.41683 0.71797 0.90461 0.0
N565 N 0.42317 0.70488 0.91665 0.0
C566 C 0.42298 0.74215 0.90923 0.0
C567 C 0.44272 0.73911 0.93826 0.0
C568 C 0.43608 0.715 0.93312 0.0
C569 C 0.43566 0.75285 0.92647 0.0
H570 H 0.40611 0.70929 0.8918 0.0
H571 H 0.44042 0.70403 0.94267 0.0
C572 C 0.3662 0.58461 0.90844 0.0
N573 N 0.33145 0.53592 0.9161 0.0
C574 C 0.35997 0.56649 0.89432 0.0
C575 C 0.35491 0.57789 0.92653 0.0
C576 C 0.34231 0.542 0.89845 0.0
C577 C 0.33737 0.55321 0.93011 0.0
C578 C 0.39369 0.66151 0.86751 0.0
C579 C 0.37376 0.64534 0.85596 0.0
C580 C 0.41496 0.68053 0.85895 0.0
C581 C 0.3756 0.64829 0.83597 0.0
C582 C 0.41609 0.68285 0.83891 0.0
N583 N 0.39656 0.66681 0.82793 0.0
C584 C 0.33124 0.63932 0.89693 0.0
C585 C 0.31855 0.59667 0.89691 0.0
C586 C 0.30763 0.63415 0.89149 0.0
N587 N 0.33629 0.62072 0.89936 0.0
C588 C 0.2946 0.59063 0.89164 0.0
C589 C 0.28893 0.60951 0.88862 0.0
H590 H 0.34582 0.65829 0.89879 0.0
H591 H 0.3229 0.58214 0.89877 0.0
C592 C 0.44712 0.64232 0.86636 0.0
N593 N 0.42236 0.63182 0.86921 0.0
C594 C 0.45611 0.63594 0.85021 0.0
C595 C 0.41395 0.60826 0.84029 0.0
C596 C 0.40582 0.61513 0.85659 0.0
C597 C 0.4394 0.61853 0.83699 0.0
H598 H 0.45987 0.65535 0.87674 0.0
H599 H 0.38624 0.60709 0.85923 0.0
O600 O 0.38303 0.64953 0.92944 0.0
O601 O 0.4323 0.65587 0.91292 0.0
O602 O 0.38349 0.60867 0.90459 0.0
O603 O 0.3924 0.65867 0.88708 0.0
H604 H 0.3989 0.68157 0.95831 0.0
H605 H 0.33792 0.61304 0.93789 0.0
H606 H 0.37523 0.67736 0.98807 0.0
H607 H 0.31545 0.60991 0.96807 0.0
H608 H 0.50031 0.72965 0.89889 0.0
H609 H 0.45555 0.66284 0.94623 0.0
H610 H 0.45981 0.69362 0.88993 0.0
H611 H 0.49612 0.69939 0.95423 0.0
H612 H 0.41909 0.62817 0.99622 0.0
H613 H 0.41703 0.57056 0.96032 0.0
H614 H 0.41687 0.75189 0.89984 0.0
H615 H 0.45279 0.7467 0.95154 0.0
H616 H 0.36866 0.57126 0.8803 0.0
H617 H 0.35977 0.59151 0.93774 0.0
H618 H 0.33726 0.52782 0.88762 0.0
H619 H 0.32849 0.54779 0.94404 0.0
H620 H 0.35717 0.63048 0.86234 0.0
H621 H 0.43045 0.69332 0.8677 0.0
H622 H 0.36039 0.63582 0.82685 0.0
H623 H 0.4325 0.69741 0.83208 0.0
H624 H 0.30432 0.64936 0.88905 0.0
H625 H 0.28072 0.57135 0.88991 0.0
H626 H 0.47587 0.6441 0.84835 0.0
H627 H 0.4004 0.59508 0.83035 0.0
Li628 Li 0.75827 0.40876 0.08167 0.0
Li629 Li 0.79066 0.39858 0.09563 0.0
Li630 Li 0.79023 0.40901 0.06175 0.0
Li631 Li 0.75906 0.37118 0.07299 0.0
C632 C 0.81199 0.4529 0.07831 0.0
N633 N 0.84734 0.49839 0.06431 0.0
C634 C 0.8369 0.45947 0.07843 0.0
C635 C 0.80503 0.46948 0.07123 0.0
C636 C 0.8545 0.48255 0.07122 0.0
C637 C 0.8232 0.4924 0.06419 0.0
C638 C 0.73696 0.35959 0.10697 0.0
C639 C 0.72595 0.32333 0.12613 0.0
N640 N 0.70174 0.3145 0.12172 0.0
C641 C 0.71198 0.35028 0.10273 0.0
C642 C 0.74405 0.34611 0.11882 0.0
C643 C 0.69445 0.32739 0.11028 0.0
C644 C 0.71438 0.40993 0.07982 0.0
N645 N 0.73713 0.42101 0.08808 0.0
C646 C 0.72678 0.44554 0.10811 0.0
C647 C 0.74371 0.43863 0.10186 0.0
C648 C 0.70287 0.43403 0.10013 0.0
C649 C 0.6969 0.41627 0.08559 0.0
H650 H 0.70964 0.39574 0.06905 0.0
H651 H 0.76186 0.44679 0.10837 0.0
C652 C 0.83358 0.40654 0.11498 0.0
N653 N 0.81058 0.40327 0.11746 0.0
C654 C 0.8494 0.41205 0.13073 0.0
C655 C 0.81747 0.41065 0.15125 0.0
C656 C 0.80224 0.40506 0.13511 0.0
C657 C 0.84154 0.4145 0.14916 0.0
H658 H 0.83975 0.40522 0.1007 0.0
H659 H 0.78394 0.40272 0.13654 0.0
C660 C 0.75363 0.40065 0.03774 0.0
N661 N 0.75221 0.41442 0.00015 0.0
C662 C 0.75775 0.38852 0.02252 0.0
C663 C 0.74852 0.4196 0.03385 0.0
C664 C 0.75705 0.39583 0.00361 0.0
C665 C 0.74793 0.42632 0.01474 0.0
C666 C 0.79554 0.36133 0.06995 0.0
C667 C 0.79164 0.35105 0.05152 0.0
C668 C 0.8002 0.34979 0.08534 0.0
C669 C 0.79217 0.32916 0.04883 0.0
C670 C 0.80063 0.32795 0.08205 0.0
N671 N 0.79661 0.31816 0.06402 0.0
C672 C 0.82875 0.41742 0.03685 0.0
C673 C 0.81186 0.44304 0.02972 0.0
C674 C 0.84465 0.4268 0.02113 0.0
N675 N 0.81241 0.42521 0.04063 0.0
C676 C 0.82739 0.45287 0.01374 0.0
C677 C 0.8438 0.44444 0.00909 0.0
H678 H 0.82936 0.40373 0.04597 0.0
H679 H 0.79914 0.4494 0.03319 0.0
C680 C 0.71877 0.33399 0.05319 0.0
N681 N 0.73614 0.33736 0.06652 0.0
C682 C 0.70057 0.31026 0.04789 0.0
C683 C 0.71811 0.29363 0.0703 0.0
C684 C 0.73601 0.31776 0.0752 0.0
C685 C 0.70006 0.28966 0.05645 0.0
H686 H 0.7187 0.34974 0.04688 0.0
H687 H 0.74951 0.32076 0.08613 0.0
O688 O 0.79445 0.43026 0.08497 0.0
O689 O 0.75444 0.38166 0.09938 0.0
O690 O 0.75417 0.39371 0.05634 0.0
O691 O 0.79528 0.38285 0.07284 0.0
H692 H 0.84252 0.44677 0.08384 0.0
H693 H 0.78578 0.46458 0.071 0.0
H694 H 0.87385 0.48785 0.0711 0.0
H695 H 0.8181 0.50538 0.05857 0.0
H696 H 0.73116 0.31261 0.13523 0.0
H697 H 0.70624 0.36047 0.09352 0.0
H698 H 0.76335 0.35304 0.12215 0.0
H699 H 0.67506 0.31984 0.10701 0.0
H700 H 0.73206 0.45908 0.11951 0.0
H701 H 0.67884 0.4072 0.07885 0.0
H702 H 0.86764 0.41452 0.12845 0.0
H703 H 0.81073 0.41274 0.16509 0.0
H704 H 0.76152 0.37368 0.02529 0.0
H705 H 0.74536 0.42923 0.04547 0.0
H706 H 0.76035 0.38671 0.99169 0.0
H707 H 0.74416 0.44106 0.01151 0.0
H708 H 0.7882 0.35986 0.03944 0.0
H709 H 0.80315 0.35743 0.09972 0.0
H710 H 0.78907 0.32092 0.03466 0.0
H711 H 0.80407 0.31874 0.09384 0.0
H712 H 0.85747 0.42024 0.01844 0.0
H713 H 0.82606 0.46643 0.00488 0.0
H714 H 0.6867 0.30812 0.03749 0.0
H715 H 0.71846 0.27828 0.07724 0.0
Li716 Li 0.41253 0.79091 0.26607 0.0
Li717 Li 0.3735 0.76055 0.2513 0.0
Li718 Li 0.41224 0.7591 0.24472 0.0
Li719 Li 0.40515 0.79078 0.23049 0.0
C720 C 0.39779 0.74599 0.28661 0.0
N721 N 0.40417 0.7281 0.3213 0.0
C722 C 0.37955 0.73794 0.30083 0.0
C723 C 0.41903 0.74441 0.28991 0.0
C724 C 0.38319 0.72913 0.31831 0.0
C725 C 0.42198 0.73545 0.30757 0.0
C726 C 0.3683 0.80002 0.25588 0.0
C727 C 0.32995 0.79712 0.24587 0.0
N728 N 0.32759 0.80495 0.26361 0.0
C729 C 0.36563 0.8083 0.27393 0.0
C730 C 0.35045 0.79463 0.24166 0.0
C731 C 0.34488 0.81058 0.27759 0.0
C732 C 0.44841 0.83209 0.28752 0.0
N733 N 0.42631 0.81072 0.28845 0.0
C734 C 0.42142 0.81828 0.32143 0.0
C735 C 0.4128 0.80367 0.30493 0.0
C736 C 0.44416 0.84046 0.32094 0.0
C737 C 0.45785 0.84723 0.30375 0.0
H738 H 0.45851 0.83761 0.27409 0.0
H739 H 0.39492 0.78707 0.30511 0.0
C740 C 0.32627 0.72044 0.24392 0.0
N741 N 0.33934 0.73957 0.25619 0.0
C742 C 0.30206 0.70243 0.24832 0.0
C743 C 0.30506 0.72443 0.27777 0.0
C744 C 0.32921 0.74202 0.27277 0.0
C745 C 0.29132 0.70405 0.26563 0.0
H746 H 0.33498 0.7186 0.23108 0.0
H747 H 0.3402 0.75711 0.28249 0.0
C748 C 0.45955 0.8015 0.24576 0.0
N749 N 0.50848 0.81366 0.24888 0.0
C750 C 0.47537 0.81116 0.22992 0.0
C751 C 0.46876 0.79845 0.26326 0.0
C752 C 0.5 0.81707 0.23175 0.0
C753 C 0.4935 0.8046 0.26454 0.0
C754 C 0.38124 0.75134 0.20736 0.0
C755 C 0.39587 0.74562 0.19563 0.0
C756 C 0.3622 0.75387 0.19913 0.0
C757 C 0.39152 0.74303 0.1758 0.0
C758 C 0.35844 0.75115 0.17923 0.0
N759 N 0.37308 0.74586 0.16807 0.0
C760 C 0.40897 0.71325 0.24698 0.0
C761 C 0.44349 0.7423 0.22882 0.0
C762 C 0.41401 0.6945 0.24235 0.0
N763 N 0.42357 0.73653 0.24011 0.0
C764 C 0.44913 0.72407 0.22372 0.0
C765 C 0.43405 0.69972 0.23027 0.0
H766 H 0.3929 0.70908 0.25555 0.0
H767 H 0.45436 0.76073 0.22307 0.0
C768 C 0.40353 0.82687 0.20631 0.0
N769 N 0.41197 0.81069 0.20809 0.0
C770 C 0.40924 0.84176 0.18992 0.0
C771 C 0.4321 0.82294 0.17755 0.0
C772 C 0.42601 0.80851 0.19416 0.0
C773 C 0.42386 0.84 0.1753 0.0
H774 H 0.39267 0.82849 0.21773 0.0
H775 H 0.43259 0.7956 0.19599 0.0
O776 O 0.39439 0.75448 0.26932 0.0
O777 O 0.38838 0.79743 0.25209 0.0
O778 O 0.43535 0.79557 0.24416 0.0
O779 O 0.38542 0.75424 0.2268 0.0
H780 H 0.36283 0.73867 0.29847 0.0
H781 H 0.43297 0.74968 0.27889 0.0
H782 H 0.3693 0.72306 0.32949 0.0
H783 H 0.43837 0.73421 0.31031 0.0
H784 H 0.31593 0.79287 0.23503 0.0
H785 H 0.3794 0.81289 0.28502 0.0
H786 H 0.3524 0.78858 0.22754 0.0
H787 H 0.34252 0.81684 0.29153 0.0
H788 H 0.4103 0.81236 0.3344 0.0
H789 H 0.47527 0.86439 0.30268 0.0
H790 H 0.29228 0.68685 0.23869 0.0
H791 H 0.29741 0.72652 0.29116 0.0
H792 H 0.46872 0.814 0.21632 0.0
H793 H 0.45706 0.79177 0.27583 0.0
H794 H 0.51239 0.8244 0.21957 0.0
H795 H 0.50083 0.80227 0.27801 0.0
H796 H 0.41059 0.74347 0.20173 0.0
H797 H 0.35039 0.75781 0.20799 0.0
H798 H 0.40284 0.7388 0.16654 0.0
H799 H 0.34385 0.75319 0.17266 0.0
H800 H 0.40171 0.67591 0.24746 0.0
H801 H 0.4648 0.72885 0.21442 0.0
H802 H 0.40278 0.85489 0.18892 0.0
H803 H 0.44311 0.82068 0.16656 0.0
H804 H 0.13849 0.58701 0.2671 0.0
H805 H 0.27604 0.68351 0.30143 0.0
H806 H 0.16364 0.59245 0.32577 0.0
H807 H 0.25011 0.67841 0.24302 0.0
H808 H 0.23539 0.64956 0.31053 0.0
H809 H 0.17987 0.61929 0.2578 0.0
C810 C 0.15278 0.59497 0.27802 0.0
C811 C 0.14758 0.58717 0.29727 0.0
C812 C 0.23858 0.65587 0.29573 0.0
C813 C 0.19504 0.62416 0.28672 0.0
C814 C 0.26173 0.67541 0.29055 0.0
C815 C 0.26647 0.68392 0.27144 0.0
C816 C 0.21998 0.64473 0.28171 0.0
C817 C 0.24736 0.67232 0.25788 0.0
C818 C 0.17641 0.61338 0.2727 0.0
C819 C 0.16688 0.59782 0.31075 0.0
N820 N 0.22496 0.65336 0.26328 0.0
N821 N 0.18974 0.6159 0.30525 0.0
H822 H 0.57242 0.13967 0.43583 0.0
H823 H 0.60639 0.27591 0.46811 0.0
H824 H 0.5867 0.16465 0.49483 0.0
H825 H 0.6031 0.25382 0.40879 0.0
H826 H 0.59788 0.2349 0.4783 0.0
H827 H 0.58287 0.18123 0.4257 0.0
C828 C 0.57783 0.15396 0.44664 0.0
C829 C 0.5786 0.14872 0.4662 0.0
C830 C 0.59905 0.23904 0.46306 0.0
C831 C 0.59053 0.19631 0.45474 0.0
C832 C 0.60369 0.26236 0.45723 0.0
C833 C 0.60538 0.26824 0.43757 0.0
C834 C 0.5959 0.22141 0.44912 0.0
C835 C 0.60215 0.25012 0.4241 0.0
C836 C 0.58386 0.17769 0.44085 0.0
C837 C 0.58603 0.16798 0.47959 0.0
N838 N 0.59748 0.2275 0.43012 0.0
N839 N 0.59154 0.1909 0.47362 0.0
H840 H 0.47209 0.60859 0.62066 0.0
H841 H 0.33029 0.573 0.6222 0.0
H842 H 0.41378 0.53903 0.64241 0.0
H843 H 0.38445 0.62907 0.58463 0.0
H844 H 0.36134 0.56262 0.63254 0.0
H845 H 0.44097 0.61936 0.61069 0.0
C846 C 0.45275 0.59571 0.62346 0.0
C847 C 0.44543 0.57287 0.63228 0.0
C848 C 0.36637 0.57716 0.622 0.0
C849 C 0.40986 0.58496 0.62093 0.0
C850 C 0.3486 0.58299 0.61596 0.0
C851 C 0.35466 0.60197 0.60248 0.0
C852 C 0.3905 0.59053 0.61468 0.0
C853 C 0.37895 0.6146 0.59528 0.0
C854 C 0.43502 0.60175 0.61765 0.0
C855 C 0.42014 0.55672 0.63546 0.0
N856 N 0.39598 0.60872 0.60153 0.0
N857 N 0.40325 0.56309 0.62983 0.0
H858 H 0.89875 0.46378 0.7706 0.0
H859 H 0.76597 0.35402 0.80338 0.0
H860 H 0.87747 0.44305 0.82982 0.0
H861 H 0.78699 0.37287 0.74387 0.0
H862 H 0.80635 0.38762 0.81324 0.0
H863 H 0.85722 0.43229 0.76045 0.0
C864 C 0.88525 0.45282 0.78148 0.0
C865 C 0.89163 0.45594 0.80109 0.0
C866 C 0.80217 0.38444 0.79802 0.0
C867 C 0.84422 0.41967 0.78957 0.0
C868 C 0.77916 0.3651 0.79237 0.0
C869 C 0.77312 0.36048 0.77275 0.0
C870 C 0.81937 0.39935 0.78398 0.0
C871 C 0.79078 0.37586 0.75915 0.0
C872 C 0.86161 0.43471 0.77567 0.0
C873 C 0.87348 0.44101 0.81454 0.0
N874 N 0.81313 0.39457 0.76501 0.0
N875 N 0.85067 0.42349 0.80853 0.0
H876 H 0.4575 0.87813 0.99434 0.0
H877 H 0.44917 0.79431 0.90436 0.0
H878 H 0.46533 0.90303 0.93543 0.0
H879 H 0.432 0.76755 0.96287 0.0
H880 H 0.4556 0.83438 0.91522 0.0
H881 H 0.4485 0.83754 0.98289 0.0
C882 C 0.45726 0.875 0.97897 0.0
C883 C 0.46227 0.89399 0.96581 0.0
C884 C 0.45042 0.81971 0.92566 0.0
C885 C 0.45202 0.84754 0.95256 0.0
C886 C 0.44669 0.79681 0.91947 0.0
C887 C 0.4402 0.77753 0.93273 0.0
C888 C 0.44768 0.82338 0.94526 0.0
C889 C 0.43749 0.78196 0.95217 0.0
C890 C 0.45206 0.85181 0.97243 0.0
C891 C 0.4614 0.88884 0.94605 0.0
N892 N 0.44128 0.80439 0.95782 0.0
N893 N 0.45655 0.86614 0.94001 0.0
H894 H 0.6258 0.50744 0.14237 0.0
H895 H 0.65362 0.40205 0.10659 0.0
H896 H 0.56908 0.43153 0.13326 0.0
H897 H 0.70911 0.47931 0.11024 0.0
H898 H 0.62275 0.41203 0.11808 0.0
H899 H 0.65694 0.49693 0.13263 0.0
C900 C 0.61988 0.48855 0.13828 0.0
C901 C 0.59475 0.47038 0.13848 0.0
C902 C 0.64167 0.4268 0.11637 0.0
C903 C 0.63038 0.45817 0.12746 0.0
C904 C 0.6593 0.42115 0.10968 0.0
C905 C 0.68401 0.4399 0.1073 0.0
C906 C 0.64874 0.45139 0.12078 0.0
C907 C 0.69035 0.46423 0.11199 0.0
C908 C 0.63769 0.48255 0.1328 0.0
C909 C 0.58823 0.4461 0.13345 0.0
N910 N 0.67282 0.46927 0.11846 0.0
N911 N 0.60593 0.44073 0.12806 0.0
H912 H 0.45738 0.90816 0.55751 0.0
H913 H 0.36454 0.76843 0.5259 0.0
H914 H 0.44549 0.88297 0.49855 0.0
H915 H 0.36295 0.79667 0.58226 0.0
H916 H 0.39748 0.80948 0.51654 0.0
H917 H 0.42627 0.86643 0.56783 0.0
C918 C 0.44839 0.89377 0.54678 0.0
C919 C 0.45389 0.89898 0.52715 0.0
C920 C 0.38995 0.80674 0.53096 0.0
C921 C 0.41833 0.85143 0.53878 0.0
C922 C 0.37123 0.78329 0.53633 0.0
C923 C 0.36104 0.77917 0.55489 0.0
C924 C 0.39872 0.82624 0.54427 0.0
C925 C 0.37017 0.79915 0.56776 0.0
C926 C 0.43054 0.87006 0.55265 0.0
C927 C 0.44157 0.87977 0.51381 0.0
N928 N 0.38858 0.82185 0.56223 0.0
N929 N 0.42438 0.85686 0.51987 0.0
H930 H 0.57452 0.43672 0.65915 0.0
H931 H 0.60666 0.37879 0.7499 0.0
H932 H 0.57707 0.46178 0.71751 0.0
H933 H 0.58982 0.34578 0.69331 0.0
H934 H 0.59904 0.41132 0.73805 0.0
H935 H 0.58351 0.40535 0.67115 0.0
C936 C 0.57694 0.43562 0.6745 0.0
C937 C 0.57483 0.45182 0.68734 0.0
C938 C 0.59694 0.3969 0.72825 0.0
C939 C 0.58541 0.41603 0.70118 0.0
C940 C 0.60135 0.3784 0.73499 0.0
C941 C 0.59878 0.35951 0.72259 0.0
C942 C 0.59013 0.39665 0.70893 0.0
C943 C 0.59168 0.35978 0.70344 0.0
C944 C 0.58214 0.41773 0.68134 0.0
C945 C 0.57873 0.44985 0.70705 0.0
N946 N 0.5877 0.3781 0.69719 0.0
N947 N 0.58375 0.43222 0.71337 0.0
H948 H 0.14169 0.53891 0.84006 0.0
H949 H 0.26259 0.6323 0.89877 0.0
H950 H 0.15365 0.60861 0.86206 0.0
H951 H 0.25812 0.57342 0.86327 0.0
H952 H 0.22184 0.62274 0.88715 0.0
H953 H 0.18347 0.54999 0.85016 0.0
C954 C 0.15318 0.55658 0.847 0.0
C955 C 0.14423 0.57285 0.85031 0.0
C956 C 0.22984 0.61197 0.88189 0.0
C957 C 0.19198 0.58562 0.86197 0.0
C958 C 0.25316 0.61745 0.88847 0.0
C959 C 0.2639 0.60364 0.88204 0.0
C960 C 0.21702 0.59239 0.86891 0.0
C961 C 0.25048 0.58431 0.86894 0.0
C962 C 0.17703 0.56294 0.85269 0.0
C963 C 0.15994 0.59563 0.85915 0.0
N964 N 0.22775 0.57923 0.86286 0.0
N965 N 0.18302 0.60128 0.86483 0.0
H966 H 0.59039 0.15979 0.99541 0.0
H967 H 0.67453 0.24957 0.08018 0.0
H968 H 0.58845 0.13592 0.05406 0.0
H969 H 0.68084 0.27192 0.02062 0.0
H970 H 0.64181 0.20821 0.07113 0.0
H971 H 0.62173 0.20171 0.00476 0.0
C972 C 0.59637 0.16343 0.01029 0.0
C973 C 0.58688 0.14432 0.02396 0.0
C974 C 0.65036 0.22217 0.06004 0.0
C975 C 0.62295 0.19213 0.03471 0.0
C976 C 0.66918 0.24575 0.06518 0.0
C977 C 0.6805 0.26428 0.05114 0.0
C978 C 0.64274 0.21704 0.04072 0.0
C979 C 0.67244 0.25833 0.03197 0.0
C980 C 0.6144 0.18731 0.01559 0.0
C981 C 0.59553 0.15003 0.043 0.0
N982 N 0.65408 0.23525 0.02733 0.0
N983 N 0.61309 0.17339 0.0478 0.0
H984 H 0.45664 0.59874 0.15999 0.0
H985 H 0.432 0.66155 0.25135 0.0
H986 H 0.45567 0.57469 0.21846 0.0
H987 H 0.44488 0.69168 0.19381 0.0
H988 H 0.4372 0.62753 0.23945 0.0
H989 H 0.44848 0.63065 0.17199 0.0
C990 C 0.45465 0.60014 0.17536 0.0
C991 C 0.45707 0.58414 0.18825 0.0
C992 C 0.43894 0.64163 0.22945 0.0
C993 C 0.44759 0.62061 0.20211 0.0
C994 C 0.43593 0.661 0.23622 0.0
C995 C 0.43816 0.67954 0.22357 0.0
C996 C 0.44402 0.6407 0.20986 0.0
C997 C 0.44341 0.67801 0.20413 0.0
C998 C 0.44996 0.61835 0.18221 0.0
C999 C 0.45379 0.58649 0.20799 0.0
N1000 N 0.4461 0.65891 0.19788 0.0
N1001 N 0.44935 0.6045 0.21433 0.0
H1002 H 0.88702 0.47438 0.32748 0.0
H1003 H 0.78164 0.4155 0.40665 0.0
H1004 H 0.90111 0.45534 0.38412 0.0
H1005 H 0.78414 0.46638 0.36349 0.0
H1006 H 0.82298 0.42436 0.39662 0.0
H1007 H 0.84637 0.46564 0.33835 0.0
C1008 C 0.8817 0.46849 0.34223 0.0
C1009 C 0.8978 0.46594 0.35495 0.0
C1010 C 0.81449 0.43365 0.38944 0.0
C1011 C 0.85087 0.45527 0.36727 0.0
C1012 C 0.79097 0.42858 0.3951 0.0
C1013 C 0.77963 0.4403 0.38587 0.0
C1014 C 0.8264 0.45014 0.37419 0.0
C1015 C 0.79241 0.45714 0.37104 0.0
C1016 C 0.85841 0.46342 0.34837 0.0
C1017 C 0.88936 0.45739 0.37372 0.0
N1018 N 0.81506 0.4614 0.36552 0.0
N1019 N 0.86644 0.45233 0.37931 0.0
H1020 H 0.10906 0.51786 0.41015 0.0
H1021 H 0.18922 0.63037 0.48141 0.0
H1022 H 0.10724 0.58608 0.40959 0.0
H1023 H 0.17355 0.55597 0.4926 0.0
H1024 H 0.16259 0.6155 0.45297 0.0
H1025 H 0.13571 0.53243 0.43855 0.0
C1026 C 0.1141 0.53583 0.41601 0.0
C1027 C 0.10576 0.55071 0.40739 0.0
C1028 C 0.16494 0.60242 0.46165 0.0
C1029 C 0.13673 0.56767 0.43974 0.0
C1030 C 0.18026 0.61091 0.4778 0.0
C1031 C 0.18362 0.59437 0.48934 0.0
C1032 C 0.15308 0.57722 0.45685 0.0
C1033 C 0.1713 0.5693 0.48416 0.0
C1034 C 0.12944 0.54417 0.43219 0.0
C1035 C 0.11346 0.57408 0.41548 0.0
N1036 N 0.15666 0.56149 0.46823 0.0
N1037 N 0.12852 0.58183 0.43115 0.0
H1038 H 0.53534 0.10294 0.58168 0.0
H1039 H 0.64731 0.19824 0.64837 0.0
H1040 H 0.61063 0.11942 0.57415 0.0
H1041 H 0.57051 0.17275 0.66065 0.0
H1042 H 0.63466 0.17132 0.6201 0.0
H1043 H 0.54839 0.13074 0.60939 0.0
C1044 C 0.55465 0.11254 0.58578 0.0
C1045 C 0.57192 0.10884 0.57559 0.0
C1046 C 0.62059 0.17165 0.62899 0.0
C1047 C 0.58698 0.14057 0.60742 0.0
C1048 C 0.62779 0.18693 0.6452 0.0
C1049 C 0.60997 0.18782 0.65696 0.0
C1050 C 0.59539 0.15718 0.62443 0.0
C1051 C 0.58496 0.17302 0.65188 0.0
C1052 C 0.56207 0.12829 0.60169 0.0
C1053 C 0.59666 0.12152 0.58173 0.0
N1054 N 0.57844 0.15834 0.63603 0.0
N1055 N 0.60345 0.13684 0.59723 0.0
H1056 H 0.51884 0.61226 0.73653 0.0
H1057 H 0.4204 0.57186 0.82226 0.0
H1058 H 0.45843 0.53788 0.74485 0.0
H1059 H 0.4788 0.64708 0.81325 0.0
H1060 H 0.43463 0.55915 0.79415 0.0
H1061 H 0.50522 0.62538 0.76493 0.0
C1062 C 0.50278 0.59867 0.74437 0.0
C1063 C 0.48974 0.57393 0.73827 0.0
C1064 C 0.44436 0.57845 0.79829 0.0
C1065 C 0.47395 0.58886 0.77071 0.0
C1066 C 0.43614 0.58576 0.8143 0.0
C1067 C 0.44832 0.61062 0.82008 0.0
C1068 C 0.46496 0.59609 0.78792 0.0
C1069 C 0.46897 0.62768 0.80942 0.0
C1070 C 0.49494 0.6062 0.76053 0.0
C1071 C 0.46886 0.5572 0.74885 0.0
N1072 N 0.4766 0.62011 0.79383 0.0
N1073 N 0.46165 0.56496 0.76454 0.0
H1074 H 0.93233 0.45596 0.90989 0.0
H1075 H 0.86827 0.49155 0.99404 0.0
H1076 H 0.93758 0.52736 0.91391 0.0
H1077 H 0.85515 0.41771 0.9841 0.0
H1078 H 0.8945 0.50558 0.96533 0.0
H1079 H 0.90521 0.44225 0.93795 0.0
C1080 C 0.92785 0.46879 0.91675 0.0
C1081 C 0.9373 0.49286 0.9096 0.0
C1082 C 0.88584 0.48631 0.96945 0.0
C1083 C 0.90607 0.47725 0.9417 0.0
C1084 C 0.87078 0.47826 0.98579 0.0
C1085 C 0.85959 0.45342 0.9916 0.0
C1086 C 0.88979 0.46943 0.95887 0.0
C1087 C 0.86376 0.43712 0.98044 0.0
C1088 C 0.91224 0.46091 0.9327 0.0
C1089 C 0.93054 0.50858 0.91887 0.0
N1090 N 0.87855 0.44542 0.96469 0.0
N1091 N 0.91541 0.50053 0.9345 0.0
H1092 H 0.42858 0.92981 0.07801 0.0
H1093 H 0.46864 0.86299 0.15695 0.0
H1094 H 0.49974 0.93418 0.07921 0.0
H1095 H 0.39562 0.85421 0.15437 0.0
H1096 H 0.48021 0.88931 0.12852 0.0
H1097 H 0.41594 0.90216 0.10589 0.0
C1098 C 0.44149 0.92484 0.08404 0.0
C1099 C 0.4653 0.93442 0.07628 0.0
C1100 C 0.46163 0.88162 0.13412 0.0
C1101 C 0.45105 0.90301 0.10832 0.0
C1102 C 0.45495 0.86644 0.15032 0.0
C1103 C 0.43106 0.85623 0.15805 0.0
C1104 C 0.44435 0.88677 0.12551 0.0
C1105 C 0.41431 0.86186 0.14904 0.0
C1106 C 0.43431 0.90916 0.10003 0.0
C1107 C 0.48135 0.92759 0.08488 0.0
N1108 N 0.42127 0.87673 0.13324 0.0
N1109 N 0.47395 0.91235 0.10042 0.0
H1110 H 0.56992 0.50499 0.25368 0.0
H1111 H 0.57321 0.39408 0.3079 0.0
H1112 H 0.52449 0.4288 0.2366 0.0
H1113 H 0.59824 0.46528 0.33418 0.0
H1114 H 0.55798 0.40706 0.28029 0.0
H1115 H 0.58351 0.49148 0.28196 0.0
C1116 C 0.56288 0.48542 0.25588 0.0
C1117 C 0.54609 0.46797 0.24281 0.0
C1118 C 0.56667 0.41978 0.29215 0.0
C1119 C 0.56154 0.4524 0.27505 0.0
C1120 C 0.57545 0.41243 0.30784 0.0
C1121 C 0.58697 0.42864 0.32332 0.0
C1122 C 0.56978 0.44365 0.29181 0.0
C1123 C 0.58925 0.45215 0.32261 0.0
C1124 C 0.57051 0.47772 0.27206 0.0
C1125 C 0.53733 0.44282 0.24642 0.0
N1126 N 0.58091 0.45902 0.30704 0.0
N1127 N 0.54528 0.43578 0.26214 0.0
H1128 H 0.45544 0.93335 0.41704 0.0
H1129 H 0.49107 0.86557 0.33599 0.0
H1130 H 0.52625 0.93709 0.41494 0.0
H1131 H 0.41726 0.85297 0.34467 0.0
H1132 H 0.50502 0.89314 0.36399 0.0
H1133 H 0.44174 0.90507 0.38964 0.0
C1134 C 0.46813 0.92826 0.41075 0.0
C1135 C 0.49205 0.93765 0.41822 0.0
C1136 C 0.48576 0.88425 0.3598 0.0
C1137 C 0.47646 0.90518 0.38688 0.0
C1138 C 0.47783 0.86864 0.34377 0.0
C1139 C 0.45296 0.85691 0.33803 0.0
C1140 C 0.46874 0.88834 0.37004 0.0
C1141 C 0.43653 0.86136 0.34873 0.0
C1142 C 0.46026 0.912 0.39518 0.0
C1143 C 0.5076 0.93013 0.4097 0.0
N1144 N 0.44473 0.87677 0.36416 0.0
N1145 N 0.49958 0.91443 0.39441 0.0
H1146 H 0.56296 0.51285 0.55549 0.0
H1147 H 0.62153 0.43378 0.51574 0.0
H1148 H 0.59111 0.47716 0.5926 0.0
H1149 H 0.61413 0.48703 0.48086 0.0
H1150 H 0.60788 0.44728 0.54373 0.0
H1151 H 0.57857 0.50101 0.52751 0.0
C1152 C 0.57238 0.50246 0.55772 0.0
C1153 C 0.57573 0.49592 0.57636 0.0
C1154 C 0.60937 0.45608 0.52996 0.0
C1155 C 0.59361 0.48235 0.5445 0.0
C1156 C 0.61733 0.44851 0.51395 0.0
C1157 C 0.61912 0.45932 0.49582 0.0
C1158 C 0.60284 0.47443 0.52787 0.0
C1159 C 0.61273 0.47788 0.49443 0.0
C1160 C 0.58141 0.49585 0.54178 0.0
C1161 C 0.58831 0.48271 0.57848 0.0
N1162 N 0.60478 0.48477 0.51022 0.0
N1163 N 0.59667 0.47622 0.56273 0.0
H1164 H 0.08624 0.53887 0.73498 0.0
H1165 H 0.19755 0.65241 0.68055 0.0
H1166 H 0.11449 0.61465 0.75225 0.0
H1167 H 0.15316 0.58084 0.65427 0.0
H1168 H 0.16971 0.63839 0.70838 0.0
H1169 H 0.11323 0.55333 0.70669 0.0
C1170 C 0.09821 0.55855 0.73283 0.0
C1171 C 0.09819 0.57561 0.74595 0.0
C1172 C 0.166 0.62581 0.69647 0.0
C1173 C 0.12906 0.59226 0.71369 0.0
C1174 C 0.18192 0.63376 0.68066 0.0
C1175 C 0.1776 0.61775 0.66511 0.0
C1176 C 0.14584 0.60158 0.69686 0.0
C1177 C 0.15699 0.59383 0.66589 0.0
C1178 C 0.11347 0.56679 0.71664 0.0
C1179 C 0.11384 0.60091 0.74239 0.0
N1180 N 0.14197 0.5864 0.68156 0.0
N1181 N 0.12877 0.60849 0.72665 0.0
H1182 H 0.57758 0.09654 0.90914 0.0
H1183 H 0.55442 0.18726 0.84181 0.0
H1184 H 0.51755 0.11097 0.91781 0.0
H1185 H 0.61002 0.1671 0.83074 0.0
H1186 H 0.54132 0.16051 0.87027 0.0
H1187 H 0.59055 0.12358 0.88099 0.0
C1188 C 0.56722 0.10553 0.90519 0.0
C1189 C 0.54647 0.10151 0.91588 0.0
C1190 C 0.55634 0.1619 0.86157 0.0
C1191 C 0.56107 0.13235 0.88349 0.0
C1192 C 0.56389 0.17725 0.84538 0.0
C1193 C 0.58329 0.17937 0.83383 0.0
C1194 C 0.56838 0.1487 0.86633 0.0
C1195 C 0.59474 0.16576 0.83904 0.0
C1196 C 0.57453 0.12085 0.88903 0.0
C1197 C 0.53351 0.11335 0.90988 0.0
N1198 N 0.58716 0.15108 0.85491 0.0
N1199 N 0.54105 0.12827 0.89412 0.0
H1200 H 0.48402 0.53647 0.05716 0.0
H1201 H 0.40226 0.59325 0.01797 0.0
H1202 H 0.44081 0.55607 0.09396 0.0
H1203 H 0.45048 0.57947 0.98208 0.0
H1204 H 0.41461 0.57792 0.04577 0.0
H1205 H 0.4704 0.55037 0.02927 0.0
C1206 C 0.47175 0.5438 0.0594 0.0
C1207 C 0.46365 0.54519 0.07797 0.0
C1208 C 0.42245 0.5782 0.0318 0.0
C1209 C 0.44772 0.5609 0.04602 0.0
C1210 C 0.41549 0.58707 0.01593 0.0
C1211 C 0.42537 0.58771 0.99762 0.0
C1212 C 0.43942 0.56989 0.0294 0.0
C1213 C 0.44212 0.57904 0.99583 0.0
C1214 C 0.46386 0.55161 0.04344 0.0
C1215 C 0.44734 0.5544 0.07991 0.0
N1216 N 0.44865 0.57055 0.0115 0.0
N1217 N 0.43997 0.56195 0.06415 0.0
H1218 H 0.90433 0.44124 0.26405 0.0
H1219 H 0.89126 0.44792 0.14994 0.0
H1220 H 0.96639 0.481 0.22576 0.0
H1221 H 0.83085 0.3985 0.18672 0.0
H1222 H 0.91883 0.46093 0.17771 0.0
H1223 H 0.87686 0.42612 0.23611 0.0
C1224 C 0.91222 0.44668 0.24978 0.0
C1225 C 0.93775 0.46249 0.2473 0.0
C1226 C 0.89956 0.44716 0.17971 0.0
C1227 C 0.90631 0.44548 0.21524 0.0
C1228 C 0.8838 0.43958 0.16381 0.0
C1229 C 0.85863 0.42201 0.16593 0.0
C1230 C 0.89014 0.43726 0.19797 0.0
C1231 C 0.85001 0.41232 0.18441 0.0
C1232 C 0.8965 0.43812 0.23383 0.0
C1233 C 0.94682 0.4692 0.22844 0.0
N1234 N 0.86572 0.42012 0.19971 0.0
N1235 N 0.93113 0.46071 0.21317 0.0
loop_
_geom_bond_atom_site_label_1
_geom_bond_atom_site_label_2
_geom_bond_distance
_geom_bond_site_symmetry_2
_ccdc_geom_bond_type
C0 C1 1.384 . S
C0 C2 1.384 . S
C0 H28 0.931 . S
C1 C0 1.384 . S
C1 C4 1.382 . S
C2 C0 1.384 . S
C2 C3 1.381 . S
C2 H29 0.930 . S
C3 C2 1.381 . S
C3 C5 1.381 . S
C3 C6 1.487 . S
C4 C1 1.382 . S
C4 C5 1.387 . S
C4 H30 0.930 . S
C5 C3 1.381 . S
C5 C4 1.387 . S
C5 H31 0.931 . S
C6 C3 1.487 . S
C6 C13 1.399 1_655 S
C6 N44 1.343 1_655 S
C7 C8 1.384 . S
C7 C9 1.384 . S
C7 H32 0.931 . S
C8 C7 1.384 . S
C8 C11 1.382 . S
C9 C7 1.384 . S
C9 C10 1.381 . S
C9 H33 0.930 . S
C10 C9 1.381 . S
C10 C12 1.381 . S
C10 C13 1.487 1_655 S
C11 C8 1.382 . S
C11 C12 1.387 . S
C11 H34 0.930 . S
C12 C10 1.381 . S
C12 C11 1.387 . S
C12 H35 0.931 1_655 S
C13 C6 1.399 1_455 S
C13 C10 1.487 1_455 S
C13 N45 1.343 . S
C14 C15 1.384 . S
C14 C16 1.384 . S
C14 H36 0.931 . S
C15 C14 1.384 . S
C15 C18 1.382 . S
C16 C14 1.384 . S
C16 C17 1.381 . S
C16 H37 0.930 . S
C17 C16 1.381 . S
C17 C19 1.381 . S
C17 C20 1.487 . S
C18 C15 1.382 . S
C18 C19 1.387 . S
C18 H38 0.930 . S
C19 C17 1.381 . S
C19 C18 1.387 . S
C19 H39 0.931 . S
C20 C17 1.487 . S
C20 C27 1.399 . S
C20 N45 1.343 . S
C21 C22 1.384 . S
C21 C23 1.384 . S
C21 H40 0.931 . S
C22 C21 1.384 . S
C22 C25 1.382 . S
C23 C21 1.384 . S
C23 C24 1.381 . S
C23 H41 0.930 . S
C24 C23 1.381 . S
C24 C26 1.381 . S
C24 C27 1.487 . S
C25 C22 1.382 . S
C25 C26 1.387 . S
C25 H42 0.930 . S
C26 C24 1.381 . S
C26 C25 1.387 . S
C26 H43 0.931 . S
C27 C20 1.399 . S
C27 C24 1.487 . S
C27 N44 1.343 . S
H28 C0 0.931 . S
H29 C2 0.930 . S
H30 C4 0.930 . S
H31 C5 0.931 . S
H32 C7 0.931 . S
H33 C9 0.930 . S
H34 C11 0.930 . S
H35 C12 0.931 1_455 S
H36 C14 0.931 . S
H37 C16 0.930 . S
H38 C18 0.930 . S
H39 C19 0.931 . S
H40 C21 0.931 . S
H41 C23 0.930 . S
H42 C25 0.930 . S
H43 C26 0.931 . S
N44 C6 1.343 1_455 S
N44 C27 1.343 . S
N45 C13 1.343 . S
N45 C20 1.343 . S
C46 C47 1.384 . S
C46 C48 1.384 . S
C46 H74 0.931 . S
C47 C46 1.384 . S
C47 C50 1.382 . S
C48 C46 1.384 . S
C48 C49 1.381 . S
C48 H75 0.930 . S
C49 C48 1.381 . S
C49 C51 1.381 . S
C49 C52 1.487 . S
C50 C47 1.382 . S
C50 C51 1.387 . S
C50 H76 0.930 . S
C51 C49 1.381 . S
C51 C50 1.387 . S
C51 H77 0.931 . S
C52 C49 1.487 . S
C52 C59 1.399 1_565 S
C52 N90 1.343 1_565 S
C53 C54 1.384 . S
C53 C55 1.384 . S
C53 H78 0.931 . S
C54 C53 1.384 . S
C54 C57 1.382 . S
C55 C53 1.384 . S
C55 C56 1.381 . S
C55 H79 0.930 . S
C56 C55 1.381 . S
C56 C58 1.381 . S
C56 C59 1.487 1_565 S
C57 C54 1.382 . S
C57 C58 1.387 . S
C57 H80 0.930 . S
C58 C56 1.381 . S
C58 C57 1.387 . S
C58 H81 0.931 1_565 S
C59 C52 1.399 1_545 S
C59 C56 1.487 1_545 S
C59 N91 1.343 . S
C60 C61 1.384 . S
C60 C62 1.384 . S
C60 H82 0.931 . S
C61 C60 1.384 . S
C61 C64 1.382 . S
C62 C60 1.384 . S
C62 C63 1.381 . S
C62 H83 0.930 . S
C63 C62 1.381 . S
C63 C65 1.381 . S
C63 C66 1.487 . S
C64 C61 1.382 . S
C64 C65 1.387 . S
C64 H84 0.930 . S
C65 C63 1.381 . S
C65 C64 1.387 . S
C65 H85 0.931 . S
C66 C63 1.487 . S
C66 C73 1.399 . S
C66 N91 1.343 . S
C67 C68 1.384 . S
C67 C69 1.384 . S
C67 H86 0.931 . S
C68 C67 1.384 . S
C68 C71 1.382 . S
C69 C67 1.384 . S
C69 C70 1.381 . S
C69 H87 0.930 . S
C70 C69 1.381 . S
C70 C72 1.381 . S
C70 C73 1.487 . S
C71 C68 1.382 . S
C71 C72 1.387 . S
C71 H88 0.930 . S
C72 C70 1.381 . S
C72 C71 1.387 . S
C72 H89 0.931 . S
C73 C66 1.399 . S
C73 C70 1.487 . S
C73 N90 1.343 . S
H74 C46 0.931 . S
H75 C48 0.930 . S
H76 C50 0.930 . S
H77 C51 0.931 . S
H78 C53 0.931 . S
H79 C55 0.930 . S
H80 C57 0.930 . S
H81 C58 0.931 1_545 S
H82 C60 0.931 . S
H83 C62 0.930 . S
H84 C64 0.930 . S
H85 C65 0.931 . S
H86 C67 0.931 . S
H87 C69 0.930 . S
H88 C71 0.930 . S
H89 C72 0.931 . S
N90 C52 1.343 1_545 S
N90 C73 1.343 . S
N91 C59 1.343 . S
N91 C66 1.343 . S
C92 C93 1.384 . S
C92 C94 1.384 . S
C92 H120 0.931 . S
C93 C92 1.384 . S
C93 C96 1.382 . S
C94 C92 1.384 . S
C94 C95 1.381 . S
C94 H121 0.930 . S
C95 C94 1.381 . S
C95 C97 1.381 . S
C95 C98 1.487 . S
C96 C93 1.382 . S
C96 C97 1.387 . S
C96 H122 0.930 . S
C97 C95 1.381 . S
C97 C96 1.387 . S
C97 H123 0.931 . S
C98 C95 1.487 . S
C98 C105 1.399 . S
C98 N136 1.343 . S
C99 C100 1.384 . S
C99 C101 1.384 . S
C99 H124 0.931 . S
C100 C99 1.384 . S
C100 C103 1.382 . S
C101 C99 1.384 . S
C101 C102 1.381 . S
C101 H125 0.930 . S
C102 C101 1.381 . S
C102 C104 1.381 . S
C102 C105 1.487 . S
C103 C100 1.382 . S
C103 C104 1.387 . S
C103 H126 0.930 . S
C104 C102 1.381 . S
C104 C103 1.387 . S
C104 H127 0.931 . S
C105 C98 1.399 . S
C105 C102 1.487 . S
C105 N137 1.343 . S
C106 C107 1.384 . S
C106 C108 1.384 . S
C106 H128 0.931 . S
C107 C106 1.384 . S
C107 C110 1.382 . S
C108 C106 1.384 . S
C108 C109 1.381 . S
C108 H129 0.930 . S
C109 C108 1.381 . S
C109 C111 1.381 . S
C109 C112 1.487 . S
C110 C107 1.382 . S
C110 C111 1.387 . S
C110 H130 0.930 . S
C111 C109 1.381 . S
C111 C110 1.387 . S
C111 H131 0.931 . S
C112 C109 1.487 . S
C112 C119 1.399 . S
C112 N137 1.343 . S
C113 C114 1.384 . S
C113 C115 1.384 . S
C113 H132 0.931 . S
C114 C113 1.384 . S
C114 C117 1.382 . S
C115 C113 1.384 . S
C115 C116 1.381 . S
C115 H133 0.930 . S
C116 C115 1.381 . S
C116 C118 1.381 . S
C116 C119 1.487 . S
C117 C114 1.382 . S
C117 C118 1.387 . S
C117 H134 0.930 . S
C118 C116 1.381 . S
C118 C117 1.387 . S
C118 H135 0.931 . S
C119 C112 1.399 . S
C119 C116 1.487 . S
C119 N136 1.343 . S
H120 C92 0.931 . S
H121 C94 0.930 . S
H122 C96 0.930 . S
H123 C97 0.931 . S
H124 C99 0.931 . S
H125 C101 0.930 . S
H126 C103 0.930 . S
H127 C104 0.931 . S
H128 C106 0.931 . S
H129 C108 0.930 . S
H130 C110 0.930 . S
H131 C111 0.931 . S
H132 C113 0.931 . S
H133 C115 0.930 . S
H134 C117 0.930 . S
H135 C118 0.931 . S
N136 C98 1.343 . S
N136 C119 1.343 . S
N137 C105 1.343 . S
N137 C112 1.343 . S
C138 C139 1.384 . S
C138 C140 1.384 . S
C138 H166 0.931 . S
C139 C138 1.384 . S
C139 C142 1.382 . S
C140 C138 1.384 . S
C140 C141 1.381 . S
C140 H167 0.930 . S
C141 C140 1.381 . S
C141 C143 1.381 . S
C141 C144 1.487 . S
C142 C139 1.382 . S
C142 C143 1.387 . S
C142 H168 0.930 . S
C143 C141 1.381 . S
C143 C142 1.387 . S
C143 H169 0.931 . S
C144 C141 1.487 . S
C144 C151 1.399 1_655 S
C144 N182 1.343 1_655 S
C145 C146 1.384 . S
C145 C147 1.384 . S
C145 H170 0.931 . S
C146 C145 1.384 . S
C146 C149 1.382 . S
C147 C145 1.384 . S
C147 C148 1.381 . S
C147 H171 0.930 . S
C148 C147 1.381 . S
C148 C150 1.381 . S
C148 C151 1.487 1_655 S
C149 C146 1.382 . S
C149 C150 1.387 . S
C149 H172 0.930 . S
C150 C148 1.381 . S
C150 C149 1.387 . S
C150 H173 0.931 1_655 S
C151 C144 1.399 1_455 S
C151 C148 1.487 1_455 S
C151 N183 1.343 . S
C152 C153 1.384 . S
C152 C154 1.384 . S
C152 H174 0.931 . S
C153 C152 1.384 . S
C153 C156 1.382 . S
C154 C152 1.384 . S
C154 C155 1.381 . S
C154 H175 0.930 . S
C155 C154 1.381 . S
C155 C157 1.381 . S
C155 C158 1.487 . S
C156 C153 1.382 . S
C156 C157 1.387 . S
C156 H176 0.930 . S
C157 C155 1.381 . S
C157 C156 1.387 . S
C157 H177 0.931 . S
C158 C155 1.487 . S
C158 C165 1.399 . S
C158 N183 1.343 . S
C159 C160 1.384 . S
C159 C161 1.384 . S
C159 H178 0.931 . S
C160 C159 1.384 . S
C160 C163 1.382 . S
C161 C159 1.384 . S
C161 C162 1.381 . S
C161 H179 0.930 . S
C162 C161 1.381 . S
C162 C164 1.381 . S
C162 C165 1.487 . S
C163 C160 1.382 . S
C163 C164 1.387 . S
C163 H180 0.930 . S
C164 C162 1.381 . S
C164 C163 1.387 . S
C164 H181 0.931 . S
C165 C158 1.399 . S
C165 C162 1.487 . S
C165 N182 1.343 . S
H166 C138 0.931 . S
H167 C140 0.930 . S
H168 C142 0.930 . S
H169 C143 0.931 . S
H170 C145 0.931 . S
H171 C147 0.930 . S
H172 C149 0.930 . S
H173 C150 0.931 1_455 S
H174 C152 0.931 . S
H175 C154 0.930 . S
H176 C156 0.930 . S
H177 C157 0.931 . S
H178 C159 0.931 . S
H179 C161 0.930 . S
H180 C163 0.930 . S
H181 C164 0.931 . S
N182 C144 1.343 1_455 S
N182 C165 1.343 . S
N183 C151 1.343 . S
N183 C158 1.343 . S
C184 C185 1.384 . S
C184 C186 1.384 . S
C184 H212 0.931 . S
C185 C184 1.384 . S
C185 C188 1.382 . S
C186 C184 1.384 . S
C186 C187 1.381 . S
C186 H213 0.930 1_556 S
C187 C186 1.381 . S
C187 C189 1.381 . S
C187 C190 1.487 . S
C188 C185 1.382 . S
C188 C189 1.387 . S
C188 H214 0.930 . S
C189 C187 1.381 . S
C189 C188 1.387 . S
C189 H215 0.931 . S
C190 C187 1.487 . S
C190 C197 1.399 1_566 S
C190 N228 1.343 1_565 S
C191 C192 1.384 . S
C191 C193 1.384 . S
C191 H216 0.931 . S
C192 C191 1.384 . S
C192 C195 1.382 . S
C193 C191 1.384 . S
C193 C194 1.381 . S
C193 H217 0.930 . S
C194 C193 1.381 . S
C194 C196 1.381 . S
C194 C197 1.487 1_565 S
C195 C192 1.382 . S
C195 C196 1.387 . S
C195 H218 0.930 . S
C196 C194 1.381 . S
C196 C195 1.387 . S
C196 H219 0.931 1_565 S
C197 C190 1.399 1_544 S
C197 C194 1.487 1_545 S
C197 N229 1.343 . S
C198 C199 1.384 . S
C198 C200 1.384 1_554 S
C198 H220 0.938 . S
C199 C198 1.384 . S
C199 C202 1.382 . S
C200 C198 1.384 1_556 S
C200 C201 1.381 1_556 S
C200 H221 0.930 . S
C201 C200 1.381 1_554 S
C201 C203 1.381 . S
C201 C204 1.474 1_554 S
C202 C199 1.382 . S
C202 C203 1.387 . S
C202 H222 0.930 . S
C203 C201 1.381 . S
C203 C202 1.387 . S
C203 H223 0.931 . S
C204 C201 1.474 1_556 S
C204 C211 1.445 . S
C204 N229 1.307 1_556 S
C205 C206 1.384 . S
C205 C207 1.384 . S
C205 H224 0.931 . S
C206 C205 1.384 . S
C206 C209 1.382 . S
C207 C205 1.384 . S
C207 C208 1.381 . S
C207 H225 0.930 . S
C208 C207 1.381 . S
C208 C210 1.381 . S
C208 C211 1.487 . S
C209 C206 1.382 . S
C209 C210 1.387 . S
C209 H226 0.930 . S
C210 C208 1.381 . S
C210 C209 1.387 . S
C210 H227 0.931 . S
C211 C204 1.445 . S
C211 C208 1.487 . S
C211 N228 1.343 . S
H212 C184 0.931 . S
H213 C186 0.930 1_554 S
H214 C188 0.930 . S
H215 C189 0.931 . S
H216 C191 0.931 . S
H217 C193 0.930 . S
H218 C195 0.930 . S
H219 C196 0.931 1_545 S
H220 C198 0.938 . S
H221 C200 0.930 . S
H222 C202 0.930 . S
H223 C203 0.931 . S
H224 C205 0.931 . S
H225 C207 0.930 . S
H226 C209 0.930 . S
H227 C210 0.931 . S
N228 C190 1.343 1_545 S
N228 C211 1.343 . S
N229 C197 1.343 . S
N229 C204 1.307 1_554 S
C230 C231 1.384 . S
C230 C232 1.384 . S
C230 H258 0.931 . S
C231 C230 1.384 . S
C231 C234 1.382 . S
C232 C230 1.384 . S
C232 C233 1.381 . S
C232 H259 0.930 . S
C233 C232 1.381 . S
C233 C235 1.381 . S
C233 C236 1.487 . S
C234 C231 1.382 . S
C234 C235 1.387 . S
C234 H260 0.930 . S
C235 C233 1.381 . S
C235 C234 1.387 . S
C235 H261 0.931 . S
C236 C233 1.487 . S
C236 C243 1.399 . S
C236 N274 1.343 . S
C237 C238 1.384 . S
C237 C239 1.384 . S
C237 H262 0.931 . S
C238 C237 1.384 . S
C238 C241 1.382 . S
C239 C237 1.384 . S
C239 C240 1.381 . S
C239 H263 0.930 . S
C240 C239 1.381 . S
C240 C242 1.381 . S
C240 C243 1.487 . S
C241 C238 1.382 . S
C241 C242 1.387 . S
C241 H264 0.930 . S
C242 C240 1.381 . S
C242 C241 1.387 . S
C242 H265 0.931 . S
C243 C236 1.399 . S
C243 C240 1.487 . S
C243 N275 1.343 . S
C244 C245 1.384 . S
C244 C246 1.384 . S
C244 H266 0.931 . S
C245 C244 1.384 . S
C245 C248 1.382 . S
C246 C244 1.384 . S
C246 C247 1.381 . S
C246 H267 0.930 . S
C247 C246 1.381 . S
C247 C249 1.381 . S
C247 C250 1.487 . S
C248 C245 1.382 . S
C248 C249 1.387 . S
C248 H268 0.930 . S
C249 C247 1.381 . S
C249 C248 1.387 . S
C249 H269 0.931 . S
C250 C247 1.487 . S
C250 C257 1.399 . S
C250 N275 1.343 . S
C251 C252 1.384 . S
C251 C253 1.384 . S
C251 H270 0.931 . S
C252 C251 1.384 . S
C252 C255 1.382 . S
C253 C251 1.384 . S
C253 C254 1.381 . S
C253 H271 0.930 . S
C254 C253 1.381 . S
C254 C256 1.381 . S
C254 C257 1.487 . S
C255 C252 1.382 . S
C255 C256 1.387 . S
C255 H272 0.930 . S
C256 C254 1.381 . S
C256 C255 1.387 . S
C256 H273 0.931 . S
C257 C250 1.399 . S
C257 C254 1.487 . S
C257 N274 1.343 . S
H258 C230 0.931 . S
H259 C232 0.930 . S
H260 C234 0.930 . S
H261 C235 0.931 . S
H262 C237 0.931 . S
H263 C239 0.930 . S
H264 C241 0.930 . S
H265 C242 0.931 . S
H266 C244 0.931 . S
H267 C246 0.930 . S
H268 C248 0.930 . S
H269 C249 0.931 . S
H270 C251 0.931 . S
H271 C253 0.930 . S
H272 C255 0.930 . S
H273 C256 0.931 . S
N274 C236 1.343 . S
N274 C257 1.343 . S
N275 C243 1.343 . S
N275 C250 1.343 . S
Li276 N293 1.990 . S
Li276 O336 1.956 . S
Li276 O337 1.970 . S
Li276 O338 1.961 . S
Li277 N301 1.990 . S
Li277 O336 1.970 . S
Li277 O337 1.956 . S
Li277 O339 1.961 . S
Li278 N323 1.990 . S
Li278 O336 1.961 . S
Li278 O338 1.956 . S
Li278 O339 1.970 . S
Li279 N329 1.990 . S
Li279 O337 1.961 . S
Li279 O338 1.970 . S
Li279 O339 1.956 . S
C280 C282 1.348 . S
C280 C283 1.356 . S
C280 O336 1.325 . S
N281 C284 1.314 . S
N281 C285 1.279 . S
C282 C280 1.348 . S
C282 C284 1.353 . S
C282 H340 0.929 . S
C283 C280 1.356 . S
C283 C285 1.358 . S
C283 H341 0.930 . S
C284 N281 1.314 . S
C284 C282 1.353 . S
C284 H342 0.930 . S
C285 N281 1.279 . S
C285 C283 1.358 . S
C285 H343 0.930 . S
C286 C289 1.348 . S
C286 C290 1.356 . S
C286 O337 1.325 . S
C287 N288 1.279 . S
C287 C290 1.358 . S
C287 H344 0.930 . S
N288 C287 1.279 . S
N288 C291 1.314 . S
C289 C286 1.348 . S
C289 C291 1.353 . S
C289 H345 0.929 . S
C290 C286 1.356 . S
C290 C287 1.358 . S
C290 H346 0.930 . S
C291 N288 1.314 . S
C291 C289 1.353 . S
C291 H347 0.930 . S
C292 N293 1.314 . S
C292 C297 1.353 . S
C292 H298 0.930 . S
N293 Li276 1.990 . S
N293 C292 1.314 . S
N293 C295 1.279 . S
C294 C295 1.358 . S
C294 C296 1.356 . S
C294 H348 0.930 . S
C295 N293 1.279 . S
C295 C294 1.358 . S
C295 H299 0.930 . S
C296 C294 1.356 . S
C296 C297 1.348 . S
C297 C292 1.353 . S
C297 C296 1.348 . S
C297 H349 0.929 . S
H298 C292 0.930 . S
H299 C295 0.930 . S
C300 N301 1.314 . S
C300 C302 1.353 . S
C300 H306 0.930 . S
N301 Li277 1.990 . S
N301 C300 1.314 . S
N301 C304 1.279 . S
C302 C300 1.353 . S
C302 C305 1.348 . S
C302 H350 0.929 . S
C303 C304 1.358 . S
C303 C305 1.356 . S
C303 H351 0.930 . S
C304 N301 1.279 . S
C304 C303 1.358 . S
C304 H307 0.930 . S
C305 C302 1.348 . S
C305 C303 1.356 . S
H306 C300 0.930 . S
H307 C304 0.930 . S
C308 C310 1.348 . S
C308 C311 1.356 . S
C308 O338 1.325 . S
N309 C312 1.314 . S
N309 C313 1.279 . S
C310 C308 1.348 . S
C310 C312 1.353 . S
C310 H352 0.929 . S
C311 C308 1.356 . S
C311 C313 1.358 . S
C311 H353 0.930 . S
C312 N309 1.314 . S
C312 C310 1.353 . S
C312 H354 0.930 . S
C313 N309 1.279 . S
C313 C311 1.358 . S
C313 H355 0.930 . S
C314 C315 1.348 . S
C314 C316 1.356 . S
C314 O339 1.325 . S
C315 C314 1.348 . S
C315 C317 1.353 . S
C315 H356 0.929 . S
C316 C314 1.356 . S
C316 C318 1.358 . S
C316 H357 0.930 . S
C317 C315 1.353 . S
C317 N319 1.314 . S
C317 H358 0.930 . S
C318 C316 1.358 . S
C318 N319 1.279 . S
C318 H359 0.930 . S
N319 C317 1.314 . S
N319 C318 1.279 . S
C320 C322 1.353 . S
C320 N323 1.314 . S
C320 H326 0.930 . S
C321 N323 1.279 . S
C321 C324 1.358 . S
C321 H327 0.930 . S
C322 C320 1.353 . S
C322 C325 1.348 . S
C322 H360 0.929 . S
N323 Li278 1.990 . S
N323 C320 1.314 . S
N323 C321 1.279 . S
C324 C321 1.358 . S
C324 C325 1.356 . S
C324 H361 0.930 . S
C325 C322 1.348 . S
C325 C324 1.356 . S
H326 C320 0.930 . S
H327 C321 0.930 . S
C328 N329 1.314 . S
C328 C330 1.353 . S
C328 H334 0.930 . S
N329 Li279 1.990 . S
N329 C328 1.314 . S
N329 C332 1.279 . S
C330 C328 1.353 . S
C330 C333 1.348 . S
C330 H362 0.929 . S
C331 C332 1.358 . S
C331 C333 1.356 . S
C331 H363 0.930 . S
C332 N329 1.279 . S
C332 C331 1.358 . S
C332 H335 0.930 . S
C333 C330 1.348 . S
C333 C331 1.356 . S
H334 C328 0.930 . S
H335 C332 0.930 . S
O336 Li276 1.956 . S
O336 Li277 1.970 . S
O336 Li278 1.961 . S
O336 C280 1.325 . S
O337 Li276 1.970 . S
O337 Li277 1.956 . S
O337 Li279 1.961 . S
O337 C286 1.325 . S
O338 Li276 1.961 . S
O338 Li278 1.956 . S
O338 Li279 1.970 . S
O338 C308 1.325 . S
O339 Li277 1.961 . S
O339 Li278 1.970 . S
O339 Li279 1.956 . S
O339 C314 1.325 . S
H340 C282 0.929 . S
H341 C283 0.930 . S
H342 C284 0.930 . S
H343 C285 0.930 . S
H344 C287 0.930 . S
H345 C289 0.929 . S
H346 C290 0.930 . S
H347 C291 0.930 . S
H348 C294 0.930 . S
H349 C297 0.929 . S
H350 C302 0.929 . S
H351 C303 0.930 . S
H352 C310 0.929 . S
H353 C311 0.930 . S
H354 C312 0.930 . S
H355 C313 0.930 . S
H356 C315 0.929 . S
H357 C316 0.930 . S
H358 C317 0.930 . S
H359 C318 0.930 . S
H360 C322 0.929 . S
H361 C324 0.930 . S
H362 C330 0.929 . S
H363 C331 0.930 . S
Li364 N381 1.990 . S
Li364 O424 1.956 . S
Li364 O425 1.970 . S
Li364 O426 1.961 . S
Li365 N389 1.990 . S
Li365 O424 1.970 . S
Li365 O425 1.956 . S
Li365 O427 1.961 . S
Li366 N411 1.990 . S
Li366 O424 1.961 . S
Li366 O426 1.956 . S
Li366 O427 1.970 . S
Li367 N417 1.990 . S
Li367 O425 1.961 . S
Li367 O426 1.970 . S
Li367 O427 1.956 . S
C368 C370 1.348 . S
C368 C371 1.356 . S
C368 O424 1.325 . S
N369 C372 1.314 . S
N369 C373 1.279 . S
C370 C368 1.348 . S
C370 C372 1.353 . S
C370 H428 0.929 . S
C371 C368 1.356 . S
C371 C373 1.358 . S
C371 H429 0.930 . S
C372 N369 1.314 . S
C372 C370 1.353 . S
C372 H430 0.930 . S
C373 N369 1.279 . S
C373 C371 1.358 . S
C373 H431 0.930 . S
C374 C377 1.348 . S
C374 C378 1.356 . S
C374 O425 1.325 . S
C375 N376 1.279 . S
C375 C378 1.358 . S
C375 H432 0.930 . S
N376 C375 1.279 . S
N376 C379 1.314 . S
C377 C374 1.348 . S
C377 C379 1.353 . S
C377 H433 0.929 . S
C378 C374 1.356 . S
C378 C375 1.358 . S
C378 H434 0.930 . S
C379 N376 1.314 . S
C379 C377 1.353 . S
C379 H435 0.930 . S
C380 N381 1.314 . S
C380 C385 1.353 . S
C380 H386 0.930 . S
N381 Li364 1.990 . S
N381 C380 1.314 . S
N381 C383 1.279 . S
C382 C383 1.358 . S
C382 C384 1.356 . S
C382 H436 0.930 . S
C383 N381 1.279 . S
C383 C382 1.358 . S
C383 H387 0.930 . S
C384 C382 1.356 . S
C384 C385 1.348 . S
C385 C380 1.353 . S
C385 C384 1.348 . S
C385 H437 0.929 . S
H386 C380 0.930 . S
H387 C383 0.930 . S
C388 N389 1.314 . S
C388 C390 1.353 . S
C388 H394 0.930 . S
N389 Li365 1.990 . S
N389 C388 1.314 . S
N389 C392 1.279 . S
C390 C388 1.353 . S
C390 C393 1.348 . S
C390 H438 0.929 . S
C391 C392 1.358 . S
C391 C393 1.356 . S
C391 H439 0.930 . S
C392 N389 1.279 . S
C392 C391 1.358 . S
C392 H395 0.930 . S
C393 C390 1.348 . S
C393 C391 1.356 . S
H394 C388 0.930 . S
H395 C392 0.930 . S
C396 C398 1.348 . S
C396 C399 1.356 . S
C396 O426 1.325 . S
N397 C400 1.314 . S
N397 C401 1.279 . S
C398 C396 1.348 . S
C398 C400 1.353 . S
C398 H440 0.929 . S
C399 C396 1.356 . S
C399 C401 1.358 . S
C399 H441 0.930 . S
C400 N397 1.314 . S
C400 C398 1.353 . S
C400 H442 0.930 . S
C401 N397 1.279 . S
C401 C399 1.358 . S
C401 H443 0.930 . S
C402 C403 1.348 . S
C402 C404 1.356 . S
C402 O427 1.325 . S
C403 C402 1.348 . S
C403 C405 1.353 . S
C403 H444 0.929 . S
C404 C402 1.356 . S
C404 C406 1.358 . S
C404 H445 0.930 . S
C405 C403 1.353 . S
C405 N407 1.314 . S
C405 H446 0.930 . S
C406 C404 1.358 . S
C406 N407 1.279 . S
C406 H447 0.930 . S
N407 C405 1.314 . S
N407 C406 1.279 . S
C408 C410 1.353 . S
C408 N411 1.314 . S
C408 H414 0.930 . S
C409 N411 1.279 . S
C409 C412 1.358 . S
C409 H415 0.930 . S
C410 C408 1.353 . S
C410 C413 1.348 . S
C410 H448 0.929 . S
N411 Li366 1.990 . S
N411 C408 1.314 . S
N411 C409 1.279 . S
C412 C409 1.358 . S
C412 C413 1.356 . S
C412 H449 0.930 . S
C413 C410 1.348 . S
C413 C412 1.356 . S
H414 C408 0.930 . S
H415 C409 0.930 . S
C416 N417 1.314 . S
C416 C418 1.353 . S
C416 H422 0.930 . S
N417 Li367 1.990 . S
N417 C416 1.314 . S
N417 C420 1.279 . S
C418 C416 1.353 . S
C418 C421 1.348 . S
C418 H450 0.929 . S
C419 C420 1.358 . S
C419 C421 1.356 . S
C419 H451 0.930 . S
C420 N417 1.279 . S
C420 C419 1.358 . S
C420 H423 0.930 . S
C421 C418 1.348 . S
C421 C419 1.356 . S
H422 C416 0.930 . S
H423 C420 0.930 . S
O424 Li364 1.956 . S
O424 Li365 1.970 . S
O424 Li366 1.961 . S
O424 C368 1.325 . S
O425 Li364 1.970 . S
O425 Li365 1.956 . S
O425 Li367 1.961 . S
O425 C374 1.325 . S
O426 Li364 1.961 . S
O426 Li366 1.956 . S
O426 Li367 1.970 . S
O426 C396 1.325 . S
O427 Li365 1.961 . S
O427 Li366 1.970 . S
O427 Li367 1.956 . S
O427 C402 1.325 . S
H428 C370 0.929 . S
H429 C371 0.930 . S
H430 C372 0.930 . S
H431 C373 0.930 . S
H432 C375 0.930 . S
H433 C377 0.929 . S
H434 C378 0.930 . S
H435 C379 0.930 . S
H436 C382 0.930 . S
H437 C385 0.929 . S
H438 C390 0.929 . S
H439 C391 0.930 . S
H440 C398 0.929 . S
H441 C399 0.930 . S
H442 C400 0.930 . S
H443 C401 0.930 . S
H444 C403 0.929 . S
H445 C404 0.930 . S
H446 C405 0.930 . S
H447 C406 0.930 . S
H448 C410 0.929 . S
H449 C412 0.930 . S
H450 C418 0.929 . S
H451 C419 0.930 . S
Li452 N469 1.990 . S
Li452 O512 1.956 . S
Li452 O513 1.970 . S
Li452 O514 1.961 . S
Li453 N477 1.990 . S
Li453 O512 1.970 . S
Li453 O513 1.956 . S
Li453 O515 1.961 . S
Li454 N499 1.990 . S
Li454 O512 1.961 . S
Li454 O514 1.956 . S
Li454 O515 1.970 . S
Li455 N505 1.990 . S
Li455 O513 1.961 . S
Li455 O514 1.970 . S
Li455 O515 1.956 . S
C456 C458 1.348 . S
C456 C459 1.356 . S
C456 O512 1.325 . S
N457 C460 1.314 . S
N457 C461 1.279 . S
C458 C456 1.348 . S
C458 C460 1.353 . S
C458 H516 0.929 . S
C459 C456 1.356 . S
C459 C461 1.358 . S
C459 H517 0.930 . S
C460 N457 1.314 . S
C460 C458 1.353 . S
C460 H518 0.930 . S
C461 N457 1.279 . S
C461 C459 1.358 . S
C461 H519 0.930 . S
C462 C465 1.348 . S
C462 C466 1.356 . S
C462 O513 1.325 . S
C463 N464 1.279 . S
C463 C466 1.358 . S
C463 H520 0.930 . S
N464 C463 1.279 . S
N464 C467 1.314 . S
C465 C462 1.348 . S
C465 C467 1.353 . S
C465 H521 0.929 . S
C466 C462 1.356 . S
C466 C463 1.358 . S
C466 H522 0.930 . S
C467 N464 1.314 . S
C467 C465 1.353 . S
C467 H523 0.930 . S
C468 N469 1.314 . S
C468 C473 1.353 . S
C468 H474 0.930 . S
N469 Li452 1.990 . S
N469 C468 1.314 . S
N469 C471 1.279 . S
C470 C471 1.358 . S
C470 C472 1.356 . S
C470 H524 0.930 . S
C471 N469 1.279 . S
C471 C470 1.358 . S
C471 H475 0.930 . S
C472 C470 1.356 . S
C472 C473 1.348 . S
C473 C468 1.353 . S
C473 C472 1.348 . S
C473 H525 0.929 . S
H474 C468 0.930 . S
H475 C471 0.930 . S
C476 N477 1.314 . S
C476 C478 1.353 . S
C476 H482 0.930 . S
N477 Li453 1.990 . S
N477 C476 1.314 . S
N477 C480 1.279 . S
C478 C476 1.353 . S
C478 C481 1.348 . S
C478 H526 0.929 . S
C479 C480 1.358 . S
C479 C481 1.356 . S
C479 H527 0.930 . S
C480 N477 1.279 . S
C480 C479 1.358 . S
C480 H483 0.930 . S
C481 C478 1.348 . S
C481 C479 1.356 . S
H482 C476 0.930 . S
H483 C480 0.930 . S
C484 C486 1.348 . S
C484 C487 1.356 . S
C484 O514 1.325 . S
N485 C488 1.314 . S
N485 C489 1.279 . S
C486 C484 1.348 . S
C486 C488 1.353 . S
C486 H528 0.929 . S
C487 C484 1.356 . S
C487 C489 1.358 . S
C487 H529 0.930 . S
C488 N485 1.314 . S
C488 C486 1.353 . S
C488 H530 0.930 . S
C489 N485 1.279 . S
C489 C487 1.358 . S
C489 H531 0.930 . S
C490 C491 1.348 . S
C490 C492 1.356 . S
C490 O515 1.325 . S
C491 C490 1.348 . S
C491 C493 1.353 . S
C491 H532 0.929 . S
C492 C490 1.356 . S
C492 C494 1.358 . S
C492 H533 0.930 . S
C493 C491 1.353 . S
C493 N495 1.314 . S
C493 H534 0.930 . S
C494 C492 1.358 . S
C494 N495 1.279 . S
C494 H535 0.930 . S
N495 C493 1.314 . S
N495 C494 1.279 . S
C496 C498 1.353 . S
C496 N499 1.314 . S
C496 H502 0.930 . S
C497 N499 1.279 . S
C497 C500 1.358 . S
C497 H503 0.930 . S
C498 C496 1.353 . S
C498 C501 1.348 . S
C498 H536 0.929 . S
N499 Li454 1.990 . S
N499 C496 1.314 . S
N499 C497 1.279 . S
C500 C497 1.358 . S
C500 C501 1.356 . S
C500 H537 0.930 . S
C501 C498 1.348 . S
C501 C500 1.356 . S
H502 C496 0.930 . S
H503 C497 0.930 . S
C504 N505 1.314 . S
C504 C506 1.353 . S
C504 H510 0.930 . S
N505 Li455 1.990 . S
N505 C504 1.314 . S
N505 C508 1.279 . S
C506 C504 1.353 . S
C506 C509 1.348 . S
C506 H538 0.929 . S
C507 C508 1.358 . S
C507 C509 1.356 . S
C507 H539 0.930 . S
C508 N505 1.279 . S
C508 C507 1.358 . S
C508 H511 0.930 . S
C509 C506 1.348 . S
C509 C507 1.356 . S
H510 C504 0.930 . S
H511 C508 0.930 . S
O512 Li452 1.956 . S
O512 Li453 1.970 . S
O512 Li454 1.961 . S
O512 C456 1.325 . S
O513 Li452 1.970 . S
O513 Li453 1.956 . S
O513 Li455 1.961 . S
O513 C462 1.325 . S
O514 Li452 1.961 . S
O514 Li454 1.956 . S
O514 Li455 1.970 . S
O514 C484 1.325 . S
O515 Li453 1.961 . S
O515 Li454 1.970 . S
O515 Li455 1.956 . S
O515 C490 1.325 . S
H516 C458 0.929 . S
H517 C459 0.930 . S
H518 C460 0.930 . S
H519 C461 0.930 . S
H520 C463 0.930 . S
H521 C465 0.929 . S
H522 C466 0.930 . S
H523 C467 0.930 . S
H524 C470 0.930 . S
H525 C473 0.929 . S
H526 C478 0.929 . S
H527 C479 0.930 . S
H528 C486 0.929 . S
H529 C487 0.930 . S
H530 C488 0.930 . S
H531 C489 0.930 . S
H532 C491 0.929 . S
H533 C492 0.930 . S
H534 C493 0.930 . S
H535 C494 0.930 . S
H536 C498 0.929 . S
H537 C500 0.930 . S
H538 C506 0.929 . S
H539 C507 0.930 . S
Li540 N557 1.990 . S
Li540 O600 1.956 . S
Li540 O601 1.970 . S
Li540 O602 1.961 . S
Li541 N565 1.990 . S
Li541 O600 1.970 . S
Li541 O601 1.956 . S
Li541 O603 1.961 . S
Li542 N587 1.990 . S
Li542 O600 1.961 . S
Li542 O602 1.956 . S
Li542 O603 1.970 . S
Li543 N593 1.990 . S
Li543 O601 1.961 . S
Li543 O602 1.970 . S
Li543 O603 1.956 . S
C544 C546 1.348 . S
C544 C547 1.356 . S
C544 O600 1.325 . S
N545 C548 1.314 . S
N545 C549 1.279 . S
C546 C544 1.348 . S
C546 C548 1.353 . S
C546 H604 0.929 . S
C547 C544 1.356 . S
C547 C549 1.358 . S
C547 H605 0.930 . S
C548 N545 1.314 . S
C548 C546 1.353 . S
C548 H606 0.930 . S
C549 N545 1.279 . S
C549 C547 1.358 . S
C549 H607 0.930 . S
C550 C553 1.348 . S
C550 C554 1.356 . S
C550 O601 1.325 . S
C551 N552 1.279 . S
C551 C554 1.358 . S
C551 H608 0.930 . S
N552 C551 1.279 . S
N552 C555 1.314 . S
C553 C550 1.348 . S
C553 C555 1.353 . S
C553 H609 0.929 . S
C554 C550 1.356 . S
C554 C551 1.358 . S
C554 H610 0.930 . S
C555 N552 1.314 . S
C555 C553 1.353 . S
C555 H611 0.930 . S
C556 N557 1.314 . S
C556 C561 1.353 . S
C556 H562 0.930 . S
N557 Li540 1.990 . S
N557 C556 1.314 . S
N557 C559 1.279 . S
C558 C559 1.358 . S
C558 C560 1.356 . S
C558 H612 0.937 . S
C559 N557 1.279 . S
C559 C558 1.358 . S
C559 H563 0.930 . S
C560 C558 1.356 . S
C560 C561 1.348 . S
C561 C556 1.353 . S
C561 C560 1.348 . S
C561 H613 0.929 . S
H562 C556 0.930 . S
H563 C559 0.930 . S
C564 N565 1.314 . S
C564 C566 1.353 . S
C564 H570 0.930 . S
N565 Li541 1.990 . S
N565 C564 1.314 . S
N565 C568 1.279 . S
C566 C564 1.353 . S
C566 C569 1.348 . S
C566 H614 0.929 . S
C567 C568 1.358 . S
C567 C569 1.356 . S
C567 H615 0.930 . S
C568 N565 1.279 . S
C568 C567 1.358 . S
C568 H571 0.930 . S
C569 C566 1.348 . S
C569 C567 1.356 . S
H570 C564 0.930 . S
H571 C568 0.930 . S
C572 C574 1.348 . S
C572 C575 1.356 . S
C572 O602 1.325 . S
N573 C576 1.314 . S
N573 C577 1.279 . S
C574 C572 1.348 . S
C574 C576 1.353 . S
C574 H616 0.929 . S
C575 C572 1.356 . S
C575 C577 1.358 . S
C575 H617 0.930 . S
C576 N573 1.314 . S
C576 C574 1.353 . S
C576 H618 0.930 . S
C577 N573 1.279 . S
C577 C575 1.358 . S
C577 H619 0.930 . S
C578 C579 1.348 . S
C578 C580 1.356 . S
C578 O603 1.325 . S
C579 C578 1.348 . S
C579 C581 1.353 . S
C579 H620 0.929 . S
C580 C578 1.356 . S
C580 C582 1.358 . S
C580 H621 0.930 . S
C581 C579 1.353 . S
C581 N583 1.314 . S
C581 H622 0.930 . S
C582 C580 1.358 . S
C582 N583 1.279 . S
C582 H623 0.930 . S
N583 C581 1.314 . S
N583 C582 1.279 . S
C584 C586 1.353 . S
C584 N587 1.314 . S
C584 H590 0.930 . S
C585 N587 1.279 . S
C585 C588 1.358 . S
C585 H591 0.930 . S
C586 C584 1.353 . S
C586 C589 1.348 . S
C586 H624 0.929 . S
N587 Li542 1.990 . S
N587 C584 1.314 . S
N587 C585 1.279 . S
C588 C585 1.358 . S
C588 C589 1.356 . S
C588 H625 0.930 . S
C589 C586 1.348 . S
C589 C588 1.356 . S
H590 C584 0.930 . S
H591 C585 0.930 . S
C592 N593 1.314 . S
C592 C594 1.353 . S
C592 H598 0.930 . S
N593 Li543 1.990 . S
N593 C592 1.314 . S
N593 C596 1.279 . S
C594 C592 1.353 . S
C594 C597 1.348 . S
C594 H626 0.929 . S
C595 C596 1.358 . S
C595 C597 1.356 . S
C595 H627 0.930 . S
C596 N593 1.279 . S
C596 C595 1.358 . S
C596 H599 0.930 . S
C597 C594 1.348 . S
C597 C595 1.356 . S
H598 C592 0.930 . S
H599 C596 0.930 . S
O600 Li540 1.956 . S
O600 Li541 1.970 . S
O600 Li542 1.961 . S
O600 C544 1.325 . S
O601 Li540 1.970 . S
O601 Li541 1.956 . S
O601 Li543 1.961 . S
O601 C550 1.325 . S
O602 Li540 1.961 . S
O602 Li542 1.956 . S
O602 Li543 1.970 . S
O602 C572 1.325 . S
O603 Li541 1.961 . S
O603 Li542 1.970 . S
O603 Li543 1.956 . S
O603 C578 1.325 . S
H604 C546 0.929 . S
H605 C547 0.930 . S
H606 C548 0.930 . S
H607 C549 0.930 . S
H608 C551 0.930 . S
H609 C553 0.929 . S
H610 C554 0.930 . S
H611 C555 0.930 . S
H612 C558 0.937 . S
H613 C561 0.929 . S
H614 C566 0.929 . S
H615 C567 0.930 . S
H616 C574 0.929 . S
H617 C575 0.930 . S
H618 C576 0.930 . S
H619 C577 0.930 . S
H620 C579 0.929 . S
H621 C580 0.930 . S
H622 C581 0.930 . S
H623 C582 0.930 . S
H624 C586 0.929 . S
H625 C588 0.930 . S
H626 C594 0.929 . S
H627 C595 0.930 . S
Li628 N645 1.990 . S
Li628 O688 1.956 . S
Li628 O689 1.970 . S
Li628 O690 1.961 . S
Li629 N653 1.990 . S
Li629 O688 1.970 . S
Li629 O689 1.956 . S
Li629 O691 1.961 . S
Li630 N675 1.990 . S
Li630 O688 1.961 . S
Li630 O690 1.956 . S
Li630 O691 1.970 . S
Li631 N681 1.990 . S
Li631 O689 1.961 . S
Li631 O690 1.970 . S
Li631 O691 1.956 . S
C632 C634 1.348 . S
C632 C635 1.356 . S
C632 O688 1.325 . S
N633 C636 1.314 . S
N633 C637 1.279 . S
C634 C632 1.348 . S
C634 C636 1.353 . S
C634 H692 0.929 . S
C635 C632 1.356 . S
C635 C637 1.358 . S
C635 H693 0.930 . S
C636 N633 1.314 . S
C636 C634 1.353 . S
C636 H694 0.930 . S
C637 N633 1.279 . S
C637 C635 1.358 . S
C637 H695 0.930 . S
C638 C641 1.348 . S
C638 C642 1.356 . S
C638 O689 1.325 . S
C639 N640 1.279 . S
C639 C642 1.358 . S
C639 H696 0.930 . S
N640 C639 1.279 . S
N640 C643 1.314 . S
C641 C638 1.348 . S
C641 C643 1.353 . S
C641 H697 0.929 . S
C642 C638 1.356 . S
C642 C639 1.358 . S
C642 H698 0.930 . S
C643 N640 1.314 . S
C643 C641 1.353 . S
C643 H699 0.930 . S
C644 N645 1.314 . S
C644 C649 1.353 . S
C644 H650 0.930 . S
N645 Li628 1.990 . S
N645 C644 1.314 . S
N645 C647 1.279 . S
C646 C647 1.358 . S
C646 C648 1.356 . S
C646 H700 0.930 . S
C647 N645 1.279 . S
C647 C646 1.358 . S
C647 H651 0.930 . S
C648 C646 1.356 . S
C648 C649 1.348 . S
C649 C644 1.353 . S
C649 C648 1.348 . S
C649 H701 0.929 . S
H650 C644 0.930 . S
H651 C647 0.930 . S
C652 N653 1.314 . S
C652 C654 1.353 . S
C652 H658 0.930 . S
N653 Li629 1.990 . S
N653 C652 1.314 . S
N653 C656 1.279 . S
C654 C652 1.353 . S
C654 C657 1.348 . S
C654 H702 0.929 . S
C655 C656 1.358 . S
C655 C657 1.356 . S
C655 H703 0.930 . S
C656 N653 1.279 . S
C656 C655 1.358 . S
C656 H659 0.930 . S
C657 C654 1.348 . S
C657 C655 1.356 . S
H658 C652 0.930 . S
H659 C656 0.930 . S
C660 C662 1.348 . S
C660 C663 1.356 . S
C660 O690 1.325 . S
N661 C664 1.314 . S
N661 C665 1.279 . S
C662 C660 1.348 . S
C662 C664 1.353 . S
C662 H704 0.929 . S
C663 C660 1.356 . S
C663 C665 1.358 . S
C663 H705 0.930 . S
C664 N661 1.314 . S
C664 C662 1.353 . S
C664 H706 0.930 . S
C665 N661 1.279 . S
C665 C663 1.358 . S
C665 H707 0.930 . S
C666 C667 1.348 . S
C666 C668 1.356 . S
C666 O691 1.325 . S
C667 C666 1.348 . S
C667 C669 1.353 . S
C667 H708 0.929 . S
C668 C666 1.356 . S
C668 C670 1.358 . S
C668 H709 0.930 . S
C669 C667 1.353 . S
C669 N671 1.314 . S
C669 H710 0.930 . S
C670 C668 1.358 . S
C670 N671 1.279 . S
C670 H711 0.930 . S
N671 C669 1.314 . S
N671 C670 1.279 . S
C672 C674 1.353 . S
C672 N675 1.314 . S
C672 H678 0.930 . S
C673 N675 1.279 . S
C673 C676 1.358 . S
C673 H679 0.930 . S
C674 C672 1.353 . S
C674 C677 1.348 . S
C674 H712 0.929 . S
N675 Li630 1.990 . S
N675 C672 1.314 . S
N675 C673 1.279 . S
C676 C673 1.358 . S
C676 C677 1.356 . S
C676 H713 0.930 1_554 S
C677 C674 1.348 . S
C677 C676 1.356 . S
H678 C672 0.930 . S
H679 C673 0.930 . S
C680 N681 1.314 . S
C680 C682 1.353 . S
C680 H686 0.930 . S
N681 Li631 1.990 . S
N681 C680 1.314 . S
N681 C684 1.279 . S
C682 C680 1.353 . S
C682 C685 1.348 . S
C682 H714 0.929 . S
C683 C684 1.358 . S
C683 C685 1.356 . S
C683 H715 0.930 . S
C684 N681 1.279 . S
C684 C683 1.358 . S
C684 H687 0.930 . S
C685 C682 1.348 . S
C685 C683 1.356 . S
H686 C680 0.930 . S
H687 C684 0.930 . S
O688 Li628 1.956 . S
O688 Li629 1.970 . S
O688 Li630 1.961 . S
O688 C632 1.325 . S
O689 Li628 1.970 . S
O689 Li629 1.956 . S
O689 Li631 1.961 . S
O689 C638 1.325 . S
O690 Li628 1.961 . S
O690 Li630 1.956 . S
O690 Li631 1.970 . S
O690 C660 1.325 . S
O691 Li629 1.961 . S
O691 Li630 1.970 . S
O691 Li631 1.956 . S
O691 C666 1.325 . S
H692 C634 0.929 . S
H693 C635 0.930 . S
H694 C636 0.930 . S
H695 C637 0.930 . S
H696 C639 0.930 . S
H697 C641 0.929 . S
H698 C642 0.930 . S
H699 C643 0.930 . S
H700 C646 0.930 . S
H701 C649 0.929 . S
H702 C654 0.929 . S
H703 C655 0.930 . S
H704 C662 0.929 . S
H705 C663 0.930 . S
H706 C664 0.930 . S
H707 C665 0.930 . S
H708 C667 0.929 . S
H709 C668 0.930 . S
H710 C669 0.930 . S
H711 C670 0.930 . S
H712 C674 0.929 . S
H713 C676 0.930 1_556 S
H714 C682 0.929 . S
H715 C683 0.930 . S
Li716 N733 1.990 . S
Li716 O776 1.956 . S
Li716 O777 1.970 . S
Li716 O778 1.961 . S
Li717 N741 1.990 . S
Li717 O776 1.970 . S
Li717 O777 1.956 . S
Li717 O779 1.961 . S
Li718 N763 1.990 . S
Li718 O776 1.961 . S
Li718 O778 1.956 . S
Li718 O779 1.970 . S
Li719 N769 1.990 . S
Li719 O777 1.961 . S
Li719 O778 1.970 . S
Li719 O779 1.956 . S
C720 C722 1.348 . S
C720 C723 1.356 . S
C720 O776 1.325 . S
N721 C724 1.314 . S
N721 C725 1.279 . S
C722 C720 1.348 . S
C722 C724 1.353 . S
C722 H780 0.929 . S
C723 C720 1.356 . S
C723 C725 1.358 . S
C723 H781 0.930 . S
C724 N721 1.314 . S
C724 C722 1.353 . S
C724 H782 0.930 . S
C725 N721 1.279 . S
C725 C723 1.358 . S
C725 H783 0.930 . S
C726 C729 1.348 . S
C726 C730 1.356 . S
C726 O777 1.325 . S
C727 N728 1.279 . S
C727 C730 1.358 . S
C727 H784 0.930 . S
N728 C727 1.279 . S
N728 C731 1.314 . S
C729 C726 1.348 . S
C729 C731 1.353 . S
C729 H785 0.929 . S
C730 C726 1.356 . S
C730 C727 1.358 . S
C730 H786 0.930 . S
C731 N728 1.314 . S
C731 C729 1.353 . S
C731 H787 0.930 . S
C732 N733 1.314 . S
C732 C737 1.353 . S
C732 H738 0.930 . S
N733 Li716 1.990 . S
N733 C732 1.314 . S
N733 C735 1.279 . S
C734 C735 1.358 . S
C734 C736 1.356 . S
C734 H788 0.930 . S
C735 N733 1.279 . S
C735 C734 1.358 . S
C735 H739 0.930 . S
C736 C734 1.356 . S
C736 C737 1.348 . S
C737 C732 1.353 . S
C737 C736 1.348 . S
C737 H789 0.929 . S
H738 C732 0.930 . S
H739 C735 0.930 . S
C740 N741 1.314 . S
C740 C742 1.353 . S
C740 H746 0.930 . S
N741 Li717 1.990 . S
N741 C740 1.314 . S
N741 C744 1.279 . S
C742 C740 1.353 . S
C742 C745 1.348 . S
C742 H790 0.929 . S
C743 C744 1.358 . S
C743 C745 1.356 . S
C743 H791 0.930 . S
C744 N741 1.279 . S
C744 C743 1.358 . S
C744 H747 0.930 . S
C745 C742 1.348 . S
C745 C743 1.356 . S
H746 C740 0.930 . S
H747 C744 0.930 . S
C748 C750 1.348 . S
C748 C751 1.356 . S
C748 O778 1.325 . S
N749 C752 1.314 . S
N749 C753 1.279 . S
C750 C748 1.348 . S
C750 C752 1.353 . S
C750 H792 0.929 . S
C751 C748 1.356 . S
C751 C753 1.358 . S
C751 H793 0.930 . S
C752 N749 1.314 . S
C752 C750 1.353 . S
C752 H794 0.930 . S
C753 N749 1.279 . S
C753 C751 1.358 . S
C753 H795 0.930 . S
C754 C755 1.348 . S
C754 C756 1.356 . S
C754 O779 1.325 . S
C755 C754 1.348 . S
C755 C757 1.353 . S
C755 H796 0.929 . S
C756 C754 1.356 . S
C756 C758 1.358 . S
C756 H797 0.930 . S
C757 C755 1.353 . S
C757 N759 1.314 . S
C757 H798 0.930 . S
C758 C756 1.358 . S
C758 N759 1.279 . S
C758 H799 0.930 . S
N759 C757 1.314 . S
N759 C758 1.279 . S
C760 C762 1.353 . S
C760 N763 1.314 . S
C760 H766 0.930 . S
C761 N763 1.279 . S
C761 C764 1.358 . S
C761 H767 0.930 . S
C762 C760 1.353 . S
C762 C765 1.348 . S
C762 H800 0.929 . S
N763 Li718 1.990 . S
N763 C760 1.314 . S
N763 C761 1.279 . S
C764 C761 1.358 . S
C764 C765 1.356 . S
C764 H801 0.930 . S
C765 C762 1.348 . S
C765 C764 1.356 . S
H766 C760 0.930 . S
H767 C761 0.930 . S
C768 N769 1.314 . S
C768 C770 1.353 . S
C768 H774 0.930 . S
N769 Li719 1.990 . S
N769 C768 1.314 . S
N769 C772 1.279 . S
C770 C768 1.353 . S
C770 C773 1.348 . S
C770 H802 0.929 . S
C771 C772 1.358 . S
C771 C773 1.356 . S
C771 H803 0.930 . S
C772 N769 1.279 . S
C772 C771 1.358 . S
C772 H775 0.930 . S
C773 C770 1.348 . S
C773 C771 1.356 . S
H774 C768 0.930 . S
H775 C772 0.930 . S
O776 Li716 1.956 . S
O776 Li717 1.970 . S
O776 Li718 1.961 . S
O776 C720 1.325 . S
O777 Li716 1.970 . S
O777 Li717 1.956 . S
O777 Li719 1.961 . S
O777 C726 1.325 . S
O778 Li716 1.961 . S
O778 Li718 1.956 . S
O778 Li719 1.970 . S
O778 C748 1.325 . S
O779 Li717 1.961 . S
O779 Li718 1.970 . S
O779 Li719 1.956 . S
O779 C754 1.325 . S
H780 C722 0.929 . S
H781 C723 0.930 . S
H782 C724 0.930 . S
H783 C725 0.930 . S
H784 C727 0.930 . S
H785 C729 0.929 . S
H786 C730 0.930 . S
H787 C731 0.930 . S
H788 C734 0.930 . S
H789 C737 0.929 . S
H790 C742 0.929 . S
H791 C743 0.930 . S
H792 C750 0.929 . S
H793 C751 0.930 . S
H794 C752 0.930 . S
H795 C753 0.930 . S
H796 C755 0.929 . S
H797 C756 0.930 . S
H798 C757 0.930 . S
H799 C758 0.930 . S
H800 C762 0.929 . S
H801 C764 0.930 . S
H802 C770 0.929 . S
H803 C771 0.930 . S
H804 C810 0.930 . S
H805 C814 0.930 . S
H806 C819 0.929 . S
H807 C817 0.929 . S
H808 C812 0.929 . S
H809 C818 0.929 . S
C810 H804 0.930 . S
C810 C811 1.367 . S
C810 C818 1.378 . S
C811 C810 1.367 . S
C811 C819 1.433 . S
C812 H808 0.929 . S
C812 C814 1.378 . S
C812 C816 1.350 . S
C813 C816 1.463 . S
C813 C818 1.350 . S
C813 N821 1.427 . S
C814 H805 0.930 . S
C814 C812 1.378 . S
C814 C815 1.367 . S
C815 C814 1.367 . S
C815 C817 1.433 . S
C816 C812 1.350 . S
C816 C813 1.463 . S
C816 N820 1.427 . S
C817 H807 0.929 . S
C817 C815 1.433 . S
C817 N820 1.384 . S
C818 H809 0.929 . S
C818 C810 1.378 . S
C818 C813 1.350 . S
C819 H806 0.929 . S
C819 C811 1.433 . S
C819 N821 1.384 . S
N820 C816 1.427 . S
N820 C817 1.384 . S
N821 C813 1.427 . S
N821 C819 1.384 . S
H822 C828 0.930 . S
H823 C832 0.930 . S
H824 C837 0.929 . S
H825 C835 0.929 . S
H826 C830 0.929 . S
H827 C836 0.929 . S
C828 H822 0.930 . S
C828 C829 1.367 . S
C828 C836 1.378 . S
C829 C828 1.367 . S
C829 C837 1.433 . S
C830 H826 0.929 . S
C830 C832 1.378 . S
C830 C834 1.350 . S
C831 C834 1.463 . S
C831 C836 1.350 . S
C831 N839 1.427 . S
C832 H823 0.930 . S
C832 C830 1.378 . S
C832 C833 1.367 . S
C833 C832 1.367 . S
C833 C835 1.433 . S
C834 C830 1.350 . S
C834 C831 1.463 . S
C834 N838 1.427 . S
C835 H825 0.929 . S
C835 C833 1.433 . S
C835 N838 1.384 . S
C836 H827 0.929 . S
C836 C828 1.378 . S
C836 C831 1.350 . S
C837 H824 0.929 . S
C837 C829 1.433 . S
C837 N839 1.384 . S
N838 C834 1.427 . S
N838 C835 1.384 . S
N839 C831 1.427 . S
N839 C837 1.384 . S
H840 C846 0.930 . S
H841 C850 0.930 . S
H842 C855 0.929 . S
H843 C853 0.929 . S
H844 C848 0.929 . S
H845 C854 0.929 . S
C846 H840 0.930 . S
C846 C847 1.367 . S
C846 C854 1.378 . S
C847 C846 1.367 . S
C847 C855 1.433 . S
C848 H844 0.929 . S
C848 C850 1.378 . S
C848 C852 1.350 . S
C849 C852 1.463 . S
C849 C854 1.350 . S
C849 N857 1.427 . S
C850 H841 0.930 . S
C850 C848 1.378 . S
C850 C851 1.367 . S
C851 C850 1.367 . S
C851 C853 1.433 . S
C852 C848 1.350 . S
C852 C849 1.463 . S
C852 N856 1.427 . S
C853 H843 0.929 . S
C853 C851 1.433 . S
C853 N856 1.384 . S
C854 H845 0.929 . S
C854 C846 1.378 . S
C854 C849 1.350 . S
C855 H842 0.929 . S
C855 C847 1.433 . S
C855 N857 1.384 . S
N856 C852 1.427 . S
N856 C853 1.384 . S
N857 C849 1.427 . S
N857 C855 1.384 . S
H858 C864 0.930 . S
H859 C868 0.930 . S
H860 C873 0.929 . S
H861 C871 0.929 . S
H862 C866 0.929 . S
H863 C872 0.929 . S
C864 H858 0.930 . S
C864 C865 1.367 . S
C864 C872 1.378 . S
C865 C864 1.367 . S
C865 C873 1.433 . S
C866 H862 0.929 . S
C866 C868 1.378 . S
C866 C870 1.350 . S
C867 C870 1.463 . S
C867 C872 1.350 . S
C867 N875 1.427 . S
C868 H859 0.930 . S
C868 C866 1.378 . S
C868 C869 1.367 . S
C869 C868 1.367 . S
C869 C871 1.433 . S
C870 C866 1.350 . S
C870 C867 1.463 . S
C870 N874 1.427 . S
C871 H861 0.929 . S
C871 C869 1.433 . S
C871 N874 1.384 . S
C872 H863 0.929 . S
C872 C864 1.378 . S
C872 C867 1.350 . S
C873 H860 0.929 . S
C873 C865 1.433 . S
C873 N875 1.384 . S
N874 C870 1.427 . S
N874 C871 1.384 . S
N875 C867 1.427 . S
N875 C873 1.384 . S
H876 C882 0.930 . S
H877 C886 0.930 . S
H878 C891 0.929 . S
H879 C889 0.929 . S
H880 C884 0.929 . S
H881 C890 0.929 . S
C882 H876 0.930 . S
C882 C883 1.367 . S
C882 C890 1.378 . S
C883 C882 1.367 . S
C883 C891 1.433 . S
C884 H880 0.929 . S
C884 C886 1.378 . S
C884 C888 1.350 . S
C885 C888 1.463 . S
C885 C890 1.350 . S
C885 N893 1.427 . S
C886 H877 0.930 . S
C886 C884 1.378 . S
C886 C887 1.367 . S
C887 C886 1.367 . S
C887 C889 1.433 . S
C888 C884 1.350 . S
C888 C885 1.463 . S
C888 N892 1.427 . S
C889 H879 0.929 . S
C889 C887 1.433 . S
C889 N892 1.384 . S
C890 H881 0.929 . S
C890 C882 1.378 . S
C890 C885 1.350 . S
C891 H878 0.929 . S
C891 C883 1.433 . S
C891 N893 1.384 . S
N892 C888 1.427 . S
N892 C889 1.384 . S
N893 C885 1.427 . S
N893 C891 1.384 . S
H894 C900 0.930 . S
H895 C904 0.930 . S
H896 C909 0.929 . S
H897 C907 0.929 . S
H898 C902 0.929 . S
H899 C908 0.929 . S
C900 H894 0.930 . S
C900 C901 1.367 . S
C900 C908 1.378 . S
C901 C900 1.367 . S
C901 C909 1.433 . S
C902 H898 0.929 . S
C902 C904 1.378 . S
C902 C906 1.350 . S
C903 C906 1.463 . S
C903 C908 1.350 . S
C903 N911 1.427 . S
C904 H895 0.930 . S
C904 C902 1.378 . S
C904 C905 1.367 . S
C905 C904 1.367 . S
C905 C907 1.433 . S
C906 C902 1.350 . S
C906 C903 1.463 . S
C906 N910 1.427 . S
C907 H897 0.929 . S
C907 C905 1.433 . S
C907 N910 1.384 . S
C908 H899 0.929 . S
C908 C900 1.378 . S
C908 C903 1.350 . S
C909 H896 0.929 . S
C909 C901 1.433 . S
C909 N911 1.384 . S
N910 C906 1.427 . S
N910 C907 1.384 . S
N911 C903 1.427 . S
N911 C909 1.384 . S
H912 C918 0.930 . S
H913 C922 0.930 . S
H914 C927 0.929 . S
H915 C925 0.929 . S
H916 C920 0.929 . S
H917 C926 0.929 . S
C918 H912 0.930 . S
C918 C919 1.367 . S
C918 C926 1.378 . S
C919 C918 1.367 . S
C919 C927 1.433 . S
C920 H916 0.929 . S
C920 C922 1.378 . S
C920 C924 1.350 . S
C921 C924 1.463 . S
C921 C926 1.350 . S
C921 N929 1.427 . S
C922 H913 0.930 . S
C922 C920 1.378 . S
C922 C923 1.367 . S
C923 C922 1.367 . S
C923 C925 1.433 . S
C924 C920 1.350 . S
C924 C921 1.463 . S
C924 N928 1.427 . S
C925 H915 0.929 . S
C925 C923 1.433 . S
C925 N928 1.384 . S
C926 H917 0.929 . S
C926 C918 1.378 . S
C926 C921 1.350 . S
C927 H914 0.929 . S
C927 C919 1.433 . S
C927 N929 1.384 . S
N928 C924 1.427 . S
N928 C925 1.384 . S
N929 C921 1.427 . S
N929 C927 1.384 . S
H930 C936 0.930 . S
H931 C940 0.930 . S
H932 C945 0.929 . S
H933 C943 0.929 . S
H934 C938 0.929 . S
H935 C944 0.929 . S
C936 H930 0.930 . S
C936 C937 1.367 . S
C936 C944 1.378 . S
C937 C936 1.367 . S
C937 C945 1.433 . S
C938 H934 0.929 . S
C938 C940 1.378 . S
C938 C942 1.350 . S
C939 C942 1.463 . S
C939 C944 1.350 . S
C939 N947 1.427 . S
C940 H931 0.930 . S
C940 C938 1.378 . S
C940 C941 1.367 . S
C941 C940 1.367 . S
C941 C943 1.433 . S
C942 C938 1.350 . S
C942 C939 1.463 . S
C942 N946 1.427 . S
C943 H933 0.929 . S
C943 C941 1.433 . S
C943 N946 1.384 . S
C944 H935 0.929 . S
C944 C936 1.378 . S
C944 C939 1.350 . S
C945 H932 0.929 . S
C945 C937 1.433 . S
C945 N947 1.384 . S
N946 C942 1.427 . S
N946 C943 1.384 . S
N947 C939 1.427 . S
N947 C945 1.384 . S
H948 C954 0.930 . S
H949 C958 0.930 . S
H950 C963 0.929 . S
H951 C961 0.929 . S
H952 C956 0.929 . S
H953 C962 0.929 . S
C954 H948 0.930 . S
C954 C955 1.367 . S
C954 C962 1.378 . S
C955 C954 1.367 . S
C955 C963 1.433 . S
C956 H952 0.929 . S
C956 C958 1.378 . S
C956 C960 1.350 . S
C957 C960 1.463 . S
C957 C962 1.350 . S
C957 N965 1.427 . S
C958 H949 0.930 . S
C958 C956 1.378 . S
C958 C959 1.367 . S
C959 C958 1.367 . S
C959 C961 1.433 . S
C960 C956 1.350 . S
C960 C957 1.463 . S
C960 N964 1.427 . S
C961 H951 0.929 . S
C961 C959 1.433 . S
C961 N964 1.384 . S
C962 H953 0.929 . S
C962 C954 1.378 . S
C962 C957 1.350 . S
C963 H950 0.929 . S
C963 C955 1.433 . S
C963 N965 1.384 . S
N964 C960 1.427 . S
N964 C961 1.384 . S
N965 C957 1.427 . S
N965 C963 1.384 . S
H966 C972 0.930 . S
H967 C976 0.930 . S
H968 C981 0.929 . S
H969 C979 0.929 . S
H970 C974 0.929 . S
H971 C980 0.929 . S
C972 H966 0.930 . S
C972 C973 1.367 . S
C972 C980 1.378 . S
C973 C972 1.367 . S
C973 C981 1.433 . S
C974 H970 0.929 . S
C974 C976 1.378 . S
C974 C978 1.350 . S
C975 C978 1.463 . S
C975 C980 1.350 . S
C975 N983 1.427 . S
C976 H967 0.930 . S
C976 C974 1.378 . S
C976 C977 1.367 . S
C977 C976 1.367 . S
C977 C979 1.433 . S
C978 C974 1.350 . S
C978 C975 1.463 . S
C978 N982 1.427 . S
C979 H969 0.929 . S
C979 C977 1.433 . S
C979 N982 1.384 . S
C980 H971 0.929 . S
C980 C972 1.378 . S
C980 C975 1.350 . S
C981 H968 0.929 . S
C981 C973 1.433 . S
C981 N983 1.384 . S
N982 C978 1.427 . S
N982 C979 1.384 . S
N983 C975 1.427 . S
N983 C981 1.384 . S
H984 C990 0.930 . S
H985 C994 0.930 . S
H986 C999 0.929 . S
H987 C997 0.929 . S
H988 C992 0.929 . S
H989 C998 0.929 . S
C990 H984 0.930 . S
C990 C991 1.367 . S
C990 C998 1.378 . S
C991 C990 1.367 . S
C991 C999 1.433 . S
C992 H988 0.929 . S
C992 C994 1.378 . S
C992 C996 1.350 . S
C993 C996 1.463 . S
C993 C998 1.350 . S
C993 N1001 1.427 . S
C994 H985 0.930 . S
C994 C992 1.378 . S
C994 C995 1.367 . S
C995 C994 1.367 . S
C995 C997 1.433 . S
C996 C992 1.350 . S
C996 C993 1.463 . S
C996 N1000 1.427 . S
C997 H987 0.929 . S
C997 C995 1.433 . S
C997 N1000 1.384 . S
C998 H989 0.929 . S
C998 C990 1.378 . S
C998 C993 1.350 . S
C999 H986 0.929 . S
C999 C991 1.433 . S
C999 N1001 1.384 . S
N1000 C996 1.427 . S
N1000 C997 1.384 . S
N1001 C993 1.427 . S
N1001 C999 1.384 . S
H1002 C1008 0.930 . S
H1003 C1012 0.930 . S
H1004 C1017 0.929 . S
H1005 C1015 0.929 . S
H1006 C1010 0.929 . S
H1007 C1016 0.929 . S
C1008 H1002 0.930 . S
C1008 C1009 1.367 . S
C1008 C1016 1.378 . S
C1009 C1008 1.367 . S
C1009 C1017 1.433 . S
C1010 H1006 0.929 . S
C1010 C1012 1.378 . S
C1010 C1014 1.350 . S
C1011 C1014 1.463 . S
C1011 C1016 1.350 . S
C1011 N1019 1.427 . S
C1012 H1003 0.930 . S
C1012 C1010 1.378 . S
C1012 C1013 1.367 . S
C1013 C1012 1.367 . S
C1013 C1015 1.433 . S
C1014 C1010 1.350 . S
C1014 C1011 1.463 . S
C1014 N1018 1.427 . S
C1015 H1005 0.929 . S
C1015 C1013 1.433 . S
C1015 N1018 1.384 . S
C1016 H1007 0.929 . S
C1016 C1008 1.378 . S
C1016 C1011 1.350 . S
C1017 H1004 0.929 . S
C1017 C1009 1.433 . S
C1017 N1019 1.384 . S
N1018 C1014 1.427 . S
N1018 C1015 1.384 . S
N1019 C1011 1.427 . S
N1019 C1017 1.384 . S
H1020 C1026 0.930 . S
H1021 C1030 0.930 . S
H1022 C1035 0.929 . S
H1023 C1033 0.929 . S
H1024 C1028 0.929 . S
H1025 C1034 0.929 . S
C1026 H1020 0.930 . S
C1026 C1027 1.367 . S
C1026 C1034 1.378 . S
C1027 C1026 1.367 . S
C1027 C1035 1.433 . S
C1028 H1024 0.929 . S
C1028 C1030 1.378 . S
C1028 C1032 1.350 . S
C1029 C1032 1.463 . S
C1029 C1034 1.350 . S
C1029 N1037 1.427 . S
C1030 H1021 0.930 . S
C1030 C1028 1.378 . S
C1030 C1031 1.367 . S
C1031 C1030 1.367 . S
C1031 C1033 1.433 . S
C1032 C1028 1.350 . S
C1032 C1029 1.463 . S
C1032 N1036 1.427 . S
C1033 H1023 0.929 . S
C1033 C1031 1.433 . S
C1033 N1036 1.384 . S
C1034 H1025 0.929 . S
C1034 C1026 1.378 . S
C1034 C1029 1.350 . S
C1035 H1022 0.929 . S
C1035 C1027 1.433 . S
C1035 N1037 1.384 . S
N1036 C1032 1.427 . S
N1036 C1033 1.384 . S
N1037 C1029 1.427 . S
N1037 C1035 1.384 . S
H1038 C1044 0.930 . S
H1039 C1048 0.930 . S
H1040 C1053 0.929 . S
H1041 C1051 0.929 . S
H1042 C1046 0.929 . S
H1043 C1052 0.929 . S
C1044 H1038 0.930 . S
C1044 C1045 1.367 . S
C1044 C1052 1.378 . S
C1045 C1044 1.367 . S
C1045 C1053 1.433 . S
C1046 H1042 0.929 . S
C1046 C1048 1.378 . S
C1046 C1050 1.350 . S
C1047 C1050 1.463 . S
C1047 C1052 1.350 . S
C1047 N1055 1.427 . S
C1048 H1039 0.930 . S
C1048 C1046 1.378 . S
C1048 C1049 1.367 . S
C1049 C1048 1.367 . S
C1049 C1051 1.433 . S
C1050 C1046 1.350 . S
C1050 C1047 1.463 . S
C1050 N1054 1.427 . S
C1051 H1041 0.929 . S
C1051 C1049 1.433 . S
C1051 N1054 1.384 . S
C1052 H1043 0.929 . S
C1052 C1044 1.378 . S
C1052 C1047 1.350 . S
C1053 H1040 0.929 . S
C1053 C1045 1.433 . S
C1053 N1055 1.384 . S
N1054 C1050 1.427 . S
N1054 C1051 1.384 . S
N1055 C1047 1.427 . S
N1055 C1053 1.384 . S
H1056 C1062 0.930 . S
H1057 C1066 0.930 . S
H1058 C1071 0.929 . S
H1059 C1069 0.929 . S
H1060 C1064 0.929 . S
H1061 C1070 0.929 . S
C1062 H1056 0.930 . S
C1062 C1063 1.367 . S
C1062 C1070 1.378 . S
C1063 C1062 1.367 . S
C1063 C1071 1.433 . S
C1064 H1060 0.929 . S
C1064 C1066 1.378 . S
C1064 C1068 1.350 . S
C1065 C1068 1.463 . S
C1065 C1070 1.350 . S
C1065 N1073 1.427 . S
C1066 H1057 0.930 . S
C1066 C1064 1.378 . S
C1066 C1067 1.367 . S
C1067 C1066 1.367 . S
C1067 C1069 1.433 . S
C1068 C1064 1.350 . S
C1068 C1065 1.463 . S
C1068 N1072 1.427 . S
C1069 H1059 0.929 . S
C1069 C1067 1.433 . S
C1069 N1072 1.384 . S
C1070 H1061 0.929 . S
C1070 C1062 1.378 . S
C1070 C1065 1.350 . S
C1071 H1058 0.929 . S
C1071 C1063 1.433 . S
C1071 N1073 1.384 . S
N1072 C1068 1.427 . S
N1072 C1069 1.384 . S
N1073 C1065 1.427 . S
N1073 C1071 1.384 . S
H1074 C1080 0.930 . S
H1075 C1084 0.930 . S
H1076 C1089 0.929 . S
H1077 C1087 0.929 . S
H1078 C1082 0.929 . S
H1079 C1088 0.929 . S
C1080 H1074 0.930 . S
C1080 C1081 1.367 . S
C1080 C1088 1.378 . S
C1081 C1080 1.367 . S
C1081 C1089 1.433 . S
C1082 H1078 0.929 . S
C1082 C1084 1.378 . S
C1082 C1086 1.350 . S
C1083 C1086 1.463 . S
C1083 C1088 1.350 . S
C1083 N1091 1.427 . S
C1084 H1075 0.930 . S
C1084 C1082 1.378 . S
C1084 C1085 1.367 . S
C1085 C1084 1.367 . S
C1085 C1087 1.433 . S
C1086 C1082 1.350 . S
C1086 C1083 1.463 . S
C1086 N1090 1.427 . S
C1087 H1077 0.929 . S
C1087 C1085 1.433 . S
C1087 N1090 1.384 . S
C1088 H1079 0.929 . S
C1088 C1080 1.378 . S
C1088 C1083 1.350 . S
C1089 H1076 0.929 . S
C1089 C1081 1.433 . S
C1089 N1091 1.384 . S
N1090 C1086 1.427 . S
N1090 C1087 1.384 . S
N1091 C1083 1.427 . S
N1091 C1089 1.384 . S
H1092 C1098 0.930 . S
H1093 C1102 0.930 . S
H1094 C1107 0.929 . S
H1095 C1105 0.929 . S
H1096 C1100 0.929 . S
H1097 C1106 0.929 . S
C1098 H1092 0.930 . S
C1098 C1099 1.367 . S
C1098 C1106 1.378 . S
C1099 C1098 1.367 . S
C1099 C1107 1.433 . S
C1100 H1096 0.929 . S
C1100 C1102 1.378 . S
C1100 C1104 1.350 . S
C1101 C1104 1.463 . S
C1101 C1106 1.350 . S
C1101 N1109 1.427 . S
C1102 H1093 0.930 . S
C1102 C1100 1.378 . S
C1102 C1103 1.367 . S
C1103 C1102 1.367 . S
C1103 C1105 1.433 . S
C1104 C1100 1.350 . S
C1104 C1101 1.463 . S
C1104 N1108 1.427 . S
C1105 H1095 0.929 . S
C1105 C1103 1.433 . S
C1105 N1108 1.384 . S
C1106 H1097 0.929 . S
C1106 C1098 1.378 . S
C1106 C1101 1.350 . S
C1107 H1094 0.929 . S
C1107 C1099 1.433 . S
C1107 N1109 1.384 . S
N1108 C1104 1.427 . S
N1108 C1105 1.384 . S
N1109 C1101 1.427 . S
N1109 C1107 1.384 . S
H1110 C1116 0.930 . S
H1111 C1120 0.930 . S
H1112 C1125 0.929 . S
H1113 C1123 0.929 . S
H1114 C1118 0.929 . S
H1115 C1124 0.929 . S
C1116 H1110 0.930 . S
C1116 C1117 1.367 . S
C1116 C1124 1.378 . S
C1117 C1116 1.367 . S
C1117 C1125 1.433 . S
C1118 H1114 0.929 . S
C1118 C1120 1.378 . S
C1118 C1122 1.350 . S
C1119 C1122 1.463 . S
C1119 C1124 1.350 . S
C1119 N1127 1.427 . S
C1120 H1111 0.930 . S
C1120 C1118 1.378 . S
C1120 C1121 1.367 . S
C1121 C1120 1.367 . S
C1121 C1123 1.433 . S
C1122 C1118 1.350 . S
C1122 C1119 1.463 . S
C1122 N1126 1.427 . S
C1123 H1113 0.929 . S
C1123 C1121 1.433 . S
C1123 N1126 1.384 . S
C1124 H1115 0.929 . S
C1124 C1116 1.378 . S
C1124 C1119 1.350 . S
C1125 H1112 0.929 . S
C1125 C1117 1.433 . S
C1125 N1127 1.384 . S
N1126 C1122 1.427 . S
N1126 C1123 1.384 . S
N1127 C1119 1.427 . S
N1127 C1125 1.384 . S
H1128 C1134 0.930 . S
H1129 C1138 0.930 . S
H1130 C1143 0.929 . S
H1131 C1141 0.929 . S
H1132 C1136 0.929 . S
H1133 C1142 0.929 . S
C1134 H1128 0.930 . S
C1134 C1135 1.367 . S
C1134 C1142 1.378 . S
C1135 C1134 1.367 . S
C1135 C1143 1.433 . S
C1136 H1132 0.929 . S
C1136 C1138 1.378 . S
C1136 C1140 1.350 . S
C1137 C1140 1.463 . S
C1137 C1142 1.350 . S
C1137 N1145 1.427 . S
C1138 H1129 0.930 . S
C1138 C1136 1.378 . S
C1138 C1139 1.367 . S
C1139 C1138 1.367 . S
C1139 C1141 1.433 . S
C1140 C1136 1.350 . S
C1140 C1137 1.463 . S
C1140 N1144 1.427 . S
C1141 H1131 0.929 . S
C1141 C1139 1.433 . S
C1141 N1144 1.384 . S
C1142 H1133 0.929 . S
C1142 C1134 1.378 . S
C1142 C1137 1.350 . S
C1143 H1130 0.929 . S
C1143 C1135 1.433 . S
C1143 N1145 1.384 . S
N1144 C1140 1.427 . S
N1144 C1141 1.384 . S
N1145 C1137 1.427 . S
N1145 C1143 1.384 . S
H1146 C1152 0.930 . S
H1147 C1156 0.930 . S
H1148 C1161 0.929 . S
H1149 C1159 0.929 . S
H1150 C1154 0.929 . S
H1151 C1160 0.929 . S
C1152 H1146 0.930 . S
C1152 C1153 1.367 . S
C1152 C1160 1.378 . S
C1153 C1152 1.367 . S
C1153 C1161 1.433 . S
C1154 H1150 0.929 . S
C1154 C1156 1.378 . S
C1154 C1158 1.350 . S
C1155 C1158 1.463 . S
C1155 C1160 1.350 . S
C1155 N1163 1.427 . S
C1156 H1147 0.930 . S
C1156 C1154 1.378 . S
C1156 C1157 1.367 . S
C1157 C1156 1.367 . S
C1157 C1159 1.433 . S
C1158 C1154 1.350 . S
C1158 C1155 1.463 . S
C1158 N1162 1.427 . S
C1159 H1149 0.929 . S
C1159 C1157 1.433 . S
C1159 N1162 1.384 . S
C1160 H1151 0.929 . S
C1160 C1152 1.378 . S
C1160 C1155 1.350 . S
C1161 H1148 0.929 . S
C1161 C1153 1.433 . S
C1161 N1163 1.384 . S
N1162 C1158 1.427 . S
N1162 C1159 1.384 . S
N1163 C1155 1.427 . S
N1163 C1161 1.384 . S
H1164 C1170 0.930 . S
H1165 C1174 0.930 . S
H1166 C1179 0.929 . S
H1167 C1177 0.929 . S
H1168 C1172 0.929 . S
H1169 C1178 0.929 . S
C1170 H1164 0.930 . S
C1170 C1171 1.367 . S
C1170 C1178 1.378 . S
C1171 C1170 1.367 . S
C1171 C1179 1.433 . S
C1172 H1168 0.929 . S
C1172 C1174 1.378 . S
C1172 C1176 1.350 . S
C1173 C1176 1.463 . S
C1173 C1178 1.350 . S
C1173 N1181 1.427 . S
C1174 H1165 0.930 . S
C1174 C1172 1.378 . S
C1174 C1175 1.367 . S
C1175 C1174 1.367 . S
C1175 C1177 1.433 . S
C1176 C1172 1.350 . S
C1176 C1173 1.463 . S
C1176 N1180 1.427 . S
C1177 H1167 0.929 . S
C1177 C1175 1.433 . S
C1177 N1180 1.384 . S
C1178 H1169 0.929 . S
C1178 C1170 1.378 . S
C1178 C1173 1.350 . S
C1179 H1166 0.929 . S
C1179 C1171 1.433 . S
C1179 N1181 1.384 . S
N1180 C1176 1.427 . S
N1180 C1177 1.384 . S
N1181 C1173 1.427 . S
N1181 C1179 1.384 . S
H1182 C1188 0.930 . S
H1183 C1192 0.930 . S
H1184 C1197 0.929 . S
H1185 C1195 0.929 . S
H1186 C1190 0.929 . S
H1187 C1196 0.929 . S
C1188 H1182 0.930 . S
C1188 C1189 1.367 . S
C1188 C1196 1.378 . S
C1189 C1188 1.367 . S
C1189 C1197 1.433 . S
C1190 H1186 0.929 . S
C1190 C1192 1.378 . S
C1190 C1194 1.350 . S
C1191 C1194 1.463 . S
C1191 C1196 1.350 . S
C1191 N1199 1.427 . S
C1192 H1183 0.930 . S
C1192 C1190 1.378 . S
C1192 C1193 1.367 . S
C1193 C1192 1.367 . S
C1193 C1195 1.433 . S
C1194 C1190 1.350 . S
C1194 C1191 1.463 . S
C1194 N1198 1.427 . S
C1195 H1185 0.929 . S
C1195 C1193 1.433 . S
C1195 N1198 1.384 . S
C1196 H1187 0.929 . S
C1196 C1188 1.378 . S
C1196 C1191 1.350 . S
C1197 H1184 0.929 . S
C1197 C1189 1.433 . S
C1197 N1199 1.384 . S
N1198 C1194 1.427 . S
N1198 C1195 1.384 . S
N1199 C1191 1.427 . S
N1199 C1197 1.384 . S
H1200 C1206 0.930 . S
H1201 C1210 0.930 . S
H1202 C1215 0.929 . S
H1203 C1213 0.929 . S
H1204 C1208 0.929 . S
H1205 C1214 0.929 . S
C1206 H1200 0.930 . S
C1206 C1207 1.367 . S
C1206 C1214 1.378 . S
C1207 C1206 1.367 . S
C1207 C1215 1.433 . S
C1208 H1204 0.929 . S
C1208 C1210 1.378 . S
C1208 C1212 1.350 . S
C1209 C1212 1.463 . S
C1209 C1214 1.350 . S
C1209 N1217 1.427 . S
C1210 H1201 0.930 . S
C1210 C1208 1.378 . S
C1210 C1211 1.367 . S
C1211 C1210 1.367 . S
C1211 C1213 1.433 1_554 S
C1212 C1208 1.350 . S
C1212 C1209 1.463 . S
C1212 N1216 1.427 . S
C1213 H1203 0.929 . S
C1213 C1211 1.433 1_556 S
C1213 N1216 1.384 1_556 S
C1214 H1205 0.929 . S
C1214 C1206 1.378 . S
C1214 C1209 1.350 . S
C1215 H1202 0.929 . S
C1215 C1207 1.433 . S
C1215 N1217 1.384 . S
N1216 C1212 1.427 . S
N1216 C1213 1.384 1_554 S
N1217 C1209 1.427 . S
N1217 C1215 1.384 . S
H1218 C1224 0.930 . S
H1219 C1228 0.930 . S
H1220 C1233 0.929 . S
H1221 C1231 0.929 . S
H1222 C1226 0.929 . S
H1223 C1232 0.929 . S
C1224 H1218 0.930 . S
C1224 C1225 1.367 . S
C1224 C1232 1.378 . S
C1225 C1224 1.367 . S
C1225 C1233 1.433 . S
C1226 H1222 0.929 . S
C1226 C1228 1.378 . S
C1226 C1230 1.350 . S
C1227 C1230 1.463 . S
C1227 C1232 1.350 . S
C1227 N1235 1.427 . S
C1228 H1219 0.930 . S
C1228 C1226 1.378 . S
C1228 C1229 1.367 . S
C1229 C1228 1.367 . S
C1229 C1231 1.433 . S
C1230 C1226 1.350 . S
C1230 C1227 1.463 . S
C1230 N1234 1.427 . S
C1231 H1221 0.929 . S
C1231 C1229 1.433 . S
C1231 N1234 1.384 . S
C1232 H1223 0.929 . S
C1232 C1224 1.378 . S
C1232 C1227 1.350 . S
C1233 H1220 0.929 . S
C1233 C1225 1.433 . S
C1233 N1235 1.384 . S
N1234 C1230 1.427 . S
N1234 C1231 1.384 . S
N1235 C1227 1.427 . S
N1235 C1233 1.384 . S
C815 C745 1.651 . S
C811 C15 1.625 . S
C829 C61 1.631 . S
C833 C305 1.656 . S
C847 C114 1.633 . S
C851 C393 1.658 . S
C865 C139 1.643 . S
C869 C472 1.650 . S
C887 C569 1.656 . S
C883 C185 1.644 . S
C901 C245 1.620 . S
C905 C648 1.650 . S
C919 C47 1.642 . S
C923 C413 1.650 . S
C937 C100 1.646 . S
C941 C509 1.657 . S
C955 C153 1.621 . S
C959 C589 1.651 . S
C977 C685 1.659 . S
C973 C199 1.631 . S
C995 C765 1.657 . S
C991 C231 1.646 . S
C1013 C325 1.653 . S
C1009 C1 1.642 . S
C1027 C22 1.461 . S
C1031 C421 1.458 . S
C1045 C68 1.464 . S
C1049 C501 1.464 . S
C1067 C597 1.458 . S
C1063 C107 1.461 . S
C1081 C146 1.465 . S
C1085 C677 1.463 1_556 S
C1103 C773 1.459 . S
C1099 C192 1.465 . S
C1121 C333 1.463 . S
C1117 C252 1.465 . S
C1139 C736 1.462 . S
C1135 C54 1.463 . S
C1153 C93 1.466 . S
C1157 C296 1.460 . S
C1175 C384 1.464 . S
C1171 C160 1.464 . S
C1189 C206 1.465 . S
C1193 C481 1.463 . S
C1207 C238 1.467 . S
C1211 C560 1.462 1_554 S
C1225 C8 1.462 . S
C1229 C657 1.459 . S
