# Generated by pormake.
# Topology pth, (4,4)-cn, num edge types: 1
# Building blocks:
#     Node 0, Type 0, BuildingBlock: UXUYUI_clean_sbu_0, # of connection points: 4
#     Node 1, Type 0, BuildingBlock: UXUYUI_clean_sbu_0, # of connection points: 4
#     Node 2, Type 0, BuildingBlock: UXUYUI_clean_sbu_0, # of connection points: 4
#     Node 3, Type 1, BuildingBlock: MIFKUJ_clean_linker_1, # of connection points: 4
#     Node 4, Type 1, BuildingBlock: MIFKUJ_clean_linker_1, # of connection points: 4
#     Node 5, Type 1, BuildingBlock: MIFKUJ_clean_linker_1, # of connection points: 4
#     Edge 6, Type (0, 1), BuildingBlock: AJUNOK_clean_linker_0, # of connection points: 2
#     Edge 7, Type (0, 1), BuildingBlock: AJUNOK_clean_linker_0, # of connection points: 2
#     Edge 8, Type (0, 1), BuildingBlock: AJUNOK_clean_linker_0, # of connection points: 2
#     Edge 9, Type (0, 1), BuildingBlock: AJUNOK_clean_linker_0, # of connection points: 2
#     Edge 10, Type (0, 1), BuildingBlock: AJUNOK_clean_linker_0, # of connection points: 2
#     Edge 11, Type (0, 1), BuildingBlock: AJUNOK_clean_linker_0, # of connection points: 2
#     Edge 12, Type (0, 1), BuildingBlock: AJUNOK_clean_linker_0, # of connection points: 2
#     Edge 13, Type (0, 1), BuildingBlock: AJUNOK_clean_linker_0, # of connection points: 2
#     Edge 14, Type (0, 1), BuildingBlock: AJUNOK_clean_linker_0, # of connection points: 2
#     Edge 15, Type (0, 1), BuildingBlock: AJUNOK_clean_linker_0, # of connection points: 2
#     Edge 16, Type (0, 1), BuildingBlock: AJUNOK_clean_linker_0, # of connection points: 2
#     Edge 17, Type (0, 1), BuildingBlock: AJUNOK_clean_linker_0, # of connection points: 2
# Relax obj value: 0.075
# Max RMSD: 0.209
# Mean RMSD: 0.121
data_MOF--net-pth--node1-UXUYUI_clean_sbu_0--node2-MIFKUJ_clean_linker_1--edge1-AJUNOK_clean_linker_0
_symmetry_space_group_name_H-M    P1
_symmetry_Int_Tables_number       1
_symmetry_cell_setting            triclinic
loop_
_symmetry_equiv_pos_as_xyz
'x, y, z'
_cell_length_a     28.722655
_cell_length_b     28.73234
_cell_length_c     61.50585
_cell_angle_alpha  90.025013
_cell_angle_beta   89.986741
_cell_angle_gamma 120.00357
loop_
_atom_site_label
_atom_site_type_symbol
_atom_site_fract_x
_atom_site_fract_y
_atom_site_fract_z
_atom_type_partial_charge
Li0 Li 0.05003 0.0371 0.03484 0.0
Li1 Li 0.98813 0.0366 0.06185 0.0
Li2 Li 0.01425 0.96489 0.06218 0.0
Li3 Li 0.95254 0.96373 0.03436 0.0
C4 C 0.11395 0.0745 0.07066 0.0
N5 N 0.2234 0.13708 0.07755 0.0
C6 C 0.13638 0.12865 0.07631 0.0
C7 C 0.14709 0.052 0.0689 0.0
C8 C 0.19182 0.1597 0.07961 0.0
C9 C 0.20233 0.08431 0.07235 0.0
C10 C 0.95873 0.07038 0.02458 0.0
C11 C 0.87718 0.07317 0.01847 0.0
N12 N 0.90693 0.12664 0.01411 0.0
C13 C 0.98849 0.12517 0.01967 0.0
C14 C 0.90263 0.04401 0.02366 0.0
C15 C 0.96158 0.15298 0.01458 0.0
C16 C 0.12628 0.06865 1.00001 0.0
N17 N 0.10868 0.08569 0.01712 0.0
C18 C 0.16786 0.17749 0.00757 0.0
C19 C 0.12876 0.13887 0.02114 0.0
C20 C 0.18653 0.16121 0.98969 0.0
C21 C 0.16581 0.10604 0.98607 0.0
H22 H 0.10852 0.02616 0.99676 0.0
H23 H 0.11317 0.15128 0.03455 0.0
C24 C 0.9443 0.06713 0.09736 0.0
N25 N 0.97695 0.08443 0.07963 0.0
C26 C 0.94154 0.10417 0.11128 0.0
C27 C 0.00654 0.17598 0.0886 0.0
C28 C 0.00759 0.13763 0.07504 0.0
C29 C 0.97374 0.15951 0.10718 0.0
H30 H 0.92148 0.02473 0.10106 0.0
H31 H 0.03451 0.15039 0.06126 0.0
C32 C 0.03528 0.923 0.02508 0.0
N33 N 0.06892 0.8506 0.01516 0.0
C34 C 0.99792 0.8705 0.01887 0.0
C35 C 0.08989 0.93895 0.02581 0.0
C36 C 0.01566 0.83441 0.01405 0.0
C37 C 0.10607 0.9017 0.02085 0.0
C38 C 0.88994 0.92781 0.0729 0.0
C39 C 0.87136 0.87729 0.08234 0.0
C40 C 0.85474 0.94772 0.07037 0.0
C41 C 0.81751 0.84701 0.08861 0.0
C42 C 0.8012 0.91627 0.07686 0.0
N43 N 0.78382 0.86693 0.08574 0.0
C44 C 0.05587 0.93509 0.09845 0.0
C45 C 0.99561 0.86389 0.07559 0.0
C46 C 0.05882 0.89861 0.11264 0.0
N47 N 0.02469 0.91717 0.08032 0.0
C48 C 0.99742 0.82613 0.08925 0.0
C49 C 0.02882 0.8433 0.10818 0.0
H50 H 0.07748 0.97755 0.10218 0.0
H51 H 0.9693 0.8505 0.06163 0.0
C52 C 0.89103 0.93131 0.99562 0.0
N53 N 0.89483 0.91562 0.01609 0.0
C54 C 0.85257 0.89472 0.98116 0.0
C55 C 0.82267 0.82671 0.00914 0.0
C56 C 0.86171 0.86448 0.023 0.0
C57 C 0.81798 0.84153 0.98786 0.0
H58 H 0.9189 0.97184 0.99035 0.0
H59 H 0.86694 0.85231 0.03897 0.0
O60 O 0.05978 0.04357 0.06713 0.0
O61 O 0.98446 0.04246 0.02956 0.0
O62 O 0.01855 0.95887 0.02988 0.0
O63 O 0.94255 0.95786 0.06657 0.0
H64 H 0.11136 0.14667 0.07803 0.0
H65 H 0.13029 0.00989 0.06513 0.0
H66 H 0.20974 0.20175 0.08382 0.0
H67 H 0.22843 0.06738 0.07096 0.0
H68 H 0.83376 0.05324 0.01781 0.0
H69 H 0.03191 0.14614 0.01986 0.0
H70 H 0.87887 1.00137 0.02673 0.0
H71 H 0.98416 0.19549 0.01094 0.0
H72 H 0.18287 0.21969 0.01085 0.0
H73 H 0.17861 0.09203 0.97219 0.0
H74 H 0.91502 0.08966 0.12523 0.0
H75 H 0.03254 0.2182 0.08496 0.0
H76 H 0.95559 0.85757 0.01795 0.0
H77 H 0.11958 0.97978 0.02991 0.0
H78 H 0.98709 0.79353 0.00941 0.0
H79 H 0.1482 0.91349 0.02143 0.0
H80 H 0.89809 0.86145 0.08469 0.0
H81 H 0.86877 0.9874 0.06381 0.0
H82 H 0.80253 0.80769 0.09579 0.0
H83 H 0.77355 0.93121 0.07496 0.0
H84 H 0.08389 0.91343 0.127 0.0
H85 H 0.97311 0.78378 0.08543 0.0
H86 H 0.85116 0.90742 0.96472 0.0
H87 H 0.79696 0.78604 0.01489 0.0
Li88 Li 0.99046 0.95305 0.3679 0.0
Li89 Li 0.05159 0.01414 0.39594 0.0
Li90 Li 0.95402 0.98969 0.39516 0.0
Li91 Li 0.01622 0.05093 0.36829 0.0
C92 C 0.96691 0.89116 0.40652 0.0
N93 N 0.92899 0.7862 0.41955 0.0
C94 C 1.00217 0.8758 0.41524 0.0
C95 C 0.91222 0.85332 0.4048 0.0
C96 C 0.98227 0.82249 0.42162 0.0
C97 C 0.89386 0.80042 0.41138 0.0
C98 C 0.114 0.03624 0.35751 0.0
C99 C 0.20526 0.10833 0.3527 0.0
N100 N 0.21894 0.07258 0.34478 0.0
C101 C 0.12882 1.00033 0.34905 0.0
C102 C 0.15238 0.09077 0.35912 0.0
C103 C 0.18212 0.01943 0.34282 0.0
C104 C 0.95891 0.88999 0.32948 0.0
N105 N 0.98039 0.89513 0.34964 0.0
C106 C 0.99899 0.82436 0.34232 0.0
C107 C 1.00035 0.86339 0.3562 0.0
C108 C 0.97754 0.81835 0.32132 0.0
C109 C 0.957 0.85157 0.31497 0.0
H110 H 0.94478 0.91685 0.32443 0.0
H111 H 0.01938 0.86977 0.37189 0.0
C112 C 0.11429 0.04591 0.43448 0.0
N113 N 0.10901 0.02379 0.41443 0.0
C114 C 0.15242 0.04775 0.44912 0.0
C115 C 0.17901 0.00431 0.42217 0.0
C116 C 0.14029 0.00306 0.40814 0.0
C117 C 0.18519 0.02647 0.44304 0.0
H118 H 0.0878 0.06067 0.43931 0.0
H119 H 0.13379 0.98357 0.39255 0.0
C120 C 0.89075 0.96039 0.3586 0.0
N121 N 0.78175 0.9085 0.34993 0.0
C122 C 0.86571 0.99006 0.35356 0.0
C123 C 0.8605 0.9043 0.35881 0.0
C124 C 0.81052 0.96311 0.34935 0.0
C125 C 0.80542 0.87881 0.35449 0.0
C126 C 0.04564 0.11482 0.40469 0.0
C127 C 0.01646 0.14051 0.40951 0.0
C128 C 0.10178 0.14448 0.40458 0.0
C129 C 0.04395 0.19575 0.4136 0.0
C130 C 0.12782 0.19963 0.40877 0.0
N131 N 0.0986 0.22394 0.41312 0.0
C132 C 0.87704 0.94587 0.42991 0.0
C133 C 0.87585 0.0136 0.40832 0.0
C134 C 0.83795 0.94501 0.44376 0.0
N135 N 0.89519 0.98002 0.41265 0.0
C136 C 0.83727 0.01444 0.42181 0.0
C137 C 0.81855 0.98047 0.43997 0.0
H138 H 0.89416 0.92068 0.4334 0.0
H139 H 0.89181 0.04112 0.39478 0.0
C140 C 0.06186 0.12744 0.33347 0.0
N141 N 0.02723 0.10988 0.35059 0.0
C142 C 0.06428 0.16725 0.31963 0.0
C143 C 0.99509 0.16954 0.3412 0.0
C144 C 0.99436 0.1302 0.35468 0.0
C145 C 0.03009 0.18823 0.32334 0.0
H146 H 0.08631 0.10943 0.33012 0.0
H147 H 0.9663 0.11457 0.36807 0.0
O148 O 0.98582 0.94323 0.40017 0.0
O149 O 0.06193 0.01812 0.36371 0.0
O150 O 0.94476 0.98611 0.36286 0.0
O151 O 0.01939 0.06075 0.40055 0.0
H152 H 0.04451 0.90462 0.41692 0.0
H153 H 0.88409 0.86477 0.39873 0.0
H154 H 0.00919 0.80999 0.42823 0.0
H155 H 0.85164 0.77071 0.41008 0.0
H156 H 0.23537 0.15042 0.35392 0.0
H157 H 0.09959 0.95809 0.34746 0.0
H158 H 0.14137 0.1194 0.36499 0.0
H159 H 0.1942 0.992 0.33641 0.0
H160 H 0.01548 0.79976 0.34781 0.0
H161 H 0.9414 0.84923 0.29874 0.0
H162 H 0.15489 0.06391 0.46526 0.0
H163 H 0.20327 0.98724 0.41689 0.0
H164 H 0.88854 0.03346 0.35297 0.0
H165 H 0.87937 0.88062 0.3621 0.0
H166 H 0.79058 0.98562 0.3456 0.0
H167 H 0.78154 0.83541 0.35469 0.0
H168 H 0.97304 0.11816 0.41002 0.0
H169 H 0.12508 0.12511 0.40146 0.0
H170 H 0.02182 0.21618 0.41718 0.0
H171 H 0.17127 0.22306 0.40865 0.0
H172 H 0.82459 0.91854 0.45774 0.0
H173 H 0.82288 0.04203 0.4183 0.0
H174 H 0.0911 0.18006 0.30576 0.0
H175 H 0.96806 0.18473 0.34453 0.0
Li176 Li 0.04103 0.99269 0.70288 0.0
Li177 Li 0.03388 0.0486 0.72966 0.0
Li178 Li 0.96655 0.95714 0.73001 0.0
Li179 Li 0.96883 0.02023 0.70075 0.0
C180 C 0.05533 0.94604 0.73948 0.0
N181 N 0.07667 0.86407 0.74804 0.0
C182 C 0.099 0.9555 0.75257 0.0
C183 C 0.02259 0.89485 0.73074 0.0
C184 C 0.10913 0.91357 0.7567 0.0
C185 C 0.03397 0.85394 0.73527 0.0
C186 C 0.09053 0.11436 0.69594 0.0
C187 C 0.12833 0.20727 0.68563 0.0
N188 N 0.17754 0.21703 0.69235 0.0
C189 C 0.14151 0.12514 0.70258 0.0
C190 C 0.08381 0.15557 0.68727 0.0
C191 C 0.18498 0.1774 0.70071 0.0
C192 C 0.07719 0.96923 0.66382 0.0
N193 N 0.08887 0.98154 0.6852 0.0
C194 C 0.17594 0.99148 0.68041 0.0
C195 C 0.13688 0.99211 0.6937 0.0
C196 C 0.16564 0.9804 0.65815 0.0
C197 C 0.11511 0.96796 0.64993 0.0
H198 H 0.03912 0.96216 0.65741 0.0
H199 H 0.14565 0.00299 0.71063 0.0
C200 C 0.09849 0.09348 0.7662 0.0
N201 N 0.07824 0.10696 0.74889 0.0
C202 C 0.13536 0.13308 0.78012 0.0
C203 C 0.12822 0.19985 0.7588 0.0
C204 C 0.09113 0.15881 0.74534 0.0
C205 C 0.15166 0.18715 0.77615 0.0
H206 H 0.08674 0.05193 0.76898 0.0
H207 H 0.07346 0.16853 0.73185 0.0
C208 C 0.92629 0.90356 0.68648 0.0
N209 N 0.85308 0.81507 0.66289 0.0
C210 C 0.87498 0.89558 0.68223 0.0
C211 C 0.94046 0.86669 0.67858 0.0
C212 C 0.83853 0.85058 0.67031 0.0
C213 C 0.90284 0.82214 0.66675 0.0
C214 C 0.95561 0.05275 0.74813 0.0
C215 C 0.95613 0.03984 0.77 0.0
C216 C 0.95768 0.10094 0.74262 0.0
C217 C 0.959 0.07562 0.78604 0.0
C218 C 0.96043 0.1356 0.75914 0.0
N219 N 0.96108 0.12235 0.78033 0.0
C220 C 0.9332 0.89195 0.76786 0.0
C221 C 0.86625 0.86655 0.74072 0.0
C222 C 0.89627 0.85259 0.78193 0.0
N223 N 0.91762 0.89819 0.7477 0.0
C224 C 0.82815 0.82655 0.75418 0.0
C225 C 0.84285 0.81944 0.77515 0.0
H226 H 0.97391 0.91869 0.77327 0.0
H227 H 0.85435 0.87333 0.72497 0.0
C228 C 0.92991 0.02493 0.65946 0.0
N229 N 0.92444 0.03106 0.68106 0.0
C230 C 0.89261 0.02406 0.64465 0.0
C231 C 0.84614 0.03796 0.67453 0.0
C232 C 0.88396 0.03796 0.68879 0.0
C233 C 0.8496 0.02972 0.65224 0.0
H234 H 0.96201 0.01855 0.65388 0.0
H235 H 0.87972 0.0412 0.7061 0.0
O236 O 0.04548 0.98711 0.73516 0.0
O237 O 0.04735 0.06368 0.69782 0.0
O238 O 0.96309 0.94815 0.69766 0.0
O239 O 0.95405 0.01881 0.7322 0.0
H240 H 0.1251 0.99497 0.75935 0.0
H241 H 0.98845 0.88653 0.72076 0.0
H242 H 0.14287 0.92041 0.76677 0.0
H243 H 0.0088 0.81412 0.72864 0.0
H244 H 0.12374 0.23966 0.67905 0.0
H245 H 0.14723 0.09369 0.70943 0.0
H246 H 0.04454 0.1477 0.68202 0.0
H247 H 0.22459 0.18648 0.70597 0.0
H248 H 0.2142 1.00058 0.68739 0.0
H249 H 0.10585 0.95945 0.63282 0.0
H250 H 0.15237 0.1217 0.79341 0.0
H251 H 0.13894 0.24107 0.75553 0.0
H252 H 0.86316 0.92352 0.68825 0.0
H253 H 0.98016 0.87244 0.68147 0.0
H254 H 0.79866 0.84387 0.66697 0.0
H255 H 0.91326 0.79325 0.66058 0.0
H256 H 0.95488 0.00285 0.77451 0.0
H257 H 0.95812 0.11189 0.72576 0.0
H258 H 0.95971 0.06629 0.80303 0.0
H259 H 0.96238 0.17319 0.75513 0.0
H260 H 0.90895 0.84943 0.79818 0.0
H261 H 0.78734 0.80194 0.74836 0.0
H262 H 0.89667 0.01799 0.62753 0.0
H263 H 0.8132 0.04199 0.68095 0.0
H264 H 0.06895 0.46381 0.16968 0.0
H265 H 0.05895 0.38926 0.14702 0.0
H266 H 0.92229 0.27825 0.18533 0.0
H267 H 0.93116 0.35293 0.20762 0.0
H268 H 0.00966 0.50455 0.17464 0.0
H269 H 0.07734 0.42561 0.22269 0.0
H270 H 0.08426 0.35854 0.24472 0.0
H271 H 0.94793 0.33523 0.28286 0.0
H272 H 0.93922 0.40002 0.26003 0.0
H273 H 0.9232 0.52848 0.25444 0.0
H274 H 0.91613 0.59573 0.27628 0.0
H275 H 0.06426 0.72037 0.2483 0.0
H276 H 0.07241 0.65251 0.22712 0.0
H277 H 0.99967 0.5004 0.25512 0.0
H278 H 0.93533 0.5822 0.20122 0.0
H279 H 0.94245 0.6566 0.17921 0.0
H280 H 0.09498 0.6854 0.15403 0.0
H281 H 0.08764 0.61095 0.17597 0.0
C282 C 1.0012 0.41408 0.19055 0.0
C283 C 0.0368 0.42348 0.17325 0.0
C284 C 0.03112 0.38096 0.16032 0.0
C285 C 0.99006 0.32818 0.16456 0.0
C286 C 0.95472 0.31856 0.18196 0.0
C287 C 0.95996 0.36119 0.19473 0.0
C288 C 0.00538 0.45983 0.20345 0.0
C289 C 0.00825 0.50382 0.19227 0.0
C290 C 0.0038 0.45929 0.22648 0.0
C291 C 0.00743 0.41765 0.23954 0.0
C292 C 0.04839 0.40548 0.23557 0.0
C293 C 0.05286 0.36774 0.2484 0.0
C294 C 0.0171 0.34213 0.26572 0.0
C295 C 0.97599 0.35414 0.26959 0.0
C296 C 0.97121 0.39146 0.25664 0.0
C297 C 0.998 0.58547 0.23896 0.0
C298 C 0.95414 0.5703 0.25298 0.0
C299 C 0.94979 0.60884 0.26525 0.0
C300 C 0.98911 0.66344 0.26368 0.0
C301 C 0.03322 0.6786 0.24974 0.0
C302 C 0.03773 0.63993 0.23754 0.0
C303 C 1.00215 0.54377 0.22624 0.0
C304 C 1.00111 0.50075 0.23749 0.0
C305 C 0.00725 0.54603 0.20333 0.0
C306 C 0.01122 0.59139 0.19038 0.0
C307 C 0.97056 0.60493 0.19115 0.0
C308 C 0.97478 0.64754 0.17865 0.0
C309 C 0.01962 0.67714 0.16513 0.0
C310 C 0.06001 0.66324 0.16431 0.0
C311 C 0.05583 0.62077 0.17681 0.0
H312 H 0.60301 0.06709 0.50462 0.0
H313 H 0.67001 0.06261 0.48163 0.0
H314 H 0.64674 0.92245 0.51679 0.0
H315 H 0.57757 0.9253 0.539 0.0
H316 H 0.50207 0.00446 0.50888 0.0
H317 H 0.64692 0.07554 0.55874 0.0
H318 H 0.72277 0.08323 0.57993 0.0
H319 H 0.61708 0.93137 0.61086 0.0
H320 H 0.54127 0.92362 0.58957 0.0
H321 H 0.39049 0.91549 0.58871 0.0
H322 H 0.31954 0.91294 0.61168 0.0
H323 H 0.35369 0.06674 0.58606 0.0
H324 H 0.42552 0.06981 0.56352 0.0
H325 H 0.49838 0.9891 0.58924 0.0
H326 H 0.3499 0.93184 0.53786 0.0
H327 H 0.28216 0.94048 0.51683 0.0
H328 H 0.40736 0.08744 0.48832 0.0
H329 H 0.47451 0.07992 0.51002 0.0
C330 C 0.58564 0.997 0.52378 0.0
C331 C 0.61227 0.03536 0.50741 0.0
C332 C 0.65103 0.03313 0.49443 0.0
C333 C 0.66434 0.99272 0.49766 0.0
C334 C 0.63745 0.95414 0.51396 0.0
C335 C 0.59833 0.95611 0.52682 0.0
C336 C 0.5432 0.99851 0.5371 0.0
C337 C 0.50171 0.00187 0.52648 0.0
C338 C 0.54251 0.99504 0.56006 0.0
C339 C 0.58856 0.99874 0.57244 0.0
C340 C 0.64018 0.04363 0.56992 0.0
C341 C 0.68336 0.04814 0.58207 0.0
C342 C 0.67573 0.00767 0.59683 0.0
C343 C 0.62411 0.9627 0.59932 0.0
C344 C 0.58081 0.95843 0.58731 0.0
C345 C 0.41313 0.9927 0.57433 0.0
C346 C 0.38274 0.9487 0.58807 0.0
C347 C 0.34207 0.94712 0.60107 0.0
C348 C 0.33143 0.9898 0.60075 0.0
C349 C 0.36159 0.03366 0.58686 0.0
C350 C 0.40226 0.03521 0.57384 0.0
C351 C 0.457 0.99444 0.56097 0.0
C352 C 0.4988 0.99168 0.57163 0.0
C353 C 0.45898 1.00061 0.5381 0.0
C354 C 0.41726 0.00561 0.52574 0.0
C355 C 0.36264 0.96644 0.5274 0.0
C356 C 0.32403 0.97121 0.51527 0.0
C357 C 0.33938 0.01506 0.50117 0.0
C358 C 0.3941 0.05398 0.49946 0.0
C359 C 0.43258 0.04936 0.51166 0.0
H360 H 0.46057 0.39633 0.83639 0.0
H361 H 0.38575 0.33253 0.81367 0.0
H362 H 0.27666 0.36431 0.85048 0.0
H363 H 0.35163 0.42853 0.87309 0.0
H364 H 0.50275 0.49868 0.84085 0.0
H365 H 0.42215 0.35104 0.88839 0.0
H366 H 0.35508 0.27708 0.91044 0.0
H367 H 0.33295 0.39024 0.94899 0.0
H368 H 0.39783 0.46376 0.92617 0.0
H369 H 0.5274 0.60789 0.92089 0.0
H370 H 0.59503 0.68162 0.94287 0.0
H371 H 0.71869 0.65603 0.91525 0.0
H372 H 0.65045 0.58082 0.8938 0.0
H373 H 0.49824 0.50262 0.92136 0.0
H374 H 0.58247 0.65039 0.86897 0.0
H375 H 0.65784 0.71851 0.84761 0.0
H376 H 0.68131 0.59439 0.81907 0.0
H377 H 0.60756 0.52685 0.84106 0.0
C378 C 0.41178 0.41707 0.85655 0.0
C379 C 0.4206 0.38967 0.83957 0.0
C380 C 0.37792 0.35345 0.82655 0.0
C381 C 0.32563 0.34411 0.83018 0.0
C382 C 0.31661 0.37079 0.84738 0.0
C383 C 0.35936 0.40725 0.86035 0.0
C384 C 0.45773 0.45791 0.86955 0.0
C385 C 0.50201 0.499 0.85848 0.0
C386 C 0.45697 0.4584 0.89257 0.0
C387 C 0.41483 0.41309 0.90546 0.0
C388 C 0.40223 0.35991 0.90135 0.0
C389 C 0.3645 0.3177 0.91419 0.0
C390 C 0.33929 0.32791 0.93166 0.0
C391 C 0.35157 0.38106 0.93561 0.0
C392 C 0.38892 0.42317 0.92266 0.0
C393 C 0.58391 0.58919 0.90553 0.0
C394 C 0.56909 0.61816 0.91954 0.0
C395 C 0.60782 0.66069 0.9319 0.0
C396 C 0.66225 0.6752 0.93046 0.0
C397 C 0.67704 0.64586 0.91657 0.0
C398 C 0.63819 0.60313 0.90424 0.0
C399 C 0.54203 0.54396 0.89262 0.0
C400 C 0.4987 0.50197 0.90373 0.0
C401 C 0.54439 0.54178 0.86969 0.0
C402 C 0.58989 0.58359 0.85686 0.0
C403 C 0.60442 0.63798 0.85838 0.0
C404 C 0.64721 0.67679 0.84607 0.0
C405 C 0.67599 0.66186 0.83193 0.0
C406 C 0.66087 0.60732 0.83025 0.0
C407 C 0.61833 0.56862 0.84262 0.0
C408 C 0.97393 0.24558 0.11409 0.0
C409 C 0.97483 0.20035 0.12237 0.0
C410 C 0.97845 0.28649 0.12787 0.0
C411 C 0.98358 0.28352 0.15047 0.0
H412 H 0.96989 0.24953 0.09677 0.0
H413 H 0.97786 0.32072 0.12079 0.0
S414 S 0.99029 0.17517 0.18042 0.0
N415 N 0.98312 0.15618 0.15471 0.0
N416 N 0.9903 0.23265 0.18059 0.0
C417 C 0.98398 0.23846 0.15905 0.0
C418 C 0.97988 0.19697 0.14502 0.0
C419 C 0.73143 0.93776 0.46041 0.0
C420 C 0.7806 0.98381 0.45533 0.0
C421 C 0.69427 0.94084 0.47429 0.0
C422 C 0.70519 0.99003 0.48369 0.0
H423 H 0.72116 0.89935 0.45323 0.0
H424 H 0.65625 0.90464 0.47732 0.0
S425 S 0.83119 0.12088 0.47745 0.0
N426 N 0.84006 0.07911 0.46189 0.0
N427 N 0.77082 0.08483 0.48828 0.0
C428 C 0.75507 0.03598 0.47925 0.0
C429 C 0.79263 0.03288 0.46501 0.0
C430 C 0.75178 0.77716 0.7924 0.0
C431 C 0.80168 0.77948 0.79014 0.0
C432 C 0.71183 0.73963 0.8062 0.0
C433 C 0.72009 0.70277 0.81823 0.0
H434 H 0.74356 0.80476 0.78348 0.0
H435 H 0.67379 0.73887 0.80714 0.0
S436 S 0.84403 0.69283 0.81855 0.0
N437 N 0.85724 0.74181 0.80122 0.0
N438 N 0.78253 0.67201 0.82756 0.0
C439 C 0.77002 0.70504 0.81636 0.0
C440 C 0.81074 0.74329 0.80228 0.0
C441 C 0.03697 0.76192 0.11519 0.0
C442 C 0.02883 0.80308 0.12331 0.0
C443 C 0.03461 0.72186 0.12889 0.0
C444 C 0.0235 0.72112 0.1512 0.0
H445 H 0.04513 0.76063 0.09806 0.0
H446 H 0.04051 0.6906 0.12186 0.0
S447 S 0.99978 0.82007 0.18063 0.0
N448 N 0.00942 0.84079 0.15512 0.0
N449 N 0.00566 0.76576 0.18094 0.0
C450 C 0.01579 0.76229 0.1596 0.0
C451 C 0.01843 0.80327 0.14565 0.0
C452 C 0.22504 0.97652 0.46122 0.0
C453 C 0.22378 0.02455 0.45861 0.0
C454 C 0.26175 0.97359 0.47534 0.0
C455 C 0.29881 0.01863 0.48738 0.0
H456 H 0.19737 0.94077 0.45226 0.0
H457 H 0.26186 0.93602 0.47647 0.0
S458 S 0.31102 0.15346 0.48701 0.0
N459 N 0.26239 0.11804 0.46949 0.0
N460 N 0.33062 0.11219 0.49644 0.0
C461 C 0.2974 0.06668 0.48524 0.0
C462 C 0.26 0.06968 0.47082 0.0
C463 C 0.19148 0.22658 0.81244 0.0
C464 C 0.19466 0.22982 0.78961 0.0
C465 C 0.23351 0.2644 0.82546 0.0
C466 C 0.28051 0.30632 0.8161 0.0
H467 H 0.15638 0.19431 0.82028 0.0
H468 H 0.22977 0.26002 0.84297 0.0
S469 S 0.30816 0.33327 0.75716 0.0
N470 N 0.24817 0.27876 0.75821 0.0
N471 N 0.32698 0.35004 0.78268 0.0
C472 C 0.28381 0.31051 0.79331 0.0
C473 C 0.24089 0.27227 0.78007 0.0
C474 C 0.79284 0.06479 0.63642 0.0
C475 C 0.80687 0.02443 0.63723 0.0
C476 C 0.75104 0.05951 0.62296 0.0
C477 C 0.72125 0.01328 0.61016 0.0
H478 H 0.81432 0.10066 0.64627 0.0
H479 H 0.74119 0.09132 0.62292 0.0
S480 S 0.74212 0.89619 0.60649 0.0
N481 N 0.78792 0.93689 0.62407 0.0
N482 N 0.70919 0.9269 0.59885 0.0
C483 C 0.73504 0.97278 0.61076 0.0
C484 C 0.77796 0.97841 0.62426 0.0
C485 C 0.77603 0.75045 0.97069 0.0
C486 C 0.77892 0.80066 0.97255 0.0
C487 C 0.73895 0.7106 0.95673 0.0
C488 C 0.70311 0.71929 0.94416 0.0
H489 H 0.80275 0.74187 0.98009 0.0
H490 H 0.73762 0.67226 0.9561 0.0
S491 S 0.69522 0.84427 0.94259 0.0
N492 N 0.74313 0.85711 0.96044 0.0
N493 N 0.67405 0.7825 0.93387 0.0
C494 C 0.70607 0.76958 0.9456 0.0
C495 C 0.7439 0.81022 0.95982 0.0
C496 C 0.02736 0.77773 0.30363 0.0
C497 C 0.9795 0.77952 0.30591 0.0
C498 C 0.03033 0.74083 0.28963 0.0
C499 C 0.98552 0.70411 0.2774 0.0
H500 H 0.06293 0.80515 0.31274 0.0
H501 H 0.06775 0.74034 0.28874 0.0
S502 S 0.85126 0.69332 0.27689 0.0
N503 N 0.88645 0.74176 0.29452 0.0
N504 N 0.89241 0.67317 0.2678 0.0
C505 C 0.93767 0.70604 0.27922 0.0
C506 C 0.93462 0.74363 0.29351 0.0
C507 C 0.19749 0.94095 0.62937 0.0
C508 C 0.20816 0.9838 0.64342 0.0
C509 C 0.23753 0.94319 0.6156 0.0
C510 C 0.28942 0.98868 0.61517 0.0
H511 H 0.15812 0.90514 0.62926 0.0
H512 H 0.22775 0.9092 0.60512 0.0
S513 S 0.33731 0.11209 0.64841 0.0
N514 N 0.27391 0.07351 0.65569 0.0
N515 N 0.34923 0.07751 0.62999 0.0
C516 C 0.30038 0.032 0.62897 0.0
C517 C 0.25978 0.02958 0.64307 0.0
C518 C 0.21478 0.24072 0.9655 0.0
C519 C 0.22545 0.20191 0.97438 0.0
C520 C 0.25139 0.28067 0.95147 0.0
C521 C 0.30028 0.28358 0.94585 0.0
H522 H 0.17765 0.24006 0.96939 0.0
H523 H 0.24126 0.3095 0.94493 0.0
S524 S 0.34835 0.19287 0.96565 0.0
N525 N 0.28861 0.1693 0.977 0.0
N526 N 0.35809 0.24499 0.95089 0.0
C527 C 0.31142 0.24492 0.95462 0.0
C528 C 0.27387 0.20397 0.96882 0.0
C529 C 0.97923 0.21695 0.29915 0.0
C530 C 0.02857 0.22743 0.30812 0.0
C531 C 0.97612 0.25385 0.28522 0.0
C532 C 0.0222 0.30286 0.27982 0.0
H533 H 0.9427 0.17977 0.30288 0.0
H534 H 0.93726 0.24386 0.27859 0.0
S535 S 0.16068 0.35043 0.29995 0.0
N536 N 0.12431 0.29046 0.31106 0.0
N537 N 0.11853 0.36053 0.28517 0.0
C538 C 0.07187 0.3138 0.2887 0.0
C539 C 0.07503 0.27593 0.30277 0.0
loop_
_geom_bond_atom_site_label_1
_geom_bond_atom_site_label_2
_geom_bond_distance
_geom_bond_site_symmetry_2
_ccdc_geom_bond_type
Li0 N17 1.990 . S
Li0 O60 1.956 . S
Li0 O61 1.970 1_455 S
Li0 O62 1.961 1_545 S
Li1 N25 1.990 . S
Li1 O60 1.970 1_655 S
Li1 O61 1.956 . S
Li1 O63 1.961 1_545 S
Li2 N47 1.990 . S
Li2 O60 1.961 1_565 S
Li2 O62 1.956 . S
Li2 O63 1.970 1_455 S
Li3 N53 1.990 . S
Li3 O61 1.961 1_565 S
Li3 O62 1.970 1_655 S
Li3 O63 1.956 . S
C4 C6 1.348 . S
C4 C7 1.356 . S
C4 O60 1.325 . S
N5 C8 1.314 . S
N5 C9 1.279 . S
C6 C4 1.348 . S
C6 C8 1.353 . S
C6 H64 0.929 . S
C7 C4 1.356 . S
C7 C9 1.358 . S
C7 H65 0.930 . S
C8 N5 1.314 . S
C8 C6 1.353 . S
C8 H66 0.930 . S
C9 N5 1.279 . S
C9 C7 1.358 . S
C9 H67 0.930 . S
C10 C13 1.348 1_655 S
C10 C14 1.356 . S
C10 O61 1.325 . S
C11 N12 1.258 1_554 S
C11 C14 1.384 . S
C11 H68 0.927 1_554 S
N12 C11 1.258 1_556 S
N12 C15 1.314 . S
C13 C10 1.348 1_455 S
C13 C15 1.353 1_454 S
C13 H69 0.929 . S
C14 C10 1.356 . S
C14 C11 1.384 . S
C14 H70 0.930 . S
C15 N12 1.314 . S
C15 C13 1.353 1_656 S
C15 H71 0.930 1_655 S
C16 N17 1.314 1_556 S
C16 C21 1.353 . S
C16 H22 0.930 . S
N17 Li0 1.990 . S
N17 C16 1.314 1_554 S
N17 C19 1.279 . S
C18 C19 1.358 . S
C18 C20 1.356 1_554 S
C18 H72 0.930 . S
C19 N17 1.279 . S
C19 C18 1.358 . S
C19 H23 0.930 . S
C20 C18 1.356 1_556 S
C20 C21 1.348 . S
C21 C16 1.353 . S
C21 C20 1.348 . S
C21 H73 0.929 . S
H22 C16 0.930 . S
H23 C19 0.930 . S
C24 N25 1.314 . S
C24 C26 1.353 . S
C24 H30 0.930 . S
N25 Li1 1.990 . S
N25 C24 1.314 . S
N25 C28 1.279 . S
C26 C24 1.353 . S
C26 C29 1.348 . S
C26 H74 0.929 . S
C27 C28 1.358 . S
C27 C29 1.356 . S
C27 H75 0.930 . S
C28 N25 1.279 . S
C28 C27 1.358 . S
C28 H31 0.930 . S
C29 C26 1.348 . S
C29 C27 1.356 . S
H30 C24 0.930 . S
H31 C28 0.930 . S
C32 C34 1.348 1_455 S
C32 C35 1.356 . S
C32 O62 1.325 . S
N33 C36 1.314 . S
N33 C37 1.258 1_556 S
C34 C32 1.348 1_655 S
C34 C36 1.353 1_654 S
C34 H76 0.929 . S
C35 C32 1.356 . S
C35 C37 1.384 . S
C35 H77 0.930 . S
C36 N33 1.314 . S
C36 C34 1.353 1_456 S
C36 H78 0.930 1_455 S
C37 N33 1.258 1_554 S
C37 C35 1.384 . S
C37 H79 0.927 1_554 S
C38 C39 1.348 . S
C38 C40 1.356 . S
C38 O63 1.325 . S
C39 C38 1.348 . S
C39 C41 1.353 . S
C39 H80 0.929 . S
C40 C38 1.356 . S
C40 C42 1.358 . S
C40 H81 0.930 . S
C41 C39 1.353 . S
C41 N43 1.314 . S
C41 H82 0.930 . S
C42 C40 1.358 . S
C42 N43 1.279 . S
C42 H83 0.930 . S
N43 C41 1.314 . S
N43 C42 1.279 . S
C44 C46 1.353 . S
C44 N47 1.314 . S
C44 H50 0.930 . S
C45 N47 1.279 . S
C45 C48 1.358 . S
C45 H51 0.930 . S
C46 C44 1.353 . S
C46 C49 1.348 . S
C46 H84 0.929 . S
N47 Li2 1.990 . S
N47 C44 1.314 . S
N47 C45 1.279 . S
C48 C45 1.358 . S
C48 C49 1.356 . S
C48 H85 0.930 . S
C49 C46 1.348 . S
C49 C48 1.356 . S
H50 C44 0.930 . S
H51 C45 0.930 . S
C52 N53 1.314 1_556 S
C52 C54 1.353 . S
C52 H58 0.930 . S
N53 Li3 1.990 . S
N53 C52 1.314 1_554 S
N53 C56 1.279 . S
C54 C52 1.353 . S
C54 C57 1.348 . S
C54 H86 0.929 . S
C55 C56 1.358 . S
C55 C57 1.356 1_554 S
C55 H87 0.930 . S
C56 N53 1.279 . S
C56 C55 1.358 . S
C56 H59 0.930 . S
C57 C54 1.348 . S
C57 C55 1.356 1_556 S
H58 C52 0.930 . S
H59 C56 0.930 . S
O60 Li0 1.956 . S
O60 Li1 1.970 1_455 S
O60 Li2 1.961 1_545 S
O60 C4 1.325 . S
O61 Li0 1.970 1_655 S
O61 Li1 1.956 . S
O61 Li3 1.961 1_545 S
O61 C10 1.325 . S
O62 Li0 1.961 1_565 S
O62 Li2 1.956 . S
O62 Li3 1.970 1_455 S
O62 C32 1.325 . S
O63 Li1 1.961 1_565 S
O63 Li2 1.970 1_655 S
O63 Li3 1.956 . S
O63 C38 1.325 . S
H64 C6 0.929 . S
H65 C7 0.930 . S
H66 C8 0.930 . S
H67 C9 0.930 . S
H68 C11 0.927 1_556 S
H69 C13 0.929 . S
H70 C14 0.930 . S
H71 C15 0.930 1_455 S
H72 C18 0.930 . S
H73 C21 0.929 . S
H74 C26 0.929 . S
H75 C27 0.930 . S
H76 C34 0.929 . S
H77 C35 0.930 . S
H78 C36 0.930 1_655 S
H79 C37 0.927 1_556 S
H80 C39 0.929 . S
H81 C40 0.930 . S
H82 C41 0.930 . S
H83 C42 0.930 . S
H84 C46 0.929 . S
H85 C48 0.930 . S
H86 C54 0.929 . S
H87 C55 0.930 . S
Li88 N105 1.990 . S
Li88 O148 1.956 . S
Li88 O149 1.970 1_665 S
Li88 O150 1.961 . S
Li89 N113 1.990 . S
Li89 O148 1.970 1_445 S
Li89 O149 1.956 . S
Li89 O151 1.961 . S
Li90 N135 1.990 . S
Li90 O148 1.961 . S
Li90 O150 1.956 . S
Li90 O151 1.970 1_665 S
Li91 N141 1.990 . S
Li91 O149 1.961 . S
Li91 O150 1.970 1_445 S
Li91 O151 1.956 . S
C92 C94 1.348 1_655 S
C92 C95 1.356 . S
C92 O148 1.325 . S
N93 C96 1.314 . S
N93 C97 1.279 . S
C94 C92 1.348 1_455 S
C94 C96 1.353 1_455 S
C94 H152 0.929 . S
C95 C92 1.356 . S
C95 C97 1.358 . S
C95 H153 0.930 . S
C96 N93 1.314 . S
C96 C94 1.353 1_655 S
C96 H154 0.930 1_655 S
C97 N93 1.279 . S
C97 C95 1.358 . S
C97 H155 0.930 . S
C98 C101 1.348 1_545 S
C98 C102 1.356 . S
C98 O149 1.325 . S
C99 N100 1.279 . S
C99 C102 1.358 . S
C99 H156 0.930 . S
N100 C99 1.279 . S
N100 C103 1.314 . S
C101 C98 1.348 1_565 S
C101 C103 1.353 1_565 S
C101 H157 0.929 . S
C102 C98 1.356 . S
C102 C99 1.358 . S
C102 H158 0.930 . S
C103 N100 1.314 . S
C103 C101 1.353 1_545 S
C103 H159 0.930 1_545 S
C104 N105 1.314 . S
C104 C109 1.353 . S
C104 H110 0.930 . S
N105 Li88 1.990 . S
N105 C104 1.314 . S
N105 C107 1.279 . S
C106 C107 1.358 . S
C106 C108 1.356 . S
C106 H160 0.930 . S
C107 N105 1.279 . S
C107 C106 1.358 . S
C107 H111 0.930 . S
C108 C106 1.356 . S
C108 C109 1.348 . S
C109 C104 1.353 . S
C109 C108 1.348 . S
C109 H161 0.929 . S
H110 C104 0.930 . S
H111 C107 0.930 . S
C112 N113 1.314 . S
C112 C114 1.353 . S
C112 H118 0.930 . S
N113 Li89 1.990 . S
N113 C112 1.314 . S
N113 C116 1.279 . S
C114 C112 1.353 . S
C114 C117 1.348 . S
C114 H162 0.929 . S
C115 C116 1.358 . S
C115 C117 1.356 . S
C115 H163 0.930 . S
C116 N113 1.279 . S
C116 C115 1.358 . S
C116 H119 0.930 . S
C117 C114 1.348 . S
C117 C115 1.356 . S
H118 C112 0.930 . S
H119 C116 0.930 . S
C120 C122 1.348 1_565 S
C120 C123 1.356 . S
C120 O150 1.325 . S
N121 C124 1.314 . S
N121 C125 1.279 . S
C122 C120 1.348 1_545 S
C122 C124 1.353 1_545 S
C122 H164 0.929 . S
C123 C120 1.356 . S
C123 C125 1.358 . S
C123 H165 0.930 . S
C124 N121 1.314 . S
C124 C122 1.353 1_565 S
C124 H166 0.930 1_565 S
C125 N121 1.279 . S
C125 C123 1.358 . S
C125 H167 0.930 . S
C126 C127 1.348 1_455 S
C126 C128 1.356 . S
C126 O151 1.325 . S
C127 C126 1.348 1_655 S
C127 C129 1.353 1_655 S
C127 H168 0.929 . S
C128 C126 1.356 . S
C128 C130 1.358 . S
C128 H169 0.930 . S
C129 C127 1.353 1_455 S
C129 N131 1.314 . S
C129 H170 0.930 1_455 S
C130 C128 1.358 . S
C130 N131 1.279 . S
C130 H171 0.930 . S
N131 C129 1.314 . S
N131 C130 1.279 . S
C132 C134 1.353 . S
C132 N135 1.314 . S
C132 H138 0.930 . S
C133 N135 1.279 . S
C133 C136 1.358 . S
C133 H139 0.930 . S
C134 C132 1.353 . S
C134 C137 1.348 . S
C134 H172 0.929 . S
N135 Li90 1.990 . S
N135 C132 1.314 . S
N135 C133 1.279 . S
C136 C133 1.358 . S
C136 C137 1.356 . S
C136 H173 0.930 . S
C137 C134 1.348 . S
C137 C136 1.356 . S
H138 C132 0.930 . S
H139 C133 0.930 . S
C140 N141 1.314 . S
C140 C142 1.353 . S
C140 H146 0.930 . S
N141 Li91 1.990 . S
N141 C140 1.314 . S
N141 C144 1.279 . S
C142 C140 1.353 . S
C142 C145 1.348 . S
C142 H174 0.929 . S
C143 C144 1.358 . S
C143 C145 1.356 . S
C143 H175 0.930 . S
C144 N141 1.279 . S
C144 C143 1.358 . S
C144 H147 0.930 . S
C145 C142 1.348 . S
C145 C143 1.356 . S
H146 C140 0.930 . S
H147 C144 0.930 . S
O148 Li88 1.956 . S
O148 Li89 1.970 1_665 S
O148 Li90 1.961 . S
O148 C92 1.325 . S
O149 Li88 1.970 1_445 S
O149 Li89 1.956 . S
O149 Li91 1.961 . S
O149 C98 1.325 . S
O150 Li88 1.961 . S
O150 Li90 1.956 . S
O150 Li91 1.970 1_665 S
O150 C120 1.325 . S
O151 Li89 1.961 . S
O151 Li90 1.970 1_445 S
O151 Li91 1.956 . S
O151 C126 1.325 . S
H152 C94 0.929 . S
H153 C95 0.930 . S
H154 C96 0.930 1_455 S
H155 C97 0.930 . S
H156 C99 0.930 . S
H157 C101 0.929 . S
H158 C102 0.930 . S
H159 C103 0.930 1_565 S
H160 C106 0.930 . S
H161 C109 0.929 . S
H162 C114 0.929 . S
H163 C115 0.930 . S
H164 C122 0.929 . S
H165 C123 0.930 . S
H166 C124 0.930 1_545 S
H167 C125 0.930 . S
H168 C127 0.929 . S
H169 C128 0.930 . S
H170 C129 0.930 1_655 S
H171 C130 0.930 . S
H172 C134 0.929 . S
H173 C136 0.930 . S
H174 C142 0.929 . S
H175 C143 0.930 . S
Li176 N193 1.990 . S
Li176 O236 1.956 . S
Li176 O237 1.970 1_565 S
Li176 O238 1.961 1_455 S
Li177 N201 1.990 . S
Li177 O236 1.970 1_545 S
Li177 O237 1.956 . S
Li177 O239 1.961 1_455 S
Li178 N223 1.990 . S
Li178 O236 1.961 1_655 S
Li178 O238 1.956 . S
Li178 O239 1.970 1_565 S
Li179 N229 1.990 . S
Li179 O237 1.961 1_655 S
Li179 O238 1.970 1_545 S
Li179 O239 1.956 . S
C180 C182 1.348 1_565 S
C180 C183 1.356 . S
C180 O236 1.325 . S
N181 C184 1.314 . S
N181 C185 1.279 . S
C182 C180 1.348 1_545 S
C182 C184 1.353 1_545 S
C182 H240 0.929 . S
C183 C180 1.356 . S
C183 C185 1.358 . S
C183 H241 0.930 . S
C184 N181 1.314 . S
C184 C182 1.353 1_565 S
C184 H242 0.930 1_565 S
C185 N181 1.279 . S
C185 C183 1.358 . S
C185 H243 0.930 . S
C186 C189 1.348 . S
C186 C190 1.356 . S
C186 O237 1.325 . S
C187 N188 1.279 . S
C187 C190 1.358 . S
C187 H244 0.930 . S
N188 C187 1.279 . S
N188 C191 1.314 . S
C189 C186 1.348 . S
C189 C191 1.353 . S
C189 H245 0.929 . S
C190 C186 1.356 . S
C190 C187 1.358 . S
C190 H246 0.930 . S
C191 N188 1.314 . S
C191 C189 1.353 . S
C191 H247 0.930 . S
C192 N193 1.314 . S
C192 C197 1.353 . S
C192 H198 0.930 . S
N193 Li176 1.990 . S
N193 C192 1.314 . S
N193 C195 1.279 . S
C194 C195 1.358 . S
C194 C196 1.356 . S
C194 H248 0.930 . S
C195 N193 1.279 . S
C195 C194 1.358 . S
C195 H199 0.930 . S
C196 C194 1.356 . S
C196 C197 1.348 . S
C197 C192 1.353 . S
C197 C196 1.348 . S
C197 H249 0.929 . S
H198 C192 0.930 . S
H199 C195 0.930 . S
C200 N201 1.314 . S
C200 C202 1.353 . S
C200 H206 0.930 . S
N201 Li177 1.990 . S
N201 C200 1.314 . S
N201 C204 1.279 . S
C202 C200 1.353 . S
C202 C205 1.348 . S
C202 H250 0.929 . S
C203 C204 1.358 . S
C203 C205 1.356 . S
C203 H251 0.930 . S
C204 N201 1.279 . S
C204 C203 1.358 . S
C204 H207 0.930 . S
C205 C202 1.348 . S
C205 C203 1.356 . S
H206 C200 0.930 . S
H207 C204 0.930 . S
C208 C210 1.348 . S
C208 C211 1.356 . S
C208 O238 1.325 . S
N209 C212 1.314 . S
N209 C213 1.279 . S
C210 C208 1.348 . S
C210 C212 1.353 . S
C210 H252 0.929 . S
C211 C208 1.356 . S
C211 C213 1.358 . S
C211 H253 0.930 . S
C212 N209 1.314 . S
C212 C210 1.353 . S
C212 H254 0.930 . S
C213 N209 1.279 . S
C213 C211 1.358 . S
C213 H255 0.930 . S
C214 C215 1.348 1_545 S
C214 C216 1.356 . S
C214 O239 1.325 . S
C215 C214 1.348 1_565 S
C215 C217 1.353 1_565 S
C215 H256 0.929 . S
C216 C214 1.356 . S
C216 C218 1.358 . S
C216 H257 0.930 . S
C217 C215 1.353 1_545 S
C217 N219 1.314 . S
C217 H258 0.930 1_545 S
C218 C216 1.358 . S
C218 N219 1.279 . S
C218 H259 0.930 . S
N219 C217 1.314 . S
N219 C218 1.279 . S
C220 C222 1.353 . S
C220 N223 1.314 . S
C220 H226 0.930 . S
C221 N223 1.279 . S
C221 C224 1.358 . S
C221 H227 0.930 . S
C222 C220 1.353 . S
C222 C225 1.348 . S
C222 H260 0.929 . S
N223 Li178 1.990 . S
N223 C220 1.314 . S
N223 C221 1.279 . S
C224 C221 1.358 . S
C224 C225 1.356 . S
C224 H261 0.930 . S
C225 C222 1.348 . S
C225 C224 1.356 . S
H226 C220 0.930 . S
H227 C221 0.930 . S
C228 N229 1.314 . S
C228 C230 1.353 . S
C228 H234 0.930 . S
N229 Li179 1.990 . S
N229 C228 1.314 . S
N229 C232 1.279 . S
C230 C228 1.353 . S
C230 C233 1.348 . S
C230 H262 0.929 . S
C231 C232 1.358 . S
C231 C233 1.356 . S
C231 H263 0.930 . S
C232 N229 1.279 . S
C232 C231 1.358 . S
C232 H235 0.930 . S
C233 C230 1.348 . S
C233 C231 1.356 . S
H234 C228 0.930 . S
H235 C232 0.930 . S
O236 Li176 1.956 . S
O236 Li177 1.970 1_565 S
O236 Li178 1.961 1_455 S
O236 C180 1.325 . S
O237 Li176 1.970 1_545 S
O237 Li177 1.956 . S
O237 Li179 1.961 1_455 S
O237 C186 1.325 . S
O238 Li176 1.961 1_655 S
O238 Li178 1.956 . S
O238 Li179 1.970 1_565 S
O238 C208 1.325 . S
O239 Li177 1.961 1_655 S
O239 Li178 1.970 1_545 S
O239 Li179 1.956 . S
O239 C214 1.325 . S
H240 C182 0.929 . S
H241 C183 0.930 . S
H242 C184 0.930 1_545 S
H243 C185 0.930 . S
H244 C187 0.930 . S
H245 C189 0.929 . S
H246 C190 0.930 . S
H247 C191 0.930 . S
H248 C194 0.930 . S
H249 C197 0.929 . S
H250 C202 0.929 . S
H251 C203 0.930 . S
H252 C210 0.929 . S
H253 C211 0.930 . S
H254 C212 0.930 . S
H255 C213 0.930 . S
H256 C215 0.929 . S
H257 C216 0.930 . S
H258 C217 0.930 1_565 S
H259 C218 0.930 . S
H260 C222 0.929 . S
H261 C224 0.930 . S
H262 C230 0.929 . S
H263 C231 0.930 . S
H264 C283 0.949 . S
H265 C284 0.950 . S
H266 C286 0.950 . S
H267 C287 0.950 . S
H268 C289 0.950 . S
H269 C292 0.950 . S
H270 C293 0.950 . S
H271 C295 0.951 . S
H272 C296 0.949 . S
H273 C298 0.949 . S
H274 C299 0.950 . S
H275 C301 0.950 . S
H276 C302 0.950 . S
H277 C304 0.950 . S
H278 C307 0.950 . S
H279 C308 0.950 . S
H280 C310 0.951 . S
H281 C311 0.949 . S
C282 C283 1.376 . S
C282 C287 1.386 1_455 S
C282 C288 1.483 . S
C283 H264 0.949 . S
C283 C282 1.376 . S
C283 C284 1.397 . S
C284 H265 0.950 . S
C284 C283 1.397 . S
C284 C285 1.391 . S
C285 C284 1.391 . S
C285 C286 1.405 1_455 S
C286 H266 0.950 . S
C286 C285 1.405 1_655 S
C286 C287 1.367 . S
C287 H267 0.950 . S
C287 C282 1.386 1_655 S
C287 C286 1.367 . S
C288 C282 1.483 . S
C288 C289 1.382 . S
C288 C290 1.403 1_455 S
C289 H268 0.950 . S
C289 C288 1.382 . S
C289 C305 1.411 . S
C290 C288 1.403 1_655 S
C290 C291 1.489 . S
C290 C304 1.411 . S
C291 C290 1.489 . S
C291 C292 1.383 1_655 S
C291 C296 1.382 . S
C292 H269 0.950 . S
C292 C291 1.383 1_455 S
C292 C293 1.395 . S
C293 H270 0.950 . S
C293 C292 1.395 . S
C293 C294 1.288 1_455 S
C294 C293 1.288 1_655 S
C294 C295 1.392 . S
C295 H271 0.951 . S
C295 C294 1.392 . S
C295 C296 1.392 . S
C296 H272 0.949 . S
C296 C291 1.382 . S
C296 C295 1.392 . S
C297 C298 1.376 . S
C297 C302 1.386 1_655 S
C297 C303 1.483 . S
C298 H273 0.949 . S
C298 C297 1.376 . S
C298 C299 1.397 . S
C299 H274 0.950 . S
C299 C298 1.397 . S
C299 C300 1.399 . S
C300 C299 1.399 . S
C300 C301 1.390 1_655 S
C301 H275 0.950 . S
C301 C300 1.390 1_455 S
C301 C302 1.367 . S
C302 H276 0.950 . S
C302 C297 1.386 1_455 S
C302 C301 1.367 . S
C303 C297 1.483 . S
C303 C304 1.382 . S
C303 C305 1.403 1_655 S
C304 H277 0.950 . S
C304 C290 1.411 . S
C304 C303 1.382 . S
C305 C289 1.411 . S
C305 C303 1.403 1_455 S
C305 C306 1.489 . S
C306 C305 1.489 . S
C306 C307 1.383 1_455 S
C306 C311 1.382 . S
C307 H278 0.950 . S
C307 C306 1.383 1_655 S
C307 C308 1.395 . S
C308 H279 0.950 . S
C308 C307 1.395 . S
C308 C309 1.288 1_655 S
C309 C308 1.288 1_455 S
C309 C310 1.392 . S
C310 H280 0.951 . S
C310 C309 1.392 . S
C310 C311 1.392 . S
C311 H281 0.949 . S
C311 C306 1.382 . S
C311 C310 1.392 . S
H312 C331 0.949 . S
H313 C332 0.950 . S
H314 C334 0.950 . S
H315 C335 0.950 . S
H316 C337 0.950 . S
H317 C340 0.950 . S
H318 C341 0.950 . S
H319 C343 0.951 . S
H320 C344 0.949 . S
H321 C346 0.949 . S
H322 C347 0.950 . S
H323 C349 0.950 . S
H324 C350 0.950 . S
H325 C352 0.950 . S
H326 C355 0.950 . S
H327 C356 0.950 . S
H328 C358 0.951 . S
H329 C359 0.949 . S
C330 C331 1.376 . S
C330 C335 1.386 1_545 S
C330 C336 1.483 . S
C331 H312 0.949 . S
C331 C330 1.376 . S
C331 C332 1.397 . S
C332 H313 0.950 . S
C332 C331 1.397 . S
C332 C333 1.391 . S
C333 C332 1.391 . S
C333 C334 1.405 1_545 S
C334 H314 0.950 . S
C334 C333 1.405 1_565 S
C334 C335 1.367 . S
C335 H315 0.950 . S
C335 C330 1.386 1_565 S
C335 C334 1.367 . S
C336 C330 1.483 . S
C336 C337 1.382 . S
C336 C338 1.403 1_545 S
C337 H316 0.950 . S
C337 C336 1.382 . S
C337 C353 1.411 . S
C338 C336 1.403 1_565 S
C338 C339 1.489 . S
C338 C352 1.411 . S
C339 C338 1.489 . S
C339 C340 1.383 1_565 S
C339 C344 1.382 . S
C340 H317 0.950 . S
C340 C339 1.383 1_545 S
C340 C341 1.395 . S
C341 H318 0.950 . S
C341 C340 1.395 . S
C341 C342 1.288 1_545 S
C342 C341 1.288 1_565 S
C342 C343 1.392 . S
C343 H319 0.951 . S
C343 C342 1.392 . S
C343 C344 1.392 . S
C344 H320 0.949 . S
C344 C339 1.382 . S
C344 C343 1.392 . S
C345 C346 1.376 . S
C345 C350 1.386 1_565 S
C345 C351 1.483 . S
C346 H321 0.949 . S
C346 C345 1.376 . S
C346 C347 1.397 . S
C347 H322 0.950 . S
C347 C346 1.397 . S
C347 C348 1.413 . S
C348 C347 1.413 . S
C348 C349 1.393 1_565 S
C349 H323 0.950 . S
C349 C348 1.393 1_545 S
C349 C350 1.367 . S
C350 H324 0.950 . S
C350 C345 1.386 1_545 S
C350 C349 1.367 . S
C351 C345 1.483 . S
C351 C352 1.382 . S
C351 C353 1.403 1_565 S
C352 H325 0.950 . S
C352 C338 1.411 . S
C352 C351 1.382 . S
C353 C337 1.411 . S
C353 C351 1.403 1_545 S
C353 C354 1.489 . S
C354 C353 1.489 . S
C354 C355 1.383 1_545 S
C354 C359 1.382 . S
C355 H326 0.950 . S
C355 C354 1.383 1_565 S
C355 C356 1.395 . S
C356 H327 0.950 . S
C356 C355 1.395 . S
C356 C357 1.288 1_565 S
C357 C356 1.288 1_545 S
C357 C358 1.392 . S
C358 H328 0.951 . S
C358 C357 1.392 . S
C358 C359 1.392 . S
C359 H329 0.949 . S
C359 C354 1.382 . S
C359 C358 1.392 . S
H360 C379 0.949 . S
H361 C380 0.950 . S
H362 C382 0.950 . S
H363 C383 0.950 . S
H364 C385 0.950 . S
H365 C388 0.950 . S
H366 C389 0.950 . S
H367 C391 0.951 . S
H368 C392 0.949 . S
H369 C394 0.949 . S
H370 C395 0.950 . S
H371 C397 0.950 . S
H372 C398 0.950 . S
H373 C400 0.950 . S
H374 C403 0.950 . S
H375 C404 0.950 . S
H376 C406 0.951 . S
H377 C407 0.949 . S
C378 C379 1.376 . S
C378 C383 1.386 . S
C378 C384 1.483 . S
C379 H360 0.949 . S
C379 C378 1.376 . S
C379 C380 1.397 . S
C380 H361 0.950 . S
C380 C379 1.397 . S
C380 C381 1.391 . S
C381 C380 1.391 . S
C381 C382 1.405 . S
C382 H362 0.950 . S
C382 C381 1.405 . S
C382 C383 1.367 . S
C383 H363 0.950 . S
C383 C378 1.386 . S
C383 C382 1.367 . S
C384 C378 1.483 . S
C384 C385 1.382 . S
C384 C386 1.403 . S
C385 H364 0.950 . S
C385 C384 1.382 . S
C385 C401 1.411 . S
C386 C384 1.403 . S
C386 C387 1.489 . S
C386 C400 1.411 . S
C387 C386 1.489 . S
C387 C388 1.383 . S
C387 C392 1.382 . S
C388 H365 0.950 . S
C388 C387 1.383 . S
C388 C389 1.395 . S
C389 H366 0.950 . S
C389 C388 1.395 . S
C389 C390 1.288 . S
C390 C389 1.288 . S
C390 C391 1.392 . S
C391 H367 0.951 . S
C391 C390 1.392 . S
C391 C392 1.392 . S
C392 H368 0.949 . S
C392 C387 1.382 . S
C392 C391 1.392 . S
C393 C394 1.376 . S
C393 C398 1.386 . S
C393 C399 1.483 . S
C394 H369 0.949 . S
C394 C393 1.376 . S
C394 C395 1.397 . S
C395 H370 0.950 . S
C395 C394 1.397 . S
C395 C396 1.391 . S
C396 C395 1.391 . S
C396 C397 1.405 . S
C397 H371 0.950 . S
C397 C396 1.405 . S
C397 C398 1.367 . S
C398 H372 0.950 . S
C398 C393 1.386 . S
C398 C397 1.367 . S
C399 C393 1.483 . S
C399 C400 1.382 . S
C399 C401 1.403 . S
C400 H373 0.950 . S
C400 C386 1.411 . S
C400 C399 1.382 . S
C401 C385 1.411 . S
C401 C399 1.403 . S
C401 C402 1.489 . S
C402 C401 1.489 . S
C402 C403 1.383 . S
C402 C407 1.382 . S
C403 H374 0.950 . S
C403 C402 1.383 . S
C403 C404 1.395 . S
C404 H375 0.950 . S
C404 C403 1.395 . S
C404 C405 1.288 . S
C405 C404 1.288 . S
C405 C406 1.392 . S
C406 H376 0.951 . S
C406 C405 1.392 . S
C406 C407 1.392 . S
C407 H377 0.949 . S
C407 C402 1.382 . S
C407 C406 1.392 . S
C408 C409 1.369 . S
C408 C410 1.419 . S
C408 H412 0.930 . S
C409 C408 1.369 . S
C409 C418 1.429 . S
C410 C408 1.419 . S
C410 C411 1.363 . S
C410 H413 0.929 . S
C411 C410 1.363 . S
C411 C417 1.428 . S
H412 C408 0.930 . S
H413 C410 0.929 . S
S414 N415 1.613 . S
S414 N416 1.610 . S
N415 S414 1.613 . S
N415 C418 1.350 . S
N416 S414 1.610 . S
N416 C417 1.351 . S
C417 C411 1.428 . S
C417 N416 1.351 . S
C417 C418 1.434 . S
C418 C409 1.429 . S
C418 N415 1.350 . S
C418 C417 1.434 . S
C419 C420 1.369 . S
C419 C421 1.419 . S
C419 H423 0.930 . S
C420 C419 1.369 . S
C420 C429 1.429 1_565 S
C421 C419 1.419 . S
C421 C422 1.363 . S
C421 H424 0.929 . S
C422 C421 1.363 . S
C422 C428 1.428 1_565 S
H423 C419 0.930 . S
H424 C421 0.929 . S
S425 N426 1.613 . S
S425 N427 1.610 . S
N426 S425 1.613 . S
N426 C429 1.350 . S
N427 S425 1.610 . S
N427 C428 1.351 . S
C428 C422 1.428 1_545 S
C428 N427 1.351 . S
C428 C429 1.434 . S
C429 C420 1.429 1_545 S
C429 N426 1.350 . S
C429 C428 1.434 . S
C430 C431 1.369 . S
C430 C432 1.419 . S
C430 H434 0.930 . S
C431 C430 1.369 . S
C431 C440 1.429 . S
C432 C430 1.419 . S
C432 C433 1.363 . S
C432 H435 0.929 . S
C433 C432 1.363 . S
C433 C439 1.428 . S
H434 C430 0.930 . S
H435 C432 0.929 . S
S436 N437 1.613 . S
S436 N438 1.610 . S
N437 S436 1.613 . S
N437 C440 1.350 . S
N438 S436 1.610 . S
N438 C439 1.351 . S
C439 C433 1.428 . S
C439 N438 1.351 . S
C439 C440 1.434 . S
C440 C431 1.429 . S
C440 N437 1.350 . S
C440 C439 1.434 . S
C441 C442 1.369 . S
C441 C443 1.419 . S
C441 H445 0.930 . S
C442 C441 1.369 . S
C442 C451 1.429 . S
C443 C441 1.419 . S
C443 C444 1.363 . S
C443 H446 0.929 . S
C444 C443 1.363 . S
C444 C450 1.428 . S
H445 C441 0.930 . S
H446 C443 0.929 . S
S447 N448 1.613 1_655 S
S447 N449 1.610 . S
N448 S447 1.613 1_455 S
N448 C451 1.350 . S
N449 S447 1.610 . S
N449 C450 1.351 1_655 S
C450 C444 1.428 . S
C450 N449 1.351 1_455 S
C450 C451 1.434 . S
C451 C442 1.429 . S
C451 N448 1.350 . S
C451 C450 1.434 . S
C452 C453 1.369 . S
C452 C454 1.419 . S
C452 H456 0.930 . S
C453 C452 1.369 . S
C453 C462 1.429 . S
C454 C452 1.419 . S
C454 C455 1.363 . S
C454 H457 0.929 1_545 S
C455 C454 1.363 . S
C455 C461 1.428 . S
H456 C452 0.930 . S
H457 C454 0.929 1_565 S
S458 N459 1.613 . S
S458 N460 1.610 . S
N459 S458 1.613 . S
N459 C462 1.350 . S
N460 S458 1.610 . S
N460 C461 1.351 . S
C461 C455 1.428 . S
C461 N460 1.351 . S
C461 C462 1.434 . S
C462 C453 1.429 . S
C462 N459 1.350 . S
C462 C461 1.434 . S
C463 C464 1.369 . S
C463 C465 1.419 . S
C463 H467 0.930 . S
C464 C463 1.369 . S
C464 C473 1.429 . S
C465 C463 1.419 . S
C465 C466 1.363 . S
C465 H468 0.929 . S
C466 C465 1.363 . S
C466 C472 1.428 . S
H467 C463 0.930 . S
H468 C465 0.929 . S
S469 N470 1.613 . S
S469 N471 1.610 . S
N470 S469 1.613 . S
N470 C473 1.350 . S
N471 S469 1.610 . S
N471 C472 1.351 . S
C472 C466 1.428 . S
C472 N471 1.351 . S
C472 C473 1.434 . S
C473 C464 1.429 . S
C473 N470 1.350 . S
C473 C472 1.434 . S
C474 C475 1.369 . S
C474 C476 1.419 . S
C474 H478 0.930 . S
C475 C474 1.369 . S
C475 C484 1.424 1_545 S
C476 C474 1.419 . S
C476 C477 1.363 . S
C476 H479 0.929 . S
C477 C476 1.363 . S
C477 C483 1.428 1_545 S
H478 C474 0.930 . S
H479 C476 0.929 . S
S480 N481 1.613 . S
S480 N482 1.610 . S
N481 S480 1.613 . S
N481 C484 1.355 . S
N482 S480 1.610 . S
N482 C483 1.351 . S
C483 C477 1.428 1_565 S
C483 N482 1.351 . S
C483 C484 1.433 . S
C484 C475 1.424 1_565 S
C484 N481 1.355 . S
C484 C483 1.433 . S
C485 C486 1.369 . S
C485 C487 1.419 . S
C485 H489 0.930 . S
C486 C485 1.369 . S
C486 C495 1.429 . S
C487 C485 1.419 . S
C487 C488 1.363 . S
C487 H490 0.929 . S
C488 C487 1.363 . S
C488 C494 1.428 . S
H489 C485 0.930 . S
H490 C487 0.929 . S
S491 N492 1.613 . S
S491 N493 1.610 . S
N492 S491 1.613 . S
N492 C495 1.350 . S
N493 S491 1.610 . S
N493 C494 1.351 . S
C494 C488 1.428 . S
C494 N493 1.351 . S
C494 C495 1.434 . S
C495 C486 1.429 . S
C495 N492 1.350 . S
C495 C494 1.434 . S
C496 C497 1.369 1_455 S
C496 C498 1.419 . S
C496 H500 0.930 . S
C497 C496 1.369 1_655 S
C497 C506 1.429 . S
C498 C496 1.419 . S
C498 C499 1.363 1_455 S
C498 H501 0.929 . S
C499 C498 1.363 1_655 S
C499 C505 1.428 . S
H500 C496 0.930 . S
H501 C498 0.929 . S
S502 N503 1.613 . S
S502 N504 1.610 . S
N503 S502 1.613 . S
N503 C506 1.350 . S
N504 S502 1.610 . S
N504 C505 1.351 . S
C505 C499 1.428 . S
C505 N504 1.351 . S
C505 C506 1.434 . S
C506 C497 1.429 . S
C506 N503 1.350 . S
C506 C505 1.434 . S
C507 C508 1.369 . S
C507 C509 1.419 . S
C507 H511 0.930 . S
C508 C507 1.369 . S
C508 C517 1.429 1_565 S
C509 C507 1.419 . S
C509 C510 1.363 . S
C509 H512 0.929 . S
C510 C509 1.363 . S
C510 C516 1.428 1_565 S
H511 C507 0.930 . S
H512 C509 0.929 . S
S513 N514 1.613 . S
S513 N515 1.610 . S
N514 S513 1.613 . S
N514 C517 1.350 . S
N515 S513 1.610 . S
N515 C516 1.351 . S
C516 C510 1.428 1_545 S
C516 N515 1.351 . S
C516 C517 1.434 . S
C517 C508 1.429 1_545 S
C517 N514 1.350 . S
C517 C516 1.434 . S
C518 C519 1.369 . S
C518 C520 1.419 . S
C518 H522 0.930 . S
C519 C518 1.369 . S
C519 C528 1.429 . S
C520 C518 1.419 . S
C520 C521 1.363 . S
C520 H523 0.929 . S
C521 C520 1.363 . S
C521 C527 1.428 . S
H522 C518 0.930 . S
H523 C520 0.929 . S
S524 N525 1.613 . S
S524 N526 1.610 . S
N525 S524 1.613 . S
N525 C528 1.350 . S
N526 S524 1.610 . S
N526 C527 1.351 . S
C527 C521 1.428 . S
C527 N526 1.351 . S
C527 C528 1.434 . S
C528 C519 1.429 . S
C528 N525 1.350 . S
C528 C527 1.434 . S
C529 C530 1.376 . S
C529 C531 1.414 1_455 S
C529 H533 0.928 1_455 S
C530 C529 1.376 . S
C530 C539 1.429 . S
C531 C529 1.414 1_655 S
C531 C532 1.363 1_655 S
C531 H534 0.929 . S
C532 C531 1.363 1_455 S
C532 C538 1.428 . S
H533 C529 0.928 1_655 S
H534 C531 0.929 . S
S535 N536 1.613 . S
S535 N537 1.610 . S
N536 S535 1.613 . S
N536 C539 1.350 . S
N537 S535 1.610 . S
N537 C538 1.351 . S
C538 C532 1.428 . S
C538 N537 1.351 . S
C538 C539 1.434 . S
C539 C530 1.429 . S
C539 N536 1.350 . S
C539 C538 1.434 . S
C411 C285 1.555 1_655 S
C409 C29 1.520 . S
C420 C137 1.514 . S
C422 C333 1.557 1_565 S
C431 C225 1.522 . S
C433 C405 1.517 . S
C442 C49 1.518 . S
C444 C309 1.521 . S
C455 C357 1.518 . S
C453 C117 1.521 . S
C464 C205 1.516 . S
C466 C381 1.556 . S
C477 C342 1.564 1_545 S
C475 C233 1.515 . S
C486 C57 1.522 . S
C488 C396 1.538 . S
C499 C300 1.549 . S
C497 C108 1.523 . S
C510 C348 1.536 . S
C508 C196 1.515 . S
C521 C390 1.561 . S
C519 C20 1.522 . S
C530 C145 1.522 . S
C532 C294 1.562 1_455 S
