# Generated by pormake.
# Topology ant, (3,6)-cn, num edge types: 1
# Building blocks:
#     Node 0, Type 0, BuildingBlock: VETTIZ_charged_linker_0, # of connection points: 3
#     Node 1, Type 0, BuildingBlock: VETTIZ_charged_linker_0, # of connection points: 3
#     Node 2, Type 0, BuildingBlock: VETTIZ_charged_linker_0, # of connection points: 3
#     Node 3, Type 0, BuildingBlock: VETTIZ_charged_linker_0, # of connection points: 3
#     Node 4, Type 0, BuildingBlock: VETTIZ_charged_linker_0, # of connection points: 3
#     Node 5, Type 0, BuildingBlock: VETTIZ_charged_linker_0, # of connection points: 3
#     Node 6, Type 0, BuildingBlock: VETTIZ_charged_linker_0, # of connection points: 3
#     Node 7, Type 0, BuildingBlock: VETTIZ_charged_linker_0, # of connection points: 3
#     Node 8, Type 1, BuildingBlock: MIDCAF_clean_sbu_0, # of connection points: 6
#     Node 9, Type 1, BuildingBlock: MIDCAF_clean_sbu_0, # of connection points: 6
#     Node 10, Type 1, BuildingBlock: MIDCAF_clean_sbu_0, # of connection points: 6
#     Node 11, Type 1, BuildingBlock: MIDCAF_clean_sbu_0, # of connection points: 6
#     Edge 12, Type (0, 1), BuildingBlock: OJICUG_clean_linker_0, # of connection points: 2
#     Edge 13, Type (0, 1), BuildingBlock: OJICUG_clean_linker_0, # of connection points: 2
#     Edge 14, Type (0, 1), BuildingBlock: OJICUG_clean_linker_0, # of connection points: 2
#     Edge 15, Type (0, 1), BuildingBlock: OJICUG_clean_linker_0, # of connection points: 2
#     Edge 16, Type (0, 1), BuildingBlock: OJICUG_clean_linker_0, # of connection points: 2
#     Edge 17, Type (0, 1), BuildingBlock: OJICUG_clean_linker_0, # of connection points: 2
#     Edge 18, Type (0, 1), BuildingBlock: OJICUG_clean_linker_0, # of connection points: 2
#     Edge 19, Type (0, 1), BuildingBlock: OJICUG_clean_linker_0, # of connection points: 2
#     Edge 20, Type (0, 1), BuildingBlock: OJICUG_clean_linker_0, # of connection points: 2
#     Edge 21, Type (0, 1), BuildingBlock: OJICUG_clean_linker_0, # of connection points: 2
#     Edge 22, Type (0, 1), BuildingBlock: OJICUG_clean_linker_0, # of connection points: 2
#     Edge 23, Type (0, 1), BuildingBlock: OJICUG_clean_linker_0, # of connection points: 2
#     Edge 24, Type (0, 1), BuildingBlock: OJICUG_clean_linker_0, # of connection points: 2
#     Edge 25, Type (0, 1), BuildingBlock: OJICUG_clean_linker_0, # of connection points: 2
#     Edge 26, Type (0, 1), BuildingBlock: OJICUG_clean_linker_0, # of connection points: 2
#     Edge 27, Type (0, 1), BuildingBlock: OJICUG_clean_linker_0, # of connection points: 2
#     Edge 28, Type (0, 1), BuildingBlock: OJICUG_clean_linker_0, # of connection points: 2
#     Edge 29, Type (0, 1), BuildingBlock: OJICUG_clean_linker_0, # of connection points: 2
#     Edge 30, Type (0, 1), BuildingBlock: OJICUG_clean_linker_0, # of connection points: 2
#     Edge 31, Type (0, 1), BuildingBlock: OJICUG_clean_linker_0, # of connection points: 2
#     Edge 32, Type (0, 1), BuildingBlock: OJICUG_clean_linker_0, # of connection points: 2
#     Edge 33, Type (0, 1), BuildingBlock: OJICUG_clean_linker_0, # of connection points: 2
#     Edge 34, Type (0, 1), BuildingBlock: OJICUG_clean_linker_0, # of connection points: 2
#     Edge 35, Type (0, 1), BuildingBlock: OJICUG_clean_linker_0, # of connection points: 2
# Relax obj value: 0.106
# Max RMSD: 0.161
# Mean RMSD: 0.107
data_MOF--net-ant--node1-MIDCAF_clean_sbu_0--node2-VETTIZ_charged_linker_0--edge1-OJICUG_clean_linker_0
_symmetry_space_group_name_H-M    P1
_symmetry_Int_Tables_number       1
_symmetry_cell_setting            triclinic
loop_
_symmetry_equiv_pos_as_xyz
'x, y, z'
_cell_length_a     26.062663
_cell_length_b     26.039701
_cell_length_c     73.186741
_cell_angle_alpha  90.213507
_cell_angle_beta   93.963484
_cell_angle_gamma 90.190134
loop_
_atom_site_label
_atom_site_type_symbol
_atom_site_fract_x
_atom_site_fract_y
_atom_site_fract_z
_atom_type_partial_charge
C0 C 0.19516 0.02992 0.09308 0.0
C1 C 0.20442 0.98309 0.0843 0.0
C2 C 0.2071 0.98184 0.06517 0.0
C3 C 0.18299 0.07122 0.06349 0.0
C4 C 0.18521 0.07374 0.08239 0.0
C5 C 0.17366 0.12687 0.08919 0.0
H6 H 0.11783 0.37392 0.06784 0.0
C7 C 0.16412 0.12083 0.05631 0.0
C8 C 0.15931 0.15404 0.07123 0.0
H9 H 0.16343 0.31067 0.12109 0.0
H10 H 0.16182 0.2253 0.10816 0.0
H11 H 0.18867 0.3054 0.04335 0.0
H12 H 0.03277 0.29074 0.05802 0.0
H13 H 0.03517 0.25494 0.03766 0.0
H14 H 0.04762 0.32327 0.03753 0.0
H15 H 0.13715 0.34914 0.03716 0.0
H16 H 0.14723 0.29338 0.02357 0.0
C17 C 0.22348 0.14906 0.0991 0.0
C18 C 0.12747 0.12377 0.10135 0.0
C19 C 0.12123 0.1418 0.98805 0.0
C20 C 0.09833 0.18196 0.97776 0.0
C21 C 0.07894 0.22484 0.98678 0.0
C22 C 0.0853 0.22931 0.00583 0.0
C23 C 0.11118 0.19043 0.0159 0.0
C24 C 0.12643 0.14652 0.00714 0.0
C25 C 0.14939 0.10755 0.02035 0.0
C26 C 0.14729 0.1364 0.03836 0.0
C27 C 0.12603 0.18531 0.03556 0.0
C28 C 0.20549 0.09695 0.01561 0.0
C29 C 0.11368 0.05974 0.01928 0.0
C30 C 0.12665 0.34179 0.07683 0.0
C31 C 0.14214 0.34955 0.09544 0.0
C32 C 0.15311 0.30621 0.10658 0.0
C33 C 0.15213 0.2566 0.09908 0.0
C34 C 0.1397 0.25003 0.08026 0.0
C35 C 0.12559 0.29198 0.06958 0.0
C36 C 0.11236 0.27746 0.04991 0.0
C37 C 0.12504 0.22057 0.05033 0.0
C38 C 0.14105 0.20479 0.06812 0.0
C39 C 0.14798 0.30793 0.03774 0.0
C40 C 0.05413 0.28725 0.04542 0.0
H41 H 0.19714 0.02193 0.04013 0.0
H42 H 0.1936 0.03176 0.10782 0.0
H43 H 0.0968 0.09853 0.09487 0.0
H44 H 0.10923 0.16142 0.1033 0.0
H45 H 0.13934 0.10767 0.11502 0.0
H46 H 0.25851 0.13051 0.09426 0.0
H47 H 0.22404 0.14313 0.11413 0.0
H48 H 0.22879 0.1904 0.09632 0.0
H49 H 0.13631 0.10846 0.98135 0.0
H50 H 0.06167 0.25642 0.97898 0.0
H51 H 0.07156 0.26364 0.01192 0.0
H52 H 0.22317 0.13169 0.0098 0.0
H53 H 0.20706 0.06556 0.00535 0.0
H54 H 0.23111 0.08742 0.02779 0.0
H55 H 0.07255 0.07135 0.0177 0.0
H56 H 0.11671 0.03617 0.03178 0.0
H57 H 0.12143 0.03516 0.00735 0.0
H58 H 0.21407 0.94603 0.05818 0.0
C59 C 0.19638 0.0257 0.0547 0.0
C60 C 0.18986 0.83063 0.34123 0.0
C61 C 0.23794 0.84179 0.33439 0.0
C62 C 0.23917 0.86061 0.31639 0.0
C63 C 0.1477 0.8456 0.31116 0.0
C64 C 0.14516 0.83321 0.3294 0.0
C65 C 0.09101 0.81986 0.33383 0.0
H66 H 0.84275 0.77362 0.30347 0.0
C67 C 0.0969 0.83536 0.30166 0.0
C68 C 0.06297 0.82156 0.31488 0.0
H69 H 0.9075 0.78505 0.35941 0.0
H70 H 0.99151 0.79998 0.34879 0.0
H71 H 0.90743 0.86672 0.28559 0.0
H72 H 0.92976 0.70413 0.29044 0.0
H73 H 0.96429 0.72217 0.27169 0.0
H74 H 0.89544 0.73105 0.27074 0.0
H75 H 0.86636 0.81802 0.27489 0.0
H76 H 0.92223 0.84033 0.26421 0.0
C77 C 0.07193 0.86206 0.34672 0.0
C78 C 0.09094 0.76508 0.34199 0.0
C79 C 0.08709 0.81123 0.23299 0.0
C80 C 0.05091 0.78619 0.22101 0.0
C81 C 1.00176 0.77499 0.22684 0.0
C82 C 0.98977 0.78658 0.2448 0.0
C83 C 0.02794 0.80791 0.25713 0.0
C84 C 0.07542 0.8205 0.25105 0.0
C85 C 0.11357 0.83627 0.26638 0.0
C86 C 0.08141 0.83049 0.28275 0.0
C87 C 0.03116 0.81445 0.27725 0.0
C88 C 0.12922 0.89294 0.26338 0.0
C89 C 0.15891 0.7976 0.2668 0.0
C90 C 0.87508 0.77891 0.31342 0.0
C91 C 0.86799 0.77937 0.33232 0.0
C92 C 0.9114 0.78603 0.34478 0.0
C93 C 0.9603 0.79467 0.33862 0.0
C94 C 0.96641 0.79612 0.31976 0.0
C95 C 0.92449 0.78745 0.30747 0.0
C96 C 0.93912 0.78871 0.28792 0.0
C97 C 0.99559 0.80384 0.2906 0.0
C98 C 0.01147 0.80743 0.30929 0.0
C99 C 0.90704 0.83049 0.27747 0.0
C100 C 0.93162 0.73395 0.27965 0.0
H101 H 0.19805 0.87506 0.29098 0.0
H102 H 0.18754 0.81739 0.35516 0.0
H103 H 0.11404 0.73866 0.33387 0.0
H104 H 0.05216 0.74789 0.34178 0.0
H105 H 0.1079 0.76506 0.35634 0.0
H106 H 0.09273 0.899 0.34515 0.0
H107 H 0.0778 0.85061 0.36132 0.0
H108 H 0.03092 0.87161 0.34358 0.0
H109 H 0.12555 0.81888 0.2289 0.0
H110 H 0.97351 0.75542 0.21772 0.0
H111 H 0.95209 0.77647 0.24864 0.0
H112 H 0.09812 0.9144 0.25555 0.0
H113 H 0.16424 0.89554 0.2556 0.0
H114 H 0.13572 0.9144 0.27643 0.0
H115 H 0.14438 0.75775 0.26437 0.0
H116 H 0.18162 0.79594 0.28 0.0
H117 H 0.18546 0.80657 0.256 0.0
H118 H 0.27542 0.86967 0.31072 0.0
C119 C 0.19426 0.86294 0.30481 0.0
C120 C 0.8092 0.58896 0.59206 0.0
C121 C 0.8104 0.53832 0.58516 0.0
C122 C 0.79864 0.53001 0.56627 0.0
C123 C 0.7766 0.61948 0.56218 0.0
C124 C 0.79277 0.62906 0.58025 0.0
C125 C 0.78777 0.68521 0.58506 0.0
H126 H 0.70975 0.92437 0.55819 0.0
C127 C 0.75505 0.66721 0.55414 0.0
C128 C 0.76241 0.70645 0.56729 0.0
H129 H 0.78921 0.88067 0.60964 0.0
H130 H 0.78926 0.79224 0.59983 0.0
H131 H 0.77128 0.8515 0.53156 0.0
H132 H 0.63053 0.83547 0.55815 0.0
H133 H 0.62158 0.79812 0.53819 0.0
H134 H 0.63206 0.86651 0.53639 0.0
H135 H 0.71411 0.88811 0.52593 0.0
H136 H 0.72409 0.82668 0.51546 0.0
C137 C 0.84254 0.70733 0.58929 0.0
C138 C 0.75236 0.69004 0.60109 0.0
C139 C 0.65412 0.66024 0.49206 0.0
C140 C 0.6255 0.69734 0.48192 0.0
C141 C 0.62281 0.74769 0.48897 0.0
C142 C 0.64837 0.76107 0.50572 0.0
C143 C 0.67696 0.72378 0.51569 0.0
C144 C 0.67909 0.67422 0.50896 0.0
C145 C 0.71026 0.63955 0.52179 0.0
C146 C 0.72631 0.67663 0.53729 0.0
C147 C 0.70694 0.72589 0.53353 0.0
C148 C 0.75707 0.61966 0.51186 0.0
C149 C 0.67387 0.59678 0.52796 0.0
C150 C 0.72697 0.89594 0.56744 0.0
C151 C 0.75035 0.91028 0.58461 0.0
C152 C 0.77226 0.87139 0.59611 0.0
C153 C 0.77209 0.81981 0.59045 0.0
C154 C 0.74944 0.80645 0.57312 0.0
C155 C 0.72679 0.8442 0.56206 0.0
C156 C 0.70279 0.82285 0.54439 0.0
C157 C 0.71704 0.76653 0.54625 0.0
C158 C 0.74434 0.75693 0.56311 0.0
C159 C 0.72899 0.84863 0.52839 0.0
C160 C 0.64376 0.83128 0.54409 0.0
H161 H 0.77179 0.56087 0.54074 0.0
H162 H 0.81873 0.59674 0.60645 0.0
H163 H 0.71848 0.66409 0.59887 0.0
H164 H 0.73647 0.72898 0.60245 0.0
H165 H 0.77313 0.67937 0.61429 0.0
H166 H 0.87062 0.68865 0.58063 0.0
H167 H 0.85597 0.70095 0.60384 0.0
H168 H 0.84522 0.74864 0.58615 0.0
H169 H 0.65705 0.62134 0.48696 0.0
H170 H 0.60211 0.77738 0.48122 0.0
H171 H 0.64534 0.80017 0.51012 0.0
H172 H 0.76712 0.64602 0.50071 0.0
H173 H 0.74915 0.58127 0.5056 0.0
H174 H 0.7925 0.6177 0.5211 0.0
H175 H 0.63669 0.61345 0.53166 0.0
H176 H 0.68908 0.57598 0.54023 0.0
H177 H 0.66534 0.5684 0.51678 0.0
H178 H 0.79877 0.49163 0.56052 0.0
C179 C 0.78194 0.57021 0.5548 0.0
C180 C 0.73033 0.38087 0.83447 0.0
C181 C 0.77804 0.38698 0.82667 0.0
C182 C 0.77835 0.39593 0.80771 0.0
C183 C 0.68608 0.38345 0.80418 0.0
C184 C 0.68474 0.38005 0.82297 0.0
C185 C 0.63035 0.3737 0.82859 0.0
H186 H 0.37809 0.32781 0.80327 0.0
C187 C 0.63378 0.3734 0.79582 0.0
C188 C 0.60048 0.36884 0.80999 0.0
H189 H 0.446 0.3661 0.85719 0.0
H190 H 0.53006 0.37171 0.84526 0.0
H191 H 0.44228 0.411 0.78069 0.0
H192 H 0.4634 0.25114 0.79319 0.0
H193 H 0.49131 0.26038 0.7723 0.0
H194 H 0.4233 0.27151 0.7737 0.0
H195 H 0.40032 0.36032 0.772 0.0
H196 H 0.4566 0.37787 0.76056 0.0
C197 C 0.61555 0.42283 0.83903 0.0
C198 C 0.62721 0.32386 0.8399 0.0
C199 C 0.61285 0.32683 0.72852 0.0
C200 C 0.57289 0.30318 0.71778 0.0
C201 C 0.52444 0.29697 0.72482 0.0
C202 C 0.51642 0.31324 0.74272 0.0
C203 C 0.55775 0.33452 0.75372 0.0
C204 C 0.60486 0.34129 0.74647 0.0
C205 C 0.6459 0.35923 0.7605 0.0
C206 C 0.61579 0.36209 0.77748 0.0
C207 C 0.56418 0.34802 0.77339 0.0
C208 C 0.66503 0.41286 0.75475 0.0
C209 C 0.68823 0.31738 0.76205 0.0
C210 C 0.41113 0.33707 0.81251 0.0
C211 C 0.40537 0.34684 0.83115 0.0
C212 C 0.44934 0.35913 0.84272 0.0
C213 C 0.49808 0.3624 0.8358 0.0
C214 C 0.50307 0.35349 0.81709 0.0
C215 C 0.46003 0.34106 0.80577 0.0
C216 C 0.47263 0.33341 0.78621 0.0
C217 C 0.52971 0.34608 0.78754 0.0
C218 C 0.54762 0.35689 0.80571 0.0
C219 C 0.44125 0.37241 0.7741 0.0
C220 C 0.46194 0.27637 0.78093 0.0
H221 H 0.73579 0.39941 0.78205 0.0
H222 H 0.72884 0.37506 0.84906 0.0
H223 H 0.64557 0.29151 0.83286 0.0
H224 H 0.5873 0.31174 0.84173 0.0
H225 H 0.64743 0.3286 0.85367 0.0
H226 H 0.63925 0.45645 0.83542 0.0
H227 H 0.6211 0.41758 0.85409 0.0
H228 H 0.57538 0.4347 0.83543 0.0
H229 H 0.65074 0.33072 0.72341 0.0
H230 H 0.49346 0.27818 0.7167 0.0
H231 H 0.47893 0.30704 0.74751 0.0
H232 H 0.63471 0.43378 0.74634 0.0
H233 H 0.69911 0.40966 0.74651 0.0
H234 H 0.67449 0.43833 0.76667 0.0
H235 H 0.67065 0.27836 0.76196 0.0
H236 H 0.71299 0.31933 0.77483 0.0
H237 H 0.71317 0.31952 0.75037 0.0
H238 H 0.81435 0.40074 0.80133 0.0
C239 C 0.73271 0.39438 0.79646 0.0
C240 C 0.07803 0.9338 0.904 0.0
C241 C 0.09456 0.97995 0.91281 0.0
C242 C 0.11912 0.97689 0.93059 0.0
C243 C 0.11053 0.88389 0.93031 0.0
C244 C 0.08598 0.8866 0.91299 0.0
C245 C 0.06978 0.83431 0.90566 0.0
H246 H 0.05491 0.57697 0.92056 0.0
C247 C 0.11292 0.82914 0.93581 0.0
C248 C 0.0886 0.79981 0.92142 0.0
H249 H 1.0023 0.65667 0.87119 0.0
H250 H 0.03137 0.73804 0.885 0.0
H251 H 0.15782 0.62893 0.9241 0.0
H252 H 0.01811 0.65889 0.94972 0.0
H253 H 0.06781 0.66594 0.96698 0.0
H254 H 0.05901 0.60511 0.95531 0.0
H255 H 0.14067 0.59371 0.94378 0.0
H256 H 0.17836 0.65207 0.9459 0.0
C257 C 0.09824 0.82349 0.8882 0.0
C258 C 0.01052 0.83345 0.9025 0.0
C259 C 0.19696 0.77648 -0.00169 0.0
C260 C 0.20239 0.72824 0.00707 0.0
C261 C 0.18532 0.68397 -0.00277 0.0
C262 C 0.16246 0.68733 0.97949 0.0
C263 C 0.1557 0.73552 0.97122 0.0
C264 C 0.17348 0.77913 0.98041 0.0
C265 C 0.16192 0.82694 0.96921 0.0
C266 C 0.1342 0.80439 0.95193 0.0
C267 C 0.13055 0.7509 0.9534 0.0
C268 C 0.2137 0.85226 0.9652 0.0
C269 C 0.1262 0.86174 0.9799 0.0
C270 C 0.0481 0.612 0.91283 0.0
C271 C 0.02478 0.61049 0.89498 0.0
C272 C 0.01934 0.65691 0.88512 0.0
C273 C 0.03642 0.70398 0.89314 0.0
C274 C 0.06009 0.70444 0.91108 0.0
C275 C 0.06574 0.65856 0.92042 0.0
C276 C 0.09474 0.66431 0.93868 0.0
C277 C 0.10479 0.72156 0.93919 0.0
C278 C 0.08421 0.74545 0.92314 0.0
C279 C 0.14538 0.63301 0.93828 0.0
C280 C 0.05853 0.64746 0.95355 0.0
H281 H 0.14615 0.92987 0.95281 0.0
H282 H 0.05974 0.93412 0.89027 0.0
H283 H 0.99251 0.85182 0.91422 0.0
H284 H 0.99447 0.79424 0.90149 0.0
H285 H 0.99778 0.85479 0.88989 0.0
H286 H 0.13857 0.83781 0.88986 0.0
H287 H 0.07897 0.84292 0.87611 0.0
H288 H 0.10133 0.78211 0.88519 0.0
H289 H 0.20955 0.81145 0.00533 0.0
H290 H 0.18709 0.64639 0.00351 0.0
H291 H 0.14952 0.65203 0.97317 0.0
H292 H 0.2421 0.8226 0.96171 0.0
H293 H 0.23029 0.87389 0.97733 0.0
H294 H 0.21048 0.87825 0.95331 0.0
H295 H 0.09926 0.83828 0.9876 0.0
H296 H 0.10111 0.88623 0.97085 0.0
H297 H 0.14876 0.88641 0.98995 0.0
H298 H 0.13153 0.01139 0.93795 0.0
C299 C 0.1273 0.92934 0.93931 0.0
C300 C 0.8193 0.73284 0.1479 0.0
C301 C 0.86702 0.72909 0.15815 0.0
C302 C 0.869 0.73782 0.17719 0.0
C303 C 0.77728 0.75312 0.1756 0.0
C304 C 0.77503 0.74533 0.15688 0.0
C305 C 0.72101 0.75145 0.14828 0.0
H306 H 0.46868 0.79775 0.16055 0.0
C307 C 0.72514 0.76539 0.18085 0.0
C308 C 0.69185 0.7657 0.16489 0.0
H309 H 0.53425 0.75061 0.1106 0.0
H310 H 0.62005 0.7558 0.12576 0.0
H311 H 0.52344 0.72351 0.18335 0.0
H312 H 0.56205 0.88163 0.17542 0.0
H313 H 0.57243 0.86899 0.19899 0.0
H314 H 0.50893 0.86053 0.18786 0.0
H315 H 0.49499 0.77388 0.19594 0.0
H316 H 0.55376 0.74292 0.20426 0.0
C317 C 0.70326 0.69905 0.13997 0.0
C318 C 0.72088 0.79561 0.13423 0.0
C319 C 0.68944 0.7702 0.24807 0.0
C320 C 0.64394 0.77794 0.25683 0.0
C321 C 0.59993 0.79636 0.24679 0.0
C322 C 0.60003 0.8036 0.22787 0.0
C323 C 0.6445 0.79171 0.21893 0.0
C324 C 0.68894 0.77773 0.22909 0.0
C325 C 0.73276 0.76816 0.21721 0.0
C326 C 0.70596 0.7747 0.19821 0.0
C327 C 0.6542 0.78782 0.19934 0.0
C328 C 0.75176 0.71238 0.22051 0.0
C329 C 0.77445 0.81 0.2216 0.0
C330 C 0.50157 0.79038 0.15265 0.0
C331 C 0.49471 0.77455 0.13429 0.0
C332 C 0.53858 0.76316 0.12475 0.0
C333 C 0.58826 0.76573 0.13363 0.0
C334 C 0.59407 0.77863 0.15236 0.0
C335 C 0.551 0.79127 0.16144 0.0
C336 C 0.56298 0.79886 0.18163 0.0
C337 C 0.62039 0.78891 0.18328 0.0
C338 C 0.63881 0.77755 0.1661 0.0
C339 C 0.5322 0.75817 0.19196 0.0
C340 C 0.55073 0.8553 0.1864 0.0
H341 H 0.82877 0.75567 0.20044 0.0
H342 H 0.8166 0.72685 0.13321 0.0
H343 H 0.74351 0.82891 0.14001 0.0
H344 H 0.68197 0.81047 0.13052 0.0
H345 H 0.73834 0.78311 0.12153 0.0
H346 H 0.71901 0.66676 0.14853 0.0
H347 H 0.71662 0.694 0.12599 0.0
H348 H 0.66116 0.6938 0.13944 0.0
H349 H 0.72362 0.75602 0.25565 0.0
H350 H 0.56454 0.8023 0.25345 0.0
H351 H 0.56473 0.81569 0.22081 0.0
H352 H 0.71854 0.68553 0.22085 0.0
H353 H 0.77487 0.70925 0.23379 0.0
H354 H 0.77506 0.69773 0.20963 0.0
H355 H 0.75849 0.84432 0.22828 0.0
H356 H 0.79055 0.82512 0.20905 0.0
H357 H 0.80632 0.79523 0.23098 0.0
H358 H 0.90499 0.73457 0.18544 0.0
C359 C 0.82458 0.74994 0.18592 0.0
C360 C 0.538 0.37309 0.40305 0.0
C361 C 0.55588 0.41805 0.41239 0.0
C362 C 0.58032 0.41297 0.43009 0.0
C363 C 0.56835 0.32046 0.42886 0.0
C364 C 0.54418 0.32502 0.41156 0.0
C365 C 0.52624 0.27362 0.40381 0.0
H366 H 0.50404 0.01569 0.41659 0.0
C367 C 0.56801 0.26555 0.43399 0.0
C368 C 0.5427 0.23776 0.41949 0.0
H369 H 0.46073 0.10001 0.36727 0.0
H370 H 0.48664 0.17996 0.38259 0.0
H371 H 0.60687 0.06657 0.42269 0.0
H372 H 0.46473 0.10002 0.44668 0.0
H373 H 0.51392 0.10263 0.46436 0.0
H374 H 0.50191 0.0434 0.45191 0.0
H375 H 0.5843 0.02864 0.44093 0.0
H376 H 0.62394 0.08488 0.44535 0.0
C377 C 0.55544 0.26245 0.38654 0.0
C378 C 0.46712 0.27522 0.4002 0.0
C379 C 0.65385 0.21039 0.49516 0.0
C380 C 0.65813 0.16292 0.50426 0.0
C381 C 0.63589 0.11894 0.49568 0.0
C382 C 0.60992 0.12226 0.47827 0.0
C383 C 0.60584 0.17014 0.46939 0.0
C384 C 0.6276 0.21314 0.47789 0.0
C385 C 0.61788 0.26113 0.46682 0.0
C386 C 0.58771 0.23967 0.45001 0.0
C387 C 0.5808 0.1865 0.45161 0.0
C388 C 0.67058 0.28328 0.46212 0.0
C389 C 0.58508 0.29816 0.47788 0.0
C390 C 0.49826 0.0515 0.40924 0.0
C391 C 0.47908 0.05165 0.39085 0.0
C392 C 0.47472 0.09901 0.38155 0.0
C393 C 0.49019 0.14524 0.39042 0.0
C394 C 0.51121 0.14396 0.40868 0.0
C395 C 0.51473 0.0974 0.41771 0.0
C396 C 0.54221 0.10166 0.43634 0.0
C397 C 0.55422 0.15853 0.43723 0.0
C398 C 0.5356 0.18365 0.42113 0.0
C399 C 0.59176 0.0686 0.43653 0.0
C400 C 0.50413 0.08584 0.45068 0.0
H401 H 0.60554 0.36371 0.4518 0.0
H402 H 0.51975 0.37505 0.38933 0.0
H403 H 0.44912 0.29363 0.4119 0.0
H404 H 0.44958 0.23671 0.39873 0.0
H405 H 0.45602 0.29774 0.38769 0.0
H406 H 0.59591 0.27629 0.38841 0.0
H407 H 0.53697 0.28207 0.37435 0.0
H408 H 0.55834 0.22102 0.38356 0.0
H409 H 0.66907 0.24526 0.50162 0.0
H410 H 0.6384 0.08206 0.50247 0.0
H411 H 0.5937 0.08744 0.47248 0.0
H412 H 0.69671 0.25193 0.45827 0.0
H413 H 0.68962 0.30395 0.47406 0.0
H414 H 0.66785 0.3094 0.45027 0.0
H415 H 0.56134 0.27681 0.48741 0.0
H416 H 0.55681 0.31998 0.46904 0.0
H417 H 0.60977 0.32551 0.48622 0.0
H418 H 0.59374 0.44652 0.43782 0.0
C419 C 0.58674 0.36466 0.4383 0.0
C420 C 0.36368 0.28423 0.64802 0.0
C421 C 0.41344 0.27695 0.65646 0.0
C422 C 0.42075 0.27996 0.67568 0.0
C423 C 0.33082 0.30035 0.67773 0.0
C424 C 0.3229 0.29577 0.65892 0.0
C425 C 0.2673 0.30487 0.65247 0.0
H426 H 0.02964 0.37999 0.67484 0.0
C427 C 0.28246 0.31757 0.68498 0.0
C428 C 0.24514 0.32161 0.67024 0.0
H429 H 0.06782 0.30216 0.62539 0.0
H430 H 0.1588 0.30784 0.63524 0.0
H431 H 0.07108 0.31909 0.69852 0.0
H432 H 0.14003 0.45565 0.68095 0.0
H433 H 0.15405 0.45058 0.70482 0.0
H434 H 0.08796 0.44885 0.69562 0.0
H435 H 0.0763 0.3731 0.71356 0.0
H436 H 0.12382 0.32282 0.71456 0.0
C437 C 0.24376 0.25331 0.64523 0.0
C438 C 0.26439 0.34824 0.63811 0.0
C439 C 0.262 0.32755 0.75329 0.0
C440 C 0.22139 0.34587 0.76317 0.0
C441 C 0.18322 0.37687 0.75432 0.0
C442 C 0.18222 0.38486 0.73546 0.0
C443 C 0.21963 0.36148 0.72541 0.0
C444 C 0.26086 0.33685 0.73438 0.0
C445 C 0.29953 0.31967 0.72125 0.0
C446 C 0.2706 0.33172 0.70293 0.0
C447 C 0.22332 0.35498 0.70559 0.0
C448 C 0.30878 0.26133 0.72364 0.0
C449 C 0.34897 0.3528 0.72474 0.0
C450 C 0.05748 0.36465 0.66596 0.0
C451 C 0.04122 0.33975 0.6495 0.0
C452 C 0.07905 0.32136 0.6382 0.0
C453 C 0.13172 0.32367 0.64411 0.0
C454 C 0.14652 0.3434 0.66164 0.0
C455 C 0.10942 0.36388 0.67213 0.0
C456 C 0.13001 0.37708 0.69125 0.0
C457 C 0.1852 0.35888 0.69083 0.0
C458 C 0.19538 0.34091 0.67332 0.0
C459 C 0.0989 0.34689 0.70523 0.0
C460 C 0.12774 0.43614 0.69344 0.0
H461 H 0.3879 0.29409 0.70085 0.0
H462 H 0.35688 0.28139 0.63329 0.0
H463 H 0.2869 0.38224 0.64333 0.0
H464 H 0.22461 0.36142 0.63481 0.0
H465 H 0.28038 0.33537 0.62518 0.0
H466 H 0.26515 0.21978 0.65123 0.0
H467 H 0.2445 0.25036 0.6301 0.0
H468 H 0.20382 0.24777 0.6491 0.0
H469 H 0.29233 0.30463 0.75999 0.0
H470 H 0.15187 0.39165 0.76177 0.0
H471 H 0.15105 0.40678 0.72926 0.0
H472 H 0.2715 0.24041 0.72367 0.0
H473 H 0.33116 0.25328 0.73679 0.0
H474 H 0.32968 0.24448 0.71247 0.0
H475 H 0.34257 0.38705 0.73342 0.0
H476 H 0.36251 0.36847 0.71184 0.0
H477 H 0.38064 0.33049 0.73184 0.0
H478 H 0.45868 0.27488 0.68246 0.0
C479 C 0.37982 0.29181 0.68633 0.0
Zn480 Zn 0.22733 0.63305 0.14651 0.0
Zn481 Zn 0.11468 0.68586 0.09905 0.0
Zn482 Zn 0.17483 0.6736 0.12154 0.0
C483 C 0.20057 0.67957 0.08142 0.0
C484 C 0.169 0.77899 0.10741 0.0
O485 O 0.14052 0.70364 0.14525 0.0
O486 O 0.18847 0.66441 0.16697 0.0
C487 C 0.18307 0.55597 0.12237 0.0
O488 O 0.21414 0.69988 0.0971 0.0
O489 O 0.15811 0.65559 0.07965 0.0
O490 O 0.12271 0.76484 0.1041 0.0
O491 O 0.20355 0.7438 0.10983 0.0
O492 O 0.20993 0.56158 0.13734 0.0
O493 O 0.16626 0.59532 0.11358 0.0
O494 O 0.24777 0.71267 0.11695 0.0
O495 O 0.29167 0.66744 0.13828 0.0
C496 C 0.29066 0.70077 0.12569 0.0
O497 O 0.09866 0.69709 0.13069 0.0
O498 O 0.0529 0.65373 0.1094 0.0
C499 C 0.15256 0.69522 0.16224 0.0
C500 C 0.05497 0.67888 0.12428 0.0
Zn501 Zn 0.4985 0.67219 0.34503 0.0
Zn502 Zn 0.59848 0.79183 0.3848 0.0
Zn503 Zn 0.55106 0.73451 0.36636 0.0
C504 C 0.52585 0.85316 0.37091 0.0
C505 C 0.66984 0.76371 0.36324 0.0
O506 O 0.54699 0.65746 0.38039 0.0
O507 O 0.50905 0.60803 0.35881 0.0
C508 C 0.43156 0.7505 0.3542 0.0
O509 O 0.50602 0.80767 0.36949 0.0
O510 O 0.57338 0.85799 0.37485 0.0
O511 O 0.66988 0.77631 0.37989 0.0
O512 O 0.62692 0.75098 0.35451 0.0
O513 O 0.43105 0.70634 0.34701 0.0
O514 O 0.47409 0.76993 0.36116 0.0
O515 O 0.59146 0.73176 0.34115 0.0
O516 O 0.53816 0.68477 0.32311 0.0
C517 C 0.5783 0.71208 0.32535 0.0
O518 O 0.56547 0.69575 0.39291 0.0
O519 O 0.57335 0.76845 0.40834 0.0
C520 C 0.53036 0.61293 0.37473 0.0
C521 C 0.56779 0.72033 0.40822 0.0
Zn522 Zn 0.67439 0.29249 0.59794 0.0
Zn523 Zn 0.76372 0.1798 0.64585 0.0
Zn524 Zn 0.72228 0.23552 0.61877 0.0
C525 C 0.83467 0.25832 0.63848 0.0
C526 C 0.75031 0.11563 0.61474 0.0
O527 O 0.64223 0.25127 0.62711 0.0
O528 O 0.60106 0.28243 0.60228 0.0
C529 C 0.75198 0.35209 0.61204 0.0
O530 O 0.79879 0.27117 0.62636 0.0
O531 O 0.82836 0.22039 0.64881 0.0
O532 O 0.76534 0.11519 0.63152 0.0
O533 O 0.73299 0.15733 0.60716 0.0
O534 O 0.70537 0.35801 0.60674 0.0
O535 O 0.76944 0.30648 0.61526 0.0
O536 O 0.714 0.19154 0.5931 0.0
O537 O 0.70069 0.26011 0.57582 0.0
C538 C 0.71027 0.21275 0.57724 0.0
O539 O 0.67406 0.23782 0.64246 0.0
O540 O 0.71203 0.18993 0.66432 0.0
C541 C 0.5999 0.26546 0.61834 0.0
C542 C 0.67617 0.21983 0.6589 0.0
Zn543 Zn 0.04443 0.23031 0.8419 0.0
Zn544 Zn 0.14489 0.35146 0.89139 0.0
Zn545 Zn 0.09158 0.29562 0.86653 0.0
C546 C 0.12092 0.26039 0.9081 0.0
C547 C 0.056 0.40736 0.87972 0.0
O548 O 0.13697 0.29426 0.84269 0.0
O549 O 0.09299 0.24508 0.82236 0.0
C550 C 0.06829 0.17115 0.87244 0.0
O551 O 0.09981 0.25138 0.89198 0.0
O552 O 0.14399 0.30222 0.91173 0.0
O553 O 0.0965 0.40974 0.89019 0.0
O554 O 0.04553 0.36686 0.86995 0.0
O555 O 0.05067 0.16553 0.85605 0.0
O556 O 0.08288 0.2161 0.87839 0.0
O557 O 0.01597 0.33131 0.85911 0.0
O558 O 0.97811 0.26852 0.84262 0.0
C559 C 0.97587 0.31188 0.85035 0.0
O560 O 0.16926 0.31556 0.85692 0.0
O561 O 0.20961 0.35984 0.87944 0.0
C562 C 0.13078 0.27441 0.82656 0.0
C563 C 0.20971 0.3394 0.86379 0.0
C564 C 0.11968 0.44379 0.09639 0.0
C565 C 0.15064 0.40248 0.10281 0.0
H566 H 0.10598 0.52495 0.09735 0.0
C567 C 0.19206 0.41256 0.11568 0.0
H568 H 0.08705 0.43749 0.08666 0.0
C569 C 0.20219 0.46235 0.122 0.0
C570 C 0.17175 0.50359 0.11541 0.0
H571 H 0.21764 0.3822 0.12061 0.0
H572 H 0.23459 0.46862 0.13185 0.0
C573 C 0.1304 0.49392 0.10252 0.0
C574 C 0.77771 0.74212 0.33147 0.0
C575 C 0.8157 0.77586 0.33926 0.0
H576 H 0.70143 0.7111 0.33303 0.0
C577 C 0.80375 0.80676 0.35412 0.0
H578 H 0.78569 0.71774 0.32 0.0
C579 C 0.75619 0.80275 0.36152 0.0
C580 C 0.71868 0.76819 0.35417 0.0
H581 H 0.83125 0.83435 0.36012 0.0
H582 H 0.74883 0.82704 0.3731 0.0
C583 C 0.72947 0.73834 0.33888 0.0
C584 C 0.8377 0.44751 0.59215 0.0
C585 C 0.81374 0.49305 0.59753 0.0
H586 H 0.83724 0.3652 0.59313 0.0
C587 C 0.78178 0.49102 0.6122 0.0
H588 H 0.86313 0.44801 0.58105 0.0
C589 C 0.76745 0.44366 0.61919 0.0
C590 C 0.78528 0.39776 0.61179 0.0
H591 H 0.76265 0.52521 0.61671 0.0
H592 H 0.73773 0.44274 0.62884 0.0
C593 C 0.82347 0.40004 0.59923 0.0
C594 C 0.83272 0.32923 0.84683 0.0
C595 C 0.8275 0.37576 0.83727 0.0
H596 H 0.88453 0.27267 0.85846 0.0
C597 C 0.87184 0.40574 0.83512 0.0
H598 H 0.79952 0.30501 0.84854 0.0
C599 C 0.92075 0.38746 0.84114 0.0
C600 C 0.92589 0.33855 0.84901 0.0
H601 H 0.86892 0.44182 0.82782 0.0
H602 H 0.95455 0.40953 0.83826 0.0
C603 C 0.88143 0.31058 0.85244 0.0
C604 C 0.99048 0.52085 0.89709 0.0
C605 C 0.01259 0.55925 0.8866 0.0
H606 H 0.98576 0.44025 0.90262 0.0
C607 C 0.03409 0.54483 0.87026 0.0
H608 H 0.9731 0.53085 0.90965 0.0
C609 C 0.04029 0.4927 0.86605 0.0
C610 C 0.02508 0.45449 0.8781 0.0
H611 H 0.05161 0.57338 0.86193 0.0
H612 H 0.06292 0.48256 0.85471 0.0
C613 C 0.99708 0.46889 0.89296 0.0
C614 C 0.91542 0.67698 0.13605 0.0
C615 C 0.91492 0.71623 0.14927 0.0
H616 H 0.96032 0.63367 0.11803 0.0
C617 C 0.96097 0.74253 0.15433 0.0
H618 H 0.88068 0.6557 0.13201 0.0
C619 C 1.00643 0.72991 0.14636 0.0
C620 C 1.00717 0.69037 0.1333 0.0
H621 H 0.96174 0.77356 0.16425 0.0
H622 H 0.04066 0.75212 0.15008 0.0
C623 C 0.96111 0.66413 0.12817 0.0
C624 C 0.58531 0.50946 0.40684 0.0
C625 C 0.54833 0.46994 0.40389 0.0
H626 H 0.60853 0.58612 0.40009 0.0
C627 C 0.50385 0.48029 0.39256 0.0
H628 H 0.62034 0.50297 0.41534 0.0
C629 C 0.49758 0.52757 0.38379 0.0
C630 C 0.53513 0.56633 0.38627 0.0
H631 H 0.47374 0.45175 0.39034 0.0
H632 H 0.46336 0.53357 0.37479 0.0
C633 C 0.57861 0.55728 0.39819 0.0
C634 C 0.95931 0.30726 0.66105 0.0
C635 C 0.9859 0.32501 0.6462 0.0
H636 H 0.89096 0.2737 0.67018 0.0
C637 C 0.96015 0.32475 0.62862 0.0
H638 H 0.9779 0.30557 0.67473 0.0
C639 C 0.90937 0.30602 0.62601 0.0
C640 C 0.88405 0.28665 0.6409 0.0
H641 H 0.97952 0.33807 0.61689 0.0
H642 H 0.89103 0.3042 0.61229 0.0
C643 C 0.90933 0.2885 0.65844 0.0
C644 C 0.46637 0.3028 0.63074 0.0
C645 C 0.45856 0.2698 0.64542 0.0
H646 H 0.51753 0.32767 0.61088 0.0
C647 C 0.49616 0.23278 0.65034 0.0
H648 H 0.43826 0.33193 0.62672 0.0
C649 C 0.54132 0.22994 0.6411 0.0
C650 C 0.55045 0.26495 0.62716 0.0
H651 H 0.4908 0.20635 0.66145 0.0
H652 H 0.56925 0.20058 0.64498 0.0
C653 C 0.51187 0.30048 0.62172 0.0
C654 C 0.43153 0.71203 0.11969 0.0
C655 C 0.44189 0.76171 0.12656 0.0
H656 H 0.37431 0.65383 0.11392 0.0
C657 C 0.40025 0.79462 0.12929 0.0
H658 H 0.46263 0.68558 0.11765 0.0
C659 C 0.34945 0.77657 0.1268 0.0
C660 C 0.33974 0.72522 0.12182 0.0
H661 H 0.40714 0.83311 0.13458 0.0
H662 H 0.31827 0.80121 0.13042 0.0
C663 C 0.38095 0.6938 0.11756 0.0
C664 C 0.31877 0.30552 0.83412 0.0
C665 C 0.35371 0.34577 0.83851 0.0
H666 H 0.24615 0.27103 0.83909 0.0
C667 C 0.33938 0.385 0.85031 0.0
H668 H 0.32895 0.27455 0.82515 0.0
C669 C 0.29184 0.38347 0.85793 0.0
C670 C 0.25739 0.34264 0.85399 0.0
H671 H 0.36507 0.41695 0.85369 0.0
H672 H 0.2823 0.41412 0.86715 0.0
C673 C 0.2712 0.30372 0.84195 0.0
C674 C 0.28943 0.77475 0.35141 0.0
C675 C 0.28667 0.82472 0.34425 0.0
H676 H 0.338 0.7123 0.3602 0.0
C677 C 0.33247 0.85335 0.34349 0.0
H678 H 0.25513 0.75139 0.35201 0.0
C679 C 0.38026 0.83076 0.3483 0.0
C680 C 0.38279 0.77915 0.35372 0.0
H681 H 0.33151 0.89205 0.33812 0.0
H682 H 0.41507 0.85221 0.34631 0.0
C683 C 0.33698 0.75213 0.35595 0.0
C684 C 0.71086 0.99901 0.58599 0.0
C685 C 0.75201 0.96525 0.59058 0.0
H686 H 0.67829 0.07377 0.58987 0.0
C687 C 0.79462 0.98416 0.60142 0.0
H688 H 0.67715 0.9859 0.5778 0.0
C689 C 0.79478 0.03406 0.60841 0.0
C690 C 0.75288 0.06689 0.60447 0.0
H691 H 0.82774 0.96015 0.6048 0.0
H692 H 0.82737 0.04668 0.61733 0.0
C693 C 0.71146 0.0495 0.59281 0.0
C694 C 0.23932 0.89612 0.09224 0.0
C695 C 0.20203 0.93416 0.0942 0.0
H696 H 0.25843 0.81649 0.09537 0.0
C697 C 0.15709 0.92205 0.1028 0.0
H698 H 0.27411 0.90475 0.08554 0.0
C699 C 0.14751 0.87166 0.10793 0.0
C700 C 0.18321 0.83293 0.10488 0.0
H701 H 0.12756 0.9507 0.10425 0.0
H702 H 0.1112 0.86257 0.11356 0.0
C703 C 0.23028 0.84582 0.0978 0.0
C704 C 0.45002 0.95947 0.38943 0.0
C705 C 0.47298 1.00161 0.38107 0.0
H706 H 0.44746 0.87738 0.39204 0.0
C707 C 0.50103 0.99267 0.36568 0.0
H708 H 0.42792 0.96533 0.40126 0.0
C709 C 0.51232 0.94246 0.36051 0.0
C710 C 0.49505 0.90047 0.37044 0.0
H711 H 0.5194 0.02417 0.359 0.0
H712 H 0.53917 0.93663 0.35003 0.0
C713 C 0.46078 0.90912 0.38406 0.0
C714 C 0.12281 0.07092 0.90602 0.0
C715 C 0.08638 0.03081 0.90351 0.0
H716 H 0.14591 0.14651 0.89813 0.0
C717 C 0.04245 0.03938 0.89162 0.0
H718 H 0.15754 0.06582 0.91481 0.0
C719 C 0.03611 0.08558 0.88205 0.0
C720 C 0.07298 0.125 0.88428 0.0
H721 H 0.01284 0.01026 0.8896 0.0
H722 H 1.00238 0.09031 0.8727 0.0
C723 C 0.11612 0.11745 0.89653 0.0
C724 C 0.05952 0.19417 0.946 0.0
C725 C 0.10297 0.18472 0.95791 0.0
H726 H 0.0317 0.2243 0.91995 0.0
C727 C 0.15227 0.18989 0.95156 0.0
H728 H 0.02123 0.19061 0.95076 0.0
C729 C 0.1582 0.21048 0.93431 0.0
C730 C 0.11487 0.22451 0.92308 0.0
H731 H 0.18622 0.1832 0.96063 0.0
H732 H 0.19655 0.219 0.93029 0.0
C733 C 0.0655 0.21333 0.92847 0.0
C734 C 0.09179 0.79479 0.19127 0.0
C735 C 0.06863 0.76375 0.20405 0.0
H736 H 0.13634 0.79681 0.16766 0.0
C737 C 0.07085 0.71011 0.20233 0.0
H738 H 0.09106 0.83624 0.19254 0.0
C739 C 0.09807 0.68778 0.18861 0.0
C740 C 0.12236 0.7188 0.17618 0.0
H741 H 0.05408 0.68551 0.21225 0.0
H742 H 0.10075 0.64632 0.18783 0.0
C743 C 0.11799 0.77238 0.17726 0.0
C744 C 0.55368 0.70672 0.45779 0.0
C745 C 0.60198 0.68607 0.46332 0.0
H746 H 0.50391 0.73256 0.43524 0.0
C747 C 0.63137 0.66322 0.45009 0.0
H748 H 0.52981 0.72368 0.46774 0.0
C749 C 0.6159 0.66744 0.43146 0.0
C750 C 0.57101 0.69442 0.42598 0.0
H751 H 0.6688 0.64709 0.45397 0.0
H752 H 0.64209 0.65528 0.42144 0.0
C753 C 0.53849 0.71121 0.43923 0.0
C754 C 0.59484 0.30907 0.68536 0.0
C755 C 0.58555 0.27874 0.70056 0.0
H756 H 0.63048 0.31353 0.65992 0.0
C757 C 0.60022 0.22697 0.70084 0.0
H758 H 0.58455 0.34936 0.68511 0.0
C759 C 0.62747 0.20677 0.68672 0.0
C760 C 0.63971 0.23793 0.67202 0.0
H761 H 0.59413 0.20335 0.71266 0.0
H762 H 0.64102 0.16751 0.68772 0.0
C763 C 0.62136 0.28865 0.67107 0.0
C764 C 0.20342 0.7597 0.03968 0.0
C765 C 0.21907 0.72329 0.02696 0.0
H766 H 0.18727 0.7743 0.06749 0.0
C767 C 0.24216 0.67754 0.03373 0.0
H768 H 0.1854 0.79527 0.03516 0.0
C769 C 0.24179 0.665 0.05229 0.0
C770 C 0.22079 0.6991 0.06454 0.0
H771 H 0.25656 0.64933 0.02448 0.0
H772 H 0.25412 0.62713 0.05678 0.0
C773 C 0.20462 0.74776 0.05832 0.0
C774 C 0.62078 0.70817 0.27739 0.0
C775 C 0.63868 0.75848 0.2754 0.0
H776 H 0.58801 0.65371 0.29505 0.0
C777 C 0.6437 0.79125 0.29066 0.0
H778 H 0.61646 0.68257 0.26566 0.0
C779 C 0.62798 0.7746 0.30757 0.0
C780 C 0.60625 0.72543 0.30919 0.0
H781 H 0.6571 0.83036 0.28925 0.0
H782 H 0.62941 0.80136 0.31896 0.0
C783 C 0.60445 0.69181 0.29413 0.0
C784 C 0.72621 0.19041 0.52801 0.0
C785 C 0.68188 0.16116 0.52325 0.0
H786 H 0.77112 0.22871 0.54956 0.0
C787 C 0.65587 0.13759 0.53723 0.0
H788 H 0.74757 0.20819 0.51752 0.0
C789 C 0.6701 0.14861 0.55563 0.0
C790 C 0.71039 0.18319 0.56016 0.0
H791 H 0.62151 0.11494 0.53397 0.0
H792 H 0.6459 0.13502 0.56606 0.0
C793 C 0.74013 0.2016 0.54633 0.0
C794 C 0.20056 0.27338 0.78317 0.0
C795 C 0.21229 0.32573 0.78144 0.0
H796 H 0.16452 0.21599 0.79892 0.0
C797 C 0.2036 0.35953 0.79586 0.0
H798 H 0.20621 0.24685 0.77205 0.0
C799 C 0.18027 0.34182 0.81127 0.0
C800 C 0.16448 0.29031 0.81227 0.0
H801 H 0.21183 0.40014 0.79467 0.0
H802 H 0.17136 0.36916 0.82177 0.0
C803 C 0.17624 0.25588 0.79839 0.0
loop_
_geom_bond_atom_site_label_1
_geom_bond_atom_site_label_2
_geom_bond_distance
_geom_bond_site_symmetry_2
_ccdc_geom_bond_type
C0 C1 1.391 . S
C0 C4 1.391 . S
C0 H42 0.948 . S
C1 C0 1.391 . S
C1 C2 1.391 . S
C2 C1 1.391 . S
C2 H58 0.947 . S
C2 C59 1.392 . S
C3 C4 1.391 . S
C3 C7 1.397 . S
C3 C59 1.419 . S
C4 C0 1.391 . S
C4 C3 1.391 . S
C4 C5 1.399 . S
C5 C4 1.399 . S
C5 C8 1.396 . S
C5 C17 1.453 . S
C5 C18 1.684 . S
H6 C30 0.948 . S
C7 C3 1.397 . S
C7 C8 1.394 . S
C7 C26 1.723 . S
C8 C5 1.396 . S
C8 C7 1.394 . S
C8 C38 1.723 . S
H9 C32 0.947 . S
H10 C33 0.948 . S
H11 C39 0.982 . S
H12 C40 0.979 . S
H13 C40 0.980 . S
H14 C40 0.983 . S
H15 C39 0.979 . S
H16 C39 0.977 . S
C17 C5 1.453 . S
C17 H46 0.982 . S
C17 H47 0.979 . S
C17 H48 0.977 . S
C18 C5 1.684 . S
C18 H43 0.979 . S
C18 H44 0.980 . S
C18 H45 0.983 . S
C19 C20 1.356 1_554 S
C19 C24 1.454 . S
C19 H49 0.923 1_554 S
C20 C19 1.356 1_556 S
C20 C21 1.391 . S
C21 C20 1.391 . S
C21 C22 1.392 1_556 S
C21 H50 0.947 . S
C22 C21 1.392 1_554 S
C22 C23 1.419 . S
C22 H51 0.948 . S
C23 C22 1.419 . S
C23 C24 1.391 . S
C23 C27 1.397 . S
C24 C19 1.454 . S
C24 C23 1.391 . S
C24 C25 1.399 . S
C25 C24 1.399 . S
C25 C26 1.396 . S
C25 C28 1.453 . S
C25 C29 1.684 . S
C26 C7 1.723 . S
C26 C25 1.396 . S
C26 C27 1.394 . S
C27 C23 1.397 . S
C27 C26 1.394 . S
C27 C37 1.723 . S
C28 C25 1.453 . S
C28 H52 0.982 . S
C28 H53 0.979 . S
C28 H54 0.977 . S
C29 C25 1.684 . S
C29 H55 0.979 . S
C29 H56 0.980 . S
C29 H57 0.983 . S
C30 H6 0.948 . S
C30 C31 1.391 . S
C30 C35 1.391 . S
C31 C30 1.391 . S
C31 C32 1.391 . S
C32 H9 0.947 . S
C32 C31 1.391 . S
C32 C33 1.392 . S
C33 H10 0.948 . S
C33 C32 1.392 . S
C33 C34 1.419 . S
C34 C33 1.419 . S
C34 C35 1.391 . S
C34 C38 1.397 . S
C35 C30 1.391 . S
C35 C34 1.391 . S
C35 C36 1.399 . S
C36 C35 1.399 . S
C36 C37 1.396 . S
C36 C39 1.453 . S
C36 C40 1.684 . S
C37 C27 1.723 . S
C37 C36 1.396 . S
C37 C38 1.394 . S
C38 C8 1.723 . S
C38 C34 1.397 . S
C38 C37 1.394 . S
C39 H11 0.982 . S
C39 H15 0.979 . S
C39 H16 0.977 . S
C39 C36 1.453 . S
C40 H12 0.979 . S
C40 H13 0.980 . S
C40 H14 0.983 . S
C40 C36 1.684 . S
H41 C59 0.948 . S
H42 C0 0.948 . S
H43 C18 0.979 . S
H44 C18 0.980 . S
H45 C18 0.983 . S
H46 C17 0.982 . S
H47 C17 0.979 . S
H48 C17 0.977 . S
H49 C19 0.923 1_556 S
H50 C21 0.947 . S
H51 C22 0.948 . S
H52 C28 0.982 . S
H53 C28 0.979 . S
H54 C28 0.977 . S
H55 C29 0.979 . S
H56 C29 0.980 . S
H57 C29 0.983 . S
H58 C2 0.947 . S
C59 C2 1.392 . S
C59 C3 1.419 . S
C59 H41 0.948 . S
C60 C61 1.391 . S
C60 C64 1.391 . S
C60 H102 0.948 . S
C61 C60 1.391 . S
C61 C62 1.391 . S
C62 C61 1.391 . S
C62 H118 0.947 . S
C62 C119 1.392 . S
C63 C64 1.391 . S
C63 C67 1.397 . S
C63 C119 1.419 . S
C64 C60 1.391 . S
C64 C63 1.391 . S
C64 C65 1.399 . S
C65 C64 1.399 . S
C65 C68 1.396 . S
C65 C77 1.453 . S
C65 C78 1.684 . S
H66 C90 0.948 . S
C67 C63 1.397 . S
C67 C68 1.394 . S
C67 C86 1.723 . S
C68 C65 1.396 . S
C68 C67 1.394 . S
C68 C98 1.723 . S
H69 C92 0.947 . S
H70 C93 0.948 . S
H71 C99 0.982 . S
H72 C100 0.979 . S
H73 C100 0.980 . S
H74 C100 0.983 . S
H75 C99 0.979 . S
H76 C99 0.977 . S
C77 C65 1.453 . S
C77 H106 0.982 . S
C77 H107 0.979 . S
C77 H108 0.977 . S
C78 C65 1.684 . S
C78 H103 0.979 . S
C78 H104 0.980 . S
C78 H105 0.983 . S
C79 C80 1.391 . S
C79 C84 1.391 . S
C79 H109 0.948 . S
C80 C79 1.391 . S
C80 C81 1.391 . S
C81 C80 1.391 . S
C81 C82 1.392 . S
C81 H110 0.947 . S
C82 C81 1.392 . S
C82 C83 1.419 . S
C82 H111 0.948 . S
C83 C82 1.419 . S
C83 C84 1.391 . S
C83 C87 1.397 . S
C84 C79 1.391 . S
C84 C83 1.391 . S
C84 C85 1.399 . S
C85 C84 1.399 . S
C85 C86 1.396 . S
C85 C88 1.453 . S
C85 C89 1.684 . S
C86 C67 1.723 . S
C86 C85 1.396 . S
C86 C87 1.394 . S
C87 C83 1.397 . S
C87 C86 1.394 . S
C87 C97 1.723 . S
C88 C85 1.453 . S
C88 H112 0.982 . S
C88 H113 0.979 . S
C88 H114 0.977 . S
C89 C85 1.684 . S
C89 H115 0.979 . S
C89 H116 0.980 . S
C89 H117 0.983 . S
C90 H66 0.948 . S
C90 C91 1.391 . S
C90 C95 1.391 . S
C91 C90 1.391 . S
C91 C92 1.391 . S
C92 H69 0.947 . S
C92 C91 1.391 . S
C92 C93 1.392 1_655 S
C93 H70 0.948 . S
C93 C92 1.392 1_455 S
C93 C94 1.419 . S
C94 C93 1.419 . S
C94 C95 1.391 1_455 S
C94 C98 1.397 . S
C95 C90 1.391 . S
C95 C94 1.391 1_655 S
C95 C96 1.399 1_655 S
C96 C95 1.399 1_455 S
C96 C97 1.396 . S
C96 C99 1.453 1_455 S
C96 C100 1.684 1_455 S
C97 C87 1.723 . S
C97 C96 1.396 . S
C97 C98 1.394 . S
C98 C68 1.723 . S
C98 C94 1.397 . S
C98 C97 1.394 . S
C99 H71 0.982 . S
C99 H75 0.979 . S
C99 H76 0.977 . S
C99 C96 1.453 1_655 S
C100 H72 0.979 . S
C100 H73 0.980 . S
C100 H74 0.983 . S
C100 C96 1.684 1_655 S
H101 C119 0.948 . S
H102 C60 0.948 . S
H103 C78 0.979 . S
H104 C78 0.980 . S
H105 C78 0.983 . S
H106 C77 0.982 . S
H107 C77 0.979 . S
H108 C77 0.977 . S
H109 C79 0.948 . S
H110 C81 0.947 . S
H111 C82 0.948 . S
H112 C88 0.982 . S
H113 C88 0.979 . S
H114 C88 0.977 . S
H115 C89 0.979 . S
H116 C89 0.980 . S
H117 C89 0.983 . S
H118 C62 0.947 . S
C119 C62 1.392 . S
C119 C63 1.419 . S
C119 H101 0.948 . S
C120 C121 1.391 . S
C120 C124 1.391 . S
C120 H162 0.948 . S
C121 C120 1.391 . S
C121 C122 1.391 . S
C122 C121 1.391 . S
C122 H178 0.947 . S
C122 C179 1.392 . S
C123 C124 1.391 . S
C123 C127 1.397 . S
C123 C179 1.419 . S
C124 C120 1.391 . S
C124 C123 1.391 . S
C124 C125 1.399 . S
C125 C124 1.399 . S
C125 C128 1.396 . S
C125 C137 1.453 . S
C125 C138 1.684 . S
H126 C150 0.948 . S
C127 C123 1.397 . S
C127 C128 1.394 . S
C127 C146 1.723 . S
C128 C125 1.396 . S
C128 C127 1.394 . S
C128 C158 1.723 . S
H129 C152 0.947 . S
H130 C153 0.948 . S
H131 C159 0.982 . S
H132 C160 0.979 . S
H133 C160 0.980 . S
H134 C160 0.983 . S
H135 C159 0.979 . S
H136 C159 0.977 . S
C137 C125 1.453 . S
C137 H166 0.982 . S
C137 H167 0.979 . S
C137 H168 0.977 . S
C138 C125 1.684 . S
C138 H163 0.979 . S
C138 H164 0.980 . S
C138 H165 0.983 . S
C139 C140 1.391 . S
C139 C144 1.391 . S
C139 H169 0.948 . S
C140 C139 1.391 . S
C140 C141 1.391 . S
C141 C140 1.391 . S
C141 C142 1.392 . S
C141 H170 0.947 . S
C142 C141 1.392 . S
C142 C143 1.419 . S
C142 H171 0.948 . S
C143 C142 1.419 . S
C143 C144 1.391 . S
C143 C147 1.397 . S
C144 C139 1.391 . S
C144 C143 1.391 . S
C144 C145 1.399 . S
C145 C144 1.399 . S
C145 C146 1.396 . S
C145 C148 1.453 . S
C145 C149 1.684 . S
C146 C127 1.723 . S
C146 C145 1.396 . S
C146 C147 1.394 . S
C147 C143 1.397 . S
C147 C146 1.394 . S
C147 C157 1.723 . S
C148 C145 1.453 . S
C148 H172 0.982 . S
C148 H173 0.979 . S
C148 H174 0.977 . S
C149 C145 1.684 . S
C149 H175 0.979 . S
C149 H176 0.980 . S
C149 H177 0.983 . S
C150 H126 0.948 . S
C150 C151 1.391 . S
C150 C155 1.391 . S
C151 C150 1.391 . S
C151 C152 1.391 . S
C152 H129 0.947 . S
C152 C151 1.391 . S
C152 C153 1.392 . S
C153 H130 0.948 . S
C153 C152 1.392 . S
C153 C154 1.419 . S
C154 C153 1.419 . S
C154 C155 1.391 . S
C154 C158 1.397 . S
C155 C150 1.391 . S
C155 C154 1.391 . S
C155 C156 1.399 . S
C156 C155 1.399 . S
C156 C157 1.396 . S
C156 C159 1.453 . S
C156 C160 1.684 . S
C157 C147 1.723 . S
C157 C156 1.396 . S
C157 C158 1.394 . S
C158 C128 1.723 . S
C158 C154 1.397 . S
C158 C157 1.394 . S
C159 H131 0.982 . S
C159 H135 0.979 . S
C159 H136 0.977 . S
C159 C156 1.453 . S
C160 H132 0.979 . S
C160 H133 0.980 . S
C160 H134 0.983 . S
C160 C156 1.684 . S
H161 C179 0.948 . S
H162 C120 0.948 . S
H163 C138 0.979 . S
H164 C138 0.980 . S
H165 C138 0.983 . S
H166 C137 0.982 . S
H167 C137 0.979 . S
H168 C137 0.977 . S
H169 C139 0.948 . S
H170 C141 0.947 . S
H171 C142 0.948 . S
H172 C148 0.982 . S
H173 C148 0.979 . S
H174 C148 0.977 . S
H175 C149 0.979 . S
H176 C149 0.980 . S
H177 C149 0.983 . S
H178 C122 0.947 . S
C179 C122 1.392 . S
C179 C123 1.419 . S
C179 H161 0.948 . S
C180 C181 1.391 . S
C180 C184 1.391 . S
C180 H222 0.948 . S
C181 C180 1.391 . S
C181 C182 1.391 . S
C182 C181 1.391 . S
C182 H238 0.947 . S
C182 C239 1.392 . S
C183 C184 1.391 . S
C183 C187 1.397 . S
C183 C239 1.419 . S
C184 C180 1.391 . S
C184 C183 1.391 . S
C184 C185 1.399 . S
C185 C184 1.399 . S
C185 C188 1.396 . S
C185 C197 1.453 . S
C185 C198 1.684 . S
H186 C210 0.948 . S
C187 C183 1.397 . S
C187 C188 1.394 . S
C187 C206 1.723 . S
C188 C185 1.396 . S
C188 C187 1.394 . S
C188 C218 1.723 . S
H189 C212 0.947 . S
H190 C213 0.948 . S
H191 C219 0.982 . S
H192 C220 0.979 . S
H193 C220 0.980 . S
H194 C220 0.983 . S
H195 C219 0.979 . S
H196 C219 0.977 . S
C197 C185 1.453 . S
C197 H226 0.982 . S
C197 H227 0.979 . S
C197 H228 0.977 . S
C198 C185 1.684 . S
C198 H223 0.979 . S
C198 H224 0.980 . S
C198 H225 0.983 . S
C199 C200 1.391 . S
C199 C204 1.391 . S
C199 H229 0.948 . S
C200 C199 1.391 . S
C200 C201 1.391 . S
C201 C200 1.391 . S
C201 C202 1.392 . S
C201 H230 0.947 . S
C202 C201 1.392 . S
C202 C203 1.419 . S
C202 H231 0.948 . S
C203 C202 1.419 . S
C203 C204 1.391 . S
C203 C207 1.397 . S
C204 C199 1.391 . S
C204 C203 1.391 . S
C204 C205 1.399 . S
C205 C204 1.399 . S
C205 C206 1.396 . S
C205 C208 1.453 . S
C205 C209 1.684 . S
C206 C187 1.723 . S
C206 C205 1.396 . S
C206 C207 1.394 . S
C207 C203 1.397 . S
C207 C206 1.394 . S
C207 C217 1.723 . S
C208 C205 1.453 . S
C208 H232 0.982 . S
C208 H233 0.979 . S
C208 H234 0.977 . S
C209 C205 1.684 . S
C209 H235 0.979 . S
C209 H236 0.980 . S
C209 H237 0.983 . S
C210 H186 0.948 . S
C210 C211 1.391 . S
C210 C215 1.391 . S
C211 C210 1.391 . S
C211 C212 1.391 . S
C212 H189 0.947 . S
C212 C211 1.391 . S
C212 C213 1.392 . S
C213 H190 0.948 . S
C213 C212 1.392 . S
C213 C214 1.419 . S
C214 C213 1.419 . S
C214 C215 1.391 . S
C214 C218 1.397 . S
C215 C210 1.391 . S
C215 C214 1.391 . S
C215 C216 1.399 . S
C216 C215 1.399 . S
C216 C217 1.396 . S
C216 C219 1.453 . S
C216 C220 1.684 . S
C217 C207 1.723 . S
C217 C216 1.396 . S
C217 C218 1.394 . S
C218 C188 1.723 . S
C218 C214 1.397 . S
C218 C217 1.394 . S
C219 H191 0.982 . S
C219 H195 0.979 . S
C219 H196 0.977 . S
C219 C216 1.453 . S
C220 H192 0.979 . S
C220 H193 0.980 . S
C220 H194 0.983 . S
C220 C216 1.684 . S
H221 C239 0.948 . S
H222 C180 0.948 . S
H223 C198 0.979 . S
H224 C198 0.980 . S
H225 C198 0.983 . S
H226 C197 0.982 . S
H227 C197 0.979 . S
H228 C197 0.977 . S
H229 C199 0.948 . S
H230 C201 0.947 . S
H231 C202 0.948 . S
H232 C208 0.982 . S
H233 C208 0.979 . S
H234 C208 0.977 . S
H235 C209 0.979 . S
H236 C209 0.980 . S
H237 C209 0.983 . S
H238 C182 0.947 . S
C239 C182 1.392 . S
C239 C183 1.419 . S
C239 H221 0.948 . S
C240 C241 1.391 . S
C240 C244 1.391 . S
C240 H282 0.948 . S
C241 C240 1.391 . S
C241 C242 1.391 . S
C242 C241 1.391 . S
C242 H298 0.947 . S
C242 C299 1.392 . S
C243 C244 1.391 . S
C243 C247 1.397 . S
C243 C299 1.419 . S
C244 C240 1.391 . S
C244 C243 1.391 . S
C244 C245 1.399 . S
C245 C244 1.399 . S
C245 C248 1.396 . S
C245 C257 1.453 . S
C245 C258 1.687 . S
H246 C270 0.948 . S
C247 C243 1.397 . S
C247 C248 1.394 . S
C247 C266 1.723 . S
C248 C245 1.396 . S
C248 C247 1.394 . S
C248 C278 1.723 . S
H249 C272 0.947 . S
H250 C273 0.948 . S
H251 C279 0.982 . S
H252 C280 0.979 1_655 S
H253 C280 0.980 . S
H254 C280 0.983 . S
H255 C279 0.979 . S
H256 C279 0.977 . S
C257 C245 1.453 . S
C257 H286 0.982 . S
C257 H287 0.979 . S
C257 H288 0.977 . S
C258 C245 1.687 . S
C258 H283 0.972 1_455 S
C258 H284 0.981 . S
C258 H285 0.985 . S
C259 C260 1.391 1_556 S
C259 C264 1.391 . S
C259 H289 0.948 1_556 S
C260 C259 1.391 1_554 S
C260 C261 1.377 1_554 S
C261 C260 1.377 1_556 S
C261 C262 1.426 . S
C261 H290 0.927 1_556 S
C262 C261 1.426 . S
C262 C263 1.419 . S
C262 H291 0.948 . S
C263 C262 1.419 . S
C263 C264 1.391 . S
C263 C267 1.397 . S
C264 C259 1.391 . S
C264 C263 1.391 . S
C264 C265 1.399 . S
C265 C264 1.399 . S
C265 C266 1.396 . S
C265 C268 1.453 . S
C265 C269 1.684 . S
C266 C247 1.723 . S
C266 C265 1.396 . S
C266 C267 1.394 . S
C267 C263 1.397 . S
C267 C266 1.394 . S
C267 C277 1.723 . S
C268 C265 1.453 . S
C268 H292 0.982 . S
C268 H293 0.979 . S
C268 H294 0.977 . S
C269 C265 1.684 . S
C269 H295 0.979 1_455 S
C269 H296 0.980 . S
C269 H297 0.983 . S
C270 H246 0.948 . S
C270 C271 1.391 . S
C270 C275 1.391 . S
C271 C270 1.391 . S
C271 C272 1.391 . S
C272 H249 0.947 . S
C272 C271 1.391 . S
C272 C273 1.392 . S
C273 H250 0.948 . S
C273 C272 1.392 . S
C273 C274 1.419 . S
C274 C273 1.419 . S
C274 C275 1.391 . S
C274 C278 1.397 . S
C275 C270 1.391 . S
C275 C274 1.391 . S
C275 C276 1.399 . S
C276 C275 1.399 . S
C276 C277 1.396 . S
C276 C279 1.453 . S
C276 C280 1.684 . S
C277 C267 1.723 . S
C277 C276 1.396 . S
C277 C278 1.394 . S
C278 C248 1.723 . S
C278 C274 1.397 . S
C278 C277 1.394 . S
C279 H251 0.982 . S
C279 H255 0.979 . S
C279 H256 0.977 . S
C279 C276 1.453 . S
C280 H252 0.979 1_455 S
C280 H253 0.980 . S
C280 H254 0.983 . S
C280 C276 1.684 . S
H281 C299 0.948 . S
H282 C240 0.948 . S
H283 C258 0.972 1_655 S
H284 C258 0.981 . S
H285 C258 0.985 . S
H286 C257 0.982 . S
H287 C257 0.979 . S
H288 C257 0.977 . S
H289 C259 0.948 1_554 S
H290 C261 0.927 1_554 S
H291 C262 0.948 . S
H292 C268 0.982 . S
H293 C268 0.979 . S
H294 C268 0.977 . S
H295 C269 0.979 1_655 S
H296 C269 0.980 . S
H297 C269 0.983 . S
H298 C242 0.947 . S
C299 C242 1.392 . S
C299 C243 1.419 . S
C299 H281 0.948 . S
C300 C301 1.391 . S
C300 C304 1.391 . S
C300 H342 0.948 . S
C301 C300 1.391 . S
C301 C302 1.391 . S
C302 C301 1.391 . S
C302 H358 0.947 . S
C302 C359 1.392 . S
C303 C304 1.391 . S
C303 C307 1.397 . S
C303 C359 1.419 . S
C304 C300 1.391 . S
C304 C303 1.391 . S
C304 C305 1.399 . S
C305 C304 1.399 . S
C305 C308 1.396 . S
C305 C317 1.453 . S
C305 C318 1.684 . S
H306 C330 0.948 . S
C307 C303 1.397 . S
C307 C308 1.394 . S
C307 C326 1.723 . S
C308 C305 1.396 . S
C308 C307 1.394 . S
C308 C338 1.723 . S
H309 C332 0.947 . S
H310 C333 0.948 . S
H311 C339 0.982 . S
H312 C340 0.979 . S
H313 C340 0.980 . S
H314 C340 0.983 . S
H315 C339 0.979 . S
H316 C339 0.977 . S
C317 C305 1.453 . S
C317 H346 0.982 . S
C317 H347 0.979 . S
C317 H348 0.977 . S
C318 C305 1.684 . S
C318 H343 0.979 . S
C318 H344 0.980 . S
C318 H345 0.983 . S
C319 C320 1.391 . S
C319 C324 1.391 . S
C319 H349 0.948 . S
C320 C319 1.391 . S
C320 C321 1.391 . S
C321 C320 1.391 . S
C321 C322 1.392 . S
C321 H350 0.947 . S
C322 C321 1.392 . S
C322 C323 1.419 . S
C322 H351 0.948 . S
C323 C322 1.419 . S
C323 C324 1.391 . S
C323 C327 1.397 . S
C324 C319 1.391 . S
C324 C323 1.391 . S
C324 C325 1.399 . S
C325 C324 1.399 . S
C325 C326 1.396 . S
C325 C328 1.453 . S
C325 C329 1.684 . S
C326 C307 1.723 . S
C326 C325 1.396 . S
C326 C327 1.394 . S
C327 C323 1.397 . S
C327 C326 1.394 . S
C327 C337 1.723 . S
C328 C325 1.453 . S
C328 H352 0.982 . S
C328 H353 0.979 . S
C328 H354 0.977 . S
C329 C325 1.684 . S
C329 H355 0.979 . S
C329 H356 0.980 . S
C329 H357 0.983 . S
C330 H306 0.948 . S
C330 C331 1.391 . S
C330 C335 1.391 . S
C331 C330 1.391 . S
C331 C332 1.391 . S
C332 H309 0.947 . S
C332 C331 1.391 . S
C332 C333 1.392 . S
C333 H310 0.948 . S
C333 C332 1.392 . S
C333 C334 1.419 . S
C334 C333 1.419 . S
C334 C335 1.391 . S
C334 C338 1.397 . S
C335 C330 1.391 . S
C335 C334 1.391 . S
C335 C336 1.399 . S
C336 C335 1.399 . S
C336 C337 1.396 . S
C336 C339 1.453 . S
C336 C340 1.684 . S
C337 C327 1.723 . S
C337 C336 1.396 . S
C337 C338 1.394 . S
C338 C308 1.723 . S
C338 C334 1.397 . S
C338 C337 1.394 . S
C339 H311 0.982 . S
C339 H315 0.979 . S
C339 H316 0.977 . S
C339 C336 1.453 . S
C340 H312 0.979 . S
C340 H313 0.980 . S
C340 H314 0.983 . S
C340 C336 1.684 . S
H341 C359 0.948 . S
H342 C300 0.948 . S
H343 C318 0.979 . S
H344 C318 0.980 . S
H345 C318 0.983 . S
H346 C317 0.982 . S
H347 C317 0.979 . S
H348 C317 0.977 . S
H349 C319 0.948 . S
H350 C321 0.947 . S
H351 C322 0.948 . S
H352 C328 0.982 . S
H353 C328 0.979 . S
H354 C328 0.977 . S
H355 C329 0.979 . S
H356 C329 0.980 . S
H357 C329 0.983 . S
H358 C302 0.947 . S
C359 C302 1.392 . S
C359 C303 1.419 . S
C359 H341 0.948 . S
C360 C361 1.391 . S
C360 C364 1.391 . S
C360 H402 0.948 . S
C361 C360 1.391 . S
C361 C362 1.391 . S
C362 C361 1.391 . S
C362 H418 0.947 . S
C362 C419 1.392 . S
C363 C364 1.391 . S
C363 C367 1.397 . S
C363 C419 1.419 . S
C364 C360 1.391 . S
C364 C363 1.391 . S
C364 C365 1.399 . S
C365 C364 1.399 . S
C365 C368 1.396 . S
C365 C377 1.453 . S
C365 C378 1.684 . S
H366 C390 0.948 . S
C367 C363 1.397 . S
C367 C368 1.394 . S
C367 C386 1.723 . S
C368 C365 1.396 . S
C368 C367 1.394 . S
C368 C398 1.723 . S
H369 C392 0.947 . S
H370 C393 0.948 . S
H371 C399 0.982 . S
H372 C400 0.979 . S
H373 C400 0.980 . S
H374 C400 0.983 . S
H375 C399 0.979 . S
H376 C399 0.977 . S
C377 C365 1.453 . S
C377 H406 0.982 . S
C377 H407 0.979 . S
C377 H408 0.977 . S
C378 C365 1.684 . S
C378 H403 0.979 . S
C378 H404 0.980 . S
C378 H405 0.983 . S
C379 C380 1.391 . S
C379 C384 1.391 . S
C379 H409 0.948 . S
C380 C379 1.391 . S
C380 C381 1.391 . S
C381 C380 1.391 . S
C381 C382 1.392 . S
C381 H410 0.947 . S
C382 C381 1.392 . S
C382 C383 1.419 . S
C382 H411 0.948 . S
C383 C382 1.419 . S
C383 C384 1.391 . S
C383 C387 1.397 . S
C384 C379 1.391 . S
C384 C383 1.391 . S
C384 C385 1.399 . S
C385 C384 1.399 . S
C385 C386 1.396 . S
C385 C388 1.453 . S
C385 C389 1.684 . S
C386 C367 1.723 . S
C386 C385 1.396 . S
C386 C387 1.394 . S
C387 C383 1.397 . S
C387 C386 1.394 . S
C387 C397 1.723 . S
C388 C385 1.453 . S
C388 H412 0.982 . S
C388 H413 0.979 . S
C388 H414 0.977 . S
C389 C385 1.684 . S
C389 H415 0.979 . S
C389 H416 0.980 . S
C389 H417 0.983 . S
C390 H366 0.948 . S
C390 C391 1.391 . S
C390 C395 1.391 . S
C391 C390 1.391 . S
C391 C392 1.391 . S
C392 H369 0.947 . S
C392 C391 1.391 . S
C392 C393 1.392 . S
C393 H370 0.948 . S
C393 C392 1.392 . S
C393 C394 1.419 . S
C394 C393 1.419 . S
C394 C395 1.391 . S
C394 C398 1.397 . S
C395 C390 1.391 . S
C395 C394 1.391 . S
C395 C396 1.399 . S
C396 C395 1.399 . S
C396 C397 1.396 . S
C396 C399 1.453 . S
C396 C400 1.684 . S
C397 C387 1.723 . S
C397 C396 1.396 . S
C397 C398 1.394 . S
C398 C368 1.723 . S
C398 C394 1.397 . S
C398 C397 1.394 . S
C399 H371 0.982 . S
C399 H375 0.979 . S
C399 H376 0.977 . S
C399 C396 1.453 . S
C400 H372 0.979 . S
C400 H373 0.980 . S
C400 H374 0.983 . S
C400 C396 1.684 . S
H401 C419 0.948 . S
H402 C360 0.948 . S
H403 C378 0.979 . S
H404 C378 0.980 . S
H405 C378 0.983 . S
H406 C377 0.982 . S
H407 C377 0.979 . S
H408 C377 0.977 . S
H409 C379 0.948 . S
H410 C381 0.947 . S
H411 C382 0.948 . S
H412 C388 0.982 . S
H413 C388 0.979 . S
H414 C388 0.977 . S
H415 C389 0.979 . S
H416 C389 0.980 . S
H417 C389 0.983 . S
H418 C362 0.947 . S
C419 C362 1.392 . S
C419 C363 1.419 . S
C419 H401 0.948 . S
C420 C421 1.391 . S
C420 C424 1.391 . S
C420 H462 0.948 . S
C421 C420 1.391 . S
C421 C422 1.391 . S
C422 C421 1.391 . S
C422 H478 0.947 . S
C422 C479 1.392 . S
C423 C424 1.391 . S
C423 C427 1.397 . S
C423 C479 1.419 . S
C424 C420 1.391 . S
C424 C423 1.391 . S
C424 C425 1.399 . S
C425 C424 1.399 . S
C425 C428 1.396 . S
C425 C437 1.453 . S
C425 C438 1.684 . S
H426 C450 0.948 . S
C427 C423 1.397 . S
C427 C428 1.394 . S
C427 C446 1.723 . S
C428 C425 1.396 . S
C428 C427 1.394 . S
C428 C458 1.723 . S
H429 C452 0.946 1_655 S
H430 C453 0.948 . S
H431 C459 0.982 . S
H432 C460 0.979 1_455 S
H433 C460 0.980 1_455 S
H434 C460 0.983 . S
H435 C459 0.979 1_655 S
H436 C459 0.977 . S
C437 C425 1.453 . S
C437 H466 0.982 . S
C437 H467 0.979 . S
C437 H468 0.977 . S
C438 C425 1.684 . S
C438 H463 0.979 . S
C438 H464 0.980 . S
C438 H465 0.983 . S
C439 C440 1.391 . S
C439 C444 1.391 . S
C439 H469 0.948 . S
C440 C439 1.391 . S
C440 C441 1.391 . S
C441 C440 1.391 . S
C441 C442 1.392 . S
C441 H470 0.947 . S
C442 C441 1.392 . S
C442 C443 1.419 . S
C442 H471 0.948 . S
C443 C442 1.419 . S
C443 C444 1.391 . S
C443 C447 1.397 . S
C444 C439 1.391 . S
C444 C443 1.391 . S
C444 C445 1.399 . S
C445 C444 1.399 . S
C445 C446 1.396 . S
C445 C448 1.453 . S
C445 C449 1.684 . S
C446 C427 1.723 . S
C446 C445 1.396 . S
C446 C447 1.394 . S
C447 C443 1.397 . S
C447 C446 1.394 . S
C447 C457 1.723 . S
C448 C445 1.453 . S
C448 H472 0.982 . S
C448 H473 0.979 . S
C448 H474 0.977 . S
C449 C445 1.684 . S
C449 H475 0.979 . S
C449 H476 0.980 . S
C449 H477 0.983 . S
C450 H426 0.948 . S
C450 C451 1.391 . S
C450 C455 1.391 1_655 S
C451 C450 1.391 . S
C451 C452 1.379 1_655 S
C452 H429 0.946 1_455 S
C452 C451 1.379 1_455 S
C452 C453 1.405 . S
C453 H430 0.948 . S
C453 C452 1.405 . S
C453 C454 1.419 . S
C454 C453 1.419 . S
C454 C455 1.391 . S
C454 C458 1.397 . S
C455 C450 1.391 1_455 S
C455 C454 1.391 . S
C455 C456 1.399 . S
C456 C455 1.399 . S
C456 C457 1.396 . S
C456 C459 1.453 . S
C456 C460 1.684 1_455 S
C457 C447 1.723 . S
C457 C456 1.396 . S
C457 C458 1.394 . S
C458 C428 1.723 . S
C458 C454 1.397 . S
C458 C457 1.394 . S
C459 H431 0.982 . S
C459 H435 0.979 1_455 S
C459 H436 0.977 . S
C459 C456 1.453 . S
C460 H432 0.979 1_655 S
C460 H433 0.980 1_655 S
C460 H434 0.983 . S
C460 C456 1.684 1_655 S
H461 C479 0.948 . S
H462 C420 0.948 . S
H463 C438 0.979 . S
H464 C438 0.980 . S
H465 C438 0.983 . S
H466 C437 0.982 . S
H467 C437 0.979 . S
H468 C437 0.977 . S
H469 C439 0.948 . S
H470 C441 0.947 . S
H471 C442 0.948 . S
H472 C448 0.982 . S
H473 C448 0.979 . S
H474 C448 0.977 . S
H475 C449 0.979 . S
H476 C449 0.980 . S
H477 C449 0.983 . S
H478 C422 0.947 . S
C479 C422 1.392 . S
C479 C423 1.419 . S
C479 H461 0.948 . S
Zn480 O486 1.920 . S
Zn480 O492 1.898 . S
Zn480 O495 1.905 . S
Zn481 O489 1.905 . S
Zn481 O490 1.898 . S
Zn481 O498 1.920 . S
Zn482 O485 2.080 . S
Zn482 O488 2.114 . S
Zn482 O491 2.120 . S
Zn482 O493 2.120 . S
Zn482 O494 2.114 . S
Zn482 O497 2.080 . S
C483 O488 1.166 . S
C483 O489 1.182 . S
C484 O490 1.167 . S
C484 O491 1.299 . S
O485 Zn482 2.080 . S
O485 C499 1.305 . S
O486 Zn480 1.920 . S
O486 C499 1.234 . S
C487 O492 1.167 . S
C487 O493 1.299 . S
O488 Zn482 2.114 . S
O488 C483 1.166 . S
O489 Zn481 1.905 . S
O489 C483 1.182 . S
O490 Zn481 1.898 . S
O490 C484 1.167 . S
O491 Zn482 2.120 . S
O491 C484 1.299 . S
O492 Zn480 1.898 . S
O492 C487 1.167 . S
O493 Zn482 2.120 . S
O493 C487 1.299 . S
O494 Zn482 2.114 . S
O494 C496 1.166 . S
O495 Zn480 1.905 . S
O495 C496 1.182 . S
C496 O494 1.166 . S
C496 O495 1.182 . S
O497 Zn482 2.080 . S
O497 C500 1.305 . S
O498 Zn481 1.920 . S
O498 C500 1.234 . S
C499 O485 1.305 . S
C499 O486 1.234 . S
C500 O497 1.305 . S
C500 O498 1.234 . S
Zn501 O507 1.920 . S
Zn501 O513 1.898 . S
Zn501 O516 1.905 . S
Zn502 O510 1.905 . S
Zn502 O511 1.898 . S
Zn502 O519 1.920 . S
Zn503 O506 2.080 . S
Zn503 O509 2.114 . S
Zn503 O512 2.120 . S
Zn503 O514 2.120 . S
Zn503 O515 2.114 . S
Zn503 O518 2.080 . S
C504 O509 1.166 . S
C504 O510 1.182 . S
C505 O511 1.167 . S
C505 O512 1.299 . S
O506 Zn503 2.080 . S
O506 C520 1.305 . S
O507 Zn501 1.920 . S
O507 C520 1.234 . S
C508 O513 1.167 . S
C508 O514 1.299 . S
O509 Zn503 2.114 . S
O509 C504 1.166 . S
O510 Zn502 1.905 . S
O510 C504 1.182 . S
O511 Zn502 1.898 . S
O511 C505 1.167 . S
O512 Zn503 2.120 . S
O512 C505 1.299 . S
O513 Zn501 1.898 . S
O513 C508 1.167 . S
O514 Zn503 2.120 . S
O514 C508 1.299 . S
O515 Zn503 2.114 . S
O515 C517 1.166 . S
O516 Zn501 1.905 . S
O516 C517 1.182 . S
C517 O515 1.166 . S
C517 O516 1.182 . S
O518 Zn503 2.080 . S
O518 C521 1.305 . S
O519 Zn502 1.920 . S
O519 C521 1.234 . S
C520 O506 1.305 . S
C520 O507 1.234 . S
C521 O518 1.305 . S
C521 O519 1.234 . S
Zn522 O528 1.920 . S
Zn522 O534 1.898 . S
Zn522 O537 1.905 . S
Zn523 O531 1.905 . S
Zn523 O532 1.898 . S
Zn523 O540 1.920 . S
Zn524 O527 2.080 . S
Zn524 O530 2.114 . S
Zn524 O533 2.120 . S
Zn524 O535 2.120 . S
Zn524 O536 2.114 . S
Zn524 O539 2.080 . S
C525 O530 1.166 . S
C525 O531 1.182 . S
C526 O532 1.167 . S
C526 O533 1.299 . S
O527 Zn524 2.080 . S
O527 C541 1.305 . S
O528 Zn522 1.920 . S
O528 C541 1.234 . S
C529 O534 1.167 . S
C529 O535 1.299 . S
O530 Zn524 2.114 . S
O530 C525 1.166 . S
O531 Zn523 1.905 . S
O531 C525 1.182 . S
O532 Zn523 1.898 . S
O532 C526 1.167 . S
O533 Zn524 2.120 . S
O533 C526 1.299 . S
O534 Zn522 1.898 . S
O534 C529 1.167 . S
O535 Zn524 2.120 . S
O535 C529 1.299 . S
O536 Zn524 2.114 . S
O536 C538 1.166 . S
O537 Zn522 1.905 . S
O537 C538 1.182 . S
C538 O536 1.166 . S
C538 O537 1.182 . S
O539 Zn524 2.080 . S
O539 C542 1.305 . S
O540 Zn523 1.920 . S
O540 C542 1.234 . S
C541 O527 1.305 . S
C541 O528 1.234 . S
C542 O539 1.305 . S
C542 O540 1.234 . S
Zn543 O549 1.920 . S
Zn543 O555 1.898 . S
Zn543 O558 1.905 1_455 S
Zn544 O552 1.905 . S
Zn544 O553 1.898 . S
Zn544 O561 1.920 . S
Zn545 O548 2.080 . S
Zn545 O551 2.114 . S
Zn545 O554 2.120 . S
Zn545 O556 2.120 . S
Zn545 O557 2.114 . S
Zn545 O560 2.080 . S
C546 O551 1.166 . S
C546 O552 1.182 . S
C547 O553 1.167 . S
C547 O554 1.299 . S
O548 Zn545 2.080 . S
O548 C562 1.305 . S
O549 Zn543 1.920 . S
O549 C562 1.234 . S
C550 O555 1.167 . S
C550 O556 1.299 . S
O551 Zn545 2.114 . S
O551 C546 1.166 . S
O552 Zn544 1.905 . S
O552 C546 1.182 . S
O553 Zn544 1.898 . S
O553 C547 1.167 . S
O554 Zn545 2.120 . S
O554 C547 1.299 . S
O555 Zn543 1.898 . S
O555 C550 1.167 . S
O556 Zn545 2.120 . S
O556 C550 1.299 . S
O557 Zn545 2.114 . S
O557 C559 1.166 . S
O558 Zn543 1.905 1_655 S
O558 C559 1.182 1_655 S
C559 O557 1.166 . S
C559 O558 1.182 1_455 S
O560 Zn545 2.080 . S
O560 C563 1.305 . S
O561 Zn544 1.920 . S
O561 C563 1.234 . S
C562 O548 1.305 . S
C562 O549 1.234 . S
C563 O560 1.305 . S
C563 O561 1.234 . S
C564 C565 1.387 . S
C564 H568 0.950 . S
C564 C573 1.390 . S
C565 C564 1.387 . S
C565 C567 1.387 . S
H566 C573 0.950 . S
C567 C565 1.387 . S
C567 C569 1.390 . S
C567 H571 0.950 . S
H568 C564 0.950 . S
C569 C567 1.390 . S
C569 C570 1.387 . S
C569 H572 0.950 . S
C570 C569 1.387 . S
C570 C573 1.387 . S
H571 C567 0.950 . S
H572 C569 0.950 . S
C573 C564 1.390 . S
C573 H566 0.950 . S
C573 C570 1.387 . S
C574 C575 1.387 . S
C574 H578 0.950 . S
C574 C583 1.390 . S
C575 C574 1.387 . S
C575 C577 1.387 . S
H576 C583 0.950 . S
C577 C575 1.387 . S
C577 C579 1.390 . S
C577 H581 0.950 . S
H578 C574 0.950 . S
C579 C577 1.390 . S
C579 C580 1.387 . S
C579 H582 0.950 . S
C580 C579 1.387 . S
C580 C583 1.387 . S
H581 C577 0.950 . S
H582 C579 0.950 . S
C583 C574 1.390 . S
C583 H576 0.950 . S
C583 C580 1.387 . S
C584 C585 1.387 . S
C584 H588 0.950 . S
C584 C593 1.390 . S
C585 C584 1.387 . S
C585 C587 1.387 . S
H586 C593 0.950 . S
C587 C585 1.387 . S
C587 C589 1.390 . S
C587 H591 0.950 . S
H588 C584 0.950 . S
C589 C587 1.390 . S
C589 C590 1.387 . S
C589 H592 0.950 . S
C590 C589 1.387 . S
C590 C593 1.387 . S
H591 C587 0.950 . S
H592 C589 0.950 . S
C593 C584 1.390 . S
C593 H586 0.950 . S
C593 C590 1.387 . S
C594 C595 1.387 . S
C594 H598 0.950 . S
C594 C603 1.390 . S
C595 C594 1.387 . S
C595 C597 1.387 . S
H596 C603 0.950 . S
C597 C595 1.387 . S
C597 C599 1.390 . S
C597 H601 0.950 . S
H598 C594 0.950 . S
C599 C597 1.390 . S
C599 C600 1.387 . S
C599 H602 0.950 . S
C600 C599 1.387 . S
C600 C603 1.387 . S
H601 C597 0.950 . S
H602 C599 0.950 . S
C603 C594 1.390 . S
C603 H596 0.950 . S
C603 C600 1.387 . S
C604 C605 1.387 . S
C604 H608 0.950 . S
C604 C613 1.390 . S
C605 C604 1.387 . S
C605 C607 1.387 . S
H606 C613 0.950 . S
C607 C605 1.387 . S
C607 C609 1.390 . S
C607 H611 0.950 . S
H608 C604 0.950 . S
C609 C607 1.390 . S
C609 C610 1.387 . S
C609 H612 0.950 . S
C610 C609 1.387 . S
C610 C613 1.387 . S
H611 C607 0.950 . S
H612 C609 0.950 . S
C613 C604 1.390 . S
C613 H606 0.950 . S
C613 C610 1.387 . S
C614 C615 1.387 . S
C614 H618 0.950 . S
C614 C623 1.390 . S
C615 C614 1.387 . S
C615 C617 1.387 . S
H616 C623 0.950 . S
C617 C615 1.387 . S
C617 C619 1.390 . S
C617 H621 0.950 . S
H618 C614 0.950 . S
C619 C617 1.390 . S
C619 C620 1.387 . S
C619 H622 0.950 . S
C620 C619 1.387 . S
C620 C623 1.387 . S
H621 C617 0.950 . S
H622 C619 0.950 . S
C623 C614 1.390 . S
C623 H616 0.950 . S
C623 C620 1.387 . S
C624 C625 1.387 . S
C624 H628 0.950 . S
C624 C633 1.390 . S
C625 C624 1.387 . S
C625 C627 1.387 . S
H626 C633 0.950 . S
C627 C625 1.387 . S
C627 C629 1.390 . S
C627 H631 0.950 . S
H628 C624 0.950 . S
C629 C627 1.390 . S
C629 C630 1.387 . S
C629 H632 0.950 . S
C630 C629 1.387 . S
C630 C633 1.387 . S
H631 C627 0.950 . S
H632 C629 0.950 . S
C633 C624 1.390 . S
C633 H626 0.950 . S
C633 C630 1.387 . S
C634 C635 1.387 . S
C634 H638 0.950 . S
C634 C643 1.390 . S
C635 C634 1.387 . S
C635 C637 1.387 . S
H636 C643 0.950 . S
C637 C635 1.387 . S
C637 C639 1.390 . S
C637 H641 0.950 . S
H638 C634 0.950 . S
C639 C637 1.390 . S
C639 C640 1.387 . S
C639 H642 0.950 . S
C640 C639 1.387 . S
C640 C643 1.387 . S
H641 C637 0.950 . S
H642 C639 0.950 . S
C643 C634 1.390 . S
C643 H636 0.950 . S
C643 C640 1.387 . S
C644 C645 1.387 . S
C644 H648 0.950 . S
C644 C653 1.390 . S
C645 C644 1.387 . S
C645 C647 1.387 . S
H646 C653 0.950 . S
C647 C645 1.387 . S
C647 C649 1.390 . S
C647 H651 0.950 . S
H648 C644 0.950 . S
C649 C647 1.390 . S
C649 C650 1.387 . S
C649 H652 0.950 . S
C650 C649 1.387 . S
C650 C653 1.387 . S
H651 C647 0.950 . S
H652 C649 0.950 . S
C653 C644 1.390 . S
C653 H646 0.950 . S
C653 C650 1.387 . S
C654 C655 1.387 . S
C654 H658 0.950 . S
C654 C663 1.390 . S
C655 C654 1.387 . S
C655 C657 1.387 . S
H656 C663 0.950 . S
C657 C655 1.387 . S
C657 C659 1.390 . S
C657 H661 0.950 . S
H658 C654 0.950 . S
C659 C657 1.390 . S
C659 C660 1.387 . S
C659 H662 0.950 . S
C660 C659 1.387 . S
C660 C663 1.387 . S
H661 C657 0.950 . S
H662 C659 0.950 . S
C663 C654 1.390 . S
C663 H656 0.950 . S
C663 C660 1.387 . S
C664 C665 1.387 . S
C664 H668 0.950 . S
C664 C673 1.390 . S
C665 C664 1.387 . S
C665 C667 1.387 . S
H666 C673 0.950 . S
C667 C665 1.387 . S
C667 C669 1.390 . S
C667 H671 0.950 . S
H668 C664 0.950 . S
C669 C667 1.390 . S
C669 C670 1.387 . S
C669 H672 0.950 . S
C670 C669 1.387 . S
C670 C673 1.387 . S
H671 C667 0.950 . S
H672 C669 0.950 . S
C673 C664 1.390 . S
C673 H666 0.950 . S
C673 C670 1.387 . S
C674 C675 1.387 . S
C674 H678 0.950 . S
C674 C683 1.390 . S
C675 C674 1.387 . S
C675 C677 1.387 . S
H676 C683 0.950 . S
C677 C675 1.387 . S
C677 C679 1.390 . S
C677 H681 0.950 . S
H678 C674 0.950 . S
C679 C677 1.390 . S
C679 C680 1.387 . S
C679 H682 0.950 . S
C680 C679 1.387 . S
C680 C683 1.387 . S
H681 C677 0.950 . S
H682 C679 0.950 . S
C683 C674 1.390 . S
C683 H676 0.950 . S
C683 C680 1.387 . S
C684 C685 1.387 . S
C684 H688 0.950 . S
C684 C693 1.390 1_565 S
C685 C684 1.387 . S
C685 C687 1.387 1_565 S
H686 C693 0.950 . S
C687 C685 1.387 1_545 S
C687 C689 1.390 . S
C687 H691 0.950 1_545 S
H688 C684 0.950 . S
C689 C687 1.390 . S
C689 C690 1.387 . S
C689 H692 0.950 . S
C690 C689 1.387 . S
C690 C693 1.387 . S
H691 C687 0.950 1_565 S
H692 C689 0.950 . S
C693 C684 1.390 1_545 S
C693 H686 0.950 . S
C693 C690 1.387 . S
C694 C695 1.387 1_565 S
C694 H698 0.950 1_565 S
C694 C703 1.390 . S
C695 C694 1.387 1_545 S
C695 C697 1.387 1_545 S
H696 C703 0.950 . S
C697 C695 1.387 1_565 S
C697 C699 1.390 . S
C697 H701 0.950 . S
H698 C694 0.950 1_545 S
C699 C697 1.390 . S
C699 C700 1.387 . S
C699 H702 0.950 . S
C700 C699 1.387 . S
C700 C703 1.387 . S
H701 C697 0.950 . S
H702 C699 0.950 . S
C703 C694 1.390 . S
C703 H696 0.950 . S
C703 C700 1.387 . S
C704 C705 1.397 . S
C704 H708 0.950 . S
C704 C713 1.390 . S
C705 C704 1.397 . S
C705 C707 1.394 . S
H706 C713 0.950 . S
C707 C705 1.394 . S
C707 C709 1.390 . S
C707 H711 0.950 . S
H708 C704 0.950 . S
C709 C707 1.390 . S
C709 C710 1.387 . S
C709 H712 0.950 . S
C710 C709 1.387 . S
C710 C713 1.387 . S
H711 C707 0.950 . S
H712 C709 0.950 . S
C713 C704 1.390 . S
C713 H706 0.950 . S
C713 C710 1.387 . S
C714 C715 1.387 1_545 S
C714 H718 0.950 1_545 S
C714 C723 1.390 . S
C715 C714 1.387 1_565 S
C715 C717 1.387 1_565 S
H716 C723 0.950 . S
C717 C715 1.387 1_545 S
C717 C719 1.390 . S
C717 H721 0.950 1_545 S
H718 C714 0.950 1_565 S
C719 C717 1.390 . S
C719 C720 1.387 . S
C719 H722 0.950 . S
C720 C719 1.387 . S
C720 C723 1.387 . S
H721 C717 0.950 1_565 S
H722 C719 0.950 . S
C723 C714 1.390 . S
C723 H716 0.950 . S
C723 C720 1.387 . S
C724 C725 1.387 . S
C724 H728 0.950 . S
C724 C733 1.390 . S
C725 C724 1.387 . S
C725 C727 1.387 . S
H726 C733 0.950 . S
C727 C725 1.387 . S
C727 C729 1.390 . S
C727 H731 0.950 . S
H728 C724 0.950 . S
C729 C727 1.390 . S
C729 C730 1.387 . S
C729 H732 0.950 . S
C730 C729 1.387 . S
C730 C733 1.387 . S
H731 C727 0.950 . S
H732 C729 0.950 . S
C733 C724 1.390 . S
C733 H726 0.950 . S
C733 C730 1.387 . S
C734 C735 1.387 . S
C734 H738 0.950 . S
C734 C743 1.390 . S
C735 C734 1.387 . S
C735 C737 1.387 . S
H736 C743 0.950 . S
C737 C735 1.387 . S
C737 C739 1.390 . S
C737 H741 0.950 . S
H738 C734 0.950 . S
C739 C737 1.390 . S
C739 C740 1.387 . S
C739 H742 0.950 . S
C740 C739 1.387 . S
C740 C743 1.387 . S
H741 C737 0.950 . S
H742 C739 0.950 . S
C743 C734 1.390 . S
C743 H736 0.950 . S
C743 C740 1.387 . S
C744 C745 1.387 . S
C744 H748 0.950 . S
C744 C753 1.390 . S
C745 C744 1.387 . S
C745 C747 1.387 . S
H746 C753 0.950 . S
C747 C745 1.387 . S
C747 C749 1.390 . S
C747 H751 0.950 . S
H748 C744 0.950 . S
C749 C747 1.390 . S
C749 C750 1.387 . S
C749 H752 0.950 . S
C750 C749 1.387 . S
C750 C753 1.387 . S
H751 C747 0.950 . S
H752 C749 0.950 . S
C753 C744 1.390 . S
C753 H746 0.950 . S
C753 C750 1.387 . S
C754 C755 1.387 . S
C754 H758 0.950 . S
C754 C763 1.390 . S
C755 C754 1.387 . S
C755 C757 1.387 . S
H756 C763 0.950 . S
C757 C755 1.387 . S
C757 C759 1.390 . S
C757 H761 0.950 . S
H758 C754 0.950 . S
C759 C757 1.390 . S
C759 C760 1.387 . S
C759 H762 0.950 . S
C760 C759 1.387 . S
C760 C763 1.387 . S
H761 C757 0.950 . S
H762 C759 0.950 . S
C763 C754 1.390 . S
C763 H756 0.950 . S
C763 C760 1.387 . S
C764 C765 1.387 . S
C764 H768 0.950 . S
C764 C773 1.390 . S
C765 C764 1.387 . S
C765 C767 1.387 . S
H766 C773 0.950 . S
C767 C765 1.387 . S
C767 C769 1.390 . S
C767 H771 0.950 . S
H768 C764 0.950 . S
C769 C767 1.390 . S
C769 C770 1.387 . S
C769 H772 0.950 . S
C770 C769 1.387 . S
C770 C773 1.387 . S
H771 C767 0.950 . S
H772 C769 0.950 . S
C773 C764 1.390 . S
C773 H766 0.950 . S
C773 C770 1.387 . S
C774 C775 1.387 . S
C774 H778 0.950 . S
C774 C783 1.390 . S
C775 C774 1.387 . S
C775 C777 1.387 . S
H776 C783 0.950 . S
C777 C775 1.387 . S
C777 C779 1.390 . S
C777 H781 0.950 . S
H778 C774 0.950 . S
C779 C777 1.390 . S
C779 C780 1.387 . S
C779 H782 0.950 . S
C780 C779 1.387 . S
C780 C783 1.387 . S
H781 C777 0.950 . S
H782 C779 0.950 . S
C783 C774 1.390 . S
C783 H776 0.950 . S
C783 C780 1.387 . S
C784 C785 1.387 . S
C784 H788 0.950 . S
C784 C793 1.390 . S
C785 C784 1.387 . S
C785 C787 1.387 . S
H786 C793 0.950 . S
C787 C785 1.387 . S
C787 C789 1.390 . S
C787 H791 0.950 . S
H788 C784 0.950 . S
C789 C787 1.390 . S
C789 C790 1.387 . S
C789 H792 0.950 . S
C790 C789 1.387 . S
C790 C793 1.387 . S
H791 C787 0.950 . S
H792 C789 0.950 . S
C793 C784 1.390 . S
C793 H786 0.950 . S
C793 C790 1.387 . S
C794 C795 1.387 . S
C794 H798 0.950 . S
C794 C803 1.390 . S
C795 C794 1.387 . S
C795 C797 1.387 . S
H796 C803 0.950 . S
C797 C795 1.387 . S
C797 C799 1.390 . S
C797 H801 0.950 . S
H798 C794 0.950 . S
C799 C797 1.390 . S
C799 C800 1.387 . S
C799 H802 0.950 . S
C800 C799 1.387 . S
C800 C803 1.387 . S
H801 C797 0.950 . S
H802 C799 0.950 . S
C803 C794 1.390 . S
C803 H796 0.950 . S
C803 C800 1.387 . S
C570 C487 1.499 . S
C565 C31 1.671 . S
C580 C505 1.332 . S
C575 C91 1.460 . S
C585 C121 1.374 . S
C590 C529 1.449 . S
C600 C559 1.408 1_655 S
C595 C181 1.426 . S
C610 C547 1.456 . S
C605 C271 1.527 . S
C615 C301 1.390 . S
C620 C500 1.357 1_655 S
C625 C361 1.610 . S
C630 C520 1.500 . S
C635 C451 1.545 . S
C640 C525 1.408 . S
C645 C421 1.387 . S
C650 C541 1.349 . S
C655 C331 1.544 . S
C660 C496 1.397 . S
C670 C563 1.347 . S
C665 C211 1.467 . S
C680 C508 1.399 . S
C675 C61 1.419 . S
C685 C151 1.670 . S
C690 C526 1.496 . S
C695 C1 1.385 . S
C700 C484 1.453 . S
C710 C504 1.450 . S
C705 C391 1.505 1_565 S
C720 C550 1.499 . S
C715 C241 1.623 . S
C730 C546 1.328 . S
C725 C20 1.490 . S
C740 C499 1.414 . S
C735 C80 1.456 . S
C745 C140 1.474 . S
C750 C521 1.306 . S
C755 C200 1.468 . S
C760 C542 1.423 . S
C770 C483 1.329 . S
C765 C260 1.523 . S
C775 C320 1.506 . S
C780 C517 1.444 . S
C790 C538 1.338 . S
C785 C380 1.532 . S
C800 C562 1.425 . S
C795 C440 1.487 . S
