# Generated by pormake.
# Topology zzz, (3,6)-cn, num edge types: 1
# Building blocks:
#     Node 0, Type 0, BuildingBlock: VETTIZ_charged_linker_0, # of connection points: 3
#     Node 1, Type 0, BuildingBlock: VETTIZ_charged_linker_0, # of connection points: 3
#     Node 2, Type 0, BuildingBlock: VETTIZ_charged_linker_0, # of connection points: 3
#     Node 3, Type 0, BuildingBlock: VETTIZ_charged_linker_0, # of connection points: 3
#     Node 4, Type 0, BuildingBlock: VETTIZ_charged_linker_0, # of connection points: 3
#     Node 5, Type 0, BuildingBlock: VETTIZ_charged_linker_0, # of connection points: 3
#     Node 6, Type 0, BuildingBlock: VETTIZ_charged_linker_0, # of connection points: 3
#     Node 7, Type 0, BuildingBlock: VETTIZ_charged_linker_0, # of connection points: 3
#     Node 8, Type 1, BuildingBlock: FUNLAD_clean_sbu_0, # of connection points: 6
#     Node 9, Type 1, BuildingBlock: FUNLAD_clean_sbu_0, # of connection points: 6
#     Node 10, Type 1, BuildingBlock: FUNLAD_clean_sbu_0, # of connection points: 6
#     Node 11, Type 1, BuildingBlock: FUNLAD_clean_sbu_0, # of connection points: 6
#     Edge 12, Type (0, 1), BuildingBlock: CIFDUS_clean_linker_0, # of connection points: 2
#     Edge 13, Type (0, 1), BuildingBlock: CIFDUS_clean_linker_0, # of connection points: 2
#     Edge 14, Type (0, 1), BuildingBlock: CIFDUS_clean_linker_0, # of connection points: 2
#     Edge 15, Type (0, 1), BuildingBlock: CIFDUS_clean_linker_0, # of connection points: 2
#     Edge 16, Type (0, 1), BuildingBlock: CIFDUS_clean_linker_0, # of connection points: 2
#     Edge 17, Type (0, 1), BuildingBlock: CIFDUS_clean_linker_0, # of connection points: 2
#     Edge 18, Type (0, 1), BuildingBlock: CIFDUS_clean_linker_0, # of connection points: 2
#     Edge 19, Type (0, 1), BuildingBlock: CIFDUS_clean_linker_0, # of connection points: 2
#     Edge 20, Type (0, 1), BuildingBlock: CIFDUS_clean_linker_0, # of connection points: 2
#     Edge 21, Type (0, 1), BuildingBlock: CIFDUS_clean_linker_0, # of connection points: 2
#     Edge 22, Type (0, 1), BuildingBlock: CIFDUS_clean_linker_0, # of connection points: 2
#     Edge 23, Type (0, 1), BuildingBlock: CIFDUS_clean_linker_0, # of connection points: 2
#     Edge 24, Type (0, 1), BuildingBlock: CIFDUS_clean_linker_0, # of connection points: 2
#     Edge 25, Type (0, 1), BuildingBlock: CIFDUS_clean_linker_0, # of connection points: 2
#     Edge 26, Type (0, 1), BuildingBlock: CIFDUS_clean_linker_0, # of connection points: 2
#     Edge 27, Type (0, 1), BuildingBlock: CIFDUS_clean_linker_0, # of connection points: 2
#     Edge 28, Type (0, 1), BuildingBlock: CIFDUS_clean_linker_0, # of connection points: 2
#     Edge 29, Type (0, 1), BuildingBlock: CIFDUS_clean_linker_0, # of connection points: 2
#     Edge 30, Type (0, 1), BuildingBlock: CIFDUS_clean_linker_0, # of connection points: 2
#     Edge 31, Type (0, 1), BuildingBlock: CIFDUS_clean_linker_0, # of connection points: 2
#     Edge 32, Type (0, 1), BuildingBlock: CIFDUS_clean_linker_0, # of connection points: 2
#     Edge 33, Type (0, 1), BuildingBlock: CIFDUS_clean_linker_0, # of connection points: 2
#     Edge 34, Type (0, 1), BuildingBlock: CIFDUS_clean_linker_0, # of connection points: 2
#     Edge 35, Type (0, 1), BuildingBlock: CIFDUS_clean_linker_0, # of connection points: 2
# Relax obj value: 0.281
# Max RMSD: 0.234
# Mean RMSD: 0.195
data_MOF--net-zzz--node1-FUNLAD_clean_sbu_0--node2-VETTIZ_charged_linker_0--edge1-CIFDUS_clean_linker_0
_symmetry_space_group_name_H-M    P1
_symmetry_Int_Tables_number       1
_symmetry_cell_setting            triclinic
loop_
_symmetry_equiv_pos_as_xyz
'x, y, z'
_cell_length_a     51.228949
_cell_length_b     56.54481
_cell_length_c     20.304831
_cell_angle_alpha  86.361239
_cell_angle_beta   85.561542
_cell_angle_gamma 92.35217
loop_
_atom_site_label
_atom_site_type_symbol
_atom_site_fract_x
_atom_site_fract_y
_atom_site_fract_z
_atom_type_partial_charge
C0 C 0.84847 0.47404 0.39178 0.0
C1 C 0.87349 0.46841 0.41122 0.0
C2 C 0.88848 0.45278 0.3744 0.0
C3 C 0.8547 0.44913 0.29899 0.0
C4 C 0.83929 0.46382 0.33566 0.0
C5 C 0.81295 0.46656 0.30748 0.0
H6 H 0.73809 0.44856 0.04965 0.0
C7 C 0.84063 0.44201 0.24253 0.0
C8 C 0.81578 0.45165 0.24726 0.0
H9 H 0.71626 0.48513 0.2242 0.0
H10 H 0.75739 0.47518 0.26988 0.0
H11 H 0.79927 0.46797 0.03324 0.0
H12 H 0.75877 0.40419 0.12157 0.0
H13 H 0.7897 0.39566 0.09066 0.0
H14 H 0.76745 0.40798 0.03414 0.0
H15 H 0.78235 0.44676 0.98763 0.0
H16 H 0.81578 0.44342 0.00508 0.0
C17 C 0.81015 0.49309 0.28747 0.0
C18 C 0.79135 0.45598 0.35964 0.0
C19 C 0.89219 0.40756 0.05236 0.0
C20 C 0.88584 0.4026 0.98829 0.0
C21 C 0.85909 0.39974 0.97667 0.0
C22 C 0.83943 0.40532 0.02442 0.0
C23 C 0.8466 0.41373 0.08445 0.0
C24 C 0.87236 0.41308 0.09932 0.0
C25 C 0.87636 0.42166 0.16642 0.0
C26 C 0.84906 0.42951 0.18696 0.0
C27 C 0.83187 0.42523 0.13828 0.0
C28 C 0.89693 0.44283 0.1575 0.0
C29 C 0.8842 0.40024 0.21129 0.0
C30 C 0.74223 0.45445 0.0977 0.0
C31 C 0.72434 0.46789 0.13307 0.0
C32 C 0.73 0.47486 0.19604 0.0
C33 C 0.75385 0.46913 0.22221 0.0
C34 C 0.77197 0.45615 0.18508 0.0
C35 C 0.76562 0.44867 0.12449 0.0
C36 C 0.78657 0.43474 0.09165 0.0
C37 C 0.80671 0.43487 0.14238 0.0
C38 C 0.79845 0.44781 0.19679 0.0
C39 C 0.79659 0.44872 0.02574 0.0
C40 C 0.77515 0.40935 0.08347 0.0
H41 H 0.89185 0.43157 0.29329 0.0
H42 H 0.83642 0.48579 0.41974 0.0
H43 H 0.79795 0.43972 0.38603 0.0
H44 H 0.77334 0.45026 0.3374 0.0
H45 H 0.78636 0.46887 0.39722 0.0
H46 H 0.82827 0.5006 0.25856 0.0
H47 H 0.80693 0.50338 0.33198 0.0
H48 H 0.79399 0.4962 0.2557 0.0
H49 H 0.91234 0.4096 0.06422 0.0
H50 H 0.85337 0.39483 0.92897 0.0
H51 H 0.81957 0.40428 0.01117 0.0
H52 H 0.89343 0.45467 0.11346 0.0
H53 H 0.91713 0.43651 0.15019 0.0
H54 H 0.89628 0.45437 0.19921 0.0
H55 H 0.8791 0.38295 0.19112 0.0
H56 H 0.87355 0.39937 0.26114 0.0
H57 H 0.90563 0.40081 0.21667 0.0
H58 H 0.90786 0.44836 0.38781 0.0
C59 C 0.87919 0.44304 0.31914 0.0
C60 C 0.98411 0.82538 0.97641 0.0
C61 C 0.98156 0.84977 0.98433 0.0
C62 C 0.96168 0.85697 0.02983 0.0
C63 C 0.95259 0.81633 0.07017 0.0
C64 C 0.96891 0.80892 0.01925 0.0
C65 C 0.96856 0.7823 0.01968 0.0
H66 H 0.96831 0.67907 0.18225 0.0
C67 C 0.94471 0.79589 0.11621 0.0
C68 C 0.95152 0.77559 0.0842 0.0
H69 H 0.94594 0.6916 0.98162 0.0
H70 H 0.93734 0.7324 0.00408 0.0
H71 H 1.00174 0.73248 0.19614 0.0
H72 H 0.91902 0.71357 0.24328 0.0
H73 H 0.93406 0.7265 0.30916 0.0
H74 H 0.94396 0.69814 0.28393 0.0
H75 H 0.99106 0.71005 0.26046 0.0
H76 H 0.99017 0.74109 0.27492 0.0
C77 C 0.99663 0.7736 0.02312 0.0
C78 C 0.95642 0.77461 0.95666 0.0
C79 C 0.94284 0.81537 0.35515 0.0
C80 C 0.9531 0.8042 0.41021 0.0
C81 C 0.95962 0.78022 0.408 0.0
C82 C 0.95649 0.7679 0.35052 0.0
C83 C 0.94806 0.78009 0.29386 0.0
C84 C 0.9419 0.80362 0.29696 0.0
C85 C 0.93836 0.81559 0.23053 0.0
C86 C 0.9423 0.79507 0.18655 0.0
C87 C 0.94732 0.77402 0.22388 0.0
C88 C 0.95968 0.83619 0.21561 0.0
C89 C 0.91006 0.82402 0.23075 0.0
C90 C 0.96283 0.69082 0.14194 0.0
C91 C 0.95894 0.68218 0.07917 0.0
C92 C 0.95002 0.69774 0.02938 0.0
C93 C 0.94652 0.72153 0.04012 0.0
C94 C 0.9534 0.73016 0.09931 0.0
C95 C 0.95908 0.715 0.1514 0.0
C96 C 0.95898 0.72793 0.21491 0.0
C97 C 0.9517 0.75286 0.19056 0.0
C98 C 0.95084 0.75378 0.12182 0.0
C99 C 0.98691 0.72787 0.23845 0.0
C100 C 0.93795 0.71592 0.26599 0.0
H101 H 0.93161 0.84618 0.10561 0.0
H102 H 0.99829 0.81927 0.93971 0.0
H103 H 0.96266 0.78709 0.91324 0.0
H104 H 0.93466 0.77406 0.96322 0.0
H105 H 0.96327 0.75716 0.9425 0.0
H106 H 1.00559 0.78003 0.06725 0.0
H107 H 1.00928 0.78004 0.97814 0.0
H108 H 0.99651 0.75393 0.02641 0.0
H109 H 0.93857 0.834 0.3546 0.0
H110 H 0.96791 0.77133 0.44981 0.0
H111 H 0.96194 0.74978 0.35112 0.0
H112 H 0.97584 0.83129 0.18013 0.0
H113 H 0.96942 0.84121 0.25998 0.0
H114 H 0.95127 0.85279 0.19666 0.0
H115 H 0.89579 0.80988 0.25341 0.0
H116 H 0.9043 0.82827 0.18016 0.0
H117 H 0.90781 0.83996 0.25964 0.0
H118 H 0.95799 0.87558 0.03358 0.0
C119 C 0.94679 0.8402 0.07204 0.0
C120 C 0.82765 0.00172 0.06644 0.0
C121 C 0.84142 0.01019 0.00561 0.0
C122 C 0.82999 0.02713 0.9647 0.0
C123 C 0.79144 0.02648 0.0415 0.0
C124 C 0.80264 0.0105 0.08396 0.0
C125 C 0.78485 0.00503 0.14732 0.0
H126 H 0.66692 0.02669 0.31555 0.0
C127 C 0.7656 0.03228 0.07147 0.0
C128 C 0.76152 0.02044 0.13495 0.0
H129 H 0.72381 0.97922 0.38707 0.0
H130 H 0.75252 0.98917 0.28569 0.0
H131 H 0.70729 0.06923 0.25621 0.0
H132 H 0.66537 0.01018 0.18998 0.0
H133 H 0.67152 0.02778 0.11606 0.0
H134 H 0.65226 0.03894 0.18466 0.0
H135 H 0.67274 0.06724 0.24678 0.0
H136 H 0.6959 0.07927 0.18029 0.0
C137 C 0.79937 0.01283 0.20655 0.0
C138 C 0.77677 0.97838 0.15282 0.0
C139 C 0.70047 0.06934 0.92595 0.0
C140 C 0.67342 0.07228 0.93913 0.0
C141 C 0.66357 0.07427 0.00522 0.0
C142 C 0.67932 0.06964 0.05725 0.0
C143 C 0.7049 0.06233 0.04325 0.0
C144 C 0.71574 0.06388 0.9788 0.0
C145 C 0.74341 0.05571 0.97393 0.0
C146 C 0.74584 0.04609 0.04509 0.0
C147 C 0.72315 0.04992 0.08482 0.0
C148 C 0.76213 0.07775 0.95393 0.0
C149 C 0.7452 0.0359 0.92452 0.0
C150 C 0.68582 0.01874 0.31099 0.0
C151 C 0.6932 0.00263 0.36054 0.0
C152 C 0.71758 0.9919 0.34993 0.0
C153 C 0.73422 0.99772 0.2912 0.0
C154 C 0.72623 0.01416 0.24223 0.0
C155 C 0.70219 0.0241 0.25352 0.0
C156 C 0.69504 0.03989 0.19687 0.0
C157 C 0.71897 0.03865 0.14923 0.0
C158 C 0.73766 0.02366 0.17492 0.0
C159 C 0.69237 0.06526 0.22094 0.0
C160 C 0.66976 0.02887 0.17045 0.0
H161 H 0.79787 0.04808 0.94849 0.0
H162 H 0.83623 0.98898 0.09944 0.0
H163 H 0.76948 0.97297 0.10557 0.0
H164 H 0.76081 0.97389 0.19177 0.0
H165 H 0.79374 0.96756 0.16362 0.0
H166 H 0.8076 0.03134 0.1967 0.0
H167 H 0.81582 0.00114 0.21563 0.0
H168 H 0.78629 0.01252 0.2524 0.0
H169 H 0.7089 0.06883 0.87553 0.0
H170 H 0.64301 0.07693 0.01759 0.0
H171 H 0.67022 0.07013 0.10638 0.0
H172 H 0.75212 0.09473 0.95857 0.0
H173 H 0.77038 0.07764 0.90172 0.0
H174 H 0.77849 0.07887 0.98654 0.0
H175 H 0.72837 0.02279 0.93496 0.0
H176 H 0.76297 0.02568 0.92717 0.0
H177 H 0.74484 0.04341 0.87273 0.0
H178 H 0.8402 0.03396 0.91818 0.0
C179 C 0.80534 0.03533 0.98236 0.0
C180 C 0.57755 0.68534 0.41451 0.0
C181 C 0.58558 0.66177 0.4261 0.0
C182 C 0.59787 0.65045 0.37282 0.0
C183 C 0.58518 0.6814 0.29719 0.0
C184 C 0.57864 0.69524 0.34861 0.0
C185 C 0.57282 0.72005 0.3217 0.0
H186 H 0.53896 0.78502 0.04494 0.0
C187 C 0.5767 0.69265 0.2364 0.0
C188 C 0.5706 0.71608 0.24826 0.0
H189 H 0.56435 0.81396 0.22204 0.0
H190 H 0.56681 0.77376 0.2732 0.0
H191 H 0.5774 0.74286 0.02708 0.0
H192 H 0.5004 0.7473 0.12248 0.0
H193 H 0.50278 0.717 0.10921 0.0
H194 H 0.50489 0.73867 0.03937 0.0
H195 H 0.54825 0.74994 0.98732 0.0
H196 H 0.55633 0.71973 0.00342 0.0
C197 C 0.59675 0.73652 0.33203 0.0
C198 C 0.54707 0.72813 0.35555 0.0
C199 C 0.54037 0.63589 0.08028 0.0
C200 C 0.52191 0.63834 0.03283 0.0
C201 C 0.51457 0.66137 0.01318 0.0
C202 C 0.52504 0.68133 0.04136 0.0
C203 C 0.5424 0.67827 0.0912 0.0
C204 C 0.54951 0.65577 0.11034 0.0
C205 C 0.56561 0.65529 0.16909 0.0
C206 C 0.56707 0.68157 0.18194 0.0
C207 C 0.55366 0.6948 0.13594 0.0
C208 C 0.59288 0.64569 0.14926 0.0
C209 C 0.54983 0.63998 0.22598 0.0
C210 C 0.54559 0.78273 0.09424 0.0
C211 C 0.55243 0.8025 0.12853 0.0
C212 C 0.55963 0.79889 0.19406 0.0
C213 C 0.56157 0.7757 0.2231 0.0
C214 C 0.55623 0.75609 0.1861 0.0
C215 C 0.5476 0.75993 0.1235 0.0
C216 C 0.54106 0.73732 0.09244 0.0
C217 C 0.55109 0.71941 0.1418 0.0
C218 C 0.55936 0.73019 0.19778 0.0
C219 C 0.55646 0.73738 0.02372 0.0
C220 C 0.5108 0.73488 0.09033 0.0
H221 H 0.60622 0.65069 0.26861 0.0
H222 H 0.56953 0.69509 0.45497 0.0
H223 H 0.53082 0.71484 0.35094 0.0
H224 H 0.54145 0.74529 0.33293 0.0
H225 H 0.54897 0.73025 0.409 0.0
H226 H 0.61537 0.72773 0.31965 0.0
H227 H 0.59653 0.74114 0.38446 0.0
H228 H 0.59784 0.75299 0.29982 0.0
H229 H 0.54741 0.61872 0.09503 0.0
H230 H 0.50038 0.66407 0.97695 0.0
H231 H 0.51896 0.69834 0.02387 0.0
H232 H 0.59578 0.64297 0.09546 0.0
H233 H 0.5956 0.62833 0.17604 0.0
H234 H 0.60904 0.65831 0.15936 0.0
H235 H 0.53105 0.64819 0.24032 0.0
H236 H 0.56041 0.6373 0.27066 0.0
H237 H 0.54517 0.62186 0.21075 0.0
H238 H 0.60506 0.6328 0.37991 0.0
C239 C 0.59797 0.66039 0.30824 0.0
C240 C 0.30356 0.53897 0.28109 0.0
C241 C 0.3185 0.54974 0.32768 0.0
C242 C 0.31152 0.57203 0.34933 0.0
C243 C 0.27327 0.57063 0.28789 0.0
C244 C 0.2813 0.55024 0.26035 0.0
C245 C 0.26438 0.54388 0.20549 0.0
H246 H 0.15396 0.56602 0.04896 0.0
C247 C 0.24955 0.57804 0.25905 0.0
C248 C 0.24481 0.56361 0.20726 0.0
H249 H 0.20649 0.50962 0.01433 0.0
H250 H 0.23598 0.52591 0.09046 0.0
H251 H 0.14443 0.56423 0.16989 0.0
H252 H 0.19926 0.60981 0.06319 0.0
H253 H 0.18487 0.62488 0.12958 0.0
H254 H 0.16412 0.60997 0.07587 0.0
H255 H 0.142 0.59445 0.18427 0.0
H256 H 0.15812 0.5747 0.24018 0.0
C257 C 0.25097 0.51918 0.22471 0.0
C258 C 0.28177 0.5452 0.13959 0.0
C259 C 0.17799 0.61094 0.40377 0.0
C260 C 0.15245 0.61674 0.38964 0.0
C261 C 0.1477 0.62368 0.32388 0.0
C262 C 0.16677 0.62093 0.27209 0.0
C263 C 0.19012 0.61045 0.28654 0.0
C264 C 0.19671 0.608 0.35104 0.0
C265 C 0.22395 0.59919 0.35513 0.0
C266 C 0.23043 0.59339 0.28301 0.0
C267 C 0.20954 0.59858 0.24466 0.0
C268 C 0.22325 0.57681 0.40321 0.0
C269 C 0.24159 0.61952 0.3778 0.0
C270 C 0.17192 0.55721 0.05746 0.0
C271 C 0.17774 0.53637 0.02667 0.0
C272 C 0.20153 0.52568 0.03786 0.0
C273 C 0.21842 0.53503 0.08253 0.0
C274 C 0.21118 0.55502 0.11673 0.0
C275 C 0.18827 0.56577 0.10327 0.0
C276 C 0.1822 0.58573 0.14635 0.0
C277 C 0.20554 0.58555 0.18826 0.0
C278 C 0.22261 0.5676 0.17059 0.0
C279 C 0.15546 0.57963 0.18739 0.0
C280 C 0.18246 0.60891 0.10157 0.0
H281 H 0.2856 0.60043 0.34115 0.0
H282 H 0.30932 0.52253 0.2608 0.0
H283 H 0.2962 0.56055 0.13697 0.0
H284 H 0.27045 0.54804 0.09594 0.0
H285 H 0.29289 0.52885 0.13474 0.0
H286 H 0.24247 0.51819 0.27698 0.0
H287 H 0.26532 0.50505 0.21996 0.0
H288 H 0.23459 0.51506 0.19462 0.0
H289 H 0.18238 0.6063 0.45412 0.0
H290 H 0.12849 0.62916 0.31214 0.0
H291 H 0.16225 0.62568 0.22245 0.0
H292 H 0.2095 0.56283 0.38785 0.0
H293 H 0.21694 0.58099 0.45455 0.0
H294 H 0.24288 0.56939 0.4047 0.0
H295 H 0.23012 0.63184 0.40796 0.0
H296 H 0.25171 0.63022 0.33475 0.0
H297 H 0.25628 0.61272 0.4107 0.0
H298 H 0.32323 0.58114 0.38293 0.0
C299 C 0.28927 0.58273 0.32827 0.0
C300 C 0.08258 0.17442 0.46617 0.0
C301 C 0.08205 0.14971 0.46018 0.0
C302 C 0.1013 0.14013 0.41736 0.0
C303 C 0.11667 0.17952 0.37661 0.0
C304 C 0.10054 0.18898 0.4246 0.0
C305 C 0.1046 0.21553 0.42331 0.0
H306 H 0.1229 0.31782 0.2553 0.0
C307 C 0.1287 0.19891 0.33177 0.0
C308 C 0.12388 0.22006 0.36168 0.0
H309 H 0.1374 0.30445 0.46144 0.0
H310 H 0.14104 0.26234 0.44374 0.0
H311 H 0.16974 0.27854 0.21063 0.0
H312 H 0.08497 0.26811 0.23324 0.0
H313 H 0.09852 0.25781 0.15826 0.0
H314 H 0.10091 0.28901 0.17095 0.0
H315 H 0.14904 0.29582 0.1606 0.0
H316 H 0.15694 0.26629 0.14092 0.0
C317 C 0.11594 0.22202 0.48847 0.0
C318 C 0.07844 0.22744 0.41417 0.0
C319 C 0.13878 0.17888 0.09316 0.0
C320 C 0.13303 0.19122 0.03476 0.0
C321 C 0.1298 0.21587 0.03437 0.0
C322 C 0.13168 0.22785 0.0929 0.0
C323 C 0.13552 0.21475 0.15251 0.0
C324 C 0.13853 0.19054 0.15165 0.0
C325 C 0.13723 0.17827 0.21947 0.0
C326 C 0.13414 0.19927 0.262 0.0
C327 C 0.1338 0.22078 0.22277 0.0
C328 C 0.16356 0.16655 0.22836 0.0
C329 C 0.11305 0.16028 0.22788 0.0
C330 C 0.1256 0.30571 0.29745 0.0
C331 C 0.12847 0.31423 0.36066 0.0
C332 C 0.13389 0.2982 0.4134 0.0
C333 C 0.13455 0.27395 0.40495 0.0
C334 C 0.12857 0.26566 0.34452 0.0
C335 C 0.12672 0.28113 0.29015 0.0
C336 C 0.12795 0.268 0.22703 0.0
C337 C 0.13096 0.24245 0.2544 0.0
C338 C 0.12895 0.24167 0.32358 0.0
C339 C 0.15214 0.27765 0.1819 0.0
C340 C 0.1018 0.27089 0.19509 0.0
H341 H 0.13362 0.14712 0.34539 0.0
H342 H 0.06891 0.18224 0.50087 0.0
H343 H 0.06996 0.22197 0.36837 0.0
H344 H 0.08133 0.24706 0.41036 0.0
H345 H 0.06397 0.22256 0.45698 0.0
H346 H 0.10718 0.21032 0.53125 0.0
H347 H 0.1111 0.24021 0.50097 0.0
H348 H 0.13752 0.22024 0.48575 0.0
H349 H 0.14034 0.15978 0.09489 0.0
H350 H 0.12474 0.22557 0.98978 0.0
H351 H 0.12867 0.24653 0.09041 0.0
H352 H 0.18035 0.17891 0.20965 0.0
H353 H 0.16487 0.15026 0.20063 0.0
H354 H 0.16634 0.16187 0.28096 0.0
H355 H 0.0967 0.16679 0.25997 0.0
H356 H 0.11824 0.14254 0.24789 0.0
H357 H 0.10445 0.15697 0.18059 0.0
H358 H 0.10259 0.12112 0.41526 0.0
C359 C 0.11893 0.155 0.37634 0.0
C360 C 0.32951 0.9888 0.07959 0.0
C361 C 0.35303 0.9794 0.05245 0.0
C362 C 0.36317 0.95983 0.08662 0.0
C363 C 0.32933 0.9608 0.17565 0.0
C364 C 0.31763 0.97876 0.14126 0.0
C365 C 0.29191 0.98454 0.17862 0.0
H366 H 0.21767 0.97239 0.47877 0.0
C367 C 0.31523 0.95616 0.24138 0.0
C368 C 0.29282 0.96973 0.24451 0.0
H369 H 0.19343 0.005 0.29679 0.0
H370 H 0.2356 0.9969 0.23985 0.0
H371 H 0.24255 0.92699 0.41887 0.0
H372 H 0.27423 0.99495 0.46419 0.0
H373 H 0.30008 0.97579 0.47167 0.0
H374 H 0.27033 0.97062 0.52551 0.0
H375 H 0.24329 0.9372 0.50078 0.0
H376 H 0.27058 0.92273 0.46298 0.0
C377 C 0.26929 0.97578 0.13903 0.0
C378 C 0.29176 0.01132 0.18841 0.0
C379 C 0.36606 0.91623 0.41652 0.0
C380 C 0.36518 0.91882 0.4849 0.0
C381 C 0.34171 0.92578 0.51759 0.0
C382 C 0.32074 0.93276 0.4813 0.0
C383 C 0.3236 0.93341 0.41167 0.0
C384 C 0.34586 0.92483 0.38069 0.0
C385 C 0.34777 0.93012 0.30712 0.0
C386 C 0.32328 0.94395 0.299 0.0
C387 C 0.30883 0.94518 0.35984 0.0
C388 C 0.34588 0.90609 0.27461 0.0
C389 C 0.37358 0.94539 0.28665 0.0
C390 C 0.22133 0.97799 0.42675 0.0
C391 C 0.20209 0.9894 0.39264 0.0
C392 C 0.20778 0.996 0.32441 0.0
C393 C 0.23215 0.99115 0.29127 0.0
C394 C 0.25088 0.97914 0.32625 0.0
C395 C 0.24509 0.97287 0.39304 0.0
C396 C 0.26657 0.95995 0.42345 0.0
C397 C 0.28538 0.95765 0.36325 0.0
C398 C 0.27684 0.96952 0.30599 0.0
C399 C 0.25529 0.93543 0.45354 0.0
C400 C 0.27841 0.97595 0.47413 0.0
H401 H 0.36048 0.93574 0.16998 0.0
H402 H 0.32075 0.00338 0.05358 0.0
H403 H 0.30952 0.01711 0.21239 0.0
H404 H 0.2745 0.01591 0.22028 0.0
H405 H 0.2916 0.02168 0.1401 0.0
H406 H 0.27295 0.95784 0.12178 0.0
H407 H 0.26736 0.98797 0.09473 0.0
H408 H 0.25035 0.97398 0.16887 0.0
H409 H 0.3837 0.91064 0.39007 0.0
H410 H 0.34036 0.92781 0.5704 0.0
H411 H 0.30381 0.93877 0.50861 0.0
H412 H 0.33191 0.8933 0.3045 0.0
H413 H 0.36523 0.8979 0.27046 0.0
H414 H 0.33814 0.90771 0.22523 0.0
H415 H 0.38266 0.9525 0.32976 0.0
H416 H 0.37032 0.96155 0.25529 0.0
H417 H 0.38858 0.93497 0.2605 0.0
H418 H 0.38105 0.95214 0.06774 0.0
C419 C 0.35136 0.9504 0.14695 0.0
C420 C 0.47569 0.32786 0.03994 0.0
C421 C 0.47088 0.3523 0.03005 0.0
C422 C 0.46449 0.36523 0.08561 0.0
C423 C 0.47367 0.33178 0.15834 0.0
C424 C 0.4761 0.31774 0.10534 0.0
C425 C 0.47915 0.29202 0.12892 0.0
H426 H 0.50028 0.21529 0.39389 0.0
C427 C 0.47993 0.31792 0.2181 0.0
C428 C 0.48228 0.29417 0.20273 0.0
H429 H 0.48112 0.19548 0.20117 0.0
H430 H 0.48126 0.23739 0.16244 0.0
H431 H 0.54254 0.25315 0.33847 0.0
H432 H 0.46248 0.25819 0.41301 0.0
H433 H 0.48198 0.27957 0.44918 0.0
H434 H 0.48859 0.24874 0.46128 0.0
H435 H 0.53405 0.25622 0.42455 0.0
H436 H 0.54119 0.28177 0.36689 0.0
C437 C 0.50379 0.28261 0.09278 0.0
C438 C 0.45363 0.27793 0.11731 0.0
C439 C 0.51168 0.36339 0.40579 0.0
C440 C 0.52488 0.35671 0.46175 0.0
C441 C 0.52774 0.33237 0.47786 0.0
C442 C 0.51819 0.31516 0.43789 0.0
C443 C 0.50602 0.32232 0.38057 0.0
C444 C 0.50301 0.3461 0.36544 0.0
C445 C 0.49093 0.35075 0.30108 0.0
C446 C 0.48784 0.32564 0.27891 0.0
C447 C 0.49637 0.30918 0.32599 0.0
C448 C 0.51094 0.36652 0.25463 0.0
C449 C 0.46415 0.3621 0.31535 0.0
C450 C 0.49562 0.21995 0.34367 0.0
C451 C 0.48985 0.20225 0.30121 0.0
C452 C 0.48509 0.20894 0.23516 0.0
C453 C 0.48486 0.23317 0.21312 0.0
C454 C 0.48962 0.25072 0.25758 0.0
C455 C 0.49548 0.24376 0.32118 0.0
C456 C 0.50179 0.26426 0.36119 0.0
C457 C 0.49606 0.28479 0.31402 0.0
C458 C 0.4892 0.27709 0.2527 0.0
C459 C 0.53131 0.26389 0.37396 0.0
C460 C 0.48288 0.26268 0.42483 0.0
H461 H 0.46154 0.36602 0.18966 0.0
H462 H 0.47964 0.31724 0.99809 0.0
H463 H 0.43618 0.28824 0.13073 0.0
H464 H 0.45085 0.26116 0.14824 0.0
H465 H 0.45321 0.27405 0.06443 0.0
H466 H 0.521 0.29499 0.09614 0.0
H467 H 0.50097 0.28086 0.03957 0.0
H468 H 0.50881 0.26515 0.11451 0.0
H469 H 0.50822 0.38182 0.39308 0.0
H470 H 0.53774 0.32662 0.52072 0.0
H471 H 0.52085 0.29697 0.45295 0.0
H472 H 0.53036 0.35838 0.25127 0.0
H473 H 0.51359 0.38439 0.27362 0.0
H474 H 0.50528 0.36924 0.20371 0.0
H475 H 0.45742 0.3606 0.36895 0.0
H476 H 0.44827 0.35307 0.29079 0.0
H477 H 0.46521 0.38128 0.29917 0.0
H478 H 0.46036 0.38386 0.07975 0.0
C479 C 0.46568 0.35504 0.14949 0.0
C480 C 0.04271 0.96763 0.81558 0.0
N481 N 1.0043 0.96237 0.6437 0.0
C482 C 0.01901 0.94286 0.64328 0.0
C483 C 1.00943 0.92171 0.62045 0.0
C484 C 0.98478 0.92052 0.5944 0.0
C485 C 0.97057 0.94143 0.59224 0.0
C486 C 0.98053 0.96208 0.61817 0.0
Zn487 Zn 0.01861 0.99044 0.693 0.0
C488 C 0.98092 0.00424 0.80363 0.0
N489 N 0.05272 0.04203 0.8095 0.0
C490 C 0.07733 0.04386 0.83027 0.0
C491 C 0.03624 0.06022 0.81508 0.0
C492 C 0.04414 0.08114 0.84181 0.0
C493 C 0.06928 0.08363 0.86414 0.0
C494 C 0.08605 0.06462 0.85803 0.0
Zn495 Zn 0.03853 0.01388 0.76066 0.0
O496 O 0.03091 0.96566 0.76342 0.0
C497 C 0.07655 1.00082 0.65103 0.0
O498 O 0.04962 0.98813 0.83219 0.0
H499 H 0.01691 0.05879 0.79741 0.0
H500 H 0.03804 0.94336 0.6628 0.0
H501 H 0.09028 0.02935 0.82473 0.0
O502 O 0.05595 0.99 0.63461 0.0
O503 O 0.07518 0.01202 0.70365 0.0
H504 H 0.96908 0.97773 0.61881 0.0
O505 O 0.02704 0.03875 0.68913 0.0
O506 O 1.00679 0.01633 0.62287 0.0
O507 O 1.0019 0.01527 0.81599 0.0
O508 O 0.98131 0.99164 0.75359 0.0
C509 C 0.0146 0.03679 0.63796 0.0
H510 H 0.02123 0.90637 0.62515 0.0
H511 H 0.95185 0.94201 0.57114 0.0
H512 H 0.03068 0.09539 0.84404 0.0
H513 H 0.10555 0.06567 0.87505 0.0
C514 C 0.4928 0.96977 0.62347 0.0
N515 N 0.50272 0.04436 0.61719 0.0
C516 C 0.5045 0.04342 0.55011 0.0
C517 C 0.49859 0.06303 0.50917 0.0
C518 C 0.491 0.08406 0.5372 0.0
C519 C 0.48936 0.08444 0.60674 0.0
C520 C 0.49515 0.06435 0.64581 0.0
Zn521 Zn 0.51316 0.01545 0.67542 0.0
C522 C 0.47399 0.99895 0.78419 0.0
N523 N 0.53725 0.95335 0.78423 0.0
C524 C 0.54258 0.93239 0.75786 0.0
C525 C 0.53751 0.95558 0.8506 0.0
C526 C 0.54328 0.93636 0.8931 0.0
C527 C 0.54848 0.91434 0.8676 0.0
C528 C 0.54807 0.91262 0.7987 0.0
Zn529 Zn 0.52659 0.982 0.72515 0.0
O530 O 0.49396 0.99227 0.6151 0.0
C531 C 0.56583 0.99833 0.61643 0.0
O532 O 0.50486 0.95954 0.66874 0.0
H533 H 0.53297 0.97227 0.87096 0.0
H534 H 0.51071 0.02745 0.52808 0.0
H535 H 0.54214 0.93086 0.70514 0.0
O536 O 0.54911 0.01441 0.61422 0.0
O537 O 0.56129 0.98047 0.6579 0.0
H538 H 0.49397 0.06485 0.69911 0.0
O539 O 0.54834 0.00537 0.77952 0.0
O540 O 0.53288 0.038 0.73593 0.0
O541 O 0.4917 0.98392 0.78976 0.0
O542 O 0.47736 0.01577 0.73913 0.0
C543 C 0.54791 0.02788 0.77457 0.0
H544 H 0.49985 0.06162 0.45612 0.0
H545 H 0.48415 0.10027 0.63105 0.0
H546 H 0.54371 0.93886 0.94542 0.0
H547 H 0.55141 0.89602 0.77634 0.0
C548 C 0.54606 0.47554 0.62838 0.0
N549 N 0.47616 0.5121 0.62836 0.0
C550 C 0.46621 0.49421 0.59446 0.0
C551 C 0.44775 0.4988 0.54826 0.0
C552 C 0.43955 0.52204 0.53681 0.0
C553 C 0.44949 0.53987 0.57439 0.0
C554 C 0.46786 0.53455 0.6196 0.0
Zn555 Zn 0.50638 0.50725 0.68849 0.0
C556 C 0.49889 0.46444 0.78295 0.0
N557 N 0.57207 0.49838 0.80595 0.0
C558 C 0.59691 0.49755 0.77754 0.0
C559 C 0.5673 0.49747 0.873 0.0
C560 C 0.58797 0.49622 0.9141 0.0
C561 C 0.61391 0.49547 0.88624 0.0
C562 C 0.61809 0.49583 0.81677 0.0
Zn563 Zn 0.54146 0.50214 0.74657 0.0
O564 O 0.52468 0.48549 0.61978 0.0
C565 C 0.54928 0.54502 0.653 0.0
O566 O 0.55826 0.47935 0.67901 0.0
H567 H 0.54743 0.49803 0.89485 0.0
H568 H 0.47313 0.47649 0.60186 0.0
H569 H 0.60038 0.49835 0.72422 0.0
O570 O 0.52642 0.53809 0.64022 0.0
O571 O 0.56136 0.53267 0.69444 0.0
H572 H 0.476 0.54861 0.64657 0.0
O573 O 0.52348 0.52484 0.81353 0.0
O574 O 0.48894 0.52914 0.75691 0.0
O575 O 0.52152 0.47187 0.79635 0.0
O576 O 0.48678 0.47615 0.74001 0.0
C577 C 0.50164 0.53407 0.80577 0.0
H578 H 0.44066 0.48451 0.52035 0.0
H579 H 0.44334 0.55793 0.56851 0.0
H580 H 0.58358 0.49631 0.96708 0.0
H581 H 0.63752 0.4947 0.79254 0.0
C582 C 0.05176 0.53323 0.61376 0.0
N583 N 0.05545 0.45898 0.6134 0.0
C584 C 0.07928 0.4625 0.57874 0.0
C585 C 0.08797 0.44618 0.53363 0.0
C586 C 0.07191 0.42612 0.52392 0.0
C587 C 0.0476 0.42287 0.56113 0.0
C588 C 0.03974 0.43953 0.60553 0.0
Zn589 Zn 0.04083 0.48369 0.67499 0.0
C590 C 0.07628 0.49978 0.77007 0.0
N591 N 1.00609 0.53579 0.79387 0.0
C592 C 0.99323 0.5543 0.76778 0.0
C593 C 1.00916 0.53332 0.85999 0.0
C594 C 0.9993 0.54996 0.9025 0.0
C595 C 0.98585 0.56917 0.8769 0.0
C596 C 0.98284 0.57117 0.80855 0.0
Zn597 Zn 0.02167 0.51154 0.73214 0.0
O598 O 0.05412 0.5114 0.6041 0.0
C599 C 0.98549 0.49412 0.64045 0.0
O600 O 0.03965 0.53922 0.66668 0.0
H601 H 0.01934 0.51844 0.87991 0.0
H602 H 0.09143 0.47814 0.58536 0.0
H603 H 0.99115 0.55607 0.71512 0.0
O604 O 1.00469 0.48083 0.63168 0.0
O605 O 0.98723 0.51107 0.67839 0.0
H606 H 0.02084 0.43701 0.63328 0.0
O607 O 1.00388 0.48341 0.79504 0.0
O608 O 0.02656 0.45633 0.74626 0.0
O609 O 0.05585 0.51098 0.78512 0.0
O610 O 0.07671 0.48678 0.72114 0.0
C611 C 1.00954 0.46186 0.79074 0.0
H612 H 0.10681 0.44947 0.50587 0.0
H613 H 0.03478 0.40746 0.55651 0.0
H614 H 1.0019 0.54766 0.95491 0.0
H615 H 0.97292 0.5859 0.78655 0.0
H616 H 0.19265 0.00536 0.51605 0.0
H617 H 0.15284 0.98146 0.35126 0.0
H618 H 0.11055 0.98277 0.41595 0.0
H619 H 0.08493 0.98877 0.52208 0.0
H620 H 0.1254 0.01317 0.68556 0.0
H621 H 0.16717 0.01321 0.61921 0.0
C622 C 0.17473 1.00049 0.49409 0.0
C623 C 0.17608 0.99317 0.42877 0.0
C624 C 0.1505 0.00108 0.53183 0.0
C625 C 0.1525 0.98735 0.40103 0.0
C626 C 0.12829 0.98787 0.43834 0.0
C627 C 0.10289 0.99405 0.54323 0.0
C628 C 0.10189 1.00074 0.60926 0.0
C629 C 0.12705 0.99435 0.50424 0.0
C630 C 0.12543 0.00785 0.63523 0.0
C631 C 0.14941 0.00791 0.5972 0.0
H632 H 0.46001 0.18263 0.40741 0.0
H633 H 0.51892 0.16606 0.2565 0.0
H634 H 0.52375 0.12722 0.31461 0.0
H635 H 0.51434 0.10001 0.41463 0.0
H636 H 0.45406 0.11667 0.56319 0.0
H637 H 0.44703 0.15359 0.50026 0.0
C638 C 0.47355 0.17028 0.38669 0.0
C639 C 0.48914 0.17714 0.32794 0.0
C640 C 0.47637 0.14824 0.4207 0.0
C641 C 0.50657 0.16106 0.30136 0.0
C642 C 0.5095 0.13898 0.33498 0.0
C643 C 0.49929 0.11142 0.43283 0.0
C644 C 0.48517 0.10556 0.49474 0.0
C645 C 0.49497 0.13264 0.39566 0.0
C646 C 0.46587 0.12087 0.51708 0.0
C647 C 0.46161 0.14197 0.48072 0.0
H648 H 0.36739 0.56906 0.33266 0.0
H649 H 0.32 0.50507 0.38652 0.0
H650 H 0.3544 0.4896 0.45277 0.0
H651 H 0.39569 0.4967 0.50603 0.0
H652 H 0.44258 0.56111 0.45041 0.0
H653 H 0.41058 0.57406 0.37494 0.0
C654 C 0.36482 0.55155 0.35806 0.0
C655 C 0.34118 0.53829 0.35531 0.0
C656 C 0.38439 0.54306 0.39682 0.0
C657 C 0.33813 0.51553 0.38773 0.0
C658 C 0.35767 0.50682 0.42612 0.0
C659 C 0.39912 0.51336 0.47654 0.0
C660 C 0.42126 0.52815 0.4853 0.0
C661 C 0.38056 0.52077 0.4327 0.0
C662 C 0.42537 0.54968 0.44637 0.0
C663 C 0.40716 0.55706 0.40273 0.0
H664 H 0.08541 0.33949 0.34523 0.0
H665 H 0.16317 0.34436 0.41158 0.0
H666 H 0.15335 0.38134 0.46271 0.0
H667 H 0.12059 0.40876 0.5025 0.0
H668 H 0.04224 0.40322 0.43896 0.0
H669 H 0.05424 0.37009 0.37325 0.0
C670 C 0.10041 0.34913 0.36897 0.0
C671 C 0.12495 0.33933 0.37467 0.0
C672 C 0.0943 0.36994 0.40027 0.0
C673 C 0.14416 0.35169 0.40655 0.0
C674 C 0.13847 0.37269 0.43626 0.0
C675 C 0.10629 0.40068 0.4731 0.0
C676 C 0.08041 0.40824 0.47678 0.0
C677 C 0.11327 0.38147 0.43568 0.0
C678 C 0.06213 0.39741 0.43848 0.0
C679 C 0.06901 0.37852 0.4005 0.0
H680 H 0.88679 0.03647 0.99262 0.0
H681 H 0.85416 0.96738 0.95908 0.0
H682 H 0.89434 0.95903 0.89183 0.0
H683 H 0.93778 0.97309 0.83456 0.0
H684 H 0.96952 0.04243 0.87182 0.0
H685 H 0.93087 0.04902 0.94443 0.0
C686 C 0.88885 0.0193 0.97225 0.0
C687 C 0.86774 0.0024 0.98182 0.0
C688 C 0.91171 0.01491 0.93265 0.0
C689 C 0.87038 0.98044 0.95381 0.0
C690 C 0.89321 0.97584 0.91444 0.0
C691 C 0.93614 0.98962 0.85854 0.0
C692 C 0.95653 0.00734 0.8469 0.0
C693 C 0.9138 0.99322 0.90195 0.0
C694 C 0.95422 0.02849 0.87944 0.0
C695 C 0.93209 0.0323 0.92129 0.0
H696 H 0.57767 0.8172 0.01059 0.0
H697 H 0.52621 0.84116 0.1681 0.0
H698 H 0.52093 0.87836 0.10213 0.0
H699 H 0.52821 0.90237 0.9958 0.0
H700 H 0.58162 0.87861 0.84091 0.0
H701 H 0.58837 0.84284 0.90926 0.0
C702 C 0.56554 0.83072 0.03072 0.0
C703 C 0.55222 0.82645 0.09389 0.0
C704 C 0.56257 0.85189 0.99249 0.0
C705 C 0.53675 0.84413 0.11975 0.0
C706 C 0.53359 0.86528 0.08178 0.0
C707 C 0.54173 0.88966 0.97717 0.0
C708 C 0.55398 0.89325 0.91223 0.0
C709 C 0.54602 0.86916 0.01748 0.0
C710 C 0.57122 0.87622 0.8895 0.0
C711 C 0.57534 0.85577 0.92892 0.0
H712 H 0.72154 0.49471 0.01984 0.0
H713 H 0.67359 0.45523 0.17613 0.0
H714 H 0.63467 0.46071 0.11428 0.0
H715 H 0.61543 0.47378 0.01122 0.0
H716 H 0.66357 0.51547 0.85823 0.0
H717 H 0.70134 0.51163 0.92279 0.0
C718 C 0.70243 0.48771 0.0407 0.0
C719 C 0.70026 0.47462 0.10219 0.0
C720 C 0.68034 0.49088 0.00488 0.0
C721 C 0.67555 0.46555 0.12906 0.0
C722 C 0.65342 0.46851 0.09343 0.0
C723 C 0.63399 0.48246 0.99227 0.0
C724 C 0.6365 0.49449 0.9288 0.0
C725 C 0.65569 0.48073 0.03058 0.0
C726 C 0.661 0.50538 0.90557 0.0
C727 C 0.68267 0.50345 0.94286 0.0
H728 H 0.92913 0.65203 0.01394 0.0
H729 H 1.00205 0.65725 0.10586 0.0
H730 H 0.01599 0.62096 0.05622 0.0
H731 H 0.00982 0.59102 0.97414 0.0
H732 H 0.93771 0.58788 0.8777 0.0
H733 H 0.92134 0.62034 0.94043 0.0
C734 C 0.94798 0.64509 0.02372 0.0
C735 C 0.9647 0.65754 0.06275 0.0
C736 C 0.95624 0.62485 0.99294 0.0
C737 C 0.98877 0.648 0.0762 0.0
C738 C 0.99688 0.6274 0.04712 0.0
C739 C 0.99035 0.59719 0.96776 0.0
C740 C 0.97515 0.58724 0.92056 0.0
C741 C 0.98116 0.61617 0.00347 0.0
C742 C 0.95 0.59552 0.91268 0.0
C743 C 0.94057 0.614 0.94879 0.0
H744 H 0.05559 0.11175 0.4176 0.0
H745 H 0.06348 0.15187 0.58958 0.0
H746 H 0.03551 0.12224 0.65705 0.0
H747 H 0.01643 0.08193 0.67102 0.0
H748 H 0.01363 0.03924 0.50286 0.0
H749 H 0.03099 0.0732 0.42935 0.0
C750 C 0.05103 0.11406 0.4698 0.0
C751 C 0.06209 0.13368 0.49892 0.0
C752 C 0.03573 0.09654 0.50875 0.0
C753 C 0.05533 0.1369 0.56601 0.0
C754 C 0.03942 0.11991 0.60467 0.0
C755 C 0.01889 0.08027 0.61794 0.0
C756 C 0.01436 0.05806 0.59236 0.0
C757 C 0.03051 0.09924 0.5771 0.0
C758 C 0.01707 0.05616 0.52364 0.0
C759 C 0.02742 0.07546 0.48184 0.0
H760 H 0.41087 0.93968 0.43234 0.0
H761 H 0.3752 0.90266 0.61138 0.0
H762 H 0.41447 0.91216 0.66838 0.0
H763 H 0.45641 0.93555 0.67 0.0
H764 H 0.48892 0.97509 0.49188 0.0
H765 H 0.4537 0.95924 0.43063 0.0
C766 C 0.41189 0.93285 0.48316 0.0
C767 C 0.39015 0.92027 0.51739 0.0
C768 C 0.434 0.93892 0.51563 0.0
C769 C 0.39165 0.91239 0.58398 0.0
C770 C 0.41407 0.91784 0.61649 0.0
C771 C 0.45608 0.94003 0.61731 0.0
C772 C 0.47514 0.95624 0.58493 0.0
C773 C 0.43503 0.93173 0.58327 0.0
C774 C 0.47441 0.96252 0.51727 0.0
C775 C 0.45424 0.95359 0.48252 0.0
H776 H 0.54691 0.40013 0.41938 0.0
H777 H 0.526 0.35505 0.59702 0.0
H778 H 0.53712 0.38758 0.66459 0.0
H779 H 0.54555 0.43029 0.67302 0.0
H780 H 0.55848 0.47657 0.49571 0.0
H781 H 0.55767 0.44225 0.42774 0.0
C782 C 0.54468 0.39738 0.47289 0.0
C783 C 0.53508 0.37526 0.50294 0.0
C784 C 0.54966 0.41648 0.51136 0.0
C785 C 0.53335 0.37181 0.57237 0.0
C786 C 0.53951 0.39049 0.61113 0.0
C787 C 0.5491 0.43265 0.61954 0.0
C788 C 0.55258 0.45562 0.58886 0.0
C789 C 0.54677 0.41307 0.58114 0.0
C790 C 0.55624 0.45887 0.51979 0.0
C791 C 0.5555 0.43932 0.4812 0.0
H792 H 0.11081 0.58905 0.36825 0.0
H793 H 0.14545 0.62625 0.52109 0.0
H794 H 0.11385 0.60573 0.60486 0.0
H795 H 0.08058 0.57297 0.63525 0.0
H796 H 0.05068 0.53293 0.48137 0.0
H797 H 0.07589 0.55901 0.39694 0.0
C798 C 0.11089 0.59332 0.4196 0.0
C799 C 0.13021 0.60932 0.4385 0.0
C800 C 0.0937 0.58062 0.46727 0.0
C801 C 0.1306 0.6141 0.50548 0.0
C802 C 0.11268 0.60225 0.55327 0.0
C803 C 0.07924 0.5704 0.5831 0.0
C804 C 0.06391 0.55119 0.56409 0.0
C805 C 0.09476 0.58483 0.53496 0.0
C806 C 0.06249 0.54762 0.49673 0.0
C807 C 0.07689 0.56249 0.4486 0.0
H808 H 1.00403 0.88921 0.02968 0.0
H809 H 0.99978 0.85046 0.85392 0.0
H810 H 0.02591 0.88207 0.78924 0.0
H811 H 0.04317 0.92294 0.77931 0.0
H812 H 0.04224 0.9641 0.95108 0.0
H813 H 0.02601 0.92896 0.02151 0.0
C814 C 1.00888 0.88769 0.97721 0.0
C815 C 0.99951 0.86777 0.9463 0.0
C816 C 0.02321 0.90625 0.93996 0.0
C817 C 1.00665 0.86563 0.87884 0.0
C818 C 0.02155 0.88371 0.84182 0.0
C819 C 0.04008 0.92406 0.83248 0.0
C820 C 0.04333 0.9461 0.85998 0.0
C821 C 0.02906 0.9044 0.87144 0.0
C822 C 0.03983 0.94731 0.92887 0.0
C823 C 0.03011 0.92733 0.96887 0.0
H824 H 0.62572 0.09149 0.92071 0.0
H825 H 0.67871 0.04011 0.84535 0.0
H826 H 0.64451 0.02307 0.78516 0.0
H827 H 0.59832 0.0186 0.76698 0.0
H828 H 0.54401 0.06865 0.84098 0.0
H829 H 0.57976 0.08992 0.8905 0.0
C830 C 0.62988 0.07678 0.89039 0.0
C831 C 0.65482 0.06702 0.88865 0.0
C832 C 0.60968 0.06629 0.85748 0.0
C833 C 0.65997 0.04833 0.84755 0.0
C834 C 0.64023 0.03818 0.8138 0.0
C835 C 0.59434 0.03417 0.79413 0.0
C836 C 0.56867 0.04172 0.8026 0.0
C837 C 0.61484 0.04633 0.82089 0.0
C838 C 0.5637 0.06236 0.83534 0.0
C839 C 0.5841 0.0745 0.86323 0.0
H840 H 0.5058 0.63426 0.90808 0.0
H841 H 0.51213 0.59364 0.09352 0.0
H842 H 0.50333 0.55713 0.04084 0.0
H843 H 0.50043 0.53656 0.93819 0.0
H844 H 0.48918 0.5771 0.7565 0.0
H845 H 0.49205 0.61395 0.81272 0.0
C846 C 0.50448 0.61761 0.9379 0.0
C847 C 0.51099 0.61683 0.00404 0.0
C848 C 0.49837 0.5966 0.90806 0.0
C849 C 0.50878 0.59485 0.04145 0.0
C850 C 0.50338 0.57387 0.01169 0.0
C851 C 0.49765 0.55345 0.9118 0.0
C852 C 0.49477 0.55434 0.84372 0.0
C853 C 0.49922 0.5745 0.94439 0.0
C854 C 0.49117 0.57615 0.80935 0.0
C855 C 0.49315 0.59721 0.84122 0.0
H856 H 0.93819 0.39259 0.98648 0.0
H857 H 0.88045 0.42138 0.86276 0.0
H858 H 0.91493 0.43924 0.78538 0.0
H859 H 0.9603 0.45415 0.76547 0.0
H860 H 0.01859 0.42911 0.89127 0.0
H861 H 0.98506 0.40316 0.95688 0.0
C862 C 0.93309 0.40257 0.94232 0.0
C863 C 0.90652 0.40611 0.93219 0.0
C864 C 0.95311 0.4142 0.89953 0.0
C865 C 0.90049 0.41818 0.8728 0.0
C866 C 0.92027 0.42886 0.82865 0.0
C867 C 0.96567 0.44258 0.80647 0.0
C868 C 0.99147 0.44354 0.82464 0.0
C869 C 0.94642 0.42815 0.84366 0.0
C870 C 0.99862 0.42858 0.87722 0.0
C871 C 0.97948 0.41384 0.91447 0.0
H872 H 0.08431 0.17514 0.02254 0.0
H873 H 0.1633 0.17282 0.93527 0.0
H874 H 0.1503 0.13935 0.87145 0.0
H875 H 0.11708 0.1082 0.84992 0.0
H876 H 0.03929 0.109 0.94825 0.0
H877 H 0.05111 0.14543 0.99826 0.0
C878 C 0.09838 0.16782 0.98753 0.0
C879 C 0.12446 0.17675 0.98176 0.0
C880 C 0.09107 0.14789 0.95432 0.0
C881 C 0.14292 0.16661 0.93867 0.0
C882 C 0.13556 0.14725 0.90321 0.0
C883 C 0.10276 0.11632 0.88243 0.0
C884 C 0.07726 0.10581 0.89484 0.0
C885 C 0.10984 0.13724 0.91233 0.0
C886 C 0.05891 0.11678 0.93672 0.0
C887 C 0.06566 0.13764 0.96565 0.0
H888 H 0.37272 0.95538 0.95037 0.0
H889 H 0.36993 0.02588 0.01839 0.0
H890 H 0.40599 0.03938 0.93574 0.0
H891 H 0.4428 0.02935 0.85447 0.0
H892 H 0.44733 0.95704 0.79994 0.0
H893 H 0.40674 0.94599 0.86718 0.0
C894 C 0.37965 0.97385 0.94634 0.0
C895 C 0.36869 0.98952 0.99098 0.0
C896 C 0.40136 0.98101 0.90194 0.0
C897 C 0.37778 0.01344 0.98445 0.0
C898 C 0.39874 0.02105 0.93783 0.0
C899 C 0.43466 0.01128 0.85701 0.0
C900 C 0.44825 0.99395 0.82275 0.0
C901 C 0.41144 0.00476 0.89803 0.0
C902 C 0.4375 0.9706 0.82655 0.0
C903 C 0.41419 0.96427 0.86477 0.0
H904 H 0.43936 0.38324 0.96942 0.0
H905 H 0.51521 0.35308 0.94741 0.0
H906 H 0.53018 0.38468 0.86356 0.0
H907 H 0.52392 0.42434 0.81087 0.0
H908 H 0.44803 0.45446 0.83101 0.0
H909 H 0.43081 0.41956 0.90145 0.0
C910 C 0.45888 0.38319 0.94459 0.0
C911 C 0.47622 0.36591 0.96493 0.0
C912 C 0.46754 0.40178 0.89752 0.0
C913 C 0.50142 0.366 0.9323 0.0
C914 C 0.51012 0.38431 0.8851 0.0
C915 C 0.50351 0.42307 0.83005 0.0
C916 C 0.48735 0.4421 0.81711 0.0
C917 C 0.49374 0.40286 0.86971 0.0
C918 C 0.46084 0.44009 0.84083 0.0
C919 C 0.45104 0.42016 0.88114 0.0
H920 H 0.1824 0.52049 0.90086 0.0
H921 H 0.12701 0.52717 0.06915 0.0
H922 H 0.09101 0.51525 0.00535 0.0
H923 H 0.07465 0.50656 0.89981 0.0
H924 H 0.12871 0.4983 0.73039 0.0
H925 H 0.16582 0.50693 0.79633 0.0
C926 C 0.16249 0.51887 0.92361 0.0
C927 C 0.1573 0.52519 0.98918 0.0
C928 C 0.14163 0.51198 0.88631 0.0
C929 C 0.13143 0.52289 0.01833 0.0
C930 C 0.11081 0.51607 0.98195 0.0
C931 C 0.09458 0.50647 0.87741 0.0
C932 C 0.09899 0.50216 0.81027 0.0
C933 C 0.11559 0.51124 0.91551 0.0
C934 C 0.12488 0.50164 0.78211 0.0
C935 C 0.14606 0.50666 0.81973 0.0
H936 H 0.92354 0.83377 0.48226 0.0
H937 H 1.00219 0.8104 0.4492 0.0
H938 H 0.01912 0.84431 0.50445 0.0
H939 H 0.01211 0.88321 0.54653 0.0
H940 H 0.93298 0.90539 0.58813 0.0
H941 H 0.91593 0.86981 0.54226 0.0
C942 C 0.94427 0.83573 0.48927 0.0
C943 C 0.96159 0.81957 0.46191 0.0
C944 C 0.95392 0.85553 0.52006 0.0
C945 C 0.98843 0.82235 0.47074 0.0
C946 C 0.99815 0.84199 0.50131 0.0
C947 C 0.99107 0.88024 0.54783 0.0
C948 C 0.97412 0.89771 0.57019 0.0
C949 C 0.98116 0.85914 0.52392 0.0
C950 C 0.94688 0.89309 0.5693 0.0
C951 C 0.93694 0.87242 0.54391 0.0
H952 H 0.66575 0.03406 0.42991 0.0
H953 H 0.67748 0.95915 0.42533 0.0
H954 H 0.63998 0.95082 0.50795 0.0
H955 H 0.60068 0.96504 0.57325 0.0
H956 H 0.58823 0.04022 0.56563 0.0
H957 H 0.62852 0.04806 0.49521 0.0
C958 C 0.66025 0.01584 0.44705 0.0
C959 C 0.67434 0.99726 0.42051 0.0
C960 C 0.638 0.0112 0.49167 0.0
C961 C 0.66718 0.97385 0.44486 0.0
C962 C 0.64546 0.96908 0.49155 0.0
C963 C 0.60689 0.98311 0.55629 0.0
C964 C 0.5911 0.00198 0.57437 0.0
C965 C 0.63019 0.9876 0.51393 0.0
C966 C 0.59958 0.02529 0.55193 0.0
C967 C 0.6228 0.02986 0.51183 0.0
H968 H 0.61429 0.63092 0.49689 0.0
H969 H 0.53688 0.65774 0.49017 0.0
H970 H 0.51876 0.62414 0.56334 0.0
H971 H 0.52394 0.58412 0.61483 0.0
H972 H 0.60121 0.55707 0.62204 0.0
H973 H 0.62031 0.59349 0.56222 0.0
C974 C 0.59356 0.62974 0.51301 0.0
C975 C 0.57695 0.64676 0.48751 0.0
C976 C 0.58314 0.60991 0.55342 0.0
C977 C 0.55018 0.64509 0.50938 0.0
C978 C 0.53971 0.6256 0.55032 0.0
C979 C 0.54499 0.58627 0.60354 0.0
C980 C 0.56112 0.56771 0.62135 0.0
C981 C 0.55583 0.60739 0.57008 0.0
C982 C 0.58839 0.57098 0.60811 0.0
C983 C 0.5993 0.59182 0.57404 0.0
H984 H 0.89277 0.44407 0.51258 0.0
H985 H 0.88229 0.51529 0.43448 0.0
H986 H 0.91439 0.53064 0.50699 0.0
H987 H 0.9511 0.5226 0.57848 0.0
H988 H 0.96422 0.45009 0.64205 0.0
H989 H 0.92578 0.43641 0.58971 0.0
C990 C 0.89701 0.46303 0.51286 0.0
C991 C 0.8854 0.47852 0.46817 0.0
C992 C 0.91656 0.4714 0.55111 0.0
C993 C 0.89089 0.50304 0.4689 0.0
C994 C 0.90956 0.51175 0.50958 0.0
C995 C 0.94517 0.5039 0.58149 0.0
C996 C 0.96053 0.48732 0.61349 0.0
C997 C 0.92346 0.49596 0.5486 0.0
C998 C 0.95283 0.46312 0.61705 0.0
C999 C 0.93082 0.45528 0.58728 0.0
loop_
_geom_bond_atom_site_label_1
_geom_bond_atom_site_label_2
_geom_bond_distance
_geom_bond_site_symmetry_2
_ccdc_geom_bond_type
C0 C1 1.391 . S
C0 C4 1.391 . S
C0 H42 0.948 . S
C1 C0 1.391 . S
C1 C2 1.391 . S
C2 C1 1.391 . S
C2 H58 0.947 . S
C2 C59 1.392 . S
C3 C4 1.391 . S
C3 C7 1.397 . S
C3 C59 1.419 . S
C4 C0 1.391 . S
C4 C3 1.391 . S
C4 C5 1.399 . S
C5 C4 1.399 . S
C5 C8 1.396 . S
C5 C17 1.453 . S
C5 C18 1.684 . S
H6 C30 0.948 . S
C7 C3 1.397 . S
C7 C8 1.394 . S
C7 C26 1.723 . S
C8 C5 1.396 . S
C8 C7 1.394 . S
C8 C38 1.723 . S
H9 C32 0.947 . S
H10 C33 0.948 . S
H11 C39 0.982 1_554 S
H12 C40 0.979 . S
H13 C40 0.980 . S
H14 C40 0.983 . S
H15 C39 0.979 . S
H16 C39 0.977 . S
C17 C5 1.453 . S
C17 H46 0.982 . S
C17 H47 0.979 . S
C17 H48 0.977 . S
C18 C5 1.684 . S
C18 H43 0.979 . S
C18 H44 0.980 . S
C18 H45 0.983 . S
C19 C20 1.391 1_554 S
C19 C24 1.391 . S
C19 H49 0.948 . S
C20 C19 1.391 1_556 S
C20 C21 1.391 . S
C21 C20 1.391 . S
C21 C22 1.392 . S
C21 H50 0.947 . S
C22 C21 1.392 . S
C22 C23 1.419 1_556 S
C22 H51 0.948 . S
C23 C22 1.419 1_554 S
C23 C24 1.391 . S
C23 C27 1.397 . S
C24 C19 1.391 . S
C24 C23 1.391 . S
C24 C25 1.399 . S
C25 C24 1.399 . S
C25 C26 1.396 . S
C25 C28 1.453 . S
C25 C29 1.684 . S
C26 C7 1.723 . S
C26 C25 1.396 . S
C26 C27 1.394 . S
C27 C23 1.397 . S
C27 C26 1.394 . S
C27 C37 1.723 . S
C28 C25 1.453 . S
C28 H52 0.982 . S
C28 H53 0.979 . S
C28 H54 0.977 . S
C29 C25 1.684 . S
C29 H55 0.979 . S
C29 H56 0.980 . S
C29 H57 0.983 . S
C30 H6 0.948 . S
C30 C31 1.391 . S
C30 C35 1.391 . S
C31 C30 1.391 . S
C31 C32 1.391 . S
C32 H9 0.947 . S
C32 C31 1.391 . S
C32 C33 1.392 . S
C33 H10 0.948 . S
C33 C32 1.392 . S
C33 C34 1.419 . S
C34 C33 1.419 . S
C34 C35 1.391 . S
C34 C38 1.397 . S
C35 C30 1.391 . S
C35 C34 1.391 . S
C35 C36 1.399 . S
C36 C35 1.399 . S
C36 C37 1.396 . S
C36 C39 1.453 1_554 S
C36 C40 1.684 1_554 S
C37 C27 1.723 . S
C37 C36 1.396 . S
C37 C38 1.394 . S
C38 C8 1.723 . S
C38 C34 1.397 . S
C38 C37 1.394 . S
C39 H11 0.982 1_556 S
C39 H15 0.979 . S
C39 H16 0.977 . S
C39 C36 1.453 1_556 S
C40 H12 0.979 . S
C40 H13 0.980 . S
C40 H14 0.983 . S
C40 C36 1.684 1_556 S
H41 C59 0.948 . S
H42 C0 0.948 . S
H43 C18 0.979 . S
H44 C18 0.980 . S
H45 C18 0.983 . S
H46 C17 0.982 . S
H47 C17 0.979 . S
H48 C17 0.977 . S
H49 C19 0.948 . S
H50 C21 0.947 . S
H51 C22 0.948 . S
H52 C28 0.982 . S
H53 C28 0.979 . S
H54 C28 0.977 . S
H55 C29 0.979 . S
H56 C29 0.980 . S
H57 C29 0.983 . S
H58 C2 0.947 . S
C59 C2 1.392 . S
C59 C3 1.419 . S
C59 H41 0.948 . S
C60 C61 1.391 . S
C60 C64 1.391 . S
C60 H102 0.948 . S
C61 C60 1.391 . S
C61 C62 1.391 . S
C62 C61 1.391 . S
C62 H118 0.947 . S
C62 C119 1.392 . S
C63 C64 1.391 . S
C63 C67 1.397 . S
C63 C119 1.419 . S
C64 C60 1.391 . S
C64 C63 1.391 . S
C64 C65 1.399 . S
C65 C64 1.399 . S
C65 C68 1.396 . S
C65 C77 1.453 . S
C65 C78 1.684 . S
H66 C90 0.948 1_554 S
C67 C63 1.397 . S
C67 C68 1.394 . S
C67 C86 1.723 1_556 S
C68 C65 1.396 . S
C68 C67 1.394 . S
C68 C98 1.723 . S
H69 C92 0.947 . S
H70 C93 0.948 . S
H71 C99 0.982 . S
H72 C100 0.979 . S
H73 C100 0.980 . S
H74 C100 0.983 . S
H75 C99 0.979 . S
H76 C99 0.977 . S
C77 C65 1.453 . S
C77 H106 0.982 . S
C77 H107 0.979 . S
C77 H108 0.977 . S
C78 C65 1.684 . S
C78 H103 0.979 . S
C78 H104 0.980 . S
C78 H105 0.983 . S
C79 C80 1.391 . S
C79 C84 1.391 . S
C79 H109 0.948 . S
C80 C79 1.391 . S
C80 C81 1.391 . S
C81 C80 1.391 . S
C81 C82 1.392 . S
C81 H110 0.947 . S
C82 C81 1.392 . S
C82 C83 1.419 . S
C82 H111 0.948 . S
C83 C82 1.419 . S
C83 C84 1.391 . S
C83 C87 1.397 . S
C84 C79 1.391 . S
C84 C83 1.391 . S
C84 C85 1.399 . S
C85 C84 1.399 . S
C85 C86 1.396 . S
C85 C88 1.453 . S
C85 C89 1.684 . S
C86 C67 1.723 1_554 S
C86 C85 1.396 . S
C86 C87 1.394 . S
C87 C83 1.397 . S
C87 C86 1.394 . S
C87 C97 1.723 . S
C88 C85 1.453 . S
C88 H112 0.982 . S
C88 H113 0.979 . S
C88 H114 0.977 . S
C89 C85 1.684 . S
C89 H115 0.979 . S
C89 H116 0.980 . S
C89 H117 0.983 . S
C90 H66 0.948 1_556 S
C90 C91 1.391 . S
C90 C95 1.391 1_556 S
C91 C90 1.391 . S
C91 C92 1.391 . S
C92 H69 0.947 . S
C92 C91 1.391 . S
C92 C93 1.392 . S
C93 H70 0.948 . S
C93 C92 1.392 . S
C93 C94 1.419 . S
C94 C93 1.419 . S
C94 C95 1.391 1_556 S
C94 C98 1.397 . S
C95 C90 1.391 1_554 S
C95 C94 1.391 1_554 S
C95 C96 1.399 . S
C96 C95 1.399 . S
C96 C97 1.396 . S
C96 C99 1.453 . S
C96 C100 1.684 . S
C97 C87 1.723 . S
C97 C96 1.396 . S
C97 C98 1.394 1_554 S
C98 C68 1.723 . S
C98 C94 1.397 . S
C98 C97 1.394 1_556 S
C99 H71 0.982 . S
C99 H75 0.979 . S
C99 H76 0.977 . S
C99 C96 1.453 . S
C100 H72 0.979 . S
C100 H73 0.980 . S
C100 H74 0.983 . S
C100 C96 1.684 . S
H101 C119 0.948 . S
H102 C60 0.948 . S
H103 C78 0.979 . S
H104 C78 0.980 . S
H105 C78 0.983 . S
H106 C77 0.982 . S
H107 C77 0.979 . S
H108 C77 0.977 . S
H109 C79 0.948 . S
H110 C81 0.947 . S
H111 C82 0.948 . S
H112 C88 0.982 . S
H113 C88 0.979 . S
H114 C88 0.977 . S
H115 C89 0.979 . S
H116 C89 0.980 . S
H117 C89 0.983 . S
H118 C62 0.947 . S
C119 C62 1.392 . S
C119 C63 1.419 . S
C119 H101 0.948 . S
C120 C121 1.391 . S
C120 C124 1.391 . S
C120 H162 0.948 . S
C121 C120 1.391 . S
C121 C122 1.391 1_554 S
C122 C121 1.391 1_556 S
C122 H178 0.947 . S
C122 C179 1.392 . S
C123 C124 1.391 . S
C123 C127 1.397 1_565 S
C123 C179 1.419 1_554 S
C124 C120 1.391 . S
C124 C123 1.391 . S
C124 C125 1.399 . S
C125 C124 1.399 . S
C125 C128 1.396 1_565 S
C125 C137 1.453 1_565 S
C125 C138 1.684 . S
H126 C150 0.948 . S
C127 C123 1.397 1_545 S
C127 C128 1.394 . S
C127 C146 1.723 . S
C128 C125 1.396 1_545 S
C128 C127 1.394 . S
C128 C158 1.723 . S
H129 C152 0.947 . S
H130 C153 0.948 . S
H131 C159 0.982 . S
H132 C160 0.979 . S
H133 C160 0.980 . S
H134 C160 0.983 . S
H135 C159 0.979 . S
H136 C159 0.977 . S
C137 C125 1.453 1_545 S
C137 H166 0.982 . S
C137 H167 0.979 . S
C137 H168 0.977 . S
C138 C125 1.684 . S
C138 H163 0.979 . S
C138 H164 0.980 . S
C138 H165 0.983 . S
C139 C140 1.391 . S
C139 C144 1.391 . S
C139 H169 0.948 . S
C140 C139 1.391 . S
C140 C141 1.391 . S
C141 C140 1.391 . S
C141 C142 1.392 1_556 S
C141 H170 0.947 . S
C142 C141 1.392 1_554 S
C142 C143 1.419 . S
C142 H171 0.948 . S
C143 C142 1.419 . S
C143 C144 1.391 1_554 S
C143 C147 1.397 1_565 S
C144 C139 1.391 . S
C144 C143 1.391 1_556 S
C144 C145 1.399 . S
C145 C144 1.399 . S
C145 C146 1.396 1_566 S
C145 C148 1.453 1_565 S
C145 C149 1.684 . S
C146 C127 1.723 . S
C146 C145 1.396 1_544 S
C146 C147 1.394 . S
C147 C143 1.397 1_545 S
C147 C146 1.394 . S
C147 C157 1.723 . S
C148 C145 1.453 1_545 S
C148 H172 0.982 . S
C148 H173 0.979 . S
C148 H174 0.977 . S
C149 C145 1.684 . S
C149 H175 0.979 . S
C149 H176 0.980 . S
C149 H177 0.983 . S
C150 H126 0.948 . S
C150 C151 1.391 . S
C150 C155 1.391 . S
C151 C150 1.391 . S
C151 C152 1.391 . S
C152 H129 0.947 . S
C152 C151 1.391 . S
C152 C153 1.392 . S
C153 H130 0.948 . S
C153 C152 1.392 . S
C153 C154 1.419 . S
C154 C153 1.419 . S
C154 C155 1.391 . S
C154 C158 1.397 1_565 S
C155 C150 1.391 . S
C155 C154 1.391 . S
C155 C156 1.399 . S
C156 C155 1.399 . S
C156 C157 1.396 1_565 S
C156 C159 1.453 1_565 S
C156 C160 1.684 . S
C157 C147 1.723 . S
C157 C156 1.396 1_545 S
C157 C158 1.394 . S
C158 C128 1.723 . S
C158 C154 1.397 1_545 S
C158 C157 1.394 . S
C159 H131 0.982 . S
C159 H135 0.979 . S
C159 H136 0.977 . S
C159 C156 1.453 1_545 S
C160 H132 0.979 . S
C160 H133 0.980 . S
C160 H134 0.983 . S
C160 C156 1.684 . S
H161 C179 0.948 . S
H162 C120 0.948 . S
H163 C138 0.979 . S
H164 C138 0.980 . S
H165 C138 0.983 . S
H166 C137 0.982 . S
H167 C137 0.979 . S
H168 C137 0.977 . S
H169 C139 0.948 . S
H170 C141 0.947 . S
H171 C142 0.948 . S
H172 C148 0.982 . S
H173 C148 0.979 . S
H174 C148 0.977 . S
H175 C149 0.979 . S
H176 C149 0.980 . S
H177 C149 0.983 . S
H178 C122 0.947 . S
C179 C122 1.392 . S
C179 C123 1.419 1_556 S
C179 H161 0.948 . S
C180 C181 1.391 . S
C180 C184 1.391 . S
C180 H222 0.948 . S
C181 C180 1.391 . S
C181 C182 1.391 . S
C182 C181 1.391 . S
C182 H238 0.947 . S
C182 C239 1.392 . S
C183 C184 1.391 . S
C183 C187 1.397 . S
C183 C239 1.419 . S
C184 C180 1.391 . S
C184 C183 1.391 . S
C184 C185 1.399 . S
C185 C184 1.399 . S
C185 C188 1.396 . S
C185 C197 1.453 . S
C185 C198 1.684 . S
H186 C210 0.940 1_556 S
C187 C183 1.397 . S
C187 C188 1.394 . S
C187 C206 1.723 . S
C188 C185 1.396 . S
C188 C187 1.394 . S
C188 C218 1.723 . S
H189 C212 0.947 . S
H190 C213 0.948 . S
H191 C219 0.982 . S
H192 C220 0.979 . S
H193 C220 0.980 . S
H194 C220 0.983 . S
H195 C219 0.979 . S
H196 C219 0.977 . S
C197 C185 1.453 . S
C197 H226 0.982 . S
C197 H227 0.979 . S
C197 H228 0.977 . S
C198 C185 1.684 . S
C198 H223 0.979 . S
C198 H224 0.980 . S
C198 H225 0.983 . S
C199 C200 1.391 . S
C199 C204 1.391 1_556 S
C199 H229 0.948 . S
C200 C199 1.391 . S
C200 C201 1.391 . S
C201 C200 1.391 . S
C201 C202 1.392 . S
C201 H230 0.947 . S
C202 C201 1.392 . S
C202 C203 1.419 . S
C202 H231 0.948 . S
C203 C202 1.419 . S
C203 C204 1.391 1_556 S
C203 C207 1.397 1_556 S
C204 C199 1.391 1_554 S
C204 C203 1.391 1_554 S
C204 C205 1.399 . S
C205 C204 1.399 . S
C205 C206 1.396 . S
C205 C208 1.453 . S
C205 C209 1.684 . S
C206 C187 1.723 . S
C206 C205 1.396 . S
C206 C207 1.394 . S
C207 C203 1.397 1_554 S
C207 C206 1.394 . S
C207 C217 1.723 . S
C208 C205 1.453 . S
C208 H232 0.982 . S
C208 H233 0.979 . S
C208 H234 0.977 . S
C209 C205 1.684 . S
C209 H235 0.979 . S
C209 H236 0.980 . S
C209 H237 0.983 . S
C210 H186 0.940 1_554 S
C210 C211 1.397 . S
C210 C215 1.394 . S
C211 C210 1.397 . S
C211 C212 1.391 . S
C212 H189 0.947 . S
C212 C211 1.391 . S
C212 C213 1.392 . S
C213 H190 0.948 . S
C213 C212 1.392 . S
C213 C214 1.419 . S
C214 C213 1.419 . S
C214 C215 1.391 . S
C214 C218 1.397 . S
C215 C210 1.394 . S
C215 C214 1.391 . S
C215 C216 1.399 1_554 S
C216 C215 1.399 1_556 S
C216 C217 1.396 1_556 S
C216 C219 1.453 . S
C216 C220 1.684 . S
C217 C207 1.723 . S
C217 C216 1.396 1_554 S
C217 C218 1.394 . S
C218 C188 1.723 . S
C218 C214 1.397 . S
C218 C217 1.394 . S
C219 H191 0.982 . S
C219 H195 0.979 . S
C219 H196 0.977 . S
C219 C216 1.453 . S
C220 H192 0.979 . S
C220 H193 0.980 . S
C220 H194 0.983 . S
C220 C216 1.684 . S
H221 C239 0.948 . S
H222 C180 0.948 . S
H223 C198 0.979 . S
H224 C198 0.980 . S
H225 C198 0.983 . S
H226 C197 0.982 . S
H227 C197 0.979 . S
H228 C197 0.977 . S
H229 C199 0.948 . S
H230 C201 0.947 . S
H231 C202 0.948 . S
H232 C208 0.982 . S
H233 C208 0.979 . S
H234 C208 0.977 . S
H235 C209 0.979 . S
H236 C209 0.980 . S
H237 C209 0.983 . S
H238 C182 0.947 . S
C239 C182 1.392 . S
C239 C183 1.419 . S
C239 H221 0.948 . S
C240 C241 1.391 . S
C240 C244 1.391 . S
C240 H282 0.948 . S
C241 C240 1.391 . S
C241 C242 1.391 . S
C242 C241 1.391 . S
C242 H298 0.947 . S
C242 C299 1.392 . S
C243 C244 1.391 . S
C243 C247 1.397 . S
C243 C299 1.419 . S
C244 C240 1.391 . S
C244 C243 1.391 . S
C244 C245 1.399 . S
C245 C244 1.399 . S
C245 C248 1.396 . S
C245 C257 1.453 . S
C245 C258 1.684 . S
H246 C270 0.948 . S
C247 C243 1.397 . S
C247 C248 1.394 . S
C247 C266 1.723 . S
C248 C245 1.396 . S
C248 C247 1.394 . S
C248 C278 1.723 . S
H249 C272 0.947 1_556 S
H250 C273 0.948 . S
H251 C279 0.982 . S
H252 C280 0.979 . S
H253 C280 0.980 . S
H254 C280 0.983 . S
H255 C279 0.979 . S
H256 C279 0.977 . S
C257 C245 1.453 . S
C257 H286 0.982 . S
C257 H287 0.979 . S
C257 H288 0.977 . S
C258 C245 1.684 . S
C258 H283 0.979 . S
C258 H284 0.980 . S
C258 H285 0.983 . S
C259 C260 1.391 . S
C259 C264 1.391 . S
C259 H289 0.948 . S
C260 C259 1.391 . S
C260 C261 1.391 . S
C261 C260 1.391 . S
C261 C262 1.392 . S
C261 H290 0.947 . S
C262 C261 1.392 . S
C262 C263 1.419 . S
C262 H291 0.948 . S
C263 C262 1.419 . S
C263 C264 1.391 . S
C263 C267 1.397 . S
C264 C259 1.391 . S
C264 C263 1.391 . S
C264 C265 1.399 . S
C265 C264 1.399 . S
C265 C266 1.396 . S
C265 C268 1.453 . S
C265 C269 1.684 . S
C266 C247 1.723 . S
C266 C265 1.396 . S
C266 C267 1.394 . S
C267 C263 1.397 . S
C267 C266 1.394 . S
C267 C277 1.723 . S
C268 C265 1.453 . S
C268 H292 0.982 . S
C268 H293 0.979 . S
C268 H294 0.977 . S
C269 C265 1.684 . S
C269 H295 0.979 . S
C269 H296 0.980 . S
C269 H297 0.983 . S
C270 H246 0.948 . S
C270 C271 1.391 . S
C270 C275 1.391 . S
C271 C270 1.391 . S
C271 C272 1.391 . S
C272 H249 0.947 1_554 S
C272 C271 1.391 . S
C272 C273 1.392 . S
C273 H250 0.948 . S
C273 C272 1.392 . S
C273 C274 1.419 . S
C274 C273 1.419 . S
C274 C275 1.391 . S
C274 C278 1.397 . S
C275 C270 1.391 . S
C275 C274 1.391 . S
C275 C276 1.399 . S
C276 C275 1.399 . S
C276 C277 1.396 . S
C276 C279 1.453 . S
C276 C280 1.684 . S
C277 C267 1.723 . S
C277 C276 1.396 . S
C277 C278 1.394 . S
C278 C248 1.723 . S
C278 C274 1.397 . S
C278 C277 1.394 . S
C279 H251 0.982 . S
C279 H255 0.979 . S
C279 H256 0.977 . S
C279 C276 1.453 . S
C280 H252 0.979 . S
C280 H253 0.980 . S
C280 H254 0.983 . S
C280 C276 1.684 . S
H281 C299 0.948 . S
H282 C240 0.948 . S
H283 C258 0.979 . S
H284 C258 0.980 . S
H285 C258 0.983 . S
H286 C257 0.982 . S
H287 C257 0.979 . S
H288 C257 0.977 . S
H289 C259 0.948 . S
H290 C261 0.947 . S
H291 C262 0.948 . S
H292 C268 0.982 . S
H293 C268 0.979 . S
H294 C268 0.977 . S
H295 C269 0.979 . S
H296 C269 0.980 . S
H297 C269 0.983 . S
H298 C242 0.947 . S
C299 C242 1.392 . S
C299 C243 1.419 . S
C299 H281 0.948 . S
C300 C301 1.391 . S
C300 C304 1.391 . S
C300 H342 0.948 . S
C301 C300 1.391 . S
C301 C302 1.391 . S
C302 C301 1.391 . S
C302 H358 0.947 . S
C302 C359 1.392 . S
C303 C304 1.391 . S
C303 C307 1.397 . S
C303 C359 1.419 . S
C304 C300 1.391 . S
C304 C303 1.391 . S
C304 C305 1.399 . S
C305 C304 1.399 . S
C305 C308 1.396 . S
C305 C317 1.453 . S
C305 C318 1.684 . S
H306 C330 0.948 . S
C307 C303 1.397 . S
C307 C308 1.394 . S
C307 C326 1.723 . S
C308 C305 1.396 . S
C308 C307 1.394 . S
C308 C338 1.723 . S
H309 C332 0.947 . S
H310 C333 0.948 . S
H311 C339 0.982 . S
H312 C340 0.979 . S
H313 C340 0.980 . S
H314 C340 0.983 . S
H315 C339 0.979 . S
H316 C339 0.977 . S
C317 C305 1.453 . S
C317 H346 0.982 . S
C317 H347 0.979 . S
C317 H348 0.977 . S
C318 C305 1.684 . S
C318 H343 0.979 . S
C318 H344 0.980 . S
C318 H345 0.983 . S
C319 C320 1.391 . S
C319 C324 1.391 . S
C319 H349 0.948 . S
C320 C319 1.391 . S
C320 C321 1.391 . S
C321 C320 1.391 . S
C321 C322 1.392 . S
C321 H350 0.947 . S
C322 C321 1.392 . S
C322 C323 1.419 . S
C322 H351 0.948 . S
C323 C322 1.419 . S
C323 C324 1.391 . S
C323 C327 1.397 . S
C324 C319 1.391 . S
C324 C323 1.391 . S
C324 C325 1.399 . S
C325 C324 1.399 . S
C325 C326 1.396 . S
C325 C328 1.453 . S
C325 C329 1.684 . S
C326 C307 1.723 . S
C326 C325 1.396 . S
C326 C327 1.394 . S
C327 C323 1.397 . S
C327 C326 1.394 . S
C327 C337 1.723 . S
C328 C325 1.453 . S
C328 H352 0.982 . S
C328 H353 0.979 . S
C328 H354 0.977 . S
C329 C325 1.684 . S
C329 H355 0.979 . S
C329 H356 0.980 . S
C329 H357 0.983 . S
C330 H306 0.948 . S
C330 C331 1.391 . S
C330 C335 1.391 . S
C331 C330 1.391 . S
C331 C332 1.391 . S
C332 H309 0.947 . S
C332 C331 1.391 . S
C332 C333 1.392 . S
C333 H310 0.948 . S
C333 C332 1.392 . S
C333 C334 1.419 . S
C334 C333 1.419 . S
C334 C335 1.391 . S
C334 C338 1.397 . S
C335 C330 1.391 . S
C335 C334 1.391 . S
C335 C336 1.399 . S
C336 C335 1.399 . S
C336 C337 1.396 . S
C336 C339 1.453 . S
C336 C340 1.684 . S
C337 C327 1.723 . S
C337 C336 1.396 . S
C337 C338 1.394 . S
C338 C308 1.723 . S
C338 C334 1.397 . S
C338 C337 1.394 . S
C339 H311 0.982 . S
C339 H315 0.979 . S
C339 H316 0.977 . S
C339 C336 1.453 . S
C340 H312 0.979 . S
C340 H313 0.980 . S
C340 H314 0.983 . S
C340 C336 1.684 . S
H341 C359 0.948 . S
H342 C300 0.948 . S
H343 C318 0.979 . S
H344 C318 0.980 . S
H345 C318 0.983 . S
H346 C317 0.982 . S
H347 C317 0.979 . S
H348 C317 0.977 . S
H349 C319 0.948 . S
H350 C321 0.947 . S
H351 C322 0.948 . S
H352 C328 0.982 . S
H353 C328 0.979 . S
H354 C328 0.977 . S
H355 C329 0.979 . S
H356 C329 0.980 . S
H357 C329 0.983 . S
H358 C302 0.947 . S
C359 C302 1.392 . S
C359 C303 1.419 . S
C359 H341 0.948 . S
C360 C361 1.391 . S
C360 C364 1.391 . S
C360 H402 0.948 . S
C361 C360 1.391 . S
C361 C362 1.391 . S
C362 C361 1.391 . S
C362 H418 0.947 . S
C362 C419 1.392 . S
C363 C364 1.391 . S
C363 C367 1.397 1_545 S
C363 C419 1.419 . S
C364 C360 1.391 . S
C364 C363 1.391 . S
C364 C365 1.399 . S
C365 C364 1.399 . S
C365 C368 1.396 1_545 S
C365 C377 1.453 1_545 S
C365 C378 1.684 . S
H366 C390 0.948 . S
C367 C363 1.397 1_565 S
C367 C368 1.394 . S
C367 C386 1.723 . S
C368 C365 1.396 1_565 S
C368 C367 1.394 . S
C368 C398 1.723 . S
H369 C392 0.947 . S
H370 C393 0.948 . S
H371 C399 0.982 . S
H372 C400 0.979 . S
H373 C400 0.980 . S
H374 C400 0.983 . S
H375 C399 0.979 . S
H376 C399 0.977 . S
C377 C365 1.453 1_565 S
C377 H406 0.982 . S
C377 H407 0.979 . S
C377 H408 0.977 . S
C378 C365 1.684 . S
C378 H403 0.979 . S
C378 H404 0.980 . S
C378 H405 0.983 . S
C379 C380 1.391 . S
C379 C384 1.391 . S
C379 H409 0.948 . S
C380 C379 1.391 . S
C380 C381 1.391 . S
C381 C380 1.391 . S
C381 C382 1.392 . S
C381 H410 0.947 . S
C382 C381 1.392 . S
C382 C383 1.419 . S
C382 H411 0.948 . S
C383 C382 1.419 . S
C383 C384 1.391 . S
C383 C387 1.397 1_545 S
C384 C379 1.391 . S
C384 C383 1.391 . S
C384 C385 1.399 . S
C385 C384 1.399 . S
C385 C386 1.396 1_545 S
C385 C388 1.453 1_545 S
C385 C389 1.684 . S
C386 C367 1.723 . S
C386 C385 1.396 1_565 S
C386 C387 1.394 . S
C387 C383 1.397 1_565 S
C387 C386 1.394 . S
C387 C397 1.723 . S
C388 C385 1.453 1_565 S
C388 H412 0.982 . S
C388 H413 0.979 . S
C388 H414 0.977 . S
C389 C385 1.684 . S
C389 H415 0.979 . S
C389 H416 0.980 . S
C389 H417 0.983 . S
C390 H366 0.948 . S
C390 C391 1.391 . S
C390 C395 1.391 . S
C391 C390 1.391 . S
C391 C392 1.391 . S
C392 H369 0.947 . S
C392 C391 1.391 . S
C392 C393 1.392 . S
C393 H370 0.948 . S
C393 C392 1.392 . S
C393 C394 1.419 . S
C394 C393 1.419 . S
C394 C395 1.391 . S
C394 C398 1.397 1_545 S
C395 C390 1.391 . S
C395 C394 1.391 . S
C395 C396 1.399 . S
C396 C395 1.399 . S
C396 C397 1.396 1_545 S
C396 C399 1.453 1_545 S
C396 C400 1.684 . S
C397 C387 1.723 . S
C397 C396 1.396 1_565 S
C397 C398 1.394 . S
C398 C368 1.723 . S
C398 C394 1.397 1_565 S
C398 C397 1.394 . S
C399 H371 0.982 . S
C399 H375 0.979 . S
C399 H376 0.977 . S
C399 C396 1.453 1_565 S
C400 H372 0.979 . S
C400 H373 0.980 . S
C400 H374 0.983 . S
C400 C396 1.684 . S
H401 C419 0.948 . S
H402 C360 0.948 . S
H403 C378 0.979 . S
H404 C378 0.980 . S
H405 C378 0.983 . S
H406 C377 0.982 . S
H407 C377 0.979 . S
H408 C377 0.977 . S
H409 C379 0.948 . S
H410 C381 0.947 . S
H411 C382 0.948 . S
H412 C388 0.982 . S
H413 C388 0.979 . S
H414 C388 0.977 . S
H415 C389 0.979 . S
H416 C389 0.980 . S
H417 C389 0.983 . S
H418 C362 0.947 . S
C419 C362 1.392 . S
C419 C363 1.419 . S
C419 H401 0.948 . S
C420 C421 1.391 . S
C420 C424 1.391 . S
C420 H462 0.948 . S
C421 C420 1.391 . S
C421 C422 1.391 . S
C422 C421 1.391 . S
C422 H478 0.947 . S
C422 C479 1.392 . S
C423 C424 1.391 . S
C423 C427 1.397 . S
C423 C479 1.419 . S
C424 C420 1.391 . S
C424 C423 1.391 . S
C424 C425 1.399 . S
C425 C424 1.399 . S
C425 C428 1.396 . S
C425 C437 1.453 . S
C425 C438 1.684 . S
H426 C450 0.948 . S
C427 C423 1.397 . S
C427 C428 1.394 . S
C427 C446 1.723 . S
C428 C425 1.396 . S
C428 C427 1.394 . S
C428 C458 1.723 . S
H429 C452 0.947 . S
H430 C453 0.948 . S
H431 C459 0.982 . S
H432 C460 0.979 . S
H433 C460 0.980 . S
H434 C460 0.983 . S
H435 C459 0.979 . S
H436 C459 0.977 . S
C437 C425 1.453 . S
C437 H466 0.982 . S
C437 H467 0.979 . S
C437 H468 0.977 . S
C438 C425 1.684 . S
C438 H463 0.979 . S
C438 H464 0.980 . S
C438 H465 0.983 . S
C439 C440 1.391 . S
C439 C444 1.391 . S
C439 H469 0.948 . S
C440 C439 1.391 . S
C440 C441 1.391 . S
C441 C440 1.391 . S
C441 C442 1.392 . S
C441 H470 0.947 . S
C442 C441 1.392 . S
C442 C443 1.419 . S
C442 H471 0.948 . S
C443 C442 1.419 . S
C443 C444 1.391 . S
C443 C447 1.397 . S
C444 C439 1.391 . S
C444 C443 1.391 . S
C444 C445 1.399 . S
C445 C444 1.399 . S
C445 C446 1.396 . S
C445 C448 1.453 . S
C445 C449 1.684 . S
C446 C427 1.723 . S
C446 C445 1.396 . S
C446 C447 1.394 . S
C447 C443 1.397 . S
C447 C446 1.394 . S
C447 C457 1.723 . S
C448 C445 1.453 . S
C448 H472 0.982 . S
C448 H473 0.979 . S
C448 H474 0.977 . S
C449 C445 1.684 . S
C449 H475 0.979 . S
C449 H476 0.980 . S
C449 H477 0.983 . S
C450 H426 0.948 . S
C450 C451 1.391 . S
C450 C455 1.391 . S
C451 C450 1.391 . S
C451 C452 1.391 . S
C452 H429 0.947 . S
C452 C451 1.391 . S
C452 C453 1.392 . S
C453 H430 0.948 . S
C453 C452 1.392 . S
C453 C454 1.419 . S
C454 C453 1.419 . S
C454 C455 1.391 . S
C454 C458 1.397 . S
C455 C450 1.391 . S
C455 C454 1.391 . S
C455 C456 1.399 . S
C456 C455 1.399 . S
C456 C457 1.396 . S
C456 C459 1.453 . S
C456 C460 1.684 . S
C457 C447 1.723 . S
C457 C456 1.396 . S
C457 C458 1.394 . S
C458 C428 1.723 . S
C458 C454 1.397 . S
C458 C457 1.394 . S
C459 H431 0.982 . S
C459 H435 0.979 . S
C459 H436 0.977 . S
C459 C456 1.453 . S
C460 H432 0.979 . S
C460 H433 0.980 . S
C460 H434 0.983 . S
C460 C456 1.684 . S
H461 C479 0.948 . S
H462 C420 0.948 . S
H463 C438 0.979 . S
H464 C438 0.980 . S
H465 C438 0.983 . S
H466 C437 0.982 . S
H467 C437 0.979 . S
H468 C437 0.977 . S
H469 C439 0.948 . S
H470 C441 0.947 . S
H471 C442 0.948 . S
H472 C448 0.982 . S
H473 C448 0.979 . S
H474 C448 0.977 . S
H475 C449 0.979 . S
H476 C449 0.980 . S
H477 C449 0.983 . S
H478 C422 0.947 . S
C479 C422 1.392 . S
C479 C423 1.419 . S
C479 H461 0.948 . S
C480 O496 1.251 . S
C480 O498 1.254 . S
N481 C482 1.333 . S
N481 C486 1.307 . S
N481 Zn487 2.020 1_655 S
C482 N481 1.333 . S
C482 C483 1.379 . S
C482 H500 0.952 1_655 S
C483 C482 1.379 . S
C483 C484 1.390 . S
C483 H510 0.949 . S
C484 C483 1.390 . S
C484 C485 1.357 . S
C485 C484 1.357 . S
C485 C486 1.370 . S
C485 H511 0.950 . S
C486 N481 1.307 . S
C486 C485 1.370 . S
C486 H504 0.948 1_565 S
Zn487 N481 2.020 1_455 S
Zn487 O496 2.039 . S
Zn487 O502 2.034 . S
Zn487 O506 2.025 1_565 S
Zn487 O508 2.027 1_455 S
C488 O507 1.246 . S
C488 O508 1.246 1_545 S
N489 C490 1.307 . S
N489 C491 1.333 . S
N489 Zn495 2.020 . S
C490 N489 1.307 . S
C490 C494 1.370 . S
C490 H501 0.948 1_545 S
C491 N489 1.333 . S
C491 C492 1.379 . S
C491 H499 0.952 . S
C492 C491 1.379 . S
C492 C493 1.390 . S
C492 H512 0.949 . S
C493 C492 1.390 . S
C493 C494 1.357 . S
C494 C490 1.370 . S
C494 C493 1.357 . S
C494 H513 0.950 . S
Zn495 N489 2.020 . S
Zn495 O498 2.025 1_545 S
Zn495 O503 2.030 . S
Zn495 O505 2.039 . S
Zn495 O507 2.034 1_455 S
O496 C480 1.251 . S
O496 Zn487 2.039 . S
C497 O502 1.246 . S
C497 O503 1.241 1_565 S
O498 C480 1.254 . S
O498 Zn495 2.025 1_565 S
H499 C491 0.952 . S
H500 C482 0.952 1_455 S
H501 C490 0.948 1_565 S
O502 Zn487 2.034 . S
O502 C497 1.246 . S
O503 Zn495 2.030 . S
O503 C497 1.241 1_545 S
H504 C486 0.948 1_545 S
O505 Zn495 2.039 . S
O505 C509 1.251 . S
O506 Zn487 2.025 1_545 S
O506 C509 1.254 . S
O507 C488 1.246 . S
O507 Zn495 2.034 1_655 S
O508 Zn487 2.027 1_655 S
O508 C488 1.246 1_565 S
C509 O505 1.251 . S
C509 O506 1.254 . S
H510 C483 0.949 . S
H511 C485 0.950 . S
H512 C492 0.949 . S
H513 C494 0.950 . S
C514 O530 1.251 1_565 S
C514 O532 1.254 . S
N515 C516 1.333 . S
N515 C520 1.307 . S
N515 Zn521 2.020 . S
C516 N515 1.333 . S
C516 C517 1.379 . S
C516 H534 0.952 . S
C517 C516 1.379 . S
C517 C518 1.390 . S
C517 H544 0.949 . S
C518 C517 1.390 . S
C518 C519 1.357 . S
C519 C518 1.357 . S
C519 C520 1.370 . S
C519 H545 0.950 . S
C520 N515 1.307 . S
C520 C519 1.370 . S
C520 H538 0.948 . S
Zn521 N515 2.020 . S
Zn521 O530 2.039 . S
Zn521 O536 2.034 . S
Zn521 O540 2.025 . S
Zn521 O542 2.024 . S
C522 O541 1.246 1_545 S
C522 O542 1.249 . S
N523 C524 1.307 . S
N523 C525 1.333 . S
N523 Zn529 2.020 . S
C524 N523 1.307 . S
C524 C528 1.370 . S
C524 H535 0.948 . S
C525 N523 1.333 . S
C525 C526 1.379 . S
C525 H533 0.952 . S
C526 C525 1.379 . S
C526 C527 1.390 . S
C526 H546 0.949 . S
C527 C526 1.390 . S
C527 C528 1.357 . S
C528 C524 1.370 . S
C528 C527 1.357 . S
C528 H547 0.950 . S
Zn529 N523 2.020 . S
Zn529 O532 2.025 . S
Zn529 O537 2.024 . S
Zn529 O539 2.039 . S
Zn529 O541 2.034 . S
O530 C514 1.251 1_545 S
O530 Zn521 2.039 . S
C531 O536 1.246 1_565 S
C531 O537 1.249 . S
O532 C514 1.254 . S
O532 Zn529 2.025 . S
H533 C525 0.952 . S
H534 C516 0.952 . S
H535 C524 0.948 . S
O536 Zn521 2.034 . S
O536 C531 1.246 1_545 S
O537 Zn529 2.024 . S
O537 C531 1.249 . S
H538 C520 0.948 . S
O539 Zn529 2.039 . S
O539 C543 1.251 1_565 S
O540 Zn521 2.025 . S
O540 C543 1.254 . S
O541 C522 1.246 1_565 S
O541 Zn529 2.034 . S
O542 Zn521 2.024 . S
O542 C522 1.249 . S
C543 O539 1.251 1_545 S
C543 O540 1.254 . S
H544 C517 0.949 . S
H545 C519 0.950 . S
H546 C526 0.949 . S
H547 C528 0.950 . S
C548 O564 1.251 . S
C548 O566 1.254 . S
N549 C550 1.333 . S
N549 C554 1.307 . S
N549 Zn555 2.020 . S
C550 N549 1.333 . S
C550 C551 1.379 . S
C550 H568 0.952 . S
C551 C550 1.379 . S
C551 C552 1.390 . S
C551 H578 0.949 . S
C552 C551 1.390 . S
C552 C553 1.357 . S
C553 C552 1.357 . S
C553 C554 1.370 . S
C553 H579 0.950 . S
C554 N549 1.307 . S
C554 C553 1.370 . S
C554 H572 0.948 . S
Zn555 N549 2.020 . S
Zn555 O564 2.039 . S
Zn555 O570 2.034 . S
Zn555 O574 2.025 . S
Zn555 O576 2.024 . S
C556 O575 1.246 . S
C556 O576 1.249 . S
N557 C558 1.307 . S
N557 C559 1.333 . S
N557 Zn563 2.020 . S
C558 N557 1.307 . S
C558 C562 1.370 . S
C558 H569 0.948 . S
C559 N557 1.333 . S
C559 C560 1.379 . S
C559 H567 0.952 . S
C560 C559 1.379 . S
C560 C561 1.390 . S
C560 H580 0.949 . S
C561 C560 1.390 . S
C561 C562 1.357 . S
C562 C558 1.370 . S
C562 C561 1.357 . S
C562 H581 0.950 . S
Zn563 N557 2.020 . S
Zn563 O566 2.025 . S
Zn563 O571 2.024 . S
Zn563 O573 2.039 . S
Zn563 O575 2.034 . S
O564 C548 1.251 . S
O564 Zn555 2.039 . S
C565 O570 1.246 . S
C565 O571 1.249 . S
O566 C548 1.254 . S
O566 Zn563 2.025 . S
H567 C559 0.952 . S
H568 C550 0.952 . S
H569 C558 0.948 . S
O570 Zn555 2.034 . S
O570 C565 1.246 . S
O571 Zn563 2.024 . S
O571 C565 1.249 . S
H572 C554 0.948 . S
O573 Zn563 2.039 . S
O573 C577 1.251 . S
O574 Zn555 2.025 . S
O574 C577 1.254 . S
O575 C556 1.246 . S
O575 Zn563 2.034 . S
O576 Zn555 2.024 . S
O576 C556 1.249 . S
C577 O573 1.251 . S
C577 O574 1.254 . S
H578 C551 0.949 . S
H579 C553 0.950 . S
H580 C560 0.949 . S
H581 C562 0.950 . S
C582 O598 1.251 . S
C582 O600 1.254 . S
N583 C584 1.333 . S
N583 C588 1.307 . S
N583 Zn589 2.020 . S
C584 N583 1.333 . S
C584 C585 1.379 . S
C584 H602 0.952 . S
C585 C584 1.379 . S
C585 C586 1.390 . S
C585 H612 0.949 . S
C586 C585 1.390 . S
C586 C587 1.357 . S
C587 C586 1.357 . S
C587 C588 1.370 . S
C587 H613 0.950 . S
C588 N583 1.307 . S
C588 C587 1.370 . S
C588 H606 0.948 . S
Zn589 N583 2.020 . S
Zn589 O598 2.039 . S
Zn589 O604 2.034 1_455 S
Zn589 O608 2.025 1_455 S
Zn589 O610 2.024 . S
C590 O609 1.246 . S
C590 O610 1.249 . S
N591 C592 1.307 . S
N591 C593 1.333 1_455 S
N591 Zn597 2.020 . S
C592 N591 1.307 . S
C592 C596 1.370 1_455 S
C592 H603 0.948 . S
C593 N591 1.333 1_655 S
C593 C594 1.379 . S
C593 H601 0.952 . S
C594 C593 1.379 . S
C594 C595 1.390 . S
C594 H614 0.949 . S
C595 C594 1.390 . S
C595 C596 1.357 . S
C596 C592 1.370 1_655 S
C596 C595 1.357 . S
C596 H615 0.950 . S
Zn597 N591 2.020 . S
Zn597 O600 2.025 . S
Zn597 O605 2.024 1_455 S
Zn597 O607 2.039 1_455 S
Zn597 O609 2.034 . S
O598 C582 1.251 . S
O598 Zn589 2.039 . S
C599 O604 1.246 . S
C599 O605 1.249 . S
O600 C582 1.254 . S
O600 Zn597 2.025 . S
H601 C593 0.952 . S
H602 C584 0.952 . S
H603 C592 0.948 . S
O604 Zn589 2.034 1_655 S
O604 C599 1.246 . S
O605 Zn597 2.024 1_655 S
O605 C599 1.249 . S
H606 C588 0.948 . S
O607 Zn597 2.039 1_655 S
O607 C611 1.251 . S
O608 Zn589 2.025 1_655 S
O608 C611 1.254 . S
O609 C590 1.246 . S
O609 Zn597 2.034 . S
O610 Zn589 2.024 . S
O610 C590 1.249 . S
C611 O607 1.251 . S
C611 O608 1.254 . S
H612 C585 0.949 . S
H613 C587 0.950 . S
H614 C594 0.949 . S
H615 C596 0.950 . S
H616 C622 0.928 1_545 S
H617 C625 0.930 . S
H618 C626 0.930 . S
H619 C627 0.930 . S
H620 C630 0.930 . S
H621 C631 0.930 1_545 S
C622 H616 0.928 1_565 S
C622 C623 1.355 . S
C622 C624 1.415 . S
C623 C622 1.355 . S
C623 C625 1.419 . S
C624 C622 1.415 . S
C624 C629 1.425 . S
C624 C631 1.409 . S
C625 H617 0.930 . S
C625 C623 1.419 . S
C625 C626 1.362 . S
C626 H618 0.930 . S
C626 C625 1.362 . S
C626 C629 1.409 . S
C627 H619 0.930 . S
C627 C628 1.355 . S
C627 C629 1.415 . S
C628 C627 1.355 . S
C628 C630 1.419 . S
C629 C624 1.425 . S
C629 C626 1.409 . S
C629 C627 1.415 . S
C630 H620 0.930 . S
C630 C628 1.419 . S
C630 C631 1.362 . S
C631 H621 0.930 1_565 S
C631 C624 1.409 . S
C631 C630 1.362 . S
H632 C638 0.930 . S
H633 C641 0.930 . S
H634 C642 0.930 . S
H635 C643 0.930 . S
H636 C646 0.930 . S
H637 C647 0.930 . S
C638 H632 0.930 . S
C638 C639 1.355 . S
C638 C640 1.415 . S
C639 C638 1.355 . S
C639 C641 1.419 . S
C640 C638 1.415 . S
C640 C645 1.425 . S
C640 C647 1.409 . S
C641 H633 0.930 . S
C641 C639 1.419 . S
C641 C642 1.362 . S
C642 H634 0.930 . S
C642 C641 1.362 . S
C642 C645 1.409 . S
C643 H635 0.930 . S
C643 C644 1.355 . S
C643 C645 1.415 . S
C644 C643 1.355 . S
C644 C646 1.419 . S
C645 C640 1.425 . S
C645 C642 1.409 . S
C645 C643 1.415 . S
C646 H636 0.930 . S
C646 C644 1.419 . S
C646 C647 1.362 . S
C647 H637 0.930 . S
C647 C640 1.409 . S
C647 C646 1.362 . S
H648 C654 0.930 . S
H649 C657 0.930 . S
H650 C658 0.930 . S
H651 C659 0.930 . S
H652 C662 0.930 . S
H653 C663 0.930 . S
C654 H648 0.930 . S
C654 C655 1.355 . S
C654 C656 1.415 . S
C655 C654 1.355 . S
C655 C657 1.419 . S
C656 C654 1.415 . S
C656 C661 1.425 . S
C656 C663 1.409 . S
C657 H649 0.930 . S
C657 C655 1.419 . S
C657 C658 1.362 . S
C658 H650 0.930 . S
C658 C657 1.362 . S
C658 C661 1.409 . S
C659 H651 0.930 . S
C659 C660 1.355 . S
C659 C661 1.415 . S
C660 C659 1.355 . S
C660 C662 1.419 . S
C661 C656 1.425 . S
C661 C658 1.409 . S
C661 C659 1.415 . S
C662 H652 0.930 . S
C662 C660 1.419 . S
C662 C663 1.362 . S
C663 H653 0.930 . S
C663 C656 1.409 . S
C663 C662 1.362 . S
H664 C670 0.930 . S
H665 C673 0.930 . S
H666 C674 0.930 . S
H667 C675 0.930 . S
H668 C678 0.930 . S
H669 C679 0.930 . S
C670 H664 0.930 . S
C670 C671 1.355 . S
C670 C672 1.415 . S
C671 C670 1.355 . S
C671 C673 1.419 . S
C672 C670 1.415 . S
C672 C677 1.425 . S
C672 C679 1.409 . S
C673 H665 0.930 . S
C673 C671 1.419 . S
C673 C674 1.362 . S
C674 H666 0.930 . S
C674 C673 1.362 . S
C674 C677 1.409 . S
C675 H667 0.930 . S
C675 C676 1.355 . S
C675 C677 1.415 . S
C676 C675 1.355 . S
C676 C678 1.419 . S
C677 C672 1.425 . S
C677 C674 1.409 . S
C677 C675 1.415 . S
C678 H668 0.930 . S
C678 C676 1.419 . S
C678 C679 1.362 . S
C679 H669 0.930 . S
C679 C672 1.409 . S
C679 C678 1.362 . S
H680 C686 0.930 1_554 S
H681 C689 0.930 . S
H682 C690 0.930 . S
H683 C691 0.946 . S
H684 C694 0.930 . S
H685 C695 0.930 . S
C686 H680 0.930 1_556 S
C686 C687 1.355 . S
C686 C688 1.415 . S
C687 C686 1.355 . S
C687 C689 1.419 1_545 S
C688 C686 1.415 . S
C688 C693 1.427 1_545 S
C688 C695 1.409 . S
C689 H681 0.930 . S
C689 C687 1.419 1_565 S
C689 C690 1.362 . S
C690 H682 0.930 . S
C690 C689 1.362 . S
C690 C693 1.408 . S
C691 H683 0.946 . S
C691 C692 1.343 1_565 S
C691 C693 1.411 . S
C692 C691 1.343 1_545 S
C692 C694 1.419 . S
C693 C688 1.427 1_565 S
C693 C690 1.408 . S
C693 C691 1.411 . S
C694 H684 0.930 . S
C694 C692 1.419 . S
C694 C695 1.362 . S
C695 H685 0.930 . S
C695 C688 1.409 . S
C695 C694 1.362 . S
H696 C702 0.930 . S
H697 C705 0.930 . S
H698 C706 0.930 . S
H699 C707 0.930 . S
H700 C710 0.930 . S
H701 C711 0.930 . S
C702 H696 0.930 . S
C702 C703 1.355 . S
C702 C704 1.415 . S
C703 C702 1.355 . S
C703 C705 1.419 1_556 S
C704 C702 1.415 . S
C704 C709 1.425 . S
C704 C711 1.409 . S
C705 H697 0.930 . S
C705 C703 1.419 1_554 S
C705 C706 1.362 1_554 S
C706 H698 0.930 . S
C706 C705 1.362 1_556 S
C706 C709 1.409 . S
C707 H699 0.930 . S
C707 C708 1.355 . S
C707 C709 1.415 . S
C708 C707 1.355 . S
C708 C710 1.419 . S
C709 C704 1.425 . S
C709 C706 1.409 . S
C709 C707 1.415 . S
C710 H700 0.930 . S
C710 C708 1.419 . S
C710 C711 1.362 . S
C711 H701 0.930 . S
C711 C704 1.409 . S
C711 C710 1.362 . S
H712 C718 0.930 . S
H713 C721 0.930 1_554 S
H714 C722 0.930 . S
H715 C723 0.930 . S
H716 C726 0.930 . S
H717 C727 0.930 . S
C718 H712 0.930 . S
C718 C719 1.355 . S
C718 C720 1.415 1_554 S
C719 C718 1.355 . S
C719 C721 1.419 1_554 S
C720 C718 1.415 1_556 S
C720 C725 1.425 . S
C720 C727 1.409 . S
C721 H713 0.930 1_556 S
C721 C719 1.419 1_556 S
C721 C722 1.362 . S
C722 H714 0.930 . S
C722 C721 1.362 . S
C722 C725 1.409 . S
C723 H715 0.930 . S
C723 C724 1.355 . S
C723 C725 1.415 . S
C724 C723 1.355 . S
C724 C726 1.419 . S
C725 C720 1.425 . S
C725 C722 1.409 . S
C725 C723 1.415 . S
C726 H716 0.930 . S
C726 C724 1.419 . S
C726 C727 1.362 . S
C727 H717 0.930 . S
C727 C720 1.409 . S
C727 C726 1.362 . S
H728 C734 0.930 . S
H729 C737 0.930 . S
H730 C738 0.930 . S
H731 C739 0.930 . S
H732 C742 0.930 . S
H733 C743 0.930 . S
C734 H728 0.930 . S
C734 C735 1.355 . S
C734 C736 1.415 . S
C735 C734 1.355 . S
C735 C737 1.419 . S
C736 C734 1.415 . S
C736 C741 1.425 . S
C736 C743 1.409 . S
C737 H729 0.930 . S
C737 C735 1.419 . S
C737 C738 1.362 . S
C738 H730 0.930 . S
C738 C737 1.362 . S
C738 C741 1.409 . S
C739 H731 0.930 . S
C739 C740 1.355 . S
C739 C741 1.415 . S
C740 C739 1.355 . S
C740 C742 1.419 . S
C741 C736 1.425 . S
C741 C738 1.409 . S
C741 C739 1.415 . S
C742 H732 0.930 . S
C742 C740 1.419 . S
C742 C743 1.362 . S
C743 H733 0.930 . S
C743 C736 1.409 . S
C743 C742 1.362 . S
H744 C750 0.930 . S
H745 C753 0.930 . S
H746 C754 0.930 . S
H747 C755 0.930 . S
H748 C758 0.930 . S
H749 C759 0.930 . S
C750 H744 0.930 . S
C750 C751 1.355 . S
C750 C752 1.415 . S
C751 C750 1.355 . S
C751 C753 1.419 . S
C752 C750 1.415 . S
C752 C757 1.425 . S
C752 C759 1.409 . S
C753 H745 0.930 . S
C753 C751 1.419 . S
C753 C754 1.362 . S
C754 H746 0.930 . S
C754 C753 1.362 . S
C754 C757 1.409 . S
C755 H747 0.930 . S
C755 C756 1.355 . S
C755 C757 1.415 . S
C756 C755 1.355 . S
C756 C758 1.419 . S
C757 C752 1.425 . S
C757 C754 1.409 . S
C757 C755 1.415 . S
C758 H748 0.930 . S
C758 C756 1.419 . S
C758 C759 1.362 . S
C759 H749 0.930 . S
C759 C752 1.409 . S
C759 C758 1.362 . S
H760 C766 0.930 . S
H761 C769 0.930 . S
H762 C770 0.930 . S
H763 C771 0.930 . S
H764 C774 0.930 . S
H765 C775 0.930 . S
C766 H760 0.930 . S
C766 C767 1.355 1_545 S
C766 C768 1.415 . S
C767 C766 1.355 1_565 S
C767 C769 1.419 . S
C768 C766 1.415 . S
C768 C773 1.425 1_545 S
C768 C775 1.409 . S
C769 H761 0.930 . S
C769 C767 1.419 . S
C769 C770 1.362 . S
C770 H762 0.930 . S
C770 C769 1.362 . S
C770 C773 1.409 . S
C771 H763 0.930 . S
C771 C772 1.355 . S
C771 C773 1.415 . S
C772 C771 1.355 . S
C772 C774 1.419 1_565 S
C773 C768 1.425 1_565 S
C773 C770 1.409 . S
C773 C771 1.415 . S
C774 H764 0.930 . S
C774 C772 1.419 1_545 S
C774 C775 1.362 . S
C775 H765 0.930 . S
C775 C768 1.409 . S
C775 C774 1.362 . S
H776 C782 0.930 . S
H777 C785 0.930 . S
H778 C786 0.930 . S
H779 C787 0.930 . S
H780 C790 0.930 . S
H781 C791 0.930 . S
C782 H776 0.930 . S
C782 C783 1.355 . S
C782 C784 1.415 . S
C783 C782 1.355 . S
C783 C785 1.419 . S
C784 C782 1.415 . S
C784 C789 1.425 . S
C784 C791 1.409 . S
C785 H777 0.930 . S
C785 C783 1.419 . S
C785 C786 1.362 . S
C786 H778 0.930 . S
C786 C785 1.362 . S
C786 C789 1.409 . S
C787 H779 0.930 . S
C787 C788 1.355 . S
C787 C789 1.415 . S
C788 C787 1.355 . S
C788 C790 1.419 . S
C789 C784 1.425 . S
C789 C786 1.409 . S
C789 C787 1.415 . S
C790 H780 0.930 . S
C790 C788 1.419 . S
C790 C791 1.362 . S
C791 H781 0.930 . S
C791 C784 1.409 . S
C791 C790 1.362 . S
H792 C798 0.930 . S
H793 C801 0.930 . S
H794 C802 0.930 . S
H795 C803 0.930 . S
H796 C806 0.930 . S
H797 C807 0.930 . S
C798 H792 0.930 . S
C798 C799 1.355 . S
C798 C800 1.415 . S
C799 C798 1.355 . S
C799 C801 1.419 . S
C800 C798 1.415 . S
C800 C805 1.425 . S
C800 C807 1.409 . S
C801 H793 0.930 . S
C801 C799 1.419 . S
C801 C802 1.362 . S
C802 H794 0.930 . S
C802 C801 1.362 . S
C802 C805 1.409 . S
C803 H795 0.930 . S
C803 C804 1.355 . S
C803 C805 1.415 . S
C804 C803 1.355 . S
C804 C806 1.419 . S
C805 C800 1.425 . S
C805 C802 1.409 . S
C805 C803 1.415 . S
C806 H796 0.930 . S
C806 C804 1.419 . S
C806 C807 1.362 . S
C807 H797 0.930 . S
C807 C800 1.409 . S
C807 C806 1.362 . S
H808 C814 0.930 . S
H809 C817 0.930 . S
H810 C818 0.930 . S
H811 C819 0.931 1_455 S
H812 C822 0.930 . S
H813 C823 0.930 . S
C814 H808 0.930 . S
C814 C815 1.355 . S
C814 C816 1.415 . S
C815 C814 1.355 . S
C815 C817 1.419 . S
C816 C814 1.415 . S
C816 C821 1.425 . S
C816 C823 1.409 . S
C817 H809 0.930 . S
C817 C815 1.419 . S
C817 C818 1.362 . S
C818 H810 0.930 . S
C818 C817 1.362 . S
C818 C821 1.409 . S
C819 H811 0.931 1_655 S
C819 C820 1.355 1_655 S
C819 C821 1.413 . S
C820 C819 1.355 1_455 S
C820 C822 1.419 1_455 S
C821 C816 1.425 . S
C821 C818 1.409 . S
C821 C819 1.413 . S
C822 H812 0.930 . S
C822 C820 1.419 1_655 S
C822 C823 1.362 . S
C823 H813 0.930 . S
C823 C816 1.409 . S
C823 C822 1.362 . S
H824 C830 0.930 . S
H825 C833 0.930 . S
H826 C834 0.930 . S
H827 C835 0.930 . S
H828 C838 0.930 . S
H829 C839 0.930 . S
C830 H824 0.930 . S
C830 C831 1.355 1_545 S
C830 C832 1.415 . S
C831 C830 1.355 1_565 S
C831 C833 1.419 . S
C832 C830 1.415 . S
C832 C837 1.425 1_545 S
C832 C839 1.409 . S
C833 H825 0.930 . S
C833 C831 1.419 . S
C833 C834 1.362 . S
C834 H826 0.930 . S
C834 C833 1.362 . S
C834 C837 1.409 . S
C835 H827 0.930 . S
C835 C836 1.355 1_565 S
C835 C837 1.415 . S
C836 C835 1.355 1_545 S
C836 C838 1.419 . S
C837 C832 1.425 1_565 S
C837 C834 1.409 . S
C837 C835 1.415 . S
C838 H828 0.930 . S
C838 C836 1.419 . S
C838 C839 1.362 . S
C839 H829 0.930 . S
C839 C832 1.409 . S
C839 C838 1.362 . S
H840 C846 0.930 . S
H841 C849 0.930 . S
H842 C850 0.930 . S
H843 C851 0.930 . S
H844 C854 0.930 . S
H845 C855 0.930 . S
C846 H840 0.930 . S
C846 C847 1.355 . S
C846 C848 1.415 . S
C847 C846 1.355 . S
C847 C849 1.419 . S
C848 C846 1.415 . S
C848 C853 1.425 . S
C848 C855 1.409 . S
C849 H841 0.930 . S
C849 C847 1.419 . S
C849 C850 1.362 . S
C850 H842 0.930 . S
C850 C849 1.362 . S
C850 C853 1.409 . S
C851 H843 0.930 . S
C851 C852 1.355 . S
C851 C853 1.415 . S
C852 C851 1.355 . S
C852 C854 1.419 . S
C853 C848 1.425 . S
C853 C850 1.409 . S
C853 C851 1.415 . S
C854 H844 0.930 . S
C854 C852 1.419 . S
C854 C855 1.362 . S
C855 H845 0.930 . S
C855 C848 1.409 . S
C855 C854 1.362 . S
H856 C862 0.930 . S
H857 C865 0.930 . S
H858 C866 0.930 . S
H859 C867 0.930 . S
H860 C870 0.930 1_455 S
H861 C871 0.930 . S
C862 H856 0.930 . S
C862 C863 1.355 . S
C862 C864 1.415 . S
C863 C862 1.355 . S
C863 C865 1.419 . S
C864 C862 1.415 . S
C864 C869 1.425 . S
C864 C871 1.409 . S
C865 H857 0.930 . S
C865 C863 1.419 . S
C865 C866 1.362 . S
C866 H858 0.930 . S
C866 C865 1.362 . S
C866 C869 1.409 . S
C867 H859 0.930 . S
C867 C868 1.355 . S
C867 C869 1.415 . S
C868 C867 1.355 . S
C868 C870 1.419 . S
C869 C864 1.425 . S
C869 C866 1.409 . S
C869 C867 1.415 . S
C870 H860 0.930 1_655 S
C870 C868 1.419 . S
C870 C871 1.362 . S
C871 H861 0.930 . S
C871 C864 1.409 . S
C871 C870 1.362 . S
H872 C878 0.930 . S
H873 C881 0.930 . S
H874 C882 0.930 . S
H875 C883 0.930 . S
H876 C886 0.930 1_556 S
H877 C887 0.930 . S
C878 H872 0.930 . S
C878 C879 1.355 . S
C878 C880 1.415 . S
C879 C878 1.355 . S
C879 C881 1.419 . S
C880 C878 1.415 . S
C880 C885 1.425 . S
C880 C887 1.409 . S
C881 H873 0.930 . S
C881 C879 1.419 . S
C881 C882 1.362 . S
C882 H874 0.930 . S
C882 C881 1.362 . S
C882 C885 1.409 . S
C883 H875 0.930 . S
C883 C884 1.355 . S
C883 C885 1.415 . S
C884 C883 1.355 . S
C884 C886 1.419 . S
C885 C880 1.425 . S
C885 C882 1.409 . S
C885 C883 1.415 . S
C886 H876 0.930 1_554 S
C886 C884 1.419 . S
C886 C887 1.362 . S
C887 H877 0.930 . S
C887 C880 1.409 . S
C887 C886 1.362 . S
H888 C894 0.930 . S
H889 C897 0.930 . S
H890 C898 0.930 . S
H891 C899 0.930 . S
H892 C902 0.930 . S
H893 C903 0.930 . S
C894 H888 0.930 . S
C894 C895 1.333 1_566 S
C894 C896 1.415 . S
C895 C894 1.333 1_544 S
C895 C897 1.437 . S
C896 C894 1.415 . S
C896 C901 1.425 1_565 S
C896 C903 1.409 . S
C897 H889 0.930 . S
C897 C895 1.437 . S
C897 C898 1.362 . S
C898 H890 0.930 . S
C898 C897 1.362 . S
C898 C901 1.409 1_554 S
C899 H891 0.930 . S
C899 C900 1.355 . S
C899 C901 1.415 . S
C900 C899 1.355 . S
C900 C902 1.419 1_545 S
C901 C896 1.425 1_545 S
C901 C898 1.409 1_556 S
C901 C899 1.415 . S
C902 H892 0.930 . S
C902 C900 1.419 1_565 S
C902 C903 1.362 . S
C903 H893 0.930 . S
C903 C896 1.409 . S
C903 C902 1.362 . S
H904 C910 0.930 1_554 S
H905 C913 0.930 . S
H906 C914 0.930 . S
H907 C915 0.930 . S
H908 C918 0.930 . S
H909 C919 0.930 1_554 S
C910 H904 0.930 1_556 S
C910 C911 1.355 . S
C910 C912 1.415 . S
C911 C910 1.355 . S
C911 C913 1.419 . S
C912 C910 1.415 . S
C912 C917 1.425 . S
C912 C919 1.409 . S
C913 H905 0.930 . S
C913 C911 1.419 . S
C913 C914 1.362 . S
C914 H906 0.930 . S
C914 C913 1.362 . S
C914 C917 1.409 . S
C915 H907 0.930 . S
C915 C916 1.355 . S
C915 C917 1.415 . S
C916 C915 1.355 . S
C916 C918 1.419 . S
C917 C912 1.425 . S
C917 C914 1.409 . S
C917 C915 1.415 . S
C918 H908 0.930 . S
C918 C916 1.419 . S
C918 C919 1.362 . S
C919 H909 0.930 1_556 S
C919 C912 1.409 . S
C919 C918 1.362 . S
H920 C926 0.930 . S
H921 C929 0.930 1_554 S
H922 C930 0.930 1_554 S
H923 C931 0.930 . S
H924 C934 0.930 . S
H925 C935 0.930 . S
C926 H920 0.930 . S
C926 C927 1.355 . S
C926 C928 1.415 . S
C927 C926 1.355 . S
C927 C929 1.419 . S
C928 C926 1.415 . S
C928 C933 1.425 . S
C928 C935 1.409 . S
C929 H921 0.930 1_556 S
C929 C927 1.419 . S
C929 C930 1.362 . S
C930 H922 0.930 1_556 S
C930 C929 1.362 . S
C930 C933 1.409 . S
C931 H923 0.930 . S
C931 C932 1.355 . S
C931 C933 1.415 . S
C932 C931 1.355 . S
C932 C934 1.419 . S
C933 C928 1.425 . S
C933 C930 1.409 . S
C933 C931 1.415 . S
C934 H924 0.930 . S
C934 C932 1.419 . S
C934 C935 1.362 . S
C935 H925 0.930 . S
C935 C928 1.409 . S
C935 C934 1.362 . S
H936 C942 0.930 . S
H937 C945 0.930 . S
H938 C946 0.930 . S
H939 C947 0.930 . S
H940 C950 0.930 . S
H941 C951 0.930 . S
C942 H936 0.930 . S
C942 C943 1.355 . S
C942 C944 1.415 . S
C943 C942 1.355 . S
C943 C945 1.419 . S
C944 C942 1.415 . S
C944 C949 1.425 . S
C944 C951 1.409 . S
C945 H937 0.930 . S
C945 C943 1.419 . S
C945 C946 1.362 . S
C946 H938 0.930 . S
C946 C945 1.362 . S
C946 C949 1.409 . S
C947 H939 0.930 . S
C947 C948 1.355 . S
C947 C949 1.415 . S
C948 C947 1.355 . S
C948 C950 1.419 . S
C949 C944 1.425 . S
C949 C946 1.409 . S
C949 C947 1.415 . S
C950 H940 0.930 . S
C950 C948 1.419 . S
C950 C951 1.362 . S
C951 H941 0.930 . S
C951 C944 1.409 . S
C951 C950 1.362 . S
H952 C958 0.930 . S
H953 C961 0.930 . S
H954 C962 0.930 . S
H955 C963 0.930 . S
H956 C966 0.930 . S
H957 C967 0.930 . S
C958 H952 0.930 . S
C958 C959 1.355 1_545 S
C958 C960 1.415 . S
C959 C958 1.355 1_565 S
C959 C961 1.419 . S
C960 C958 1.415 . S
C960 C965 1.425 1_545 S
C960 C967 1.409 . S
C961 H953 0.930 . S
C961 C959 1.419 . S
C961 C962 1.362 . S
C962 H954 0.930 . S
C962 C961 1.362 . S
C962 C965 1.409 . S
C963 H955 0.930 . S
C963 C964 1.375 . S
C963 C965 1.415 . S
C964 C963 1.375 . S
C964 C966 1.397 1_565 S
C965 C960 1.425 1_565 S
C965 C962 1.409 . S
C965 C963 1.415 . S
C966 H956 0.930 . S
C966 C964 1.397 1_545 S
C966 C967 1.362 . S
C967 H957 0.930 . S
C967 C960 1.409 . S
C967 C966 1.362 . S
H968 C974 0.930 . S
H969 C977 0.930 . S
H970 C978 0.930 . S
H971 C979 0.930 . S
H972 C982 0.930 . S
H973 C983 0.930 . S
C974 H968 0.930 . S
C974 C975 1.355 . S
C974 C976 1.415 . S
C975 C974 1.355 . S
C975 C977 1.419 . S
C976 C974 1.415 . S
C976 C981 1.425 . S
C976 C983 1.409 . S
C977 H969 0.930 . S
C977 C975 1.419 . S
C977 C978 1.362 . S
C978 H970 0.930 . S
C978 C977 1.362 . S
C978 C981 1.409 . S
C979 H971 0.930 . S
C979 C980 1.355 . S
C979 C981 1.415 . S
C980 C979 1.355 . S
C980 C982 1.419 . S
C981 C976 1.425 . S
C981 C978 1.409 . S
C981 C979 1.415 . S
C982 H972 0.930 . S
C982 C980 1.419 . S
C982 C983 1.362 . S
C983 H973 0.930 . S
C983 C976 1.409 . S
C983 C982 1.362 . S
H984 C990 0.930 . S
H985 C993 0.930 . S
H986 C994 0.930 . S
H987 C995 0.930 . S
H988 C998 0.930 . S
H989 C999 0.930 . S
C990 H984 0.930 . S
C990 C991 1.355 . S
C990 C992 1.415 . S
C991 C990 1.355 . S
C991 C993 1.419 . S
C992 C990 1.415 . S
C992 C997 1.425 . S
C992 C999 1.409 . S
C993 H985 0.930 . S
C993 C991 1.419 . S
C993 C994 1.362 . S
C994 H986 0.930 . S
C994 C993 1.362 . S
C994 C997 1.409 . S
C995 H987 0.930 . S
C995 C996 1.355 . S
C995 C997 1.415 . S
C996 C995 1.355 . S
C996 C998 1.419 . S
C997 C992 1.425 . S
C997 C994 1.409 . S
C997 C995 1.415 . S
C998 H988 0.930 . S
C998 C996 1.419 . S
C998 C999 1.362 . S
C999 H989 0.930 . S
C999 C992 1.409 . S
C999 C998 1.362 . S
C623 C391 1.956 1_565 S
C628 C497 1.935 . S
C644 C518 1.775 . S
C639 C451 1.794 . S
C660 C552 1.608 . S
C655 C241 1.458 . S
C676 C586 1.719 . S
C671 C331 1.568 . S
C692 C488 1.906 . S
C687 C121 1.764 1_546 S
C703 C211 1.711 1_556 S
C708 C527 1.774 . S
C719 C31 1.687 . S
C724 C561 1.633 . S
C735 C91 1.626 . S
C740 C595 1.717 . S
C756 C509 0.807 . S
C751 C301 0.669 . S
C772 C514 0.547 . S
C767 C380 0.589 1_565 S
C788 C548 0.845 . S
C783 C440 0.833 . S
C799 C260 0.398 . S
C804 C582 0.351 . S
C815 C61 0.871 . S
C820 C480 0.876 . S
C836 C543 0.594 . S
C831 C140 0.542 . S
C852 C577 0.721 . S
C847 C200 0.693 . S
C863 C20 0.272 . S
C868 C611 0.299 . S
C879 C320 1.736 . S
C884 C493 1.792 1_554 S
C895 C361 1.876 . S
C900 C522 2.171 . S
C916 C556 1.937 . S
C911 C421 1.751 1_556 S
C932 C590 1.992 . S
C927 C271 1.940 1_556 S
C943 C80 1.771 . S
C948 C484 1.799 . S
C964 C531 2.175 . S
C959 C151 2.114 . S
C980 C565 1.913 . S
C975 C181 1.592 . S
C991 C1 1.798 . S
C996 C599 1.999 . S
