# Generated by pormake.
# Topology ctn, (3,4)-cn, num edge types: 1
# Building blocks:
#     Node 0, Type 0, BuildingBlock: BELTOD_clean_linker_0, # of connection points: 3
#     Node 1, Type 0, BuildingBlock: BELTOD_clean_linker_0, # of connection points: 3
#     Node 2, Type 0, BuildingBlock: BELTOD_clean_linker_0, # of connection points: 3
#     Node 3, Type 0, BuildingBlock: BELTOD_clean_linker_0, # of connection points: 3
#     Node 4, Type 0, BuildingBlock: BELTOD_clean_linker_0, # of connection points: 3
#     Node 5, Type 0, BuildingBlock: BELTOD_clean_linker_0, # of connection points: 3
#     Node 6, Type 0, BuildingBlock: BELTOD_clean_linker_0, # of connection points: 3
#     Node 7, Type 0, BuildingBlock: BELTOD_clean_linker_0, # of connection points: 3
#     Node 8, Type 0, BuildingBlock: BELTOD_clean_linker_0, # of connection points: 3
#     Node 9, Type 0, BuildingBlock: BELTOD_clean_linker_0, # of connection points: 3
#     Node 10, Type 0, BuildingBlock: BELTOD_clean_linker_0, # of connection points: 3
#     Node 11, Type 0, BuildingBlock: BELTOD_clean_linker_0, # of connection points: 3
#     Node 12, Type 0, BuildingBlock: BELTOD_clean_linker_0, # of connection points: 3
#     Node 13, Type 0, BuildingBlock: BELTOD_clean_linker_0, # of connection points: 3
#     Node 14, Type 0, BuildingBlock: BELTOD_clean_linker_0, # of connection points: 3
#     Node 15, Type 0, BuildingBlock: BELTOD_clean_linker_0, # of connection points: 3
#     Node 16, Type 1, BuildingBlock: KUFVIS_clean_sbu_0, # of connection points: 4
#     Node 17, Type 1, BuildingBlock: KUFVIS_clean_sbu_0, # of connection points: 4
#     Node 18, Type 1, BuildingBlock: KUFVIS_clean_sbu_0, # of connection points: 4
#     Node 19, Type 1, BuildingBlock: KUFVIS_clean_sbu_0, # of connection points: 4
#     Node 20, Type 1, BuildingBlock: KUFVIS_clean_sbu_0, # of connection points: 4
#     Node 21, Type 1, BuildingBlock: KUFVIS_clean_sbu_0, # of connection points: 4
#     Node 22, Type 1, BuildingBlock: KUFVIS_clean_sbu_0, # of connection points: 4
#     Node 23, Type 1, BuildingBlock: KUFVIS_clean_sbu_0, # of connection points: 4
#     Node 24, Type 1, BuildingBlock: KUFVIS_clean_sbu_0, # of connection points: 4
#     Node 25, Type 1, BuildingBlock: KUFVIS_clean_sbu_0, # of connection points: 4
#     Node 26, Type 1, BuildingBlock: KUFVIS_clean_sbu_0, # of connection points: 4
#     Node 27, Type 1, BuildingBlock: KUFVIS_clean_sbu_0, # of connection points: 4
#     Edge 28, Type (0, 1), BuildingBlock: XIVTED_clean_linker_0, # of connection points: 2
#     Edge 29, Type (0, 1), BuildingBlock: XIVTED_clean_linker_0, # of connection points: 2
#     Edge 30, Type (0, 1), BuildingBlock: XIVTED_clean_linker_0, # of connection points: 2
#     Edge 31, Type (0, 1), BuildingBlock: XIVTED_clean_linker_0, # of connection points: 2
#     Edge 32, Type (0, 1), BuildingBlock: XIVTED_clean_linker_0, # of connection points: 2
#     Edge 33, Type (0, 1), BuildingBlock: XIVTED_clean_linker_0, # of connection points: 2
#     Edge 34, Type (0, 1), BuildingBlock: XIVTED_clean_linker_0, # of connection points: 2
#     Edge 35, Type (0, 1), BuildingBlock: XIVTED_clean_linker_0, # of connection points: 2
#     Edge 36, Type (0, 1), BuildingBlock: XIVTED_clean_linker_0, # of connection points: 2
#     Edge 37, Type (0, 1), BuildingBlock: XIVTED_clean_linker_0, # of connection points: 2
#     Edge 38, Type (0, 1), BuildingBlock: XIVTED_clean_linker_0, # of connection points: 2
#     Edge 39, Type (0, 1), BuildingBlock: XIVTED_clean_linker_0, # of connection points: 2
#     Edge 40, Type (0, 1), BuildingBlock: XIVTED_clean_linker_0, # of connection points: 2
#     Edge 41, Type (0, 1), BuildingBlock: XIVTED_clean_linker_0, # of connection points: 2
#     Edge 42, Type (0, 1), BuildingBlock: XIVTED_clean_linker_0, # of connection points: 2
#     Edge 43, Type (0, 1), BuildingBlock: XIVTED_clean_linker_0, # of connection points: 2
#     Edge 44, Type (0, 1), BuildingBlock: XIVTED_clean_linker_0, # of connection points: 2
#     Edge 45, Type (0, 1), BuildingBlock: XIVTED_clean_linker_0, # of connection points: 2
#     Edge 46, Type (0, 1), BuildingBlock: XIVTED_clean_linker_0, # of connection points: 2
#     Edge 47, Type (0, 1), BuildingBlock: XIVTED_clean_linker_0, # of connection points: 2
#     Edge 48, Type (0, 1), BuildingBlock: XIVTED_clean_linker_0, # of connection points: 2
#     Edge 49, Type (0, 1), BuildingBlock: XIVTED_clean_linker_0, # of connection points: 2
#     Edge 50, Type (0, 1), BuildingBlock: XIVTED_clean_linker_0, # of connection points: 2
#     Edge 51, Type (0, 1), BuildingBlock: XIVTED_clean_linker_0, # of connection points: 2
#     Edge 52, Type (0, 1), BuildingBlock: XIVTED_clean_linker_0, # of connection points: 2
#     Edge 53, Type (0, 1), BuildingBlock: XIVTED_clean_linker_0, # of connection points: 2
#     Edge 54, Type (0, 1), BuildingBlock: XIVTED_clean_linker_0, # of connection points: 2
#     Edge 55, Type (0, 1), BuildingBlock: XIVTED_clean_linker_0, # of connection points: 2
#     Edge 56, Type (0, 1), BuildingBlock: XIVTED_clean_linker_0, # of connection points: 2
#     Edge 57, Type (0, 1), BuildingBlock: XIVTED_clean_linker_0, # of connection points: 2
#     Edge 58, Type (0, 1), BuildingBlock: XIVTED_clean_linker_0, # of connection points: 2
#     Edge 59, Type (0, 1), BuildingBlock: XIVTED_clean_linker_0, # of connection points: 2
#     Edge 60, Type (0, 1), BuildingBlock: XIVTED_clean_linker_0, # of connection points: 2
#     Edge 61, Type (0, 1), BuildingBlock: XIVTED_clean_linker_0, # of connection points: 2
#     Edge 62, Type (0, 1), BuildingBlock: XIVTED_clean_linker_0, # of connection points: 2
#     Edge 63, Type (0, 1), BuildingBlock: XIVTED_clean_linker_0, # of connection points: 2
#     Edge 64, Type (0, 1), BuildingBlock: XIVTED_clean_linker_0, # of connection points: 2
#     Edge 65, Type (0, 1), BuildingBlock: XIVTED_clean_linker_0, # of connection points: 2
#     Edge 66, Type (0, 1), BuildingBlock: XIVTED_clean_linker_0, # of connection points: 2
#     Edge 67, Type (0, 1), BuildingBlock: XIVTED_clean_linker_0, # of connection points: 2
#     Edge 68, Type (0, 1), BuildingBlock: XIVTED_clean_linker_0, # of connection points: 2
#     Edge 69, Type (0, 1), BuildingBlock: XIVTED_clean_linker_0, # of connection points: 2
#     Edge 70, Type (0, 1), BuildingBlock: XIVTED_clean_linker_0, # of connection points: 2
#     Edge 71, Type (0, 1), BuildingBlock: XIVTED_clean_linker_0, # of connection points: 2
#     Edge 72, Type (0, 1), BuildingBlock: XIVTED_clean_linker_0, # of connection points: 2
#     Edge 73, Type (0, 1), BuildingBlock: XIVTED_clean_linker_0, # of connection points: 2
#     Edge 74, Type (0, 1), BuildingBlock: XIVTED_clean_linker_0, # of connection points: 2
#     Edge 75, Type (0, 1), BuildingBlock: XIVTED_clean_linker_0, # of connection points: 2
# Relax obj value: 0.013
# Max RMSD: 0.066
# Mean RMSD: 0.034
data_MOF--net-ctn--node1-KUFVIS_clean_sbu_0--node2-BELTOD_clean_linker_0--edge1-XIVTED_clean_linker_0
_symmetry_space_group_name_H-M    P1
_symmetry_Int_Tables_number       1
_symmetry_cell_setting            triclinic
loop_
_symmetry_equiv_pos_as_xyz
'x, y, z'
_cell_length_a     61.839546
_cell_length_b     62.122277
_cell_length_c     61.893726
_cell_angle_alpha  90.306994
_cell_angle_beta   90.381596
_cell_angle_gamma 92.390415
loop_
_atom_site_label
_atom_site_type_symbol
_atom_site_fract_x
_atom_site_fract_y
_atom_site_fract_z
_atom_type_partial_charge
P0 P 0.06764 0.06503 0.06421 0.0
H1 H 0.06566 0.06379 0.11138 0.0
H2 H 0.03799 0.05049 0.13649 0.0
H3 H 0.99761 0.02902 0.08271 0.0
H4 H 0.02548 0.04255 0.05752 0.0
H5 H 0.10672 0.06667 0.03841 0.0
H6 H 0.13011 0.03898 0.02473 0.0
H7 H 0.08677 0.98962 0.05105 0.0
H8 H 0.06355 0.01736 0.06479 0.0
H9 H 0.03962 0.10097 0.06852 0.0
H10 H 0.06756 0.06554 0.01628 0.0
O11 O 0.08485 0.08137 0.07806 0.0
H12 H 0.02469 0.126 0.04261 0.0
H13 H 0.05269 0.09053 0.99026 0.0
C14 C 0.04748 0.05438 0.0826 0.0
C15 C 0.05086 0.05627 0.10494 0.0
C16 C 0.035 0.04871 0.1193 0.0
C17 C 0.01556 0.03886 0.11156 0.0
C18 C 0.01246 0.03646 0.08913 0.0
C19 C 0.02829 0.04427 0.07475 0.0
C20 C 0.08337 0.04414 0.05256 0.0
C21 C 0.10214 0.04987 0.04103 0.0
C22 C 0.11545 0.03402 0.03315 0.0
C23 C 0.11032 0.01208 0.03683 0.0
C24 C 0.09128 0.00638 0.04814 0.0
C25 C 0.0779 0.02227 0.05589 0.0
C26 C 0.05476 0.08145 0.04439 0.0
C27 C 0.04231 0.09842 0.05144 0.0
C28 C 0.03372 0.11268 0.03659 0.0
C29 C 0.03759 0.11033 0.01436 0.0
C30 C 0.04968 0.09295 0.0073 0.0
C31 C 0.05815 0.07859 0.02219 0.0
P32 P 0.33513 0.67992 0.17746 0.0
H33 H 0.36043 0.70548 0.14668 0.0
H34 H 0.35251 0.73676 0.12472 0.0
H35 H 0.28844 0.73733 0.15219 0.0
H36 H 0.29675 0.70649 0.17453 0.0
H37 H 0.34571 0.65466 0.21519 0.0
H38 H 0.36688 0.66278 0.24792 0.0
H39 H 0.37886 0.72805 0.22575 0.0
H40 H 0.35719 0.71997 0.19346 0.0
H41 H 0.31404 0.64173 0.15743 0.0
H42 H 0.30261 0.68405 0.2112 0.0
O43 O 0.35104 0.66466 0.16267 0.0
H44 H 0.28238 0.61924 0.1672 0.0
H45 H 0.27035 0.66214 0.22067 0.0
C46 C 0.32905 0.70336 0.16189 0.0
C47 C 0.34468 0.71235 0.14796 0.0
C48 C 0.34009 0.73021 0.13536 0.0
C49 C 0.31974 0.73946 0.13648 0.0
C50 C 0.30433 0.73075 0.151 0.0
C51 C 0.309 0.71293 0.16367 0.0
C52 C 0.34961 0.68676 0.20204 0.0
C53 C 0.35268 0.67079 0.21754 0.0
C54 C 0.36496 0.67541 0.23615 0.0
C55 C 0.37459 0.69608 0.23951 0.0
C56 C 0.37138 0.71207 0.2239 0.0
C57 C 0.35905 0.70743 0.20531 0.0
C58 C 0.31084 0.66431 0.18382 0.0
C59 C 0.30459 0.64627 0.17126 0.0
C60 C 0.28631 0.63353 0.17677 0.0
C61 C 0.27381 0.63877 0.19483 0.0
C62 C 0.27981 0.65735 0.20694 0.0
C63 C 0.29818 0.66998 0.20148 0.0
P64 P 0.98707 0.49514 0.01977 0.0
H65 H 0.96205 0.47626 0.98363 0.0
H66 H 0.96069 0.44038 0.96702 0.0
H67 H 0.00537 0.41873 0.01538 0.0
H68 H 0.00652 0.45445 0.03202 0.0
H69 H 0.97847 0.54068 0.01665 0.0
H70 H 0.9452 0.56054 0.01554 0.0
H71 H 0.90757 0.50077 0.02203 0.0
H72 H 0.94104 0.48099 0.02313 0.0
H73 H 0.03148 0.49472 0.03556 0.0
H74 H 0.96768 0.4959 0.06312 0.0
O75 O 0.0045 0.50829 0.00357 0.0
H76 H 0.04749 0.49562 0.07176 0.0
H77 H 0.98363 0.49689 0.09949 0.0
C78 C 0.98392 0.46797 0.00942 0.0
C79 C 0.97117 0.46366 0.99096 0.0
C80 C 0.97045 0.44317 0.98144 0.0
C81 C 0.98291 0.42672 0.98992 0.0
C82 C 0.9957 0.4311 0.00841 0.0
C83 C 0.9962 0.45153 0.01805 0.0
C84 C 0.9622 0.50933 0.01935 0.0
C85 C 0.96306 0.53184 0.01775 0.0
C86 C 0.94402 0.5432 0.0173 0.0
C87 C 0.92371 0.53223 0.01852 0.0
C88 C 0.92294 0.50966 0.02065 0.0
C89 C 0.94205 0.49832 0.02128 0.0
C90 C 0.99844 0.49564 0.04665 0.0
C91 C 0.02092 0.49523 0.04942 0.0
C92 C 0.03004 0.49556 0.07013 0.0
C93 C 0.01682 0.49638 0.08849 0.0
C94 C 0.99423 0.49651 0.08565 0.0
C95 C 0.9851 0.49594 0.06488 0.0
P96 P 0.665 0.8345 0.17485 0.0
H97 H 0.69843 0.85552 0.14859 0.0
H98 H 0.72967 0.87948 0.15729 0.0
H99 H 0.71341 0.87552 0.22506 0.0
H100 H 0.68301 0.85091 0.21631 0.0
H101 H 0.63906 0.80176 0.15183 0.0
H102 H 0.64818 0.77053 0.13012 0.0
H103 H 0.71593 0.78295 0.1453 0.0
H104 H 0.70652 0.81358 0.1677 0.0
H105 H 0.63286 0.85871 0.19751 0.0
H106 H 0.66254 0.79755 0.20445 0.0
O107 O 0.64998 0.84839 0.1578 0.0
H108 H 0.61131 0.8515 0.22977 0.0
H109 H 0.6406 0.78987 0.23649 0.0
C110 C 0.68843 0.85139 0.18176 0.0
C111 C 0.70177 0.85971 0.16533 0.0
C112 C 0.71952 0.87356 0.17033 0.0
C113 C 0.7241 0.87954 0.1919 0.0
C114 C 0.71066 0.87103 0.20831 0.0
C115 C 0.69307 0.85701 0.2033 0.0
C116 C 0.67211 0.81024 0.161 0.0
C117 C 0.65585 0.7976 0.15064 0.0
C118 C 0.66113 0.77984 0.1381 0.0
C119 C 0.68285 0.77441 0.1356 0.0
C120 C 0.69904 0.78658 0.14688 0.0
C121 C 0.69369 0.80429 0.15956 0.0
C122 C 0.64887 0.82844 0.19833 0.0
C123 C 0.63451 0.84358 0.20586 0.0
C124 C 0.62217 0.8394 0.2243 0.0
C125 C 0.62402 0.81999 0.23564 0.0
C126 C 0.63883 0.80503 0.22824 0.0
C127 C 0.65124 0.80929 0.20979 0.0
P128 P 0.05537 0.94155 0.45671 0.0
H129 H 0.08537 0.94359 0.49323 0.0
H130 H 0.11264 0.97093 0.5051 0.0
H131 H 0.09052 0.01406 0.45593 0.0
H132 H 0.06329 0.98686 0.44425 0.0
H133 H 0.03695 0.8979 0.45652 0.0
H134 H 0.0202 0.87529 0.48437 0.0
H135 H 0.0239 0.92912 0.52897 0.0
H136 H 0.04088 0.95166 0.5009 0.0
H137 H 0.0618 0.95035 0.41118 0.0
H138 H 0.00978 0.95387 0.45693 0.0
O139 O 0.07218 0.92479 0.44497 0.0
H140 H 0.03771 0.96127 0.38225 0.0
H141 H 0.98528 0.96442 0.42784 0.0
C142 C 0.0721 0.96324 0.46804 0.0
C143 C 0.08601 0.95915 0.4854 0.0
C144 C 0.10159 0.97477 0.49216 0.0
C145 C 0.10377 0.99457 0.48135 0.0
C146 C 0.08933 0.99885 0.46442 0.0
C147 C 0.07365 0.98332 0.45782 0.0
C148 C 0.04067 0.92624 0.47685 0.0
C149 C 0.034 0.90488 0.47225 0.0
C150 C 0.02425 0.89202 0.48816 0.0
C151 C 0.02086 0.90033 0.50899 0.0
C152 C 0.02662 0.92213 0.51321 0.0
C153 C 0.03631 0.93504 0.49718 0.0
C154 C 0.03741 0.95077 0.43604 0.0
C155 C 0.04512 0.95339 0.41496 0.0
C156 C 0.03132 0.95962 0.39843 0.0
C157 C 0.00948 0.96338 0.40266 0.0
C158 C 0.00202 0.96167 0.42406 0.0
C159 C 0.01594 0.95546 0.44065 0.0
P160 P 0.21374 0.70968 0.79146 0.0
H161 H 0.24346 0.74345 0.80814 0.0
H162 H 0.24507 0.76392 0.84184 0.0
H163 H 0.1882 0.72824 0.86442 0.0
H164 H 0.18659 0.70786 0.83031 0.0
H165 H 0.23073 0.68044 0.75947 0.0
H166 H 0.2517 0.64796 0.76227 0.0
H167 H 0.25075 0.65309 0.83176 0.0
H168 H 0.22882 0.68496 0.82905 0.0
H169 H 0.1755 0.73548 0.79557 0.0
H170 H 0.19184 0.67609 0.7643 0.0
O171 O 0.22677 0.72467 0.77299 0.0
H172 H 0.14025 0.73366 0.77743 0.0
H173 H 0.157 0.67481 0.74552 0.0
C174 C 0.21465 0.72449 0.81657 0.0
C175 C 0.23126 0.74009 0.82026 0.0
C176 C 0.23226 0.75166 0.83964 0.0
C177 C 0.21673 0.74773 0.85581 0.0
C178 C 0.20021 0.73185 0.85216 0.0
C179 C 0.1993 0.72018 0.83273 0.0
C180 C 0.22795 0.68503 0.79401 0.0
C181 C 0.23459 0.67434 0.77533 0.0
C182 C 0.24661 0.65587 0.77691 0.0
C183 C 0.25271 0.64815 0.79722 0.0
C184 C 0.24615 0.65882 0.81595 0.0
C185 C 0.23361 0.67701 0.81436 0.0
C186 C 0.18629 0.70569 0.78172 0.0
C187 C 0.17135 0.72172 0.78534 0.0
C188 C 0.15121 0.72075 0.7749 0.0
C189 C 0.14598 0.70409 0.76013 0.0
C190 C 0.1607 0.6878 0.75687 0.0
C191 C 0.18065 0.68855 0.76766 0.0
P192 P 0.99251 0.51219 0.49551 0.0
H193 H 0.03482 0.50023 0.47964 0.0
H194 H 0.05083 0.50008 0.4437 0.0
H195 H 0.99156 0.52332 0.41675 0.0
H196 H 0.97578 0.52374 0.45295 0.0
H197 H 0.97218 0.53013 0.53348 0.0
H198 H 0.97273 0.5663 0.54936 0.0
H199 H 0.01568 0.58927 0.49902 0.0
H200 H 0.01471 0.55315 0.48288 0.0
H201 H 0.97647 0.46769 0.4916 0.0
H202 H 0.94901 0.53028 0.49584 0.0
O203 O 0.0072 0.49728 0.51194 0.0
H204 H 0.93997 0.45067 0.49108 0.0
H205 H 0.91259 0.51324 0.49625 0.0
C206 C 0.00402 0.51171 0.46888 0.0
C207 C 0.02521 0.50515 0.46599 0.0
C208 C 0.03432 0.50497 0.44539 0.0
C209 C 0.02243 0.51152 0.42729 0.0
C210 C 0.00121 0.51829 0.43034 0.0
C211 C 0.99211 0.51842 0.45098 0.0
C212 C 0.99287 0.53907 0.50666 0.0
C213 C 0.98145 0.54302 0.52566 0.0
C214 C 0.98178 0.56366 0.53472 0.0
C215 C 0.99407 0.5806 0.52527 0.0
C216 C 0.00602 0.57649 0.50657 0.0
C217 C 0.00537 0.55588 0.49729 0.0
C218 C 0.96549 0.50018 0.49442 0.0
C219 C 0.96261 0.47775 0.4926 0.0
C220 C 0.94181 0.46805 0.49226 0.0
C221 C 0.92356 0.48067 0.49396 0.0
C222 C 0.92645 0.50318 0.49533 0.0
C223 C 0.94726 0.51289 0.49518 0.0
P224 P 0.8317 0.83998 0.83671 0.0
H225 H 0.83342 0.85205 0.79061 0.0
H226 H 0.85396 0.83817 0.76011 0.0
H227 H 0.88353 0.79289 0.80274 0.0
H228 H 0.86315 0.80682 0.833 0.0
H229 H 0.82572 0.88621 0.83359 0.0
H230 H 0.7947 0.90734 0.82415 0.0
H231 H 0.75632 0.8486 0.81263 0.0
H232 H 0.78769 0.82756 0.82159 0.0
H233 H 0.82858 0.83439 0.88357 0.0
H234 H 0.8144 0.79659 0.8262 0.0
O235 O 0.84888 0.85576 0.85121 0.0
H236 H 0.81656 0.80395 0.90605 0.0
H237 H 0.80271 0.76601 0.84849 0.0
C238 C 0.84634 0.83004 0.81394 0.0
C239 C 0.84423 0.83907 0.79334 0.0
C240 C 0.85608 0.83124 0.77596 0.0
C241 C 0.87014 0.81427 0.779 0.0
C242 C 0.8725 0.80567 0.7998 0.0
C243 C 0.86086 0.81363 0.81711 0.0
C244 C 0.80889 0.85532 0.82876 0.0
C245 C 0.81064 0.87786 0.82906 0.0
C246 C 0.79282 0.88993 0.82376 0.0
C247 C 0.77287 0.87968 0.81796 0.0
C248 C 0.77142 0.85703 0.81699 0.0
C249 C 0.78931 0.84496 0.82227 0.0
C250 C 0.82263 0.81764 0.85325 0.0
C251 C 0.82301 0.81949 0.87582 0.0
C252 C 0.81626 0.80203 0.88865 0.0
C253 C 0.80879 0.78249 0.87908 0.0
C254 C 0.8082 0.78086 0.85639 0.0
C255 C 0.81499 0.7983 0.84362 0.0
P256 P 0.33178 0.34027 0.33571 0.0
H257 H 0.37455 0.35209 0.31825 0.0
H258 H 0.39543 0.33772 0.28855 0.0
H259 H 0.34193 0.29337 0.27249 0.0
H260 H 0.32134 0.30757 0.30256 0.0
H261 H 0.29919 0.36035 0.36144 0.0
H262 H 0.26771 0.38115 0.35237 0.0
H263 H 0.28157 0.37366 0.28448 0.0
H264 H 0.31296 0.35277 0.29367 0.0
H265 H 0.35079 0.3205 0.37387 0.0
H266 H 0.29448 0.30988 0.33316 0.0
O267 O 0.34802 0.35676 0.35047 0.0
H268 H 0.3386 0.29055 0.39689 0.0
H269 H 0.28257 0.27947 0.3555 0.0
C270 C 0.34648 0.33071 0.31278 0.0
C271 C 0.36727 0.33932 0.30831 0.0
C272 C 0.37916 0.33118 0.29119 0.0
C273 C 0.37043 0.31429 0.27817 0.0
C274 C 0.34931 0.30611 0.28241 0.0
C275 C 0.33747 0.31425 0.29956 0.0
C276 C 0.30839 0.35499 0.32828 0.0
C277 C 0.29539 0.36314 0.3446 0.0
C278 C 0.27746 0.3751 0.3394 0.0
C279 C 0.27215 0.3791 0.3177 0.0
C280 C 0.28509 0.37065 0.30134 0.0
C281 C 0.30312 0.35876 0.30659 0.0
C282 C 0.32331 0.31764 0.35209 0.0
C283 C 0.33584 0.31165 0.36984 0.0
C284 C 0.32895 0.29438 0.38288 0.0
C285 C 0.30947 0.28269 0.37821 0.0
C286 C 0.29738 0.2884 0.3599 0.0
C287 C 0.30423 0.30572 0.347 0.0
P288 P 0.48808 0.99691 0.51906 0.0
H289 H 0.50323 0.97934 0.47823 0.0
H290 H 0.5034 0.94301 0.46334 0.0
H291 H 0.47165 0.91844 0.52069 0.0
H292 H 0.47101 0.95511 0.53526 0.0
H293 H 0.4736 0.0351 0.54083 0.0
H294 H 0.43979 0.05385 0.53987 0.0
H295 H 0.41098 0.00291 0.49988 0.0
H296 H 0.44524 0.98461 0.50038 0.0
H297 H 0.53142 0.01159 0.53317 0.0
H298 H 0.47379 0.98351 0.56236 0.0
O299 O 0.50253 0.01297 0.50255 0.0
H300 H 0.54889 0.01437 0.56864 0.0
H301 H 0.49155 0.9857 0.59799 0.0
C302 C 0.48732 0.96996 0.50799 0.0
C303 C 0.49628 0.96619 0.48765 0.0
C304 C 0.49652 0.94531 0.47919 0.0
C305 C 0.48778 0.9277 0.4909 0.0
C306 C 0.47844 0.93161 0.51117 0.0
C307 C 0.47819 0.95257 0.51961 0.0
C308 C 0.46184 0.00828 0.52101 0.0
C309 C 0.45987 0.02777 0.53218 0.0
C310 C 0.44045 0.03847 0.53164 0.0
C311 C 0.42254 0.02994 0.5198 0.0
C312 C 0.42448 0.01011 0.50894 0.0
C313 C 0.44401 0.99947 0.50942 0.0
C314 C 0.50125 0.99747 0.54514 0.0
C315 C 0.52255 0.00589 0.54717 0.0
C316 C 0.53253 0.00748 0.56745 0.0
C317 C 0.52152 1.00033 0.58603 0.0
C318 C 0.50042 0.99122 0.58389 0.0
C319 C 0.49029 0.98996 0.56358 0.0
P320 P 0.16645 0.33351 0.67331 0.0
H321 H 0.17948 0.37745 0.6606 0.0
H322 H 0.2112 0.40068 0.66907 0.0
H323 H 0.23818 0.34934 0.70611 0.0
H324 H 0.20611 0.32621 0.69774 0.0
H325 H 0.16561 0.32627 0.62681 0.0
H326 H 0.17518 0.29594 0.60413 0.0
H327 H 0.19357 0.26083 0.66099 0.0
H328 H 0.18401 0.29151 0.68369 0.0
H329 H 0.16996 0.34801 0.71874 0.0
H330 H 0.13223 0.3011 0.68126 0.0
O331 O 0.14882 0.34778 0.65945 0.0
H332 H 0.14838 0.33902 0.75064 0.0
H333 H 0.11043 0.29222 0.7131 0.0
C334 C 0.19038 0.35018 0.67873 0.0
C335 C 0.19223 0.37113 0.67048 0.0
C336 C 0.21047 0.38437 0.6752 0.0
C337 C 0.2272 0.37688 0.6883 0.0
C338 C 0.22545 0.35567 0.69618 0.0
C339 C 0.20721 0.3424 0.69135 0.0
C340 C 0.17366 0.31093 0.65693 0.0
C341 C 0.17156 0.31201 0.63443 0.0
C342 C 0.177 0.29462 0.62148 0.0
C343 C 0.18489 0.27586 0.63077 0.0
C344 C 0.18757 0.27507 0.65335 0.0
C345 C 0.182 0.29251 0.66633 0.0
C346 C 0.15299 0.32489 0.69769 0.0
C347 C 0.15739 0.33542 0.71745 0.0
C348 C 0.145 0.33032 0.7357 0.0
C349 C 0.1277 0.31496 0.73435 0.0
C350 C 0.12357 0.30423 0.71459 0.0
C351 C 0.13611 0.30917 0.69644 0.0
P352 P 0.84014 0.17516 0.67083 0.0
H353 H 0.83857 0.18485 0.62483 0.0
H354 H 0.82849 0.21657 0.60469 0.0
H355 H 0.81434 0.24894 0.66466 0.0
H356 H 0.8239 0.21675 0.68466 0.0
H357 H 0.84376 0.1541 0.71294 0.0
H358 H 0.86486 0.1632 0.74551 0.0
H359 H 0.89161 0.22019 0.71411 0.0
H360 H 0.87033 0.21111 0.68172 0.0
H361 H 0.82334 0.13318 0.65497 0.0
H362 H 0.80411 0.18186 0.70003 0.0
O363 O 0.85642 0.16093 0.6554 0.0
H364 H 0.79179 0.11047 0.66472 0.0
H365 H 0.77218 0.15938 0.70963 0.0
C366 C 0.83246 0.19866 0.65623 0.0
C367 C 0.83339 0.1988 0.63365 0.0
C368 C 0.82772 0.21703 0.62216 0.0
C369 C 0.82091 0.23549 0.63305 0.0
C370 C 0.81945 0.23503 0.65574 0.0
C371 C 0.82505 0.2167 0.66721 0.0
C372 C 0.85489 0.18235 0.69517 0.0
C373 C 0.85391 0.16873 0.71317 0.0
C374 C 0.86615 0.17382 0.73172 0.0
C375 C 0.87974 0.19254 0.73248 0.0
C376 C 0.88093 0.20592 0.71422 0.0
C377 C 0.86876 0.20075 0.69568 0.0
C378 C 0.81614 0.15908 0.67697 0.0
C379 C 0.81222 0.13906 0.66686 0.0
C380 C 0.79407 0.12614 0.67234 0.0
C381 C 0.77949 0.13307 0.68802 0.0
C382 C 0.78325 0.15344 0.69772 0.0
C383 C 0.8014 0.16635 0.69218 0.0
P384 P 0.56906 0.56571 0.57086 0.0
H385 H 0.56801 0.53168 0.60303 0.0
H386 H 0.54007 0.51793 0.62769 0.0
H387 H 0.49483 0.56131 0.59982 0.0
H388 H 0.52294 0.57528 0.5756 0.0
H389 H 0.61239 0.56746 0.5531 0.0
H390 H 0.63537 0.54006 0.53809 0.0
H391 H 0.58327 0.49217 0.54519 0.0
H392 H 0.56022 0.51977 0.5599 0.0
H393 H 0.57935 0.61114 0.56183 0.0
H394 H 0.53818 0.55994 0.53488 0.0
O395 O 0.58546 0.57964 0.58783 0.0
H396 H 0.56634 0.63592 0.53476 0.0
H397 H 0.525 0.58481 0.5075 0.0
C398 C 0.54745 0.55409 0.58705 0.0
C399 C 0.55195 0.53795 0.60197 0.0
C400 C 0.53594 0.53008 0.61605 0.0
C401 C 0.51515 0.53845 0.6157 0.0
C402 C 0.5107 0.5546 0.60064 0.0
C403 C 0.52674 0.56244 0.58655 0.0
C404 C 0.58484 0.54553 0.55815 0.0
C405 C 0.60588 0.55108 0.55131 0.0
C406 C 0.61895 0.53544 0.54263 0.0
C407 C 0.61119 0.51391 0.54068 0.0
C408 C 0.58979 0.50856 0.54685 0.0
C409 C 0.57662 0.52431 0.55528 0.0
C410 C 0.55955 0.58374 0.5505 0.0
C411 C 0.56751 0.60519 0.55006 0.0
C412 C 0.56015 0.61935 0.53445 0.0
C413 C 0.54463 0.61235 0.51897 0.0
C414 C 0.53679 0.59075 0.51935 0.0
C415 C 0.54435 0.57651 0.5349 0.0
P416 P 0.55485 0.44392 0.9585 0.0
H417 H 0.58674 0.44423 0.99339 0.0
H418 H 0.61412 0.47124 0.00571 0.0
H419 H 0.58948 0.51677 0.96021 0.0
H420 H 0.56197 0.48998 0.94825 0.0
H421 H 0.54118 0.39858 0.95824 0.0
H422 H 0.52667 0.37437 0.98601 0.0
H423 H 0.52687 0.4275 0.0314 0.0
H424 H 0.54156 0.45165 0.00342 0.0
H425 H 0.55655 0.46122 0.91495 0.0
H426 H 0.50788 0.44892 0.96345 0.0
O427 O 0.57069 0.42889 0.9434 0.0
H428 H 0.52866 0.47237 0.88964 0.0
H429 H 0.47986 0.45978 0.93808 0.0
C430 C 0.5721 0.46511 0.97008 0.0
C431 C 0.58685 0.46021 0.98648 0.0
C432 C 0.6025 0.47563 0.9935 0.0
C433 C 0.60395 0.49605 0.98385 0.0
C434 C 0.5888 0.50109 0.96782 0.0
C435 C 0.57299 0.48576 0.96102 0.0
C436 C 0.543 0.42673 0.97897 0.0
C437 C 0.53809 0.40502 0.97416 0.0
C438 C 0.5296 0.39124 0.99002 0.0
C439 C 0.52574 0.39898 0.01098 0.0
C440 C 0.53 0.42098 0.01551 0.0
C441 C 0.53839 0.43479 0.99956 0.0
C442 C 0.53426 0.45399 0.94095 0.0
C443 C 0.53987 0.4611 0.9202 0.0
C444 C 0.52395 0.46761 0.90581 0.0
C445 C 0.50208 0.46687 0.91187 0.0
C446 C 0.49658 0.46034 0.93293 0.0
C447 C 0.51259 0.45412 0.94743 0.0
P448 P 0.71511 0.21039 0.29779 0.0
H449 H 0.74054 0.24668 0.31602 0.0
H450 H 0.74017 0.26494 0.35095 0.0
H451 H 0.68943 0.22034 0.37243 0.0
H452 H 0.69001 0.20186 0.3372 0.0
H453 H 0.76097 0.20685 0.30388 0.0
H454 H 0.78461 0.17659 0.30567 0.0
H455 H 0.72906 0.13244 0.29839 0.0
H456 H 0.70532 0.16305 0.29793 0.0
H457 H 0.67421 0.23042 0.30702 0.0
H458 H 0.69713 0.18232 0.26321 0.0
O459 O 0.72757 0.22723 0.28053 0.0
H460 H 0.63942 0.22926 0.2885 0.0
H461 H 0.66215 0.18127 0.24436 0.0
C462 C 0.71495 0.22325 0.32388 0.0
C463 C 0.7293 0.2408 0.32818 0.0
C464 C 0.72918 0.25114 0.34822 0.0
C465 C 0.71471 0.2441 0.36436 0.0
C466 C 0.70057 0.22623 0.36017 0.0
C467 C 0.70092 0.21568 0.34013 0.0
C468 C 0.7315 0.18722 0.30001 0.0
C469 C 0.75386 0.19064 0.30272 0.0
C470 C 0.76739 0.17327 0.30361 0.0
C471 C 0.75887 0.152 0.30162 0.0
C472 C 0.73623 0.14857 0.29992 0.0
C473 C 0.72263 0.16608 0.29933 0.0
C474 C 0.68809 0.20575 0.28715 0.0
C475 C 0.67157 0.21899 0.29393 0.0
C476 C 0.6517 0.21857 0.2831 0.0
C477 C 0.64804 0.20518 0.26497 0.0
C478 C 0.66437 0.19148 0.25851 0.0
C479 C 0.68434 0.19199 0.26935 0.0
P480 P 0.49563 0.01346 0.99385 0.0
H481 H 0.5403 0.01879 0.97998 0.0
H482 H 0.55751 0.01896 0.94447 0.0
H483 H 0.49527 0.00572 0.91418 0.0
H484 H 0.478 0.00609 0.94969 0.0
H485 H 0.4716 0.03194 0.02916 0.0
H486 H 0.47164 0.06795 0.04527 0.0
H487 H 0.51873 0.09054 0.99851 0.0
H488 H 0.51838 0.05467 0.98218 0.0
H489 H 0.47853 0.97043 0.0054 0.0
H490 H 0.45352 0.02958 0.98149 0.0
O491 O 0.51088 0.99975 0.01085 0.0
H492 H 0.44183 0.9543 0.0066 0.0
H493 H 0.41668 0.01374 0.98302 0.0
C494 C 0.50789 0.01247 0.96752 0.0
C495 C 0.53035 0.01588 0.96571 0.0
C496 C 0.54015 0.01603 0.94545 0.0
C497 C 0.52769 0.01235 0.92664 0.0
C498 C 0.50524 0.00845 0.92847 0.0
C499 C 0.49536 0.00873 0.94877 0.0
C500 C 0.49472 0.04059 0.00424 0.0
C501 C 0.48166 0.04471 0.02211 0.0
C502 C 0.48168 0.06529 0.03131 0.0
C503 C 0.49514 0.08205 0.02309 0.0
C504 C 0.50827 0.07789 0.00522 0.0
C505 C 0.50801 0.05734 0.99584 0.0
C506 C 0.46867 0.00128 0.99365 0.0
C507 C 0.46512 0.97997 1.00048 0.0
C508 C 0.4441 0.97082 0.0013 0.0
C509 C 0.42627 0.9828 0.99513 0.0
C510 C 0.43003 0.00402 0.98778 0.0
C511 C 0.45106 0.01314 0.987 0.0
Mn512 Mn 0.25084 0.87026 0.00748 0.0
Mn513 Mn 0.24764 0.8897 0.95683 0.0
C514 C 0.23419 0.84975 0.98029 0.0
C515 C 0.26908 0.85125 0.03387 0.0
C516 C 0.21976 0.90477 0.99372 0.0
O517 O 0.27391 0.89475 0.00745 0.0
O518 O 0.272 0.90484 0.97251 0.0
C519 C 0.28887 0.87447 0.93955 0.0
N520 N 0.26689 0.87491 0.93843 0.0
C521 C 0.26578 0.85191 0.90699 0.0
C522 C 0.28841 0.85132 0.90773 0.0
C523 C 0.3 0.86262 0.92411 0.0
C524 C 0.25558 0.86408 0.92276 0.0
H525 H 0.29784 0.88305 0.95216 0.0
C526 C 0.28056 0.90611 0.99144 0.0
O527 O 0.25484 0.86515 0.03903 0.0
O528 O 0.27316 0.84896 0.01348 0.0
N529 N 0.22489 0.87591 0.93999 0.0
C530 C 0.20307 0.87714 0.94228 0.0
C531 C 0.18912 0.86624 0.92751 0.0
C532 C 0.19773 0.85426 0.91053 0.0
C533 C 0.22023 0.85334 0.90843 0.0
C534 C 0.23334 0.86468 0.92353 0.0
H535 H 0.19636 0.88629 0.95531 0.0
O536 O 0.22955 0.84589 1.00035 0.0
O537 O 0.24803 0.86561 0.97695 0.0
O538 O 0.22676 0.89189 0.00788 0.0
O539 O 0.22685 0.90557 0.97437 0.0
C540 C 0.23016 0.84129 0.8922 0.0
C541 C 0.25291 0.84054 0.8915 0.0
H542 H 0.29704 0.84208 0.89594 0.0
H543 H 0.31746 0.86214 0.92486 0.0
H544 H 0.17177 0.86699 0.92926 0.0
H545 H 0.18691 0.8457 0.8993 0.0
H546 H 0.22043 0.83225 0.88038 0.0
H547 H 0.26034 0.83094 0.87915 0.0
Mn548 Mn 0.13684 0.50519 0.25667 0.0
Mn549 Mn 0.11817 0.55546 0.25466 0.0
C550 C 0.15653 0.53224 0.23924 0.0
C551 C 0.15681 0.47913 0.27388 0.0
C552 C 0.10066 0.5187 0.22622 0.0
O553 O 0.11391 0.50475 0.28022 0.0
O554 O 0.1041 0.53926 0.27878 0.0
C555 C 0.13655 0.57222 0.29602 0.0
N556 N 0.13461 0.57375 0.27416 0.0
C557 C 0.15833 0.60545 0.27358 0.0
C558 C 0.16045 0.60431 0.29611 0.0
C559 C 0.14953 0.5876 0.30737 0.0
C560 C 0.14504 0.58975 0.26316 0.0
H561 H 0.12829 0.55934 0.30473 0.0
C562 C 0.10301 0.52039 0.2871 0.0
O563 O 0.1416 0.47379 0.26004 0.0
O564 O 0.15979 0.49948 0.27827 0.0
N565 N 0.13067 0.57297 0.23225 0.0
C566 C 0.12763 0.57128 0.21046 0.0
C567 C 0.1378 0.58652 0.19682 0.0
C568 C 0.15089 0.6034 0.20569 0.0
C569 C 0.15357 0.60496 0.22817 0.0
C570 C 0.14283 0.58944 0.24098 0.0
H571 H 0.11764 0.55831 0.20353 0.0
O572 O 0.15961 0.51219 0.23474 0.0
O573 O 0.14216 0.53584 0.25391 0.0
O574 O 0.11342 0.50457 0.23307 0.0
O575 O 0.10072 0.53795 0.23361 0.0
C576 C 0.16678 0.62109 0.23833 0.0
C577 C 0.16919 0.62131 0.26102 0.0
H578 H 0.17056 0.61606 0.30491 0.0
H579 H 0.15119 0.58654 0.32474 0.0
H580 H 0.13566 0.5852 0.17949 0.0
H581 H 0.15891 0.61498 0.1951 0.0
H582 H 0.17539 0.63323 0.22883 0.0
H583 H 0.17961 0.63363 0.26862 0.0
Mn584 Mn 0.75346 0.62986 0.00934 0.0
Mn585 Mn 0.70695 0.64127 0.98366 0.0
C586 C 0.72386 0.60575 0.01042 0.0
C587 C 0.78759 0.61502 0.00898 0.0
C588 C 0.72145 0.66211 0.02617 0.0
O589 O 0.76294 0.65414 0.98884 0.0
O590 O 0.73152 0.6582 0.97089 0.0
C591 C 0.71615 0.62292 0.94061 0.0
N592 N 0.70323 0.62381 0.95829 0.0
C593 C 0.67742 0.59807 0.94265 0.0
C594 C 0.6904 0.59696 0.92421 0.0
C595 C 0.70988 0.60939 0.92323 0.0
C596 C 0.68452 0.61184 0.95946 0.0
H597 H 0.73113 0.63246 0.9398 0.0
C598 C 0.75171 0.66274 0.97402 0.0
O599 O 0.78282 0.6297 0.02299 0.0
O600 O 0.77278 0.6095 0.99484 0.0
N601 N 0.68177 0.62587 0.99422 0.0
C602 C 0.67171 0.62795 0.0136 0.0
C603 C 0.65228 0.61613 0.01745 0.0
C604 C 0.64327 0.60251 0.00128 0.0
C605 C 0.65377 0.60084 0.98137 0.0
C606 C 0.67307 0.61305 0.97844 0.0
H607 H 0.6785 0.6385 0.02605 0.0
O608 O 0.739 0.60502 0.02497 0.0
O609 O 0.72655 0.62043 0.99572 0.0
O610 O 0.73856 0.65158 0.02876 0.0
O611 O 0.70898 0.65974 0.00971 0.0
C612 C 0.64605 0.58727 0.96445 0.0
C613 C 0.65791 0.58582 0.94514 0.0
H614 H 0.68565 0.58651 0.91079 0.0
H615 H 0.72003 0.60854 0.90909 0.0
H616 H 0.64426 0.61752 0.03285 0.0
H617 H 0.62835 0.5933 0.00436 0.0
H618 H 0.63119 0.57761 0.96626 0.0
H619 H 0.652 0.57504 0.9324 0.0
Mn620 Mn 0.87167 0.00321 0.25377 0.0
Mn621 Mn 0.88372 0.95145 0.24436 0.0
C622 C 0.84791 0.9804 0.23468 0.0
C623 C 0.85616 0.03068 0.27337 0.0
C624 C 0.90409 0.98878 0.2197 0.0
O625 O 0.89503 0.99834 0.27649 0.0
O626 O 0.90188 0.96382 0.26836 0.0
C627 C 0.86772 0.93291 0.28554 0.0
N628 N 0.86733 0.93321 0.26354 0.0
C629 C 0.84077 0.90378 0.26218 0.0
C630 C 0.84098 0.90308 0.28482 0.0
C631 C 0.85449 0.91773 0.29654 0.0
C632 C 0.85438 0.91919 0.2521 0.0
H633 H 0.87803 0.94417 0.29462 0.0
C634 C 0.90526 0.98112 0.27951 0.0
O635 O 0.87189 0.03454 0.26001 0.0
O636 O 0.85013 0.01063 0.27628 0.0
N637 N 0.86712 0.93748 0.22172 0.0
C638 C 0.86794 0.94108 0.20004 0.0
C639 C 0.85493 0.92816 0.18603 0.0
C640 C 0.84134 0.91161 0.19443 0.0
C641 C 0.84094 0.90808 0.21678 0.0
C642 C 0.85437 0.92137 0.22994 0.0
H643 H 0.87834 0.9538 0.1935 0.0
O644 O 0.84758 0.00108 0.23197 0.0
O645 O 0.86238 0.97369 0.24807 0.0
O646 O 0.89436 0.00331 0.22992 0.0
O647 O 0.90112 0.9687 0.22348 0.0
C648 C 0.8274 0.89219 0.22656 0.0
C649 C 0.82729 0.89007 0.24924 0.0
H650 H 0.83072 0.89147 0.29338 0.0
H651 H 0.85467 0.91735 0.31402 0.0
H652 H 0.85532 0.931 0.1688 0.0
H653 H 0.83117 0.90183 0.18359 0.0
H654 H 0.81676 0.88174 0.21681 0.0
H655 H 0.81657 0.87801 0.25659 0.0
Mn656 Mn 0.2533 0.12867 0.50673 0.0
Mn657 Mn 0.20652 0.14034 0.48162 0.0
C658 C 0.22385 0.10437 0.50737 0.0
C659 C 0.28746 0.11394 0.50625 0.0
C660 C 0.22067 0.15988 0.52473 0.0
O661 O 0.26271 0.1534 0.48675 0.0
O662 O 0.23086 0.15848 0.47002 0.0
C663 C 0.21676 0.12426 0.43791 0.0
N664 N 0.20354 0.12404 0.45543 0.0
C665 C 0.17864 0.09836 0.43833 0.0
C666 C 0.19193 0.0984 0.42006 0.0
C667 C 0.21111 0.11135 0.41988 0.0
C668 C 0.18513 0.11154 0.45582 0.0
H669 H 0.23151 0.13421 0.43773 0.0
C670 C 0.2511 0.16292 0.47288 0.0
O671 O 0.28255 0.1283 0.52053 0.0
O672 O 0.2728 0.10873 0.49185 0.0
N673 N 0.18147 0.12397 0.49108 0.0
C674 C 0.17094 0.12512 0.5103 0.0
C675 C 0.15165 0.11278 0.5133 0.0
C676 C 0.14326 0.09962 0.49645 0.0
C677 C 0.15421 0.09897 0.47671 0.0
C678 C 0.17332 0.11167 0.47463 0.0
H679 H 0.17725 0.13529 0.52327 0.0
O680 O 0.239 0.10349 0.5219 0.0
O681 O 0.2264 0.11932 0.49292 0.0
O682 O 0.23826 0.14996 0.5266 0.0
O683 O 0.20788 0.15749 0.50853 0.0
C684 C 0.14712 0.08592 0.45914 0.0
C685 C 0.15938 0.08555 0.44 0.0
H686 H 0.18764 0.08844 0.40614 0.0
H687 H 0.22149 0.1114 0.40588 0.0
H688 H 0.14328 0.1134 0.52858 0.0
H689 H 0.12848 0.09 0.49889 0.0
H690 H 0.13245 0.07586 0.46031 0.0
H691 H 0.15394 0.0752 0.42674 0.0
Mn692 Mn 0.36995 0.50236 0.75686 0.0
Mn693 Mn 0.384 0.45087 0.74973 0.0
C694 C 0.34824 0.47866 0.73643 0.0
C695 C 0.35218 0.52888 0.77569 0.0
C696 C 0.40573 0.48873 0.72641 0.0
O697 O 0.39215 0.49839 0.78097 0.0
O698 O 0.39843 0.46313 0.77612 0.0
C699 C 0.3627 0.43149 0.78813 0.0
N700 N 0.36546 0.43203 0.76632 0.0
C701 C 0.33972 0.40228 0.76112 0.0
C702 C 0.33683 0.40124 0.78355 0.0
C703 C 0.34832 0.41595 0.79709 0.0
C704 C 0.35439 0.41802 0.75312 0.0
H705 H 0.37132 0.44291 0.79859 0.0
C706 C 0.40104 0.48101 0.78649 0.0
O707 O 0.36846 0.53368 0.76324 0.0
O708 O 0.34688 0.50859 0.77802 0.0
N709 N 0.37074 0.43712 0.72495 0.0
C710 C 0.37423 0.44126 0.70363 0.0
C711 C 0.3633 0.42851 0.68789 0.0
C712 C 0.34897 0.4116 0.69421 0.0
C713 C 0.34575 0.40755 0.71625 0.0
C714 C 0.35725 0.42067 0.73121 0.0
H715 H 0.38519 0.45426 0.69865 0.0
O716 O 0.3472 0.49928 0.73365 0.0
O717 O 0.36204 0.47265 0.75084 0.0
O718 O 0.39393 0.50306 0.73437 0.0
O719 O 0.40376 0.46882 0.73145 0.0
C720 C 0.33125 0.3913 0.72395 0.0
C721 C 0.32822 0.38869 0.74637 0.0
H722 H 0.32562 0.38938 0.79051 0.0
H723 H 0.34602 0.41538 0.8144 0.0
H724 H 0.36583 0.43176 0.67091 0.0
H725 H 0.34039 0.40195 0.68203 0.0
H726 H 0.32207 0.38097 0.71276 0.0
H727 H 0.31674 0.37639 0.75208 0.0
Mn728 Mn 0.74845 0.36932 0.51151 0.0
Mn729 Mn 0.74276 0.38565 0.46004 0.0
C730 C 0.72986 0.34749 0.48658 0.0
C731 C 0.76811 0.35147 0.53767 0.0
C732 C 0.71775 0.40387 0.49764 0.0
O733 O 0.77168 0.39356 0.50874 0.0
O734 O 0.76893 0.40029 0.47301 0.0
C735 C 0.78161 0.36707 0.44082 0.0
N736 N 0.75973 0.36877 0.44118 0.0
C737 C 0.75505 0.34421 0.41113 0.0
C738 C 0.77755 0.34237 0.41032 0.0
C739 C 0.79087 0.35381 0.42527 0.0
C740 C 0.74674 0.35777 0.42692 0.0
H741 H 0.7919 0.37568 0.45239 0.0
C742 C 0.77827 0.40292 0.49147 0.0
O743 O 0.75434 0.36577 0.54303 0.0
O744 O 0.77095 0.34818 0.5172 0.0
N745 N 0.71818 0.37207 0.44577 0.0
C746 C 0.69675 0.37441 0.44969 0.0
C747 C 0.68121 0.36343 0.43662 0.0
C748 C 0.68785 0.35022 0.41963 0.0
C749 C 0.71 0.34811 0.41585 0.0
C750 C 0.72474 0.35957 0.42931 0.0
H751 H 0.69153 0.38453 0.46273 0.0
O752 O 0.72653 0.34483 0.50708 0.0
O753 O 0.74366 0.36289 0.48155 0.0
O754 O 0.72464 0.39119 0.51203 0.0
O755 O 0.72421 0.40371 0.47805 0.0
C756 C 0.718 0.33471 0.39956 0.0
C757 C 0.74051 0.33273 0.39724 0.0
H758 H 0.78475 0.33204 0.39845 0.0
H759 H 0.80824 0.35234 0.42485 0.0
H760 H 0.66415 0.36508 0.43968 0.0
H761 H 0.67582 0.34161 0.40971 0.0
H762 H 0.70699 0.32555 0.389 0.0
H763 H 0.74645 0.32206 0.38492 0.0
Mn764 Mn 0.639 0.00523 0.75532 0.0
Mn765 Mn 0.6245 0.05699 0.75325 0.0
C766 C 0.66073 0.03074 0.73778 0.0
C767 C 0.65708 0.97804 0.77289 0.0
C768 C 0.60412 0.02142 0.72489 0.0
O769 O 0.61608 0.00658 0.77881 0.0
O770 O 0.60958 0.042 0.77762 0.0
C771 C 0.64445 0.07257 0.79437 0.0
N772 N 0.64231 0.07422 0.77253 0.0
C773 C 0.66764 0.10468 0.77168 0.0
C774 C 0.66995 0.10343 0.79418 0.0
C775 C 0.65834 0.08727 0.80556 0.0
C776 C 0.65346 0.08967 0.76141 0.0
H777 H 0.63568 0.06009 0.80317 0.0
C778 C 0.60688 0.02322 0.78593 0.0
O779 O 0.64166 0.97348 0.75904 0.0
O780 O 0.66132 0.99825 0.77705 0.0
N781 N 0.63804 0.0735 0.73065 0.0
C782 C 0.63497 0.07174 0.70888 0.0
C783 C 0.64592 0.08632 0.6951 0.0
C784 C 0.65982 0.10263 0.70384 0.0
C785 C 0.66257 0.10426 0.7263 0.0
C786 C 0.65108 0.08938 0.73924 0.0
H787 H 0.6244 0.05919 0.70205 0.0
O788 O 0.66223 0.01043 0.73338 0.0
O789 O 0.64671 0.03549 0.75241 0.0
O790 O 0.61562 0.00621 0.73169 0.0
O791 O 0.60578 0.04065 0.73237 0.0
C792 C 0.67662 0.11977 0.73632 0.0
C793 C 0.67918 0.11996 0.75899 0.0
H794 H 0.68075 0.11466 0.80286 0.0
H795 H 0.66016 0.08611 0.82291 0.0
H796 H 0.64374 0.08493 0.67778 0.0
H797 H 0.66843 0.1137 0.69314 0.0
H798 H 0.6858 0.13142 0.72672 0.0
H799 H 0.69028 0.13177 0.76648 0.0
Mn800 Mn 0.00219 0.25684 0.87626 0.0
Mn801 Mn 0.95152 0.24848 0.89522 0.0
C802 C 0.97679 0.23638 0.85661 0.0
C803 C 0.0276 0.27645 0.85578 0.0
C804 C 0.99024 0.22534 0.91254 0.0
O805 O 1.00003 0.28052 0.89907 0.0
O806 O 0.96527 0.27461 0.90914 0.0
C807 C 0.93145 0.28707 0.87734 0.0
N808 N 0.93192 0.26524 0.87905 0.0
C809 C 0.90095 0.26031 0.85551 0.0
C810 C 0.90005 0.28274 0.85363 0.0
C811 C 0.91539 0.29617 0.86457 0.0
C812 C 0.91721 0.25217 0.86862 0.0
H813 H 0.94329 0.29746 0.88559 0.0
C814 C 0.98341 0.28544 0.90996 0.0
O815 O 0.03353 0.26389 0.87125 0.0
O816 O 0.00697 0.27846 0.85305 0.0
N817 N 0.93647 0.22392 0.88254 0.0
C818 C 0.94042 0.20264 0.88492 0.0
C819 C 0.92697 0.18707 0.87439 0.0
C820 C 0.90959 0.19352 0.86156 0.0
C821 C 0.90578 0.2155 0.85945 0.0
C822 C 0.91959 0.23029 0.8705 0.0
H823 H 0.95381 0.19759 0.89466 0.0
O824 O 0.99729 0.234 0.85357 0.0
O825 O 0.97188 0.25042 0.87119 0.0
O826 O 0.0041 0.23395 0.89973 0.0
O827 O 0.97031 0.23002 0.91255 0.0
C828 C 0.88908 0.22333 0.84645 0.0
C829 C 0.88667 0.24572 0.84448 0.0
H830 H 0.8878 0.28982 0.84365 0.0
H831 H 0.91488 0.31349 0.8631 0.0
H832 H 0.93005 0.17014 0.87605 0.0
H833 H 0.8994 0.18147 0.85327 0.0
H834 H 0.8782 0.21228 0.83765 0.0
H835 H 0.87396 0.25155 0.83419 0.0
Mn836 Mn 0.50296 0.75608 0.37984 0.0
Mn837 Mn 0.45321 0.74807 0.40118 0.0
C838 C 0.47637 0.73632 0.3611 0.0
C839 C 0.52782 0.77558 0.35863 0.0
C840 C 0.49229 0.72409 0.41613 0.0
O841 O 0.50222 0.77953 0.40297 0.0
O842 O 0.46818 0.7736 0.41518 0.0
C843 C 0.43308 0.78757 0.38556 0.0
N844 N 0.43319 0.76568 0.38657 0.0
C845 C 0.40097 0.76201 0.3646 0.0
C846 C 0.40044 0.78452 0.36344 0.0
C847 C 0.41658 0.79734 0.37396 0.0
C848 C 0.41769 0.75318 0.37658 0.0
H849 H 0.44551 0.79751 0.3935 0.0
C850 C 0.4864 0.7843 0.41508 0.0
O851 O 0.53411 0.76264 0.37361 0.0
O852 O 0.50715 0.77795 0.35671 0.0
N853 N 0.43705 0.72416 0.38858 0.0
C854 C 0.44072 0.70274 0.39004 0.0
C855 C 0.42646 0.68772 0.37973 0.0
C856 C 0.40858 0.69486 0.36809 0.0
C857 C 0.40508 0.71698 0.3669 0.0
C858 C 0.41971 0.73119 0.37768 0.0
H859 H 0.45451 0.69715 0.39884 0.0
O860 O 0.49665 0.73359 0.35713 0.0
O861 O 0.47234 0.75023 0.37612 0.0
O862 O 0.50565 0.73295 0.40298 0.0
O863 O 0.47239 0.72875 0.417 0.0
C864 C 0.38792 0.7255 0.35506 0.0
C865 C 0.38586 0.748 0.35391 0.0
H866 H 0.38785 0.79212 0.35436 0.0
H867 H 0.41635 0.81472 0.37304 0.0
H868 H 0.42932 0.67068 0.38066 0.0
H869 H 0.39776 0.68324 0.35996 0.0
H870 H 0.37639 0.71491 0.3465 0.0
H871 H 0.37278 0.75437 0.34449 0.0
Mn872 Mn 0.99498 0.74837 0.63113 0.0
Mn873 Mn 0.97303 0.70129 0.64973 0.0
C874 C 0.99784 0.71723 0.61095 0.0
C875 C 0.99255 0.78085 0.61273 0.0
C876 C 0.01521 0.72158 0.66669 0.0
O877 O 0.97457 0.75796 0.65477 0.0
O878 O 0.95913 0.72586 0.66391 0.0
C879 C 0.92885 0.70443 0.63164 0.0
N880 N 0.94737 0.69348 0.63369 0.0
C881 C 0.93258 0.66407 0.61203 0.0
C882 C 0.91329 0.67497 0.60978 0.0
C883 C 0.91145 0.69528 0.61957 0.0
C884 C 0.94936 0.67401 0.62423 0.0
H885 H 0.92738 0.72003 0.63916 0.0
C886 C 0.96093 0.74642 0.66552 0.0
O887 O 0.00702 0.77826 0.62766 0.0
O888 O 0.97903 0.7647 0.60884 0.0
N889 N 0.98471 0.67598 0.63744 0.0
C890 C 0.00473 0.66804 0.64037 0.0
C891 C 0.0094 0.64804 0.63121 0.0
C892 C 0.99337 0.63629 0.6194 0.0
C893 C 0.9728 0.64465 0.61687 0.0
C894 C 0.96907 0.66463 0.62642 0.0
H895 H 0.01707 0.67692 0.64955 0.0
O896 O 0.01104 0.73369 0.6078 0.0
O897 O 0.98304 0.71957 0.62554 0.0
O898 O 0.01601 0.73746 0.65375 0.0
O899 O 0.99956 0.70753 0.66711 0.0
C900 C 0.95596 0.63411 0.60495 0.0
C901 C 0.93591 0.64386 0.60244 0.0
H902 H 0.89985 0.66798 0.60047 0.0
H903 H 0.89665 0.70383 0.61783 0.0
H904 H 0.02531 0.6417 0.63324 0.0
H905 H 0.99709 0.62095 0.61221 0.0
H906 H 0.95838 0.61864 0.59737 0.0
H907 H 0.92321 0.63575 0.59295 0.0
Mn908 Mn 0.49806 0.2469 0.13348 0.0
Mn909 Mn 0.47591 0.19956 0.15121 0.0
C910 C 0.50117 0.21594 0.11309 0.0
C911 C 0.49633 0.27937 0.11495 0.0
C912 C 0.51806 0.21926 0.16875 0.0
O913 O 0.47716 0.25645 0.15654 0.0
O914 O 0.46287 0.2241 0.16646 0.0
C915 C 0.43159 0.20445 0.13406 0.0
N916 N 0.4498 0.19293 0.13542 0.0
C917 C 0.43396 0.16474 0.11284 0.0
C918 C 0.41498 0.17624 0.11131 0.0
C919 C 0.41382 0.19622 0.12191 0.0
C920 C 0.45114 0.17376 0.12518 0.0
H921 H 0.43063 0.21981 0.14218 0.0
C922 C 0.46418 0.24472 0.16784 0.0
O923 O 0.51034 0.27677 0.13031 0.0
O924 O 0.48282 0.26329 0.11077 0.0
N925 N 0.48663 0.17426 0.13794 0.0
C926 C 0.5064 0.16561 0.14033 0.0
C927 C 0.51036 0.14579 0.13041 0.0
C928 C 0.4939 0.13494 0.11836 0.0
C929 C 0.4736 0.144 0.11639 0.0
C930 C 0.47056 0.16374 0.12673 0.0
H931 H 0.5191 0.17384 0.14961 0.0
O932 O 0.51468 0.23225 0.11055 0.0
O933 O 0.48607 0.21821 0.12738 0.0
O934 O 0.51831 0.23593 0.15683 0.0
O935 O 0.50295 0.20461 0.16807 0.0
C936 C 0.45637 0.1344 0.10427 0.0
C937 C 0.43661 0.14481 0.1024 0.0
H938 H 0.40125 0.16997 0.10192 0.0
H939 H 0.39926 0.20523 0.12072 0.0
H940 H 0.52608 0.13891 0.132 0.0
H941 H 0.49708 0.11976 0.11056 0.0
H942 H 0.45827 0.11916 0.09605 0.0
H943 H 0.4236 0.13742 0.09277 0.0
H944 H 0.18366 0.76553 0.87843 0.0
H945 H 0.26496 0.82965 0.95867 0.0
H946 H 0.25277 0.75843 0.87991 0.0
H947 H 0.19578 0.83057 0.96588 0.0
H948 H 0.26019 0.8024 0.93044 0.0
H949 H 0.18694 0.7883 0.91091 0.0
C950 C 0.19947 0.76854 0.88573 0.0
C951 C 0.21801 0.76023 0.87632 0.0
C952 C 0.24597 0.80838 0.93817 0.0
C953 C 0.22186 0.78627 0.91331 0.0
C954 C 0.24871 0.82403 0.95419 0.0
C955 C 0.23069 0.83271 0.96398 0.0
C956 C 0.22499 0.80137 0.93182 0.0
C957 C 0.21001 0.82449 0.95824 0.0
C958 C 0.20133 0.78157 0.90421 0.0
C959 C 0.2381 0.76481 0.88633 0.0
N960 N 0.20765 0.80945 0.94219 0.0
N961 N 0.23948 0.77758 0.90416 0.0
H962 H 0.01944 0.54215 0.39577 0.0
H963 H 0.1 0.48538 0.31429 0.0
H964 H 0.04821 0.48146 0.40902 0.0
H965 H 0.07438 0.5482 0.30416 0.0
H966 H 0.07886 0.48205 0.34751 0.0
H967 H 0.03708 0.54297 0.36061 0.0
C968 C 0.02929 0.52888 0.39121 0.0
C969 C 0.03238 0.51175 0.40545 0.0
C970 C 0.0778 0.4965 0.33793 0.0
C971 C 0.05291 0.5127 0.3652 0.0
C972 C 0.08981 0.49839 0.3189 0.0
C973 C 0.08911 0.51716 0.30639 0.0
C974 C 0.06493 0.51345 0.34447 0.0
C975 C 0.07561 0.53348 0.31327 0.0
C976 C 0.03949 0.52942 0.37116 0.0
C977 C 0.04562 0.49515 0.39872 0.0
N978 N 0.06416 0.53127 0.33183 0.0
N979 N 0.05543 0.49607 0.37912 0.0
H980 H 0.77347 0.75525 0.87238 0.0
H981 H 0.79112 0.68496 0.97887 0.0
H982 H 0.8268 0.76764 0.91667 0.0
H983 H 0.73575 0.67787 0.93612 0.0
H984 H 0.80614 0.71353 0.95538 0.0
H985 H 0.76105 0.72508 0.89466 0.0
C986 C 0.78268 0.75153 0.88672 0.0
C987 C 0.80123 0.76401 0.89262 0.0
C988 C 0.79074 0.70563 0.95118 0.0
C989 C 0.78692 0.72949 0.9185 0.0
C990 C 0.7822 0.68928 0.96453 0.0
C991 C 0.76205 0.67909 0.9596 0.0
C992 C 0.77909 0.71169 0.93274 0.0
C993 C 0.75121 0.68537 0.94078 0.0
C994 C 0.77551 0.73434 0.89955 0.0
C995 C 0.81228 0.7586 0.91164 0.0
N996 N 0.75984 0.70123 0.92813 0.0
N997 N 0.80495 0.74173 0.92391 0.0
H998 H 0.97704 0.9926 0.40095 0.0
H999 H 0.93716 0.95257 0.28378 0.0
H1000 H 0.00744 0.94393 0.36308 0.0
H1001 H 0.9109 0.00787 0.31516 0.0
H1002 H 0.96273 0.94954 0.31335 0.0
H1003 H 0.95219 0.99859 0.3706 0.0
C1004 C 0.9785 0.9832 0.38628 0.0
C1005 C 0.99443 0.96781 0.38453 0.0
C1006 C 0.95149 0.96243 0.31382 0.0
C1007 C 0.96618 0.97459 0.34985 0.0
C1008 C 0.93679 0.96416 0.2969 0.0
C1009 C 0.92173 0.98046 0.29698 0.0
C1010 C 0.95117 0.97696 0.33124 0.0
C1011 C 0.92225 0.99509 0.3144 0.0
C1012 C 0.96441 0.98672 0.36895 0.0
C1013 C 0.99569 0.9562 0.3651 0.0
N1014 N 0.93664 0.9929 0.33096 0.0
N1015 N 0.98175 0.95979 0.34863 0.0
H1016 H 0.22 0.25008 0.63296 0.0
H1017 H 0.1831 0.18132 0.52822 0.0
H1018 H 0.1612 0.25909 0.59681 0.0
H1019 H 0.24454 0.17389 0.56036 0.0
H1020 H 0.17403 0.20804 0.55509 0.0
H1021 H 0.2284 0.22038 0.6085 0.0
C1022 C 0.20879 0.24571 0.61999 0.0
C1023 C 0.18995 0.25721 0.61681 0.0
C1024 C 0.18949 0.20057 0.55635 0.0
C1025 C 0.19949 0.22337 0.58877 0.0
C1026 C 0.19472 0.18524 0.54095 0.0
C1027 C 0.21473 0.17536 0.54185 0.0
C1028 C 0.20432 0.20622 0.57289 0.0
C1029 C 0.22896 0.1811 0.55895 0.0
C1030 C 0.21364 0.22884 0.60598 0.0
C1031 C 0.17608 0.25095 0.59966 0.0
N1032 N 0.22353 0.19623 0.57374 0.0
N1033 N 0.18115 0.23453 0.58631 0.0
H1034 H 0.48658 0.56278 0.63784 0.0
H1035 H 0.4335 0.46352 0.70385 0.0
H1036 H 0.50591 0.49724 0.63003 0.0
H1037 H 0.41546 0.52953 0.71167 0.0
H1038 H 0.45991 0.47528 0.67666 0.0
H1039 H 0.45997 0.55056 0.66446 0.0
C1040 C 0.48511 0.54577 0.64156 0.0
C1041 C 0.49851 0.53102 0.63158 0.0
C1042 C 0.45017 0.48718 0.68436 0.0
C1043 C 0.46817 0.51691 0.66243 0.0
C1044 C 0.43509 0.48048 0.69993 0.0
C1045 C 0.42218 0.49553 0.71017 0.0
C1046 C 0.45239 0.50909 0.67893 0.0
C1047 C 0.42499 0.51729 0.70429 0.0
C1048 C 0.46999 0.53881 0.65692 0.0
C1049 C 0.4961 0.50923 0.63745 0.0
N1050 N 0.43974 0.52337 0.6891 0.0
N1051 N 0.48124 0.50283 0.65247 0.0
H1052 H 0.84136 0.25262 0.59753 0.0
H1053 H 0.7582 0.34662 0.58058 0.0
H1054 H 0.78793 0.26305 0.64037 0.0
H1055 H 0.80176 0.32519 0.5315 0.0
H1056 H 0.77291 0.32037 0.60561 0.0
H1057 H 0.83072 0.28321 0.57596 0.0
C1058 C 0.82735 0.2613 0.6024 0.0
C1059 C 0.81535 0.255 0.62066 0.0
C1060 C 0.77937 0.32159 0.58942 0.0
C1061 C 0.80328 0.29039 0.59614 0.0
C1062 C 0.77108 0.33664 0.57518 0.0
C1063 C 0.77868 0.33797 0.55389 0.0
C1064 C 0.79547 0.30794 0.58233 0.0
C1065 C 0.79532 0.3246 0.54772 0.0
C1066 C 0.82137 0.27887 0.59013 0.0
C1067 C 0.79772 0.26733 0.62649 0.0
N1068 N 0.80308 0.3101 0.56183 0.0
N1069 N 0.79214 0.28435 0.61419 0.0
H1070 H 0.5405 0.03702 0.60286 0.0
H1071 H 0.59188 0.98248 0.70581 0.0
H1072 H 0.52602 0.97034 0.61805 0.0
H1073 H 0.58247 0.05083 0.7012 0.0
H1074 H 0.56991 0.97685 0.67294 0.0
H1075 H 0.55862 0.04171 0.63788 0.0
C1076 C 0.54118 0.02336 0.61362 0.0
C1077 C 0.53186 0.00325 0.60757 0.0
C1078 C 0.57255 0.99303 0.67931 0.0
C1079 C 0.55264 0.00844 0.64765 0.0
C1080 C 0.5851 0.99628 0.69804 0.0
C1081 C 0.58921 0.01719 0.70629 0.0
C1082 C 0.56436 0.01084 0.66857 0.0
C1083 C 0.57989 0.03442 0.69551 0.0
C1084 C 0.55139 0.02606 0.63364 0.0
C1085 C 0.53297 0.98612 0.62219 0.0
N1086 N 0.56815 0.03087 0.67713 0.0
N1087 N 0.54339 0.98903 0.64152 0.0
H1088 H 0.90273 0.16551 0.75811 0.0
H1089 H 0.94984 0.26118 0.83431 0.0
H1090 H 0.88661 0.23209 0.75151 0.0
H1091 H 0.96968 0.19579 0.83981 0.0
H1092 H 0.92492 0.25009 0.80523 0.0
H1093 H 0.92537 0.17542 0.78953 0.0
C1094 C 0.90381 0.18218 0.76337 0.0
C1095 C 0.89286 0.19803 0.75207 0.0
C1096 C 0.93456 0.23805 0.81282 0.0
C1097 C 0.91888 0.20948 0.78785 0.0
C1098 C 0.94864 0.24437 0.82952 0.0
C1099 C 0.96119 0.22919 0.83981 0.0
C1100 C 0.93327 0.21641 0.80609 0.0
C1101 C 0.95984 0.20781 0.83247 0.0
C1102 C 0.91683 0.18783 0.78122 0.0
C1103 C 0.89503 0.2194 0.75949 0.0
N1104 N 0.94598 0.20198 0.81609 0.0
N1105 N 0.90779 0.22448 0.77686 0.0
H1106 H 0.45628 0.89518 0.49263 0.0
H1107 H 0.5206 0.81411 0.41793 0.0
H1108 H 0.5206 0.9094 0.46848 0.0
H1109 H 0.45668 0.79988 0.44322 0.0
H1110 H 0.52189 0.84812 0.43807 0.0
H1111 H 0.45712 0.85929 0.47643 0.0
C1112 C 0.47067 0.89072 0.4841 0.0
C1113 C 0.48834 0.90545 0.48184 0.0
C1114 C 0.50765 0.83747 0.43931 0.0
C1115 C 0.48932 0.86435 0.46296 0.0
C1116 C 0.50692 0.81798 0.42785 0.0
C1117 C 0.48846 0.80405 0.42873 0.0
C1118 C 0.48979 0.84313 0.45175 0.0
C1119 C 0.47124 0.81005 0.4419 0.0
C1120 C 0.47109 0.87023 0.47473 0.0
C1121 C 0.50643 0.89877 0.47032 0.0
N1122 N 0.47229 0.82915 0.45275 0.0
N1123 N 0.50641 0.87877 0.46126 0.0
H1124 H 0.08357 0.31284 0.73449 0.0
H1125 H 0.07198 0.27547 0.8569 0.0
H1126 H 0.13889 0.30827 0.77679 0.0
H1127 H 0.019 0.29833 0.81881 0.0
H1128 H 0.09702 0.28672 0.82812 0.0
H1129 H 0.05973 0.30611 0.76522 0.0
C1130 C 0.09069 0.31031 0.75027 0.0
C1131 C 0.11323 0.31095 0.75307 0.0
C1132 C 0.07994 0.28949 0.82621 0.0
C1133 C 0.08602 0.30335 0.78843 0.0
C1134 C 0.06565 0.28312 0.84264 0.0
C1135 C 0.04335 0.28587 0.84021 0.0
C1136 C 0.0718 0.29839 0.80715 0.0
C1137 C 0.03605 0.29584 0.82138 0.0
C1138 C 0.07708 0.30666 0.76785 0.0
C1139 C 0.12158 0.30795 0.77395 0.0
N1140 N 0.05019 0.3015 0.8055 0.0
N1141 N 0.10797 0.30409 0.79083 0.0
H1142 H 0.50277 0.61756 0.50554 0.0
H1143 H 0.53422 0.71321 0.42372 0.0
H1144 H 0.56817 0.64222 0.49549 0.0
H1145 H 0.46843 0.69648 0.44216 0.0
H1146 H 0.54687 0.68537 0.44784 0.0
H1147 H 0.48985 0.64423 0.48 0.0
C1148 C 0.51443 0.62846 0.49782 0.0
C1149 C 0.53658 0.62771 0.50273 0.0
C1150 C 0.52966 0.6878 0.44663 0.0
C1151 C 0.5219 0.65835 0.4736 0.0
C1152 C 0.5224 0.7037 0.43282 0.0
C1153 C 0.5002 0.70731 0.4309 0.0
C1154 C 0.51465 0.67523 0.45857 0.0
C1155 C 0.4857 0.69441 0.44316 0.0
C1156 C 0.50703 0.64378 0.48337 0.0
C1157 C 0.55093 0.64239 0.49241 0.0
N1158 N 0.49318 0.67893 0.45642 0.0
N1159 N 0.54335 0.65708 0.47836 0.0
H1160 H 0.89292 0.83593 0.7472 0.0
H1161 H 0.93009 0.72717 0.69122 0.0
H1162 H 0.8748 0.77192 0.7691 0.0
H1163 H 0.95835 0.78977 0.67508 0.0
H1164 H 0.90704 0.74411 0.71731 0.0
H1165 H 0.9142 0.82008 0.71822 0.0
C1166 C 0.89329 0.81856 0.7458 0.0
C1167 C 0.88222 0.8052 0.76066 0.0
C1168 C 0.91825 0.7542 0.70808 0.0
C1169 C 0.90646 0.78703 0.7277 0.0
C1170 C 0.93149 0.74452 0.6931 0.0
C1171 C 0.9464 0.75701 0.68095 0.0
C1172 C 0.91976 0.77661 0.71106 0.0
C1173 C 0.94721 0.77946 0.68414 0.0
C1174 C 0.90552 0.80954 0.72936 0.0
C1175 C 0.88334 0.78282 0.7582 0.0
N1176 N 0.9341 0.78855 0.69893 0.0
N1177 N 0.89523 0.77448 0.74209 0.0
H1178 H 0.03505 0.89885 0.55097 0.0
H1179 H 0.96779 0.78933 0.57707 0.0
H1180 H 0.98873 0.8684 0.50685 0.0
H1181 H 0.01784 0.81757 0.6185 0.0
H1182 H 0.97143 0.82076 0.55347 0.0
H1183 H 0.02493 0.87206 0.57819 0.0
C1184 C 0.02247 0.88676 0.54711 0.0
C1185 C 0.01287 0.88579 0.52649 0.0
C1186 C 0.98147 0.82017 0.56784 0.0
C1187 C 0.00145 0.85476 0.55753 0.0
C1188 C 0.97935 0.80226 0.58135 0.0
C1189 C 0.99267 0.80074 0.59967 0.0
C1190 C 0.997 0.83668 0.5727 0.0
C1191 C 0.00736 0.81798 0.60444 0.0
C1192 C 0.01682 0.87134 0.56262 0.0
C1193 C 0.99685 0.86954 0.52238 0.0
N1194 N 0.00923 0.83513 0.59097 0.0
N1195 N 0.99177 0.85458 0.53769 0.0
H1196 H 0.14344 0.70313 0.71633 0.0
H1197 H 0.01552 0.70223 0.70642 0.0
H1198 H 0.10395 0.70746 0.77322 0.0
H1199 H 0.05736 0.73426 0.66003 0.0
H1200 H 0.04716 0.69712 0.72984 0.0
H1201 H 0.11114 0.70709 0.69377 0.0
C1202 C 0.12788 0.70465 0.72403 0.0
C1203 C 0.12624 0.70493 0.7466 0.0
C1204 C 0.04929 0.70531 0.71454 0.0
C1205 C 0.08939 0.70938 0.721 0.0
C1206 C 0.03134 0.70817 0.70118 0.0
C1207 C 0.03384 0.71878 0.68132 0.0
C1208 C 0.06989 0.71259 0.70768 0.0
C1209 C 0.05468 0.72618 0.67529 0.0
C1210 C 0.10956 0.70707 0.71119 0.0
C1211 C 0.1058 0.70721 0.75584 0.0
N1212 N 0.07194 0.72276 0.68833 0.0
N1213 N 0.08806 0.70922 0.74297 0.0
H1214 H 0.95984 0.60379 0.53814 0.0
H1215 H 0.03229 0.69377 0.59988 0.0
H1216 H 0.02954 0.6067 0.53516 0.0
H1217 H 0.96424 0.69974 0.5874 0.0
H1218 H 0.03195 0.66191 0.5762 0.0
H1219 H 0.96108 0.63885 0.55639 0.0
C1220 C 0.9754 0.61187 0.54132 0.0
C1221 C 0.99462 0.60236 0.53523 0.0
C1222 C 0.0171 0.67022 0.57856 0.0
C1223 C 0.99622 0.6423 0.55634 0.0
C1224 C 0.0173 0.68829 0.5921 0.0
C1225 C 0.99805 0.6986 0.59625 0.0
C1226 C 0.99753 0.66268 0.56897 0.0
C1227 C 0.97918 0.69151 0.58529 0.0
C1228 C 0.97612 0.6319 0.55165 0.0
C1229 C 0.01436 0.61357 0.53953 0.0
N1230 N 0.97929 0.67377 0.57236 0.0
N1231 N 0.01467 0.63286 0.55006 0.0
H1232 H 0.73919 0.91499 0.16904 0.0
H1233 H 0.824 0.95381 0.26021 0.0
H1234 H 0.75134 0.87905 0.22713 0.0
H1235 H 0.82845 0.97679 0.19479 0.0
H1236 H 0.79356 0.92965 0.24956 0.0
H1237 H 0.76903 0.9403 0.17894 0.0
C1238 C 0.74818 0.91227 0.18377 0.0
C1239 C 0.74259 0.89481 0.1973 0.0
C1240 C 0.80121 0.93987 0.23747 0.0
C1241 C 0.77639 0.9241 0.20892 0.0
C1242 C 0.8186 0.95357 0.24351 0.0
C1243 C 0.82918 0.96652 0.2281 0.0
C1244 C 0.79411 0.93941 0.21588 0.0
C1245 C 0.82098 0.96652 0.20695 0.0
C1246 C 0.76512 0.92683 0.18945 0.0
C1247 C 0.75467 0.89245 0.21639 0.0
N1248 N 0.80398 0.95294 0.20135 0.0
N1249 N 0.77089 0.90696 0.22165 0.0
H1250 H 0.75353 0.11085 0.31825 0.0
H1251 H 0.86651 0.07367 0.2712 0.0
H1252 H 0.79821 0.15135 0.28166 0.0
H1253 H 0.81784 0.02855 0.29575 0.0
H1254 H 0.84368 0.10321 0.28076 0.0
H1255 H 0.77835 0.08122 0.31478 0.0
C1256 C 0.7685 0.11356 0.30951 0.0
C1257 C 0.77375 0.13375 0.30032 0.0
C1258 C 0.83801 0.08688 0.28425 0.0
C1259 C 0.80233 0.10003 0.29663 0.0
C1260 C 0.85112 0.06997 0.27888 0.0
C1261 C 0.84399 0.04858 0.28249 0.0
C1262 C 0.81753 0.08244 0.29324 0.0
C1263 C 0.82393 0.04481 0.29262 0.0
C1264 C 0.78271 0.09668 0.30767 0.0
C1265 C 0.79356 0.13632 0.28943 0.0
N1266 N 0.81127 0.06159 0.29746 0.0
N1267 N 0.80703 0.11971 0.28791 0.0
H1268 H 0.40843 0.95705 0.02686 0.0
H1269 H 0.29608 0.93711 0.96373 0.0
H1270 H 0.39305 0.98653 0.96597 0.0
H1271 H 0.31017 0.90753 0.02494 0.0
H1272 H 0.33054 0.9574 0.9659 0.0
H1273 H 0.3719 0.9404 0.02771 0.0
C1274 C 0.3974 0.95999 0.01364 0.0
C1275 C 0.4039 0.97313 0.99625 0.0
C1276 C 0.32607 0.94661 0.97896 0.0
C1277 C 0.36195 0.95429 0.99725 0.0
C1278 C 0.30633 0.935 0.97776 0.0
C1279 C 0.30022 0.92042 0.99411 0.0
C1280 C 0.34001 0.94359 0.99658 0.0
C1281 C 0.31418 0.91855 0.01195 0.0
C1282 C 0.37649 0.9506 0.01422 0.0
C1283 C 0.38874 0.97669 0.9798 0.0
N1284 N 0.33352 0.92985 0.0126 0.0
N1285 N 0.36856 0.96724 0.98066 0.0
H1286 H 0.24144 0.37245 0.28577 0.0
H1287 H 0.18682 0.48507 0.30614 0.0
H1288 H 0.26063 0.41657 0.33715 0.0
H1289 H 0.16048 0.43691 0.26169 0.0
H1290 H 0.21361 0.45983 0.31803 0.0
H1291 H 0.21166 0.39563 0.27659 0.0
C1292 C 0.2394 0.38701 0.29511 0.0
C1293 C 0.25359 0.39259 0.31224 0.0
C1294 C 0.20187 0.45468 0.3058 0.0
C1295 C 0.2195 0.41914 0.30189 0.0
C1296 C 0.18654 0.46909 0.29902 0.0
C1297 C 0.17143 0.46312 0.28284 0.0
C1298 C 0.20229 0.43416 0.29619 0.0
C1299 C 0.17182 0.44219 0.27422 0.0
C1300 C 0.22231 0.40016 0.28996 0.0
C1301 C 0.24999 0.41151 0.32397 0.0
N1302 N 0.18714 0.42852 0.28085 0.0
N1303 N 0.23341 0.42414 0.31849 0.0
H1304 H 0.11843 0.00863 0.52127 0.0
H1305 H 0.21671 0.07994 0.47165 0.0
H1306 H 0.131 0.01518 0.45309 0.0
H1307 H 0.19599 0.08715 0.53749 0.0
H1308 H 0.18873 0.05143 0.46618 0.0
H1309 H 0.14944 0.03362 0.52891 0.0
C1310 C 0.12773 0.0153 0.50794 0.0
C1311 C 0.12206 0.00998 0.48651 0.0
C1312 C 0.19024 0.0592 0.48185 0.0
C1313 C 0.15756 0.03819 0.49511 0.0
C1314 C 0.20612 0.07549 0.48492 0.0
C1315 C 0.20787 0.08639 0.50473 0.0
C1316 C 0.1761 0.05369 0.4988 0.0
C1317 C 0.19459 0.07944 0.52178 0.0
C1318 C 0.14537 0.02954 0.5123 0.0
C1319 C 0.13459 0.0191 0.46983 0.0
N1320 N 0.17894 0.06369 0.51835 0.0
N1321 N 0.15176 0.03267 0.47449 0.0
H1322 H 0.75247 0.10738 0.6625 0.0
H1323 H 0.6868 0.05687 0.76258 0.0
H1324 H 0.76434 0.12594 0.72896 0.0
H1325 H 0.67387 0.0384 0.69644 0.0
H1326 H 0.7153 0.08239 0.75041 0.0
H1327 H 0.72332 0.08244 0.67433 0.0
C1328 C 0.74897 0.1062 0.67958 0.0
C1329 C 0.76094 0.11874 0.69476 0.0
C1330 C 0.7062 0.07288 0.73849 0.0
C1331 C 0.72755 0.09026 0.70841 0.0
C1332 C 0.68987 0.05846 0.74543 0.0
C1333 C 0.67758 0.04626 0.73036 0.0
C1334 C 0.71042 0.07488 0.71629 0.0
C1335 C 0.68274 0.04802 0.70844 0.0
C1336 C 0.73227 0.09202 0.68631 0.0
C1337 C 0.75542 0.11679 0.71665 0.0
N1338 N 0.69867 0.06227 0.702 0.0
N1339 N 0.73921 0.10277 0.72281 0.0
H1340 H 0.40328 0.05416 0.55111 0.0
H1341 H 0.30337 0.08586 0.47671 0.0
H1342 H 0.39566 0.03392 0.48454 0.0
H1343 H 0.31851 0.11632 0.53809 0.0
H1344 H 0.33623 0.06549 0.47984 0.0
H1345 H 0.37126 0.07557 0.54734 0.0
C1346 C 0.39496 0.05424 0.53567 0.0
C1347 C 0.40234 0.04218 0.51811 0.0
C1348 C 0.33244 0.07672 0.49257 0.0
C1349 C 0.36535 0.06656 0.51378 0.0
C1350 C 0.31369 0.08838 0.49079 0.0
C1351 C 0.30818 0.10283 0.50717 0.0
C1352 C 0.34572 0.07934 0.51098 0.0
C1353 C 0.32215 0.1054 0.52505 0.0
C1354 C 0.3766 0.06644 0.53356 0.0
C1355 C 0.3905 0.04265 0.49864 0.0
N1356 N 0.3402 0.09368 0.52654 0.0
N1357 N 0.37264 0.05461 0.49702 0.0
H1358 H 0.63867 0.51549 0.5061 0.0
H1359 H 0.6942 0.40535 0.53507 0.0
H1360 H 0.61702 0.47413 0.55808 0.0
H1361 H 0.70379 0.43815 0.47431 0.0
H1362 H 0.66739 0.43147 0.54487 0.0
H1363 H 0.66409 0.48834 0.49517 0.0
C1364 C 0.63925 0.50067 0.51518 0.0
C1365 C 0.62572 0.49706 0.53303 0.0
C1366 C 0.67533 0.4329 0.52937 0.0
C1367 C 0.65484 0.46598 0.52071 0.0
C1368 C 0.69072 0.41804 0.52378 0.0
C1369 C 0.70136 0.41954 0.50383 0.0
C1370 C 0.67066 0.44955 0.51504 0.0
C1371 C 0.69603 0.43631 0.48986 0.0
C1372 C 0.65369 0.48515 0.50889 0.0
C1373 C 0.627 0.47748 0.5441 0.0
N1374 N 0.68116 0.4507 0.49577 0.0
N1375 N 0.64142 0.46275 0.53787 0.0
H1376 H 0.67962 0.25791 0.38667 0.0
H1377 H 0.69028 0.32839 0.47588 0.0
H1378 H 0.74925 0.2569 0.3895 0.0
H1379 H 0.75864 0.32549 0.46412 0.0
H1380 H 0.68346 0.29979 0.44891 0.0
H1381 H 0.68012 0.28048 0.41909 0.0
C1382 C 0.69499 0.26215 0.39441 0.0
C1383 C 0.71444 0.2557 0.38532 0.0
C1384 C 0.69996 0.30535 0.45206 0.0
C1385 C 0.71529 0.28147 0.42258 0.0
C1386 C 0.70379 0.32163 0.46754 0.0
C1387 C 0.72493 0.32971 0.47143 0.0
C1388 C 0.71757 0.29704 0.4408 0.0
C1389 C 0.74203 0.32014 0.46091 0.0
C1390 C 0.69531 0.2751 0.41299 0.0
C1391 C 0.7339 0.26178 0.39579 0.0
N1392 N 0.73796 0.30448 0.44596 0.0
N1393 N 0.73381 0.27438 0.41373 0.0
H1394 H 0.52463 0.98261 0.89369 0.0
H1395 H 0.59313 0.05581 0.81151 0.0
H1396 H 0.55441 0.04437 0.9109 0.0
H1397 H 0.59 0.98643 0.80554 0.0
H1398 H 0.57293 0.05284 0.84504 0.0
H1399 H 0.54291 0.98467 0.85847 0.0
C1400 C 0.53492 0.99662 0.88998 0.0
C1401 C 0.53813 0.01332 0.90517 0.0
C1402 C 0.57661 0.03826 0.83636 0.0
C1403 C 0.55872 0.01588 0.86512 0.0
C1404 C 0.58807 0.03991 0.81711 0.0
C1405 C 0.5934 0.02131 0.80563 0.0
C1406 C 0.57009 0.01789 0.84419 0.0
C1407 C 0.58636 0.00119 0.81388 0.0
C1408 C 0.54539 0.99772 0.87001 0.0
C1409 C 0.55168 0.03108 0.89969 0.0
N1410 N 0.575 1.0 0.83266 0.0
N1411 N 0.56137 0.03196 0.88007 0.0
H1412 H 0.26768 0.2733 0.39027 0.0
H1413 H 0.29434 0.17565 0.46865 0.0
H1414 H 0.33271 0.2521 0.39947 0.0
H1415 H 0.23028 0.19019 0.44624 0.0
H1416 H 0.30934 0.20493 0.44594 0.0
H1417 H 0.25428 0.24426 0.41337 0.0
C1418 C 0.27917 0.26242 0.39698 0.0
C1419 C 0.30136 0.26507 0.39265 0.0
C1420 C 0.29202 0.2016 0.44605 0.0
C1421 C 0.28606 0.2318 0.41965 0.0
C1422 C 0.28344 0.18494 0.45902 0.0
C1423 C 0.26099 0.18036 0.4594 0.0
C1424 C 0.27801 0.21385 0.43357 0.0
C1425 C 0.24767 0.19296 0.44653 0.0
C1426 C 0.2715 0.24587 0.41033 0.0
C1427 C 0.31548 0.25077 0.40244 0.0
N1428 N 0.25637 0.20906 0.43426 0.0
N1429 N 0.30759 0.23472 0.41547 0.0
H1430 H 0.46513 0.44279 0.90339 0.0
H1431 H 0.42303 0.51515 0.80668 0.0
H1432 H 0.50047 0.5005 0.88327 0.0
H1433 H 0.41006 0.4465 0.81142 0.0
H1434 H 0.44634 0.51353 0.83901 0.0
H1435 H 0.43898 0.44786 0.87426 0.0
C1436 C 0.46718 0.45673 0.89305 0.0
C1437 C 0.48502 0.47121 0.89568 0.0
C1438 C 0.43826 0.49891 0.83292 0.0
C1439 C 0.45524 0.47702 0.86225 0.0
C1440 C 0.42495 0.49981 0.81457 0.0
C1441 C 0.41467 0.48092 0.80626 0.0
C1442 C 0.44085 0.47907 0.84322 0.0
C1443 C 0.41775 0.46147 0.8171 0.0
C1444 C 0.45236 0.45951 0.87634 0.0
C1445 C 0.48703 0.48886 0.88162 0.0
N1446 N 0.43046 0.46108 0.83502 0.0
N1447 N 0.47231 0.49129 0.86545 0.0
H1448 H 0.71443 0.74454 0.14005 0.0
H1449 H 0.6868 0.68809 0.02601 0.0
H1450 H 0.66462 0.76449 0.09616 0.0
H1451 H 0.74246 0.67254 0.06457 0.0
H1452 H 0.67737 0.71456 0.05301 0.0
H1453 H 0.72403 0.71678 0.11394 0.0
C1454 C 0.70552 0.74314 0.12496 0.0
C1455 C 0.6886 0.75689 0.1204 0.0
C1456 C 0.69166 0.70539 0.05562 0.0
C1457 C 0.6994 0.72501 0.09055 0.0
C1458 C 0.69709 0.6902 0.04016 0.0
C1459 C 0.71555 0.67803 0.04289 0.0
C1460 C 0.7047 0.70855 0.07411 0.0
C1461 C 0.72812 0.68155 0.0617 0.0
C1462 C 0.71096 0.72722 0.1101 0.0
C1463 C 0.67749 0.75407 0.10065 0.0
N1464 N 0.72247 0.6965 0.07659 0.0
N1465 N 0.68308 0.73851 0.08652 0.0
H1466 H 1.00055 0.06077 0.14634 0.0
H1467 H 0.92325 0.96396 0.18882 0.0
H1468 H 0.99172 1.00052 0.11179 0.0
H1469 H 0.92102 0.02945 0.21223 0.0
H1470 H 0.94984 0.97601 0.16182 0.0
H1471 H 0.97305 0.0485 0.17213 0.0
C1472 C 0.99285 0.04491 0.14424 0.0
C1473 C 0.99849 0.0316 0.12696 0.0
C1474 C 0.94344 0.98772 0.17284 0.0
C1475 C 0.9669 0.01744 0.15642 0.0
C1476 C 0.92831 0.98085 0.18831 0.0
C1477 C 0.91986 0.99569 0.20289 0.0
C1478 C 0.95036 0.00953 0.1721 0.0
C1479 C 0.92699 0.0174 0.20134 0.0
C1480 C 0.97706 0.03796 0.15889 0.0
C1481 C 0.98775 0.01132 0.12483 0.0
N1482 N 0.94188 0.02361 0.18634 0.0
N1483 N 0.97256 0.00478 0.13948 0.0
H1484 H 0.33081 0.74508 0.09402 0.0
H1485 H 0.26169 0.84989 0.07755 0.0
H1486 H 0.29619 0.77504 0.14571 0.0
H1487 H 0.29883 0.82069 0.02728 0.0
H1488 H 0.27571 0.8241 0.10339 0.0
H1489 H 0.32083 0.77402 0.07001 0.0
C1490 C 0.32131 0.75787 0.10043 0.0
C1491 C 0.31435 0.75755 0.12198 0.0
C1492 C 0.28092 0.82346 0.08674 0.0
C1493 C 0.30249 0.79071 0.09432 0.0
C1494 C 0.27296 0.83821 0.07199 0.0
C1495 C 0.27901 0.83736 0.0502 0.0
C1496 C 0.29497 0.80773 0.07961 0.0
C1497 C 0.29365 0.82189 0.0439 0.0
C1498 C 0.31549 0.77436 0.08663 0.0
C1499 C 0.30168 0.77442 0.12916 0.0
N1500 N 0.30101 0.80762 0.05849 0.0
N1501 N 0.2961 0.79026 0.11535 0.0
H1502 H 0.00649 0.5228 0.12213 0.0
H1503 H 0.10053 0.48281 0.20004 0.0
H1504 H 0.04981 0.47298 0.1047 0.0
H1505 H 0.06729 0.54178 0.2102 0.0
H1506 H 0.07823 0.47558 0.16784 0.0
H1507 H 0.02478 0.52645 0.15724 0.0
C1508 C 0.01969 0.51246 0.12579 0.0
C1509 C 0.02673 0.49766 0.11041 0.0
C1510 C 0.07575 0.49003 0.17721 0.0
C1511 C 0.04781 0.50183 0.1505 0.0
C1512 C 0.08841 0.49413 0.19568 0.0
C1513 C 0.08592 0.51302 0.20784 0.0
C1514 C 0.06036 0.50481 0.17091 0.0
C1515 C 0.06993 0.52709 0.20129 0.0
C1516 C 0.03021 0.51464 0.14577 0.0
C1517 C 0.04405 0.48481 0.11596 0.0
N1518 N 0.05783 0.52273 0.18325 0.0
N1519 N 0.05402 0.48721 0.13552 0.0
H1520 H 0.40378 0.67008 0.259 0.0
H1521 H 0.44802 0.76154 0.34108 0.0
H1522 H 0.37696 0.73294 0.26423 0.0
H1523 H 0.46887 0.69629 0.34315 0.0
H1524 H 0.42186 0.75112 0.31282 0.0
H1525 H 0.42737 0.67887 0.28991 0.0
C1526 C 0.40267 0.68565 0.26676 0.0
C1527 C 0.38839 0.70084 0.25888 0.0
C1528 C 0.43195 0.73896 0.31954 0.0
C1529 C 0.41566 0.71111 0.2941 0.0
C1530 C 0.44675 0.74488 0.33577 0.0
C1531 C 0.45995 0.72953 0.3449 0.0
C1532 C 0.43069 0.71759 0.31199 0.0
C1533 C 0.45854 0.70843 0.33679 0.0
C1534 C 0.41624 0.69069 0.28435 0.0
C1535 C 0.38795 0.72087 0.26945 0.0
N1536 N 0.44406 0.70302 0.3208 0.0
N1537 N 0.40143 0.72544 0.28642 0.0
H1538 H 0.94823 0.40216 0.97476 0.0
H1539 H 0.01896 0.31197 0.92027 0.0
H1540 H 0.01781 0.40257 0.9805 0.0
H1541 H 0.94993 0.30473 0.93002 0.0
H1542 H 0.01921 0.34595 0.94065 0.0
H1543 H 0.94877 0.36728 0.95632 0.0
C1544 C 0.96362 0.3949 0.97211 0.0
C1545 C 0.98299 0.40528 0.97918 0.0
C1546 C 0.00406 0.3368 0.93841 0.0
C1547 C 0.98377 0.36533 0.95805 0.0
C1548 C 0.0039 0.31741 0.92676 0.0
C1549 C 0.98441 0.30539 0.92336 0.0
C1550 C 0.98457 0.34436 0.94649 0.0
C1551 C 0.96539 0.31331 0.9322 0.0
C1552 C 0.96393 0.37494 0.96169 0.0
C1553 C 0.00248 0.39502 0.97549 0.0
N1554 N 0.96594 0.3323 0.94319 0.0
N1555 N 0.00239 0.37568 0.96506 0.0
H1556 H 0.58137 0.82884 0.24145 0.0
H1557 H 0.57171 0.77124 0.35653 0.0
H1558 H 0.63524 0.8004 0.2737 0.0
H1559 H 0.5189 0.80169 0.32458 0.0
H1560 H 0.5959 0.78373 0.32764 0.0
H1561 H 0.5589 0.82075 0.2728 0.0
C1562 C 0.58857 0.82106 0.2552 0.0
C1563 C 0.61029 0.81531 0.25487 0.0
C1564 C 0.57906 0.78784 0.32705 0.0
C1565 C 0.58443 0.8057 0.29087 0.0
C1566 C 0.56526 0.78078 0.34359 0.0
C1567 C 0.54322 0.78534 0.34292 0.0
C1568 C 0.57075 0.79947 0.30967 0.0
C1569 C 0.53575 0.79774 0.32574 0.0
C1570 C 0.57566 0.81635 0.27309 0.0
C1571 C 0.61852 0.80488 0.27307 0.0
N1572 N 0.54944 0.80423 0.30975 0.0
N1573 N 0.60558 0.80037 0.2903 0.0
H1574 H 0.99817 0.1291 0.01321 0.0
H1575 H 0.03042 0.20833 0.91587 0.0
H1576 H 0.05938 0.12861 0.9802 0.0
H1577 H 0.96652 0.20377 0.94368 0.0
H1578 H 0.04162 0.17999 0.94013 0.0
H1579 H 0.98654 0.15711 0.98859 0.0
C1580 C 0.00916 0.13488 0.00078 0.0
C1581 C 0.0298 0.12648 0.99879 0.0
C1582 C 0.02515 0.18519 0.94093 0.0
C1583 C 0.01658 0.15857 0.97052 0.0
C1584 C 0.01873 0.20146 0.92711 0.0
C1585 C 0.99746 0.20856 0.92769 0.0
C1586 C 0.01026 0.17591 0.95557 0.0
C1587 C 0.98308 0.19889 0.94262 0.0
C1588 C 0.00248 0.15082 0.98667 0.0
C1589 C 0.04325 0.13441 0.98219 0.0
N1590 N 0.98975 0.18311 0.95595 0.0
N1591 N 0.03645 0.15006 0.96878 0.0
H1592 H 0.39821 0.33498 0.24972 0.0
H1593 H 0.4334 0.22545 0.19373 0.0
H1594 H 0.37284 0.27168 0.26712 0.0
H1595 H 0.46186 0.28795 0.17757 0.0
H1596 H 0.41015 0.24258 0.21964 0.0
H1597 H 0.42075 0.3185 0.22236 0.0
C1598 C 0.39738 0.31763 0.24783 0.0
C1599 C 0.38358 0.30472 0.2608 0.0
C1600 C 0.42146 0.25259 0.21044 0.0
C1601 C 0.40923 0.28577 0.22936 0.0
C1602 C 0.43481 0.2428 0.19559 0.0
C1603 C 0.44976 0.25523 0.18343 0.0
C1604 C 0.42295 0.27503 0.21327 0.0
C1605 C 0.45065 0.27768 0.18659 0.0
C1606 C 0.41019 0.30824 0.23213 0.0
C1607 C 0.38297 0.28234 0.25734 0.0
N1608 N 0.43746 0.28685 0.20122 0.0
N1609 N 0.39563 0.27361 0.24203 0.0
H1610 H 0.53977 0.39737 0.05302 0.0
H1611 H 0.47233 0.28776 0.0788 0.0
H1612 H 0.49492 0.36593 0.0081 0.0
H1613 H 0.52209 0.31584 0.12067 0.0
H1614 H 0.47675 0.31884 0.05487 0.0
H1615 H 0.52976 0.37032 0.08009 0.0
C1616 C 0.52758 0.38496 0.04894 0.0
C1617 C 0.51829 0.38384 0.02819 0.0
C1618 C 0.48657 0.31829 0.06939 0.0
C1619 C 0.50695 0.35261 0.05905 0.0
C1620 C 0.484 0.30058 0.0831 0.0
C1621 C 0.49698 0.29912 0.10167 0.0
C1622 C 0.50222 0.33467 0.0743 0.0
C1623 C 0.51184 0.31622 0.10644 0.0
C1624 C 0.52198 0.36942 0.06437 0.0
C1625 C 0.50277 0.36722 0.02377 0.0
N1626 N 0.51415 0.3332 0.09278 0.0
N1627 N 0.49768 0.3522 0.03901 0.0
H1628 H 0.62917 0.24195 0.25227 0.0
H1629 H 0.52937 0.18281 0.19043 0.0
H1630 H 0.62167 0.17273 0.24741 0.0
H1631 H 0.54874 0.24977 0.1816 0.0
H1632 H 0.56051 0.17894 0.21457 0.0
H1633 H 0.59694 0.2452 0.22982 0.0
C1634 C 0.62059 0.22741 0.24665 0.0
C1635 C 0.62805 0.20702 0.25181 0.0
C1636 C 0.55789 0.19445 0.20732 0.0
C1637 C 0.59118 0.21064 0.22585 0.0
C1638 C 0.54009 0.19672 0.19361 0.0
C1639 C 0.53643 0.21665 0.18389 0.0
C1640 C 0.57198 0.2123 0.21156 0.0
C1641 C 0.55093 0.23407 0.18859 0.0
C1642 C 0.60228 0.22928 0.23368 0.0
C1643 C 0.61651 0.18874 0.24371 0.0
N1644 N 0.56799 0.2315 0.20212 0.0
N1645 N 0.59858 0.19097 0.23117 0.0
H1646 H 0.46125 0.10591 0.03592 0.0
H1647 H 0.53524 0.19229 0.10117 0.0
H1648 H 0.53101 0.10688 0.03456 0.0
H1649 H 0.46733 0.19979 0.08902 0.0
H1650 H 0.53434 0.16118 0.07648 0.0
H1651 H 0.46311 0.14033 0.05538 0.0
C1652 C 0.47696 0.11343 0.03969 0.0
C1653 C 0.49601 0.10353 0.03368 0.0
C1654 C 0.51964 0.16967 0.07913 0.0
C1655 C 0.49829 0.14279 0.05609 0.0
C1656 C 0.52016 0.18731 0.09324 0.0
C1657 C 0.5011 0.1978 0.09776 0.0
C1658 C 0.49996 0.16276 0.06935 0.0
C1659 C 0.48212 0.19138 0.08661 0.0
C1660 C 0.47802 0.13311 0.0507 0.0
C1661 C 0.51594 0.11405 0.03877 0.0
N1662 N 0.48193 0.17406 0.07312 0.0
N1663 N 0.51657 0.133 0.04988 0.0
H1664 H 0.25021 0.40556 0.66269 0.0
H1665 H 0.32266 0.45277 0.76101 0.0
H1666 H 0.2466 0.38168 0.72798 0.0
H1667 H 0.33266 0.47261 0.69514 0.0
H1668 H 0.2934 0.42786 0.74905 0.0
H1669 H 0.27958 0.43095 0.67392 0.0
C1670 C 0.25559 0.40565 0.67938 0.0
C1671 C 0.24588 0.39149 0.69444 0.0
C1672 C 0.30198 0.43754 0.73711 0.0
C1673 C 0.27942 0.42049 0.70737 0.0
C1674 C 0.31872 0.45168 0.74394 0.0
C1675 C 0.33046 0.46406 0.72888 0.0
C1676 C 0.29675 0.43597 0.71504 0.0
C1677 C 0.32422 0.46286 0.70711 0.0
C1678 C 0.27239 0.42009 0.68575 0.0
C1679 C 0.25372 0.39211 0.71577 0.0
N1680 N 0.30787 0.44883 0.70075 0.0
N1681 N 0.26993 0.40643 0.72159 0.0
H1682 H 0.24295 0.60688 0.78444 0.0
H1683 H 0.36316 0.5716 0.78196 0.0
H1684 H 0.29408 0.6474 0.81247 0.0
H1685 H 0.31014 0.52479 0.78869 0.0
H1686 H 0.33865 0.60022 0.79132 0.0
H1687 H 0.2675 0.5768 0.78363 0.0
C1688 C 0.25931 0.60929 0.79063 0.0
C1689 C 0.26661 0.62946 0.79859 0.0
C1690 C 0.33251 0.58363 0.79108 0.0
C1691 C 0.29477 0.59553 0.79729 0.0
C1692 C 0.34645 0.56733 0.78573 0.0
C1693 C 0.33863 0.54583 0.78451 0.0
C1694 C 0.31052 0.57842 0.79467 0.0
C1695 C 0.31684 0.54116 0.78951 0.0
C1696 C 0.27325 0.59219 0.79024 0.0
C1697 C 0.28792 0.63196 0.80634 0.0
N1698 N 0.30343 0.55737 0.79399 0.0
N1699 N 0.30142 0.61525 0.8052 0.0
H1700 H 0.89157 0.48566 0.52368 0.0
H1701 H 0.80307 0.41604 0.4573 0.0
H1702 H 0.90579 0.45222 0.46457 0.0
H1703 H 0.80032 0.42018 0.52693 0.0
H1704 H 0.83792 0.4357 0.45822 0.0
H1705 H 0.85532 0.46768 0.52371 0.0
C1706 C 0.88697 0.47462 0.51068 0.0
C1707 C 0.90158 0.47033 0.4941 0.0
C1708 C 0.82965 0.43236 0.47329 0.0
C1709 C 0.86038 0.45009 0.4939 0.0
C1710 C 0.80966 0.42122 0.47282 0.0
C1711 C 0.79871 0.41631 0.49211 0.0
C1712 C 0.83874 0.43902 0.49313 0.0
C1713 C 0.80822 0.42351 0.51168 0.0
C1714 C 0.86642 0.46433 0.51077 0.0
C1715 C 0.895 0.45583 0.47769 0.0
N1716 N 0.82771 0.43459 0.5117 0.0
N1717 N 0.87481 0.44635 0.47791 0.0
H1718 H 0.76024 0.91591 0.83899 0.0
H1719 H 0.65952 0.93567 0.76045 0.0
H1720 H 0.74163 0.87304 0.78635 0.0
H1721 H 0.68617 0.9826 0.80602 0.0
H1722 H 0.68596 0.91004 0.77302 0.0
H1723 H 0.72994 0.93818 0.83009 0.0
C1724 C 0.74983 0.9112 0.82549 0.0
C1725 C 0.75372 0.89269 0.81323 0.0
C1726 C 0.68585 0.92588 0.78038 0.0
C1727 C 0.71865 0.91807 0.8031 0.0
C1728 C 0.6707 0.94046 0.77331 0.0
C1729 C 0.67074 0.96134 0.78211 0.0
C1730 C 0.70104 0.93222 0.79644 0.0
C1731 C 0.68564 0.96673 0.79867 0.0
C1732 C 0.73242 0.92387 0.8205 0.0
C1733 C 0.73925 0.88711 0.7963 0.0
N1734 N 0.70022 0.95232 0.8052 0.0
N1735 N 0.72243 0.89982 0.79165 0.0
H1736 H 0.61916 0.50889 0.02392 0.0
H1737 H 0.71719 0.58087 0.975 0.0
H1738 H 0.63049 0.51771 0.95579 0.0
H1739 H 0.69553 0.58897 0.04041 0.0
H1740 H 0.68921 0.55238 0.96947 0.0
H1741 H 0.65011 0.53395 0.03182 0.0
C1742 C 0.62819 0.51608 0.01067 0.0
C1743 C 0.6222 0.5114 0.98918 0.0
C1744 C 0.69052 0.56034 0.98506 0.0
C1745 C 0.65763 0.53958 0.99804 0.0
C1746 C 0.70641 0.57661 0.98817 0.0
C1747 C 0.7079 0.58775 0.00785 0.0
C1748 C 0.67614 0.55506 0.00187 0.0
C1749 C 0.69434 0.58106 0.02479 0.0
C1750 C 0.64578 0.53034 0.01517 0.0
C1751 C 0.63437 0.52112 0.97258 0.0
N1752 N 0.67872 0.56528 0.02133 0.0
N1753 N 0.65154 0.53465 0.97736 0.0
H1754 H 0.26107 0.62807 0.23593 0.0
H1755 H 0.169 0.54141 0.19802 0.0
H1756 H 0.244 0.61655 0.16896 0.0
H1757 H 0.18101 0.5595 0.26442 0.0
H1758 H 0.19671 0.56851 0.1868 0.0
H1759 H 0.23154 0.60328 0.24655 0.0
C1760 C 0.25099 0.62054 0.22342 0.0
C1761 C 0.25515 0.62444 0.20148 0.0
C1762 C 0.19317 0.56669 0.20381 0.0
C1763 C 0.2215 0.59549 0.21359 0.0
C1764 C 0.17741 0.55127 0.21016 0.0
C1765 C 0.17235 0.54891 0.23205 0.0
C1766 C 0.20427 0.57934 0.21958 0.0
C1767 C 0.18402 0.56147 0.24731 0.0
C1768 C 0.2342 0.60621 0.22952 0.0
C1769 C 0.2417 0.61379 0.18606 0.0
N1770 N 0.19941 0.57621 0.2408 0.0
N1771 N 0.22556 0.59974 0.1924 0.0
H1772 H 0.88667 0.52164 0.99559 0.0
H1773 H 0.82267 0.62397 0.03545 0.0
H1774 H 0.91467 0.57047 0.03834 0.0
H1775 H 0.79978 0.58081 0.98463 0.0
H1776 H 0.85596 0.60403 0.03785 0.0
H1777 H 0.8539 0.54219 0.99288 0.0
C1778 C 0.88587 0.53661 0.00453 0.0
C1779 C 0.90347 0.54432 0.01721 0.0
C1780 C 0.84369 0.59899 0.02611 0.0
C1781 C 0.86601 0.56809 0.01405 0.0
C1782 C 0.82469 0.61038 0.02472 0.0
C1783 C 0.8084 0.60406 0.00981 0.0
C1784 C 0.84635 0.58103 0.01262 0.0
C1785 C 0.81189 0.5863 0.99633 0.0
C1786 C 0.86721 0.54844 0.00285 0.0
C1787 C 0.9016 0.56401 0.0282 0.0
N1788 N 0.83041 0.57536 0.99813 0.0
N1789 N 0.88321 0.57517 0.02641 0.0
H1790 H 0.13158 0.00951 0.99819 0.0
H1791 H 0.19855 0.90737 0.03251 0.0
H1792 H 0.12315 0.97662 0.05897 0.0
H1793 H 0.20184 0.93624 0.96921 0.0
H1794 H 0.17101 0.93259 0.04254 0.0
H1795 H 0.15747 0.98286 0.98735 0.0
C1796 C 0.13517 0.99667 0.00926 0.0
C1797 C 0.1252 0.99534 0.02954 0.0
C1798 C 0.17772 0.93336 0.02644 0.0
C1799 C 0.15484 0.9647 0.01722 0.0
C1800 C 0.1935 0.91897 0.02068 0.0
C1801 C 0.20267 0.91967 0.99997 0.0
C1802 C 0.17107 0.94868 0.01144 0.0
C1803 C 0.19534 0.93507 0.98537 0.0
C1804 C 0.14989 0.9814 0.00302 0.0
C1805 C 0.13027 0.97817 0.0431 0.0
N1806 N 0.18007 0.94898 0.99141 0.0
N1807 N 0.14481 0.96361 0.03674 0.0
loop_
_geom_bond_atom_site_label_1
_geom_bond_atom_site_label_2
_geom_bond_distance
_geom_bond_site_symmetry_2
_ccdc_geom_bond_type
P0 O11 1.490 . S
P0 C14 1.812 . S
P0 C20 1.803 . S
P0 C26 1.819 . S
H1 C15 0.941 . S
H2 C16 0.939 . S
H3 C18 0.940 . S
H4 C19 0.940 . S
H5 C21 0.939 . S
H6 C22 0.942 . S
H7 C24 0.940 . S
H8 C25 0.939 . S
H9 C27 0.941 . S
H10 C31 0.939 . S
O11 P0 1.490 . S
H12 C28 0.939 . S
H13 C30 0.940 . S
C14 P0 1.812 . S
C14 C15 1.389 . S
C14 C19 1.391 . S
C15 H1 0.941 . S
C15 C14 1.389 . S
C15 C16 1.397 . S
C16 H2 0.939 . S
C16 C15 1.397 . S
C16 C17 1.378 1_455 S
C17 C16 1.378 1_655 S
C17 C18 1.378 . S
C18 H3 0.940 . S
C18 C17 1.378 . S
C18 C19 1.396 1_655 S
C19 H4 0.940 . S
C19 C14 1.391 . S
C19 C18 1.396 1_455 S
C20 P0 1.803 . S
C20 C21 1.378 . S
C20 C25 1.400 . S
C21 H5 0.939 . S
C21 C20 1.378 . S
C21 C22 1.361 . S
C22 H6 0.942 . S
C22 C21 1.361 . S
C22 C23 1.369 1_545 S
C23 C22 1.369 1_565 S
C23 C24 1.404 . S
C24 H7 0.940 . S
C24 C23 1.404 . S
C24 C25 1.389 1_565 S
C25 H8 0.939 . S
C25 C20 1.400 . S
C25 C24 1.389 1_545 S
C26 P0 1.819 . S
C26 C27 1.391 . S
C26 C31 1.391 . S
C27 H9 0.941 . S
C27 C26 1.391 . S
C27 C28 1.396 . S
C28 H12 0.939 . S
C28 C27 1.396 . S
C28 C29 1.397 1_554 S
C29 C28 1.397 1_556 S
C29 C30 1.385 . S
C30 H13 0.940 . S
C30 C29 1.385 . S
C30 C31 1.388 1_556 S
C31 H10 0.939 . S
C31 C26 1.391 . S
C31 C30 1.388 1_554 S
P32 O43 1.490 . S
P32 C46 1.812 . S
P32 C52 1.803 . S
P32 C58 1.819 . S
H33 C47 0.941 . S
H34 C48 0.939 . S
H35 C50 0.940 . S
H36 C51 0.940 . S
H37 C53 0.939 . S
H38 C54 0.942 . S
H39 C56 0.940 . S
H40 C57 0.939 . S
H41 C59 0.941 . S
H42 C63 0.939 . S
O43 P32 1.490 . S
H44 C60 0.939 . S
H45 C62 0.940 . S
C46 P32 1.812 . S
C46 C47 1.389 . S
C46 C51 1.391 . S
C47 H33 0.941 . S
C47 C46 1.389 . S
C47 C48 1.397 . S
C48 H34 0.939 . S
C48 C47 1.397 . S
C48 C49 1.378 . S
C49 C48 1.378 . S
C49 C50 1.378 . S
C50 H35 0.940 . S
C50 C49 1.378 . S
C50 C51 1.396 . S
C51 H36 0.940 . S
C51 C46 1.391 . S
C51 C50 1.396 . S
C52 P32 1.803 . S
C52 C53 1.378 . S
C52 C57 1.400 . S
C53 H37 0.939 . S
C53 C52 1.378 . S
C53 C54 1.361 . S
C54 H38 0.942 . S
C54 C53 1.361 . S
C54 C55 1.369 . S
C55 C54 1.369 . S
C55 C56 1.404 . S
C56 H39 0.940 . S
C56 C55 1.404 . S
C56 C57 1.389 . S
C57 H40 0.939 . S
C57 C52 1.400 . S
C57 C56 1.389 . S
C58 P32 1.819 . S
C58 C59 1.391 . S
C58 C63 1.391 . S
C59 H41 0.941 . S
C59 C58 1.391 . S
C59 C60 1.396 . S
C60 H44 0.939 . S
C60 C59 1.396 . S
C60 C61 1.397 . S
C61 C60 1.397 . S
C61 C62 1.385 . S
C62 H45 0.940 . S
C62 C61 1.385 . S
C62 C63 1.388 . S
C63 H42 0.939 . S
C63 C58 1.391 . S
C63 C62 1.388 . S
P64 O75 1.540 . S
P64 C78 1.812 . S
P64 C84 1.803 . S
P64 C90 1.819 . S
H65 C79 0.941 . S
H66 C80 0.939 . S
H67 C82 0.940 . S
H68 C83 0.940 . S
H69 C85 0.939 . S
H70 C86 0.942 . S
H71 C88 0.940 . S
H72 C89 0.939 . S
H73 C91 0.941 . S
H74 C95 0.939 . S
O75 P64 1.540 . S
H76 C92 0.939 . S
H77 C94 0.940 . S
C78 P64 1.812 . S
C78 C79 1.389 1_554 S
C78 C83 1.391 . S
C79 H65 0.941 . S
C79 C78 1.389 1_556 S
C79 C80 1.397 . S
C80 H66 0.939 . S
C80 C79 1.397 . S
C80 C81 1.378 . S
C81 C80 1.378 . S
C81 C82 1.378 1_556 S
C82 H67 0.940 . S
C82 C81 1.378 1_554 S
C82 C83 1.396 . S
C83 H68 0.940 . S
C83 C78 1.391 . S
C83 C82 1.396 . S
C84 P64 1.803 . S
C84 C85 1.378 . S
C84 C89 1.400 . S
C85 H69 0.939 . S
C85 C84 1.378 . S
C85 C86 1.361 . S
C86 H70 0.942 . S
C86 C85 1.361 . S
C86 C87 1.369 . S
C87 C86 1.369 . S
C87 C88 1.404 . S
C88 H71 0.940 . S
C88 C87 1.404 . S
C88 C89 1.389 . S
C89 H72 0.939 . S
C89 C84 1.400 . S
C89 C88 1.389 . S
C90 P64 1.819 . S
C90 C91 1.391 1_655 S
C90 C95 1.391 . S
C91 H73 0.941 . S
C91 C90 1.391 1_455 S
C91 C92 1.396 . S
C92 H76 0.939 . S
C92 C91 1.396 . S
C92 C93 1.397 . S
C93 C92 1.397 . S
C93 C94 1.385 1_455 S
C94 H77 0.940 . S
C94 C93 1.385 1_655 S
C94 C95 1.388 . S
C95 H74 0.939 . S
C95 C90 1.391 . S
C95 C94 1.388 . S
P96 O107 1.490 . S
P96 C110 1.812 . S
P96 C116 1.803 . S
P96 C122 1.819 . S
H97 C111 0.941 . S
H98 C112 0.939 . S
H99 C114 0.940 . S
H100 C115 0.940 . S
H101 C117 0.939 . S
H102 C118 0.942 . S
H103 C120 0.940 . S
H104 C121 0.939 . S
H105 C123 0.941 . S
H106 C127 0.939 . S
O107 P96 1.490 . S
H108 C124 0.939 . S
H109 C126 0.940 . S
C110 P96 1.812 . S
C110 C111 1.389 . S
C110 C115 1.391 . S
C111 H97 0.941 . S
C111 C110 1.389 . S
C111 C112 1.397 . S
C112 H98 0.939 . S
C112 C111 1.397 . S
C112 C113 1.378 . S
C113 C112 1.378 . S
C113 C114 1.378 . S
C114 H99 0.940 . S
C114 C113 1.378 . S
C114 C115 1.396 . S
C115 H100 0.940 . S
C115 C110 1.391 . S
C115 C114 1.396 . S
C116 P96 1.803 . S
C116 C117 1.378 . S
C116 C121 1.400 . S
C117 H101 0.939 . S
C117 C116 1.378 . S
C117 C118 1.361 . S
C118 H102 0.942 . S
C118 C117 1.361 . S
C118 C119 1.369 . S
C119 C118 1.369 . S
C119 C120 1.404 . S
C120 H103 0.940 . S
C120 C119 1.404 . S
C120 C121 1.389 . S
C121 H104 0.939 . S
C121 C116 1.400 . S
C121 C120 1.389 . S
C122 P96 1.819 . S
C122 C123 1.391 . S
C122 C127 1.391 . S
C123 H105 0.941 . S
C123 C122 1.391 . S
C123 C124 1.396 . S
C124 H108 0.939 . S
C124 C123 1.396 . S
C124 C125 1.397 . S
C125 C124 1.397 . S
C125 C126 1.385 . S
C126 H109 0.940 . S
C126 C125 1.385 . S
C126 C127 1.388 . S
C127 H106 0.939 . S
C127 C122 1.391 . S
C127 C126 1.388 . S
P128 O139 1.490 . S
P128 C142 1.812 . S
P128 C148 1.803 . S
P128 C154 1.819 . S
H129 C143 0.941 . S
H130 C144 0.939 . S
H131 C146 0.940 . S
H132 C147 0.940 . S
H133 C149 0.939 . S
H134 C150 0.942 . S
H135 C152 0.940 . S
H136 C153 0.939 . S
H137 C155 0.941 . S
H138 C159 0.939 . S
O139 P128 1.490 . S
H140 C156 0.939 . S
H141 C158 0.940 . S
C142 P128 1.812 . S
C142 C143 1.389 . S
C142 C147 1.391 . S
C143 H129 0.941 . S
C143 C142 1.389 . S
C143 C144 1.397 . S
C144 H130 0.939 . S
C144 C143 1.397 . S
C144 C145 1.378 1_565 S
C145 C144 1.378 1_545 S
C145 C146 1.378 . S
C146 H131 0.940 . S
C146 C145 1.378 . S
C146 C147 1.396 1_545 S
C147 H132 0.940 . S
C147 C142 1.391 . S
C147 C146 1.396 1_565 S
C148 P128 1.803 . S
C148 C149 1.378 . S
C148 C153 1.400 . S
C149 H133 0.939 . S
C149 C148 1.378 . S
C149 C150 1.361 . S
C150 H134 0.942 . S
C150 C149 1.361 . S
C150 C151 1.369 . S
C151 C150 1.369 . S
C151 C152 1.404 . S
C152 H135 0.940 . S
C152 C151 1.404 . S
C152 C153 1.389 . S
C153 H136 0.939 . S
C153 C148 1.400 . S
C153 C152 1.389 . S
C154 P128 1.819 . S
C154 C155 1.391 . S
C154 C159 1.391 . S
C155 H137 0.941 . S
C155 C154 1.391 . S
C155 C156 1.396 . S
C156 H140 0.939 . S
C156 C155 1.396 . S
C156 C157 1.397 1_455 S
C157 C156 1.397 1_655 S
C157 C158 1.385 . S
C158 H141 0.940 . S
C158 C157 1.385 . S
C158 C159 1.388 1_655 S
C159 H138 0.939 . S
C159 C154 1.391 . S
C159 C158 1.388 1_455 S
P160 O171 1.490 . S
P160 C174 1.812 . S
P160 C180 1.803 . S
P160 C186 1.819 . S
H161 C175 0.941 . S
H162 C176 0.939 . S
H163 C178 0.940 . S
H164 C179 0.940 . S
H165 C181 0.939 . S
H166 C182 0.942 . S
H167 C184 0.940 . S
H168 C185 0.939 . S
H169 C187 0.941 . S
H170 C191 0.939 . S
O171 P160 1.490 . S
H172 C188 0.939 . S
H173 C190 0.940 . S
C174 P160 1.812 . S
C174 C175 1.389 . S
C174 C179 1.391 . S
C175 H161 0.941 . S
C175 C174 1.389 . S
C175 C176 1.397 . S
C176 H162 0.939 . S
C176 C175 1.397 . S
C176 C177 1.378 . S
C177 C176 1.378 . S
C177 C178 1.378 . S
C178 H163 0.940 . S
C178 C177 1.378 . S
C178 C179 1.396 . S
C179 H164 0.940 . S
C179 C174 1.391 . S
C179 C178 1.396 . S
C180 P160 1.803 . S
C180 C181 1.378 . S
C180 C185 1.400 . S
C181 H165 0.939 . S
C181 C180 1.378 . S
C181 C182 1.361 . S
C182 H166 0.942 . S
C182 C181 1.361 . S
C182 C183 1.369 . S
C183 C182 1.369 . S
C183 C184 1.404 . S
C184 H167 0.940 . S
C184 C183 1.404 . S
C184 C185 1.389 . S
C185 H168 0.939 . S
C185 C180 1.400 . S
C185 C184 1.389 . S
C186 P160 1.819 . S
C186 C187 1.391 . S
C186 C191 1.391 . S
C187 H169 0.941 . S
C187 C186 1.391 . S
C187 C188 1.396 . S
C188 H172 0.939 . S
C188 C187 1.396 . S
C188 C189 1.397 . S
C189 C188 1.397 . S
C189 C190 1.385 . S
C190 H173 0.940 . S
C190 C189 1.385 . S
C190 C191 1.388 . S
C191 H170 0.939 . S
C191 C186 1.391 . S
C191 C190 1.388 . S
P192 O203 1.490 1_655 S
P192 C206 1.811 . S
P192 C212 1.803 . S
P192 C218 1.819 . S
H193 C207 0.941 . S
H194 C208 0.939 . S
H195 C210 0.940 . S
H196 C211 0.940 . S
H197 C213 0.939 . S
H198 C214 0.942 . S
H199 C216 0.940 . S
H200 C217 0.939 . S
H201 C219 0.941 . S
H202 C223 0.939 . S
O203 P192 1.490 1_455 S
H204 C220 0.939 . S
H205 C222 0.940 . S
C206 P192 1.811 . S
C206 C207 1.391 1_655 S
C206 C211 1.390 . S
C207 H193 0.941 . S
C207 C206 1.391 1_455 S
C207 C208 1.397 . S
C208 H194 0.939 . S
C208 C207 1.397 . S
C208 C209 1.378 . S
C209 C208 1.378 . S
C209 C210 1.378 1_455 S
C210 H195 0.940 . S
C210 C209 1.378 1_655 S
C210 C211 1.396 . S
C211 H196 0.940 . S
C211 C206 1.390 . S
C211 C210 1.396 . S
C212 P192 1.803 . S
C212 C213 1.378 . S
C212 C217 1.400 . S
C213 H197 0.939 . S
C213 C212 1.378 . S
C213 C214 1.361 . S
C214 H198 0.942 . S
C214 C213 1.361 . S
C214 C215 1.369 . S
C215 C214 1.369 . S
C215 C216 1.404 . S
C216 H199 0.940 . S
C216 C215 1.404 . S
C216 C217 1.389 . S
C217 H200 0.939 . S
C217 C212 1.400 . S
C217 C216 1.389 . S
C218 P192 1.819 . S
C218 C219 1.391 . S
C218 C223 1.391 . S
C219 H201 0.941 . S
C219 C218 1.391 . S
C219 C220 1.396 . S
C220 H204 0.939 . S
C220 C219 1.396 . S
C220 C221 1.397 . S
C221 C220 1.397 . S
C221 C222 1.385 . S
C222 H205 0.940 . S
C222 C221 1.385 . S
C222 C223 1.388 . S
C223 H202 0.939 . S
C223 C218 1.391 . S
C223 C222 1.388 . S
P224 O235 1.490 . S
P224 C238 1.812 . S
P224 C244 1.803 . S
P224 C250 1.819 . S
H225 C239 0.941 . S
H226 C240 0.939 . S
H227 C242 0.940 . S
H228 C243 0.940 . S
H229 C245 0.939 . S
H230 C246 0.942 . S
H231 C248 0.940 . S
H232 C249 0.939 . S
H233 C251 0.941 . S
H234 C255 0.939 . S
O235 P224 1.490 . S
H236 C252 0.939 . S
H237 C254 0.940 . S
C238 P224 1.812 . S
C238 C239 1.389 . S
C238 C243 1.391 . S
C239 H225 0.941 . S
C239 C238 1.389 . S
C239 C240 1.397 . S
C240 H226 0.939 . S
C240 C239 1.397 . S
C240 C241 1.378 . S
C241 C240 1.378 . S
C241 C242 1.378 . S
C242 H227 0.940 . S
C242 C241 1.378 . S
C242 C243 1.396 . S
C243 H228 0.940 . S
C243 C238 1.391 . S
C243 C242 1.396 . S
C244 P224 1.803 . S
C244 C245 1.378 . S
C244 C249 1.400 . S
C245 H229 0.939 . S
C245 C244 1.378 . S
C245 C246 1.361 . S
C246 H230 0.942 . S
C246 C245 1.361 . S
C246 C247 1.369 . S
C247 C246 1.369 . S
C247 C248 1.404 . S
C248 H231 0.940 . S
C248 C247 1.404 . S
C248 C249 1.389 . S
C249 H232 0.939 . S
C249 C244 1.400 . S
C249 C248 1.389 . S
C250 P224 1.819 . S
C250 C251 1.391 . S
C250 C255 1.391 . S
C251 H233 0.941 . S
C251 C250 1.391 . S
C251 C252 1.396 . S
C252 H236 0.939 . S
C252 C251 1.396 . S
C252 C253 1.397 . S
C253 C252 1.397 . S
C253 C254 1.385 . S
C254 H237 0.940 . S
C254 C253 1.385 . S
C254 C255 1.388 . S
C255 H234 0.939 . S
C255 C250 1.391 . S
C255 C254 1.388 . S
P256 O267 1.490 . S
P256 C270 1.812 . S
P256 C276 1.803 . S
P256 C282 1.819 . S
H257 C271 0.941 . S
H258 C272 0.939 . S
H259 C274 0.940 . S
H260 C275 0.940 . S
H261 C277 0.939 . S
H262 C278 0.942 . S
H263 C280 0.940 . S
H264 C281 0.939 . S
H265 C283 0.941 . S
H266 C287 0.939 . S
O267 P256 1.490 . S
H268 C284 0.939 . S
H269 C286 0.940 . S
C270 P256 1.812 . S
C270 C271 1.389 . S
C270 C275 1.391 . S
C271 H257 0.941 . S
C271 C270 1.389 . S
C271 C272 1.397 . S
C272 H258 0.939 . S
C272 C271 1.397 . S
C272 C273 1.378 . S
C273 C272 1.378 . S
C273 C274 1.378 . S
C274 H259 0.940 . S
C274 C273 1.378 . S
C274 C275 1.396 . S
C275 H260 0.940 . S
C275 C270 1.391 . S
C275 C274 1.396 . S
C276 P256 1.803 . S
C276 C277 1.378 . S
C276 C281 1.400 . S
C277 H261 0.939 . S
C277 C276 1.378 . S
C277 C278 1.361 . S
C278 H262 0.942 . S
C278 C277 1.361 . S
C278 C279 1.369 . S
C279 C278 1.369 . S
C279 C280 1.404 . S
C280 H263 0.940 . S
C280 C279 1.404 . S
C280 C281 1.389 . S
C281 H264 0.939 . S
C281 C276 1.400 . S
C281 C280 1.389 . S
C282 P256 1.819 . S
C282 C283 1.391 . S
C282 C287 1.391 . S
C283 H265 0.941 . S
C283 C282 1.391 . S
C283 C284 1.396 . S
C284 H268 0.939 . S
C284 C283 1.396 . S
C284 C285 1.397 . S
C285 C284 1.397 . S
C285 C286 1.385 . S
C286 H269 0.940 . S
C286 C285 1.385 . S
C286 C287 1.388 . S
C287 H266 0.939 . S
C287 C282 1.391 . S
C287 C286 1.388 . S
P288 O299 1.490 1_565 S
P288 C302 1.812 . S
P288 C308 1.803 . S
P288 C314 1.819 . S
H289 C303 0.941 . S
H290 C304 0.939 . S
H291 C306 0.940 . S
H292 C307 0.940 . S
H293 C309 0.939 . S
H294 C310 0.942 . S
H295 C312 0.940 . S
H296 C313 0.939 . S
H297 C315 0.941 . S
H298 C319 0.939 . S
O299 P288 1.490 1_545 S
H300 C316 0.939 . S
H301 C318 0.940 . S
C302 P288 1.812 . S
C302 C303 1.389 . S
C302 C307 1.391 . S
C303 H289 0.941 . S
C303 C302 1.389 . S
C303 C304 1.397 . S
C304 H290 0.939 . S
C304 C303 1.397 . S
C304 C305 1.378 . S
C305 C304 1.378 . S
C305 C306 1.378 . S
C306 H291 0.940 . S
C306 C305 1.378 . S
C306 C307 1.396 . S
C307 H292 0.940 . S
C307 C302 1.391 . S
C307 C306 1.396 . S
C308 P288 1.803 . S
C308 C309 1.378 1_565 S
C308 C313 1.400 . S
C309 H293 0.939 . S
C309 C308 1.378 1_545 S
C309 C310 1.361 . S
C310 H294 0.942 . S
C310 C309 1.361 . S
C310 C311 1.369 . S
C311 C310 1.369 . S
C311 C312 1.404 1_545 S
C312 H295 0.940 . S
C312 C311 1.404 1_565 S
C312 C313 1.389 . S
C313 H296 0.939 . S
C313 C308 1.400 . S
C313 C312 1.389 . S
C314 P288 1.819 . S
C314 C315 1.391 . S
C314 C319 1.391 . S
C315 H297 0.941 . S
C315 C314 1.391 . S
C315 C316 1.396 . S
C316 H300 0.939 . S
C316 C315 1.396 . S
C316 C317 1.397 . S
C317 C316 1.397 . S
C317 C318 1.385 . S
C318 H301 0.940 . S
C318 C317 1.385 . S
C318 C319 1.388 . S
C319 H298 0.939 . S
C319 C314 1.391 . S
C319 C318 1.388 . S
P320 O331 1.490 . S
P320 C334 1.812 . S
P320 C340 1.803 . S
P320 C346 1.819 . S
H321 C335 0.941 . S
H322 C336 0.939 . S
H323 C338 0.940 . S
H324 C339 0.940 . S
H325 C341 0.939 . S
H326 C342 0.942 . S
H327 C344 0.940 . S
H328 C345 0.939 . S
H329 C347 0.941 . S
H330 C351 0.939 . S
O331 P320 1.490 . S
H332 C348 0.939 . S
H333 C350 0.940 . S
C334 P320 1.812 . S
C334 C335 1.389 . S
C334 C339 1.391 . S
C335 H321 0.941 . S
C335 C334 1.389 . S
C335 C336 1.397 . S
C336 H322 0.939 . S
C336 C335 1.397 . S
C336 C337 1.378 . S
C337 C336 1.378 . S
C337 C338 1.378 . S
C338 H323 0.940 . S
C338 C337 1.378 . S
C338 C339 1.396 . S
C339 H324 0.940 . S
C339 C334 1.391 . S
C339 C338 1.396 . S
C340 P320 1.803 . S
C340 C341 1.378 . S
C340 C345 1.400 . S
C341 H325 0.939 . S
C341 C340 1.378 . S
C341 C342 1.361 . S
C342 H326 0.942 . S
C342 C341 1.361 . S
C342 C343 1.369 . S
C343 C342 1.369 . S
C343 C344 1.404 . S
C344 H327 0.940 . S
C344 C343 1.404 . S
C344 C345 1.389 . S
C345 H328 0.939 . S
C345 C340 1.400 . S
C345 C344 1.389 . S
C346 P320 1.819 . S
C346 C347 1.391 . S
C346 C351 1.391 . S
C347 H329 0.941 . S
C347 C346 1.391 . S
C347 C348 1.396 . S
C348 H332 0.939 . S
C348 C347 1.396 . S
C348 C349 1.397 . S
C349 C348 1.397 . S
C349 C350 1.385 . S
C350 H333 0.940 . S
C350 C349 1.385 . S
C350 C351 1.388 . S
C351 H330 0.939 . S
C351 C346 1.391 . S
C351 C350 1.388 . S
P352 O363 1.490 . S
P352 C366 1.812 . S
P352 C372 1.803 . S
P352 C378 1.819 . S
H353 C367 0.941 . S
H354 C368 0.939 . S
H355 C370 0.940 . S
H356 C371 0.940 . S
H357 C373 0.939 . S
H358 C374 0.942 . S
H359 C376 0.940 . S
H360 C377 0.939 . S
H361 C379 0.941 . S
H362 C383 0.939 . S
O363 P352 1.490 . S
H364 C380 0.939 . S
H365 C382 0.940 . S
C366 P352 1.812 . S
C366 C367 1.389 . S
C366 C371 1.391 . S
C367 H353 0.941 . S
C367 C366 1.389 . S
C367 C368 1.397 . S
C368 H354 0.939 . S
C368 C367 1.397 . S
C368 C369 1.378 . S
C369 C368 1.378 . S
C369 C370 1.378 . S
C370 H355 0.940 . S
C370 C369 1.378 . S
C370 C371 1.396 . S
C371 H356 0.940 . S
C371 C366 1.391 . S
C371 C370 1.396 . S
C372 P352 1.803 . S
C372 C373 1.378 . S
C372 C377 1.400 . S
C373 H357 0.939 . S
C373 C372 1.378 . S
C373 C374 1.361 . S
C374 H358 0.942 . S
C374 C373 1.361 . S
C374 C375 1.369 . S
C375 C374 1.369 . S
C375 C376 1.404 . S
C376 H359 0.940 . S
C376 C375 1.404 . S
C376 C377 1.389 . S
C377 H360 0.939 . S
C377 C372 1.400 . S
C377 C376 1.389 . S
C378 P352 1.819 . S
C378 C379 1.391 . S
C378 C383 1.391 . S
C379 H361 0.941 . S
C379 C378 1.391 . S
C379 C380 1.396 . S
C380 H364 0.939 . S
C380 C379 1.396 . S
C380 C381 1.397 . S
C381 C380 1.397 . S
C381 C382 1.385 . S
C382 H365 0.940 . S
C382 C381 1.385 . S
C382 C383 1.388 . S
C383 H362 0.939 . S
C383 C378 1.391 . S
C383 C382 1.388 . S
P384 O395 1.490 . S
P384 C398 1.812 . S
P384 C404 1.803 . S
P384 C410 1.819 . S
H385 C399 0.941 . S
H386 C400 0.939 . S
H387 C402 0.940 . S
H388 C403 0.940 . S
H389 C405 0.939 . S
H390 C406 0.942 . S
H391 C408 0.940 . S
H392 C409 0.939 . S
H393 C411 0.941 . S
H394 C415 0.939 . S
O395 P384 1.490 . S
H396 C412 0.939 . S
H397 C414 0.940 . S
C398 P384 1.812 . S
C398 C399 1.389 . S
C398 C403 1.391 . S
C399 H385 0.941 . S
C399 C398 1.389 . S
C399 C400 1.397 . S
C400 H386 0.939 . S
C400 C399 1.397 . S
C400 C401 1.378 . S
C401 C400 1.378 . S
C401 C402 1.378 . S
C402 H387 0.940 . S
C402 C401 1.378 . S
C402 C403 1.396 . S
C403 H388 0.940 . S
C403 C398 1.391 . S
C403 C402 1.396 . S
C404 P384 1.803 . S
C404 C405 1.378 . S
C404 C409 1.400 . S
C405 H389 0.939 . S
C405 C404 1.378 . S
C405 C406 1.361 . S
C406 H390 0.942 . S
C406 C405 1.361 . S
C406 C407 1.369 . S
C407 C406 1.369 . S
C407 C408 1.404 . S
C408 H391 0.940 . S
C408 C407 1.404 . S
C408 C409 1.389 . S
C409 H392 0.939 . S
C409 C404 1.400 . S
C409 C408 1.389 . S
C410 P384 1.819 . S
C410 C411 1.391 . S
C410 C415 1.391 . S
C411 H393 0.941 . S
C411 C410 1.391 . S
C411 C412 1.396 . S
C412 H396 0.939 . S
C412 C411 1.396 . S
C412 C413 1.397 . S
C413 C412 1.397 . S
C413 C414 1.385 . S
C414 H397 0.940 . S
C414 C413 1.385 . S
C414 C415 1.388 . S
C415 H394 0.939 . S
C415 C410 1.391 . S
C415 C414 1.388 . S
P416 O427 1.490 . S
P416 C430 1.812 . S
P416 C436 1.803 . S
P416 C442 1.819 . S
H417 C431 0.941 . S
H418 C432 0.939 . S
H419 C434 0.940 . S
H420 C435 0.940 . S
H421 C437 0.939 . S
H422 C438 0.942 . S
H423 C440 0.940 . S
H424 C441 0.939 . S
H425 C443 0.941 . S
H426 C447 0.939 . S
O427 P416 1.490 . S
H428 C444 0.939 . S
H429 C446 0.940 . S
C430 P416 1.812 . S
C430 C431 1.389 . S
C430 C435 1.391 . S
C431 H417 0.941 . S
C431 C430 1.389 . S
C431 C432 1.397 . S
C432 H418 0.939 . S
C432 C431 1.397 . S
C432 C433 1.378 . S
C433 C432 1.378 . S
C433 C434 1.378 . S
C434 H419 0.940 . S
C434 C433 1.378 . S
C434 C435 1.396 . S
C435 H420 0.940 . S
C435 C430 1.391 . S
C435 C434 1.396 . S
C436 P416 1.803 . S
C436 C437 1.378 . S
C436 C441 1.400 . S
C437 H421 0.939 . S
C437 C436 1.378 . S
C437 C438 1.361 . S
C438 H422 0.942 . S
C438 C437 1.361 . S
C438 C439 1.369 1_556 S
C439 C438 1.369 1_554 S
C439 C440 1.404 . S
C440 H423 0.940 . S
C440 C439 1.404 . S
C440 C441 1.389 1_554 S
C441 H424 0.939 . S
C441 C436 1.400 . S
C441 C440 1.389 1_556 S
C442 P416 1.819 . S
C442 C443 1.391 . S
C442 C447 1.391 . S
C443 H425 0.941 . S
C443 C442 1.391 . S
C443 C444 1.396 . S
C444 H428 0.939 . S
C444 C443 1.396 . S
C444 C445 1.397 . S
C445 C444 1.397 . S
C445 C446 1.385 . S
C446 H429 0.940 . S
C446 C445 1.385 . S
C446 C447 1.388 . S
C447 H426 0.939 . S
C447 C442 1.391 . S
C447 C446 1.388 . S
P448 O459 1.490 . S
P448 C462 1.812 . S
P448 C468 1.803 . S
P448 C474 1.819 . S
H449 C463 0.941 . S
H450 C464 0.939 . S
H451 C466 0.940 . S
H452 C467 0.940 . S
H453 C469 0.939 . S
H454 C470 0.942 . S
H455 C472 0.940 . S
H456 C473 0.939 . S
H457 C475 0.941 . S
H458 C479 0.939 . S
O459 P448 1.490 . S
H460 C476 0.939 . S
H461 C478 0.940 . S
C462 P448 1.812 . S
C462 C463 1.389 . S
C462 C467 1.391 . S
C463 H449 0.941 . S
C463 C462 1.389 . S
C463 C464 1.397 . S
C464 H450 0.939 . S
C464 C463 1.397 . S
C464 C465 1.378 . S
C465 C464 1.378 . S
C465 C466 1.378 . S
C466 H451 0.940 . S
C466 C465 1.378 . S
C466 C467 1.396 . S
C467 H452 0.940 . S
C467 C462 1.391 . S
C467 C466 1.396 . S
C468 P448 1.803 . S
C468 C469 1.378 . S
C468 C473 1.400 . S
C469 H453 0.939 . S
C469 C468 1.378 . S
C469 C470 1.361 . S
C470 H454 0.942 . S
C470 C469 1.361 . S
C470 C471 1.369 . S
C471 C470 1.369 . S
C471 C472 1.404 . S
C472 H455 0.940 . S
C472 C471 1.404 . S
C472 C473 1.389 . S
C473 H456 0.939 . S
C473 C468 1.400 . S
C473 C472 1.389 . S
C474 P448 1.819 . S
C474 C475 1.391 . S
C474 C479 1.391 . S
C475 H457 0.941 . S
C475 C474 1.391 . S
C475 C476 1.396 . S
C476 H460 0.939 . S
C476 C475 1.396 . S
C476 C477 1.397 . S
C477 C476 1.397 . S
C477 C478 1.385 . S
C478 H461 0.940 . S
C478 C477 1.385 . S
C478 C479 1.388 . S
C479 H458 0.939 . S
C479 C474 1.391 . S
C479 C478 1.388 . S
P480 O491 1.490 1_556 S
P480 C494 1.812 . S
P480 C500 1.803 1_556 S
P480 C506 1.819 . S
H481 C495 0.941 . S
H482 C496 0.939 . S
H483 C498 0.940 . S
H484 C499 0.940 . S
H485 C501 0.939 . S
H486 C502 0.942 . S
H487 C504 0.940 . S
H488 C505 0.939 . S
H489 C507 0.941 . S
H490 C511 0.939 . S
O491 P480 1.490 1_554 S
H492 C508 0.939 . S
H493 C510 0.940 . S
C494 P480 1.812 . S
C494 C495 1.389 . S
C494 C499 1.391 . S
C495 H481 0.941 . S
C495 C494 1.389 . S
C495 C496 1.397 . S
C496 H482 0.939 . S
C496 C495 1.397 . S
C496 C497 1.378 . S
C497 C496 1.378 . S
C497 C498 1.378 . S
C498 H483 0.940 . S
C498 C497 1.378 . S
C498 C499 1.396 . S
C499 H484 0.940 . S
C499 C494 1.391 . S
C499 C498 1.396 . S
C500 P480 1.803 1_554 S
C500 C501 1.378 . S
C500 C505 1.400 1_554 S
C501 H485 0.939 . S
C501 C500 1.378 . S
C501 C502 1.361 . S
C502 H486 0.942 . S
C502 C501 1.361 . S
C502 C503 1.369 . S
C503 C502 1.369 . S
C503 C504 1.404 1_554 S
C504 H487 0.940 . S
C504 C503 1.404 1_556 S
C504 C505 1.389 . S
C505 H488 0.939 . S
C505 C500 1.400 1_556 S
C505 C504 1.389 . S
C506 P480 1.819 . S
C506 C507 1.391 1_545 S
C506 C511 1.391 . S
C507 H489 0.941 . S
C507 C506 1.391 1_565 S
C507 C508 1.396 . S
C508 H492 0.939 . S
C508 C507 1.396 . S
C508 C509 1.397 . S
C509 C508 1.397 . S
C509 C510 1.385 1_565 S
C510 H493 0.940 . S
C510 C509 1.385 1_545 S
C510 C511 1.388 . S
C511 H490 0.939 . S
C511 C506 1.391 . S
C511 C510 1.388 . S
Mn512 O517 2.095 . S
Mn512 O527 2.162 . S
Mn512 O528 2.297 . S
Mn512 O536 2.385 1_554 S
Mn512 O537 2.209 1_554 S
Mn512 O538 2.094 . S
Mn513 O518 2.121 . S
Mn513 N520 2.257 . S
Mn513 N529 2.282 . S
Mn513 O537 2.215 . S
Mn513 O539 2.117 . S
C514 O536 1.234 . S
C514 O537 1.283 . S
C515 O527 1.281 . S
C515 O528 1.236 . S
C516 O538 1.240 . S
C516 O539 1.264 1_554 S
O517 Mn512 2.095 . S
O517 C526 1.250 . S
O518 Mn513 2.121 . S
O518 C526 1.258 1_556 S
C519 N520 1.326 . S
C519 C523 1.460 . S
C519 H525 0.929 . S
N520 Mn513 2.257 . S
N520 C519 1.326 . S
N520 C524 1.362 . S
C521 C522 1.258 . S
C521 C524 1.431 . S
C521 C541 1.449 . S
C522 C521 1.258 . S
C522 C523 1.477 . S
C522 H542 0.931 . S
C523 C519 1.460 . S
C523 C522 1.477 . S
C523 H543 0.930 . S
C524 N520 1.362 . S
C524 C521 1.431 . S
C524 C534 1.476 . S
H525 C519 0.929 . S
C526 O517 1.250 . S
C526 O518 1.258 1_554 S
O527 Mn512 2.162 . S
O527 C515 1.281 . S
O528 Mn512 2.297 . S
O528 C515 1.236 . S
N529 Mn513 2.282 . S
N529 C530 1.328 . S
N529 C534 1.318 . S
C530 N529 1.328 . S
C530 C531 1.457 . S
C530 H535 0.929 . S
C531 C530 1.457 . S
C531 C532 1.291 . S
C531 H544 0.931 . S
C532 C531 1.291 . S
C532 C533 1.373 . S
C532 H545 0.929 . S
C533 C532 1.373 . S
C533 C534 1.396 . S
C533 C540 1.403 . S
C534 C524 1.476 . S
C534 N529 1.318 . S
C534 C533 1.396 . S
H535 C530 0.929 . S
O536 Mn512 2.385 1_556 S
O536 C514 1.234 . S
O537 Mn512 2.209 1_556 S
O537 Mn513 2.215 . S
O537 C514 1.283 . S
O538 Mn512 2.094 . S
O538 C516 1.240 . S
O539 Mn513 2.117 . S
O539 C516 1.264 1_556 S
C540 C533 1.403 . S
C540 C541 1.399 . S
C540 H546 0.929 . S
C541 C521 1.449 . S
C541 C540 1.399 . S
C541 H547 0.930 . S
H542 C522 0.931 . S
H543 C523 0.930 . S
H544 C531 0.931 . S
H545 C532 0.929 . S
H546 C540 0.929 . S
H547 C541 0.930 . S
Mn548 O553 2.095 . S
Mn548 O563 2.162 . S
Mn548 O564 2.297 . S
Mn548 O572 2.385 . S
Mn548 O573 2.209 . S
Mn548 O574 2.094 . S
Mn549 O554 2.121 . S
Mn549 N556 2.257 . S
Mn549 N565 2.282 . S
Mn549 O573 2.215 . S
Mn549 O575 2.117 . S
C550 O572 1.234 . S
C550 O573 1.283 . S
C551 O563 1.281 . S
C551 O564 1.236 . S
C552 O574 1.240 . S
C552 O575 1.264 . S
O553 Mn548 2.095 . S
O553 C562 1.250 . S
O554 Mn549 2.121 . S
O554 C562 1.258 . S
C555 N556 1.326 . S
C555 C559 1.460 . S
C555 H561 0.929 . S
N556 Mn549 2.257 . S
N556 C555 1.326 . S
N556 C560 1.362 . S
C557 C558 1.258 . S
C557 C560 1.431 . S
C557 C577 1.449 . S
C558 C557 1.258 . S
C558 C559 1.477 . S
C558 H578 0.931 . S
C559 C555 1.460 . S
C559 C558 1.477 . S
C559 H579 0.930 . S
C560 N556 1.362 . S
C560 C557 1.431 . S
C560 C570 1.476 . S
H561 C555 0.929 . S
C562 O553 1.250 . S
C562 O554 1.258 . S
O563 Mn548 2.162 . S
O563 C551 1.281 . S
O564 Mn548 2.297 . S
O564 C551 1.236 . S
N565 Mn549 2.282 . S
N565 C566 1.328 . S
N565 C570 1.318 . S
C566 N565 1.328 . S
C566 C567 1.457 . S
C566 H571 0.929 . S
C567 C566 1.457 . S
C567 C568 1.291 . S
C567 H580 0.931 . S
C568 C567 1.291 . S
C568 C569 1.373 . S
C568 H581 0.929 . S
C569 C568 1.373 . S
C569 C570 1.396 . S
C569 C576 1.403 . S
C570 C560 1.476 . S
C570 N565 1.318 . S
C570 C569 1.396 . S
H571 C566 0.929 . S
O572 Mn548 2.385 . S
O572 C550 1.234 . S
O573 Mn548 2.209 . S
O573 Mn549 2.215 . S
O573 C550 1.283 . S
O574 Mn548 2.094 . S
O574 C552 1.240 . S
O575 Mn549 2.117 . S
O575 C552 1.264 . S
C576 C569 1.403 . S
C576 C577 1.399 . S
C576 H582 0.929 . S
C577 C557 1.449 . S
C577 C576 1.399 . S
C577 H583 0.930 . S
H578 C558 0.931 . S
H579 C559 0.930 . S
H580 C567 0.931 . S
H581 C568 0.929 . S
H582 C576 0.929 . S
H583 C577 0.930 . S
Mn584 O589 2.095 1_554 S
Mn584 O599 2.162 . S
Mn584 O600 2.297 1_554 S
Mn584 O608 2.385 . S
Mn584 O609 2.209 1_554 S
Mn584 O610 2.094 . S
Mn585 O590 2.121 . S
Mn585 N592 2.257 . S
Mn585 N601 2.282 . S
Mn585 O609 2.215 . S
Mn585 O611 2.117 1_556 S
C586 O608 1.219 1_556 S
C586 O609 1.294 . S
C587 O599 1.281 . S
C587 O600 1.236 1_554 S
C588 O610 1.240 . S
C588 O611 1.264 . S
O589 Mn584 2.095 1_556 S
O589 C598 1.250 . S
O590 Mn585 2.121 . S
O590 C598 1.258 . S
C591 N592 1.326 . S
C591 C595 1.460 . S
C591 H597 0.929 . S
N592 Mn585 2.257 . S
N592 C591 1.326 . S
N592 C596 1.362 . S
C593 C594 1.258 . S
C593 C596 1.431 . S
C593 C613 1.449 . S
C594 C593 1.258 . S
C594 C595 1.477 . S
C594 H614 0.931 . S
C595 C591 1.460 . S
C595 C594 1.477 . S
C595 H615 0.930 . S
C596 N592 1.362 . S
C596 C593 1.431 . S
C596 C606 1.476 . S
H597 C591 0.929 . S
C598 O589 1.250 . S
C598 O590 1.258 . S
O599 Mn584 2.162 . S
O599 C587 1.281 . S
O600 Mn584 2.297 1_556 S
O600 C587 1.236 1_556 S
N601 Mn585 2.282 . S
N601 C602 1.328 1_556 S
N601 C606 1.318 . S
C602 N601 1.328 1_554 S
C602 C603 1.457 . S
C602 H607 0.929 . S
C603 C602 1.457 . S
C603 C604 1.291 . S
C603 H616 0.931 . S
C604 C603 1.291 . S
C604 C605 1.373 1_554 S
C604 H617 0.929 . S
C605 C604 1.373 1_556 S
C605 C606 1.396 . S
C605 C612 1.403 . S
C606 C596 1.476 . S
C606 N601 1.318 . S
C606 C605 1.396 . S
H607 C602 0.929 . S
O608 Mn584 2.385 . S
O608 C586 1.219 1_554 S
O609 Mn584 2.209 1_556 S
O609 Mn585 2.215 . S
O609 C586 1.294 . S
O610 Mn584 2.094 . S
O610 C588 1.240 . S
O611 Mn585 2.117 1_554 S
O611 C588 1.264 . S
C612 C605 1.403 . S
C612 C613 1.399 . S
C612 H618 0.929 . S
C613 C593 1.449 . S
C613 C612 1.399 . S
C613 H619 0.930 . S
H614 C594 0.931 . S
H615 C595 0.930 . S
H616 C603 0.931 . S
H617 C604 0.929 . S
H618 C612 0.929 . S
H619 C613 0.930 . S
Mn620 O625 2.095 . S
Mn620 O635 2.162 . S
Mn620 O636 2.297 . S
Mn620 O644 2.385 1_545 S
Mn620 O645 2.209 1_545 S
Mn620 O646 2.094 . S
Mn621 O626 2.121 . S
Mn621 N628 2.257 . S
Mn621 N637 2.282 . S
Mn621 O645 2.215 . S
Mn621 O647 2.117 . S
C622 O644 1.234 . S
C622 O645 1.283 . S
C623 O635 1.281 . S
C623 O636 1.236 . S
C624 O646 1.240 . S
C624 O647 1.264 1_545 S
O625 Mn620 2.095 . S
O625 C634 1.254 1_545 S
O626 Mn621 2.121 . S
O626 C634 1.252 . S
C627 N628 1.326 . S
C627 C631 1.460 . S
C627 H633 0.929 . S
N628 Mn621 2.257 . S
N628 C627 1.326 . S
N628 C632 1.362 . S
C629 C630 1.258 . S
C629 C632 1.431 . S
C629 C649 1.449 . S
C630 C629 1.258 . S
C630 C631 1.477 . S
C630 H650 0.931 . S
C631 C627 1.460 . S
C631 C630 1.477 . S
C631 H651 0.930 . S
C632 N628 1.362 . S
C632 C629 1.431 . S
C632 C642 1.476 . S
H633 C627 0.929 . S
C634 O625 1.254 1_565 S
C634 O626 1.252 . S
O635 Mn620 2.162 . S
O635 C623 1.281 . S
O636 Mn620 2.297 . S
O636 C623 1.236 . S
N637 Mn621 2.282 . S
N637 C638 1.328 . S
N637 C642 1.318 . S
C638 N637 1.328 . S
C638 C639 1.457 . S
C638 H643 0.929 . S
C639 C638 1.457 . S
C639 C640 1.291 . S
C639 H652 0.931 . S
C640 C639 1.291 . S
C640 C641 1.373 . S
C640 H653 0.929 . S
C641 C640 1.373 . S
C641 C642 1.396 . S
C641 C648 1.403 . S
C642 C632 1.476 . S
C642 N637 1.318 . S
C642 C641 1.396 . S
H643 C638 0.929 . S
O644 Mn620 2.385 1_565 S
O644 C622 1.234 . S
O645 Mn620 2.209 1_565 S
O645 Mn621 2.215 . S
O645 C622 1.283 . S
O646 Mn620 2.094 . S
O646 C624 1.240 . S
O647 Mn621 2.117 . S
O647 C624 1.264 1_565 S
C648 C641 1.403 . S
C648 C649 1.399 . S
C648 H654 0.929 . S
C649 C629 1.449 . S
C649 C648 1.399 . S
C649 H655 0.930 . S
H650 C630 0.931 . S
H651 C631 0.930 . S
H652 C639 0.931 . S
H653 C640 0.929 . S
H654 C648 0.929 . S
H655 C649 0.930 . S
Mn656 O661 2.095 . S
Mn656 O671 2.162 . S
Mn656 O672 2.297 . S
Mn656 O680 2.385 . S
Mn656 O681 2.209 . S
Mn656 O682 2.094 . S
Mn657 O662 2.121 . S
Mn657 N664 2.257 . S
Mn657 N673 2.282 . S
Mn657 O681 2.215 . S
Mn657 O683 2.117 . S
C658 O680 1.234 . S
C658 O681 1.283 . S
C659 O671 1.281 . S
C659 O672 1.236 . S
C660 O682 1.240 . S
C660 O683 1.264 . S
O661 Mn656 2.095 . S
O661 C670 1.250 . S
O662 Mn657 2.121 . S
O662 C670 1.258 . S
C663 N664 1.326 . S
C663 C667 1.460 . S
C663 H669 0.929 . S
N664 Mn657 2.257 . S
N664 C663 1.326 . S
N664 C668 1.362 . S
C665 C666 1.258 . S
C665 C668 1.431 . S
C665 C685 1.449 . S
C666 C665 1.258 . S
C666 C667 1.477 . S
C666 H686 0.931 . S
C667 C663 1.460 . S
C667 C666 1.477 . S
C667 H687 0.930 . S
C668 N664 1.362 . S
C668 C665 1.431 . S
C668 C678 1.476 . S
H669 C663 0.929 . S
C670 O661 1.250 . S
C670 O662 1.258 . S
O671 Mn656 2.162 . S
O671 C659 1.281 . S
O672 Mn656 2.297 . S
O672 C659 1.236 . S
N673 Mn657 2.282 . S
N673 C674 1.328 . S
N673 C678 1.318 . S
C674 N673 1.328 . S
C674 C675 1.457 . S
C674 H679 0.929 . S
C675 C674 1.457 . S
C675 C676 1.291 . S
C675 H688 0.931 . S
C676 C675 1.291 . S
C676 C677 1.373 . S
C676 H689 0.929 . S
C677 C676 1.373 . S
C677 C678 1.396 . S
C677 C684 1.403 . S
C678 C668 1.476 . S
C678 N673 1.318 . S
C678 C677 1.396 . S
H679 C674 0.929 . S
O680 Mn656 2.385 . S
O680 C658 1.234 . S
O681 Mn656 2.209 . S
O681 Mn657 2.215 . S
O681 C658 1.283 . S
O682 Mn656 2.094 . S
O682 C660 1.240 . S
O683 Mn657 2.117 . S
O683 C660 1.264 . S
C684 C677 1.403 . S
C684 C685 1.399 . S
C684 H690 0.929 . S
C685 C665 1.449 . S
C685 C684 1.399 . S
C685 H691 0.930 . S
H686 C666 0.931 . S
H687 C667 0.930 . S
H688 C675 0.931 . S
H689 C676 0.929 . S
H690 C684 0.929 . S
H691 C685 0.930 . S
Mn692 O697 2.095 . S
Mn692 O707 2.162 . S
Mn692 O708 2.297 . S
Mn692 O716 2.385 . S
Mn692 O717 2.209 . S
Mn692 O718 2.094 . S
Mn693 O698 2.121 . S
Mn693 N700 2.257 . S
Mn693 N709 2.282 . S
Mn693 O717 2.215 . S
Mn693 O719 2.117 . S
C694 O716 1.234 . S
C694 O717 1.283 . S
C695 O707 1.281 . S
C695 O708 1.236 . S
C696 O718 1.240 . S
C696 O719 1.264 . S
O697 Mn692 2.095 . S
O697 C706 1.250 . S
O698 Mn693 2.121 . S
O698 C706 1.258 . S
C699 N700 1.326 . S
C699 C703 1.460 . S
C699 H705 0.929 . S
N700 Mn693 2.257 . S
N700 C699 1.326 . S
N700 C704 1.362 . S
C701 C702 1.258 . S
C701 C704 1.431 . S
C701 C721 1.449 . S
C702 C701 1.258 . S
C702 C703 1.477 . S
C702 H722 0.931 . S
C703 C699 1.460 . S
C703 C702 1.477 . S
C703 H723 0.930 . S
C704 N700 1.362 . S
C704 C701 1.431 . S
C704 C714 1.476 . S
H705 C699 0.929 . S
C706 O697 1.250 . S
C706 O698 1.258 . S
O707 Mn692 2.162 . S
O707 C695 1.281 . S
O708 Mn692 2.297 . S
O708 C695 1.236 . S
N709 Mn693 2.282 . S
N709 C710 1.328 . S
N709 C714 1.318 . S
C710 N709 1.328 . S
C710 C711 1.457 . S
C710 H715 0.929 . S
C711 C710 1.457 . S
C711 C712 1.291 . S
C711 H724 0.931 . S
C712 C711 1.291 . S
C712 C713 1.373 . S
C712 H725 0.929 . S
C713 C712 1.373 . S
C713 C714 1.396 . S
C713 C720 1.403 . S
C714 C704 1.476 . S
C714 N709 1.318 . S
C714 C713 1.396 . S
H715 C710 0.929 . S
O716 Mn692 2.385 . S
O716 C694 1.234 . S
O717 Mn692 2.209 . S
O717 Mn693 2.215 . S
O717 C694 1.283 . S
O718 Mn692 2.094 . S
O718 C696 1.240 . S
O719 Mn693 2.117 . S
O719 C696 1.264 . S
C720 C713 1.403 . S
C720 C721 1.399 . S
C720 H726 0.929 . S
C721 C701 1.449 . S
C721 C720 1.399 . S
C721 H727 0.930 . S
H722 C702 0.931 . S
H723 C703 0.930 . S
H724 C711 0.931 . S
H725 C712 0.929 . S
H726 C720 0.929 . S
H727 C721 0.930 . S
Mn728 O733 2.095 . S
Mn728 O743 2.162 . S
Mn728 O744 2.297 . S
Mn728 O752 2.385 . S
Mn728 O753 2.209 . S
Mn728 O754 2.094 . S
Mn729 O734 2.121 . S
Mn729 N736 2.257 . S
Mn729 N745 2.282 . S
Mn729 O753 2.215 . S
Mn729 O755 2.117 . S
C730 O752 1.234 . S
C730 O753 1.283 . S
C731 O743 1.281 . S
C731 O744 1.236 . S
C732 O754 1.240 . S
C732 O755 1.264 . S
O733 Mn728 2.095 . S
O733 C742 1.250 . S
O734 Mn729 2.121 . S
O734 C742 1.258 . S
C735 N736 1.326 . S
C735 C739 1.460 . S
C735 H741 0.929 . S
N736 Mn729 2.257 . S
N736 C735 1.326 . S
N736 C740 1.362 . S
C737 C738 1.258 . S
C737 C740 1.431 . S
C737 C757 1.449 . S
C738 C737 1.258 . S
C738 C739 1.477 . S
C738 H758 0.931 . S
C739 C735 1.460 . S
C739 C738 1.477 . S
C739 H759 0.930 . S
C740 N736 1.362 . S
C740 C737 1.431 . S
C740 C750 1.476 . S
H741 C735 0.929 . S
C742 O733 1.250 . S
C742 O734 1.258 . S
O743 Mn728 2.162 . S
O743 C731 1.281 . S
O744 Mn728 2.297 . S
O744 C731 1.236 . S
N745 Mn729 2.282 . S
N745 C746 1.328 . S
N745 C750 1.318 . S
C746 N745 1.328 . S
C746 C747 1.457 . S
C746 H751 0.929 . S
C747 C746 1.457 . S
C747 C748 1.291 . S
C747 H760 0.931 . S
C748 C747 1.291 . S
C748 C749 1.373 . S
C748 H761 0.929 . S
C749 C748 1.373 . S
C749 C750 1.396 . S
C749 C756 1.403 . S
C750 C740 1.476 . S
C750 N745 1.318 . S
C750 C749 1.396 . S
H751 C746 0.929 . S
O752 Mn728 2.385 . S
O752 C730 1.234 . S
O753 Mn728 2.209 . S
O753 Mn729 2.215 . S
O753 C730 1.283 . S
O754 Mn728 2.094 . S
O754 C732 1.240 . S
O755 Mn729 2.117 . S
O755 C732 1.264 . S
C756 C749 1.403 . S
C756 C757 1.399 . S
C756 H762 0.929 . S
C757 C737 1.449 . S
C757 C756 1.399 . S
C757 H763 0.930 . S
H758 C738 0.931 . S
H759 C739 0.930 . S
H760 C747 0.931 . S
H761 C748 0.929 . S
H762 C756 0.929 . S
H763 C757 0.930 . S
Mn764 O769 2.095 . S
Mn764 O779 2.162 . S
Mn764 O780 2.297 . S
Mn764 O788 2.385 1_565 S
Mn764 O789 2.209 1_565 S
Mn764 O790 2.094 . S
Mn765 O770 2.121 . S
Mn765 N772 2.257 . S
Mn765 N781 2.282 . S
Mn765 O789 2.215 . S
Mn765 O791 2.117 . S
C766 O788 1.234 . S
C766 O789 1.283 . S
C767 O779 1.281 . S
C767 O780 1.236 . S
C768 O790 1.207 1_545 S
C768 O791 1.307 . S
O769 Mn764 2.095 . S
O769 C778 1.250 1_565 S
O770 Mn765 2.121 . S
O770 C778 1.258 . S
C771 N772 1.326 . S
C771 C775 1.460 . S
C771 H777 0.929 . S
N772 Mn765 2.257 . S
N772 C771 1.326 . S
N772 C776 1.362 . S
C773 C774 1.258 . S
C773 C776 1.431 . S
C773 C793 1.449 . S
C774 C773 1.258 . S
C774 C775 1.477 . S
C774 H794 0.931 . S
C775 C771 1.460 . S
C775 C774 1.477 . S
C775 H795 0.930 . S
C776 N772 1.362 . S
C776 C773 1.431 . S
C776 C786 1.476 . S
H777 C771 0.929 . S
C778 O769 1.250 1_545 S
C778 O770 1.258 . S
O779 Mn764 2.162 . S
O779 C767 1.281 . S
O780 Mn764 2.297 . S
O780 C767 1.236 . S
N781 Mn765 2.282 . S
N781 C782 1.328 . S
N781 C786 1.318 . S
C782 N781 1.328 . S
C782 C783 1.457 . S
C782 H787 0.929 . S
C783 C782 1.457 . S
C783 C784 1.291 . S
C783 H796 0.931 . S
C784 C783 1.291 . S
C784 C785 1.373 . S
C784 H797 0.929 . S
C785 C784 1.373 . S
C785 C786 1.396 . S
C785 C792 1.403 . S
C786 C776 1.476 . S
C786 N781 1.318 . S
C786 C785 1.396 . S
H787 C782 0.929 . S
O788 Mn764 2.385 1_545 S
O788 C766 1.234 . S
O789 Mn764 2.209 1_545 S
O789 Mn765 2.215 . S
O789 C766 1.283 . S
O790 Mn764 2.094 . S
O790 C768 1.207 1_565 S
O791 Mn765 2.117 . S
O791 C768 1.307 . S
C792 C785 1.403 . S
C792 C793 1.399 . S
C792 H798 0.929 . S
C793 C773 1.449 . S
C793 C792 1.399 . S
C793 H799 0.930 . S
H794 C774 0.931 . S
H795 C775 0.930 . S
H796 C783 0.931 . S
H797 C784 0.929 . S
H798 C792 0.929 . S
H799 C793 0.930 . S
Mn800 O805 2.095 . S
Mn800 O815 2.162 . S
Mn800 O816 2.297 . S
Mn800 O824 2.385 1_455 S
Mn800 O825 2.209 1_455 S
Mn800 O826 2.094 . S
Mn801 O806 2.121 . S
Mn801 N808 2.257 . S
Mn801 N817 2.282 . S
Mn801 O825 2.215 . S
Mn801 O827 2.117 . S
C802 O824 1.234 . S
C802 O825 1.283 . S
C803 O815 1.281 . S
C803 O816 1.236 . S
C804 O826 1.240 . S
C804 O827 1.264 1_455 S
O805 Mn800 2.095 . S
O805 C814 1.233 1_455 S
O806 Mn801 2.121 . S
O806 C814 1.280 . S
C807 N808 1.326 . S
C807 C811 1.460 . S
C807 H813 0.929 . S
N808 Mn801 2.257 . S
N808 C807 1.326 . S
N808 C812 1.362 . S
C809 C810 1.258 . S
C809 C812 1.431 . S
C809 C829 1.449 . S
C810 C809 1.258 . S
C810 C811 1.477 . S
C810 H830 0.931 . S
C811 C807 1.460 . S
C811 C810 1.477 . S
C811 H831 0.930 . S
C812 N808 1.362 . S
C812 C809 1.431 . S
C812 C822 1.476 . S
H813 C807 0.929 . S
C814 O805 1.233 1_655 S
C814 O806 1.280 . S
O815 Mn800 2.162 . S
O815 C803 1.281 . S
O816 Mn800 2.297 . S
O816 C803 1.236 . S
N817 Mn801 2.282 . S
N817 C818 1.328 . S
N817 C822 1.318 . S
C818 N817 1.328 . S
C818 C819 1.457 . S
C818 H823 0.929 . S
C819 C818 1.457 . S
C819 C820 1.291 . S
C819 H832 0.931 . S
C820 C819 1.291 . S
C820 C821 1.373 . S
C820 H833 0.929 . S
C821 C820 1.373 . S
C821 C822 1.396 . S
C821 C828 1.403 . S
C822 C812 1.476 . S
C822 N817 1.318 . S
C822 C821 1.396 . S
H823 C818 0.929 . S
O824 Mn800 2.385 1_655 S
O824 C802 1.234 . S
O825 Mn800 2.209 1_655 S
O825 Mn801 2.215 . S
O825 C802 1.283 . S
O826 Mn800 2.094 . S
O826 C804 1.240 . S
O827 Mn801 2.117 . S
O827 C804 1.264 1_655 S
C828 C821 1.403 . S
C828 C829 1.399 . S
C828 H834 0.929 . S
C829 C809 1.449 . S
C829 C828 1.399 . S
C829 H835 0.930 . S
H830 C810 0.931 . S
H831 C811 0.930 . S
H832 C819 0.931 . S
H833 C820 0.929 . S
H834 C828 0.929 . S
H835 C829 0.930 . S
Mn836 O841 2.095 . S
Mn836 O851 2.162 . S
Mn836 O852 2.297 . S
Mn836 O860 2.385 . S
Mn836 O861 2.209 . S
Mn836 O862 2.094 . S
Mn837 O842 2.121 . S
Mn837 N844 2.257 . S
Mn837 N853 2.282 . S
Mn837 O861 2.215 . S
Mn837 O863 2.117 . S
C838 O860 1.234 . S
C838 O861 1.283 . S
C839 O851 1.281 . S
C839 O852 1.236 . S
C840 O862 1.240 . S
C840 O863 1.264 . S
O841 Mn836 2.095 . S
O841 C850 1.250 . S
O842 Mn837 2.121 . S
O842 C850 1.258 . S
C843 N844 1.326 . S
C843 C847 1.460 . S
C843 H849 0.929 . S
N844 Mn837 2.257 . S
N844 C843 1.326 . S
N844 C848 1.362 . S
C845 C846 1.258 . S
C845 C848 1.431 . S
C845 C865 1.449 . S
C846 C845 1.258 . S
C846 C847 1.477 . S
C846 H866 0.931 . S
C847 C843 1.460 . S
C847 C846 1.477 . S
C847 H867 0.930 . S
C848 N844 1.362 . S
C848 C845 1.431 . S
C848 C858 1.476 . S
H849 C843 0.929 . S
C850 O841 1.250 . S
C850 O842 1.258 . S
O851 Mn836 2.162 . S
O851 C839 1.281 . S
O852 Mn836 2.297 . S
O852 C839 1.236 . S
N853 Mn837 2.282 . S
N853 C854 1.328 . S
N853 C858 1.318 . S
C854 N853 1.328 . S
C854 C855 1.457 . S
C854 H859 0.929 . S
C855 C854 1.457 . S
C855 C856 1.291 . S
C855 H868 0.931 . S
C856 C855 1.291 . S
C856 C857 1.373 . S
C856 H869 0.929 . S
C857 C856 1.373 . S
C857 C858 1.396 . S
C857 C864 1.403 . S
C858 C848 1.476 . S
C858 N853 1.318 . S
C858 C857 1.396 . S
H859 C854 0.929 . S
O860 Mn836 2.385 . S
O860 C838 1.234 . S
O861 Mn836 2.209 . S
O861 Mn837 2.215 . S
O861 C838 1.283 . S
O862 Mn836 2.094 . S
O862 C840 1.240 . S
O863 Mn837 2.117 . S
O863 C840 1.264 . S
C864 C857 1.403 . S
C864 C865 1.399 . S
C864 H870 0.929 . S
C865 C845 1.449 . S
C865 C864 1.399 . S
C865 H871 0.930 . S
H866 C846 0.931 . S
H867 C847 0.930 . S
H868 C855 0.931 . S
H869 C856 0.929 . S
H870 C864 0.929 . S
H871 C865 0.930 . S
Mn872 O877 2.095 1_455 S
Mn872 O887 2.162 . S
Mn872 O888 2.297 1_455 S
Mn872 O896 2.385 . S
Mn872 O897 2.209 1_455 S
Mn872 O898 2.094 . S
Mn873 O878 2.121 . S
Mn873 N880 2.257 . S
Mn873 N889 2.275 1_655 S
Mn873 O897 2.215 . S
Mn873 O899 2.117 1_655 S
C874 O896 1.234 . S
C874 O897 1.283 1_455 S
C875 O887 1.281 . S
C875 O888 1.236 1_455 S
C876 O898 1.240 . S
C876 O899 1.264 . S
O877 Mn872 2.095 1_655 S
O877 C886 1.250 . S
O878 Mn873 2.121 . S
O878 C886 1.258 . S
C879 N880 1.326 . S
C879 C883 1.460 . S
C879 H885 0.929 . S
N880 Mn873 2.257 . S
N880 C879 1.326 . S
N880 C884 1.362 . S
C881 C882 1.258 . S
C881 C884 1.431 . S
C881 C901 1.449 . S
C882 C881 1.258 . S
C882 C883 1.477 . S
C882 H902 0.931 . S
C883 C879 1.460 . S
C883 C882 1.477 . S
C883 H903 0.930 . S
C884 N880 1.362 . S
C884 C881 1.431 . S
C884 C894 1.476 . S
H885 C879 0.929 . S
C886 O877 1.250 . S
C886 O878 1.258 . S
O887 Mn872 2.162 . S
O887 C875 1.281 . S
O888 Mn872 2.297 1_655 S
O888 C875 1.236 1_655 S
N889 Mn873 2.275 1_455 S
N889 C890 1.346 . S
N889 C894 1.306 1_455 S
C890 N889 1.346 . S
C890 C891 1.457 . S
C890 H895 0.929 . S
C891 C890 1.457 . S
C891 C892 1.291 . S
C891 H904 0.931 . S
C892 C891 1.291 . S
C892 C893 1.373 1_455 S
C892 H905 0.929 . S
C893 C892 1.373 1_655 S
C893 C894 1.396 . S
C893 C900 1.403 . S
C894 C884 1.476 . S
C894 N889 1.306 1_655 S
C894 C893 1.396 . S
H895 C890 0.929 . S
O896 Mn872 2.385 . S
O896 C874 1.234 . S
O897 Mn872 2.209 1_655 S
O897 Mn873 2.215 . S
O897 C874 1.283 1_655 S
O898 Mn872 2.094 . S
O898 C876 1.240 . S
O899 Mn873 2.117 1_455 S
O899 C876 1.264 . S
C900 C893 1.403 . S
C900 C901 1.399 . S
C900 H906 0.929 . S
C901 C881 1.449 . S
C901 C900 1.399 . S
C901 H907 0.930 . S
H902 C882 0.931 . S
H903 C883 0.930 . S
H904 C891 0.931 . S
H905 C892 0.929 . S
H906 C900 0.929 . S
H907 C901 0.930 . S
Mn908 O913 2.095 . S
Mn908 O923 2.162 . S
Mn908 O924 2.297 . S
Mn908 O932 2.385 . S
Mn908 O933 2.209 . S
Mn908 O934 2.094 . S
Mn909 O914 2.121 . S
Mn909 N916 2.257 . S
Mn909 N925 2.282 . S
Mn909 O933 2.215 . S
Mn909 O935 2.117 . S
C910 O932 1.234 . S
C910 O933 1.283 . S
C911 O923 1.281 . S
C911 O924 1.236 . S
C912 O934 1.240 . S
C912 O935 1.264 . S
O913 Mn908 2.095 . S
O913 C922 1.250 . S
O914 Mn909 2.121 . S
O914 C922 1.258 . S
C915 N916 1.326 . S
C915 C919 1.460 . S
C915 H921 0.929 . S
N916 Mn909 2.257 . S
N916 C915 1.326 . S
N916 C920 1.362 . S
C917 C918 1.258 . S
C917 C920 1.431 . S
C917 C937 1.449 . S
C918 C917 1.258 . S
C918 C919 1.477 . S
C918 H938 0.931 . S
C919 C915 1.460 . S
C919 C918 1.477 . S
C919 H939 0.930 . S
C920 N916 1.362 . S
C920 C917 1.431 . S
C920 C930 1.476 . S
H921 C915 0.929 . S
C922 O913 1.250 . S
C922 O914 1.258 . S
O923 Mn908 2.162 . S
O923 C911 1.281 . S
O924 Mn908 2.297 . S
O924 C911 1.236 . S
N925 Mn909 2.282 . S
N925 C926 1.328 . S
N925 C930 1.318 . S
C926 N925 1.328 . S
C926 C927 1.457 . S
C926 H931 0.929 . S
C927 C926 1.457 . S
C927 C928 1.291 . S
C927 H940 0.931 . S
C928 C927 1.291 . S
C928 C929 1.373 . S
C928 H941 0.929 . S
C929 C928 1.373 . S
C929 C930 1.396 . S
C929 C936 1.403 . S
C930 C920 1.476 . S
C930 N925 1.318 . S
C930 C929 1.396 . S
H931 C926 0.929 . S
O932 Mn908 2.385 . S
O932 C910 1.234 . S
O933 Mn908 2.209 . S
O933 Mn909 2.215 . S
O933 C910 1.283 . S
O934 Mn908 2.094 . S
O934 C912 1.240 . S
O935 Mn909 2.117 . S
O935 C912 1.264 . S
C936 C929 1.403 . S
C936 C937 1.399 . S
C936 H942 0.929 . S
C937 C917 1.449 . S
C937 C936 1.399 . S
C937 H943 0.930 . S
H938 C918 0.931 . S
H939 C919 0.930 . S
H940 C927 0.931 . S
H941 C928 0.929 . S
H942 C936 0.929 . S
H943 C937 0.930 . S
H944 C950 0.930 . S
H945 C954 0.930 . S
H946 C959 0.929 . S
H947 C957 0.929 . S
H948 C952 0.929 . S
H949 C958 0.929 . S
C950 H944 0.930 . S
C950 C951 1.367 . S
C950 C958 1.378 . S
C951 C950 1.367 . S
C951 C959 1.433 . S
C952 H948 0.929 . S
C952 C954 1.378 . S
C952 C956 1.350 . S
C953 C956 1.463 . S
C953 C958 1.350 . S
C953 N961 1.427 . S
C954 H945 0.930 . S
C954 C952 1.378 . S
C954 C955 1.367 . S
C955 C954 1.367 . S
C955 C957 1.433 . S
C956 C952 1.350 . S
C956 C953 1.463 . S
C956 N960 1.427 . S
C957 H947 0.929 . S
C957 C955 1.433 . S
C957 N960 1.384 . S
C958 H949 0.929 . S
C958 C950 1.378 . S
C958 C953 1.350 . S
C959 H946 0.929 . S
C959 C951 1.433 . S
C959 N961 1.384 . S
N960 C956 1.427 . S
N960 C957 1.384 . S
N961 C953 1.427 . S
N961 C959 1.384 . S
H962 C968 0.930 . S
H963 C972 0.930 . S
H964 C977 0.929 . S
H965 C975 0.929 . S
H966 C970 0.929 . S
H967 C976 0.929 . S
C968 H962 0.930 . S
C968 C969 1.367 . S
C968 C976 1.378 . S
C969 C968 1.367 . S
C969 C977 1.433 . S
C970 H966 0.929 . S
C970 C972 1.378 . S
C970 C974 1.350 . S
C971 C974 1.463 . S
C971 C976 1.350 . S
C971 N979 1.427 . S
C972 H963 0.930 . S
C972 C970 1.378 . S
C972 C973 1.367 . S
C973 C972 1.367 . S
C973 C975 1.433 . S
C974 C970 1.350 . S
C974 C971 1.463 . S
C974 N978 1.427 . S
C975 H965 0.929 . S
C975 C973 1.433 . S
C975 N978 1.384 . S
C976 H967 0.929 . S
C976 C968 1.378 . S
C976 C971 1.350 . S
C977 H964 0.929 . S
C977 C969 1.433 . S
C977 N979 1.384 . S
N978 C974 1.427 . S
N978 C975 1.384 . S
N979 C971 1.427 . S
N979 C977 1.384 . S
H980 C986 0.930 . S
H981 C990 0.930 . S
H982 C995 0.929 . S
H983 C993 0.929 . S
H984 C988 0.929 . S
H985 C994 0.929 . S
C986 H980 0.930 . S
C986 C987 1.367 . S
C986 C994 1.378 . S
C987 C986 1.367 . S
C987 C995 1.433 . S
C988 H984 0.929 . S
C988 C990 1.378 . S
C988 C992 1.350 . S
C989 C992 1.463 . S
C989 C994 1.350 . S
C989 N997 1.427 . S
C990 H981 0.930 . S
C990 C988 1.378 . S
C990 C991 1.367 . S
C991 C990 1.367 . S
C991 C993 1.433 . S
C992 C988 1.350 . S
C992 C989 1.463 . S
C992 N996 1.427 . S
C993 H983 0.929 . S
C993 C991 1.433 . S
C993 N996 1.384 . S
C994 H985 0.929 . S
C994 C986 1.378 . S
C994 C989 1.350 . S
C995 H982 0.929 . S
C995 C987 1.433 . S
C995 N997 1.384 . S
N996 C992 1.427 . S
N996 C993 1.384 . S
N997 C989 1.427 . S
N997 C995 1.384 . S
H998 C1004 0.930 . S
H999 C1008 0.930 . S
H1000 C1013 0.929 . S
H1001 C1011 0.929 . S
H1002 C1006 0.929 . S
H1003 C1012 0.929 . S
C1004 H998 0.930 . S
C1004 C1005 1.367 1_545 S
C1004 C1012 1.378 . S
C1005 C1004 1.367 1_565 S
C1005 C1013 1.433 . S
C1006 H1002 0.929 . S
C1006 C1008 1.378 . S
C1006 C1010 1.350 . S
C1007 C1010 1.463 . S
C1007 C1012 1.350 1_565 S
C1007 N1015 1.427 . S
C1008 H999 0.930 . S
C1008 C1006 1.378 . S
C1008 C1009 1.334 1_565 S
C1009 C1008 1.334 1_545 S
C1009 C1011 1.460 . S
C1010 C1006 1.350 . S
C1010 C1007 1.463 . S
C1010 N1014 1.427 1_565 S
C1011 H1001 0.929 . S
C1011 C1009 1.460 . S
C1011 N1014 1.384 . S
C1012 H1003 0.929 . S
C1012 C1004 1.378 . S
C1012 C1007 1.350 1_545 S
C1013 H1000 0.929 . S
C1013 C1005 1.433 . S
C1013 N1015 1.384 . S
N1014 C1010 1.427 1_545 S
N1014 C1011 1.384 . S
N1015 C1007 1.427 . S
N1015 C1013 1.384 . S
H1016 C1022 0.930 . S
H1017 C1026 0.930 . S
H1018 C1031 0.929 . S
H1019 C1029 0.929 . S
H1020 C1024 0.929 . S
H1021 C1030 0.929 . S
C1022 H1016 0.930 . S
C1022 C1023 1.367 . S
C1022 C1030 1.378 . S
C1023 C1022 1.367 . S
C1023 C1031 1.433 . S
C1024 H1020 0.929 . S
C1024 C1026 1.378 . S
C1024 C1028 1.350 . S
C1025 C1028 1.463 . S
C1025 C1030 1.350 . S
C1025 N1033 1.427 . S
C1026 H1017 0.930 . S
C1026 C1024 1.378 . S
C1026 C1027 1.367 . S
C1027 C1026 1.367 . S
C1027 C1029 1.433 . S
C1028 C1024 1.350 . S
C1028 C1025 1.463 . S
C1028 N1032 1.427 . S
C1029 H1019 0.929 . S
C1029 C1027 1.433 . S
C1029 N1032 1.384 . S
C1030 H1021 0.929 . S
C1030 C1022 1.378 . S
C1030 C1025 1.350 . S
C1031 H1018 0.929 . S
C1031 C1023 1.433 . S
C1031 N1033 1.384 . S
N1032 C1028 1.427 . S
N1032 C1029 1.384 . S
N1033 C1025 1.427 . S
N1033 C1031 1.384 . S
H1034 C1040 0.930 . S
H1035 C1044 0.930 . S
H1036 C1049 0.929 . S
H1037 C1047 0.929 . S
H1038 C1042 0.929 . S
H1039 C1048 0.929 . S
C1040 H1034 0.930 . S
C1040 C1041 1.367 . S
C1040 C1048 1.378 . S
C1041 C1040 1.367 . S
C1041 C1049 1.433 . S
C1042 H1038 0.929 . S
C1042 C1044 1.378 . S
C1042 C1046 1.350 . S
C1043 C1046 1.463 . S
C1043 C1048 1.350 . S
C1043 N1051 1.427 . S
C1044 H1035 0.930 . S
C1044 C1042 1.378 . S
C1044 C1045 1.367 . S
C1045 C1044 1.367 . S
C1045 C1047 1.433 . S
C1046 C1042 1.350 . S
C1046 C1043 1.463 . S
C1046 N1050 1.427 . S
C1047 H1037 0.929 . S
C1047 C1045 1.433 . S
C1047 N1050 1.384 . S
C1048 H1039 0.929 . S
C1048 C1040 1.378 . S
C1048 C1043 1.350 . S
C1049 H1036 0.929 . S
C1049 C1041 1.433 . S
C1049 N1051 1.384 . S
N1050 C1046 1.427 . S
N1050 C1047 1.384 . S
N1051 C1043 1.427 . S
N1051 C1049 1.384 . S
H1052 C1058 0.930 . S
H1053 C1062 0.930 . S
H1054 C1067 0.929 . S
H1055 C1065 0.929 . S
H1056 C1060 0.929 . S
H1057 C1066 0.929 . S
C1058 H1052 0.930 . S
C1058 C1059 1.367 . S
C1058 C1066 1.378 . S
C1059 C1058 1.367 . S
C1059 C1067 1.433 . S
C1060 H1056 0.929 . S
C1060 C1062 1.378 . S
C1060 C1064 1.350 . S
C1061 C1064 1.463 . S
C1061 C1066 1.350 . S
C1061 N1069 1.427 . S
C1062 H1053 0.930 . S
C1062 C1060 1.378 . S
C1062 C1063 1.367 . S
C1063 C1062 1.367 . S
C1063 C1065 1.433 . S
C1064 C1060 1.350 . S
C1064 C1061 1.463 . S
C1064 N1068 1.427 . S
C1065 H1055 0.929 . S
C1065 C1063 1.433 . S
C1065 N1068 1.384 . S
C1066 H1057 0.929 . S
C1066 C1058 1.378 . S
C1066 C1061 1.350 . S
C1067 H1054 0.929 . S
C1067 C1059 1.433 . S
C1067 N1069 1.384 . S
N1068 C1064 1.427 . S
N1068 C1065 1.384 . S
N1069 C1061 1.427 . S
N1069 C1067 1.384 . S
H1070 C1076 0.926 1_545 S
H1071 C1080 0.930 . S
H1072 C1085 0.929 . S
H1073 C1083 0.929 . S
H1074 C1078 0.929 . S
H1075 C1084 0.929 . S
C1076 H1070 0.926 1_565 S
C1076 C1077 1.372 . S
C1076 C1084 1.377 1_565 S
C1077 C1076 1.372 . S
C1077 C1085 1.433 . S
C1078 H1074 0.929 . S
C1078 C1080 1.378 . S
C1078 C1082 1.350 . S
C1079 C1082 1.463 . S
C1079 C1084 1.350 1_565 S
C1079 N1087 1.427 . S
C1080 H1071 0.930 . S
C1080 C1078 1.378 . S
C1080 C1081 1.367 . S
C1081 C1080 1.367 . S
C1081 C1083 1.433 1_565 S
C1082 C1078 1.350 . S
C1082 C1079 1.463 . S
C1082 N1086 1.427 1_565 S
C1083 H1073 0.929 . S
C1083 C1081 1.433 1_545 S
C1083 N1086 1.384 . S
C1084 H1075 0.929 . S
C1084 C1076 1.377 1_545 S
C1084 C1079 1.350 1_545 S
C1085 H1072 0.929 . S
C1085 C1077 1.433 . S
C1085 N1087 1.384 . S
N1086 C1082 1.427 1_545 S
N1086 C1083 1.384 . S
N1087 C1079 1.427 . S
N1087 C1085 1.384 . S
H1088 C1094 0.930 . S
H1089 C1098 0.930 . S
H1090 C1103 0.929 . S
H1091 C1101 0.929 . S
H1092 C1096 0.929 . S
H1093 C1102 0.929 . S
C1094 H1088 0.930 . S
C1094 C1095 1.367 . S
C1094 C1102 1.378 . S
C1095 C1094 1.367 . S
C1095 C1103 1.433 . S
C1096 H1092 0.929 . S
C1096 C1098 1.378 . S
C1096 C1100 1.350 . S
C1097 C1100 1.463 . S
C1097 C1102 1.350 . S
C1097 N1105 1.427 . S
C1098 H1089 0.930 . S
C1098 C1096 1.378 . S
C1098 C1099 1.367 . S
C1099 C1098 1.367 . S
C1099 C1101 1.433 . S
C1100 C1096 1.350 . S
C1100 C1097 1.463 . S
C1100 N1104 1.427 . S
C1101 H1091 0.929 . S
C1101 C1099 1.433 . S
C1101 N1104 1.384 . S
C1102 H1093 0.929 . S
C1102 C1094 1.378 . S
C1102 C1097 1.350 . S
C1103 H1090 0.929 . S
C1103 C1095 1.433 . S
C1103 N1105 1.384 . S
N1104 C1100 1.427 . S
N1104 C1101 1.384 . S
N1105 C1097 1.427 . S
N1105 C1103 1.384 . S
H1106 C1112 0.930 . S
H1107 C1116 0.930 . S
H1108 C1121 0.929 . S
H1109 C1119 0.929 . S
H1110 C1114 0.929 . S
H1111 C1120 0.929 . S
C1112 H1106 0.930 . S
C1112 C1113 1.367 . S
C1112 C1120 1.378 . S
C1113 C1112 1.367 . S
C1113 C1121 1.433 . S
C1114 H1110 0.929 . S
C1114 C1116 1.378 . S
C1114 C1118 1.350 . S
C1115 C1118 1.463 . S
C1115 C1120 1.350 . S
C1115 N1123 1.427 . S
C1116 H1107 0.930 . S
C1116 C1114 1.378 . S
C1116 C1117 1.367 . S
C1117 C1116 1.367 . S
C1117 C1119 1.433 . S
C1118 C1114 1.350 . S
C1118 C1115 1.463 . S
C1118 N1122 1.427 . S
C1119 H1109 0.929 . S
C1119 C1117 1.433 . S
C1119 N1122 1.384 . S
C1120 H1111 0.929 . S
C1120 C1112 1.378 . S
C1120 C1115 1.350 . S
C1121 H1108 0.929 . S
C1121 C1113 1.433 . S
C1121 N1123 1.384 . S
N1122 C1118 1.427 . S
N1122 C1119 1.384 . S
N1123 C1115 1.427 . S
N1123 C1121 1.384 . S
H1124 C1130 0.930 . S
H1125 C1134 0.930 . S
H1126 C1139 0.929 . S
H1127 C1137 0.929 . S
H1128 C1132 0.929 . S
H1129 C1138 0.929 . S
C1130 H1124 0.930 . S
C1130 C1131 1.367 . S
C1130 C1138 1.378 . S
C1131 C1130 1.367 . S
C1131 C1139 1.433 . S
C1132 H1128 0.929 . S
C1132 C1134 1.378 . S
C1132 C1136 1.350 . S
C1133 C1136 1.463 . S
C1133 C1138 1.350 . S
C1133 N1141 1.427 . S
C1134 H1125 0.930 . S
C1134 C1132 1.378 . S
C1134 C1135 1.367 . S
C1135 C1134 1.367 . S
C1135 C1137 1.433 . S
C1136 C1132 1.350 . S
C1136 C1133 1.463 . S
C1136 N1140 1.427 . S
C1137 H1127 0.929 . S
C1137 C1135 1.433 . S
C1137 N1140 1.384 . S
C1138 H1129 0.929 . S
C1138 C1130 1.378 . S
C1138 C1133 1.350 . S
C1139 H1126 0.929 . S
C1139 C1131 1.433 . S
C1139 N1141 1.384 . S
N1140 C1136 1.427 . S
N1140 C1137 1.384 . S
N1141 C1133 1.427 . S
N1141 C1139 1.384 . S
H1142 C1148 0.930 . S
H1143 C1152 0.930 . S
H1144 C1157 0.929 . S
H1145 C1155 0.929 . S
H1146 C1150 0.929 . S
H1147 C1156 0.929 . S
C1148 H1142 0.930 . S
C1148 C1149 1.367 . S
C1148 C1156 1.378 . S
C1149 C1148 1.367 . S
C1149 C1157 1.433 . S
C1150 H1146 0.929 . S
C1150 C1152 1.378 . S
C1150 C1154 1.350 . S
C1151 C1154 1.463 . S
C1151 C1156 1.350 . S
C1151 N1159 1.427 . S
C1152 H1143 0.930 . S
C1152 C1150 1.378 . S
C1152 C1153 1.367 . S
C1153 C1152 1.367 . S
C1153 C1155 1.433 . S
C1154 C1150 1.350 . S
C1154 C1151 1.463 . S
C1154 N1158 1.427 . S
C1155 H1145 0.929 . S
C1155 C1153 1.433 . S
C1155 N1158 1.384 . S
C1156 H1147 0.929 . S
C1156 C1148 1.378 . S
C1156 C1151 1.350 . S
C1157 H1144 0.929 . S
C1157 C1149 1.433 . S
C1157 N1159 1.384 . S
N1158 C1154 1.427 . S
N1158 C1155 1.384 . S
N1159 C1151 1.427 . S
N1159 C1157 1.384 . S
H1160 C1166 0.930 . S
H1161 C1170 0.930 . S
H1162 C1175 0.929 . S
H1163 C1173 0.929 . S
H1164 C1168 0.929 . S
H1165 C1174 0.929 . S
C1166 H1160 0.930 . S
C1166 C1167 1.367 . S
C1166 C1174 1.378 . S
C1167 C1166 1.367 . S
C1167 C1175 1.433 . S
C1168 H1164 0.929 . S
C1168 C1170 1.378 . S
C1168 C1172 1.350 . S
C1169 C1172 1.463 . S
C1169 C1174 1.350 . S
C1169 N1177 1.427 . S
C1170 H1161 0.930 . S
C1170 C1168 1.378 . S
C1170 C1171 1.367 . S
C1171 C1170 1.367 . S
C1171 C1173 1.433 . S
C1172 C1168 1.350 . S
C1172 C1169 1.463 . S
C1172 N1176 1.427 . S
C1173 H1163 0.929 . S
C1173 C1171 1.433 . S
C1173 N1176 1.384 . S
C1174 H1165 0.929 . S
C1174 C1166 1.378 . S
C1174 C1169 1.350 . S
C1175 H1162 0.929 . S
C1175 C1167 1.433 . S
C1175 N1177 1.384 . S
N1176 C1172 1.427 . S
N1176 C1173 1.384 . S
N1177 C1169 1.427 . S
N1177 C1175 1.384 . S
H1178 C1184 0.930 . S
H1179 C1188 0.930 . S
H1180 C1193 0.929 1_655 S
H1181 C1191 0.929 . S
H1182 C1186 0.929 . S
H1183 C1192 0.929 . S
C1184 H1178 0.930 . S
C1184 C1185 1.367 . S
C1184 C1192 1.378 . S
C1185 C1184 1.367 . S
C1185 C1193 1.433 . S
C1186 H1182 0.929 . S
C1186 C1188 1.378 . S
C1186 C1190 1.350 1_655 S
C1187 C1190 1.463 . S
C1187 C1192 1.350 . S
C1187 N1195 1.427 . S
C1188 H1179 0.930 . S
C1188 C1186 1.378 . S
C1188 C1189 1.367 1_655 S
C1189 C1188 1.367 1_455 S
C1189 C1191 1.433 . S
C1190 C1186 1.350 1_455 S
C1190 C1187 1.463 . S
C1190 N1194 1.427 . S
C1191 H1181 0.929 . S
C1191 C1189 1.433 . S
C1191 N1194 1.384 . S
C1192 H1183 0.929 . S
C1192 C1184 1.378 . S
C1192 C1187 1.350 . S
C1193 H1180 0.929 1_455 S
C1193 C1185 1.433 . S
C1193 N1195 1.384 . S
N1194 C1190 1.427 . S
N1194 C1191 1.384 . S
N1195 C1187 1.427 . S
N1195 C1193 1.384 . S
H1196 C1202 0.930 . S
H1197 C1206 0.930 . S
H1198 C1211 0.929 . S
H1199 C1209 0.929 . S
H1200 C1204 0.929 . S
H1201 C1210 0.929 . S
C1202 H1196 0.930 . S
C1202 C1203 1.367 . S
C1202 C1210 1.378 . S
C1203 C1202 1.367 . S
C1203 C1211 1.433 . S
C1204 H1200 0.929 . S
C1204 C1206 1.378 . S
C1204 C1208 1.350 . S
C1205 C1208 1.463 . S
C1205 C1210 1.350 . S
C1205 N1213 1.427 . S
C1206 H1197 0.930 . S
C1206 C1204 1.378 . S
C1206 C1207 1.367 . S
C1207 C1206 1.367 . S
C1207 C1209 1.433 . S
C1208 C1204 1.350 . S
C1208 C1205 1.463 . S
C1208 N1212 1.427 . S
C1209 H1199 0.929 . S
C1209 C1207 1.433 . S
C1209 N1212 1.384 . S
C1210 H1201 0.929 . S
C1210 C1202 1.378 . S
C1210 C1205 1.350 . S
C1211 H1198 0.929 . S
C1211 C1203 1.433 . S
C1211 N1213 1.384 . S
N1212 C1208 1.427 . S
N1212 C1209 1.384 . S
N1213 C1205 1.427 . S
N1213 C1211 1.384 . S
H1214 C1220 0.930 . S
H1215 C1224 0.930 . S
H1216 C1229 0.929 . S
H1217 C1227 0.929 . S
H1218 C1222 0.929 . S
H1219 C1228 0.929 . S
C1220 H1214 0.930 . S
C1220 C1221 1.367 . S
C1220 C1228 1.378 . S
C1221 C1220 1.367 . S
C1221 C1229 1.433 1_655 S
C1222 H1218 0.929 . S
C1222 C1224 1.378 . S
C1222 C1226 1.350 1_455 S
C1223 C1226 1.463 . S
C1223 C1228 1.350 . S
C1223 N1231 1.427 1_655 S
C1224 H1215 0.930 . S
C1224 C1222 1.378 . S
C1224 C1225 1.367 1_455 S
C1225 C1224 1.367 1_655 S
C1225 C1227 1.433 . S
C1226 C1222 1.350 1_655 S
C1226 C1223 1.463 . S
C1226 N1230 1.427 . S
C1227 H1217 0.929 . S
C1227 C1225 1.433 . S
C1227 N1230 1.384 . S
C1228 H1219 0.929 . S
C1228 C1220 1.378 . S
C1228 C1223 1.350 . S
C1229 H1216 0.929 . S
C1229 C1221 1.433 1_455 S
C1229 N1231 1.384 . S
N1230 C1226 1.427 . S
N1230 C1227 1.384 . S
N1231 C1223 1.427 1_455 S
N1231 C1229 1.384 . S
H1232 C1238 0.930 . S
H1233 C1242 0.930 . S
H1234 C1247 0.929 . S
H1235 C1245 0.929 . S
H1236 C1240 0.929 . S
H1237 C1246 0.929 . S
C1238 H1232 0.930 . S
C1238 C1239 1.367 . S
C1238 C1246 1.378 . S
C1239 C1238 1.367 . S
C1239 C1247 1.433 . S
C1240 H1236 0.929 . S
C1240 C1242 1.378 . S
C1240 C1244 1.350 . S
C1241 C1244 1.463 . S
C1241 C1246 1.350 . S
C1241 N1249 1.427 . S
C1242 H1233 0.930 . S
C1242 C1240 1.378 . S
C1242 C1243 1.367 . S
C1243 C1242 1.367 . S
C1243 C1245 1.433 . S
C1244 C1240 1.350 . S
C1244 C1241 1.463 . S
C1244 N1248 1.427 . S
C1245 H1235 0.929 . S
C1245 C1243 1.433 . S
C1245 N1248 1.384 . S
C1246 H1237 0.929 . S
C1246 C1238 1.378 . S
C1246 C1241 1.350 . S
C1247 H1234 0.929 . S
C1247 C1239 1.433 . S
C1247 N1249 1.384 . S
N1248 C1244 1.427 . S
N1248 C1245 1.384 . S
N1249 C1241 1.427 . S
N1249 C1247 1.384 . S
H1250 C1256 0.930 . S
H1251 C1260 0.930 . S
H1252 C1265 0.929 . S
H1253 C1263 0.929 . S
H1254 C1258 0.929 . S
H1255 C1264 0.929 . S
C1256 H1250 0.930 . S
C1256 C1257 1.367 . S
C1256 C1264 1.378 . S
C1257 C1256 1.367 . S
C1257 C1265 1.433 . S
C1258 H1254 0.929 . S
C1258 C1260 1.378 . S
C1258 C1262 1.350 . S
C1259 C1262 1.463 . S
C1259 C1264 1.350 . S
C1259 N1267 1.427 . S
C1260 H1251 0.930 . S
C1260 C1258 1.378 . S
C1260 C1261 1.367 . S
C1261 C1260 1.367 . S
C1261 C1263 1.433 . S
C1262 C1258 1.350 . S
C1262 C1259 1.463 . S
C1262 N1266 1.427 . S
C1263 H1253 0.929 . S
C1263 C1261 1.433 . S
C1263 N1266 1.384 . S
C1264 H1255 0.929 . S
C1264 C1256 1.378 . S
C1264 C1259 1.350 . S
C1265 H1252 0.929 . S
C1265 C1257 1.433 . S
C1265 N1267 1.384 . S
N1266 C1262 1.427 . S
N1266 C1263 1.384 . S
N1267 C1259 1.427 . S
N1267 C1265 1.384 . S
H1268 C1274 0.930 . S
H1269 C1278 0.930 . S
H1270 C1283 0.929 . S
H1271 C1281 0.929 . S
H1272 C1276 0.929 . S
H1273 C1282 0.929 . S
C1274 H1268 0.930 . S
C1274 C1275 1.367 1_554 S
C1274 C1282 1.378 . S
C1275 C1274 1.367 1_556 S
C1275 C1283 1.433 . S
C1276 H1272 0.929 . S
C1276 C1278 1.378 . S
C1276 C1280 1.350 . S
C1277 C1280 1.463 . S
C1277 C1282 1.350 1_556 S
C1277 N1285 1.427 . S
C1278 H1269 0.930 . S
C1278 C1276 1.378 . S
C1278 C1279 1.324 1_556 S
C1279 C1278 1.324 1_554 S
C1279 C1281 1.470 . S
C1280 C1276 1.350 . S
C1280 C1277 1.463 . S
C1280 N1284 1.427 1_556 S
C1281 H1271 0.929 . S
C1281 C1279 1.470 . S
C1281 N1284 1.384 . S
C1282 H1273 0.929 . S
C1282 C1274 1.378 . S
C1282 C1277 1.350 1_554 S
C1283 H1270 0.929 . S
C1283 C1275 1.433 . S
C1283 N1285 1.384 . S
N1284 C1280 1.427 1_554 S
N1284 C1281 1.384 . S
N1285 C1277 1.427 . S
N1285 C1283 1.384 . S
H1286 C1292 0.930 . S
H1287 C1296 0.930 . S
H1288 C1301 0.929 . S
H1289 C1299 0.929 . S
H1290 C1294 0.929 . S
H1291 C1300 0.929 . S
C1292 H1286 0.930 . S
C1292 C1293 1.367 . S
C1292 C1300 1.378 . S
C1293 C1292 1.367 . S
C1293 C1301 1.433 . S
C1294 H1290 0.929 . S
C1294 C1296 1.378 . S
C1294 C1298 1.350 . S
C1295 C1298 1.463 . S
C1295 C1300 1.350 . S
C1295 N1303 1.427 . S
C1296 H1287 0.930 . S
C1296 C1294 1.378 . S
C1296 C1297 1.367 . S
C1297 C1296 1.367 . S
C1297 C1299 1.433 . S
C1298 C1294 1.350 . S
C1298 C1295 1.463 . S
C1298 N1302 1.427 . S
C1299 H1289 0.929 . S
C1299 C1297 1.433 . S
C1299 N1302 1.384 . S
C1300 H1291 0.929 . S
C1300 C1292 1.378 . S
C1300 C1295 1.350 . S
C1301 H1288 0.929 . S
C1301 C1293 1.433 . S
C1301 N1303 1.384 . S
N1302 C1298 1.427 . S
N1302 C1299 1.384 . S
N1303 C1295 1.427 . S
N1303 C1301 1.384 . S
H1304 C1310 0.930 . S
H1305 C1314 0.930 . S
H1306 C1319 0.929 . S
H1307 C1317 0.929 . S
H1308 C1312 0.929 . S
H1309 C1318 0.929 . S
C1310 H1304 0.930 . S
C1310 C1311 1.367 . S
C1310 C1318 1.378 . S
C1311 C1310 1.367 . S
C1311 C1319 1.433 . S
C1312 H1308 0.929 . S
C1312 C1314 1.378 . S
C1312 C1316 1.350 . S
C1313 C1316 1.463 . S
C1313 C1318 1.350 . S
C1313 N1321 1.427 . S
C1314 H1305 0.930 . S
C1314 C1312 1.378 . S
C1314 C1315 1.367 . S
C1315 C1314 1.367 . S
C1315 C1317 1.433 . S
C1316 C1312 1.350 . S
C1316 C1313 1.463 . S
C1316 N1320 1.427 . S
C1317 H1307 0.929 . S
C1317 C1315 1.433 . S
C1317 N1320 1.384 . S
C1318 H1309 0.929 . S
C1318 C1310 1.378 . S
C1318 C1313 1.350 . S
C1319 H1306 0.929 . S
C1319 C1311 1.433 . S
C1319 N1321 1.384 . S
N1320 C1316 1.427 . S
N1320 C1317 1.384 . S
N1321 C1313 1.427 . S
N1321 C1319 1.384 . S
H1322 C1328 0.930 . S
H1323 C1332 0.930 . S
H1324 C1337 0.929 . S
H1325 C1335 0.929 . S
H1326 C1330 0.929 . S
H1327 C1336 0.929 . S
C1328 H1322 0.930 . S
C1328 C1329 1.367 . S
C1328 C1336 1.378 . S
C1329 C1328 1.367 . S
C1329 C1337 1.433 . S
C1330 H1326 0.929 . S
C1330 C1332 1.378 . S
C1330 C1334 1.350 . S
C1331 C1334 1.463 . S
C1331 C1336 1.350 . S
C1331 N1339 1.427 . S
C1332 H1323 0.930 . S
C1332 C1330 1.378 . S
C1332 C1333 1.367 . S
C1333 C1332 1.367 . S
C1333 C1335 1.433 . S
C1334 C1330 1.350 . S
C1334 C1331 1.463 . S
C1334 N1338 1.427 . S
C1335 H1325 0.929 . S
C1335 C1333 1.433 . S
C1335 N1338 1.384 . S
C1336 H1327 0.929 . S
C1336 C1328 1.378 . S
C1336 C1331 1.350 . S
C1337 H1324 0.929 . S
C1337 C1329 1.433 . S
C1337 N1339 1.384 . S
N1338 C1334 1.427 . S
N1338 C1335 1.384 . S
N1339 C1331 1.427 . S
N1339 C1337 1.384 . S
H1340 C1346 0.930 . S
H1341 C1350 0.930 . S
H1342 C1355 0.929 . S
H1343 C1353 0.929 . S
H1344 C1348 0.929 . S
H1345 C1354 0.929 . S
C1346 H1340 0.930 . S
C1346 C1347 1.367 . S
C1346 C1354 1.378 . S
C1347 C1346 1.367 . S
C1347 C1355 1.433 . S
C1348 H1344 0.929 . S
C1348 C1350 1.378 . S
C1348 C1352 1.350 . S
C1349 C1352 1.463 . S
C1349 C1354 1.350 . S
C1349 N1357 1.427 . S
C1350 H1341 0.930 . S
C1350 C1348 1.378 . S
C1350 C1351 1.367 . S
C1351 C1350 1.367 . S
C1351 C1353 1.433 . S
C1352 C1348 1.350 . S
C1352 C1349 1.463 . S
C1352 N1356 1.427 . S
C1353 H1343 0.929 . S
C1353 C1351 1.433 . S
C1353 N1356 1.384 . S
C1354 H1345 0.929 . S
C1354 C1346 1.378 . S
C1354 C1349 1.350 . S
C1355 H1342 0.929 . S
C1355 C1347 1.433 . S
C1355 N1357 1.384 . S
N1356 C1352 1.427 . S
N1356 C1353 1.384 . S
N1357 C1349 1.427 . S
N1357 C1355 1.384 . S
H1358 C1364 0.930 . S
H1359 C1368 0.930 . S
H1360 C1373 0.929 . S
H1361 C1371 0.929 . S
H1362 C1366 0.929 . S
H1363 C1372 0.929 . S
C1364 H1358 0.930 . S
C1364 C1365 1.367 . S
C1364 C1372 1.378 . S
C1365 C1364 1.367 . S
C1365 C1373 1.433 . S
C1366 H1362 0.929 . S
C1366 C1368 1.378 . S
C1366 C1370 1.350 . S
C1367 C1370 1.463 . S
C1367 C1372 1.350 . S
C1367 N1375 1.427 . S
C1368 H1359 0.930 . S
C1368 C1366 1.378 . S
C1368 C1369 1.367 . S
C1369 C1368 1.367 . S
C1369 C1371 1.433 . S
C1370 C1366 1.350 . S
C1370 C1367 1.463 . S
C1370 N1374 1.427 . S
C1371 H1361 0.929 . S
C1371 C1369 1.433 . S
C1371 N1374 1.384 . S
C1372 H1363 0.929 . S
C1372 C1364 1.378 . S
C1372 C1367 1.350 . S
C1373 H1360 0.929 . S
C1373 C1365 1.433 . S
C1373 N1375 1.384 . S
N1374 C1370 1.427 . S
N1374 C1371 1.384 . S
N1375 C1367 1.427 . S
N1375 C1373 1.384 . S
H1376 C1382 0.930 . S
H1377 C1386 0.930 . S
H1378 C1391 0.929 . S
H1379 C1389 0.929 . S
H1380 C1384 0.929 . S
H1381 C1390 0.929 . S
C1382 H1376 0.930 . S
C1382 C1383 1.367 . S
C1382 C1390 1.378 . S
C1383 C1382 1.367 . S
C1383 C1391 1.433 . S
C1384 H1380 0.929 . S
C1384 C1386 1.378 . S
C1384 C1388 1.350 . S
C1385 C1388 1.463 . S
C1385 C1390 1.350 . S
C1385 N1393 1.427 . S
C1386 H1377 0.930 . S
C1386 C1384 1.378 . S
C1386 C1387 1.367 . S
C1387 C1386 1.367 . S
C1387 C1389 1.433 . S
C1388 C1384 1.350 . S
C1388 C1385 1.463 . S
C1388 N1392 1.427 . S
C1389 H1379 0.929 . S
C1389 C1387 1.433 . S
C1389 N1392 1.384 . S
C1390 H1381 0.929 . S
C1390 C1382 1.378 . S
C1390 C1385 1.350 . S
C1391 H1378 0.929 . S
C1391 C1383 1.433 . S
C1391 N1393 1.384 . S
N1392 C1388 1.427 . S
N1392 C1389 1.384 . S
N1393 C1385 1.427 . S
N1393 C1391 1.384 . S
H1394 C1400 0.930 1_565 S
H1395 C1404 0.930 . S
H1396 C1409 0.929 . S
H1397 C1407 0.929 . S
H1398 C1402 0.929 . S
H1399 C1408 0.962 . S
C1400 H1394 0.930 1_545 S
C1400 C1401 1.367 . S
C1400 C1408 1.372 1_545 S
C1401 C1400 1.367 . S
C1401 C1409 1.433 . S
C1402 H1398 0.929 . S
C1402 C1404 1.378 . S
C1402 C1406 1.350 . S
C1403 C1406 1.463 . S
C1403 C1408 1.323 1_545 S
C1403 N1411 1.427 . S
C1404 H1395 0.930 . S
C1404 C1402 1.378 . S
C1404 C1405 1.367 . S
C1405 C1404 1.367 . S
C1405 C1407 1.433 1_545 S
C1406 C1402 1.350 . S
C1406 C1403 1.463 . S
C1406 N1410 1.427 1_545 S
C1407 H1397 0.929 . S
C1407 C1405 1.433 1_565 S
C1407 N1410 1.384 . S
C1408 H1399 0.962 . S
C1408 C1400 1.372 1_565 S
C1408 C1403 1.323 1_565 S
C1409 H1396 0.929 . S
C1409 C1401 1.433 . S
C1409 N1411 1.384 . S
N1410 C1406 1.427 1_565 S
N1410 C1407 1.384 . S
N1411 C1403 1.427 . S
N1411 C1409 1.384 . S
H1412 C1418 0.930 . S
H1413 C1422 0.930 . S
H1414 C1427 0.929 . S
H1415 C1425 0.929 . S
H1416 C1420 0.929 . S
H1417 C1426 0.929 . S
C1418 H1412 0.930 . S
C1418 C1419 1.367 . S
C1418 C1426 1.378 . S
C1419 C1418 1.367 . S
C1419 C1427 1.433 . S
C1420 H1416 0.929 . S
C1420 C1422 1.378 . S
C1420 C1424 1.350 . S
C1421 C1424 1.463 . S
C1421 C1426 1.350 . S
C1421 N1429 1.427 . S
C1422 H1413 0.930 . S
C1422 C1420 1.378 . S
C1422 C1423 1.367 . S
C1423 C1422 1.367 . S
C1423 C1425 1.433 . S
C1424 C1420 1.350 . S
C1424 C1421 1.463 . S
C1424 N1428 1.427 . S
C1425 H1415 0.929 . S
C1425 C1423 1.433 . S
C1425 N1428 1.384 . S
C1426 H1417 0.929 . S
C1426 C1418 1.378 . S
C1426 C1421 1.350 . S
C1427 H1414 0.929 . S
C1427 C1419 1.433 . S
C1427 N1429 1.384 . S
N1428 C1424 1.427 . S
N1428 C1425 1.384 . S
N1429 C1421 1.427 . S
N1429 C1427 1.384 . S
H1430 C1436 0.930 . S
H1431 C1440 0.930 . S
H1432 C1445 0.929 . S
H1433 C1443 0.929 . S
H1434 C1438 0.929 . S
H1435 C1444 0.929 . S
C1436 H1430 0.930 . S
C1436 C1437 1.367 . S
C1436 C1444 1.378 . S
C1437 C1436 1.367 . S
C1437 C1445 1.433 . S
C1438 H1434 0.929 . S
C1438 C1440 1.378 . S
C1438 C1442 1.350 . S
C1439 C1442 1.463 . S
C1439 C1444 1.350 . S
C1439 N1447 1.427 . S
C1440 H1431 0.930 . S
C1440 C1438 1.378 . S
C1440 C1441 1.367 . S
C1441 C1440 1.367 . S
C1441 C1443 1.433 . S
C1442 C1438 1.350 . S
C1442 C1439 1.463 . S
C1442 N1446 1.427 . S
C1443 H1433 0.929 . S
C1443 C1441 1.433 . S
C1443 N1446 1.384 . S
C1444 H1435 0.929 . S
C1444 C1436 1.378 . S
C1444 C1439 1.350 . S
C1445 H1432 0.929 . S
C1445 C1437 1.433 . S
C1445 N1447 1.384 . S
N1446 C1442 1.427 . S
N1446 C1443 1.384 . S
N1447 C1439 1.427 . S
N1447 C1445 1.384 . S
H1448 C1454 0.930 . S
H1449 C1458 0.930 . S
H1450 C1463 0.929 . S
H1451 C1461 0.929 . S
H1452 C1456 0.929 . S
H1453 C1462 0.929 . S
C1454 H1448 0.930 . S
C1454 C1455 1.367 . S
C1454 C1462 1.378 . S
C1455 C1454 1.367 . S
C1455 C1463 1.433 . S
C1456 H1452 0.929 . S
C1456 C1458 1.378 . S
C1456 C1460 1.350 . S
C1457 C1460 1.463 . S
C1457 C1462 1.350 . S
C1457 N1465 1.427 . S
C1458 H1449 0.930 . S
C1458 C1456 1.378 . S
C1458 C1459 1.367 . S
C1459 C1458 1.367 . S
C1459 C1461 1.433 . S
C1460 C1456 1.350 . S
C1460 C1457 1.463 . S
C1460 N1464 1.427 . S
C1461 H1451 0.929 . S
C1461 C1459 1.433 . S
C1461 N1464 1.384 . S
C1462 H1453 0.929 . S
C1462 C1454 1.378 . S
C1462 C1457 1.350 . S
C1463 H1450 0.929 . S
C1463 C1455 1.433 . S
C1463 N1465 1.384 . S
N1464 C1460 1.427 . S
N1464 C1461 1.384 . S
N1465 C1457 1.427 . S
N1465 C1463 1.384 . S
H1466 C1472 0.948 . S
H1467 C1476 0.920 1_565 S
H1468 C1481 0.929 . S
H1469 C1479 0.929 . S
H1470 C1474 0.929 . S
H1471 C1480 0.929 . S
C1472 H1466 0.948 . S
C1472 C1473 1.367 . S
C1472 C1480 1.378 . S
C1473 C1472 1.367 . S
C1473 C1481 1.433 . S
C1474 H1470 0.929 . S
C1474 C1476 1.378 . S
C1474 C1478 1.350 . S
C1475 C1478 1.463 . S
C1475 C1480 1.350 . S
C1475 N1483 1.427 . S
C1476 H1467 0.920 1_545 S
C1476 C1474 1.378 . S
C1476 C1477 1.367 . S
C1477 C1476 1.367 . S
C1477 C1479 1.433 . S
C1478 C1474 1.350 . S
C1478 C1475 1.463 . S
C1478 N1482 1.427 . S
C1479 H1469 0.929 . S
C1479 C1477 1.433 . S
C1479 N1482 1.384 . S
C1480 H1471 0.929 . S
C1480 C1472 1.378 . S
C1480 C1475 1.350 . S
C1481 H1468 0.929 . S
C1481 C1473 1.433 . S
C1481 N1483 1.384 . S
N1482 C1478 1.427 . S
N1482 C1479 1.384 . S
N1483 C1475 1.427 . S
N1483 C1481 1.384 . S
H1484 C1490 0.930 . S
H1485 C1494 0.930 . S
H1486 C1499 0.929 . S
H1487 C1497 0.929 . S
H1488 C1492 0.929 . S
H1489 C1498 0.929 . S
C1490 H1484 0.930 . S
C1490 C1491 1.367 . S
C1490 C1498 1.378 . S
C1491 C1490 1.367 . S
C1491 C1499 1.433 . S
C1492 H1488 0.929 . S
C1492 C1494 1.378 . S
C1492 C1496 1.350 . S
C1493 C1496 1.463 . S
C1493 C1498 1.350 . S
C1493 N1501 1.427 . S
C1494 H1485 0.930 . S
C1494 C1492 1.378 . S
C1494 C1495 1.367 . S
C1495 C1494 1.367 . S
C1495 C1497 1.433 . S
C1496 C1492 1.350 . S
C1496 C1493 1.463 . S
C1496 N1500 1.427 . S
C1497 H1487 0.929 . S
C1497 C1495 1.433 . S
C1497 N1500 1.384 . S
C1498 H1489 0.929 . S
C1498 C1490 1.378 . S
C1498 C1493 1.350 . S
C1499 H1486 0.929 . S
C1499 C1491 1.433 . S
C1499 N1501 1.384 . S
N1500 C1496 1.427 . S
N1500 C1497 1.384 . S
N1501 C1493 1.427 . S
N1501 C1499 1.384 . S
H1502 C1508 0.930 . S
H1503 C1512 0.930 . S
H1504 C1517 0.929 . S
H1505 C1515 0.929 . S
H1506 C1510 0.929 . S
H1507 C1516 0.929 . S
C1508 H1502 0.930 . S
C1508 C1509 1.367 . S
C1508 C1516 1.378 . S
C1509 C1508 1.367 . S
C1509 C1517 1.433 . S
C1510 H1506 0.929 . S
C1510 C1512 1.378 . S
C1510 C1514 1.350 . S
C1511 C1514 1.463 . S
C1511 C1516 1.350 . S
C1511 N1519 1.427 . S
C1512 H1503 0.930 . S
C1512 C1510 1.378 . S
C1512 C1513 1.367 . S
C1513 C1512 1.367 . S
C1513 C1515 1.433 . S
C1514 C1510 1.350 . S
C1514 C1511 1.463 . S
C1514 N1518 1.427 . S
C1515 H1505 0.929 . S
C1515 C1513 1.433 . S
C1515 N1518 1.384 . S
C1516 H1507 0.929 . S
C1516 C1508 1.378 . S
C1516 C1511 1.350 . S
C1517 H1504 0.929 . S
C1517 C1509 1.433 . S
C1517 N1519 1.384 . S
N1518 C1514 1.427 . S
N1518 C1515 1.384 . S
N1519 C1511 1.427 . S
N1519 C1517 1.384 . S
H1520 C1526 0.930 . S
H1521 C1530 0.930 . S
H1522 C1535 0.929 . S
H1523 C1533 0.929 . S
H1524 C1528 0.929 . S
H1525 C1534 0.929 . S
C1526 H1520 0.930 . S
C1526 C1527 1.367 . S
C1526 C1534 1.378 . S
C1527 C1526 1.367 . S
C1527 C1535 1.433 . S
C1528 H1524 0.929 . S
C1528 C1530 1.378 . S
C1528 C1532 1.350 . S
C1529 C1532 1.463 . S
C1529 C1534 1.350 . S
C1529 N1537 1.427 . S
C1530 H1521 0.930 . S
C1530 C1528 1.378 . S
C1530 C1531 1.367 . S
C1531 C1530 1.367 . S
C1531 C1533 1.433 . S
C1532 C1528 1.350 . S
C1532 C1529 1.463 . S
C1532 N1536 1.427 . S
C1533 H1523 0.929 . S
C1533 C1531 1.433 . S
C1533 N1536 1.384 . S
C1534 H1525 0.929 . S
C1534 C1526 1.378 . S
C1534 C1529 1.350 . S
C1535 H1522 0.929 . S
C1535 C1527 1.433 . S
C1535 N1537 1.384 . S
N1536 C1532 1.427 . S
N1536 C1533 1.384 . S
N1537 C1529 1.427 . S
N1537 C1535 1.384 . S
H1538 C1544 0.930 . S
H1539 C1548 0.930 . S
H1540 C1553 0.947 . S
H1541 C1551 0.929 . S
H1542 C1546 0.929 . S
H1543 C1552 0.929 . S
C1544 H1538 0.930 . S
C1544 C1545 1.367 . S
C1544 C1552 1.378 . S
C1545 C1544 1.367 . S
C1545 C1553 1.410 1_655 S
C1546 H1542 0.929 . S
C1546 C1548 1.378 . S
C1546 C1550 1.350 1_455 S
C1547 C1550 1.463 . S
C1547 C1552 1.350 . S
C1547 N1555 1.427 1_655 S
C1548 H1539 0.930 . S
C1548 C1546 1.378 . S
C1548 C1549 1.367 . S
C1549 C1548 1.367 . S
C1549 C1551 1.433 1_455 S
C1550 C1546 1.350 1_655 S
C1550 C1547 1.463 . S
C1550 N1554 1.427 . S
C1551 H1541 0.929 . S
C1551 C1549 1.433 1_655 S
C1551 N1554 1.384 . S
C1552 H1543 0.929 . S
C1552 C1544 1.378 . S
C1552 C1547 1.350 . S
C1553 H1540 0.947 . S
C1553 C1545 1.410 1_455 S
C1553 N1555 1.390 . S
N1554 C1550 1.427 . S
N1554 C1551 1.384 . S
N1555 C1547 1.427 1_455 S
N1555 C1553 1.390 . S
H1556 C1562 0.930 . S
H1557 C1566 0.930 . S
H1558 C1571 0.929 . S
H1559 C1569 0.929 . S
H1560 C1564 0.929 . S
H1561 C1570 0.929 . S
C1562 H1556 0.930 . S
C1562 C1563 1.367 . S
C1562 C1570 1.378 . S
C1563 C1562 1.367 . S
C1563 C1571 1.433 . S
C1564 H1560 0.929 . S
C1564 C1566 1.378 . S
C1564 C1568 1.350 . S
C1565 C1568 1.463 . S
C1565 C1570 1.350 . S
C1565 N1573 1.427 . S
C1566 H1557 0.930 . S
C1566 C1564 1.378 . S
C1566 C1567 1.367 . S
C1567 C1566 1.367 . S
C1567 C1569 1.433 . S
C1568 C1564 1.350 . S
C1568 C1565 1.463 . S
C1568 N1572 1.427 . S
C1569 H1559 0.929 . S
C1569 C1567 1.433 . S
C1569 N1572 1.384 . S
C1570 H1561 0.929 . S
C1570 C1562 1.378 . S
C1570 C1565 1.350 . S
C1571 H1558 0.929 . S
C1571 C1563 1.433 . S
C1571 N1573 1.384 . S
N1572 C1568 1.427 . S
N1572 C1569 1.384 . S
N1573 C1565 1.427 . S
N1573 C1571 1.384 . S
H1574 C1580 0.930 1_655 S
H1575 C1584 0.930 . S
H1576 C1589 0.929 . S
H1577 C1587 0.929 . S
H1578 C1582 0.929 . S
H1579 C1588 0.929 1_655 S
C1580 H1574 0.930 1_455 S
C1580 C1581 1.367 . S
C1580 C1588 1.378 . S
C1581 C1580 1.367 . S
C1581 C1589 1.433 . S
C1582 H1578 0.929 . S
C1582 C1584 1.378 . S
C1582 C1586 1.350 . S
C1583 C1586 1.463 . S
C1583 C1588 1.350 . S
C1583 N1591 1.427 . S
C1584 H1575 0.930 . S
C1584 C1582 1.378 . S
C1584 C1585 1.367 . S
C1585 C1584 1.367 . S
C1585 C1587 1.433 1_455 S
C1586 C1582 1.350 . S
C1586 C1583 1.463 . S
C1586 N1590 1.427 1_455 S
C1587 H1577 0.929 . S
C1587 C1585 1.433 1_655 S
C1587 N1590 1.384 . S
C1588 H1579 0.929 1_455 S
C1588 C1580 1.378 . S
C1588 C1583 1.350 . S
C1589 H1576 0.929 . S
C1589 C1581 1.433 . S
C1589 N1591 1.384 . S
N1590 C1586 1.427 1_655 S
N1590 C1587 1.384 . S
N1591 C1583 1.427 . S
N1591 C1589 1.384 . S
H1592 C1598 0.930 . S
H1593 C1602 0.930 . S
H1594 C1607 0.929 . S
H1595 C1605 0.929 . S
H1596 C1600 0.929 . S
H1597 C1606 0.929 . S
C1598 H1592 0.930 . S
C1598 C1599 1.367 . S
C1598 C1606 1.378 . S
C1599 C1598 1.367 . S
C1599 C1607 1.433 . S
C1600 H1596 0.929 . S
C1600 C1602 1.378 . S
C1600 C1604 1.350 . S
C1601 C1604 1.463 . S
C1601 C1606 1.350 . S
C1601 N1609 1.427 . S
C1602 H1593 0.930 . S
C1602 C1600 1.378 . S
C1602 C1603 1.367 . S
C1603 C1602 1.367 . S
C1603 C1605 1.433 . S
C1604 C1600 1.350 . S
C1604 C1601 1.463 . S
C1604 N1608 1.427 . S
C1605 H1595 0.929 . S
C1605 C1603 1.433 . S
C1605 N1608 1.384 . S
C1606 H1597 0.929 . S
C1606 C1598 1.378 . S
C1606 C1601 1.350 . S
C1607 H1594 0.929 . S
C1607 C1599 1.433 . S
C1607 N1609 1.384 . S
N1608 C1604 1.427 . S
N1608 C1605 1.384 . S
N1609 C1601 1.427 . S
N1609 C1607 1.384 . S
H1610 C1616 0.930 . S
H1611 C1620 0.930 . S
H1612 C1625 0.929 . S
H1613 C1623 0.929 . S
H1614 C1618 0.929 . S
H1615 C1624 0.929 . S
C1616 H1610 0.930 . S
C1616 C1617 1.367 . S
C1616 C1624 1.378 . S
C1617 C1616 1.367 . S
C1617 C1625 1.433 . S
C1618 H1614 0.929 . S
C1618 C1620 1.378 . S
C1618 C1622 1.350 . S
C1619 C1622 1.463 . S
C1619 C1624 1.350 . S
C1619 N1627 1.427 . S
C1620 H1611 0.930 . S
C1620 C1618 1.378 . S
C1620 C1621 1.367 . S
C1621 C1620 1.367 . S
C1621 C1623 1.433 . S
C1622 C1618 1.350 . S
C1622 C1619 1.463 . S
C1622 N1626 1.427 . S
C1623 H1613 0.929 . S
C1623 C1621 1.433 . S
C1623 N1626 1.384 . S
C1624 H1615 0.929 . S
C1624 C1616 1.378 . S
C1624 C1619 1.350 . S
C1625 H1612 0.929 . S
C1625 C1617 1.433 . S
C1625 N1627 1.384 . S
N1626 C1622 1.427 . S
N1626 C1623 1.384 . S
N1627 C1619 1.427 . S
N1627 C1625 1.384 . S
H1628 C1634 0.930 . S
H1629 C1638 0.930 . S
H1630 C1643 0.929 . S
H1631 C1641 0.929 . S
H1632 C1636 0.929 . S
H1633 C1642 0.929 . S
C1634 H1628 0.930 . S
C1634 C1635 1.367 . S
C1634 C1642 1.378 . S
C1635 C1634 1.367 . S
C1635 C1643 1.433 . S
C1636 H1632 0.929 . S
C1636 C1638 1.378 . S
C1636 C1640 1.350 . S
C1637 C1640 1.463 . S
C1637 C1642 1.350 . S
C1637 N1645 1.427 . S
C1638 H1629 0.930 . S
C1638 C1636 1.378 . S
C1638 C1639 1.367 . S
C1639 C1638 1.367 . S
C1639 C1641 1.433 . S
C1640 C1636 1.350 . S
C1640 C1637 1.463 . S
C1640 N1644 1.427 . S
C1641 H1631 0.929 . S
C1641 C1639 1.433 . S
C1641 N1644 1.384 . S
C1642 H1633 0.929 . S
C1642 C1634 1.378 . S
C1642 C1637 1.350 . S
C1643 H1630 0.929 . S
C1643 C1635 1.433 . S
C1643 N1645 1.384 . S
N1644 C1640 1.427 . S
N1644 C1641 1.384 . S
N1645 C1637 1.427 . S
N1645 C1643 1.384 . S
H1646 C1652 0.930 . S
H1647 C1656 0.930 . S
H1648 C1661 0.929 . S
H1649 C1659 0.929 . S
H1650 C1654 0.929 . S
H1651 C1660 0.929 . S
C1652 H1646 0.930 . S
C1652 C1653 1.367 . S
C1652 C1660 1.378 . S
C1653 C1652 1.367 . S
C1653 C1661 1.433 . S
C1654 H1650 0.929 . S
C1654 C1656 1.378 . S
C1654 C1658 1.350 . S
C1655 C1658 1.463 . S
C1655 C1660 1.350 . S
C1655 N1663 1.427 . S
C1656 H1647 0.930 . S
C1656 C1654 1.378 . S
C1656 C1657 1.367 . S
C1657 C1656 1.367 . S
C1657 C1659 1.433 . S
C1658 C1654 1.350 . S
C1658 C1655 1.463 . S
C1658 N1662 1.427 . S
C1659 H1649 0.929 . S
C1659 C1657 1.433 . S
C1659 N1662 1.384 . S
C1660 H1651 0.929 . S
C1660 C1652 1.378 . S
C1660 C1655 1.350 . S
C1661 H1648 0.929 . S
C1661 C1653 1.433 . S
C1661 N1663 1.384 . S
N1662 C1658 1.427 . S
N1662 C1659 1.384 . S
N1663 C1655 1.427 . S
N1663 C1661 1.384 . S
H1664 C1670 0.930 . S
H1665 C1674 0.930 . S
H1666 C1679 0.929 . S
H1667 C1677 0.929 . S
H1668 C1672 0.929 . S
H1669 C1678 0.929 . S
C1670 H1664 0.930 . S
C1670 C1671 1.367 . S
C1670 C1678 1.378 . S
C1671 C1670 1.367 . S
C1671 C1679 1.433 . S
C1672 H1668 0.929 . S
C1672 C1674 1.378 . S
C1672 C1676 1.350 . S
C1673 C1676 1.463 . S
C1673 C1678 1.350 . S
C1673 N1681 1.427 . S
C1674 H1665 0.930 . S
C1674 C1672 1.378 . S
C1674 C1675 1.367 . S
C1675 C1674 1.367 . S
C1675 C1677 1.433 . S
C1676 C1672 1.350 . S
C1676 C1673 1.463 . S
C1676 N1680 1.427 . S
C1677 H1667 0.929 . S
C1677 C1675 1.433 . S
C1677 N1680 1.384 . S
C1678 H1669 0.929 . S
C1678 C1670 1.378 . S
C1678 C1673 1.350 . S
C1679 H1666 0.929 . S
C1679 C1671 1.433 . S
C1679 N1681 1.384 . S
N1680 C1676 1.427 . S
N1680 C1677 1.384 . S
N1681 C1673 1.427 . S
N1681 C1679 1.384 . S
H1682 C1688 0.930 . S
H1683 C1692 0.930 . S
H1684 C1697 0.929 . S
H1685 C1695 0.929 . S
H1686 C1690 0.929 . S
H1687 C1696 0.929 . S
C1688 H1682 0.930 . S
C1688 C1689 1.367 . S
C1688 C1696 1.378 . S
C1689 C1688 1.367 . S
C1689 C1697 1.433 . S
C1690 H1686 0.929 . S
C1690 C1692 1.378 . S
C1690 C1694 1.350 . S
C1691 C1694 1.463 . S
C1691 C1696 1.350 . S
C1691 N1699 1.427 . S
C1692 H1683 0.930 . S
C1692 C1690 1.378 . S
C1692 C1693 1.367 . S
C1693 C1692 1.367 . S
C1693 C1695 1.433 . S
C1694 C1690 1.350 . S
C1694 C1691 1.463 . S
C1694 N1698 1.427 . S
C1695 H1685 0.929 . S
C1695 C1693 1.433 . S
C1695 N1698 1.384 . S
C1696 H1687 0.929 . S
C1696 C1688 1.378 . S
C1696 C1691 1.350 . S
C1697 H1684 0.929 . S
C1697 C1689 1.433 . S
C1697 N1699 1.384 . S
N1698 C1694 1.427 . S
N1698 C1695 1.384 . S
N1699 C1691 1.427 . S
N1699 C1697 1.384 . S
H1700 C1706 0.930 . S
H1701 C1710 0.930 . S
H1702 C1715 0.929 . S
H1703 C1713 0.929 . S
H1704 C1708 0.929 . S
H1705 C1714 0.929 . S
C1706 H1700 0.930 . S
C1706 C1707 1.367 . S
C1706 C1714 1.378 . S
C1707 C1706 1.367 . S
C1707 C1715 1.433 . S
C1708 H1704 0.929 . S
C1708 C1710 1.378 . S
C1708 C1712 1.350 . S
C1709 C1712 1.463 . S
C1709 C1714 1.350 . S
C1709 N1717 1.427 . S
C1710 H1701 0.930 . S
C1710 C1708 1.378 . S
C1710 C1711 1.367 . S
C1711 C1710 1.367 . S
C1711 C1713 1.433 . S
C1712 C1708 1.350 . S
C1712 C1709 1.463 . S
C1712 N1716 1.427 . S
C1713 H1703 0.929 . S
C1713 C1711 1.433 . S
C1713 N1716 1.384 . S
C1714 H1705 0.929 . S
C1714 C1706 1.378 . S
C1714 C1709 1.350 . S
C1715 H1702 0.929 . S
C1715 C1707 1.433 . S
C1715 N1717 1.384 . S
N1716 C1712 1.427 . S
N1716 C1713 1.384 . S
N1717 C1709 1.427 . S
N1717 C1715 1.384 . S
H1718 C1724 0.930 . S
H1719 C1728 0.930 . S
H1720 C1733 0.929 . S
H1721 C1731 0.929 . S
H1722 C1726 0.929 . S
H1723 C1732 0.929 . S
C1724 H1718 0.930 . S
C1724 C1725 1.367 . S
C1724 C1732 1.378 . S
C1725 C1724 1.367 . S
C1725 C1733 1.433 . S
C1726 H1722 0.929 . S
C1726 C1728 1.378 . S
C1726 C1730 1.350 . S
C1727 C1730 1.463 . S
C1727 C1732 1.350 . S
C1727 N1735 1.427 . S
C1728 H1719 0.930 . S
C1728 C1726 1.378 . S
C1728 C1729 1.367 . S
C1729 C1728 1.367 . S
C1729 C1731 1.433 . S
C1730 C1726 1.350 . S
C1730 C1727 1.463 . S
C1730 N1734 1.427 . S
C1731 H1721 0.929 . S
C1731 C1729 1.433 . S
C1731 N1734 1.384 . S
C1732 H1723 0.929 . S
C1732 C1724 1.378 . S
C1732 C1727 1.350 . S
C1733 H1720 0.929 . S
C1733 C1725 1.433 . S
C1733 N1735 1.384 . S
N1734 C1730 1.427 . S
N1734 C1731 1.384 . S
N1735 C1727 1.427 . S
N1735 C1733 1.384 . S
H1736 C1742 0.930 1_554 S
H1737 C1746 0.930 . S
H1738 C1751 0.929 . S
H1739 C1749 0.929 . S
H1740 C1744 0.929 . S
H1741 C1750 0.973 . S
C1742 H1736 0.930 1_556 S
C1742 C1743 1.367 . S
C1742 C1750 1.372 1_556 S
C1743 C1742 1.367 . S
C1743 C1751 1.433 . S
C1744 H1740 0.929 . S
C1744 C1746 1.378 . S
C1744 C1748 1.350 . S
C1745 C1748 1.463 . S
C1745 C1750 1.313 1_556 S
C1745 N1753 1.427 . S
C1746 H1737 0.930 . S
C1746 C1744 1.378 . S
C1746 C1747 1.367 . S
C1747 C1746 1.367 . S
C1747 C1749 1.433 1_556 S
C1748 C1744 1.350 . S
C1748 C1745 1.463 . S
C1748 N1752 1.427 1_556 S
C1749 H1739 0.929 . S
C1749 C1747 1.433 1_554 S
C1749 N1752 1.384 . S
C1750 H1741 0.973 . S
C1750 C1742 1.372 1_554 S
C1750 C1745 1.313 1_554 S
C1751 H1738 0.929 . S
C1751 C1743 1.433 . S
C1751 N1753 1.384 . S
N1752 C1748 1.427 1_554 S
N1752 C1749 1.384 . S
N1753 C1745 1.427 . S
N1753 C1751 1.384 . S
H1754 C1760 0.930 . S
H1755 C1764 0.930 . S
H1756 C1769 0.929 . S
H1757 C1767 0.929 . S
H1758 C1762 0.929 . S
H1759 C1768 0.929 . S
C1760 H1754 0.930 . S
C1760 C1761 1.367 . S
C1760 C1768 1.378 . S
C1761 C1760 1.367 . S
C1761 C1769 1.433 . S
C1762 H1758 0.929 . S
C1762 C1764 1.378 . S
C1762 C1766 1.350 . S
C1763 C1766 1.463 . S
C1763 C1768 1.350 . S
C1763 N1771 1.427 . S
C1764 H1755 0.930 . S
C1764 C1762 1.378 . S
C1764 C1765 1.367 . S
C1765 C1764 1.367 . S
C1765 C1767 1.433 . S
C1766 C1762 1.350 . S
C1766 C1763 1.463 . S
C1766 N1770 1.427 . S
C1767 H1757 0.929 . S
C1767 C1765 1.433 . S
C1767 N1770 1.384 . S
C1768 H1759 0.929 . S
C1768 C1760 1.378 . S
C1768 C1763 1.350 . S
C1769 H1756 0.929 . S
C1769 C1761 1.433 . S
C1769 N1771 1.384 . S
N1770 C1766 1.427 . S
N1770 C1767 1.384 . S
N1771 C1763 1.427 . S
N1771 C1769 1.384 . S
H1772 C1778 0.930 . S
H1773 C1782 0.930 . S
H1774 C1787 0.929 . S
H1775 C1785 0.929 . S
H1776 C1780 0.929 . S
H1777 C1786 0.914 1_556 S
C1778 H1772 0.930 . S
C1778 C1779 1.367 . S
C1778 C1786 1.378 . S
C1779 C1778 1.367 . S
C1779 C1787 1.433 . S
C1780 H1776 0.929 . S
C1780 C1782 1.378 . S
C1780 C1784 1.350 . S
C1781 C1784 1.463 . S
C1781 C1786 1.350 . S
C1781 N1789 1.427 . S
C1782 H1773 0.930 . S
C1782 C1780 1.378 . S
C1782 C1783 1.367 . S
C1783 C1782 1.367 . S
C1783 C1785 1.433 1_554 S
C1784 C1780 1.350 . S
C1784 C1781 1.463 . S
C1784 N1788 1.434 . S
C1785 H1775 0.929 . S
C1785 C1783 1.433 1_556 S
C1785 N1788 1.382 1_556 S
C1786 H1777 0.914 1_554 S
C1786 C1778 1.378 . S
C1786 C1781 1.350 . S
C1787 H1774 0.929 . S
C1787 C1779 1.433 . S
C1787 N1789 1.384 . S
N1788 C1784 1.434 . S
N1788 C1785 1.382 1_554 S
N1789 C1781 1.427 . S
N1789 C1787 1.384 . S
H1790 C1796 0.930 1_556 S
H1791 C1800 0.930 . S
H1792 C1805 0.929 . S
H1793 C1803 0.929 . S
H1794 C1798 0.929 . S
H1795 C1804 0.929 1_556 S
C1796 H1790 0.930 1_554 S
C1796 C1797 1.367 . S
C1796 C1804 1.378 . S
C1797 C1796 1.367 . S
C1797 C1805 1.433 . S
C1798 H1794 0.929 . S
C1798 C1800 1.378 . S
C1798 C1802 1.350 . S
C1799 C1802 1.463 . S
C1799 C1804 1.350 . S
C1799 N1807 1.427 . S
C1800 H1791 0.930 . S
C1800 C1798 1.378 . S
C1800 C1801 1.367 . S
C1801 C1800 1.367 . S
C1801 C1803 1.433 1_554 S
C1802 C1798 1.350 . S
C1802 C1799 1.463 . S
C1802 N1806 1.427 1_554 S
C1803 H1793 0.929 . S
C1803 C1801 1.433 1_556 S
C1803 N1806 1.384 . S
C1804 H1795 0.929 1_554 S
C1804 C1796 1.378 . S
C1804 C1799 1.350 . S
C1805 H1792 0.929 . S
C1805 C1797 1.433 . S
C1805 N1807 1.384 . S
N1806 C1802 1.427 1_556 S
N1806 C1803 1.384 . S
N1807 C1799 1.427 . S
N1807 C1805 1.384 . S
C955 C514 1.413 . S
C951 C177 1.367 . S
C973 C562 1.643 . S
C969 C209 1.673 . S
C987 C253 1.383 . S
C991 C598 1.336 . S
C1009 C634 1.570 1_545 S
C1005 C157 1.594 . S
C1027 C660 1.476 . S
C1023 C343 1.483 . S
C1045 C696 1.566 . S
C1041 C401 1.532 . S
C1059 C369 1.507 . S
C1063 C731 1.516 . S
C1081 C768 1.598 1_565 S
C1077 C317 1.575 . S
C1095 C375 1.459 . S
C1099 C802 1.453 . S
C1117 C850 1.592 . S
C1113 C305 1.625 . S
C1131 C349 1.465 . S
C1135 C803 1.471 . S
C1153 C840 1.611 . S
C1149 C413 1.569 . S
C1167 C241 1.435 . S
C1171 C886 1.381 . S
C1185 C151 1.554 . S
C1189 C875 1.590 . S
C1203 C189 1.418 . S
C1207 C876 1.494 . S
C1221 C215 1.619 . S
C1225 C874 1.626 1_655 S
C1239 C113 1.446 . S
C1243 C622 1.435 . S
C1257 C471 1.375 . S
C1261 C623 1.438 . S
C1279 C526 1.593 . S
C1275 C509 1.617 . S
C1297 C551 1.467 . S
C1293 C279 1.463 . S
C1311 C145 1.547 . S
C1315 C658 1.581 . S
C1333 C766 1.513 . S
C1329 C381 1.525 . S
C1351 C659 1.604 . S
C1347 C311 1.586 . S
C1369 C732 1.596 . S
C1365 C407 1.554 . S
C1387 C730 1.410 . S
C1383 C465 1.361 . S
C1401 C497 1.672 . S
C1405 C778 1.634 . S
C1419 C285 1.381 . S
C1423 C670 1.337 . S
C1441 C706 1.581 . S
C1437 C445 1.586 . S
C1455 C119 1.485 . S
C1459 C588 1.473 . S
C1477 C624 1.564 . S
C1473 C17 1.523 . S
C1495 C515 1.518 . S
C1491 C49 1.510 . S
C1513 C552 1.603 . S
C1509 C93 1.579 . S
C1527 C55 1.459 . S
C1531 C838 1.453 . S
C1545 C81 1.620 . S
C1549 C814 1.588 1_455 S
C1563 C125 1.464 . S
C1567 C839 1.471 . S
C1581 C29 1.564 . S
C1585 C804 1.609 . S
C1603 C922 1.379 . S
C1599 C273 1.435 . S
C1621 C911 1.588 . S
C1617 C439 1.550 . S
C1639 C912 1.493 . S
C1635 C477 1.418 . S
C1653 C503 1.616 . S
C1657 C910 1.627 . S
C1671 C337 1.445 . S
C1675 C694 1.434 . S
C1693 C695 1.440 . S
C1689 C183 1.374 . S
C1711 C742 1.597 . S
C1707 C221 1.620 . S
C1729 C767 1.465 . S
C1725 C247 1.461 . S
C1743 C433 1.547 . S
C1747 C586 1.585 . S
C1765 C550 1.513 . S
C1761 C61 1.524 . S
C1779 C87 1.589 . S
C1783 C587 1.599 . S
C1801 C516 1.598 . S
C1797 C23 1.561 . S
