# Generated by pormake.
# Topology pth, (4,4)-cn, num edge types: 1
# Building blocks:
#     Node 0, Type 0, BuildingBlock: GALJAG_clean_sbu_0, # of connection points: 4
#     Node 1, Type 0, BuildingBlock: GALJAG_clean_sbu_0, # of connection points: 4
#     Node 2, Type 0, BuildingBlock: GALJAG_clean_sbu_0, # of connection points: 4
#     Node 3, Type 1, BuildingBlock: NAWXER_clean_linker_0, # of connection points: 4
#     Node 4, Type 1, BuildingBlock: NAWXER_clean_linker_0, # of connection points: 4
#     Node 5, Type 1, BuildingBlock: NAWXER_clean_linker_0, # of connection points: 4
#     Edge 6, Type (0, 1), BuildingBlock: TEMPAE_clean_linker_10, # of connection points: 2
#     Edge 7, Type (0, 1), BuildingBlock: TEMPAE_clean_linker_10, # of connection points: 2
#     Edge 8, Type (0, 1), BuildingBlock: TEMPAE_clean_linker_10, # of connection points: 2
#     Edge 9, Type (0, 1), BuildingBlock: TEMPAE_clean_linker_10, # of connection points: 2
#     Edge 10, Type (0, 1), BuildingBlock: TEMPAE_clean_linker_10, # of connection points: 2
#     Edge 11, Type (0, 1), BuildingBlock: TEMPAE_clean_linker_10, # of connection points: 2
#     Edge 12, Type (0, 1), BuildingBlock: TEMPAE_clean_linker_10, # of connection points: 2
#     Edge 13, Type (0, 1), BuildingBlock: TEMPAE_clean_linker_10, # of connection points: 2
#     Edge 14, Type (0, 1), BuildingBlock: TEMPAE_clean_linker_10, # of connection points: 2
#     Edge 15, Type (0, 1), BuildingBlock: TEMPAE_clean_linker_10, # of connection points: 2
#     Edge 16, Type (0, 1), BuildingBlock: TEMPAE_clean_linker_10, # of connection points: 2
#     Edge 17, Type (0, 1), BuildingBlock: TEMPAE_clean_linker_10, # of connection points: 2
# Relax obj value: 0.002
# Max RMSD: 0.036
# Mean RMSD: 0.021
data_MOF--net-pth--node1-GALJAG_clean_sbu_0--node2-NAWXER_clean_linker_0--edge1-TEMPAE_clean_linker_10
_symmetry_space_group_name_H-M    P1
_symmetry_Int_Tables_number       1
_symmetry_cell_setting            triclinic
loop_
_symmetry_equiv_pos_as_xyz
'x, y, z'
_cell_length_a     29.879019
_cell_length_b     29.884015
_cell_length_c     64.734912
_cell_angle_alpha  90.164648
_cell_angle_beta   90.12826
_cell_angle_gamma 119.98082
loop_
_atom_site_label
_atom_site_type_symbol
_atom_site_fract_x
_atom_site_fract_y
_atom_site_fract_z
_atom_type_partial_charge
In0 In 0.00702 0.00376 0.04441 0.0
O1 O 0.95943 0.03582 0.05951 0.0
O2 O 0.03994 0.07348 0.0658 0.0
C3 C 0.93682 0.93449 0.01791 0.0
C4 C 0.08061 0.06815 0.01802 0.0
C5 C 0.0128 0.93907 0.07188 0.0
O6 O 0.93 0.96796 0.02712 0.0
O7 O 0.97906 0.9364 0.022 0.0
O8 O 0.04884 0.96552 0.0594 0.0
O9 O 0.97448 0.94583 0.07062 0.0
C10 C -0.00241 0.07197 0.06884 0.0
O11 O 0.09071 0.04919 0.03355 0.0
O12 O 0.03347 0.05424 0.01575 0.0
In13 In 0.99362 -0.00086 0.3783 0.0
O14 O 0.037 0.0765 0.36154 0.0
O15 O 0.95663 0.02886 0.35553 0.0
C16 C 0.06703 0.0077 0.405 0.0
C17 C 0.92095 0.99019 0.40524 0.0
C18 C 0.98837 0.92815 0.35105 0.0
O19 O 0.07177 0.04558 0.39464 0.0
O20 O 0.02527 0.96606 0.40198 0.0
O21 O 0.94991 0.92125 0.36158 0.0
O22 O 0.02894 0.97081 0.35418 0.0
C23 C -0.00238 0.0707 0.35191 0.0
O24 O 0.91686 0.95206 0.39516 0.0
O25 O 0.96172 0.03241 0.40181 0.0
In26 In -0.00117 0.0052 0.71147 0.0
O27 O 0.96525 0.92415 0.72527 0.0
O28 O 0.93372 0.97056 0.73487 0.0
C29 C 0.06815 0.00493 0.68506 0.0
C30 C 0.93282 0.01221 0.68496 0.0
C31 C 0.0644 0.07713 0.7385 0.0
O32 O 0.03678 0.96523 0.69503 0.0
O33 O 0.0642 0.04448 0.68835 0.0
O34 O 0.03423 0.0844 0.72715 0.0
O35 O 0.06111 0.03364 0.7363 0.0
C36 C 0.93264 0.92802 0.73635 0.0
O37 O 0.95298 0.04276 0.70005 0.0
O38 O 0.94627 0.97856 0.68318 0.0
C39 C 0.96117 0.32807 0.24393 0.0
C40 C -0.00172 0.34235 0.25971 0.0
C41 C 0.95958 0.36574 0.2317 0.0
C42 C -0.00403 0.41828 0.2347 0.0
C43 C 0.03381 0.39494 0.26301 0.0
C44 C 0.03263 0.43251 0.25063 0.0
C45 C 0.99509 0.45902 0.22204 0.0
C46 C 0.02238 0.3585 0.17776 0.0
C47 C 0.98511 0.33629 0.16199 0.0
C48 C 0.02458 0.39782 0.19023 0.0
C49 C 0.98872 0.4147 0.18747 0.0
C50 C 0.94995 0.35392 0.15899 0.0
C51 C 0.9518 0.39279 0.1716 0.0
C52 C 0.99074 0.45686 0.20023 0.0
C53 C 0.04 0.67162 0.17882 0.0
C54 C 0.00337 0.66162 0.16318 0.0
C55 C 0.03646 0.63151 0.19101 0.0
C56 C -0.00387 0.58063 0.18786 0.0
C57 C 0.96319 0.61049 0.16002 0.0
C58 C 0.95989 0.57035 0.17213 0.0
C59 C 0.99298 0.53777 0.20031 0.0
C60 C 0.95491 0.63145 0.24334 0.0
C61 C 0.99111 0.65615 0.25932 0.0
C62 C 0.9566 0.5937 0.23115 0.0
C63 C 0.99476 0.58018 0.23457 0.0
C64 C 0.029 0.64216 0.26282 0.0
C65 C 0.03056 0.60428 0.25064 0.0
C66 C -0.004 0.53931 0.22207 0.0
H67 H 0.93275 0.28782 0.24132 0.0
H68 H 0.92969 0.3538 0.22004 0.0
H69 H 0.06289 0.40696 0.27504 0.0
H70 H 0.06074 0.4728 0.25339 0.0
H71 H 0.05055 0.34626 0.18014 0.0
H72 H 0.05463 0.41534 0.20187 0.0
H73 H 0.92075 0.33736 0.14698 0.0
H74 H 0.9241 0.40558 0.16904 0.0
H75 H 0.07201 0.71032 0.1814 0.0
H76 H 0.06571 0.64014 0.2027 0.0
H77 H 0.93395 0.60149 0.14829 0.0
H78 H 0.92866 0.5313 0.16938 0.0
H79 H 0.92461 0.64055 0.2405 0.0
H80 H 0.92755 0.57451 0.21924 0.0
H81 H 0.05778 0.66082 0.27485 0.0
H82 H 0.0601 0.59416 0.25364 0.0
N83 N -0.00244 0.50022 0.23207 0.0
N84 N 0.98984 0.49637 0.19025 0.0
C85 C 0.66379 0.02224 0.5129 0.0
C86 C 0.64714 0.98357 0.49766 0.0
C87 C 0.6279 0.02784 0.52477 0.0
C88 C 0.57465 0.99399 0.52199 0.0
C89 C 0.59392 0.95037 0.4946 0.0
C90 C 0.55803 0.95555 0.50666 0.0
C91 C 0.53591 -0.00015 0.53415 0.0
C92 C 0.62647 0.96539 0.58109 0.0
C93 C 0.65899 0.00922 0.593 0.0
C94 C 0.58754 0.9647 0.56884 0.0
C95 C 0.58032 0.00763 0.56853 0.0
C96 C 0.65157 0.05205 0.59269 0.0
C97 C 0.6121 0.05099 0.58073 0.0
C98 C 0.53923 0.00736 0.55578 0.0
C99 C 0.32987 0.97459 0.57684 0.0
C100 C 0.34278 0.01214 0.59236 0.0
C101 C 0.36829 0.97449 0.56463 0.0
C102 C 0.42037 0.01226 0.56755 0.0
C103 C 0.39502 0.04971 0.59533 0.0
C104 C 0.43344 0.04955 0.58312 0.0
C105 C 0.46149 0.01121 0.55525 0.0
C106 C 0.37072 0.05021 0.51113 0.0
C107 C 0.3448 0.01319 0.49554 0.0
C108 C 0.40786 0.04783 0.52348 0.0
C109 C 0.4193 0.00797 0.52068 0.0
C110 C 0.35701 0.97388 0.49253 0.0
C111 C 0.39409 0.97147 0.50492 0.0
C112 C 0.45898 0.00538 0.53353 0.0
H113 H 0.70459 0.04905 0.51525 0.0
H114 H 0.64188 0.05926 0.53582 0.0
H115 H 0.5801 0.92025 0.48294 0.0
H116 H 0.51718 0.92935 0.50406 0.0
H117 H 0.63156 0.93195 0.5811 0.0
H118 H 0.56294 0.93064 0.55969 0.0
H119 H 0.6759 0.08605 0.60192 0.0
H120 H 0.60681 0.08432 0.58076 0.0
H121 H 0.29015 0.9445 0.57443 0.0
H122 H 0.35736 0.9443 0.55315 0.0
H123 H 0.40619 0.07945 0.60703 0.0
H124 H 0.47341 0.07877 0.58575 0.0
H125 H 0.36289 0.08152 0.51356 0.0
H126 H 0.42802 0.07751 0.53507 0.0
H127 H 0.33741 0.94455 0.48076 0.0
H128 H 0.40261 0.94066 0.50236 0.0
N129 N 0.4959 -0.00076 0.52387 0.0
N130 N 0.50192 0.01268 0.5655 0.0
C131 C 0.35819 0.33195 0.84659 0.0
C132 C 0.33681 0.34831 0.83104 0.0
C133 C 0.39981 0.36809 0.85845 0.0
C134 C 0.41983 0.4213 0.85539 0.0
C135 C 0.35742 0.40142 0.8277 0.0
C136 C 0.39849 0.43755 0.83978 0.0
C137 C 0.46471 0.46042 0.86744 0.0
C138 C 0.34085 0.37178 0.91467 0.0
C139 C 0.35251 0.33985 0.9267 0.0
C140 C 0.37879 0.41029 0.90233 0.0
C141 C 0.42901 0.41767 0.90201 0.0
C142 C 0.40286 0.3475 0.92642 0.0
C143 C 0.44098 0.38655 0.91435 0.0
C144 C 0.46944 0.45815 0.88908 0.0
C145 C 0.64534 0.6691 0.90924 0.0
C146 C 0.66976 0.65718 0.92513 0.0
C147 C 0.60714 0.62991 0.89706 0.0
C148 C 0.59302 0.57806 0.90036 0.0
C149 C 0.65535 0.6052 0.92847 0.0
C150 C 0.61714 0.56602 0.91627 0.0
C151 C 0.55082 0.5361 0.88822 0.0
C152 C 0.67881 0.62447 0.84318 0.0
C153 C 0.66687 0.64946 0.82755 0.0
C154 C 0.64002 0.58825 0.85593 0.0
C155 C 0.5886 0.57669 0.85344 0.0
C156 C 0.61523 0.63731 0.82496 0.0
C157 C 0.57647 0.60105 0.83769 0.0
C158 C 0.54695 0.53752 0.8665 0.0
H159 H 0.34363 0.29117 0.84916 0.0
H160 H 0.41687 0.3543 0.86971 0.0
H161 H 0.34158 0.41496 0.81578 0.0
H162 H 0.4136 0.47833 0.83694 0.0
H163 H 0.30224 0.36651 0.91464 0.0
H164 H 0.36904 0.4344 0.89308 0.0
H165 H 0.41282 0.32365 0.93573 0.0
H166 H 0.47965 0.39198 0.91439 0.0
H167 H 0.65481 0.70862 0.90654 0.0
H168 H 0.58789 0.64011 0.88535 0.0
H169 H 0.67376 0.5948 0.94047 0.0
H170 H 0.60653 0.52625 0.91921 0.0
H171 H 0.71803 0.63226 0.84533 0.0
H172 H 0.65012 0.56878 0.86755 0.0
H173 H 0.60482 0.6563 0.81323 0.0
H174 H 0.53701 0.59245 0.8354 0.0
N175 N 0.50377 0.50002 0.857 0.0
N176 N 0.51222 0.49606 0.89864 0.0
C177 C 0.94511 0.10193 0.08838 0.0
C178 C 0.99349 0.10967 0.08235 0.0
C179 C 0.94122 0.1373 0.10153 0.0
C180 C 0.98678 0.18165 0.10854 0.0
C181 C 0.03568 0.1898 0.10232 0.0
C182 C 0.03843 0.15354 0.08941 0.0
C183 C 0.88845 0.12711 0.10803 0.0
C184 C 0.08512 0.23693 0.10927 0.0
C185 C 0.98065 0.29919 0.12688 0.0
C186 C 0.98367 0.29565 0.14837 0.0
C187 C 0.98085 0.26191 0.11373 0.0
C188 C 0.98362 0.21984 0.12231 0.0
C189 C 0.98564 0.21552 0.14403 0.0
C190 C 0.98597 0.25371 0.15681 0.0
C191 C 0.97935 0.2682 0.09064 0.0
C192 C 0.98803 0.1709 0.15376 0.0
H193 H 0.91031 0.06794 0.08301 0.0
H194 H 0.07592 0.15978 0.08471 0.0
H195 H 0.88544 0.12511 0.12512 0.0
H196 H 0.88273 0.15939 0.10304 0.0
H197 H 0.85685 0.09052 0.10142 0.0
H198 H 0.11999 0.23788 0.1028 0.0
H199 H 0.08504 0.2725 0.10446 0.0
H200 H 0.08794 0.2378 0.12637 0.0
H201 H 0.97938 0.33188 0.12032 0.0
H202 H 0.98773 0.25065 0.17344 0.0
H203 H 0.94643 0.23315 0.08373 0.0
H204 H 0.01519 0.27271 0.0836 0.0
H205 H 0.97566 0.30225 0.08646 0.0
H206 H 0.95526 0.13372 0.14821 0.0
H207 H 0.98683 0.17186 0.1709 0.0
H208 H 0.02415 0.17176 0.14908 0.0
C209 C 0.88282 0.03133 0.4271 0.0
C210 C 0.88067 0.98633 0.4195 0.0
C211 C 0.84413 0.0287 0.44011 0.0
C212 C 0.80264 0.97985 0.44587 0.0
C213 C 0.8007 0.93422 0.43854 0.0
C214 C 0.83962 0.93801 0.4253 0.0
C215 C 0.84726 0.07824 0.44742 0.0
C216 C 0.75741 0.88148 0.4446 0.0
C217 C 0.72831 0.97963 0.49339 0.0
C218 C 0.68531 0.97925 0.4845 0.0
C219 C 0.76599 0.97804 0.48102 0.0
C220 C 0.76085 0.97685 0.45924 0.0
C221 C 0.71703 0.97558 0.4502 0.0
C222 C 0.67959 0.97648 0.46296 0.0
C223 C 0.81178 0.97864 0.49122 0.0
C224 C 0.71051 0.97498 0.42704 0.0
H225 H 0.9144 0.06878 0.42261 0.0
H226 H 0.83795 0.90313 0.41951 0.0
H227 H 0.8125 0.07951 0.44221 0.0
H228 H 0.84792 0.07981 0.46454 0.0
H229 H 0.88213 0.11309 0.44155 0.0
H230 H 0.76257 0.84983 0.43819 0.0
H231 H 0.75506 0.87805 0.46167 0.0
H232 H 0.71995 0.87623 0.43902 0.0
H233 H 0.73244 0.98123 0.51007 0.0
H234 H 0.64659 0.97666 0.45606 0.0
H235 H 0.84771 0.01479 0.48722 0.0
H236 H 0.81601 0.94596 0.48543 0.0
H237 H 0.80823 0.97602 0.50831 0.0
H238 H 0.74249 0.01088 0.42036 0.0
H239 H 0.67323 0.97198 0.42249 0.0
H240 H 0.71253 0.94205 0.42012 0.0
C241 C 0.89694 0.84018 0.75196 0.0
C242 C 0.89557 0.88616 0.74987 0.0
C243 C 0.86138 0.80017 0.76465 0.0
C244 C 0.82354 0.80634 0.77538 0.0
C245 C 0.82217 0.85278 0.77336 0.0
C246 C 0.85827 0.89216 0.76067 0.0
C247 C 0.86412 0.75125 0.76653 0.0
C248 C 0.78227 0.86074 0.78449 0.0
C249 C 0.69913 0.68904 0.79277 0.0
C250 C 0.70804 0.68815 0.81402 0.0
C251 C 0.73685 0.72662 0.77993 0.0
C252 C 0.78475 0.76411 0.78852 0.0
C253 C 0.7945 0.76274 0.80985 0.0
C254 C 0.75597 0.72484 0.82236 0.0
C255 C 0.72505 0.72683 0.75725 0.0
C256 C 0.84514 0.80208 0.81956 0.0
H257 H 0.92579 0.83544 0.74366 0.0
H258 H 0.85701 0.92761 0.7591 0.0
H259 H 0.86913 0.74419 0.78296 0.0
H260 H 0.82738 0.71773 0.76107 0.0
H261 H 0.89643 0.75289 0.75746 0.0
H262 H 0.78675 0.89932 0.7814 0.0
H263 H 0.74289 0.83067 0.77962 0.0
H264 H 0.78522 0.85669 0.80139 0.0
H265 H 0.66252 0.66026 0.78616 0.0
H266 H 0.76294 0.72473 0.83879 0.0
H267 H 0.75511 0.72527 0.74775 0.0
H268 H 0.72567 0.76328 0.75336 0.0
H269 H 0.68671 0.69381 0.75284 0.0
H270 H 0.8779 0.803 0.81116 0.0
H271 H 0.8478 0.79384 0.8361 0.0
H272 H 0.84964 0.84116 0.81839 0.0
C273 C 0.96962 0.86766 0.09734 0.0
C274 C 0.01406 0.90143 0.08626 0.0
C275 C 0.96907 0.82985 0.11028 0.0
C276 C 0.01424 0.82609 0.11234 0.0
C277 C 0.05962 0.86084 0.10155 0.0
C278 C 0.05891 0.89799 0.08853 0.0
C279 C 0.9198 0.79321 0.12139 0.0
C280 C 0.10867 0.85833 0.10357 0.0
C281 C 0.02158 0.75268 0.1588 0.0
C282 C 0.00729 0.70426 0.15009 0.0
C283 C 0.025 0.79305 0.14663 0.0
C284 C 0.01331 0.78464 0.12528 0.0
C285 C -0.00085 0.73602 0.11636 0.0
C286 C -0.00341 0.69654 0.12885 0.0
C287 C 0.04048 0.84449 0.15665 0.0
C288 C 0.98615 0.72552 0.09366 0.0
H289 H 0.93481 0.8701 0.09561 0.0
H290 H 0.09339 0.92415 0.08004 0.0
H291 H 0.9064 0.75296 0.1163 0.0
H292 H 0.92695 0.79498 0.13828 0.0
H293 H 0.88838 0.80205 0.11849 0.0
H294 H 0.14126 0.88961 0.09488 0.0
H295 H 0.11999 0.86122 0.12007 0.0
H296 H 0.10208 0.82057 0.09772 0.0
H297 H 0.02929 0.75882 0.17524 0.0
H298 H 0.98646 0.6596 0.12191 0.0
H299 H 0.00832 0.85282 0.15541 0.0
H300 H 0.07411 0.87587 0.1485 0.0
H301 H 0.05065 0.84551 0.17323 0.0
H302 H 0.95291 0.7309 0.08987 0.0
H303 H 0.97625 0.68574 0.0891 0.0
H304 H 0.01931 0.75343 0.08423 0.0
C305 C 0.10094 0.96663 0.42911 0.0
C306 C 0.10763 0.01105 0.41906 0.0
C307 C 0.13972 0.96839 0.4419 0.0
C308 C 0.18627 0.01578 0.44476 0.0
C309 C 0.19297 0.06097 0.43491 0.0
C310 C 0.15354 0.05805 0.42213 0.0
C311 C 0.13118 0.91934 0.4521 0.0
C312 C 0.24202 0.11221 0.43768 0.0
C313 C 0.26844 0.02586 0.49131 0.0
C314 C 0.30518 0.01556 0.48244 0.0
C315 C 0.23004 0.02698 0.47918 0.0
C316 C 0.22833 0.01753 0.45767 0.0
C317 C 0.26573 0.00785 0.44858 0.0
C318 C 0.3037 0.00698 0.46108 0.0
C319 C 0.19072 0.0373 0.48942 0.0
C320 C 0.26524 -0.00227 0.42568 0.0
H321 H 0.06553 0.93018 0.42679 0.0
H322 H 0.15883 0.0925 0.41441 0.0
H323 H 0.16076 0.9099 0.44675 0.0
H324 H 0.13559 0.92482 0.46909 0.0
H325 H 0.0923 0.88592 0.44868 0.0
H326 H 0.24055 0.14403 0.42946 0.0
H327 H 0.24916 0.12225 0.45434 0.0
H328 H 0.27542 0.10946 0.43181 0.0
H329 H 0.26906 0.03197 0.50785 0.0
H330 H 0.33247 -0.0002 0.45409 0.0
H331 H 0.15155 0.00311 0.48762 0.0
H332 H 0.19017 0.07028 0.48184 0.0
H333 H 0.19872 0.04609 0.50616 0.0
H334 H 0.2285 0.96259 0.42135 0.0
H335 H 0.29792 0.99227 0.42095 0.0
H336 H 0.26724 0.03039 0.41682 0.0
C337 C 0.14238 0.11161 0.7611 0.0
C338 C 0.10185 0.11681 0.75281 0.0
C339 C 0.17949 0.14971 0.77412 0.0
C340 C 0.17542 0.19361 0.77926 0.0
C341 C 0.13396 0.19857 0.77127 0.0
C342 C 0.09786 0.16027 0.75796 0.0
C343 C 0.22359 0.14342 0.78208 0.0
C344 C 0.12792 0.24444 0.77669 0.0
C345 C 0.25042 0.26874 0.82676 0.0
C346 C 0.29431 0.30997 0.81785 0.0
C347 C 0.2106 0.23133 0.81437 0.0
C348 C 0.21541 0.23484 0.7926 0.0
C349 C 0.25953 0.27668 0.78354 0.0
C350 C 0.29829 0.31399 0.7963 0.0
C351 C 0.16372 0.18776 0.82457 0.0
C352 C 0.26644 0.28128 0.7604 0.0
H353 H 0.1457 0.07816 0.75707 0.0
H354 H 0.06639 0.16424 0.75164 0.0
H355 H 0.26094 0.17635 0.77692 0.0
H356 H 0.22394 0.14378 0.79922 0.0
H357 H 0.22109 0.10694 0.77665 0.0
H358 H 0.09231 0.2414 0.76991 0.0
H359 H 0.12668 0.24805 0.79372 0.0
H360 H 0.16174 0.28046 0.77105 0.0
H361 H 0.2472 0.26594 0.84345 0.0
H362 H 0.3325 0.34565 0.78942 0.0
H363 H 0.16145 0.15039 0.82092 0.0
H364 H 0.12801 0.18572 0.81846 0.0
H365 H 0.16456 0.1923 0.84163 0.0
H366 H 0.2676 0.2472 0.75421 0.0
H367 H 0.30248 0.31677 0.75581 0.0
H368 H 0.23314 0.28171 0.75301 0.0
C369 C 0.86969 0.04117 0.67659 0.0
C370 C 0.89512 0.01439 0.67085 0.0
C371 C 0.83172 0.04114 0.66378 0.0
C372 C 0.81976 0.01457 0.64462 0.0
C373 C 0.84632 0.98858 0.63853 0.0
C374 C 0.88333 0.98835 0.65183 0.0
C375 C 0.80361 0.06858 0.67095 0.0
C376 C 0.83534 0.96068 0.61803 0.0
C377 C 0.68858 0.97064 0.62017 0.0
C378 C 0.70029 0.01017 0.60594 0.0
C379 C 0.72709 0.9718 0.63297 0.0
C380 C 0.77862 0.01296 0.63116 0.0
C381 C 0.79074 0.05256 0.61655 0.0
C382 C 0.75124 0.05096 0.60425 0.0
C383 C 0.71252 0.92935 0.64861 0.0
C384 C 0.8454 0.09646 0.61388 0.0
H385 H 0.87857 0.0611 0.69135 0.0
H386 H 0.90318 0.96785 0.64731 0.0
H387 H 0.80839 0.09822 0.65952 0.0
H388 H 0.76162 0.04055 0.67209 0.0
H389 H 0.81771 0.08766 0.68621 0.0
H390 H 0.86116 0.94454 0.61517 0.0
H391 H 0.79471 0.92859 0.61755 0.0
H392 H 0.84013 0.98742 0.60527 0.0
H393 H 0.64902 0.93936 0.62156 0.0
H394 H 0.76023 0.08128 0.5931 0.0
H395 H 0.72305 0.94619 0.66437 0.0
H396 H 0.73438 0.90901 0.64563 0.0
H397 H 0.67056 0.90057 0.64826 0.0
H398 H 0.85961 0.11855 0.62854 0.0
H399 H 0.84854 0.12343 0.60146 0.0
H400 H 0.8713 0.08094 0.61013 0.0
C401 C 0.90737 0.8582 0.99456 0.0
C402 C 0.89819 0.89546 0.00368 0.0
C403 C 0.87068 0.82001 0.98143 0.0
C404 C 0.82372 0.81914 0.9773 0.0
C405 C 0.81444 0.857 0.98628 0.0
C406 C 0.85182 0.89474 -0.0006 0.0
C407 C 0.88192 0.78023 0.97217 0.0
C408 C 0.76485 0.85735 0.98218 0.0
C409 C 0.74695 0.74555 0.92983 0.0
C410 C 0.7093 0.69875 0.93846 0.0
C411 C 0.78425 0.78525 0.9423 0.0
C412 C 0.78391 0.77791 0.9639 0.0
C413 C 0.74598 0.73083 0.97272 0.0
C414 C 0.70911 0.69184 0.95989 0.0
C415 C 0.8242 0.8349 0.93235 0.0
C416 C 0.74435 0.72161 0.9957 0.0
H417 H 0.94316 0.85858 -0.00218 0.0
H418 H 0.84459 0.92351 0.0064 0.0
H419 H 0.85244 0.74103 0.9773 0.0
H420 H 0.87962 0.78079 0.95507 0.0
H421 H 0.92074 0.78691 0.97661 0.0
H422 H 0.76407 0.8901 0.98999 0.0
H423 H 0.75966 0.85987 0.96533 0.0
H424 H 0.73144 0.8207 0.98761 0.0
H425 H 0.74766 0.7509 0.91326 0.0
H426 H 0.67964 0.6561 0.9667 0.0
H427 H 0.86347 0.84111 0.93539 0.0
H428 H 0.82258 0.86814 0.93919 0.0
H429 H 0.81858 0.83483 0.91538 0.0
H430 H 0.78132 0.72497 0.0009 0.0
H431 H 0.71222 0.68292 0.00011 0.0
H432 H 0.7398 0.75147 0.00412 0.0
C433 C 0.94068 0.84248 0.33314 0.0
C434 C 0.98684 0.88891 0.33668 0.0
C435 C 0.93945 0.8043 0.32006 0.0
C436 C 0.98555 0.81277 0.31045 0.0
C437 C 0.0321 0.85987 0.31377 0.0
C438 C 0.03215 0.89743 0.32681 0.0
C439 C 0.88903 0.75465 0.31676 0.0
C440 C 0.08208 0.87024 0.30385 0.0
C441 C -0.00305 0.697 0.29383 0.0
C442 C 0.98898 0.69594 0.27243 0.0
C443 C 0.99552 0.73458 0.30639 0.0
C444 C 0.98559 0.77184 0.29736 0.0
C445 C 0.97698 0.77072 0.27581 0.0
C446 C 0.97893 0.73287 0.26359 0.0
C447 C 0.00499 0.73461 0.32933 0.0
C448 C 0.96626 0.80983 0.26564 0.0
H449 H 0.90554 0.8358 0.3407 0.0
H450 H 0.06796 0.93327 0.3295 0.0
H451 H 0.87996 0.74809 0.30001 0.0
H452 H 0.89242 0.72155 0.32253 0.0
H453 H 0.85628 0.75485 0.32477 0.0
H454 H 0.11466 0.90938 0.30761 0.0
H455 H 0.09234 0.84119 0.30912 0.0
H456 H 0.07743 0.86645 0.28682 0.0
H457 H 0.00389 0.6681 0.30082 0.0
H458 H 0.97335 0.73269 0.24703 0.0
H459 H 0.97139 0.73093 0.33804 0.0
H460 H 0.03914 0.77184 0.33396 0.0
H461 H 0.01172 0.70267 0.33395 0.0
H462 H 0.93234 0.80911 0.27293 0.0
H463 H 0.95868 0.8026 0.2488 0.0
H464 H -0.00027 0.84926 0.2679 0.0
C465 C 0.14315 0.05156 0.66132 0.0
C466 C 0.10711 0.00546 0.67088 0.0
C467 C 0.1812 0.05307 0.64821 0.0
C468 C 0.18309 0.00733 0.64454 0.0
C469 C 0.14645 0.96054 0.65397 0.0
C470 C 0.10892 0.96019 0.66708 0.0
C471 C 0.21974 0.10373 0.63848 0.0
C472 C 0.14714 0.91096 0.65034 0.0
C473 C 0.25463 0.00137 0.59713 0.0
C474 C 0.30198 0.01142 0.60568 0.0
C475 C 0.21551 -0.0002 0.6096 0.0
C476 C 0.22403 0.00868 0.63111 0.0
C477 C 0.27178 0.01904 0.63982 0.0
C478 C 0.31013 0.02018 0.62701 0.0
C479 C 0.16509 0.98869 0.59975 0.0
C480 C 0.28229 0.02873 0.66271 0.0
H481 H 0.14194 0.08668 0.66422 0.0
H482 H 0.08107 0.92445 0.67442 0.0
H483 H 0.25945 0.11457 0.64349 0.0
H484 H 0.21834 0.09971 0.62141 0.0
H485 H 0.21247 0.13562 0.64265 0.0
H486 H 0.11527 0.87764 0.65849 0.0
H487 H 0.14383 0.90204 0.63357 0.0
H488 H 0.18446 0.91545 0.65571 0.0
H489 H 0.24832 0.99521 0.58062 0.0
H490 H 0.3463 0.02719 0.63377 0.0
H491 H 0.15828 0.02144 0.60257 0.0
H492 H 0.13256 0.95395 0.60687 0.0
H493 H 0.16444 0.98219 0.58282 0.0
H494 H 0.27814 0.06211 0.66755 0.0
H495 H 0.32163 0.0367 0.66701 0.0
H496 H 0.25355 0.99466 0.67151 0.0
C497 C 0.10714 0.11628 0.98476 0.0
C498 C 0.12087 0.1053 0.00401 0.0
C499 C 0.14469 0.15298 0.97159 0.0
C500 C 0.19701 0.18 0.97805 0.0
C501 C 0.21112 0.16878 -0.00257 0.0
C502 C 0.17288 0.13114 0.01011 0.0
C503 C 0.12832 0.1632 0.95087 0.0
C504 C 0.26641 0.19736 0.00497 0.0
C505 C 0.30279 0.248 0.93819 0.0
C506 C 0.31238 0.29883 0.93966 0.0
C507 C 0.2649 0.20872 0.95043 0.0
C508 C 0.23679 0.22094 0.96474 0.0
C509 C 0.24665 0.27237 0.96636 0.0
C510 C 0.28403 0.31065 0.95363 0.0
C511 C 0.25474 0.15416 0.94798 0.0
C512 C 0.21806 0.28705 0.98168 0.0
H513 H 0.06696 0.09613 0.97997 0.0
H514 H 0.18353 0.12289 0.02505 0.0
H515 H 0.13649 0.20369 0.95024 0.0
H516 H 0.15088 0.15833 0.93836 0.0
H517 H 0.08652 0.13703 0.94774 0.0
H518 H 0.27105 0.18367 0.02033 0.0
H519 H 0.2918 0.1926 0.99378 0.0
H520 H 0.28001 0.23931 0.00607 0.0
H521 H 0.32451 0.2389 0.92723 0.0
H522 H 0.29186 0.35011 0.95486 0.0
H523 H 0.21356 0.12792 0.94392 0.0
H524 H 0.26216 0.14045 0.96281 0.0
H525 H 0.27925 0.15095 0.93586 0.0
H526 H 0.17597 0.26492 0.97842 0.0
H527 H 0.23099 0.32895 0.98126 0.0
H528 H 0.22394 0.27695 -0.00245 0.0
C529 C 0.04607 0.15185 0.33143 0.0
C530 C -0.00113 0.11012 0.33784 0.0
C531 C 0.04747 0.18974 0.31823 0.0
C532 C 0.00056 0.18609 0.31158 0.0
C533 C 0.95283 0.14399 0.31802 0.0
C534 C 0.95257 0.10631 0.33096 0.0
C535 C 0.09909 0.23374 0.31145 0.0
C536 C 0.90201 0.13913 0.31148 0.0
C537 C 0.00223 0.30829 0.29447 0.0
C538 C -0.0005 0.30259 0.27293 0.0
C539 C 0.00281 0.27073 0.30723 0.0
C540 C 0.00125 0.22677 0.29819 0.0
C541 C -0.00086 0.22114 0.27643 0.0
C542 C -0.00209 0.259 0.26404 0.0
C543 C 0.00433 0.27773 0.33038 0.0
C544 C -0.00189 0.17512 0.26623 0.0
H545 H 0.08194 0.15479 0.33666 0.0
H546 H 0.91598 0.0742 0.33595 0.0
H547 H 0.10106 0.23535 0.29433 0.0
H548 H 0.10365 0.271 0.31694 0.0
H549 H 0.13195 0.23003 0.31744 0.0
H550 H 0.86828 0.10399 0.31783 0.0
H551 H 0.90015 0.17351 0.31676 0.0
H552 H 0.89888 0.13775 0.29439 0.0
H553 H 0.00296 0.34176 0.30136 0.0
H554 H -0.00366 0.25486 0.24737 0.0
H555 H 0.03861 0.27767 0.33697 0.0
H556 H 0.96963 0.24496 0.33741 0.0
H557 H 0.00578 0.3143 0.33494 0.0
H558 H 0.03217 0.17231 0.27122 0.0
H559 H -0.00189 0.17735 0.2491 0.0
H560 H 0.96316 0.13905 0.27111 0.0
loop_
_geom_bond_atom_site_label_1
_geom_bond_atom_site_label_2
_geom_bond_distance
_geom_bond_site_symmetry_2
_ccdc_geom_bond_type
In0 O1 2.294 1_455 S
In0 O2 2.326 . S
In0 O6 2.266 1_445 S
In0 O7 2.326 1_445 S
In0 O8 2.266 1_545 S
In0 O9 2.326 1_445 S
In0 O11 2.294 . S
In0 O12 2.326 . S
O1 In0 2.294 1_655 S
O1 C10 1.240 1_655 S
O2 In0 2.326 . S
O2 C10 1.252 . S
C3 O6 1.252 . S
C3 O7 1.260 . S
C4 O11 1.240 . S
C4 O12 1.252 . S
C5 O8 1.236 1_655 S
C5 O9 1.286 . S
O6 In0 2.266 1_665 S
O6 C3 1.252 . S
O7 In0 2.326 1_665 S
O7 C3 1.260 . S
O8 In0 2.266 1_565 S
O8 C5 1.236 1_455 S
O9 In0 2.326 1_665 S
O9 C5 1.286 . S
C10 O1 1.240 1_455 S
C10 O2 1.252 . S
O11 In0 2.294 . S
O11 C4 1.240 . S
O12 In0 2.326 . S
O12 C4 1.252 . S
In13 O14 2.294 . S
In13 O15 2.326 1_455 S
In13 O19 2.266 . S
In13 O20 2.326 1_545 S
In13 O21 2.266 1_445 S
In13 O22 2.326 1_545 S
In13 O24 2.294 1_445 S
In13 O25 2.326 1_455 S
O14 In13 2.294 . S
O14 C23 1.240 1_455 S
O15 In13 2.326 1_655 S
O15 C23 1.252 . S
C16 O19 1.252 1_565 S
C16 O20 1.260 . S
C17 O24 1.240 1_545 S
C17 O25 1.252 . S
C18 O21 1.252 1_455 S
C18 O22 1.260 . S
O19 In13 2.266 . S
O19 C16 1.252 1_545 S
O20 In13 2.326 1_565 S
O20 C16 1.260 . S
O21 In13 2.266 1_665 S
O21 C18 1.252 1_655 S
O22 In13 2.326 1_565 S
O22 C18 1.260 . S
C23 O14 1.240 1_655 S
C23 O15 1.252 . S
O24 In13 2.294 1_665 S
O24 C17 1.240 1_565 S
O25 In13 2.326 1_655 S
O25 C17 1.252 . S
In26 O27 2.281 1_445 S
In26 O28 2.328 1_445 S
In26 O32 2.253 1_545 S
In26 O33 2.328 . S
In26 O34 2.279 . S
In26 O35 2.323 . S
In26 O37 2.307 1_455 S
In26 O38 2.325 1_445 S
O27 In26 2.281 1_665 S
O27 C36 1.240 . S
O28 In26 2.328 1_665 S
O28 C36 1.252 . S
C29 O32 1.252 1_545 S
C29 O33 1.260 . S
C30 O37 1.240 1_565 S
C30 O38 1.252 . S
C31 O34 1.252 . S
C31 O35 1.260 . S
O32 In26 2.253 1_565 S
O32 C29 1.252 1_565 S
O33 In26 2.328 . S
O33 C29 1.260 . S
O34 In26 2.279 . S
O34 C31 1.252 . S
O35 In26 2.323 . S
O35 C31 1.260 . S
C36 O27 1.240 . S
C36 O28 1.252 . S
O37 In26 2.307 1_655 S
O37 C30 1.240 1_545 S
O38 In26 2.325 1_665 S
O38 C30 1.252 . S
C39 C40 1.384 1_655 S
C39 C41 1.384 . S
C39 H67 0.931 . S
C40 C39 1.384 1_455 S
C40 C43 1.382 . S
C41 C39 1.384 . S
C41 C42 1.381 1_655 S
C41 H68 0.930 . S
C42 C41 1.381 1_455 S
C42 C44 1.381 . S
C42 C45 1.487 . S
C43 C40 1.382 . S
C43 C44 1.387 . S
C43 H69 0.930 . S
C44 C42 1.381 . S
C44 C43 1.387 . S
C44 H70 0.931 . S
C45 C42 1.487 . S
C45 C52 1.400 . S
C45 N83 1.343 . S
C46 C47 1.384 . S
C46 C48 1.384 . S
C46 H71 0.931 . S
C47 C46 1.384 . S
C47 C50 1.382 1_455 S
C48 C46 1.384 . S
C48 C49 1.383 1_455 S
C48 H72 0.930 . S
C49 C48 1.383 1_655 S
C49 C51 1.380 . S
C49 C52 1.492 1_655 S
C50 C47 1.382 1_655 S
C50 C51 1.387 . S
C50 H73 0.930 . S
C51 C49 1.380 . S
C51 C50 1.387 . S
C51 H74 0.931 . S
C52 C45 1.400 . S
C52 C49 1.492 1_455 S
C52 N84 1.336 1_455 S
C53 C54 1.384 . S
C53 C55 1.384 . S
C53 H75 0.931 . S
C54 C53 1.384 . S
C54 C57 1.382 1_455 S
C55 C53 1.384 . S
C55 C56 1.382 1_455 S
C55 H76 0.930 . S
C56 C55 1.382 1_655 S
C56 C58 1.380 . S
C56 C59 1.482 1_655 S
C57 C54 1.382 1_655 S
C57 C58 1.387 . S
C57 H77 0.930 . S
C58 C56 1.380 . S
C58 C57 1.387 . S
C58 H78 0.931 . S
C59 C56 1.482 1_455 S
C59 C66 1.400 . S
C59 N84 1.348 1_455 S
C60 C61 1.384 1_655 S
C60 C62 1.384 . S
C60 H79 0.931 . S
C61 C60 1.384 1_455 S
C61 C64 1.382 . S
C62 C60 1.384 . S
C62 C63 1.381 1_655 S
C62 H80 0.930 . S
C63 C62 1.381 1_455 S
C63 C65 1.381 . S
C63 C66 1.487 . S
C64 C61 1.382 . S
C64 C65 1.387 . S
C64 H81 0.930 . S
C65 C63 1.381 . S
C65 C64 1.387 . S
C65 H82 0.931 . S
C66 C59 1.400 . S
C66 C63 1.487 . S
C66 N83 1.343 . S
H67 C39 0.931 . S
H68 C41 0.930 . S
H69 C43 0.930 . S
H70 C44 0.931 . S
H71 C46 0.931 . S
H72 C48 0.930 . S
H73 C50 0.930 . S
H74 C51 0.931 . S
H75 C53 0.931 . S
H76 C55 0.930 . S
H77 C57 0.930 . S
H78 C58 0.931 . S
H79 C60 0.931 . S
H80 C62 0.930 . S
H81 C64 0.930 . S
H82 C65 0.931 . S
N83 C45 1.343 . S
N83 C66 1.343 . S
N84 C52 1.336 1_655 S
N84 C59 1.348 1_655 S
C85 C86 1.384 . S
C85 C87 1.384 . S
C85 H113 0.931 . S
C86 C85 1.384 . S
C86 C89 1.382 1_545 S
C87 C85 1.384 . S
C87 C88 1.379 1_545 S
C87 H114 0.930 . S
C88 C87 1.379 1_565 S
C88 C90 1.388 . S
C88 C91 1.482 1_565 S
C89 C86 1.382 1_565 S
C89 C90 1.387 . S
C89 H115 0.930 . S
C90 C88 1.388 . S
C90 C89 1.387 . S
C90 H116 0.931 . S
C91 C88 1.482 1_545 S
C91 C98 1.399 . S
C91 N129 1.343 1_545 S
C92 C93 1.384 1_565 S
C92 C94 1.384 . S
C92 H117 0.931 . S
C93 C92 1.384 1_545 S
C93 C96 1.382 . S
C94 C92 1.384 . S
C94 C95 1.381 1_565 S
C94 H118 0.930 . S
C95 C94 1.381 1_545 S
C95 C97 1.381 . S
C95 C98 1.487 . S
C96 C93 1.382 . S
C96 C97 1.387 . S
C96 H119 0.930 . S
C97 C95 1.381 . S
C97 C96 1.387 . S
C97 H120 0.931 . S
C98 C91 1.399 . S
C98 C95 1.487 . S
C98 N130 1.343 . S
C99 C100 1.384 1_565 S
C99 C101 1.384 . S
C99 H121 0.931 . S
C100 C99 1.384 1_545 S
C100 C103 1.382 . S
C101 C99 1.384 . S
C101 C102 1.381 1_565 S
C101 H122 0.930 . S
C102 C101 1.381 1_545 S
C102 C104 1.381 . S
C102 C105 1.487 . S
C103 C100 1.382 . S
C103 C104 1.387 . S
C103 H123 0.930 . S
C104 C102 1.381 . S
C104 C103 1.387 . S
C104 H124 0.931 . S
C105 C102 1.487 . S
C105 C112 1.399 . S
C105 N130 1.343 . S
C106 C107 1.384 . S
C106 C108 1.384 . S
C106 H125 0.931 . S
C107 C106 1.384 . S
C107 C110 1.382 1_545 S
C108 C106 1.384 . S
C108 C109 1.371 1_545 S
C108 H126 0.930 . S
C109 C108 1.371 1_565 S
C109 C111 1.387 . S
C109 C112 1.492 1_565 S
C110 C107 1.382 1_565 S
C110 C111 1.387 . S
C110 H127 0.930 . S
C111 C109 1.387 . S
C111 C110 1.387 . S
C111 H128 0.931 . S
C112 C105 1.399 . S
C112 C109 1.492 1_545 S
C112 N129 1.343 1_545 S
H113 C85 0.931 . S
H114 C87 0.930 . S
H115 C89 0.930 . S
H116 C90 0.931 . S
H117 C92 0.931 . S
H118 C94 0.930 . S
H119 C96 0.930 . S
H120 C97 0.931 . S
H121 C99 0.931 . S
H122 C101 0.930 . S
H123 C103 0.930 . S
H124 C104 0.931 . S
H125 C106 0.931 . S
H126 C108 0.930 . S
H127 C110 0.930 . S
H128 C111 0.931 . S
N129 C91 1.343 1_565 S
N129 C112 1.343 1_565 S
N130 C98 1.343 . S
N130 C105 1.343 . S
C131 C132 1.384 . S
C131 C133 1.384 . S
C131 H159 0.931 . S
C132 C131 1.384 . S
C132 C135 1.382 . S
C133 C131 1.384 . S
C133 C134 1.381 . S
C133 H160 0.930 . S
C134 C133 1.381 . S
C134 C136 1.381 . S
C134 C137 1.487 . S
C135 C132 1.382 . S
C135 C136 1.387 . S
C135 H161 0.930 . S
C136 C134 1.381 . S
C136 C135 1.387 . S
C136 H162 0.931 . S
C137 C134 1.487 . S
C137 C144 1.399 . S
C137 N175 1.343 . S
C138 C139 1.384 . S
C138 C140 1.384 . S
C138 H163 0.931 . S
C139 C138 1.384 . S
C139 C142 1.382 . S
C140 C138 1.384 . S
C140 C141 1.381 . S
C140 H164 0.930 . S
C141 C140 1.381 . S
C141 C143 1.381 . S
C141 C144 1.487 . S
C142 C139 1.382 . S
C142 C143 1.387 . S
C142 H165 0.930 . S
C143 C141 1.381 . S
C143 C142 1.387 . S
C143 H166 0.931 . S
C144 C137 1.399 . S
C144 C141 1.487 . S
C144 N176 1.343 . S
C145 C146 1.384 . S
C145 C147 1.384 . S
C145 H167 0.931 . S
C146 C145 1.384 . S
C146 C149 1.382 . S
C147 C145 1.384 . S
C147 C148 1.381 . S
C147 H168 0.930 . S
C148 C147 1.381 . S
C148 C150 1.381 . S
C148 C151 1.487 . S
C149 C146 1.382 . S
C149 C150 1.387 . S
C149 H169 0.930 . S
C150 C148 1.381 . S
C150 C149 1.387 . S
C150 H170 0.931 . S
C151 C148 1.487 . S
C151 C158 1.399 . S
C151 N176 1.343 . S
C152 C153 1.384 . S
C152 C154 1.384 . S
C152 H171 0.931 . S
C153 C152 1.384 . S
C153 C156 1.382 . S
C154 C152 1.384 . S
C154 C155 1.381 . S
C154 H172 0.930 . S
C155 C154 1.381 . S
C155 C157 1.381 . S
C155 C158 1.487 . S
C156 C153 1.382 . S
C156 C157 1.387 . S
C156 H173 0.930 . S
C157 C155 1.381 . S
C157 C156 1.387 . S
C157 H174 0.931 . S
C158 C151 1.399 . S
C158 C155 1.487 . S
C158 N175 1.343 . S
H159 C131 0.931 . S
H160 C133 0.930 . S
H161 C135 0.930 . S
H162 C136 0.931 . S
H163 C138 0.931 . S
H164 C140 0.930 . S
H165 C142 0.930 . S
H166 C143 0.931 . S
H167 C145 0.931 . S
H168 C147 0.930 . S
H169 C149 0.930 . S
H170 C150 0.931 . S
H171 C152 0.931 . S
H172 C154 0.930 . S
H173 C156 0.930 . S
H174 C157 0.931 . S
N175 C137 1.343 . S
N175 C158 1.343 . S
N176 C144 1.343 . S
N176 C151 1.343 . S
C177 C178 1.391 1_655 S
C177 C179 1.394 . S
C177 H193 0.931 . S
C178 C177 1.391 1_455 S
C178 C182 1.376 . S
C179 C177 1.394 . S
C179 C180 1.369 1_655 S
C179 C183 1.531 . S
C180 C179 1.369 1_455 S
C180 C181 1.410 . S
C180 C188 1.503 . S
C181 C180 1.410 . S
C181 C182 1.392 . S
C181 C184 1.511 . S
C182 C178 1.376 . S
C182 C181 1.392 . S
C182 H194 0.929 . S
C183 C179 1.531 . S
C183 H195 0.960 . S
C183 H196 0.962 . S
C183 H197 0.960 . S
C184 C181 1.511 . S
C184 H198 0.961 . S
C184 H199 0.961 . S
C184 H200 0.961 . S
C185 C186 1.370 1_655 S
C185 C187 1.363 . S
C185 H201 0.931 . S
C186 C185 1.370 1_455 S
C186 C190 1.408 . S
C187 C185 1.363 . S
C187 C188 1.370 1_655 S
C187 C191 1.524 . S
C188 C180 1.503 . S
C188 C187 1.370 1_455 S
C188 C189 1.403 . S
C189 C188 1.403 . S
C189 C190 1.404 . S
C189 C192 1.539 . S
C190 C186 1.408 . S
C190 C189 1.404 . S
C190 H202 0.930 . S
C191 C187 1.524 . S
C191 H203 0.956 . S
C191 H204 0.961 1_655 S
C191 H205 0.961 . S
C192 C189 1.539 . S
C192 H206 0.958 . S
C192 H207 0.961 . S
C192 H208 0.960 . S
H193 C177 0.931 . S
H194 C182 0.929 . S
H195 C183 0.960 . S
H196 C183 0.962 . S
H197 C183 0.960 . S
H198 C184 0.961 . S
H199 C184 0.961 . S
H200 C184 0.961 . S
H201 C185 0.931 . S
H202 C190 0.930 . S
H203 C191 0.956 . S
H204 C191 0.961 1_455 S
H205 C191 0.961 . S
H206 C192 0.958 . S
H207 C192 0.961 . S
H208 C192 0.960 . S
C209 C210 1.391 . S
C209 C211 1.394 . S
C209 H225 0.931 . S
C210 C209 1.391 . S
C210 C214 1.376 1_545 S
C211 C209 1.394 . S
C211 C212 1.369 . S
C211 C215 1.531 . S
C212 C211 1.369 . S
C212 C213 1.410 1_545 S
C212 C220 1.503 . S
C213 C212 1.410 1_565 S
C213 C214 1.392 . S
C213 C216 1.511 . S
C214 C210 1.376 1_565 S
C214 C213 1.392 . S
C214 H226 0.929 . S
C215 C211 1.531 . S
C215 H227 0.960 . S
C215 H228 0.962 . S
C215 H229 0.960 . S
C216 C213 1.511 . S
C216 H230 0.961 . S
C216 H231 0.961 . S
C216 H232 0.961 . S
C217 C218 1.370 1_565 S
C217 C219 1.363 . S
C217 H233 0.931 . S
C218 C217 1.370 1_545 S
C218 C222 1.408 . S
C219 C217 1.363 . S
C219 C220 1.370 1_565 S
C219 C223 1.524 . S
C220 C212 1.503 . S
C220 C219 1.370 1_545 S
C220 C221 1.403 . S
C221 C220 1.403 . S
C221 C222 1.404 . S
C221 C224 1.539 . S
C222 C218 1.408 . S
C222 C221 1.404 . S
C222 H234 0.930 . S
C223 C219 1.524 . S
C223 H235 0.956 . S
C223 H236 0.961 . S
C223 H237 0.961 . S
C224 C221 1.539 . S
C224 H238 0.958 . S
C224 H239 0.961 . S
C224 H240 0.960 . S
H225 C209 0.931 . S
H226 C214 0.929 . S
H227 C215 0.960 . S
H228 C215 0.962 . S
H229 C215 0.960 . S
H230 C216 0.961 . S
H231 C216 0.961 . S
H232 C216 0.961 . S
H233 C217 0.931 . S
H234 C222 0.930 . S
H235 C223 0.956 . S
H236 C223 0.961 . S
H237 C223 0.961 . S
H238 C224 0.958 . S
H239 C224 0.961 . S
H240 C224 0.960 . S
C241 C242 1.391 . S
C241 C243 1.394 . S
C241 H257 0.931 . S
C242 C241 1.391 . S
C242 C246 1.376 . S
C243 C241 1.394 . S
C243 C244 1.369 . S
C243 C247 1.531 . S
C244 C243 1.369 . S
C244 C245 1.410 . S
C244 C252 1.503 . S
C245 C244 1.410 . S
C245 C246 1.392 . S
C245 C248 1.511 . S
C246 C242 1.376 . S
C246 C245 1.392 . S
C246 H258 0.929 . S
C247 C243 1.531 . S
C247 H259 0.960 . S
C247 H260 0.962 . S
C247 H261 0.960 . S
C248 C245 1.511 . S
C248 H262 0.961 . S
C248 H263 0.961 . S
C248 H264 0.961 . S
C249 C250 1.370 . S
C249 C251 1.363 . S
C249 H265 0.931 . S
C250 C249 1.370 . S
C250 C254 1.408 . S
C251 C249 1.363 . S
C251 C252 1.370 . S
C251 C255 1.524 . S
C252 C244 1.503 . S
C252 C251 1.370 . S
C252 C253 1.403 . S
C253 C252 1.403 . S
C253 C254 1.404 . S
C253 C256 1.539 . S
C254 C250 1.408 . S
C254 C253 1.404 . S
C254 H266 0.930 . S
C255 C251 1.524 . S
C255 H267 0.956 . S
C255 H268 0.961 . S
C255 H269 0.961 . S
C256 C253 1.539 . S
C256 H270 0.958 . S
C256 H271 0.961 . S
C256 H272 0.960 . S
H257 C241 0.931 . S
H258 C246 0.929 . S
H259 C247 0.960 . S
H260 C247 0.962 . S
H261 C247 0.960 . S
H262 C248 0.961 . S
H263 C248 0.961 . S
H264 C248 0.961 . S
H265 C249 0.931 . S
H266 C254 0.930 . S
H267 C255 0.956 . S
H268 C255 0.961 . S
H269 C255 0.961 . S
H270 C256 0.958 . S
H271 C256 0.961 . S
H272 C256 0.960 . S
C273 C274 1.384 1_655 S
C273 C275 1.394 . S
C273 H289 0.931 . S
C274 C273 1.384 1_455 S
C274 C278 1.391 . S
C275 C273 1.394 . S
C275 C276 1.369 1_655 S
C275 C279 1.531 . S
C276 C275 1.369 1_455 S
C276 C277 1.410 . S
C276 C284 1.503 . S
C277 C276 1.410 . S
C277 C278 1.392 . S
C277 C280 1.511 . S
C278 C274 1.391 . S
C278 C277 1.392 . S
C278 H290 0.929 . S
C279 C275 1.531 . S
C279 H291 0.960 . S
C279 H292 0.962 . S
C279 H293 0.960 . S
C280 C277 1.511 . S
C280 H294 0.961 . S
C280 H295 0.961 . S
C280 H296 0.961 . S
C281 C282 1.370 1_655 S
C281 C283 1.363 . S
C281 H297 0.931 . S
C282 C281 1.370 1_455 S
C282 C286 1.408 . S
C283 C281 1.363 . S
C283 C284 1.370 1_655 S
C283 C287 1.524 . S
C284 C276 1.503 . S
C284 C283 1.370 1_455 S
C284 C285 1.403 . S
C285 C284 1.403 . S
C285 C286 1.404 . S
C285 C288 1.539 . S
C286 C282 1.408 . S
C286 C285 1.404 . S
C286 H298 0.930 . S
C287 C283 1.524 . S
C287 H299 0.956 . S
C287 H300 0.961 1_655 S
C287 H301 0.961 . S
C288 C285 1.539 . S
C288 H302 0.946 1_455 S
C288 H303 0.961 . S
C288 H304 0.960 . S
H289 C273 0.931 . S
H290 C278 0.929 . S
H291 C279 0.960 . S
H292 C279 0.962 . S
H293 C279 0.960 . S
H294 C280 0.961 . S
H295 C280 0.961 . S
H296 C280 0.961 . S
H297 C281 0.931 . S
H298 C286 0.930 . S
H299 C287 0.956 . S
H300 C287 0.961 1_455 S
H301 C287 0.961 . S
H302 C288 0.946 1_655 S
H303 C288 0.961 . S
H304 C288 0.960 . S
C305 C306 1.391 1_565 S
C305 C307 1.394 . S
C305 H321 0.931 . S
C306 C305 1.391 1_545 S
C306 C310 1.376 . S
C307 C305 1.394 . S
C307 C308 1.369 1_565 S
C307 C311 1.531 . S
C308 C307 1.369 1_545 S
C308 C309 1.410 . S
C308 C316 1.503 . S
C309 C308 1.410 . S
C309 C310 1.392 . S
C309 C312 1.511 . S
C310 C306 1.376 . S
C310 C309 1.392 . S
C310 H322 0.929 . S
C311 C307 1.531 . S
C311 H323 0.960 . S
C311 H324 0.962 . S
C311 H325 0.960 . S
C312 C309 1.511 . S
C312 H326 0.961 . S
C312 H327 0.961 . S
C312 H328 0.961 . S
C313 C314 1.370 1_565 S
C313 C315 1.363 . S
C313 H329 0.931 . S
C314 C313 1.370 1_545 S
C314 C318 1.408 . S
C315 C313 1.363 . S
C315 C316 1.370 1_565 S
C315 C319 1.524 . S
C316 C308 1.503 . S
C316 C315 1.370 1_545 S
C316 C317 1.403 . S
C317 C316 1.403 . S
C317 C318 1.404 . S
C317 C320 1.539 . S
C318 C314 1.408 . S
C318 C317 1.404 . S
C318 H330 0.930 . S
C319 C315 1.524 . S
C319 H331 0.956 . S
C319 H332 0.961 . S
C319 H333 0.961 . S
C320 C317 1.539 . S
C320 H334 0.958 . S
C320 H335 0.961 . S
C320 H336 0.960 . S
H321 C305 0.931 . S
H322 C310 0.929 . S
H323 C311 0.960 . S
H324 C311 0.962 . S
H325 C311 0.960 . S
H326 C312 0.961 . S
H327 C312 0.961 . S
H328 C312 0.961 . S
H329 C313 0.931 . S
H330 C318 0.930 . S
H331 C319 0.956 . S
H332 C319 0.961 . S
H333 C319 0.961 . S
H334 C320 0.958 . S
H335 C320 0.961 . S
H336 C320 0.960 . S
C337 C338 1.391 . S
C337 C339 1.394 . S
C337 H353 0.931 . S
C338 C337 1.391 . S
C338 C342 1.376 . S
C339 C337 1.394 . S
C339 C340 1.369 . S
C339 C343 1.531 . S
C340 C339 1.369 . S
C340 C341 1.410 . S
C340 C348 1.503 . S
C341 C340 1.410 . S
C341 C342 1.392 . S
C341 C344 1.511 . S
C342 C338 1.376 . S
C342 C341 1.392 . S
C342 H354 0.929 . S
C343 C339 1.531 . S
C343 H355 0.960 . S
C343 H356 0.962 . S
C343 H357 0.960 . S
C344 C341 1.511 . S
C344 H358 0.961 . S
C344 H359 0.961 . S
C344 H360 0.961 . S
C345 C346 1.370 . S
C345 C347 1.363 . S
C345 H361 0.931 . S
C346 C345 1.370 . S
C346 C350 1.408 . S
C347 C345 1.363 . S
C347 C348 1.370 . S
C347 C351 1.524 . S
C348 C340 1.503 . S
C348 C347 1.370 . S
C348 C349 1.403 . S
C349 C348 1.403 . S
C349 C350 1.404 . S
C349 C352 1.539 . S
C350 C346 1.408 . S
C350 C349 1.404 . S
C350 H362 0.930 . S
C351 C347 1.524 . S
C351 H363 0.956 . S
C351 H364 0.961 . S
C351 H365 0.961 . S
C352 C349 1.539 . S
C352 H366 0.958 . S
C352 H367 0.961 . S
C352 H368 0.960 . S
H353 C337 0.931 . S
H354 C342 0.929 . S
H355 C343 0.960 . S
H356 C343 0.962 . S
H357 C343 0.960 . S
H358 C344 0.961 . S
H359 C344 0.961 . S
H360 C344 0.961 . S
H361 C345 0.931 . S
H362 C350 0.930 . S
H363 C351 0.956 . S
H364 C351 0.961 . S
H365 C351 0.961 . S
H366 C352 0.958 . S
H367 C352 0.961 . S
H368 C352 0.960 . S
C369 C370 1.391 . S
C369 C371 1.394 . S
C369 H385 0.931 . S
C370 C369 1.391 . S
C370 C374 1.376 . S
C371 C369 1.394 . S
C371 C372 1.369 . S
C371 C375 1.531 . S
C372 C371 1.369 . S
C372 C373 1.410 . S
C372 C380 1.503 . S
C373 C372 1.410 . S
C373 C374 1.392 . S
C373 C376 1.511 . S
C374 C370 1.376 . S
C374 C373 1.392 . S
C374 H386 0.929 . S
C375 C371 1.531 . S
C375 H387 0.960 . S
C375 H388 0.962 1_545 S
C375 H389 0.960 . S
C376 C373 1.511 . S
C376 H390 0.980 . S
C376 H391 0.961 . S
C376 H392 0.961 . S
C377 C378 1.370 1_565 S
C377 C379 1.363 . S
C377 H393 0.931 . S
C378 C377 1.370 1_545 S
C378 C382 1.408 . S
C379 C377 1.363 . S
C379 C380 1.370 1_565 S
C379 C383 1.524 . S
C380 C372 1.503 . S
C380 C379 1.370 1_545 S
C380 C381 1.403 . S
C381 C380 1.403 . S
C381 C382 1.404 . S
C381 C384 1.539 . S
C382 C378 1.408 . S
C382 C381 1.404 . S
C382 H394 0.930 . S
C383 C379 1.524 . S
C383 H395 0.956 . S
C383 H396 0.961 . S
C383 H397 0.961 . S
C384 C381 1.539 . S
C384 H398 0.958 . S
C384 H399 0.961 . S
C384 H400 0.960 . S
H385 C369 0.931 . S
H386 C374 0.929 . S
H387 C375 0.960 . S
H388 C375 0.962 1_565 S
H389 C375 0.960 . S
H390 C376 0.980 . S
H391 C376 0.961 . S
H392 C376 0.961 . S
H393 C377 0.931 . S
H394 C382 0.930 . S
H395 C383 0.956 . S
H396 C383 0.961 . S
H397 C383 0.961 . S
H398 C384 0.958 . S
H399 C384 0.961 . S
H400 C384 0.960 . S
C401 C402 1.391 . S
C401 C403 1.394 1_554 S
C401 H417 0.931 . S
C402 C401 1.391 . S
C402 C406 1.376 . S
C403 C401 1.394 1_556 S
C403 C404 1.369 . S
C403 C407 1.531 . S
C404 C403 1.369 . S
C404 C405 1.410 . S
C404 C412 1.503 . S
C405 C404 1.410 . S
C405 C406 1.392 1_556 S
C405 C408 1.511 . S
C406 C402 1.376 . S
C406 C405 1.392 1_554 S
C406 H418 0.929 . S
C407 C403 1.531 . S
C407 H419 0.960 . S
C407 H420 0.962 . S
C407 H421 0.966 . S
C408 C405 1.511 . S
C408 H422 0.961 . S
C408 H423 0.961 . S
C408 H424 0.961 . S
C409 C410 1.370 . S
C409 C411 1.363 . S
C409 H425 0.931 . S
C410 C409 1.370 . S
C410 C414 1.408 . S
C411 C409 1.363 . S
C411 C412 1.370 . S
C411 C415 1.524 . S
C412 C404 1.503 . S
C412 C411 1.370 . S
C412 C413 1.403 . S
C413 C412 1.403 . S
C413 C414 1.404 . S
C413 C416 1.539 1_556 S
C414 C410 1.408 . S
C414 C413 1.404 . S
C414 H426 0.930 . S
C415 C411 1.524 . S
C415 H427 0.956 . S
C415 H428 0.961 . S
C415 H429 0.961 . S
C416 C413 1.539 1_554 S
C416 H430 0.958 . S
C416 H431 0.961 . S
C416 H432 0.960 . S
H417 C401 0.931 . S
H418 C406 0.929 . S
H419 C407 0.960 . S
H420 C407 0.962 . S
H421 C407 0.966 . S
H422 C408 0.961 . S
H423 C408 0.961 . S
H424 C408 0.961 . S
H425 C409 0.931 . S
H426 C414 0.930 . S
H427 C415 0.956 . S
H428 C415 0.961 . S
H429 C415 0.961 . S
H430 C416 0.958 . S
H431 C416 0.961 . S
H432 C416 0.960 . S
C433 C434 1.391 1_655 S
C433 C435 1.394 . S
C433 H449 0.931 . S
C434 C433 1.391 1_455 S
C434 C438 1.376 . S
C435 C433 1.394 . S
C435 C436 1.369 1_655 S
C435 C439 1.531 . S
C436 C435 1.369 1_455 S
C436 C437 1.410 . S
C436 C444 1.503 . S
C437 C436 1.410 . S
C437 C438 1.392 . S
C437 C440 1.511 . S
C438 C434 1.376 . S
C438 C437 1.392 . S
C438 H450 0.929 . S
C439 C435 1.531 . S
C439 H451 0.960 . S
C439 H452 0.962 . S
C439 H453 0.960 . S
C440 C437 1.511 . S
C440 H454 0.961 . S
C440 H455 0.961 . S
C440 H456 0.961 . S
C441 C442 1.370 1_655 S
C441 C443 1.363 . S
C441 H457 0.931 . S
C442 C441 1.370 1_455 S
C442 C446 1.408 . S
C443 C441 1.363 . S
C443 C444 1.370 1_655 S
C443 C447 1.524 . S
C444 C436 1.503 . S
C444 C443 1.370 1_455 S
C444 C445 1.403 . S
C445 C444 1.403 . S
C445 C446 1.404 . S
C445 C448 1.539 . S
C446 C442 1.408 . S
C446 C445 1.404 . S
C446 H458 0.930 . S
C447 C443 1.524 . S
C447 H459 0.956 . S
C447 H460 0.961 . S
C447 H461 0.961 . S
C448 C445 1.539 . S
C448 H462 0.958 . S
C448 H463 0.961 . S
C448 H464 0.960 . S
H449 C433 0.931 . S
H450 C438 0.929 . S
H451 C439 0.960 . S
H452 C439 0.962 . S
H453 C439 0.960 . S
H454 C440 0.961 . S
H455 C440 0.961 . S
H456 C440 0.961 . S
H457 C441 0.931 . S
H458 C446 0.930 . S
H459 C447 0.956 . S
H460 C447 0.961 . S
H461 C447 0.961 . S
H462 C448 0.958 . S
H463 C448 0.961 . S
H464 C448 0.960 . S
C465 C466 1.391 . S
C465 C467 1.394 . S
C465 H481 0.931 . S
C466 C465 1.391 . S
C466 C470 1.376 1_545 S
C467 C465 1.394 . S
C467 C468 1.369 . S
C467 C471 1.531 . S
C468 C467 1.369 . S
C468 C469 1.410 1_545 S
C468 C476 1.503 . S
C469 C468 1.410 1_565 S
C469 C470 1.392 . S
C469 C472 1.511 . S
C470 C466 1.376 1_565 S
C470 C469 1.392 . S
C470 H482 0.929 . S
C471 C467 1.531 . S
C471 H483 0.960 . S
C471 H484 0.962 . S
C471 H485 0.960 . S
C472 C469 1.511 . S
C472 H486 0.961 . S
C472 H487 0.961 . S
C472 H488 0.961 . S
C473 C474 1.370 1_565 S
C473 C475 1.363 . S
C473 H489 0.931 . S
C474 C473 1.370 1_545 S
C474 C478 1.408 . S
C475 C473 1.363 . S
C475 C476 1.370 1_565 S
C475 C479 1.524 . S
C476 C468 1.503 . S
C476 C475 1.370 1_545 S
C476 C477 1.403 . S
C477 C476 1.403 . S
C477 C478 1.404 . S
C477 C480 1.539 . S
C478 C474 1.408 . S
C478 C477 1.404 . S
C478 H490 0.930 . S
C479 C475 1.524 . S
C479 H491 0.956 . S
C479 H492 0.961 . S
C479 H493 0.961 . S
C480 C477 1.539 . S
C480 H494 0.958 . S
C480 H495 0.961 . S
C480 H496 0.960 . S
H481 C465 0.931 . S
H482 C470 0.929 . S
H483 C471 0.960 . S
H484 C471 0.962 . S
H485 C471 0.960 . S
H486 C472 0.961 . S
H487 C472 0.961 . S
H488 C472 0.961 . S
H489 C473 0.931 . S
H490 C478 0.930 . S
H491 C479 0.956 . S
H492 C479 0.961 . S
H493 C479 0.961 . S
H494 C480 0.958 . S
H495 C480 0.961 . S
H496 C480 0.960 . S
C497 C498 1.391 1_556 S
C497 C499 1.394 . S
C497 H513 0.931 . S
C498 C497 1.391 1_554 S
C498 C502 1.376 . S
C499 C497 1.394 . S
C499 C500 1.369 . S
C499 C503 1.531 . S
C500 C499 1.369 . S
C500 C501 1.410 1_556 S
C500 C508 1.503 . S
C501 C500 1.410 1_554 S
C501 C502 1.392 . S
C501 C504 1.511 . S
C502 C498 1.376 . S
C502 C501 1.392 . S
C502 H514 0.929 . S
C503 C499 1.531 . S
C503 H515 0.960 . S
C503 H516 0.962 . S
C503 H517 0.960 . S
C504 C501 1.511 . S
C504 H518 0.961 . S
C504 H519 0.961 1_554 S
C504 H520 0.961 . S
C505 C506 1.370 . S
C505 C507 1.363 . S
C505 H521 0.931 . S
C506 C505 1.370 . S
C506 C510 1.408 . S
C507 C505 1.363 . S
C507 C508 1.370 . S
C507 C511 1.524 . S
C508 C500 1.503 . S
C508 C507 1.370 . S
C508 C509 1.403 . S
C509 C508 1.403 . S
C509 C510 1.404 . S
C509 C512 1.539 . S
C510 C506 1.408 . S
C510 C509 1.404 . S
C510 H522 0.930 . S
C511 C507 1.524 . S
C511 H523 0.956 . S
C511 H524 0.961 . S
C511 H525 0.961 . S
C512 C509 1.539 . S
C512 H526 0.958 . S
C512 H527 0.961 . S
C512 H528 0.960 1_556 S
H513 C497 0.931 . S
H514 C502 0.929 . S
H515 C503 0.960 . S
H516 C503 0.962 . S
H517 C503 0.960 . S
H518 C504 0.961 . S
H519 C504 0.961 1_556 S
H520 C504 0.961 . S
H521 C505 0.931 . S
H522 C510 0.930 . S
H523 C511 0.956 . S
H524 C511 0.961 . S
H525 C511 0.961 . S
H526 C512 0.958 . S
H527 C512 0.961 . S
H528 C512 0.960 1_554 S
C529 C530 1.391 1_455 S
C529 C531 1.394 . S
C529 H545 0.931 . S
C530 C529 1.391 1_655 S
C530 C534 1.376 . S
C531 C529 1.394 . S
C531 C532 1.369 1_455 S
C531 C535 1.531 . S
C532 C531 1.369 1_655 S
C532 C533 1.410 . S
C532 C540 1.503 . S
C533 C532 1.410 . S
C533 C534 1.392 . S
C533 C536 1.511 . S
C534 C530 1.376 . S
C534 C533 1.392 . S
C534 H546 0.929 . S
C535 C531 1.531 . S
C535 H547 0.960 . S
C535 H548 0.962 . S
C535 H549 0.960 . S
C536 C533 1.511 . S
C536 H550 0.961 . S
C536 H551 0.961 . S
C536 H552 0.961 . S
C537 C538 1.371 . S
C537 C539 1.363 . S
C537 H553 0.931 . S
C538 C537 1.371 . S
C538 C542 1.408 1_455 S
C539 C537 1.363 . S
C539 C540 1.370 1_455 S
C539 C543 1.524 . S
C540 C532 1.503 . S
C540 C539 1.370 1_655 S
C540 C541 1.403 . S
C541 C540 1.403 . S
C541 C542 1.404 . S
C541 C544 1.539 . S
C542 C538 1.408 1_655 S
C542 C541 1.404 . S
C542 H554 0.930 . S
C543 C539 1.524 . S
C543 H555 0.956 . S
C543 H556 0.961 . S
C543 H557 0.961 . S
C544 C541 1.539 . S
C544 H558 0.958 . S
C544 H559 0.961 . S
C544 H560 0.960 . S
H545 C529 0.931 . S
H546 C534 0.929 . S
H547 C535 0.960 . S
H548 C535 0.962 . S
H549 C535 0.960 . S
H550 C536 0.961 . S
H551 C536 0.961 . S
H552 C536 0.961 . S
H553 C537 0.931 . S
H554 C542 0.930 . S
H555 C543 0.956 . S
H556 C543 0.961 . S
H557 C543 0.961 . S
H558 C544 0.958 . S
H559 C544 0.961 . S
H560 C544 0.960 . S
C186 C47 1.518 . S
C178 C10 1.519 . S
C210 C17 1.514 . S
C218 C86 1.521 . S
C242 C36 1.520 . S
C250 C153 1.518 . S
C274 C5 1.498 1_455 S
C282 C54 1.522 . S
C314 C107 1.522 . S
C306 C16 1.517 1_545 S
C338 C31 1.516 . S
C346 C132 1.520 . S
C378 C93 1.518 . S
C370 C30 1.515 1_545 S
C402 C3 1.517 . S
C410 C146 1.521 . S
C442 C61 1.518 . S
C434 C18 1.518 . S
C474 C100 1.521 . S
C466 C29 1.517 . S
C506 C139 1.522 . S
C498 C4 1.515 . S
C530 C23 1.519 . S
C538 C40 1.518 . S
