# Generated by pormake.
# Topology zzz, (3,6)-cn, num edge types: 1
# Building blocks:
#     Node 0, Type 0, BuildingBlock: BELTOD_clean_linker_0, # of connection points: 3
#     Node 1, Type 0, BuildingBlock: BELTOD_clean_linker_0, # of connection points: 3
#     Node 2, Type 0, BuildingBlock: BELTOD_clean_linker_0, # of connection points: 3
#     Node 3, Type 0, BuildingBlock: BELTOD_clean_linker_0, # of connection points: 3
#     Node 4, Type 0, BuildingBlock: BELTOD_clean_linker_0, # of connection points: 3
#     Node 5, Type 0, BuildingBlock: BELTOD_clean_linker_0, # of connection points: 3
#     Node 6, Type 0, BuildingBlock: BELTOD_clean_linker_0, # of connection points: 3
#     Node 7, Type 0, BuildingBlock: BELTOD_clean_linker_0, # of connection points: 3
#     Node 8, Type 1, BuildingBlock: BETDAH_clean_sbu_0, # of connection points: 6
#     Node 9, Type 1, BuildingBlock: BETDAH_clean_sbu_0, # of connection points: 6
#     Node 10, Type 1, BuildingBlock: BETDAH_clean_sbu_0, # of connection points: 6
#     Node 11, Type 1, BuildingBlock: BETDAH_clean_sbu_0, # of connection points: 6
#     Edge 12, Type (0, 1), BuildingBlock: XUDNAN_clean_linker_2, # of connection points: 2
#     Edge 13, Type (0, 1), BuildingBlock: XUDNAN_clean_linker_2, # of connection points: 2
#     Edge 14, Type (0, 1), BuildingBlock: XUDNAN_clean_linker_2, # of connection points: 2
#     Edge 15, Type (0, 1), BuildingBlock: XUDNAN_clean_linker_2, # of connection points: 2
#     Edge 16, Type (0, 1), BuildingBlock: XUDNAN_clean_linker_2, # of connection points: 2
#     Edge 17, Type (0, 1), BuildingBlock: XUDNAN_clean_linker_2, # of connection points: 2
#     Edge 18, Type (0, 1), BuildingBlock: XUDNAN_clean_linker_2, # of connection points: 2
#     Edge 19, Type (0, 1), BuildingBlock: XUDNAN_clean_linker_2, # of connection points: 2
#     Edge 20, Type (0, 1), BuildingBlock: XUDNAN_clean_linker_2, # of connection points: 2
#     Edge 21, Type (0, 1), BuildingBlock: XUDNAN_clean_linker_2, # of connection points: 2
#     Edge 22, Type (0, 1), BuildingBlock: XUDNAN_clean_linker_2, # of connection points: 2
#     Edge 23, Type (0, 1), BuildingBlock: XUDNAN_clean_linker_2, # of connection points: 2
#     Edge 24, Type (0, 1), BuildingBlock: XUDNAN_clean_linker_2, # of connection points: 2
#     Edge 25, Type (0, 1), BuildingBlock: XUDNAN_clean_linker_2, # of connection points: 2
#     Edge 26, Type (0, 1), BuildingBlock: XUDNAN_clean_linker_2, # of connection points: 2
#     Edge 27, Type (0, 1), BuildingBlock: XUDNAN_clean_linker_2, # of connection points: 2
#     Edge 28, Type (0, 1), BuildingBlock: XUDNAN_clean_linker_2, # of connection points: 2
#     Edge 29, Type (0, 1), BuildingBlock: XUDNAN_clean_linker_2, # of connection points: 2
#     Edge 30, Type (0, 1), BuildingBlock: XUDNAN_clean_linker_2, # of connection points: 2
#     Edge 31, Type (0, 1), BuildingBlock: XUDNAN_clean_linker_2, # of connection points: 2
#     Edge 32, Type (0, 1), BuildingBlock: XUDNAN_clean_linker_2, # of connection points: 2
#     Edge 33, Type (0, 1), BuildingBlock: XUDNAN_clean_linker_2, # of connection points: 2
#     Edge 34, Type (0, 1), BuildingBlock: XUDNAN_clean_linker_2, # of connection points: 2
#     Edge 35, Type (0, 1), BuildingBlock: XUDNAN_clean_linker_2, # of connection points: 2
# Relax obj value: 0.432
# Max RMSD: 0.259
# Mean RMSD: 0.246
data_MOF--net-zzz--node1-BETDAH_clean_sbu_0--node2-BELTOD_clean_linker_0--edge1-XUDNAN_clean_linker_2
_symmetry_space_group_name_H-M    P1
_symmetry_Int_Tables_number       1
_symmetry_cell_setting            triclinic
loop_
_symmetry_equiv_pos_as_xyz
'x, y, z'
_cell_length_a     54.99787
_cell_length_b     54.92285
_cell_length_c     16.808461
_cell_angle_alpha  89.869206
_cell_angle_beta   89.865006
_cell_angle_gamma 90.133586
loop_
_atom_site_label
_atom_site_type_symbol
_atom_site_fract_x
_atom_site_fract_y
_atom_site_fract_z
_atom_type_partial_charge
P0 P 0.71617 0.45247 0.39913 0.0
H1 H 0.74877 0.4433 0.53106 0.0
H2 H 0.78709 0.46151 0.56878 0.0
H3 H 0.77274 0.52194 0.40998 0.0
H4 H 0.73587 0.50185 0.36585 0.0
H5 H 0.67715 0.42748 0.32134 0.0
H6 H 0.64359 0.44045 0.23778 0.0
H7 H 0.66094 0.5156 0.28774 0.0
H8 H 0.69444 0.50233 0.37367 0.0
H9 H 0.74867 0.41036 0.39154 0.0
H10 H 0.72318 0.46681 0.23382 0.0
O11 O 0.70781 0.43049 0.46231 0.0
H12 H 0.77739 0.39679 0.28909 0.0
H13 H 0.75159 0.45351 0.13215 0.0
C14 C 0.7387 0.47151 0.4474 0.0
C15 C 0.75347 0.46088 0.50601 0.0
C16 C 0.77569 0.47145 0.52773 0.0
C17 C 0.78376 0.49326 0.49208 0.0
C18 C 0.76792 0.50478 0.43752 0.0
C19 C 0.7461 0.49369 0.4138 0.0
C20 C 0.68864 0.46387 0.35313 0.0
C21 C 0.67353 0.44679 0.31572 0.0
C22 C 0.65441 0.45425 0.26708 0.0
C23 C 0.64972 0.47909 0.25457 0.0
C24 C 0.66403 0.49629 0.2958 0.0
C25 C 0.68339 0.48873 0.34461 0.0
C26 C 0.73341 0.43919 0.31955 0.0
C27 C 0.74873 0.41933 0.3341 0.0
C28 C 0.76519 0.4117 0.27578 0.0
C29 C 0.7666 0.42395 0.20231 0.0
C30 C 0.75056 0.44329 0.18724 0.0
C31 C 0.7343 0.45097 0.24558 0.0
P32 P 0.05161 0.72695 0.36058 0.0
H33 H 0.06016 0.75681 0.4996 0.0
H34 H 0.0462 0.79683 0.53774 0.0
H35 H 0.99278 0.79452 0.349 0.0
H36 H 1.00903 0.75558 0.30615 0.0
H37 H 0.07106 0.68629 0.27451 0.0
H38 H 0.05411 0.65772 0.17961 0.0
H39 H 0.98214 0.68556 0.2284 0.0
H40 H 0.99957 0.71457 0.32335 0.0
H41 H 0.09959 0.74956 0.38055 0.0
H42 H 0.04811 0.73756 0.19136 0.0
O43 O 0.06748 0.71362 0.43303 0.0
H44 H 0.12459 0.77449 0.29049 0.0
H45 H 0.07279 0.76202 0.10192 0.0
C46 C 0.03505 0.7525 0.4018 0.0
C47 C 0.04496 0.7646 0.46767 0.0
C48 C 0.03682 0.78777 0.48966 0.0
C49 C 0.01822 0.79955 0.44685 0.0
C50 C 1.0075 0.7867 0.38298 0.0
C51 C 0.01627 0.76381 0.3595 0.0
C52 C 0.03672 0.70303 0.30468 0.0
C53 C 0.05155 0.68601 0.26588 0.0
C54 C 0.04175 0.6695 0.21164 0.0
C55 C 0.0167 0.66936 0.19519 0.0
C56 C 1.0016 0.68548 0.23807 0.0
C57 C 1.01153 0.70215 0.29254 0.0
C58 C 0.07232 0.74125 0.29208 0.0
C59 C 0.09407 0.75165 0.31912 0.0
C60 C 0.10829 0.76589 0.26776 0.0
C61 C 0.10085 0.76992 0.1888 0.0
C62 C 0.07944 0.75872 0.16158 0.0
C63 C 0.0652 0.74477 0.21296 0.0
P64 P 0.7989 0.05463 0.40338 0.0
H65 H 0.77115 0.06198 0.54686 0.0
H66 H 0.7325 0.04584 0.59129 0.0
H67 H 0.73651 0.99027 0.40947 0.0
H68 H 0.77455 1.00818 0.36144 0.0
H69 H 0.82474 1.00724 0.39117 0.0
H70 H 0.85519 0.99209 0.29515 0.0
H71 H 0.84905 0.05908 0.162 0.0
H72 H 0.81971 0.07413 0.25737 0.0
H73 H 0.78471 0.10491 0.44311 0.0
H74 H 0.77085 0.05233 0.25853 0.0
O75 O 0.81594 0.06816 0.47244 0.0
H76 H 0.75479 0.13251 0.38317 0.0
H77 H 0.74115 0.07941 0.19902 0.0
C78 C 0.77609 0.03603 0.45177 0.0
C79 C 0.76413 0.0458 0.51815 0.0
C80 C 0.74177 0.03643 0.54366 0.0
C81 C 0.73077 0.01673 0.50393 0.0
C82 C 0.74382 1.00584 0.44071 0.0
C83 C 0.76599 0.0157 0.41398 0.0
C84 C 0.8191 0.04142 0.32996 0.0
C85 C 0.82969 0.0184 0.34045 0.0
C86 C 0.84716 1.00985 0.28591 0.0
C87 C 0.85418 0.02422 0.22007 0.0
C88 C 0.84359 0.04726 0.2106 0.0
C89 C 0.82661 0.05585 0.26533 0.0
C90 C 0.78037 0.07687 0.35396 0.0
C91 C 0.77572 0.0996 0.3886 0.0
C92 C 0.75858 0.11528 0.35457 0.0
C93 C 0.74589 0.10833 0.28567 0.0
C94 C 0.7511 0.0857 0.25061 0.0
C95 C 0.76801 0.07009 0.2848 0.0
P96 P 0.47499 0.8031 0.42192 0.0
H97 H 0.47665 0.79041 0.59082 0.0
H98 H 0.48864 0.75283 0.65511 0.0
H99 H 0.52623 0.73074 0.44119 0.0
H100 H 0.51347 0.76835 0.3762 0.0
H101 H 0.45974 0.85304 0.39738 0.0
H102 H 0.47397 0.88594 0.31244 0.0
H103 H 0.53312 0.84098 0.23029 0.0
H104 H 0.51905 0.80784 0.31817 0.0
H105 H 0.43479 0.77032 0.45298 0.0
H106 H 0.48248 0.78741 0.25632 0.0
O107 O 0.45459 0.81514 0.48409 0.0
H108 H 0.42789 0.72982 0.39771 0.0
H109 H 0.47587 0.74685 0.20226 0.0
C110 C 0.49418 0.78256 0.47837 0.0
C111 C 0.48833 0.77807 0.55839 0.0
C112 C 0.49516 0.75627 0.59531 0.0
C113 C 0.5081 0.73832 0.55319 0.0
C114 C 0.51583 0.74382 0.47518 0.0
C115 C 0.50898 0.76571 0.4383 0.0
C116 C 0.48845 0.82792 0.36543 0.0
C117 C 0.4761 0.85022 0.3627 0.0
C118 C 0.48422 0.86912 0.31372 0.0
C119 C 0.50472 0.86612 0.26478 0.0
C120 C 0.51723 0.84379 0.26729 0.0
C121 C 0.50929 0.8249 0.31788 0.0
C122 C 0.45926 0.78193 0.35912 0.0
C123 C 0.44256 0.76602 0.39545 0.0
C124 C 0.43873 0.7428 0.36426 0.0
C125 C 0.45154 0.73543 0.29646 0.0
C126 C 0.46576 0.75237 0.25457 0.0
C127 C 0.46946 0.77562 0.28549 0.0
P128 P 0.28801 0.46253 0.0175 0.0
H129 H 0.27772 0.47281 0.8498 0.0
H130 H 0.24178 0.49024 0.7872 0.0
H131 H 0.21672 0.51552 0.01593 0.0
H132 H 0.25331 0.49874 0.07823 0.0
H133 H 0.31635 0.43676 0.1346 0.0
H134 H 0.34914 0.4484 0.22373 0.0
H135 H 0.34341 0.52288 0.14242 0.0
H136 H 0.31057 0.51073 0.05131 0.0
H137 H 0.25771 0.42205 0.96446 0.0
H138 H 0.26821 0.46386 0.17827 0.0
O139 O 0.3022 0.44576 0.94908 0.0
H140 H 0.2179 0.40888 0.01262 0.0
H141 H 0.22835 0.4521 0.22485 0.0
C142 C 0.26843 0.48448 0.96894 0.0
C143 C 0.26515 0.48305 0.88629 0.0
C144 C 0.24437 0.49284 0.85048 0.0
C145 C 0.22616 0.50389 0.89679 0.0
C146 C 0.23026 0.50682 0.9788 0.0
C147 C 0.25137 0.4975 0.0143 0.0
C148 C 0.3107 0.47294 0.08741 0.0
C149 C 0.32191 0.45568 0.13658 0.0
C150 C 0.34068 0.46242 0.18792 0.0
C151 C 0.34889 0.48667 0.19124 0.0
C152 C 0.33766 0.50402 0.14132 0.0
C153 C 0.31874 0.49718 0.08966 0.0
C154 C 0.26596 0.44385 0.06792 0.0
C155 C 0.25194 0.42749 0.02343 0.0
C156 C 0.22896 0.4203 0.05055 0.0
C157 C 0.21947 0.42988 0.12173 0.0
C158 C 0.23486 0.44405 0.17011 0.0
C159 C 0.25791 0.45088 0.14347 0.0
P160 P 0.07921 0.29983 0.03263 0.0
H161 H 0.08003 0.27362 0.88194 0.0
H162 H 0.06261 0.23455 0.84521 0.0
H163 H 0.01634 0.23696 0.05327 0.0
H164 H 0.03501 0.2755 0.09182 0.0
H165 H 0.10321 0.33637 0.12755 0.0
H166 H 0.08891 0.36981 0.21071 0.0
H167 H 0.01491 0.35363 0.14304 0.0
H168 H 0.0295 0.32009 0.05902 0.0
H169 H 0.11664 0.26321 1.00673 0.0
H170 H 0.07667 0.29282 0.20524 0.0
O171 O 0.09801 0.31056 0.96277 0.0
H172 H 0.12993 0.22919 0.09048 0.0
H173 H 0.09022 0.25955 0.28863 0.0
C174 C 0.05853 0.27794 0.98894 0.0
C175 C 0.06541 0.2663 0.91806 0.0
C176 C 0.05543 0.24371 0.89712 0.0
C177 C 0.03827 0.23214 0.94675 0.0
C178 C 0.02991 0.24491 0.01428 0.0
C179 C 0.04016 0.26737 0.03565 0.0
C180 C 0.06742 0.32552 0.08784 0.0
C181 C 0.08389 0.34006 0.1303 0.0
C182 C 0.07568 0.35907 0.17839 0.0
C183 C 0.05074 0.36424 0.18443 0.0
C184 C 0.03425 0.35013 0.13968 0.0
C185 C 0.04253 0.33087 0.09186 0.0
C186 C 0.09603 0.28083 0.09993 0.0
C187 C 0.11171 0.26307 0.06915 0.0
C188 C 0.1192 0.2436 0.11684 0.0
C189 C 0.11119 0.24179 0.19609 0.0
C190 C 0.09713 0.26069 0.22832 0.0
C191 C 0.08935 0.27985 0.18039 0.0
P192 P 0.22767 0.09192 0.07102 0.0
H193 H 0.25146 0.09544 0.91408 0.0
H194 H 0.29139 0.08091 0.87122 0.0
H195 H 0.29431 0.03364 0.07624 0.0
H196 H 0.25485 0.04856 0.11979 0.0
H197 H 0.17994 0.11247 0.10024 0.0
H198 H 0.14516 0.09775 0.17783 0.0
H199 H 0.17809 0.02684 0.19411 0.0
H200 H 0.21319 0.0416 0.11734 0.0
H201 H 0.27747 0.10795 0.09929 0.0
H202 H 0.21233 0.09836 0.23988 0.0
O203 O 0.22165 0.11637 0.01535 0.0
H204 H 0.3017 0.10702 0.21885 0.0
H205 H 0.23629 0.09935 0.36052 0.0
C206 C 0.24979 0.07298 0.02001 0.0
C207 C 0.26008 0.08108 0.94794 0.0
C208 C 0.28306 0.07281 0.92343 0.0
C209 C 0.29622 0.05643 0.97101 0.0
C210 C 0.28474 0.04645 0.0386 0.0
C211 C 0.26181 0.05464 0.06284 0.0
C212 C 0.1992 0.07812 0.10188 0.0
C213 C 0.1794 0.0935 0.11787 0.0
C214 C 0.15965 0.08523 0.16312 0.0
C215 C 0.15916 0.06131 0.19225 0.0
C216 C 0.17816 0.04541 0.17218 0.0
C217 C 0.19817 0.05381 0.12786 0.0
C218 C 0.24323 0.10178 0.1598 0.0
C219 C 0.26824 0.1065 0.15609 0.0
C220 C 0.28214 0.10627 0.22531 0.0
C221 C 0.27108 0.10217 0.29989 0.0
C222 C 0.24554 0.10144 0.30396 0.0
C223 C 0.23173 0.101 0.23441 0.0
P224 P 0.47891 0.24413 0.11659 0.0
H225 H 0.45145 0.25679 0.97266 0.0
H226 H 0.46041 0.28707 0.86948 0.0
H227 H 0.53484 0.29048 0.94853 0.0
H228 H 0.52623 0.25938 0.04898 0.0
H229 H 0.45574 0.21529 0.23748 0.0
H230 H 0.46601 0.17729 0.30116 0.0
H231 H 0.52167 0.1649 0.12342 0.0
H232 H 0.5118 0.20431 0.06208 0.0
H233 H 0.47073 0.29145 0.19018 0.0
H234 H 0.526 0.23582 0.1932 0.0
O235 O 0.44958 0.25085 0.12963 0.0
H236 H 0.49761 0.31852 0.26494 0.0
H237 H 0.55299 0.26294 0.26688 0.0
C238 C 0.48799 0.25603 0.02012 0.0
C239 C 0.46999 0.26311 0.96562 0.0
C240 C 0.47508 0.2806 0.90683 0.0
C241 C 0.49819 0.29149 0.90226 0.0
C242 C 0.51678 0.28259 0.95148 0.0
C243 C 0.51183 0.26468 0.00885 0.0
C244 C 0.48267 0.21252 0.14406 0.0
C245 C 0.46967 0.20409 0.21046 0.0
C246 C 0.4756 0.18208 0.24705 0.0
C247 C 0.49478 0.16765 0.21813 0.0
C248 C 0.50702 0.17556 0.14854 0.0
C249 C 0.50118 0.19794 0.11233 0.0
C250 C 0.49617 0.26149 0.18733 0.0
C251 C 0.48831 0.28478 0.20909 0.0
C252 C 0.50368 0.30022 0.25166 0.0
C253 C 0.52731 0.29271 0.27158 0.0
C254 C 0.53483 0.26907 0.25222 0.0
C255 C 0.51932 0.25353 0.21069 0.0
Ho256 Ho 0.02677 1.00559 0.77176 0.0
Ho257 Ho 0.99276 0.02729 0.6349 0.0
C258 C 1.00186 0.96912 0.63875 0.0
C259 C 0.04488 0.9826 0.89166 0.0
C260 C 0.06041 0.96153 0.90757 0.0
C261 C 0.0578 0.94939 0.98022 0.0
C262 C 0.0719 0.92899 0.99701 0.0
C263 C 0.08907 0.92043 0.94153 0.0
C264 C 0.09172 0.93278 0.86856 0.0
C265 C 0.07743 0.95319 0.85159 0.0
C266 C 0.04927 0.023 0.63895 0.0
C267 C 1.01445 0.06155 0.77311 0.0
C268 C 0.98448 0.05048 0.50536 0.0
C269 C 0.99987 0.06986 0.47014 0.0
C270 C 0.01657 0.06424 0.40944 0.0
C271 C 0.03456 0.08099 0.38733 0.0
C272 C 0.03603 0.10374 0.42511 0.0
C273 C 0.01855 0.10983 0.48272 0.0
C274 C 1.00067 0.09312 0.50493 0.0
C275 C 0.96658 0.01711 0.76862 0.0
O276 O 0.01666 0.97179 0.70097 0.0
O277 O 0.99011 0.98758 0.60487 0.0
O278 O 0.05536 1.00146 0.85823 0.0
O279 O 0.02338 0.97779 0.86229 0.0
O280 O 0.05925 0.02319 0.70889 0.0
O281 O 0.02936 1.01198 0.64391 0.0
O282 O 1.01094 0.05959 0.69528 0.0
O283 O 0.01626 0.04203 0.81882 0.0
O284 O 0.9736 0.05582 0.57254 0.0
O285 O 0.99411 0.0287 0.50634 0.0
O286 O 0.95673 0.02445 0.70234 0.0
O287 O 0.98899 1.01508 0.75611 0.0
H288 H 0.0446 0.9555 0.02373 0.0
H289 H 0.0688 0.91957 0.05279 0.0
H290 H 0.10476 0.92666 0.82463 0.0
H291 H 0.07955 0.96237 0.79486 0.0
H292 H 0.01644 0.04647 0.3816 0.0
H293 H 0.04782 0.0758 0.34276 0.0
H294 H 0.01886 0.12746 0.51151 0.0
H295 H 0.98808 0.09818 0.55169 0.0
Ho296 Ho 0.52683 0.03806 0.81068 0.0
Ho297 Ho 0.50302 1.0052 0.69001 0.0
C298 C 0.56107 1.00837 0.69272 0.0
C299 C 0.54135 0.06282 0.93184 0.0
C300 C 0.56127 0.07894 0.95694 0.0
C301 C 0.58568 0.07247 0.94582 0.0
C302 C 0.60416 0.08692 0.97757 0.0
C303 C 0.59859 0.10823 0.0204 0.0
C304 C 0.57412 0.1152 0.02808 0.0
C305 C 0.55564 0.10061 0.99686 0.0
C306 C 0.52548 0.05661 0.66153 0.0
C307 C 0.46801 0.03448 0.80938 0.0
C308 C 0.4758 0.98846 0.5793 0.0
C309 C 0.45304 0.99983 0.55343 0.0
C310 C 0.45017 0.02498 0.56435 0.0
C311 C 0.42767 0.03591 0.55351 0.0
C312 C 0.40746 0.02193 0.53119 0.0
C313 C 0.41037 0.99674 0.51877 0.0
C314 C 0.43305 0.98573 0.53017 0.0
C315 C 0.51891 0.98213 0.82329 0.0
O316 O 0.55917 0.01658 0.76667 0.0
O317 O 0.54167 1.00575 0.64699 0.0
O318 O 0.52662 0.07154 0.87785 0.0
O319 O 0.54648 0.03971 0.92138 0.0
O320 O 0.54343 0.05942 0.71021 0.0
O321 O 0.5085 0.04496 0.69527 0.0
O322 O 0.46946 0.02243 0.74191 0.0
O323 O 0.4877 0.04078 0.84915 0.0
O324 O 0.47511 0.98 0.6521 0.0
O325 O 0.49559 1.0011 0.56449 0.0
O326 O 0.51937 0.97252 0.75286 0.0
O327 O 0.50883 1.00262 0.81926 0.0
H328 H 0.5905 0.05587 0.91489 0.0
H329 H 0.62274 0.08068 0.97162 0.0
H330 H 0.5692 0.13161 0.05984 0.0
H331 H 0.53687 0.10595 1.0057 0.0
H332 H 0.46516 0.03606 0.58474 0.0
H333 H 0.42599 0.05523 0.56511 0.0
H334 H 0.39512 0.98554 0.50071 0.0
H335 H 0.43481 0.96621 0.52304 0.0
Ho336 Ho 0.48868 0.5131 0.7661 0.0
Ho337 Ho 0.52624 0.51019 0.63895 0.0
C338 C 0.5089 0.56345 0.69238 0.0
C339 C 0.4621 0.52022 0.89074 0.0
C340 C 0.46235 0.53816 0.95489 0.0
C341 C 0.48224 0.55391 0.96301 0.0
C342 C 0.4824 0.5714 0.02281 0.0
C343 C 0.46249 0.57363 0.07474 0.0
C344 C 0.44254 0.5578 0.06661 0.0
C345 C 0.44255 0.54003 0.00714 0.0
C346 C 0.47045 0.50319 0.61906 0.0
C347 C 0.50717 0.46079 0.71422 0.0
C348 C 0.55506 0.50923 0.51784 0.0
C349 C 0.57257 0.49044 0.49421 0.0
C350 C 0.57544 0.48462 0.41355 0.0
C351 C 0.58505 0.46203 0.39182 0.0
C352 C 0.59148 0.44507 0.45082 0.0
C353 C 0.59136 0.45216 0.53086 0.0
C354 C 0.58202 0.47474 0.55243 0.0
C355 C 0.54366 0.50461 0.78957 0.0
O356 O 0.49808 0.55297 0.75392 0.0
O357 O 0.51922 0.5505 0.63563 0.0
O358 O 0.4567 0.5288 0.8203 0.0
O359 O 0.4807 0.50539 0.88932 0.0
O360 O 0.46275 0.49341 0.68447 0.0
O361 O 0.48709 0.51817 0.63501 0.0
O362 O 0.51332 0.47117 0.64598 0.0
O363 O 0.50097 0.47419 0.77613 0.0
O364 O 0.56007 0.52115 0.58321 0.0
O365 O 0.53236 0.50203 0.51496 0.0
O366 O 0.55079 0.49206 0.729 0.0
O367 O 0.52802 0.51984 0.76725 0.0
H368 H 0.49747 0.55293 0.92226 0.0
H369 H 0.49777 0.58371 0.02682 0.0
H370 H 0.42697 0.55927 0.10593 0.0
H371 H 0.42703 0.52799 1.00129 0.0
H372 H 0.56819 0.49649 0.36783 0.0
H373 H 0.5849 0.45684 0.32965 0.0
H374 H 0.59623 0.43931 0.57714 0.0
H375 H 0.58009 0.47886 0.61503 0.0
Ho376 Ho 1.00157 0.5072 0.74415 0.0
Ho377 Ho 1.01233 0.53752 0.59818 0.0
C378 C 0.95657 0.52396 0.62743 0.0
C379 C 0.98456 0.49013 0.87603 0.0
C380 C 0.96242 0.47671 0.89743 0.0
C381 C 0.95219 0.47985 0.97294 0.0
C382 C 0.93038 0.46828 0.99272 0.0
C383 C 0.91849 0.45317 0.93738 0.0
C384 C 0.92902 0.4499 0.8618 0.0
C385 C 0.95073 0.4617 0.84183 0.0
C386 C 1.0129 0.48127 0.61192 0.0
C387 C 0.05641 0.51921 0.7114 0.0
C388 C 0.02967 0.5493 0.46062 0.0
C389 C 0.04577 0.53403 0.41229 0.0
C390 C 0.05246 0.51123 0.44249 0.0
C391 C 0.06658 0.49543 0.39779 0.0
C392 C 0.07471 0.50218 0.32175 0.0
C393 C 0.06785 0.52504 0.29072 0.0
C394 C 0.05336 0.54088 0.33582 0.0
C395 C 1.00033 0.56408 0.7274 0.0
O396 O 0.96325 0.51394 0.69599 0.0
O397 O 0.97266 0.53318 0.57741 0.0
O398 O 1.00024 0.47845 0.83172 0.0
O399 O 0.98118 0.51262 0.85276 0.0
O400 O 0.01899 0.47464 0.68322 0.0
O401 O 1.00006 0.50009 0.61581 0.0
O402 O 0.04891 0.52292 0.63766 0.0
O403 O 0.04059 0.51615 0.7697 0.0
O404 O 0.03894 0.55723 0.52736 0.0
O405 O 1.00801 0.54005 0.47072 0.0
O406 O 0.99553 0.57056 0.65472 0.0
O407 O 1.01338 0.54522 0.72699 0.0
H408 H 0.96084 0.49164 0.01611 0.0
H409 H 0.92255 0.47174 0.05075 0.0
H410 H 0.92049 0.43829 0.81795 0.0
H411 H 0.95825 0.45927 0.78275 0.0
H412 H 0.04649 0.50547 0.5007 0.0
H413 H 0.0711 0.47787 0.42301 0.0
H414 H 0.07402 0.53083 0.23244 0.0
H415 H 0.04813 0.55834 0.3112 0.0
H416 H 0.15386 0.07389 0.34827 0.0
H417 H 0.12083 0.03129 0.16071 0.0
H418 H 0.08791 0.01863 0.25337 0.0
H419 H 0.14227 0.03113 0.50597 0.0
H420 H 0.13635 0.05417 0.57972 0.0
H421 H 0.15639 0.06069 0.49747 0.0
H422 H 0.13022 0.098 0.46188 0.0
H423 H 0.10911 0.09149 0.54145 0.0
H424 H 0.09845 0.09392 0.4404 0.0
H425 H 0.05898 1.01052 0.36651 0.0
H426 H 0.03736 1.00494 0.49387 0.0
H427 H 0.08997 0.05147 0.61131 0.0
C428 C 0.1396 0.06195 0.32702 0.0
C429 C 0.13964 0.05356 0.24759 0.0
C430 C 0.12094 0.03784 0.22144 0.0
C431 C 0.10221 0.03067 0.27355 0.0
C432 C 0.10266 0.03921 0.35173 0.0
C433 C 0.12099 0.05431 0.37866 0.0
C434 C 0.11772 0.06011 0.46633 0.0
C435 C 0.13947 0.05097 0.51525 0.0
C436 C 0.11364 0.08752 0.47834 0.0
C437 C 0.09484 0.04565 0.48495 0.0
C438 C 0.0863 0.03403 0.41759 0.0
C439 C 0.06551 0.01953 0.41953 0.0
C440 C 0.05328 0.01658 0.49221 0.0
C441 C 0.06192 0.02784 0.56248 0.0
C442 C 0.08295 0.04266 0.55855 0.0
H443 H 0.46752 0.13602 0.31248 0.0
H444 H 0.54165 0.15072 0.23547 0.0
H445 H 0.55648 0.11968 0.32874 0.0
H446 H 0.48083 0.13291 0.51344 0.0
H447 H 0.4594 0.10905 0.53715 0.0
H448 H 0.45388 0.1289 0.45392 0.0
H449 H 0.45057 0.09154 0.3609 0.0
H450 H 0.4561 0.07158 0.44414 0.0
H451 H 0.47514 0.0699 0.35696 0.0
H452 H 0.56417 0.09164 0.4431 0.0
H453 H 0.56393 0.06814 0.56847 0.0
H454 H 0.48537 0.07309 0.57827 0.0
C455 C 0.48688 0.13262 0.31422 0.0
C456 C 0.5033 0.14609 0.2656 0.0
C457 C 0.52846 0.14056 0.27006 0.0
C458 C 0.53716 0.12296 0.3236 0.0
C459 C 0.52057 0.11088 0.37266 0.0
C460 C 0.49591 0.11533 0.36818 0.0
C461 C 0.48218 0.10156 0.43288 0.0
C462 C 0.46827 0.11916 0.48757 0.0
C463 C 0.46498 0.08251 0.39651 0.0
C464 C 0.50309 0.08943 0.47635 0.0
C465 C 0.52503 0.09475 0.43965 0.0
C466 C 0.54708 0.08703 0.47147 0.0
C467 C 0.54677 0.07378 0.54289 0.0
C468 C 0.52461 0.06838 0.58218 0.0
C469 C 0.50247 0.07611 0.54794 0.0
H470 H 0.35734 0.46996 0.34323 0.0
H471 H 0.38703 0.51839 0.16298 0.0
H472 H 0.42178 0.52763 0.25124 0.0
H473 H 0.37466 0.5052 0.51351 0.0
H474 H 0.3818 0.47888 0.5732 0.0
H475 H 0.35919 0.47673 0.4962 0.0
H476 H 0.38278 0.44085 0.43275 0.0
H477 H 0.40554 0.44299 0.50932 0.0
H478 H 0.41431 0.44487 0.4061 0.0
H479 H 0.45408 0.53086 0.36066 0.0
H480 H 0.4796 0.52897 0.48198 0.0
H481 H 0.42889 0.47758 0.58737 0.0
C482 C 0.37117 0.48243 0.32182 0.0
C483 C 0.36934 0.49339 0.24571 0.0
C484 C 0.38775 0.50995 0.2212 0.0
C485 C 0.4077 0.51517 0.27077 0.0
C486 C 0.40906 0.50371 0.34488 0.0
C487 C 0.39118 0.48775 0.37027 0.0
C488 C 0.39675 0.47776 0.45233 0.0
C489 C 0.37692 0.48509 0.51234 0.0
C490 C 0.40004 0.44997 0.44994 0.0
C491 C 0.42057 0.49057 0.46952 0.0
C492 C 0.42746 0.50545 0.4069 0.0
C493 C 0.4488 0.51925 0.40989 0.0
C494 C 0.46322 0.51802 0.47892 0.0
C495 C 0.45625 0.50313 0.54405 0.0
C496 C 0.43475 0.48909 0.53853 0.0
H497 H 0.06583 0.37467 0.33674 0.0
H498 H 0.01628 0.39902 0.15267 0.0
H499 H 1.00237 0.43233 0.24038 0.0
H500 H 0.02648 0.38571 0.50159 0.0
H501 H 0.0504 0.39591 0.56675 0.0
H502 H 0.05706 0.37466 0.48829 0.0
H503 H 0.09024 0.40368 0.43529 0.0
H504 H 0.08351 0.42578 0.51128 0.0
H505 H 0.08246 0.43436 0.40778 0.0
H506 H 0.99387 0.46302 0.34822 0.0
H507 H 0.98954 0.48734 0.47078 0.0
H508 H 0.04379 0.4425 0.58689 0.0
C509 C 0.0522 0.38713 0.31456 0.0
C510 C 0.04217 0.38423 0.23756 0.0
C511 C 0.02408 0.40072 0.2115 0.0
C512 C 0.0162 0.41981 0.26073 0.0
C513 C 0.02647 0.42213 0.33617 0.0
C514 C 0.04397 0.40615 0.36319 0.0
C515 C 0.05152 0.41219 0.44773 0.0
C516 C 0.04603 0.39085 0.50442 0.0
C517 C 0.07853 0.41944 0.45073 0.0
C518 C 0.03519 0.4338 0.46471 0.0
C519 C 0.02115 0.43944 0.39906 0.0
C520 C 1.00471 0.4587 0.4 0.0
C521 C 1.00235 0.47239 0.46997 0.0
C522 C 0.01614 0.46665 0.53857 0.0
C523 C 0.03285 0.44715 0.53558 0.0
H524 H 0.8525 0.02666 0.0576 0.0
H525 H 0.89909 1.0047 0.25246 0.0
H526 H 0.93268 0.99733 0.15691 0.0
H527 H 0.8768 0.98341 0.90886 0.0
H528 H 0.8739 1.00521 0.82914 0.0
H529 H 0.85313 1.00603 0.91215 0.0
H530 H 0.86445 0.05122 0.9368 0.0
H531 H 0.88536 0.05049 0.85442 0.0
H532 H 0.89588 0.05942 0.95158 0.0
H533 H 0.96269 0.99736 0.03997 0.0
H534 H 0.98511 1.00223 0.91272 0.0
H535 H 0.91822 0.02308 0.7956 0.0
C536 C 0.86965 0.01987 0.08004 0.0
C537 C 0.87318 0.0162 0.16249 0.0
C538 C 0.89588 1.00733 0.18949 0.0
C539 C 0.91509 1.00323 0.13563 0.0
C540 C 0.9112 1.00776 0.05485 0.0
C541 C 0.88886 0.01555 0.0272 0.0
C542 C 0.88949 0.02018 0.93837 0.0
C543 C 0.87231 1.00266 0.89455 0.0
C544 C 0.88345 0.04691 0.91922 0.0
C545 C 0.91585 1.01448 0.92038 0.0
C546 C 0.92814 1.00725 0.98807 0.0
C547 C 0.95308 1.00253 0.98643 0.0
C548 C 0.9657 1.00528 0.91391 0.0
C549 C 0.95334 1.01259 0.8441 0.0
C550 C 0.92809 0.01706 0.84771 0.0
H551 H 0.51484 0.8642 0.1039 0.0
H552 H 0.51062 0.91393 0.30344 0.0
H553 H 0.51762 0.94866 0.21275 0.0
H554 H 0.56176 0.89895 0.98868 0.0
H555 H 0.54766 0.89207 0.89465 0.0
H556 H 0.54528 0.87081 0.97619 0.0
H557 H 0.49835 0.87168 0.96446 0.0
H558 H 0.50057 0.89302 0.88336 0.0
H559 H 0.48269 0.90044 0.96994 0.0
H560 H 0.52027 0.9782 0.10024 0.0
H561 H 0.51956 1.00066 0.97297 0.0
H562 H 0.52311 0.93243 0.84416 0.0
C563 C 0.51611 0.88235 0.12859 0.0
C564 C 0.51231 0.88636 0.21088 0.0
C565 C 0.51345 0.91045 0.24069 0.0
C566 C 0.5175 0.93028 0.18965 0.0
C567 C 0.5205 0.92582 0.10866 0.0
C568 C 0.52007 0.90247 0.07815 0.0
C569 C 0.52211 0.90297 0.98794 0.0
C570 C 0.54561 0.89046 0.96024 0.0
C571 C 0.49959 0.89134 0.94918 0.0
C572 C 0.5231 0.93023 0.97256 0.0
C573 C 0.52232 0.94303 0.04323 0.0
C574 C 0.52135 0.96838 0.04459 0.0
C575 C 0.52096 0.98101 0.97197 0.0
C576 C 0.52165 0.96836 0.89874 0.0
C577 C 0.52305 0.94262 0.89924 0.0
H578 H 0.63982 0.45833 0.10963 0.0
H579 H 0.61692 0.51706 0.26477 0.0
H580 H 0.58624 0.52946 0.16492 0.0
H581 H 0.63423 0.48981 0.92739 0.0
H582 H 0.62298 0.46389 0.873 0.0
H583 H 0.64245 0.45941 0.95768 0.0
H584 H 0.6099 0.43152 0.02284 0.0
H585 H 0.59032 0.43588 0.93824 0.0
H586 H 0.57944 0.4428 0.03682 0.0
H587 H 0.55845 0.53588 0.04424 0.0
H588 H 0.53699 0.53594 0.91471 0.0
H589 H 0.57774 0.4723 0.84216 0.0
C590 C 0.62814 0.47359 0.12354 0.0
C591 C 0.63082 0.48666 0.19558 0.0
C592 C 0.61545 0.50688 0.2099 0.0
C593 C 0.59784 0.51395 0.1537 0.0
C594 C 0.59574 0.50059 0.0834 0.0
C595 C 0.61048 0.48078 0.06846 0.0
C596 C 0.60505 0.46967 0.98795 0.0
C597 C 0.62751 0.47078 0.9333 0.0
C598 C 0.59562 0.44341 0.99704 0.0
C599 C 0.58519 0.48652 0.95902 0.0
C600 C 0.57989 0.50417 0.01496 0.0
C601 C 0.5624 0.52202 1.00043 0.0
C602 C 0.55022 0.52189 0.92684 0.0
C603 C 0.55558 0.50408 0.86864 0.0
C604 C 0.57319 0.48613 0.88554 0.0
H605 H 0.03083 0.62291 0.15028 0.0
H606 H 0.98138 0.68134 0.08693 0.0
H607 H 0.96907 0.65861 0.96747 0.0
H608 H 0.05234 0.61236 0.95796 0.0
H609 H 0.0547 0.57976 0.96778 0.0
H610 H 0.05725 0.59879 0.05436 0.0
H611 H 0.02223 0.57496 0.12237 0.0
H612 H 0.01961 0.55574 0.036 0.0
H613 H 0.99342 0.57199 0.07233 0.0
H614 H 0.96564 0.6322 0.8469 0.0
H615 H 0.97033 0.60316 0.73598 0.0
H616 H 0.02214 0.56168 0.87504 0.0
C617 C 0.01718 0.63084 0.11193 0.0
C618 C 1.00702 0.654 0.12887 0.0
C619 C 0.98912 0.66351 0.0768 0.0
C620 C 0.98211 0.65077 0.00823 0.0
C621 C 0.993 0.62841 0.99231 0.0
C622 C 1.00999 0.61838 0.043 0.0
C623 C 0.02006 0.59478 0.00939 0.0
C624 C 0.04772 0.59654 0.99661 0.0
C625 C 1.01343 0.57309 0.06324 0.0
C626 C 1.00661 0.59352 0.93071 0.0
C627 C 0.99094 0.61302 0.9225 0.0
C628 C 0.97758 0.61668 0.85316 0.0
C629 C 0.98043 0.60014 0.79035 0.0
C630 C 0.99649 0.58015 0.79701 0.0
C631 C 1.0095 0.57664 0.86866 0.0
H632 H 0.10023 0.19684 0.14059 0.0
H633 H 0.12368 0.23497 0.35233 0.0
H634 H 0.11399 0.19869 0.43343 0.0
H635 H 0.05062 0.17407 0.21251 0.0
H636 H 0.05096 0.14453 0.16598 0.0
H637 H 0.06695 0.16943 0.12062 0.0
H638 H 0.10702 0.145 0.12168 0.0
H639 H 0.09122 0.1195 0.16584 0.0
H640 H 0.11779 0.13194 0.21349 0.0
H641 H 0.09238 0.1637 0.4936 0.0
H642 H 0.06291 0.13141 0.52775 0.0
H643 H 0.05294 0.11592 0.27704 0.0
C644 C 0.10473 0.19699 0.20327 0.0
C645 C 0.11296 0.21853 0.24024 0.0
C646 C 0.11758 0.21852 0.32299 0.0
C647 C 0.11219 0.19797 0.36938 0.0
C648 C 0.10248 0.17753 0.33187 0.0
C649 C 0.09929 0.17666 0.25027 0.0
C650 C 0.08503 0.15425 0.22599 0.0
C651 C 0.06204 0.161 0.1786 0.0
C652 C 0.10123 0.13662 0.17894 0.0
C653 C 0.0788 0.14389 0.30695 0.0
C654 C 0.08965 0.15714 0.36714 0.0
C655 C 0.08432 0.1528 0.44701 0.0
C656 C 0.06729 0.13467 0.46578 0.0
C657 C 0.05565 0.12122 0.40492 0.0
C658 C 0.06197 0.12555 0.32474 0.0
H659 H 0.31749 0.11678 0.34003 0.0
H660 H 0.25932 0.0678 0.4124 0.0
H661 H 0.2874 0.04646 0.50084 0.0
H662 H 0.35782 0.07297 0.30985 0.0
H663 H 0.38458 0.08888 0.34353 0.0
H664 H 0.35905 0.10577 0.30679 0.0
H665 H 0.35661 0.13002 0.4387 0.0
H666 H 0.38255 0.11346 0.47547 0.0
H667 H 0.35467 0.11388 0.53202 0.0
H668 H 0.32279 0.02428 0.55538 0.0
H669 H 0.36264 1.00481 0.57754 0.0
H670 H 0.39828 0.06582 0.46099 0.0
C671 C 0.31043 0.10206 0.37629 0.0
C672 C 0.28608 0.09414 0.36873 0.0
C673 C 0.27766 0.07478 0.41779 0.0
C674 C 0.29358 0.06232 0.46821 0.0
C675 C 0.31788 0.06939 0.46932 0.0
C676 C 0.32624 0.08907 0.42551 0.0
C677 C 0.35372 0.09046 0.4265 0.0
C678 C 0.36439 0.08944 0.34166 0.0
C679 C 0.3624 0.11332 0.47084 0.0
C680 C 0.35948 0.06764 0.47313 0.0
C681 C 0.33859 0.05607 0.49916 0.0
C682 C 0.33931 0.03344 0.53689 0.0
C683 C 0.36197 0.02236 0.54819 0.0
C684 C 0.38354 0.03384 0.52118 0.0
C685 C 0.38216 0.05687 0.48398 0.0
H686 H 0.52066 0.32266 0.39914 0.0
H687 H 0.57254 0.30342 0.21543 0.0
H688 H 0.59899 0.33758 0.2563 0.0
H689 H 0.52336 0.38376 0.37299 0.0
H690 H 0.52096 0.39219 0.47627 0.0
H691 H 0.50843 0.36377 0.44307 0.0
H692 H 0.53407 0.34066 0.54722 0.0
H693 H 0.54698 0.36897 0.58123 0.0
H694 H 0.56662 0.34467 0.54909 0.0
H695 H 0.61513 0.37827 0.29825 0.0
H696 H 0.621 0.42062 0.34595 0.0
H697 H 0.56018 0.41171 0.50725 0.0
C698 C 0.53796 0.32526 0.36934 0.0
C699 C 0.54475 0.31043 0.30475 0.0
C700 C 0.56729 0.31442 0.26603 0.0
C701 C 0.58239 0.33377 0.28874 0.0
C702 C 0.57486 0.34858 0.35127 0.0
C703 C 0.55337 0.34425 0.39207 0.0
C704 C 0.54827 0.36405 0.45209 0.0
C705 C 0.52383 0.37668 0.435 0.0
C706 C 0.54904 0.35397 0.53746 0.0
C707 C 0.56958 0.38079 0.43579 0.0
C708 C 0.58485 0.37155 0.37788 0.0
C709 C 0.60384 0.38536 0.3456 0.0
C710 C 0.60704 0.40933 0.37256 0.0
C711 C 0.59149 0.41896 0.43146 0.0
C712 C 0.57293 0.40431 0.46445 0.0
H713 H 0.19612 0.42861 0.26697 0.0
H714 H 0.18234 0.43205 0.01284 0.0
H715 H 0.13991 0.44308 0.03978 0.0
H716 H 0.13075 0.41212 0.33192 0.0
H717 H 0.13372 0.43169 0.41728 0.0
H718 H 0.15986 0.4156 0.37971 0.0
H719 H 0.18289 0.45682 0.36854 0.0
H720 H 0.15661 0.47289 0.40357 0.0
H721 H 0.17005 0.48095 0.30917 0.0
H722 H 0.10389 0.46559 0.08905 0.0
H723 H 0.07459 0.49148 0.16172 0.0
H724 H 0.11269 0.47632 0.38199 0.0
C725 C 0.18404 0.43101 0.21683 0.0
C726 C 0.19282 0.42949 0.13789 0.0
C727 C 0.17625 0.43262 0.07408 0.0
C728 C 0.15207 0.43926 0.08854 0.0
C729 C 0.1447 0.44286 0.16676 0.0
C730 C 0.16002 0.43827 0.23014 0.0
C731 C 0.14897 0.44694 0.30759 0.0
C732 C 0.14296 0.42529 0.36234 0.0
C733 C 0.16562 0.4655 0.34958 0.0
C734 C 0.12604 0.45878 0.27685 0.0
C735 C 0.12354 0.45575 0.19576 0.0
C736 C 0.10519 0.46741 0.15301 0.0
C737 C 0.08886 0.48237 0.19448 0.0
C738 C 0.09121 0.4857 0.27759 0.0
C739 C 0.10996 0.47355 0.31887 0.0
H740 H 0.11474 0.81528 0.23348 0.0
H741 H 0.11169 0.7673 0.02966 0.0
H742 H 0.11915 0.80226 0.94054 0.0
H743 H 0.08095 0.85771 0.16315 0.0
H744 H 0.09646 0.88406 0.20198 0.0
H745 H 0.09957 0.85527 0.25101 0.0
H746 H 0.14641 0.85751 0.23703 0.0
H747 H 0.14356 0.88677 0.189 0.0
H748 H 0.15993 0.86256 0.14056 0.0
H749 H 0.11427 0.84215 0.8748 0.0
H750 H 0.09963 0.88305 0.83896 0.0
H751 H 0.10821 0.90601 0.08401 0.0
C752 C 0.11717 0.81194 0.17051 0.0
C753 C 0.11275 0.78865 0.1384 0.0
C754 C 0.11505 0.78505 0.05536 0.0
C755 C 0.11942 0.8048 1.00436 0.0
C756 C 0.1219 0.82793 0.03746 0.0
C757 C 0.12145 0.83151 0.11899 0.0
C758 C 0.12025 0.85833 0.13919 0.0
C759 C 0.09799 0.86415 0.19182 0.0
C760 C 0.14396 0.86679 0.17876 0.0
C761 C 0.11775 0.86908 0.05671 0.0
C762 C 0.11945 0.85138 0.99861 0.0
C763 C 0.11384 0.85635 0.91931 0.0
C764 C 0.10554 0.8797 0.8994 0.0
C765 C 0.10277 0.89775 0.95873 0.0
C766 C 0.11011 0.89257 0.0374 0.0
H767 H 0.7345 0.11767 0.13069 0.0
H768 H 0.70971 0.1298 0.37215 0.0
H769 H 0.66982 0.1427 0.32152 0.0
H770 H 0.69274 0.16564 0.02819 0.0
H771 H 0.68833 0.14516 0.9458 0.0
H772 H 0.71707 0.14585 0.99722 0.0
H773 H 0.71368 0.09941 0.02203 0.0
H774 H 0.68496 0.09858 0.97216 0.0
H775 H 0.68728 0.08747 0.07285 0.0
H776 H 0.63061 0.14169 0.25181 0.0
H777 H 0.5963 0.12812 0.16974 0.0
H778 H 0.64534 0.11702 0.97061 0.0
C779 C 0.72097 0.12412 0.17248 0.0
C780 C 0.72517 0.12278 0.25517 0.0
C781 C 0.70706 0.13108 0.30846 0.0
C782 C 0.68427 0.13841 0.28011 0.0
C783 C 0.68003 0.13767 0.19836 0.0
C784 C 0.69808 0.13119 0.14499 0.0
C785 C 0.68787 0.12736 0.06234 0.0
C786 C 0.69705 0.14719 1.00501 0.0
C787 C 0.69378 0.10169 0.03063 0.0
C788 C 0.66102 0.13032 0.07918 0.0
C789 C 0.6569 0.13709 0.15727 0.0
C790 C 0.63357 0.13729 0.18982 0.0
C791 C 0.6141 0.12955 0.14248 0.0
C792 C 0.6181 0.12151 0.06346 0.0
C793 C 0.64172 0.12305 0.03074 0.0
H794 H 0.42037 0.70352 0.22297 0.0
H795 H 0.4909 0.70937 0.33564 0.0
H796 H 0.4988 0.66593 0.30813 0.0
H797 H 0.40701 0.63949 0.28464 0.0
H798 H 0.39322 0.63216 0.19048 0.0
H799 H 0.39152 0.66277 0.22862 0.0
H800 H 0.41095 0.67933 0.09853 0.0
H801 H 0.41249 0.64887 0.05996 0.0
H802 H 0.43967 0.66719 0.06547 0.0
H803 H 0.50074 0.62371 0.25886 0.0
H804 H 0.49815 0.58596 0.17964 0.0
H805 H 0.42657 0.60705 0.09711 0.0
C806 C 0.43719 0.69536 0.24297 0.0
C807 C 0.45505 0.70939 0.28152 0.0
C808 C 0.4771 0.69859 0.30601 0.0
C809 C 0.48163 0.674 0.29125 0.0
C810 C 0.46378 0.66049 0.2527 0.0
C811 C 0.44204 0.67074 0.22842 0.0
C812 C 0.42715 0.65282 0.18048 0.0
C813 C 0.40331 0.64643 0.22366 0.0
C814 C 0.4223 0.66264 0.09613 0.0
C815 C 0.44431 0.63129 0.1792 0.0
C816 C 0.46509 0.63595 0.22273 0.0
C817 C 0.48444 0.61966 0.22542 0.0
C818 C 0.48285 0.59835 0.18024 0.0
C819 C 0.46211 0.59366 0.13299 0.0
C820 C 0.44235 0.60999 0.13433 0.0
H821 H 0.81442 0.41729 0.23757 0.0
H822 H 0.76422 0.42135 0.03948 0.0
H823 H 0.79888 0.42278 0.94591 0.0
H824 H 0.85356 0.45914 0.17209 0.0
H825 H 0.88123 0.44481 0.20505 0.0
H826 H 0.85309 0.43832 0.25521 0.0
H827 H 0.85865 0.39217 0.22975 0.0
H828 H 0.88718 0.39843 0.1806 0.0
H829 H 0.86383 0.38144 0.12986 0.0
H830 H 0.83809 0.43238 0.87797 0.0
H831 H 0.87884 0.44706 0.84012 0.0
H832 H 0.90391 0.4345 0.08151 0.0
C833 C 0.81069 0.41725 0.17435 0.0
C834 C 0.78667 0.41905 0.14567 0.0
C835 C 0.78253 0.41997 0.06259 0.0
C836 C 0.80209 0.42065 0.00903 0.0
C837 C 0.82563 0.42006 0.03953 0.0
C838 C 0.83001 0.41792 0.12025 0.0
C839 C 0.85679 0.42064 0.13868 0.0
C840 C 0.86141 0.442 0.19609 0.0
C841 C 0.86723 0.39674 0.17165 0.0
C842 C 0.8666 0.42603 0.05638 0.0
C843 C 0.84844 0.42525 0.99978 0.0
C844 C 0.85263 0.43228 0.92122 0.0
C845 C 0.87591 0.44056 0.90022 0.0
C846 C 0.89472 0.44181 0.95764 0.0
C847 C 0.88999 0.43383 0.03615 0.0
H848 H 0.03204 0.20703 0.80376 0.0
H849 H 0.03032 0.19714 0.06045 0.0
H850 H 0.02232 0.15357 0.04216 0.0
H851 H 0.98516 0.16179 0.75611 0.0
H852 H 1.00061 0.15115 0.66814 0.0
H853 H 1.00443 0.18222 0.70015 0.0
H854 H 0.0511 0.17624 0.70293 0.0
H855 H 0.04734 0.14515 0.6713 0.0
H856 H 0.06379 0.15182 0.76132 0.0
H857 H 0.01721 0.11085 0.9987 0.0
H858 H 1.01376 0.07128 0.93192 0.0
H859 H 0.01931 0.10717 0.70187 0.0
C860 C 0.02987 0.19577 0.85623 0.0
C861 C 0.0315 0.20594 0.93379 0.0
C862 C 0.02849 0.19029 1.00043 0.0
C863 C 0.02419 0.16532 0.99074 0.0
C864 C 0.023 0.15596 0.91397 0.0
C865 C 0.02563 0.17061 0.84767 0.0
C866 C 0.02421 0.1555 0.77188 0.0
C867 C 1.0023 0.16312 0.72108 0.0
C868 C 0.04803 0.15729 0.72406 0.0
C869 C 0.02067 0.1301 0.80633 0.0
C870 C 0.02001 0.13093 0.88847 0.0
C871 C 0.01755 0.10996 0.93439 0.0
C872 C 0.01568 0.08749 0.89564 0.0
C873 C 0.01624 0.08594 0.81142 0.0
C874 C 0.01867 0.10767 0.76625 0.0
H875 H 0.3217 0.04572 0.83148 0.0
H876 H 0.33128 0.06044 0.0832 0.0
H877 H 0.3756 0.05729 0.06721 0.0
H878 H 0.37036 1.00123 0.8173 0.0
H879 H 0.38059 1.01064 0.72005 0.0
H880 H 0.34916 1.01443 0.74786 0.0
H881 H 0.35165 0.06014 0.71515 0.0
H882 H 0.3831 0.05698 0.68695 0.0
H883 H 0.37456 0.07874 0.76197 0.0
H884 H 0.41857 0.05411 0.02567 0.0
H885 H 0.45836 0.04755 0.96244 0.0
H886 H 0.42259 0.03291 0.73728 0.0
C887 C 0.33319 0.04817 0.88308 0.0
C888 C 0.32292 0.05305 0.95894 0.0
C889 C 0.33859 0.0562 0.02496 0.0
C890 C 0.36386 0.05466 0.01637 0.0
C891 C 0.3734 0.04984 0.94132 0.0
C892 C 0.35868 0.04635 0.87575 0.0
C893 C 0.37401 0.04075 0.8024 0.0
C894 C 0.36817 1.01524 0.77001 0.0
C895 C 0.37062 0.06032 0.73782 0.0
C896 C 0.39951 0.04174 0.83742 0.0
C897 C 0.39859 0.04728 0.91747 0.0
C898 C 0.41956 0.04964 0.96308 0.0
C899 C 0.44214 0.04595 0.92639 0.0
C900 C 0.44374 0.03967 0.84483 0.0
C901 C 0.42203 0.03762 0.79978 0.0
H902 H 0.51188 0.33594 0.95752 0.0
H903 H 0.4914 0.29837 0.74153 0.0
H904 H 0.49464 0.33726 0.66622 0.0
H905 H 0.47659 0.3879 0.92191 0.0
H906 H 0.49786 0.40906 0.96519 0.0
H907 H 0.4971 0.37795 0.99887 0.0
H908 H 0.54299 0.37355 0.96682 0.0
H909 H 0.54391 0.40473 0.93325 0.0
H910 H 0.5539 0.38067 0.86824 0.0
H911 H 0.49911 0.38127 0.61599 0.0
H912 H 0.5008 0.42611 0.59812 0.0
H913 H 0.51486 0.43463 0.85025 0.0
C914 C 0.50863 0.33584 0.89398 0.0
C915 C 0.50188 0.31412 0.85481 0.0
C916 C 0.49691 0.31479 0.77223 0.0
C917 C 0.49874 0.33677 0.72915 0.0
C918 C 0.50518 0.35799 0.76986 0.0
C919 C 0.50987 0.35765 0.85068 0.0
C920 C 0.5143 0.38312 0.88218 0.0
C921 C 0.49533 0.3899 0.94577 0.0
C922 C 0.54032 0.38566 0.91452 0.0
C923 C 0.51098 0.39795 0.80694 0.0
C924 C 0.50627 0.38317 0.74228 0.0
C925 C 0.50274 0.39295 0.66638 0.0
C926 C 0.50375 0.41843 0.65672 0.0
C927 C 0.50767 0.43387 0.72291 0.0
C928 C 0.51152 0.42334 0.79865 0.0
H929 H 0.18012 0.49285 0.95075 0.0
H930 H 0.2185 0.5292 0.75846 0.0
H931 H 0.17931 0.5376 0.69204 0.0
H932 H 0.13443 0.46455 0.82123 0.0
H933 H 0.11182 0.46652 0.89885 0.0
H934 H 0.14366 0.46436 0.92355 0.0
H935 H 0.137 0.50395 0.00871 0.0
H936 H 0.10609 0.50661 0.97483 0.0
H937 H 0.12717 0.53135 0.95898 0.0
H938 H 0.1362 0.54011 0.64302 0.0
H939 H 0.09214 0.53831 0.61719 0.0
H940 H 0.08104 0.50096 0.84234 0.0
C941 C 0.18021 0.50303 0.89547 0.0
C942 C 0.2024 0.51063 0.86017 0.0
C943 C 0.20178 0.52324 0.7866 0.0
C944 C 0.17959 0.52811 0.74852 0.0
C945 C 0.15809 0.52011 0.78437 0.0
C946 C 0.1582 0.50784 0.85619 0.0
C947 C 0.13261 0.50015 0.87983 0.0
C948 C 0.13046 0.47224 0.88101 0.0
C949 C 0.12529 0.51119 0.96036 0.0
C950 C 0.11798 0.51084 0.81172 0.0
C951 C 0.13314 0.52185 0.75657 0.0
C952 C 0.12415 0.53174 0.68619 0.0
C953 C 0.09905 0.53052 0.6719 0.0
C954 C 0.083 0.51967 0.72793 0.0
C955 C 0.09272 0.5097 0.79885 0.0
H956 H 0.02181 0.82508 0.59055 0.0
H957 H 1.00014 0.83437 0.34338 0.0
H958 H 0.99066 0.87709 0.36992 0.0
H959 H 0.97925 0.86727 0.68019 0.0
H960 H 1.00108 0.87913 0.74998 0.0
H961 H 1.00369 0.84825 0.71506 0.0
H962 H 0.04772 0.85695 0.66777 0.0
H963 H 0.04525 0.88781 0.70271 0.0
H964 H 0.05339 0.88197 0.60059 0.0
H965 H 0.98453 0.91942 0.42068 0.0
H966 H 0.98511 0.95891 0.48951 0.0
H967 H 1.01469 0.924 0.70017 0.0
C968 C 0.01517 0.8359 0.54142 0.0
C969 C 1.01143 0.82559 0.46476 0.0
C970 C 1.00244 0.84098 0.40342 0.0
C971 C 0.9972 0.86558 0.41761 0.0
C972 C 1.00135 0.875 0.49319 0.0
C973 C 1.01038 0.86074 0.55394 0.0
C974 C 1.01485 0.8759 0.62816 0.0
C975 C 0.99875 0.86711 0.69744 0.0
C976 C 0.04191 0.87564 0.65113 0.0
C977 C 1.00706 0.90093 0.59923 0.0
C978 C 0.99899 0.89985 0.52154 0.0
C979 C 0.99081 0.92048 0.48154 0.0
C980 C 0.99114 0.94289 0.52146 0.0
C981 C 0.99992 0.94472 0.60052 0.0
C982 C 1.00787 0.9233 0.63983 0.0
H983 H 0.70586 0.01988 0.64874 0.0
H984 H 0.69616 0.99792 0.40224 0.0
H985 H 0.65317 0.98946 0.42926 0.0
H986 H 0.66157 0.97804 0.7393 0.0
H987 H 0.65071 1.00046 0.80894 0.0
H988 H 0.68174 1.0016 0.77427 0.0
H989 H 0.67541 0.04605 0.72701 0.0
H990 H 0.64441 0.04503 0.7615 0.0
H991 H 0.65093 0.05288 0.65945 0.0
H992 H 0.61046 0.9864 0.47836 0.0
H993 H 0.57082 0.99023 0.54493 0.0
H994 H 0.6067 0.01699 0.7576 0.0
C995 C 0.69489 1.01321 0.6001 0.0
C996 C 0.70502 1.00937 0.5232 0.0
C997 C 0.68954 1.00039 0.46232 0.0
C998 C 0.66483 0.9957 0.47684 0.0
C999 C 0.65551 1.00022 0.55246 0.0
C1000 C 0.67 1.00885 0.61312 0.0
C1001 C 0.65492 1.01404 0.68716 0.0
C1002 C 0.6627 0.99755 0.75652 0.0
C1003 C 0.65652 0.04111 0.71009 0.0
C1004 C 0.62964 1.00741 0.65797 0.0
C1005 C 0.63053 0.99917 0.58039 0.0
C1006 C 0.60956 0.99267 0.53928 0.0
C1007 C 0.58706 0.99495 0.57784 0.0
C1008 C 0.58546 1.00387 0.65685 0.0
C1009 C 0.6072 1.00989 0.69758 0.0
H1010 H 0.50627 0.69366 0.47723 0.0
H1011 H 0.51733 0.72625 0.70962 0.0
H1012 H 0.51843 0.68533 0.77005 0.0
H1013 H 0.46821 0.6444 0.54158 0.0
H1014 H 0.48107 0.62309 0.47182 0.0
H1015 H 0.48091 0.65514 0.4492 0.0
H1016 H 0.52786 0.65328 0.428 0.0
H1017 H 0.52766 0.62136 0.45282 0.0
H1018 H 0.54682 0.64207 0.50737 0.0
H1019 H 0.51505 0.64073 0.80705 0.0
H1020 H 0.51231 0.59578 0.81521 0.0
H1021 H 0.50722 0.59198 0.55812 0.0
C1022 C 0.50948 0.6923 0.54058 0.0
C1023 C 0.51158 0.71346 0.58844 0.0
C1024 C 0.51524 0.71054 0.67149 0.0
C1025 C 0.51599 0.68729 0.70649 0.0
C1026 C 0.51335 0.66695 0.65782 0.0
C1027 C 0.51053 0.6692 0.57648 0.0
C1028 C 0.50809 0.64439 0.53758 0.0
C1029 C 0.48309 0.64159 0.49768 0.0
C1030 C 0.52885 0.64002 0.47793 0.0
C1031 C 0.5102 0.62784 0.60967 0.0
C1032 C 0.51276 0.64124 0.67866 0.0
C1033 C 0.51344 0.63005 0.75328 0.0
C1034 C 0.51175 0.60453 0.75742 0.0
C1035 C 0.50988 0.59041 0.68734 0.0
C1036 C 0.50911 0.6023 0.6126 0.0
H1037 H 0.81444 0.48691 0.6243 0.0
H1038 H 0.81246 0.51973 0.38823 0.0
H1039 H 0.85435 0.53341 0.40471 0.0
H1040 H 0.85497 0.53088 0.71874 0.0
H1041 H 0.8717 0.50808 0.77303 0.0
H1042 H 0.84024 0.50292 0.74828 0.0
H1043 H 0.85202 0.46267 0.67922 0.0
H1044 H 0.88358 0.46779 0.70247 0.0
H1045 H 0.87445 0.46302 0.60079 0.0
H1046 H 0.89668 0.54242 0.44123 0.0
H1047 H 0.93819 0.54435 0.4928 0.0
H1048 H 0.91591 0.50295 0.70158 0.0
C1049 C 0.82262 0.49698 0.57576 0.0
C1050 C 0.80928 0.50257 0.5054 0.0
C1051 C 0.8213 0.51588 0.44422 0.0
C1052 C 0.84545 0.52359 0.45249 0.0
C1053 C 0.85788 0.51762 0.52176 0.0
C1054 C 0.84708 0.50444 0.58222 0.0
C1055 C 0.86541 0.49909 0.64796 0.0
C1056 C 0.85761 0.51096 0.72667 0.0
C1057 C 0.86907 0.4715 0.65818 0.0
C1058 C 0.88816 0.51122 0.6143 0.0
C1059 C 0.88311 0.52198 0.54182 0.0
C1060 C 0.90087 0.53408 0.49794 0.0
C1061 C 0.92453 0.53502 0.52807 0.0
C1062 C 0.9306 0.52377 0.6015 0.0
C1063 C 0.91197 0.51185 0.64554 0.0
loop_
_geom_bond_atom_site_label_1
_geom_bond_atom_site_label_2
_geom_bond_distance
_geom_bond_site_symmetry_2
_ccdc_geom_bond_type
P0 O11 1.490 . S
P0 C14 1.812 . S
P0 C20 1.803 . S
P0 C26 1.819 . S
H1 C15 0.941 . S
H2 C16 0.939 . S
H3 C18 0.940 . S
H4 C19 0.940 . S
H5 C21 0.939 . S
H6 C22 0.942 . S
H7 C24 0.940 . S
H8 C25 0.939 . S
H9 C27 0.941 . S
H10 C31 0.939 . S
O11 P0 1.490 . S
H12 C28 0.939 . S
H13 C30 0.940 . S
C14 P0 1.812 . S
C14 C15 1.389 . S
C14 C19 1.391 . S
C15 H1 0.941 . S
C15 C14 1.389 . S
C15 C16 1.397 . S
C16 H2 0.939 . S
C16 C15 1.397 . S
C16 C17 1.378 . S
C17 C16 1.378 . S
C17 C18 1.378 . S
C18 H3 0.940 . S
C18 C17 1.378 . S
C18 C19 1.396 . S
C19 H4 0.940 . S
C19 C14 1.391 . S
C19 C18 1.396 . S
C20 P0 1.803 . S
C20 C21 1.378 . S
C20 C25 1.400 . S
C21 H5 0.939 . S
C21 C20 1.378 . S
C21 C22 1.361 . S
C22 H6 0.942 . S
C22 C21 1.361 . S
C22 C23 1.369 . S
C23 C22 1.369 . S
C23 C24 1.404 . S
C24 H7 0.940 . S
C24 C23 1.404 . S
C24 C25 1.389 . S
C25 H8 0.939 . S
C25 C20 1.400 . S
C25 C24 1.389 . S
C26 P0 1.819 . S
C26 C27 1.391 . S
C26 C31 1.391 . S
C27 H9 0.941 . S
C27 C26 1.391 . S
C27 C28 1.396 . S
C28 H12 0.939 . S
C28 C27 1.396 . S
C28 C29 1.397 . S
C29 C28 1.397 . S
C29 C30 1.385 . S
C30 H13 0.940 . S
C30 C29 1.385 . S
C30 C31 1.388 . S
C31 H10 0.939 . S
C31 C26 1.391 . S
C31 C30 1.388 . S
P32 O43 1.490 . S
P32 C46 1.812 . S
P32 C52 1.803 . S
P32 C58 1.819 . S
H33 C47 0.941 . S
H34 C48 0.939 . S
H35 C50 0.940 . S
H36 C51 0.950 . S
H37 C53 0.939 . S
H38 C54 0.942 . S
H39 C56 0.940 . S
H40 C57 0.959 . S
H41 C59 0.941 . S
H42 C63 0.929 1_655 S
O43 P32 1.490 . S
H44 C60 0.939 . S
H45 C62 0.940 . S
C46 P32 1.812 . S
C46 C47 1.389 . S
C46 C51 1.375 1_455 S
C47 H33 0.941 . S
C47 C46 1.389 . S
C47 C48 1.397 . S
C48 H34 0.939 . S
C48 C47 1.397 . S
C48 C49 1.378 . S
C49 C48 1.378 . S
C49 C50 1.378 1_455 S
C50 H35 0.940 . S
C50 C49 1.378 1_655 S
C50 C51 1.403 . S
C51 H36 0.950 . S
C51 C46 1.375 1_655 S
C51 C50 1.403 . S
C52 P32 1.803 . S
C52 C53 1.378 . S
C52 C57 1.368 1_455 S
C53 H37 0.939 . S
C53 C52 1.378 . S
C53 C54 1.361 . S
C54 H38 0.942 . S
C54 C53 1.361 . S
C54 C55 1.369 . S
C55 C54 1.369 . S
C55 C56 1.404 1_455 S
C56 H39 0.940 . S
C56 C55 1.404 1_655 S
C56 C57 1.402 . S
C57 H40 0.959 . S
C57 C52 1.368 1_655 S
C57 C56 1.402 . S
C58 P32 1.819 . S
C58 C59 1.391 . S
C58 C63 1.391 . S
C59 H41 0.941 . S
C59 C58 1.391 . S
C59 C60 1.396 . S
C60 H44 0.939 . S
C60 C59 1.396 . S
C60 C61 1.397 . S
C61 C60 1.397 . S
C61 C62 1.385 1_455 S
C62 H45 0.940 . S
C62 C61 1.385 1_655 S
C62 C63 1.388 1_655 S
C63 H42 0.929 1_455 S
C63 C58 1.391 . S
C63 C62 1.388 1_455 S
P64 O75 1.490 . S
P64 C78 1.812 . S
P64 C84 1.803 . S
P64 C90 1.819 . S
H65 C79 0.941 . S
H66 C80 0.939 . S
H67 C82 0.940 . S
H68 C83 0.950 . S
H69 C85 0.939 . S
H70 C86 0.942 . S
H71 C88 0.940 . S
H72 C89 0.959 . S
H73 C91 0.941 . S
H74 C95 0.929 1_565 S
O75 P64 1.490 . S
H76 C92 0.939 . S
H77 C94 0.940 . S
C78 P64 1.812 . S
C78 C79 1.389 . S
C78 C83 1.375 1_545 S
C79 H65 0.941 . S
C79 C78 1.389 . S
C79 C80 1.397 . S
C80 H66 0.939 . S
C80 C79 1.397 . S
C80 C81 1.378 . S
C81 C80 1.378 . S
C81 C82 1.378 1_545 S
C82 H67 0.940 . S
C82 C81 1.378 1_565 S
C82 C83 1.403 . S
C83 H68 0.950 . S
C83 C78 1.375 1_565 S
C83 C82 1.403 . S
C84 P64 1.803 . S
C84 C85 1.378 . S
C84 C89 1.368 1_545 S
C85 H69 0.939 . S
C85 C84 1.378 . S
C85 C86 1.361 . S
C86 H70 0.942 . S
C86 C85 1.361 . S
C86 C87 1.369 . S
C87 C86 1.369 . S
C87 C88 1.404 1_545 S
C88 H71 0.940 . S
C88 C87 1.404 1_565 S
C88 C89 1.402 . S
C89 H72 0.959 . S
C89 C84 1.368 1_565 S
C89 C88 1.402 . S
C90 P64 1.819 . S
C90 C91 1.391 . S
C90 C95 1.391 . S
C91 H73 0.941 . S
C91 C90 1.391 . S
C91 C92 1.396 . S
C92 H76 0.939 . S
C92 C91 1.396 . S
C92 C93 1.397 . S
C93 C92 1.397 . S
C93 C94 1.385 1_545 S
C94 H77 0.940 . S
C94 C93 1.385 1_565 S
C94 C95 1.388 1_565 S
C95 H74 0.929 1_545 S
C95 C90 1.391 . S
C95 C94 1.388 1_545 S
P96 O107 1.490 . S
P96 C110 1.812 . S
P96 C116 1.803 . S
P96 C122 1.819 . S
H97 C111 0.941 . S
H98 C112 0.939 . S
H99 C114 0.940 . S
H100 C115 0.940 . S
H101 C117 0.939 . S
H102 C118 0.942 . S
H103 C120 0.940 . S
H104 C121 0.939 . S
H105 C123 0.941 . S
H106 C127 0.939 . S
O107 P96 1.490 . S
H108 C124 0.939 . S
H109 C126 0.940 . S
C110 P96 1.812 . S
C110 C111 1.389 . S
C110 C115 1.391 . S
C111 H97 0.941 . S
C111 C110 1.389 . S
C111 C112 1.397 . S
C112 H98 0.939 . S
C112 C111 1.397 . S
C112 C113 1.378 . S
C113 C112 1.378 . S
C113 C114 1.378 . S
C114 H99 0.940 . S
C114 C113 1.378 . S
C114 C115 1.396 . S
C115 H100 0.940 . S
C115 C110 1.391 . S
C115 C114 1.396 . S
C116 P96 1.803 . S
C116 C117 1.378 . S
C116 C121 1.400 . S
C117 H101 0.939 . S
C117 C116 1.378 . S
C117 C118 1.361 . S
C118 H102 0.942 . S
C118 C117 1.361 . S
C118 C119 1.369 . S
C119 C118 1.369 . S
C119 C120 1.404 . S
C120 H103 0.940 . S
C120 C119 1.404 . S
C120 C121 1.389 . S
C121 H104 0.939 . S
C121 C116 1.400 . S
C121 C120 1.389 . S
C122 P96 1.819 . S
C122 C123 1.391 . S
C122 C127 1.391 . S
C123 H105 0.941 . S
C123 C122 1.391 . S
C123 C124 1.396 . S
C124 H108 0.939 . S
C124 C123 1.396 . S
C124 C125 1.397 . S
C125 C124 1.397 . S
C125 C126 1.385 . S
C126 H109 0.940 . S
C126 C125 1.385 . S
C126 C127 1.388 . S
C127 H106 0.939 . S
C127 C122 1.391 . S
C127 C126 1.388 . S
P128 O139 1.490 . S
P128 C142 1.812 1_554 S
P128 C148 1.803 . S
P128 C154 1.819 . S
H129 C143 0.941 . S
H130 C144 0.939 . S
H131 C146 0.940 . S
H132 C147 0.940 . S
H133 C149 0.939 . S
H134 C150 0.942 . S
H135 C152 0.940 . S
H136 C153 0.939 . S
H137 C155 0.941 . S
H138 C159 0.939 . S
O139 P128 1.490 . S
H140 C156 0.939 . S
H141 C158 0.940 . S
C142 P128 1.812 1_556 S
C142 C143 1.389 . S
C142 C147 1.391 . S
C143 H129 0.941 . S
C143 C142 1.389 . S
C143 C144 1.397 . S
C144 H130 0.939 . S
C144 C143 1.397 . S
C144 C145 1.378 . S
C145 C144 1.378 . S
C145 C146 1.378 . S
C146 H131 0.940 . S
C146 C145 1.378 . S
C146 C147 1.396 . S
C147 H132 0.940 . S
C147 C142 1.391 . S
C147 C146 1.396 . S
C148 P128 1.803 . S
C148 C149 1.378 . S
C148 C153 1.400 . S
C149 H133 0.939 . S
C149 C148 1.378 . S
C149 C150 1.361 . S
C150 H134 0.942 . S
C150 C149 1.361 . S
C150 C151 1.369 . S
C151 C150 1.369 . S
C151 C152 1.404 . S
C152 H135 0.940 . S
C152 C151 1.404 . S
C152 C153 1.389 . S
C153 H136 0.939 . S
C153 C148 1.400 . S
C153 C152 1.389 . S
C154 P128 1.819 . S
C154 C155 1.391 . S
C154 C159 1.391 . S
C155 H137 0.941 . S
C155 C154 1.391 . S
C155 C156 1.396 . S
C156 H140 0.939 . S
C156 C155 1.396 . S
C156 C157 1.397 . S
C157 C156 1.397 . S
C157 C158 1.385 . S
C158 H141 0.940 . S
C158 C157 1.385 . S
C158 C159 1.388 . S
C159 H138 0.939 . S
C159 C154 1.391 . S
C159 C158 1.388 . S
P160 O171 1.490 . S
P160 C174 1.812 1_554 S
P160 C180 1.803 . S
P160 C186 1.819 . S
H161 C175 0.941 . S
H162 C176 0.939 . S
H163 C178 0.940 . S
H164 C179 0.944 . S
H165 C181 0.939 . S
H166 C182 0.942 . S
H167 C184 0.940 . S
H168 C185 0.953 . S
H169 C187 0.941 . S
H170 C191 0.933 1_655 S
O171 P160 1.490 . S
H172 C188 0.939 . S
H173 C190 0.940 . S
C174 P160 1.812 1_556 S
C174 C175 1.389 . S
C174 C179 1.385 1_455 S
C175 H161 0.941 . S
C175 C174 1.389 . S
C175 C176 1.397 . S
C176 H162 0.939 . S
C176 C175 1.397 . S
C176 C177 1.378 . S
C177 C176 1.378 . S
C177 C178 1.378 1_455 S
C178 H163 0.940 . S
C178 C177 1.378 1_655 S
C178 C179 1.399 . S
C179 H164 0.944 . S
C179 C174 1.385 1_655 S
C179 C178 1.399 . S
C180 P160 1.803 . S
C180 C181 1.378 . S
C180 C185 1.379 1_455 S
C181 H165 0.939 . S
C181 C180 1.378 . S
C181 C182 1.361 . S
C182 H166 0.942 . S
C182 C181 1.361 . S
C182 C183 1.369 . S
C183 C182 1.369 . S
C183 C184 1.404 1_455 S
C184 H167 0.940 . S
C184 C183 1.404 1_655 S
C184 C185 1.398 . S
C185 H168 0.953 . S
C185 C180 1.379 1_655 S
C185 C184 1.398 . S
C186 P160 1.819 . S
C186 C187 1.391 . S
C186 C191 1.391 . S
C187 H169 0.941 . S
C187 C186 1.391 . S
C187 C188 1.396 . S
C188 H172 0.939 . S
C188 C187 1.396 . S
C188 C189 1.397 . S
C189 C188 1.397 . S
C189 C190 1.385 1_455 S
C190 H173 0.940 . S
C190 C189 1.385 1_655 S
C190 C191 1.388 1_655 S
C191 H170 0.933 1_455 S
C191 C186 1.391 . S
C191 C190 1.388 1_455 S
P192 O203 1.490 . S
P192 C206 1.812 1_554 S
P192 C212 1.803 . S
P192 C218 1.819 . S
H193 C207 0.941 . S
H194 C208 0.939 . S
H195 C210 0.940 . S
H196 C211 0.944 . S
H197 C213 0.939 . S
H198 C214 0.942 . S
H199 C216 0.940 . S
H200 C217 0.953 . S
H201 C219 0.941 . S
H202 C223 0.933 1_565 S
O203 P192 1.490 . S
H204 C220 0.939 . S
H205 C222 0.940 . S
C206 P192 1.812 1_556 S
C206 C207 1.389 . S
C206 C211 1.385 1_545 S
C207 H193 0.941 . S
C207 C206 1.389 . S
C207 C208 1.397 . S
C208 H194 0.939 . S
C208 C207 1.397 . S
C208 C209 1.378 . S
C209 C208 1.378 . S
C209 C210 1.378 1_545 S
C210 H195 0.940 . S
C210 C209 1.378 1_565 S
C210 C211 1.399 . S
C211 H196 0.944 . S
C211 C206 1.385 1_565 S
C211 C210 1.399 . S
C212 P192 1.803 . S
C212 C213 1.378 . S
C212 C217 1.379 1_545 S
C213 H197 0.939 . S
C213 C212 1.378 . S
C213 C214 1.361 . S
C214 H198 0.942 . S
C214 C213 1.361 . S
C214 C215 1.369 . S
C215 C214 1.369 . S
C215 C216 1.404 1_545 S
C216 H199 0.940 . S
C216 C215 1.404 1_565 S
C216 C217 1.398 . S
C217 H200 0.953 . S
C217 C212 1.379 1_565 S
C217 C216 1.398 . S
C218 P192 1.819 . S
C218 C219 1.391 . S
C218 C223 1.391 . S
C219 H201 0.941 . S
C219 C218 1.391 . S
C219 C220 1.396 . S
C220 H204 0.939 . S
C220 C219 1.396 . S
C220 C221 1.397 . S
C221 C220 1.397 . S
C221 C222 1.385 1_545 S
C222 H205 0.940 . S
C222 C221 1.385 1_565 S
C222 C223 1.388 1_565 S
C223 H202 0.933 1_545 S
C223 C218 1.391 . S
C223 C222 1.388 1_545 S
P224 O235 1.490 . S
P224 C238 1.812 1_554 S
P224 C244 1.803 . S
P224 C250 1.819 . S
H225 C239 0.941 . S
H226 C240 0.939 . S
H227 C242 0.940 . S
H228 C243 0.940 . S
H229 C245 0.939 . S
H230 C246 0.942 . S
H231 C248 0.940 . S
H232 C249 0.939 . S
H233 C251 0.941 . S
H234 C255 0.939 . S
O235 P224 1.490 . S
H236 C252 0.939 . S
H237 C254 0.940 . S
C238 P224 1.812 1_556 S
C238 C239 1.389 . S
C238 C243 1.391 . S
C239 H225 0.941 . S
C239 C238 1.389 . S
C239 C240 1.397 . S
C240 H226 0.939 . S
C240 C239 1.397 . S
C240 C241 1.378 . S
C241 C240 1.378 . S
C241 C242 1.378 . S
C242 H227 0.940 . S
C242 C241 1.378 . S
C242 C243 1.396 . S
C243 H228 0.940 . S
C243 C238 1.391 . S
C243 C242 1.396 . S
C244 P224 1.803 . S
C244 C245 1.378 . S
C244 C249 1.400 . S
C245 H229 0.939 . S
C245 C244 1.378 . S
C245 C246 1.361 . S
C246 H230 0.942 . S
C246 C245 1.361 . S
C246 C247 1.369 . S
C247 C246 1.369 . S
C247 C248 1.404 . S
C248 H231 0.940 . S
C248 C247 1.404 . S
C248 C249 1.389 . S
C249 H232 0.939 . S
C249 C244 1.400 . S
C249 C248 1.389 . S
C250 P224 1.819 . S
C250 C251 1.391 . S
C250 C255 1.391 . S
C251 H233 0.941 . S
C251 C250 1.391 . S
C251 C252 1.396 . S
C252 H236 0.939 . S
C252 C251 1.396 . S
C252 C253 1.397 . S
C253 C252 1.397 . S
C253 C254 1.385 . S
C254 H237 0.940 . S
C254 C253 1.385 . S
C254 C255 1.388 . S
C255 H234 0.939 . S
C255 C250 1.391 . S
C255 C254 1.388 . S
Ho256 C259 2.811 . S
Ho256 O276 2.322 . S
Ho256 O278 2.378 . S
Ho256 O279 2.524 . S
Ho256 O280 2.381 . S
Ho256 O281 2.669 1_565 S
Ho256 O283 2.346 1_565 S
Ho256 O287 2.305 1_455 S
Ho257 C268 2.811 . S
Ho257 O277 2.346 1_545 S
Ho257 O281 2.305 1_655 S
Ho257 O282 2.322 . S
Ho257 O284 2.378 . S
Ho257 O285 2.524 . S
Ho257 O286 2.381 . S
Ho257 O287 2.669 1_545 S
C258 O276 1.259 1_655 S
C258 O277 1.268 . S
C259 Ho256 2.811 . S
C259 C260 1.488 . S
C259 O278 1.215 . S
C259 O279 1.289 . S
C260 C259 1.488 . S
C260 C261 1.348 . S
C260 C265 1.413 . S
C261 C260 1.348 . S
C261 C262 1.442 . S
C261 H288 0.930 1_455 S
C262 C261 1.442 . S
C262 C263 1.381 . S
C262 H289 0.894 1_455 S
C263 C262 1.381 . S
C263 C264 1.321 . S
C264 C263 1.321 . S
C264 C265 1.403 . S
C264 H290 0.934 . S
C265 C260 1.413 . S
C265 C264 1.403 . S
C265 H291 0.930 . S
C266 O280 1.298 . S
C266 O281 1.243 1_565 S
C267 O282 1.259 1_455 S
C267 O283 1.268 . S
C268 Ho257 2.811 . S
C268 C269 1.488 . S
C268 O284 1.215 . S
C268 O285 1.289 . S
C269 C268 1.488 . S
C269 C270 1.348 . S
C269 C274 1.413 . S
C270 C269 1.348 . S
C270 C271 1.442 . S
C270 H292 0.930 1_655 S
C271 C270 1.442 . S
C271 C272 1.381 . S
C271 H293 0.931 1_655 S
C272 C271 1.381 . S
C272 C273 1.321 . S
C273 C272 1.321 . S
C273 C274 1.403 . S
C273 H294 0.934 . S
C274 C269 1.413 . S
C274 C273 1.403 . S
C274 H295 0.930 . S
C275 O286 1.275 . S
C275 O287 1.256 1_545 S
O276 Ho256 2.322 . S
O276 C258 1.259 1_455 S
O277 Ho257 2.346 1_565 S
O277 C258 1.268 . S
O278 Ho256 2.378 . S
O278 C259 1.215 . S
O279 Ho256 2.524 . S
O279 C259 1.289 . S
O280 Ho256 2.381 . S
O280 C266 1.298 . S
O281 Ho256 2.669 1_545 S
O281 Ho257 2.305 1_455 S
O281 C266 1.243 1_545 S
O282 Ho257 2.322 . S
O282 C267 1.259 1_655 S
O283 Ho256 2.346 1_545 S
O283 C267 1.268 . S
O284 Ho257 2.378 . S
O284 C268 1.215 . S
O285 Ho257 2.524 . S
O285 C268 1.289 . S
O286 Ho257 2.381 . S
O286 C275 1.275 . S
O287 Ho256 2.305 1_655 S
O287 Ho257 2.669 1_565 S
O287 C275 1.256 1_565 S
H288 C261 0.930 1_655 S
H289 C262 0.894 1_655 S
H290 C264 0.934 . S
H291 C265 0.930 . S
H292 C270 0.930 1_455 S
H293 C271 0.931 1_455 S
H294 C273 0.934 . S
H295 C274 0.930 . S
Ho296 C299 2.811 . S
Ho296 O316 2.322 . S
Ho296 O318 2.378 . S
Ho296 O319 2.524 . S
Ho296 O320 2.381 . S
Ho296 O321 2.669 . S
Ho296 O323 2.346 . S
Ho296 O327 2.305 1_545 S
Ho297 C308 2.811 . S
Ho297 O317 2.346 . S
Ho297 O321 2.305 1_565 S
Ho297 O322 2.322 . S
Ho297 O324 2.378 . S
Ho297 O325 2.524 . S
Ho297 O326 2.381 . S
Ho297 O327 2.669 . S
C298 O316 1.259 1_565 S
C298 O317 1.268 . S
C299 Ho296 2.811 . S
C299 C300 1.488 . S
C299 O318 1.215 . S
C299 O319 1.289 . S
C300 C299 1.488 . S
C300 C301 1.348 . S
C300 C305 1.413 . S
C301 C300 1.348 . S
C301 C302 1.442 . S
C301 H328 0.930 1_545 S
C302 C301 1.442 . S
C302 C303 1.381 . S
C302 H329 0.931 1_545 S
C303 C302 1.381 . S
C303 C304 1.321 . S
C304 C303 1.321 . S
C304 C305 1.403 . S
C304 H330 0.934 . S
C305 C300 1.413 . S
C305 C304 1.403 . S
C305 H331 0.930 . S
C306 O320 1.275 . S
C306 O321 1.256 . S
C307 O322 1.259 1_545 S
C307 O323 1.268 . S
C308 Ho297 2.811 . S
C308 C309 1.488 . S
C308 O324 1.215 . S
C308 O325 1.289 . S
C309 C308 1.488 . S
C309 C310 1.348 . S
C309 C314 1.413 . S
C310 C309 1.348 . S
C310 C311 1.442 . S
C310 H332 0.930 1_565 S
C311 C310 1.442 . S
C311 C312 1.381 . S
C311 H333 0.931 1_565 S
C312 C311 1.381 . S
C312 C313 1.321 . S
C313 C312 1.321 . S
C313 C314 1.403 . S
C313 H334 0.934 . S
C314 C309 1.413 . S
C314 C313 1.403 . S
C314 H335 0.930 . S
C315 O326 1.275 . S
C315 O327 1.256 . S
O316 Ho296 2.322 . S
O316 C298 1.259 1_545 S
O317 Ho297 2.346 . S
O317 C298 1.268 . S
O318 Ho296 2.378 . S
O318 C299 1.215 . S
O319 Ho296 2.524 . S
O319 C299 1.289 . S
O320 Ho296 2.381 . S
O320 C306 1.275 . S
O321 Ho296 2.669 . S
O321 Ho297 2.305 1_545 S
O321 C306 1.256 . S
O322 Ho297 2.322 . S
O322 C307 1.259 1_565 S
O323 Ho296 2.346 . S
O323 C307 1.268 . S
O324 Ho297 2.378 . S
O324 C308 1.215 . S
O325 Ho297 2.524 . S
O325 C308 1.289 . S
O326 Ho297 2.381 . S
O326 C315 1.275 . S
O327 Ho296 2.305 1_565 S
O327 Ho297 2.669 . S
O327 C315 1.256 . S
H328 C301 0.930 1_565 S
H329 C302 0.931 1_565 S
H330 C304 0.934 . S
H331 C305 0.930 . S
H332 C310 0.930 1_545 S
H333 C311 0.931 1_545 S
H334 C313 0.934 . S
H335 C314 0.930 . S
Ho336 C339 2.811 . S
Ho336 O356 2.322 . S
Ho336 O358 2.378 . S
Ho336 O359 2.524 . S
Ho336 O360 2.381 . S
Ho336 O361 2.669 . S
Ho336 O363 2.346 . S
Ho336 O367 2.305 . S
Ho337 C348 2.811 . S
Ho337 O357 2.346 . S
Ho337 O361 2.305 . S
Ho337 O362 2.322 . S
Ho337 O364 2.378 . S
Ho337 O365 2.524 . S
Ho337 O366 2.381 . S
Ho337 O367 2.669 . S
C338 O356 1.259 . S
C338 O357 1.268 . S
C339 Ho336 2.811 . S
C339 C340 1.488 . S
C339 O358 1.215 . S
C339 O359 1.289 . S
C340 C339 1.488 . S
C340 C341 1.348 . S
C340 C345 1.413 . S
C341 C340 1.348 . S
C341 C342 1.442 . S
C341 H368 0.930 . S
C342 C341 1.442 . S
C342 C343 1.381 . S
C342 H369 0.931 . S
C343 C342 1.381 . S
C343 C344 1.321 . S
C344 C343 1.321 . S
C344 C345 1.403 . S
C344 H370 0.934 . S
C345 C340 1.413 . S
C345 C344 1.403 . S
C345 H371 0.930 . S
C346 O360 1.275 . S
C346 O361 1.256 . S
C347 O362 1.259 . S
C347 O363 1.268 . S
C348 Ho337 2.811 . S
C348 C349 1.488 . S
C348 O364 1.215 . S
C348 O365 1.289 . S
C349 C348 1.488 . S
C349 C350 1.348 . S
C349 C354 1.413 . S
C350 C349 1.348 . S
C350 C351 1.442 . S
C350 H372 0.930 . S
C351 C350 1.442 . S
C351 C352 1.381 . S
C351 H373 0.931 . S
C352 C351 1.381 . S
C352 C353 1.321 . S
C353 C352 1.321 . S
C353 C354 1.403 . S
C353 H374 0.934 . S
C354 C349 1.413 . S
C354 C353 1.403 . S
C354 H375 0.930 . S
C355 O366 1.275 . S
C355 O367 1.256 . S
O356 Ho336 2.322 . S
O356 C338 1.259 . S
O357 Ho337 2.346 . S
O357 C338 1.268 . S
O358 Ho336 2.378 . S
O358 C339 1.215 . S
O359 Ho336 2.524 . S
O359 C339 1.289 . S
O360 Ho336 2.381 . S
O360 C346 1.275 . S
O361 Ho336 2.669 . S
O361 Ho337 2.305 . S
O361 C346 1.256 . S
O362 Ho337 2.322 . S
O362 C347 1.259 . S
O363 Ho336 2.346 . S
O363 C347 1.268 . S
O364 Ho337 2.378 . S
O364 C348 1.215 . S
O365 Ho337 2.524 . S
O365 C348 1.289 . S
O366 Ho337 2.381 . S
O366 C355 1.275 . S
O367 Ho336 2.305 . S
O367 Ho337 2.669 . S
O367 C355 1.256 . S
H368 C341 0.930 . S
H369 C342 0.931 . S
H370 C344 0.934 . S
H371 C345 0.930 . S
H372 C350 0.930 . S
H373 C351 0.931 . S
H374 C353 0.934 . S
H375 C354 0.930 . S
Ho376 C379 2.811 . S
Ho376 O396 2.322 . S
Ho376 O398 2.378 . S
Ho376 O399 2.524 . S
Ho376 O400 2.381 . S
Ho376 O401 2.669 1_655 S
Ho376 O403 2.346 1_655 S
Ho376 O407 2.305 . S
Ho377 C388 2.811 . S
Ho377 O397 2.346 1_455 S
Ho377 O401 2.305 . S
Ho377 O402 2.322 . S
Ho377 O404 2.378 . S
Ho377 O405 2.524 . S
Ho377 O406 2.381 . S
Ho377 O407 2.669 1_455 S
C378 O396 1.259 . S
C378 O397 1.268 . S
C379 Ho376 2.811 . S
C379 C380 1.488 . S
C379 O398 1.215 . S
C379 O399 1.289 . S
C380 C379 1.488 . S
C380 C381 1.348 . S
C380 C385 1.413 . S
C381 C380 1.348 . S
C381 C382 1.442 . S
C381 H408 0.930 . S
C382 C381 1.442 . S
C382 C383 1.381 . S
C382 H409 0.931 . S
C383 C382 1.381 . S
C383 C384 1.321 . S
C384 C383 1.321 . S
C384 C385 1.403 . S
C384 H410 0.934 . S
C385 C380 1.413 . S
C385 C384 1.403 . S
C385 H411 0.930 . S
C386 O400 1.290 . S
C386 O401 1.248 1_655 S
C387 O402 1.259 . S
C387 O403 1.268 . S
C388 Ho377 2.811 . S
C388 C389 1.488 . S
C388 O404 1.215 . S
C388 O405 1.289 . S
C389 C388 1.488 . S
C389 C390 1.348 . S
C389 C394 1.413 . S
C390 C389 1.348 . S
C390 C391 1.442 . S
C390 H412 0.930 . S
C391 C390 1.442 . S
C391 C392 1.381 . S
C391 H413 0.931 . S
C392 C391 1.381 . S
C392 C393 1.321 . S
C393 C392 1.321 . S
C393 C394 1.403 . S
C393 H414 0.934 . S
C394 C389 1.413 . S
C394 C393 1.403 . S
C394 H415 0.930 . S
C395 O406 1.295 . S
C395 O407 1.245 1_455 S
O396 Ho376 2.322 . S
O396 C378 1.259 . S
O397 Ho377 2.346 1_655 S
O397 C378 1.268 . S
O398 Ho376 2.378 . S
O398 C379 1.215 . S
O399 Ho376 2.524 . S
O399 C379 1.289 . S
O400 Ho376 2.381 . S
O400 C386 1.290 . S
O401 Ho376 2.669 1_455 S
O401 Ho377 2.305 . S
O401 C386 1.248 1_455 S
O402 Ho377 2.322 . S
O402 C387 1.259 . S
O403 Ho376 2.346 1_455 S
O403 C387 1.268 . S
O404 Ho377 2.378 . S
O404 C388 1.215 . S
O405 Ho377 2.524 . S
O405 C388 1.289 . S
O406 Ho377 2.381 . S
O406 C395 1.295 . S
O407 Ho376 2.305 . S
O407 Ho377 2.669 1_655 S
O407 C395 1.245 1_655 S
H408 C381 0.930 . S
H409 C382 0.931 . S
H410 C384 0.934 . S
H411 C385 0.930 . S
H412 C390 0.930 . S
H413 C391 0.931 . S
H414 C393 0.934 . S
H415 C394 0.930 . S
H416 C428 0.930 . S
H417 C430 0.930 . S
H418 C431 0.930 . S
H419 C435 0.959 . S
H420 C435 0.959 . S
H421 C435 0.961 . S
H422 C436 0.960 . S
H423 C436 0.961 . S
H424 C436 0.959 . S
H425 C439 0.929 . S
H426 C440 0.931 . S
H427 C442 0.930 . S
C428 H416 0.930 . S
C428 C429 1.399 1_545 S
C428 C433 1.399 . S
C429 C428 1.399 1_565 S
C429 C430 1.376 . S
C430 H417 0.930 . S
C430 C429 1.376 . S
C430 C431 1.388 . S
C431 H418 0.930 . S
C431 C430 1.388 . S
C431 C432 1.390 . S
C432 C431 1.390 . S
C432 C433 1.394 1_565 S
C432 C438 1.465 . S
C433 C428 1.399 . S
C433 C432 1.394 1_545 S
C433 C434 1.516 . S
C434 C433 1.516 . S
C434 C435 1.502 . S
C434 C436 1.561 . S
C434 C437 1.526 . S
C435 H419 0.959 . S
C435 H420 0.959 . S
C435 H421 0.961 . S
C435 C434 1.502 . S
C436 H422 0.960 . S
C436 H423 0.961 . S
C436 H424 0.959 . S
C436 C434 1.561 . S
C437 C434 1.526 . S
C437 C438 1.396 1_545 S
C437 C442 1.390 . S
C438 C432 1.465 . S
C438 C437 1.396 1_565 S
C438 C439 1.399 . S
C439 H425 0.929 . S
C439 C438 1.399 . S
C439 C440 1.385 . S
C440 H426 0.931 . S
C440 C439 1.385 . S
C440 C441 1.426 . S
C441 C440 1.426 . S
C441 C442 1.358 1_565 S
C442 H427 0.930 . S
C442 C437 1.390 . S
C442 C441 1.358 1_545 S
H443 C455 0.930 . S
H444 C457 0.930 . S
H445 C458 0.930 . S
H446 C462 0.959 . S
H447 C462 0.959 . S
H448 C462 0.961 . S
H449 C463 0.960 . S
H450 C463 0.961 . S
H451 C463 0.959 . S
H452 C466 0.929 . S
H453 C467 0.931 . S
H454 C469 0.930 . S
C455 H443 0.930 . S
C455 C456 1.399 . S
C455 C460 1.399 . S
C456 C455 1.399 . S
C456 C457 1.376 . S
C457 H444 0.930 . S
C457 C456 1.376 . S
C457 C458 1.388 . S
C458 H445 0.930 . S
C458 C457 1.388 . S
C458 C459 1.390 . S
C459 C458 1.390 . S
C459 C460 1.394 . S
C459 C465 1.465 . S
C460 C455 1.399 . S
C460 C459 1.394 . S
C460 C461 1.516 . S
C461 C460 1.516 . S
C461 C462 1.502 . S
C461 C463 1.561 . S
C461 C464 1.526 . S
C462 H446 0.959 . S
C462 H447 0.959 . S
C462 H448 0.961 . S
C462 C461 1.502 . S
C463 H449 0.960 . S
C463 H450 0.961 . S
C463 H451 0.959 . S
C463 C461 1.561 . S
C464 C461 1.526 . S
C464 C465 1.396 . S
C464 C469 1.390 . S
C465 C459 1.465 . S
C465 C464 1.396 . S
C465 C466 1.399 . S
C466 H452 0.929 . S
C466 C465 1.399 . S
C466 C467 1.385 . S
C467 H453 0.931 . S
C467 C466 1.385 . S
C467 C468 1.389 . S
C468 C467 1.389 . S
C468 C469 1.387 . S
C469 H454 0.930 . S
C469 C464 1.390 . S
C469 C468 1.387 . S
H470 C482 0.930 . S
H471 C484 0.930 . S
H472 C485 0.930 . S
H473 C489 0.959 . S
H474 C489 0.959 . S
H475 C489 0.961 . S
H476 C490 0.960 . S
H477 C490 0.961 . S
H478 C490 0.959 . S
H479 C493 0.929 . S
H480 C494 0.931 . S
H481 C496 0.930 . S
C482 H470 0.930 . S
C482 C483 1.399 . S
C482 C487 1.399 . S
C483 C482 1.399 . S
C483 C484 1.376 . S
C484 H471 0.930 . S
C484 C483 1.376 . S
C484 C485 1.388 . S
C485 H472 0.930 . S
C485 C484 1.388 . S
C485 C486 1.390 . S
C486 C485 1.390 . S
C486 C487 1.394 . S
C486 C492 1.465 . S
C487 C482 1.399 . S
C487 C486 1.394 . S
C487 C488 1.516 . S
C488 C487 1.516 . S
C488 C489 1.502 . S
C488 C490 1.561 . S
C488 C491 1.526 . S
C489 H473 0.959 . S
C489 H474 0.959 . S
C489 H475 0.961 . S
C489 C488 1.502 . S
C490 H476 0.960 . S
C490 H477 0.961 . S
C490 H478 0.959 . S
C490 C488 1.561 . S
C491 C488 1.526 . S
C491 C492 1.396 . S
C491 C496 1.390 . S
C492 C486 1.465 . S
C492 C491 1.396 . S
C492 C493 1.399 . S
C493 H479 0.929 . S
C493 C492 1.399 . S
C493 C494 1.385 . S
C494 H480 0.931 . S
C494 C493 1.385 . S
C494 C495 1.389 . S
C495 C494 1.389 . S
C495 C496 1.387 . S
C496 H481 0.930 . S
C496 C491 1.390 . S
C496 C495 1.387 . S
H497 C509 0.930 . S
H498 C511 0.932 . S
H499 C512 0.930 . S
H500 C516 0.959 . S
H501 C516 0.959 . S
H502 C516 0.961 . S
H503 C517 0.960 . S
H504 C517 0.961 . S
H505 C517 0.959 . S
H506 C520 0.929 . S
H507 C521 0.929 1_655 S
H508 C523 0.930 . S
C509 H497 0.930 . S
C509 C510 1.399 . S
C509 C514 1.399 . S
C510 C509 1.399 . S
C510 C511 1.376 . S
C511 H498 0.932 . S
C511 C510 1.376 . S
C511 C512 1.388 . S
C512 H499 0.930 . S
C512 C511 1.388 . S
C512 C513 1.390 . S
C513 C512 1.390 . S
C513 C514 1.394 . S
C513 C519 1.465 . S
C514 C509 1.399 . S
C514 C513 1.394 . S
C514 C515 1.516 . S
C515 C514 1.516 . S
C515 C516 1.502 1_455 S
C515 C517 1.561 . S
C515 C518 1.526 . S
C516 H500 0.959 . S
C516 H501 0.959 . S
C516 H502 0.961 . S
C516 C515 1.502 1_655 S
C517 H503 0.960 . S
C517 H504 0.961 . S
C517 H505 0.959 . S
C517 C515 1.561 . S
C518 C515 1.526 . S
C518 C519 1.396 . S
C518 C523 1.390 . S
C519 C513 1.465 . S
C519 C518 1.396 . S
C519 C520 1.399 . S
C520 H506 0.929 . S
C520 C519 1.399 . S
C520 C521 1.387 . S
C521 H507 0.929 1_455 S
C521 C520 1.387 . S
C521 C522 1.392 . S
C522 C521 1.392 . S
C522 C523 1.387 . S
C523 H508 0.930 . S
C523 C518 1.390 . S
C523 C522 1.387 . S
H524 C536 0.930 . S
H525 C538 0.930 . S
H526 C539 0.930 . S
H527 C543 0.959 . S
H528 C543 0.959 . S
H529 C543 0.961 . S
H530 C544 0.960 . S
H531 C544 0.961 . S
H532 C544 0.959 . S
H533 C547 0.929 . S
H534 C548 0.931 . S
H535 C550 0.930 . S
C536 H524 0.930 . S
C536 C537 1.399 1_565 S
C536 C541 1.399 . S
C537 C536 1.399 1_545 S
C537 C538 1.376 . S
C538 H525 0.930 . S
C538 C537 1.376 . S
C538 C539 1.388 . S
C539 H526 0.930 . S
C539 C538 1.388 . S
C539 C540 1.390 . S
C540 C539 1.390 . S
C540 C541 1.394 1_545 S
C540 C546 1.465 . S
C541 C536 1.399 . S
C541 C540 1.394 1_565 S
C541 C542 1.516 . S
C542 C541 1.516 . S
C542 C543 1.502 . S
C542 C544 1.561 . S
C542 C545 1.526 . S
C543 H527 0.959 . S
C543 H528 0.959 . S
C543 H529 0.961 . S
C543 C542 1.502 . S
C544 H530 0.960 . S
C544 H531 0.961 . S
C544 H532 0.959 . S
C544 C542 1.561 . S
C545 C542 1.526 . S
C545 C546 1.396 1_565 S
C545 C550 1.390 1_554 S
C546 C540 1.465 . S
C546 C545 1.396 1_545 S
C546 C547 1.399 1_554 S
C547 H533 0.929 . S
C547 C546 1.399 1_556 S
C547 C548 1.385 . S
C548 H534 0.931 . S
C548 C547 1.385 . S
C548 C549 1.408 . S
C549 C548 1.408 . S
C549 C550 1.371 1_545 S
C550 H535 0.930 . S
C550 C545 1.390 1_556 S
C550 C549 1.371 1_565 S
H551 C563 0.930 . S
H552 C565 0.930 . S
H553 C566 0.930 . S
H554 C570 0.959 . S
H555 C570 0.959 . S
H556 C570 0.961 . S
H557 C571 0.960 . S
H558 C571 0.961 1_556 S
H559 C571 0.959 . S
H560 C574 0.929 . S
H561 C575 0.931 . S
H562 C577 0.930 . S
C563 H551 0.930 . S
C563 C564 1.399 . S
C563 C568 1.399 . S
C564 C563 1.399 . S
C564 C565 1.376 . S
C565 H552 0.930 . S
C565 C564 1.376 . S
C565 C566 1.388 . S
C566 H553 0.930 . S
C566 C565 1.388 . S
C566 C567 1.390 . S
C567 C566 1.390 . S
C567 C568 1.394 . S
C567 C573 1.465 . S
C568 C563 1.399 . S
C568 C567 1.394 . S
C568 C569 1.516 . S
C569 C568 1.516 . S
C569 C570 1.502 . S
C569 C571 1.561 . S
C569 C572 1.522 1_554 S
C570 H554 0.959 . S
C570 H555 0.959 . S
C570 H556 0.961 . S
C570 C569 1.502 . S
C571 H557 0.960 . S
C571 H558 0.961 1_554 S
C571 H559 0.959 . S
C571 C569 1.561 . S
C572 C569 1.522 1_556 S
C572 C573 1.395 1_556 S
C572 C577 1.393 . S
C573 C567 1.465 . S
C573 C572 1.395 1_554 S
C573 C574 1.399 1_554 S
C574 H560 0.929 . S
C574 C573 1.399 1_556 S
C574 C575 1.385 . S
C575 H561 0.931 . S
C575 C574 1.385 . S
C575 C576 1.389 . S
C576 C575 1.389 . S
C576 C577 1.387 . S
C577 H562 0.930 . S
C577 C572 1.393 . S
C577 C576 1.387 . S
H578 C590 0.930 . S
H579 C592 0.930 . S
H580 C593 0.930 . S
H581 C597 0.959 1_556 S
H582 C597 0.959 1_556 S
H583 C597 0.961 . S
H584 C598 0.960 . S
H585 C598 0.961 . S
H586 C598 0.959 . S
H587 C601 0.934 . S
H588 C602 0.931 . S
H589 C604 0.930 . S
C590 H578 0.930 . S
C590 C591 1.399 . S
C590 C595 1.399 . S
C591 C590 1.399 . S
C591 C592 1.376 . S
C592 H579 0.930 . S
C592 C591 1.376 . S
C592 C593 1.388 . S
C593 H580 0.930 . S
C593 C592 1.388 . S
C593 C594 1.390 . S
C594 C593 1.390 . S
C594 C595 1.394 . S
C594 C600 1.465 . S
C595 C590 1.399 . S
C595 C594 1.394 . S
C595 C596 1.516 . S
C596 C595 1.516 . S
C596 C597 1.502 . S
C596 C598 1.561 . S
C596 C599 1.526 1_554 S
C597 H581 0.959 1_554 S
C597 H582 0.959 1_554 S
C597 H583 0.961 . S
C597 C596 1.502 . S
C598 H584 0.960 . S
C598 H585 0.961 . S
C598 H586 0.959 . S
C598 C596 1.561 . S
C599 C596 1.526 1_556 S
C599 C600 1.396 1_556 S
C599 C604 1.390 . S
C600 C594 1.465 . S
C600 C599 1.396 1_554 S
C600 C601 1.403 . S
C601 H587 0.934 . S
C601 C600 1.403 . S
C601 C602 1.376 1_554 S
C602 H588 0.931 . S
C602 C601 1.376 1_556 S
C602 C603 1.389 . S
C603 C602 1.389 . S
C603 C604 1.387 . S
C604 H589 0.930 . S
C604 C599 1.390 . S
C604 C603 1.387 . S
H605 C617 0.930 . S
H606 C619 0.930 . S
H607 C620 0.930 . S
H608 C624 0.959 . S
H609 C624 0.959 . S
H610 C624 0.961 . S
H611 C625 0.960 . S
H612 C625 0.961 . S
H613 C625 0.959 . S
H614 C628 0.929 . S
H615 C629 0.931 . S
H616 C631 0.930 . S
C617 H605 0.930 . S
C617 C618 1.399 1_455 S
C617 C622 1.399 . S
C618 C617 1.399 1_655 S
C618 C619 1.376 . S
C619 H606 0.930 . S
C619 C618 1.376 . S
C619 C620 1.388 . S
C620 H607 0.930 . S
C620 C619 1.388 . S
C620 C621 1.390 . S
C621 C620 1.390 . S
C621 C622 1.393 1_655 S
C621 C627 1.465 . S
C622 C617 1.399 . S
C622 C621 1.393 1_455 S
C622 C623 1.516 . S
C623 C622 1.516 . S
C623 C624 1.502 . S
C623 C625 1.561 1_455 S
C623 C626 1.524 1_455 S
C624 H608 0.959 . S
C624 H609 0.959 . S
C624 H610 0.961 . S
C624 C623 1.502 . S
C625 H611 0.960 . S
C625 H612 0.961 . S
C625 H613 0.959 . S
C625 C623 1.561 1_655 S
C626 C623 1.524 1_655 S
C626 C627 1.399 . S
C626 C631 1.389 1_654 S
C627 C621 1.465 . S
C627 C626 1.399 . S
C627 C628 1.399 1_554 S
C628 H614 0.929 . S
C628 C627 1.399 1_556 S
C628 C629 1.385 . S
C629 H615 0.931 . S
C629 C628 1.385 . S
C629 C630 1.389 . S
C630 C629 1.389 . S
C630 C631 1.387 1_655 S
C631 H616 0.930 . S
C631 C626 1.389 1_456 S
C631 C630 1.387 1_455 S
H632 C644 0.930 . S
H633 C646 0.930 . S
H634 C647 0.930 . S
H635 C651 0.959 1_655 S
H636 C651 0.959 . S
H637 C651 0.961 . S
H638 C652 0.960 . S
H639 C652 0.961 . S
H640 C652 0.959 . S
H641 C655 0.929 . S
H642 C656 0.931 . S
H643 C658 0.930 . S
C644 H632 0.930 . S
C644 C645 1.399 . S
C644 C649 1.399 1_455 S
C645 C644 1.399 . S
C645 C646 1.376 1_455 S
C646 H633 0.930 . S
C646 C645 1.376 1_655 S
C646 C647 1.388 . S
C647 H634 0.930 . S
C647 C646 1.388 . S
C647 C648 1.390 . S
C648 C647 1.390 . S
C648 C649 1.394 . S
C648 C654 1.465 . S
C649 C644 1.399 1_655 S
C649 C648 1.394 . S
C649 C650 1.516 1_655 S
C650 C649 1.516 1_455 S
C650 C651 1.502 . S
C650 C652 1.561 . S
C650 C653 1.526 1_455 S
C651 H635 0.959 1_455 S
C651 H636 0.959 . S
C651 H637 0.961 . S
C651 C650 1.502 . S
C652 H638 0.960 . S
C652 H639 0.961 . S
C652 H640 0.959 . S
C652 C650 1.561 . S
C653 C650 1.526 1_655 S
C653 C654 1.396 . S
C653 C658 1.390 . S
C654 C648 1.465 . S
C654 C653 1.396 . S
C654 C655 1.399 . S
C655 H641 0.929 . S
C655 C654 1.399 . S
C655 C656 1.385 . S
C656 H642 0.931 . S
C656 C655 1.385 . S
C656 C657 1.389 . S
C657 C656 1.389 . S
C657 C658 1.387 . S
C658 H643 0.930 . S
C658 C653 1.390 . S
C658 C657 1.387 . S
H659 C671 0.930 . S
H660 C673 0.930 . S
H661 C674 0.930 . S
H662 C678 0.959 . S
H663 C678 0.959 . S
H664 C678 0.961 . S
H665 C679 0.960 . S
H666 C679 0.961 . S
H667 C679 0.959 . S
H668 C682 0.929 . S
H669 C683 0.931 . S
H670 C685 0.930 . S
C671 H659 0.930 . S
C671 C672 1.412 . S
C671 C676 1.382 1_545 S
C672 C671 1.412 . S
C672 C673 1.349 1_545 S
C673 H660 0.930 . S
C673 C672 1.349 1_565 S
C673 C674 1.388 . S
C674 H661 0.930 . S
C674 C673 1.388 . S
C674 C675 1.390 . S
C675 C674 1.390 . S
C675 C676 1.426 . S
C675 C681 1.465 . S
C676 C671 1.382 1_565 S
C676 C675 1.426 . S
C676 C677 1.506 1_565 S
C677 C676 1.506 1_545 S
C677 C678 1.502 . S
C677 C679 1.561 . S
C677 C680 1.526 1_545 S
C678 H662 0.959 . S
C678 H663 0.959 . S
C678 H664 0.961 . S
C678 C677 1.502 . S
C679 H665 0.960 . S
C679 H666 0.961 . S
C679 H667 0.959 . S
C679 C677 1.561 . S
C680 C677 1.526 1_565 S
C680 C681 1.396 . S
C680 C685 1.390 . S
C681 C675 1.465 . S
C681 C680 1.396 . S
C681 C682 1.399 . S
C682 H668 0.929 . S
C682 C681 1.399 . S
C682 C683 1.385 . S
C683 H669 0.931 . S
C683 C682 1.385 . S
C683 C684 1.389 . S
C684 C683 1.389 . S
C684 C685 1.387 . S
C685 H670 0.930 . S
C685 C680 1.390 . S
C685 C684 1.387 . S
H686 C698 0.930 . S
H687 C700 0.930 . S
H688 C701 0.930 . S
H689 C705 0.959 . S
H690 C705 0.959 . S
H691 C705 0.961 . S
H692 C706 0.960 . S
H693 C706 0.961 . S
H694 C706 0.959 . S
H695 C709 0.929 . S
H696 C710 0.931 . S
H697 C712 0.930 . S
C698 H686 0.930 . S
C698 C699 1.399 . S
C698 C703 1.399 . S
C699 C698 1.399 . S
C699 C700 1.376 . S
C700 H687 0.930 . S
C700 C699 1.376 . S
C700 C701 1.388 . S
C701 H688 0.930 . S
C701 C700 1.388 . S
C701 C702 1.390 . S
C702 C701 1.390 . S
C702 C703 1.394 . S
C702 C708 1.465 . S
C703 C698 1.399 . S
C703 C702 1.394 . S
C703 C704 1.516 . S
C704 C703 1.516 . S
C704 C705 1.502 . S
C704 C706 1.561 . S
C704 C707 1.526 . S
C705 H689 0.959 . S
C705 H690 0.959 . S
C705 H691 0.961 . S
C705 C704 1.502 . S
C706 H692 0.960 . S
C706 H693 0.961 . S
C706 H694 0.959 . S
C706 C704 1.561 . S
C707 C704 1.526 . S
C707 C708 1.396 . S
C707 C712 1.390 . S
C708 C702 1.465 . S
C708 C707 1.396 . S
C708 C709 1.399 . S
C709 H695 0.929 . S
C709 C708 1.399 . S
C709 C710 1.385 . S
C710 H696 0.931 . S
C710 C709 1.385 . S
C710 C711 1.389 . S
C711 C710 1.389 . S
C711 C712 1.387 . S
C712 H697 0.930 . S
C712 C707 1.390 . S
C712 C711 1.387 . S
H713 C725 0.930 . S
H714 C727 0.930 . S
H715 C728 0.930 . S
H716 C732 0.959 . S
H717 C732 0.959 . S
H718 C732 0.961 . S
H719 C733 0.960 . S
H720 C733 0.961 . S
H721 C733 0.959 . S
H722 C736 0.929 . S
H723 C737 0.931 . S
H724 C739 0.930 . S
C725 H713 0.930 . S
C725 C726 1.399 . S
C725 C730 1.399 . S
C726 C725 1.399 . S
C726 C727 1.376 . S
C727 H714 0.930 . S
C727 C726 1.376 . S
C727 C728 1.388 . S
C728 H715 0.930 . S
C728 C727 1.388 . S
C728 C729 1.390 . S
C729 C728 1.390 . S
C729 C730 1.394 . S
C729 C735 1.465 . S
C730 C725 1.399 . S
C730 C729 1.394 . S
C730 C731 1.516 . S
C731 C730 1.516 . S
C731 C732 1.502 . S
C731 C733 1.561 . S
C731 C734 1.526 . S
C732 H716 0.959 . S
C732 H717 0.959 . S
C732 H718 0.961 . S
C732 C731 1.502 . S
C733 H719 0.960 . S
C733 H720 0.961 . S
C733 H721 0.959 . S
C733 C731 1.561 . S
C734 C731 1.526 . S
C734 C735 1.396 . S
C734 C739 1.390 . S
C735 C729 1.465 . S
C735 C734 1.396 . S
C735 C736 1.399 . S
C736 H722 0.929 . S
C736 C735 1.399 . S
C736 C737 1.385 . S
C737 H723 0.931 . S
C737 C736 1.385 . S
C737 C738 1.389 . S
C738 C737 1.389 . S
C738 C739 1.387 . S
C739 H724 0.930 . S
C739 C734 1.390 . S
C739 C738 1.387 . S
H740 C752 0.930 1_655 S
H741 C754 0.930 . S
H742 C755 0.921 1_556 S
H743 C759 0.959 . S
H744 C759 0.959 1_455 S
H745 C759 0.961 . S
H746 C760 0.960 . S
H747 C760 0.961 . S
H748 C760 0.959 . S
H749 C763 0.929 . S
H750 C764 0.931 . S
H751 C766 0.930 . S
C752 H740 0.930 1_455 S
C752 C753 1.395 1_455 S
C752 C757 1.399 . S
C753 C752 1.395 1_655 S
C753 C754 1.364 1_655 S
C754 H741 0.930 . S
C754 C753 1.364 1_455 S
C754 C755 1.388 . S
C755 H742 0.921 1_554 S
C755 C754 1.388 . S
C755 C756 1.390 . S
C756 C755 1.390 . S
C756 C757 1.394 . S
C756 C762 1.465 . S
C757 C752 1.399 . S
C757 C756 1.394 . S
C757 C758 1.516 . S
C758 C757 1.516 . S
C758 C759 1.502 1_455 S
C758 C760 1.561 . S
C758 C761 1.526 . S
C759 H743 0.959 . S
C759 H744 0.959 1_655 S
C759 H745 0.961 . S
C759 C758 1.502 1_655 S
C760 H746 0.960 . S
C760 H747 0.961 . S
C760 H748 0.959 . S
C760 C758 1.561 . S
C761 C758 1.526 . S
C761 C762 1.396 . S
C761 C766 1.390 . S
C762 C756 1.465 . S
C762 C761 1.396 . S
C762 C763 1.399 1_554 S
C763 H749 0.929 . S
C763 C762 1.399 1_556 S
C763 C764 1.385 . S
C764 H750 0.931 . S
C764 C763 1.385 . S
C764 C765 1.389 . S
C765 C764 1.389 . S
C765 C766 1.387 1_556 S
C766 H751 0.930 . S
C766 C761 1.390 . S
C766 C765 1.387 1_554 S
H767 C779 0.930 . S
H768 C781 0.930 . S
H769 C782 0.930 . S
H770 C786 0.959 . S
H771 C786 0.959 . S
H772 C786 0.961 1_565 S
H773 C787 0.960 . S
H774 C787 0.961 1_556 S
H775 C787 0.959 . S
H776 C790 0.929 . S
H777 C791 0.931 . S
H778 C793 0.930 . S
C779 H767 0.930 . S
C779 C780 1.399 . S
C779 C784 1.399 1_565 S
C780 C779 1.399 . S
C780 C781 1.376 1_565 S
C781 H768 0.930 . S
C781 C780 1.376 1_545 S
C781 C782 1.388 . S
C782 H769 0.930 . S
C782 C781 1.388 . S
C782 C783 1.390 . S
C783 C782 1.390 . S
C783 C784 1.394 . S
C783 C789 1.465 . S
C784 C779 1.399 1_545 S
C784 C783 1.394 . S
C784 C785 1.516 . S
C785 C784 1.516 . S
C785 C786 1.502 1_554 S
C785 C787 1.561 1_545 S
C785 C788 1.526 . S
C786 H770 0.959 . S
C786 H771 0.959 . S
C786 H772 0.961 1_545 S
C786 C785 1.502 1_556 S
C787 H773 0.960 . S
C787 H774 0.961 1_554 S
C787 H775 0.959 . S
C787 C785 1.561 1_565 S
C788 C785 1.526 . S
C788 C789 1.396 . S
C788 C793 1.390 1_554 S
C789 C783 1.465 . S
C789 C788 1.396 . S
C789 C790 1.399 . S
C790 H776 0.929 . S
C790 C789 1.399 . S
C790 C791 1.385 . S
C791 H777 0.931 . S
C791 C790 1.385 . S
C791 C792 1.389 1_554 S
C792 C791 1.389 1_556 S
C792 C793 1.387 . S
C793 H778 0.930 . S
C793 C788 1.390 1_556 S
C793 C792 1.387 . S
H794 C806 0.930 . S
H795 C808 0.930 . S
H796 C809 0.930 . S
H797 C813 0.959 . S
H798 C813 0.959 . S
H799 C813 0.961 . S
H800 C814 0.960 . S
H801 C814 0.961 . S
H802 C814 0.959 . S
H803 C817 0.929 . S
H804 C818 0.931 . S
H805 C820 0.928 1_556 S
C806 H794 0.930 . S
C806 C807 1.399 . S
C806 C811 1.399 . S
C807 C806 1.399 . S
C807 C808 1.376 . S
C808 H795 0.930 . S
C808 C807 1.376 . S
C808 C809 1.388 . S
C809 H796 0.930 . S
C809 C808 1.388 . S
C809 C810 1.390 . S
C810 C809 1.390 . S
C810 C811 1.394 . S
C810 C816 1.465 . S
C811 C806 1.399 . S
C811 C810 1.394 . S
C811 C812 1.516 . S
C812 C811 1.516 . S
C812 C813 1.502 . S
C812 C814 1.561 1_554 S
C812 C815 1.526 . S
C813 H797 0.959 . S
C813 H798 0.959 . S
C813 H799 0.961 . S
C813 C812 1.502 . S
C814 H800 0.960 . S
C814 H801 0.961 . S
C814 H802 0.959 . S
C814 C812 1.561 1_556 S
C815 C812 1.526 . S
C815 C816 1.396 . S
C815 C820 1.392 . S
C816 C810 1.465 . S
C816 C815 1.396 . S
C816 C817 1.399 . S
C817 H803 0.929 . S
C817 C816 1.399 . S
C817 C818 1.385 . S
C818 H804 0.931 . S
C818 C817 1.385 . S
C818 C819 1.389 1_554 S
C819 C818 1.389 1_556 S
C819 C820 1.386 1_556 S
C820 H805 0.928 1_554 S
C820 C815 1.392 . S
C820 C819 1.386 1_554 S
H821 C833 0.930 . S
H822 C835 0.930 . S
H823 C836 0.930 1_556 S
H824 C840 0.959 . S
H825 C840 0.959 . S
H826 C840 0.961 . S
H827 C841 0.960 . S
H828 C841 0.961 . S
H829 C841 0.959 . S
H830 C844 0.929 . S
H831 C845 0.931 . S
H832 C847 0.930 . S
C833 H821 0.930 . S
C833 C834 1.399 . S
C833 C838 1.399 . S
C834 C833 1.399 . S
C834 C835 1.376 . S
C835 H822 0.930 . S
C835 C834 1.376 . S
C835 C836 1.388 . S
C836 H823 0.930 1_554 S
C836 C835 1.388 . S
C836 C837 1.390 . S
C837 C836 1.390 . S
C837 C838 1.394 . S
C837 C843 1.465 . S
C838 C833 1.399 . S
C838 C837 1.394 . S
C838 C839 1.516 . S
C839 C838 1.516 . S
C839 C840 1.502 . S
C839 C841 1.561 . S
C839 C842 1.526 . S
C840 H824 0.959 . S
C840 H825 0.959 . S
C840 H826 0.961 . S
C840 C839 1.502 . S
C841 H827 0.960 . S
C841 H828 0.961 . S
C841 H829 0.959 . S
C841 C839 1.561 . S
C842 C839 1.526 . S
C842 C843 1.396 . S
C842 C847 1.390 . S
C843 C837 1.465 . S
C843 C842 1.396 . S
C843 C844 1.399 1_554 S
C844 H830 0.929 . S
C844 C843 1.399 1_556 S
C844 C845 1.385 . S
C845 H831 0.931 . S
C845 C844 1.385 . S
C845 C846 1.389 . S
C846 C845 1.389 . S
C846 C847 1.387 1_556 S
C847 H832 0.930 . S
C847 C842 1.390 . S
C847 C846 1.387 1_554 S
H848 C860 0.934 . S
H849 C862 0.930 . S
H850 C863 0.930 . S
H851 C867 0.959 . S
H852 C867 0.959 . S
H853 C867 0.961 . S
H854 C868 0.960 . S
H855 C868 0.961 . S
H856 C868 0.959 . S
H857 C871 0.929 . S
H858 C872 0.931 . S
H859 C874 0.930 . S
C860 H848 0.934 . S
C860 C861 1.399 . S
C860 C865 1.399 . S
C861 C860 1.399 . S
C861 C862 1.376 . S
C862 H849 0.930 . S
C862 C861 1.376 . S
C862 C863 1.388 . S
C863 H850 0.930 . S
C863 C862 1.388 . S
C863 C864 1.390 . S
C864 C863 1.390 . S
C864 C865 1.394 . S
C864 C870 1.465 . S
C865 C860 1.399 . S
C865 C864 1.394 . S
C865 C866 1.516 . S
C866 C865 1.516 . S
C866 C867 1.502 1_455 S
C866 C868 1.561 . S
C866 C869 1.526 . S
C867 H851 0.959 . S
C867 H852 0.959 . S
C867 H853 0.961 . S
C867 C866 1.502 1_655 S
C868 H854 0.960 . S
C868 H855 0.961 . S
C868 H856 0.959 . S
C868 C866 1.561 . S
C869 C866 1.526 . S
C869 C870 1.396 . S
C869 C874 1.390 . S
C870 C864 1.465 . S
C870 C869 1.396 . S
C870 C871 1.399 . S
C871 H857 0.929 . S
C871 C870 1.399 . S
C871 C872 1.385 . S
C872 H858 0.931 . S
C872 C871 1.385 . S
C872 C873 1.389 . S
C873 C872 1.389 . S
C873 C874 1.387 . S
C874 H859 0.930 . S
C874 C869 1.390 . S
C874 C873 1.387 . S
H875 C887 0.930 . S
H876 C889 0.930 . S
H877 C890 0.930 . S
H878 C894 0.959 . S
H879 C894 0.959 . S
H880 C894 0.961 . S
H881 C895 0.960 . S
H882 C895 0.961 . S
H883 C895 0.959 . S
H884 C898 0.929 . S
H885 C899 0.931 . S
H886 C901 0.930 1_565 S
C887 H875 0.930 . S
C887 C888 1.399 1_565 S
C887 C892 1.399 1_565 S
C888 C887 1.399 1_545 S
C888 C889 1.376 . S
C889 H876 0.930 . S
C889 C888 1.376 . S
C889 C890 1.388 . S
C890 H877 0.930 . S
C890 C889 1.388 . S
C890 C891 1.390 . S
C891 C890 1.390 . S
C891 C892 1.394 . S
C891 C897 1.465 . S
C892 C887 1.399 1_545 S
C892 C891 1.394 . S
C892 C893 1.516 1_545 S
C893 C892 1.516 1_565 S
C893 C894 1.502 . S
C893 C895 1.561 1_565 S
C893 C896 1.526 1_565 S
C894 H878 0.959 . S
C894 H879 0.959 . S
C894 H880 0.961 . S
C894 C893 1.502 . S
C895 H881 0.960 . S
C895 H882 0.961 . S
C895 H883 0.959 . S
C895 C893 1.561 1_545 S
C896 C893 1.526 1_545 S
C896 C897 1.396 . S
C896 C901 1.390 . S
C897 C891 1.465 . S
C897 C896 1.396 . S
C897 C898 1.399 . S
C898 H884 0.929 . S
C898 C897 1.399 . S
C898 C899 1.385 . S
C899 H885 0.931 . S
C899 C898 1.385 . S
C899 C900 1.389 . S
C900 C899 1.389 . S
C900 C901 1.387 . S
C901 H886 0.930 1_545 S
C901 C896 1.390 . S
C901 C900 1.387 . S
H902 C914 0.930 . S
H903 C916 0.930 . S
H904 C917 0.930 . S
H905 C921 0.959 . S
H906 C921 0.959 . S
H907 C921 0.961 . S
H908 C922 0.960 . S
H909 C922 0.961 . S
H910 C922 0.959 . S
H911 C925 0.929 . S
H912 C926 0.931 . S
H913 C928 0.930 . S
C914 H902 0.930 . S
C914 C915 1.399 . S
C914 C919 1.399 . S
C915 C914 1.399 . S
C915 C916 1.376 . S
C916 H903 0.930 . S
C916 C915 1.376 . S
C916 C917 1.388 . S
C917 H904 0.930 . S
C917 C916 1.388 . S
C917 C918 1.390 . S
C918 C917 1.390 . S
C918 C919 1.394 . S
C918 C924 1.465 . S
C919 C914 1.399 . S
C919 C918 1.394 . S
C919 C920 1.516 . S
C920 C919 1.516 . S
C920 C921 1.502 . S
C920 C922 1.561 . S
C920 C923 1.526 . S
C921 H905 0.959 . S
C921 H906 0.959 . S
C921 H907 0.961 . S
C921 C920 1.502 . S
C922 H908 0.960 . S
C922 H909 0.961 . S
C922 H910 0.959 . S
C922 C920 1.561 . S
C923 C920 1.526 . S
C923 C924 1.396 . S
C923 C928 1.390 . S
C924 C918 1.465 . S
C924 C923 1.396 . S
C924 C925 1.399 . S
C925 H911 0.929 . S
C925 C924 1.399 . S
C925 C926 1.385 . S
C926 H912 0.931 . S
C926 C925 1.385 . S
C926 C927 1.389 . S
C927 C926 1.389 . S
C927 C928 1.387 . S
C928 H913 0.930 . S
C928 C923 1.390 . S
C928 C927 1.387 . S
H929 C941 0.930 . S
H930 C943 0.930 . S
H931 C944 0.930 . S
H932 C948 0.959 . S
H933 C948 0.959 . S
H934 C948 0.961 . S
H935 C949 0.960 . S
H936 C949 0.961 . S
H937 C949 0.959 . S
H938 C952 0.929 . S
H939 C953 0.931 . S
H940 C955 0.930 . S
C941 H929 0.930 . S
C941 C942 1.399 . S
C941 C946 1.399 . S
C942 C941 1.399 . S
C942 C943 1.376 . S
C943 H930 0.930 . S
C943 C942 1.376 . S
C943 C944 1.388 . S
C944 H931 0.930 . S
C944 C943 1.388 . S
C944 C945 1.390 . S
C945 C944 1.390 . S
C945 C946 1.394 . S
C945 C951 1.465 . S
C946 C941 1.399 . S
C946 C945 1.394 . S
C946 C947 1.516 . S
C947 C946 1.516 . S
C947 C948 1.502 . S
C947 C949 1.561 . S
C947 C950 1.526 . S
C948 H932 0.959 . S
C948 H933 0.959 . S
C948 H934 0.961 . S
C948 C947 1.502 . S
C949 H935 0.960 . S
C949 H936 0.961 . S
C949 H937 0.959 . S
C949 C947 1.561 . S
C950 C947 1.526 . S
C950 C951 1.396 . S
C950 C955 1.390 . S
C951 C945 1.465 . S
C951 C950 1.396 . S
C951 C952 1.399 . S
C952 H938 0.929 . S
C952 C951 1.399 . S
C952 C953 1.385 . S
C953 H939 0.931 . S
C953 C952 1.385 . S
C953 C954 1.389 . S
C954 C953 1.389 . S
C954 C955 1.387 . S
C955 H940 0.930 . S
C955 C950 1.390 . S
C955 C954 1.387 . S
H956 C968 0.930 . S
H957 C970 0.930 . S
H958 C971 0.930 . S
H959 C975 0.959 1_655 S
H960 C975 0.959 . S
H961 C975 0.961 . S
H962 C976 0.960 . S
H963 C976 0.961 . S
H964 C976 0.959 . S
H965 C979 0.929 . S
H966 C980 0.931 . S
H967 C982 0.929 . S
C968 H956 0.930 . S
C968 C969 1.399 1_455 S
C968 C973 1.399 . S
C969 C968 1.399 1_655 S
C969 C970 1.376 . S
C970 H957 0.930 . S
C970 C969 1.376 . S
C970 C971 1.388 . S
C971 H958 0.930 . S
C971 C970 1.388 . S
C971 C972 1.390 . S
C972 C971 1.390 . S
C972 C973 1.394 1_655 S
C972 C978 1.465 . S
C973 C968 1.399 . S
C973 C972 1.394 1_455 S
C973 C974 1.516 . S
C974 C973 1.516 . S
C974 C975 1.502 . S
C974 C976 1.561 . S
C974 C977 1.523 1_455 S
C975 H959 0.959 1_455 S
C975 H960 0.959 . S
C975 H961 0.961 . S
C975 C974 1.502 . S
C976 H962 0.960 . S
C976 H963 0.961 . S
C976 H964 0.959 . S
C976 C974 1.561 . S
C977 C974 1.523 1_655 S
C977 C978 1.399 . S
C977 C982 1.389 1_655 S
C978 C972 1.465 . S
C978 C977 1.399 . S
C978 C979 1.399 . S
C979 H965 0.929 . S
C979 C978 1.399 . S
C979 C980 1.385 . S
C980 H966 0.931 . S
C980 C979 1.385 . S
C980 C981 1.389 . S
C981 C980 1.389 . S
C981 C982 1.388 1_655 S
C982 H967 0.929 . S
C982 C977 1.389 1_455 S
C982 C981 1.388 1_455 S
H983 C995 0.930 . S
H984 C997 0.930 . S
H985 C998 0.930 . S
H986 C1002 0.959 . S
H987 C1002 0.959 . S
H988 C1002 0.961 . S
H989 C1003 0.960 . S
H990 C1003 0.961 . S
H991 C1003 0.959 . S
H992 C1006 0.929 . S
H993 C1007 0.930 . S
H994 C1009 0.930 . S
C995 H983 0.930 . S
C995 C996 1.408 . S
C995 C1000 1.399 . S
C996 C995 1.408 . S
C996 C997 1.367 1_565 S
C997 H984 0.930 . S
C997 C996 1.367 1_545 S
C997 C998 1.388 . S
C998 H985 0.930 . S
C998 C997 1.388 . S
C998 C999 1.392 . S
C999 C998 1.392 . S
C999 C1000 1.392 1_545 S
C999 C1005 1.465 1_545 S
C1000 C995 1.399 . S
C1000 C999 1.392 1_565 S
C1000 C1001 1.516 . S
C1001 C1000 1.516 . S
C1001 C1002 1.502 . S
C1001 C1003 1.561 1_565 S
C1001 C1004 1.526 . S
C1002 H986 0.959 . S
C1002 H987 0.959 . S
C1002 H988 0.961 . S
C1002 C1001 1.502 . S
C1003 H989 0.960 . S
C1003 H990 0.961 . S
C1003 H991 0.959 . S
C1003 C1001 1.561 1_545 S
C1004 C1001 1.526 . S
C1004 C1005 1.396 . S
C1004 C1009 1.390 . S
C1005 C999 1.465 1_565 S
C1005 C1004 1.396 . S
C1005 C1006 1.399 1_565 S
C1006 H992 0.929 . S
C1006 C1005 1.399 1_545 S
C1006 C1007 1.385 1_545 S
C1007 H993 0.930 . S
C1007 C1006 1.385 1_565 S
C1007 C1008 1.389 . S
C1008 C1007 1.389 . S
C1008 C1009 1.387 . S
C1009 H994 0.930 . S
C1009 C1004 1.390 . S
C1009 C1008 1.387 . S
H1010 C1022 0.930 . S
H1011 C1024 0.930 . S
H1012 C1025 0.930 . S
H1013 C1029 0.959 . S
H1014 C1029 0.959 . S
H1015 C1029 0.961 . S
H1016 C1030 0.960 . S
H1017 C1030 0.961 . S
H1018 C1030 0.959 . S
H1019 C1033 0.929 . S
H1020 C1034 0.931 . S
H1021 C1036 0.930 . S
C1022 H1010 0.930 . S
C1022 C1023 1.399 . S
C1022 C1027 1.399 . S
C1023 C1022 1.399 . S
C1023 C1024 1.376 . S
C1024 H1011 0.930 . S
C1024 C1023 1.376 . S
C1024 C1025 1.388 . S
C1025 H1012 0.930 . S
C1025 C1024 1.388 . S
C1025 C1026 1.390 . S
C1026 C1025 1.390 . S
C1026 C1027 1.394 . S
C1026 C1032 1.465 . S
C1027 C1022 1.399 . S
C1027 C1026 1.394 . S
C1027 C1028 1.516 . S
C1028 C1027 1.516 . S
C1028 C1029 1.502 . S
C1028 C1030 1.561 . S
C1028 C1031 1.526 . S
C1029 H1013 0.959 . S
C1029 H1014 0.959 . S
C1029 H1015 0.961 . S
C1029 C1028 1.502 . S
C1030 H1016 0.960 . S
C1030 H1017 0.961 . S
C1030 H1018 0.959 . S
C1030 C1028 1.561 . S
C1031 C1028 1.526 . S
C1031 C1032 1.396 . S
C1031 C1036 1.390 . S
C1032 C1026 1.465 . S
C1032 C1031 1.396 . S
C1032 C1033 1.399 . S
C1033 H1019 0.929 . S
C1033 C1032 1.399 . S
C1033 C1034 1.385 . S
C1034 H1020 0.931 . S
C1034 C1033 1.385 . S
C1034 C1035 1.389 . S
C1035 C1034 1.389 . S
C1035 C1036 1.387 . S
C1036 H1021 0.930 . S
C1036 C1031 1.390 . S
C1036 C1035 1.387 . S
H1037 C1049 0.930 . S
H1038 C1051 0.930 . S
H1039 C1052 0.930 . S
H1040 C1056 0.959 . S
H1041 C1056 0.959 . S
H1042 C1056 0.961 . S
H1043 C1057 0.960 . S
H1044 C1057 0.961 . S
H1045 C1057 0.959 . S
H1046 C1060 0.929 . S
H1047 C1061 0.931 . S
H1048 C1063 0.930 . S
C1049 H1037 0.930 . S
C1049 C1050 1.399 . S
C1049 C1054 1.399 . S
C1050 C1049 1.399 . S
C1050 C1051 1.376 . S
C1051 H1038 0.930 . S
C1051 C1050 1.376 . S
C1051 C1052 1.388 . S
C1052 H1039 0.930 . S
C1052 C1051 1.388 . S
C1052 C1053 1.390 . S
C1053 C1052 1.390 . S
C1053 C1054 1.394 . S
C1053 C1059 1.465 . S
C1054 C1049 1.399 . S
C1054 C1053 1.394 . S
C1054 C1055 1.516 . S
C1055 C1054 1.516 . S
C1055 C1056 1.502 . S
C1055 C1057 1.561 . S
C1055 C1058 1.526 . S
C1056 H1040 0.959 . S
C1056 H1041 0.959 . S
C1056 H1042 0.961 . S
C1056 C1055 1.502 . S
C1057 H1043 0.960 . S
C1057 H1044 0.961 . S
C1057 H1045 0.959 . S
C1057 C1055 1.561 . S
C1058 C1055 1.526 . S
C1058 C1059 1.396 . S
C1058 C1063 1.390 . S
C1059 C1053 1.465 . S
C1059 C1058 1.396 . S
C1059 C1060 1.399 . S
C1060 H1046 0.929 . S
C1060 C1059 1.399 . S
C1060 C1061 1.385 . S
C1061 H1047 0.931 . S
C1061 C1060 1.385 . S
C1061 C1062 1.389 . S
C1062 C1061 1.389 . S
C1062 C1063 1.387 . S
C1063 H1048 0.930 . S
C1063 C1058 1.390 . S
C1063 C1062 1.387 . S
C429 C215 2.041 1_565 S
C441 C266 2.153 . S
C468 C306 2.171 . S
C456 C247 1.991 . S
C495 C346 2.162 . S
C483 C151 2.047 . S
C522 C386 2.163 1_455 S
C510 C183 2.030 . S
C549 C275 2.165 . S
C537 C87 1.966 . S
C564 C119 1.978 . S
C576 C315 2.166 . S
C591 C23 2.055 . S
C603 C355 2.180 . S
C618 C55 1.992 1_655 S
C630 C395 2.175 1_655 S
C657 C272 0.556 . S
C645 C189 0.472 . S
C684 C312 0.578 . S
C672 C221 0.493 . S
C711 C352 0.559 . S
C699 C253 0.429 . S
C726 C157 0.371 . S
C738 C392 0.413 . S
C753 C61 0.499 1_655 S
C765 C263 0.522 . S
C792 C303 0.537 . S
C780 C93 0.509 1_565 S
C819 C343 0.375 . S
C807 C125 0.684 . S
C834 C29 0.616 . S
C846 C383 0.448 . S
C861 C177 2.455 . S
C873 C267 2.818 . S
C888 C209 2.447 . S
C900 C307 2.815 . S
C927 C347 2.789 . S
C915 C241 2.513 . S
C954 C387 2.814 . S
C942 C145 2.520 . S
C969 C49 2.489 1_655 S
C981 C258 2.832 . S
C1008 C298 2.802 . S
C996 C81 2.471 1_565 S
C1035 C338 2.807 . S
C1023 C113 2.545 . S
C1050 C17 2.483 . S
C1062 C378 2.816 . S
