# Generated by pormake.
# Topology ctn, (3,4)-cn, num edge types: 1
# Building blocks:
#     Node 0, Type 0, BuildingBlock: MIDCAF_clean_linker_0, # of connection points: 3
#     Node 1, Type 0, BuildingBlock: MIDCAF_clean_linker_0, # of connection points: 3
#     Node 2, Type 0, BuildingBlock: MIDCAF_clean_linker_0, # of connection points: 3
#     Node 3, Type 0, BuildingBlock: MIDCAF_clean_linker_0, # of connection points: 3
#     Node 4, Type 0, BuildingBlock: MIDCAF_clean_linker_0, # of connection points: 3
#     Node 5, Type 0, BuildingBlock: MIDCAF_clean_linker_0, # of connection points: 3
#     Node 6, Type 0, BuildingBlock: MIDCAF_clean_linker_0, # of connection points: 3
#     Node 7, Type 0, BuildingBlock: MIDCAF_clean_linker_0, # of connection points: 3
#     Node 8, Type 0, BuildingBlock: MIDCAF_clean_linker_0, # of connection points: 3
#     Node 9, Type 0, BuildingBlock: MIDCAF_clean_linker_0, # of connection points: 3
#     Node 10, Type 0, BuildingBlock: MIDCAF_clean_linker_0, # of connection points: 3
#     Node 11, Type 0, BuildingBlock: MIDCAF_clean_linker_0, # of connection points: 3
#     Node 12, Type 0, BuildingBlock: MIDCAF_clean_linker_0, # of connection points: 3
#     Node 13, Type 0, BuildingBlock: MIDCAF_clean_linker_0, # of connection points: 3
#     Node 14, Type 0, BuildingBlock: MIDCAF_clean_linker_0, # of connection points: 3
#     Node 15, Type 0, BuildingBlock: MIDCAF_clean_linker_0, # of connection points: 3
#     Node 16, Type 1, BuildingBlock: AZAVOO_clean_sbu_0, # of connection points: 4
#     Node 17, Type 1, BuildingBlock: AZAVOO_clean_sbu_0, # of connection points: 4
#     Node 18, Type 1, BuildingBlock: AZAVOO_clean_sbu_0, # of connection points: 4
#     Node 19, Type 1, BuildingBlock: AZAVOO_clean_sbu_0, # of connection points: 4
#     Node 20, Type 1, BuildingBlock: AZAVOO_clean_sbu_0, # of connection points: 4
#     Node 21, Type 1, BuildingBlock: AZAVOO_clean_sbu_0, # of connection points: 4
#     Node 22, Type 1, BuildingBlock: AZAVOO_clean_sbu_0, # of connection points: 4
#     Node 23, Type 1, BuildingBlock: AZAVOO_clean_sbu_0, # of connection points: 4
#     Node 24, Type 1, BuildingBlock: AZAVOO_clean_sbu_0, # of connection points: 4
#     Node 25, Type 1, BuildingBlock: AZAVOO_clean_sbu_0, # of connection points: 4
#     Node 26, Type 1, BuildingBlock: AZAVOO_clean_sbu_0, # of connection points: 4
#     Node 27, Type 1, BuildingBlock: AZAVOO_clean_sbu_0, # of connection points: 4
#     Edge 28, Type (0, 1), BuildingBlock: CIFDUS_clean_linker_0, # of connection points: 2
#     Edge 29, Type (0, 1), BuildingBlock: CIFDUS_clean_linker_0, # of connection points: 2
#     Edge 30, Type (0, 1), BuildingBlock: CIFDUS_clean_linker_0, # of connection points: 2
#     Edge 31, Type (0, 1), BuildingBlock: CIFDUS_clean_linker_0, # of connection points: 2
#     Edge 32, Type (0, 1), BuildingBlock: CIFDUS_clean_linker_0, # of connection points: 2
#     Edge 33, Type (0, 1), BuildingBlock: CIFDUS_clean_linker_0, # of connection points: 2
#     Edge 34, Type (0, 1), BuildingBlock: CIFDUS_clean_linker_0, # of connection points: 2
#     Edge 35, Type (0, 1), BuildingBlock: CIFDUS_clean_linker_0, # of connection points: 2
#     Edge 36, Type (0, 1), BuildingBlock: CIFDUS_clean_linker_0, # of connection points: 2
#     Edge 37, Type (0, 1), BuildingBlock: CIFDUS_clean_linker_0, # of connection points: 2
#     Edge 38, Type (0, 1), BuildingBlock: CIFDUS_clean_linker_0, # of connection points: 2
#     Edge 39, Type (0, 1), BuildingBlock: CIFDUS_clean_linker_0, # of connection points: 2
#     Edge 40, Type (0, 1), BuildingBlock: CIFDUS_clean_linker_0, # of connection points: 2
#     Edge 41, Type (0, 1), BuildingBlock: CIFDUS_clean_linker_0, # of connection points: 2
#     Edge 42, Type (0, 1), BuildingBlock: CIFDUS_clean_linker_0, # of connection points: 2
#     Edge 43, Type (0, 1), BuildingBlock: CIFDUS_clean_linker_0, # of connection points: 2
#     Edge 44, Type (0, 1), BuildingBlock: CIFDUS_clean_linker_0, # of connection points: 2
#     Edge 45, Type (0, 1), BuildingBlock: CIFDUS_clean_linker_0, # of connection points: 2
#     Edge 46, Type (0, 1), BuildingBlock: CIFDUS_clean_linker_0, # of connection points: 2
#     Edge 47, Type (0, 1), BuildingBlock: CIFDUS_clean_linker_0, # of connection points: 2
#     Edge 48, Type (0, 1), BuildingBlock: CIFDUS_clean_linker_0, # of connection points: 2
#     Edge 49, Type (0, 1), BuildingBlock: CIFDUS_clean_linker_0, # of connection points: 2
#     Edge 50, Type (0, 1), BuildingBlock: CIFDUS_clean_linker_0, # of connection points: 2
#     Edge 51, Type (0, 1), BuildingBlock: CIFDUS_clean_linker_0, # of connection points: 2
#     Edge 52, Type (0, 1), BuildingBlock: CIFDUS_clean_linker_0, # of connection points: 2
#     Edge 53, Type (0, 1), BuildingBlock: CIFDUS_clean_linker_0, # of connection points: 2
#     Edge 54, Type (0, 1), BuildingBlock: CIFDUS_clean_linker_0, # of connection points: 2
#     Edge 55, Type (0, 1), BuildingBlock: CIFDUS_clean_linker_0, # of connection points: 2
#     Edge 56, Type (0, 1), BuildingBlock: CIFDUS_clean_linker_0, # of connection points: 2
#     Edge 57, Type (0, 1), BuildingBlock: CIFDUS_clean_linker_0, # of connection points: 2
#     Edge 58, Type (0, 1), BuildingBlock: CIFDUS_clean_linker_0, # of connection points: 2
#     Edge 59, Type (0, 1), BuildingBlock: CIFDUS_clean_linker_0, # of connection points: 2
#     Edge 60, Type (0, 1), BuildingBlock: CIFDUS_clean_linker_0, # of connection points: 2
#     Edge 61, Type (0, 1), BuildingBlock: CIFDUS_clean_linker_0, # of connection points: 2
#     Edge 62, Type (0, 1), BuildingBlock: CIFDUS_clean_linker_0, # of connection points: 2
#     Edge 63, Type (0, 1), BuildingBlock: CIFDUS_clean_linker_0, # of connection points: 2
#     Edge 64, Type (0, 1), BuildingBlock: CIFDUS_clean_linker_0, # of connection points: 2
#     Edge 65, Type (0, 1), BuildingBlock: CIFDUS_clean_linker_0, # of connection points: 2
#     Edge 66, Type (0, 1), BuildingBlock: CIFDUS_clean_linker_0, # of connection points: 2
#     Edge 67, Type (0, 1), BuildingBlock: CIFDUS_clean_linker_0, # of connection points: 2
#     Edge 68, Type (0, 1), BuildingBlock: CIFDUS_clean_linker_0, # of connection points: 2
#     Edge 69, Type (0, 1), BuildingBlock: CIFDUS_clean_linker_0, # of connection points: 2
#     Edge 70, Type (0, 1), BuildingBlock: CIFDUS_clean_linker_0, # of connection points: 2
#     Edge 71, Type (0, 1), BuildingBlock: CIFDUS_clean_linker_0, # of connection points: 2
#     Edge 72, Type (0, 1), BuildingBlock: CIFDUS_clean_linker_0, # of connection points: 2
#     Edge 73, Type (0, 1), BuildingBlock: CIFDUS_clean_linker_0, # of connection points: 2
#     Edge 74, Type (0, 1), BuildingBlock: CIFDUS_clean_linker_0, # of connection points: 2
#     Edge 75, Type (0, 1), BuildingBlock: CIFDUS_clean_linker_0, # of connection points: 2
# Relax obj value: 0.002
# Max RMSD: 0.042
# Mean RMSD: 0.024
data_MOF--net-ctn--node1-AZAVOO_clean_sbu_0--node2-MIDCAF_clean_linker_0--edge1-CIFDUS_clean_linker_0
_symmetry_space_group_name_H-M    P1
_symmetry_Int_Tables_number       1
_symmetry_cell_setting            triclinic
loop_
_symmetry_equiv_pos_as_xyz
'x, y, z'
_cell_length_a     59.375783
_cell_length_b     60.38332
_cell_length_c     60.359281
_cell_angle_alpha  90.103699
_cell_angle_beta   92.727251
_cell_angle_gamma 93.162322
loop_
_atom_site_label
_atom_site_type_symbol
_atom_site_fract_x
_atom_site_fract_y
_atom_site_fract_z
_atom_type_partial_charge
C0 C 0.98108 0.03828 0.07348 0.0
C1 C 0.98121 0.01985 0.08767 0.0
C2 C 0.99582 0.0029 0.08347 0.0
C3 C 0.01028 0.0046 0.06582 0.0
H4 H 0.07055 0.9822 0.04513 0.0
H5 H 0.10386 0.96045 0.04508 0.0
H6 H 0.12285 0.99103 0.98363 0.0
H7 H 0.08942 0.01283 0.98349 0.0
H8 H 0.05745 0.05273 0.96262 0.0
H9 H 0.05757 0.08643 0.94037 0.0
H10 H 0.02349 0.11942 0.9918 0.0
H11 H 0.02226 0.08556 0.0132 0.0
H12 H 0.99502 0.05459 0.04553 0.0
H13 H 0.97035 0.05182 0.07638 0.0
H14 H 0.99613 0.98831 0.09386 0.0
H15 H 0.02146 0.99136 0.06324 0.0
N16 N 0.04301 0.01135 0.03165 0.0
N17 N 0.05673 0.0318 0.0016 0.0
N18 N 0.02542 0.04335 0.01986 0.0
C19 C 0.05821 0.01422 0.01556 0.0
C20 C 0.04037 0.04643 0.00369 0.0
C21 C 0.02645 0.02579 0.03381 0.0
C22 C 0.07732 0.99946 0.01441 0.0
C23 C 0.08164 0.9842 0.03146 0.0
C24 C 0.10083 0.9718 0.03152 0.0
C25 C 0.11608 0.97422 0.01448 0.0
C26 C 0.11136 0.98878 0.99696 0.0
C27 C 0.09223 0.00134 0.99696 0.0
C28 C 0.03981 0.06646 0.98964 0.0
C29 C 0.0498 0.06717 0.969 0.0
C30 C 0.04998 0.08656 0.95632 0.0
C31 C 0.04054 0.1058 0.96419 0.0
C32 C 0.03044 0.1049 0.98482 0.0
C33 C 0.02987 0.08545 0.99725 0.0
C34 C 0.01041 0.02326 0.0519 0.0
C35 C 0.99541 0.03993 0.05581 0.0
C36 C 0.2773 0.65777 0.2503 0.0
C37 C 0.25613 0.65425 0.2391 0.0
C38 C 0.24707 0.67165 0.22681 0.0
C39 C 0.25917 0.69211 0.22546 0.0
H40 H 0.27026 0.74342 0.18208 0.0
H41 H 0.26333 0.76676 0.15006 0.0
H42 H 0.30891 0.81825 0.17883 0.0
H43 H 0.31619 0.79476 0.21121 0.0
H44 H 0.33962 0.78193 0.26461 0.0
H45 H 0.37048 0.78895 0.29273 0.0
H46 H 0.38309 0.71926 0.2933 0.0
H47 H 0.35199 0.71209 0.26579 0.0
H48 H 0.30559 0.68034 0.25795 0.0
H49 H 0.28456 0.6447 0.2601 0.0
H50 H 0.23081 0.66932 0.21795 0.0
H51 H 0.2518 0.70515 0.21571 0.0
N52 N 0.2876 0.73214 0.21937 0.0
N53 N 0.31755 0.75665 0.23203 0.0
N54 N 0.31161 0.722 0.24903 0.0
C55 C 0.29958 0.75186 0.21765 0.0
C56 C 0.32365 0.7417 0.24772 0.0
C57 C 0.29343 0.71718 0.23506 0.0
C58 C 0.29396 0.7671 0.19921 0.0
C59 C 0.27873 0.75976 0.18183 0.0
C60 C 0.2748 0.77308 0.16339 0.0
C61 C 0.28578 0.79416 0.16193 0.0
C62 C 0.30027 0.80202 0.17962 0.0
C63 C 0.30446 0.78853 0.19806 0.0
C64 C 0.34335 0.74646 0.26317 0.0
C65 C 0.34915 0.76818 0.2706 0.0
C66 C 0.36671 0.77219 0.28665 0.0
C67 C 0.37909 0.75462 0.29501 0.0
C68 C 0.37386 0.73307 0.28694 0.0
C69 C 0.356 0.72898 0.27134 0.0
C70 C 0.28043 0.69563 0.23661 0.0
C71 C 0.28928 0.67825 0.24916 0.0
C72 C 0.00867 0.42691 0.00568 0.0
C73 C 0.98977 0.41834 0.99293 0.0
C74 C 0.96963 0.42952 0.99292 0.0
C75 C 0.9682 0.4485 0.00598 0.0
H76 H 0.93127 0.50474 0.01454 0.0
H77 H 0.90197 0.53122 0.00875 0.0
H78 H 0.9246 0.56468 0.06975 0.0
H79 H 0.95401 0.53859 0.07546 0.0
H80 H 0.98929 0.5041 0.11055 0.0
H81 H 0.01645 0.50758 0.14204 0.0
H82 H 0.07062 0.49787 0.09801 0.0
H83 H 0.04307 0.49249 0.06714 0.0
H84 H 0.02189 0.45151 0.02904 0.0
H85 H 0.02435 0.41853 0.00615 0.0
H86 H 0.95486 0.42335 0.9831 0.0
H87 H 0.95226 0.4564 0.006 0.0
N88 N 0.96673 0.48821 0.03321 0.0
N89 N 0.97952 0.50756 0.06556 0.0
N90 N 1.00008 0.47863 0.05237 0.0
C91 C 0.96414 0.5046 0.04822 0.0
C92 C 0.99753 0.4947 0.06765 0.0
C93 C 0.98464 0.47513 0.03521 0.0
C94 C 0.94522 0.5196 0.04538 0.0
C95 C 0.92994 0.51766 0.02681 0.0
C96 C 0.91305 0.53277 0.02351 0.0
C97 C 0.9111 0.55018 0.03867 0.0
C98 C 0.92592 0.5517 0.05754 0.0
C99 C 0.94275 0.53663 0.06086 0.0
C100 C 0.01412 0.49793 0.0865 0.0
C101 C 0.00704 0.50268 0.10775 0.0
C102 C 0.02272 0.50484 0.12577 0.0
C103 C 0.04597 0.50298 0.12284 0.0
C104 C 0.05294 0.49877 0.10129 0.0
C105 C 0.03717 0.49591 0.08345 0.0
C106 C 0.98681 0.45651 0.01954 0.0
C107 C 0.00718 0.44572 0.01893 0.0
C108 C 0.72445 0.78438 0.13537 0.0
C109 C 0.71472 0.76267 0.13607 0.0
C110 C 0.70309 0.75589 0.15485 0.0
C111 C 0.70131 0.77054 0.1726 0.0
H112 H 0.67359 0.77666 0.23331 0.0
H113 H 0.65018 0.76666 0.26418 0.0
H114 H 0.66038 0.83321 0.29033 0.0
H115 H 0.684 0.84339 0.25941 0.0
H116 H 0.73073 0.87027 0.2445 0.0
H117 H 0.75995 0.90025 0.24861 0.0
H118 H 0.78396 0.88401 0.18448 0.0
H119 H 0.75511 0.85398 0.18038 0.0
H120 H 0.7308 0.81546 0.15209 0.0
H121 H 0.73376 0.79 0.12123 0.0
H122 H 0.69532 0.73928 0.15577 0.0
H123 H 0.69236 0.76475 0.1869 0.0
N124 N 0.69637 0.80273 0.20782 0.0
N125 N 0.70991 0.83512 0.22678 0.0
N126 N 0.72435 0.8261 0.19264 0.0
C127 C 0.69587 0.81653 0.2256 0.0
C128 C 0.72425 0.84001 0.21034 0.0
C129 C 0.71048 0.80747 0.1912 0.0
C130 C 0.68081 0.81082 0.2439 0.0
C131 C 0.6708 0.78927 0.24551 0.0
C132 C 0.65745 0.78347 0.26326 0.0
C133 C 0.65357 0.79914 0.27967 0.0
C134 C 0.66303 0.82085 0.27782 0.0
C135 C 0.67666 0.82661 0.26019 0.0
C136 C 0.74064 0.8595 0.2122 0.0
C137 C 0.74211 0.87318 0.23118 0.0
C138 C 0.7588 0.89044 0.23351 0.0
C139 C 0.7744 0.89435 0.21696 0.0
C140 C 0.77245 0.88117 0.1977 0.0
C141 C 0.75579 0.86399 0.19533 0.0
C142 C 0.71138 0.79217 0.17205 0.0
C143 C 0.72288 0.79893 0.15316 0.0
C144 C 0.03298 0.91699 0.54233 0.0
C145 C 0.0216 0.89861 0.53172 0.0
C146 C 0.01183 0.90113 0.51031 0.0
C147 C 0.0135 0.92157 0.49959 0.0
H148 H 0.98205 0.95594 0.44988 0.0
H149 H 0.95892 0.96137 0.41609 0.0
H150 H 0.99059 0.02694 0.40911 0.0
H151 H 0.01349 0.02175 0.44302 0.0
H152 H 0.0525 0.03792 0.4756 0.0
H153 H 0.08338 0.06511 0.48364 0.0
H154 H 0.114 0.0201 0.53009 0.0
H155 H 0.083 0.99244 0.52186 0.0
H156 H 0.04411 0.95129 0.53987 0.0
H157 H 0.04072 0.9154 0.55883 0.0
H158 H 0.00283 0.88723 0.50183 0.0
H159 H 0.00585 0.92282 0.48302 0.0
N160 N 0.01312 0.96526 0.48038 0.0
N161 N 0.03184 0.99978 0.47495 0.0
N162 N 0.0442 0.97686 0.50391 0.0
C163 C 0.01509 0.98448 0.46883 0.0
C164 C 0.04649 0.99616 0.4924 0.0
C165 C 0.02748 0.96134 0.49798 0.0
C166 C 0.99984 0.98832 0.44914 0.0
C167 C 0.98397 0.97162 0.4413 0.0
C168 C 0.97074 0.97468 0.42187 0.0
C169 C 0.97298 0.99454 0.40985 0.0
C170 C 0.98827 0.01153 0.41809 0.0
C171 C 0.00155 0.00845 0.43748 0.0
C172 C 0.06515 0.01291 0.4981 0.0
C173 C 0.06572 0.03369 0.48759 0.0
C174 C 0.08341 0.0494 0.49228 0.0
C175 C 0.10109 0.04482 0.50758 0.0
C176 C 0.10067 0.02405 0.51811 0.0
C177 C 0.08282 0.00829 0.5135 0.0
C178 C 0.0253 0.93993 0.5099 0.0
C179 C 0.03501 0.93744 0.53143 0.0
C180 C 0.23586 0.77175 0.82771 0.0
C181 C 0.2181 0.77881 0.84013 0.0
C182 C 0.19575 0.7723 0.83309 0.0
C183 C 0.19142 0.75813 0.81479 0.0
H184 H 0.14946 0.74588 0.7548 0.0
H185 H 0.11714 0.74666 0.72852 0.0
H186 H 0.13752 0.68695 0.69743 0.0
H187 H 0.17014 0.68635 0.72336 0.0
H188 H 0.22187 0.67169 0.73396 0.0
H189 H 0.25061 0.64464 0.73082 0.0
H190 H 0.27918 0.66407 0.79562 0.0
H191 H 0.25111 0.69151 0.7984 0.0
H192 H 0.24571 0.75154 0.80111 0.0
H193 H 0.25324 0.77696 0.83215 0.0
H194 H 0.18164 0.77729 0.84229 0.0
H195 H 0.17412 0.75271 0.81021 0.0
N196 N 0.1864 0.73215 0.77251 0.0
N197 N 0.19849 0.7007 0.75446 0.0
N198 N 0.22066 0.71716 0.78381 0.0
C199 C 0.18292 0.71624 0.75652 0.0
C200 C 0.21736 0.701 0.76817 0.0
C201 C 0.20533 0.73275 0.78608 0.0
C202 C 0.16258 0.71612 0.74118 0.0
C203 C 0.14707 0.73284 0.74243 0.0
C204 C 0.12841 0.73323 0.72743 0.0
C205 C 0.12477 0.71692 0.7108 0.0
C206 C 0.14002 0.69997 0.70981 0.0
C207 C 0.15869 0.69958 0.72479 0.0
C208 C 0.23424 0.68393 0.76635 0.0
C209 C 0.23427 0.67015 0.74754 0.0
C210 C 0.2507 0.65453 0.74581 0.0
C211 C 0.26734 0.65219 0.76293 0.0
C212 C 0.26697 0.66569 0.78189 0.0
C213 C 0.25074 0.6814 0.78353 0.0
C214 C 0.20937 0.74992 0.80348 0.0
C215 C 0.23157 0.75726 0.80982 0.0
C216 C 0.98343 0.58919 0.47531 0.0
C217 C 0.97923 0.58814 0.49805 0.0
C218 C 0.97037 0.56799 0.50665 0.0
C219 C 0.96587 0.54944 0.49286 0.0
H220 H 0.91738 0.49591 0.48023 0.0
H221 H 0.8888 0.46697 0.48853 0.0
H222 H 0.90959 0.42761 0.43411 0.0
H223 H 0.93834 0.45633 0.42587 0.0
H224 H 0.98244 0.47423 0.39869 0.0
H225 H 0.00546 0.47229 0.36616 0.0
H226 H 0.02083 0.54291 0.37062 0.0
H227 H 0.99808 0.54494 0.4029 0.0
H228 H 0.98285 0.57203 0.44426 0.0
H229 H 0.98966 0.60449 0.46787 0.0
H230 H 0.9672 0.56638 0.5241 0.0
H231 H 0.95922 0.53414 0.50001 0.0
N232 N 0.95124 0.51423 0.46068 0.0
N233 N 0.95979 0.49467 0.42874 0.0
N234 N 0.97829 0.52919 0.43706 0.0
C235 C 0.94764 0.49615 0.44722 0.0
C236 C 0.97514 0.51116 0.42356 0.0
C237 C 0.96655 0.5308 0.45568 0.0
C238 C 0.93029 0.47848 0.4524 0.0
C239 C 0.91593 0.48109 0.47002 0.0
C240 C 0.8994 0.46458 0.4747 0.0
C241 C 0.89693 0.44501 0.46198 0.0
C242 C 0.91123 0.4424 0.44437 0.0
C243 C 0.92768 0.45894 0.4396 0.0
C244 C 0.98842 0.50974 0.40344 0.0
C245 C 0.99064 0.48935 0.39264 0.0
C246 C 0.00389 0.4882 0.3741 0.0
C247 C 0.01483 0.50746 0.36581 0.0
C248 C 0.01237 0.52783 0.37646 0.0
C249 C 0.99943 0.52894 0.39508 0.0
C250 C 0.9705 0.55051 0.47026 0.0
C251 C 0.97934 0.57058 0.46167 0.0
C252 C 0.85942 0.75603 0.73295 0.0
C253 C 0.85627 0.76654 0.71235 0.0
C254 C 0.8384 0.78066 0.70925 0.0
C255 C 0.82378 0.784 0.72619 0.0
H256 H 0.7661 0.81601 0.73924 0.0
H257 H 0.74191 0.84705 0.73473 0.0
H258 H 0.73754 0.85118 0.80592 0.0
H259 H 0.76078 0.81933 0.81027 0.0
H260 H 0.76751 0.77125 0.83326 0.0
H261 H 0.7637 0.74743 0.86515 0.0
H262 H 0.81535 0.70672 0.84191 0.0
H263 H 0.8195 0.73095 0.80963 0.0
H264 H 0.84727 0.75074 0.76555 0.0
H265 H 0.87301 0.74497 0.73572 0.0
H266 H 0.8357 0.78915 0.69363 0.0
H267 H 0.81014 0.79493 0.723 0.0
N268 N 0.79587 0.79326 0.76201 0.0
N269 N 0.78087 0.78419 0.79614 0.0
N270 N 0.81006 0.76386 0.78283 0.0
C271 C 0.78108 0.79711 0.77781 0.0
C272 C 0.79515 0.76744 0.79879 0.0
C273 C 0.81052 0.77682 0.76438 0.0
C274 C 0.76553 0.81535 0.77512 0.0
C275 C 0.75985 0.82347 0.75391 0.0
C276 C 0.74604 0.84137 0.75135 0.0
C277 C 0.73793 0.85192 0.76997 0.0
C278 C 0.74317 0.84337 0.79116 0.0
C279 C 0.75667 0.82518 0.79369 0.0
C280 C 0.79374 0.75302 0.81866 0.0
C281 C 0.77814 0.75727 0.83476 0.0
C282 C 0.7758 0.74347 0.85306 0.0
C283 C 0.78894 0.72495 0.85589 0.0
C284 C 0.80495 0.72086 0.84015 0.0
C285 C 0.80728 0.73472 0.82165 0.0
C286 C 0.82652 0.7732 0.7467 0.0
C287 C 0.84458 0.75922 0.74994 0.0
C288 C 0.35367 0.23878 0.24853 0.0
C289 C 0.36092 0.2547 0.23305 0.0
C290 C 0.35144 0.27549 0.23286 0.0
C291 C 0.33455 0.28002 0.24731 0.0
H292 H 0.27288 0.3137 0.24766 0.0
H293 H 0.25011 0.34551 0.24085 0.0
H294 H 0.23093 0.34388 0.30908 0.0
H295 H 0.25279 0.31143 0.31552 0.0
H296 H 0.25638 0.26604 0.33948 0.0
H297 H 0.24628 0.24236 0.37006 0.0
H298 H 0.29213 0.19414 0.3492 0.0
H299 H 0.30281 0.21832 0.31843 0.0
H300 H 0.33153 0.23059 0.27461 0.0
H301 H 0.36081 0.22265 0.24917 0.0
H302 H 0.35653 0.28801 0.22098 0.0
H303 H 0.32733 0.2961 0.2464 0.0
N304 N 0.29564 0.28633 0.27317 0.0
N305 N 0.27394 0.27694 0.30348 0.0
N306 N 0.30322 0.25465 0.29421 0.0
C307 C 0.27849 0.29067 0.28634 0.0
C308 C 0.2861 0.25888 0.30754 0.0
C309 C 0.30818 0.26842 0.27704 0.0
C310 C 0.26475 0.3101 0.28215 0.0
C311 C 0.26376 0.32012 0.26118 0.0
C312 C 0.25074 0.33844 0.25732 0.0
C313 C 0.23872 0.34745 0.27444 0.0
C314 C 0.2396 0.33724 0.29537 0.0
C315 C 0.25233 0.31871 0.29913 0.0
C316 C 0.28038 0.2441 0.32633 0.0
C317 C 0.26435 0.25038 0.34122 0.0
C318 C 0.25838 0.23667 0.35875 0.0
C319 C 0.26811 0.21616 0.36191 0.0
C320 C 0.28435 0.20986 0.34723 0.0
C321 C 0.29042 0.2237 0.32959 0.0
C322 C 0.32687 0.26392 0.26246 0.0
C323 C 0.33693 0.24337 0.26314 0.0
C324 C 0.51641 0.92346 0.50944 0.0
C325 C 0.49973 0.91729 0.49296 0.0
C326 C 0.47946 0.92831 0.49202 0.0
C327 C 0.47567 0.94467 0.50763 0.0
H328 H 0.42872 0.98828 0.52624 0.0
H329 H 0.39307 0.00653 0.52604 0.0
H330 H 0.41554 0.04168 0.58616 0.0
H331 H 0.45089 0.02327 0.58668 0.0
H332 H 0.50667 0.02115 0.60225 0.0
H333 H 0.53395 0.02601 0.63394 0.0
H334 H 0.55294 0.95863 0.62605 0.0
H335 H 0.52624 0.95385 0.59402 0.0
H336 H 0.52569 0.94368 0.53782 0.0
H337 H 0.53209 0.91511 0.51078 0.0
H338 H 0.46637 0.92405 0.47937 0.0
H339 H 0.4597 0.95253 0.50664 0.0
N340 N 0.46837 0.97785 0.54107 0.0
N341 N 0.47924 0.9956 0.57483 0.0
N342 N 0.50234 0.96967 0.5599 0.0
C343 C 0.46408 0.99244 0.55735 0.0
C344 C 0.49834 0.98421 0.57624 0.0
C345 C 0.48755 0.96651 0.54216 0.0
C346 C 0.44273 0.00419 0.55654 0.0
C347 C 0.42611 -7e-05 0.53941 0.0
C348 C 0.40567 0.01045 0.53923 0.0
C349 C 0.40137 0.02543 0.55617 0.0
C350 C 0.41811 0.02991 0.57309 0.0
C351 C 0.4385 0.01943 0.57328 0.0
C352 C 0.51441 0.98715 0.59562 0.0
C353 C 0.51665 0.00737 0.60731 0.0
C354 C 0.53222 0.01019 0.62536 0.0
C355 C 0.54535 0.99265 0.63236 0.0
C356 C 0.54285 0.97232 0.62097 0.0
C357 C 0.5277 0.96967 0.60261 0.0
C358 C 0.49205 0.95029 0.52462 0.0
C359 C 0.51261 0.93973 0.52509 0.0
C360 C 0.23028 0.27815 0.63992 0.0
C361 C 0.21885 0.25727 0.6414 0.0
C362 C 0.20593 0.25253 0.6599 0.0
C363 C 0.20442 0.2685 0.67655 0.0
H364 H 0.16665 0.28628 0.72925 0.0
H365 H 0.1376 0.28316 0.75623 0.0
H366 H 0.15912 0.34803 0.78222 0.0
H367 H 0.1887 0.35094 0.75559 0.0
H368 H 0.2376 0.3722 0.74186 0.0
H369 H 0.26933 0.39976 0.74576 0.0
H370 H 0.2987 0.37198 0.68858 0.0
H371 H 0.26744 0.34447 0.68473 0.0
H372 H 0.23822 0.30981 0.65498 0.0
H373 H 0.24057 0.28216 0.62597 0.0
H374 H 0.19691 0.23655 0.66138 0.0
H375 H 0.19439 0.26439 0.69065 0.0
N376 N 0.19888 0.30487 0.70783 0.0
N377 N 0.21473 0.33706 0.72573 0.0
N378 N 0.23156 0.32286 0.69479 0.0
C379 C 0.19833 0.32036 0.72417 0.0
C380 C 0.23146 0.33836 0.71108 0.0
C381 C 0.2154 0.30609 0.69301 0.0
C382 C 0.18015 0.31883 0.74026 0.0
C383 C 0.1652 0.29996 0.74064 0.0
C384 C 0.14837 0.29822 0.75604 0.0
C385 C 0.14594 0.31535 0.77141 0.0
C386 C 0.16069 0.33438 0.77083 0.0
C387 C 0.17762 0.33608 0.75549 0.0
C388 C 0.24996 0.35595 0.71307 0.0
C389 C 0.25078 0.37202 0.73007 0.0
C390 C 0.26891 0.38787 0.73226 0.0
C391 C 0.28662 0.3879 0.7176 0.0
C392 C 0.28553 0.37215 0.70039 0.0
C393 C 0.26747 0.35642 0.69813 0.0
C394 C 0.21612 0.28932 0.67516 0.0
C395 C 0.22904 0.29394 0.65664 0.0
C396 C 0.76502 0.17653 0.77121 0.0
C397 C 0.74825 0.16953 0.75512 0.0
C398 C 0.74714 0.18056 0.73466 0.0
C399 C 0.76274 0.19797 0.73021 0.0
H400 H 0.78403 0.23909 0.68057 0.0
H401 H 0.77811 0.26031 0.6468 0.0
H402 H 0.82413 0.31279 0.67301 0.0
H403 H 0.83032 0.2914 0.70707 0.0
H404 H 0.86671 0.27398 0.74717 0.0
H405 H 0.90025 0.27925 0.7721 0.0
H406 H 0.87753 0.22263 0.81036 0.0
H407 H 0.844 0.21763 0.78602 0.0
H408 H 0.79367 0.19855 0.77936 0.0
H409 H 0.76642 0.16819 0.78704 0.0
H410 H 0.73427 0.17562 0.72202 0.0
H411 H 0.76153 0.20591 0.71416 0.0
N412 N 0.7948 0.23455 0.72221 0.0
N413 N 0.82917 0.2544 0.73107 0.0
N414 N 0.81583 0.22617 0.75456 0.0
C415 C 0.81061 0.25065 0.71719 0.0
C416 C 0.83194 0.2421 0.74977 0.0
C417 C 0.79719 0.22233 0.74092 0.0
C418 C 0.80762 0.26357 0.69654 0.0
C419 C 0.79297 0.25512 0.6792 0.0
C420 C 0.78969 0.26719 0.65977 0.0
C421 C 0.80076 0.28811 0.65728 0.0
C422 C 0.81539 0.29669 0.67457 0.0
C423 C 0.81898 0.28441 0.69397 0.0
C424 C 0.85249 0.24548 0.76463 0.0
C425 C 0.86885 0.26268 0.76093 0.0
C426 C 0.88815 0.26564 0.77512 0.0
C427 C 0.89149 0.25147 0.79331 0.0
C428 C 0.87528 0.23413 0.79678 0.0
C429 C 0.85604 0.23121 0.7827 0.0
C430 C 0.77994 0.20461 0.74607 0.0
C431 C 0.78075 0.19383 0.76671 0.0
C432 C 0.48962 0.5337 0.58125 0.0
C433 C 0.49137 0.51542 0.59547 0.0
C434 C 0.50595 0.49879 0.59017 0.0
C435 C 0.51871 0.50061 0.57126 0.0
H436 H 0.56565 0.46886 0.534 0.0
H437 H 0.59541 0.44361 0.52763 0.0
H438 H 0.62446 0.48972 0.48094 0.0
H439 H 0.59483 0.51505 0.48724 0.0
H440 H 0.55606 0.54978 0.46449 0.0
H441 H 0.55358 0.58339 0.44237 0.0
H442 H 0.52354 0.6158 0.49676 0.0
H443 H 0.52499 0.582 0.51826 0.0
H444 H 0.50064 0.55004 0.55209 0.0
H445 H 0.4789 0.54703 0.58499 0.0
H446 H 0.50752 0.48437 0.60065 0.0
H447 H 0.52991 0.48761 0.56778 0.0
N448 N 0.54682 0.50683 0.53312 0.0
N449 N 0.55794 0.52797 0.50248 0.0
N450 N 0.52947 0.53987 0.52449 0.0
C451 C 0.56021 0.50983 0.51555 0.0
C452 C 0.54258 0.54304 0.50685 0.0
C453 C 0.53135 0.5218 0.53767 0.0
C454 C 0.5778 0.49404 0.51117 0.0
C455 C 0.57832 0.47363 0.52232 0.0
C456 C 0.5953 0.45909 0.51859 0.0
C457 C 0.61227 0.46471 0.5038 0.0
C458 C 0.61172 0.48504 0.49258 0.0
C459 C 0.59463 0.49948 0.49612 0.0
C460 C 0.54072 0.56321 0.49312 0.0
C461 C 0.5488 0.56407 0.47162 0.0
C462 C 0.54747 0.5834 0.45899 0.0
C463 C 0.53835 0.60242 0.4677 0.0
C464 C 0.5302 0.60142 0.48921 0.0
C465 C 0.53118 0.58202 0.50167 0.0
C466 C 0.51719 0.51912 0.55724 0.0
C467 C 0.5023 0.53551 0.56239 0.0
C468 C 0.54344 0.41396 0.0288 0.0
C469 C 0.53367 0.3953 0.01733 0.0
C470 C 0.52447 0.39787 0.9957 0.0
C471 C 0.52503 0.41866 0.98565 0.0
H472 H 0.49049 0.45222 0.93821 0.0
H473 H 0.4684 0.45586 0.90356 0.0
H474 H 0.49527 0.52332 0.8972 0.0
H475 H 0.51733 0.51988 0.93205 0.0
H476 H 0.54777 0.53981 0.98262 0.0
H477 H 0.57738 0.56892 0.98845 0.0
H478 H 0.6269 0.51919 0.99647 0.0
H479 H 0.59673 0.49014 0.9923 0.0
H480 H 0.55221 0.44892 0.02764 0.0
H481 H 0.55071 0.41233 0.04548 0.0
H482 H 0.51673 0.38374 0.98657 0.0
H483 H 0.5178 0.41996 0.96892 0.0
N484 N 0.52091 0.46288 0.96851 0.0
N485 N 0.53697 0.49879 0.96426 0.0
N486 N 0.55165 0.47552 0.99195 0.0
C487 C 0.5213 0.48259 0.9577 0.0
C488 C 0.55219 0.49537 0.98129 0.0
C489 C 0.53582 0.45925 0.98573 0.0
C490 C 0.50597 0.48567 0.93788 0.0
C491 C 0.49155 0.46796 0.92965 0.0
C492 C 0.47891 0.46999 0.90971 0.0
C493 C 0.48026 0.4898 0.89754 0.0
C494 C 0.49377 0.50788 0.90627 0.0
C495 C 0.50653 0.50584 0.92619 0.0
C496 C 0.56999 0.51278 0.98696 0.0
C497 C 0.56497 0.53517 0.98596 0.0
C498 C 0.58207 0.55185 0.98905 0.0
C499 C 0.60481 0.5466 0.99247 0.0
C500 C 0.60968 0.52405 0.99411 0.0
C501 C 0.5924 0.50733 0.99164 0.0
C502 C 0.53516 0.43736 0.99684 0.0
C503 C 0.54441 0.43481 0.01854 0.0
C504 C 0.73758 0.23046 0.34264 0.0
C505 C 0.72783 0.25095 0.34518 0.0
C506 C 0.71089 0.25695 0.32959 0.0
C507 C 0.70418 0.2429 0.31167 0.0
H508 H 0.65378 0.23013 0.26183 0.0
H509 H 0.62147 0.23695 0.2368 0.0
H510 H 0.63587 0.18017 0.19733 0.0
H511 H 0.66833 0.1735 0.222 0.0
H512 H 0.7092 0.14365 0.2367 0.0
H513 H 0.73462 0.11468 0.22839 0.0
H514 H 0.783 0.14144 0.27856 0.0
H515 H 0.75746 0.16982 0.28734 0.0
H516 H 0.73907 0.20098 0.32342 0.0
H517 H 0.75023 0.22499 0.35462 0.0
H518 H 0.7031 0.27266 0.33099 0.0
H519 H 0.69131 0.24811 0.29979 0.0
N520 N 0.68952 0.21115 0.27633 0.0
N521 N 0.69745 0.18059 0.25441 0.0
N522 N 0.72126 0.1909 0.28515 0.0
C523 C 0.68402 0.19753 0.25867 0.0
C524 C 0.71614 0.17719 0.26759 0.0
C525 C 0.7081 0.20786 0.2897 0.0
C526 C 0.66383 0.20132 0.24392 0.0
C527 C 0.65007 0.21904 0.24785 0.0
C528 C 0.63143 0.2229 0.23357 0.0
C529 C 0.62615 0.20918 0.215 0.0
C530 C 0.63968 0.19128 0.21128 0.0
C531 C 0.65827 0.1874 0.22554 0.0
C532 C 0.73123 0.15915 0.26268 0.0
C533 C 0.72521 0.14329 0.24604 0.0
C534 C 0.73985 0.12671 0.2412 0.0
C535 C 0.76091 0.12567 0.25279 0.0
C536 C 0.76678 0.14142 0.26955 0.0
C537 C 0.75213 0.15787 0.27448 0.0
C538 C 0.71435 0.22263 0.30895 0.0
C539 C 0.73103 0.21657 0.32475 0.0
C540 C 0.49378 0.09275 0.98821 0.0
C541 C 0.48664 0.0933 0.01011 0.0
C542 C 0.47678 0.07371 0.01903 0.0
C543 C 0.47407 0.05423 0.00638 0.0
H544 H 0.42616 0.00103 0.99038 0.0
H545 H 0.39605 0.97316 0.99685 0.0
H546 H 0.4229 0.92997 0.94874 0.0
H547 H 0.45331 0.95765 0.94244 0.0
H548 H 0.49508 0.97743 0.91267 0.0
H549 H 0.52586 0.9705 0.88828 0.0
H550 H 0.56553 0.02568 0.91822 0.0
H551 H 0.53518 0.03269 0.94235 0.0
H552 H 0.49738 0.07329 0.95904 0.0
H553 H 0.50089 0.10751 0.98045 0.0
H554 H 0.47146 0.07322 0.03593 0.0
H555 H 0.46658 0.03941 0.01376 0.0
N556 N 0.46273 0.01752 0.97456 0.0
N557 N 0.47714 0.99462 0.94772 0.0
N558 N 0.49554 0.02903 0.95676 0.0
C559 C 0.46114 0.99836 0.96255 0.0
C560 C 0.49446 0.00989 0.94482 0.0
C561 C 0.47982 0.03296 0.97163 0.0
C562 C 0.44233 0.98161 0.96595 0.0
C563 C 0.42569 0.98563 0.9811 0.0
C564 C 0.40828 0.9697 0.98473 0.0
C565 C 0.40708 0.94932 0.97336 0.0
C566 C 0.42351 0.94539 0.958 0.0
C567 C 0.44091 0.96134 0.95432 0.0
C568 C 0.51262 0.0056 0.92953 0.0
C569 C 0.51037 0.98808 0.91402 0.0
C570 C 0.52793 0.98414 0.90001 0.0
C571 C 0.54814 0.99742 0.90152 0.0
C572 C 0.55028 0.01496 0.91691 0.0
C573 C 0.53275 0.01905 0.93065 0.0
C574 C 0.48166 0.05372 0.98473 0.0
C575 C 0.49158 0.07315 0.97579 0.0
Mg576 Mg 0.24458 0.85392 0.00326 0.0
O577 O 0.27833 0.87411 0.99898 0.0
O578 O 0.30545 0.84984 0.00164 0.0
Mg579 Mg 0.29004 0.81515 0.00814 0.0
C580 C 0.29912 0.86954 0.99871 0.0
C581 C 0.22107 0.89812 0.00585 0.0
O582 O 0.23274 0.8979 0.02487 0.0
O583 O 0.24592 0.83989 0.96798 0.0
O584 O 0.27258 0.81546 0.9735 0.0
O585 O 0.24804 0.85763 0.04043 0.0
O586 O 0.2611 0.83014 0.0218 0.0
C587 C 0.25788 0.8246 0.96093 0.0
C588 C 0.25893 0.83967 0.04055 0.0
O589 O 0.22358 0.88285 0.99178 0.0
Mg590 Mg 0.16271 0.50644 0.26725 0.0
O591 O 0.14391 0.50495 0.23303 0.0
O592 O 0.16986 0.5103 0.20755 0.0
Mg593 Mg 0.20433 0.51826 0.22517 0.0
C594 C 0.1495 0.50627 0.21288 0.0
C595 C 0.1136 0.50199 0.28185 0.0
O596 O 0.11333 0.51929 0.26869 0.0
O597 O 0.17738 0.47252 0.26113 0.0
O598 O 0.20401 0.48253 0.23754 0.0
O599 O 0.15892 0.54321 0.26937 0.0
O600 O 0.18776 0.52782 0.25508 0.0
C601 C 0.19403 0.46796 0.2495 0.0
C602 C 0.17782 0.54553 0.25958 0.0
O603 O 0.13158 0.49149 0.28391 0.0
Mg604 Mg 0.76484 0.65258 0.01725 0.0
O605 O 0.73184 0.63034 0.01394 0.0
O606 O 0.70367 0.65327 0.00912 0.0
Mg607 Mg 0.71783 0.68916 0.01071 0.0
C608 C 0.71087 0.63378 0.01076 0.0
C609 C 0.80732 0.62774 0.01803 0.0
O610 O 0.81346 0.64825 0.02385 0.0
O611 O 0.76315 0.66018 0.97998 0.0
O612 O 0.73498 0.68336 0.97806 0.0
O613 O 0.76177 0.65491 0.05394 0.0
O614 O 0.74753 0.67847 0.02991 0.0
C615 C 0.75031 0.67295 0.96899 0.0
C616 C 0.75018 0.67218 0.05018 0.0
O617 O 0.78658 0.62302 0.01293 0.0
Mg618 Mg 0.9072 0.0221 0.2425 0.0
O619 O 0.88572 0.99003 0.23417 0.0
O620 O 0.90922 0.96349 0.2272 0.0
Mg621 Mg 0.94548 0.978 0.23184 0.0
C622 C 0.88929 0.97008 0.22885 0.0
C623 C 0.86062 0.04343 0.23989 0.0
O624 O 0.86278 0.03808 0.21902 0.0
O625 O 0.91631 0.00888 0.27719 0.0
O626 O 0.94007 0.98287 0.26895 0.0
O627 O 0.90847 0.03044 0.20632 0.0
O628 O 0.9337 0.01111 0.22455 0.0
C629 C 0.92963 0.99378 0.28305 0.0
C630 C 0.92641 0.01922 0.20605 0.0
O631 O 0.87593 0.03845 0.2542 0.0
Mg632 Mg 0.26761 0.14068 0.52853 0.0
O633 O 0.23351 0.12021 0.52456 0.0
O634 O 0.20692 0.14485 0.52011 0.0
Mg635 Mg 0.22306 0.17997 0.52043 0.0
C636 C 0.2128 0.12488 0.52176 0.0
C637 C 0.29439 0.09914 0.54098 0.0
O638 O 0.28741 0.10456 0.56049 0.0
O639 O 0.26712 0.1479 0.49137 0.0
O640 O 0.2404 0.17256 0.48817 0.0
O641 O 0.26365 0.14405 0.56523 0.0
O642 O 0.25154 0.16779 0.54033 0.0
C643 C 0.25535 0.1611 0.47976 0.0
C644 C 0.2532 0.16186 0.56076 0.0
O645 O 0.28789 0.11001 0.52406 0.0
Mg646 Mg 0.40005 0.54083 0.73624 0.0
O647 O 0.37795 0.5084 0.73298 0.0
O648 O 0.40022 0.48062 0.72695 0.0
Mg649 Mg 0.43665 0.49506 0.727 0.0
C650 C 0.38072 0.48788 0.72955 0.0
C651 C 0.35103 0.55675 0.73795 0.0
O652 O 0.3484 0.54244 0.72148 0.0
O653 O 0.4119 0.53108 0.77141 0.0
O654 O 0.43465 0.50398 0.76392 0.0
O655 O 0.39774 0.54544 0.69953 0.0
O656 O 0.4245 0.52745 0.71715 0.0
C657 C 0.42558 0.51645 0.77772 0.0
C658 C 0.41541 0.53389 0.69864 0.0
O659 O 0.37022 0.55933 0.74821 0.0
Mg660 Mg 0.74025 0.34532 0.50394 0.0
O661 O 0.7725 0.36638 0.49559 0.0
O662 O 0.80007 0.34267 0.49435 0.0
Mg663 Mg 0.7863 0.30759 0.50159 0.0
C664 C 0.79309 0.36226 0.49273 0.0
C665 C 0.69642 0.36684 0.49355 0.0
O666 O 0.69116 0.34545 0.49453 0.0
O667 O 0.73677 0.33168 0.46851 0.0
O668 O 0.76465 0.3082 0.469 0.0
O669 O 0.74872 0.34935 0.54029 0.0
O670 O 0.75962 0.32196 0.51983 0.0
C671 C 0.74803 0.31723 0.45907 0.0
C672 C 0.75997 0.33167 0.53884 0.0
O673 O 0.71713 0.37341 0.4957 0.0
Mg674 Mg 0.66737 0.01254 0.77074 0.0
O675 O 0.64653 0.01327 0.73758 0.0
O676 O 0.67062 0.02128 0.71091 0.0
Mg677 Mg 0.70652 0.02429 0.72638 0.0
C678 C 0.65064 0.01703 0.71729 0.0
C679 C 0.63946 0.99608 0.8094 0.0
O680 O 0.65967 0.00044 0.81875 0.0
O681 O 0.67928 0.97829 0.76201 0.0
O682 O 0.70398 0.98759 0.73634 0.0
O683 O 0.66554 0.04931 0.77526 0.0
O684 O 0.69224 0.03364 0.75755 0.0
C685 C 0.6941 0.97311 0.7485 0.0
C686 C 0.68326 0.05144 0.76362 0.0
O687 O 0.63679 0.99818 0.78851 0.0
Mg688 Mg 0.04054 0.26857 0.90442 0.0
O689 O 0.00512 0.2636 0.88674 0.0
O690 O 0.98167 0.25335 0.91331 0.0
Mg691 Mg 1.00093 0.25135 0.94668 0.0
C692 C 0.98533 0.258 0.89311 0.0
C693 C 0.07375 0.29762 0.87874 0.0
O694 O 0.08121 0.30012 0.89949 0.0
O695 O 0.03036 0.30117 0.91919 0.0
O696 O 0.00732 0.28921 0.94542 0.0
O697 O 0.04751 0.23303 0.89908 0.0
O698 O 0.03088 0.24556 0.92821 0.0
C699 C 0.01758 0.3049 0.93506 0.0
C700 C 0.03739 0.22893 0.91726 0.0
O701 O 0.0555 0.28603 0.87462 0.0
Mg702 Mg 0.53207 0.76493 0.40871 0.0
O703 O 0.50099 0.75957 0.38463 0.0
O704 O 0.47177 0.74886 0.40498 0.0
Mg705 Mg 0.48428 0.74497 0.44099 0.0
C706 C 0.48006 0.7541 0.38645 0.0
C707 C 0.57043 0.77545 0.37821 0.0
O708 O 0.57717 0.75884 0.3904 0.0
O709 O 0.51799 0.79675 0.42186 0.0
O710 O 0.49026 0.78277 0.4424 0.0
O711 O 0.54089 0.72979 0.40445 0.0
O712 O 0.51856 0.74088 0.42997 0.0
C713 C 0.50201 0.79923 0.43496 0.0
C714 C 0.52789 0.72482 0.42051 0.0
O715 O 0.55152 0.7833 0.38189 0.0
Mg716 Mg 0.98377 0.73358 0.59312 0.0
O717 O 0.01733 0.72641 0.61188 0.0
O718 O 0.04094 0.7171 0.58608 0.0
Mg719 Mg 0.02287 0.71698 0.55181 0.0
C720 C 0.03671 0.72071 0.60628 0.0
C721 C 0.94824 0.74732 0.62267 0.0
O722 O 0.93803 0.73918 0.60438 0.0
O723 O 0.99931 0.76682 0.5809 0.0
O724 O 0.0204 0.75472 0.55415 0.0
O725 O 0.97112 0.69809 0.59524 0.0
O726 O 0.9907 0.71166 0.56777 0.0
C727 C 0.01232 0.77051 0.56485 0.0
C728 C 0.98076 0.69475 0.57685 0.0
O729 O 0.96971 0.74879 0.62389 0.0
Mg730 Mg 0.48266 0.2399 0.1034 0.0
O731 O 0.51695 0.23251 0.12098 0.0
O732 O 0.53964 0.2247 0.0938 0.0
Mg733 Mg 0.52087 0.22622 0.06001 0.0
C734 C 0.53613 0.22724 0.11435 0.0
C735 C 0.44927 0.24432 0.13839 0.0
O736 O 0.44047 0.22992 0.12363 0.0
O737 O 0.49726 0.27395 0.09238 0.0
O738 O 0.51813 0.26375 0.06465 0.0
O739 O 0.47111 0.20404 0.10432 0.0
O740 O 0.48948 0.21923 0.07683 0.0
C741 C 0.51001 0.27877 0.07638 0.0
C742 C 0.48034 0.20171 0.08556 0.0
O743 O 0.46867 0.25351 0.13519 0.0
H744 H 0.25239 0.77281 0.87035 0.0
H745 H 0.19485 0.81246 0.85796 0.0
H746 H 0.20239 0.83086 0.89395 0.0
H747 H 0.22486 0.83469 0.9296 0.0
H748 H 0.28295 0.79521 0.94025 0.0
H749 H 0.27594 0.77833 0.90395 0.0
C750 C 0.24173 0.78585 0.87515 0.0
C751 C 0.22313 0.79125 0.8613 0.0
C752 C 0.24627 0.79646 0.89563 0.0
C753 C 0.20917 0.80775 0.86833 0.0
C754 C 0.21354 0.81838 0.88887 0.0
C755 C 0.2361 0.82257 0.92388 0.0
C756 C 0.25429 0.81616 0.93785 0.0
C757 C 0.23197 0.81271 0.90278 0.0
C758 C 0.26869 0.80041 0.93007 0.0
C759 C 0.26472 0.79067 0.90925 0.0
H760 H 0.04761 0.47877 0.35848 0.0
H761 H 0.01449 0.53447 0.32978 0.0
H762 H 0.0409 0.53621 0.29996 0.0
H763 H 0.07517 0.52405 0.28391 0.0
H764 H 0.10947 0.46924 0.3131 0.0
H765 H 0.0806 0.46473 0.34057 0.0
C766 C 0.04596 0.49101 0.34546 0.0
C767 C 0.02925 0.50659 0.34642 0.0
C768 C 0.06147 0.49215 0.32851 0.0
C769 C 0.02741 0.52249 0.32955 0.0
C770 C 0.04247 0.52347 0.31248 0.0
C771 C 0.07624 0.51092 0.29609 0.0
C772 C 0.09461 0.49714 0.29653 0.0
C773 C 0.05987 0.50872 0.31209 0.0
C774 C 0.09559 0.48016 0.31241 0.0
C775 C 0.07911 0.47762 0.32819 0.0
H776 H 0.74933 0.70959 0.87203 0.0
H777 H 0.8214 0.70758 0.88366 0.0
H778 H 0.81573 0.68804 0.91868 0.0
H779 H 0.79019 0.67583 0.94816 0.0
H780 H 0.71833 0.68071 0.93696 0.0
H781 H 0.72397 0.69473 0.89966 0.0
C782 C 0.76382 0.70479 0.88218 0.0
C783 C 0.78575 0.71036 0.87544 0.0
C784 C 0.76044 0.69416 0.90247 0.0
C785 C 0.80433 0.70351 0.88848 0.0
C786 C 0.80109 0.69247 0.90858 0.0
C787 C 0.77579 0.67949 0.93732 0.0
C788 C 0.75388 0.67736 0.9453 0.0
C789 C 0.77922 0.68828 0.91606 0.0
C790 C 0.73535 0.68237 0.93121 0.0
C791 C 0.73857 0.69044 0.90991 0.0
H792 H 0.96706 0.96401 0.37682 0.0
H793 H 0.95167 0.03077 0.39371 0.0
H794 H 0.93477 0.03582 0.35641 0.0
H795 H 0.92699 0.02209 0.31808 0.0
H796 H 0.94388 0.95567 0.30139 0.0
H797 H 0.95704 0.94952 0.33963 0.0
C798 C 0.95959 0.97952 0.37251 0.0
C799 C 0.96068 0.99699 0.38803 0.0
C800 C 0.95019 0.98239 0.35101 0.0
C801 C 0.95128 0.01713 0.382 0.0
C802 C 0.94155 0.02 0.3607 0.0
C803 C 0.93318 0.00616 0.32293 0.0
C804 C 0.93456 0.98941 0.30687 0.0
C805 C 0.94129 0.00288 0.34491 0.0
C806 C 0.94281 0.9689 0.31338 0.0
C807 C 0.95037 0.96536 0.33524 0.0
H808 H 0.22899 0.21408 0.64637 0.0
H809 H 0.21372 0.26317 0.59687 0.0
H810 H 0.22125 0.23717 0.56745 0.0
H811 H 0.23504 0.20182 0.55601 0.0
H812 H 0.25168 0.15278 0.60515 0.0
H813 H 0.24054 0.17734 0.63453 0.0
C814 C 0.22695 0.21888 0.62911 0.0
C815 C 0.22096 0.24052 0.62376 0.0
C816 C 0.23168 0.20395 0.61227 0.0
C817 C 0.21857 0.24667 0.60137 0.0
C818 C 0.22284 0.23182 0.58456 0.0
C819 C 0.23591 0.19629 0.57309 0.0
C820 C 0.24421 0.17549 0.57836 0.0
C821 C 0.22986 0.2106 0.58984 0.0
C822 C 0.24538 0.16873 0.60064 0.0
C823 C 0.23906 0.18279 0.61745 0.0
H824 H 0.44815 0.52671 0.60118 0.0
H825 H 0.5064 0.50203 0.63662 0.0
H826 H 0.48717 0.50368 0.67138 0.0
H827 H 0.45516 0.51509 0.69214 0.0
H828 H 0.39765 0.54148 0.65696 0.0
H829 H 0.41536 0.53641 0.62174 0.0
C830 C 0.45667 0.52171 0.61651 0.0
C831 C 0.47878 0.51441 0.61624 0.0
C832 C 0.44571 0.52316 0.63653 0.0
C833 C 0.48933 0.50753 0.63623 0.0
C834 C 0.47841 0.50864 0.65618 0.0
C835 C 0.44635 0.51946 0.67676 0.0
C836 C 0.42514 0.52873 0.67722 0.0
C837 C 0.45678 0.51682 0.65658 0.0
C838 C 0.41403 0.5344 0.65711 0.0
C839 C 0.42415 0.53153 0.63695 0.0
H840 H 0.80214 0.27375 0.61495 0.0
H841 H 0.78923 0.33117 0.65391 0.0
H842 H 0.77707 0.35069 0.62024 0.0
H843 H 0.76683 0.34995 0.58014 0.0
H844 H 0.7797 0.29208 0.54157 0.0
H845 H 0.79527 0.2743 0.57461 0.0
C846 C 0.79684 0.29061 0.616 0.0
C847 C 0.79633 0.30096 0.63681 0.0
C848 C 0.78975 0.30159 0.59667 0.0
C849 C 0.78979 0.32292 0.63801 0.0
C850 C 0.78271 0.33401 0.6188 0.0
C851 C 0.7733 0.33356 0.57893 0.0
C852 C 0.77193 0.32232 0.55842 0.0
C853 C 0.78212 0.3233 0.59809 0.0
C854 C 0.78053 0.30115 0.55711 0.0
C855 C 0.78936 0.29089 0.57603 0.0
H856 H 0.58123 0.0221 0.63523 0.0
H857 H 0.54722 0.96948 0.67093 0.0
H858 H 0.57608 0.97338 0.70135 0.0
H859 H 0.61187 0.99088 0.717 0.0
H860 H 0.64741 0.04132 0.67956 0.0
H861 H 0.61713 0.03929 0.65065 0.0
C862 C 0.58012 0.01167 0.64981 0.0
C863 C 0.56219 0.99566 0.65107 0.0
C864 C 0.59708 0.01359 0.66682 0.0
C865 C 0.56096 0.98193 0.66976 0.0
C866 C 0.57742 0.98416 0.68708 0.0
C867 C 0.61284 0.00154 0.70259 0.0
C868 C 0.63177 0.01627 0.70041 0.0
C869 C 0.59568 -0.00019 0.68571 0.0
C870 C 0.63302 0.02978 0.68153 0.0
C871 C 0.61572 0.02865 0.66502 0.0
H872 H 0.89236 0.24869 0.8381 0.0
H873 H 0.93561 0.26181 0.78367 0.0
H874 H 0.96855 0.26562 0.80967 0.0
H875 H 0.98515 0.26391 0.84798 0.0
H876 H 0.94109 0.24968 0.90176 0.0
H877 H 0.90856 0.24727 0.87582 0.0
C878 C 0.90901 0.25219 0.83185 0.0
C879 C 0.91151 0.25476 0.80895 0.0
C880 C 0.92781 0.25405 0.8468 0.0
C881 C 0.93317 0.25987 0.80124 0.0
C882 C 0.95203 0.26191 0.81609 0.0
C883 C 0.96844 0.26032 0.85402 0.0
C884 C 0.96573 0.2569 0.87686 0.0
C885 C 0.94958 0.25885 0.83893 0.0
C886 C 0.94386 0.25229 0.88433 0.0
C887 C 0.92514 0.25093 0.8695 0.0
H888 H 0.46916 0.8837 0.48196 0.0
H889 H 0.53744 0.90777 0.471 0.0
H890 H 0.54368 0.87405 0.4501 0.0
H891 H 0.53054 0.83634 0.43762 0.0
H892 H 0.46251 0.81231 0.4501 0.0
H893 H 0.45524 0.84755 0.46729 0.0
C894 C 0.48525 0.88181 0.47459 0.0
C895 C 0.50281 0.89819 0.47807 0.0
C896 C 0.4888 0.8623 0.46294 0.0
C897 C 0.52372 0.89528 0.46874 0.0
C898 C 0.52727 0.87603 0.45676 0.0
C899 C 0.51403 0.83898 0.44378 0.0
C900 C 0.49717 0.82165 0.44274 0.0
C901 C 0.51008 0.8592 0.45415 0.0
C902 C 0.47588 0.82528 0.45092 0.0
C903 C 0.47168 0.84544 0.46076 0.0
H904 H 0.15034 0.32771 0.8149 0.0
H905 H 0.10256 0.29738 0.76627 0.0
H906 H 0.07538 0.29046 0.79491 0.0
H907 H 0.06605 0.29106 0.83418 0.0
H908 H 0.11389 0.32181 0.88254 0.0
H909 H 0.13985 0.33103 0.85345 0.0
C910 C 0.13383 0.31998 0.81043 0.0
C911 C 0.12864 0.31292 0.78845 0.0
C912 C 0.11824 0.31611 0.82695 0.0
C913 C 0.10722 0.30262 0.78312 0.0
C914 C 0.09159 0.29876 0.79947 0.0
C915 C 0.08203 0.30002 0.83833 0.0
C916 C 0.08805 0.30555 0.86057 0.0
C917 C 0.09706 0.30511 0.82152 0.0
C918 C 0.10882 0.31722 0.8656 0.0
C919 C 0.12375 0.32247 0.84897 0.0
H920 H 0.50619 0.63317 0.46672 0.0
H921 H 0.57015 0.61941 0.43986 0.0
H922 H 0.5711 0.65501 0.42095 0.0
H923 H 0.55545 0.69135 0.4145 0.0
H924 H 0.49348 0.70646 0.44431 0.0
H925 H 0.4903 0.66924 0.45988 0.0
C926 C 0.52046 0.63796 0.45689 0.0
C927 C 0.53811 0.62352 0.4549 0.0
C928 C 0.52135 0.65884 0.44669 0.0
C929 C 0.55613 0.62992 0.44153 0.0
C930 C 0.55682 0.65042 0.43084 0.0
C931 C 0.5411 0.6864 0.42417 0.0
C932 C 0.52475 0.7017 0.42826 0.0
C933 C 0.53973 0.66516 0.43361 0.0
C934 C 0.50638 0.69512 0.44101 0.0
C935 C 0.50455 0.6738 0.44993 0.0
H936 H 0.90244 0.76754 0.71276 0.0
H937 H 0.84263 0.75607 0.66995 0.0
H938 H 0.86583 0.74999 0.6385 0.0
H939 H 0.90279 0.74761 0.62315 0.0
H940 H 0.96318 0.75908 0.66515 0.0
H941 H 0.94011 0.76564 0.69689 0.0
C942 C 0.89457 0.76357 0.69655 0.0
C943 C 0.87085 0.76229 0.69367 0.0
C944 C 0.90808 0.76023 0.6784 0.0
C945 C 0.86083 0.75736 0.67254 0.0
C946 C 0.87408 0.75383 0.65456 0.0
C947 C 0.91099 0.75162 0.6392 0.0
C948 C 0.93469 0.7528 0.64175 0.0
C949 C 0.89768 0.75526 0.65728 0.0
C950 C 0.94496 0.75812 0.6627 0.0
C951 C 0.93177 0.76178 0.68088 0.0
H952 H 0.03392 0.86013 0.51466 0.0
H953 H 0.00649 0.88781 0.57271 0.0
H954 H 0.00167 0.85058 0.58876 0.0
H955 H 0.0036 0.8098 0.58514 0.0
H956 H 0.03228 0.78315 0.52693 0.0
H957 H 0.03828 0.82024 0.5122 0.0
C958 C 0.02695 0.85797 0.53086 0.0
C959 C 0.02034 0.87653 0.54242 0.0
C960 C 0.02439 0.83668 0.53993 0.0
C961 C 0.01169 0.87367 0.56355 0.0
C962 C 0.00886 0.85241 0.57265 0.0
C963 C 0.01127 0.81213 0.56931 0.0
C964 C 0.01728 0.79356 0.55716 0.0
C965 C 0.01488 0.83372 0.56084 0.0
C966 C 0.02741 0.797 0.53673 0.0
C967 C 0.03084 0.81826 0.52819 0.0
H968 H 0.12518 0.70921 0.66647 0.0
H969 H 0.0812 0.72725 0.71764 0.0
H970 H 0.05005 0.72998 0.68997 0.0
H971 H 0.03537 0.72745 0.6511 0.0
H972 H 0.07973 0.70891 0.60029 0.0
H973 H 0.11044 0.70586 0.62804 0.0
C974 C 0.10871 0.71344 0.67165 0.0
C975 C 0.10557 0.71797 0.69412 0.0
C976 C 0.09087 0.7149 0.6557 0.0
C977 C 0.08419 0.72389 0.70042 0.0
C978 C 0.06632 0.72536 0.68462 0.0
C979 C 0.05173 0.72268 0.64608 0.0
C980 C 0.05512 0.71846 0.62355 0.0
C981 C 0.06948 0.72097 0.66217 0.0
C982 C 0.0765 0.7123 0.61745 0.0
C983 C 0.09416 0.71054 0.63332 0.0
H984 H 0.95549 0.60133 0.53319 0.0
H985 H 0.0138 0.62002 0.49579 0.0
H986 H 0.01971 0.65423 0.51713 0.0
H987 H 0.00745 0.67963 0.54525 0.0
H988 H 0.95082 0.6601 0.58437 0.0
H989 H 0.94564 0.62507 0.56395 0.0
C990 C 0.96978 0.61261 0.52992 0.0
C991 C 0.98389 0.60812 0.51251 0.0
C992 C 0.97346 0.63212 0.54262 0.0
C993 C 0.00218 0.62321 0.50856 0.0
C994 C 0.00574 0.64276 0.52091 0.0
C995 C 0.99409 0.66769 0.54945 0.0
C996 C 0.97943 0.67261 0.56617 0.0
C997 C 0.99129 0.64754 0.53774 0.0
C998 C 0.96237 0.65674 0.57157 0.0
C999 C 0.95931 0.63674 0.55982 0.0
H1000 H 0.81832 0.89016 0.20827 0.0
H1001 H 0.77295 0.93674 0.23302 0.0
H1002 H 0.80438 0.96449 0.23857 0.0
H1003 H 0.84487 0.97534 0.23655 0.0
H1004 H 0.88993 0.92818 0.21198 0.0
H1005 H 0.85841 0.90099 0.20594 0.0
C1006 C 0.81524 0.90648 0.21463 0.0
C1007 C 0.79331 0.91142 0.22011 0.0
C1008 C 0.83334 0.92226 0.21781 0.0
C1009 C 0.78971 0.93248 0.22881 0.0
C1010 C 0.80765 0.94837 0.23189 0.0
C1011 C 0.8478 0.95915 0.22979 0.0
C1012 C 0.86982 0.95388 0.22475 0.0
C1013 C 0.82957 0.94342 0.22649 0.0
C1014 C 0.87324 0.93274 0.21609 0.0
C1015 C 0.8552 0.91714 0.2126 0.0
H1016 H 0.78869 0.10289 0.28089 0.0
H1017 H 0.76978 0.11056 0.21147 0.0
H1018 H 0.79775 0.08462 0.20161 0.0
H1019 H 0.82907 0.06151 0.21241 0.0
H1020 H 0.84945 0.05525 0.28163 0.0
H1021 H 0.81959 0.07909 0.29178 0.0
C1022 C 0.79074 0.099 0.26358 0.0
C1023 C 0.7771 0.10879 0.24698 0.0
C1024 C 0.80723 0.08441 0.25796 0.0
C1025 C 0.77975 0.10312 0.22467 0.0
C1026 C 0.79591 0.08841 0.21897 0.0
C1027 C 0.82691 0.0652 0.22975 0.0
C1028 C 0.84157 0.05664 0.24622 0.0
C1029 C 0.80992 0.07917 0.23545 0.0
C1030 C 0.83848 0.06166 0.26859 0.0
C1031 C 0.82141 0.07532 0.27441 0.0
H1032 H 0.36222 0.95455 0.97884 0.0
H1033 H 0.41185 0.90495 0.97852 0.0
H1034 H 0.38293 0.87618 0.98636 0.0
H1035 H 0.34383 0.86505 0.99344 0.0
H1036 H 0.29376 0.91426 0.99398 0.0
H1037 H 0.32268 0.94326 0.9862 0.0
C1038 C 0.36672 0.93746 0.98064 0.0
C1039 C 0.38919 0.93194 0.978 0.0
C1040 C 0.34997 0.92094 0.98525 0.0
C1041 C 0.39466 0.90965 0.98012 0.0
C1042 C 0.37815 0.89319 0.98475 0.0
C1043 C 0.33914 0.8821 0.99194 0.0
C1044 C 0.31657 0.88739 0.99435 0.0
C1045 C 0.35578 0.89864 0.98735 0.0
C1046 C 0.31096 0.90964 0.99222 0.0
C1047 C 0.3275 0.92626 0.98775 0.0
H1048 H 0.25082 0.38309 0.24935 0.0
H1049 H 0.19847 0.35826 0.29152 0.0
H1050 H 0.17961 0.39307 0.2873 0.0
H1051 H 0.17868 0.43121 0.27242 0.0
H1052 H 0.23066 0.45441 0.2289 0.0
H1053 H 0.24842 0.41935 0.23244 0.0
C1054 C 0.23503 0.38497 0.25728 0.0
C1055 C 0.22622 0.36799 0.2708 0.0
C1056 C 0.22409 0.40483 0.25453 0.0
C1057 C 0.20595 0.37115 0.2813 0.0
C1058 C 0.19503 0.39103 0.27879 0.0
C1059 C 0.19378 0.42853 0.26358 0.0
C1060 C 0.20331 0.44563 0.25056 0.0
C1061 C 0.20408 0.40811 0.2656 0.0
C1062 C 0.22287 0.44172 0.23914 0.0
C1063 C 0.23316 0.42162 0.24115 0.0
H1064 H 0.14655 0.03913 0.51108 0.0
H1065 H 0.09739 0.0889 0.51487 0.0
H1066 H 0.12756 0.11774 0.51991 0.0
H1067 H 0.16758 0.12908 0.52197 0.0
H1068 H 0.21739 0.07989 0.51849 0.0
H1069 H 0.18726 0.05056 0.51485 0.0
C1070 C 0.14248 0.05626 0.5133 0.0
C1071 C 0.11973 0.06187 0.51239 0.0
C1072 C 0.15999 0.07287 0.51615 0.0
C1073 C 0.11474 0.08417 0.51513 0.0
C1074 C 0.13198 0.10068 0.51809 0.0
C1075 C 0.17196 0.11196 0.52043 0.0
C1076 C 0.19479 0.10678 0.52034 0.0
C1077 C 0.15463 0.09526 0.51834 0.0
C1078 C 0.2 0.08441 0.51856 0.0
C1079 C 0.18276 0.06762 0.51646 0.0
H1080 H 0.73742 0.13494 0.72734 0.0
H1081 H 0.72487 0.16007 0.79226 0.0
H1082 H 0.70174 0.12636 0.79991 0.0
H1083 H 0.68714 0.08865 0.7889 0.0
H1084 H 0.70118 0.0634 0.72446 0.0
H1085 H 0.72137 0.09831 0.71569 0.0
C1086 C 0.7293 0.1332 0.74301 0.0
C1087 C 0.73283 0.14994 0.75921 0.0
C1088 C 0.71639 0.11369 0.7474 0.0
C1089 C 0.72254 0.14729 0.77961 0.0
C1090 C 0.70928 0.12807 0.78396 0.0
C1091 C 0.69437 0.09098 0.77284 0.0
C1092 C 0.69299 0.07343 0.75745 0.0
C1093 C 0.70637 0.111 0.7681 0.0
C1094 C 0.7025 0.07649 0.73676 0.0
C1095 C 0.71394 0.0965 0.73169 0.0
H1096 H 0.37781 0.04314 0.52115 0.0
H1097 H 0.37588 0.03237 0.59172 0.0
H1098 H 0.34166 0.05281 0.5929 0.0
H1099 H 0.31365 0.07557 0.5744 0.0
H1100 H 0.31544 0.08669 0.50386 0.0
H1101 H 0.34798 0.0638 0.5021 0.0
C1102 C 0.36971 0.04497 0.53672 0.0
C1103 C 0.37959 0.03645 0.55636 0.0
C1104 C 0.34999 0.05679 0.5373 0.0
C1105 C 0.36893 0.03915 0.57643 0.0
C1106 C 0.34927 0.05072 0.57711 0.0
C1107 C 0.32096 0.07282 0.55857 0.0
C1108 C 0.31218 0.083 0.53933 0.0
C1109 C 0.33987 0.05992 0.55772 0.0
C1110 C 0.32187 0.07912 0.51896 0.0
C1111 C 0.34056 0.0661 0.51795 0.0
H1112 H 0.60826 0.42021 0.4968 0.0
H1113 H 0.65757 0.4753 0.50305 0.0
H1114 H 0.68805 0.45014 0.49902 0.0
H1115 H 0.70076 0.41215 0.49561 0.0
H1116 H 0.65108 0.35722 0.48947 0.0
H1117 H 0.62079 0.38263 0.49151 0.0
C1118 C 0.62569 0.42668 0.49732 0.0
C1119 C 0.63066 0.44954 0.50037 0.0
C1120 C 0.6431 0.41214 0.49502 0.0
C1121 C 0.6533 0.45776 0.50061 0.0
C1122 C 0.67074 0.44338 0.49839 0.0
C1123 C 0.68331 0.40576 0.4945 0.0
C1124 C 0.67827 0.38277 0.49254 0.0
C1125 C 0.66585 0.42049 0.49581 0.0
C1126 C 0.65552 0.37481 0.49108 0.0
C1127 C 0.63813 0.38933 0.49229 0.0
H1128 H 0.7021 0.276 0.37099 0.0
H1129 H 0.7709 0.2593 0.36206 0.0
H1130 H 0.7833 0.27952 0.39576 0.0
H1131 H 0.77435 0.29942 0.42919 0.0
H1132 H 0.70608 0.31749 0.43807 0.0
H1133 H 0.69386 0.29979 0.40264 0.0
C1134 C 0.71986 0.27713 0.37617 0.0
C1135 C 0.73544 0.26568 0.36421 0.0
C1136 C 0.72699 0.28901 0.39558 0.0
C1137 C 0.75841 0.26736 0.37125 0.0
C1138 C 0.76558 0.27906 0.39047 0.0
C1139 C 0.75682 0.29967 0.42329 0.0
C1140 C 0.74109 0.30947 0.43636 0.0
C1141 C 0.74995 0.28947 0.40302 0.0
C1142 C 0.71852 0.31002 0.42831 0.0
C1143 C 0.7115 0.29979 0.40812 0.0
H1144 H 0.54667 0.99104 0.85668 0.0
H1145 H 0.59236 0.99491 0.91446 0.0
H1146 H 0.62456 0.99274 0.89104 0.0
H1147 H 0.6399 0.99295 0.85422 0.0
H1148 H 0.59468 0.99028 0.79602 0.0
H1149 H 0.56218 0.98838 0.8195 0.0
C1150 C 0.56367 0.99101 0.86411 0.0
C1151 C 0.56717 0.99335 0.88723 0.0
C1152 C 0.58219 0.9901 0.85048 0.0
C1153 C 0.58928 0.99344 0.89667 0.0
C1154 C 0.60769 0.99216 0.8833 0.0
C1155 C 0.62295 0.9917 0.84661 0.0
C1156 C 0.61978 0.99198 0.82337 0.0
C1157 C 0.60438 0.99102 0.86018 0.0
C1158 C 0.59765 0.9902 0.81386 0.0
C1159 C 0.57903 0.98918 0.82729 0.0
H1160 H 0.29529 0.19242 0.38982 0.0
H1161 H 0.22579 0.20785 0.37666 0.0
H1162 H 0.21533 0.19012 0.41116 0.0
H1163 H 0.22656 0.17409 0.44691 0.0
H1164 H 0.29563 0.15759 0.46016 0.0
H1165 H 0.30548 0.17128 0.42351 0.0
C1166 C 0.27778 0.19145 0.39424 0.0
C1167 C 0.26147 0.20198 0.38092 0.0
C1168 C 0.2718 0.18111 0.41417 0.0
C1169 C 0.23882 0.20049 0.38692 0.0
C1170 C 0.23278 0.19025 0.40661 0.0
C1171 C 0.2437 0.17317 0.44163 0.0
C1172 C 0.26041 0.16516 0.45631 0.0
C1173 C 0.24924 0.18117 0.42068 0.0
C1174 C 0.28246 0.16372 0.44915 0.0
C1175 C 0.28814 0.17169 0.42826 0.0
H1176 H 0.45594 0.52319 0.87959 0.0
H1177 H 0.47998 0.45889 0.86477 0.0
H1178 H 0.46403 0.461 0.82695 0.0
H1179 H 0.44512 0.48171 0.79757 0.0
H1180 H 0.42074 0.54603 0.81161 0.0
H1181 H 0.43484 0.54325 0.85025 0.0
C1182 C 0.45761 0.50965 0.86806 0.0
C1183 C 0.46913 0.49091 0.87502 0.0
C1184 C 0.4484 0.51098 0.8462 0.0
C1185 C 0.47097 0.47338 0.85996 0.0
C1186 C 0.46198 0.47463 0.83827 0.0
C1187 C 0.44278 0.49513 0.80906 0.0
C1188 C 0.43208 0.51415 0.80161 0.0
C1189 C 0.45091 0.49343 0.83115 0.0
C1190 C 0.42892 0.5312 0.81687 0.0
C1191 C 0.43707 0.52966 0.83895 0.0
H1192 H 0.72672 0.71985 0.13856 0.0
H1193 H 0.70894 0.77068 0.09179 0.0
H1194 H 0.71664 0.74638 0.06097 0.0
H1195 H 0.73089 0.71183 0.04749 0.0
H1196 H 0.74984 0.66125 0.09412 0.0
H1197 H 0.73888 0.68418 0.12481 0.0
C1198 C 0.72418 0.72545 0.1216 0.0
C1199 C 0.7174 0.74708 0.11745 0.0
C1200 C 0.72891 0.71147 0.10396 0.0
C1201 C 0.71443 0.75421 0.09541 0.0
C1202 C 0.71876 0.74031 0.07779 0.0
C1203 C 0.73232 0.70564 0.06432 0.0
C1204 C 0.74121 0.68486 0.06849 0.0
C1205 C 0.7264 0.71907 0.08189 0.0
C1206 C 0.74309 0.67721 0.09045 0.0
C1207 C 0.73688 0.69033 0.10802 0.0
H1208 H 0.99249 0.0053 0.12921 0.0
H1209 H 0.93777 0.03258 0.09042 0.0
H1210 H 0.91568 0.03425 0.12343 0.0
H1211 H 0.91258 0.02948 0.16373 0.0
H1212 H 0.96721 0.0015 0.20206 0.0
H1213 H 0.98836 0.99813 0.16873 0.0
C1214 C 0.97557 0.01121 0.12783 0.0
C1215 C 0.96693 0.01895 0.10733 0.0
C1216 C 0.9629 0.01203 0.14684 0.0
C1217 C 0.94505 0.02688 0.10604 0.0
C1218 C 0.93234 0.02775 0.1249 0.0
C1219 C 0.92904 0.0225 0.16475 0.0
C1220 C 0.93828 0.0158 0.1854 0.0
C1221 C 0.94122 0.02067 0.14547 0.0
C1222 C 0.95961 0.00671 0.18641 0.0
C1223 C 0.97179 0.00485 0.16734 0.0
H1224 H 0.29098 0.78034 0.12021 0.0
H1225 H 0.27375 0.83715 0.15787 0.0
H1226 H 0.2652 0.85716 0.12336 0.0
H1227 H 0.26007 0.85718 0.08243 0.0
H1228 H 0.27752 0.79976 0.04547 0.0
H1229 H 0.28868 0.78139 0.07973 0.0
C1230 C 0.28543 0.79715 0.12081 0.0
C1231 C 0.28268 0.80722 0.14141 0.0
C1232 C 0.28057 0.8084 0.10105 0.0
C1233 C 0.27592 0.82912 0.14211 0.0
C1234 C 0.27096 0.84048 0.12242 0.0
C1235 C 0.26655 0.84075 0.08189 0.0
C1236 C 0.26788 0.82986 0.06138 0.0
C1237 C 0.27284 0.83012 0.10178 0.0
C1238 C 0.27639 0.8086 0.06096 0.0
C1239 C 0.28269 0.79799 0.08057 0.0
H1240 H 0.08604 0.48274 0.12884 0.0
H1241 H 0.04423 0.52863 0.16058 0.0
H1242 H 0.07148 0.53203 0.19195 0.0
H1243 H 0.10809 0.5232 0.20996 0.0
H1244 H 0.15191 0.4816 0.17567 0.0
H1245 H 0.12324 0.47582 0.14544 0.0
C1246 C 0.08292 0.49387 0.14231 0.0
C1247 C 0.06283 0.50531 0.14208 0.0
C1248 C 0.09916 0.49663 0.1599 0.0
C1249 C 0.05914 0.51913 0.16026 0.0
C1250 C 0.07488 0.52131 0.17822 0.0
C1251 C 0.11123 0.51281 0.19587 0.0
C1252 C 0.13192 0.50271 0.19499 0.0
C1253 C 0.095 0.51023 0.17818 0.0
C1254 C 0.13606 0.48955 0.17659 0.0
C1255 C 0.11969 0.48623 0.15936 0.0
H1256 H 0.42313 0.74463 0.29557 0.0
H1257 H 0.37325 0.77243 0.33538 0.0
H1258 H 0.40026 0.77485 0.36732 0.0
H1259 H 0.4374 0.76728 0.38433 0.0
H1260 H 0.48833 0.74178 0.3442 0.0
H1261 H 0.46166 0.74025 0.31185 0.0
C1262 C 0.41836 0.75141 0.31122 0.0
C1263 C 0.39633 0.75829 0.31329 0.0
C1264 C 0.43407 0.75299 0.32939 0.0
C1265 C 0.39022 0.76719 0.33349 0.0
C1266 C 0.40558 0.76844 0.35174 0.0
C1267 C 0.44263 0.76143 0.36846 0.0
C1268 C 0.4646 0.75434 0.36662 0.0
C1269 C 0.42743 0.76109 0.34995 0.0
C1270 C 0.47142 0.74723 0.34594 0.0
C1271 C 0.45619 0.74632 0.32751 0.0
H1272 H 0.02228 0.40511 0.96611 0.0
H1273 H 0.95917 0.38324 0.99372 0.0
H1274 H 0.96176 0.34653 0.97737 0.0
H1275 H 0.98293 0.32007 0.95721 0.0
H1276 H 0.04576 0.34161 0.92886 0.0
H1277 H 0.04228 0.37906 0.94346 0.0
C1278 C 0.00907 0.3923 0.96842 0.0
C1279 C 0.9906 0.39684 0.98115 0.0
C1280 C 0.01067 0.37119 0.95896 0.0
C1281 C 0.97345 0.38022 0.98382 0.0
C1282 C 0.97499 0.35918 0.97461 0.0
C1283 C 0.99585 0.33296 0.95415 0.0
C1284 C 0.01471 0.328 0.9422 0.0
C1285 C 0.99367 0.3544 0.96245 0.0
C1286 C 0.03109 0.34499 0.93804 0.0
C1287 C 0.02915 0.36638 0.94645 0.0
H1288 H 0.61883 0.82017 0.29698 0.0
H1289 H 0.65887 0.76308 0.30574 0.0
H1290 H 0.6371 0.75119 0.33732 0.0
H1291 H 0.60648 0.75658 0.36196 0.0
H1292 H 0.56515 0.81276 0.35294 0.0
H1293 H 0.5877 0.82554 0.32201 0.0
C1294 C 0.62281 0.80522 0.30594 0.0
C1295 C 0.64037 0.79247 0.29904 0.0
C1296 C 0.61002 0.79833 0.32398 0.0
C1297 C 0.64528 0.77302 0.31061 0.0
C1298 C 0.6329 0.76627 0.32871 0.0
C1299 C 0.60242 0.7717 0.35334 0.0
C1300 C 0.58419 0.78373 0.35982 0.0
C1301 C 0.61519 0.77872 0.33545 0.0
C1302 C 0.5791 0.80318 0.34829 0.0
C1303 C 0.59198 0.81049 0.33061 0.0
H1304 H 0.00955 0.13764 0.96109 0.0
H1305 H 0.07494 0.12199 0.93881 0.0
H1306 H 0.07851 0.15779 0.92043 0.0
H1307 H 0.06453 0.19484 0.91316 0.0
H1308 H 1.00107 0.21169 0.93871 0.0
H1309 H 0.99556 0.17439 0.95379 0.0
C1310 C 0.02473 0.14205 0.95243 0.0
C1311 C 0.04198 0.12701 0.95155 0.0
C1312 C 0.02714 0.16306 0.94266 0.0
C1313 C 0.06118 0.13295 0.9396 0.0
C1314 C 0.06338 0.15358 0.92923 0.0
C1315 C 0.04941 0.19022 0.92187 0.0
C1316 C 0.03332 0.206 0.92504 0.0
C1317 C 0.04665 0.16891 0.93098 0.0
C1318 C 0.01388 0.19995 0.93644 0.0
C1319 C 0.01067 0.17859 0.94496 0.0
H1320 H 0.39787 0.2795 0.21984 0.0
H1321 H 0.35984 0.21728 0.20798 0.0
H1322 H 0.3844 0.20842 0.17836 0.0
H1323 H 0.41537 0.2189 0.15477 0.0
H1324 H 0.45437 0.28058 0.16626 0.0
H1325 H 0.43078 0.28912 0.19716 0.0
C1326 C 0.39505 0.264 0.21077 0.0
C1327 C 0.37704 0.24906 0.2161 0.0
C1328 C 0.40932 0.25897 0.19369 0.0
C1329 C 0.37371 0.22893 0.20439 0.0
C1330 C 0.38766 0.22391 0.18735 0.0
C1331 C 0.41879 0.23423 0.16404 0.0
C1332 C 0.43643 0.24921 0.15809 0.0
C1333 C 0.40532 0.23889 0.18172 0.0
C1334 C 0.44085 0.2688 0.17051 0.0
C1335 C 0.42733 0.2737 0.18811 0.0
H1336 H 0.51652 0.38204 0.05665 0.0
H1337 H 0.55003 0.35844 9e-05 0.0
H1338 H 0.54703 0.32061 0.01427 0.0
H1339 H 0.53296 0.29408 0.04125 0.0
H1340 H 0.49762 0.31658 0.09724 0.0
H1341 H 0.50338 0.35501 0.08488 0.0
C1342 C 0.52339 0.36859 0.04767 0.0
C1343 C 0.53343 0.37292 0.02735 0.0
C1344 C 0.52114 0.34672 0.05571 0.0
C1345 C 0.54211 0.35541 0.01568 0.0
C1346 C 0.54039 0.33381 0.02378 0.0
C1347 C 0.52661 0.30732 0.05095 0.0
C1348 C 0.51477 0.30233 0.07014 0.0
C1349 C 0.52962 0.32923 0.04356 0.0
C1350 C 0.50673 0.31986 0.08237 0.0
C1351 C 0.51 0.34186 0.07529 0.0
H1352 H 0.6255 0.20772 0.17005 0.0
H1353 H 0.5837 0.22117 0.22448 0.0
H1354 H 0.55221 0.22837 0.19831 0.0
H1355 H 0.53637 0.23019 0.15979 0.0
H1356 H 0.57876 0.21618 0.10578 0.0
H1357 H 0.60996 0.20964 0.13198 0.0
C1358 C 0.60944 0.212 0.17623 0.0
C1359 C 0.60696 0.21375 0.19921 0.0
C1360 C 0.59143 0.21601 0.16114 0.0
C1361 C 0.58615 0.21984 0.20687 0.0
C1362 C 0.56809 0.22386 0.19191 0.0
C1363 C 0.55243 0.22573 0.15374 0.0
C1364 C 0.55505 0.22366 0.13075 0.0
C1365 C 0.57051 0.22193 0.16898 0.0
C1366 C 0.57608 0.21789 0.12331 0.0
C1367 C 0.59403 0.21412 0.1383 0.0
H1368 H 0.45897 0.10795 0.04145 0.0
H1369 H 0.52073 0.12601 0.00916 0.0
H1370 H 0.52411 0.16106 0.0293 0.0
H1371 H 0.50932 0.18693 0.05578 0.0
H1372 H 0.44957 0.16741 0.09042 0.0
H1373 H 0.44613 0.13223 0.0702 0.0
C1374 C 0.47345 0.11926 0.03905 0.0
C1375 C 0.48936 0.11424 0.02345 0.0
C1376 C 0.47575 0.13916 0.05122 0.0
C1377 C 0.50779 0.12951 0.02049 0.0
C1378 C 0.5099 0.14955 0.0322 0.0
C1379 C 0.49559 0.17499 0.05892 0.0
C1380 C 0.47962 0.17987 0.07441 0.0
C1381 C 0.49389 0.15463 0.04747 0.0
C1382 C 0.46212 0.16402 0.07859 0.0
C1383 C 0.46007 0.14394 0.06697 0.0
H1384 H 0.28695 0.43235 0.72613 0.0
H1385 H 0.33096 0.37927 0.71517 0.0
H1386 H 0.36378 0.40541 0.71795 0.0
H1387 H 0.37999 0.44326 0.72289 0.0
H1388 H 0.33629 0.49665 0.73401 0.0
H1389 H 0.30344 0.47045 0.73192 0.0
C1390 C 0.30375 0.42651 0.72457 0.0
C1391 C 0.30647 0.40391 0.72031 0.0
C1392 C 0.32262 0.44167 0.72615 0.0
C1393 C 0.32835 0.39662 0.71812 0.0
C1394 C 0.34715 0.41154 0.7198 0.0
C1395 C 0.36331 0.44924 0.72489 0.0
C1396 C 0.36071 0.47196 0.72853 0.0
C1397 C 0.34447 0.43411 0.72365 0.0
C1398 C 0.33888 0.47929 0.73112 0.0
C1399 C 0.32004 0.4643 0.72995 0.0
H1400 H 0.26337 0.61044 0.74493 0.0
H1401 H 0.31201 0.65777 0.77634 0.0
H1402 H 0.34161 0.63175 0.77314 0.0
H1403 H 0.35421 0.59621 0.75999 0.0
H1404 H 0.30625 0.54983 0.72639 0.0
H1405 H 0.27599 0.57487 0.73173 0.0
C1406 C 0.28047 0.61518 0.75091 0.0
C1407 C 0.28532 0.63609 0.76093 0.0
C1408 C 0.2976 0.60028 0.74862 0.0
C1409 C 0.30759 0.64169 0.7689 0.0
C1410 C 0.32462 0.62686 0.76695 0.0
C1411 C 0.33709 0.59147 0.75405 0.0
C1412 C 0.3325 0.57117 0.74284 0.0
C1413 C 0.31986 0.60616 0.75673 0.0
C1414 C 0.31026 0.56539 0.73503 0.0
C1415 C 0.29294 0.57972 0.73805 0.0
H1416 H 0.85301 0.44926 0.47218 0.0
H1417 H 0.90252 0.40058 0.46382 0.0
H1418 H 0.87477 0.37093 0.47237 0.0
H1419 H 0.83677 0.35879 0.48237 0.0
H1420 H 0.78677 0.40703 0.49088 0.0
H1421 H 0.81448 0.43689 0.48226 0.0
C1422 C 0.85774 0.43216 0.47239 0.0
C1423 C 0.87981 0.42715 0.46731 0.0
C1424 C 0.84165 0.41513 0.47734 0.0
C1425 C 0.88559 0.40489 0.46737 0.0
C1426 C 0.86976 0.38792 0.47238 0.0
C1427 C 0.83183 0.37582 0.48239 0.0
C1428 C 0.80965 0.38058 0.48734 0.0
C1429 C 0.84777 0.39285 0.47737 0.0
C1430 C 0.80368 0.40281 0.48714 0.0
C1431 C 0.81953 0.41992 0.48222 0.0
H1432 H 0.74486 0.88512 0.74027 0.0
H1433 H 0.7027 0.86538 0.79395 0.0
H1434 H 0.68447 0.90066 0.7914 0.0
H1435 H 0.68194 0.938 0.77506 0.0
H1436 H 0.72362 0.95639 0.72051 0.0
H1437 H 0.73995 0.92041 0.72188 0.0
C1438 C 0.73132 0.88818 0.75111 0.0
C1439 C 0.72532 0.87252 0.76734 0.0
C1440 C 0.72073 0.90833 0.7494 0.0
C1441 C 0.70803 0.87723 0.78154 0.0
C1442 C 0.69746 0.89737 0.78 0.0
C1443 C 0.69438 0.93404 0.76329 0.0
C1444 C 0.70165 0.95009 0.74788 0.0
C1445 C 0.70391 0.9132 0.76419 0.0
C1446 C 0.71776 0.94455 0.73271 0.0
C1447 C 0.7272 0.92394 0.73348 0.0
H1448 H 0.64568 0.54783 0.01634 0.0
H1449 H 0.60601 0.58597 0.96988 0.0
H1450 H 0.63487 0.616 0.97196 0.0
H1451 H 0.67121 0.63185 0.98687 0.0
H1452 H 0.71293 0.59299 0.0304 0.0
H1453 H 0.68373 0.5626 0.02895 0.0
C1454 C 0.64339 0.56253 0.0064 0.0
C1455 C 0.62323 0.56458 0.99335 0.0
C1456 C 0.66053 0.57963 0.007 0.0
C1457 C 0.62079 0.58401 0.98075 0.0
C1458 C 0.63747 0.6012 0.98168 0.0
C1459 C 0.67393 0.61671 0.99603 0.0
C1460 C 0.69408 0.61474 0.00889 0.0
C1461 C 0.65731 0.59927 0.99483 0.0
C1462 C 0.69755 0.59489 0.02036 0.0
C1463 C 0.68082 0.57756 0.0196 0.0
H1464 H 0.2119 0.64558 0.24775 0.0
H1465 H 0.27277 0.61381 0.23287 0.0
H1466 H 0.25335 0.5774 0.23653 0.0
H1467 H 0.21989 0.55472 0.24573 0.0
H1468 H 0.15907 0.58591 0.26189 0.0
H1469 H 0.17759 0.62249 0.25575 0.0
C1470 C 0.22078 0.63065 0.24507 0.0
C1471 C 0.24374 0.63233 0.24017 0.0
C1472 C 0.20957 0.60974 0.24746 0.0
C1473 C 0.25516 0.6129 0.23693 0.0
C1474 C 0.24406 0.59211 0.23894 0.0
C1475 C 0.21053 0.56947 0.24763 0.0
C1476 C 0.18811 0.56759 0.25419 0.0
C1477 C 0.22138 0.59034 0.24446 0.0
C1478 C 0.17636 0.58692 0.25684 0.0
C1479 C 0.18695 0.60782 0.25337 0.0
H1480 H 0.86683 0.54394 0.02408 0.0
H1481 H 0.91775 0.59486 0.04382 0.0
H1482 H 0.89035 0.62317 0.03845 0.0
H1483 H 0.85194 0.63349 0.02914 0.0
H1484 H 0.80048 0.5831 0.00942 0.0
H1485 H 0.82818 0.55461 0.01344 0.0
C1486 C 0.87194 0.56125 0.027 0.0
C1487 C 0.89427 0.56723 0.03457 0.0
C1488 C 0.85604 0.57755 0.02386 0.0
C1489 C 0.90059 0.58974 0.03841 0.0
C1490 C 0.88497 0.60598 0.03521 0.0
C1491 C 0.84673 0.6163 0.02559 0.0
C1492 C 0.82413 0.61046 0.01906 0.0
C1493 C 0.86263 0.60006 0.02813 0.0
C1494 C 0.81776 0.58807 0.0145 0.0
C1495 C 0.83359 0.57177 0.01684 0.0
H1496 H 0.13464 0.95142 0.98136 0.0
H1497 H 0.14525 0.97043 0.05017 0.0
H1498 H 0.1796 0.95005 0.05294 0.0
H1499 H 0.20563 0.92561 0.03647 0.0
H1500 H 0.19475 0.90504 0.96811 0.0
H1501 H 0.16178 0.92762 0.96437 0.0
C1502 C 0.14461 0.95123 0.99688 0.0
C1503 C 0.1373 0.96226 0.01559 0.0
C1504 C 0.16432 0.93928 0.99842 0.0
C1505 C 0.1503 0.96177 0.03564 0.0
C1506 C 0.17002 0.95023 0.0372 0.0
C1507 C 0.19625 0.92622 0.02064 0.0
C1508 C 0.20268 0.91362 0.0026 0.0
C1509 C 0.17705 0.93875 0.01879 0.0
C1510 C 0.19018 0.91457 0.98227 0.0
C1511 C 0.17127 0.92741 0.98015 0.0
loop_
_geom_bond_atom_site_label_1
_geom_bond_atom_site_label_2
_geom_bond_distance
_geom_bond_site_symmetry_2
_ccdc_geom_bond_type
C0 C1 1.384 . S
C0 H13 0.947 . S
C0 C35 1.382 . S
C1 C0 1.384 . S
C1 C2 1.378 . S
C2 C1 1.378 . S
C2 C3 1.378 1_655 S
C2 H14 0.952 . S
C3 C2 1.378 1_455 S
C3 H15 0.950 . S
C3 C34 1.383 . S
H4 C23 0.947 . S
H5 C24 0.946 . S
H6 C26 0.949 1_546 S
H7 C27 0.945 1_556 S
H8 C29 0.952 . S
H9 C30 0.949 . S
H10 C32 0.950 . S
H11 C33 0.948 . S
H12 C35 0.951 . S
H13 C0 0.947 . S
H14 C2 0.952 . S
H15 C3 0.950 . S
N16 C19 1.382 . S
N16 C21 1.363 . S
N17 C19 1.371 . S
N17 C20 1.372 . S
N18 C20 1.361 . S
N18 C21 1.377 . S
C19 N16 1.382 . S
C19 N17 1.371 . S
C19 C22 1.480 . S
C20 N17 1.372 . S
C20 N18 1.361 . S
C20 C28 1.457 . S
C21 N16 1.363 . S
C21 N18 1.377 . S
C21 C34 1.479 . S
C22 C19 1.480 . S
C22 C23 1.383 1_545 S
C22 C27 1.385 . S
C23 H4 0.947 . S
C23 C22 1.383 1_565 S
C23 C24 1.388 . S
C24 H5 0.946 . S
C24 C23 1.388 . S
C24 C25 1.384 . S
C25 C24 1.384 . S
C25 C26 1.411 . S
C26 H6 0.949 1_564 S
C26 C25 1.411 . S
C26 C27 1.340 1_565 S
C27 H7 0.945 1_554 S
C27 C22 1.385 . S
C27 C26 1.340 1_545 S
C28 C20 1.457 . S
C28 C29 1.372 1_554 S
C28 C33 1.364 . S
C29 H8 0.952 . S
C29 C28 1.372 1_556 S
C29 C30 1.389 . S
C30 H9 0.949 . S
C30 C29 1.389 . S
C30 C31 1.387 . S
C31 C30 1.387 . S
C31 C32 1.372 . S
C32 H10 0.950 . S
C32 C31 1.372 . S
C32 C33 1.379 1_556 S
C33 H11 0.948 . S
C33 C28 1.364 . S
C33 C32 1.379 1_554 S
C34 C3 1.383 . S
C34 C21 1.479 . S
C34 C35 1.398 1_455 S
C35 C0 1.382 . S
C35 H12 0.951 . S
C35 C34 1.398 1_655 S
C36 C37 1.384 . S
C36 H49 0.947 . S
C36 C71 1.382 . S
C37 C36 1.384 . S
C37 C38 1.378 . S
C38 C37 1.378 . S
C38 C39 1.378 . S
C38 H50 0.952 . S
C39 C38 1.378 . S
C39 H51 0.950 . S
C39 C70 1.383 . S
H40 C59 0.947 . S
H41 C60 0.946 . S
H42 C62 0.953 . S
H43 C63 0.945 . S
H44 C65 0.952 . S
H45 C66 0.949 . S
H46 C68 0.950 . S
H47 C69 0.948 . S
H48 C71 0.951 . S
H49 C36 0.947 . S
H50 C38 0.952 . S
H51 C39 0.950 . S
N52 C55 1.382 . S
N52 C57 1.363 . S
N53 C55 1.371 . S
N53 C56 1.372 . S
N54 C56 1.361 . S
N54 C57 1.377 . S
C55 N52 1.382 . S
C55 N53 1.371 . S
C55 C58 1.480 . S
C56 N53 1.372 . S
C56 N54 1.361 . S
C56 C64 1.457 . S
C57 N52 1.363 . S
C57 N54 1.377 . S
C57 C70 1.479 . S
C58 C55 1.480 . S
C58 C59 1.383 . S
C58 C63 1.385 . S
C59 H40 0.947 . S
C59 C58 1.383 . S
C59 C60 1.388 . S
C60 H41 0.946 . S
C60 C59 1.388 . S
C60 C61 1.384 . S
C61 C60 1.384 . S
C61 C62 1.377 . S
C62 H42 0.953 . S
C62 C61 1.377 . S
C62 C63 1.369 . S
C63 H43 0.945 . S
C63 C58 1.385 . S
C63 C62 1.369 . S
C64 C56 1.457 . S
C64 C65 1.372 . S
C64 C69 1.364 . S
C65 H44 0.952 . S
C65 C64 1.372 . S
C65 C66 1.389 . S
C66 H45 0.949 . S
C66 C65 1.389 . S
C66 C67 1.387 . S
C67 C66 1.387 . S
C67 C68 1.372 . S
C68 H46 0.950 . S
C68 C67 1.372 . S
C68 C69 1.379 . S
C69 H47 0.948 . S
C69 C64 1.364 . S
C69 C68 1.379 . S
C70 C39 1.383 . S
C70 C57 1.479 . S
C70 C71 1.398 . S
C71 C36 1.382 . S
C71 H48 0.951 . S
C71 C70 1.398 . S
C72 C73 1.384 1_454 S
C72 H85 0.947 . S
C72 C107 1.382 . S
C73 C72 1.384 1_656 S
C73 C74 1.378 . S
C74 C73 1.378 . S
C74 C75 1.378 . S
C74 H86 0.952 . S
C75 C74 1.378 . S
C75 H87 0.950 . S
C75 C106 1.383 1_556 S
H76 C95 0.947 . S
H77 C96 0.946 . S
H78 C98 0.953 . S
H79 C99 0.945 . S
H80 C101 0.952 1_655 S
H81 C102 0.949 . S
H82 C104 0.950 . S
H83 C105 0.948 . S
H84 C107 0.951 . S
H85 C72 0.947 . S
H86 C74 0.952 . S
H87 C75 0.950 . S
N88 C91 1.382 . S
N88 C93 1.363 . S
N89 C91 1.371 . S
N89 C92 1.372 . S
N90 C92 1.372 . S
N90 C93 1.405 . S
C91 N88 1.382 . S
C91 N89 1.371 . S
C91 C94 1.480 . S
C92 N89 1.372 . S
C92 N90 1.372 . S
C92 C100 1.457 1_655 S
C93 N88 1.363 . S
C93 N90 1.405 . S
C93 C106 1.479 . S
C94 C91 1.480 . S
C94 C95 1.383 . S
C94 C99 1.385 . S
C95 H76 0.947 . S
C95 C94 1.383 . S
C95 C96 1.388 . S
C96 H77 0.946 . S
C96 C95 1.388 . S
C96 C97 1.384 . S
C97 C96 1.384 . S
C97 C98 1.377 . S
C98 H78 0.953 . S
C98 C97 1.377 . S
C98 C99 1.369 . S
C99 H79 0.945 . S
C99 C94 1.385 . S
C99 C98 1.369 . S
C100 C92 1.457 1_455 S
C100 C101 1.372 . S
C100 C105 1.364 . S
C101 H80 0.952 1_455 S
C101 C100 1.372 . S
C101 C102 1.389 . S
C102 H81 0.949 . S
C102 C101 1.389 . S
C102 C103 1.387 . S
C103 C102 1.387 . S
C103 C104 1.372 . S
C104 H82 0.950 . S
C104 C103 1.372 . S
C104 C105 1.379 . S
C105 H83 0.948 . S
C105 C100 1.364 . S
C105 C104 1.379 . S
C106 C75 1.383 1_554 S
C106 C93 1.479 . S
C106 C107 1.398 1_655 S
C107 C72 1.382 . S
C107 H84 0.951 . S
C107 C106 1.398 1_455 S
C108 C109 1.384 . S
C108 H121 0.947 . S
C108 C143 1.382 . S
C109 C108 1.384 . S
C109 C110 1.378 . S
C110 C109 1.378 . S
C110 C111 1.378 . S
C110 H122 0.952 . S
C111 C110 1.378 . S
C111 H123 0.950 . S
C111 C142 1.383 . S
H112 C131 0.947 . S
H113 C132 0.946 . S
H114 C134 0.953 . S
H115 C135 0.945 . S
H116 C137 0.952 . S
H117 C138 0.949 . S
H118 C140 0.950 . S
H119 C141 0.948 . S
H120 C143 0.951 . S
H121 C108 0.947 . S
H122 C110 0.952 . S
H123 C111 0.950 . S
N124 C127 1.382 . S
N124 C129 1.363 . S
N125 C127 1.371 . S
N125 C128 1.372 . S
N126 C128 1.361 . S
N126 C129 1.377 . S
C127 N124 1.382 . S
C127 N125 1.371 . S
C127 C130 1.480 . S
C128 N125 1.372 . S
C128 N126 1.361 . S
C128 C136 1.457 . S
C129 N124 1.363 . S
C129 N126 1.377 . S
C129 C142 1.479 . S
C130 C127 1.480 . S
C130 C131 1.383 . S
C130 C135 1.385 . S
C131 H112 0.947 . S
C131 C130 1.383 . S
C131 C132 1.388 . S
C132 H113 0.946 . S
C132 C131 1.388 . S
C132 C133 1.384 . S
C133 C132 1.384 . S
C133 C134 1.377 . S
C134 H114 0.953 . S
C134 C133 1.377 . S
C134 C135 1.369 . S
C135 H115 0.945 . S
C135 C130 1.385 . S
C135 C134 1.369 . S
C136 C128 1.457 . S
C136 C137 1.372 . S
C136 C141 1.364 . S
C137 H116 0.952 . S
C137 C136 1.372 . S
C137 C138 1.389 . S
C138 H117 0.949 . S
C138 C137 1.389 . S
C138 C139 1.387 . S
C139 C138 1.387 . S
C139 C140 1.372 . S
C140 H118 0.950 . S
C140 C139 1.372 . S
C140 C141 1.379 . S
C141 H119 0.948 . S
C141 C136 1.364 . S
C141 C140 1.379 . S
C142 C111 1.383 . S
C142 C129 1.479 . S
C142 C143 1.398 . S
C143 C108 1.382 . S
C143 H120 0.951 . S
C143 C142 1.398 . S
C144 C145 1.384 . S
C144 H157 0.947 . S
C144 C179 1.382 . S
C145 C144 1.384 . S
C145 C146 1.378 . S
C146 C145 1.378 . S
C146 C147 1.378 . S
C146 H158 0.952 . S
C147 C146 1.378 . S
C147 H159 0.950 . S
C147 C178 1.383 . S
H148 C167 0.947 . S
H149 C168 0.946 . S
H150 C170 0.994 . S
H151 C171 0.945 1_545 S
H152 C173 0.952 . S
H153 C174 0.949 . S
H154 C176 0.950 . S
H155 C177 0.948 . S
H156 C179 0.951 . S
H157 C144 0.947 . S
H158 C146 0.952 . S
H159 C147 0.950 . S
N160 C163 1.382 . S
N160 C165 1.363 . S
N161 C163 1.371 . S
N161 C164 1.372 . S
N162 C164 1.361 . S
N162 C165 1.377 . S
C163 N160 1.382 . S
C163 N161 1.371 . S
C163 C166 1.480 . S
C164 N161 1.372 . S
C164 N162 1.361 . S
C164 C172 1.457 . S
C165 N160 1.363 . S
C165 N162 1.377 . S
C165 C178 1.479 . S
C166 C163 1.480 . S
C166 C167 1.383 . S
C166 C171 1.385 . S
C167 H148 0.947 . S
C167 C166 1.383 . S
C167 C168 1.388 1_455 S
C168 H149 0.946 . S
C168 C167 1.388 1_655 S
C168 C169 1.384 . S
C169 C168 1.384 . S
C169 C170 1.350 1_665 S
C170 H150 0.994 . S
C170 C169 1.350 1_445 S
C170 C171 1.356 1_545 S
C171 H151 0.945 1_565 S
C171 C166 1.385 . S
C171 C170 1.356 1_565 S
C172 C164 1.457 . S
C172 C173 1.372 1_565 S
C172 C177 1.364 . S
C173 H152 0.952 . S
C173 C172 1.372 1_545 S
C173 C174 1.389 . S
C174 H153 0.949 . S
C174 C173 1.389 . S
C174 C175 1.387 . S
C175 C174 1.387 . S
C175 C176 1.372 . S
C176 H154 0.950 . S
C176 C175 1.372 . S
C176 C177 1.379 1_545 S
C177 H155 0.948 . S
C177 C172 1.364 . S
C177 C176 1.379 1_565 S
C178 C147 1.383 . S
C178 C165 1.479 . S
C178 C179 1.398 . S
C179 C144 1.382 . S
C179 H156 0.951 . S
C179 C178 1.398 . S
C180 C181 1.384 . S
C180 H193 0.947 . S
C180 C215 1.382 . S
C181 C180 1.384 . S
C181 C182 1.378 . S
C182 C181 1.378 . S
C182 C183 1.378 . S
C182 H194 0.952 . S
C183 C182 1.378 . S
C183 H195 0.950 . S
C183 C214 1.383 . S
H184 C203 0.947 . S
H185 C204 0.946 . S
H186 C206 0.953 . S
H187 C207 0.945 . S
H188 C209 0.952 . S
H189 C210 0.949 . S
H190 C212 0.950 . S
H191 C213 0.948 . S
H192 C215 0.951 . S
H193 C180 0.947 . S
H194 C182 0.952 . S
H195 C183 0.950 . S
N196 C199 1.382 . S
N196 C201 1.363 . S
N197 C199 1.371 . S
N197 C200 1.372 . S
N198 C200 1.361 . S
N198 C201 1.377 . S
C199 N196 1.382 . S
C199 N197 1.371 . S
C199 C202 1.480 . S
C200 N197 1.372 . S
C200 N198 1.361 . S
C200 C208 1.457 . S
C201 N196 1.363 . S
C201 N198 1.377 . S
C201 C214 1.479 . S
C202 C199 1.480 . S
C202 C203 1.383 . S
C202 C207 1.385 . S
C203 H184 0.947 . S
C203 C202 1.383 . S
C203 C204 1.388 . S
C204 H185 0.946 . S
C204 C203 1.388 . S
C204 C205 1.384 . S
C205 C204 1.384 . S
C205 C206 1.377 . S
C206 H186 0.953 . S
C206 C205 1.377 . S
C206 C207 1.369 . S
C207 H187 0.945 . S
C207 C202 1.385 . S
C207 C206 1.369 . S
C208 C200 1.457 . S
C208 C209 1.372 . S
C208 C213 1.364 . S
C209 H188 0.952 . S
C209 C208 1.372 . S
C209 C210 1.389 . S
C210 H189 0.949 . S
C210 C209 1.389 . S
C210 C211 1.387 . S
C211 C210 1.387 . S
C211 C212 1.372 . S
C212 H190 0.950 . S
C212 C211 1.372 . S
C212 C213 1.379 . S
C213 H191 0.948 . S
C213 C208 1.364 . S
C213 C212 1.379 . S
C214 C183 1.383 . S
C214 C201 1.479 . S
C214 C215 1.398 . S
C215 C180 1.382 . S
C215 H192 0.951 . S
C215 C214 1.398 . S
C216 C217 1.384 . S
C216 H229 0.947 1_655 S
C216 C251 1.382 . S
C217 C216 1.384 . S
C217 C218 1.378 . S
C218 C217 1.378 . S
C218 C219 1.378 . S
C218 H230 0.952 . S
C219 C218 1.378 . S
C219 H231 0.950 . S
C219 C250 1.383 . S
H220 C239 0.947 . S
H221 C240 0.946 . S
H222 C242 0.953 . S
H223 C243 0.945 . S
H224 C245 0.952 . S
H225 C246 0.949 . S
H226 C248 0.950 . S
H227 C249 0.948 . S
H228 C251 0.965 . S
H229 C216 0.947 1_455 S
H230 C218 0.952 . S
H231 C219 0.950 . S
N232 C235 1.382 . S
N232 C237 1.363 . S
N233 C235 1.371 . S
N233 C236 1.372 . S
N234 C236 1.361 . S
N234 C237 1.377 . S
C235 N232 1.382 . S
C235 N233 1.371 . S
C235 C238 1.480 . S
C236 N233 1.372 . S
C236 N234 1.361 . S
C236 C244 1.492 . S
C237 N232 1.363 . S
C237 N234 1.377 . S
C237 C250 1.479 . S
C238 C235 1.480 . S
C238 C239 1.383 . S
C238 C243 1.385 . S
C239 H220 0.947 . S
C239 C238 1.383 . S
C239 C240 1.388 . S
C240 H221 0.946 . S
C240 C239 1.388 . S
C240 C241 1.384 . S
C241 C240 1.384 . S
C241 C242 1.377 . S
C242 H222 0.953 . S
C242 C241 1.377 . S
C242 C243 1.369 . S
C243 H223 0.945 . S
C243 C238 1.385 . S
C243 C242 1.369 . S
C244 C236 1.492 . S
C244 C245 1.384 . S
C244 C249 1.326 1_655 S
C245 H224 0.952 . S
C245 C244 1.384 . S
C245 C246 1.389 1_655 S
C246 H225 0.949 . S
C246 C245 1.389 1_455 S
C246 C247 1.387 . S
C247 C246 1.387 . S
C247 C248 1.372 . S
C248 H226 0.950 . S
C248 C247 1.372 . S
C248 C249 1.379 . S
C249 H227 0.948 . S
C249 C244 1.326 1_455 S
C249 C248 1.379 . S
C250 C219 1.383 . S
C250 C237 1.479 . S
C250 C251 1.398 . S
C251 C216 1.382 . S
C251 H228 0.965 . S
C251 C250 1.398 . S
C252 C253 1.384 . S
C252 H265 0.947 . S
C252 C287 1.382 . S
C253 C252 1.384 . S
C253 C254 1.378 . S
C254 C253 1.378 . S
C254 C255 1.378 . S
C254 H266 0.952 . S
C255 C254 1.378 . S
C255 H267 0.950 . S
C255 C286 1.383 . S
H256 C275 0.947 . S
H257 C276 0.946 . S
H258 C278 0.953 . S
H259 C279 0.945 . S
H260 C281 0.952 . S
H261 C282 0.949 . S
H262 C284 0.950 . S
H263 C285 0.948 . S
H264 C287 0.951 . S
H265 C252 0.947 . S
H266 C254 0.952 . S
H267 C255 0.950 . S
N268 C271 1.382 . S
N268 C273 1.363 . S
N269 C271 1.371 . S
N269 C272 1.372 . S
N270 C272 1.361 . S
N270 C273 1.377 . S
C271 N268 1.382 . S
C271 N269 1.371 . S
C271 C274 1.480 . S
C272 N269 1.372 . S
C272 N270 1.361 . S
C272 C280 1.457 . S
C273 N268 1.363 . S
C273 N270 1.377 . S
C273 C286 1.479 . S
C274 C271 1.480 . S
C274 C275 1.383 . S
C274 C279 1.385 . S
C275 H256 0.947 . S
C275 C274 1.383 . S
C275 C276 1.388 . S
C276 H257 0.946 . S
C276 C275 1.388 . S
C276 C277 1.384 . S
C277 C276 1.384 . S
C277 C278 1.377 . S
C278 H258 0.953 . S
C278 C277 1.377 . S
C278 C279 1.369 . S
C279 H259 0.945 . S
C279 C274 1.385 . S
C279 C278 1.369 . S
C280 C272 1.457 . S
C280 C281 1.372 . S
C280 C285 1.364 . S
C281 H260 0.952 . S
C281 C280 1.372 . S
C281 C282 1.389 . S
C282 H261 0.949 . S
C282 C281 1.389 . S
C282 C283 1.387 . S
C283 C282 1.387 . S
C283 C284 1.372 . S
C284 H262 0.950 . S
C284 C283 1.372 . S
C284 C285 1.379 . S
C285 H263 0.948 . S
C285 C280 1.364 . S
C285 C284 1.379 . S
C286 C255 1.383 . S
C286 C273 1.479 . S
C286 C287 1.398 . S
C287 C252 1.382 . S
C287 H264 0.951 . S
C287 C286 1.398 . S
C288 C289 1.384 . S
C288 H301 0.947 . S
C288 C323 1.382 . S
C289 C288 1.384 . S
C289 C290 1.378 . S
C290 C289 1.378 . S
C290 C291 1.378 . S
C290 H302 0.952 . S
C291 C290 1.378 . S
C291 H303 0.950 . S
C291 C322 1.383 . S
H292 C311 0.947 . S
H293 C312 0.946 . S
H294 C314 0.953 . S
H295 C315 0.945 . S
H296 C317 0.952 . S
H297 C318 0.949 . S
H298 C320 0.950 . S
H299 C321 0.948 . S
H300 C323 0.951 . S
H301 C288 0.947 . S
H302 C290 0.952 . S
H303 C291 0.950 . S
N304 C307 1.382 . S
N304 C309 1.363 . S
N305 C307 1.371 . S
N305 C308 1.372 . S
N306 C308 1.361 . S
N306 C309 1.377 . S
C307 N304 1.382 . S
C307 N305 1.371 . S
C307 C310 1.480 . S
C308 N305 1.372 . S
C308 N306 1.361 . S
C308 C316 1.457 . S
C309 N304 1.363 . S
C309 N306 1.377 . S
C309 C322 1.479 . S
C310 C307 1.480 . S
C310 C311 1.383 . S
C310 C315 1.385 . S
C311 H292 0.947 . S
C311 C310 1.383 . S
C311 C312 1.388 . S
C312 H293 0.946 . S
C312 C311 1.388 . S
C312 C313 1.384 . S
C313 C312 1.384 . S
C313 C314 1.377 . S
C314 H294 0.953 . S
C314 C313 1.377 . S
C314 C315 1.369 . S
C315 H295 0.945 . S
C315 C310 1.385 . S
C315 C314 1.369 . S
C316 C308 1.457 . S
C316 C317 1.372 . S
C316 C321 1.364 . S
C317 H296 0.952 . S
C317 C316 1.372 . S
C317 C318 1.389 . S
C318 H297 0.949 . S
C318 C317 1.389 . S
C318 C319 1.387 . S
C319 C318 1.387 . S
C319 C320 1.372 . S
C320 H298 0.950 . S
C320 C319 1.372 . S
C320 C321 1.379 . S
C321 H299 0.948 . S
C321 C316 1.364 . S
C321 C320 1.379 . S
C322 C291 1.383 . S
C322 C309 1.479 . S
C322 C323 1.398 . S
C323 C288 1.382 . S
C323 H300 0.951 . S
C323 C322 1.398 . S
C324 C325 1.384 . S
C324 H337 0.947 . S
C324 C359 1.382 . S
C325 C324 1.384 . S
C325 C326 1.378 . S
C326 C325 1.378 . S
C326 C327 1.378 . S
C326 H338 0.952 . S
C327 C326 1.378 . S
C327 H339 0.950 . S
C327 C358 1.383 . S
H328 C347 0.947 . S
H329 C348 0.946 . S
H330 C350 0.953 . S
H331 C351 0.945 . S
H332 C353 0.952 . S
H333 C354 0.949 1_545 S
H334 C356 0.950 . S
H335 C357 0.948 . S
H336 C359 0.951 . S
H337 C324 0.947 . S
H338 C326 0.952 . S
H339 C327 0.950 . S
N340 C343 1.382 . S
N340 C345 1.363 . S
N341 C343 1.371 . S
N341 C344 1.372 . S
N342 C344 1.361 . S
N342 C345 1.377 . S
C343 N340 1.382 . S
C343 N341 1.371 . S
C343 C346 1.480 . S
C344 N341 1.372 . S
C344 N342 1.361 . S
C344 C352 1.457 . S
C345 N340 1.363 . S
C345 N342 1.377 . S
C345 C358 1.479 . S
C346 C343 1.480 . S
C346 C347 1.383 . S
C346 C351 1.385 1_565 S
C347 H328 0.947 . S
C347 C346 1.383 . S
C347 C348 1.388 1_565 S
C348 H329 0.946 . S
C348 C347 1.388 1_545 S
C348 C349 1.384 . S
C349 C348 1.384 . S
C349 C350 1.377 . S
C350 H330 0.953 . S
C350 C349 1.377 . S
C350 C351 1.369 . S
C351 H331 0.945 . S
C351 C346 1.385 1_545 S
C351 C350 1.369 . S
C352 C344 1.457 . S
C352 C353 1.372 . S
C352 C357 1.364 . S
C353 H332 0.952 . S
C353 C352 1.372 . S
C353 C354 1.389 . S
C354 H333 0.949 1_565 S
C354 C353 1.389 . S
C354 C355 1.387 . S
C355 C354 1.387 . S
C355 C356 1.372 . S
C356 H334 0.950 . S
C356 C355 1.372 . S
C356 C357 1.379 . S
C357 H335 0.948 . S
C357 C352 1.364 . S
C357 C356 1.379 . S
C358 C327 1.383 . S
C358 C345 1.479 . S
C358 C359 1.398 . S
C359 C324 1.382 . S
C359 H336 0.951 . S
C359 C358 1.398 . S
C360 C361 1.384 . S
C360 H373 0.947 . S
C360 C395 1.382 . S
C361 C360 1.384 . S
C361 C362 1.378 . S
C362 C361 1.378 . S
C362 C363 1.378 . S
C362 H374 0.952 . S
C363 C362 1.378 . S
C363 H375 0.950 . S
C363 C394 1.383 . S
H364 C383 0.947 . S
H365 C384 0.946 . S
H366 C386 0.953 . S
H367 C387 0.945 . S
H368 C389 0.952 . S
H369 C390 0.949 . S
H370 C392 0.950 . S
H371 C393 0.948 . S
H372 C395 0.951 . S
H373 C360 0.947 . S
H374 C362 0.952 . S
H375 C363 0.950 . S
N376 C379 1.382 . S
N376 C381 1.363 . S
N377 C379 1.371 . S
N377 C380 1.372 . S
N378 C380 1.361 . S
N378 C381 1.377 . S
C379 N376 1.382 . S
C379 N377 1.371 . S
C379 C382 1.480 . S
C380 N377 1.372 . S
C380 N378 1.361 . S
C380 C388 1.457 . S
C381 N376 1.363 . S
C381 N378 1.377 . S
C381 C394 1.479 . S
C382 C379 1.480 . S
C382 C383 1.383 . S
C382 C387 1.385 . S
C383 H364 0.947 . S
C383 C382 1.383 . S
C383 C384 1.388 . S
C384 H365 0.946 . S
C384 C383 1.388 . S
C384 C385 1.384 . S
C385 C384 1.384 . S
C385 C386 1.377 . S
C386 H366 0.953 . S
C386 C385 1.377 . S
C386 C387 1.369 . S
C387 H367 0.945 . S
C387 C382 1.385 . S
C387 C386 1.369 . S
C388 C380 1.457 . S
C388 C389 1.372 . S
C388 C393 1.364 . S
C389 H368 0.952 . S
C389 C388 1.372 . S
C389 C390 1.389 . S
C390 H369 0.949 . S
C390 C389 1.389 . S
C390 C391 1.387 . S
C391 C390 1.387 . S
C391 C392 1.372 . S
C392 H370 0.950 . S
C392 C391 1.372 . S
C392 C393 1.379 . S
C393 H371 0.948 . S
C393 C388 1.364 . S
C393 C392 1.379 . S
C394 C363 1.383 . S
C394 C381 1.479 . S
C394 C395 1.398 . S
C395 C360 1.382 . S
C395 H372 0.951 . S
C395 C394 1.398 . S
C396 C397 1.384 . S
C396 H409 0.947 . S
C396 C431 1.382 . S
C397 C396 1.384 . S
C397 C398 1.378 . S
C398 C397 1.378 . S
C398 C399 1.378 . S
C398 H410 0.952 . S
C399 C398 1.378 . S
C399 H411 0.950 . S
C399 C430 1.383 . S
H400 C419 0.947 . S
H401 C420 0.946 . S
H402 C422 0.953 . S
H403 C423 0.945 . S
H404 C425 0.952 . S
H405 C426 0.949 . S
H406 C428 0.950 . S
H407 C429 0.948 . S
H408 C431 0.951 . S
H409 C396 0.947 . S
H410 C398 0.952 . S
H411 C399 0.950 . S
N412 C415 1.382 . S
N412 C417 1.363 . S
N413 C415 1.371 . S
N413 C416 1.372 . S
N414 C416 1.361 . S
N414 C417 1.377 . S
C415 N412 1.382 . S
C415 N413 1.371 . S
C415 C418 1.480 . S
C416 N413 1.372 . S
C416 N414 1.361 . S
C416 C424 1.457 . S
C417 N412 1.363 . S
C417 N414 1.377 . S
C417 C430 1.479 . S
C418 C415 1.480 . S
C418 C419 1.383 . S
C418 C423 1.385 . S
C419 H400 0.947 . S
C419 C418 1.383 . S
C419 C420 1.388 . S
C420 H401 0.946 . S
C420 C419 1.388 . S
C420 C421 1.384 . S
C421 C420 1.384 . S
C421 C422 1.377 . S
C422 H402 0.953 . S
C422 C421 1.377 . S
C422 C423 1.369 . S
C423 H403 0.945 . S
C423 C418 1.385 . S
C423 C422 1.369 . S
C424 C416 1.457 . S
C424 C425 1.372 . S
C424 C429 1.364 . S
C425 H404 0.952 . S
C425 C424 1.372 . S
C425 C426 1.389 . S
C426 H405 0.949 . S
C426 C425 1.389 . S
C426 C427 1.387 . S
C427 C426 1.387 . S
C427 C428 1.372 . S
C428 H406 0.950 . S
C428 C427 1.372 . S
C428 C429 1.379 . S
C429 H407 0.948 . S
C429 C424 1.364 . S
C429 C428 1.379 . S
C430 C399 1.383 . S
C430 C417 1.479 . S
C430 C431 1.398 . S
C431 C396 1.382 . S
C431 H408 0.951 . S
C431 C430 1.398 . S
C432 C433 1.384 . S
C432 H445 0.947 . S
C432 C467 1.382 . S
C433 C432 1.384 . S
C433 C434 1.378 . S
C434 C433 1.378 . S
C434 C435 1.378 . S
C434 H446 0.952 . S
C435 C434 1.378 . S
C435 H447 0.950 . S
C435 C466 1.383 . S
H436 C455 0.947 . S
H437 C456 0.946 . S
H438 C458 0.953 . S
H439 C459 0.945 . S
H440 C461 0.952 . S
H441 C462 0.949 . S
H442 C464 0.950 . S
H443 C465 0.948 . S
H444 C467 0.951 . S
H445 C432 0.947 . S
H446 C434 0.952 . S
H447 C435 0.950 . S
N448 C451 1.382 . S
N448 C453 1.363 . S
N449 C451 1.371 . S
N449 C452 1.372 . S
N450 C452 1.361 . S
N450 C453 1.377 . S
C451 N448 1.382 . S
C451 N449 1.371 . S
C451 C454 1.480 . S
C452 N449 1.372 . S
C452 N450 1.361 . S
C452 C460 1.457 . S
C453 N448 1.363 . S
C453 N450 1.377 . S
C453 C466 1.479 . S
C454 C451 1.480 . S
C454 C455 1.383 . S
C454 C459 1.385 . S
C455 H436 0.947 . S
C455 C454 1.383 . S
C455 C456 1.388 . S
C456 H437 0.946 . S
C456 C455 1.388 . S
C456 C457 1.384 . S
C457 C456 1.384 . S
C457 C458 1.377 . S
C458 H438 0.953 . S
C458 C457 1.377 . S
C458 C459 1.369 . S
C459 H439 0.945 . S
C459 C454 1.385 . S
C459 C458 1.369 . S
C460 C452 1.457 . S
C460 C461 1.372 . S
C460 C465 1.364 . S
C461 H440 0.952 . S
C461 C460 1.372 . S
C461 C462 1.389 . S
C462 H441 0.949 . S
C462 C461 1.389 . S
C462 C463 1.387 . S
C463 C462 1.387 . S
C463 C464 1.372 . S
C464 H442 0.950 . S
C464 C463 1.372 . S
C464 C465 1.379 . S
C465 H443 0.948 . S
C465 C460 1.364 . S
C465 C464 1.379 . S
C466 C435 1.383 . S
C466 C453 1.479 . S
C466 C467 1.398 . S
C467 C432 1.382 . S
C467 H444 0.951 . S
C467 C466 1.398 . S
C468 C469 1.384 . S
C468 H481 0.947 . S
C468 C503 1.382 . S
C469 C468 1.384 . S
C469 C470 1.378 1_554 S
C470 C469 1.378 1_556 S
C470 C471 1.378 . S
C470 H482 0.952 . S
C471 C470 1.378 . S
C471 H483 0.950 . S
C471 C502 1.383 . S
H472 C491 0.947 . S
H473 C492 0.946 . S
H474 C494 0.953 . S
H475 C495 0.945 . S
H476 C497 0.952 . S
H477 C498 0.949 . S
H478 C500 0.950 1_554 S
H479 C501 0.948 . S
H480 C503 0.951 . S
H481 C468 0.947 . S
H482 C470 0.952 . S
H483 C471 0.950 . S
N484 C487 1.382 . S
N484 C489 1.363 . S
N485 C487 1.371 . S
N485 C488 1.372 . S
N486 C488 1.361 . S
N486 C489 1.377 . S
C487 N484 1.382 . S
C487 N485 1.371 . S
C487 C490 1.480 . S
C488 N485 1.372 . S
C488 N486 1.361 . S
C488 C496 1.457 . S
C489 N484 1.363 . S
C489 N486 1.377 . S
C489 C502 1.479 . S
C490 C487 1.480 . S
C490 C491 1.383 . S
C490 C495 1.385 . S
C491 H472 0.947 . S
C491 C490 1.383 . S
C491 C492 1.388 . S
C492 H473 0.946 . S
C492 C491 1.388 . S
C492 C493 1.384 . S
C493 C492 1.384 . S
C493 C494 1.377 . S
C494 H474 0.953 . S
C494 C493 1.377 . S
C494 C495 1.369 . S
C495 H475 0.945 . S
C495 C490 1.385 . S
C495 C494 1.369 . S
C496 C488 1.457 . S
C496 C497 1.372 . S
C496 C501 1.364 . S
C497 H476 0.952 . S
C497 C496 1.372 . S
C497 C498 1.389 . S
C498 H477 0.949 . S
C498 C497 1.389 . S
C498 C499 1.387 . S
C499 C498 1.387 . S
C499 C500 1.372 . S
C500 H478 0.950 1_556 S
C500 C499 1.372 . S
C500 C501 1.379 . S
C501 H479 0.948 . S
C501 C496 1.364 . S
C501 C500 1.379 . S
C502 C471 1.383 . S
C502 C489 1.479 . S
C502 C503 1.398 1_556 S
C503 C468 1.382 . S
C503 H480 0.951 . S
C503 C502 1.398 1_554 S
C504 C505 1.384 . S
C504 H517 0.947 . S
C504 C539 1.382 . S
C505 C504 1.384 . S
C505 C506 1.378 . S
C506 C505 1.378 . S
C506 C507 1.378 . S
C506 H518 0.952 . S
C507 C506 1.378 . S
C507 H519 0.950 . S
C507 C538 1.383 . S
H508 C527 0.947 . S
H509 C528 0.946 . S
H510 C530 0.953 . S
H511 C531 0.945 . S
H512 C533 0.952 . S
H513 C534 0.949 . S
H514 C536 0.950 . S
H515 C537 0.948 . S
H516 C539 0.951 . S
H517 C504 0.947 . S
H518 C506 0.952 . S
H519 C507 0.950 . S
N520 C523 1.382 . S
N520 C525 1.363 . S
N521 C523 1.371 . S
N521 C524 1.372 . S
N522 C524 1.361 . S
N522 C525 1.377 . S
C523 N520 1.382 . S
C523 N521 1.371 . S
C523 C526 1.480 . S
C524 N521 1.372 . S
C524 N522 1.361 . S
C524 C532 1.457 . S
C525 N520 1.363 . S
C525 N522 1.377 . S
C525 C538 1.479 . S
C526 C523 1.480 . S
C526 C527 1.383 . S
C526 C531 1.385 . S
C527 H508 0.947 . S
C527 C526 1.383 . S
C527 C528 1.388 . S
C528 H509 0.946 . S
C528 C527 1.388 . S
C528 C529 1.384 . S
C529 C528 1.384 . S
C529 C530 1.377 . S
C530 H510 0.953 . S
C530 C529 1.377 . S
C530 C531 1.369 . S
C531 H511 0.945 . S
C531 C526 1.385 . S
C531 C530 1.369 . S
C532 C524 1.457 . S
C532 C533 1.372 . S
C532 C537 1.364 . S
C533 H512 0.952 . S
C533 C532 1.372 . S
C533 C534 1.389 . S
C534 H513 0.949 . S
C534 C533 1.389 . S
C534 C535 1.387 . S
C535 C534 1.387 . S
C535 C536 1.372 . S
C536 H514 0.950 . S
C536 C535 1.372 . S
C536 C537 1.379 . S
C537 H515 0.948 . S
C537 C532 1.364 . S
C537 C536 1.379 . S
C538 C507 1.383 . S
C538 C525 1.479 . S
C538 C539 1.398 . S
C539 C504 1.382 . S
C539 H516 0.951 . S
C539 C538 1.398 . S
C540 C541 1.384 . S
C540 H553 0.947 . S
C540 C575 1.382 1_554 S
C541 C540 1.384 . S
C541 C542 1.378 . S
C542 C541 1.378 . S
C542 C543 1.378 . S
C542 H554 0.952 . S
C543 C542 1.378 . S
C543 H555 0.950 . S
C543 C574 1.383 . S
H544 C563 0.947 1_554 S
H545 C564 0.946 1_554 S
H546 C566 0.953 . S
H547 C567 0.945 . S
H548 C569 0.952 1_565 S
H549 C570 0.949 1_565 S
H550 C572 0.950 . S
H551 C573 0.948 . S
H552 C575 0.951 . S
H553 C540 0.947 . S
H554 C542 0.952 . S
H555 C543 0.950 . S
N556 C559 1.382 . S
N556 C561 1.363 . S
N557 C559 1.371 . S
N557 C560 1.372 . S
N558 C560 1.361 . S
N558 C561 1.377 . S
C559 N556 1.382 . S
C559 N557 1.371 . S
C559 C562 1.458 1_545 S
C560 N557 1.372 . S
C560 N558 1.361 . S
C560 C568 1.457 . S
C561 N556 1.363 . S
C561 N558 1.377 . S
C561 C574 1.479 1_556 S
C562 C559 1.458 1_565 S
C562 C563 1.374 1_565 S
C562 C567 1.416 . S
C563 H544 0.947 1_556 S
C563 C562 1.374 1_545 S
C563 C564 1.388 1_545 S
C564 H545 0.946 1_556 S
C564 C563 1.388 1_565 S
C564 C565 1.384 . S
C565 C564 1.384 . S
C565 C566 1.377 . S
C566 H546 0.953 . S
C566 C565 1.377 . S
C566 C567 1.369 . S
C567 H547 0.945 . S
C567 C562 1.416 . S
C567 C566 1.369 . S
C568 C560 1.457 . S
C568 C569 1.372 . S
C568 C573 1.364 . S
C569 H548 0.952 1_545 S
C569 C568 1.372 . S
C569 C570 1.389 . S
C570 H549 0.949 1_545 S
C570 C569 1.389 . S
C570 C571 1.387 . S
C571 C570 1.387 . S
C571 C572 1.372 . S
C572 H550 0.950 . S
C572 C571 1.372 . S
C572 C573 1.379 . S
C573 H551 0.948 . S
C573 C568 1.364 . S
C573 C572 1.379 . S
C574 C543 1.383 . S
C574 C561 1.479 1_554 S
C574 C575 1.398 1_554 S
C575 C540 1.382 1_556 S
C575 H552 0.951 . S
C575 C574 1.398 1_556 S
Mg576 O577 2.034 . S
Mg576 O583 1.986 1_554 S
Mg576 O585 2.114 . S
Mg576 O586 2.251 . S
Mg576 O589 2.010 . S
O577 Mg576 2.034 . S
O577 C580 1.245 1_554 S
O578 Mg579 2.028 . S
O578 C580 1.248 . S
Mg579 O578 2.028 . S
Mg579 O584 2.032 . S
Mg579 O586 2.079 1_556 S
C580 O577 1.245 1_556 S
C580 O578 1.248 . S
C581 O582 1.264 . S
C581 O589 1.249 . S
O582 C581 1.264 . S
O583 Mg576 1.986 1_556 S
O583 C587 1.246 . S
O584 Mg579 2.032 . S
O584 C587 1.259 . S
O585 Mg576 2.114 . S
O585 C588 1.252 . S
O586 Mg576 2.251 . S
O586 Mg579 2.079 1_554 S
O586 C588 1.273 . S
C587 O583 1.246 . S
C587 O584 1.259 . S
C588 O585 1.252 . S
C588 O586 1.273 . S
O589 Mg576 2.010 . S
O589 C581 1.249 . S
Mg590 O591 2.028 . S
Mg590 O597 1.986 . S
Mg590 O599 2.114 . S
Mg590 O600 2.251 . S
Mg590 O603 2.010 . S
O591 Mg590 2.028 . S
O591 C594 1.250 . S
O592 Mg593 2.028 . S
O592 C594 1.248 . S
Mg593 O592 2.028 . S
Mg593 O598 2.032 . S
Mg593 O600 2.079 . S
C594 O591 1.250 . S
C594 O592 1.248 . S
C595 O596 1.264 . S
C595 O603 1.249 . S
O596 C595 1.264 . S
O597 Mg590 1.986 . S
O597 C601 1.246 . S
O598 Mg593 2.032 . S
O598 C601 1.259 . S
O599 Mg590 2.114 . S
O599 C602 1.252 . S
O600 Mg590 2.251 . S
O600 Mg593 2.079 . S
O600 C602 1.273 . S
C601 O597 1.246 . S
C601 O598 1.259 . S
C602 O599 1.252 . S
C602 O600 1.273 . S
O603 Mg590 2.010 . S
O603 C595 1.249 . S
Mg604 O605 2.028 . S
Mg604 O611 1.986 1_554 S
Mg604 O613 2.114 . S
Mg604 O614 2.251 . S
Mg604 O617 2.010 . S
O605 Mg604 2.028 . S
O605 C608 1.251 1_554 S
O606 Mg607 2.028 . S
O606 C608 1.248 . S
Mg607 O606 2.028 . S
Mg607 O612 2.032 . S
Mg607 O614 2.079 1_556 S
C608 O605 1.251 1_556 S
C608 O606 1.248 . S
C609 O610 1.264 . S
C609 O617 1.249 . S
O610 C609 1.264 . S
O611 Mg604 1.986 1_556 S
O611 C615 1.246 . S
O612 Mg607 2.032 . S
O612 C615 1.259 . S
O613 Mg604 2.114 . S
O613 C616 1.252 . S
O614 Mg604 2.251 . S
O614 Mg607 2.079 1_554 S
O614 C616 1.273 . S
C615 O611 1.246 . S
C615 O612 1.259 . S
C616 O613 1.252 . S
C616 O614 1.273 . S
O617 Mg604 2.010 . S
O617 C609 1.249 . S
Mg618 O619 2.028 . S
Mg618 O625 1.986 . S
Mg618 O627 2.114 . S
Mg618 O628 2.251 . S
Mg618 O631 2.010 . S
O619 Mg618 2.028 . S
O619 C622 1.250 1_545 S
O620 Mg621 2.028 . S
O620 C622 1.248 . S
Mg621 O620 2.028 . S
Mg621 O626 2.032 . S
Mg621 O628 2.079 1_565 S
C622 O619 1.250 1_565 S
C622 O620 1.248 . S
C623 O624 1.264 . S
C623 O631 1.249 . S
O624 C623 1.264 . S
O625 Mg618 1.986 . S
O625 C629 1.246 . S
O626 Mg621 2.032 . S
O626 C629 1.259 1_565 S
O627 Mg618 2.114 . S
O627 C630 1.252 . S
O628 Mg618 2.251 . S
O628 Mg621 2.079 1_545 S
O628 C630 1.273 . S
C629 O625 1.246 . S
C629 O626 1.259 1_545 S
C630 O627 1.252 . S
C630 O628 1.273 . S
O631 Mg618 2.010 . S
O631 C623 1.249 . S
Mg632 O633 2.028 . S
Mg632 O639 1.986 . S
Mg632 O641 2.114 . S
Mg632 O642 2.251 . S
Mg632 O645 2.010 . S
O633 Mg632 2.028 . S
O633 C636 1.250 . S
O634 Mg635 2.028 . S
O634 C636 1.248 . S
Mg635 O634 2.028 . S
Mg635 O640 2.032 . S
Mg635 O642 2.079 . S
C636 O633 1.250 . S
C636 O634 1.248 . S
C637 O638 1.264 . S
C637 O645 1.249 . S
O638 C637 1.264 . S
O639 Mg632 1.986 . S
O639 C643 1.246 . S
O640 Mg635 2.032 . S
O640 C643 1.259 . S
O641 Mg632 2.114 . S
O641 C644 1.252 . S
O642 Mg632 2.251 . S
O642 Mg635 2.079 . S
O642 C644 1.273 . S
C643 O639 1.246 . S
C643 O640 1.259 . S
C644 O641 1.252 . S
C644 O642 1.273 . S
O645 Mg632 2.010 . S
O645 C637 1.249 . S
Mg646 O647 2.028 . S
Mg646 O653 1.986 . S
Mg646 O655 2.114 . S
Mg646 O656 2.251 . S
Mg646 O659 2.010 . S
O647 Mg646 2.028 . S
O647 C650 1.250 . S
O648 Mg649 2.028 . S
O648 C650 1.248 . S
Mg649 O648 2.028 . S
Mg649 O654 2.032 . S
Mg649 O656 2.079 . S
C650 O647 1.250 . S
C650 O648 1.248 . S
C651 O652 1.264 . S
C651 O659 1.249 . S
O652 C651 1.264 . S
O653 Mg646 1.986 . S
O653 C657 1.246 . S
O654 Mg649 2.032 . S
O654 C657 1.259 . S
O655 Mg646 2.114 . S
O655 C658 1.252 . S
O656 Mg646 2.251 . S
O656 Mg649 2.079 . S
O656 C658 1.273 . S
C657 O653 1.246 . S
C657 O654 1.259 . S
C658 O655 1.252 . S
C658 O656 1.273 . S
O659 Mg646 2.010 . S
O659 C651 1.249 . S
Mg660 O661 2.028 . S
Mg660 O667 1.986 . S
Mg660 O669 2.114 . S
Mg660 O670 2.251 . S
Mg660 O673 2.010 . S
O661 Mg660 2.028 . S
O661 C664 1.250 . S
O662 Mg663 2.028 . S
O662 C664 1.248 . S
Mg663 O662 2.028 . S
Mg663 O668 2.032 . S
Mg663 O670 2.079 . S
C664 O661 1.250 . S
C664 O662 1.248 . S
C665 O666 1.264 . S
C665 O673 1.249 . S
O666 C665 1.264 . S
O667 Mg660 1.986 . S
O667 C671 1.246 . S
O668 Mg663 2.032 . S
O668 C671 1.259 . S
O669 Mg660 2.114 . S
O669 C672 1.252 . S
O670 Mg660 2.251 . S
O670 Mg663 2.079 . S
O670 C672 1.273 . S
C671 O667 1.246 . S
C671 O668 1.259 . S
C672 O669 1.252 . S
C672 O670 1.273 . S
O673 Mg660 2.010 . S
O673 C665 1.249 . S
Mg674 O675 2.028 1_545 S
Mg674 O681 1.986 1_545 S
Mg674 O683 2.114 . S
Mg674 O684 2.251 . S
Mg674 O687 2.010 . S
O675 Mg674 2.028 1_565 S
O675 C678 1.250 . S
O676 Mg677 2.028 . S
O676 C678 1.248 . S
Mg677 O676 2.028 . S
Mg677 O682 2.032 . S
Mg677 O684 2.079 1_565 S
C678 O675 1.250 . S
C678 O676 1.248 . S
C679 O680 1.264 . S
C679 O687 1.249 . S
O680 C679 1.264 . S
O681 Mg674 1.986 1_565 S
O681 C685 1.246 . S
O682 Mg677 2.032 . S
O682 C685 1.259 . S
O683 Mg674 2.114 . S
O683 C686 1.252 . S
O684 Mg674 2.251 . S
O684 Mg677 2.079 1_545 S
O684 C686 1.273 . S
C685 O681 1.246 . S
C685 O682 1.259 . S
C686 O683 1.252 . S
C686 O684 1.273 . S
O687 Mg674 2.010 . S
O687 C679 1.249 . S
Mg688 O689 2.028 . S
Mg688 O695 1.986 . S
Mg688 O697 2.114 . S
Mg688 O698 2.251 . S
Mg688 O701 2.010 . S
O689 Mg688 2.028 . S
O689 C692 1.250 1_455 S
O690 Mg691 2.028 . S
O690 C692 1.248 . S
Mg691 O690 2.028 . S
Mg691 O696 2.032 . S
Mg691 O698 2.079 1_655 S
C692 O689 1.250 1_655 S
C692 O690 1.248 . S
C693 O694 1.264 . S
C693 O701 1.249 . S
O694 C693 1.264 . S
O695 Mg688 1.986 . S
O695 C699 1.246 . S
O696 Mg691 2.032 . S
O696 C699 1.259 1_655 S
O697 Mg688 2.114 . S
O697 C700 1.252 . S
O698 Mg688 2.251 . S
O698 Mg691 2.079 1_455 S
O698 C700 1.273 . S
C699 O695 1.246 . S
C699 O696 1.259 1_455 S
C700 O697 1.252 . S
C700 O698 1.273 . S
O701 Mg688 2.010 . S
O701 C693 1.249 . S
Mg702 O703 2.028 . S
Mg702 O709 1.986 . S
Mg702 O711 2.114 . S
Mg702 O712 2.251 . S
Mg702 O715 2.010 . S
O703 Mg702 2.028 . S
O703 C706 1.250 . S
O704 Mg705 2.028 . S
O704 C706 1.248 . S
Mg705 O704 2.028 . S
Mg705 O710 2.032 . S
Mg705 O712 2.079 . S
C706 O703 1.250 . S
C706 O704 1.248 . S
C707 O708 1.264 . S
C707 O715 1.249 . S
O708 C707 1.264 . S
O709 Mg702 1.986 . S
O709 C713 1.246 . S
O710 Mg705 2.032 . S
O710 C713 1.259 . S
O711 Mg702 2.114 . S
O711 C714 1.252 . S
O712 Mg702 2.251 . S
O712 Mg705 2.079 . S
O712 C714 1.273 . S
C713 O709 1.246 . S
C713 O710 1.259 . S
C714 O711 1.252 . S
C714 O712 1.273 . S
O715 Mg702 2.010 . S
O715 C707 1.249 . S
Mg716 O717 2.028 1_655 S
Mg716 O723 1.986 . S
Mg716 O725 2.114 . S
Mg716 O726 2.251 1_655 S
Mg716 O729 2.010 . S
O717 Mg716 2.028 1_455 S
O717 C720 1.250 . S
O718 Mg719 2.028 . S
O718 C720 1.248 . S
Mg719 O718 2.028 . S
Mg719 O724 2.032 . S
Mg719 O726 2.079 . S
C720 O717 1.250 . S
C720 O718 1.248 . S
C721 O722 1.264 . S
C721 O729 1.249 . S
O722 C721 1.264 . S
O723 Mg716 1.986 . S
O723 C727 1.246 1_655 S
O724 Mg719 2.032 . S
O724 C727 1.259 . S
O725 Mg716 2.114 . S
O725 C728 1.252 . S
O726 Mg716 2.251 1_455 S
O726 Mg719 2.079 . S
O726 C728 1.273 1_455 S
C727 O723 1.246 1_455 S
C727 O724 1.259 . S
C728 O725 1.252 . S
C728 O726 1.273 1_655 S
O729 Mg716 2.010 . S
O729 C721 1.249 . S
Mg730 O731 2.028 . S
Mg730 O737 1.986 . S
Mg730 O739 2.114 . S
Mg730 O740 2.251 . S
Mg730 O743 2.010 . S
O731 Mg730 2.028 . S
O731 C734 1.250 . S
O732 Mg733 2.028 . S
O732 C734 1.248 . S
Mg733 O732 2.028 . S
Mg733 O738 2.032 . S
Mg733 O740 2.079 . S
C734 O731 1.250 . S
C734 O732 1.248 . S
C735 O736 1.264 . S
C735 O743 1.249 . S
O736 C735 1.264 . S
O737 Mg730 1.986 . S
O737 C741 1.246 . S
O738 Mg733 2.032 . S
O738 C741 1.259 . S
O739 Mg730 2.114 . S
O739 C742 1.252 . S
O740 Mg730 2.251 . S
O740 Mg733 2.079 . S
O740 C742 1.273 . S
C741 O737 1.246 . S
C741 O738 1.259 . S
C742 O739 1.252 . S
C742 O740 1.273 . S
O743 Mg730 2.010 . S
O743 C735 1.249 . S
H744 C750 0.930 . S
H745 C753 0.930 . S
H746 C754 0.930 . S
H747 C755 0.930 . S
H748 C758 0.930 . S
H749 C759 0.930 . S
C750 H744 0.930 . S
C750 C751 1.355 . S
C750 C752 1.415 . S
C751 C750 1.355 . S
C751 C753 1.419 . S
C752 C750 1.415 . S
C752 C757 1.425 . S
C752 C759 1.409 . S
C753 H745 0.930 . S
C753 C751 1.419 . S
C753 C754 1.362 . S
C754 H746 0.930 . S
C754 C753 1.362 . S
C754 C757 1.409 . S
C755 H747 0.930 . S
C755 C756 1.355 . S
C755 C757 1.415 . S
C756 C755 1.355 . S
C756 C758 1.419 . S
C757 C752 1.425 . S
C757 C754 1.409 . S
C757 C755 1.415 . S
C758 H748 0.930 . S
C758 C756 1.419 . S
C758 C759 1.362 . S
C759 H749 0.930 . S
C759 C752 1.409 . S
C759 C758 1.362 . S
H760 C766 0.930 . S
H761 C769 0.930 . S
H762 C770 0.930 . S
H763 C771 0.930 . S
H764 C774 0.930 . S
H765 C775 0.930 . S
C766 H760 0.930 . S
C766 C767 1.355 . S
C766 C768 1.415 . S
C767 C766 1.355 . S
C767 C769 1.419 . S
C768 C766 1.415 . S
C768 C773 1.425 . S
C768 C775 1.409 . S
C769 H761 0.930 . S
C769 C767 1.419 . S
C769 C770 1.362 . S
C770 H762 0.930 . S
C770 C769 1.362 . S
C770 C773 1.409 . S
C771 H763 0.930 . S
C771 C772 1.355 . S
C771 C773 1.415 . S
C772 C771 1.355 . S
C772 C774 1.419 . S
C773 C768 1.425 . S
C773 C770 1.409 . S
C773 C771 1.415 . S
C774 H764 0.930 . S
C774 C772 1.419 . S
C774 C775 1.362 . S
C775 H765 0.930 . S
C775 C768 1.409 . S
C775 C774 1.362 . S
H776 C782 0.930 . S
H777 C785 0.930 . S
H778 C786 0.930 . S
H779 C787 0.930 . S
H780 C790 0.930 . S
H781 C791 0.930 . S
C782 H776 0.930 . S
C782 C783 1.355 . S
C782 C784 1.415 . S
C783 C782 1.355 . S
C783 C785 1.419 . S
C784 C782 1.415 . S
C784 C789 1.425 . S
C784 C791 1.409 . S
C785 H777 0.930 . S
C785 C783 1.419 . S
C785 C786 1.362 . S
C786 H778 0.930 . S
C786 C785 1.362 . S
C786 C789 1.409 . S
C787 H779 0.930 . S
C787 C788 1.355 . S
C787 C789 1.415 . S
C788 C787 1.355 . S
C788 C790 1.419 . S
C789 C784 1.425 . S
C789 C786 1.409 . S
C789 C787 1.415 . S
C790 H780 0.930 . S
C790 C788 1.419 . S
C790 C791 1.362 . S
C791 H781 0.930 . S
C791 C784 1.409 . S
C791 C790 1.362 . S
H792 C798 0.930 . S
H793 C801 0.930 . S
H794 C802 0.930 . S
H795 C803 0.930 . S
H796 C806 0.930 . S
H797 C807 0.930 . S
C798 H792 0.930 . S
C798 C799 1.355 . S
C798 C800 1.415 . S
C799 C798 1.355 . S
C799 C801 1.419 1_565 S
C800 C798 1.415 . S
C800 C805 1.425 1_565 S
C800 C807 1.409 . S
C801 H793 0.930 . S
C801 C799 1.419 1_545 S
C801 C802 1.362 . S
C802 H794 0.930 . S
C802 C801 1.362 . S
C802 C805 1.409 . S
C803 H795 0.930 . S
C803 C804 1.355 . S
C803 C805 1.415 . S
C804 C803 1.355 . S
C804 C806 1.419 1_545 S
C805 C800 1.425 1_545 S
C805 C802 1.409 . S
C805 C803 1.415 . S
C806 H796 0.930 . S
C806 C804 1.419 1_565 S
C806 C807 1.362 . S
C807 H797 0.930 . S
C807 C800 1.409 . S
C807 C806 1.362 . S
H808 C814 0.930 . S
H809 C817 0.930 . S
H810 C818 0.930 . S
H811 C819 0.930 . S
H812 C822 0.930 . S
H813 C823 0.930 . S
C814 H808 0.930 . S
C814 C815 1.355 . S
C814 C816 1.415 . S
C815 C814 1.355 . S
C815 C817 1.419 . S
C816 C814 1.415 . S
C816 C821 1.425 . S
C816 C823 1.409 . S
C817 H809 0.930 . S
C817 C815 1.419 . S
C817 C818 1.362 . S
C818 H810 0.930 . S
C818 C817 1.362 . S
C818 C821 1.409 . S
C819 H811 0.930 . S
C819 C820 1.355 . S
C819 C821 1.415 . S
C820 C819 1.355 . S
C820 C822 1.419 . S
C821 C816 1.425 . S
C821 C818 1.409 . S
C821 C819 1.415 . S
C822 H812 0.930 . S
C822 C820 1.419 . S
C822 C823 1.362 . S
C823 H813 0.930 . S
C823 C816 1.409 . S
C823 C822 1.362 . S
H824 C830 0.930 . S
H825 C833 0.930 . S
H826 C834 0.930 . S
H827 C835 0.930 . S
H828 C838 0.930 . S
H829 C839 0.930 . S
C830 H824 0.930 . S
C830 C831 1.355 . S
C830 C832 1.415 . S
C831 C830 1.355 . S
C831 C833 1.419 . S
C832 C830 1.415 . S
C832 C837 1.425 . S
C832 C839 1.409 . S
C833 H825 0.930 . S
C833 C831 1.419 . S
C833 C834 1.362 . S
C834 H826 0.930 . S
C834 C833 1.362 . S
C834 C837 1.409 . S
C835 H827 0.930 . S
C835 C836 1.355 . S
C835 C837 1.415 . S
C836 C835 1.355 . S
C836 C838 1.419 . S
C837 C832 1.425 . S
C837 C834 1.409 . S
C837 C835 1.415 . S
C838 H828 0.930 . S
C838 C836 1.419 . S
C838 C839 1.362 . S
C839 H829 0.930 . S
C839 C832 1.409 . S
C839 C838 1.362 . S
H840 C846 0.930 . S
H841 C849 0.930 . S
H842 C850 0.930 . S
H843 C851 0.930 . S
H844 C854 0.930 . S
H845 C855 0.930 . S
C846 H840 0.930 . S
C846 C847 1.355 . S
C846 C848 1.415 . S
C847 C846 1.355 . S
C847 C849 1.419 . S
C848 C846 1.415 . S
C848 C853 1.425 . S
C848 C855 1.409 . S
C849 H841 0.930 . S
C849 C847 1.419 . S
C849 C850 1.362 . S
C850 H842 0.930 . S
C850 C849 1.362 . S
C850 C853 1.409 . S
C851 H843 0.930 . S
C851 C852 1.355 . S
C851 C853 1.415 . S
C852 C851 1.355 . S
C852 C854 1.419 . S
C853 C848 1.425 . S
C853 C850 1.409 . S
C853 C851 1.415 . S
C854 H844 0.930 . S
C854 C852 1.419 . S
C854 C855 1.362 . S
C855 H845 0.930 . S
C855 C848 1.409 . S
C855 C854 1.362 . S
H856 C862 0.930 1_545 S
H857 C865 0.930 . S
H858 C866 0.930 . S
H859 C867 0.930 . S
H860 C870 0.930 . S
H861 C871 0.930 . S
C862 H856 0.930 1_565 S
C862 C863 1.355 . S
C862 C864 1.415 . S
C863 C862 1.355 . S
C863 C865 1.419 . S
C864 C862 1.415 . S
C864 C869 1.425 . S
C864 C871 1.409 1_565 S
C865 H857 0.930 . S
C865 C863 1.419 . S
C865 C866 1.362 . S
C866 H858 0.930 . S
C866 C865 1.362 . S
C866 C869 1.409 . S
C867 H859 0.930 . S
C867 C868 1.355 . S
C867 C869 1.415 . S
C868 C867 1.355 . S
C868 C870 1.419 1_565 S
C869 C864 1.425 . S
C869 C866 1.409 . S
C869 C867 1.415 . S
C870 H860 0.930 . S
C870 C868 1.419 1_545 S
C870 C871 1.362 . S
C871 H861 0.930 . S
C871 C864 1.409 1_545 S
C871 C870 1.362 . S
H872 C878 0.930 . S
H873 C881 0.930 . S
H874 C882 0.930 . S
H875 C883 0.930 . S
H876 C886 0.930 . S
H877 C887 0.930 . S
C878 H872 0.930 . S
C878 C879 1.355 . S
C878 C880 1.415 . S
C879 C878 1.355 . S
C879 C881 1.419 . S
C880 C878 1.415 . S
C880 C885 1.425 . S
C880 C887 1.409 . S
C881 H873 0.930 . S
C881 C879 1.419 . S
C881 C882 1.362 . S
C882 H874 0.930 . S
C882 C881 1.362 . S
C882 C885 1.409 . S
C883 H875 0.930 . S
C883 C884 1.355 . S
C883 C885 1.415 . S
C884 C883 1.355 . S
C884 C886 1.419 . S
C885 C880 1.425 . S
C885 C882 1.409 . S
C885 C883 1.415 . S
C886 H876 0.930 . S
C886 C884 1.419 . S
C886 C887 1.362 . S
C887 H877 0.930 . S
C887 C880 1.409 . S
C887 C886 1.362 . S
H888 C894 0.930 . S
H889 C897 0.930 . S
H890 C898 0.930 . S
H891 C899 0.930 . S
H892 C902 0.930 . S
H893 C903 0.930 . S
C894 H888 0.930 . S
C894 C895 1.355 . S
C894 C896 1.415 . S
C895 C894 1.355 . S
C895 C897 1.419 . S
C896 C894 1.415 . S
C896 C901 1.425 . S
C896 C903 1.409 . S
C897 H889 0.930 . S
C897 C895 1.419 . S
C897 C898 1.362 . S
C898 H890 0.930 . S
C898 C897 1.362 . S
C898 C901 1.409 . S
C899 H891 0.930 . S
C899 C900 1.355 . S
C899 C901 1.415 . S
C900 C899 1.355 . S
C900 C902 1.419 . S
C901 C896 1.425 . S
C901 C898 1.409 . S
C901 C899 1.415 . S
C902 H892 0.930 . S
C902 C900 1.419 . S
C902 C903 1.362 . S
C903 H893 0.930 . S
C903 C896 1.409 . S
C903 C902 1.362 . S
H904 C910 0.930 . S
H905 C913 0.930 . S
H906 C914 0.930 . S
H907 C915 0.930 . S
H908 C918 0.930 . S
H909 C919 0.930 . S
C910 H904 0.930 . S
C910 C911 1.355 . S
C910 C912 1.415 . S
C911 C910 1.355 . S
C911 C913 1.419 . S
C912 C910 1.415 . S
C912 C917 1.425 . S
C912 C919 1.409 . S
C913 H905 0.930 . S
C913 C911 1.419 . S
C913 C914 1.362 . S
C914 H906 0.930 . S
C914 C913 1.362 . S
C914 C917 1.409 . S
C915 H907 0.930 . S
C915 C916 1.355 . S
C915 C917 1.415 . S
C916 C915 1.355 . S
C916 C918 1.419 . S
C917 C912 1.425 . S
C917 C914 1.409 . S
C917 C915 1.415 . S
C918 H908 0.930 . S
C918 C916 1.419 . S
C918 C919 1.362 . S
C919 H909 0.930 . S
C919 C912 1.409 . S
C919 C918 1.362 . S
H920 C926 0.930 . S
H921 C929 0.930 . S
H922 C930 0.930 . S
H923 C931 0.930 . S
H924 C934 0.930 . S
H925 C935 0.930 . S
C926 H920 0.930 . S
C926 C927 1.355 . S
C926 C928 1.415 . S
C927 C926 1.355 . S
C927 C929 1.419 . S
C928 C926 1.415 . S
C928 C933 1.425 . S
C928 C935 1.409 . S
C929 H921 0.930 . S
C929 C927 1.419 . S
C929 C930 1.362 . S
C930 H922 0.930 . S
C930 C929 1.362 . S
C930 C933 1.409 . S
C931 H923 0.930 . S
C931 C932 1.355 . S
C931 C933 1.415 . S
C932 C931 1.355 . S
C932 C934 1.419 . S
C933 C928 1.425 . S
C933 C930 1.409 . S
C933 C931 1.415 . S
C934 H924 0.930 . S
C934 C932 1.419 . S
C934 C935 1.362 . S
C935 H925 0.930 . S
C935 C928 1.409 . S
C935 C934 1.362 . S
H936 C942 0.930 . S
H937 C945 0.930 . S
H938 C946 0.930 . S
H939 C947 0.930 . S
H940 C950 0.930 . S
H941 C951 0.930 . S
C942 H936 0.930 . S
C942 C943 1.355 . S
C942 C944 1.415 . S
C943 C942 1.355 . S
C943 C945 1.419 . S
C944 C942 1.415 . S
C944 C949 1.425 . S
C944 C951 1.409 . S
C945 H937 0.930 . S
C945 C943 1.419 . S
C945 C946 1.362 . S
C946 H938 0.930 . S
C946 C945 1.362 . S
C946 C949 1.409 . S
C947 H939 0.930 . S
C947 C948 1.355 . S
C947 C949 1.415 . S
C948 C947 1.355 . S
C948 C950 1.419 . S
C949 C944 1.425 . S
C949 C946 1.409 . S
C949 C947 1.415 . S
C950 H940 0.930 . S
C950 C948 1.419 . S
C950 C951 1.362 . S
C951 H941 0.930 . S
C951 C944 1.409 . S
C951 C950 1.362 . S
H952 C958 0.930 . S
H953 C961 0.930 . S
H954 C962 0.930 . S
H955 C963 0.930 . S
H956 C966 0.930 . S
H957 C967 0.930 . S
C958 H952 0.930 . S
C958 C959 1.355 . S
C958 C960 1.415 . S
C959 C958 1.355 . S
C959 C961 1.419 . S
C960 C958 1.415 . S
C960 C965 1.425 . S
C960 C967 1.409 . S
C961 H953 0.930 . S
C961 C959 1.419 . S
C961 C962 1.362 . S
C962 H954 0.930 . S
C962 C961 1.362 . S
C962 C965 1.409 . S
C963 H955 0.930 . S
C963 C964 1.355 . S
C963 C965 1.415 . S
C964 C963 1.355 . S
C964 C966 1.419 . S
C965 C960 1.425 . S
C965 C962 1.409 . S
C965 C963 1.415 . S
C966 H956 0.930 . S
C966 C964 1.419 . S
C966 C967 1.362 . S
C967 H957 0.930 . S
C967 C960 1.409 . S
C967 C966 1.362 . S
H968 C974 0.930 . S
H969 C977 0.930 . S
H970 C978 0.930 . S
H971 C979 0.930 . S
H972 C982 0.930 . S
H973 C983 0.930 . S
C974 H968 0.930 . S
C974 C975 1.355 . S
C974 C976 1.415 . S
C975 C974 1.355 . S
C975 C977 1.419 . S
C976 C974 1.415 . S
C976 C981 1.425 . S
C976 C983 1.409 . S
C977 H969 0.930 . S
C977 C975 1.419 . S
C977 C978 1.362 . S
C978 H970 0.930 . S
C978 C977 1.362 . S
C978 C981 1.409 . S
C979 H971 0.930 . S
C979 C980 1.355 . S
C979 C981 1.415 . S
C980 C979 1.355 . S
C980 C982 1.419 . S
C981 C976 1.425 . S
C981 C978 1.409 . S
C981 C979 1.415 . S
C982 H972 0.930 . S
C982 C980 1.419 . S
C982 C983 1.362 . S
C983 H973 0.930 . S
C983 C976 1.409 . S
C983 C982 1.362 . S
H984 C990 0.930 . S
H985 C993 0.930 . S
H986 C994 0.930 . S
H987 C995 0.930 . S
H988 C998 0.930 . S
H989 C999 0.930 . S
C990 H984 0.930 . S
C990 C991 1.355 . S
C990 C992 1.415 . S
C991 C990 1.355 . S
C991 C993 1.419 1_655 S
C992 C990 1.415 . S
C992 C997 1.425 . S
C992 C999 1.409 . S
C993 H985 0.930 . S
C993 C991 1.419 1_455 S
C993 C994 1.362 . S
C994 H986 0.930 . S
C994 C993 1.362 . S
C994 C997 1.409 1_455 S
C995 H987 0.930 . S
C995 C996 1.355 1_455 S
C995 C997 1.415 1_455 S
C996 C995 1.355 1_655 S
C996 C998 1.419 . S
C997 C992 1.425 . S
C997 C994 1.409 1_655 S
C997 C995 1.415 1_655 S
C998 H988 0.930 . S
C998 C996 1.419 . S
C998 C999 1.362 . S
C999 H989 0.930 . S
C999 C992 1.409 . S
C999 C998 1.362 . S
H1000 C1006 0.930 . S
H1001 C1009 0.930 . S
H1002 C1010 0.930 . S
H1003 C1011 0.930 . S
H1004 C1014 0.930 . S
H1005 C1015 0.930 . S
C1006 H1000 0.930 . S
C1006 C1007 1.355 . S
C1006 C1008 1.415 . S
C1007 C1006 1.355 . S
C1007 C1009 1.419 . S
C1008 C1006 1.415 . S
C1008 C1013 1.425 . S
C1008 C1015 1.409 . S
C1009 H1001 0.930 . S
C1009 C1007 1.419 . S
C1009 C1010 1.362 . S
C1010 H1002 0.930 . S
C1010 C1009 1.362 . S
C1010 C1013 1.409 . S
C1011 H1003 0.930 . S
C1011 C1012 1.355 . S
C1011 C1013 1.415 . S
C1012 C1011 1.355 . S
C1012 C1014 1.419 . S
C1013 C1008 1.425 . S
C1013 C1010 1.409 . S
C1013 C1011 1.415 . S
C1014 H1004 0.930 . S
C1014 C1012 1.419 . S
C1014 C1015 1.362 . S
C1015 H1005 0.930 . S
C1015 C1008 1.409 . S
C1015 C1014 1.362 . S
H1016 C1022 0.930 . S
H1017 C1025 0.930 . S
H1018 C1026 0.930 . S
H1019 C1027 0.930 . S
H1020 C1030 0.930 . S
H1021 C1031 0.930 . S
C1022 H1016 0.930 . S
C1022 C1023 1.355 . S
C1022 C1024 1.415 . S
C1023 C1022 1.355 . S
C1023 C1025 1.419 . S
C1024 C1022 1.415 . S
C1024 C1029 1.425 . S
C1024 C1031 1.409 . S
C1025 H1017 0.930 . S
C1025 C1023 1.419 . S
C1025 C1026 1.362 . S
C1026 H1018 0.930 . S
C1026 C1025 1.362 . S
C1026 C1029 1.409 . S
C1027 H1019 0.930 . S
C1027 C1028 1.355 . S
C1027 C1029 1.415 . S
C1028 C1027 1.355 . S
C1028 C1030 1.419 . S
C1029 C1024 1.425 . S
C1029 C1026 1.409 . S
C1029 C1027 1.415 . S
C1030 H1020 0.930 . S
C1030 C1028 1.419 . S
C1030 C1031 1.362 . S
C1031 H1021 0.930 . S
C1031 C1024 1.409 . S
C1031 C1030 1.362 . S
H1032 C1038 0.930 1_554 S
H1033 C1041 0.930 . S
H1034 C1042 0.930 . S
H1035 C1043 0.930 . S
H1036 C1046 0.930 . S
H1037 C1047 0.930 . S
C1038 H1032 0.930 1_556 S
C1038 C1039 1.355 . S
C1038 C1040 1.415 . S
C1039 C1038 1.355 . S
C1039 C1041 1.419 . S
C1040 C1038 1.415 . S
C1040 C1045 1.425 . S
C1040 C1047 1.409 1_556 S
C1041 H1033 0.930 . S
C1041 C1039 1.419 . S
C1041 C1042 1.362 . S
C1042 H1034 0.930 . S
C1042 C1041 1.362 . S
C1042 C1045 1.409 . S
C1043 H1035 0.930 . S
C1043 C1044 1.355 . S
C1043 C1045 1.415 . S
C1044 C1043 1.355 . S
C1044 C1046 1.419 1_556 S
C1045 C1040 1.425 . S
C1045 C1042 1.409 . S
C1045 C1043 1.415 . S
C1046 H1036 0.930 . S
C1046 C1044 1.419 1_554 S
C1046 C1047 1.362 . S
C1047 H1037 0.930 . S
C1047 C1040 1.409 1_554 S
C1047 C1046 1.362 . S
H1048 C1054 0.930 . S
H1049 C1057 0.930 . S
H1050 C1058 0.930 . S
H1051 C1059 0.930 . S
H1052 C1062 0.930 . S
H1053 C1063 0.930 . S
C1054 H1048 0.930 . S
C1054 C1055 1.355 . S
C1054 C1056 1.415 . S
C1055 C1054 1.355 . S
C1055 C1057 1.419 . S
C1056 C1054 1.415 . S
C1056 C1061 1.425 . S
C1056 C1063 1.409 . S
C1057 H1049 0.930 . S
C1057 C1055 1.419 . S
C1057 C1058 1.362 . S
C1058 H1050 0.930 . S
C1058 C1057 1.362 . S
C1058 C1061 1.409 . S
C1059 H1051 0.930 . S
C1059 C1060 1.355 . S
C1059 C1061 1.415 . S
C1060 C1059 1.355 . S
C1060 C1062 1.419 . S
C1061 C1056 1.425 . S
C1061 C1058 1.409 . S
C1061 C1059 1.415 . S
C1062 H1052 0.930 . S
C1062 C1060 1.419 . S
C1062 C1063 1.362 . S
C1063 H1053 0.930 . S
C1063 C1056 1.409 . S
C1063 C1062 1.362 . S
H1064 C1070 0.930 . S
H1065 C1073 0.930 . S
H1066 C1074 0.930 . S
H1067 C1075 0.930 . S
H1068 C1078 0.930 . S
H1069 C1079 0.930 . S
C1070 H1064 0.930 . S
C1070 C1071 1.355 . S
C1070 C1072 1.415 . S
C1071 C1070 1.355 . S
C1071 C1073 1.419 . S
C1072 C1070 1.415 . S
C1072 C1077 1.425 . S
C1072 C1079 1.409 . S
C1073 H1065 0.930 . S
C1073 C1071 1.419 . S
C1073 C1074 1.362 . S
C1074 H1066 0.930 . S
C1074 C1073 1.362 . S
C1074 C1077 1.409 . S
C1075 H1067 0.930 . S
C1075 C1076 1.355 . S
C1075 C1077 1.415 . S
C1076 C1075 1.355 . S
C1076 C1078 1.419 . S
C1077 C1072 1.425 . S
C1077 C1074 1.409 . S
C1077 C1075 1.415 . S
C1078 H1068 0.930 . S
C1078 C1076 1.419 . S
C1078 C1079 1.362 . S
C1079 H1069 0.930 . S
C1079 C1072 1.409 . S
C1079 C1078 1.362 . S
H1080 C1086 0.930 . S
H1081 C1089 0.930 . S
H1082 C1090 0.930 . S
H1083 C1091 0.930 . S
H1084 C1094 0.930 . S
H1085 C1095 0.930 . S
C1086 H1080 0.930 . S
C1086 C1087 1.355 . S
C1086 C1088 1.415 . S
C1087 C1086 1.355 . S
C1087 C1089 1.419 . S
C1088 C1086 1.415 . S
C1088 C1093 1.425 . S
C1088 C1095 1.409 . S
C1089 H1081 0.930 . S
C1089 C1087 1.419 . S
C1089 C1090 1.362 . S
C1090 H1082 0.930 . S
C1090 C1089 1.362 . S
C1090 C1093 1.409 . S
C1091 H1083 0.930 . S
C1091 C1092 1.355 . S
C1091 C1093 1.415 . S
C1092 C1091 1.355 . S
C1092 C1094 1.419 . S
C1093 C1088 1.425 . S
C1093 C1090 1.409 . S
C1093 C1091 1.415 . S
C1094 H1084 0.930 . S
C1094 C1092 1.419 . S
C1094 C1095 1.362 . S
C1095 H1085 0.930 . S
C1095 C1088 1.409 . S
C1095 C1094 1.362 . S
H1096 C1102 0.930 . S
H1097 C1105 0.930 . S
H1098 C1106 0.930 . S
H1099 C1107 0.930 . S
H1100 C1110 0.930 . S
H1101 C1111 0.930 . S
C1102 H1096 0.930 . S
C1102 C1103 1.355 . S
C1102 C1104 1.415 . S
C1103 C1102 1.355 . S
C1103 C1105 1.419 . S
C1104 C1102 1.415 . S
C1104 C1109 1.425 . S
C1104 C1111 1.409 . S
C1105 H1097 0.930 . S
C1105 C1103 1.419 . S
C1105 C1106 1.362 . S
C1106 H1098 0.930 . S
C1106 C1105 1.362 . S
C1106 C1109 1.409 . S
C1107 H1099 0.930 . S
C1107 C1108 1.355 . S
C1107 C1109 1.415 . S
C1108 C1107 1.355 . S
C1108 C1110 1.419 . S
C1109 C1104 1.425 . S
C1109 C1106 1.409 . S
C1109 C1107 1.415 . S
C1110 H1100 0.930 . S
C1110 C1108 1.419 . S
C1110 C1111 1.362 . S
C1111 H1101 0.930 . S
C1111 C1104 1.409 . S
C1111 C1110 1.362 . S
H1112 C1118 0.930 . S
H1113 C1121 0.930 . S
H1114 C1122 0.930 . S
H1115 C1123 0.930 . S
H1116 C1126 0.930 . S
H1117 C1127 0.930 . S
C1118 H1112 0.930 . S
C1118 C1119 1.355 . S
C1118 C1120 1.415 . S
C1119 C1118 1.355 . S
C1119 C1121 1.419 . S
C1120 C1118 1.415 . S
C1120 C1125 1.425 . S
C1120 C1127 1.409 . S
C1121 H1113 0.930 . S
C1121 C1119 1.419 . S
C1121 C1122 1.362 . S
C1122 H1114 0.930 . S
C1122 C1121 1.362 . S
C1122 C1125 1.409 . S
C1123 H1115 0.930 . S
C1123 C1124 1.355 . S
C1123 C1125 1.415 . S
C1124 C1123 1.355 . S
C1124 C1126 1.419 . S
C1125 C1120 1.425 . S
C1125 C1122 1.409 . S
C1125 C1123 1.415 . S
C1126 H1116 0.930 . S
C1126 C1124 1.419 . S
C1126 C1127 1.362 . S
C1127 H1117 0.930 . S
C1127 C1120 1.409 . S
C1127 C1126 1.362 . S
H1128 C1134 0.930 . S
H1129 C1137 0.930 . S
H1130 C1138 0.930 . S
H1131 C1139 0.930 . S
H1132 C1142 0.930 . S
H1133 C1143 0.930 . S
C1134 H1128 0.930 . S
C1134 C1135 1.355 . S
C1134 C1136 1.415 . S
C1135 C1134 1.355 . S
C1135 C1137 1.419 . S
C1136 C1134 1.415 . S
C1136 C1141 1.425 . S
C1136 C1143 1.409 . S
C1137 H1129 0.930 . S
C1137 C1135 1.419 . S
C1137 C1138 1.362 . S
C1138 H1130 0.930 . S
C1138 C1137 1.362 . S
C1138 C1141 1.409 . S
C1139 H1131 0.930 . S
C1139 C1140 1.355 . S
C1139 C1141 1.415 . S
C1140 C1139 1.355 . S
C1140 C1142 1.419 . S
C1141 C1136 1.425 . S
C1141 C1138 1.409 . S
C1141 C1139 1.415 . S
C1142 H1132 0.930 . S
C1142 C1140 1.419 . S
C1142 C1143 1.362 . S
C1143 H1133 0.930 . S
C1143 C1136 1.409 . S
C1143 C1142 1.362 . S
H1144 C1150 0.930 . S
H1145 C1153 0.930 . S
H1146 C1154 0.917 1_565 S
H1147 C1155 0.930 1_565 S
H1148 C1158 0.930 . S
H1149 C1159 0.930 . S
C1150 H1144 0.930 . S
C1150 C1151 1.355 . S
C1150 C1152 1.415 . S
C1151 C1150 1.355 . S
C1151 C1153 1.419 . S
C1152 C1150 1.415 . S
C1152 C1157 1.425 . S
C1152 C1159 1.409 . S
C1153 H1145 0.930 . S
C1153 C1151 1.419 . S
C1153 C1154 1.368 . S
C1154 H1146 0.917 1_545 S
C1154 C1153 1.368 . S
C1154 C1157 1.418 . S
C1155 H1147 0.930 1_545 S
C1155 C1156 1.355 . S
C1155 C1157 1.415 . S
C1156 C1155 1.355 . S
C1156 C1158 1.419 . S
C1157 C1152 1.425 . S
C1157 C1154 1.418 . S
C1157 C1155 1.415 . S
C1158 H1148 0.930 . S
C1158 C1156 1.419 . S
C1158 C1159 1.362 . S
C1159 H1149 0.930 . S
C1159 C1152 1.409 . S
C1159 C1158 1.362 . S
H1160 C1166 0.930 . S
H1161 C1169 0.930 . S
H1162 C1170 0.930 . S
H1163 C1171 0.930 . S
H1164 C1174 0.930 . S
H1165 C1175 0.930 . S
C1166 H1160 0.930 . S
C1166 C1167 1.355 . S
C1166 C1168 1.415 . S
C1167 C1166 1.355 . S
C1167 C1169 1.419 . S
C1168 C1166 1.415 . S
C1168 C1173 1.425 . S
C1168 C1175 1.409 . S
C1169 H1161 0.930 . S
C1169 C1167 1.419 . S
C1169 C1170 1.362 . S
C1170 H1162 0.930 . S
C1170 C1169 1.362 . S
C1170 C1173 1.409 . S
C1171 H1163 0.930 . S
C1171 C1172 1.355 . S
C1171 C1173 1.415 . S
C1172 C1171 1.355 . S
C1172 C1174 1.419 . S
C1173 C1168 1.425 . S
C1173 C1170 1.409 . S
C1173 C1171 1.415 . S
C1174 H1164 0.930 . S
C1174 C1172 1.419 . S
C1174 C1175 1.362 . S
C1175 H1165 0.930 . S
C1175 C1168 1.409 . S
C1175 C1174 1.362 . S
H1176 C1182 0.930 . S
H1177 C1185 0.930 . S
H1178 C1186 0.930 . S
H1179 C1187 0.930 . S
H1180 C1190 0.930 . S
H1181 C1191 0.930 . S
C1182 H1176 0.930 . S
C1182 C1183 1.355 . S
C1182 C1184 1.415 . S
C1183 C1182 1.355 . S
C1183 C1185 1.419 . S
C1184 C1182 1.415 . S
C1184 C1189 1.425 . S
C1184 C1191 1.409 . S
C1185 H1177 0.930 . S
C1185 C1183 1.419 . S
C1185 C1186 1.362 . S
C1186 H1178 0.930 . S
C1186 C1185 1.362 . S
C1186 C1189 1.409 . S
C1187 H1179 0.930 . S
C1187 C1188 1.355 . S
C1187 C1189 1.415 . S
C1188 C1187 1.355 . S
C1188 C1190 1.419 . S
C1189 C1184 1.425 . S
C1189 C1186 1.409 . S
C1189 C1187 1.415 . S
C1190 H1180 0.930 . S
C1190 C1188 1.419 . S
C1190 C1191 1.362 . S
C1191 H1181 0.930 . S
C1191 C1184 1.409 . S
C1191 C1190 1.362 . S
H1192 C1198 0.930 . S
H1193 C1201 0.930 . S
H1194 C1202 0.930 . S
H1195 C1203 0.930 . S
H1196 C1206 0.930 . S
H1197 C1207 0.930 . S
C1198 H1192 0.930 . S
C1198 C1199 1.355 . S
C1198 C1200 1.415 . S
C1199 C1198 1.355 . S
C1199 C1201 1.419 . S
C1200 C1198 1.415 . S
C1200 C1205 1.425 . S
C1200 C1207 1.409 . S
C1201 H1193 0.930 . S
C1201 C1199 1.419 . S
C1201 C1202 1.362 . S
C1202 H1194 0.930 . S
C1202 C1201 1.362 . S
C1202 C1205 1.409 . S
C1203 H1195 0.930 . S
C1203 C1204 1.355 . S
C1203 C1205 1.415 . S
C1204 C1203 1.355 . S
C1204 C1206 1.419 . S
C1205 C1200 1.425 . S
C1205 C1202 1.409 . S
C1205 C1203 1.415 . S
C1206 H1196 0.930 . S
C1206 C1204 1.419 . S
C1206 C1207 1.362 . S
C1207 H1197 0.930 . S
C1207 C1200 1.409 . S
C1207 C1206 1.362 . S
H1208 C1214 0.930 . S
H1209 C1217 0.930 . S
H1210 C1218 0.930 . S
H1211 C1219 0.930 . S
H1212 C1222 0.930 . S
H1213 C1223 0.930 . S
C1214 H1208 0.930 . S
C1214 C1215 1.355 . S
C1214 C1216 1.415 . S
C1215 C1214 1.355 . S
C1215 C1217 1.419 . S
C1216 C1214 1.415 . S
C1216 C1221 1.425 . S
C1216 C1223 1.409 . S
C1217 H1209 0.930 . S
C1217 C1215 1.419 . S
C1217 C1218 1.362 . S
C1218 H1210 0.930 . S
C1218 C1217 1.362 . S
C1218 C1221 1.409 . S
C1219 H1211 0.930 . S
C1219 C1220 1.355 . S
C1219 C1221 1.415 . S
C1220 C1219 1.355 . S
C1220 C1222 1.419 . S
C1221 C1216 1.425 . S
C1221 C1218 1.409 . S
C1221 C1219 1.415 . S
C1222 H1212 0.930 . S
C1222 C1220 1.419 . S
C1222 C1223 1.362 . S
C1223 H1213 0.930 . S
C1223 C1216 1.409 . S
C1223 C1222 1.362 . S
H1224 C1230 0.930 . S
H1225 C1233 0.930 . S
H1226 C1234 0.930 . S
H1227 C1235 0.930 . S
H1228 C1238 0.930 . S
H1229 C1239 0.930 . S
C1230 H1224 0.930 . S
C1230 C1231 1.355 . S
C1230 C1232 1.415 . S
C1231 C1230 1.355 . S
C1231 C1233 1.419 . S
C1232 C1230 1.415 . S
C1232 C1237 1.425 . S
C1232 C1239 1.409 . S
C1233 H1225 0.930 . S
C1233 C1231 1.419 . S
C1233 C1234 1.362 . S
C1234 H1226 0.930 . S
C1234 C1233 1.362 . S
C1234 C1237 1.409 . S
C1235 H1227 0.930 . S
C1235 C1236 1.355 . S
C1235 C1237 1.415 . S
C1236 C1235 1.355 . S
C1236 C1238 1.419 . S
C1237 C1232 1.425 . S
C1237 C1234 1.409 . S
C1237 C1235 1.415 . S
C1238 H1228 0.930 . S
C1238 C1236 1.419 . S
C1238 C1239 1.362 . S
C1239 H1229 0.930 . S
C1239 C1232 1.409 . S
C1239 C1238 1.362 . S
H1240 C1246 0.930 . S
H1241 C1249 0.930 . S
H1242 C1250 0.930 . S
H1243 C1251 0.930 . S
H1244 C1254 0.930 . S
H1245 C1255 0.930 . S
C1246 H1240 0.930 . S
C1246 C1247 1.355 . S
C1246 C1248 1.415 . S
C1247 C1246 1.355 . S
C1247 C1249 1.419 . S
C1248 C1246 1.415 . S
C1248 C1253 1.425 . S
C1248 C1255 1.409 . S
C1249 H1241 0.930 . S
C1249 C1247 1.419 . S
C1249 C1250 1.362 . S
C1250 H1242 0.930 . S
C1250 C1249 1.362 . S
C1250 C1253 1.409 . S
C1251 H1243 0.930 . S
C1251 C1252 1.355 . S
C1251 C1253 1.415 . S
C1252 C1251 1.355 . S
C1252 C1254 1.419 . S
C1253 C1248 1.425 . S
C1253 C1250 1.409 . S
C1253 C1251 1.415 . S
C1254 H1244 0.930 . S
C1254 C1252 1.419 . S
C1254 C1255 1.362 . S
C1255 H1245 0.930 . S
C1255 C1248 1.409 . S
C1255 C1254 1.362 . S
H1256 C1262 0.930 . S
H1257 C1265 0.930 . S
H1258 C1266 0.930 . S
H1259 C1267 0.930 . S
H1260 C1270 0.930 . S
H1261 C1271 0.930 . S
C1262 H1256 0.930 . S
C1262 C1263 1.355 . S
C1262 C1264 1.415 . S
C1263 C1262 1.355 . S
C1263 C1265 1.419 . S
C1264 C1262 1.415 . S
C1264 C1269 1.425 . S
C1264 C1271 1.409 . S
C1265 H1257 0.930 . S
C1265 C1263 1.419 . S
C1265 C1266 1.362 . S
C1266 H1258 0.930 . S
C1266 C1265 1.362 . S
C1266 C1269 1.409 . S
C1267 H1259 0.930 . S
C1267 C1268 1.355 . S
C1267 C1269 1.415 . S
C1268 C1267 1.355 . S
C1268 C1270 1.419 . S
C1269 C1264 1.425 . S
C1269 C1266 1.409 . S
C1269 C1267 1.415 . S
C1270 H1260 0.930 . S
C1270 C1268 1.419 . S
C1270 C1271 1.362 . S
C1271 H1261 0.930 . S
C1271 C1264 1.409 . S
C1271 C1270 1.362 . S
H1272 C1278 0.930 . S
H1273 C1281 0.930 . S
H1274 C1282 0.930 . S
H1275 C1283 0.930 . S
H1276 C1286 0.930 . S
H1277 C1287 0.930 . S
C1278 H1272 0.930 . S
C1278 C1279 1.355 1_455 S
C1278 C1280 1.415 . S
C1279 C1278 1.355 1_655 S
C1279 C1281 1.419 . S
C1280 C1278 1.415 . S
C1280 C1285 1.425 1_455 S
C1280 C1287 1.409 . S
C1281 H1273 0.930 . S
C1281 C1279 1.419 . S
C1281 C1282 1.362 . S
C1282 H1274 0.930 . S
C1282 C1281 1.362 . S
C1282 C1285 1.409 . S
C1283 H1275 0.930 . S
C1283 C1284 1.355 1_655 S
C1283 C1285 1.415 . S
C1284 C1283 1.355 1_455 S
C1284 C1286 1.419 . S
C1285 C1280 1.425 1_655 S
C1285 C1282 1.409 . S
C1285 C1283 1.415 . S
C1286 H1276 0.930 . S
C1286 C1284 1.419 . S
C1286 C1287 1.362 . S
C1287 H1277 0.930 . S
C1287 C1280 1.409 . S
C1287 C1286 1.362 . S
H1288 C1294 0.930 . S
H1289 C1297 0.930 . S
H1290 C1298 0.930 . S
H1291 C1299 0.930 . S
H1292 C1302 0.930 . S
H1293 C1303 0.930 . S
C1294 H1288 0.930 . S
C1294 C1295 1.355 . S
C1294 C1296 1.415 . S
C1295 C1294 1.355 . S
C1295 C1297 1.419 . S
C1296 C1294 1.415 . S
C1296 C1301 1.425 . S
C1296 C1303 1.409 . S
C1297 H1289 0.930 . S
C1297 C1295 1.419 . S
C1297 C1298 1.362 . S
C1298 H1290 0.930 . S
C1298 C1297 1.362 . S
C1298 C1301 1.409 . S
C1299 H1291 0.930 . S
C1299 C1300 1.355 . S
C1299 C1301 1.415 . S
C1300 C1299 1.355 . S
C1300 C1302 1.419 . S
C1301 C1296 1.425 . S
C1301 C1298 1.409 . S
C1301 C1299 1.415 . S
C1302 H1292 0.930 . S
C1302 C1300 1.419 . S
C1302 C1303 1.362 . S
C1303 H1293 0.930 . S
C1303 C1296 1.409 . S
C1303 C1302 1.362 . S
H1304 C1310 0.930 1_655 S
H1305 C1313 0.930 . S
H1306 C1314 0.930 . S
H1307 C1315 0.930 . S
H1308 C1318 0.930 1_655 S
H1309 C1319 0.930 . S
C1310 H1304 0.930 1_455 S
C1310 C1311 1.355 . S
C1310 C1312 1.415 . S
C1311 C1310 1.355 . S
C1311 C1313 1.419 . S
C1312 C1310 1.415 . S
C1312 C1317 1.425 . S
C1312 C1319 1.409 1_455 S
C1313 H1305 0.930 . S
C1313 C1311 1.419 . S
C1313 C1314 1.362 . S
C1314 H1306 0.930 . S
C1314 C1313 1.362 . S
C1314 C1317 1.409 . S
C1315 H1307 0.930 . S
C1315 C1316 1.355 . S
C1315 C1317 1.415 . S
C1316 C1315 1.355 . S
C1316 C1318 1.419 . S
C1317 C1312 1.425 . S
C1317 C1314 1.409 . S
C1317 C1315 1.415 . S
C1318 H1308 0.930 1_455 S
C1318 C1316 1.419 . S
C1318 C1319 1.362 1_455 S
C1319 H1309 0.930 . S
C1319 C1312 1.409 1_655 S
C1319 C1318 1.362 1_655 S
H1320 C1326 0.930 . S
H1321 C1329 0.930 . S
H1322 C1330 0.930 . S
H1323 C1331 0.930 . S
H1324 C1334 0.930 . S
H1325 C1335 0.930 . S
C1326 H1320 0.930 . S
C1326 C1327 1.355 . S
C1326 C1328 1.415 . S
C1327 C1326 1.355 . S
C1327 C1329 1.419 . S
C1328 C1326 1.415 . S
C1328 C1333 1.425 . S
C1328 C1335 1.409 . S
C1329 H1321 0.930 . S
C1329 C1327 1.419 . S
C1329 C1330 1.362 . S
C1330 H1322 0.930 . S
C1330 C1329 1.362 . S
C1330 C1333 1.409 . S
C1331 H1323 0.930 . S
C1331 C1332 1.355 . S
C1331 C1333 1.415 . S
C1332 C1331 1.355 . S
C1332 C1334 1.419 . S
C1333 C1328 1.425 . S
C1333 C1330 1.409 . S
C1333 C1331 1.415 . S
C1334 H1324 0.930 . S
C1334 C1332 1.419 . S
C1334 C1335 1.362 . S
C1335 H1325 0.930 . S
C1335 C1328 1.409 . S
C1335 C1334 1.362 . S
H1336 C1342 0.930 . S
H1337 C1345 0.930 . S
H1338 C1346 0.930 . S
H1339 C1347 0.930 . S
H1340 C1350 0.930 . S
H1341 C1351 0.930 . S
C1342 H1336 0.930 . S
C1342 C1343 1.355 . S
C1342 C1344 1.415 . S
C1343 C1342 1.355 . S
C1343 C1345 1.419 . S
C1344 C1342 1.415 . S
C1344 C1349 1.425 . S
C1344 C1351 1.409 . S
C1345 H1337 0.930 . S
C1345 C1343 1.419 . S
C1345 C1346 1.362 . S
C1346 H1338 0.930 . S
C1346 C1345 1.362 . S
C1346 C1349 1.409 . S
C1347 H1339 0.930 . S
C1347 C1348 1.355 . S
C1347 C1349 1.415 . S
C1348 C1347 1.355 . S
C1348 C1350 1.419 . S
C1349 C1344 1.425 . S
C1349 C1346 1.409 . S
C1349 C1347 1.415 . S
C1350 H1340 0.930 . S
C1350 C1348 1.419 . S
C1350 C1351 1.362 . S
C1351 H1341 0.930 . S
C1351 C1344 1.409 . S
C1351 C1350 1.362 . S
H1352 C1358 0.930 . S
H1353 C1361 0.930 . S
H1354 C1362 0.930 . S
H1355 C1363 0.930 . S
H1356 C1366 0.930 . S
H1357 C1367 0.930 . S
C1358 H1352 0.930 . S
C1358 C1359 1.355 . S
C1358 C1360 1.415 . S
C1359 C1358 1.355 . S
C1359 C1361 1.419 . S
C1360 C1358 1.415 . S
C1360 C1365 1.425 . S
C1360 C1367 1.409 . S
C1361 H1353 0.930 . S
C1361 C1359 1.419 . S
C1361 C1362 1.362 . S
C1362 H1354 0.930 . S
C1362 C1361 1.362 . S
C1362 C1365 1.409 . S
C1363 H1355 0.930 . S
C1363 C1364 1.355 . S
C1363 C1365 1.415 . S
C1364 C1363 1.355 . S
C1364 C1366 1.419 . S
C1365 C1360 1.425 . S
C1365 C1362 1.409 . S
C1365 C1363 1.415 . S
C1366 H1356 0.930 . S
C1366 C1364 1.419 . S
C1366 C1367 1.362 . S
C1367 H1357 0.930 . S
C1367 C1360 1.409 . S
C1367 C1366 1.362 . S
H1368 C1374 0.930 . S
H1369 C1377 0.930 . S
H1370 C1378 0.930 . S
H1371 C1379 0.930 . S
H1372 C1382 0.930 . S
H1373 C1383 0.930 . S
C1374 H1368 0.930 . S
C1374 C1375 1.355 . S
C1374 C1376 1.415 . S
C1375 C1374 1.355 . S
C1375 C1377 1.419 . S
C1376 C1374 1.415 . S
C1376 C1381 1.425 . S
C1376 C1383 1.409 . S
C1377 H1369 0.930 . S
C1377 C1375 1.419 . S
C1377 C1378 1.362 . S
C1378 H1370 0.930 . S
C1378 C1377 1.362 . S
C1378 C1381 1.409 . S
C1379 H1371 0.930 . S
C1379 C1380 1.355 . S
C1379 C1381 1.415 . S
C1380 C1379 1.355 . S
C1380 C1382 1.419 . S
C1381 C1376 1.425 . S
C1381 C1378 1.409 . S
C1381 C1379 1.415 . S
C1382 H1372 0.930 . S
C1382 C1380 1.419 . S
C1382 C1383 1.362 . S
C1383 H1373 0.930 . S
C1383 C1376 1.409 . S
C1383 C1382 1.362 . S
H1384 C1390 0.930 . S
H1385 C1393 0.930 . S
H1386 C1394 0.930 . S
H1387 C1395 0.930 . S
H1388 C1398 0.930 . S
H1389 C1399 0.930 . S
C1390 H1384 0.930 . S
C1390 C1391 1.355 . S
C1390 C1392 1.415 . S
C1391 C1390 1.355 . S
C1391 C1393 1.419 . S
C1392 C1390 1.415 . S
C1392 C1397 1.425 . S
C1392 C1399 1.409 . S
C1393 H1385 0.930 . S
C1393 C1391 1.419 . S
C1393 C1394 1.362 . S
C1394 H1386 0.930 . S
C1394 C1393 1.362 . S
C1394 C1397 1.409 . S
C1395 H1387 0.930 . S
C1395 C1396 1.355 . S
C1395 C1397 1.415 . S
C1396 C1395 1.355 . S
C1396 C1398 1.419 . S
C1397 C1392 1.425 . S
C1397 C1394 1.409 . S
C1397 C1395 1.415 . S
C1398 H1388 0.930 . S
C1398 C1396 1.419 . S
C1398 C1399 1.362 . S
C1399 H1389 0.930 . S
C1399 C1392 1.409 . S
C1399 C1398 1.362 . S
H1400 C1406 0.930 . S
H1401 C1409 0.930 . S
H1402 C1410 0.930 . S
H1403 C1411 0.930 . S
H1404 C1414 0.930 . S
H1405 C1415 0.930 . S
C1406 H1400 0.930 . S
C1406 C1407 1.355 . S
C1406 C1408 1.415 . S
C1407 C1406 1.355 . S
C1407 C1409 1.419 . S
C1408 C1406 1.415 . S
C1408 C1413 1.425 . S
C1408 C1415 1.409 . S
C1409 H1401 0.930 . S
C1409 C1407 1.419 . S
C1409 C1410 1.362 . S
C1410 H1402 0.930 . S
C1410 C1409 1.362 . S
C1410 C1413 1.409 . S
C1411 H1403 0.930 . S
C1411 C1412 1.355 . S
C1411 C1413 1.415 . S
C1412 C1411 1.355 . S
C1412 C1414 1.419 . S
C1413 C1408 1.425 . S
C1413 C1410 1.409 . S
C1413 C1411 1.415 . S
C1414 H1404 0.930 . S
C1414 C1412 1.419 . S
C1414 C1415 1.362 . S
C1415 H1405 0.930 . S
C1415 C1408 1.409 . S
C1415 C1414 1.362 . S
H1416 C1422 0.930 . S
H1417 C1425 0.930 . S
H1418 C1426 0.930 . S
H1419 C1427 0.930 . S
H1420 C1430 0.930 . S
H1421 C1431 0.930 . S
C1422 H1416 0.930 . S
C1422 C1423 1.355 . S
C1422 C1424 1.415 . S
C1423 C1422 1.355 . S
C1423 C1425 1.419 . S
C1424 C1422 1.415 . S
C1424 C1429 1.425 . S
C1424 C1431 1.409 . S
C1425 H1417 0.930 . S
C1425 C1423 1.419 . S
C1425 C1426 1.362 . S
C1426 H1418 0.930 . S
C1426 C1425 1.362 . S
C1426 C1429 1.409 . S
C1427 H1419 0.930 . S
C1427 C1428 1.355 . S
C1427 C1429 1.415 . S
C1428 C1427 1.355 . S
C1428 C1430 1.419 . S
C1429 C1424 1.425 . S
C1429 C1426 1.409 . S
C1429 C1427 1.415 . S
C1430 H1420 0.930 . S
C1430 C1428 1.419 . S
C1430 C1431 1.362 . S
C1431 H1421 0.930 . S
C1431 C1424 1.409 . S
C1431 C1430 1.362 . S
H1432 C1438 0.930 . S
H1433 C1441 0.930 . S
H1434 C1442 0.930 . S
H1435 C1443 0.930 . S
H1436 C1446 0.930 . S
H1437 C1447 0.930 . S
C1438 H1432 0.930 . S
C1438 C1439 1.355 . S
C1438 C1440 1.415 . S
C1439 C1438 1.355 . S
C1439 C1441 1.419 . S
C1440 C1438 1.415 . S
C1440 C1445 1.425 . S
C1440 C1447 1.409 . S
C1441 H1433 0.930 . S
C1441 C1439 1.419 . S
C1441 C1442 1.362 . S
C1442 H1434 0.930 . S
C1442 C1441 1.362 . S
C1442 C1445 1.409 . S
C1443 H1435 0.930 . S
C1443 C1444 1.355 . S
C1443 C1445 1.415 . S
C1444 C1443 1.355 . S
C1444 C1446 1.419 . S
C1445 C1440 1.425 . S
C1445 C1442 1.409 . S
C1445 C1443 1.415 . S
C1446 H1436 0.930 . S
C1446 C1444 1.419 . S
C1446 C1447 1.362 . S
C1447 H1437 0.930 . S
C1447 C1440 1.409 . S
C1447 C1446 1.362 . S
H1448 C1454 0.930 . S
H1449 C1457 0.930 . S
H1450 C1458 0.930 . S
H1451 C1459 0.930 . S
H1452 C1462 0.930 . S
H1453 C1463 0.930 . S
C1454 H1448 0.930 . S
C1454 C1455 1.355 1_554 S
C1454 C1456 1.415 . S
C1455 C1454 1.355 1_556 S
C1455 C1457 1.419 . S
C1456 C1454 1.415 . S
C1456 C1461 1.425 1_554 S
C1456 C1463 1.409 . S
C1457 H1449 0.930 . S
C1457 C1455 1.419 . S
C1457 C1458 1.362 . S
C1458 H1450 0.930 . S
C1458 C1457 1.362 . S
C1458 C1461 1.409 . S
C1459 H1451 0.930 . S
C1459 C1460 1.397 . S
C1459 C1461 1.415 . S
C1460 C1459 1.397 . S
C1460 C1462 1.374 1_556 S
C1461 C1456 1.425 1_556 S
C1461 C1458 1.409 . S
C1461 C1459 1.415 . S
C1462 H1452 0.930 . S
C1462 C1460 1.374 1_554 S
C1462 C1463 1.362 . S
C1463 H1453 0.930 . S
C1463 C1456 1.409 . S
C1463 C1462 1.362 . S
H1464 C1470 0.930 . S
H1465 C1473 0.930 . S
H1466 C1474 0.930 . S
H1467 C1475 0.930 . S
H1468 C1478 0.930 . S
H1469 C1479 0.930 . S
C1470 H1464 0.930 . S
C1470 C1471 1.355 . S
C1470 C1472 1.415 . S
C1471 C1470 1.355 . S
C1471 C1473 1.419 . S
C1472 C1470 1.415 . S
C1472 C1477 1.425 . S
C1472 C1479 1.409 . S
C1473 H1465 0.930 . S
C1473 C1471 1.419 . S
C1473 C1474 1.362 . S
C1474 H1466 0.930 . S
C1474 C1473 1.362 . S
C1474 C1477 1.409 . S
C1475 H1467 0.930 . S
C1475 C1476 1.355 . S
C1475 C1477 1.415 . S
C1476 C1475 1.355 . S
C1476 C1478 1.419 . S
C1477 C1472 1.425 . S
C1477 C1474 1.409 . S
C1477 C1475 1.415 . S
C1478 H1468 0.930 . S
C1478 C1476 1.419 . S
C1478 C1479 1.362 . S
C1479 H1469 0.930 . S
C1479 C1472 1.409 . S
C1479 C1478 1.362 . S
H1480 C1486 0.930 . S
H1481 C1489 0.930 . S
H1482 C1490 0.930 . S
H1483 C1491 0.930 . S
H1484 C1494 0.930 . S
H1485 C1495 0.930 . S
C1486 H1480 0.930 . S
C1486 C1487 1.355 . S
C1486 C1488 1.415 . S
C1487 C1486 1.355 . S
C1487 C1489 1.419 . S
C1488 C1486 1.415 . S
C1488 C1493 1.425 . S
C1488 C1495 1.409 . S
C1489 H1481 0.930 . S
C1489 C1487 1.419 . S
C1489 C1490 1.362 . S
C1490 H1482 0.930 . S
C1490 C1489 1.362 . S
C1490 C1493 1.409 . S
C1491 H1483 0.930 . S
C1491 C1492 1.355 . S
C1491 C1493 1.415 . S
C1492 C1491 1.355 . S
C1492 C1494 1.419 . S
C1493 C1488 1.425 . S
C1493 C1490 1.409 . S
C1493 C1491 1.415 . S
C1494 H1484 0.930 . S
C1494 C1492 1.419 . S
C1494 C1495 1.362 . S
C1495 H1485 0.930 . S
C1495 C1488 1.409 . S
C1495 C1494 1.362 . S
H1496 C1502 0.930 1_556 S
H1497 C1505 0.930 . S
H1498 C1506 0.930 . S
H1499 C1507 0.930 . S
H1500 C1510 0.930 . S
H1501 C1511 0.930 . S
C1502 H1496 0.930 1_554 S
C1502 C1503 1.355 . S
C1502 C1504 1.415 . S
C1503 C1502 1.355 . S
C1503 C1505 1.419 . S
C1504 C1502 1.415 . S
C1504 C1509 1.425 . S
C1504 C1511 1.409 1_554 S
C1505 H1497 0.930 . S
C1505 C1503 1.419 . S
C1505 C1506 1.362 . S
C1506 H1498 0.930 . S
C1506 C1505 1.362 . S
C1506 C1509 1.409 . S
C1507 H1499 0.930 . S
C1507 C1508 1.355 . S
C1507 C1509 1.415 . S
C1508 C1507 1.355 . S
C1508 C1510 1.419 1_554 S
C1509 C1504 1.425 . S
C1509 C1506 1.409 . S
C1509 C1507 1.415 . S
C1510 H1500 0.930 . S
C1510 C1508 1.419 1_556 S
C1510 C1511 1.362 . S
C1511 H1501 0.930 . S
C1511 C1504 1.409 1_556 S
C1511 C1510 1.362 . S
C756 C587 1.421 . S
C751 C181 1.453 . S
C772 C595 1.264 . S
C767 C247 1.534 . S
C783 C283 1.419 . S
C788 C615 1.421 . S
C804 C629 1.471 . S
C799 C169 1.518 . S
C820 C644 1.526 . S
C815 C361 1.522 . S
C836 C658 1.508 . S
C831 C433 1.481 . S
C847 C421 1.548 . S
C852 C672 1.552 . S
C868 C678 1.436 . S
C863 C355 1.491 . S
C879 C427 1.514 . S
C884 C692 1.464 . S
C900 C713 1.512 . S
C895 C325 1.547 . S
C911 C385 1.465 . S
C916 C693 1.192 . S
C932 C714 1.538 . S
C927 C463 1.530 . S
C943 C253 1.492 . S
C948 C721 1.303 . S
C959 C145 1.514 . S
C964 C727 1.474 . S
C975 C205 1.471 . S
C980 C720 1.409 . S
C991 C217 1.475 . S
C996 C728 1.467 . S
C1007 C139 1.489 . S
C1012 C622 1.429 . S
C1023 C535 1.491 . S
C1028 C623 1.319 . S
C1044 C580 1.518 . S
C1039 C565 1.533 . S
C1060 C601 1.425 . S
C1055 C313 1.460 . S
C1071 C175 1.503 . S
C1076 C636 1.479 . S
C1092 C686 1.521 . S
C1087 C397 1.523 . S
C1108 C637 1.268 . S
C1103 C349 1.439 . S
C1124 C665 1.213 . S
C1119 C457 1.519 . S
C1140 C671 1.452 . S
C1135 C505 1.463 . S
C1151 C571 1.535 . S
C1156 C679 1.320 . S
C1167 C319 1.450 . S
C1172 C643 1.420 . S
C1188 C657 1.514 . S
C1183 C493 1.498 . S
C1199 C109 1.522 . S
C1204 C616 1.526 . S
C1220 C630 1.514 . S
C1215 C1 1.515 . S
C1236 C588 1.552 . S
C1231 C61 1.546 . S
C1252 C594 1.415 . S
C1247 C103 1.490 . S
C1263 C67 1.531 . S
C1268 C706 1.517 . S
C1279 C73 1.538 . S
C1284 C699 1.529 . S
C1295 C133 1.469 . S
C1300 C707 1.290 . S
C1311 C31 1.530 . S
C1316 C700 1.538 . S
C1332 C735 1.242 . S
C1327 C289 1.495 . S
C1348 C741 1.499 . S
C1343 C469 1.488 . S
C1364 C734 1.413 . S
C1359 C529 1.477 . S
C1375 C541 1.476 . S
C1380 C742 1.468 . S
C1391 C391 1.501 . S
C1396 C650 1.489 . S
C1412 C651 1.266 . S
C1407 C211 1.471 . S
C1428 C664 1.510 . S
C1423 C241 1.533 . S
C1444 C685 1.425 . S
C1439 C277 1.460 . S
C1455 C499 1.494 . S
C1460 C608 1.483 . S
C1476 C602 1.519 . S
C1471 C37 1.514 . S
C1487 C97 1.441 . S
C1492 C609 1.270 . S
C1508 C581 1.235 . S
C1503 C25 1.522 . S
