# Generated by pormake.
# Topology pyr, (3,6)-cn, num edge types: 1
# Building blocks:
#     Node 0, Type 0, BuildingBlock: PAMTOO_clean_linker_0, # of connection points: 3
#     Node 1, Type 0, BuildingBlock: PAMTOO_clean_linker_0, # of connection points: 3
#     Node 2, Type 0, BuildingBlock: PAMTOO_clean_linker_0, # of connection points: 3
#     Node 3, Type 0, BuildingBlock: PAMTOO_clean_linker_0, # of connection points: 3
#     Node 4, Type 0, BuildingBlock: PAMTOO_clean_linker_0, # of connection points: 3
#     Node 5, Type 0, BuildingBlock: PAMTOO_clean_linker_0, # of connection points: 3
#     Node 6, Type 0, BuildingBlock: PAMTOO_clean_linker_0, # of connection points: 3
#     Node 7, Type 0, BuildingBlock: PAMTOO_clean_linker_0, # of connection points: 3
#     Node 8, Type 1, BuildingBlock: JUFBIX_clean_sbu_0, # of connection points: 6
#     Node 9, Type 1, BuildingBlock: JUFBIX_clean_sbu_0, # of connection points: 6
#     Node 10, Type 1, BuildingBlock: JUFBIX_clean_sbu_0, # of connection points: 6
#     Node 11, Type 1, BuildingBlock: JUFBIX_clean_sbu_0, # of connection points: 6
#     Edge 12, Type (0, 1), BuildingBlock: MIFKUJ_clean_linker_0, # of connection points: 2
#     Edge 13, Type (0, 1), BuildingBlock: MIFKUJ_clean_linker_0, # of connection points: 2
#     Edge 14, Type (0, 1), BuildingBlock: MIFKUJ_clean_linker_0, # of connection points: 2
#     Edge 15, Type (0, 1), BuildingBlock: MIFKUJ_clean_linker_0, # of connection points: 2
#     Edge 16, Type (0, 1), BuildingBlock: MIFKUJ_clean_linker_0, # of connection points: 2
#     Edge 17, Type (0, 1), BuildingBlock: MIFKUJ_clean_linker_0, # of connection points: 2
#     Edge 18, Type (0, 1), BuildingBlock: MIFKUJ_clean_linker_0, # of connection points: 2
#     Edge 19, Type (0, 1), BuildingBlock: MIFKUJ_clean_linker_0, # of connection points: 2
#     Edge 20, Type (0, 1), BuildingBlock: MIFKUJ_clean_linker_0, # of connection points: 2
#     Edge 21, Type (0, 1), BuildingBlock: MIFKUJ_clean_linker_0, # of connection points: 2
#     Edge 22, Type (0, 1), BuildingBlock: MIFKUJ_clean_linker_0, # of connection points: 2
#     Edge 23, Type (0, 1), BuildingBlock: MIFKUJ_clean_linker_0, # of connection points: 2
#     Edge 24, Type (0, 1), BuildingBlock: MIFKUJ_clean_linker_0, # of connection points: 2
#     Edge 25, Type (0, 1), BuildingBlock: MIFKUJ_clean_linker_0, # of connection points: 2
#     Edge 26, Type (0, 1), BuildingBlock: MIFKUJ_clean_linker_0, # of connection points: 2
#     Edge 27, Type (0, 1), BuildingBlock: MIFKUJ_clean_linker_0, # of connection points: 2
#     Edge 28, Type (0, 1), BuildingBlock: MIFKUJ_clean_linker_0, # of connection points: 2
#     Edge 29, Type (0, 1), BuildingBlock: MIFKUJ_clean_linker_0, # of connection points: 2
#     Edge 30, Type (0, 1), BuildingBlock: MIFKUJ_clean_linker_0, # of connection points: 2
#     Edge 31, Type (0, 1), BuildingBlock: MIFKUJ_clean_linker_0, # of connection points: 2
#     Edge 32, Type (0, 1), BuildingBlock: MIFKUJ_clean_linker_0, # of connection points: 2
#     Edge 33, Type (0, 1), BuildingBlock: MIFKUJ_clean_linker_0, # of connection points: 2
#     Edge 34, Type (0, 1), BuildingBlock: MIFKUJ_clean_linker_0, # of connection points: 2
#     Edge 35, Type (0, 1), BuildingBlock: MIFKUJ_clean_linker_0, # of connection points: 2
# Relax obj value: 0.106
# Max RMSD: 0.200
# Mean RMSD: 0.137
data_MOF--net-pry--node1-JUFBIX_clean_sbu_0--node2-PAMTOO_clean_linker_0--edge1-MIFKUJ_clean_linker_0
_symmetry_space_group_name_H-M    P1
_symmetry_Int_Tables_number       1
_symmetry_cell_setting            triclinic
loop_
_symmetry_equiv_pos_as_xyz
'x, y, z'
_cell_length_a     47.13328
_cell_length_b     46.682447
_cell_length_c     47.985454
_cell_angle_alpha  85.455797
_cell_angle_beta   89.687097
_cell_angle_gamma 94.926681
loop_
_atom_site_label
_atom_site_type_symbol
_atom_site_fract_x
_atom_site_fract_y
_atom_site_fract_z
_atom_type_partial_charge
H0 H 0.16817 0.19619 0.21743 0.0
H1 H 0.23157 0.13476 0.22479 0.0
H2 H 0.2346 0.19821 0.15492 0.0
H3 H 0.24486 0.13729 0.1439 0.0
C4 C 0.25924 0.13263 0.16172 0.0
O5 O 0.25995 0.15509 0.17908 0.0
H6 H 0.25013 0.11244 0.17351 0.0
C7 C 0.18659 0.18723 0.20913 0.0
C8 C 0.19962 0.20024 0.18412 0.0
C9 C 0.19776 0.16356 0.22423 0.0
C10 C 0.22259 0.15296 0.21377 0.0
C11 C 0.2358 0.16535 0.18876 0.0
C12 C 0.22428 0.18892 0.17417 0.0
H13 H 0.40394 0.93255 0.66521 0.0
H14 H 0.40458 0.86988 0.60412 0.0
H15 H 0.47694 0.88432 0.65631 0.0
H16 H 0.49001 0.87466 0.59525 0.0
C17 C 0.47068 0.8599 0.59207 0.0
O18 O 0.45516 0.85483 0.61662 0.0
H19 H 0.45769 0.8702 0.57542 0.0
C20 C 0.41479 0.91676 0.65482 0.0
C21 C 0.4422 0.91052 0.66343 0.0
C22 C 0.40084 0.90219 0.63359 0.0
C23 C 0.41488 0.8815 0.6205 0.0
C24 C 0.44242 0.87565 0.62843 0.0
C25 C 0.45605 0.89003 0.64978 0.0
H26 H 0.75122 0.31683 0.91107 0.0
H27 H 0.68556 0.33615 0.85201 0.0
H28 H 0.76122 0.39359 0.85461 0.0
H29 H 0.71198 0.4241 0.84544 0.0
C30 C 0.69739 0.40747 0.8362 0.0
O31 O 0.71216 0.38428 0.83061 0.0
H32 H 0.67991 0.40045 0.8516 0.0
C33 C 0.7432 0.33065 0.89422 0.0
C34 C 0.75961 0.356 0.88426 0.0
C35 C 0.71645 0.32313 0.88272 0.0
C36 C 0.70608 0.3415 0.86124 0.0
C37 C 0.72231 0.36673 0.8512 0.0
C38 C 0.74908 0.37379 0.86243 0.0
H39 H 0.95189 0.66693 0.48931 0.0
H40 H 0.9607 0.61313 0.42143 0.0
H41 H 0.02643 0.67912 0.43595 0.0
H42 H 0.02416 0.67453 0.37731 0.0
C43 C 1.00611 0.65748 0.37883 0.0
O44 O 1.00894 0.63988 0.40303 0.0
H45 H 0.98607 0.66854 0.37922 0.0
C46 C 0.96456 0.66006 0.47254 0.0
C47 C 0.99082 0.67545 0.46504 0.0
C48 C 0.95353 0.63737 0.45708 0.0
C49 C 0.96928 0.62985 0.43422 0.0
C50 C 0.99563 0.64471 0.42699 0.0
C51 C 1.00669 0.6669 0.44278 0.0
H52 H 0.84824 0.9004 0.84147 0.0
H53 H 0.8476 0.83531 0.91057 0.0
H54 H 0.9114 0.83851 0.84627 0.0
H55 H 0.88686 0.78054 0.86627 0.0
C56 C 0.88482 0.78344 0.88897 0.0
O57 O 0.89279 0.81191 0.8937 0.0
H58 H 0.862 0.77821 0.89492 0.0
C59 C 0.85699 0.88173 0.85185 0.0
C60 C 0.8814 0.87119 0.84031 0.0
C61 C 0.84448 0.86918 0.87731 0.0
C62 C 0.8568 0.8455 0.89114 0.0
C63 C 0.88084 0.83447 0.87991 0.0
C64 C 0.89299 0.84739 0.8547 0.0
H65 H 0.68624 0.11318 0.39191 0.0
H66 H 0.61458 0.16331 0.37509 0.0
H67 H 0.67429 0.18652 0.43812 0.0
H68 H 0.61417 0.18291 0.453 0.0
C69 C 0.60745 0.19693 0.43478 0.0
O70 O 0.62717 0.1987 0.41327 0.0
H71 H 0.58666 0.18741 0.42741 0.0
C72 C 0.67378 0.13081 0.3963 0.0
C73 C 0.68303 0.14906 0.41691 0.0
C74 C 0.64935 0.13588 0.3806 0.0
C75 C 0.63331 0.15859 0.387 0.0
C76 C 0.64219 0.17646 0.40789 0.0
C77 C 0.66729 0.17212 0.42241 0.0
H78 H 0.35416 0.70034 0.13992 0.0
H79 H 0.34861 0.62568 0.19931 0.0
H80 H 0.42472 0.6832 0.19359 0.0
H81 H 0.43204 0.62064 0.19856 0.0
C82 C 0.41493 0.61363 0.21436 0.0
O83 O 0.39943 0.63643 0.2194 0.0
H84 H 0.40077 0.59612 0.20593 0.0
C85 C 0.36355 0.68699 0.15631 0.0
C86 C 0.39125 0.69478 0.16528 0.0
C87 C 0.34797 0.66198 0.16835 0.0
C88 C 0.36024 0.64507 0.18979 0.0
C89 C 0.38791 0.65265 0.19862 0.0
C90 C 0.40341 0.67737 0.18635 0.0
H91 H 0.07088 0.35152 0.67616 0.0
H92 H 0.13992 0.41646 0.65448 0.0
H93 H 0.10576 0.3626 0.59255 0.0
H94 H 0.16329 0.379 0.57624 0.0
C95 C 0.16755 0.38922 0.59613 0.0
O96 O 0.14431 0.4036 0.60277 0.0
H97 H 0.17098 0.37138 0.61232 0.0
C98 C 0.08572 0.36285 0.66091 0.0
C99 C 0.08594 0.35424 0.6335 0.0
C100 C 0.10473 0.38566 0.66875 0.0
C101 C 0.1242 0.39969 0.64873 0.0
C102 C 0.12417 0.39157 0.62131 0.0
C103 C 0.10467 0.3694 0.61358 0.0
Co104 Co 0.01659 0.02211 0.52337 0.0
C105 C 0.04194 0.97058 0.5183 0.0
Co106 Co 0.05891 0.02037 0.54227 0.0
C107 C 0.96484 0.04334 0.50071 0.0
C108 C 0.96221 0.99729 0.5067 0.0
N109 N 0.98026 0.02107 0.50866 0.0
N110 N 0.93784 0.03438 0.49428 0.0
C111 C 0.93626 0.00536 0.49777 0.0
H112 H 0.97277 0.06574 0.50112 0.0
H113 H 0.96708 0.97544 0.51258 0.0
C114 C 0.03359 0.07162 0.54805 0.0
N115 N 0.09493 0.02156 0.55703 0.0
C116 C 0.1085 1.00009 0.57004 0.0
C117 C 0.11417 0.04474 0.55531 0.0
N118 N 0.13555 0.00897 0.57642 0.0
C119 C 0.13909 0.0371 0.56719 0.0
C120 C 0.05982 0.04277 0.48556 0.0
O121 O 1.01345 0.06005 0.53423 0.0
O122 O 0.05511 0.05779 0.55374 0.0
O123 O 0.07496 0.03677 0.50681 0.0
O124 O 0.03285 0.03796 0.48792 0.0
O125 O 0.06254 0.98275 0.53108 0.0
H126 H 0.11058 0.06566 0.54524 0.0
H127 H 0.09881 0.9783 0.57429 0.0
O128 O 0.02025 0.98425 0.51277 0.0
O129 O 1.00046 0.00623 0.55895 0.0
O130 O 0.04265 1.0039 0.57745 0.0
C131 C 0.01566 0.99956 0.57996 0.0
H132 H 0.91748 0.99092 0.49488 0.0
H133 H 0.15869 0.05091 0.56779 0.0
Co134 Co 0.54445 1.00376 1.00463 0.0
C135 C 0.54032 0.95742 0.04562 0.0
Co136 Co 0.56961 0.01078 0.04224 0.0
C137 C 0.52865 1.00083 0.94701 0.0
C138 C 0.49455 0.98521 0.97539 0.0
N139 N 0.5218 0.99666 0.97443 0.0
N140 N 0.50671 0.99236 0.93073 0.0
C141 C 0.48523 0.98252 0.94859 0.0
H142 H 0.54937 0.00986 0.93925 0.0
H143 H 0.48242 0.97876 0.99439 0.0
C144 C 0.57374 0.05719 1.00137 0.0
N145 N 0.59245 0.0179 0.07239 0.0
C146 C 0.58534 0.01675 0.09975 0.0
C147 C 0.6204 0.02696 0.07108 0.0
N148 N 0.6078 0.02479 0.11558 0.0
C149 C 0.62988 0.03118 0.09754 0.0
C150 C 0.59921 0.98608 0.99983 0.0
O151 O 0.55649 0.04106 0.98806 0.0
O152 O 0.58214 0.0479 0.02525 0.0
O153 O 0.60081 0.9944 0.02446 0.0
O154 O 0.57597 0.98826 0.98676 0.0
O155 O 0.557 0.97384 0.0592 0.0
H156 H 0.6329 0.03104 0.05199 0.0
H157 H 0.56403 0.01048 0.10778 0.0
O158 O 0.5325 0.96633 0.02139 0.0
O159 O 0.51305 0.01944 0.02247 0.0
O160 O 0.53811 0.02694 0.05982 0.0
C161 C 0.51473 0.02847 0.04681 0.0
H162 H 0.46449 0.97317 0.94283 0.0
H163 H 0.65112 0.03955 0.10287 0.0
Co164 Co 0.5764 0.5379 0.52255 0.0
C165 C 0.53163 0.53811 0.48393 0.0
Co166 Co 0.53489 0.51716 0.53833 0.0
C167 C 0.63686 0.55083 0.51 0.0
C168 C 0.61075 0.58182 0.49047 0.0
N169 N 0.60954 0.55729 0.50747 0.0
N170 N 0.65491 0.57025 0.49493 0.0
C171 C 0.63852 0.58974 0.48265 0.0
H172 H 0.64331 0.53208 0.52228 0.0
H173 H 0.59252 0.59324 0.48414 0.0
C174 C 0.57967 0.51661 0.57689 0.0
N175 N 0.50169 0.49799 0.55343 0.0
C176 C 0.47458 0.50503 0.5508 0.0
C177 C 0.49998 0.47353 0.57054 0.0
N178 N 0.45611 0.48603 0.56584 0.0
C179 C 0.47205 0.46619 0.57826 0.0
C180 C 0.56957 0.48044 0.514 0.0
O181 O 0.59469 0.5297 0.55697 0.0
O182 O 0.55338 0.50983 0.573 0.0
O183 O 0.54586 0.48219 0.52619 0.0
O184 O 0.58696 0.50276 0.51004 0.0
O185 O 0.51682 0.52452 0.50371 0.0
H186 H 0.51796 0.46181 0.57704 0.0
H187 H 0.46858 0.52395 0.53847 0.0
O188 O 0.55769 0.54581 0.48802 0.0
O189 O 0.56562 0.57284 0.53525 0.0
O190 O 0.52401 0.55239 0.55003 0.0
C191 C 0.54145 0.57469 0.54647 0.0
H192 H 0.64616 0.60866 0.46932 0.0
H193 H 0.46404 0.44745 0.59164 0.0
Co194 Co 0.06702 0.49946 0.01563 0.0
C195 C 0.01472 0.46792 0.01362 0.0
Co196 Co 0.04168 0.49874 0.05442 0.0
C197 C 0.08746 0.48196 0.96312 0.0
C198 C 0.10558 0.52382 0.97199 0.0
N199 N 0.08805 0.50123 0.9827 0.0
N200 N 0.10365 0.49178 0.94047 0.0
C201 C 0.11522 0.51807 0.94612 0.0
H202 H 0.07432 0.4617 0.96488 0.0
H203 H 0.11031 0.54367 0.9819 0.0
C204 C 0.09369 0.53088 0.05621 0.0
N205 N 0.02083 0.49727 0.08729 0.0
C206 C 0.01972 0.51837 0.10477 0.0
C207 C 1.00568 0.47419 0.1003 0.0
N208 N 1.00487 0.50935 0.12845 0.0
C209 C 0.99582 0.48155 0.1256 0.0
C210 C 0.07805 0.45382 0.05418 0.0
O211 O 0.09661 0.52244 0.03195 0.0
O212 O 0.07094 0.52294 0.06998 0.0
O213 O 0.06005 0.46536 0.06865 0.0
O214 O 0.08416 0.46497 0.02952 0.0
O215 O 1.01253 0.4747 0.03861 0.0
H216 H 1.00295 0.45307 0.09241 0.0
H217 H 0.03025 0.5398 0.10041 0.0
O218 O 0.03712 0.47666 0.99955 0.0
O219 O 0.04976 0.53382 1.00203 0.0
O220 O 0.0235 0.5322 0.04001 0.0
C221 C 0.03072 0.54441 0.01603 0.0
H222 H 0.12923 0.53243 0.93236 0.0
H223 H 0.98414 0.46711 0.14122 0.0
H224 H 0.2227 0.14396 0.27324 0.0
H225 H 0.19942 0.12329 0.31683 0.0
H226 H 0.11721 0.13228 0.27978 0.0
H227 H 0.14036 0.15311 0.2362 0.0
H228 H 0.11561 0.14825 0.33065 0.0
H229 H 0.14713 0.06529 0.2909 0.0
H230 H 0.1817 0.03583 0.27054 0.0
H231 H 0.23073 0.03702 0.34567 0.0
H232 H 0.19664 0.06683 0.36634 0.0
H233 H 0.03428 0.05942 0.43601 0.0
H234 H 0.05725 0.07927 0.39189 0.0
H235 H 0.13971 0.07398 0.42945 0.0
H236 H 0.11693 0.05386 0.47347 0.0
H237 H 0.14087 0.05585 0.37825 0.0
H238 H 0.10911 0.139 0.41779 0.0
H239 H 0.07414 0.16806 0.43808 0.0
H240 H 0.02506 0.16597 0.36303 0.0
H241 H 0.05955 0.13654 0.34243 0.0
C242 C 0.19966 0.14128 0.27419 0.0
C243 C 0.18354 0.15026 0.25095 0.0
C244 C 0.18629 0.1294 0.29927 0.0
C245 C 0.15638 0.12576 0.30179 0.0
C246 C 0.14026 0.13481 0.27864 0.0
C247 C 0.1536 0.14683 0.25362 0.0
C248 C 0.14188 0.11292 0.32853 0.0
C249 C 0.12092 0.12782 0.34077 0.0
C250 C 0.14899 0.08653 0.3424 0.0
C251 C 0.16948 0.06854 0.33006 0.0
C252 C 0.16539 0.05945 0.303 0.0
C253 C 0.18488 0.04266 0.29142 0.0
C254 C 0.20843 0.03462 0.30677 0.0
C255 C 0.2125 0.0433 0.33378 0.0
C256 C 0.19309 0.06012 0.34545 0.0
C257 C 0.05731 0.06249 0.43494 0.0
C258 C 0.07365 0.05504 0.4585 0.0
C259 C 0.07048 0.074 0.40963 0.0
C260 C 0.10036 0.07853 0.40717 0.0
C261 C 0.11669 0.0708 0.4306 0.0
C262 C 0.10355 0.05934 0.4559 0.0
C263 C 0.11464 0.09118 0.3803 0.0
C264 C 0.13556 0.07625 0.36807 0.0
C265 C 0.10744 0.1175 0.3664 0.0
C266 C 0.08676 0.13532 0.37868 0.0
C267 C 0.09075 0.14456 0.40569 0.0
C268 C 0.07103 0.16112 0.41724 0.0
C269 C 0.04736 0.16879 0.40188 0.0
C270 C 0.04339 0.15998 0.37491 0.0
C271 C 0.06303 0.14337 0.36328 0.0
H272 H 0.03211 0.18162 0.41085 0.0
H273 H 0.2235 0.02162 0.29777 0.0
H274 H 0.41582 0.92176 0.71163 0.0
H275 H 0.43671 0.94467 0.75133 0.0
H276 H 0.51947 0.95148 0.71147 0.0
H277 H 0.49845 0.9295 0.67066 0.0
H278 H 0.5158 0.92693 0.76986 0.0
H279 H 0.49361 0.01084 0.71394 0.0
H280 H 0.46363 0.04021 0.68327 0.0
H281 H 0.40108 0.03778 0.74899 0.0
H282 H 0.43046 0.00802 0.77994 0.0
H283 H 0.55233 0.99141 0.89586 0.0
H284 H 0.55114 0.98687 0.84549 0.0
H285 H 0.45959 0.9868 0.84742 0.0
H286 H 0.46073 0.99281 0.89727 0.0
H287 H 0.48022 0.01608 0.80165 0.0
H288 H 0.49431 0.92337 0.85152 0.0
H289 H 0.52028 0.89049 0.88282 0.0
H290 H 0.59422 0.90658 0.82933 0.0
H291 H 0.56873 0.93983 0.79788 0.0
C292 C 0.43836 0.92865 0.71087 0.0
C293 C 0.45537 0.92418 0.6877 0.0
C294 C 0.45028 0.94159 0.7337 0.0
C295 C 0.4795 0.95006 0.73407 0.0
C296 C 0.49682 0.94519 0.71137 0.0
C297 C 0.48479 0.93251 0.68822 0.0
C298 C 0.49152 0.9631 0.75891 0.0
C299 C 0.5088 0.94689 0.77653 0.0
C300 C 0.48186 0.98883 0.76764 0.0
C301 C 0.46425 0.00711 0.74925 0.0
C302 C 0.47339 0.01643 0.72181 0.0
C303 C 0.4565 0.03317 0.70438 0.0
C304 C 0.43046 0.04084 0.71417 0.0
C305 C 0.42127 0.03184 0.74144 0.0
C306 C 0.43807 0.01509 0.75896 0.0
C307 C 0.532 0.99106 0.88549 0.0
C308 C 0.50655 0.99205 0.90074 0.0
C309 C 0.53136 0.98823 0.8567 0.0
C310 C 0.50525 0.98603 0.84278 0.0
C311 C 0.48 0.98837 0.85773 0.0
C312 C 0.48064 0.99142 0.88635 0.0
C313 C 0.50353 0.97929 0.81317 0.0
C314 C 0.48813 0.99668 0.79465 0.0
C315 C 0.51453 0.95438 0.80378 0.0
C316 C 0.52978 0.93434 0.82259 0.0
C317 C 0.51618 0.92003 0.84656 0.0
C318 C 0.53079 0.90132 0.8643 0.0
C319 C 0.55892 0.89653 0.85812 0.0
C320 C 0.57246 0.91037 0.83413 0.0
C321 C 0.55794 0.92915 0.81634 0.0
H322 H 0.5702 0.88204 0.87188 0.0
H323 H 0.4174 0.05378 0.70063 0.0
H324 H 0.64159 0.40642 0.81992 0.0
H325 H 0.62287 0.4265 0.77576 0.0
H326 H 0.70829 0.45635 0.74777 0.0
H327 H 0.72695 0.43684 0.79235 0.0
H328 H 0.67262 0.49669 0.735 0.0
H329 H 0.67355 0.39561 0.72407 0.0
H330 H 0.66299 0.34358 0.73695 0.0
H331 H 0.57331 0.35356 0.73377 0.0
H332 H 0.58334 0.40574 0.72125 0.0
H333 H 0.63604 0.52239 0.59103 0.0
H334 H 0.65723 0.50529 0.63508 0.0
H335 H 0.57375 0.47456 0.66784 0.0
H336 H 0.5525 0.49107 0.62389 0.0
H337 H 0.61037 0.43457 0.67721 0.0
H338 H 0.60973 0.53604 0.68908 0.0
H339 H 0.62057 0.58798 0.67586 0.0
H340 H 0.7101 0.57703 0.67665 0.0
H341 H 0.69977 0.52493 0.68952 0.0
C342 C 0.65629 0.41742 0.80437 0.0
C343 C 0.68566 0.42028 0.80944 0.0
C344 C 0.64564 0.42873 0.77911 0.0
C345 C 0.66423 0.44262 0.75831 0.0
C346 C 0.69357 0.44572 0.76351 0.0
C347 C 0.70421 0.43457 0.78885 0.0
C348 C 0.65302 0.45379 0.73111 0.0
C349 C 0.65933 0.48303 0.72216 0.0
C350 C 0.63531 0.43606 0.71459 0.0
C351 C 0.62921 0.40464 0.72197 0.0
C352 C 0.65158 0.38675 0.72632 0.0
C353 C 0.64569 0.35722 0.73352 0.0
C354 C 0.6175 0.34528 0.73624 0.0
C355 C 0.59514 0.36284 0.73169 0.0
C356 C 0.60092 0.39239 0.72451 0.0
C357 C 0.62219 0.5122 0.60771 0.0
C358 C 0.59259 0.50811 0.60397 0.0
C359 C 0.63432 0.50251 0.63289 0.0
C360 C 0.61704 0.4888 0.65481 0.0
C361 C 0.58749 0.48501 0.65119 0.0
C362 C 0.57537 0.49458 0.62606 0.0
C363 C 0.62966 0.47755 0.68127 0.0
C364 C 0.6237 0.44824 0.69003 0.0
C365 C 0.64772 0.4952 0.69755 0.0
C366 C 0.65396 0.52654 0.68999 0.0
C367 C 0.63172 0.54467 0.68623 0.0
C368 C 0.63777 0.57414 0.67884 0.0
C369 C 0.666 0.58578 0.67534 0.0
C370 C 0.68824 0.56798 0.67932 0.0
C371 C 0.6823 0.53848 0.68669 0.0
H372 H 0.67065 0.6086 0.66961 0.0
H373 H 0.61298 0.32242 0.74182 0.0
H374 H 0.04329 0.66273 0.33423 0.0
H375 H 0.03989 0.63679 0.29183 0.0
H376 H 0.96344 0.58777 0.32442 0.0
H377 H 0.96687 0.61376 0.36701 0.0
H378 H 1.00003 0.55395 0.29999 0.0
H379 H 0.95756 0.64187 0.2765 0.0
H380 H 0.95451 0.69449 0.27245 0.0
H381 H 0.02786 0.70571 0.21796 0.0
H382 H 0.03161 0.65316 0.22201 0.0
H383 H 0.96365 0.5 0.16866 0.0
H384 H 0.96097 0.52461 0.21162 0.0
H385 H 0.0371 0.57875 0.1868 0.0
H386 H 0.04021 0.55411 0.14417 0.0
H387 H 0.99641 0.60947 0.20767 0.0
H388 H 0.04055 0.52194 0.23369 0.0
H389 H 0.04375 0.46933 0.23779 0.0
H390 H 0.96699 0.45747 0.28751 0.0
H391 H 0.96313 0.51003 0.28336 0.0
C392 C 0.02591 0.64625 0.3324 0.0
C393 C 1.00534 0.6401 0.35379 0.0
C394 C 0.0239 0.63158 0.30817 0.0
C395 C 1.00121 0.61064 0.30487 0.0
C396 C 0.98106 0.6039 0.32656 0.0
C397 C 0.98303 0.61866 0.3508 0.0
C398 C 0.99845 0.5961 0.27859 0.0
C399 C 0.99876 0.56601 0.27982 0.0
C400 C 0.99722 0.61195 0.25229 0.0
C401 C 0.99502 0.64358 0.24978 0.0
C402 C 0.97319 0.65557 0.26384 0.0
C403 C 0.97131 0.68538 0.26151 0.0
C404 C 0.99102 0.70344 0.24502 0.0
C405 C 1.01262 0.6917 0.23076 0.0
C406 C 0.01463 0.6619 0.23305 0.0
C407 C 0.97986 0.51708 0.17237 0.0
C408 C 1.00218 0.52497 0.15294 0.0
C409 C 0.97825 0.53116 0.19689 0.0
C410 C 0.99899 0.55331 0.20248 0.0
C411 C 0.02083 0.56176 0.18283 0.0
C412 C 0.02249 0.54769 0.15836 0.0
C413 C 0.99843 0.56737 0.22904 0.0
C414 C 0.99745 0.59738 0.22785 0.0
C415 C 0.99904 0.55145 0.25536 0.0
C416 C 1.00138 0.51987 0.25795 0.0
C417 C 0.02422 0.50809 0.2453 0.0
C418 C 0.02618 0.47829 0.24767 0.0
C419 C 1.00553 0.46006 0.26283 0.0
C420 C 0.98293 0.47161 0.27573 0.0
C421 C 0.98086 0.50141 0.27339 0.0
H422 H 1.00709 0.43699 0.26465 0.0
H423 H 0.98952 0.72652 0.24323 0.0
H424 H 0.30673 0.11812 0.19152 0.0
H425 H 0.35156 0.10288 0.17346 0.0
H426 H 0.32234 0.11882 0.08912 0.0
H427 H 0.27774 0.13386 0.1071 0.0
H428 H 0.34195 0.067 0.09576 0.0
H429 H 0.3768 0.16249 0.11736 0.0
H430 H 0.38586 0.20256 0.14756 0.0
H431 H 0.43498 0.14974 0.20262 0.0
H432 H 0.42589 0.1092 0.17294 0.0
H433 H 0.46655 0.04519 0.02073 0.0
H434 H 0.42553 0.06483 0.04096 0.0
H435 H 0.46394 0.05783 0.12234 0.0
H436 H 0.50584 0.03939 0.10177 0.0
H437 H 0.43983 0.10461 0.11895 0.0
H438 H 0.40242 0.00852 0.10154 0.0
H439 H 0.39109 0.96626 0.07458 0.0
H440 H 0.34672 0.01809 0.01431 0.0
H441 H 0.35723 0.06057 0.04128 0.0
C442 C 0.31022 0.11898 0.16913 0.0
C443 C 0.28874 0.12756 0.1508 0.0
C444 C 0.33586 0.1102 0.15877 0.0
C445 C 0.34064 0.1097 0.12978 0.0
C446 C 0.31939 0.1189 0.11152 0.0
C447 C 0.29388 0.12773 0.12185 0.0
C448 C 0.36681 0.0981 0.11837 0.0
C449 C 0.36334 0.07557 0.10058 0.0
C450 C 0.39491 0.10837 0.12524 0.0
C451 C 0.40041 0.13272 0.14308 0.0
C452 C 0.38933 0.15934 0.13603 0.0
C453 C 0.39451 0.18215 0.15303 0.0
C454 C 0.41092 0.17868 0.17704 0.0
C455 C 0.42224 0.15239 0.18405 0.0
C456 C 0.4171 0.1295 0.16713 0.0
C457 C 0.46634 0.04776 0.04297 0.0
C458 C 0.48961 0.04049 0.05957 0.0
C459 C 0.44258 0.05883 0.05466 0.0
C460 C 0.44089 0.06231 0.08351 0.0
C461 C 0.46434 0.05537 0.10009 0.0
C462 C 0.48838 0.04471 0.08829 0.0
C463 C 0.41499 0.07355 0.09613 0.0
C464 C 0.41847 0.09599 0.11415 0.0
C465 C 0.38679 0.06299 0.08978 0.0
C466 C 0.38088 0.03773 0.07324 0.0
C467 C 0.39043 0.01092 0.08243 0.0
C468 C 0.38411 0.98693 0.06718 0.0
C469 C 0.3685 0.98954 0.04257 0.0
C470 C 0.3589 0.01611 0.03332 0.0
C471 C 0.36488 0.04011 0.04866 0.0
H472 H 0.36371 0.97093 0.03078 0.0
H473 H 0.41491 0.19637 0.19017 0.0
H474 H 0.37831 0.95424 0.62776 0.0
H475 H 0.32842 0.96311 0.62131 0.0
H476 H 0.30635 0.87221 0.61566 0.0
H477 H 0.35628 0.86289 0.62309 0.0
H478 H 0.28043 0.91209 0.57417 0.0
H479 H 0.29077 0.89321 0.67293 0.0
H480 H 0.31459 0.89822 0.71812 0.0
H481 H 0.30295 0.98871 0.71204 0.0
H482 H 0.27946 0.98434 0.66658 0.0
H483 H 0.13816 0.95114 0.57439 0.0
H484 H 0.1781 0.92348 0.5887 0.0
H485 H 0.22273 1.00027 0.61701 0.0
H486 H 0.18243 0.02756 0.60421 0.0
H487 H 0.23268 0.9557 0.6509 0.0
H488 H 0.23258 0.97744 0.54989 0.0
H489 H 0.21167 0.97565 0.50297 0.0
H490 H 0.20627 0.88307 0.51188 0.0
H491 H 0.22685 0.88435 0.55902 0.0
C492 C 0.36288 0.93609 0.62523 0.0
C493 C 0.37119 0.90782 0.62631 0.0
C494 C 0.33444 0.94121 0.62143 0.0
C495 C 0.31381 0.91823 0.61842 0.0
C496 C 0.32208 0.89015 0.61806 0.0
C497 C 0.35059 0.88493 0.62214 0.0
C498 C 0.28357 0.92393 0.61655 0.0
C499 C 0.26962 0.92097 0.59112 0.0
C500 C 0.26984 0.93582 0.63864 0.0
C501 C 0.28348 0.93846 0.66625 0.0
C502 C 0.29344 0.91422 0.68114 0.0
C503 C 0.30687 0.91694 0.70682 0.0
C504 C 0.31031 0.94378 0.71793 0.0
C505 C 0.30026 0.96793 0.70341 0.0
C506 C 0.28685 0.96534 0.6777 0.0
C507 C 0.15615 0.96198 0.5843 0.0
C508 C 0.15731 0.99172 0.58772 0.0
C509 C 0.17909 0.94618 0.59223 0.0
C510 C 0.20363 0.95995 0.60337 0.0
C511 C 0.20408 0.9892 0.60829 0.0
C512 C 0.18114 0.00489 0.60064 0.0
C513 C 0.2298 0.94491 0.6081 0.0
C514 C 0.24306 0.94609 0.63415 0.0
C515 C 0.24305 0.93174 0.58644 0.0
C516 C 0.2309 0.93098 0.55806 0.0
C517 C 0.22676 0.95671 0.54189 0.0
C518 C 0.21499 0.95579 0.51527 0.0
C519 C 0.20755 0.92926 0.50449 0.0
C520 C 0.21197 0.9036 0.52028 0.0
C521 C 0.22369 0.9044 0.54695 0.0
H522 H 0.19844 0.92859 0.48387 0.0
H523 H 0.32074 0.94585 0.7378 0.0
H524 H 0.81 0.3757 0.85797 0.0
H525 H 0.85498 0.39163 0.87968 0.0
H526 H 0.81646 0.37139 0.9614 0.0
H527 H 0.77141 0.35571 0.93985 0.0
H528 H 0.84512 0.42584 0.95495 0.0
H529 H 0.86196 0.32845 0.93742 0.0
H530 H 0.86547 0.28751 0.90851 0.0
H531 H 0.93066 0.33668 0.85785 0.0
H532 H 0.9272 0.37812 0.88618 0.0
H533 H 0.96548 0.44319 0.03868 0.0
H534 H 0.92384 0.42091 0.01611 0.0
H535 H 0.96743 0.43462 0.93623 0.0
H536 H 1.00949 0.45637 0.95876 0.0
H537 H 0.93672 0.38372 0.94047 0.0
H538 H 0.92025 0.48083 0.95499 0.0
H539 H 0.91765 0.52344 0.98184 0.0
H540 H 0.85254 0.47748 0.03497 0.0
H541 H 0.85508 0.4344 1.00869 0.0
C542 C 0.81118 0.37463 0.88056 0.0
C543 C 0.78724 0.36443 0.89724 0.0
C544 C 0.8369 0.38353 0.89292 0.0
C545 C 0.83906 0.3825 0.92213 0.0
C546 C 0.81523 0.37225 0.93881 0.0
C547 C 0.7896 0.36314 0.92649 0.0
C548 C 0.86582 0.39314 0.93538 0.0
C549 C 0.86507 0.41636 0.95213 0.0
C550 C 0.89201 0.38142 0.93081 0.0
C551 C 0.89406 0.35652 0.91373 0.0
C552 C 0.87683 0.33066 0.91994 0.0
C553 C 0.87885 0.30733 0.90369 0.0
C554 C 0.8982 0.30953 0.8813 0.0
C555 C 0.91563 0.33503 0.87516 0.0
C556 C 0.91365 0.35844 0.89131 0.0
C557 C 0.96634 0.44121 0.01636 0.0
C558 C 0.99066 0.45184 1.00046 0.0
C559 C 0.94248 0.42856 1.00347 0.0
C560 C 0.94231 0.42668 0.97441 0.0
C561 C 0.96704 0.43602 0.95867 0.0
C562 C 0.99103 0.4485 0.97158 0.0
C563 C 0.91592 0.41615 0.96038 0.0
C564 C 0.91676 0.39313 0.94336 0.0
C565 C 0.88984 0.42834 0.96432 0.0
C566 C 0.88805 0.45429 0.98003 0.0
C567 C 0.90552 0.47973 0.97252 0.0
C568 C 0.90404 0.50398 0.98762 0.0
C569 C 0.88499 0.50314 1.01014 0.0
C570 C 0.86732 0.47808 0.01755 0.0
C571 C 0.86875 0.45374 1.00255 0.0
H572 H 0.88388 0.52194 0.02181 0.0
H573 H 0.89976 0.29144 0.86875 0.0
H574 H 0.92916 0.61614 0.5073 0.0
H575 H 0.87892 0.59906 0.51649 0.0
H576 H 0.86134 0.61319 0.42862 0.0
H577 H 0.91131 0.62997 0.41929 0.0
H578 H 0.8264 0.64103 0.46626 0.0
H579 H 0.86062 0.54808 0.45312 0.0
H580 H 0.89133 0.50849 0.46342 0.0
H581 H 0.85978 0.49736 0.54804 0.0
H582 H 0.82916 0.53721 0.53835 0.0
H583 H 0.68671 0.58749 0.44897 0.0
H584 H 0.73857 0.5938 0.44564 0.0
H585 H 0.74422 0.56132 0.53197 0.0
H586 H 0.69194 0.55442 0.53517 0.0
H587 H 0.78602 0.54279 0.5006 0.0
H588 H 0.75101 0.63298 0.51521 0.0
H589 H 0.72072 0.67331 0.50742 0.0
H590 H 0.75471 0.69147 0.42408 0.0
H591 H 0.78491 0.65095 0.43122 0.0
C592 C 0.91458 0.61519 0.48996 0.0
C593 C 0.92409 0.62426 0.46259 0.0
C594 C 0.88601 0.60537 0.49521 0.0
C595 C 0.86655 0.60486 0.4732 0.0
C596 C 0.87612 0.61335 0.44583 0.0
C597 C 0.90467 0.62276 0.44053 0.0
C598 C 0.83577 0.59759 0.47872 0.0
C599 C 0.81751 0.61949 0.4735 0.0
C600 C 0.82447 0.56979 0.48928 0.0
C601 C 0.84287 0.54586 0.49511 0.0
C602 C 0.86045 0.53741 0.47401 0.0
C603 C 0.87779 0.51487 0.47971 0.0
C604 C 0.87758 0.50048 0.50639 0.0
C605 C 0.85997 0.50856 0.5274 0.0
C606 C 0.8426 0.5311 0.52181 0.0
C607 C 0.69902 0.58155 0.46718 0.0
C608 C 0.68538 0.57089 0.49244 0.0
C609 C 0.72862 0.58515 0.46528 0.0
C610 C 0.74525 0.57869 0.48875 0.0
C611 C 0.73177 0.5666 0.51366 0.0
C612 C 0.70199 0.56265 0.51547 0.0
C613 C 0.7765 0.58608 0.48733 0.0
C614 C 0.79489 0.56437 0.49352 0.0
C615 C 0.78809 0.61425 0.47807 0.0
C616 C 0.77006 0.63877 0.47369 0.0
C617 C 0.75188 0.64544 0.49515 0.0
C618 C 0.73474 0.66835 0.49086 0.0
C619 C 0.73575 0.6849 0.46525 0.0
C620 C 0.75394 0.67861 0.4439 0.0
C621 C 0.7711 0.65569 0.44807 0.0
H622 H 0.72247 0.70264 0.46197 0.0
H623 H 0.89101 0.48303 0.51076 0.0
H624 H 0.14329 0.2105 0.17603 0.0
H625 H 0.12407 0.25299 0.15268 0.0
H626 H 0.20931 0.29064 0.13333 0.0
H627 H 0.22872 0.24866 0.15749 0.0
H628 H 0.17919 0.33033 0.15083 0.0
H629 H 0.1646 0.26095 0.08296 0.0
H630 H 0.14741 0.21444 0.06533 0.0
H631 H 0.0612 0.22982 0.08452 0.0
H632 H 0.07792 0.27627 0.10261 0.0
H633 H 0.10733 0.4156 0.02673 0.0
H634 H 0.12936 0.37299 0.04696 0.0
H635 H 0.10263 0.3911 0.1293 0.0
H636 H 0.08019 0.43331 0.10923 0.0
H637 H 0.10575 0.32379 0.07745 0.0
H638 H 0.15583 0.37168 0.17571 0.0
H639 H 0.17993 0.41693 0.19048 0.0
H640 H 0.2021 0.44452 0.10507 0.0
H641 H 0.17833 0.39937 0.0898 0.0
C642 C 0.15804 0.22785 0.16698 0.0
C643 C 0.18769 0.2259 0.16879 0.0
C644 C 0.14694 0.25212 0.1533 0.0
C645 C 0.16511 0.27515 0.14085 0.0
C646 C 0.1947 0.27328 0.14262 0.0
C647 C 0.20582 0.24901 0.15628 0.0
C648 C 0.1534 0.30144 0.12661 0.0
C649 C 0.16304 0.32879 0.13487 0.0
C650 C 0.13266 0.29982 0.10532 0.0
C651 C 0.12254 0.27196 0.09437 0.0
C652 C 0.14199 0.25432 0.08361 0.0
C653 C 0.13233 0.22798 0.0735 0.0
C654 C 0.10324 0.21915 0.07387 0.0
C655 C 0.08373 0.23668 0.08428 0.0
C656 C 0.09329 0.26302 0.09443 0.0
C657 C 0.10615 0.41054 0.04915 0.0
C658 C 0.09188 0.42798 0.06628 0.0
C659 C 0.11871 0.38608 0.06071 0.0
C660 C 0.11788 0.37875 0.08975 0.0
C661 C 0.10385 0.39628 0.1069 0.0
C662 C 0.09088 0.42042 0.09532 0.0
C663 C 0.13116 0.35258 0.10213 0.0
C664 C 0.12176 0.32527 0.09355 0.0
C665 C 0.15241 0.35424 0.12287 0.0
C666 C 0.16506 0.38225 0.13161 0.0
C667 C 0.16572 0.38748 0.16007 0.0
C668 C 0.17939 0.41306 0.16853 0.0
C669 C 0.19265 0.4335 0.14874 0.0
C670 C 0.19185 0.42863 0.12038 0.0
C671 C 0.17815 0.40311 0.11179 0.0
H672 H 0.20358 0.45308 0.15539 0.0
H673 H 0.0958 0.19875 0.06604 0.0
H674 H 0.6594 0.31573 0.89514 0.0
H675 H 0.63174 0.2714 0.91364 0.0
H676 H 0.7074 0.22562 0.91296 0.0
H677 H 0.73504 0.26967 0.894 0.0
H678 H 0.66125 0.19417 0.8932 0.0
H679 H 0.6848 0.24844 0.97263 0.0
H680 H 0.6864 0.2912 0.99984 0.0
H681 H 0.59505 0.2874 1.00046 0.0
H682 H 0.59292 0.24483 0.9729 0.0
H683 H 0.6131 0.09511 0.02333 0.0
H684 H 0.63326 0.14162 1.00199 0.0
H685 H 0.57879 0.13187 0.93078 0.0
H686 H 0.55883 0.08488 0.95178 0.0
H687 H 0.61237 0.19176 0.98534 0.0
H688 H 0.61849 0.16078 0.87154 0.0
H689 H 0.61792 0.11671 0.84628 0.0
H690 H 0.65361 0.07184 0.9175 0.0
H691 H 0.65565 0.11591 0.94265 0.0
C692 C 0.67005 0.29613 0.89866 0.0
C693 C 0.69942 0.29619 0.89326 0.0
C694 C 0.65427 0.2709 0.90937 0.0
C695 C 0.66758 0.2453 0.91485 0.0
C696 C 0.69674 0.24515 0.90889 0.0
C697 C 0.71254 0.27038 0.89831 0.0
C698 C 0.6514 0.21881 0.92755 0.0
C699 C 0.65041 0.19366 0.91326 0.0
C700 C 0.63747 0.21813 0.95382 0.0
C701 C 0.63872 0.24366 0.97045 0.0
C702 C 0.66506 0.25687 0.97837 0.0
C703 C 0.66607 0.28104 0.99389 0.0
C704 C 0.64085 0.29206 1.0018 0.0
C705 C 0.61457 0.27888 0.99427 0.0
C706 C 0.61345 0.25472 0.97872 0.0
C707 C 0.60525 0.10288 1.00319 0.0
C708 C 0.58455 0.08616 0.98911 0.0
C709 C 0.6167 0.12957 0.9911 0.0
C710 C 0.60773 0.14009 0.9647 0.0
C711 C 0.58627 0.12398 0.95103 0.0
C712 C 0.57489 0.09715 0.96306 0.0
C713 C 0.62215 0.16708 0.95098 0.0
C714 C 0.62285 0.19234 0.96509 0.0
C715 C 0.63614 0.16774 0.92471 0.0
C716 C 0.63682 0.14157 0.90912 0.0
C717 C 0.62655 0.1416 0.88167 0.0
C718 C 0.62606 0.11663 0.86734 0.0
C719 C 0.63575 0.09147 0.88026 0.0
C720 C 0.64628 0.09135 0.90742 0.0
C721 C 0.64719 0.11635 0.9217 0.0
H722 H 0.63511 0.07208 0.86924 0.0
H723 H 0.64167 0.31077 0.01382 0.0
H724 H 0.04374 0.6958 0.48229 0.0
H725 H 0.05864 0.74531 0.49348 0.0
H726 H 0.97216 0.76766 0.4839 0.0
H727 H 0.95719 0.71862 0.47273 0.0
H728 H 0.01427 0.80275 0.44989 0.0
H729 H 0.99716 0.76318 0.54597 0.0
H730 H 1.00498 0.72972 0.58704 0.0
H731 H 0.09364 0.76003 0.58639 0.0
H732 H 0.08639 0.79342 0.54503 0.0
H733 H 0.99895 0.93772 0.49564 0.0
H734 H 0.9972 0.88691 0.48759 0.0
H735 H 0.08326 0.88347 0.51714 0.0
H736 H 0.08486 0.93459 0.5262 0.0
H737 H 0.05078 0.83802 0.53887 0.0
H738 H 0.06841 0.88105 0.44706 0.0
H739 H 0.06265 0.91441 0.40541 0.0
H740 H 0.97705 0.87725 0.39601 0.0
H741 H 0.98212 0.84393 0.43784 0.0
C742 C 0.02787 0.71119 0.48314 0.0
C743 C 0.99929 0.70334 0.47674 0.0
C744 C 0.03639 0.73936 0.48954 0.0
C745 C 0.01648 0.76004 0.48936 0.0
C746 C 0.9878 0.75193 0.48411 0.0
C747 C 0.97924 0.72382 0.47802 0.0
C748 C 0.02553 0.79073 0.49235 0.0
C749 C 0.0221 0.81056 0.46937 0.0
C750 C 0.037 0.80057 0.51736 0.0
C751 C 0.04131 0.78051 0.5422 0.0
C752 C 0.01838 0.7625 0.5544 0.0
C753 C 0.02269 0.7436 0.57778 0.0
C754 C 0.04981 0.74267 0.58926 0.0
C755 C 0.07266 0.76072 0.57744 0.0
C756 C 0.06845 0.77965 0.55404 0.0
C757 C 0.01765 0.92633 0.50024 0.0
C758 C 0.04209 0.94026 0.51147 0.0
C759 C 0.01667 0.89723 0.49548 0.0
C760 C 0.04027 0.88145 0.50131 0.0
C761 C 0.06484 0.89528 0.51237 0.0
C762 C 0.06577 0.92449 0.5174 0.0
C763 C 0.03846 0.8503 0.49667 0.0
C764 C 0.0434 0.83031 0.51921 0.0
C765 C 0.02876 0.84019 0.47105 0.0
C766 C 0.02562 0.86007 0.44571 0.0
C767 C 0.04829 0.8801 0.43622 0.0
C768 C 0.04515 0.899 0.41256 0.0
C769 C 0.01949 0.89797 0.39809 0.0
C770 C 0.99692 0.87801 0.40723 0.0
C771 C 0.99993 0.85908 0.43089 0.0
H772 H 0.0171 0.91263 0.37979 0.0
H773 H 0.05311 0.72804 0.60736 0.0
H774 H 0.52265 0.83768 0.5956 0.0
H775 H 0.53366 0.78886 0.58647 0.0
H776 H 0.44672 0.76885 0.56192 0.0
H777 H 0.43573 0.81778 0.57091 0.0
H778 H 0.46637 0.72777 0.60075 0.0
H779 H 0.49629 0.77808 0.51291 0.0
H780 H 0.5225 0.81645 0.48226 0.0
H781 H 0.60189 0.79044 0.51465 0.0
H782 H 0.57613 0.75215 0.5458 0.0
H783 H 0.48794 0.59211 0.54978 0.0
H784 H 0.47493 0.64059 0.55691 0.0
H785 H 0.56361 0.66902 0.56735 0.0
H786 H 0.57675 0.62099 0.55873 0.0
H787 H 0.54131 0.70618 0.53447 0.0
H788 H 0.51244 0.65718 0.62351 0.0
H789 H 0.48696 0.61898 0.65495 0.0
H790 H 0.40692 0.64255 0.62207 0.0
H791 H 0.43194 0.68071 0.59021 0.0
C792 C 0.50611 0.823 0.58771 0.0
C793 C 0.47851 0.83144 0.58343 0.0
C794 C 0.51236 0.79518 0.58259 0.0
C795 C 0.491 0.77541 0.57338 0.0
C796 C 0.46345 0.78389 0.56894 0.0
C797 C 0.45727 0.81176 0.57386 0.0
C798 C 0.49724 0.74552 0.5694 0.0
C799 C 0.48248 0.72291 0.58601 0.0
C800 C 0.51872 0.73946 0.55065 0.0
C801 C 0.53426 0.76241 0.53187 0.0
C802 C 0.51933 0.78069 0.51367 0.0
C803 C 0.5341 0.80239 0.49617 0.0
C804 C 0.56384 0.80592 0.49656 0.0
C805 C 0.57886 0.7877 0.5144 0.0
C806 C 0.56418 0.76597 0.53195 0.0
C807 C 0.50458 0.60866 0.55394 0.0
C808 C 0.53332 0.6029 0.55373 0.0
C809 C 0.49714 0.63633 0.55812 0.0
C810 C 0.51827 0.65842 0.56299 0.0
C811 C 0.54694 0.65237 0.56354 0.0
C812 C 0.55442 0.62493 0.55873 0.0
C813 C 0.51077 0.68821 0.56617 0.0
C814 C 0.52522 0.71088 0.5493 0.0
C815 C 0.48918 0.69433 0.5849 0.0
C816 C 0.47409 0.67163 0.60431 0.0
C817 C 0.48941 0.65411 0.62288 0.0
C818 C 0.47505 0.63249 0.64079 0.0
C819 C 0.44534 0.62829 0.64046 0.0
C820 C 0.42993 0.64581 0.62229 0.0
C821 C 0.44418 0.66746 0.60433 0.0
H822 H 0.43427 0.61151 0.65431 0.0
H823 H 0.57524 0.82274 0.48299 0.0
H824 H 0.8554 0.89399 0.79306 0.0
H825 H 0.87774 0.91641 0.74968 0.0
H826 H 0.96061 0.90176 0.78264 0.0
H827 H 0.93854 0.88044 0.82649 0.0
H828 H 0.96296 0.95347 0.75616 0.0
H829 H 0.92649 0.859 0.73315 0.0
H830 H 0.88975 0.81866 0.72914 0.0
H831 H 0.84133 0.87305 0.67492 0.0
H832 H 0.87762 0.91384 0.6789 0.0
H833 H 0.04146 0.97855 0.62779 0.0
H834 H 0.0188 0.95724 0.6715 0.0
H835 H 0.93613 0.9706 0.63724 0.0
H836 H 0.95863 0.99125 0.59327 0.0
H837 H 0.93337 0.91984 0.66439 0.0
H838 H 0.96954 0.01422 0.68701 0.0
H839 H 1.00601 0.05483 0.69086 0.0
H840 H 0.05453 1.0012 0.74573 0.0
H841 H 0.01852 0.96014 0.74191 0.0
C842 C 0.87841 0.89576 0.79129 0.0
C843 C 0.89501 0.88511 0.81352 0.0
C844 C 0.8912 0.90835 0.76621 0.0
C845 C 0.92099 0.9105 0.76245 0.0
C846 C 0.93763 0.90032 0.78474 0.0
C847 C 0.92487 0.88779 0.80984 0.0
C848 C 0.93485 0.92336 0.73545 0.0
C849 C 0.95669 0.9458 0.73616 0.0
C850 C 0.92641 0.91405 0.70905 0.0
C851 C 0.90463 0.88954 0.70655 0.0
C852 C 0.90791 0.86241 0.72053 0.0
C853 C 0.88718 0.83946 0.71824 0.0
C854 C 0.86318 0.84331 0.70185 0.0
C855 C 0.85991 0.87011 0.68765 0.0
C856 C 0.88056 0.89314 0.68989 0.0
C857 C 0.01845 0.97704 0.62954 0.0
C858 C 1.00196 0.98681 0.60689 0.0
C859 C 1.00545 0.96492 0.6547 0.0
C860 C 0.97561 0.96256 0.6581 0.0
C861 C 0.95914 0.9721 0.63539 0.0
C862 C 0.9721 0.98405 0.61018 0.0
C863 C 0.96153 0.94995 0.68509 0.0
C864 C 0.93964 0.92754 0.68439 0.0
C865 C 0.96987 0.95935 0.71148 0.0
C866 C 0.99147 0.98404 0.71395 0.0
C867 C 0.98808 0.01103 0.69974 0.0
C868 C 1.00866 0.03414 0.70194 0.0
C869 C 0.03261 0.03058 0.71847 0.0
C870 C 0.03599 1.00391 0.73291 0.0
C871 C 0.01549 0.98073 0.73075 0.0
H872 H 0.04851 0.04849 0.72015 0.0
H873 H 0.84716 0.82552 0.7001 0.0
H874 H 0.59631 0.11692 0.36222 0.0
H875 H 0.58508 0.09381 0.31912 0.0
H876 H 0.67481 0.09328 0.30108 0.0
H877 H 0.68616 0.11775 0.34295 0.0
H878 H 0.64879 0.11407 0.2573 0.0
H879 H 0.63161 0.03105 0.32341 0.0
H880 H 0.60939 1.00307 0.36481 0.0
H881 H 0.52668 0.00957 0.32899 0.0
H882 H 0.54839 0.03794 0.28751 0.0
H883 H 0.65271 0.02261 0.15021 0.0
H884 H 0.65494 0.03698 0.19798 0.0
H885 H 0.56556 0.05027 0.19595 0.0
H886 H 0.56323 0.03654 0.14776 0.0
H887 H 0.58666 0.02378 0.2493 0.0
H888 H 0.6051 0.1061 0.18258 0.0
H889 H 0.62836 0.13275 0.141 0.0
H890 H 0.71019 0.12647 0.1788 0.0
H891 H 0.68743 0.09933 0.22044 0.0
C892 C 0.61363 0.11188 0.34906 0.0
C893 C 0.64214 0.1192 0.35611 0.0
C894 C 0.60718 0.09838 0.3246 0.0
C895 C 0.62912 0.09165 0.30698 0.0
C896 C 0.65754 0.09824 0.31438 0.0
C897 C 0.66399 0.11196 0.33857 0.0
C898 C 0.62282 0.07946 0.27989 0.0
C899 C 0.63545 0.09415 0.25569 0.0
C900 C 0.60467 0.05397 0.27761 0.0
C901 C 0.5916 0.03688 0.3025 0.0
C902 C 0.60866 0.02672 0.32446 0.0
C903 C 0.59616 0.01075 0.34792 0.0
C904 C 0.56663 0.00462 0.34956 0.0
C905 C 0.54954 0.01438 0.32771 0.0
C906 C 0.56194 0.03038 0.30421 0.0
C907 C 0.63347 0.02842 0.15993 0.0
C908 C 0.60793 0.02896 0.14498 0.0
C909 C 0.63474 0.03638 0.18728 0.0
C910 C 0.61048 0.04495 0.20024 0.0
C911 C 0.58446 0.04366 0.1862 0.0
C912 C 0.58319 0.03579 0.15869 0.0
C913 C 0.61329 0.05805 0.22718 0.0
C914 C 0.59989 0.04373 0.25113 0.0
C915 C 0.63086 0.08383 0.22939 0.0
C916 C 0.64458 0.10046 0.20451 0.0
C917 C 0.62807 0.11019 0.18193 0.0
C918 C 0.64117 0.12542 0.15836 0.0
C919 C 0.67074 0.13124 0.15723 0.0
C920 C 0.68729 0.12191 0.17969 0.0
C921 C 0.6743 0.10663 0.20329 0.0
H922 H 0.68084 0.14303 0.13897 0.0
H923 H 0.55699 0.99225 0.36774 0.0
H924 H 0.39233 0.57174 0.25324 0.0
H925 H 0.41194 0.55668 0.29881 0.0
H926 H 0.48526 0.61776 0.28211 0.0
H927 H 0.46578 0.63254 0.23641 0.0
H928 H 0.50031 0.56612 0.30511 0.0
H929 H 0.43175 0.63326 0.32372 0.0
H930 H 0.38441 0.65206 0.32214 0.0
H931 H 0.34799 0.57419 0.36698 0.0
H932 H 0.39507 0.55475 0.36848 0.0
H933 H 0.55462 0.57451 0.4409 0.0
H934 H 0.53422 0.58532 0.39508 0.0
H935 H 0.46006 0.5274 0.41827 0.0
H936 H 0.48001 0.51713 0.46464 0.0
H937 H 0.44466 0.57498 0.39164 0.0
H938 H 0.51341 0.50829 0.37463 0.0
H939 H 0.5607 0.48938 0.37627 0.0
H940 H 0.59665 0.56562 0.32841 0.0
H941 H 0.54964 0.58517 0.32681 0.0
C942 C 0.41281 0.58159 0.25924 0.0
C943 C 0.42787 0.60287 0.24127 0.0
C944 C 0.42389 0.57316 0.28526 0.0
C945 C 0.44997 0.58624 0.29389 0.0
C946 C 0.46517 0.60731 0.27579 0.0
C947 C 0.4541 0.61571 0.24977 0.0
C948 C 0.46117 0.57848 0.32202 0.0
C949 C 0.48829 0.56832 0.32406 0.0
C950 C 0.44515 0.58069 0.34667 0.0
C951 C 0.41687 0.59244 0.34596 0.0
C952 C 0.41361 0.62006 0.33306 0.0
C953 C 0.38683 0.63084 0.33221 0.0
C954 C 0.3632 0.6143 0.34438 0.0
C955 C 0.36631 0.58696 0.35752 0.0
C956 C 0.39304 0.57606 0.35839 0.0
C957 C 0.53397 0.56403 0.43627 0.0
C958 C 0.51899 0.54482 0.45633 0.0
C959 C 0.52239 0.57014 0.41 0.0
C960 C 0.49586 0.55674 0.40302 0.0
C961 C 0.48064 0.53788 0.42315 0.0
C962 C 0.49207 0.532 0.44961 0.0
C963 C 0.48392 0.56272 0.37481 0.0
C964 C 0.45665 0.57257 0.37272 0.0
C965 C 0.49979 0.56014 0.3501 0.0
C966 C 0.52804 0.54829 0.35079 0.0
C967 C 0.53144 0.5211 0.3646 0.0
C968 C 0.55819 0.51026 0.36551 0.0
C969 C 0.58167 0.52631 0.35251 0.0
C970 C 0.57844 0.55321 0.33849 0.0
C971 C 0.55174 0.56417 0.33755 0.0
H972 H 0.60237 0.51789 0.35325 0.0
H973 H 0.34248 0.62268 0.3437 0.0
H974 H 0.11121 0.44013 0.68634 0.0
H975 H 0.11258 0.45407 0.73434 0.0
H976 H 0.09963 0.36462 0.76539 0.0
H977 H 0.0988 0.35038 0.71739 0.0
H978 H 0.06579 0.39938 0.79288 0.0
H979 H 0.16394 0.39756 0.7685 0.0
H980 H 0.20725 0.40881 0.73927 0.0
H981 H 0.20298 0.49922 0.74777 0.0
H982 H 0.15937 0.48855 0.77671 0.0
H983 H 0.0971 0.43456 0.93283 0.0
H984 H 0.09849 0.41245 0.88827 0.0
H985 H 0.11572 0.49669 0.84479 0.0
H986 H 0.11427 0.51881 0.88895 0.0
H987 H 0.14933 0.4591 0.82564 0.0
H988 H 0.04921 0.46101 0.84717 0.0
H989 H 1.00574 0.44986 0.87622 0.0
H990 H 1.01353 0.35921 0.87307 0.0
H991 H 0.05737 0.36983 0.8444 0.0
C992 C 0.10891 0.42338 0.70335 0.0
C993 C 0.10497 0.39413 0.69798 0.0
C994 C 0.1096 0.43139 0.73077 0.0
C995 C 0.10644 0.41035 0.75339 0.0
C996 C 0.10205 0.38117 0.7482 0.0
C997 C 0.10146 0.37311 0.72074 0.0
C998 C 0.10794 0.41899 0.78244 0.0
C999 C 0.08422 0.41203 0.80027 0.0
C1000 C 0.13189 0.43574 0.79187 0.0
C1001 C 0.15823 0.44226 0.7746 0.0
C1002 C 0.1721 0.41986 0.76396 0.0
C1003 C 0.19673 0.42613 0.74747 0.0
C1004 C 0.20782 0.45471 0.74161 0.0
C1005 C 0.19434 0.47709 0.7523 0.0
C1006 C 0.16968 0.47094 0.76878 0.0
C1007 C 0.10109 0.44835 0.91376 0.0
C1008 C 0.10557 0.47847 0.9145 0.0
C1009 C 0.10191 0.43569 0.88833 0.0
C1010 C 0.10698 0.45296 0.86319 0.0
C1011 C 0.1119 0.48294 0.86395 0.0
C1012 C 0.11117 0.49556 0.88928 0.0
C1013 C 0.10691 0.44012 0.83591 0.0
C1014 C 0.13097 0.44623 0.8184 0.0
C1015 C 0.08325 0.42261 0.82682 0.0
C1016 C 0.05678 0.41622 0.84391 0.0
C1017 C 0.0418 0.4387 0.85287 0.0
C1018 C 0.01707 0.43247 0.86925 0.0
C1019 C 1.00692 0.40384 0.87656 0.0
C1020 C 0.02145 0.38138 0.86744 0.0
C1021 C 0.04624 0.38749 0.85113 0.0
H1022 H 0.98777 0.39907 0.88923 0.0
H1023 H 0.22689 0.45952 0.72884 0.0
H1024 H 0.83345 0.87759 0.93241 0.0
H1025 H 0.79192 0.89682 0.95236 0.0
H1026 H 0.75539 0.90671 0.87033 0.0
H1027 H 0.79718 0.8879 0.8502 0.0
H1028 H 0.74648 0.95178 0.89577 0.0
H1029 H 0.7314 0.85085 0.92279 0.0
H1030 H 0.74336 0.80349 0.94367 0.0
H1031 H 0.75311 0.83774 0.02385 0.0
H1032 H 0.74158 0.88544 1.00336 0.0
H1033 H 0.60623 0.97345 0.94518 0.0
H1034 H 0.64721 0.95403 0.92393 0.0
H1035 H 0.68978 0.95204 1.00324 0.0
H1036 H 0.649 0.97155 0.02456 0.0
H1037 H 0.69456 0.90227 0.97858 0.0
H1038 H 0.71142 1.00363 0.9504 0.0
H1039 H 0.70141 0.05126 0.92858 0.0
H1040 H 0.68732 0.01503 0.8498 0.0
H1041 H 0.69728 0.96715 0.87119 0.0
C1042 C 0.81649 0.88359 0.91858 0.0
C1043 C 0.81881 0.88096 0.88961 0.0
C1044 C 0.79258 0.8946 0.93008 0.0
C1045 C 0.76995 0.9029 0.91307 0.0
C1046 C 0.77235 0.90054 0.88409 0.0
C1047 C 0.79639 0.88977 0.87254 0.0
C1048 C 0.74411 0.91445 0.92537 0.0
C1049 C 0.73491 0.9406 0.9136 0.0
C1050 C 0.72904 0.90046 0.94906 0.0
C1051 C 0.73589 0.87179 0.96148 0.0
C1052 C 0.73629 0.84834 0.94483 0.0
C1053 C 0.74297 0.82142 0.95661 0.0
C1054 C 0.74906 0.81762 0.98506 0.0
C1055 C 0.74842 0.84072 1.00181 0.0
C1056 C 0.74179 0.8677 0.99013 0.0
C1057 C 0.62431 0.96892 0.95814 0.0
C1058 C 0.62416 0.97414 0.98667 0.0
C1059 C 0.64788 0.95791 0.94588 0.0
C1060 C 0.6719 0.95165 0.96183 0.0
C1061 C 0.67165 0.95662 0.99037 0.0
C1062 C 0.64825 0.96789 1.00256 0.0
C1063 C 0.69707 0.93956 0.94899 0.0
C1064 C 0.7061 0.91331 0.96067 0.0
C1065 C 0.71185 0.95331 0.92509 0.0
C1066 C 0.70481 0.98178 0.91245 0.0
C1067 C 0.70588 0.00576 0.9285 0.0
C1068 C 0.70034 0.03282 0.91618 0.0
C1069 C 0.69368 0.03616 0.88783 0.0
C1070 C 0.69248 0.01242 0.87176 0.0
C1071 C 0.69813 0.98533 0.88395 0.0
H1072 H 0.68958 0.05715 0.87827 0.0
H1073 H 0.75422 0.79677 0.99413 0.0
H1074 H 0.72895 0.18811 0.42045 0.0
H1075 H 0.77604 0.17872 0.43901 0.0
H1076 H 0.74465 0.09089 0.46418 0.0
H1077 H 0.6978 0.10007 0.44533 0.0
H1078 H 0.78196 0.11892 0.50397 0.0
H1079 H 0.77488 0.10245 0.40442 0.0
H1080 H 0.76671 0.11847 0.35513 0.0
H1081 H 0.83466 0.18558 0.35809 0.0
H1082 H 0.84291 0.1702 0.4076 0.0
H1083 H 0.8818 0.0193 0.50467 0.0
H1084 H 0.84256 0.04906 0.49589 0.0
H1085 H 0.90134 0.12003 0.46363 0.0
H1086 H 0.94102 0.08976 0.47143 0.0
H1087 H 0.85572 0.11359 0.43075 0.0
H1088 H 0.87055 0.1224 0.52683 0.0
H1089 H 0.87934 0.10639 0.57597 0.0
H1090 H 0.79844 0.05636 0.5809 0.0
H1091 H 0.78939 0.07148 0.53159 0.0
C1092 C 0.73205 0.16701 0.43049 0.0
C1093 C 0.70999 0.14471 0.43143 0.0
C1094 C 0.75885 0.16169 0.441 0.0
C1095 C 0.76369 0.13413 0.45285 0.0
C1096 C 0.7412 0.11233 0.4552 0.0
C1097 C 0.71459 0.1175 0.44433 0.0
C1098 C 0.79267 0.1268 0.46025 0.0
C1099 C 0.79821 0.11781 0.48809 0.0
C1100 C 0.81406 0.12641 0.43955 0.0
C1101 C 0.80925 0.13544 0.40977 0.0
C1102 C 0.7879 0.12079 0.39462 0.0
C1103 C 0.78328 0.12972 0.36664 0.0
C1104 C 0.80009 0.15309 0.35351 0.0
C1105 C 0.82161 0.16752 0.36831 0.0
C1106 C 0.82626 0.15872 0.39633 0.0
C1107 C 0.88652 0.04108 0.4954 0.0
C1108 C 0.91463 0.05207 0.48866 0.0
C1109 C 0.86403 0.05826 0.4908 0.0
C1110 C 0.86911 0.08694 0.47966 0.0
C1111 C 0.89705 0.09802 0.47255 0.0
C1112 C 0.91967 0.08075 0.47712 0.0
C1113 C 0.84475 0.10455 0.47442 0.0
C1114 C 0.83999 0.11549 0.44694 0.0
C1115 C 0.8242 0.10698 0.49556 0.0
C1116 C 0.82933 0.09803 0.5254 0.0
C1117 C 0.85469 0.10784 0.53831 0.0
C1118 C 0.85972 0.09894 0.56622 0.0
C1119 C 0.83945 0.08041 0.58155 0.0
C1120 C 0.8141 0.07075 0.569 0.0
C1121 C 0.809 0.0795 0.54107 0.0
H1122 H 0.84339 0.07355 0.60315 0.0
H1123 H 0.7965 0.15997 0.33184 0.0
H1124 H 0.3321 0.65722 0.11438 0.0
H1125 H 0.28555 0.63979 0.09731 0.0
H1126 H 0.25249 0.62946 0.18194 0.0
H1127 H 0.29948 0.64597 0.19913 0.0
H1128 H 0.2354 0.5846 0.15703 0.0
H1129 H 0.2346 0.68531 0.13291 0.0
H1130 H 0.25269 0.73371 0.11277 0.0
H1131 H 0.25348 0.70281 0.03087 0.0
H1132 H 0.23578 0.6541 0.05056 0.0
H1133 H 0.09527 0.55111 0.10826 0.0
H1134 H 0.13465 0.57955 0.12889 0.0
H1135 H 0.18315 0.58113 0.05222 0.0
H1136 H 0.14392 0.55297 0.03134 0.0
H1137 H 0.18849 0.63382 0.07659 0.0
H1138 H 0.19067 0.53179 0.10355 0.0
H1139 H 0.16782 0.48563 0.12438 0.0
H1140 H 0.16263 0.52118 0.2039 0.0
H1141 H 0.18407 0.56818 0.18311 0.0
C1142 C 0.31478 0.65154 0.12927 0.0
C1143 C 0.31929 0.65302 0.15804 0.0
C1144 C 0.28815 0.64168 0.11952 0.0
C1145 C 0.26529 0.63375 0.13828 0.0
C1146 C 0.26974 0.63548 0.16705 0.0
C1147 C 0.29654 0.64492 0.17685 0.0
C1148 C 0.23721 0.6224 0.12791 0.0
C1149 C 0.22491 0.5957 0.13981 0.0
C1150 C 0.22353 0.63667 0.10525 0.0
C1151 C 0.23405 0.66598 0.09326 0.0
C1152 C 0.23881 0.68878 0.11063 0.0
C1153 C 0.24897 0.71628 0.09929 0.0
C1154 C 0.25428 0.72132 0.07057 0.0
C1155 C 0.24937 0.69887 0.05312 0.0
C1156 C 0.23924 0.67132 0.06435 0.0
C1157 C 0.11422 0.55772 0.09571 0.0
C1158 C 0.11665 0.54946 0.06829 0.0
C1159 C 0.13664 0.57402 0.1075 0.0
C1160 C 0.16186 0.5822 0.09213 0.0
C1161 C 0.16384 0.57505 0.06439 0.0
C1162 C 0.14148 0.55875 0.05259 0.0
C1163 C 0.18715 0.59606 0.10549 0.0
C1164 C 0.1989 0.62309 0.09409 0.0
C1165 C 0.20012 0.58231 0.12884 0.0
C1166 C 0.18866 0.55363 0.14168 0.0
C1167 C 0.18447 0.52987 0.12543 0.0
C1168 C 0.1717 0.50355 0.13722 0.0
C1169 C 0.16385 0.50041 0.16548 0.0
C1170 C 0.16869 0.52365 0.18199 0.0
C1171 C 0.18101 0.55019 0.17018 0.0
H1172 H 0.15404 0.47996 0.17459 0.0
H1173 H 0.26215 0.74262 0.06183 0.0
H1174 H 0.185 0.42554 0.55055 0.0
H1175 H 0.23103 0.45411 0.54319 0.0
H1176 H 0.25528 0.42708 0.62717 0.0
H1177 H 0.20908 0.39914 0.63468 0.0
H1178 H 0.27588 0.482 0.61302 0.0
H1179 H 0.27321 0.39035 0.57155 0.0
H1180 H 0.25428 0.35395 0.54032 0.0
H1181 H 0.26983 0.41527 0.4692 0.0
H1182 H 0.28852 0.45216 0.5001 0.0
H1183 H 0.4231 0.46755 0.61087 0.0
H1184 H 0.37115 0.46319 0.61339 0.0
H1185 H 0.36794 0.50035 0.52836 0.0
H1186 H 0.42021 0.50451 0.52568 0.0
H1187 H 0.33457 0.44944 0.53736 0.0
H1188 H 0.34694 0.53796 0.57974 0.0
H1189 H 0.3676 0.57244 0.61199 0.0
H1190 H 0.33543 0.51617 0.68228 0.0
H1191 H 0.31496 0.4811 0.65049 0.0
C1192 C 0.20006 0.42617 0.5675 0.0
C1193 C 0.19397 0.40968 0.5929 0.0
C1194 C 0.22629 0.4424 0.56331 0.0
C1195 C 0.24683 0.44222 0.58444 0.0
C1196 C 0.23985 0.42741 0.61053 0.0
C1197 C 0.21357 0.41133 0.61476 0.0
C1198 C 0.27642 0.45497 0.57871 0.0
C1199 C 0.28875 0.47491 0.5965 0.0
C1200 C 0.29303 0.44625 0.55671 0.0
C1201 C 0.28191 0.42408 0.53814 0.0
C1202 C 0.27238 0.39612 0.54927 0.0
C1203 C 0.26173 0.3754 0.53164 0.0
C1204 C 0.26076 0.38233 0.50281 0.0
C1205 C 0.27053 0.40996 0.49155 0.0
C1206 C 0.28116 0.43078 0.5091 0.0
C1207 C 0.41133 0.47498 0.59278 0.0
C1208 C 0.42566 0.48617 0.56802 0.0
C1209 C 0.38166 0.47277 0.59433 0.0
C1210 C 0.36569 0.48167 0.57114 0.0
C1211 C 0.37991 0.49353 0.54655 0.0
C1212 C 0.4097 0.496 0.54507 0.0
C1213 C 0.33426 0.47599 0.57206 0.0
C1214 C 0.32157 0.45721 0.55342 0.0
C1215 C 0.31747 0.48565 0.5934 0.0
C1216 C 0.32953 0.50679 0.61268 0.0
C1217 C 0.34443 0.53282 0.60208 0.0
C1218 C 0.35609 0.5525 0.62028 0.0
C1219 C 0.35286 0.54649 0.64917 0.0
C1220 C 0.33791 0.5208 0.6599 0.0
C1221 C 0.32623 0.50103 0.64179 0.0
H1222 H 0.36192 0.56174 0.66323 0.0
H1223 H 0.25251 0.36626 0.48919 0.0
H1224 H 0.93826 0.76858 0.87568 0.0
H1225 H 0.96491 0.73052 0.89863 0.0
H1226 H 0.89868 0.71274 0.96153 0.0
H1227 H 0.87232 0.75109 0.93882 0.0
H1228 H 0.94946 0.70826 0.98516 0.0
H1229 H 0.90308 0.67097 0.90478 0.0
H1230 H 0.89119 0.67058 0.85481 0.0
H1231 H 0.97948 0.66727 0.83389 0.0
H1232 H 0.99194 0.66801 0.88373 0.0
H1233 H 0.9836 0.56765 0.03594 0.0
H1234 H 0.96054 0.60945 0.01596 0.0
H1235 H 0.02383 0.62249 0.94987 0.0
H1236 H 0.04635 0.58012 0.96924 0.0
H1237 H 0.97526 0.6302 0.92798 0.0
H1238 H 0.022 0.6664 1.00812 0.0
H1239 H 0.03433 0.66694 0.05797 0.0
H1240 H 0.94655 0.67278 0.07935 0.0
H1241 H 0.93363 0.6719 0.02965 0.0
C1242 C 0.92963 0.75679 0.89463 0.0
C1243 C 0.90304 0.76263 0.90524 0.0
C1244 C 0.94475 0.73485 0.90765 0.0
C1245 C 0.93362 0.71811 0.93159 0.0
C1246 C 0.90776 0.72505 0.94305 0.0
C1247 C 0.89266 0.74701 0.93004 0.0
C1248 C 0.94827 0.6928 0.94407 0.0
C1249 C 0.95482 0.69106 0.97268 0.0
C1250 C 0.95594 0.67045 0.92788 0.0
C1251 C 0.94847 0.66984 0.89794 0.0
C1252 C 0.91998 0.67036 0.8895 0.0
C1253 C 0.91313 0.67005 0.86121 0.0
C1254 C 0.93457 0.66898 0.84118 0.0
C1255 C 0.9629 0.66814 0.84942 0.0
C1256 C 0.96986 0.66849 0.87769 0.0
C1257 C 0.9927 0.57946 0.0172 0.0
C1258 C 0.01697 0.57044 1.00432 0.0
C1259 C 0.97954 0.60359 1.00582 0.0
C1260 C 0.99056 0.61974 0.98151 0.0
C1261 C 0.01476 0.61064 0.9686 0.0
C1262 C 0.02773 0.58635 0.9798 0.0
C1263 C 0.97662 0.64562 0.96914 0.0
C1264 C 0.97009 0.64743 0.94051 0.0
C1265 C 0.9691 0.66808 0.98531 0.0
C1266 C 0.97682 0.66881 0.01519 0.0
C1267 C 1.0053 0.66761 0.02348 0.0
C1268 C 1.0124 0.668 0.0517 0.0
C1269 C 0.99122 0.66982 0.07182 0.0
C1270 C 0.96292 0.67134 0.06375 0.0
C1271 C 0.9557 0.67092 0.03555 0.0
H1272 H 0.99676 0.67011 0.09367 0.0
H1273 H 0.92923 0.66875 0.81929 0.0
H1274 H 0.44313 0.69958 0.1394 0.0
H1275 H 0.47 0.74369 0.11929 0.0
H1276 H 0.40298 0.79386 0.14494 0.0
H1277 H 0.37549 0.74951 0.16356 0.0
H1278 H 0.41948 0.81452 0.0973 0.0
H1279 H 0.46919 0.78929 0.18067 0.0
H1280 H 0.49413 0.75797 0.21442 0.0
H1281 H 0.55868 0.74991 0.15273 0.0
H1282 H 0.53392 0.78087 0.11848 0.0
H1283 H 0.54154 0.93664 0.10049 0.0
H1284 H 0.51836 0.89109 0.12163 0.0
H1285 H 0.49137 0.86757 0.04011 0.0
H1286 H 0.51362 0.91338 0.019 0.0
H1287 H 0.52177 0.83544 0.11845 0.0
H1288 H 0.42339 0.83504 0.04485 0.0
H1289 H 0.39785 0.8706 0.01624 0.0
H1290 H 0.42844 0.93692 0.06843 0.0
H1291 H 0.45286 0.90161 0.09809 0.0
C1292 C 0.43423 0.72009 0.14061 0.0
C1293 C 0.40738 0.72133 0.15299 0.0
C1294 C 0.44963 0.7453 0.12932 0.0
C1295 C 0.43883 0.77228 0.13104 0.0
C1296 C 0.41182 0.77338 0.1433 0.0
C1297 C 0.39614 0.74811 0.15398 0.0
C1298 C 0.45545 0.79931 0.1198 0.0
C1299 C 0.44184 0.81902 0.10197 0.0
C1300 C 0.4845 0.80569 0.12635 0.0
C1301 C 0.49956 0.7872 0.14694 0.0
C1302 C 0.48861 0.78069 0.17425 0.0
C1303 C 0.50272 0.76302 0.19347 0.0
C1304 C 0.52794 0.7519 0.1857 0.0
C1305 C 0.53913 0.7585 0.15871 0.0
C1306 C 0.52508 0.77614 0.13939 0.0
C1307 C 0.53088 0.92163 0.08706 0.0
C1308 C 0.52904 0.92874 0.05814 0.0
C1309 C 0.51774 0.89556 0.09915 0.0
C1310 C 0.50272 0.87614 0.08252 0.0
C1311 C 0.50234 0.88249 0.05343 0.0
C1312 C 0.5151 0.90868 0.04139 0.0
C1313 C 0.48587 0.85019 0.09566 0.0
C1314 C 0.49942 0.83079 0.11381 0.0
C1315 C 0.45646 0.84463 0.09032 0.0
C1316 C 0.44031 0.86569 0.07348 0.0
C1317 C 0.42434 0.85714 0.05043 0.0
C1318 C 0.40995 0.87726 0.03407 0.0
C1319 C 0.41142 0.90602 0.04053 0.0
C1320 C 0.42705 0.91464 0.06352 0.0
C1321 C 0.44112 0.89455 0.08017 0.0
H1322 H 0.40048 0.92162 0.02771 0.0
H1323 H 0.53883 0.73822 0.20061 0.0
H1324 H 0.08203 0.30252 0.66409 0.0
H1325 H 0.06413 0.25582 0.64871 0.0
H1326 H 0.03634 0.29746 0.57147 0.0
H1327 H 0.05434 0.34457 0.58675 0.0
H1328 H 0.99908 0.24337 0.59998 0.0
H1329 H 0.09279 0.27896 0.56266 0.0
H1330 H 0.14157 0.30154 0.56758 0.0
H1331 H 0.15976 0.23283 0.62794 0.0
H1332 H 0.11084 0.21018 0.62381 0.0
H1333 H 1.00236 0.11477 0.52622 0.0
H1334 H 1.00408 0.16443 0.53984 0.0
H1335 H 0.06325 0.14336 0.60516 0.0
H1336 H 0.06259 0.09443 0.59083 0.0
H1337 H 0.08229 0.19032 0.57823 0.0
H1338 H 0.98992 0.1541 0.61665 0.0
H1339 H 0.94061 0.13186 0.615 0.0
H1340 H 0.91925 0.20009 0.55557 0.0
H1341 H 0.96854 0.22255 0.55659 0.0
C1342 C 0.07122 0.30191 0.64426 0.0
C1343 C 0.06972 0.32717 0.62653 0.0
C1344 C 0.06105 0.27521 0.6355 0.0
C1345 C 0.04906 0.27332 0.60897 0.0
C1346 C 0.04543 0.29861 0.59208 0.0
C1347 C 0.05589 0.3254 0.60073 0.0
C1348 C 0.04477 0.24488 0.59747 0.0
C1349 C 0.01714 0.23178 0.59479 0.0
C1350 C 0.06845 0.22986 0.59114 0.0
C1351 C 0.09808 0.24305 0.59313 0.0
C1352 C 0.10712 0.26881 0.57716 0.0
C1353 C 0.1348 0.2816 0.57978 0.0
C1354 C 0.15374 0.26866 0.59811 0.0
C1355 C 0.14505 0.24285 0.61378 0.0
C1356 C 0.11736 0.23002 0.6113 0.0
C1357 C 0.01553 0.12078 0.54361 0.0
C1358 C 0.03249 0.10086 0.55736 0.0
C1359 C 0.01639 0.1491 0.55148 0.0
C1360 C 0.03369 0.15766 0.57365 0.0
C1361 C 0.0499 0.13739 0.58787 0.0
C1362 C 0.04948 0.10939 0.57969 0.0
C1363 C 0.03643 0.18798 0.58133 0.0
C1364 C 0.064 0.20168 0.58317 0.0
C1365 C 1.01263 0.20331 0.58705 0.0
C1366 C 0.98299 0.18984 0.58648 0.0
C1367 C 0.97476 0.16424 0.60307 0.0
C1368 C 0.94681 0.15161 0.60227 0.0
C1369 C 0.92684 0.16452 0.58514 0.0
C1370 C 0.93476 0.1901 0.5688 0.0
C1371 C 0.96269 0.2028 0.56949 0.0
H1372 H 0.90519 0.15478 0.58459 0.0
H1373 H 0.17516 0.2786 0.60012 0.0
H1374 H 0.56023 0.22747 0.43537 0.0
H1375 H 0.5577 0.27698 0.448 0.0
H1376 H 0.64749 0.28281 0.46643 0.0
H1377 H 0.64975 0.23286 0.45473 0.0
H1378 H 0.62032 0.30746 0.50417 0.0
H1379 H 0.62272 0.31419 0.40502 0.0
H1380 H 0.60901 0.30239 0.35749 0.0
H1381 H 0.52512 0.32815 0.37134 0.0
H1382 H 0.53819 0.33971 0.41913 0.0
H1383 H 0.62208 0.46297 0.50266 0.0
H1384 H 0.63262 0.41576 0.48782 0.0
H1385 H 0.54278 0.38876 0.48798 0.0
H1386 H 0.53212 0.43536 0.50329 0.0
H1387 H 0.57603 0.3775 0.43833 0.0
H1388 H 0.57545 0.36638 0.54039 0.0
H1389 H 0.59219 0.37997 0.58653 0.0
H1390 H 0.67765 0.36473 0.56423 0.0
H1391 H 0.66145 0.35148 0.51776 0.0
C1392 C 0.57931 0.23931 0.44231 0.0
C1393 C 0.60523 0.22663 0.44392 0.0
C1394 C 0.57794 0.26761 0.44931 0.0
C1395 C 0.60256 0.28379 0.45757 0.0
C1396 C 0.62829 0.27079 0.45996 0.0
C1397 C 0.62959 0.24239 0.45325 0.0
C1398 C 0.60137 0.31428 0.46362 0.0
C1399 C 0.61108 0.32287 0.48955 0.0
C1400 C 0.58936 0.33446 0.44453 0.0
C1401 C 0.58137 0.3276 0.41576 0.0
C1402 C 0.60128 0.31714 0.39801 0.0
C1403 C 0.59363 0.31052 0.37101 0.0
C1404 C 0.56619 0.31446 0.36142 0.0
C1405 C 0.54636 0.32509 0.3788 0.0
C1406 C 0.55388 0.3317 0.40585 0.0
C1407 C 0.60464 0.44696 0.49942 0.0
C1408 C 0.57631 0.45268 0.50424 0.0
C1409 C 0.61067 0.42011 0.491 0.0
C1410 C 0.58842 0.39897 0.48689 0.0
C1411 C 0.56016 0.40492 0.49104 0.0
C1412 C 0.55415 0.43145 0.49992 0.0
C1413 C 0.59432 0.3702 0.47898 0.0
C1414 C 0.58556 0.36205 0.45269 0.0
C1415 C 0.60766 0.35063 0.49748 0.0
C1416 C 0.6173 0.35829 0.5255 0.0
C1417 C 0.59785 0.36618 0.54523 0.0
C1418 C 0.60723 0.37377 0.57146 0.0
C1419 C 0.63598 0.3733 0.57828 0.0
C1420 C 0.65539 0.36514 0.5589 0.0
C1421 C 0.64612 0.35758 0.53263 0.0
H1422 H 0.6432 0.37919 0.59859 0.0
H1423 H 0.56031 0.30933 0.3405 0.0
loop_
_geom_bond_atom_site_label_1
_geom_bond_atom_site_label_2
_geom_bond_distance
_geom_bond_site_symmetry_2
_ccdc_geom_bond_type
H0 C7 0.929 . S
H1 C10 0.930 . S
H2 C12 0.929 . S
H3 C4 0.969 . S
C4 H3 0.969 . S
C4 O5 1.550 . S
C4 H6 0.973 . S
O5 C4 1.550 . S
O5 C11 1.412 . S
H6 C4 0.973 . S
C7 H0 0.929 . S
C7 C8 1.400 . S
C7 C9 1.364 . S
C8 C7 1.400 . S
C8 C12 1.377 . S
C9 C7 1.364 . S
C9 C10 1.374 . S
C10 H1 0.930 . S
C10 C9 1.374 . S
C10 C11 1.383 . S
C11 O5 1.412 . S
C11 C10 1.383 . S
C11 C12 1.394 . S
C12 H2 0.929 . S
C12 C8 1.377 . S
C12 C11 1.394 . S
H13 C20 0.929 . S
H14 C23 0.930 . S
H15 C25 0.929 . S
H16 C17 0.969 . S
C17 H16 0.969 . S
C17 O18 1.550 . S
C17 H19 0.973 . S
O18 C17 1.550 . S
O18 C24 1.412 . S
H19 C17 0.973 . S
C20 H13 0.929 . S
C20 C21 1.400 . S
C20 C22 1.364 . S
C21 C20 1.400 . S
C21 C25 1.377 . S
C22 C20 1.364 . S
C22 C23 1.374 . S
C23 H14 0.930 . S
C23 C22 1.374 . S
C23 C24 1.383 . S
C24 O18 1.412 . S
C24 C23 1.383 . S
C24 C25 1.394 . S
C25 H15 0.929 . S
C25 C21 1.377 . S
C25 C24 1.394 . S
H26 C33 0.929 . S
H27 C36 0.930 . S
H28 C38 0.929 . S
H29 C30 0.969 . S
C30 H29 0.969 . S
C30 O31 1.550 . S
C30 H32 0.973 . S
O31 C30 1.550 . S
O31 C37 1.412 . S
H32 C30 0.973 . S
C33 H26 0.929 . S
C33 C34 1.400 . S
C33 C35 1.364 . S
C34 C33 1.400 . S
C34 C38 1.377 . S
C35 C33 1.364 . S
C35 C36 1.374 . S
C36 H27 0.930 . S
C36 C35 1.374 . S
C36 C37 1.383 . S
C37 O31 1.412 . S
C37 C36 1.383 . S
C37 C38 1.394 . S
C38 H28 0.929 . S
C38 C34 1.377 . S
C38 C37 1.394 . S
H39 C46 0.929 . S
H40 C49 0.930 . S
H41 C51 0.929 . S
H42 C43 0.969 . S
C43 H42 0.969 . S
C43 O44 1.550 . S
C43 H45 0.973 . S
O44 C43 1.550 . S
O44 C50 1.412 . S
H45 C43 0.973 . S
C46 H39 0.929 . S
C46 C47 1.400 . S
C46 C48 1.364 . S
C47 C46 1.400 . S
C47 C51 1.377 . S
C48 C46 1.364 . S
C48 C49 1.374 . S
C49 H40 0.930 . S
C49 C48 1.374 . S
C49 C50 1.383 . S
C50 O44 1.412 . S
C50 C49 1.383 . S
C50 C51 1.394 . S
C51 H41 0.929 . S
C51 C47 1.377 . S
C51 C50 1.394 . S
H52 C59 0.929 . S
H53 C62 0.930 . S
H54 C64 0.929 . S
H55 C56 0.969 . S
C56 H55 0.969 . S
C56 O57 1.550 . S
C56 H58 0.973 . S
O57 C56 1.550 . S
O57 C63 1.412 . S
H58 C56 0.973 . S
C59 H52 0.929 . S
C59 C60 1.400 . S
C59 C61 1.364 . S
C60 C59 1.400 . S
C60 C64 1.377 . S
C61 C59 1.364 . S
C61 C62 1.374 . S
C62 H53 0.930 . S
C62 C61 1.374 . S
C62 C63 1.383 . S
C63 O57 1.412 . S
C63 C62 1.383 . S
C63 C64 1.394 . S
C64 H54 0.929 . S
C64 C60 1.377 . S
C64 C63 1.394 . S
H65 C72 0.929 . S
H66 C75 0.930 . S
H67 C77 0.929 . S
H68 C69 0.969 . S
C69 H68 0.969 . S
C69 O70 1.550 . S
C69 H71 0.973 . S
O70 C69 1.550 . S
O70 C76 1.412 . S
H71 C69 0.973 . S
C72 H65 0.929 . S
C72 C73 1.400 . S
C72 C74 1.364 . S
C73 C72 1.400 . S
C73 C77 1.377 . S
C74 C72 1.364 . S
C74 C75 1.374 . S
C75 H66 0.930 . S
C75 C74 1.374 . S
C75 C76 1.383 . S
C76 O70 1.412 . S
C76 C75 1.383 . S
C76 C77 1.394 . S
C77 H67 0.929 . S
C77 C73 1.377 . S
C77 C76 1.394 . S
H78 C85 0.929 . S
H79 C88 0.930 . S
H80 C90 0.929 . S
H81 C82 0.969 . S
C82 H81 0.969 . S
C82 O83 1.550 . S
C82 H84 0.973 . S
O83 C82 1.550 . S
O83 C89 1.412 . S
H84 C82 0.973 . S
C85 H78 0.929 . S
C85 C86 1.400 . S
C85 C87 1.364 . S
C86 C85 1.400 . S
C86 C90 1.377 . S
C87 C85 1.364 . S
C87 C88 1.374 . S
C88 H79 0.930 . S
C88 C87 1.374 . S
C88 C89 1.383 . S
C89 O83 1.412 . S
C89 C88 1.383 . S
C89 C90 1.394 . S
C90 H80 0.929 . S
C90 C86 1.377 . S
C90 C89 1.394 . S
H91 C98 0.929 . S
H92 C101 0.930 . S
H93 C103 0.929 . S
H94 C95 0.969 . S
C95 H94 0.969 . S
C95 O96 1.550 . S
C95 H97 0.973 . S
O96 C95 1.550 . S
O96 C102 1.412 . S
H97 C95 0.973 . S
C98 H91 0.929 . S
C98 C99 1.400 . S
C98 C100 1.364 . S
C99 C98 1.400 . S
C99 C103 1.377 . S
C100 C98 1.364 . S
C100 C101 1.374 . S
C101 H92 0.930 . S
C101 C100 1.374 . S
C101 C102 1.383 . S
C102 O96 1.412 . S
C102 C101 1.383 . S
C102 C103 1.394 . S
C103 H93 0.929 . S
C103 C99 1.377 . S
C103 C102 1.394 . S
Co104 N109 2.057 . S
Co104 O121 2.021 1_655 S
Co104 O124 2.062 1_655 S
Co104 O128 2.117 1_545 S
Co104 O129 2.020 . S
C105 O125 1.259 . S
C105 O128 1.258 1_455 S
Co106 N115 2.057 . S
Co106 O122 2.117 . S
Co106 O123 2.020 . S
Co106 O125 2.021 1_545 S
Co106 O130 2.062 1_545 S
C107 N109 1.316 . S
C107 N110 1.347 . S
C107 H112 0.931 . S
C108 N109 1.375 . S
C108 C111 1.350 . S
C108 H113 0.930 1_545 S
N109 Co104 2.057 . S
N109 C107 1.316 . S
N109 C108 1.375 . S
N110 C107 1.347 . S
N110 C111 1.373 . S
C111 C108 1.350 . S
C111 N110 1.373 . S
C111 H132 0.931 . S
H112 C107 0.931 . S
H113 C108 0.930 1_565 S
C114 O121 1.259 . S
C114 O122 1.258 . S
N115 Co106 2.057 . S
N115 C116 1.316 1_545 S
N115 C117 1.375 . S
C116 N115 1.316 1_565 S
C116 N118 1.347 . S
C116 H127 0.931 . S
C117 N115 1.375 . S
C117 C119 1.350 . S
C117 H126 0.930 . S
N118 C116 1.347 . S
N118 C119 1.373 1_565 S
C119 C117 1.350 . S
C119 N118 1.373 1_545 S
C119 H133 0.931 . S
C120 O123 1.256 . S
C120 O124 1.255 . S
O121 Co104 2.021 1_455 S
O121 C114 1.259 . S
O122 Co106 2.117 . S
O122 C114 1.258 . S
O123 Co106 2.020 . S
O123 C120 1.256 . S
O124 Co104 2.062 1_455 S
O124 C120 1.255 . S
O125 C105 1.259 . S
O125 Co106 2.021 1_565 S
H126 C117 0.930 . S
H127 C116 0.931 . S
O128 Co104 2.117 1_565 S
O128 C105 1.258 1_655 S
O129 Co104 2.020 . S
O129 C131 1.256 1_645 S
O130 Co106 2.062 1_565 S
O130 C131 1.255 . S
C131 O129 1.256 1_465 S
C131 O130 1.255 . S
H132 C111 0.931 . S
H133 C119 0.931 . S
Co134 N139 2.057 1_545 S
Co134 O151 2.021 . S
Co134 O154 2.062 1_545 S
Co134 O158 2.117 1_546 S
Co134 O159 2.025 . S
C135 O155 1.259 . S
C135 O158 1.258 . S
Co136 N145 2.057 . S
Co136 O152 2.117 . S
Co136 O153 2.020 . S
Co136 O155 2.021 1_545 S
Co136 O160 2.062 . S
C137 N139 1.316 . S
C137 N140 1.347 . S
C137 H142 0.931 1_565 S
C138 N139 1.375 . S
C138 C141 1.350 . S
C138 H143 0.930 . S
N139 Co134 2.057 1_565 S
N139 C137 1.316 . S
N139 C138 1.375 . S
N140 C137 1.347 . S
N140 C141 1.373 . S
C141 C138 1.350 . S
C141 N140 1.373 . S
C141 H162 0.931 . S
H142 C137 0.931 1_545 S
H143 C138 0.930 . S
C144 O151 1.259 . S
C144 O152 1.258 1_556 S
N145 Co136 2.057 . S
N145 C146 1.316 . S
N145 C147 1.375 . S
C146 N145 1.316 . S
C146 N148 1.347 . S
C146 H157 0.931 . S
C147 N145 1.375 . S
C147 C149 1.350 . S
C147 H156 0.930 . S
N148 C146 1.347 . S
N148 C149 1.373 . S
C149 C147 1.350 . S
C149 N148 1.373 . S
C149 H163 0.931 . S
C150 O153 1.256 1_566 S
C150 O154 1.255 . S
O151 Co134 2.021 . S
O151 C144 1.259 . S
O152 Co136 2.117 . S
O152 C144 1.258 1_554 S
O153 Co136 2.020 . S
O153 C150 1.256 1_544 S
O154 Co134 2.062 1_565 S
O154 C150 1.255 . S
O155 C135 1.259 . S
O155 Co136 2.021 1_565 S
H156 C147 0.930 . S
H157 C146 0.931 . S
O158 Co134 2.117 1_564 S
O158 C135 1.258 . S
O159 Co134 2.025 . S
O159 C161 1.245 1_556 S
O160 Co136 2.062 . S
O160 C161 1.255 . S
C161 O159 1.245 1_554 S
C161 O160 1.255 . S
H162 C141 0.931 . S
H163 C149 0.931 . S
Co164 N169 2.057 . S
Co164 O181 2.021 . S
Co164 O184 2.062 . S
Co164 O188 2.117 . S
Co164 O189 2.020 . S
C165 O185 1.259 . S
C165 O188 1.258 . S
Co166 N175 2.057 . S
Co166 O182 2.117 . S
Co166 O183 2.020 . S
Co166 O185 2.021 . S
Co166 O190 2.062 . S
C167 N169 1.316 . S
C167 N170 1.347 . S
C167 H172 0.931 . S
C168 N169 1.375 . S
C168 C171 1.350 . S
C168 H173 0.930 . S
N169 Co164 2.057 . S
N169 C167 1.316 . S
N169 C168 1.375 . S
N170 C167 1.347 . S
N170 C171 1.373 . S
C171 C168 1.350 . S
C171 N170 1.373 . S
C171 H192 0.931 . S
H172 C167 0.931 . S
H173 C168 0.930 . S
C174 O181 1.259 . S
C174 O182 1.258 . S
N175 Co166 2.057 . S
N175 C176 1.316 . S
N175 C177 1.375 . S
C176 N175 1.316 . S
C176 N178 1.347 . S
C176 H187 0.931 . S
C177 N175 1.375 . S
C177 C179 1.350 . S
C177 H186 0.930 . S
N178 C176 1.347 . S
N178 C179 1.373 . S
C179 C177 1.350 . S
C179 N178 1.373 . S
C179 H193 0.931 . S
C180 O183 1.256 . S
C180 O184 1.255 . S
O181 Co164 2.021 . S
O181 C174 1.259 . S
O182 Co166 2.117 . S
O182 C174 1.258 . S
O183 Co166 2.020 . S
O183 C180 1.256 . S
O184 Co164 2.062 . S
O184 C180 1.255 . S
O185 C165 1.259 . S
O185 Co166 2.021 . S
H186 C177 0.930 . S
H187 C176 0.931 . S
O188 Co164 2.117 . S
O188 C165 1.258 . S
O189 Co164 2.020 . S
O189 C191 1.256 . S
O190 Co166 2.062 . S
O190 C191 1.255 . S
C191 O189 1.256 . S
C191 O190 1.255 . S
H192 C171 0.931 . S
H193 C179 0.931 . S
Co194 N199 2.057 . S
Co194 O211 2.021 1_556 S
Co194 O214 2.062 1_556 S
Co194 O218 2.117 . S
Co194 O219 2.020 . S
C195 O215 1.259 . S
C195 O218 1.258 1_654 S
Co196 N205 2.057 . S
Co196 O212 2.117 . S
Co196 O213 2.020 . S
Co196 O215 2.021 1_455 S
Co196 O220 2.062 . S
C197 N199 1.316 . S
C197 N200 1.347 . S
C197 H202 0.931 . S
C198 N199 1.375 . S
C198 C201 1.350 . S
C198 H203 0.930 . S
N199 Co194 2.057 . S
N199 C197 1.316 . S
N199 C198 1.375 . S
N200 C197 1.347 . S
N200 C201 1.373 . S
C201 C198 1.350 . S
C201 N200 1.373 . S
C201 H222 0.931 . S
H202 C197 0.931 . S
H203 C198 0.930 . S
C204 O211 1.259 . S
C204 O212 1.258 . S
N205 Co196 2.057 . S
N205 C206 1.316 1_455 S
N205 C207 1.375 . S
C206 N205 1.316 1_655 S
C206 N208 1.347 1_655 S
C206 H217 0.931 . S
C207 N205 1.375 . S
C207 C209 1.350 . S
C207 H216 0.930 . S
N208 C206 1.347 1_455 S
N208 C209 1.373 . S
C209 C207 1.350 . S
C209 N208 1.373 . S
C209 H223 0.931 . S
C210 O213 1.256 . S
C210 O214 1.255 . S
O211 Co194 2.021 1_554 S
O211 C204 1.259 . S
O212 Co196 2.117 . S
O212 C204 1.258 . S
O213 Co196 2.020 . S
O213 C210 1.256 . S
O214 Co194 2.062 1_554 S
O214 C210 1.255 . S
O215 C195 1.259 . S
O215 Co196 2.021 1_655 S
H216 C207 0.930 . S
H217 C206 0.931 . S
O218 Co194 2.117 . S
O218 C195 1.258 1_456 S
O219 Co194 2.020 . S
O219 C221 1.256 1_556 S
O220 Co196 2.062 . S
O220 C221 1.255 . S
C221 O219 1.256 1_554 S
C221 O220 1.255 . S
H222 C201 0.931 . S
H223 C209 0.931 . S
H224 C242 0.951 . S
H225 C244 0.951 . S
H226 C246 0.950 . S
H227 C247 0.950 . S
H228 C249 0.950 . S
H229 C252 0.950 . S
H230 C253 0.950 . S
H231 C255 0.950 . S
H232 C256 0.950 . S
H233 C257 0.951 . S
H234 C259 0.951 . S
H235 C261 0.950 . S
H236 C262 0.950 . S
H237 C264 0.950 . S
H238 C267 0.950 . S
H239 C268 0.950 . S
H240 C270 0.950 . S
H241 C271 0.950 . S
C242 H224 0.951 . S
C242 C243 1.366 . S
C242 C244 1.388 . S
C243 C242 1.366 . S
C243 C247 1.385 . S
C244 H225 0.951 . S
C244 C242 1.388 . S
C244 C245 1.366 . S
C245 C244 1.366 . S
C245 C246 1.414 . S
C245 C248 1.499 . S
C246 H226 0.950 . S
C246 C245 1.414 . S
C246 C247 1.374 . S
C247 H227 0.950 . S
C247 C243 1.385 . S
C247 C246 1.374 . S
C248 C245 1.499 . S
C248 C249 1.373 . S
C248 C250 1.389 . S
C249 H228 0.950 . S
C249 C248 1.373 . S
C249 C265 1.377 . S
C250 C248 1.389 . S
C250 C251 1.524 . S
C250 C264 1.377 . S
C251 C250 1.524 . S
C251 C252 1.397 . S
C251 C256 1.363 . S
C252 H229 0.950 . S
C252 C251 1.397 . S
C252 C253 1.334 . S
C253 H230 0.950 . S
C253 C252 1.334 . S
C253 C254 1.287 . S
C254 C253 1.287 . S
C254 C255 1.524 . S
C254 H273 0.913 . S
C255 H231 0.950 . S
C255 C254 1.524 . S
C255 C256 1.415 . S
C256 H232 0.950 . S
C256 C251 1.363 . S
C256 C255 1.415 . S
C257 H233 0.951 . S
C257 C258 1.366 . S
C257 C259 1.388 . S
C258 C257 1.366 . S
C258 C262 1.385 . S
C259 H234 0.951 . S
C259 C257 1.388 . S
C259 C260 1.366 . S
C260 C259 1.366 . S
C260 C261 1.414 . S
C260 C263 1.499 . S
C261 H235 0.950 . S
C261 C260 1.414 . S
C261 C262 1.374 . S
C262 H236 0.950 . S
C262 C258 1.385 . S
C262 C261 1.374 . S
C263 C260 1.499 . S
C263 C264 1.373 . S
C263 C265 1.389 . S
C264 H237 0.950 . S
C264 C250 1.377 . S
C264 C263 1.373 . S
C265 C249 1.377 . S
C265 C263 1.389 . S
C265 C266 1.524 . S
C266 C265 1.524 . S
C266 C267 1.397 . S
C266 C271 1.363 . S
C267 H238 0.950 . S
C267 C266 1.397 . S
C267 C268 1.334 1_455 S
C268 H239 0.950 . S
C268 C267 1.334 1_655 S
C268 C269 1.287 . S
C269 C268 1.287 . S
C269 C270 1.524 . S
C269 H272 0.999 . S
C270 H240 0.950 . S
C270 C269 1.524 . S
C270 C271 1.415 1_655 S
C271 H241 0.950 . S
C271 C266 1.363 . S
C271 C270 1.415 1_455 S
H272 C269 0.999 . S
H273 C254 0.913 . S
H274 C292 0.951 . S
H275 C294 0.951 . S
H276 C296 0.950 . S
H277 C297 0.950 . S
H278 C299 0.950 . S
H279 C302 0.950 . S
H280 C303 0.950 . S
H281 C305 0.950 . S
H282 C306 0.954 . S
H283 C307 0.951 . S
H284 C309 0.951 . S
H285 C311 0.950 . S
H286 C312 0.950 . S
H287 C314 0.950 . S
H288 C317 0.950 . S
H289 C318 0.950 . S
H290 C320 0.950 . S
H291 C321 0.950 . S
C292 H274 0.951 . S
C292 C293 1.366 . S
C292 C294 1.388 . S
C293 C292 1.366 . S
C293 C297 1.385 . S
C294 H275 0.951 . S
C294 C292 1.388 . S
C294 C295 1.366 . S
C295 C294 1.366 . S
C295 C296 1.414 . S
C295 C298 1.499 . S
C296 H276 0.950 . S
C296 C295 1.414 . S
C296 C297 1.374 . S
C297 H277 0.950 . S
C297 C293 1.385 . S
C297 C296 1.374 . S
C298 C295 1.499 . S
C298 C299 1.373 . S
C298 C300 1.389 . S
C299 H278 0.950 . S
C299 C298 1.373 . S
C299 C315 1.377 . S
C300 C298 1.389 . S
C300 C301 1.524 . S
C300 C314 1.377 . S
C301 C300 1.524 . S
C301 C302 1.397 . S
C301 C306 1.363 1_565 S
C302 H279 0.950 . S
C302 C301 1.397 . S
C302 C303 1.334 1_565 S
C303 H280 0.950 . S
C303 C302 1.334 1_545 S
C303 C304 1.287 . S
C304 C303 1.287 . S
C304 C305 1.524 . S
C304 H323 0.913 . S
C305 H281 0.950 . S
C305 C304 1.524 . S
C305 C306 1.415 . S
C306 H282 0.954 . S
C306 C301 1.363 1_545 S
C306 C305 1.415 . S
C307 H283 0.951 . S
C307 C308 1.366 . S
C307 C309 1.388 . S
C308 C307 1.366 . S
C308 C312 1.385 . S
C309 H284 0.951 . S
C309 C307 1.388 . S
C309 C310 1.366 . S
C310 C309 1.366 . S
C310 C311 1.414 . S
C310 C313 1.499 . S
C311 H285 0.950 . S
C311 C310 1.414 . S
C311 C312 1.374 . S
C312 H286 0.950 . S
C312 C308 1.385 . S
C312 C311 1.374 . S
C313 C310 1.499 . S
C313 C314 1.373 . S
C313 C315 1.389 . S
C314 H287 0.950 . S
C314 C300 1.377 . S
C314 C313 1.373 . S
C315 C299 1.377 . S
C315 C313 1.389 . S
C315 C316 1.524 . S
C316 C315 1.524 . S
C316 C317 1.397 . S
C316 C321 1.363 . S
C317 H288 0.950 . S
C317 C316 1.397 . S
C317 C318 1.334 . S
C318 H289 0.950 . S
C318 C317 1.334 . S
C318 C319 1.287 . S
C319 C318 1.287 . S
C319 C320 1.524 . S
C319 H322 0.999 . S
C320 H290 0.950 . S
C320 C319 1.524 . S
C320 C321 1.415 . S
C321 H291 0.950 . S
C321 C316 1.363 . S
C321 C320 1.415 . S
H322 C319 0.999 . S
H323 C304 0.913 . S
H324 C342 0.951 . S
H325 C344 0.951 . S
H326 C346 0.950 . S
H327 C347 0.950 . S
H328 C349 0.950 . S
H329 C352 0.950 . S
H330 C353 0.950 . S
H331 C355 0.950 . S
H332 C356 0.950 . S
H333 C357 0.951 . S
H334 C359 0.951 . S
H335 C361 0.950 . S
H336 C362 0.950 . S
H337 C364 0.950 . S
H338 C367 0.950 . S
H339 C368 0.950 . S
H340 C370 0.950 . S
H341 C371 0.950 . S
C342 H324 0.951 . S
C342 C343 1.366 . S
C342 C344 1.388 . S
C343 C342 1.366 . S
C343 C347 1.385 . S
C344 H325 0.951 . S
C344 C342 1.388 . S
C344 C345 1.366 . S
C345 C344 1.366 . S
C345 C346 1.414 . S
C345 C348 1.499 . S
C346 H326 0.950 . S
C346 C345 1.414 . S
C346 C347 1.374 . S
C347 H327 0.950 . S
C347 C343 1.385 . S
C347 C346 1.374 . S
C348 C345 1.499 . S
C348 C349 1.373 . S
C348 C350 1.389 . S
C349 H328 0.950 . S
C349 C348 1.373 . S
C349 C365 1.377 . S
C350 C348 1.389 . S
C350 C351 1.524 . S
C350 C364 1.377 . S
C351 C350 1.524 . S
C351 C352 1.397 . S
C351 C356 1.363 . S
C352 H329 0.950 . S
C352 C351 1.397 . S
C352 C353 1.334 . S
C353 H330 0.950 . S
C353 C352 1.334 . S
C353 C354 1.287 . S
C354 C353 1.287 . S
C354 C355 1.524 . S
C354 H373 0.913 . S
C355 H331 0.950 . S
C355 C354 1.524 . S
C355 C356 1.415 . S
C356 H332 0.950 . S
C356 C351 1.363 . S
C356 C355 1.415 . S
C357 H333 0.951 . S
C357 C358 1.366 . S
C357 C359 1.388 . S
C358 C357 1.366 . S
C358 C362 1.385 . S
C359 H334 0.951 . S
C359 C357 1.388 . S
C359 C360 1.366 . S
C360 C359 1.366 . S
C360 C361 1.414 . S
C360 C363 1.499 . S
C361 H335 0.950 . S
C361 C360 1.414 . S
C361 C362 1.374 . S
C362 H336 0.950 . S
C362 C358 1.385 . S
C362 C361 1.374 . S
C363 C360 1.499 . S
C363 C364 1.373 . S
C363 C365 1.389 . S
C364 H337 0.950 . S
C364 C350 1.377 . S
C364 C363 1.373 . S
C365 C349 1.377 . S
C365 C363 1.389 . S
C365 C366 1.524 . S
C366 C365 1.524 . S
C366 C367 1.397 . S
C366 C371 1.363 . S
C367 H338 0.950 . S
C367 C366 1.397 . S
C367 C368 1.334 . S
C368 H339 0.950 . S
C368 C367 1.334 . S
C368 C369 1.287 . S
C369 C368 1.287 . S
C369 C370 1.524 . S
C369 H372 0.999 . S
C370 H340 0.950 . S
C370 C369 1.524 . S
C370 C371 1.415 . S
C371 H341 0.950 . S
C371 C366 1.363 . S
C371 C370 1.415 . S
H372 C369 0.999 . S
H373 C354 0.913 . S
H374 C392 0.951 . S
H375 C394 0.951 1_455 S
H376 C396 0.950 . S
H377 C397 0.950 . S
H378 C399 0.950 . S
H379 C402 0.950 . S
H380 C403 0.950 . S
H381 C405 0.950 1_455 S
H382 C406 0.950 1_455 S
H383 C407 0.951 . S
H384 C409 0.951 . S
H385 C411 0.950 . S
H386 C412 0.950 . S
H387 C414 0.950 . S
H388 C417 0.950 . S
H389 C418 0.950 . S
H390 C420 0.950 . S
H391 C421 0.950 . S
C392 H374 0.951 . S
C392 C393 1.366 . S
C392 C394 1.388 . S
C393 C392 1.366 . S
C393 C397 1.385 . S
C394 H375 0.951 1_655 S
C394 C392 1.388 . S
C394 C395 1.366 . S
C395 C394 1.366 . S
C395 C396 1.414 . S
C395 C398 1.499 . S
C396 H376 0.950 . S
C396 C395 1.414 . S
C396 C397 1.374 . S
C397 H377 0.950 . S
C397 C393 1.385 . S
C397 C396 1.374 . S
C398 C395 1.499 . S
C398 C399 1.373 . S
C398 C400 1.389 . S
C399 H378 0.950 . S
C399 C398 1.373 . S
C399 C415 1.377 . S
C400 C398 1.389 . S
C400 C401 1.524 . S
C400 C414 1.377 . S
C401 C400 1.524 . S
C401 C402 1.397 . S
C401 C406 1.363 . S
C402 H379 0.950 . S
C402 C401 1.397 . S
C402 C403 1.334 . S
C403 H380 0.950 . S
C403 C402 1.334 . S
C403 C404 1.287 . S
C404 C403 1.287 . S
C404 C405 1.524 . S
C404 H423 0.913 . S
C405 H381 0.950 1_655 S
C405 C404 1.524 . S
C405 C406 1.415 . S
C406 H382 0.950 1_655 S
C406 C401 1.363 . S
C406 C405 1.415 . S
C407 H383 0.951 . S
C407 C408 1.366 . S
C407 C409 1.388 . S
C408 C407 1.366 . S
C408 C412 1.385 1_655 S
C409 H384 0.951 . S
C409 C407 1.388 . S
C409 C410 1.366 . S
C410 C409 1.366 . S
C410 C411 1.414 1_655 S
C410 C413 1.499 . S
C411 H385 0.950 . S
C411 C410 1.414 1_455 S
C411 C412 1.374 . S
C412 H386 0.950 . S
C412 C408 1.385 1_455 S
C412 C411 1.374 . S
C413 C410 1.499 . S
C413 C414 1.373 . S
C413 C415 1.389 . S
C414 H387 0.950 . S
C414 C400 1.377 . S
C414 C413 1.373 . S
C415 C399 1.377 . S
C415 C413 1.389 . S
C415 C416 1.524 . S
C416 C415 1.524 . S
C416 C417 1.397 1_655 S
C416 C421 1.363 . S
C417 H388 0.950 . S
C417 C416 1.397 1_455 S
C417 C418 1.334 . S
C418 H389 0.950 . S
C418 C417 1.334 . S
C418 C419 1.287 1_455 S
C419 C418 1.287 1_655 S
C419 C420 1.524 . S
C419 H422 0.999 1_655 S
C420 H390 0.950 . S
C420 C419 1.524 . S
C420 C421 1.415 . S
C421 H391 0.950 . S
C421 C416 1.363 . S
C421 C420 1.415 . S
H422 C419 0.999 1_455 S
H423 C404 0.913 . S
H424 C442 0.951 . S
H425 C444 0.951 . S
H426 C446 0.950 . S
H427 C447 0.950 . S
H428 C449 0.950 . S
H429 C452 0.950 . S
H430 C453 0.950 . S
H431 C455 0.950 . S
H432 C456 0.950 . S
H433 C457 0.936 1_556 S
H434 C459 0.951 . S
H435 C461 0.950 . S
H436 C462 0.950 . S
H437 C464 0.950 . S
H438 C467 0.950 . S
H439 C468 0.950 . S
H440 C470 0.950 1_556 S
H441 C471 0.950 . S
C442 H424 0.951 . S
C442 C443 1.366 . S
C442 C444 1.388 . S
C443 C442 1.366 . S
C443 C447 1.385 . S
C444 H425 0.951 . S
C444 C442 1.388 . S
C444 C445 1.366 . S
C445 C444 1.366 . S
C445 C446 1.414 . S
C445 C448 1.499 . S
C446 H426 0.950 . S
C446 C445 1.414 . S
C446 C447 1.374 . S
C447 H427 0.950 . S
C447 C443 1.385 . S
C447 C446 1.374 . S
C448 C445 1.499 . S
C448 C449 1.373 . S
C448 C450 1.389 . S
C449 H428 0.950 . S
C449 C448 1.373 . S
C449 C465 1.377 . S
C450 C448 1.389 . S
C450 C451 1.524 . S
C450 C464 1.377 . S
C451 C450 1.524 . S
C451 C452 1.397 . S
C451 C456 1.363 . S
C452 H429 0.950 . S
C452 C451 1.397 . S
C452 C453 1.334 . S
C453 H430 0.950 . S
C453 C452 1.334 . S
C453 C454 1.287 . S
C454 C453 1.287 . S
C454 C455 1.524 . S
C454 H473 0.913 . S
C455 H431 0.950 . S
C455 C454 1.524 . S
C455 C456 1.415 . S
C456 H432 0.950 . S
C456 C451 1.363 . S
C456 C455 1.415 . S
C457 H433 0.936 1_554 S
C457 C458 1.366 . S
C457 C459 1.388 . S
C458 C457 1.366 . S
C458 C462 1.385 . S
C459 H434 0.951 . S
C459 C457 1.388 . S
C459 C460 1.366 . S
C460 C459 1.366 . S
C460 C461 1.414 . S
C460 C463 1.499 . S
C461 H435 0.950 . S
C461 C460 1.414 . S
C461 C462 1.374 . S
C462 H436 0.950 . S
C462 C458 1.385 . S
C462 C461 1.374 . S
C463 C460 1.499 . S
C463 C464 1.373 . S
C463 C465 1.389 . S
C464 H437 0.950 . S
C464 C450 1.377 . S
C464 C463 1.373 . S
C465 C449 1.377 . S
C465 C463 1.389 . S
C465 C466 1.524 . S
C466 C465 1.524 . S
C466 C467 1.397 1_545 S
C466 C471 1.363 . S
C467 H438 0.950 . S
C467 C466 1.397 1_565 S
C467 C468 1.334 . S
C468 H439 0.950 . S
C468 C467 1.334 . S
C468 C469 1.287 . S
C469 C468 1.287 . S
C469 C470 1.524 . S
C469 H472 0.999 . S
C470 H440 0.950 1_554 S
C470 C469 1.524 . S
C470 C471 1.415 1_565 S
C471 H441 0.950 . S
C471 C466 1.363 . S
C471 C470 1.415 1_545 S
H472 C469 0.999 . S
H473 C454 0.913 . S
H474 C492 0.951 . S
H475 C494 0.951 . S
H476 C496 0.950 . S
H477 C497 0.950 . S
H478 C499 0.950 . S
H479 C502 0.950 . S
H480 C503 0.950 . S
H481 C505 0.968 . S
H482 C506 0.950 . S
H483 C507 0.951 . S
H484 C509 0.951 . S
H485 C511 0.950 . S
H486 C512 0.950 1_545 S
H487 C514 0.950 . S
H488 C517 0.950 . S
H489 C518 0.950 . S
H490 C520 0.950 . S
H491 C521 0.950 . S
C492 H474 0.951 . S
C492 C493 1.366 . S
C492 C494 1.388 . S
C493 C492 1.366 . S
C493 C497 1.385 . S
C494 H475 0.951 . S
C494 C492 1.388 . S
C494 C495 1.366 . S
C495 C494 1.366 . S
C495 C496 1.414 . S
C495 C498 1.499 . S
C496 H476 0.950 . S
C496 C495 1.414 . S
C496 C497 1.374 . S
C497 H477 0.950 . S
C497 C493 1.385 . S
C497 C496 1.374 . S
C498 C495 1.499 . S
C498 C499 1.373 . S
C498 C500 1.389 . S
C499 H478 0.950 . S
C499 C498 1.373 . S
C499 C515 1.377 . S
C500 C498 1.389 . S
C500 C501 1.524 . S
C500 C514 1.377 . S
C501 C500 1.524 . S
C501 C502 1.397 . S
C501 C506 1.363 . S
C502 H479 0.950 . S
C502 C501 1.397 . S
C502 C503 1.334 . S
C503 H480 0.950 . S
C503 C502 1.334 . S
C503 C504 1.287 . S
C504 C503 1.287 . S
C504 C505 1.524 . S
C504 H523 0.913 . S
C505 H481 0.968 . S
C505 C504 1.524 . S
C505 C506 1.415 . S
C506 H482 0.950 . S
C506 C501 1.363 . S
C506 C505 1.415 . S
C507 H483 0.951 . S
C507 C508 1.366 . S
C507 C509 1.388 . S
C508 C507 1.366 . S
C508 C512 1.385 . S
C509 H484 0.951 . S
C509 C507 1.388 . S
C509 C510 1.366 . S
C510 C509 1.366 . S
C510 C511 1.414 . S
C510 C513 1.499 . S
C511 H485 0.950 . S
C511 C510 1.414 . S
C511 C512 1.374 . S
C512 H486 0.950 1_565 S
C512 C508 1.385 . S
C512 C511 1.374 . S
C513 C510 1.499 . S
C513 C514 1.373 . S
C513 C515 1.389 . S
C514 H487 0.950 . S
C514 C500 1.377 . S
C514 C513 1.373 . S
C515 C499 1.377 . S
C515 C513 1.389 . S
C515 C516 1.524 . S
C516 C515 1.524 . S
C516 C517 1.397 . S
C516 C521 1.363 . S
C517 H488 0.950 . S
C517 C516 1.397 . S
C517 C518 1.334 . S
C518 H489 0.950 . S
C518 C517 1.334 . S
C518 C519 1.287 . S
C519 C518 1.287 . S
C519 C520 1.524 . S
C519 H522 0.999 . S
C520 H490 0.950 . S
C520 C519 1.524 . S
C520 C521 1.415 . S
C521 H491 0.950 . S
C521 C516 1.363 . S
C521 C520 1.415 . S
H522 C519 0.999 . S
H523 C504 0.913 . S
H524 C542 0.951 . S
H525 C544 0.951 . S
H526 C546 0.950 . S
H527 C547 0.950 . S
H528 C549 0.950 . S
H529 C552 0.950 . S
H530 C553 0.950 . S
H531 C555 0.950 . S
H532 C556 0.950 . S
H533 C557 0.951 . S
H534 C559 0.951 . S
H535 C561 0.950 . S
H536 C562 0.950 . S
H537 C564 0.950 . S
H538 C567 0.950 . S
H539 C568 0.950 . S
H540 C570 0.950 . S
H541 C571 0.950 . S
C542 H524 0.951 . S
C542 C543 1.366 . S
C542 C544 1.388 . S
C543 C542 1.366 . S
C543 C547 1.385 . S
C544 H525 0.951 . S
C544 C542 1.388 . S
C544 C545 1.366 . S
C545 C544 1.366 . S
C545 C546 1.414 . S
C545 C548 1.499 . S
C546 H526 0.950 . S
C546 C545 1.414 . S
C546 C547 1.374 . S
C547 H527 0.950 . S
C547 C543 1.385 . S
C547 C546 1.374 . S
C548 C545 1.499 . S
C548 C549 1.373 . S
C548 C550 1.389 . S
C549 H528 0.950 . S
C549 C548 1.373 . S
C549 C565 1.377 . S
C550 C548 1.389 . S
C550 C551 1.524 . S
C550 C564 1.377 . S
C551 C550 1.524 . S
C551 C552 1.397 . S
C551 C556 1.363 . S
C552 H529 0.950 . S
C552 C551 1.397 . S
C552 C553 1.334 . S
C553 H530 0.950 . S
C553 C552 1.334 . S
C553 C554 1.287 . S
C554 C553 1.287 . S
C554 C555 1.524 . S
C554 H573 0.913 . S
C555 H531 0.950 . S
C555 C554 1.524 . S
C555 C556 1.415 . S
C556 H532 0.950 . S
C556 C551 1.363 . S
C556 C555 1.415 . S
C557 H533 0.951 . S
C557 C558 1.366 . S
C557 C559 1.388 . S
C558 C557 1.366 . S
C558 C562 1.385 1_554 S
C559 H534 0.951 . S
C559 C557 1.388 . S
C559 C560 1.366 1_554 S
C560 C559 1.366 1_556 S
C560 C561 1.414 . S
C560 C563 1.499 . S
C561 H535 0.950 . S
C561 C560 1.414 . S
C561 C562 1.374 . S
C562 H536 0.950 . S
C562 C558 1.385 1_556 S
C562 C561 1.374 . S
C563 C560 1.499 . S
C563 C564 1.373 . S
C563 C565 1.389 . S
C564 H537 0.950 . S
C564 C550 1.377 . S
C564 C563 1.373 . S
C565 C549 1.377 . S
C565 C563 1.389 . S
C565 C566 1.524 . S
C566 C565 1.524 . S
C566 C567 1.397 . S
C566 C571 1.363 1_556 S
C567 H538 0.950 . S
C567 C566 1.397 . S
C567 C568 1.334 . S
C568 H539 0.950 . S
C568 C567 1.334 . S
C568 C569 1.287 1_556 S
C569 C568 1.287 1_554 S
C569 C570 1.524 . S
C569 H572 0.999 . S
C570 H540 0.950 . S
C570 C569 1.524 . S
C570 C571 1.415 . S
C571 H541 0.950 . S
C571 C566 1.363 1_554 S
C571 C570 1.415 . S
H572 C569 0.999 . S
H573 C554 0.913 . S
H574 C592 0.951 . S
H575 C594 0.951 . S
H576 C596 0.950 . S
H577 C597 0.950 . S
H578 C599 0.950 . S
H579 C602 0.950 . S
H580 C603 0.950 . S
H581 C605 0.950 . S
H582 C606 0.950 . S
H583 C607 0.951 . S
H584 C609 0.951 . S
H585 C611 0.950 . S
H586 C612 0.950 . S
H587 C614 0.950 . S
H588 C617 0.950 . S
H589 C618 0.950 . S
H590 C620 0.950 . S
H591 C621 0.950 . S
C592 H574 0.951 . S
C592 C593 1.366 . S
C592 C594 1.388 . S
C593 C592 1.366 . S
C593 C597 1.385 . S
C594 H575 0.951 . S
C594 C592 1.388 . S
C594 C595 1.366 . S
C595 C594 1.366 . S
C595 C596 1.414 . S
C595 C598 1.499 . S
C596 H576 0.950 . S
C596 C595 1.414 . S
C596 C597 1.374 . S
C597 H577 0.950 . S
C597 C593 1.385 . S
C597 C596 1.374 . S
C598 C595 1.499 . S
C598 C599 1.373 . S
C598 C600 1.389 . S
C599 H578 0.950 . S
C599 C598 1.373 . S
C599 C615 1.377 . S
C600 C598 1.389 . S
C600 C601 1.524 . S
C600 C614 1.377 . S
C601 C600 1.524 . S
C601 C602 1.397 . S
C601 C606 1.363 . S
C602 H579 0.950 . S
C602 C601 1.397 . S
C602 C603 1.334 . S
C603 H580 0.950 . S
C603 C602 1.334 . S
C603 C604 1.287 . S
C604 C603 1.287 . S
C604 C605 1.524 . S
C604 H623 0.913 . S
C605 H581 0.950 . S
C605 C604 1.524 . S
C605 C606 1.415 . S
C606 H582 0.950 . S
C606 C601 1.363 . S
C606 C605 1.415 . S
C607 H583 0.951 . S
C607 C608 1.366 . S
C607 C609 1.388 . S
C608 C607 1.366 . S
C608 C612 1.385 . S
C609 H584 0.951 . S
C609 C607 1.388 . S
C609 C610 1.366 . S
C610 C609 1.366 . S
C610 C611 1.414 . S
C610 C613 1.499 . S
C611 H585 0.950 . S
C611 C610 1.414 . S
C611 C612 1.374 . S
C612 H586 0.950 . S
C612 C608 1.385 . S
C612 C611 1.374 . S
C613 C610 1.499 . S
C613 C614 1.373 . S
C613 C615 1.389 . S
C614 H587 0.950 . S
C614 C600 1.377 . S
C614 C613 1.373 . S
C615 C599 1.377 . S
C615 C613 1.389 . S
C615 C616 1.524 . S
C616 C615 1.524 . S
C616 C617 1.397 . S
C616 C621 1.363 . S
C617 H588 0.950 . S
C617 C616 1.397 . S
C617 C618 1.334 . S
C618 H589 0.950 . S
C618 C617 1.334 . S
C618 C619 1.287 . S
C619 C618 1.287 . S
C619 C620 1.524 . S
C619 H622 0.999 . S
C620 H590 0.950 . S
C620 C619 1.524 . S
C620 C621 1.415 . S
C621 H591 0.950 . S
C621 C616 1.363 . S
C621 C620 1.415 . S
H622 C619 0.999 . S
H623 C604 0.913 . S
H624 C642 0.951 . S
H625 C644 0.951 . S
H626 C646 0.950 . S
H627 C647 0.950 . S
H628 C649 0.950 . S
H629 C652 0.950 . S
H630 C653 0.950 . S
H631 C655 0.950 . S
H632 C656 0.950 . S
H633 C657 0.951 . S
H634 C659 0.951 . S
H635 C661 0.950 . S
H636 C662 0.950 . S
H637 C664 0.950 . S
H638 C667 0.950 . S
H639 C668 0.950 . S
H640 C670 0.950 . S
H641 C671 0.950 . S
C642 H624 0.951 . S
C642 C643 1.366 . S
C642 C644 1.388 . S
C643 C642 1.366 . S
C643 C647 1.385 . S
C644 H625 0.951 . S
C644 C642 1.388 . S
C644 C645 1.366 . S
C645 C644 1.366 . S
C645 C646 1.414 . S
C645 C648 1.499 . S
C646 H626 0.950 . S
C646 C645 1.414 . S
C646 C647 1.374 . S
C647 H627 0.950 . S
C647 C643 1.385 . S
C647 C646 1.374 . S
C648 C645 1.499 . S
C648 C649 1.373 . S
C648 C650 1.389 . S
C649 H628 0.950 . S
C649 C648 1.373 . S
C649 C665 1.377 . S
C650 C648 1.389 . S
C650 C651 1.524 . S
C650 C664 1.377 . S
C651 C650 1.524 . S
C651 C652 1.397 . S
C651 C656 1.363 . S
C652 H629 0.950 . S
C652 C651 1.397 . S
C652 C653 1.334 . S
C653 H630 0.950 . S
C653 C652 1.334 . S
C653 C654 1.287 . S
C654 C653 1.287 . S
C654 C655 1.524 . S
C654 H673 0.913 1_554 S
C655 H631 0.950 . S
C655 C654 1.524 . S
C655 C656 1.415 . S
C656 H632 0.950 . S
C656 C651 1.363 . S
C656 C655 1.415 . S
C657 H633 0.951 . S
C657 C658 1.366 . S
C657 C659 1.388 . S
C658 C657 1.366 . S
C658 C662 1.385 . S
C659 H634 0.951 . S
C659 C657 1.388 . S
C659 C660 1.366 . S
C660 C659 1.366 . S
C660 C661 1.414 . S
C660 C663 1.499 . S
C661 H635 0.950 . S
C661 C660 1.414 . S
C661 C662 1.374 . S
C662 H636 0.950 . S
C662 C658 1.385 . S
C662 C661 1.374 . S
C663 C660 1.499 . S
C663 C664 1.373 . S
C663 C665 1.389 . S
C664 H637 0.950 . S
C664 C650 1.377 . S
C664 C663 1.373 . S
C665 C649 1.377 . S
C665 C663 1.389 . S
C665 C666 1.524 . S
C666 C665 1.524 . S
C666 C667 1.397 . S
C666 C671 1.363 . S
C667 H638 0.950 . S
C667 C666 1.397 . S
C667 C668 1.334 . S
C668 H639 0.950 . S
C668 C667 1.334 . S
C668 C669 1.287 . S
C669 C668 1.287 . S
C669 C670 1.524 . S
C669 H672 0.999 . S
C670 H640 0.950 . S
C670 C669 1.524 . S
C670 C671 1.415 . S
C671 H641 0.950 . S
C671 C666 1.363 . S
C671 C670 1.415 . S
H672 C669 0.999 . S
H673 C654 0.913 1_556 S
H674 C692 0.951 . S
H675 C694 0.951 . S
H676 C696 0.950 . S
H677 C697 0.950 . S
H678 C699 0.950 . S
H679 C702 0.950 . S
H680 C703 0.950 . S
H681 C705 0.950 . S
H682 C706 0.950 . S
H683 C707 0.951 . S
H684 C709 0.951 . S
H685 C711 0.950 . S
H686 C712 0.950 . S
H687 C714 0.950 . S
H688 C717 0.950 . S
H689 C718 0.950 . S
H690 C720 0.950 . S
H691 C721 0.950 . S
C692 H674 0.951 . S
C692 C693 1.366 . S
C692 C694 1.388 . S
C693 C692 1.366 . S
C693 C697 1.385 . S
C694 H675 0.951 . S
C694 C692 1.388 . S
C694 C695 1.366 . S
C695 C694 1.366 . S
C695 C696 1.414 . S
C695 C698 1.499 . S
C696 H676 0.950 . S
C696 C695 1.414 . S
C696 C697 1.374 . S
C697 H677 0.950 . S
C697 C693 1.385 . S
C697 C696 1.374 . S
C698 C695 1.499 . S
C698 C699 1.373 . S
C698 C700 1.389 . S
C699 H678 0.950 . S
C699 C698 1.373 . S
C699 C715 1.377 . S
C700 C698 1.389 . S
C700 C701 1.524 . S
C700 C714 1.377 . S
C701 C700 1.524 . S
C701 C702 1.397 . S
C701 C706 1.363 1_556 S
C702 H679 0.950 . S
C702 C701 1.397 . S
C702 C703 1.334 1_556 S
C703 H680 0.950 . S
C703 C702 1.334 1_554 S
C703 C704 1.287 . S
C704 C703 1.287 . S
C704 C705 1.524 . S
C704 H723 0.913 . S
C705 H681 0.950 . S
C705 C704 1.524 . S
C705 C706 1.415 . S
C706 H682 0.950 . S
C706 C701 1.363 1_554 S
C706 C705 1.415 . S
C707 H683 0.951 . S
C707 C708 1.366 . S
C707 C709 1.388 . S
C708 C707 1.366 . S
C708 C712 1.385 . S
C709 H684 0.951 . S
C709 C707 1.388 . S
C709 C710 1.366 . S
C710 C709 1.366 . S
C710 C711 1.414 . S
C710 C713 1.499 . S
C711 H685 0.950 . S
C711 C710 1.414 . S
C711 C712 1.374 . S
C712 H686 0.950 . S
C712 C708 1.385 . S
C712 C711 1.374 . S
C713 C710 1.499 . S
C713 C714 1.373 . S
C713 C715 1.389 . S
C714 H687 0.950 . S
C714 C700 1.377 . S
C714 C713 1.373 . S
C715 C699 1.377 . S
C715 C713 1.389 . S
C715 C716 1.524 . S
C716 C715 1.524 . S
C716 C717 1.397 . S
C716 C721 1.363 . S
C717 H688 0.950 . S
C717 C716 1.397 . S
C717 C718 1.334 . S
C718 H689 0.950 . S
C718 C717 1.334 . S
C718 C719 1.287 . S
C719 C718 1.287 . S
C719 C720 1.524 . S
C719 H722 0.999 . S
C720 H690 0.950 . S
C720 C719 1.524 . S
C720 C721 1.415 . S
C721 H691 0.950 . S
C721 C716 1.363 . S
C721 C720 1.415 . S
H722 C719 0.999 . S
H723 C704 0.913 . S
H724 C742 0.951 . S
H725 C744 0.951 1_455 S
H726 C746 0.950 . S
H727 C747 0.950 . S
H728 C749 0.950 . S
H729 C752 0.950 1_655 S
H730 C753 0.950 . S
H731 C755 0.950 . S
H732 C756 0.950 . S
H733 C757 0.951 . S
H734 C759 0.951 . S
H735 C761 0.950 . S
H736 C762 0.950 . S
H737 C764 0.953 1_455 S
H738 C767 0.950 . S
H739 C768 0.950 . S
H740 C770 0.950 . S
H741 C771 0.950 . S
C742 H724 0.951 . S
C742 C743 1.366 . S
C742 C744 1.388 . S
C743 C742 1.366 . S
C743 C747 1.385 . S
C744 H725 0.951 1_655 S
C744 C742 1.388 . S
C744 C745 1.366 . S
C745 C744 1.366 . S
C745 C746 1.414 . S
C745 C748 1.499 . S
C746 H726 0.950 . S
C746 C745 1.414 . S
C746 C747 1.374 . S
C747 H727 0.950 . S
C747 C743 1.385 . S
C747 C746 1.374 . S
C748 C745 1.499 . S
C748 C749 1.373 . S
C748 C750 1.389 . S
C749 H728 0.950 . S
C749 C748 1.373 . S
C749 C765 1.377 . S
C750 C748 1.389 . S
C750 C751 1.524 1_655 S
C750 C764 1.376 . S
C751 C750 1.524 1_455 S
C751 C752 1.397 . S
C751 C756 1.363 . S
C752 H729 0.950 1_455 S
C752 C751 1.397 . S
C752 C753 1.334 . S
C753 H730 0.950 . S
C753 C752 1.334 . S
C753 C754 1.287 . S
C754 C753 1.287 . S
C754 C755 1.524 . S
C754 H773 0.913 . S
C755 H731 0.950 . S
C755 C754 1.524 . S
C755 C756 1.415 . S
C756 H732 0.950 . S
C756 C751 1.363 . S
C756 C755 1.415 . S
C757 H733 0.951 . S
C757 C758 1.366 . S
C757 C759 1.388 . S
C758 C757 1.366 . S
C758 C762 1.385 1_655 S
C759 H734 0.951 . S
C759 C757 1.388 . S
C759 C760 1.366 . S
C760 C759 1.366 . S
C760 C761 1.414 1_655 S
C760 C763 1.499 . S
C761 H735 0.950 . S
C761 C760 1.414 1_455 S
C761 C762 1.374 . S
C762 H736 0.950 . S
C762 C758 1.385 1_455 S
C762 C761 1.374 . S
C763 C760 1.499 . S
C763 C764 1.371 . S
C763 C765 1.389 . S
C764 H737 0.953 1_655 S
C764 C750 1.376 . S
C764 C763 1.371 . S
C765 C749 1.377 . S
C765 C763 1.389 . S
C765 C766 1.524 . S
C766 C765 1.524 . S
C766 C767 1.397 . S
C766 C771 1.363 . S
C767 H738 0.950 . S
C767 C766 1.397 . S
C767 C768 1.334 . S
C768 H739 0.950 . S
C768 C767 1.334 . S
C768 C769 1.287 . S
C769 C768 1.287 . S
C769 C770 1.524 . S
C769 H772 0.999 . S
C770 H740 0.950 . S
C770 C769 1.524 . S
C770 C771 1.415 . S
C771 H741 0.950 . S
C771 C766 1.363 . S
C771 C770 1.415 . S
H772 C769 0.999 . S
H773 C754 0.913 . S
H774 C792 0.951 . S
H775 C794 0.951 . S
H776 C796 0.950 . S
H777 C797 0.950 . S
H778 C799 0.950 . S
H779 C802 0.950 . S
H780 C803 0.950 . S
H781 C805 0.950 . S
H782 C806 0.950 . S
H783 C807 0.951 . S
H784 C809 0.951 . S
H785 C811 0.950 . S
H786 C812 0.950 . S
H787 C814 0.950 . S
H788 C817 0.950 . S
H789 C818 0.950 . S
H790 C820 0.950 . S
H791 C821 0.950 . S
C792 H774 0.951 . S
C792 C793 1.366 . S
C792 C794 1.388 . S
C793 C792 1.366 . S
C793 C797 1.385 . S
C794 H775 0.951 . S
C794 C792 1.388 . S
C794 C795 1.366 . S
C795 C794 1.366 . S
C795 C796 1.414 . S
C795 C798 1.499 . S
C796 H776 0.950 . S
C796 C795 1.414 . S
C796 C797 1.374 . S
C797 H777 0.950 . S
C797 C793 1.385 . S
C797 C796 1.374 . S
C798 C795 1.499 . S
C798 C799 1.373 . S
C798 C800 1.389 . S
C799 H778 0.950 . S
C799 C798 1.373 . S
C799 C815 1.377 . S
C800 C798 1.389 . S
C800 C801 1.524 . S
C800 C814 1.377 . S
C801 C800 1.524 . S
C801 C802 1.397 . S
C801 C806 1.363 . S
C802 H779 0.950 . S
C802 C801 1.397 . S
C802 C803 1.334 . S
C803 H780 0.950 . S
C803 C802 1.334 . S
C803 C804 1.287 . S
C804 C803 1.287 . S
C804 C805 1.524 . S
C804 H823 0.913 . S
C805 H781 0.950 . S
C805 C804 1.524 . S
C805 C806 1.415 . S
C806 H782 0.950 . S
C806 C801 1.363 . S
C806 C805 1.415 . S
C807 H783 0.951 . S
C807 C808 1.366 . S
C807 C809 1.388 . S
C808 C807 1.366 . S
C808 C812 1.385 . S
C809 H784 0.951 . S
C809 C807 1.388 . S
C809 C810 1.366 . S
C810 C809 1.366 . S
C810 C811 1.414 . S
C810 C813 1.499 . S
C811 H785 0.950 . S
C811 C810 1.414 . S
C811 C812 1.374 . S
C812 H786 0.950 . S
C812 C808 1.385 . S
C812 C811 1.374 . S
C813 C810 1.499 . S
C813 C814 1.373 . S
C813 C815 1.389 . S
C814 H787 0.950 . S
C814 C800 1.377 . S
C814 C813 1.373 . S
C815 C799 1.377 . S
C815 C813 1.389 . S
C815 C816 1.524 . S
C816 C815 1.524 . S
C816 C817 1.397 . S
C816 C821 1.363 . S
C817 H788 0.950 . S
C817 C816 1.397 . S
C817 C818 1.334 . S
C818 H789 0.950 . S
C818 C817 1.334 . S
C818 C819 1.287 . S
C819 C818 1.287 . S
C819 C820 1.524 . S
C819 H822 0.999 . S
C820 H790 0.950 . S
C820 C819 1.524 . S
C820 C821 1.415 . S
C821 H791 0.950 . S
C821 C816 1.363 . S
C821 C820 1.415 . S
H822 C819 0.999 . S
H823 C804 0.913 . S
H824 C842 0.951 . S
H825 C844 0.951 . S
H826 C846 0.950 . S
H827 C847 0.950 . S
H828 C849 0.950 . S
H829 C852 0.950 . S
H830 C853 0.950 . S
H831 C855 0.950 . S
H832 C856 0.950 . S
H833 C857 0.951 . S
H834 C859 0.951 . S
H835 C861 0.950 . S
H836 C862 0.950 . S
H837 C864 0.950 . S
H838 C867 0.950 1_655 S
H839 C868 0.950 . S
H840 C870 0.950 . S
H841 C871 0.950 . S
C842 H824 0.951 . S
C842 C843 1.366 . S
C842 C844 1.388 . S
C843 C842 1.366 . S
C843 C847 1.385 . S
C844 H825 0.951 . S
C844 C842 1.388 . S
C844 C845 1.366 . S
C845 C844 1.366 . S
C845 C846 1.414 . S
C845 C848 1.499 . S
C846 H826 0.950 . S
C846 C845 1.414 . S
C846 C847 1.374 . S
C847 H827 0.950 . S
C847 C843 1.385 . S
C847 C846 1.374 . S
C848 C845 1.499 . S
C848 C849 1.373 . S
C848 C850 1.389 . S
C849 H828 0.950 . S
C849 C848 1.373 . S
C849 C865 1.377 . S
C850 C848 1.389 . S
C850 C851 1.524 . S
C850 C864 1.377 . S
C851 C850 1.524 . S
C851 C852 1.397 . S
C851 C856 1.363 . S
C852 H829 0.950 . S
C852 C851 1.397 . S
C852 C853 1.334 . S
C853 H830 0.950 . S
C853 C852 1.334 . S
C853 C854 1.287 . S
C854 C853 1.287 . S
C854 C855 1.524 . S
C854 H873 0.913 . S
C855 H831 0.950 . S
C855 C854 1.524 . S
C855 C856 1.415 . S
C856 H832 0.950 . S
C856 C851 1.363 . S
C856 C855 1.415 . S
C857 H833 0.951 . S
C857 C858 1.366 1_455 S
C857 C859 1.388 . S
C858 C857 1.366 1_655 S
C858 C862 1.385 . S
C859 H834 0.951 . S
C859 C857 1.388 . S
C859 C860 1.366 1_455 S
C860 C859 1.366 1_655 S
C860 C861 1.414 . S
C860 C863 1.499 . S
C861 H835 0.950 . S
C861 C860 1.414 . S
C861 C862 1.374 . S
C862 H836 0.950 . S
C862 C858 1.385 . S
C862 C861 1.374 . S
C863 C860 1.499 . S
C863 C864 1.373 . S
C863 C865 1.389 . S
C864 H837 0.950 . S
C864 C850 1.377 . S
C864 C863 1.373 . S
C865 C849 1.377 . S
C865 C863 1.389 . S
C865 C866 1.524 1_655 S
C866 C865 1.524 1_455 S
C866 C867 1.397 1_565 S
C866 C871 1.363 . S
C867 H838 0.950 1_455 S
C867 C866 1.397 1_545 S
C867 C868 1.334 . S
C868 H839 0.950 . S
C868 C867 1.334 . S
C868 C869 1.287 . S
C869 C868 1.287 . S
C869 C870 1.524 . S
C869 H872 0.999 . S
C870 H840 0.950 . S
C870 C869 1.524 . S
C870 C871 1.415 1_545 S
C871 H841 0.950 . S
C871 C866 1.363 . S
C871 C870 1.415 1_565 S
H872 C869 0.999 . S
H873 C854 0.913 . S
H874 C892 0.951 . S
H875 C894 0.951 . S
H876 C896 0.950 . S
H877 C897 0.950 . S
H878 C899 0.950 . S
H879 C902 0.950 . S
H880 C903 0.950 . S
H881 C905 0.950 . S
H882 C906 0.950 . S
H883 C907 0.951 . S
H884 C909 0.951 . S
H885 C911 0.950 . S
H886 C912 0.950 . S
H887 C914 0.950 . S
H888 C917 0.950 . S
H889 C918 0.950 . S
H890 C920 0.950 . S
H891 C921 0.950 . S
C892 H874 0.951 . S
C892 C893 1.366 . S
C892 C894 1.388 . S
C893 C892 1.366 . S
C893 C897 1.385 . S
C894 H875 0.951 . S
C894 C892 1.388 . S
C894 C895 1.366 . S
C895 C894 1.366 . S
C895 C896 1.414 . S
C895 C898 1.499 . S
C896 H876 0.950 . S
C896 C895 1.414 . S
C896 C897 1.374 . S
C897 H877 0.950 . S
C897 C893 1.385 . S
C897 C896 1.374 . S
C898 C895 1.499 . S
C898 C899 1.373 . S
C898 C900 1.389 . S
C899 H878 0.950 . S
C899 C898 1.373 . S
C899 C915 1.377 . S
C900 C898 1.389 . S
C900 C901 1.524 . S
C900 C914 1.377 . S
C901 C900 1.524 . S
C901 C902 1.397 . S
C901 C906 1.363 . S
C902 H879 0.950 . S
C902 C901 1.397 . S
C902 C903 1.334 . S
C903 H880 0.950 . S
C903 C902 1.334 . S
C903 C904 1.287 . S
C904 C903 1.287 . S
C904 C905 1.524 . S
C904 H923 0.913 . S
C905 H881 0.950 . S
C905 C904 1.524 . S
C905 C906 1.415 . S
C906 H882 0.950 . S
C906 C901 1.363 . S
C906 C905 1.415 . S
C907 H883 0.951 . S
C907 C908 1.366 . S
C907 C909 1.388 . S
C908 C907 1.366 . S
C908 C912 1.385 . S
C909 H884 0.951 . S
C909 C907 1.388 . S
C909 C910 1.366 . S
C910 C909 1.366 . S
C910 C911 1.414 . S
C910 C913 1.499 . S
C911 H885 0.950 . S
C911 C910 1.414 . S
C911 C912 1.374 . S
C912 H886 0.950 . S
C912 C908 1.385 . S
C912 C911 1.374 . S
C913 C910 1.499 . S
C913 C914 1.373 . S
C913 C915 1.389 . S
C914 H887 0.950 . S
C914 C900 1.377 . S
C914 C913 1.373 . S
C915 C899 1.377 . S
C915 C913 1.389 . S
C915 C916 1.524 . S
C916 C915 1.524 . S
C916 C917 1.397 . S
C916 C921 1.363 . S
C917 H888 0.950 . S
C917 C916 1.397 . S
C917 C918 1.334 . S
C918 H889 0.950 . S
C918 C917 1.334 . S
C918 C919 1.287 . S
C919 C918 1.287 . S
C919 C920 1.524 . S
C919 H922 0.999 . S
C920 H890 0.950 . S
C920 C919 1.524 . S
C920 C921 1.415 . S
C921 H891 0.950 . S
C921 C916 1.363 . S
C921 C920 1.415 . S
H922 C919 0.999 . S
H923 C904 0.913 . S
H924 C942 0.951 . S
H925 C944 0.951 . S
H926 C946 0.950 . S
H927 C947 0.950 . S
H928 C949 0.950 . S
H929 C952 0.950 . S
H930 C953 0.950 . S
H931 C955 0.950 . S
H932 C956 0.950 . S
H933 C957 0.951 . S
H934 C959 0.951 . S
H935 C961 0.950 . S
H936 C962 0.950 . S
H937 C964 0.950 . S
H938 C967 0.950 . S
H939 C968 0.950 . S
H940 C970 0.950 . S
H941 C971 0.950 . S
C942 H924 0.951 . S
C942 C943 1.366 . S
C942 C944 1.388 . S
C943 C942 1.366 . S
C943 C947 1.385 . S
C944 H925 0.951 . S
C944 C942 1.388 . S
C944 C945 1.366 . S
C945 C944 1.366 . S
C945 C946 1.414 . S
C945 C948 1.499 . S
C946 H926 0.950 . S
C946 C945 1.414 . S
C946 C947 1.374 . S
C947 H927 0.950 . S
C947 C943 1.385 . S
C947 C946 1.374 . S
C948 C945 1.499 . S
C948 C949 1.373 . S
C948 C950 1.389 . S
C949 H928 0.950 . S
C949 C948 1.373 . S
C949 C965 1.377 . S
C950 C948 1.389 . S
C950 C951 1.524 . S
C950 C964 1.377 . S
C951 C950 1.524 . S
C951 C952 1.397 . S
C951 C956 1.363 . S
C952 H929 0.950 . S
C952 C951 1.397 . S
C952 C953 1.334 . S
C953 H930 0.950 . S
C953 C952 1.334 . S
C953 C954 1.287 . S
C954 C953 1.287 . S
C954 C955 1.524 . S
C954 H973 0.913 . S
C955 H931 0.950 . S
C955 C954 1.524 . S
C955 C956 1.415 . S
C956 H932 0.950 . S
C956 C951 1.363 . S
C956 C955 1.415 . S
C957 H933 0.951 . S
C957 C958 1.366 . S
C957 C959 1.388 . S
C958 C957 1.366 . S
C958 C962 1.385 . S
C959 H934 0.951 . S
C959 C957 1.388 . S
C959 C960 1.366 . S
C960 C959 1.366 . S
C960 C961 1.414 . S
C960 C963 1.499 . S
C961 H935 0.950 . S
C961 C960 1.414 . S
C961 C962 1.374 . S
C962 H936 0.950 . S
C962 C958 1.385 . S
C962 C961 1.374 . S
C963 C960 1.499 . S
C963 C964 1.373 . S
C963 C965 1.389 . S
C964 H937 0.950 . S
C964 C950 1.377 . S
C964 C963 1.373 . S
C965 C949 1.377 . S
C965 C963 1.389 . S
C965 C966 1.524 . S
C966 C965 1.524 . S
C966 C967 1.397 . S
C966 C971 1.363 . S
C967 H938 0.950 . S
C967 C966 1.397 . S
C967 C968 1.334 . S
C968 H939 0.950 . S
C968 C967 1.334 . S
C968 C969 1.287 . S
C969 C968 1.287 . S
C969 C970 1.524 . S
C969 H972 0.999 . S
C970 H940 0.950 . S
C970 C969 1.524 . S
C970 C971 1.415 . S
C971 H941 0.950 . S
C971 C966 1.363 . S
C971 C970 1.415 . S
H972 C969 0.999 . S
H973 C954 0.913 . S
H974 C992 0.951 . S
H975 C994 0.951 . S
H976 C996 0.950 . S
H977 C997 0.950 . S
H978 C999 0.950 . S
H979 C1002 0.950 . S
H980 C1003 0.950 . S
H981 C1005 0.950 . S
H982 C1006 0.950 . S
H983 C1007 0.951 . S
H984 C1009 0.951 . S
H985 C1011 0.950 . S
H986 C1012 0.950 . S
H987 C1014 0.950 . S
H988 C1017 0.950 . S
H989 C1018 0.950 . S
H990 C1020 0.950 . S
H991 C1021 0.950 . S
C992 H974 0.951 . S
C992 C993 1.366 . S
C992 C994 1.388 . S
C993 C992 1.366 . S
C993 C997 1.385 . S
C994 H975 0.951 . S
C994 C992 1.388 . S
C994 C995 1.366 . S
C995 C994 1.366 . S
C995 C996 1.414 . S
C995 C998 1.499 . S
C996 H976 0.950 . S
C996 C995 1.414 . S
C996 C997 1.374 . S
C997 H977 0.950 . S
C997 C993 1.385 . S
C997 C996 1.374 . S
C998 C995 1.499 . S
C998 C999 1.373 . S
C998 C1000 1.389 . S
C999 H978 0.950 . S
C999 C998 1.373 . S
C999 C1015 1.377 . S
C1000 C998 1.389 . S
C1000 C1001 1.524 . S
C1000 C1014 1.377 . S
C1001 C1000 1.524 . S
C1001 C1002 1.397 . S
C1001 C1006 1.363 . S
C1002 H979 0.950 . S
C1002 C1001 1.397 . S
C1002 C1003 1.334 . S
C1003 H980 0.950 . S
C1003 C1002 1.334 . S
C1003 C1004 1.287 . S
C1004 C1003 1.287 . S
C1004 C1005 1.524 . S
C1004 H1023 0.913 . S
C1005 H981 0.950 . S
C1005 C1004 1.524 . S
C1005 C1006 1.415 . S
C1006 H982 0.950 . S
C1006 C1001 1.363 . S
C1006 C1005 1.415 . S
C1007 H983 0.951 . S
C1007 C1008 1.366 . S
C1007 C1009 1.388 . S
C1008 C1007 1.366 . S
C1008 C1012 1.385 . S
C1009 H984 0.951 . S
C1009 C1007 1.388 . S
C1009 C1010 1.366 . S
C1010 C1009 1.366 . S
C1010 C1011 1.414 . S
C1010 C1013 1.499 . S
C1011 H985 0.950 . S
C1011 C1010 1.414 . S
C1011 C1012 1.374 . S
C1012 H986 0.950 . S
C1012 C1008 1.385 . S
C1012 C1011 1.374 . S
C1013 C1010 1.499 . S
C1013 C1014 1.373 . S
C1013 C1015 1.389 . S
C1014 H987 0.950 . S
C1014 C1000 1.377 . S
C1014 C1013 1.373 . S
C1015 C999 1.377 . S
C1015 C1013 1.389 . S
C1015 C1016 1.524 . S
C1016 C1015 1.524 . S
C1016 C1017 1.397 . S
C1016 C1021 1.363 . S
C1017 H988 0.950 . S
C1017 C1016 1.397 . S
C1017 C1018 1.334 . S
C1018 H989 0.950 . S
C1018 C1017 1.334 . S
C1018 C1019 1.287 . S
C1019 C1018 1.287 . S
C1019 C1020 1.524 . S
C1019 H1022 0.999 . S
C1020 H990 0.950 . S
C1020 C1019 1.524 . S
C1020 C1021 1.415 . S
C1021 H991 0.950 . S
C1021 C1016 1.363 . S
C1021 C1020 1.415 . S
H1022 C1019 0.999 . S
H1023 C1004 0.913 . S
H1024 C1042 0.951 . S
H1025 C1044 0.951 . S
H1026 C1046 0.950 . S
H1027 C1047 0.950 . S
H1028 C1049 0.950 . S
H1029 C1052 0.950 . S
H1030 C1053 0.950 . S
H1031 C1055 0.950 . S
H1032 C1056 0.950 . S
H1033 C1057 0.951 . S
H1034 C1059 0.951 . S
H1035 C1061 0.950 1_554 S
H1036 C1062 0.950 . S
H1037 C1064 0.950 1_554 S
H1038 C1067 0.950 . S
H1039 C1068 0.950 . S
H1040 C1070 0.950 . S
H1041 C1071 0.950 . S
C1042 H1024 0.951 . S
C1042 C1043 1.366 . S
C1042 C1044 1.388 . S
C1043 C1042 1.366 . S
C1043 C1047 1.385 . S
C1044 H1025 0.951 . S
C1044 C1042 1.388 . S
C1044 C1045 1.366 . S
C1045 C1044 1.366 . S
C1045 C1046 1.414 . S
C1045 C1048 1.499 . S
C1046 H1026 0.950 . S
C1046 C1045 1.414 . S
C1046 C1047 1.374 . S
C1047 H1027 0.950 . S
C1047 C1043 1.385 . S
C1047 C1046 1.374 . S
C1048 C1045 1.499 . S
C1048 C1049 1.373 . S
C1048 C1050 1.389 . S
C1049 H1028 0.950 . S
C1049 C1048 1.373 . S
C1049 C1065 1.377 . S
C1050 C1048 1.389 . S
C1050 C1051 1.535 . S
C1050 C1064 1.377 . S
C1051 C1050 1.535 . S
C1051 C1052 1.402 . S
C1051 C1056 1.348 1_556 S
C1052 H1029 0.950 . S
C1052 C1051 1.402 . S
C1052 C1053 1.334 1_556 S
C1053 H1030 0.950 . S
C1053 C1052 1.334 1_554 S
C1053 C1054 1.287 . S
C1054 C1053 1.287 . S
C1054 C1055 1.524 . S
C1054 H1073 0.913 . S
C1055 H1031 0.950 . S
C1055 C1054 1.524 . S
C1055 C1056 1.415 . S
C1056 H1032 0.950 . S
C1056 C1051 1.348 1_554 S
C1056 C1055 1.415 . S
C1057 H1033 0.951 . S
C1057 C1058 1.366 . S
C1057 C1059 1.388 . S
C1058 C1057 1.366 . S
C1058 C1062 1.385 1_556 S
C1059 H1034 0.951 . S
C1059 C1057 1.388 . S
C1059 C1060 1.366 . S
C1060 C1059 1.366 . S
C1060 C1061 1.414 . S
C1060 C1063 1.499 . S
C1061 H1035 0.950 1_556 S
C1061 C1060 1.414 . S
C1061 C1062 1.374 1_556 S
C1062 H1036 0.950 . S
C1062 C1058 1.385 1_554 S
C1062 C1061 1.374 1_554 S
C1063 C1060 1.499 . S
C1063 C1064 1.373 . S
C1063 C1065 1.389 . S
C1064 H1037 0.950 1_556 S
C1064 C1050 1.377 . S
C1064 C1063 1.373 . S
C1065 C1049 1.377 . S
C1065 C1063 1.389 . S
C1065 C1066 1.524 . S
C1066 C1065 1.524 . S
C1066 C1067 1.397 1_565 S
C1066 C1071 1.363 . S
C1067 H1038 0.950 . S
C1067 C1066 1.397 1_545 S
C1067 C1068 1.334 . S
C1068 H1039 0.950 . S
C1068 C1067 1.334 . S
C1068 C1069 1.287 . S
C1069 C1068 1.287 . S
C1069 C1070 1.524 1_545 S
C1069 H1072 0.999 . S
C1070 H1040 0.950 . S
C1070 C1069 1.524 1_565 S
C1070 C1071 1.415 . S
C1071 H1041 0.950 . S
C1071 C1066 1.363 . S
C1071 C1070 1.415 . S
H1072 C1069 0.999 . S
H1073 C1054 0.913 . S
H1074 C1092 0.951 . S
H1075 C1094 0.951 . S
H1076 C1096 0.950 . S
H1077 C1097 0.950 . S
H1078 C1099 0.950 . S
H1079 C1102 0.950 . S
H1080 C1103 0.950 . S
H1081 C1105 0.950 . S
H1082 C1106 0.950 . S
H1083 C1107 0.951 . S
H1084 C1109 0.951 . S
H1085 C1111 0.950 . S
H1086 C1112 0.950 . S
H1087 C1114 0.950 . S
H1088 C1117 0.950 . S
H1089 C1118 0.950 . S
H1090 C1120 0.950 . S
H1091 C1121 0.950 . S
C1092 H1074 0.951 . S
C1092 C1093 1.366 . S
C1092 C1094 1.388 . S
C1093 C1092 1.366 . S
C1093 C1097 1.385 . S
C1094 H1075 0.951 . S
C1094 C1092 1.388 . S
C1094 C1095 1.366 . S
C1095 C1094 1.366 . S
C1095 C1096 1.414 . S
C1095 C1098 1.499 . S
C1096 H1076 0.950 . S
C1096 C1095 1.414 . S
C1096 C1097 1.374 . S
C1097 H1077 0.950 . S
C1097 C1093 1.385 . S
C1097 C1096 1.374 . S
C1098 C1095 1.499 . S
C1098 C1099 1.373 . S
C1098 C1100 1.389 . S
C1099 H1078 0.950 . S
C1099 C1098 1.373 . S
C1099 C1115 1.377 . S
C1100 C1098 1.389 . S
C1100 C1101 1.524 . S
C1100 C1114 1.377 . S
C1101 C1100 1.524 . S
C1101 C1102 1.397 . S
C1101 C1106 1.363 . S
C1102 H1079 0.950 . S
C1102 C1101 1.397 . S
C1102 C1103 1.334 . S
C1103 H1080 0.950 . S
C1103 C1102 1.334 . S
C1103 C1104 1.287 . S
C1104 C1103 1.287 . S
C1104 C1105 1.524 . S
C1104 H1123 0.913 . S
C1105 H1081 0.950 . S
C1105 C1104 1.524 . S
C1105 C1106 1.415 . S
C1106 H1082 0.950 . S
C1106 C1101 1.363 . S
C1106 C1105 1.415 . S
C1107 H1083 0.951 . S
C1107 C1108 1.366 . S
C1107 C1109 1.388 . S
C1108 C1107 1.366 . S
C1108 C1112 1.385 . S
C1109 H1084 0.951 . S
C1109 C1107 1.388 . S
C1109 C1110 1.366 . S
C1110 C1109 1.366 . S
C1110 C1111 1.414 . S
C1110 C1113 1.499 . S
C1111 H1085 0.950 . S
C1111 C1110 1.414 . S
C1111 C1112 1.374 . S
C1112 H1086 0.950 . S
C1112 C1108 1.385 . S
C1112 C1111 1.374 . S
C1113 C1110 1.499 . S
C1113 C1114 1.373 . S
C1113 C1115 1.389 . S
C1114 H1087 0.950 . S
C1114 C1100 1.377 . S
C1114 C1113 1.373 . S
C1115 C1099 1.377 . S
C1115 C1113 1.389 . S
C1115 C1116 1.524 . S
C1116 C1115 1.524 . S
C1116 C1117 1.397 . S
C1116 C1121 1.363 . S
C1117 H1088 0.950 . S
C1117 C1116 1.397 . S
C1117 C1118 1.334 . S
C1118 H1089 0.950 . S
C1118 C1117 1.334 . S
C1118 C1119 1.287 . S
C1119 C1118 1.287 . S
C1119 C1120 1.524 . S
C1119 H1122 0.999 . S
C1120 H1090 0.950 . S
C1120 C1119 1.524 . S
C1120 C1121 1.415 . S
C1121 H1091 0.950 . S
C1121 C1116 1.363 . S
C1121 C1120 1.415 . S
H1122 C1119 0.999 . S
H1123 C1104 0.913 . S
H1124 C1142 0.951 . S
H1125 C1144 0.951 . S
H1126 C1146 0.950 . S
H1127 C1147 0.950 . S
H1128 C1149 0.950 . S
H1129 C1152 0.950 . S
H1130 C1153 0.950 . S
H1131 C1155 0.950 . S
H1132 C1156 0.950 . S
H1133 C1157 0.951 . S
H1134 C1159 0.951 . S
H1135 C1161 0.950 . S
H1136 C1162 0.950 . S
H1137 C1164 0.950 . S
H1138 C1167 0.950 . S
H1139 C1168 0.950 . S
H1140 C1170 0.950 . S
H1141 C1171 0.950 . S
C1142 H1124 0.951 . S
C1142 C1143 1.366 . S
C1142 C1144 1.388 . S
C1143 C1142 1.366 . S
C1143 C1147 1.385 . S
C1144 H1125 0.951 . S
C1144 C1142 1.388 . S
C1144 C1145 1.366 . S
C1145 C1144 1.366 . S
C1145 C1146 1.414 . S
C1145 C1148 1.499 . S
C1146 H1126 0.950 . S
C1146 C1145 1.414 . S
C1146 C1147 1.374 . S
C1147 H1127 0.950 . S
C1147 C1143 1.385 . S
C1147 C1146 1.374 . S
C1148 C1145 1.499 . S
C1148 C1149 1.373 . S
C1148 C1150 1.389 . S
C1149 H1128 0.950 . S
C1149 C1148 1.373 . S
C1149 C1165 1.377 . S
C1150 C1148 1.389 . S
C1150 C1151 1.524 . S
C1150 C1164 1.377 . S
C1151 C1150 1.524 . S
C1151 C1152 1.397 . S
C1151 C1156 1.363 . S
C1152 H1129 0.950 . S
C1152 C1151 1.397 . S
C1152 C1153 1.334 . S
C1153 H1130 0.950 . S
C1153 C1152 1.334 . S
C1153 C1154 1.287 . S
C1154 C1153 1.287 . S
C1154 C1155 1.524 1_554 S
C1154 H1173 0.913 1_554 S
C1155 H1131 0.950 . S
C1155 C1154 1.524 1_556 S
C1155 C1156 1.415 1_556 S
C1156 H1132 0.950 . S
C1156 C1151 1.363 . S
C1156 C1155 1.415 1_554 S
C1157 H1133 0.951 . S
C1157 C1158 1.366 . S
C1157 C1159 1.388 . S
C1158 C1157 1.366 . S
C1158 C1162 1.385 . S
C1159 H1134 0.951 . S
C1159 C1157 1.388 . S
C1159 C1160 1.366 . S
C1160 C1159 1.366 . S
C1160 C1161 1.414 . S
C1160 C1163 1.499 . S
C1161 H1135 0.950 . S
C1161 C1160 1.414 . S
C1161 C1162 1.374 . S
C1162 H1136 0.950 . S
C1162 C1158 1.385 . S
C1162 C1161 1.374 . S
C1163 C1160 1.499 . S
C1163 C1164 1.373 . S
C1163 C1165 1.389 . S
C1164 H1137 0.950 . S
C1164 C1150 1.377 . S
C1164 C1163 1.373 . S
C1165 C1149 1.377 . S
C1165 C1163 1.389 . S
C1165 C1166 1.524 . S
C1166 C1165 1.524 . S
C1166 C1167 1.397 . S
C1166 C1171 1.363 . S
C1167 H1138 0.950 . S
C1167 C1166 1.397 . S
C1167 C1168 1.334 . S
C1168 H1139 0.950 . S
C1168 C1167 1.334 . S
C1168 C1169 1.287 . S
C1169 C1168 1.287 . S
C1169 C1170 1.524 . S
C1169 H1172 0.999 . S
C1170 H1140 0.950 . S
C1170 C1169 1.524 . S
C1170 C1171 1.415 . S
C1171 H1141 0.950 . S
C1171 C1166 1.363 . S
C1171 C1170 1.415 . S
H1172 C1169 0.999 . S
H1173 C1154 0.913 1_556 S
H1174 C1192 0.951 . S
H1175 C1194 0.951 . S
H1176 C1196 0.950 . S
H1177 C1197 0.950 . S
H1178 C1199 0.950 . S
H1179 C1202 0.950 . S
H1180 C1203 0.950 . S
H1181 C1205 0.950 . S
H1182 C1206 0.950 . S
H1183 C1207 0.951 . S
H1184 C1209 0.951 . S
H1185 C1211 0.950 . S
H1186 C1212 0.950 . S
H1187 C1214 0.950 . S
H1188 C1217 0.950 . S
H1189 C1218 0.950 . S
H1190 C1220 0.950 . S
H1191 C1221 0.950 . S
C1192 H1174 0.951 . S
C1192 C1193 1.366 . S
C1192 C1194 1.388 . S
C1193 C1192 1.366 . S
C1193 C1197 1.385 . S
C1194 H1175 0.951 . S
C1194 C1192 1.388 . S
C1194 C1195 1.366 . S
C1195 C1194 1.366 . S
C1195 C1196 1.414 . S
C1195 C1198 1.499 . S
C1196 H1176 0.950 . S
C1196 C1195 1.414 . S
C1196 C1197 1.374 . S
C1197 H1177 0.950 . S
C1197 C1193 1.385 . S
C1197 C1196 1.374 . S
C1198 C1195 1.499 . S
C1198 C1199 1.373 . S
C1198 C1200 1.389 . S
C1199 H1178 0.950 . S
C1199 C1198 1.373 . S
C1199 C1215 1.377 . S
C1200 C1198 1.389 . S
C1200 C1201 1.524 . S
C1200 C1214 1.377 . S
C1201 C1200 1.524 . S
C1201 C1202 1.397 . S
C1201 C1206 1.363 . S
C1202 H1179 0.950 . S
C1202 C1201 1.397 . S
C1202 C1203 1.334 . S
C1203 H1180 0.950 . S
C1203 C1202 1.334 . S
C1203 C1204 1.287 . S
C1204 C1203 1.287 . S
C1204 C1205 1.524 . S
C1204 H1223 0.913 . S
C1205 H1181 0.950 . S
C1205 C1204 1.524 . S
C1205 C1206 1.415 . S
C1206 H1182 0.950 . S
C1206 C1201 1.363 . S
C1206 C1205 1.415 . S
C1207 H1183 0.951 . S
C1207 C1208 1.366 . S
C1207 C1209 1.388 . S
C1208 C1207 1.366 . S
C1208 C1212 1.385 . S
C1209 H1184 0.951 . S
C1209 C1207 1.388 . S
C1209 C1210 1.366 . S
C1210 C1209 1.366 . S
C1210 C1211 1.414 . S
C1210 C1213 1.499 . S
C1211 H1185 0.950 . S
C1211 C1210 1.414 . S
C1211 C1212 1.374 . S
C1212 H1186 0.950 . S
C1212 C1208 1.385 . S
C1212 C1211 1.374 . S
C1213 C1210 1.499 . S
C1213 C1214 1.373 . S
C1213 C1215 1.389 . S
C1214 H1187 0.950 . S
C1214 C1200 1.377 . S
C1214 C1213 1.373 . S
C1215 C1199 1.377 . S
C1215 C1213 1.389 . S
C1215 C1216 1.524 . S
C1216 C1215 1.524 . S
C1216 C1217 1.397 . S
C1216 C1221 1.363 . S
C1217 H1188 0.950 . S
C1217 C1216 1.397 . S
C1217 C1218 1.334 . S
C1218 H1189 0.950 . S
C1218 C1217 1.334 . S
C1218 C1219 1.287 . S
C1219 C1218 1.287 . S
C1219 C1220 1.524 . S
C1219 H1222 0.999 . S
C1220 H1190 0.950 . S
C1220 C1219 1.524 . S
C1220 C1221 1.415 . S
C1221 H1191 0.950 . S
C1221 C1216 1.363 . S
C1221 C1220 1.415 . S
H1222 C1219 0.999 . S
H1223 C1204 0.913 . S
H1224 C1242 0.951 . S
H1225 C1244 0.951 . S
H1226 C1246 0.950 . S
H1227 C1247 0.950 . S
H1228 C1249 0.950 . S
H1229 C1252 0.950 1_655 S
H1230 C1253 0.950 . S
H1231 C1255 0.950 . S
H1232 C1256 0.950 . S
H1233 C1257 0.951 . S
H1234 C1259 0.951 . S
H1235 C1261 0.950 . S
H1236 C1262 0.950 . S
H1237 C1264 0.950 . S
H1238 C1267 0.950 . S
H1239 C1268 0.950 . S
H1240 C1270 0.950 . S
H1241 C1271 0.950 . S
C1242 H1224 0.951 . S
C1242 C1243 1.366 . S
C1242 C1244 1.388 . S
C1243 C1242 1.366 . S
C1243 C1247 1.385 . S
C1244 H1225 0.951 . S
C1244 C1242 1.388 . S
C1244 C1245 1.366 . S
C1245 C1244 1.366 . S
C1245 C1246 1.414 . S
C1245 C1248 1.499 . S
C1246 H1226 0.950 . S
C1246 C1245 1.414 . S
C1246 C1247 1.374 . S
C1247 H1227 0.950 . S
C1247 C1243 1.385 . S
C1247 C1246 1.374 . S
C1248 C1245 1.499 . S
C1248 C1249 1.373 . S
C1248 C1250 1.389 . S
C1249 H1228 0.950 . S
C1249 C1248 1.373 . S
C1249 C1265 1.377 . S
C1250 C1248 1.389 . S
C1250 C1251 1.524 1_655 S
C1250 C1264 1.377 1_655 S
C1251 C1250 1.524 1_455 S
C1251 C1252 1.397 . S
C1251 C1256 1.363 . S
C1252 H1229 0.950 1_455 S
C1252 C1251 1.397 . S
C1252 C1253 1.334 . S
C1253 H1230 0.950 . S
C1253 C1252 1.334 . S
C1253 C1254 1.287 . S
C1254 C1253 1.287 . S
C1254 C1255 1.524 . S
C1254 H1273 0.913 . S
C1255 H1231 0.950 . S
C1255 C1254 1.524 . S
C1255 C1256 1.415 . S
C1256 H1232 0.950 . S
C1256 C1251 1.363 . S
C1256 C1255 1.415 . S
C1257 H1233 0.951 . S
C1257 C1258 1.356 1_656 S
C1257 C1259 1.388 . S
C1258 C1257 1.356 1_454 S
C1258 C1262 1.391 . S
C1259 H1234 0.951 . S
C1259 C1257 1.388 . S
C1259 C1260 1.366 . S
C1260 C1259 1.366 . S
C1260 C1261 1.414 1_656 S
C1260 C1263 1.499 . S
C1261 H1235 0.950 . S
C1261 C1260 1.414 1_454 S
C1261 C1262 1.374 . S
C1262 H1236 0.950 . S
C1262 C1258 1.391 . S
C1262 C1261 1.374 . S
C1263 C1260 1.499 . S
C1263 C1264 1.373 1_655 S
C1263 C1265 1.389 . S
C1264 H1237 0.950 . S
C1264 C1250 1.377 1_455 S
C1264 C1263 1.373 1_455 S
C1265 C1249 1.377 . S
C1265 C1263 1.389 . S
C1265 C1266 1.524 1_556 S
C1266 C1265 1.524 1_554 S
C1266 C1267 1.397 . S
C1266 C1271 1.363 1_554 S
C1267 H1238 0.950 . S
C1267 C1266 1.397 . S
C1267 C1268 1.334 . S
C1268 H1239 0.950 . S
C1268 C1267 1.334 . S
C1268 C1269 1.287 . S
C1269 C1268 1.287 . S
C1269 C1270 1.524 . S
C1269 H1272 0.999 . S
C1270 H1240 0.950 . S
C1270 C1269 1.524 . S
C1270 C1271 1.415 1_554 S
C1271 H1241 0.950 . S
C1271 C1266 1.363 1_556 S
C1271 C1270 1.415 1_556 S
H1272 C1269 0.999 . S
H1273 C1254 0.913 . S
H1274 C1292 0.951 . S
H1275 C1294 0.951 . S
H1276 C1296 0.950 . S
H1277 C1297 0.950 . S
H1278 C1299 0.950 . S
H1279 C1302 0.950 . S
H1280 C1303 0.950 . S
H1281 C1305 0.950 . S
H1282 C1306 0.950 . S
H1283 C1307 0.951 . S
H1284 C1309 0.951 . S
H1285 C1311 0.950 . S
H1286 C1312 0.950 . S
H1287 C1314 0.950 . S
H1288 C1317 0.950 . S
H1289 C1318 0.950 1_556 S
H1290 C1320 0.950 . S
H1291 C1321 0.950 . S
C1292 H1274 0.951 . S
C1292 C1293 1.366 . S
C1292 C1294 1.388 . S
C1293 C1292 1.366 . S
C1293 C1297 1.385 . S
C1294 H1275 0.951 . S
C1294 C1292 1.388 . S
C1294 C1295 1.366 . S
C1295 C1294 1.366 . S
C1295 C1296 1.414 . S
C1295 C1298 1.499 . S
C1296 H1276 0.950 . S
C1296 C1295 1.414 . S
C1296 C1297 1.374 . S
C1297 H1277 0.950 . S
C1297 C1293 1.385 . S
C1297 C1296 1.374 . S
C1298 C1295 1.499 . S
C1298 C1299 1.373 . S
C1298 C1300 1.389 . S
C1299 H1278 0.950 . S
C1299 C1298 1.373 . S
C1299 C1315 1.377 . S
C1300 C1298 1.389 . S
C1300 C1301 1.524 . S
C1300 C1314 1.377 . S
C1301 C1300 1.524 . S
C1301 C1302 1.397 . S
C1301 C1306 1.363 . S
C1302 H1279 0.950 . S
C1302 C1301 1.397 . S
C1302 C1303 1.334 . S
C1303 H1280 0.950 . S
C1303 C1302 1.334 . S
C1303 C1304 1.287 . S
C1304 C1303 1.287 . S
C1304 C1305 1.524 . S
C1304 H1323 0.913 . S
C1305 H1281 0.950 . S
C1305 C1304 1.524 . S
C1305 C1306 1.415 . S
C1306 H1282 0.950 . S
C1306 C1301 1.363 . S
C1306 C1305 1.415 . S
C1307 H1283 0.951 . S
C1307 C1308 1.366 . S
C1307 C1309 1.388 . S
C1308 C1307 1.366 . S
C1308 C1312 1.385 . S
C1309 H1284 0.951 . S
C1309 C1307 1.388 . S
C1309 C1310 1.366 . S
C1310 C1309 1.366 . S
C1310 C1311 1.414 . S
C1310 C1313 1.499 . S
C1311 H1285 0.950 . S
C1311 C1310 1.414 . S
C1311 C1312 1.374 . S
C1312 H1286 0.950 . S
C1312 C1308 1.385 . S
C1312 C1311 1.374 . S
C1313 C1310 1.499 . S
C1313 C1314 1.373 . S
C1313 C1315 1.389 . S
C1314 H1287 0.950 . S
C1314 C1300 1.377 . S
C1314 C1313 1.373 . S
C1315 C1299 1.377 . S
C1315 C1313 1.389 . S
C1315 C1316 1.524 . S
C1316 C1315 1.524 . S
C1316 C1317 1.397 . S
C1316 C1321 1.363 . S
C1317 H1288 0.950 . S
C1317 C1316 1.397 . S
C1317 C1318 1.334 . S
C1318 H1289 0.950 1_554 S
C1318 C1317 1.334 . S
C1318 C1319 1.287 . S
C1319 C1318 1.287 . S
C1319 C1320 1.524 . S
C1319 H1322 0.999 . S
C1320 H1290 0.950 . S
C1320 C1319 1.524 . S
C1320 C1321 1.415 . S
C1321 H1291 0.950 . S
C1321 C1316 1.363 . S
C1321 C1320 1.415 . S
H1322 C1319 0.999 . S
H1323 C1304 0.913 . S
H1324 C1342 0.951 . S
H1325 C1344 0.951 . S
H1326 C1346 0.950 . S
H1327 C1347 0.950 . S
H1328 C1349 0.950 . S
H1329 C1352 0.950 . S
H1330 C1353 0.950 . S
H1331 C1355 0.950 . S
H1332 C1356 0.950 . S
H1333 C1357 0.951 . S
H1334 C1359 0.951 . S
H1335 C1361 0.950 . S
H1336 C1362 0.950 . S
H1337 C1364 0.950 . S
H1338 C1367 0.952 . S
H1339 C1368 0.950 . S
H1340 C1370 0.950 . S
H1341 C1371 0.950 1_455 S
C1342 H1324 0.951 . S
C1342 C1343 1.366 . S
C1342 C1344 1.388 . S
C1343 C1342 1.366 . S
C1343 C1347 1.385 . S
C1344 H1325 0.951 . S
C1344 C1342 1.388 . S
C1344 C1345 1.366 . S
C1345 C1344 1.366 . S
C1345 C1346 1.414 . S
C1345 C1348 1.499 . S
C1346 H1326 0.950 . S
C1346 C1345 1.414 . S
C1346 C1347 1.374 . S
C1347 H1327 0.950 . S
C1347 C1343 1.385 . S
C1347 C1346 1.374 . S
C1348 C1345 1.499 . S
C1348 C1349 1.373 . S
C1348 C1350 1.389 . S
C1349 H1328 0.950 . S
C1349 C1348 1.373 . S
C1349 C1365 1.377 . S
C1350 C1348 1.389 . S
C1350 C1351 1.524 . S
C1350 C1364 1.377 . S
C1351 C1350 1.524 . S
C1351 C1352 1.397 . S
C1351 C1356 1.363 . S
C1352 H1329 0.950 . S
C1352 C1351 1.397 . S
C1352 C1353 1.334 . S
C1353 H1330 0.950 . S
C1353 C1352 1.334 . S
C1353 C1354 1.287 . S
C1354 C1353 1.287 . S
C1354 C1355 1.524 . S
C1354 H1373 0.913 . S
C1355 H1331 0.950 . S
C1355 C1354 1.524 . S
C1355 C1356 1.415 . S
C1356 H1332 0.950 . S
C1356 C1351 1.363 . S
C1356 C1355 1.415 . S
C1357 H1333 0.951 . S
C1357 C1358 1.366 . S
C1357 C1359 1.388 . S
C1358 C1357 1.366 . S
C1358 C1362 1.385 . S
C1359 H1334 0.951 . S
C1359 C1357 1.388 . S
C1359 C1360 1.366 . S
C1360 C1359 1.366 . S
C1360 C1361 1.414 . S
C1360 C1363 1.499 . S
C1361 H1335 0.950 . S
C1361 C1360 1.414 . S
C1361 C1362 1.374 . S
C1362 H1336 0.950 . S
C1362 C1358 1.385 . S
C1362 C1361 1.374 . S
C1363 C1360 1.499 . S
C1363 C1364 1.373 . S
C1363 C1365 1.389 . S
C1364 H1337 0.950 . S
C1364 C1350 1.377 . S
C1364 C1363 1.373 . S
C1365 C1349 1.377 . S
C1365 C1363 1.389 . S
C1365 C1366 1.524 . S
C1366 C1365 1.524 . S
C1366 C1367 1.399 . S
C1366 C1371 1.363 1_455 S
C1367 H1338 0.952 . S
C1367 C1366 1.399 . S
C1367 C1368 1.329 1_455 S
C1368 H1339 0.950 . S
C1368 C1367 1.329 1_655 S
C1368 C1369 1.287 . S
C1369 C1368 1.287 . S
C1369 C1370 1.524 . S
C1369 H1372 0.999 . S
C1370 H1340 0.950 . S
C1370 C1369 1.524 . S
C1370 C1371 1.415 . S
C1371 H1341 0.950 1_655 S
C1371 C1366 1.363 1_655 S
C1371 C1370 1.415 . S
H1372 C1369 0.999 . S
H1373 C1354 0.913 . S
H1374 C1392 0.951 . S
H1375 C1394 0.951 . S
H1376 C1396 0.950 . S
H1377 C1397 0.950 . S
H1378 C1399 0.950 . S
H1379 C1402 0.950 . S
H1380 C1403 0.950 . S
H1381 C1405 0.950 . S
H1382 C1406 0.950 . S
H1383 C1407 0.951 . S
H1384 C1409 0.951 . S
H1385 C1411 0.950 . S
H1386 C1412 0.950 . S
H1387 C1414 0.950 . S
H1388 C1417 0.950 . S
H1389 C1418 0.950 . S
H1390 C1420 0.950 . S
H1391 C1421 0.950 . S
C1392 H1374 0.951 . S
C1392 C1393 1.366 . S
C1392 C1394 1.388 . S
C1393 C1392 1.366 . S
C1393 C1397 1.385 . S
C1394 H1375 0.951 . S
C1394 C1392 1.388 . S
C1394 C1395 1.366 . S
C1395 C1394 1.366 . S
C1395 C1396 1.414 . S
C1395 C1398 1.499 . S
C1396 H1376 0.950 . S
C1396 C1395 1.414 . S
C1396 C1397 1.374 . S
C1397 H1377 0.950 . S
C1397 C1393 1.385 . S
C1397 C1396 1.374 . S
C1398 C1395 1.499 . S
C1398 C1399 1.373 . S
C1398 C1400 1.389 . S
C1399 H1378 0.950 . S
C1399 C1398 1.373 . S
C1399 C1415 1.377 . S
C1400 C1398 1.389 . S
C1400 C1401 1.524 . S
C1400 C1414 1.377 . S
C1401 C1400 1.524 . S
C1401 C1402 1.397 . S
C1401 C1406 1.363 . S
C1402 H1379 0.950 . S
C1402 C1401 1.397 . S
C1402 C1403 1.334 . S
C1403 H1380 0.950 . S
C1403 C1402 1.334 . S
C1403 C1404 1.287 . S
C1404 C1403 1.287 . S
C1404 C1405 1.524 . S
C1404 H1423 0.913 . S
C1405 H1381 0.950 . S
C1405 C1404 1.524 . S
C1405 C1406 1.415 . S
C1406 H1382 0.950 . S
C1406 C1401 1.363 . S
C1406 C1405 1.415 . S
C1407 H1383 0.951 . S
C1407 C1408 1.366 . S
C1407 C1409 1.388 . S
C1408 C1407 1.366 . S
C1408 C1412 1.385 . S
C1409 H1384 0.951 . S
C1409 C1407 1.388 . S
C1409 C1410 1.366 . S
C1410 C1409 1.366 . S
C1410 C1411 1.414 . S
C1410 C1413 1.499 . S
C1411 H1385 0.950 . S
C1411 C1410 1.414 . S
C1411 C1412 1.374 . S
C1412 H1386 0.950 . S
C1412 C1408 1.385 . S
C1412 C1411 1.374 . S
C1413 C1410 1.499 . S
C1413 C1414 1.373 . S
C1413 C1415 1.389 . S
C1414 H1387 0.950 . S
C1414 C1400 1.377 . S
C1414 C1413 1.373 . S
C1415 C1399 1.377 . S
C1415 C1413 1.389 . S
C1415 C1416 1.524 . S
C1416 C1415 1.524 . S
C1416 C1417 1.397 . S
C1416 C1421 1.363 . S
C1417 H1388 0.950 . S
C1417 C1416 1.397 . S
C1417 C1418 1.334 . S
C1418 H1389 0.950 . S
C1418 C1417 1.334 . S
C1418 C1419 1.287 . S
C1419 C1418 1.287 . S
C1419 C1420 1.524 . S
C1419 H1422 0.999 . S
C1420 H1390 0.950 . S
C1420 C1419 1.524 . S
C1420 C1421 1.415 . S
C1421 H1391 0.950 . S
C1421 C1416 1.363 . S
C1421 C1420 1.415 . S
H1422 C1419 0.999 . S
H1423 C1404 0.913 . S
C243 C9 2.628 . S
C258 C120 2.643 . S
C293 C21 1.044 . S
C308 N140 1.026 . S
C358 C174 1.590 . S
C343 C30 1.561 . S
C393 C43 0.977 . S
C408 N208 1.004 1_655 S
C458 C161 2.271 . S
C443 C4 2.240 . S
C508 N118 1.674 . S
C493 C22 1.712 . S
C558 C195 1.547 . S
C543 C34 1.542 . S
C608 N170 0.801 . S
C593 C48 0.801 . S
C643 C8 1.879 . S
C658 C210 1.886 . S
C708 C144 1.739 . S
C693 C35 1.727 . S
C743 C47 1.489 . S
C758 C105 1.496 1_655 S
C793 C17 1.150 . S
C808 C191 1.161 . S
C858 C131 2.190 1_655 S
C843 C60 2.172 . S
C893 C74 1.380 . S
C908 N148 1.362 . S
C943 C82 1.321 . S
C958 C165 1.338 . S
C993 C100 1.560 . S
C1008 N200 1.504 . S
C1043 C61 2.703 . S
C1058 C150 2.724 . S
C1108 N110 1.204 . S
C1093 C73 1.229 . S
C1158 C204 1.994 . S
C1143 C87 1.988 . S
C1208 N178 0.568 . S
C1193 C95 0.601 . S
C1243 C56 1.853 . S
C1258 C221 1.938 . S
C1308 C135 1.747 . S
C1293 C86 1.734 . S
C1358 C114 1.401 . S
C1343 C99 1.384 . S
C1393 C69 1.288 . S
C1408 C180 1.311 . S
