# Generated by pormake.
# Topology rtl, (3,6)-cn, num edge types: 1
# Building blocks:
#     Node 0, Type 0, BuildingBlock: VETTIZ_charged_linker_0, # of connection points: 3
#     Node 1, Type 0, BuildingBlock: VETTIZ_charged_linker_0, # of connection points: 3
#     Node 2, Type 0, BuildingBlock: VETTIZ_charged_linker_0, # of connection points: 3
#     Node 3, Type 0, BuildingBlock: VETTIZ_charged_linker_0, # of connection points: 3
#     Node 4, Type 1, BuildingBlock: KUMBUR_clean_sbu_1, # of connection points: 6
#     Node 5, Type 1, BuildingBlock: KUMBUR_clean_sbu_1, # of connection points: 6
#     Edge 6, Type (0, 1), BuildingBlock: XUDNAN_clean_linker_2, # of connection points: 2
#     Edge 7, Type (0, 1), BuildingBlock: XUDNAN_clean_linker_2, # of connection points: 2
#     Edge 8, Type (0, 1), BuildingBlock: XUDNAN_clean_linker_2, # of connection points: 2
#     Edge 9, Type (0, 1), BuildingBlock: XUDNAN_clean_linker_2, # of connection points: 2
#     Edge 10, Type (0, 1), BuildingBlock: XUDNAN_clean_linker_2, # of connection points: 2
#     Edge 11, Type (0, 1), BuildingBlock: XUDNAN_clean_linker_2, # of connection points: 2
#     Edge 12, Type (0, 1), BuildingBlock: XUDNAN_clean_linker_2, # of connection points: 2
#     Edge 13, Type (0, 1), BuildingBlock: XUDNAN_clean_linker_2, # of connection points: 2
#     Edge 14, Type (0, 1), BuildingBlock: XUDNAN_clean_linker_2, # of connection points: 2
#     Edge 15, Type (0, 1), BuildingBlock: XUDNAN_clean_linker_2, # of connection points: 2
#     Edge 16, Type (0, 1), BuildingBlock: XUDNAN_clean_linker_2, # of connection points: 2
#     Edge 17, Type (0, 1), BuildingBlock: XUDNAN_clean_linker_2, # of connection points: 2
# Relax obj value: 0.017
# Max RMSD: 0.097
# Mean RMSD: 0.057
data_MOF--net-rtl--node1-KUMBUR_clean_sbu_1--node2-VETTIZ_charged_linker_0--edge1-XUDNAN_clean_linker_2
_symmetry_space_group_name_H-M    P1
_symmetry_Int_Tables_number       1
_symmetry_cell_setting            triclinic
loop_
_symmetry_equiv_pos_as_xyz
'x, y, z'
_cell_length_a     39.267403
_cell_length_b     40.009741
_cell_length_c     34.975109
_cell_angle_alpha  79.863593
_cell_angle_beta   99.087692
_cell_angle_gamma 90.970923
loop_
_atom_site_label
_atom_site_type_symbol
_atom_site_fract_x
_atom_site_fract_y
_atom_site_fract_z
_atom_type_partial_charge
C0 C 0.16974 0.88393 0.87962 0.0
C1 C 0.14495 0.91015 0.87032 0.0
C2 C 0.13868 0.92812 0.89971 0.0
C3 C 0.17855 0.89076 0.94801 0.0
C4 C 0.18626 0.87476 0.91844 0.0
C5 C 0.21217 0.84642 0.93349 0.0
H6 H 0.30195 0.74155 0.08718 0.0
C7 C 0.1972 0.87244 0.98575 0.0
C8 C 0.21707 0.84658 0.97735 0.0
H9 H 0.30593 0.74752 0.96309 0.0
H10 H 0.2651 0.79381 0.94749 0.0
H11 H 0.30624 0.82382 0.08386 0.0
H12 H 0.22147 0.75404 0.07998 0.0
H13 H 0.21215 0.7842 0.10783 0.0
H14 H 0.24962 0.75693 0.12496 0.0
H15 H 0.29932 0.79237 0.12525 0.0
H16 H 0.27838 0.83336 0.11536 0.0
C17 C 0.24561 0.85625 0.9159 0.0
C18 C 0.19556 0.81307 0.92314 0.0
C19 C 0.17326 0.90225 0.11439 0.0
C20 C 0.18212 0.88638 0.15376 0.0
C21 C 0.20359 0.85733 0.16292 0.0
C22 C 0.21626 0.84428 0.13315 0.0
C23 C 0.20688 0.86016 0.09373 0.0
C24 C 0.1855 0.88851 0.08491 0.0
C25 C 0.17588 0.90037 0.04132 0.0
C26 C 0.19576 0.87508 0.02543 0.0
C27 C 0.21408 0.85173 0.05624 0.0
C28 C 0.18924 0.93695 0.031 0.0
C29 C 0.13629 0.8968 0.03044 0.0
C30 C 0.29435 0.75293 0.05662 0.0
C31 C 0.30721 0.74036 0.02639 0.0
C32 C 0.29603 0.75593 0.98703 0.0
C33 C 0.27255 0.7832 0.97797 0.0
C34 C 0.26007 0.79539 0.00847 0.0
C35 C 0.27128 0.78059 0.04704 0.0
C36 C 0.25633 0.79799 0.07561 0.0
C37 C 0.23464 0.82589 0.0477 0.0
C38 C 0.23653 0.82378 0.00846 0.0
C39 C 0.28646 0.81257 0.10172 0.0
C40 C 0.23386 0.77209 0.09865 0.0
H41 H 0.14888 0.93248 0.96006 0.0
H42 H 0.17533 0.87014 0.85727 0.0
H43 H 0.16855 0.81123 0.9292 0.0
H44 H 0.20886 0.79003 0.94067 0.0
H45 H 0.19494 0.81206 0.8915 0.0
H46 H 0.24767 0.88424 0.9071 0.0
H47 H 0.24648 0.8448 0.88935 0.0
H48 H 0.26921 0.84877 0.93747 0.0
H49 H 0.15613 0.92417 0.1066 0.0
H50 H 0.2105 0.84473 0.19318 0.0
H51 H 0.2325 0.82209 0.14192 0.0
H52 H 0.21496 0.93986 0.04864 0.0
H53 H 0.1714 0.95581 0.0373 0.0
H54 H 0.19318 0.94371 1.00001 0.0
H55 H 0.12664 0.87462 0.04958 0.0
H56 H 0.12827 0.89187 1.00028 0.0
H57 H 0.12245 0.91975 0.03406 0.0
H58 H 0.11969 0.9485 0.89294 0.0
C59 C 0.15539 0.91854 0.93861 0.0
C60 C 0.66046 0.6598 0.75059 0.0
C61 C 0.63822 0.63226 0.75895 0.0
C62 C 0.6267 0.61304 0.72937 0.0
C63 C 0.65896 0.64831 0.68434 0.0
C64 C 0.67075 0.66717 0.71321 0.0
C65 C 0.69478 0.69495 0.69903 0.0
H66 H 0.77946 0.76931 0.55035 0.0
C67 C 0.67417 0.662 0.64888 0.0
C68 C 0.69575 0.68916 0.65729 0.0
H69 H 0.78069 0.80241 0.66165 0.0
H70 H 0.74354 0.75527 0.68196 0.0
H71 H 0.7836 0.6896 0.5815 0.0
H72 H 0.70244 0.76249 0.53443 0.0
H73 H 0.68757 0.72551 0.51732 0.0
H74 H 0.72671 0.7448 0.50336 0.0
H75 H 0.77431 0.70838 0.53043 0.0
H76 H 0.75386 0.66976 0.54994 0.0
C77 C 0.7304 0.68881 0.72524 0.0
C78 C 0.67819 0.7296 0.69942 0.0
C79 C 0.6399 0.61264 0.52324 0.0
C80 C 0.65094 0.61972 0.48625 0.0
C81 C 0.67658 0.64428 0.48019 0.0
C82 C 0.69095 0.66157 0.51008 0.0
C83 C 0.67956 0.65461 0.54669 0.0
C84 C 0.65477 0.63025 0.55308 0.0
C85 C 0.64691 0.62576 0.59452 0.0
C86 C 0.67027 0.65232 0.61121 0.0
C87 C 0.68903 0.66909 0.58289 0.0
C88 C 0.65751 0.58909 0.6155 0.0
C89 C 0.60828 0.63443 0.59222 0.0
C90 C 0.77172 0.76684 0.5791 0.0
C91 C 0.78266 0.79013 0.60401 0.0
C92 C 0.77259 0.78493 0.64168 0.0
C93 C 0.75081 0.7577 0.65328 0.0
C94 C 0.73893 0.73556 0.62689 0.0
C95 C 0.74967 0.74063 0.59056 0.0
C96 C 0.73348 0.7168 0.5647 0.0
C97 C 0.71129 0.69597 0.59133 0.0
C98 C 0.71457 0.70648 0.62808 0.0
C99 C 0.76263 0.69504 0.55576 0.0
C100 C 0.71156 0.73823 0.52786 0.0
H101 H 0.62691 0.60537 0.67119 0.0
H102 H 0.66985 0.67499 0.77272 0.0
H103 H 0.65007 0.72959 0.68814 0.0
H104 H 0.6888 0.75072 0.6802 0.0
H105 H 0.68147 0.73527 0.72976 0.0
H106 H 0.73814 0.66161 0.72965 0.0
H107 H 0.72978 0.69552 0.75463 0.0
H108 H 0.75108 0.70332 0.7121 0.0
H109 H 0.62046 0.59367 0.52889 0.0
H110 H 0.68518 0.65065 0.45186 0.0
H111 H 0.71022 0.67996 0.50321 0.0
H112 H 0.67745 0.57828 0.60167 0.0
H113 H 0.63508 0.57181 0.61438 0.0
H114 H 0.66959 0.58802 0.64652 0.0
H115 H 0.60087 0.65776 0.57011 0.0
H116 H 0.60188 0.63989 0.62012 0.0
H117 H 0.5917 0.61346 0.58332 0.0
H118 H 0.60913 0.59217 0.73464 0.0
C119 C 0.63688 0.6209 0.69232 0.0
C120 C 0.85664 0.13571 0.1806 0.0
C121 C 0.88225 0.1105 0.1862 0.0
C122 C 0.89381 0.10153 0.15321 0.0
C123 C 0.8534 0.14171 0.10972 0.0
C124 C 0.84232 0.15061 0.14223 0.0
C125 C 0.81252 0.17534 0.13097 0.0
H126 H 0.69221 0.26213 0.99035 0.0
C127 C 0.83191 0.16053 0.07411 0.0
C128 C 0.80774 0.18007 0.08638 0.0
H129 H 0.70396 0.25535 0.11661 0.0
H130 H 0.75523 0.22142 0.12486 0.0
H131 H 0.77314 0.27491 0.98596 0.0
H132 H 0.71292 0.18364 0.99032 0.0
H133 H 0.73878 0.1855 0.95314 0.0
H134 H 0.70698 0.21822 0.94938 0.0
H135 H 0.74529 0.26556 0.94341 0.0
H136 H 0.78925 0.24994 0.95616 0.0
C137 C 0.82407 0.20857 0.14601 0.0
C138 C 0.78097 0.15812 0.14774 0.0
C139 C 0.85458 0.14622 0.93888 0.0
C140 C 0.83973 0.16086 0.90046 0.0
C141 C 0.81212 0.18417 0.89517 0.0
C142 C 0.79939 0.19257 0.92763 0.0
C143 C 0.81451 0.17766 0.96586 0.0
C144 C 0.8418 0.15509 0.97095 0.0
C145 C 0.85531 0.14235 0.01362 0.0
C146 C 0.83192 0.16126 0.03337 0.0
C147 C 0.80777 0.18161 1.0053 0.0
C148 C 0.89338 0.15339 0.022 0.0
C149 C 0.84988 0.10342 0.02215 0.0
C150 C 0.70597 0.25341 0.01971 0.0
C151 C 0.69343 0.2608 0.05292 0.0
C152 C 0.71235 0.24921 0.09059 0.0
C153 C 0.74234 0.22962 0.09536 0.0
C154 C 0.75384 0.22135 0.06217 0.0
C155 C 0.73615 0.23362 0.02505 0.0
C156 C 0.75295 0.22265 0.99331 0.0
C157 C 0.78277 0.20085 0.01771 0.0
C158 C 0.78301 0.20021 0.05801 0.0
C159 C 0.7657 0.25478 0.96805 0.0
C160 C 0.72665 0.20152 0.96997 0.0
H161 H 0.88942 0.10903 0.09111 0.0
H162 H 0.84681 0.14249 0.2055 0.0
H163 H 0.78173 0.13013 0.14912 0.0
H164 H 0.75611 0.16629 0.12911 0.0
H165 H 0.78036 0.16281 0.17799 0.0
H166 H 0.85148 0.21407 0.14298 0.0
H167 H 0.82178 0.20665 0.17758 0.0
H168 H 0.80951 0.23116 0.12893 0.0
H169 H 0.87616 0.12863 0.94397 0.0
H170 H 0.80011 0.19563 0.86584 0.0
H171 H 0.77822 0.21029 0.9217 0.0
H172 H 0.89688 0.17945 1.00581 0.0
H173 H 0.91085 0.13602 0.01247 0.0
H174 H 0.90221 0.15473 0.05324 0.0
H175 H 0.82644 0.096 1.0033 0.0
H176 H 0.84535 0.09405 0.05256 0.0
H177 H 0.87218 0.08944 0.01632 0.0
H178 H 0.91349 0.08204 0.15704 0.0
C179 C 0.87972 0.11716 0.11503 0.0
C180 C 0.35122 0.3424 0.33372 0.0
C181 C 0.37634 0.36698 0.3249 0.0
C182 C 0.39386 0.38253 0.35541 0.0
C183 C 0.36056 0.35042 0.4019 0.0
C184 C 0.34391 0.33439 0.37237 0.0
C185 C 0.31837 0.30861 0.38725 0.0
H186 H 0.23614 0.23679 0.53801 0.0
C187 C 0.34627 0.33752 0.43833 0.0
C188 C 0.32149 0.31292 0.43006 0.0
H189 H 0.22788 0.20852 0.42302 0.0
H190 H 0.26777 0.25288 0.40422 0.0
H191 H 0.31617 0.23923 0.55108 0.0
H192 H 0.2395 0.31844 0.51061 0.0
H193 H 0.2718 0.33333 0.54421 0.0
H194 H 0.24757 0.29629 0.56052 0.0
H195 H 0.29242 0.25505 0.58406 0.0
H196 H 0.33201 0.27439 0.5717 0.0
C197 C 0.33067 0.27297 0.38338 0.0
C198 C 0.2821 0.31886 0.3641 0.0
C199 C 0.38906 0.38576 0.56241 0.0
C200 C 0.38048 0.37956 0.60064 0.0
C201 C 0.35409 0.35624 0.60875 0.0
C202 C 0.337 0.33912 0.57964 0.0
C203 C 0.34633 0.34519 0.54182 0.0
C204 C 0.37181 0.36837 0.5337 0.0
C205 C 0.37817 0.37185 0.49187 0.0
C206 C 0.35272 0.3465 0.47637 0.0
C207 C 0.33415 0.33098 0.50572 0.0
C208 C 0.41605 0.3611 0.49257 0.0
C209 C 0.36892 0.40881 0.47108 0.0
C210 C 0.243 0.23962 0.50885 0.0
C211 C 0.22874 0.21853 0.48226 0.0
C212 C 0.23803 0.22433 0.44421 0.0
C213 C 0.26156 0.24993 0.43343 0.0
C214 C 0.27635 0.26988 0.46101 0.0
C215 C 0.26693 0.26438 0.49801 0.0
C216 C 0.28643 0.28631 0.52456 0.0
C217 C 0.30919 0.30603 0.49752 0.0
C218 C 0.30301 0.29673 0.46007 0.0
C219 C 0.30777 0.26279 0.55993 0.0
C220 C 0.26015 0.30978 0.53597 0.0
H221 H 0.40013 0.38758 0.4153 0.0
H222 H 0.33761 0.32967 0.31105 0.0
H223 H 0.27755 0.34659 0.36161 0.0
H224 H 0.26115 0.30622 0.37855 0.0
H225 H 0.2794 0.31307 0.33385 0.0
H226 H 0.35933 0.27123 0.38821 0.0
H227 H 0.32116 0.26721 0.35363 0.0
H228 H 0.32269 0.25259 0.40576 0.0
H229 H 0.40873 0.40391 0.55482 0.0
H230 H 0.34709 0.35067 0.63793 0.0
H231 H 0.31736 0.32157 0.58785 0.0
H232 H 0.42453 0.34036 0.51783 0.0
H233 H 0.43384 0.38271 0.49546 0.0
H234 H 0.41974 0.35053 0.46635 0.0
H235 H 0.34651 0.41857 0.48189 0.0
H236 H 0.36081 0.41113 0.43903 0.0
H237 H 0.39087 0.42608 0.47675 0.0
H238 H 0.41301 0.40174 0.34943 0.0
C239 C 0.3861 0.37446 0.39367 0.0
Tb240 Tb 0.03327 0.96901 0.51464 0.0
C241 C 0.95392 0.10816 0.49636 0.0
N242 N 0.98076 0.09457 0.52388 0.0
C243 C 0.00799 0.14895 0.51973 0.0
C244 C 0.95314 0.14282 0.47925 0.0
C245 C 0.0074 0.1145 0.53624 0.0
C246 C 0.98078 0.16318 0.49107 0.0
C247 C 0.89896 0.10003 0.45652 0.0
C248 C 0.92722 0.08706 0.48505 0.0
C249 C 0.89776 0.13467 0.43986 0.0
C250 C 0.92486 0.15598 0.45103 0.0
Tb251 Tb 0.97646 0.03816 0.54843 0.0
N252 N 0.92962 0.05352 0.50126 0.0
C253 C 0.87286 0.07772 0.44555 0.0
C254 C 0.90359 0.03194 0.49188 0.0
C255 C 0.87512 0.04357 0.46347 0.0
H256 H 0.02791 0.10414 0.55945 0.0
H257 H 0.85479 0.02624 0.45566 0.0
H258 H 0.99633 0.89539 0.54115 0.0
H259 H 0.16298 0.01319 0.55617 0.0
H260 H 0.90453 0.00584 0.50624 0.0
H261 H 0.85077 0.08665 0.42358 0.0
H262 H 0.10743 0.01222 0.51278 0.0
H263 H 0.02926 0.16459 0.52944 0.0
H264 H 0.8762 0.14516 0.41794 0.0
H265 H 0.92374 0.18258 0.4376 0.0
H266 H 0.00935 0.84396 0.592 0.0
H267 H 0.98123 0.18992 0.47853 0.0
H268 H 0.17712 0.96863 0.61518 0.0
N269 N 0.04336 0.91963 0.55894 0.0
C270 C 0.07395 0.91731 0.58366 0.0
C271 C 0.02772 0.86443 0.58998 0.0
C272 C 0.08232 0.88864 0.61329 0.0
C273 C 0.02038 0.89357 0.56129 0.0
C274 C 0.05873 0.86202 0.61623 0.0
N275 N 0.08733 0.97142 0.55039 0.0
C276 C 0.11194 0.99427 0.53996 0.0
C277 C 0.12855 0.94282 0.60444 0.0
C278 C 0.09635 0.9444 0.57972 0.0
C279 C 0.15208 0.96886 0.59694 0.0
C280 C 0.1441 0.99417 0.56384 0.0
H281 H 0.06417 0.83956 0.63866 0.0
H282 H 0.12042 0.86607 0.66246 0.0
H283 H 0.16115 0.9133 0.65437 0.0
O284 O 0.06049 0.97427 0.46647 0.0
O285 O 0.02152 0.9617 0.57467 0.0
O286 O 0.02074 0.01482 0.59045 0.0
O287 O 0.03968 0.9264 0.48889 0.0
O288 O 0.04647 0.0236 0.50287 0.0
O289 O 0.03219 0.04347 0.55611 0.0
O290 O 0.93855 0.02619 0.58464 0.0
O291 O 0.97894 0.04282 0.48478 0.0
O292 O 0.9874 0.9884 0.47416 0.0
O293 O 0.96855 0.07138 0.58689 0.0
O294 O 0.9576 0.98553 0.55558 0.0
O295 O 0.97797 0.95728 0.51033 0.0
C296 C 0.02722 0.98208 0.60033 0.0
C297 C 0.0408 0.93854 0.42085 0.0
C298 C 0.05084 0.93277 0.35528 0.0
C299 C 0.01565 0.92618 0.34501 0.0
C300 C 1.00563 0.9321 0.41004 0.0
C301 C 0.99314 0.92617 0.3722 0.0
C302 C 0.06324 0.93929 0.39318 0.0
C303 C 0.05029 0.04544 0.52737 0.0
C304 C 0.05463 0.94325 0.46116 0.0
C305 C 0.11364 0.88771 0.63919 0.0
C306 C 0.13673 0.91473 0.63476 0.0
C307 C 0.97672 0.01987 0.46174 0.0
C308 C 0.95154 0.04397 0.64599 0.0
C309 C 0.9428 0.05821 0.70897 0.0
C310 C 0.9632 0.02977 0.72843 0.0
C311 C 0.97083 0.01526 0.66606 0.0
C312 C 0.93739 0.06525 0.66748 0.0
C313 C 0.97692 0.00841 0.70704 0.0
C314 C 0.95636 0.9608 0.5349 0.0
C315 C 0.94592 0.05183 0.60272 0.0
H316 H 1.00559 0.92121 0.3159 0.0
H317 H 0.98793 0.93119 0.431 0.0
H318 H 0.96602 0.9212 0.36407 0.0
H319 H 0.09045 0.94401 0.40146 0.0
H320 H 0.96868 0.024 0.76023 0.0
H321 H 0.98089 0.99805 0.64999 0.0
H322 H 0.92163 0.08683 0.65174 0.0
H323 H 0.9922 0.98638 0.72227 0.0
Tb324 Tb 0.46351 0.48454 0.98752 0.0
C325 C 0.60427 0.52127 0.04033 0.0
N326 N 0.58699 0.49464 0.05786 0.0
C327 C 0.6337 0.4573 0.05592 0.0
C328 C 0.63572 0.51656 0.02725 0.0
C329 C 0.60257 0.46334 0.06829 0.0
C330 C 0.64984 0.48379 0.03418 0.0
C331 C 0.6097 0.5823 0.02288 0.0
C332 C 0.59171 0.55364 0.03836 0.0
C333 C 0.63988 0.57772 0.00746 0.0
C334 C 0.65286 0.54488 0.00959 0.0
Tb335 Tb 0.53551 0.5079 0.07536 0.0
N336 N 0.56201 0.55697 0.05267 0.0
C337 C 0.59704 0.61457 0.02404 0.0
C338 C 0.55046 0.58825 0.05582 0.0
C339 C 0.56758 0.61753 0.04114 0.0
H340 H 0.59159 0.44299 0.08695 0.0
H341 H 0.55799 0.64233 0.04286 0.0
H342 H 0.38962 0.51796 0.99416 0.0
H343 H 0.49194 0.35893 0.96209 0.0
H344 H 0.52763 0.59046 0.0689 0.0
H345 H 0.61014 0.63728 0.0125 0.0
H346 H 0.49953 0.42077 0.95686 0.0
H347 H 0.64561 0.43238 0.06402 0.0
H348 H 0.65384 0.59939 0.99479 0.0
H349 H 0.67678 0.54173 0.99879 0.0
H350 H 0.33206 0.498 0.00832 0.0
H351 H 0.67409 0.47905 0.0249 0.0
H352 H 0.44217 0.3313 0.98984 0.0
N353 N 0.41017 0.46818 1.00066 0.0
C354 C 0.40361 0.4345 1.00539 0.0
C355 C 0.35207 0.47983 0.00797 0.0
C356 C 0.37143 0.4218 0.01373 0.0
C357 C 0.38463 0.49109 1.0001 0.0
C358 C 0.34563 0.44497 0.01559 0.0
N359 N 0.45721 0.42755 0.98627 0.0
C360 C 0.47866 0.40883 0.97079 0.0
C361 C 0.422 0.37829 1.00047 0.0
C362 C 0.42841 0.41325 0.99866 0.0
C363 C 0.44602 0.35831 0.98877 0.0
C364 C 0.4741 0.37381 0.97305 0.0
H365 H 0.32045 0.43629 0.02172 0.0
H366 H 0.34132 0.37625 0.02523 0.0
H367 H 0.38578 0.33801 0.01378 0.0
O368 O 0.4419 0.47541 0.93121 0.0
O369 O 0.44897 0.4776 0.04696 0.0
O370 O 0.49993 0.46652 0.09093 0.0
O371 O 0.44796 0.52621 0.94282 0.0
O372 O 0.51508 0.46049 1.00139 0.0
O373 O 0.53091 0.45461 0.06817 0.0
O374 O 0.52893 0.52838 0.12544 0.0
O375 O 0.52411 0.53873 0.0158 0.0
O376 O 0.51553 0.4986 0.97722 0.0
O377 O 0.57269 0.4971 0.12623 0.0
O378 O 0.48634 0.53397 0.06975 0.0
O379 O 0.45539 0.53344 0.0066 0.0
C380 C 0.46602 0.46553 0.08227 0.0
C381 C 0.45498 0.51741 0.87901 0.0
C382 C 0.46299 0.50642 0.81425 0.0
C383 C 0.48237 0.53628 0.8089 0.0
C384 C 0.47435 0.54722 0.87275 0.0
C385 C 0.48792 0.55649 0.83794 0.0
C386 C 0.4491 0.49729 0.84935 0.0
C387 C 0.52784 0.44221 0.03543 0.0
C388 C 0.44036 0.50745 0.91587 0.0
C389 C 0.36568 0.38666 0.01821 0.0
C390 C 0.39102 0.36489 0.01173 0.0
C391 C 0.52776 0.52806 0.98333 0.0
C392 C 0.58072 0.53975 0.16519 0.0
C393 C 0.601 0.56376 0.22416 0.0
C394 C 0.62519 0.58293 0.20405 0.0
C395 C 0.60565 0.55846 0.14613 0.0
C396 C 0.57839 0.54253 0.2042 0.0
C397 C 0.62744 0.58024 0.16533 0.0
C398 C 0.46226 0.54585 0.03982 0.0
C399 C 0.55806 0.51614 0.14546 0.0
H400 H 0.49303 0.54419 0.78203 0.0
H401 H 0.47899 0.56351 0.89464 0.0
H402 H 0.50287 0.57944 0.83347 0.0
H403 H 0.43415 0.4743 0.85384 0.0
H404 H 0.64248 0.59999 0.21833 0.0
H405 H 0.60873 0.55594 0.11668 0.0
H406 H 0.55976 0.52742 0.21932 0.0
H407 H 0.64642 0.59478 0.15029 0.0
H408 H 0.17297 0.19141 0.43811 0.0
H409 H 0.23232 0.17961 0.55581 0.0
H410 H 0.19276 0.13546 0.57917 0.0
H411 H 0.0894 0.177 0.4657 0.0
H412 H 0.07406 0.15225 0.42823 0.0
H413 H 0.10648 0.18397 0.42004 0.0
H414 H 0.14693 0.13856 0.40603 0.0
H415 H 0.11451 0.10679 0.41403 0.0
H416 H 0.15727 0.1005 0.44199 0.0
H417 H 0.14511 0.09549 0.59158 0.0
H418 H 0.09558 0.05665 0.59033 0.0
H419 H 0.07013 0.08817 0.46398 0.0
C420 C 0.17798 0.17935 0.4687 0.0
C421 C 0.20553 0.19002 0.49518 0.0
C422 C 0.21083 0.17322 0.535 0.0
C423 C 0.18863 0.14771 0.54863 0.0
C424 C 0.16151 0.13843 0.52206 0.0
C425 C 0.15636 0.15319 0.48279 0.0
C426 C 0.12559 0.1375 0.46043 0.0
C427 C 0.09721 0.16429 0.44255 0.0
C428 C 0.13675 0.11978 0.42874 0.0
C429 C 0.11424 0.11192 0.49341 0.0
C430 C 0.13514 0.11334 0.52879 0.0
C431 C 0.12885 0.09377 0.56399 0.0
C432 C 0.1006 0.07195 0.56304 0.0
C433 C 0.07944 0.06925 0.52705 0.0
C434 C 0.08639 0.08941 0.49174 0.0
H435 H 0.31394 0.68916 0.98407 0.0
H436 H 0.35942 0.72719 0.08951 0.0
H437 H 0.40223 0.68068 0.10486 0.0
H438 H 0.32702 0.59997 0.02243 0.0
H439 H 0.33823 0.58992 0.97769 0.0
H440 H 0.30964 0.62517 0.97563 0.0
H441 H 0.34985 0.66548 0.93728 0.0
H442 H 0.37848 0.63035 0.93908 0.0
H443 H 0.39477 0.66771 0.95777 0.0
H444 H 0.44016 0.63071 0.10897 0.0
H445 H 0.47261 0.58141 0.10063 0.0
H446 H 0.40578 0.57769 0.98976 0.0
C447 C 0.33299 0.68796 0.01028 0.0
C448 C 0.33288 0.71188 0.03575 0.0
C449 C 0.3582 0.70888 0.06996 0.0
C450 C 0.38289 0.68266 0.07881 0.0
C451 C 0.38225 0.65975 0.05303 0.0
C452 C 0.35816 0.66219 0.01933 0.0
C453 C 0.364 0.63481 0.99595 0.0
C454 C 0.33287 0.61106 0.99275 0.0
C455 C 0.37227 0.65054 0.9551 0.0
C456 C 0.39521 0.61665 0.02183 0.0
C457 C 0.40504 0.63137 0.05472 0.0
C458 C 0.43279 0.61901 0.08328 0.0
C459 C 0.45108 0.59087 0.07815 0.0
C460 C 0.44188 0.5754 0.04445 0.0
C461 C 0.41351 0.58869 0.0159 0.0
H462 H 0.83882 0.82064 0.6433 0.0
H463 H 0.77248 0.82802 0.53021 0.0
H464 H 0.81021 0.87128 0.50079 0.0
H465 H 0.85661 0.91306 0.6316 0.0
H466 H 0.90046 0.90669 0.65645 0.0
H467 H 0.86788 0.8764 0.66942 0.0
H468 H 0.90516 0.82828 0.65584 0.0
H469 H 0.93758 0.85851 0.64227 0.0
H470 H 0.91871 0.83168 0.6084 0.0
H471 H 0.85808 0.90851 0.48124 0.0
H472 H 0.90843 0.94618 0.47565 0.0
H473 H 0.9408 0.92103 0.60173 0.0
C474 C 0.8319 0.83182 0.61257 0.0
C475 C 0.80312 0.82003 0.58891 0.0
C476 C 0.79499 0.83559 0.54877 0.0
C477 C 0.81616 0.8604 0.53171 0.0
C478 C 0.84506 0.87033 0.55526 0.0
C479 C 0.85254 0.85735 0.59503 0.0
C480 C 0.88503 0.87333 0.61351 0.0
C481 C 0.877 0.89358 0.64459 0.0
C482 C 0.91328 0.84633 0.63104 0.0
C483 C 0.89471 0.89669 0.57775 0.0
C484 C 0.87152 0.89409 0.54437 0.0
C485 C 0.87609 0.91133 0.50726 0.0
C486 C 0.90478 0.9324 0.50427 0.0
C487 C 0.92796 0.93658 0.53826 0.0
C488 C 0.92296 0.91849 0.57544 0.0
H489 H 0.6703 0.31808 0.99912 0.0
H490 H 0.64296 0.24771 0.09874 0.0
H491 H 0.59313 0.28386 0.09952 0.0
H492 H 0.65488 0.38949 0.02899 0.0
H493 H 0.6342 0.41519 0.98385 0.0
H494 H 0.66374 0.38172 0.98245 0.0
H495 H 0.61946 0.35133 0.93928 0.0
H496 H 0.58943 0.38565 0.93632 0.0
H497 H 0.57726 0.34245 0.95249 0.0
H498 H 0.55267 0.33095 0.09691 0.0
H499 H 0.52139 0.38551 0.08825 0.0
H500 H 0.57174 0.42493 0.98821 0.0
C501 C 0.65313 0.30972 0.0202 0.0
C502 C 0.66078 0.28024 0.04915 0.0
C503 C 0.63804 0.27051 0.07675 0.0
C504 C 0.60942 0.29069 0.07719 0.0
C505 C 0.60334 0.32022 0.0493 0.0
C506 C 0.62406 0.32947 0.02075 0.0
C507 C 0.61321 0.36393 0.99623 0.0
C508 C 0.64324 0.38911 0.998 0.0
C509 C 0.59899 0.36063 0.95354 0.0
C510 C 0.58468 0.3734 0.01714 0.0
C511 C 0.57907 0.34748 0.04722 0.0
C512 C 0.55614 0.35111 0.07286 0.0
C513 C 0.53863 0.38212 0.06787 0.0
C514 C 0.54391 0.40891 0.0373 0.0
C515 C 0.56673 0.40435 0.01117 0.0
H516 H 0.14133 0.85224 0.20339 0.0
H517 H 0.1892 0.9496 0.17299 0.0
H518 H 0.16284 0.97171 0.22365 0.0
H519 H 0.06138 0.88613 0.21561 0.0
H520 H 0.05441 0.85305 0.2557 0.0
H521 H 0.07933 0.84426 0.21953 0.0
H522 H 0.13055 0.82349 0.27464 0.0
H523 H 0.10574 0.83214 0.31102 0.0
H524 H 0.14749 0.85108 0.3085 0.0
H525 H 0.1311 0.98281 0.27795 0.0
H526 H 0.09272 0.98353 0.32776 0.0
H527 H 0.06245 0.88021 0.31873 0.0
C528 C 0.14659 0.87804 0.20792 0.0
C529 C 0.16758 0.8992 0.18493 0.0
C530 C 0.17332 0.93308 0.1907 0.0
C531 C 0.15855 0.94575 0.21938 0.0
C532 C 0.13776 0.92428 0.24151 0.0
C533 C 0.13151 0.89124 0.23582 0.0
C534 C 0.10648 0.87407 0.26162 0.0
C535 C 0.07344 0.86379 0.23661 0.0
C536 C 0.1236 0.84338 0.29067 0.0
C537 C 0.09949 0.9026 0.28265 0.0
C538 C 0.11815 0.93121 0.27112 0.0
C539 C 0.11628 0.9606 0.28707 0.0
C540 C 0.09455 0.96081 0.3153 0.0
C541 C 0.07464 0.93204 0.32666 0.0
C542 C 0.07725 0.90262 0.31017 0.0
H543 H 0.63298 0.5691 0.80343 0.0
H544 H 0.61406 0.676 0.80103 0.0
H545 H 0.58601 0.66113 0.86028 0.0
H546 H 0.55623 0.53954 0.82639 0.0
H547 H 0.57052 0.50143 0.8607 0.0
H548 H 0.59529 0.51842 0.82271 0.0
H549 H 0.65008 0.5236 0.8718 0.0
H550 H 0.62761 0.504 0.91097 0.0
H551 H 0.64815 0.54438 0.91317 0.0
H552 H 0.55573 0.63413 0.91664 0.0
H553 H 0.5274 0.59732 0.96668 0.0
H554 H 0.565 0.50807 0.93123 0.0
C555 C 0.62338 0.58944 0.81571 0.0
C556 C 0.6257 0.62377 0.79755 0.0
C557 C 0.61296 0.6496 0.81466 0.0
C558 C 0.59684 0.64136 0.84821 0.0
C559 C 0.59404 0.60719 0.86461 0.0
C560 C 0.60747 0.58166 0.84928 0.0
C561 C 0.5999 0.54689 0.87139 0.0
C562 C 0.57923 0.52528 0.84369 0.0
C563 C 0.63343 0.52865 0.89311 0.0
C564 C 0.57858 0.55677 0.90024 0.0
C565 C 0.57612 0.59167 0.89645 0.0
C566 C 0.55777 0.60679 0.92004 0.0
C567 C 0.54183 0.58572 0.94841 0.0
C568 C 0.54417 0.54995 0.95285 0.0
C569 C 0.56265 0.53538 0.92827 0.0
H570 H 0.91196 0.13584 0.25166 0.0
H571 H 0.8803 0.04241 0.2102 0.0
H572 H 0.89892 0.00985 0.27696 0.0
H573 H 0.98885 0.09929 0.31615 0.0
H574 H 0.98559 0.12442 0.35345 0.0
H575 H 0.96876 0.14078 0.30275 0.0
H576 H 0.90795 0.14945 0.32109 0.0
H577 H 0.92645 0.13474 0.37154 0.0
H578 H 0.88867 0.11443 0.34986 0.0
H579 H 0.91939 0.98771 0.34729 0.0
H580 H 0.94517 0.97589 0.417 0.0
H581 H 0.96703 0.08302 0.41387 0.0
C582 C 0.90894 0.10854 0.25688 0.0
C583 C 0.89468 0.09148 0.22605 0.0
C584 C 0.89138 0.05577 0.23353 0.0
C585 C 0.90168 0.03716 0.27131 0.0
C586 C 0.91556 0.05465 0.30114 0.0
C587 C 0.91967 0.08945 0.2944 0.0
C588 C 0.93696 0.10157 0.33143 0.0
C589 C 0.97213 0.11745 0.32558 0.0
C590 C 0.91354 0.1265 0.34422 0.0
C591 C 0.94123 0.06821 0.36019 0.0
C592 C 0.92859 0.04159 0.3419 0.0
C593 C 0.92966 0.00828 0.36187 0.0
C594 C 0.94463 1.00181 0.40145 0.0
C595 C 0.95877 0.0284 0.42072 0.0
C596 C 0.95648 0.06218 0.39992 0.0
H597 H 0.35422 0.40553 0.65824 0.0
H598 H 0.44971 0.39258 0.61429 0.0
H599 H 0.48118 0.42199 0.66523 0.0
H600 H 0.37135 0.48808 0.68096 0.0
H601 H 0.35212 0.48055 0.72517 0.0
H602 H 0.33709 0.45779 0.68578 0.0
H603 H 0.34912 0.40068 0.73393 0.0
H604 H 0.36423 0.42327 0.7735 0.0
H605 H 0.39158 0.3919 0.76205 0.0
H606 H 0.50219 0.45406 0.7197 0.0
H607 H 0.51123 0.4868 0.77403 0.0
H608 H 0.40252 0.47807 0.78383 0.0
C609 C 0.38181 0.40849 0.65959 0.0
C610 C 0.3994 0.39682 0.632 0.0
C611 C 0.43549 0.40174 0.63456 0.0
C612 C 0.45368 0.41819 0.66363 0.0
C613 C 0.43553 0.42948 0.69017 0.0
C614 C 0.40043 0.4248 0.68852 0.0
C615 C 0.38705 0.43996 0.72019 0.0
C616 C 0.36033 0.46828 0.70192 0.0
C617 C 0.37212 0.4123 0.74913 0.0
C618 C 0.42007 0.45416 0.73965 0.0
C619 C 0.44773 0.44775 0.72189 0.0
C620 C 0.48075 0.45914 0.73391 0.0
C621 C 0.4856 0.47785 0.76466 0.0
C622 C 0.4576 0.48501 0.78313 0.0
C623 C 0.42449 0.47264 0.77062 0.0
H624 H 0.68527 0.59358 0.43617 0.0
H625 H 0.58244 0.6088 0.46082 0.0
H626 H 0.55752 0.58948 0.39886 0.0
H627 H 0.66872 0.62775 0.33819 0.0
H628 H 0.69599 0.59888 0.32226 0.0
H629 H 0.70541 0.60775 0.37143 0.0
H630 H 0.70349 0.54351 0.39996 0.0
H631 H 0.69443 0.53433 0.35075 0.0
H632 H 0.66588 0.51943 0.38558 0.0
H633 H 0.54439 0.57599 0.32943 0.0
H634 H 0.54443 0.56862 0.26054 0.0
H635 H 0.6562 0.56325 0.28242 0.0
C636 C 0.65749 0.59217 0.42896 0.0
C637 C 0.63575 0.60267 0.45322 0.0
C638 C 0.59954 0.60044 0.44286 0.0
C639 C 0.5852 0.58964 0.40766 0.0
C640 C 0.60748 0.58084 0.38352 0.0
C641 C 0.64289 0.58163 0.39408 0.0
C642 C 0.66141 0.57398 0.36182 0.0
C643 C 0.6842 0.60387 0.3476 0.0
C644 C 0.68254 0.54084 0.37534 0.0
C645 C 0.63097 0.56993 0.33077 0.0
C646 C 0.60001 0.57347 0.34384 0.0
C647 C 0.5685 0.57264 0.31917 0.0
C648 C 0.56875 0.56841 0.28013 0.0
C649 C 0.60032 0.56549 0.26611 0.0
C650 C 0.63166 0.56569 0.29215 0.0
H651 H 0.85655 0.09769 0.8886 0.0
H652 H 0.85398 0.20421 0.83515 0.0
H653 H 0.87908 0.18971 0.77947 0.0
H654 H 0.93687 0.07691 0.8631 0.0
H655 H 0.92364 0.03546 0.8534 0.0
H656 H 0.90448 0.05417 0.88825 0.0
H657 H 0.84362 0.04708 0.84948 0.0
H658 H 0.86259 0.02819 0.81461 0.0
H659 H 0.83449 0.06474 0.79779 0.0
H660 H 0.90725 0.16355 0.73128 0.0
H661 H 0.9339 0.12775 0.6931 0.0
H662 H 0.91571 0.03821 0.77724 0.0
C663 C 0.86129 0.11797 0.86518 0.0
C664 C 0.85338 0.1521 0.86619 0.0
C665 C 0.85955 0.17787 0.83476 0.0
C666 C 0.87395 0.16989 0.80314 0.0
C667 C 0.88175 0.136 0.80327 0.0
C668 C 0.87537 0.11044 0.83334 0.0
C669 C 0.88612 0.07607 0.82656 0.0
C670 C 0.91446 0.0597 0.8598 0.0
C671 C 0.85483 0.05265 0.82182 0.0
C672 C 0.89996 0.0863 0.78823 0.0
C673 C 0.89727 0.12095 0.77526 0.0
C674 C 0.90914 0.13633 0.74096 0.0
C675 C 0.92408 0.11572 0.71933 0.0
C676 C 0.92691 0.08005 0.73195 0.0
C677 C 0.91446 0.06537 0.76688 0.0
H678 H 0.4393 0.37772 0.29972 0.0
H679 H 0.32916 0.38182 0.25765 0.0
H680 H 0.34022 0.40542 0.19058 0.0
H681 H 0.4602 0.45498 0.24276 0.0
H682 H 0.50041 0.44002 0.23287 0.0
H683 H 0.48413 0.42133 0.27702 0.0
H684 H 0.48678 0.36171 0.25824 0.0
H685 H 0.5033 0.38021 0.21411 0.0
H686 H 0.46503 0.35469 0.21097 0.0
H687 H 0.36299 0.43405 0.12985 0.0
H688 H 0.39584 0.46092 0.07868 0.0
H689 H 0.49154 0.43538 0.15856 0.0
C690 C 0.41752 0.3833 0.27629 0.0
C691 C 0.38331 0.37788 0.28393 0.0
C692 C 0.35556 0.38534 0.25243 0.0
C693 C 0.3616 0.39895 0.21429 0.0
C694 C 0.39557 0.40458 0.20796 0.0
C695 C 0.42312 0.39656 0.23795 0.0
C696 C 0.4571 0.40561 0.22337 0.0
C697 C 0.4766 0.43206 0.24532 0.0
C698 C 0.47936 0.37365 0.22688 0.0
C699 C 0.44431 0.42063 0.18069 0.0
C700 C 0.40875 0.41984 0.17248 0.0
C701 C 0.39089 0.43401 0.13573 0.0
C702 C 0.40984 0.44907 0.10656 0.0
C703 C 0.44635 0.44946 0.11372 0.0
C704 C 0.46368 0.43506 0.15158 0.0
H705 H 0.13482 0.96981 0.81675 0.0
H706 H 0.10679 0.86353 0.83599 0.0
H707 H 0.07082 0.87171 0.77041 0.0
H708 H 0.0523 0.00312 0.76104 0.0
H709 H 0.0712 0.03412 0.72683 0.0
H710 H 0.09353 0.02114 0.77628 0.0
H711 H 0.14739 0.00394 0.74959 0.0
H712 H 0.12558 0.01742 0.70006 0.0
H713 H 0.14275 0.97482 0.71521 0.0
H714 H 0.03866 0.89061 0.70371 0.0
H715 H 0.0149 0.91843 0.63651 0.0
H716 H 0.06596 0.012 0.65752 0.0
C717 C 0.12078 0.94848 0.80711 0.0
C718 C 0.12334 0.91606 0.83118 0.0
C719 C 0.10513 0.88849 0.8177 0.0
C720 C 0.08455 0.89293 0.7807 0.0
C721 C 0.08266 0.92507 0.75748 0.0
C722 C 0.10043 0.95236 0.76984 0.0
C723 C 0.09531 0.98367 0.73789 0.0
C724 C 0.077 0.0122 0.75132 0.0
C725 C 0.12982 0.99565 0.72493 0.0
C726 C 0.07216 0.96953 0.70571 0.0
C727 C 0.06492 0.93578 0.71796 0.0
C728 C 0.0443 0.91696 0.69365 0.0
C729 C 0.03119 0.93289 0.65545 0.0
C730 C 0.03933 0.96702 0.64167 0.0
C731 C 0.05952 0.98579 0.66736 0.0
loop_
_geom_bond_atom_site_label_1
_geom_bond_atom_site_label_2
_geom_bond_distance
_geom_bond_site_symmetry_2
_ccdc_geom_bond_type
C0 C1 1.391 . S
C0 C4 1.391 . S
C0 H42 0.948 . S
C1 C0 1.391 . S
C1 C2 1.391 . S
C2 C1 1.391 . S
C2 H58 0.947 . S
C2 C59 1.392 . S
C3 C4 1.391 . S
C3 C7 1.397 . S
C3 C59 1.419 . S
C4 C0 1.391 . S
C4 C3 1.391 . S
C4 C5 1.399 . S
C5 C4 1.399 . S
C5 C8 1.396 . S
C5 C17 1.453 . S
C5 C18 1.684 . S
H6 C30 0.948 . S
C7 C3 1.397 . S
C7 C8 1.394 . S
C7 C26 1.723 1_556 S
C8 C5 1.396 . S
C8 C7 1.394 . S
C8 C38 1.723 1_556 S
H9 C32 0.947 . S
H10 C33 0.948 . S
H11 C39 0.982 . S
H12 C40 0.979 . S
H13 C40 0.980 . S
H14 C40 0.983 . S
H15 C39 0.979 . S
H16 C39 0.977 . S
C17 C5 1.453 . S
C17 H46 0.982 . S
C17 H47 0.979 . S
C17 H48 0.977 . S
C18 C5 1.684 . S
C18 H43 0.979 . S
C18 H44 0.980 . S
C18 H45 0.983 . S
C19 C20 1.391 . S
C19 C24 1.391 . S
C19 H49 0.948 . S
C20 C19 1.391 . S
C20 C21 1.391 . S
C21 C20 1.391 . S
C21 C22 1.392 . S
C21 H50 0.947 . S
C22 C21 1.392 . S
C22 C23 1.419 . S
C22 H51 0.948 . S
C23 C22 1.419 . S
C23 C24 1.391 . S
C23 C27 1.397 . S
C24 C19 1.391 . S
C24 C23 1.391 . S
C24 C25 1.399 . S
C25 C24 1.399 . S
C25 C26 1.396 . S
C25 C28 1.453 . S
C25 C29 1.684 . S
C26 C7 1.723 1_554 S
C26 C25 1.396 . S
C26 C27 1.394 . S
C27 C23 1.397 . S
C27 C26 1.394 . S
C27 C37 1.723 . S
C28 C25 1.453 . S
C28 H52 0.982 . S
C28 H53 0.979 . S
C28 H54 0.977 1_554 S
C29 C25 1.684 . S
C29 H55 0.979 . S
C29 H56 0.980 1_554 S
C29 H57 0.983 . S
C30 H6 0.948 . S
C30 C31 1.391 . S
C30 C35 1.391 . S
C31 C30 1.391 . S
C31 C32 1.391 1_554 S
C32 H9 0.947 . S
C32 C31 1.391 1_556 S
C32 C33 1.392 . S
C33 H10 0.948 . S
C33 C32 1.392 . S
C33 C34 1.419 1_556 S
C34 C33 1.419 1_554 S
C34 C35 1.391 . S
C34 C38 1.397 . S
C35 C30 1.391 . S
C35 C34 1.391 . S
C35 C36 1.399 . S
C36 C35 1.399 . S
C36 C37 1.396 . S
C36 C39 1.453 . S
C36 C40 1.684 . S
C37 C27 1.723 . S
C37 C36 1.396 . S
C37 C38 1.394 . S
C38 C8 1.723 1_554 S
C38 C34 1.397 . S
C38 C37 1.394 . S
C39 H11 0.982 . S
C39 H15 0.979 . S
C39 H16 0.977 . S
C39 C36 1.453 . S
C40 H12 0.979 . S
C40 H13 0.980 . S
C40 H14 0.983 . S
C40 C36 1.684 . S
H41 C59 0.948 . S
H42 C0 0.948 . S
H43 C18 0.979 . S
H44 C18 0.980 . S
H45 C18 0.983 . S
H46 C17 0.982 . S
H47 C17 0.979 . S
H48 C17 0.977 . S
H49 C19 0.948 . S
H50 C21 0.947 . S
H51 C22 0.948 . S
H52 C28 0.982 . S
H53 C28 0.979 . S
H54 C28 0.977 1_556 S
H55 C29 0.979 . S
H56 C29 0.980 1_556 S
H57 C29 0.983 . S
H58 C2 0.947 . S
C59 C2 1.392 . S
C59 C3 1.419 . S
C59 H41 0.948 . S
C60 C61 1.391 . S
C60 C64 1.391 . S
C60 H102 0.948 . S
C61 C60 1.391 . S
C61 C62 1.391 . S
C62 C61 1.391 . S
C62 H118 0.947 . S
C62 C119 1.392 . S
C63 C64 1.391 . S
C63 C67 1.397 . S
C63 C119 1.419 . S
C64 C60 1.391 . S
C64 C63 1.391 . S
C64 C65 1.399 . S
C65 C64 1.399 . S
C65 C68 1.396 . S
C65 C77 1.453 . S
C65 C78 1.684 . S
H66 C90 0.948 . S
C67 C63 1.397 . S
C67 C68 1.394 . S
C67 C86 1.723 . S
C68 C65 1.396 . S
C68 C67 1.394 . S
C68 C98 1.723 . S
H69 C92 0.947 . S
H70 C93 0.948 . S
H71 C99 0.982 . S
H72 C100 0.979 . S
H73 C100 0.980 . S
H74 C100 0.983 . S
H75 C99 0.979 . S
H76 C99 0.977 . S
C77 C65 1.453 . S
C77 H106 0.982 . S
C77 H107 0.979 . S
C77 H108 0.977 . S
C78 C65 1.684 . S
C78 H103 0.979 . S
C78 H104 0.980 . S
C78 H105 0.983 . S
C79 C80 1.391 . S
C79 C84 1.391 . S
C79 H109 0.948 . S
C80 C79 1.391 . S
C80 C81 1.391 . S
C81 C80 1.391 . S
C81 C82 1.392 . S
C81 H110 0.947 . S
C82 C81 1.392 . S
C82 C83 1.419 . S
C82 H111 0.948 . S
C83 C82 1.419 . S
C83 C84 1.391 . S
C83 C87 1.397 . S
C84 C79 1.391 . S
C84 C83 1.391 . S
C84 C85 1.399 . S
C85 C84 1.399 . S
C85 C86 1.396 . S
C85 C88 1.453 . S
C85 C89 1.684 . S
C86 C67 1.723 . S
C86 C85 1.396 . S
C86 C87 1.394 . S
C87 C83 1.397 . S
C87 C86 1.394 . S
C87 C97 1.723 . S
C88 C85 1.453 . S
C88 H112 0.982 . S
C88 H113 0.979 . S
C88 H114 0.977 . S
C89 C85 1.684 . S
C89 H115 0.979 . S
C89 H116 0.980 . S
C89 H117 0.983 . S
C90 H66 0.948 . S
C90 C91 1.391 . S
C90 C95 1.391 . S
C91 C90 1.391 . S
C91 C92 1.391 . S
C92 H69 0.947 . S
C92 C91 1.391 . S
C92 C93 1.392 . S
C93 H70 0.948 . S
C93 C92 1.392 . S
C93 C94 1.419 . S
C94 C93 1.419 . S
C94 C95 1.391 . S
C94 C98 1.397 . S
C95 C90 1.391 . S
C95 C94 1.391 . S
C95 C96 1.399 . S
C96 C95 1.399 . S
C96 C97 1.396 . S
C96 C99 1.453 . S
C96 C100 1.684 . S
C97 C87 1.723 . S
C97 C96 1.396 . S
C97 C98 1.394 . S
C98 C68 1.723 . S
C98 C94 1.397 . S
C98 C97 1.394 . S
C99 H71 0.982 . S
C99 H75 0.979 . S
C99 H76 0.977 . S
C99 C96 1.453 . S
C100 H72 0.979 . S
C100 H73 0.980 . S
C100 H74 0.983 . S
C100 C96 1.684 . S
H101 C119 0.948 . S
H102 C60 0.948 . S
H103 C78 0.979 . S
H104 C78 0.980 . S
H105 C78 0.983 . S
H106 C77 0.982 . S
H107 C77 0.979 . S
H108 C77 0.977 . S
H109 C79 0.948 . S
H110 C81 0.947 . S
H111 C82 0.948 . S
H112 C88 0.982 . S
H113 C88 0.979 . S
H114 C88 0.977 . S
H115 C89 0.979 . S
H116 C89 0.980 . S
H117 C89 0.983 . S
H118 C62 0.947 . S
C119 C62 1.392 . S
C119 C63 1.419 . S
C119 H101 0.948 . S
C120 C121 1.391 . S
C120 C124 1.391 . S
C120 H162 0.948 . S
C121 C120 1.391 . S
C121 C122 1.391 . S
C122 C121 1.391 . S
C122 H178 0.947 . S
C122 C179 1.392 . S
C123 C124 1.391 . S
C123 C127 1.397 . S
C123 C179 1.419 . S
C124 C120 1.391 . S
C124 C123 1.391 . S
C124 C125 1.399 . S
C125 C124 1.399 . S
C125 C128 1.396 . S
C125 C137 1.453 . S
C125 C138 1.684 . S
H126 C150 0.948 . S
C127 C123 1.397 . S
C127 C128 1.394 . S
C127 C146 1.723 . S
C128 C125 1.396 . S
C128 C127 1.394 . S
C128 C158 1.723 . S
H129 C152 0.947 . S
H130 C153 0.948 . S
H131 C159 0.982 . S
H132 C160 0.979 . S
H133 C160 0.980 . S
H134 C160 0.983 . S
H135 C159 0.979 . S
H136 C159 0.977 . S
C137 C125 1.453 . S
C137 H166 0.982 . S
C137 H167 0.979 . S
C137 H168 0.977 . S
C138 C125 1.684 . S
C138 H163 0.979 . S
C138 H164 0.980 . S
C138 H165 0.983 . S
C139 C140 1.391 . S
C139 C144 1.391 . S
C139 H169 0.948 . S
C140 C139 1.391 . S
C140 C141 1.391 . S
C141 C140 1.391 . S
C141 C142 1.392 . S
C141 H170 0.947 . S
C142 C141 1.392 . S
C142 C143 1.419 . S
C142 H171 0.948 . S
C143 C142 1.419 . S
C143 C144 1.391 . S
C143 C147 1.397 1_556 S
C144 C139 1.391 . S
C144 C143 1.391 . S
C144 C145 1.399 1_556 S
C145 C144 1.399 1_554 S
C145 C146 1.396 . S
C145 C148 1.453 . S
C145 C149 1.684 . S
C146 C127 1.723 . S
C146 C145 1.396 . S
C146 C147 1.394 . S
C147 C143 1.397 1_554 S
C147 C146 1.394 . S
C147 C157 1.723 . S
C148 C145 1.453 . S
C148 H172 0.982 . S
C148 H173 0.979 . S
C148 H174 0.977 . S
C149 C145 1.684 . S
C149 H175 0.979 . S
C149 H176 0.980 . S
C149 H177 0.983 . S
C150 H126 0.948 . S
C150 C151 1.391 1_556 S
C150 C155 1.391 1_556 S
C151 C150 1.391 1_554 S
C151 C152 1.391 . S
C152 H129 0.947 . S
C152 C151 1.391 . S
C152 C153 1.392 . S
C153 H130 0.948 . S
C153 C152 1.392 . S
C153 C154 1.419 . S
C154 C153 1.419 . S
C154 C155 1.391 . S
C154 C158 1.397 . S
C155 C150 1.391 1_554 S
C155 C154 1.391 . S
C155 C156 1.399 1_554 S
C156 C155 1.399 1_556 S
C156 C157 1.396 1_556 S
C156 C159 1.453 . S
C156 C160 1.684 . S
C157 C147 1.723 . S
C157 C156 1.396 1_554 S
C157 C158 1.394 . S
C158 C128 1.723 . S
C158 C154 1.397 . S
C158 C157 1.394 . S
C159 H131 0.982 . S
C159 H135 0.979 . S
C159 H136 0.977 . S
C159 C156 1.453 . S
C160 H132 0.979 . S
C160 H133 0.980 . S
C160 H134 0.983 . S
C160 C156 1.684 . S
H161 C179 0.948 . S
H162 C120 0.948 . S
H163 C138 0.979 . S
H164 C138 0.980 . S
H165 C138 0.983 . S
H166 C137 0.982 . S
H167 C137 0.979 . S
H168 C137 0.977 . S
H169 C139 0.948 . S
H170 C141 0.947 . S
H171 C142 0.948 . S
H172 C148 0.982 . S
H173 C148 0.979 . S
H174 C148 0.977 . S
H175 C149 0.979 . S
H176 C149 0.980 . S
H177 C149 0.983 . S
H178 C122 0.947 . S
C179 C122 1.392 . S
C179 C123 1.419 . S
C179 H161 0.948 . S
C180 C181 1.391 . S
C180 C184 1.391 . S
C180 H222 0.948 . S
C181 C180 1.391 . S
C181 C182 1.391 . S
C182 C181 1.391 . S
C182 H238 0.947 . S
C182 C239 1.392 . S
C183 C184 1.391 . S
C183 C187 1.397 . S
C183 C239 1.419 . S
C184 C180 1.391 . S
C184 C183 1.391 . S
C184 C185 1.399 . S
C185 C184 1.399 . S
C185 C188 1.396 . S
C185 C197 1.453 . S
C185 C198 1.684 . S
H186 C210 0.948 . S
C187 C183 1.397 . S
C187 C188 1.394 . S
C187 C206 1.723 . S
C188 C185 1.396 . S
C188 C187 1.394 . S
C188 C218 1.723 . S
H189 C212 0.947 . S
H190 C213 0.948 . S
H191 C219 0.982 . S
H192 C220 0.979 . S
H193 C220 0.980 . S
H194 C220 0.983 . S
H195 C219 0.979 . S
H196 C219 0.977 . S
C197 C185 1.453 . S
C197 H226 0.982 . S
C197 H227 0.979 . S
C197 H228 0.977 . S
C198 C185 1.684 . S
C198 H223 0.979 . S
C198 H224 0.980 . S
C198 H225 0.983 . S
C199 C200 1.391 . S
C199 C204 1.391 . S
C199 H229 0.948 . S
C200 C199 1.391 . S
C200 C201 1.391 . S
C201 C200 1.391 . S
C201 C202 1.392 . S
C201 H230 0.947 . S
C202 C201 1.392 . S
C202 C203 1.419 . S
C202 H231 0.948 . S
C203 C202 1.419 . S
C203 C204 1.391 . S
C203 C207 1.397 . S
C204 C199 1.391 . S
C204 C203 1.391 . S
C204 C205 1.399 . S
C205 C204 1.399 . S
C205 C206 1.396 . S
C205 C208 1.453 . S
C205 C209 1.684 . S
C206 C187 1.723 . S
C206 C205 1.396 . S
C206 C207 1.394 . S
C207 C203 1.397 . S
C207 C206 1.394 . S
C207 C217 1.723 . S
C208 C205 1.453 . S
C208 H232 0.982 . S
C208 H233 0.979 . S
C208 H234 0.977 . S
C209 C205 1.684 . S
C209 H235 0.979 . S
C209 H236 0.980 . S
C209 H237 0.983 . S
C210 H186 0.948 . S
C210 C211 1.391 . S
C210 C215 1.391 . S
C211 C210 1.391 . S
C211 C212 1.391 . S
C212 H189 0.947 . S
C212 C211 1.391 . S
C212 C213 1.392 . S
C213 H190 0.948 . S
C213 C212 1.392 . S
C213 C214 1.419 . S
C214 C213 1.419 . S
C214 C215 1.391 . S
C214 C218 1.397 . S
C215 C210 1.391 . S
C215 C214 1.391 . S
C215 C216 1.399 . S
C216 C215 1.399 . S
C216 C217 1.396 . S
C216 C219 1.453 . S
C216 C220 1.684 . S
C217 C207 1.723 . S
C217 C216 1.396 . S
C217 C218 1.394 . S
C218 C188 1.723 . S
C218 C214 1.397 . S
C218 C217 1.394 . S
C219 H191 0.982 . S
C219 H195 0.979 . S
C219 H196 0.977 . S
C219 C216 1.453 . S
C220 H192 0.979 . S
C220 H193 0.980 . S
C220 H194 0.983 . S
C220 C216 1.684 . S
H221 C239 0.948 . S
H222 C180 0.948 . S
H223 C198 0.979 . S
H224 C198 0.980 . S
H225 C198 0.983 . S
H226 C197 0.982 . S
H227 C197 0.979 . S
H228 C197 0.977 . S
H229 C199 0.948 . S
H230 C201 0.947 . S
H231 C202 0.948 . S
H232 C208 0.982 . S
H233 C208 0.979 . S
H234 C208 0.977 . S
H235 C209 0.979 . S
H236 C209 0.980 . S
H237 C209 0.983 . S
H238 C182 0.947 . S
C239 C182 1.392 . S
C239 C183 1.419 . S
C239 H221 0.948 . S
Tb240 N269 2.617 . S
Tb240 N275 2.572 . S
Tb240 O284 2.465 . S
Tb240 O285 2.387 . S
Tb240 O287 2.428 . S
Tb240 O288 2.308 1_565 S
Tb240 O292 2.349 1_455 S
Tb240 O295 2.393 1_455 S
Tb240 C304 2.802 . S
C241 N242 1.379 . S
C241 C244 1.416 . S
C241 C248 1.424 . S
N242 C241 1.379 . S
N242 C245 1.312 1_655 S
N242 Tb251 2.617 . S
C243 C245 1.390 1_655 S
C243 C246 1.339 . S
C243 H263 0.930 1_655 S
C244 C241 1.416 . S
C244 C246 1.416 . S
C244 C250 1.448 . S
C245 N242 1.312 1_455 S
C245 C243 1.390 1_455 S
C245 H256 0.954 . S
C246 C243 1.339 . S
C246 C244 1.416 . S
C246 H267 0.930 . S
C247 C248 1.413 . S
C247 C249 1.427 . S
C247 C253 1.416 . S
C248 C241 1.424 . S
C248 C247 1.413 . S
C248 N252 1.361 . S
C249 C247 1.427 . S
C249 C250 1.328 . S
C249 H264 0.929 . S
C250 C244 1.448 . S
C250 C249 1.328 . S
C250 H265 0.930 . S
Tb251 N242 2.617 . S
Tb251 N252 2.572 . S
Tb251 O286 2.349 1_655 S
Tb251 O289 2.393 1_655 S
Tb251 O290 2.465 . S
Tb251 O291 2.387 . S
Tb251 O293 2.428 . S
Tb251 O294 2.308 1_545 S
Tb251 C315 2.802 . S
N252 C248 1.361 . S
N252 Tb251 2.572 . S
N252 C254 1.340 . S
C253 C247 1.416 . S
C253 C255 1.332 . S
C253 H261 0.931 . S
C254 N252 1.340 . S
C254 C255 1.407 . S
C254 H260 0.930 . S
C255 C253 1.332 . S
C255 C254 1.407 . S
C255 H257 0.929 . S
H256 C245 0.954 . S
H257 C255 0.929 . S
H258 C273 0.930 1_655 S
H259 C280 0.929 . S
H260 C254 0.930 . S
H261 C253 0.931 . S
H262 C276 0.930 . S
H263 C243 0.930 1_455 S
H264 C249 0.929 . S
H265 C250 0.930 . S
H266 C271 0.930 1_655 S
H267 C246 0.930 . S
H268 C279 0.931 . S
N269 Tb240 2.617 . S
N269 C270 1.379 . S
N269 C273 1.334 . S
C270 N269 1.379 . S
C270 C272 1.416 . S
C270 C278 1.424 . S
C271 H266 0.930 1_455 S
C271 C273 1.390 . S
C271 C274 1.339 . S
C272 C270 1.416 . S
C272 C274 1.416 . S
C272 C305 1.448 . S
C273 H258 0.930 1_455 S
C273 N269 1.334 . S
C273 C271 1.390 . S
C274 C271 1.339 . S
C274 C272 1.416 . S
C274 H281 0.930 . S
N275 Tb240 2.572 . S
N275 C276 1.340 . S
N275 C278 1.361 . S
C276 H262 0.930 . S
C276 N275 1.340 . S
C276 C280 1.407 . S
C277 C278 1.413 . S
C277 C279 1.416 . S
C277 C306 1.427 . S
C278 C270 1.424 . S
C278 N275 1.361 . S
C278 C277 1.413 . S
C279 H268 0.931 . S
C279 C277 1.416 . S
C279 C280 1.332 . S
C280 H259 0.929 . S
C280 C276 1.407 . S
C280 C279 1.332 . S
H281 C274 0.930 . S
H282 C305 0.930 . S
H283 C306 0.929 . S
O284 Tb240 2.465 . S
O284 C304 1.264 . S
O285 Tb240 2.387 . S
O285 C296 1.264 . S
O286 Tb251 2.349 1_455 S
O286 C296 1.243 1_545 S
O287 Tb240 2.428 . S
O287 C304 1.256 . S
O288 Tb240 2.308 1_545 S
O288 C303 1.266 . S
O289 Tb251 2.393 1_455 S
O289 C303 1.248 . S
O290 Tb251 2.465 . S
O290 C315 1.264 . S
O291 Tb251 2.387 . S
O291 C307 1.264 . S
O292 Tb240 2.349 1_655 S
O292 C307 1.243 1_565 S
O293 Tb251 2.428 . S
O293 C315 1.256 . S
O294 Tb251 2.308 1_565 S
O294 C314 1.266 . S
O295 Tb240 2.393 1_655 S
O295 C314 1.248 . S
C296 O285 1.264 . S
C296 O286 1.243 1_565 S
C297 C300 1.399 . S
C297 C302 1.383 . S
C297 C304 1.496 . S
C298 C299 1.399 . S
C298 C302 1.389 . S
C299 C298 1.399 . S
C299 C301 1.380 . S
C299 H316 0.929 . S
C300 C297 1.399 . S
C300 C301 1.392 . S
C300 H317 0.929 . S
C301 C299 1.380 . S
C301 C300 1.392 . S
C301 H318 0.929 . S
C302 C297 1.383 . S
C302 C298 1.389 . S
C302 H319 0.931 . S
C303 O288 1.266 . S
C303 O289 1.248 . S
C304 Tb240 2.802 . S
C304 O284 1.264 . S
C304 O287 1.256 . S
C304 C297 1.496 . S
C305 C272 1.448 . S
C305 H282 0.930 . S
C305 C306 1.328 . S
C306 C277 1.427 . S
C306 H283 0.929 . S
C306 C305 1.328 . S
C307 O291 1.264 . S
C307 O292 1.243 1_545 S
C308 C311 1.399 . S
C308 C312 1.383 . S
C308 C315 1.496 . S
C309 C310 1.399 . S
C309 C312 1.389 . S
C310 C309 1.399 . S
C310 C313 1.380 . S
C310 H320 0.929 . S
C311 C308 1.399 . S
C311 C313 1.392 . S
C311 H321 0.929 . S
C312 C308 1.383 . S
C312 C309 1.389 . S
C312 H322 0.931 . S
C313 C310 1.380 . S
C313 C311 1.392 . S
C313 H323 0.929 . S
C314 O294 1.266 . S
C314 O295 1.248 . S
C315 Tb251 2.802 . S
C315 O290 1.264 . S
C315 O293 1.256 . S
C315 C308 1.496 . S
H316 C299 0.929 . S
H317 C300 0.929 . S
H318 C301 0.929 . S
H319 C302 0.931 . S
H320 C310 0.929 . S
H321 C311 0.929 . S
H322 C312 0.931 . S
H323 C313 0.929 . S
Tb324 N353 2.617 . S
Tb324 N359 2.572 1_556 S
Tb324 O368 2.465 . S
Tb324 O369 2.387 1_556 S
Tb324 O371 2.428 . S
Tb324 O372 2.308 1_556 S
Tb324 O376 2.349 . S
Tb324 O379 2.393 . S
Tb324 C388 2.802 . S
C325 N326 1.379 . S
C325 C328 1.416 . S
C325 C332 1.424 . S
N326 C325 1.379 . S
N326 C329 1.334 . S
N326 Tb335 2.617 . S
C327 C329 1.390 . S
C327 C330 1.339 . S
C327 H347 0.930 . S
C328 C325 1.416 . S
C328 C330 1.416 . S
C328 C334 1.448 . S
C329 N326 1.334 . S
C329 C327 1.390 . S
C329 H340 0.930 . S
C330 C327 1.339 . S
C330 C328 1.416 . S
C330 H351 0.930 . S
C331 C332 1.413 . S
C331 C333 1.427 . S
C331 C337 1.416 . S
C332 C325 1.424 . S
C332 C331 1.413 . S
C332 N336 1.361 . S
C333 C331 1.427 . S
C333 C334 1.328 . S
C333 H348 0.929 . S
C334 C328 1.448 . S
C334 C333 1.328 . S
C334 H349 0.930 . S
Tb335 N326 2.617 . S
Tb335 N336 2.572 . S
Tb335 O370 2.349 . S
Tb335 O373 2.393 . S
Tb335 O374 2.465 . S
Tb335 O375 2.387 1_554 S
Tb335 O377 2.428 . S
Tb335 O378 2.308 . S
Tb335 C399 2.802 . S
N336 C332 1.361 . S
N336 Tb335 2.572 . S
N336 C338 1.340 . S
C337 C331 1.416 . S
C337 C339 1.332 . S
C337 H345 0.931 . S
C338 N336 1.340 . S
C338 C339 1.407 . S
C338 H344 0.930 . S
C339 C337 1.332 . S
C339 C338 1.407 . S
C339 H341 0.929 . S
H340 C329 0.930 . S
H341 C339 0.929 . S
H342 C357 0.930 . S
H343 C364 0.929 . S
H344 C338 0.930 . S
H345 C337 0.931 . S
H346 C360 0.930 . S
H347 C327 0.930 . S
H348 C333 0.929 . S
H349 C334 0.930 . S
H350 C355 0.930 . S
H351 C330 0.930 . S
H352 C363 0.931 . S
N353 Tb324 2.617 . S
N353 C354 1.379 1_556 S
N353 C357 1.334 . S
C354 N353 1.379 1_554 S
C354 C356 1.416 . S
C354 C362 1.424 . S
C355 H350 0.930 . S
C355 C357 1.390 . S
C355 C358 1.339 1_556 S
C356 C354 1.416 . S
C356 C358 1.416 . S
C356 C389 1.448 . S
C357 H342 0.930 . S
C357 N353 1.334 . S
C357 C355 1.390 . S
C358 C355 1.339 1_554 S
C358 C356 1.416 . S
C358 H365 0.930 . S
N359 Tb324 2.572 1_554 S
N359 C360 1.340 . S
N359 C362 1.361 . S
C360 H346 0.930 . S
C360 N359 1.340 . S
C360 C364 1.407 . S
C361 C362 1.413 . S
C361 C363 1.416 . S
C361 C390 1.427 . S
C362 C354 1.424 . S
C362 N359 1.361 . S
C362 C361 1.413 . S
C363 H352 0.931 . S
C363 C361 1.416 . S
C363 C364 1.332 . S
C364 H343 0.929 . S
C364 C360 1.407 . S
C364 C363 1.332 . S
H365 C358 0.930 . S
H366 C389 0.930 . S
H367 C390 0.929 . S
O368 Tb324 2.465 . S
O368 C388 1.264 . S
O369 Tb324 2.387 1_554 S
O369 C380 1.264 . S
O370 Tb335 2.349 . S
O370 C380 1.243 . S
O371 Tb324 2.428 . S
O371 C388 1.256 . S
O372 Tb324 2.308 1_554 S
O372 C387 1.266 . S
O373 Tb335 2.393 . S
O373 C387 1.248 . S
O374 Tb335 2.465 . S
O374 C399 1.264 . S
O375 Tb335 2.387 1_556 S
O375 C391 1.264 . S
O376 Tb324 2.349 . S
O376 C391 1.243 . S
O377 Tb335 2.428 . S
O377 C399 1.256 . S
O378 Tb335 2.308 . S
O378 C398 1.266 . S
O379 Tb324 2.393 . S
O379 C398 1.248 1_556 S
C380 O369 1.264 . S
C380 O370 1.243 . S
C381 C384 1.399 . S
C381 C386 1.383 . S
C381 C388 1.496 . S
C382 C383 1.399 . S
C382 C386 1.389 . S
C383 C382 1.399 . S
C383 C385 1.380 . S
C383 H400 0.929 . S
C384 C381 1.399 . S
C384 C385 1.392 . S
C384 H401 0.929 . S
C385 C383 1.380 . S
C385 C384 1.392 . S
C385 H402 0.929 . S
C386 C381 1.383 . S
C386 C382 1.389 . S
C386 H403 0.931 . S
C387 O372 1.266 . S
C387 O373 1.248 . S
C388 Tb324 2.802 . S
C388 O368 1.264 . S
C388 O371 1.256 . S
C388 C381 1.496 . S
C389 C356 1.448 . S
C389 H366 0.930 . S
C389 C390 1.328 . S
C390 C361 1.427 . S
C390 H367 0.929 . S
C390 C389 1.328 . S
C391 O375 1.264 . S
C391 O376 1.243 . S
C392 C395 1.399 . S
C392 C396 1.383 . S
C392 C399 1.496 . S
C393 C394 1.399 . S
C393 C396 1.389 . S
C394 C393 1.399 . S
C394 C397 1.380 . S
C394 H404 0.929 . S
C395 C392 1.399 . S
C395 C397 1.392 . S
C395 H405 0.929 . S
C396 C392 1.383 . S
C396 C393 1.389 . S
C396 H406 0.931 . S
C397 C394 1.380 . S
C397 C395 1.392 . S
C397 H407 0.929 . S
C398 O378 1.266 . S
C398 O379 1.248 1_554 S
C399 Tb335 2.802 . S
C399 O374 1.264 . S
C399 O377 1.256 . S
C399 C392 1.496 . S
H400 C383 0.929 . S
H401 C384 0.929 . S
H402 C385 0.929 . S
H403 C386 0.931 . S
H404 C394 0.929 . S
H405 C395 0.929 . S
H406 C396 0.931 . S
H407 C397 0.929 . S
H408 C420 0.930 . S
H409 C422 0.930 . S
H410 C423 0.930 . S
H411 C427 0.959 . S
H412 C427 0.959 . S
H413 C427 0.961 . S
H414 C428 0.960 . S
H415 C428 0.961 . S
H416 C428 0.959 . S
H417 C431 0.929 . S
H418 C432 0.931 . S
H419 C434 0.930 . S
C420 H408 0.930 . S
C420 C421 1.399 . S
C420 C425 1.399 . S
C421 C420 1.399 . S
C421 C422 1.376 . S
C422 H409 0.930 . S
C422 C421 1.376 . S
C422 C423 1.388 . S
C423 H410 0.930 . S
C423 C422 1.388 . S
C423 C424 1.390 . S
C424 C423 1.390 . S
C424 C425 1.394 . S
C424 C430 1.465 . S
C425 C420 1.399 . S
C425 C424 1.394 . S
C425 C426 1.516 . S
C426 C425 1.516 . S
C426 C427 1.502 . S
C426 C428 1.561 . S
C426 C429 1.526 . S
C427 H411 0.959 . S
C427 H412 0.959 . S
C427 H413 0.961 . S
C427 C426 1.502 . S
C428 H414 0.960 . S
C428 H415 0.961 . S
C428 H416 0.959 . S
C428 C426 1.561 . S
C429 C426 1.526 . S
C429 C430 1.396 . S
C429 C434 1.390 . S
C430 C424 1.465 . S
C430 C429 1.396 . S
C430 C431 1.399 . S
C431 H417 0.929 . S
C431 C430 1.399 . S
C431 C432 1.385 . S
C432 H418 0.931 . S
C432 C431 1.385 . S
C432 C433 1.389 . S
C433 C432 1.389 . S
C433 C434 1.387 . S
C434 H419 0.930 . S
C434 C429 1.390 . S
C434 C433 1.387 . S
H435 C447 0.930 1_556 S
H436 C449 0.930 . S
H437 C450 0.930 . S
H438 C454 0.959 . S
H439 C454 0.959 . S
H440 C454 0.961 . S
H441 C455 0.960 . S
H442 C455 0.961 . S
H443 C455 0.959 . S
H444 C458 0.929 . S
H445 C459 0.931 . S
H446 C461 0.930 1_556 S
C447 H435 0.930 1_554 S
C447 C448 1.399 . S
C447 C452 1.399 . S
C448 C447 1.399 . S
C448 C449 1.376 . S
C449 H436 0.930 . S
C449 C448 1.376 . S
C449 C450 1.388 . S
C450 H437 0.930 . S
C450 C449 1.388 . S
C450 C451 1.390 . S
C451 C450 1.390 . S
C451 C452 1.394 . S
C451 C457 1.465 . S
C452 C447 1.399 . S
C452 C451 1.394 . S
C452 C453 1.516 1_554 S
C453 C452 1.516 1_556 S
C453 C454 1.502 . S
C453 C455 1.561 . S
C453 C456 1.526 1_556 S
C454 H438 0.959 . S
C454 H439 0.959 . S
C454 H440 0.961 . S
C454 C453 1.502 . S
C455 H441 0.960 . S
C455 H442 0.961 . S
C455 H443 0.959 . S
C455 C453 1.561 . S
C456 C453 1.526 1_554 S
C456 C457 1.396 . S
C456 C461 1.390 . S
C457 C451 1.465 . S
C457 C456 1.396 . S
C457 C458 1.399 . S
C458 H444 0.929 . S
C458 C457 1.399 . S
C458 C459 1.385 . S
C459 H445 0.931 . S
C459 C458 1.385 . S
C459 C460 1.389 . S
C460 C459 1.389 . S
C460 C461 1.387 . S
C461 H446 0.930 1_554 S
C461 C456 1.390 . S
C461 C460 1.387 . S
H462 C474 0.930 . S
H463 C476 0.930 . S
H464 C477 0.930 . S
H465 C481 0.959 . S
H466 C481 0.959 . S
H467 C481 0.961 . S
H468 C482 0.960 . S
H469 C482 0.961 . S
H470 C482 0.959 . S
H471 C485 0.929 . S
H472 C486 0.931 . S
H473 C488 0.930 . S
C474 H462 0.930 . S
C474 C475 1.399 . S
C474 C479 1.399 . S
C475 C474 1.399 . S
C475 C476 1.376 . S
C476 H463 0.930 . S
C476 C475 1.376 . S
C476 C477 1.388 . S
C477 H464 0.930 . S
C477 C476 1.388 . S
C477 C478 1.390 . S
C478 C477 1.390 . S
C478 C479 1.394 . S
C478 C484 1.465 . S
C479 C474 1.399 . S
C479 C478 1.394 . S
C479 C480 1.516 . S
C480 C479 1.516 . S
C480 C481 1.502 . S
C480 C482 1.561 . S
C480 C483 1.526 . S
C481 H465 0.959 . S
C481 H466 0.959 . S
C481 H467 0.961 . S
C481 C480 1.502 . S
C482 H468 0.960 . S
C482 H469 0.961 . S
C482 H470 0.959 . S
C482 C480 1.561 . S
C483 C480 1.526 . S
C483 C484 1.396 . S
C483 C488 1.390 . S
C484 C478 1.465 . S
C484 C483 1.396 . S
C484 C485 1.399 . S
C485 H471 0.929 . S
C485 C484 1.399 . S
C485 C486 1.385 . S
C486 H472 0.931 . S
C486 C485 1.385 . S
C486 C487 1.389 . S
C487 C486 1.389 . S
C487 C488 1.387 . S
C488 H473 0.930 . S
C488 C483 1.390 . S
C488 C487 1.387 . S
H489 C501 0.930 . S
H490 C503 0.930 . S
H491 C504 0.930 . S
H492 C508 0.959 . S
H493 C508 0.959 . S
H494 C508 0.961 . S
H495 C509 0.960 . S
H496 C509 0.961 . S
H497 C509 0.959 . S
H498 C512 0.929 . S
H499 C513 0.931 . S
H500 C515 0.924 1_556 S
C501 H489 0.930 . S
C501 C502 1.399 1_556 S
C501 C506 1.399 1_556 S
C502 C501 1.399 1_554 S
C502 C503 1.376 . S
C503 H490 0.930 . S
C503 C502 1.376 . S
C503 C504 1.388 . S
C504 H491 0.930 . S
C504 C503 1.388 . S
C504 C505 1.390 . S
C505 C504 1.390 . S
C505 C506 1.394 . S
C505 C511 1.465 . S
C506 C501 1.399 1_554 S
C506 C505 1.394 . S
C506 C507 1.516 1_554 S
C507 C506 1.516 1_556 S
C507 C508 1.502 . S
C507 C509 1.561 . S
C507 C510 1.526 1_556 S
C508 H492 0.959 . S
C508 H493 0.959 . S
C508 H494 0.961 . S
C508 C507 1.502 . S
C509 H495 0.960 . S
C509 H496 0.961 . S
C509 H497 0.959 . S
C509 C507 1.561 . S
C510 C507 1.526 1_554 S
C510 C511 1.396 . S
C510 C515 1.389 . S
C511 C505 1.465 . S
C511 C510 1.396 . S
C511 C512 1.399 . S
C512 H498 0.929 . S
C512 C511 1.399 . S
C512 C513 1.385 . S
C513 H499 0.931 . S
C513 C512 1.385 . S
C513 C514 1.389 . S
C514 C513 1.389 . S
C514 C515 1.393 . S
C515 H500 0.924 1_554 S
C515 C510 1.389 . S
C515 C514 1.393 . S
H516 C528 0.930 . S
H517 C530 0.930 . S
H518 C531 0.930 . S
H519 C535 0.959 . S
H520 C535 0.959 . S
H521 C535 0.961 . S
H522 C536 0.960 . S
H523 C536 0.961 . S
H524 C536 0.959 . S
H525 C539 0.929 1_545 S
H526 C540 0.931 1_545 S
H527 C542 0.930 . S
C528 H516 0.930 . S
C528 C529 1.399 . S
C528 C533 1.399 . S
C529 C528 1.399 . S
C529 C530 1.376 . S
C530 H517 0.930 . S
C530 C529 1.376 . S
C530 C531 1.388 . S
C531 H518 0.930 . S
C531 C530 1.388 . S
C531 C532 1.390 . S
C532 C531 1.390 . S
C532 C533 1.394 . S
C532 C538 1.465 . S
C533 C528 1.399 . S
C533 C532 1.394 . S
C533 C534 1.516 . S
C534 C533 1.516 . S
C534 C535 1.502 . S
C534 C536 1.561 . S
C534 C537 1.526 . S
C535 H519 0.959 . S
C535 H520 0.959 . S
C535 H521 0.961 . S
C535 C534 1.502 . S
C536 H522 0.960 . S
C536 H523 0.961 . S
C536 H524 0.959 . S
C536 C534 1.561 . S
C537 C534 1.526 . S
C537 C538 1.396 . S
C537 C542 1.390 . S
C538 C532 1.465 . S
C538 C537 1.396 . S
C538 C539 1.399 . S
C539 H525 0.929 1_565 S
C539 C538 1.399 . S
C539 C540 1.385 . S
C540 H526 0.931 1_565 S
C540 C539 1.385 . S
C540 C541 1.389 . S
C541 C540 1.389 . S
C541 C542 1.387 . S
C542 H527 0.930 . S
C542 C537 1.390 . S
C542 C541 1.387 . S
H543 C555 0.930 . S
H544 C557 0.930 . S
H545 C558 0.930 . S
H546 C562 0.959 . S
H547 C562 0.959 . S
H548 C562 0.961 . S
H549 C563 0.960 . S
H550 C563 0.961 . S
H551 C563 0.959 . S
H552 C566 0.929 . S
H553 C567 0.931 . S
H554 C569 0.930 . S
C555 H543 0.930 . S
C555 C556 1.399 . S
C555 C560 1.399 . S
C556 C555 1.399 . S
C556 C557 1.376 . S
C557 H544 0.930 . S
C557 C556 1.376 . S
C557 C558 1.388 . S
C558 H545 0.930 . S
C558 C557 1.388 . S
C558 C559 1.390 . S
C559 C558 1.390 . S
C559 C560 1.394 . S
C559 C565 1.465 . S
C560 C555 1.399 . S
C560 C559 1.394 . S
C560 C561 1.516 . S
C561 C560 1.516 . S
C561 C562 1.502 . S
C561 C563 1.561 . S
C561 C564 1.526 . S
C562 H546 0.959 . S
C562 H547 0.959 . S
C562 H548 0.961 . S
C562 C561 1.502 . S
C563 H549 0.960 . S
C563 H550 0.961 . S
C563 H551 0.959 . S
C563 C561 1.561 . S
C564 C561 1.526 . S
C564 C565 1.396 . S
C564 C569 1.390 . S
C565 C559 1.465 . S
C565 C564 1.396 . S
C565 C566 1.399 . S
C566 H552 0.929 . S
C566 C565 1.399 . S
C566 C567 1.385 . S
C567 H553 0.931 . S
C567 C566 1.385 . S
C567 C568 1.389 . S
C568 C567 1.389 . S
C568 C569 1.387 . S
C569 H554 0.930 . S
C569 C564 1.390 . S
C569 C568 1.387 . S
H570 C582 0.930 . S
H571 C584 0.930 . S
H572 C585 0.930 1_565 S
H573 C589 0.959 . S
H574 C589 0.959 . S
H575 C589 0.961 . S
H576 C590 0.960 . S
H577 C590 0.961 . S
H578 C590 0.959 . S
H579 C593 0.929 . S
H580 C594 0.942 . S
H581 C596 0.930 . S
C582 H570 0.930 . S
C582 C583 1.399 . S
C582 C587 1.399 . S
C583 C582 1.399 . S
C583 C584 1.376 . S
C584 H571 0.930 . S
C584 C583 1.376 . S
C584 C585 1.388 . S
C585 H572 0.930 1_545 S
C585 C584 1.388 . S
C585 C586 1.390 . S
C586 C585 1.390 . S
C586 C587 1.394 . S
C586 C592 1.465 . S
C587 C582 1.399 . S
C587 C586 1.394 . S
C587 C588 1.516 . S
C588 C587 1.516 . S
C588 C589 1.502 . S
C588 C590 1.561 . S
C588 C591 1.526 . S
C589 H573 0.959 . S
C589 H574 0.959 . S
C589 H575 0.961 . S
C589 C588 1.502 . S
C590 H576 0.960 . S
C590 H577 0.961 . S
C590 H578 0.959 . S
C590 C588 1.561 . S
C591 C588 1.526 . S
C591 C592 1.396 . S
C591 C596 1.390 . S
C592 C586 1.465 . S
C592 C591 1.396 . S
C592 C593 1.399 1_545 S
C593 H579 0.929 . S
C593 C592 1.399 1_565 S
C593 C594 1.388 . S
C594 H580 0.942 . S
C594 C593 1.388 . S
C594 C595 1.375 1_565 S
C595 C594 1.375 1_545 S
C595 C596 1.387 . S
C596 H581 0.930 . S
C596 C591 1.390 . S
C596 C595 1.387 . S
H597 C609 0.930 . S
H598 C611 0.930 . S
H599 C612 0.930 . S
H600 C616 0.959 . S
H601 C616 0.959 . S
H602 C616 0.961 . S
H603 C617 0.960 . S
H604 C617 0.961 . S
H605 C617 0.959 . S
H606 C620 0.929 . S
H607 C621 0.931 . S
H608 C623 0.930 . S
C609 H597 0.930 . S
C609 C610 1.399 . S
C609 C614 1.399 . S
C610 C609 1.399 . S
C610 C611 1.376 . S
C611 H598 0.930 . S
C611 C610 1.376 . S
C611 C612 1.388 . S
C612 H599 0.930 . S
C612 C611 1.388 . S
C612 C613 1.390 . S
C613 C612 1.390 . S
C613 C614 1.394 . S
C613 C619 1.465 . S
C614 C609 1.399 . S
C614 C613 1.394 . S
C614 C615 1.516 . S
C615 C614 1.516 . S
C615 C616 1.502 . S
C615 C617 1.561 . S
C615 C618 1.526 . S
C616 H600 0.959 . S
C616 H601 0.959 . S
C616 H602 0.961 . S
C616 C615 1.502 . S
C617 H603 0.960 . S
C617 H604 0.961 . S
C617 H605 0.959 . S
C617 C615 1.561 . S
C618 C615 1.526 . S
C618 C619 1.396 . S
C618 C623 1.390 . S
C619 C613 1.465 . S
C619 C618 1.396 . S
C619 C620 1.399 . S
C620 H606 0.929 . S
C620 C619 1.399 . S
C620 C621 1.385 . S
C621 H607 0.931 . S
C621 C620 1.385 . S
C621 C622 1.389 . S
C622 C621 1.389 . S
C622 C623 1.387 . S
C623 H608 0.930 . S
C623 C618 1.390 . S
C623 C622 1.387 . S
H624 C636 0.930 . S
H625 C638 0.930 . S
H626 C639 0.930 . S
H627 C643 0.959 . S
H628 C643 0.959 . S
H629 C643 0.961 . S
H630 C644 0.960 . S
H631 C644 0.961 . S
H632 C644 0.959 . S
H633 C647 0.929 . S
H634 C648 0.931 . S
H635 C650 0.930 . S
C636 H624 0.930 . S
C636 C637 1.399 . S
C636 C641 1.399 . S
C637 C636 1.399 . S
C637 C638 1.376 . S
C638 H625 0.930 . S
C638 C637 1.376 . S
C638 C639 1.388 . S
C639 H626 0.930 . S
C639 C638 1.388 . S
C639 C640 1.390 . S
C640 C639 1.390 . S
C640 C641 1.394 . S
C640 C646 1.465 . S
C641 C636 1.399 . S
C641 C640 1.394 . S
C641 C642 1.516 . S
C642 C641 1.516 . S
C642 C643 1.502 . S
C642 C644 1.561 . S
C642 C645 1.526 . S
C643 H627 0.959 . S
C643 H628 0.959 . S
C643 H629 0.961 . S
C643 C642 1.502 . S
C644 H630 0.960 . S
C644 H631 0.961 . S
C644 H632 0.959 . S
C644 C642 1.561 . S
C645 C642 1.526 . S
C645 C646 1.396 . S
C645 C650 1.390 . S
C646 C640 1.465 . S
C646 C645 1.396 . S
C646 C647 1.399 . S
C647 H633 0.929 . S
C647 C646 1.399 . S
C647 C648 1.385 . S
C648 H634 0.931 . S
C648 C647 1.385 . S
C648 C649 1.389 . S
C649 C648 1.389 . S
C649 C650 1.387 . S
C650 H635 0.930 . S
C650 C645 1.390 . S
C650 C649 1.387 . S
H651 C663 0.930 . S
H652 C665 0.930 . S
H653 C666 0.930 . S
H654 C670 0.971 . S
H655 C670 0.941 1_565 S
H656 C670 0.957 1_565 S
H657 C671 0.960 1_565 S
H658 C671 0.961 1_565 S
H659 C671 0.959 . S
H660 C674 0.929 . S
H661 C675 0.931 . S
H662 C677 0.930 . S
C663 H651 0.930 . S
C663 C664 1.399 . S
C663 C668 1.399 . S
C664 C663 1.399 . S
C664 C665 1.376 . S
C665 H652 0.930 . S
C665 C664 1.376 . S
C665 C666 1.388 . S
C666 H653 0.930 . S
C666 C665 1.388 . S
C666 C667 1.390 . S
C667 C666 1.390 . S
C667 C668 1.394 . S
C667 C673 1.465 . S
C668 C663 1.399 . S
C668 C667 1.394 . S
C668 C669 1.516 . S
C669 C668 1.516 . S
C669 C670 1.514 . S
C669 C671 1.561 . S
C669 C672 1.526 . S
C670 H654 0.971 . S
C670 H655 0.941 1_545 S
C670 H656 0.957 1_545 S
C670 C669 1.514 . S
C671 H657 0.960 1_545 S
C671 H658 0.961 1_545 S
C671 H659 0.959 . S
C671 C669 1.561 . S
C672 C669 1.526 . S
C672 C673 1.396 . S
C672 C677 1.390 . S
C673 C667 1.465 . S
C673 C672 1.396 . S
C673 C674 1.399 . S
C674 H660 0.929 . S
C674 C673 1.399 . S
C674 C675 1.385 . S
C675 H661 0.931 . S
C675 C674 1.385 . S
C675 C676 1.389 . S
C676 C675 1.389 . S
C676 C677 1.387 . S
C677 H662 0.930 . S
C677 C672 1.390 . S
C677 C676 1.387 . S
H678 C690 0.930 . S
H679 C692 0.930 . S
H680 C693 0.930 . S
H681 C697 0.959 . S
H682 C697 0.959 . S
H683 C697 0.961 . S
H684 C698 0.960 . S
H685 C698 0.961 . S
H686 C698 0.959 . S
H687 C701 0.929 . S
H688 C702 0.931 . S
H689 C704 0.930 . S
C690 H678 0.930 . S
C690 C691 1.399 . S
C690 C695 1.399 . S
C691 C690 1.399 . S
C691 C692 1.376 . S
C692 H679 0.930 . S
C692 C691 1.376 . S
C692 C693 1.388 . S
C693 H680 0.930 . S
C693 C692 1.388 . S
C693 C694 1.390 . S
C694 C693 1.390 . S
C694 C695 1.394 . S
C694 C700 1.465 . S
C695 C690 1.399 . S
C695 C694 1.394 . S
C695 C696 1.516 . S
C696 C695 1.516 . S
C696 C697 1.502 . S
C696 C698 1.561 . S
C696 C699 1.526 . S
C697 H681 0.959 . S
C697 H682 0.959 . S
C697 H683 0.961 . S
C697 C696 1.502 . S
C698 H684 0.960 . S
C698 H685 0.961 . S
C698 H686 0.959 . S
C698 C696 1.561 . S
C699 C696 1.526 . S
C699 C700 1.396 . S
C699 C704 1.390 . S
C700 C694 1.465 . S
C700 C699 1.396 . S
C700 C701 1.399 . S
C701 H687 0.929 . S
C701 C700 1.399 . S
C701 C702 1.385 . S
C702 H688 0.931 . S
C702 C701 1.385 . S
C702 C703 1.389 . S
C703 C702 1.389 . S
C703 C704 1.387 . S
C704 H689 0.930 . S
C704 C699 1.390 . S
C704 C703 1.387 . S
H705 C717 0.930 . S
H706 C719 0.930 . S
H707 C720 0.930 . S
H708 C724 0.959 . S
H709 C724 0.959 . S
H710 C724 0.961 . S
H711 C725 0.960 . S
H712 C725 0.961 . S
H713 C725 0.959 . S
H714 C728 0.929 . S
H715 C729 0.931 . S
H716 C731 0.930 1_545 S
C717 H705 0.930 . S
C717 C718 1.399 . S
C717 C722 1.399 . S
C718 C717 1.399 . S
C718 C719 1.376 . S
C719 H706 0.930 . S
C719 C718 1.376 . S
C719 C720 1.388 . S
C720 H707 0.930 . S
C720 C719 1.388 . S
C720 C721 1.390 . S
C721 C720 1.390 . S
C721 C722 1.394 . S
C721 C727 1.465 . S
C722 C717 1.399 . S
C722 C721 1.394 . S
C722 C723 1.516 . S
C723 C722 1.516 . S
C723 C724 1.502 1_565 S
C723 C725 1.561 1_565 S
C723 C726 1.526 . S
C724 H708 0.959 . S
C724 H709 0.959 . S
C724 H710 0.961 . S
C724 C723 1.502 1_545 S
C725 H711 0.960 . S
C725 H712 0.961 . S
C725 H713 0.959 . S
C725 C723 1.561 1_545 S
C726 C723 1.526 . S
C726 C727 1.396 . S
C726 C731 1.390 . S
C727 C721 1.465 . S
C727 C726 1.396 . S
C727 C728 1.399 . S
C728 H714 0.929 . S
C728 C727 1.399 . S
C728 C729 1.385 . S
C729 H715 0.931 . S
C729 C728 1.385 . S
C729 C730 1.389 . S
C730 C729 1.389 . S
C730 C731 1.387 . S
C731 H716 0.930 1_565 S
C731 C726 1.390 . S
C731 C730 1.387 . S
C433 C303 1.604 . S
C421 C211 1.633 . S
C448 C31 1.585 . S
C460 C398 1.630 . S
C475 C91 1.642 . S
C487 C314 1.600 . S
C502 C151 1.570 . S
C514 C387 1.591 . S
C541 C298 1.466 . S
C529 C20 1.544 . S
C568 C391 1.602 . S
C556 C61 1.591 . S
C583 C121 1.606 . S
C595 C307 1.607 . S
C610 C200 1.494 . S
C622 C382 1.453 . S
C649 C393 1.453 . S
C637 C80 1.508 . S
C676 C309 1.365 . S
C664 C140 1.527 . S
C703 C380 1.600 . S
C691 C181 1.509 . S
C718 C1 1.559 . S
C730 C296 1.616 . S
