# Generated by pormake.
# Topology nom, (4,4)-cn, num edge types: 1
# Building blocks:
#     Node 0, Type 0, BuildingBlock: AZAVOO_clean_linker_0, # of connection points: 4
#     Node 1, Type 0, BuildingBlock: AZAVOO_clean_linker_0, # of connection points: 4
#     Node 2, Type 0, BuildingBlock: AZAVOO_clean_linker_0, # of connection points: 4
#     Node 3, Type 0, BuildingBlock: AZAVOO_clean_linker_0, # of connection points: 4
#     Node 4, Type 0, BuildingBlock: AZAVOO_clean_linker_0, # of connection points: 4
#     Node 5, Type 0, BuildingBlock: AZAVOO_clean_linker_0, # of connection points: 4
#     Node 6, Type 1, BuildingBlock: KUFVIS_clean_sbu_0, # of connection points: 4
#     Node 7, Type 1, BuildingBlock: KUFVIS_clean_sbu_0, # of connection points: 4
#     Node 8, Type 1, BuildingBlock: KUFVIS_clean_sbu_0, # of connection points: 4
#     Node 9, Type 1, BuildingBlock: KUFVIS_clean_sbu_0, # of connection points: 4
#     Node 10, Type 1, BuildingBlock: KUFVIS_clean_sbu_0, # of connection points: 4
#     Node 11, Type 1, BuildingBlock: KUFVIS_clean_sbu_0, # of connection points: 4
#     Edge 12, Type (0, 1), BuildingBlock: MIFKUJ_clean_linker_0, # of connection points: 2
#     Edge 13, Type (0, 1), BuildingBlock: MIFKUJ_clean_linker_0, # of connection points: 2
#     Edge 14, Type (0, 1), BuildingBlock: MIFKUJ_clean_linker_0, # of connection points: 2
#     Edge 15, Type (0, 1), BuildingBlock: MIFKUJ_clean_linker_0, # of connection points: 2
#     Edge 16, Type (0, 1), BuildingBlock: MIFKUJ_clean_linker_0, # of connection points: 2
#     Edge 17, Type (0, 1), BuildingBlock: MIFKUJ_clean_linker_0, # of connection points: 2
#     Edge 18, Type (0, 1), BuildingBlock: MIFKUJ_clean_linker_0, # of connection points: 2
#     Edge 19, Type (0, 1), BuildingBlock: MIFKUJ_clean_linker_0, # of connection points: 2
#     Edge 20, Type (0, 1), BuildingBlock: MIFKUJ_clean_linker_0, # of connection points: 2
#     Edge 21, Type (0, 1), BuildingBlock: MIFKUJ_clean_linker_0, # of connection points: 2
#     Edge 22, Type (0, 1), BuildingBlock: MIFKUJ_clean_linker_0, # of connection points: 2
#     Edge 23, Type (0, 1), BuildingBlock: MIFKUJ_clean_linker_0, # of connection points: 2
#     Edge 24, Type (0, 1), BuildingBlock: MIFKUJ_clean_linker_0, # of connection points: 2
#     Edge 25, Type (0, 1), BuildingBlock: MIFKUJ_clean_linker_0, # of connection points: 2
#     Edge 26, Type (0, 1), BuildingBlock: MIFKUJ_clean_linker_0, # of connection points: 2
#     Edge 27, Type (0, 1), BuildingBlock: MIFKUJ_clean_linker_0, # of connection points: 2
#     Edge 28, Type (0, 1), BuildingBlock: MIFKUJ_clean_linker_0, # of connection points: 2
#     Edge 29, Type (0, 1), BuildingBlock: MIFKUJ_clean_linker_0, # of connection points: 2
#     Edge 30, Type (0, 1), BuildingBlock: MIFKUJ_clean_linker_0, # of connection points: 2
#     Edge 31, Type (0, 1), BuildingBlock: MIFKUJ_clean_linker_0, # of connection points: 2
#     Edge 32, Type (0, 1), BuildingBlock: MIFKUJ_clean_linker_0, # of connection points: 2
#     Edge 33, Type (0, 1), BuildingBlock: MIFKUJ_clean_linker_0, # of connection points: 2
#     Edge 34, Type (0, 1), BuildingBlock: MIFKUJ_clean_linker_0, # of connection points: 2
#     Edge 35, Type (0, 1), BuildingBlock: MIFKUJ_clean_linker_0, # of connection points: 2
# Relax obj value: 0.135
# Max RMSD: 0.224
# Mean RMSD: 0.145
data_MOF--net-nom--node1-KUFVIS_clean_sbu_0--node2-AZAVOO_clean_linker_0--edge1-MIFKUJ_clean_linker_0
_symmetry_space_group_name_H-M    P1
_symmetry_Int_Tables_number       1
_symmetry_cell_setting            triclinic
loop_
_symmetry_equiv_pos_as_xyz
'x, y, z'
_cell_length_a     59.520106
_cell_length_b     61.923728
_cell_length_c     75.241372
_cell_angle_alpha  90.662085
_cell_angle_beta   90.595915
_cell_angle_gamma 121.2946
loop_
_atom_site_label
_atom_site_type_symbol
_atom_site_fract_x
_atom_site_fract_y
_atom_site_fract_z
_atom_type_partial_charge
H0 H 0.06416 0.49229 0.20686 0.0
H1 H 0.1736 0.63044 0.39155 0.0
H2 H 0.00126 0.46783 0.29295 0.0
H3 H 0.97126 0.44754 0.2675 0.0
H4 H 0.95725 0.50936 0.26595 0.0
H5 H 0.98698 0.52927 0.29167 0.0
H6 H 0.06263 0.49752 0.28452 0.0
H7 H 0.0666 0.49103 0.25281 0.0
H8 H 0.03866 0.54112 0.24003 0.0
H9 H 0.03514 0.5477 0.27176 0.0
H10 H 0.10674 0.53017 0.31372 0.0
H11 H 0.15194 0.55679 0.30315 0.0
H12 H 0.13123 0.60844 0.28112 0.0
H13 H 0.08643 0.58197 0.29178 0.0
H14 H 0.08229 0.52195 0.35261 0.0
H15 H 0.11732 0.54446 0.37502 0.0
H16 H 0.1308 0.61567 0.35568 0.0
H17 H 0.0955 0.59286 0.33345 0.0
H18 H 0.02665 0.49859 0.36248 0.0
H19 H 0.03864 0.51001 0.39383 0.0
H20 H 0.05614 0.5857 0.38357 0.0
H21 H 0.04472 0.57421 0.35219 0.0
H22 H 0.97228 0.47068 0.32662 0.0
H23 H 0.92795 0.45871 0.3357 0.0
H24 H 0.95547 0.53739 0.34701 0.0
H25 H 0.99877 0.54913 0.33657 0.0
O26 O 0.0629 0.49547 0.21933 0.0
O27 O 0.04848 0.52139 0.2135 0.0
O28 O 0.15257 0.58399 0.39183 0.0
O29 O 0.16025 0.62111 0.38245 0.0
C30 C 0.01901 0.51478 0.3064 0.0
C31 C 0.0447 0.5257 0.29961 0.0
C32 C 0.06677 0.53966 0.31097 0.0
C33 C 0.06326 0.54191 0.32922 0.0
C34 C 0.03763 0.53176 0.33593 0.0
C35 C 0.01542 0.51861 0.32446 0.0
C36 C 0.99627 0.5 0.29409 0.0
C37 C 0.99105 0.47656 0.28744 0.0
C38 C 0.97418 0.46518 0.27279 0.0
C39 C 0.96227 0.47708 0.26452 0.0
C40 C 0.96603 0.49966 0.27207 0.0
C41 C 0.98293 0.51104 0.28678 0.0
C42 C 0.04846 0.52294 0.2804 0.0
C43 C 0.05759 0.50722 0.27484 0.0
C44 C 0.05974 0.50348 0.25672 0.0
C45 C 0.05281 0.51545 0.24388 0.0
C46 C 0.04407 0.53154 0.24956 0.0
C47 C 0.04202 0.53532 0.26767 0.0
C48 C 0.09343 0.55422 0.30348 0.0
C49 C 0.11201 0.54712 0.30646 0.0
C50 C 0.13769 0.56225 0.3004 0.0
C51 C 0.14507 0.58475 0.29146 0.0
C52 C 0.12616 0.59139 0.28818 0.0
C53 C 0.10056 0.57623 0.29413 0.0
C54 C 0.08644 0.55579 0.34141 0.0
C55 C 0.09304 0.54242 0.35312 0.0
C56 C 0.11299 0.55532 0.36594 0.0
C57 C 0.1268 0.58188 0.36719 0.0
C58 C 0.12054 0.59523 0.3551 0.0
C59 C 0.10052 0.58228 0.34232 0.0
C60 C 0.03492 0.53559 0.35509 0.0
C61 C 0.03187 0.51726 0.36719 0.0
C62 C 0.03885 0.52389 0.3851 0.0
C63 C 0.04887 0.54893 0.39108 0.0
C64 C 0.04897 0.5664 0.37927 0.0
C65 C 0.04209 0.55978 0.3614 0.0
C66 C 0.98883 0.51078 0.331 0.0
C67 C 0.96859 0.48527 0.33098 0.0
C68 C 0.94332 0.47847 0.33634 0.0
C69 C 0.93794 0.49706 0.34204 0.0
C70 C 0.95855 0.52253 0.34235 0.0
C71 C 0.98355 0.5293 0.33668 0.0
C72 C 0.05458 0.51103 0.22465 0.0
C73 C 0.14733 0.59563 0.38122 0.0
H74 H 0.52396 0.0695 0.37679 0.0
H75 H 0.49239 0.15885 0.56208 0.0
H76 H 0.49799 0.00415 0.46344 0.0
H77 H 0.4925 0.97687 0.43794 0.0
H78 H 0.41008 0.95236 0.43438 0.0
H79 H 0.41578 0.9797 0.4601 0.0
H80 H 0.52062 0.06239 0.45428 0.0
H81 H 0.53 0.06921 0.42256 0.0
H82 H 0.44669 0.03275 0.41074 0.0
H83 H 0.43764 0.02636 0.44251 0.0
H84 H 0.52824 0.10023 0.48838 0.0
H85 H 0.54664 0.14305 0.47764 0.0
H86 H 0.47483 0.11879 0.44743 0.0
H87 H 0.45587 0.07659 0.45958 0.0
H88 H 0.51709 0.07589 0.52358 0.0
H89 H 0.52861 0.10943 0.54573 0.0
H90 H 0.46334 0.11578 0.52706 0.0
H91 H 0.45179 0.08191 0.50512 0.0
H92 H 0.49381 0.01628 0.52583 0.0
H93 H 0.50276 0.02248 0.55779 0.0
H94 H 0.44463 0.04396 0.563 0.0
H95 H 0.43485 0.03638 0.53111 0.0
H96 H 0.47705 0.97815 0.49506 0.0
H97 H 0.4553 0.93467 0.5056 0.0
H98 H 0.38769 0.93907 0.52006 0.0
H99 H 0.40955 0.98246 0.50943 0.0
O100 O 0.51983 0.06685 0.38927 0.0
O101 O 0.47679 0.04793 0.3839 0.0
O102 O 0.52232 0.14237 0.56192 0.0
O103 O 0.48851 0.14582 0.55324 0.0
C104 C 0.46218 0.01427 0.4763 0.0
C105 C 0.47287 0.03903 0.46988 0.0
C106 C 0.47926 0.05931 0.48176 0.0
C107 C 0.47557 0.05487 0.50017 0.0
C108 C 0.46474 0.03001 0.50662 0.0
C109 C 0.45757 0.0096 0.49463 0.0
C110 C 0.45725 0.99375 0.46361 0.0
C111 C 0.47859 0.99226 0.4575 0.0
C112 C 0.47541 0.97671 0.44294 0.0
C113 C 0.45089 0.96263 0.43414 0.0
C114 C 0.42922 0.96317 0.44087 0.0
C115 C 0.43236 0.97853 0.45561 0.0
C116 C 0.47847 0.04385 0.45065 0.0
C117 C 0.50446 0.05604 0.44481 0.0
C118 C 0.50974 0.05984 0.42669 0.0
C119 C 0.48909 0.05146 0.4141 0.0
C120 C 0.46305 0.03939 0.42006 0.0
C121 C 0.45781 0.03568 0.43819 0.0
C122 C 0.49061 0.08532 0.47492 0.0
C123 C 0.51636 0.1043 0.47967 0.0
C124 C 0.527 0.12873 0.47325 0.0
C125 C 0.51233 0.13456 0.46156 0.0
C126 C 0.48661 0.11528 0.45665 0.0
C127 C 0.47579 0.09101 0.46341 0.0
C128 C 0.48352 0.07639 0.51282 0.0
C129 C 0.50534 0.08458 0.52428 0.0
C130 C 0.51188 0.10375 0.53691 0.0
C131 C 0.49683 0.11524 0.53821 0.0
C132 C 0.47529 0.10729 0.52645 0.0
C133 C 0.46871 0.08803 0.51386 0.0
C134 C 0.46396 0.02624 0.52612 0.0
C135 C 0.48219 0.02123 0.53398 0.0
C136 C 0.48757 0.02519 0.55221 0.0
C137 C 0.47497 0.03446 0.56284 0.0
C138 C 0.45473 0.03687 0.55521 0.0
C139 C 0.44912 0.03258 0.53698 0.0
C140 C 0.44476 0.98337 0.50128 0.0
C141 C 0.45746 0.96963 0.50037 0.0
C142 C 0.44502 0.94482 0.5064 0.0
C143 C 0.41973 0.93339 0.51363 0.0
C144 C 0.40726 0.9474 0.51475 0.0
C145 C 0.41965 0.97213 0.50861 0.0
C146 C 0.49475 0.05527 0.39485 0.0
C147 C 0.50342 0.13529 0.55184 0.0
H148 H 0.60479 0.53272 0.75716 0.0
H149 H 0.54958 0.41935 0.5678 0.0
H150 H 0.56873 0.57778 0.67639 0.0
H151 H 0.56396 0.59829 0.70282 0.0
H152 H 0.48166 0.53981 0.70467 0.0
H153 H 0.48652 0.52022 0.67777 0.0
H154 H 0.59284 0.53987 0.68055 0.0
H155 H 0.60573 0.54072 0.71167 0.0
H156 H 0.52372 0.49784 0.72574 0.0
H157 H 0.51113 0.49685 0.69455 0.0
H158 H 0.59304 0.50532 0.64548 0.0
H159 H 0.60436 0.47365 0.65271 0.0
H160 H 0.53268 0.43262 0.68244 0.0
H161 H 0.52071 0.46318 0.67395 0.0
H162 H 0.58021 0.52646 0.61067 0.0
H163 H 0.58836 0.50472 0.58655 0.0
H164 H 0.52517 0.433 0.60505 0.0
H165 H 0.51693 0.45504 0.62895 0.0
H166 H 0.55526 0.5618 0.61027 0.0
H167 H 0.55633 0.56261 0.5778 0.0
H168 H 0.49725 0.48281 0.57571 0.0
H169 H 0.49527 0.48271 0.60799 0.0
H170 H 0.54022 0.58308 0.64436 0.0
H171 H 0.51373 0.60147 0.63602 0.0
H172 H 0.44779 0.52661 0.62366 0.0
H173 H 0.4743 0.50855 0.63194 0.0
O174 O 0.59926 0.532 0.74491 0.0
O175 O 0.55682 0.51008 0.75145 0.0
O176 O 0.5791 0.46577 0.56829 0.0
O177 O 0.547 0.42838 0.57737 0.0
C178 C 0.53217 0.53286 0.66148 0.0
C179 C 0.54345 0.51852 0.66647 0.0
C180 C 0.54761 0.50432 0.65354 0.0
C181 C 0.54207 0.50583 0.63545 0.0
C182 C 0.53054 0.52002 0.63052 0.0
C183 C 0.52479 0.53287 0.64361 0.0
C184 C 0.52798 0.54755 0.67528 0.0
C185 C 0.54954 0.56988 0.68227 0.0
C186 C 0.54682 0.58136 0.69747 0.0
C187 C 0.52253 0.57047 0.70607 0.0
C188 C 0.50059 0.54887 0.69833 0.0
C189 C 0.50329 0.53759 0.68299 0.0
C190 C 0.55108 0.51848 0.68534 0.0
C191 C 0.57771 0.53061 0.69038 0.0
C192 C 0.585 0.5311 0.70816 0.0
C193 C 0.56575 0.51943 0.72121 0.0
C194 C 0.53904 0.5071 0.71604 0.0
C195 C 0.5318 0.50657 0.69826 0.0
C196 C 0.55597 0.48651 0.6591 0.0
C197 C 0.57978 0.48939 0.65348 0.0
C198 C 0.58631 0.47136 0.65778 0.0
C199 C 0.56934 0.45033 0.66805 0.0
C200 C 0.54595 0.44811 0.67413 0.0
C201 C 0.53923 0.46582 0.66954 0.0
C202 C 0.54801 0.49232 0.62156 0.0
C203 C 0.56822 0.50605 0.60953 0.0
C204 C 0.57282 0.49358 0.59576 0.0
C205 C 0.55738 0.4671 0.59385 0.0
C206 C 0.5374 0.45339 0.60613 0.0
C207 C 0.53273 0.46591 0.61984 0.0
C208 C 0.5256 0.52206 0.61143 0.0
C209 C 0.54179 0.54479 0.60272 0.0
C210 C 0.5426 0.54511 0.58418 0.0
C211 C 0.52744 0.52263 0.57412 0.0
C212 C 0.50918 0.50054 0.58293 0.0
C213 C 0.5081 0.50035 0.60143 0.0
C214 C 0.50919 0.54448 0.63871 0.0
C215 C 0.52002 0.57072 0.63991 0.0
C216 C 0.50486 0.58116 0.63519 0.0
C217 C 0.47871 0.56551 0.62907 0.0
C218 C 0.46799 0.53923 0.62801 0.0
C219 C 0.48307 0.52886 0.6328 0.0
C220 C 0.57356 0.52016 0.74011 0.0
C221 C 0.56191 0.45381 0.57906 0.0
H222 H 0.03474 0.49169 0.94095 0.0
H223 H 0.18282 0.53478 0.76752 0.0
H224 H 0.98793 0.49121 0.85161 0.0
H225 H 0.95779 0.47348 0.8764 0.0
H226 H 0.94481 0.3996 0.86352 0.0
H227 H 0.97468 0.41751 0.8385 0.0
H228 H 0.04554 0.51589 0.8654 0.0
H229 H 0.0442 0.5134 0.89786 0.0
H230 H 0.01949 0.43433 0.89372 0.0
H231 H 0.02118 0.43719 0.86129 0.0
H232 H 0.09381 0.53759 0.83895 0.0
H233 H 0.13773 0.55259 0.85156 0.0
H234 H 0.118 0.47509 0.85633 0.0
H235 H 0.074 0.46048 0.8444 0.0
H236 H 0.07752 0.5354 0.79647 0.0
H237 H 0.11848 0.55557 0.77988 0.0
H238 H 0.1276 0.492 0.79043 0.0
H239 H 0.08633 0.47181 0.80662 0.0
H240 H 0.02005 0.51025 0.78388 0.0
H241 H 0.03219 0.52098 0.7528 0.0
H242 H 0.05294 0.46369 0.74958 0.0
H243 H 0.03987 0.45263 0.78028 0.0
H244 H 0.9689 0.48126 0.81452 0.0
H245 H 0.92338 0.45604 0.80344 0.0
H246 H 0.9398 0.40107 0.78125 0.0
H247 H 0.98491 0.42595 0.7929 0.0
O248 O 0.03578 0.49242 0.92811 0.0
O249 O 0.02308 0.45183 0.92524 0.0
O250 O 0.15903 0.55769 0.76665 0.0
O251 O 0.16636 0.52708 0.77375 0.0
C252 C 0.00753 0.4676 0.83251 0.0
C253 C 0.03212 0.47781 0.84139 0.0
C254 C 0.05536 0.48887 0.83162 0.0
C255 C 0.05425 0.4901 0.81296 0.0
C256 C 0.02963 0.47956 0.80397 0.0
C257 C 0.00617 0.4682 0.81376 0.0
C258 C 0.98349 0.45564 0.84334 0.0
C259 C 0.97773 0.47103 0.85372 0.0
C260 C 0.96082 0.46093 0.86801 0.0
C261 C 0.94944 0.43527 0.87215 0.0
C262 C 0.95327 0.41942 0.86066 0.0
C263 C 0.9702 0.42958 0.84631 0.0
C264 C 0.0334 0.47671 0.86106 0.0
C265 C 0.04014 0.49814 0.87156 0.0
C266 C 0.03923 0.49662 0.89009 0.0
C267 C 0.03159 0.47362 0.89839 0.0
C268 C 0.02538 0.45231 0.88776 0.0
C269 C 0.02637 0.45389 0.86925 0.0
C270 C 0.0809 0.49801 0.84081 0.0
C271 C 0.09896 0.52395 0.84304 0.0
C272 C 0.12404 0.53243 0.85009 0.0
C273 C 0.13147 0.51505 0.85486 0.0
C274 C 0.11287 0.48901 0.85309 0.0
C275 C 0.08776 0.48059 0.84619 0.0
C276 C 0.07904 0.50221 0.80279 0.0
C277 C 0.08834 0.52583 0.7951 0.0
C278 C 0.11175 0.53731 0.78566 0.0
C279 C 0.12638 0.52544 0.78391 0.0
C280 C 0.11689 0.50171 0.7916 0.0
C281 C 0.09337 0.49016 0.80089 0.0
C282 C 0.02917 0.48073 0.78431 0.0
C283 C 0.02616 0.49935 0.77618 0.0
C284 C 0.0335 0.50569 0.75852 0.0
C285 C 0.04402 0.49353 0.74876 0.0
C286 C 0.04476 0.47335 0.75656 0.0
C287 C 0.03728 0.46695 0.77415 0.0
C288 C 0.98014 0.45536 0.80457 0.0
C289 C 0.96271 0.46395 0.80704 0.0
C290 C 0.93677 0.44957 0.80064 0.0
C291 C 0.9279 0.4264 0.79165 0.0
C292 C 0.94589 0.4186 0.78841 0.0
C293 C 0.97175 0.43291 0.79487 0.0
C294 C 0.0299 0.47187 0.91804 0.0
C295 C 0.15153 0.53777 0.77423 0.0
H296 H 0.4157 0.9704 0.87276 0.0
H297 H 0.43921 0.8644 0.05541 0.0
H298 H 0.45633 0.04135 0.96613 0.0
H299 H 0.47175 0.07357 0.94314 0.0
H300 H 0.53714 0.06328 0.93332 0.0
H301 H 0.52212 0.0321 0.95664 0.0
H302 H 0.41955 0.98012 0.95035 0.0
H303 H 0.4105 0.97484 0.91826 0.0
H304 H 0.4858 0.98187 0.9099 0.0
H305 H 0.49454 0.98712 0.94199 0.0
H306 H 0.40639 0.924 0.97617 0.0
H307 H 0.39657 0.88179 0.96628 0.0
H308 H 0.47875 0.91317 0.95503 0.0
H309 H 0.48832 0.95474 0.96502 0.0
H310 H 0.41487 0.94697 0.01689 0.0
H311 H 0.40172 0.91193 0.03724 0.0
H312 H 0.47227 0.9115 0.0248 0.0
H313 H 0.48523 0.94664 0.00462 0.0
H314 H 0.4449 0.99891 0.03185 0.0
H315 H 0.45054 0.99394 0.06354 0.0
H316 H 0.52117 0.99315 0.05214 0.0
H317 H 0.51568 0.99883 0.02065 0.0
H318 H 0.47305 0.04911 0.01222 0.0
H319 H 0.50555 0.09254 0.02241 0.0
H320 H 0.56772 0.08455 0.00048 0.0
H321 H 0.53541 0.04148 0.99059 0.0
O322 O 0.41959 0.97235 0.8854 0.0
O323 O 0.45798 0.97496 0.88189 0.0
O324 O 0.40792 0.8792 0.05337 0.0
O325 O 0.44382 0.87811 0.04735 0.0
C326 C 0.47725 0.0128 0.97511 0.0
C327 C 0.46327 0.98801 0.96784 0.0
C328 C 0.45532 0.96721 0.97896 0.0
C329 C 0.45924 0.97104 0.99751 0.0
C330 C 0.47311 0.99584 0.00483 0.0
C331 C 0.48286 0.01674 0.99355 0.0
C332 C 0.48815 0.03448 0.96298 0.0
C333 C 0.47429 0.04657 0.95923 0.0
C334 C 0.48301 0.06477 0.94601 0.0
C335 C 0.50566 0.07099 0.9363 0.0
C336 C 0.51993 0.05938 0.94068 0.0
C337 C 0.5113 0.0414 0.95393 0.0
C338 C 0.45762 0.98389 0.94845 0.0
C339 C 0.43397 0.98037 0.94155 0.0
C340 C 0.4289 0.97743 0.92323 0.0
C341 C 0.44744 0.97794 0.91151 0.0
C342 C 0.47109 0.98135 0.91854 0.0
C343 C 0.47611 0.98429 0.93686 0.0
C344 C 0.448 0.94236 0.9711 0.0
C345 C 0.42207 0.9217 0.97126 0.0
C346 C 0.41654 0.89773 0.96564 0.0
C347 C 0.43698 0.89429 0.96007 0.0
C348 C 0.4627 0.91526 0.95946 0.0
C349 C 0.46815 0.93903 0.96497 0.0
C350 C 0.45087 0.94916 0.00926 0.0
C351 C 0.42735 0.93916 0.01854 0.0
C352 C 0.41994 0.91921 0.03016 0.0
C353 C 0.43596 0.9089 0.03264 0.0
C354 C 0.45947 0.91895 0.02319 0.0
C355 C 0.46688 0.93895 0.01162 0.0
C356 C 0.47994 0.99932 0.02404 0.0
C357 C 0.46207 0.99857 0.03634 0.0
C358 C 0.46516 0.9954 0.05438 0.0
C359 C 0.4861 0.99278 0.06036 0.0
C360 C 0.50497 0.99534 0.04807 0.0
C361 C 0.5019 0.9986 0.03006 0.0
C362 C 0.50196 0.04241 0.00052 0.0
C363 C 0.49372 0.05683 0.00972 0.0
C364 C 0.51222 0.0815 0.0155 0.0
C365 C 0.53905 0.09197 0.01195 0.0
C366 C 0.54712 0.07715 0.00304 0.0
C367 C 0.52875 0.05256 0.99746 0.0
C368 C 0.44209 0.97501 0.89204 0.0
C369 C 0.42829 0.88785 0.04508 0.0
H370 H 0.57282 0.54019 0.03572 0.0
H371 H 0.65124 0.49661 0.22424 0.0
H372 H 0.53679 0.56267 0.12279 0.0
H373 H 0.52684 0.5818 0.09814 0.0
H374 H 0.60145 0.65127 0.10697 0.0
H375 H 0.61131 0.6317 0.1317 0.0
H376 H 0.55718 0.52839 0.11244 0.0
H377 H 0.55743 0.52603 0.07994 0.0
H378 H 0.62934 0.59922 0.07976 0.0
H379 H 0.62889 0.60121 0.11228 0.0
H380 H 0.57314 0.50434 0.13561 0.0
H381 H 0.59266 0.4801 0.12487 0.0
H382 H 0.66991 0.54741 0.12923 0.0
H383 H 0.65026 0.57157 0.13951 0.0
H384 H 0.56263 0.51206 0.18039 0.0
H385 H 0.57273 0.4878 0.201 0.0
H386 H 0.65579 0.54202 0.19561 0.0
H387 H 0.64536 0.56623 0.17519 0.0
H388 H 0.54359 0.54917 0.19072 0.0
H389 H 0.54088 0.54392 0.22305 0.0
H390 H 0.62567 0.59005 0.2274 0.0
H391 H 0.628 0.59565 0.19533 0.0
H392 H 0.53318 0.58037 0.15712 0.0
H393 H 0.52113 0.61051 0.16742 0.0
H394 H 0.59908 0.6576 0.19055 0.0
H395 H 0.61132 0.62806 0.17922 0.0
O396 O 0.5735 0.54119 0.04859 0.0
O397 O 0.61039 0.5789 0.04922 0.0
O398 O 0.60374 0.47957 0.21947 0.0
O399 O 0.64669 0.50576 0.21607 0.0
C400 C 0.58256 0.58246 0.1413 0.0
C401 C 0.59158 0.56715 0.13419 0.0
C402 C 0.59907 0.55409 0.14565 0.0
C403 C 0.5969 0.55574 0.16418 0.0
C404 C 0.58808 0.57123 0.17129 0.0
C405 C 0.58113 0.58484 0.15987 0.0
C406 C 0.57468 0.59587 0.12897 0.0
C407 C 0.55062 0.58225 0.11972 0.0
C408 C 0.54497 0.59325 0.10569 0.0
C409 C 0.5634 0.61806 0.10065 0.0
C410 C 0.58698 0.6321 0.11055 0.0
C411 C 0.59254 0.62107 0.1247 0.0
C412 C 0.59309 0.56488 0.11465 0.0
C413 C 0.57315 0.54371 0.10535 0.0
C414 C 0.57328 0.54249 0.08679 0.0
C415 C 0.59337 0.56247 0.07725 0.0
C416 C 0.61357 0.58351 0.0867 0.0
C417 C 0.61342 0.58467 0.10525 0.0
C418 C 0.61037 0.53961 0.13832 0.0
C419 C 0.59423 0.51382 0.13403 0.0
C420 C 0.60534 0.50009 0.12791 0.0
C421 C 0.63274 0.51195 0.12635 0.0
C422 C 0.64876 0.53785 0.13048 0.0
C423 C 0.63761 0.55163 0.13627 0.0
C424 C 0.60327 0.54073 0.1762 0.0
C425 C 0.58298 0.51858 0.18363 0.0
C426 C 0.58881 0.5048 0.19541 0.0
C427 C 0.61509 0.51293 0.1999 0.0
C428 C 0.63536 0.53516 0.19237 0.0
C429 C 0.62949 0.54897 0.18065 0.0
C430 C 0.58599 0.57268 0.19078 0.0
C431 C 0.56144 0.5588 0.1988 0.0
C432 C 0.55996 0.55567 0.2172 0.0
C433 C 0.58305 0.56643 0.22777 0.0
C434 C 0.60748 0.58182 0.21972 0.0
C435 C 0.6089 0.58494 0.20138 0.0
C436 C 0.57317 0.60212 0.1673 0.0
C437 C 0.54764 0.59726 0.16436 0.0
C438 C 0.54073 0.6144 0.17043 0.0
C439 C 0.55915 0.63659 0.1798 0.0
C440 C 0.58453 0.64099 0.18312 0.0
C441 C 0.5915 0.62399 0.17683 0.0
C442 C 0.59305 0.56143 0.05752 0.0
C443 C 0.62138 0.49835 0.2124 0.0
Mn444 Mn 0.63516 0.43453 0.40659 0.0
Mn445 Mn 0.67464 0.49592 0.41894 0.0
C446 C 0.61991 0.45288 0.42589 0.0
C447 C 0.62156 0.39233 0.41033 0.0
C448 C 0.64477 0.47905 0.38374 0.0
O449 O 0.67115 0.44251 0.39871 0.0
O450 O 0.69602 0.48268 0.40883 0.0
C451 C 0.70278 0.48823 0.44852 0.0
N452 N 0.68776 0.49742 0.44249 0.0
C453 C 0.68723 0.51363 0.4716 0.0
C454 C 0.70282 0.50446 0.47811 0.0
C455 C 0.71057 0.49166 0.46652 0.0
C456 C 0.68001 0.50958 0.45355 0.0
H457 H 0.70873 0.47833 0.43966 0.0
C458 C 0.69329 0.46283 0.4012 0.0
O459 O 0.61808 0.40026 0.39524 0.0
O460 O 0.63317 0.40887 0.42312 0.0
N461 N 0.6572 0.51173 0.429 0.0
C462 C 0.64243 0.51964 0.42057 0.0
C463 C 0.63339 0.53309 0.43024 0.0
C464 C 0.63992 0.53857 0.44839 0.0
C465 C 0.65549 0.5306 0.4567 0.0
C466 C 0.66418 0.51751 0.44634 0.0
H467 H 0.63754 0.5157 0.40658 0.0
O468 O 0.60362 0.4321 0.41735 0.0
O469 O 0.64487 0.46183 0.42351 0.0
O470 O 0.63322 0.45529 0.38628 0.0
O471 O 0.66113 0.49577 0.39486 0.0
C472 C 0.66268 0.53507 0.47487 0.0
C473 C 0.67843 0.52648 0.48234 0.0
H474 H 0.70887 0.50707 0.49198 0.0
H475 H 0.72253 0.48446 0.47145 0.0
H476 H 0.62147 0.53928 0.4237 0.0
H477 H 0.63302 0.54905 0.45578 0.0
H478 H 0.65607 0.54497 0.48324 0.0
H479 H 0.68368 0.52988 0.49635 0.0
Mn480 Mn 0.24201 0.63049 0.57063 0.0
Mn481 Mn 0.21896 0.56918 0.56084 0.0
C482 C 0.20741 0.609 0.55028 0.0
C483 C 0.27215 0.67308 0.56541 0.0
C484 C 0.207 0.58742 0.59514 0.0
O485 O 0.27088 0.62506 0.58023 0.0
O486 O 0.25591 0.58559 0.5697 0.0
C487 C 0.25295 0.57459 0.5307 0.0
N488 N 0.2285 0.56562 0.53731 0.0
C489 C 0.20795 0.54302 0.50999 0.0
C490 C 0.23291 0.5518 0.50294 0.0
C491 C 0.2555 0.56788 0.51328 0.0
C492 C 0.20665 0.55081 0.52729 0.0
H493 H 0.27035 0.5866 0.53871 0.0
C494 C 0.27354 0.60613 0.57744 0.0
O495 O 0.2604 0.66576 0.58053 0.0
O496 O 0.26677 0.65562 0.55353 0.0
N497 N 0.18345 0.55087 0.55197 0.0
C498 C 0.16084 0.5426 0.56114 0.0
C499 C 0.13646 0.52659 0.55261 0.0
C500 C 0.13556 0.51868 0.53492 0.0
C501 C 0.15908 0.52667 0.52597 0.0
C502 C 0.1828 0.54291 0.53507 0.0
H503 H 0.16134 0.5482 0.57483 0.0
O504 O 0.2119 0.62977 0.55797 0.0
O505 O 0.22373 0.60182 0.55446 0.0
O506 O 0.2183 0.61073 0.59124 0.0
O507 O 0.20742 0.57082 0.58513 0.0
C508 C 0.15991 0.5185 0.50859 0.0
C509 C 0.18431 0.52646 0.50068 0.0
H510 H 0.23499 0.54625 0.48965 0.0
H511 H 0.27482 0.57479 0.50791 0.0
H512 H 0.11841 0.5202 0.55971 0.0
H513 H 0.11672 0.50615 0.52843 0.0
H514 H 0.14189 0.50578 0.50127 0.0
H515 H 0.18461 0.51952 0.48747 0.0
Mn516 Mn 0.60539 0.21499 0.73625 0.0
Mn517 Mn 0.63513 0.18144 0.7405 0.0
C518 C 0.58879 0.17702 0.72068 0.0
C519 C 0.60251 0.24756 0.72364 0.0
C520 C 0.59935 0.18273 0.76828 0.0
O521 O 0.64092 0.24043 0.74766 0.0
O522 O 0.65995 0.21715 0.74758 0.0
C523 C 0.67479 0.20561 0.71248 0.0
N524 N 0.65446 0.18445 0.71964 0.0
C525 C 0.65777 0.15778 0.69768 0.0
C526 C 0.67883 0.17926 0.69009 0.0
C527 C 0.68728 0.2033 0.69748 0.0
C528 C 0.64594 0.16129 0.71251 0.0
H529 H 0.68145 0.2241 0.71822 0.0
C530 C 0.66057 0.23785 0.75045 0.0
O531 O 0.59299 0.23892 0.73915 0.0
O532 O 0.61374 0.23726 0.71531 0.0
N533 N 0.61369 0.1465 0.73403 0.0
C534 C 0.59239 0.12788 0.74248 0.0
C535 C 0.58137 0.10269 0.73669 0.0
C536 C 0.59258 0.09693 0.72246 0.0
C537 C 0.61438 0.11645 0.71389 0.0
C538 C 0.6245 0.14116 0.72025 0.0
H539 H 0.58405 0.13218 0.75365 0.0
O540 O 0.57436 0.18677 0.72341 0.0
O541 O 0.61301 0.1903 0.7266 0.0
O542 O 0.59275 0.19617 0.75959 0.0
O543 O 0.6156 0.17678 0.7626 0.0
C544 C 0.62661 0.11238 0.69941 0.0
C545 C 0.64806 0.13302 0.69115 0.0
H546 H 0.6886 0.17753 0.67858 0.0
H547 H 0.70347 0.21998 0.69168 0.0
H548 H 0.56451 0.08771 0.74333 0.0
H549 H 0.58439 0.07744 0.71837 0.0
H550 H 0.61978 0.09347 0.69455 0.0
H551 H 0.65701 0.12962 0.67984 0.0
Mn552 Mn 0.45093 0.64166 0.90729 0.0
Mn553 Mn 0.43781 0.58307 0.9158 0.0
C554 C 0.47545 0.63619 0.92861 0.0
C555 C 0.44129 0.67307 0.91199 0.0
C556 C 0.46531 0.61193 0.88265 0.0
O557 O 0.41494 0.61861 0.896 0.0
O558 O 0.40527 0.58063 0.90613 0.0
C559 C 0.39985 0.56891 0.94492 0.0
N560 N 0.42303 0.57264 0.9388 0.0
C561 C 0.43256 0.56002 0.96663 0.0
C562 C 0.4087 0.55589 0.9732 0.0
C563 C 0.39232 0.56043 0.96231 0.0
C564 C 0.43898 0.5684 0.94917 0.0
H565 H 0.38723 0.57243 0.9366 0.0
C566 C 0.39906 0.595 0.89806 0.0
O567 O 0.45217 0.67188 0.89743 0.0
O568 O 0.43609 0.65604 0.92378 0.0
N569 N 0.46774 0.58318 0.92549 0.0
C570 C 0.49099 0.59003 0.91765 0.0
C571 C 0.51013 0.58776 0.92707 0.0
C572 C 0.50511 0.57833 0.94439 0.0
C573 C 0.481 0.57132 0.95216 0.0
C574 C 0.46266 0.57399 0.94213 0.0
H575 H 0.49495 0.59725 0.90433 0.0
O576 O 0.48448 0.65816 0.92151 0.0
O577 O 0.45227 0.61838 0.92312 0.0
O578 O 0.46784 0.6329 0.88736 0.0
O579 O 0.45335 0.59196 0.89189 0.0
C580 C 0.4746 0.56218 0.96956 0.0
C581 C 0.45045 0.55664 0.97683 0.0
H582 H 0.40288 0.54948 0.98664 0.0
H583 H 0.37394 0.55742 0.96731 0.0
H584 H 0.52872 0.59328 0.921 0.0
H585 H 0.51997 0.57673 0.95165 0.0
H586 H 0.48833 0.55978 0.9776 0.0
H587 H 0.44602 0.55014 0.99037 0.0
Mn588 Mn 0.80373 0.37895 0.07164 0.0
Mn589 Mn 0.82754 0.34122 0.07962 0.0
C590 C 0.83926 0.39284 0.0912 0.0
C591 C 0.77391 0.39143 0.07773 0.0
C592 C 0.8351 0.36877 0.04499 0.0
O593 O 0.77439 0.34428 0.06304 0.0
O594 O 0.7896 0.3199 0.07292 0.0
C595 C 0.7979 0.31421 0.11144 0.0
N596 N 0.82127 0.32982 0.10356 0.0
C597 C 0.84553 0.3311 0.12973 0.0
C598 C 0.82176 0.31464 0.13799 0.0
C599 C 0.79783 0.30638 0.12889 0.0
C600 C 0.84438 0.33823 0.11232 0.0
H601 H 0.77949 0.30755 0.10439 0.0
C602 C 0.77158 0.32275 0.06593 0.0
O603 O 0.78451 0.39482 0.06223 0.0
O604 O 0.7804 0.38052 0.08962 0.0
N605 N 0.864 0.35955 0.08641 0.0
C606 C 0.88525 0.37395 0.07612 0.0
C607 C 0.91069 0.3836 0.08325 0.0
C608 C 0.91402 0.37813 0.10081 0.0
C609 C 0.89186 0.36288 0.11103 0.0
C610 C 0.86699 0.35377 0.10319 0.0
H611 H 0.88287 0.37796 0.06254 0.0
O612 O 0.83463 0.4088 0.08343 0.0
O613 O 0.82298 0.36924 0.08692 0.0
O614 O 0.82536 0.38176 0.05015 0.0
O615 O 0.83563 0.35218 0.05462 0.0
C616 C 0.89347 0.35628 0.12865 0.0
C617 C 0.87032 0.34039 0.13799 0.0
H618 H 0.82166 0.30822 0.15134 0.0
H619 H 0.77939 0.2938 0.13525 0.0
H620 H 0.92768 0.39516 0.07522 0.0
H621 H 0.93367 0.38563 0.10627 0.0
H622 H 0.91242 0.36319 0.1351 0.0
H623 H 0.87179 0.33528 0.15149 0.0
Mn624 Mn 0.43958 0.82128 0.24379 0.0
Mn625 Mn 0.50303 0.86346 0.25461 0.0
C626 C 0.4495 0.85116 0.2658 0.0
C627 C 0.40173 0.7818 0.24677 0.0
C628 C 0.4757 0.86749 0.2217 0.0
O629 O 0.45894 0.80557 0.23309 0.0
O630 O 0.50057 0.83373 0.24199 0.0
C631 C 0.51212 0.83326 0.28073 0.0
N632 N 0.51191 0.85454 0.2767 0.0
C633 C 0.5268 0.87174 0.30627 0.0
C634 C 0.52731 0.85006 0.3107 0.0
C635 C 0.51991 0.83073 0.29788 0.0
C636 C 0.51905 0.87328 0.28892 0.0
H637 H 0.50637 0.81831 0.27094 0.0
C638 C 0.48329 0.81299 0.23422 0.0
O639 O 0.406 0.79473 0.23241 0.0
O640 O 0.41961 0.7917 0.25929 0.0
N641 N 0.50817 0.89284 0.26711 0.0
C642 C 0.50504 0.91178 0.26103 0.0
C643 C 0.51072 0.93219 0.27244 0.0
C644 C 0.51974 0.93301 0.2899 0.0
C645 C 0.52305 0.91342 0.29581 0.0
C646 C 0.51716 0.89361 0.28383 0.0
H647 H 0.49806 0.91122 0.24763 0.0
O648 O 0.42679 0.84021 0.25763 0.0
O649 O 0.4657 0.84411 0.26091 0.0
O650 O 0.45327 0.84799 0.22457 0.0
O651 O 0.49576 0.87471 0.2319 0.0
C652 C 0.53146 0.91253 0.31321 0.0
C653 C 0.53326 0.89167 0.31845 0.0
H654 H 0.53316 0.84797 0.32395 0.0
H655 H 0.52016 0.8139 0.30122 0.0
H656 H 0.50808 0.94721 0.26779 0.0
H657 H 0.52389 0.94867 0.2987 0.0
H658 H 0.53629 0.92765 0.32274 0.0
H659 H 0.53937 0.89103 0.33195 0.0
H660 H 0.17486 0.6356 0.29678 0.0
H661 H 0.2193 0.66452 0.28653 0.0
H662 H 0.22197 0.60171 0.26359 0.0
H663 H 0.17734 0.57249 0.2741 0.0
H664 H 0.26814 0.63498 0.27934 0.0
H665 H 0.21073 0.63884 0.23701 0.0
H666 H 0.1736 0.64268 0.2265 0.0
H667 H 0.21038 0.71757 0.24931 0.0
H668 H 0.24756 0.71404 0.2602 0.0
H669 H 0.36397 0.75337 0.2216 0.0
H670 H 0.32167 0.71452 0.22607 0.0
H671 H 0.34101 0.71707 0.28181 0.0
H672 H 0.38358 0.75532 0.27729 0.0
H673 H 0.28293 0.70849 0.24426 0.0
H674 H 0.30943 0.6598 0.29974 0.0
H675 H 0.34602 0.65376 0.30788 0.0
H676 H 0.37072 0.66441 0.25364 0.0
H677 H 0.33407 0.67015 0.24511 0.0
C678 C 0.18489 0.62795 0.28951 0.0
C679 C 0.17256 0.60186 0.286 0.0
C680 C 0.21027 0.64448 0.28367 0.0
C681 C 0.22372 0.63532 0.27397 0.0
C682 C 0.21185 0.60917 0.27097 0.0
C683 C 0.18643 0.59253 0.27697 0.0
C684 C 0.24996 0.65333 0.26679 0.0
C685 C 0.27143 0.651 0.27158 0.0
C686 C 0.25407 0.67376 0.25618 0.0
C687 C 0.23187 0.67611 0.2495 0.0
C688 C 0.21083 0.65607 0.23987 0.0
C689 C 0.18978 0.6582 0.23384 0.0
C690 C 0.18962 0.68034 0.23726 0.0
C691 C 0.21054 0.70043 0.24668 0.0
C692 C 0.23163 0.69839 0.25276 0.0
C693 C 0.35933 0.74541 0.23475 0.0
C694 C 0.37704 0.75739 0.2491 0.0
C695 C 0.33515 0.72323 0.23729 0.0
C696 C 0.32819 0.7127 0.25424 0.0
C697 C 0.34611 0.72445 0.26852 0.0
C698 C 0.3704 0.74644 0.26595 0.0
C699 C 0.30143 0.69075 0.25735 0.0
C700 C 0.27976 0.69233 0.2518 0.0
C701 C 0.29715 0.66934 0.26685 0.0
C702 C 0.31908 0.66558 0.27182 0.0
C703 C 0.32257 0.66071 0.28953 0.0
C704 C 0.34335 0.65737 0.29421 0.0
C705 C 0.36072 0.65876 0.28129 0.0
C706 C 0.35731 0.66342 0.26364 0.0
C707 C 0.33655 0.66675 0.25888 0.0
H708 H 0.37681 0.65619 0.28495 0.0
H709 H 0.1733 0.68195 0.23258 0.0
H710 H 0.56381 0.16844 0.45318 0.0
H711 H 0.5827 0.21183 0.44328 0.0
H712 H 0.50595 0.2029 0.44304 0.0
H713 H 0.48693 0.16007 0.45411 0.0
H714 H 0.54576 0.22632 0.40965 0.0
H715 H 0.53219 0.23229 0.47357 0.0
H716 H 0.53752 0.22438 0.50494 0.0
H717 H 0.62137 0.26455 0.49941 0.0
H718 H 0.61647 0.27232 0.4679 0.0
H719 H 0.57564 0.35183 0.39813 0.0
H720 H 0.55752 0.30749 0.40542 0.0
H721 H 0.62845 0.32807 0.4354 0.0
H722 H 0.64545 0.37262 0.42933 0.0
H723 H 0.592 0.2973 0.45335 0.0
H724 H 0.60933 0.29501 0.39177 0.0
H725 H 0.60804 0.30197 0.35966 0.0
H726 H 0.52384 0.25469 0.35892 0.0
H727 H 0.5246 0.2477 0.39108 0.0
C728 C 0.55089 0.1757 0.45131 0.0
C729 C 0.52377 0.16061 0.45462 0.0
C730 C 0.56174 0.20043 0.44544 0.0
C731 C 0.54565 0.21038 0.44243 0.0
C732 C 0.51858 0.19535 0.4452 0.0
C733 C 0.50776 0.1708 0.45143 0.0
C734 C 0.55732 0.23688 0.43704 0.0
C735 C 0.55566 0.24196 0.41914 0.0
C736 C 0.57102 0.25705 0.44939 0.0
C737 C 0.57394 0.25261 0.46835 0.0
C738 C 0.55173 0.2392 0.479 0.0
C739 C 0.55468 0.2348 0.49681 0.0
C740 C 0.57976 0.24389 0.50415 0.0
C741 C 0.60195 0.25748 0.4937 0.0
C742 C 0.5991 0.2619 0.47587 0.0
C743 C 0.58738 0.34674 0.40613 0.0
C744 C 0.6119 0.36546 0.41316 0.0
C745 C 0.57713 0.32137 0.4102 0.0
C746 C 0.59175 0.31416 0.42073 0.0
C747 C 0.61666 0.33299 0.42732 0.0
C748 C 0.62645 0.35843 0.42379 0.0
C749 C 0.58058 0.28728 0.42571 0.0
C750 C 0.58229 0.28195 0.44363 0.0
C751 C 0.56755 0.26692 0.41322 0.0
C752 C 0.56702 0.27102 0.39387 0.0
C753 C 0.59053 0.28623 0.38478 0.0
C754 C 0.58989 0.29016 0.36657 0.0
C755 C 0.56587 0.27883 0.35727 0.0
C756 C 0.54243 0.26348 0.36615 0.0
C757 C 0.54296 0.2595 0.38436 0.0
H758 H 0.56541 0.28191 0.34317 0.0
H759 H 0.58201 0.24047 0.51794 0.0
H760 H 0.44586 0.55227 0.60013 0.0
H761 H 0.41668 0.56746 0.59231 0.0
H762 H 0.44581 0.6187 0.63763 0.0
H763 H 0.47464 0.6029 0.6459 0.0
H764 H 0.39336 0.59397 0.6357 0.0
H765 H 0.46194 0.64148 0.59565 0.0
H766 H 0.49514 0.64967 0.57315 0.0
H767 H 0.43417 0.59985 0.53607 0.0
H768 H 0.40059 0.59104 0.55842 0.0
H769 H 0.3108 0.63894 0.60191 0.0
H770 H 0.351 0.64009 0.61153 0.0
H771 H 0.33255 0.57853 0.57511 0.0
H772 H 0.29253 0.57703 0.56561 0.0
H773 H 0.38555 0.61829 0.57437 0.0
H774 H 0.3186 0.56614 0.61701 0.0
H775 H 0.28576 0.55837 0.63972 0.0
H776 H 0.3454 0.61917 0.67212 0.0
H777 H 0.37853 0.62752 0.64945 0.0
C778 C 0.44608 0.56677 0.60846 0.0
C779 C 0.46247 0.57628 0.62369 0.0
C780 C 0.42959 0.57566 0.60386 0.0
C781 C 0.42926 0.59447 0.61425 0.0
C782 C 0.44584 0.60428 0.62936 0.0
C783 C 0.46242 0.59536 0.634 0.0
C784 C 0.41047 0.60264 0.60971 0.0
C785 C 0.39208 0.59991 0.62241 0.0
C786 C 0.40863 0.61023 0.59233 0.0
C787 C 0.42873 0.61549 0.57877 0.0
C788 C 0.45561 0.63212 0.58274 0.0
C789 C 0.4745 0.6369 0.57 0.0
C790 C 0.46678 0.62526 0.5532 0.0
C791 C 0.44013 0.60885 0.54909 0.0
C792 C 0.42115 0.60399 0.56178 0.0
C793 C 0.3154 0.62575 0.59591 0.0
C794 C 0.29836 0.6078 0.58307 0.0
C795 C 0.33833 0.62641 0.60143 0.0
C796 C 0.34469 0.60936 0.59404 0.0
C797 C 0.32804 0.5919 0.58094 0.0
C798 C 0.30506 0.59099 0.57561 0.0
C799 C 0.36812 0.60882 0.60018 0.0
C800 C 0.38732 0.61297 0.58777 0.0
C801 C 0.37083 0.60274 0.61783 0.0
C802 C 0.35094 0.59767 0.63145 0.0
C803 C 0.32465 0.578 0.6289 0.0
C804 C 0.306 0.57346 0.64178 0.0
C805 C 0.31347 0.58832 0.65733 0.0
C806 C 0.33963 0.60771 0.66005 0.0
C807 C 0.35835 0.61236 0.6472 0.0
H808 H 0.29901 0.58477 0.66729 0.0
H809 H 0.48144 0.62899 0.54336 0.0
H810 H 0.89781 0.37542 0.79547 0.0
H811 H 0.85153 0.34738 0.78754 0.0
H812 H 0.84722 0.41096 0.76937 0.0
H813 H 0.89393 0.43935 0.77719 0.0
H814 H 0.8042 0.37794 0.78956 0.0
H815 H 0.84963 0.37293 0.73921 0.0
H816 H 0.8829 0.36792 0.72357 0.0
H817 H 0.8498 0.29315 0.744 0.0
H818 H 0.81656 0.29784 0.75999 0.0
H819 H 0.67737 0.28838 0.74824 0.0
H820 H 0.7218 0.32433 0.7549 0.0
H821 H 0.74538 0.27298 0.77291 0.0
H822 H 0.70156 0.23725 0.76612 0.0
H823 H 0.77863 0.30455 0.74915 0.0
H824 H 0.73626 0.31107 0.80181 0.0
H825 H 0.70336 0.31598 0.81806 0.0
H826 H 0.73048 0.38744 0.79349 0.0
H827 H 0.76334 0.38279 0.7769 0.0
C828 C 0.88718 0.38346 0.78957 0.0
C829 C 0.89967 0.40958 0.78671 0.0
C830 C 0.86067 0.36742 0.78513 0.0
C831 C 0.84605 0.37705 0.77764 0.0
C832 C 0.85821 0.40317 0.7751 0.0
C833 C 0.88485 0.41932 0.77957 0.0
C834 C 0.81816 0.35952 0.77235 0.0
C835 C 0.79854 0.36213 0.78046 0.0
C836 C 0.81086 0.3388 0.76063 0.0
C837 C 0.83069 0.33581 0.75089 0.0
C838 C 0.84954 0.35548 0.74046 0.0
C839 C 0.86839 0.35269 0.73152 0.0
C840 C 0.86849 0.33025 0.73281 0.0
C841 C 0.8497 0.31052 0.74302 0.0
C842 C 0.83083 0.31322 0.752 0.0
C843 C 0.69194 0.28483 0.75389 0.0
C844 C 0.68601 0.25995 0.7565 0.0
C845 C 0.7173 0.30538 0.75768 0.0
C846 C 0.73694 0.3013 0.76431 0.0
C847 C 0.73063 0.27655 0.76763 0.0
C848 C 0.70551 0.25613 0.76376 0.0
C849 C 0.76455 0.32236 0.76686 0.0
C850 C 0.7842 0.3205 0.75809 0.0
C851 C 0.77177 0.34365 0.77799 0.0
C852 C 0.75203 0.34644 0.78795 0.0
C853 C 0.73505 0.32772 0.79975 0.0
C854 C 0.71644 0.33048 0.80905 0.0
C855 C 0.71477 0.35197 0.80676 0.0
C856 C 0.73176 0.37078 0.79521 0.0
C857 C 0.75038 0.3681 0.78587 0.0
H858 H 0.70036 0.35407 0.81398 0.0
H859 H 0.8831 0.32813 0.72588 0.0
H860 H 0.39917 0.85808 0.93767 0.0
H861 H 0.39487 0.8179 0.92829 0.0
H862 H 0.45975 0.83352 0.96329 0.0
H863 H 0.46419 0.87347 0.9725 0.0
H864 H 0.46693 0.82098 0.93111 0.0
H865 H 0.39664 0.78897 0.97299 0.0
H866 H 0.3555 0.78235 0.98562 0.0
H867 H 0.31377 0.74541 0.93711 0.0
H868 H 0.35477 0.75213 0.9241 0.0
H869 H 0.42159 0.68158 0.94202 0.0
H870 H 0.41562 0.717 0.94844 0.0
H871 H 0.44145 0.74529 0.89579 0.0
H872 H 0.448 0.71012 0.88937 0.0
H873 H 0.38708 0.7355 0.93489 0.0
H874 H 0.48026 0.80918 0.89894 0.0
H875 H 0.52288 0.81559 0.88952 0.0
H876 H 0.52128 0.76899 0.93192 0.0
H877 H 0.47884 0.76259 0.9417 0.0
C878 C 0.41221 0.85266 0.9435 0.0
C879 C 0.4322 0.86892 0.95562 0.0
C880 C 0.40977 0.82979 0.93814 0.0
C881 C 0.42711 0.82283 0.94503 0.0
C882 C 0.44638 0.83867 0.95765 0.0
C883 C 0.4489 0.86146 0.9629 0.0
C884 C 0.42627 0.79972 0.93865 0.0
C885 C 0.44939 0.80232 0.93184 0.0
C886 C 0.40347 0.77537 0.93972 0.0
C887 C 0.37883 0.77132 0.94751 0.0
C888 C 0.37874 0.77964 0.96496 0.0
C889 C 0.35543 0.77582 0.9722 0.0
C890 C 0.33205 0.76354 0.96215 0.0
C891 C 0.33191 0.75497 0.94486 0.0
C892 C 0.35517 0.75876 0.93756 0.0
C893 C 0.42581 0.69522 0.93175 0.0
C894 C 0.43561 0.69329 0.91527 0.0
C895 C 0.42221 0.71536 0.9354 0.0
C896 C 0.42835 0.73389 0.92266 0.0
C897 C 0.43692 0.73134 0.90588 0.0
C898 C 0.44067 0.71127 0.90224 0.0
C899 C 0.42779 0.75684 0.92751 0.0
C900 C 0.40446 0.75423 0.93395 0.0
C901 C 0.45058 0.78121 0.92653 0.0
C902 C 0.47625 0.78518 0.9209 0.0
C903 C 0.48906 0.80037 0.90626 0.0
C904 C 0.51317 0.80399 0.90086 0.0
C905 C 0.52473 0.79262 0.91007 0.0
C906 C 0.51225 0.7777 0.92475 0.0
C907 C 0.48816 0.77405 0.93022 0.0
H908 H 0.54338 0.79543 0.90586 0.0
H909 H 0.31402 0.76059 0.96778 0.0
H910 H 0.62124 0.48163 0.09688 0.0
H911 H 0.64295 0.459 0.08744 0.0
H912 H 0.69245 0.48618 0.13472 0.0
H913 H 0.67152 0.50956 0.14371 0.0
H914 H 0.72112 0.49121 0.10838 0.0
H915 H 0.63869 0.42324 0.12867 0.0
H916 H 0.59042 0.39641 0.1302 0.0
H917 H 0.58606 0.37585 0.07502 0.0
H918 H 0.63431 0.40285 0.0731 0.0
H919 H 0.76206 0.40145 0.11044 0.0
H920 H 0.73532 0.41991 0.11731 0.0
H921 H 0.7185 0.42013 0.06147 0.0
H922 H 0.74588 0.4023 0.05441 0.0
H923 H 0.67295 0.4005 0.0903 0.0
H924 H 0.75751 0.47071 0.07141 0.0
H925 H 0.80599 0.49595 0.07216 0.0
H926 H 0.80567 0.5102 0.12812 0.0
H927 H 0.75714 0.48468 0.12773 0.0
C928 C 0.63666 0.48257 0.10524 0.0
C929 C 0.64483 0.49731 0.12096 0.0
C930 C 0.64898 0.46959 0.09991 0.0
C931 C 0.66918 0.47065 0.11046 0.0
C932 C 0.67702 0.48514 0.12631 0.0
C933 C 0.66507 0.49846 0.13145 0.0
C934 C 0.68285 0.45742 0.10482 0.0
C935 C 0.71047 0.47131 0.10461 0.0
C936 C 0.66909 0.43153 0.09958 0.0
C937 C 0.64008 0.41528 0.10069 0.0
C938 C 0.62742 0.41316 0.11683 0.0
C939 C 0.60007 0.39789 0.11777 0.0
C940 C 0.58517 0.38449 0.10271 0.0
C941 C 0.59762 0.38628 0.08667 0.0
C942 C 0.62497 0.40154 0.08565 0.0
C943 C 0.75246 0.40519 0.09964 0.0
C944 C 0.7561 0.40058 0.08189 0.0
C945 C 0.73723 0.41571 0.10358 0.0
C946 C 0.72506 0.42131 0.08987 0.0
C947 C 0.72777 0.41582 0.07218 0.0
C948 C 0.74346 0.40579 0.06819 0.0
C949 C 0.71086 0.43434 0.09406 0.0
C950 C 0.68333 0.42042 0.094 0.0
C951 C 0.72461 0.46007 0.09935 0.0
C952 C 0.75374 0.47556 0.09958 0.0
C953 C 0.76779 0.47901 0.0839 0.0
C954 C 0.79527 0.49341 0.08425 0.0
C955 C 0.80891 0.50461 0.10019 0.0
C956 C 0.79508 0.50148 0.11579 0.0
C957 C 0.76759 0.48707 0.11551 0.0
H958 H 0.83018 0.51576 0.10043 0.0
H959 H 0.564 0.37268 0.10347 0.0
H960 H 0.39143 0.91416 0.5439 0.0
H961 H 0.36805 0.87021 0.55344 0.0
H962 H 0.39433 0.84877 0.50695 0.0
H963 H 0.41731 0.8926 0.49714 0.0
H964 H 0.34204 0.81684 0.51235 0.0
H965 H 0.42205 0.85295 0.54722 0.0
H966 H 0.45628 0.88374 0.56808 0.0
H967 H 0.39866 0.86306 0.60859 0.0
H968 H 0.364 0.83237 0.58788 0.0
H969 H 0.30325 0.693 0.53656 0.0
H970 H 0.33013 0.73746 0.52881 0.0
H971 H 0.30752 0.75884 0.57712 0.0
H972 H 0.28108 0.7143 0.5852 0.0
H973 H 0.35809 0.79107 0.57105 0.0
H974 H 0.27804 0.75586 0.53669 0.0
H975 H 0.24304 0.72539 0.5161 0.0
H976 H 0.29954 0.74491 0.47495 0.0
H977 H 0.33496 0.77526 0.49538 0.0
C978 C 0.39216 0.90007 0.53568 0.0
C979 C 0.40624 0.90687 0.51976 0.0
C980 C 0.37897 0.875 0.54122 0.0
C981 C 0.37963 0.85624 0.53099 0.0
C982 C 0.39363 0.86296 0.51509 0.0
C983 C 0.40691 0.88804 0.50957 0.0
C984 C 0.36516 0.82949 0.53661 0.0
C985 C 0.34582 0.81114 0.52507 0.0
C986 C 0.36955 0.82219 0.55344 0.0
C987 C 0.39039 0.84053 0.56594 0.0
C988 C 0.41664 0.85511 0.56053 0.0
C989 C 0.43613 0.87252 0.57234 0.0
C990 C 0.42964 0.8754 0.58964 0.0
C991 C 0.40365 0.86082 0.59518 0.0
C992 C 0.38408 0.8434 0.58342 0.0
C993 C 0.30414 0.70716 0.54561 0.0
C994 C 0.28989 0.70013 0.56143 0.0
C995 C 0.31943 0.73259 0.54112 0.0
C996 C 0.32044 0.7515 0.5522 0.0
C997 C 0.30695 0.74459 0.56832 0.0
C998 C 0.29182 0.71912 0.57291 0.0
C999 C 0.33504 0.77836 0.54674 0.0
C1000 C 0.35434 0.79674 0.55831 0.0
C1001 C 0.33048 0.78576 0.52998 0.0
C1002 C 0.30919 0.76766 0.51762 0.0
C1003 C 0.28303 0.75353 0.52329 0.0
C1004 C 0.26312 0.7363 0.51164 0.0
C1005 C 0.26907 0.73317 0.49424 0.0
C1006 C 0.29496 0.74733 0.48844 0.0
C1007 C 0.31496 0.76456 0.50004 0.0
H1008 H 0.25363 0.71982 0.48525 0.0
H1009 H 0.44475 0.88889 0.59876 0.0
H1010 H 0.53505 0.39922 0.67037 0.0
H1011 H 0.54475 0.36709 0.6791 0.0
H1012 H 0.62736 0.42345 0.68279 0.0
H1013 H 0.61784 0.45626 0.67506 0.0
H1014 H 0.60641 0.37028 0.66241 0.0
H1015 H 0.60824 0.4118 0.71835 0.0
H1016 H 0.58961 0.42869 0.7396 0.0
H1017 H 0.51953 0.35536 0.74269 0.0
H1018 H 0.5376 0.33814 0.72122 0.0
H1019 H 0.63928 0.28695 0.70438 0.0
H1020 H 0.63745 0.32345 0.69415 0.0
H1021 H 0.55913 0.2906 0.7149 0.0
H1022 H 0.56195 0.25532 0.72629 0.0
H1023 H 0.5824 0.33584 0.72306 0.0
H1024 H 0.57597 0.29325 0.66759 0.0
H1025 H 0.58967 0.27399 0.64455 0.0
H1026 H 0.66184 0.34485 0.63825 0.0
H1027 H 0.64869 0.36446 0.66141 0.0
C1028 C 0.55529 0.40501 0.67325 0.0
C1029 C 0.5756 0.43053 0.67224 0.0
C1030 C 0.56079 0.3865 0.67803 0.0
C1031 C 0.58672 0.39299 0.68159 0.0
C1032 C 0.60722 0.41816 0.68 0.0
C1033 C 0.60171 0.43684 0.67551 0.0
C1034 C 0.59196 0.37345 0.68777 0.0
C1035 C 0.60164 0.36293 0.67575 0.0
C1036 C 0.58488 0.3635 0.70496 0.0
C1037 C 0.57417 0.37376 0.71806 0.0
C1038 C 0.58877 0.39934 0.72344 0.0
C1039 C 0.57833 0.40896 0.73555 0.0
C1040 C 0.55337 0.39312 0.74246 0.0
C1041 C 0.53884 0.36761 0.73731 0.0
C1042 C 0.54918 0.35791 0.72519 0.0
C1043 C 0.62167 0.28758 0.7066 0.0
C1044 C 0.60073 0.26843 0.71606 0.0
C1045 C 0.62053 0.30835 0.70067 0.0
C1046 C 0.59798 0.30977 0.70349 0.0
C1047 C 0.57685 0.29018 0.71262 0.0
C1048 C 0.57837 0.26993 0.71905 0.0
C1049 C 0.5965 0.33192 0.6976 0.0
C1050 C 0.58747 0.34308 0.70971 0.0
C1051 C 0.60358 0.34199 0.68031 0.0
C1052 C 0.61148 0.33024 0.66637 0.0
C1053 C 0.59484 0.30467 0.66138 0.0
C1054 C 0.60249 0.2937 0.64829 0.0
C1055 C 0.62664 0.30816 0.63998 0.0
C1056 C 0.64316 0.33366 0.64472 0.0
C1057 C 0.63561 0.34472 0.65781 0.0
H1058 H 0.63253 0.29963 0.62985 0.0
H1059 H 0.54532 0.40061 0.75183 0.0
H1060 H 0.17682 0.55489 0.84209 0.0
H1061 H 0.22191 0.56743 0.84979 0.0
H1062 H 0.19358 0.50682 0.88719 0.0
H1063 H 0.14836 0.49511 0.8804 0.0
H1064 H 0.23558 0.54742 0.90039 0.0
H1065 H 0.21295 0.50131 0.84502 0.0
H1066 H 0.19618 0.49134 0.81406 0.0
H1067 H 0.25805 0.56454 0.79804 0.0
H1068 H 0.27497 0.5751 0.82897 0.0
H1069 H 0.35584 0.54986 0.90705 0.0
H1070 H 0.3099 0.53434 0.89909 0.0
H1071 H 0.33409 0.59995 0.8671 0.0
H1072 H 0.38004 0.61568 0.87495 0.0
H1073 H 0.29382 0.55455 0.85115 0.0
H1074 H 0.31476 0.60073 0.90714 0.0
H1075 H 0.33117 0.61016 0.93819 0.0
H1076 H 0.27186 0.53513 0.95294 0.0
H1077 H 0.25535 0.52513 0.9219 0.0
C1078 C 0.18012 0.54456 0.85226 0.0
C1079 C 0.15892 0.52387 0.86055 0.0
C1080 C 0.20594 0.55154 0.85646 0.0
C1081 C 0.21107 0.53767 0.86874 0.0
C1082 C 0.19005 0.51763 0.87754 0.0
C1083 C 0.1642 0.51082 0.87352 0.0
C1084 C 0.23833 0.54374 0.87209 0.0
C1085 C 0.24816 0.54859 0.88964 0.0
C1086 C 0.25486 0.54557 0.85804 0.0
C1087 C 0.2451 0.53906 0.83934 0.0
C1088 C 0.22291 0.51533 0.83491 0.0
C1089 C 0.21337 0.50957 0.81737 0.0
C1090 C 0.226 0.52732 0.8041 0.0
C1091 C 0.24827 0.55082 0.80833 0.0
C1092 C 0.25786 0.55669 0.82587 0.0
C1093 C 0.35145 0.56083 0.89812 0.0
C1094 C 0.37159 0.58413 0.89176 0.0
C1095 C 0.3252 0.55196 0.89364 0.0
C1096 C 0.3187 0.56617 0.88268 0.0
C1097 C 0.33878 0.58877 0.87561 0.0
C1098 C 0.36499 0.59776 0.88019 0.0
C1099 C 0.29094 0.5583 0.87938 0.0
C1100 C 0.28109 0.55315 0.86186 0.0
C1101 C 0.27432 0.55601 0.89346 0.0
C1102 C 0.28401 0.5621 0.91217 0.0
C1103 C 0.30535 0.58618 0.91698 0.0
C1104 C 0.31465 0.59164 0.93458 0.0
C1105 C 0.30262 0.57323 0.94752 0.0
C1106 C 0.28119 0.54935 0.9429 0.0
C1107 C 0.27185 0.54379 0.9253 0.0
H1108 H 0.30985 0.57749 0.96114 0.0
H1109 H 0.21855 0.52285 0.79053 0.0
H1110 H 0.57798 0.12808 0.99202 0.0
H1111 H 0.61474 0.16906 0.00223 0.0
H1112 H 0.58214 0.15594 0.0547 0.0
H1113 H 0.54507 0.1148 0.04448 0.0
H1114 H 0.60549 0.20629 0.04512 0.0
H1115 H 0.62705 0.14177 0.04692 0.0
H1116 H 0.63047 0.10647 0.03473 0.0
H1117 H 0.68296 0.1549 0.99483 0.0
H1118 H 0.67951 0.19041 0.00661 0.0
H1119 H 0.75344 0.27439 0.07638 0.0
H1120 H 0.71128 0.23654 0.06884 0.0
H1121 H 0.68982 0.28093 0.03711 0.0
H1122 H 0.73172 0.31908 0.045 0.0
H1123 H 0.6922 0.21384 0.03859 0.0
H1124 H 0.6233 0.254 0.03618 0.0
H1125 H 0.61936 0.28789 0.05053 0.0
H1126 H 0.6614 0.2859 0.0966 0.0
H1127 H 0.66527 0.25179 0.08263 0.0
C1128 C 0.5785 0.13407 0.00568 0.0
C1129 C 0.55896 0.11816 0.01756 0.0
C1130 C 0.59943 0.15748 0.01147 0.0
C1131 C 0.60135 0.16528 0.02928 0.0
C1132 C 0.581 0.15019 0.04091 0.0
C1133 C 0.55988 0.12675 0.03507 0.0
C1134 C 0.62577 0.18797 0.03603 0.0
C1135 C 0.62448 0.20803 0.04371 0.0
C1136 C 0.65043 0.1899 0.03453 0.0
C1137 C 0.65284 0.16868 0.02755 0.0
C1138 C 0.63918 0.14485 0.03547 0.0
C1139 C 0.64114 0.12481 0.02865 0.0
C1140 C 0.65688 0.12843 0.014 0.0
C1141 C 0.67075 0.15212 0.00617 0.0
C1142 C 0.66882 0.17222 0.01292 0.0
C1143 C 0.73976 0.27617 0.06782 0.0
C1144 C 0.74599 0.29979 0.06127 0.0
C1145 C 0.71564 0.25448 0.06354 0.0
C1146 C 0.69727 0.2559 0.05254 0.0
C1147 C 0.70346 0.27943 0.0459 0.0
C1148 C 0.7275 0.30121 0.05034 0.0
C1149 C 0.67215 0.23255 0.04749 0.0
C1150 C 0.67328 0.21225 0.04007 0.0
C1151 C 0.64738 0.23027 0.04961 0.0
C1152 C 0.64478 0.2505 0.05827 0.0
C1153 C 0.6316 0.26072 0.04941 0.0
C1154 C 0.6294 0.27998 0.05747 0.0
C1155 C 0.6402 0.2891 0.07444 0.0
C1156 C 0.65313 0.27889 0.08342 0.0
C1157 C 0.65536 0.25961 0.07543 0.0
H1158 H 0.63851 0.30403 0.08065 0.0
H1159 H 0.65836 0.11289 0.00873 0.0
H1160 H 0.5121 0.62746 0.19281 0.0
H1161 H 0.50019 0.65844 0.20118 0.0
H1162 H 0.57835 0.71907 0.18913 0.0
H1163 H 0.59024 0.68833 0.18008 0.0
H1164 H 0.55869 0.72516 0.22219 0.0
H1165 H 0.53259 0.70604 0.16029 0.0
H1166 H 0.50955 0.67753 0.13461 0.0
H1167 H 0.43547 0.64974 0.16006 0.0
H1168 H 0.45812 0.67782 0.18602 0.0
H1169 H 0.53321 0.82466 0.22633 0.0
H1170 H 0.54697 0.79574 0.2161 0.0
H1171 H 0.46635 0.73377 0.21655 0.0
H1172 H 0.45237 0.76265 0.22608 0.0
H1173 H 0.48842 0.72885 0.18883 0.0
H1174 H 0.51215 0.74528 0.25068 0.0
H1175 H 0.53333 0.77174 0.27753 0.0
H1176 H 0.6092 0.80171 0.25425 0.0
H1177 H 0.58842 0.77573 0.22712 0.0
C1178 C 0.52672 0.64736 0.19175 0.0
C1179 C 0.55212 0.65534 0.18568 0.0
C1180 C 0.51991 0.66503 0.19665 0.0
C1181 C 0.53838 0.69099 0.19567 0.0
C1182 C 0.56388 0.69908 0.19003 0.0
C1183 C 0.57065 0.68145 0.18495 0.0
C1184 C 0.53093 0.70972 0.20027 0.0
C1185 C 0.54359 0.72626 0.21478 0.0
C1186 C 0.51074 0.71058 0.19085 0.0
C1187 C 0.49708 0.69387 0.17517 0.0
C1188 C 0.51141 0.69371 0.16047 0.0
C1189 C 0.49842 0.67765 0.14586 0.0
C1190 C 0.47107 0.66179 0.14572 0.0
C1191 C 0.45665 0.66201 0.16019 0.0
C1192 C 0.46955 0.67801 0.17485 0.0
C1193 C 0.5184 0.8049 0.22413 0.0
C1194 C 0.49171 0.79597 0.22708 0.0
C1195 C 0.52631 0.78835 0.21837 0.0
C1196 C 0.50776 0.76246 0.21587 0.0
C1197 C 0.48104 0.75364 0.2184 0.0
C1198 C 0.47308 0.77021 0.22387 0.0
C1199 C 0.51609 0.74439 0.21089 0.0
C1200 C 0.50359 0.7279 0.19627 0.0
C1201 C 0.53613 0.7433 0.22042 0.0
C1202 C 0.5487 0.75875 0.23679 0.0
C1203 C 0.53334 0.75764 0.25124 0.0
C1204 C 0.54527 0.77254 0.26651 0.0
C1205 C 0.57259 0.78844 0.26758 0.0
C1206 C 0.58804 0.78942 0.25339 0.0
C1207 C 0.57619 0.77461 0.23806 0.0
H1208 H 0.58179 0.79996 0.27942 0.0
H1209 H 0.46105 0.64936 0.1344 0.0
H1210 H 0.90122 0.45476 0.35978 0.0
H1211 H 0.8578 0.44479 0.36965 0.0
H1212 H 0.87082 0.51419 0.34758 0.0
H1213 H 0.91336 0.52367 0.3367 0.0
H1214 H 0.85516 0.50219 0.38701 0.0
H1215 H 0.83267 0.4702 0.32566 0.0
H1216 H 0.83031 0.44292 0.30069 0.0
H1217 H 0.78416 0.37705 0.33198 0.0
H1218 H 0.78661 0.40402 0.35725 0.0
H1219 H 0.73973 0.50444 0.39232 0.0
H1220 H 0.77961 0.50635 0.38257 0.0
H1221 H 0.74148 0.42537 0.38693 0.0
H1222 H 0.70093 0.42324 0.39595 0.0
H1223 H 0.76967 0.43882 0.35883 0.0
H1224 H 0.7872 0.46747 0.41891 0.0
H1225 H 0.7895 0.49239 0.44541 0.0
H1226 H 0.8452 0.56089 0.41971 0.0
H1227 H 0.84292 0.53643 0.39293 0.0
C1228 C 0.8947 0.46769 0.35669 0.0
C1229 C 0.91106 0.49019 0.34756 0.0
C1230 C 0.86995 0.46201 0.36246 0.0
C1231 C 0.86132 0.47886 0.3594 0.0
C1232 C 0.87733 0.50109 0.35016 0.0
C1233 C 0.90177 0.50655 0.3441 0.0
C1234 C 0.83597 0.47392 0.3663 0.0
C1235 C 0.83643 0.48848 0.38083 0.0
C1236 C 0.81164 0.4553 0.35861 0.0
C1237 C 0.81013 0.43914 0.34341 0.0
C1238 C 0.82228 0.44993 0.32728 0.0
C1239 C 0.82086 0.43451 0.31306 0.0
C1240 C 0.80718 0.40827 0.31477 0.0
C1241 C 0.79481 0.39738 0.33069 0.0
C1242 C 0.79619 0.41272 0.34496 0.0
C1243 C 0.73981 0.48702 0.39122 0.0
C1244 C 0.71726 0.46371 0.39504 0.0
C1245 C 0.76269 0.48814 0.38572 0.0
C1246 C 0.76383 0.46608 0.38443 0.0
C1247 C 0.74116 0.44268 0.38792 0.0
C1248 C 0.71802 0.44148 0.39309 0.0
C1249 C 0.78871 0.46765 0.37937 0.0
C1250 C 0.78827 0.45239 0.36523 0.0
C1251 C 0.8131 0.48528 0.3877 0.0
C1252 C 0.81474 0.50011 0.40385 0.0
C1253 C 0.79982 0.48786 0.41886 0.0
C1254 C 0.80113 0.50191 0.43394 0.0
C1255 C 0.81745 0.52821 0.43423 0.0
C1256 C 0.83255 0.54052 0.41946 0.0
C1257 C 0.83128 0.52657 0.40433 0.0
H1258 H 0.81843 0.53905 0.44592 0.0
H1259 H 0.8061 0.39637 0.30374 0.0
H1260 H 0.0342 0.52535 0.42328 0.0
H1261 H 0.06088 0.53748 0.45075 0.0
H1262 H 0.12215 0.60405 0.42548 0.0
H1263 H 0.09601 0.59183 0.39804 0.0
H1264 H 0.14104 0.578 0.44053 0.0
H1265 H 0.08597 0.60918 0.45784 0.0
H1266 H 0.04407 0.60711 0.46302 0.0
H1267 H 0.02291 0.54878 0.50111 0.0
H1268 H 0.06455 0.55024 0.49598 0.0
H1269 H 0.22492 0.62345 0.51729 0.0
H1270 H 0.19894 0.61698 0.49054 0.0
H1271 H 0.1281 0.5672 0.51913 0.0
H1272 H 0.15414 0.579 0.54662 0.0
H1273 H 0.11446 0.58765 0.50083 0.0
H1274 H 0.16698 0.55055 0.47628 0.0
H1275 H 0.20823 0.5528 0.46756 0.0
H1276 H 0.23415 0.6233 0.44213 0.0
H1277 H 0.19291 0.6211 0.45014 0.0
C1278 C 0.05321 0.54273 0.42369 0.0
C1279 C 0.06291 0.55769 0.40852 0.0
C1280 C 0.06836 0.54972 0.43941 0.0
C1281 C 0.09345 0.57174 0.44018 0.0
C1282 C 0.10281 0.58704 0.42521 0.0
C1283 C 0.0877 0.58013 0.40957 0.0
C1284 C 0.11086 0.57785 0.45605 0.0
C1285 C 0.13531 0.58014 0.45378 0.0
C1286 C 0.10332 0.58054 0.47326 0.0
C1287 C 0.07828 0.57966 0.47639 0.0
C1288 C 0.07229 0.59575 0.46721 0.0
C1289 C 0.0486 0.59472 0.47016 0.0
C1290 C 0.03081 0.57778 0.48235 0.0
C1291 C 0.0367 0.56187 0.49165 0.0
C1292 C 0.06035 0.56281 0.48874 0.0
C1293 C 0.20377 0.61083 0.51767 0.0
C1294 C 0.19153 0.60052 0.53377 0.0
C1295 C 0.18877 0.60661 0.50217 0.0
C1296 C 0.16121 0.59046 0.50211 0.0
C1297 C 0.1492 0.57972 0.51839 0.0
C1298 C 0.1641 0.58573 0.53414 0.0
C1299 C 0.14454 0.58628 0.48577 0.0
C1300 C 0.12021 0.58479 0.4878 0.0
C1301 C 0.15218 0.58425 0.46826 0.0
C1302 C 0.17724 0.58589 0.46415 0.0
C1303 C 0.1817 0.56663 0.46905 0.0
C1304 C 0.20495 0.56784 0.46417 0.0
C1305 C 0.22392 0.58833 0.45462 0.0
C1306 C 0.21954 0.60752 0.44965 0.0
C1307 C 0.19619 0.60622 0.45423 0.0
H1308 H 0.2419 0.58921 0.45092 0.0
H1309 H 0.01248 0.57701 0.48462 0.0
H1310 H 0.44706 0.03037 0.59289 0.0
H1311 H 0.46492 0.04973 0.62228 0.0
H1312 H 0.54373 0.08102 0.6031 0.0
H1313 H 0.52621 0.06224 0.57383 0.0
H1314 H 0.53739 0.05918 0.6352 0.0
H1315 H 0.51738 0.11737 0.60759 0.0
H1316 H 0.48839 0.12948 0.59291 0.0
H1317 H 0.43883 0.10618 0.63845 0.0
H1318 H 0.46732 0.09358 0.65332 0.0
H1319 H 0.61272 0.17119 0.6919 0.0
H1320 H 0.59226 0.13805 0.66872 0.0
H1321 H 0.52011 0.10157 0.69783 0.0
H1322 H 0.54101 0.13398 0.72148 0.0
H1323 H 0.51952 0.1217 0.66278 0.0
H1324 H 0.5345 0.05971 0.68898 0.0
H1325 H 0.55436 0.03625 0.70079 0.0
H1326 H 0.60932 0.06256 0.65817 0.0
H1327 H 0.5894 0.08574 0.64593 0.0
C1328 C 0.46818 0.04137 0.59497 0.0
C1329 C 0.48519 0.04451 0.58106 0.0
C1330 C 0.47834 0.05244 0.61173 0.0
C1331 C 0.50565 0.06691 0.61482 0.0
C1332 C 0.5226 0.06981 0.60103 0.0
C1333 C 0.51251 0.05885 0.58433 0.0
C1334 C 0.51689 0.0791 0.63237 0.0
C1335 C 0.53379 0.07313 0.64115 0.0
C1336 C 0.51133 0.09653 0.64038 0.0
C1337 C 0.49432 0.10427 0.63149 0.0
C1338 C 0.50018 0.11463 0.61442 0.0
C1339 C 0.48386 0.12162 0.60607 0.0
C1340 C 0.46174 0.11853 0.61472 0.0
C1341 C 0.45594 0.10852 0.63176 0.0
C1342 C 0.47217 0.10147 0.64016 0.0
C1343 C 0.59302 0.1553 0.69383 0.0
C1344 C 0.57869 0.15468 0.70872 0.0
C1345 C 0.58127 0.13645 0.68053 0.0
C1346 C 0.55474 0.11718 0.68166 0.0
C1347 C 0.54072 0.11602 0.69686 0.0
C1348 C 0.55262 0.13458 0.71029 0.0
C1349 C 0.54045 0.10205 0.66554 0.0
C1350 C 0.52309 0.10769 0.65691 0.0
C1351 C 0.5455 0.08423 0.65766 0.0
C1352 C 0.56079 0.0748 0.66675 0.0
C1353 C 0.55123 0.06097 0.68238 0.0
C1354 C 0.56219 0.04736 0.68896 0.0
C1355 C 0.58303 0.04784 0.68021 0.0
C1356 C 0.59312 0.06213 0.66492 0.0
C1357 C 0.58202 0.07551 0.65816 0.0
H1358 H 0.59148 0.0373 0.68535 0.0
H1359 H 0.44914 0.12395 0.60823 0.0
H1360 H 0.48162 0.57398 0.71926 0.0
H1361 H 0.47691 0.58541 0.74955 0.0
H1362 H 0.55471 0.60117 0.76315 0.0
H1363 H 0.55889 0.58821 0.73331 0.0
H1364 H 0.52347 0.57452 0.78756 0.0
H1365 H 0.54051 0.64911 0.75843 0.0
H1366 H 0.53526 0.67467 0.73575 0.0
H1367 H 0.45588 0.64613 0.75198 0.0
H1368 H 0.46052 0.62012 0.7746 0.0
H1369 H 0.50063 0.65097 0.86226 0.0
H1370 H 0.51601 0.64826 0.83281 0.0
H1371 H 0.46818 0.56685 0.83394 0.0
H1372 H 0.45342 0.56937 0.86356 0.0
H1373 H 0.49103 0.63164 0.80279 0.0
H1374 H 0.49426 0.53974 0.81019 0.0
H1375 H 0.50434 0.51799 0.83335 0.0
H1376 H 0.55282 0.58856 0.86139 0.0
H1377 H 0.54336 0.6108 0.83827 0.0
C1378 C 0.49773 0.57987 0.72869 0.0
C1379 C 0.52064 0.58017 0.7238 0.0
C1380 C 0.49514 0.58671 0.74596 0.0
C1381 C 0.51558 0.59441 0.7586 0.0
C1382 C 0.53871 0.59535 0.75362 0.0
C1383 C 0.54118 0.58822 0.73645 0.0
C1384 C 0.51221 0.59998 0.77728 0.0
C1385 C 0.51653 0.58714 0.79088 0.0
C1386 C 0.5037 0.61685 0.7817 0.0
C1387 C 0.50081 0.63251 0.76813 0.0
C1388 C 0.52187 0.64814 0.75708 0.0
C1389 C 0.51901 0.66273 0.74425 0.0
C1390 C 0.49523 0.66198 0.7424 0.0
C1391 C 0.47428 0.64668 0.75342 0.0
C1392 C 0.47702 0.63203 0.76626 0.0
C1393 C 0.49359 0.63247 0.85631 0.0
C1394 C 0.47584 0.61037 0.86528 0.0
C1395 C 0.50235 0.63097 0.83945 0.0
C1396 C 0.49345 0.60736 0.83121 0.0
C1397 C 0.47578 0.58528 0.84017 0.0
C1398 C 0.46728 0.58675 0.85711 0.0
C1399 C 0.50176 0.60576 0.81298 0.0
C1400 C 0.49827 0.61926 0.79946 0.0
C1401 C 0.51179 0.59008 0.8087 0.0
C1402 C 0.51791 0.5769 0.82255 0.0
C1403 C 0.50718 0.55064 0.82124 0.0
C1404 C 0.51276 0.53822 0.83438 0.0
C1405 C 0.52915 0.55187 0.84886 0.0
C1406 C 0.54006 0.578 0.8502 0.0
C1407 C 0.53457 0.59051 0.83709 0.0
H1408 H 0.53342 0.54222 0.85902 0.0
H1409 H 0.49306 0.6733 0.73246 0.0
H1410 H 0.90401 0.39029 0.87887 0.0
H1411 H 0.88354 0.3749 0.90779 0.0
H1412 H 0.94486 0.44371 0.93313 0.0
H1413 H 0.96576 0.45872 0.90454 0.0
H1414 H 0.93496 0.4042 0.95232 0.0
H1415 H 0.88402 0.43469 0.92352 0.0
H1416 H 0.85661 0.43643 0.89943 0.0
H1417 H 0.79897 0.35791 0.90627 0.0
H1418 H 0.82622 0.35564 0.93027 0.0
H1419 H 0.83936 0.40361 0.02113 0.0
H1420 H 0.85741 0.41097 0.99143 0.0
H1421 H 0.87326 0.35093 0.99765 0.0
H1422 H 0.85562 0.34367 0.02767 0.0
H1423 H 0.84323 0.38234 0.96212 0.0
H1424 H 0.92942 0.36686 0.97464 0.0
H1425 H 0.95809 0.369 -0.0006 0.0
H1426 H 0.94763 0.42461 0.0263 0.0
H1427 H 0.91924 0.42307 0.00159 0.0
C1428 C 0.91311 0.40205 0.89064 0.0
C1429 C 0.93623 0.42589 0.88939 0.0
C1430 C 0.90137 0.3933 0.90712 0.0
C1431 C 0.91255 0.40827 0.9226 0.0
C1432 C 0.93585 0.43186 0.92137 0.0
C1433 C 0.94757 0.44057 0.90497 0.0
C1434 C 0.89989 0.39983 0.94009 0.0
C1435 C 0.91483 0.39922 0.95443 0.0
C1436 C 0.87372 0.39356 0.9429 0.0
C1437 C 0.85728 0.39493 0.92854 0.0
C1438 C 0.86559 0.41775 0.91979 0.0
C1439 C 0.85007 0.41884 0.90618 0.0
C1440 C 0.8261 0.39728 0.90129 0.0
C1441 C 0.81756 0.37459 0.91005 0.0
C1442 C 0.83303 0.37339 0.92366 0.0
C1443 C 0.84668 0.39192 0.01626 0.0
C1444 C 0.8461 0.37309 0.02688 0.0
C1445 C 0.85688 0.39609 0.9992 0.0
C1446 C 0.86678 0.38159 0.99233 0.0
C1447 C 0.86598 0.36254 0.00276 0.0
C1448 C 0.85585 0.3584 0.01992 0.0
C1449 C 0.87839 0.38697 0.97439 0.0
C1450 C 0.86323 0.38693 0.95995 0.0
C1451 C 0.90454 0.39316 0.97158 0.0
C1452 C 0.92196 0.3946 0.98637 0.0
C1453 C 0.93333 0.3796 0.98581 0.0
C1454 C 0.94952 0.38071 -0.00016 0.0
C1455 C 0.95459 0.39686 0.01444 0.0
C1456 C 0.9436 0.41204 0.01501 0.0
C1457 C 0.92744 0.41104 0.00101 0.0
H1458 H 0.9671 0.39765 0.0253 0.0
H1459 H 0.81411 0.39816 0.89074 0.0
H1460 H 0.44472 0.95804 0.07969 0.0
H1461 H 0.44595 0.94175 0.10876 0.0
H1462 H 0.53018 0.99173 0.11166 0.0
H1463 H 0.5291 0.00856 0.08255 0.0
H1464 H 0.51536 0.94338 0.11946 0.0
H1465 H 0.49204 0.0028 0.13817 0.0
H1466 H 0.46706 0.02445 0.1379 0.0
H1467 H 0.39638 0.95484 0.14998 0.0
H1468 H 0.42086 0.93267 0.15007 0.0
H1469 H 0.52079 0.90795 0.20885 0.0
H1470 H 0.52504 0.93305 0.18284 0.0
H1471 H 0.44143 0.88702 0.17283 0.0
H1472 H 0.43688 0.86186 0.19878 0.0
H1473 H 0.4598 0.93769 0.17004 0.0
H1474 H 0.48241 0.87784 0.14858 0.0
H1475 H 0.50714 0.85594 0.14856 0.0
H1476 H 0.57922 0.92663 0.14153 0.0
H1477 H 0.55494 0.94901 0.14176 0.0
C1478 C 0.46347 0.96611 0.08667 0.0
C1479 C 0.4868 0.98477 0.07881 0.0
C1480 C 0.46414 0.95666 0.10329 0.0
C1481 C 0.48813 0.96566 0.11245 0.0
C1482 C 0.51145 0.98453 0.1048 0.0
C1483 C 0.5108 0.99408 0.08817 0.0
C1484 C 0.48881 0.95425 0.12952 0.0
C1485 C 0.50364 0.94259 0.13066 0.0
C1486 C 0.47309 0.95278 0.14399 0.0
C1487 C 0.45827 0.96603 0.14399 0.0
C1488 C 0.47113 0.99206 0.14063 0.0
C1489 C 0.45707 0.00443 0.14054 0.0
C1490 C 0.43014 0.99102 0.14389 0.0
C1491 C 0.41724 0.9652 0.14738 0.0
C1492 C 0.4312 0.95273 0.14747 0.0
C1493 C 0.50327 0.90312 0.20113 0.0
C1494 C 0.47849 0.88276 0.20589 0.0
C1495 C 0.50577 0.91748 0.18625 0.0
C1496 C 0.48357 0.91179 0.17586 0.0
C1497 C 0.45881 0.89173 0.18069 0.0
C1498 C 0.45629 0.87729 0.19549 0.0
C1499 C 0.48604 0.92655 0.15984 0.0
C1500 C 0.47178 0.93879 0.15891 0.0
C1501 C 0.50228 0.92856 0.14557 0.0
C1502 C 0.5169 0.91514 0.14541 0.0
C1503 C 0.50356 0.88875 0.1472 0.0
C1504 C 0.51749 0.87624 0.14711 0.0
C1505 C 0.54475 0.88989 0.14511 0.0
C1506 C 0.55812 0.91608 0.14313 0.0
C1507 C 0.54428 0.92869 0.14322 0.0
H1508 H 0.55549 0.88018 0.14504 0.0
H1509 H 0.41929 0.00063 0.14381 0.0
H1510 H 0.61191 0.59649 0.25622 0.0
H1511 H 0.6185 0.58213 0.28488 0.0
H1512 H 0.55951 0.50535 0.27034 0.0
H1513 H 0.55318 0.51938 0.24154 0.0
H1514 H 0.56103 0.51801 0.30769 0.0
H1515 H 0.61749 0.52293 0.26026 0.0
H1516 H 0.64848 0.54519 0.23616 0.0
H1517 H 0.70392 0.60028 0.27378 0.0
H1518 H 0.67286 0.57887 0.29805 0.0
H1519 H 0.60465 0.45116 0.35965 0.0
H1520 H 0.59137 0.46677 0.3344 0.0
H1521 H 0.65539 0.5426 0.34619 0.0
H1522 H 0.66894 0.52727 0.37138 0.0
H1523 H 0.6506 0.53087 0.31067 0.0
H1524 H 0.59531 0.52584 0.35824 0.0
H1525 H 0.564 0.5051 0.38244 0.0
H1526 H 0.50687 0.45092 0.34512 0.0
H1527 H 0.53804 0.47109 0.32071 0.0
C1528 C 0.59995 0.57662 0.25928 0.0
C1529 C 0.58233 0.55903 0.24652 0.0
C1530 C 0.60363 0.56849 0.27567 0.0
C1531 C 0.58974 0.54267 0.27953 0.0
C1532 C 0.57036 0.52536 0.26756 0.0
C1533 C 0.56674 0.53346 0.25112 0.0
C1534 C 0.59815 0.53336 0.29466 0.0
C1535 C 0.5805 0.5206 0.30832 0.0
C1536 C 0.62368 0.53705 0.29546 0.0
C1537 C 0.64272 0.54945 0.28096 0.0
C1538 C 0.6362 0.53991 0.26339 0.0
C1539 C 0.65377 0.55236 0.24969 0.0
C1540 C 0.67815 0.5741 0.25343 0.0
C1541 C 0.68501 0.58344 0.27089 0.0
C1542 C 0.6674 0.57119 0.28463 0.0
C1543 C 0.61608 0.47112 0.3568 0.0
C1544 C 0.63783 0.48796 0.3676 0.0
C1545 C 0.60834 0.48002 0.34243 0.0
C1546 C 0.62222 0.50587 0.3386 0.0
C1547 C 0.64438 0.52259 0.34898 0.0
C1548 C 0.65206 0.51376 0.3634 0.0
C1549 C 0.61354 0.51558 0.32384 0.0
C1550 C 0.63114 0.52833 0.31014 0.0
C1551 C 0.58798 0.51189 0.32305 0.0
C1552 C 0.56912 0.49981 0.33767 0.0
C1553 C 0.57616 0.50937 0.35521 0.0
C1554 C 0.55842 0.49774 0.36896 0.0
C1555 C 0.53348 0.47667 0.36533 0.0
C1556 C 0.52621 0.46722 0.34792 0.0
C1557 C 0.5439 0.47875 0.33412 0.0
H1558 H 0.51977 0.46769 0.37599 0.0
H1559 H 0.69174 0.5837 0.24281 0.0
H1560 H 0.46951 0.9315 0.4266 0.0
H1561 H 0.46967 0.91319 0.39762 0.0
H1562 H 0.42861 0.94664 0.37416 0.0
H1563 H 0.42802 0.96457 0.40316 0.0
H1564 H 0.40943 0.90097 0.36102 0.0
H1565 H 0.49548 0.97302 0.37026 0.0
H1566 H 0.53783 0.00081 0.38584 0.0
H1567 H 0.55571 0.94201 0.38335 0.0
H1568 H 0.51325 0.91369 0.368 0.0
H1569 H 0.43965 0.88885 0.27123 0.0
H1570 H 0.4406 0.90898 0.29981 0.0
H1571 H 0.46639 0.86399 0.32634 0.0
H1572 H 0.46466 0.84338 0.29791 0.0
H1573 H 0.49402 0.91695 0.33709 0.0
H1574 H 0.40586 0.84478 0.3285 0.0
H1575 H 0.36416 0.8188 0.31173 0.0
H1576 H 0.35163 0.88112 0.3116 0.0
H1577 H 0.3935 0.90761 0.32814 0.0
C1578 C 0.46036 0.93475 0.41526 0.0
C1579 C 0.44874 0.94941 0.4171 0.0
C1580 C 0.46056 0.92441 0.39871 0.0
C1581 C 0.44958 0.92894 0.38364 0.0
C1582 C 0.43723 0.94292 0.38558 0.0
C1583 C 0.4368 0.95305 0.40216 0.0
C1584 C 0.45125 0.9194 0.36581 0.0
C1585 C 0.42801 0.90478 0.35572 0.0
C1586 C 0.47545 0.92414 0.35891 0.0
C1587 C 0.50101 0.94111 0.36818 0.0
C1588 C 0.50832 0.96592 0.37318 0.0
C1589 C 0.53237 0.98179 0.38195 0.0
C1590 C 0.54941 0.97316 0.38564 0.0
C1591 C 0.54246 0.94865 0.38052 0.0
C1592 C 0.5184 0.93268 0.37179 0.0
C1593 C 0.44588 0.88362 0.28317 0.0
C1594 C 0.45303 0.86533 0.28241 0.0
C1595 C 0.44637 0.89503 0.29942 0.0
C1596 C 0.45367 0.888 0.31511 0.0
C1597 C 0.46099 0.86984 0.31433 0.0
C1598 C 0.46023 0.85827 0.29812 0.0
C1599 C 0.45229 0.89852 0.33251 0.0
C1600 C 0.47555 0.91329 0.34246 0.0
C1601 C 0.42821 0.89422 0.33918 0.0
C1602 C 0.40294 0.87825 0.32938 0.0
C1603 C 0.39433 0.85301 0.32476 0.0
C1604 C 0.37064 0.83818 0.31532 0.0
C1605 C 0.35529 0.84832 0.31056 0.0
C1606 C 0.36356 0.8733 0.31527 0.0
C1607 C 0.38726 0.88822 0.32468 0.0
H1608 H 0.33695 0.83681 0.30326 0.0
H1609 H 0.56803 0.98548 0.39241 0.0
H1610 H 0.57569 0.54653 0.55873 0.0
H1611 H 0.58681 0.53789 0.52957 0.0
H1612 H 0.50478 0.48513 0.51771 0.0
H1613 H 0.49316 0.49446 0.54672 0.0
H1614 H 0.53741 0.46459 0.51571 0.0
H1615 H 0.53438 0.53544 0.49403 0.0
H1616 H 0.54498 0.57957 0.49386 0.0
H1617 H 0.62689 0.60563 0.48824 0.0
H1618 H 0.61686 0.56168 0.48866 0.0
H1619 H 0.58431 0.46678 0.42015 0.0
H1620 H 0.56456 0.48084 0.44251 0.0
H1621 H 0.61118 0.47354 0.48361 0.0
H1622 H 0.63112 0.45979 0.46121 0.0
H1623 H 0.58958 0.52269 0.46763 0.0
H1624 H 0.56845 0.44577 0.51864 0.0
H1625 H 0.55893 0.40197 0.51912 0.0
H1626 H 0.52583 0.38859 0.46628 0.0
H1627 H 0.53475 0.43216 0.4656 0.0
C1628 C 0.55981 0.53387 0.54972 0.0
C1629 C 0.53347 0.5211 0.55518 0.0
C1630 C 0.56628 0.52884 0.53305 0.0
C1631 C 0.54662 0.51085 0.52156 0.0
C1632 C 0.52021 0.49906 0.52648 0.0
C1633 C 0.51365 0.50432 0.54308 0.0
C1634 C 0.55406 0.50216 0.50554 0.0
C1635 C 0.54866 0.47725 0.50512 0.0
C1636 C 0.56877 0.51875 0.4918 0.0
C1637 C 0.57486 0.54523 0.49153 0.0
C1638 C 0.55468 0.55058 0.49293 0.0
C1639 C 0.56059 0.57557 0.49275 0.0
C1640 C 0.5866 0.5954 0.49108 0.0
C1641 C 0.60676 0.59026 0.48955 0.0
C1642 C 0.60096 0.5653 0.48974 0.0
C1643 C 0.59048 0.46854 0.43395 0.0
C1644 C 0.60972 0.46307 0.43904 0.0
C1645 C 0.57927 0.47654 0.44665 0.0
C1646 C 0.58648 0.47823 0.46464 0.0
C1647 C 0.60541 0.47234 0.46976 0.0
C1648 C 0.6169 0.4647 0.45702 0.0
C1649 C 0.57374 0.4855 0.4782 0.0
C1650 C 0.57821 0.51007 0.47817 0.0
C1651 C 0.55839 0.46871 0.49164 0.0
C1652 C 0.55251 0.44232 0.49202 0.0
C1653 C 0.55903 0.43345 0.50716 0.0
C1654 C 0.55375 0.40866 0.50746 0.0
C1655 C 0.54187 0.39253 0.49271 0.0
C1656 C 0.53513 0.40113 0.47766 0.0
C1657 C 0.54032 0.42588 0.47731 0.0
H1658 H 0.53782 0.37336 0.49297 0.0
H1659 H 0.59113 0.61473 0.49094 0.0
H1660 H 0.04364 0.46689 0.71916 0.0
H1661 H 0.07066 0.4838 0.69278 0.0
H1662 H 0.10083 0.55971 0.71273 0.0
H1663 H 0.07458 0.54306 0.73937 0.0
H1664 H 0.0893 0.5537 0.67568 0.0
H1665 H 0.136 0.53482 0.71937 0.0
H1666 H 0.14108 0.50742 0.74046 0.0
H1667 H 0.13056 0.45616 0.69782 0.0
H1668 H 0.1248 0.48295 0.67648 0.0
H1669 H 0.20099 0.61598 0.62075 0.0
H1670 H 0.17289 0.6009 0.64673 0.0
H1671 H 0.1489 0.52407 0.63252 0.0
H1672 H 0.17726 0.53891 0.60682 0.0
H1673 H 0.15741 0.53134 0.66711 0.0
H1674 H 0.10958 0.54849 0.62352 0.0
H1675 H 0.1027 0.57431 0.60196 0.0
H1676 H 0.11396 0.62724 0.64359 0.0
H1677 H 0.12128 0.60191 0.66536 0.0
C1678 C 0.0559 0.48719 0.71791 0.0
C1679 C 0.057 0.50357 0.73147 0.0
C1680 C 0.07125 0.49681 0.7028 0.0
C1681 C 0.08793 0.52299 0.70093 0.0
C1682 C 0.08803 0.53944 0.71392 0.0
C1683 C 0.07285 0.52985 0.7291 0.0
C1684 C 0.1065 0.53315 0.68601 0.0
C1685 C 0.1044 0.54908 0.67389 0.0
C1686 C 0.12587 0.52672 0.68356 0.0
C1687 C 0.1297 0.51077 0.69634 0.0
C1688 C 0.13455 0.5176 0.7145 0.0
C1689 C 0.13758 0.5022 0.7265 0.0
C1690 C 0.13612 0.48006 0.7205 0.0
C1691 C 0.13166 0.4733 0.70246 0.0
C1692 C 0.1285 0.48858 0.6904 0.0
C1693 C 0.18989 0.59589 0.6232 0.0
C1694 C 0.19136 0.57869 0.61159 0.0
C1695 C 0.1737 0.58728 0.63802 0.0
C1696 C 0.15845 0.5613 0.64143 0.0
C1697 C 0.16042 0.54419 0.63015 0.0
C1698 C 0.17667 0.55276 0.61541 0.0
C1699 C 0.14016 0.5518 0.6566 0.0
C1700 C 0.14234 0.53602 0.66884 0.0
C1701 C 0.12074 0.55823 0.65908 0.0
C1702 C 0.11625 0.57344 0.64603 0.0
C1703 C 0.11079 0.56574 0.62805 0.0
C1704 C 0.10678 0.58027 0.6158 0.0
C1705 C 0.10796 0.60244 0.62139 0.0
C1706 C 0.11309 0.61008 0.63927 0.0
C1707 C 0.11716 0.59564 0.65157 0.0
H1708 H 0.10484 0.61366 0.61189 0.0
H1709 H 0.13849 0.46818 0.72982 0.0
H1710 H 0.47347 0.07418 0.91146 0.0
H1711 H 0.48637 0.09774 0.88392 0.0
H1712 H 0.56809 0.12816 0.89773 0.0
H1713 H 0.55544 0.10609 0.92584 0.0
H1714 H 0.56382 0.16229 0.88114 0.0
H1715 H 0.53125 0.07388 0.87086 0.0
H1716 H 0.49877 0.02815 0.87191 0.0
H1717 H 0.44426 0.03821 0.84059 0.0
H1718 H 0.47629 0.08409 0.8396 0.0
H1719 H 0.62052 0.17128 0.79623 0.0
H1720 H 0.60135 0.15624 0.82543 0.0
H1721 H 0.53249 0.15769 0.80918 0.0
H1722 H 0.55183 0.17343 0.78 0.0
H1723 H 0.52641 0.10952 0.82623 0.0
H1724 H 0.56394 0.19926 0.83464 0.0
H1725 H 0.59946 0.24396 0.83311 0.0
H1726 H 0.64818 0.22972 0.86751 0.0
H1727 H 0.61308 0.18481 0.869 0.0
C1728 C 0.49422 0.08647 0.90892 0.0
C1729 C 0.51342 0.08793 0.92078 0.0
C1730 C 0.50155 0.09969 0.89303 0.0
C1731 C 0.52817 0.11418 0.88851 0.0
C1732 C 0.54741 0.11691 0.90082 0.0
C1733 C 0.54012 0.10403 0.91682 0.0
C1734 C 0.53607 0.12507 0.87056 0.0
C1735 C 0.55564 0.1507 0.86916 0.0
C1736 C 0.52524 0.11005 0.85485 0.0
C1737 C 0.50604 0.08245 0.85533 0.0
C1738 C 0.51226 0.06636 0.86431 0.0
C1739 C 0.49394 0.04042 0.86489 0.0
C1740 C 0.46944 0.03029 0.85636 0.0
C1741 C 0.46323 0.04609 0.84722 0.0
C1742 C 0.48145 0.07206 0.84665 0.0
C1743 C 0.60131 0.16843 0.79887 0.0
C1744 C 0.58767 0.17356 0.78586 0.0
C1745 C 0.59046 0.15993 0.81554 0.0
C1746 C 0.56562 0.15599 0.81939 0.0
C1747 C 0.55174 0.16073 0.8064 0.0
C1748 C 0.56284 0.16977 0.78981 0.0
C1749 C 0.55417 0.14651 0.83696 0.0
C1750 C 0.53411 0.12113 0.83824 0.0
C1751 C 0.56489 0.16158 0.85255 0.0
C1752 C 0.58596 0.18861 0.85179 0.0
C1753 C 0.58232 0.2056 0.84174 0.0
C1754 C 0.60236 0.23099 0.84091 0.0
C1755 C 0.62609 0.23967 0.85017 0.0
C1756 C 0.6298 0.22297 0.86032 0.0
C1757 C 0.60983 0.19755 0.86118 0.0
H1758 H 0.64158 0.25933 0.84951 0.0
H1759 H 0.45531 0.0102 0.85678 0.0
H1760 H 0.51822 0.61514 0.08924 0.0
H1761 H 0.50821 0.62263 0.05916 0.0
H1762 H 0.58824 0.65008 0.04417 0.0
H1763 H 0.59835 0.64228 0.0742 0.0
H1764 H 0.56477 0.67622 0.02801 0.0
H1765 H 0.54888 0.59309 0.03607 0.0
H1766 H 0.53143 0.55249 0.05118 0.0
H1767 H 0.45258 0.53588 0.04226 0.0
H1768 H 0.46959 0.57672 0.02748 0.0
H1769 H 0.52667 0.65108 0.93523 0.0
H1770 H 0.54653 0.65127 0.96416 0.0
H1771 H 0.47058 0.61927 0.98838 0.0
H1772 H 0.45102 0.61945 0.95972 0.0
H1773 H 0.49698 0.59584 0.99871 0.0
H1774 H 0.51378 0.68059 0.99263 0.0
H1775 H 0.53147 0.72149 0.97783 0.0
H1776 H 0.60949 0.73426 0.98199 0.0
H1777 H 0.59218 0.69322 0.99659 0.0
C1778 C 0.5338 0.62322 0.07963 0.0
C1779 C 0.55895 0.62783 0.08397 0.0
C1780 C 0.5281 0.62756 0.06251 0.0
C1781 C 0.54742 0.63652 0.04946 0.0
C1782 C 0.57312 0.64316 0.05411 0.0
C1783 C 0.57885 0.63876 0.07127 0.0
C1784 C 0.53981 0.63594 0.03065 0.0
C1785 C 0.55031 0.65863 0.02143 0.0
C1786 C 0.52091 0.61292 0.02218 0.0
C1787 C 0.51055 0.58815 0.03086 0.0
C1788 C 0.52783 0.58092 0.03749 0.0
C1789 C 0.51802 0.55784 0.04598 0.0
C1790 C 0.49092 0.54165 0.04772 0.0
C1791 C 0.47358 0.54848 0.04094 0.0
C1792 C 0.48329 0.5716 0.03251 0.0
C1793 C 0.51433 0.64386 0.94676 0.0
C1794 C 0.48726 0.63443 0.94529 0.0
C1795 C 0.52562 0.64406 0.96321 0.0
C1796 C 0.50997 0.63526 0.97836 0.0
C1797 C 0.48294 0.62593 0.97682 0.0
C1798 C 0.47175 0.62585 0.96046 0.0
C1799 C 0.52153 0.63611 0.99603 0.0
C1800 C 0.51178 0.61339 0.00508 0.0
C1801 C 0.54124 0.65903 0.0042 0.0
C1802 C 0.55165 0.68371 0.9955 0.0
C1803 C 0.53467 0.69202 0.99024 0.0
C1804 C 0.54463 0.71524 0.98192 0.0
C1805 C 0.57158 0.73042 0.97892 0.0
C1806 C 0.58862 0.72245 0.98429 0.0
C1807 C 0.57875 0.69922 0.99259 0.0
H1808 H 0.57925 0.7484 0.97248 0.0
H1809 H 0.48336 0.52377 0.05429 0.0
H1810 H 0.97652 0.45904 0.23634 0.0
H1811 H 0.95433 0.44423 0.20745 0.0
H1812 H 0.89452 0.4592 0.2242 0.0
H1813 H 0.91622 0.47329 0.25349 0.0
H1814 H 0.87348 0.41455 0.20659 0.0
H1815 H 0.9431 0.49967 0.19726 0.0
H1816 H 0.98902 0.53539 0.19857 0.0
H1817 H 0.01233 0.49399 0.16515 0.0
H1818 H 0.96659 0.45786 0.16385 0.0
H1819 H 0.8159 0.3955 0.12059 0.0
H1820 H 0.83537 0.41123 0.14994 0.0
H1821 H 0.90833 0.41984 0.13189 0.0
H1822 H 0.8901 0.40951 0.10163 0.0
H1823 H 0.92197 0.45388 0.1516 0.0
H1824 H 0.85005 0.36551 0.16415 0.0
H1825 H 0.80352 0.3306 0.16564 0.0
H1826 H 0.78399 0.37902 0.19374 0.0
H1827 H 0.83017 0.41404 0.19273 0.0
C1828 C 0.95839 0.45878 0.23401 0.0
C1829 C 0.94802 0.4672 0.24725 0.0
C1830 C 0.94592 0.45061 0.2174 0.0
C1831 C 0.92298 0.45094 0.21359 0.0
C1832 C 0.91229 0.45891 0.22685 0.0
C1833 C 0.92476 0.46707 0.24352 0.0
C1834 C 0.9102 0.44294 0.19575 0.0
C1835 C 0.88397 0.42312 0.19449 0.0
C1836 C 0.924 0.45409 0.18005 0.0
C1837 C 0.95144 0.47598 0.18057 0.0
C1838 C 0.95804 0.49813 0.19027 0.0
C1839 C 0.98404 0.51845 0.191 0.0
C1840 C 0.00358 0.51695 0.18197 0.0
C1841 C 0.99716 0.49513 0.17214 0.0
C1842 C 0.9712 0.47473 0.17139 0.0
C1843 C 0.83608 0.40064 0.12303 0.0
C1844 C 0.85116 0.39985 0.10914 0.0
C1845 C 0.84713 0.40916 0.14 0.0
C1846 C 0.87306 0.41544 0.14381 0.0
C1847 C 0.88816 0.41481 0.12968 0.0
C1848 C 0.87761 0.40817 0.11239 0.0
C1849 C 0.88512 0.42425 0.16204 0.0
C1850 C 0.91134 0.44464 0.16349 0.0
C1851 C 0.87122 0.41354 0.17796 0.0
C1852 C 0.84349 0.39241 0.17821 0.0
C1853 C 0.83578 0.36871 0.17055 0.0
C1854 C 0.80953 0.34893 0.17132 0.0
C1855 C 0.79089 0.35267 0.1796 0.0
C1856 C 0.79843 0.37615 0.18728 0.0
C1857 C 0.82462 0.39592 0.1867 0.0
H1858 H 0.77062 0.33732 0.18012 0.0
H1859 H 0.02369 0.5327 0.18255 0.0
loop_
_geom_bond_atom_site_label_1
_geom_bond_atom_site_label_2
_geom_bond_distance
_geom_bond_site_symmetry_2
_ccdc_geom_bond_type
H0 O26 0.856 . S
H1 O29 0.854 . S
H2 C37 0.930 1_455 S
H3 C38 0.930 . S
H4 C40 0.930 . S
H5 C41 0.930 . S
H6 C43 0.931 . S
H7 C44 0.930 . S
H8 C46 0.930 . S
H9 C47 0.929 . S
H10 C49 0.930 . S
H11 C50 0.931 . S
H12 C52 0.930 . S
H13 C53 0.929 . S
H14 C55 0.931 . S
H15 C56 0.930 . S
H16 C58 0.930 . S
H17 C59 0.932 . S
H18 C61 0.930 . S
H19 C62 0.929 . S
H20 C64 0.931 . S
H21 C65 0.930 . S
H22 C67 0.929 . S
H23 C68 0.931 . S
H24 C70 0.930 . S
H25 C71 0.929 1_455 S
O26 H0 0.856 . S
O26 C72 1.300 . S
O27 C72 1.209 . S
O28 C73 1.199 . S
O29 H1 0.854 . S
O29 C73 1.297 . S
C30 C31 1.404 . S
C30 C35 1.397 . S
C30 C36 1.492 . S
C31 C30 1.404 . S
C31 C32 1.396 . S
C31 C42 1.492 . S
C32 C31 1.396 . S
C32 C33 1.397 . S
C32 C48 1.509 . S
C33 C32 1.397 . S
C33 C34 1.412 . S
C33 C54 1.485 . S
C34 C33 1.412 . S
C34 C35 1.388 . S
C34 C60 1.490 . S
C35 C30 1.397 . S
C35 C34 1.388 . S
C35 C66 1.519 1_455 S
C36 C30 1.492 . S
C36 C37 1.363 1_455 S
C36 C41 1.390 1_455 S
C37 H2 0.930 1_655 S
C37 C36 1.363 1_655 S
C37 C38 1.372 . S
C38 H3 0.930 . S
C38 C37 1.372 . S
C38 C39 1.383 . S
C39 C38 1.383 . S
C39 C40 1.395 . S
C40 H4 0.930 . S
C40 C39 1.395 . S
C40 C41 1.362 . S
C41 H5 0.930 . S
C41 C36 1.390 1_655 S
C41 C40 1.362 . S
C42 C31 1.492 . S
C42 C43 1.377 . S
C42 C47 1.397 . S
C43 H6 0.931 . S
C43 C42 1.377 . S
C43 C44 1.376 . S
C44 H7 0.930 . S
C44 C43 1.376 . S
C44 C45 1.376 . S
C45 C44 1.376 . S
C45 C46 1.378 . S
C45 C72 1.486 . S
C46 H8 0.930 . S
C46 C45 1.378 . S
C46 C47 1.376 . S
C47 H9 0.929 . S
C47 C42 1.397 . S
C47 C46 1.376 . S
C48 C32 1.509 . S
C48 C49 1.391 . S
C48 C53 1.386 . S
C49 H10 0.930 . S
C49 C48 1.391 . S
C49 C50 1.375 . S
C50 H11 0.931 . S
C50 C49 1.375 . S
C50 C51 1.375 . S
C51 C50 1.375 . S
C51 C52 1.361 . S
C52 H12 0.930 . S
C52 C51 1.361 . S
C52 C53 1.399 . S
C53 H13 0.929 . S
C53 C48 1.386 . S
C53 C52 1.399 . S
C54 C33 1.485 . S
C54 C55 1.394 . S
C54 C59 1.360 . S
C55 H14 0.931 . S
C55 C54 1.394 . S
C55 C56 1.372 . S
C56 H15 0.930 . S
C56 C55 1.372 . S
C56 C57 1.397 . S
C57 C56 1.397 . S
C57 C58 1.390 . S
C57 C73 1.476 . S
C58 H16 0.930 . S
C58 C57 1.390 . S
C58 C59 1.366 . S
C59 H17 0.932 . S
C59 C54 1.360 . S
C59 C58 1.366 . S
C60 C34 1.490 . S
C60 C61 1.380 . S
C60 C65 1.386 . S
C61 H18 0.930 . S
C61 C60 1.380 . S
C61 C62 1.381 . S
C62 H19 0.929 . S
C62 C61 1.381 . S
C62 C63 1.371 . S
C63 C62 1.371 . S
C63 C64 1.380 . S
C64 H20 0.931 . S
C64 C63 1.380 . S
C64 C65 1.387 . S
C65 H21 0.930 . S
C65 C60 1.386 . S
C65 C64 1.387 . S
C66 C35 1.519 1_655 S
C66 C67 1.377 . S
C66 C71 1.361 . S
C67 H22 0.929 . S
C67 C66 1.377 . S
C67 C68 1.386 . S
C68 H23 0.931 . S
C68 C67 1.386 . S
C68 C69 1.363 . S
C69 C68 1.363 . S
C69 C70 1.385 . S
C70 H24 0.930 . S
C70 C69 1.385 . S
C70 C71 1.396 . S
C71 H25 0.929 1_655 S
C71 C66 1.361 . S
C71 C70 1.396 . S
C72 O26 1.300 . S
C72 O27 1.209 . S
C72 C45 1.486 . S
C73 O28 1.199 . S
C73 O29 1.297 . S
C73 C57 1.476 . S
H74 O100 0.856 . S
H75 O103 0.854 . S
H76 C111 0.930 . S
H77 C112 0.930 . S
H78 C114 0.930 . S
H79 C115 0.933 . S
H80 C117 0.931 . S
H81 C118 0.930 . S
H82 C120 0.930 . S
H83 C121 0.929 . S
H84 C123 0.930 . S
H85 C124 0.931 . S
H86 C126 0.930 . S
H87 C127 0.929 . S
H88 C129 0.931 . S
H89 C130 0.930 . S
H90 C132 0.930 . S
H91 C133 0.932 . S
H92 C135 0.930 . S
H93 C136 0.929 . S
H94 C138 0.931 . S
H95 C139 0.930 . S
H96 C141 0.929 1_545 S
H97 C142 0.931 . S
H98 C144 0.930 . S
H99 C145 0.929 . S
O100 H74 0.856 . S
O100 C146 1.300 . S
O101 C146 1.209 . S
O102 C147 1.199 . S
O103 H75 0.854 . S
O103 C147 1.297 . S
C104 C105 1.404 . S
C104 C109 1.397 . S
C104 C110 1.492 . S
C105 C104 1.404 . S
C105 C106 1.396 . S
C105 C116 1.492 . S
C106 C105 1.396 . S
C106 C107 1.397 . S
C106 C122 1.509 . S
C107 C106 1.397 . S
C107 C108 1.412 . S
C107 C128 1.485 . S
C108 C107 1.412 . S
C108 C109 1.388 . S
C108 C134 1.490 . S
C109 C104 1.397 . S
C109 C108 1.388 . S
C109 C140 1.519 . S
C110 C104 1.492 . S
C110 C111 1.363 . S
C110 C115 1.390 1_545 S
C111 H76 0.930 . S
C111 C110 1.363 . S
C111 C112 1.372 1_545 S
C112 H77 0.930 . S
C112 C111 1.372 1_565 S
C112 C113 1.383 . S
C113 C112 1.383 . S
C113 C114 1.395 . S
C114 H78 0.930 . S
C114 C113 1.395 . S
C114 C115 1.362 . S
C115 H79 0.933 . S
C115 C110 1.390 1_565 S
C115 C114 1.362 . S
C116 C105 1.492 . S
C116 C117 1.377 . S
C116 C121 1.397 . S
C117 H80 0.931 . S
C117 C116 1.377 . S
C117 C118 1.376 . S
C118 H81 0.930 . S
C118 C117 1.376 . S
C118 C119 1.376 . S
C119 C118 1.376 . S
C119 C120 1.378 . S
C119 C146 1.486 . S
C120 H82 0.930 . S
C120 C119 1.378 . S
C120 C121 1.376 . S
C121 H83 0.929 . S
C121 C116 1.397 . S
C121 C120 1.376 . S
C122 C106 1.509 . S
C122 C123 1.391 . S
C122 C127 1.386 . S
C123 H84 0.930 . S
C123 C122 1.391 . S
C123 C124 1.375 . S
C124 H85 0.931 . S
C124 C123 1.375 . S
C124 C125 1.375 . S
C125 C124 1.375 . S
C125 C126 1.361 . S
C126 H86 0.930 . S
C126 C125 1.361 . S
C126 C127 1.399 . S
C127 H87 0.929 . S
C127 C122 1.386 . S
C127 C126 1.399 . S
C128 C107 1.485 . S
C128 C129 1.394 . S
C128 C133 1.360 . S
C129 H88 0.931 . S
C129 C128 1.394 . S
C129 C130 1.372 . S
C130 H89 0.930 . S
C130 C129 1.372 . S
C130 C131 1.397 . S
C131 C130 1.397 . S
C131 C132 1.390 . S
C131 C147 1.476 . S
C132 H90 0.930 . S
C132 C131 1.390 . S
C132 C133 1.366 . S
C133 H91 0.932 . S
C133 C128 1.360 . S
C133 C132 1.366 . S
C134 C108 1.490 . S
C134 C135 1.380 . S
C134 C139 1.386 . S
C135 H92 0.930 . S
C135 C134 1.380 . S
C135 C136 1.381 . S
C136 H93 0.929 . S
C136 C135 1.381 . S
C136 C137 1.371 . S
C137 C136 1.371 . S
C137 C138 1.380 . S
C138 H94 0.931 . S
C138 C137 1.380 . S
C138 C139 1.387 . S
C139 H95 0.930 . S
C139 C134 1.386 . S
C139 C138 1.387 . S
C140 C109 1.519 . S
C140 C141 1.377 1_545 S
C140 C145 1.361 . S
C141 H96 0.929 1_565 S
C141 C140 1.377 1_565 S
C141 C142 1.386 . S
C142 H97 0.931 . S
C142 C141 1.386 . S
C142 C143 1.363 . S
C143 C142 1.363 . S
C143 C144 1.385 . S
C144 H98 0.930 . S
C144 C143 1.385 . S
C144 C145 1.396 1_565 S
C145 H99 0.929 . S
C145 C140 1.361 . S
C145 C144 1.396 1_545 S
C146 O100 1.300 . S
C146 O101 1.209 . S
C146 C119 1.486 . S
C147 O102 1.199 . S
C147 O103 1.297 . S
C147 C131 1.476 . S
H148 O174 0.856 . S
H149 O177 0.854 . S
H150 C185 0.930 . S
H151 C186 0.930 . S
H152 C188 0.930 . S
H153 C189 0.930 . S
H154 C191 0.931 . S
H155 C192 0.930 . S
H156 C194 0.930 . S
H157 C195 0.929 . S
H158 C197 0.930 . S
H159 C198 0.931 . S
H160 C200 0.930 . S
H161 C201 0.929 . S
H162 C203 0.931 . S
H163 C204 0.930 . S
H164 C206 0.930 . S
H165 C207 0.932 . S
H166 C209 0.930 . S
H167 C210 0.929 . S
H168 C212 0.931 . S
H169 C213 0.930 . S
H170 C215 0.929 . S
H171 C216 0.931 . S
H172 C218 0.930 . S
H173 C219 0.929 . S
O174 H148 0.856 . S
O174 C220 1.300 . S
O175 C220 1.209 . S
O176 C221 1.199 . S
O177 H149 0.854 . S
O177 C221 1.297 . S
C178 C179 1.404 . S
C178 C183 1.397 . S
C178 C184 1.492 . S
C179 C178 1.404 . S
C179 C180 1.396 . S
C179 C190 1.492 . S
C180 C179 1.396 . S
C180 C181 1.397 . S
C180 C196 1.509 . S
C181 C180 1.397 . S
C181 C182 1.412 . S
C181 C202 1.485 . S
C182 C181 1.412 . S
C182 C183 1.388 . S
C182 C208 1.490 . S
C183 C178 1.397 . S
C183 C182 1.388 . S
C183 C214 1.519 . S
C184 C178 1.492 . S
C184 C185 1.363 . S
C184 C189 1.390 . S
C185 H150 0.930 . S
C185 C184 1.363 . S
C185 C186 1.372 . S
C186 H151 0.930 . S
C186 C185 1.372 . S
C186 C187 1.383 . S
C187 C186 1.383 . S
C187 C188 1.395 . S
C188 H152 0.930 . S
C188 C187 1.395 . S
C188 C189 1.362 . S
C189 H153 0.930 . S
C189 C184 1.390 . S
C189 C188 1.362 . S
C190 C179 1.492 . S
C190 C191 1.377 . S
C190 C195 1.397 . S
C191 H154 0.931 . S
C191 C190 1.377 . S
C191 C192 1.376 . S
C192 H155 0.930 . S
C192 C191 1.376 . S
C192 C193 1.376 . S
C193 C192 1.376 . S
C193 C194 1.378 . S
C193 C220 1.486 . S
C194 H156 0.930 . S
C194 C193 1.378 . S
C194 C195 1.376 . S
C195 H157 0.929 . S
C195 C190 1.397 . S
C195 C194 1.376 . S
C196 C180 1.509 . S
C196 C197 1.391 . S
C196 C201 1.386 . S
C197 H158 0.930 . S
C197 C196 1.391 . S
C197 C198 1.375 . S
C198 H159 0.931 . S
C198 C197 1.375 . S
C198 C199 1.375 . S
C199 C198 1.375 . S
C199 C200 1.361 . S
C200 H160 0.930 . S
C200 C199 1.361 . S
C200 C201 1.399 . S
C201 H161 0.929 . S
C201 C196 1.386 . S
C201 C200 1.399 . S
C202 C181 1.485 . S
C202 C203 1.394 . S
C202 C207 1.360 . S
C203 H162 0.931 . S
C203 C202 1.394 . S
C203 C204 1.372 . S
C204 H163 0.930 . S
C204 C203 1.372 . S
C204 C205 1.397 . S
C205 C204 1.397 . S
C205 C206 1.390 . S
C205 C221 1.476 . S
C206 H164 0.930 . S
C206 C205 1.390 . S
C206 C207 1.366 . S
C207 H165 0.932 . S
C207 C202 1.360 . S
C207 C206 1.366 . S
C208 C182 1.490 . S
C208 C209 1.380 . S
C208 C213 1.386 . S
C209 H166 0.930 . S
C209 C208 1.380 . S
C209 C210 1.381 . S
C210 H167 0.929 . S
C210 C209 1.381 . S
C210 C211 1.371 . S
C211 C210 1.371 . S
C211 C212 1.380 . S
C212 H168 0.931 . S
C212 C211 1.380 . S
C212 C213 1.387 . S
C213 H169 0.930 . S
C213 C208 1.386 . S
C213 C212 1.387 . S
C214 C183 1.519 . S
C214 C215 1.377 . S
C214 C219 1.361 . S
C215 H170 0.929 . S
C215 C214 1.377 . S
C215 C216 1.386 . S
C216 H171 0.931 . S
C216 C215 1.386 . S
C216 C217 1.363 . S
C217 C216 1.363 . S
C217 C218 1.385 . S
C218 H172 0.930 . S
C218 C217 1.385 . S
C218 C219 1.396 . S
C219 H173 0.929 . S
C219 C214 1.361 . S
C219 C218 1.396 . S
C220 O174 1.300 . S
C220 O175 1.209 . S
C220 C193 1.486 . S
C221 O176 1.199 . S
C221 O177 1.297 . S
C221 C205 1.476 . S
H222 O248 0.856 . S
H223 O251 0.854 . S
H224 C259 0.927 1_455 S
H225 C260 0.930 . S
H226 C262 0.930 . S
H227 C263 0.930 . S
H228 C265 0.931 . S
H229 C266 0.930 . S
H230 C268 0.930 . S
H231 C269 0.929 . S
H232 C271 0.930 . S
H233 C272 0.931 . S
H234 C274 0.930 . S
H235 C275 0.929 . S
H236 C277 0.931 . S
H237 C278 0.930 . S
H238 C280 0.930 . S
H239 C281 0.932 . S
H240 C283 0.930 . S
H241 C284 0.929 . S
H242 C286 0.931 . S
H243 C287 0.930 . S
H244 C289 0.929 . S
H245 C290 0.931 . S
H246 C292 0.930 . S
H247 C293 0.891 1_455 S
O248 H222 0.856 . S
O248 C294 1.300 . S
O249 C294 1.209 . S
O250 C295 1.199 . S
O251 H223 0.854 . S
O251 C295 1.297 . S
C252 C253 1.404 . S
C252 C257 1.397 . S
C252 C258 1.492 . S
C253 C252 1.404 . S
C253 C254 1.396 . S
C253 C264 1.492 . S
C254 C253 1.396 . S
C254 C255 1.397 . S
C254 C270 1.509 . S
C255 C254 1.397 . S
C255 C256 1.412 . S
C255 C276 1.485 . S
C256 C255 1.412 . S
C256 C257 1.388 . S
C256 C282 1.490 . S
C257 C252 1.397 . S
C257 C256 1.388 . S
C257 C288 1.519 1_455 S
C258 C252 1.492 . S
C258 C259 1.355 1_455 S
C258 C263 1.390 1_455 S
C259 H224 0.927 1_655 S
C259 C258 1.355 1_655 S
C259 C260 1.383 . S
C260 H225 0.930 . S
C260 C259 1.383 . S
C260 C261 1.383 . S
C261 C260 1.383 . S
C261 C262 1.395 . S
C262 H226 0.930 . S
C262 C261 1.395 . S
C262 C263 1.362 . S
C263 H227 0.930 . S
C263 C258 1.390 1_655 S
C263 C262 1.362 . S
C264 C253 1.492 . S
C264 C265 1.377 . S
C264 C269 1.397 . S
C265 H228 0.931 . S
C265 C264 1.377 . S
C265 C266 1.376 . S
C266 H229 0.930 . S
C266 C265 1.376 . S
C266 C267 1.376 . S
C267 C266 1.376 . S
C267 C268 1.378 . S
C267 C294 1.486 . S
C268 H230 0.930 . S
C268 C267 1.378 . S
C268 C269 1.376 . S
C269 H231 0.929 . S
C269 C264 1.397 . S
C269 C268 1.376 . S
C270 C254 1.509 . S
C270 C271 1.391 . S
C270 C275 1.386 . S
C271 H232 0.930 . S
C271 C270 1.391 . S
C271 C272 1.375 . S
C272 H233 0.931 . S
C272 C271 1.375 . S
C272 C273 1.375 . S
C273 C272 1.375 . S
C273 C274 1.361 . S
C274 H234 0.930 . S
C274 C273 1.361 . S
C274 C275 1.399 . S
C275 H235 0.929 . S
C275 C270 1.386 . S
C275 C274 1.399 . S
C276 C255 1.485 . S
C276 C277 1.394 . S
C276 C281 1.360 . S
C277 H236 0.931 . S
C277 C276 1.394 . S
C277 C278 1.372 . S
C278 H237 0.930 . S
C278 C277 1.372 . S
C278 C279 1.397 . S
C279 C278 1.397 . S
C279 C280 1.390 . S
C279 C295 1.476 . S
C280 H238 0.930 . S
C280 C279 1.390 . S
C280 C281 1.366 . S
C281 H239 0.932 . S
C281 C276 1.360 . S
C281 C280 1.366 . S
C282 C256 1.490 . S
C282 C283 1.380 . S
C282 C287 1.386 . S
C283 H240 0.930 . S
C283 C282 1.380 . S
C283 C284 1.381 . S
C284 H241 0.929 . S
C284 C283 1.381 . S
C284 C285 1.371 . S
C285 C284 1.371 . S
C285 C286 1.380 . S
C286 H242 0.931 . S
C286 C285 1.380 . S
C286 C287 1.387 . S
C287 H243 0.930 . S
C287 C282 1.386 . S
C287 C286 1.387 . S
C288 C257 1.519 1_655 S
C288 C289 1.377 . S
C288 C293 1.361 . S
C289 H244 0.929 . S
C289 C288 1.377 . S
C289 C290 1.386 . S
C290 H245 0.931 . S
C290 C289 1.386 . S
C290 C291 1.363 . S
C291 C290 1.363 . S
C291 C292 1.385 . S
C292 H246 0.930 . S
C292 C291 1.385 . S
C292 C293 1.396 . S
C293 H247 0.891 1_655 S
C293 C288 1.361 . S
C293 C292 1.396 . S
C294 O248 1.300 . S
C294 O249 1.209 . S
C294 C267 1.486 . S
C295 O250 1.199 . S
C295 O251 1.297 . S
C295 C279 1.476 . S
H296 O322 0.856 . S
H297 O325 0.854 . S
H298 C333 0.930 . S
H299 C334 0.930 . S
H300 C336 0.930 . S
H301 C337 0.930 . S
H302 C339 0.931 . S
H303 C340 0.930 . S
H304 C342 0.930 . S
H305 C343 0.929 . S
H306 C345 0.930 . S
H307 C346 0.931 . S
H308 C348 0.930 . S
H309 C349 0.929 . S
H310 C351 0.931 . S
H311 C352 0.930 . S
H312 C354 0.930 . S
H313 C355 0.932 . S
H314 C357 0.930 . S
H315 C358 0.929 1_545 S
H316 C360 0.931 . S
H317 C361 0.930 . S
H318 C363 0.936 . S
H319 C364 0.931 . S
H320 C366 0.930 . S
H321 C367 0.929 . S
O322 H296 0.856 . S
O322 C368 1.300 . S
O323 C368 1.209 . S
O324 C369 1.199 . S
O325 H297 0.854 . S
O325 C369 1.297 . S
C326 C327 1.404 1_545 S
C326 C331 1.397 . S
C326 C332 1.492 . S
C327 C326 1.404 1_565 S
C327 C328 1.396 . S
C327 C338 1.492 . S
C328 C327 1.396 . S
C328 C329 1.397 . S
C328 C344 1.509 . S
C329 C328 1.397 . S
C329 C330 1.412 1_556 S
C329 C350 1.485 1_556 S
C330 C329 1.412 1_554 S
C330 C331 1.388 1_564 S
C330 C356 1.490 . S
C331 C326 1.397 . S
C331 C330 1.388 1_546 S
C331 C362 1.501 1_556 S
C332 C326 1.492 . S
C332 C333 1.363 . S
C332 C337 1.390 . S
C333 H298 0.930 . S
C333 C332 1.363 . S
C333 C334 1.372 . S
C334 H299 0.930 . S
C334 C333 1.372 . S
C334 C335 1.383 . S
C335 C334 1.383 . S
C335 C336 1.395 . S
C336 H300 0.930 . S
C336 C335 1.395 . S
C336 C337 1.362 . S
C337 H301 0.930 . S
C337 C332 1.390 . S
C337 C336 1.362 . S
C338 C327 1.492 . S
C338 C339 1.377 . S
C338 C343 1.397 . S
C339 H302 0.931 . S
C339 C338 1.377 . S
C339 C340 1.376 . S
C340 H303 0.930 . S
C340 C339 1.376 . S
C340 C341 1.376 . S
C341 C340 1.376 . S
C341 C342 1.378 . S
C341 C368 1.486 . S
C342 H304 0.930 . S
C342 C341 1.378 . S
C342 C343 1.376 . S
C343 H305 0.929 . S
C343 C338 1.397 . S
C343 C342 1.376 . S
C344 C328 1.509 . S
C344 C345 1.391 . S
C344 C349 1.386 . S
C345 H306 0.930 . S
C345 C344 1.391 . S
C345 C346 1.375 . S
C346 H307 0.931 . S
C346 C345 1.375 . S
C346 C347 1.375 . S
C347 C346 1.375 . S
C347 C348 1.361 . S
C348 H308 0.930 . S
C348 C347 1.361 . S
C348 C349 1.399 . S
C349 H309 0.929 . S
C349 C344 1.386 . S
C349 C348 1.399 . S
C350 C329 1.485 1_554 S
C350 C351 1.394 . S
C350 C355 1.360 . S
C351 H310 0.931 . S
C351 C350 1.394 . S
C351 C352 1.372 . S
C352 H311 0.930 . S
C352 C351 1.372 . S
C352 C353 1.397 . S
C353 C352 1.397 . S
C353 C354 1.390 . S
C353 C369 1.476 . S
C354 H312 0.930 . S
C354 C353 1.390 . S
C354 C355 1.366 . S
C355 H313 0.932 . S
C355 C350 1.360 . S
C355 C354 1.366 . S
C356 C330 1.490 . S
C356 C357 1.380 . S
C356 C361 1.386 . S
C357 H314 0.930 . S
C357 C356 1.380 . S
C357 C358 1.381 . S
C358 H315 0.929 1_565 S
C358 C357 1.381 . S
C358 C359 1.371 . S
C359 C358 1.371 . S
C359 C360 1.380 . S
C360 H316 0.931 . S
C360 C359 1.380 . S
C360 C361 1.387 . S
C361 H317 0.930 . S
C361 C356 1.386 . S
C361 C360 1.387 . S
C362 C331 1.501 1_554 S
C362 C363 1.374 1_554 S
C362 C367 1.383 . S
C363 H318 0.936 . S
C363 C362 1.374 1_556 S
C363 C364 1.381 1_556 S
C364 H319 0.931 . S
C364 C363 1.381 1_554 S
C364 C365 1.363 . S
C365 C364 1.363 . S
C365 C366 1.385 . S
C366 H320 0.930 . S
C366 C365 1.385 . S
C366 C367 1.396 . S
C367 H321 0.929 . S
C367 C362 1.383 . S
C367 C366 1.396 . S
C368 O322 1.300 . S
C368 O323 1.209 . S
C368 C341 1.486 . S
C369 O324 1.199 . S
C369 O325 1.297 . S
C369 C353 1.476 . S
H370 O396 0.856 . S
H371 O399 0.854 . S
H372 C407 0.930 . S
H373 C408 0.930 . S
H374 C410 0.930 . S
H375 C411 0.930 . S
H376 C413 0.931 . S
H377 C414 0.930 . S
H378 C416 0.930 . S
H379 C417 0.929 . S
H380 C419 0.930 . S
H381 C420 0.931 . S
H382 C422 0.930 . S
H383 C423 0.929 . S
H384 C425 0.931 . S
H385 C426 0.930 . S
H386 C428 0.930 . S
H387 C429 0.932 . S
H388 C431 0.930 . S
H389 C432 0.929 . S
H390 C434 0.931 . S
H391 C435 0.930 . S
H392 C437 0.929 . S
H393 C438 0.931 . S
H394 C440 0.930 . S
H395 C441 0.929 . S
O396 H370 0.856 . S
O396 C442 1.300 . S
O397 C442 1.209 . S
O398 C443 1.199 . S
O399 H371 0.854 . S
O399 C443 1.297 . S
C400 C401 1.404 . S
C400 C405 1.397 . S
C400 C406 1.492 . S
C401 C400 1.404 . S
C401 C402 1.396 . S
C401 C412 1.492 . S
C402 C401 1.396 . S
C402 C403 1.397 . S
C402 C418 1.509 . S
C403 C402 1.397 . S
C403 C404 1.412 . S
C403 C424 1.485 . S
C404 C403 1.412 . S
C404 C405 1.388 . S
C404 C430 1.490 . S
C405 C400 1.397 . S
C405 C404 1.388 . S
C405 C436 1.519 . S
C406 C400 1.492 . S
C406 C407 1.363 . S
C406 C411 1.390 . S
C407 H372 0.930 . S
C407 C406 1.363 . S
C407 C408 1.372 . S
C408 H373 0.930 . S
C408 C407 1.372 . S
C408 C409 1.383 . S
C409 C408 1.383 . S
C409 C410 1.395 . S
C410 H374 0.930 . S
C410 C409 1.395 . S
C410 C411 1.362 . S
C411 H375 0.930 . S
C411 C406 1.390 . S
C411 C410 1.362 . S
C412 C401 1.492 . S
C412 C413 1.377 . S
C412 C417 1.397 . S
C413 H376 0.931 . S
C413 C412 1.377 . S
C413 C414 1.376 . S
C414 H377 0.930 . S
C414 C413 1.376 . S
C414 C415 1.376 . S
C415 C414 1.376 . S
C415 C416 1.378 . S
C415 C442 1.486 . S
C416 H378 0.930 . S
C416 C415 1.378 . S
C416 C417 1.376 . S
C417 H379 0.929 . S
C417 C412 1.397 . S
C417 C416 1.376 . S
C418 C402 1.509 . S
C418 C419 1.391 . S
C418 C423 1.386 . S
C419 H380 0.930 . S
C419 C418 1.391 . S
C419 C420 1.375 . S
C420 H381 0.931 . S
C420 C419 1.375 . S
C420 C421 1.375 . S
C421 C420 1.375 . S
C421 C422 1.361 . S
C422 H382 0.930 . S
C422 C421 1.361 . S
C422 C423 1.399 . S
C423 H383 0.929 . S
C423 C418 1.386 . S
C423 C422 1.399 . S
C424 C403 1.485 . S
C424 C425 1.394 . S
C424 C429 1.360 . S
C425 H384 0.931 . S
C425 C424 1.394 . S
C425 C426 1.372 . S
C426 H385 0.930 . S
C426 C425 1.372 . S
C426 C427 1.397 . S
C427 C426 1.397 . S
C427 C428 1.390 . S
C427 C443 1.476 . S
C428 H386 0.930 . S
C428 C427 1.390 . S
C428 C429 1.366 . S
C429 H387 0.932 . S
C429 C424 1.360 . S
C429 C428 1.366 . S
C430 C404 1.490 . S
C430 C431 1.380 . S
C430 C435 1.386 . S
C431 H388 0.930 . S
C431 C430 1.380 . S
C431 C432 1.381 . S
C432 H389 0.929 . S
C432 C431 1.381 . S
C432 C433 1.371 . S
C433 C432 1.371 . S
C433 C434 1.380 . S
C434 H390 0.931 . S
C434 C433 1.380 . S
C434 C435 1.387 . S
C435 H391 0.930 . S
C435 C430 1.386 . S
C435 C434 1.387 . S
C436 C405 1.519 . S
C436 C437 1.377 . S
C436 C441 1.361 . S
C437 H392 0.929 . S
C437 C436 1.377 . S
C437 C438 1.386 . S
C438 H393 0.931 . S
C438 C437 1.386 . S
C438 C439 1.363 . S
C439 C438 1.363 . S
C439 C440 1.385 . S
C440 H394 0.930 . S
C440 C439 1.385 . S
C440 C441 1.396 . S
C441 H395 0.929 . S
C441 C436 1.361 . S
C441 C440 1.396 . S
C442 O396 1.300 . S
C442 O397 1.209 . S
C442 C415 1.486 . S
C443 O398 1.199 . S
C443 O399 1.297 . S
C443 C427 1.476 . S
Mn444 O449 2.095 . S
Mn444 O459 2.162 . S
Mn444 O460 2.297 . S
Mn444 O468 2.385 . S
Mn444 O469 2.209 . S
Mn444 O470 2.094 . S
Mn445 O450 2.121 . S
Mn445 N452 2.257 . S
Mn445 N461 2.282 . S
Mn445 O469 2.215 . S
Mn445 O471 2.117 . S
C446 O468 1.234 . S
C446 O469 1.283 . S
C447 O459 1.281 . S
C447 O460 1.236 . S
C448 O470 1.240 . S
C448 O471 1.264 . S
O449 Mn444 2.095 . S
O449 C458 1.250 . S
O450 Mn445 2.121 . S
O450 C458 1.258 . S
C451 N452 1.326 . S
C451 C455 1.460 . S
C451 H457 0.929 . S
N452 Mn445 2.257 . S
N452 C451 1.326 . S
N452 C456 1.362 . S
C453 C454 1.258 . S
C453 C456 1.431 . S
C453 C473 1.449 . S
C454 C453 1.258 . S
C454 C455 1.477 . S
C454 H474 0.931 . S
C455 C451 1.460 . S
C455 C454 1.477 . S
C455 H475 0.930 . S
C456 N452 1.362 . S
C456 C453 1.431 . S
C456 C466 1.476 . S
H457 C451 0.929 . S
C458 O449 1.250 . S
C458 O450 1.258 . S
O459 Mn444 2.162 . S
O459 C447 1.281 . S
O460 Mn444 2.297 . S
O460 C447 1.236 . S
N461 Mn445 2.282 . S
N461 C462 1.328 . S
N461 C466 1.318 . S
C462 N461 1.328 . S
C462 C463 1.457 . S
C462 H467 0.929 . S
C463 C462 1.457 . S
C463 C464 1.291 . S
C463 H476 0.931 . S
C464 C463 1.291 . S
C464 C465 1.373 . S
C464 H477 0.929 . S
C465 C464 1.373 . S
C465 C466 1.396 . S
C465 C472 1.403 . S
C466 C456 1.476 . S
C466 N461 1.318 . S
C466 C465 1.396 . S
H467 C462 0.929 . S
O468 Mn444 2.385 . S
O468 C446 1.234 . S
O469 Mn444 2.209 . S
O469 Mn445 2.215 . S
O469 C446 1.283 . S
O470 Mn444 2.094 . S
O470 C448 1.240 . S
O471 Mn445 2.117 . S
O471 C448 1.264 . S
C472 C465 1.403 . S
C472 C473 1.399 . S
C472 H478 0.929 . S
C473 C453 1.449 . S
C473 C472 1.399 . S
C473 H479 0.930 . S
H474 C454 0.931 . S
H475 C455 0.930 . S
H476 C463 0.931 . S
H477 C464 0.929 . S
H478 C472 0.929 . S
H479 C473 0.930 . S
Mn480 O485 2.095 . S
Mn480 O495 2.162 . S
Mn480 O496 2.297 . S
Mn480 O504 2.385 . S
Mn480 O505 2.209 . S
Mn480 O506 2.094 . S
Mn481 O486 2.121 . S
Mn481 N488 2.257 . S
Mn481 N497 2.282 . S
Mn481 O505 2.215 . S
Mn481 O507 2.117 . S
C482 O504 1.234 . S
C482 O505 1.283 . S
C483 O495 1.281 . S
C483 O496 1.236 . S
C484 O506 1.240 . S
C484 O507 1.264 . S
O485 Mn480 2.095 . S
O485 C494 1.250 . S
O486 Mn481 2.121 . S
O486 C494 1.258 . S
C487 N488 1.326 . S
C487 C491 1.460 . S
C487 H493 0.929 . S
N488 Mn481 2.257 . S
N488 C487 1.326 . S
N488 C492 1.362 . S
C489 C490 1.258 . S
C489 C492 1.431 . S
C489 C509 1.449 . S
C490 C489 1.258 . S
C490 C491 1.477 . S
C490 H510 0.931 . S
C491 C487 1.460 . S
C491 C490 1.477 . S
C491 H511 0.930 . S
C492 N488 1.362 . S
C492 C489 1.431 . S
C492 C502 1.476 . S
H493 C487 0.929 . S
C494 O485 1.250 . S
C494 O486 1.258 . S
O495 Mn480 2.162 . S
O495 C483 1.281 . S
O496 Mn480 2.297 . S
O496 C483 1.236 . S
N497 Mn481 2.282 . S
N497 C498 1.328 . S
N497 C502 1.318 . S
C498 N497 1.328 . S
C498 C499 1.457 . S
C498 H503 0.929 . S
C499 C498 1.457 . S
C499 C500 1.291 . S
C499 H512 0.931 . S
C500 C499 1.291 . S
C500 C501 1.373 . S
C500 H513 0.929 . S
C501 C500 1.373 . S
C501 C502 1.396 . S
C501 C508 1.403 . S
C502 C492 1.476 . S
C502 N497 1.318 . S
C502 C501 1.396 . S
H503 C498 0.929 . S
O504 Mn480 2.385 . S
O504 C482 1.234 . S
O505 Mn480 2.209 . S
O505 Mn481 2.215 . S
O505 C482 1.283 . S
O506 Mn480 2.094 . S
O506 C484 1.240 . S
O507 Mn481 2.117 . S
O507 C484 1.264 . S
C508 C501 1.403 . S
C508 C509 1.399 . S
C508 H514 0.929 . S
C509 C489 1.449 . S
C509 C508 1.399 . S
C509 H515 0.930 . S
H510 C490 0.931 . S
H511 C491 0.930 . S
H512 C499 0.931 . S
H513 C500 0.929 . S
H514 C508 0.929 . S
H515 C509 0.930 . S
Mn516 O521 2.095 . S
Mn516 O531 2.162 . S
Mn516 O532 2.297 . S
Mn516 O540 2.385 . S
Mn516 O541 2.209 . S
Mn516 O542 2.094 . S
Mn517 O522 2.121 . S
Mn517 N524 2.257 . S
Mn517 N533 2.282 . S
Mn517 O541 2.215 . S
Mn517 O543 2.117 . S
C518 O540 1.234 . S
C518 O541 1.283 . S
C519 O531 1.281 . S
C519 O532 1.236 . S
C520 O542 1.240 . S
C520 O543 1.264 . S
O521 Mn516 2.095 . S
O521 C530 1.250 . S
O522 Mn517 2.121 . S
O522 C530 1.258 . S
C523 N524 1.326 . S
C523 C527 1.460 . S
C523 H529 0.929 . S
N524 Mn517 2.257 . S
N524 C523 1.326 . S
N524 C528 1.362 . S
C525 C526 1.258 . S
C525 C528 1.431 . S
C525 C545 1.449 . S
C526 C525 1.258 . S
C526 C527 1.477 . S
C526 H546 0.931 . S
C527 C523 1.460 . S
C527 C526 1.477 . S
C527 H547 0.930 . S
C528 N524 1.362 . S
C528 C525 1.431 . S
C528 C538 1.476 . S
H529 C523 0.929 . S
C530 O521 1.250 . S
C530 O522 1.258 . S
O531 Mn516 2.162 . S
O531 C519 1.281 . S
O532 Mn516 2.297 . S
O532 C519 1.236 . S
N533 Mn517 2.282 . S
N533 C534 1.328 . S
N533 C538 1.318 . S
C534 N533 1.328 . S
C534 C535 1.457 . S
C534 H539 0.929 . S
C535 C534 1.457 . S
C535 C536 1.291 . S
C535 H548 0.931 . S
C536 C535 1.291 . S
C536 C537 1.373 . S
C536 H549 0.929 . S
C537 C536 1.373 . S
C537 C538 1.396 . S
C537 C544 1.403 . S
C538 C528 1.476 . S
C538 N533 1.318 . S
C538 C537 1.396 . S
H539 C534 0.929 . S
O540 Mn516 2.385 . S
O540 C518 1.234 . S
O541 Mn516 2.209 . S
O541 Mn517 2.215 . S
O541 C518 1.283 . S
O542 Mn516 2.094 . S
O542 C520 1.240 . S
O543 Mn517 2.117 . S
O543 C520 1.264 . S
C544 C537 1.403 . S
C544 C545 1.399 . S
C544 H550 0.929 . S
C545 C525 1.449 . S
C545 C544 1.399 . S
C545 H551 0.930 . S
H546 C526 0.931 . S
H547 C527 0.930 . S
H548 C535 0.931 . S
H549 C536 0.929 . S
H550 C544 0.929 . S
H551 C545 0.930 . S
Mn552 O557 2.095 . S
Mn552 O567 2.162 . S
Mn552 O568 2.297 . S
Mn552 O576 2.385 . S
Mn552 O577 2.209 . S
Mn552 O578 2.094 . S
Mn553 O558 2.121 . S
Mn553 N560 2.257 . S
Mn553 N569 2.282 . S
Mn553 O577 2.215 . S
Mn553 O579 2.117 . S
C554 O576 1.234 . S
C554 O577 1.283 . S
C555 O567 1.281 . S
C555 O568 1.236 . S
C556 O578 1.240 . S
C556 O579 1.264 . S
O557 Mn552 2.095 . S
O557 C566 1.250 . S
O558 Mn553 2.121 . S
O558 C566 1.258 . S
C559 N560 1.326 . S
C559 C563 1.460 . S
C559 H565 0.929 . S
N560 Mn553 2.257 . S
N560 C559 1.326 . S
N560 C564 1.362 . S
C561 C562 1.258 . S
C561 C564 1.431 . S
C561 C581 1.449 . S
C562 C561 1.258 . S
C562 C563 1.477 . S
C562 H582 0.931 . S
C563 C559 1.460 . S
C563 C562 1.477 . S
C563 H583 0.930 . S
C564 N560 1.362 . S
C564 C561 1.431 . S
C564 C574 1.476 . S
H565 C559 0.929 . S
C566 O557 1.250 . S
C566 O558 1.258 . S
O567 Mn552 2.162 . S
O567 C555 1.281 . S
O568 Mn552 2.297 . S
O568 C555 1.236 . S
N569 Mn553 2.282 . S
N569 C570 1.328 . S
N569 C574 1.318 . S
C570 N569 1.328 . S
C570 C571 1.457 . S
C570 H575 0.929 . S
C571 C570 1.457 . S
C571 C572 1.291 . S
C571 H584 0.931 . S
C572 C571 1.291 . S
C572 C573 1.373 . S
C572 H585 0.929 . S
C573 C572 1.373 . S
C573 C574 1.396 . S
C573 C580 1.403 . S
C574 C564 1.476 . S
C574 N569 1.318 . S
C574 C573 1.396 . S
H575 C570 0.929 . S
O576 Mn552 2.385 . S
O576 C554 1.234 . S
O577 Mn552 2.209 . S
O577 Mn553 2.215 . S
O577 C554 1.283 . S
O578 Mn552 2.094 . S
O578 C556 1.240 . S
O579 Mn553 2.117 . S
O579 C556 1.264 . S
C580 C573 1.403 . S
C580 C581 1.399 . S
C580 H586 0.929 . S
C581 C561 1.449 . S
C581 C580 1.399 . S
C581 H587 0.930 . S
H582 C562 0.931 . S
H583 C563 0.930 . S
H584 C571 0.931 . S
H585 C572 0.929 . S
H586 C580 0.929 . S
H587 C581 0.930 . S
Mn588 O593 2.095 . S
Mn588 O603 2.162 . S
Mn588 O604 2.297 . S
Mn588 O612 2.385 . S
Mn588 O613 2.209 . S
Mn588 O614 2.094 . S
Mn589 O594 2.121 . S
Mn589 N596 2.257 . S
Mn589 N605 2.282 . S
Mn589 O613 2.215 . S
Mn589 O615 2.117 . S
C590 O612 1.234 . S
C590 O613 1.283 . S
C591 O603 1.281 . S
C591 O604 1.236 . S
C592 O614 1.240 . S
C592 O615 1.264 . S
O593 Mn588 2.095 . S
O593 C602 1.250 . S
O594 Mn589 2.121 . S
O594 C602 1.258 . S
C595 N596 1.326 . S
C595 C599 1.460 . S
C595 H601 0.929 . S
N596 Mn589 2.257 . S
N596 C595 1.326 . S
N596 C600 1.362 . S
C597 C598 1.258 . S
C597 C600 1.431 . S
C597 C617 1.449 . S
C598 C597 1.258 . S
C598 C599 1.477 . S
C598 H618 0.931 . S
C599 C595 1.460 . S
C599 C598 1.477 . S
C599 H619 0.930 . S
C600 N596 1.362 . S
C600 C597 1.431 . S
C600 C610 1.476 . S
H601 C595 0.929 . S
C602 O593 1.250 . S
C602 O594 1.258 . S
O603 Mn588 2.162 . S
O603 C591 1.281 . S
O604 Mn588 2.297 . S
O604 C591 1.236 . S
N605 Mn589 2.282 . S
N605 C606 1.328 . S
N605 C610 1.318 . S
C606 N605 1.328 . S
C606 C607 1.457 . S
C606 H611 0.929 . S
C607 C606 1.457 . S
C607 C608 1.291 . S
C607 H620 0.931 . S
C608 C607 1.291 . S
C608 C609 1.373 . S
C608 H621 0.929 . S
C609 C608 1.373 . S
C609 C610 1.396 . S
C609 C616 1.403 . S
C610 C600 1.476 . S
C610 N605 1.318 . S
C610 C609 1.396 . S
H611 C606 0.929 . S
O612 Mn588 2.385 . S
O612 C590 1.234 . S
O613 Mn588 2.209 . S
O613 Mn589 2.215 . S
O613 C590 1.283 . S
O614 Mn588 2.094 . S
O614 C592 1.240 . S
O615 Mn589 2.117 . S
O615 C592 1.264 . S
C616 C609 1.403 . S
C616 C617 1.399 . S
C616 H622 0.929 . S
C617 C597 1.449 . S
C617 C616 1.399 . S
C617 H623 0.930 . S
H618 C598 0.931 . S
H619 C599 0.930 . S
H620 C607 0.931 . S
H621 C608 0.929 . S
H622 C616 0.929 . S
H623 C617 0.930 . S
Mn624 O629 2.095 . S
Mn624 O639 2.162 . S
Mn624 O640 2.297 . S
Mn624 O648 2.385 . S
Mn624 O649 2.209 . S
Mn624 O650 2.094 . S
Mn625 O630 2.121 . S
Mn625 N632 2.257 . S
Mn625 N641 2.282 . S
Mn625 O649 2.215 . S
Mn625 O651 2.117 . S
C626 O648 1.234 . S
C626 O649 1.283 . S
C627 O639 1.281 . S
C627 O640 1.236 . S
C628 O650 1.240 . S
C628 O651 1.264 . S
O629 Mn624 2.095 . S
O629 C638 1.250 . S
O630 Mn625 2.121 . S
O630 C638 1.258 . S
C631 N632 1.326 . S
C631 C635 1.460 . S
C631 H637 0.929 . S
N632 Mn625 2.257 . S
N632 C631 1.326 . S
N632 C636 1.362 . S
C633 C634 1.258 . S
C633 C636 1.431 . S
C633 C653 1.449 . S
C634 C633 1.258 . S
C634 C635 1.477 . S
C634 H654 0.931 . S
C635 C631 1.460 . S
C635 C634 1.477 . S
C635 H655 0.930 . S
C636 N632 1.362 . S
C636 C633 1.431 . S
C636 C646 1.476 . S
H637 C631 0.929 . S
C638 O629 1.250 . S
C638 O630 1.258 . S
O639 Mn624 2.162 . S
O639 C627 1.281 . S
O640 Mn624 2.297 . S
O640 C627 1.236 . S
N641 Mn625 2.282 . S
N641 C642 1.328 . S
N641 C646 1.318 . S
C642 N641 1.328 . S
C642 C643 1.457 . S
C642 H647 0.929 . S
C643 C642 1.457 . S
C643 C644 1.291 . S
C643 H656 0.931 . S
C644 C643 1.291 . S
C644 C645 1.373 . S
C644 H657 0.929 . S
C645 C644 1.373 . S
C645 C646 1.396 . S
C645 C652 1.403 . S
C646 C636 1.476 . S
C646 N641 1.318 . S
C646 C645 1.396 . S
H647 C642 0.929 . S
O648 Mn624 2.385 . S
O648 C626 1.234 . S
O649 Mn624 2.209 . S
O649 Mn625 2.215 . S
O649 C626 1.283 . S
O650 Mn624 2.094 . S
O650 C628 1.240 . S
O651 Mn625 2.117 . S
O651 C628 1.264 . S
C652 C645 1.403 . S
C652 C653 1.399 . S
C652 H658 0.929 . S
C653 C633 1.449 . S
C653 C652 1.399 . S
C653 H659 0.930 . S
H654 C634 0.931 . S
H655 C635 0.930 . S
H656 C643 0.931 . S
H657 C644 0.929 . S
H658 C652 0.929 . S
H659 C653 0.930 . S
H660 C678 0.951 . S
H661 C680 0.951 . S
H662 C682 0.950 . S
H663 C683 0.950 . S
H664 C685 0.950 . S
H665 C688 0.950 . S
H666 C689 0.950 . S
H667 C691 0.950 . S
H668 C692 0.950 . S
H669 C693 0.951 . S
H670 C695 0.951 . S
H671 C697 0.950 . S
H672 C698 0.950 . S
H673 C700 0.950 . S
H674 C703 0.950 . S
H675 C704 0.950 . S
H676 C706 0.950 . S
H677 C707 0.950 . S
C678 H660 0.951 . S
C678 C679 1.366 . S
C678 C680 1.388 . S
C679 C678 1.366 . S
C679 C683 1.385 . S
C680 H661 0.951 . S
C680 C678 1.388 . S
C680 C681 1.366 . S
C681 C680 1.366 . S
C681 C682 1.414 . S
C681 C684 1.499 . S
C682 H662 0.950 . S
C682 C681 1.414 . S
C682 C683 1.374 . S
C683 H663 0.950 . S
C683 C679 1.385 . S
C683 C682 1.374 . S
C684 C681 1.499 . S
C684 C685 1.373 . S
C684 C686 1.389 . S
C685 H664 0.950 . S
C685 C684 1.373 . S
C685 C701 1.377 . S
C686 C684 1.389 . S
C686 C687 1.524 . S
C686 C700 1.377 . S
C687 C686 1.524 . S
C687 C688 1.397 . S
C687 C692 1.363 . S
C688 H665 0.950 . S
C688 C687 1.397 . S
C688 C689 1.334 . S
C689 H666 0.950 . S
C689 C688 1.334 . S
C689 C690 1.287 . S
C690 C689 1.287 . S
C690 C691 1.524 . S
C690 H709 0.913 . S
C691 H667 0.950 . S
C691 C690 1.524 . S
C691 C692 1.415 . S
C692 H668 0.950 . S
C692 C687 1.363 . S
C692 C691 1.415 . S
C693 H669 0.951 . S
C693 C694 1.366 . S
C693 C695 1.388 . S
C694 C693 1.366 . S
C694 C698 1.385 . S
C695 H670 0.951 . S
C695 C693 1.388 . S
C695 C696 1.366 . S
C696 C695 1.366 . S
C696 C697 1.414 . S
C696 C699 1.499 . S
C697 H671 0.950 . S
C697 C696 1.414 . S
C697 C698 1.374 . S
C698 H672 0.950 . S
C698 C694 1.385 . S
C698 C697 1.374 . S
C699 C696 1.499 . S
C699 C700 1.373 . S
C699 C701 1.389 . S
C700 H673 0.950 . S
C700 C686 1.377 . S
C700 C699 1.373 . S
C701 C685 1.377 . S
C701 C699 1.389 . S
C701 C702 1.524 . S
C702 C701 1.524 . S
C702 C703 1.397 . S
C702 C707 1.363 . S
C703 H674 0.950 . S
C703 C702 1.397 . S
C703 C704 1.334 . S
C704 H675 0.950 . S
C704 C703 1.334 . S
C704 C705 1.287 . S
C705 C704 1.287 . S
C705 C706 1.524 . S
C705 H708 0.999 . S
C706 H676 0.950 . S
C706 C705 1.524 . S
C706 C707 1.415 . S
C707 H677 0.950 . S
C707 C702 1.363 . S
C707 C706 1.415 . S
H708 C705 0.999 . S
H709 C690 0.913 . S
H710 C728 0.951 . S
H711 C730 0.951 . S
H712 C732 0.950 . S
H713 C733 0.950 . S
H714 C735 0.950 . S
H715 C738 0.950 . S
H716 C739 0.950 . S
H717 C741 0.950 . S
H718 C742 0.950 . S
H719 C743 0.951 . S
H720 C745 0.951 . S
H721 C747 0.950 . S
H722 C748 0.950 . S
H723 C750 0.950 . S
H724 C753 0.950 . S
H725 C754 0.950 . S
H726 C756 0.950 . S
H727 C757 0.950 . S
C728 H710 0.951 . S
C728 C729 1.366 . S
C728 C730 1.388 . S
C729 C728 1.366 . S
C729 C733 1.385 . S
C730 H711 0.951 . S
C730 C728 1.388 . S
C730 C731 1.366 . S
C731 C730 1.366 . S
C731 C732 1.414 . S
C731 C734 1.499 . S
C732 H712 0.950 . S
C732 C731 1.414 . S
C732 C733 1.374 . S
C733 H713 0.950 . S
C733 C729 1.385 . S
C733 C732 1.374 . S
C734 C731 1.499 . S
C734 C735 1.373 . S
C734 C736 1.389 . S
C735 H714 0.950 . S
C735 C734 1.373 . S
C735 C751 1.377 . S
C736 C734 1.389 . S
C736 C737 1.524 . S
C736 C750 1.377 . S
C737 C736 1.524 . S
C737 C738 1.397 . S
C737 C742 1.363 . S
C738 H715 0.950 . S
C738 C737 1.397 . S
C738 C739 1.334 . S
C739 H716 0.950 . S
C739 C738 1.334 . S
C739 C740 1.287 . S
C740 C739 1.287 . S
C740 C741 1.524 . S
C740 H759 0.913 . S
C741 H717 0.950 . S
C741 C740 1.524 . S
C741 C742 1.415 . S
C742 H718 0.950 . S
C742 C737 1.363 . S
C742 C741 1.415 . S
C743 H719 0.951 . S
C743 C744 1.366 . S
C743 C745 1.388 . S
C744 C743 1.366 . S
C744 C748 1.385 . S
C745 H720 0.951 . S
C745 C743 1.388 . S
C745 C746 1.366 . S
C746 C745 1.366 . S
C746 C747 1.414 . S
C746 C749 1.499 . S
C747 H721 0.950 . S
C747 C746 1.414 . S
C747 C748 1.374 . S
C748 H722 0.950 . S
C748 C744 1.385 . S
C748 C747 1.374 . S
C749 C746 1.499 . S
C749 C750 1.373 . S
C749 C751 1.389 . S
C750 H723 0.950 . S
C750 C736 1.377 . S
C750 C749 1.373 . S
C751 C735 1.377 . S
C751 C749 1.389 . S
C751 C752 1.524 . S
C752 C751 1.524 . S
C752 C753 1.397 . S
C752 C757 1.363 . S
C753 H724 0.950 . S
C753 C752 1.397 . S
C753 C754 1.334 . S
C754 H725 0.950 . S
C754 C753 1.334 . S
C754 C755 1.287 . S
C755 C754 1.287 . S
C755 C756 1.524 . S
C755 H758 0.999 . S
C756 H726 0.950 . S
C756 C755 1.524 . S
C756 C757 1.415 . S
C757 H727 0.950 . S
C757 C752 1.363 . S
C757 C756 1.415 . S
H758 C755 0.999 . S
H759 C740 0.913 . S
H760 C778 0.951 . S
H761 C780 0.951 . S
H762 C782 0.950 . S
H763 C783 0.950 . S
H764 C785 0.950 . S
H765 C788 0.950 . S
H766 C789 0.950 . S
H767 C791 0.950 . S
H768 C792 0.950 . S
H769 C793 0.951 . S
H770 C795 0.951 . S
H771 C797 0.950 . S
H772 C798 0.950 . S
H773 C800 0.950 . S
H774 C803 0.950 . S
H775 C804 0.950 . S
H776 C806 0.950 . S
H777 C807 0.950 . S
C778 H760 0.951 . S
C778 C779 1.366 . S
C778 C780 1.388 . S
C779 C778 1.366 . S
C779 C783 1.385 . S
C780 H761 0.951 . S
C780 C778 1.388 . S
C780 C781 1.366 . S
C781 C780 1.366 . S
C781 C782 1.414 . S
C781 C784 1.499 . S
C782 H762 0.950 . S
C782 C781 1.414 . S
C782 C783 1.374 . S
C783 H763 0.950 . S
C783 C779 1.385 . S
C783 C782 1.374 . S
C784 C781 1.499 . S
C784 C785 1.373 . S
C784 C786 1.389 . S
C785 H764 0.950 . S
C785 C784 1.373 . S
C785 C801 1.377 . S
C786 C784 1.389 . S
C786 C787 1.524 . S
C786 C800 1.377 . S
C787 C786 1.524 . S
C787 C788 1.397 . S
C787 C792 1.363 . S
C788 H765 0.950 . S
C788 C787 1.397 . S
C788 C789 1.334 . S
C789 H766 0.950 . S
C789 C788 1.334 . S
C789 C790 1.287 . S
C790 C789 1.287 . S
C790 C791 1.524 . S
C790 H809 0.913 . S
C791 H767 0.950 . S
C791 C790 1.524 . S
C791 C792 1.415 . S
C792 H768 0.950 . S
C792 C787 1.363 . S
C792 C791 1.415 . S
C793 H769 0.951 . S
C793 C794 1.366 . S
C793 C795 1.388 . S
C794 C793 1.366 . S
C794 C798 1.385 . S
C795 H770 0.951 . S
C795 C793 1.388 . S
C795 C796 1.366 . S
C796 C795 1.366 . S
C796 C797 1.414 . S
C796 C799 1.499 . S
C797 H771 0.950 . S
C797 C796 1.414 . S
C797 C798 1.374 . S
C798 H772 0.950 . S
C798 C794 1.385 . S
C798 C797 1.374 . S
C799 C796 1.499 . S
C799 C800 1.373 . S
C799 C801 1.389 . S
C800 H773 0.950 . S
C800 C786 1.377 . S
C800 C799 1.373 . S
C801 C785 1.377 . S
C801 C799 1.389 . S
C801 C802 1.524 . S
C802 C801 1.524 . S
C802 C803 1.397 . S
C802 C807 1.363 . S
C803 H774 0.950 . S
C803 C802 1.397 . S
C803 C804 1.334 . S
C804 H775 0.950 . S
C804 C803 1.334 . S
C804 C805 1.287 . S
C805 C804 1.287 . S
C805 C806 1.524 . S
C805 H808 0.999 . S
C806 H776 0.950 . S
C806 C805 1.524 . S
C806 C807 1.415 . S
C807 H777 0.950 . S
C807 C802 1.363 . S
C807 C806 1.415 . S
H808 C805 0.999 . S
H809 C790 0.913 . S
H810 C828 0.951 . S
H811 C830 0.951 . S
H812 C832 0.950 . S
H813 C833 0.950 . S
H814 C835 0.950 . S
H815 C838 0.950 . S
H816 C839 0.950 . S
H817 C841 0.950 . S
H818 C842 0.950 . S
H819 C843 0.951 . S
H820 C845 0.951 . S
H821 C847 0.950 . S
H822 C848 0.950 . S
H823 C850 0.950 . S
H824 C853 0.950 . S
H825 C854 0.950 . S
H826 C856 0.950 . S
H827 C857 0.950 . S
C828 H810 0.951 . S
C828 C829 1.366 . S
C828 C830 1.388 . S
C829 C828 1.366 . S
C829 C833 1.385 . S
C830 H811 0.951 . S
C830 C828 1.388 . S
C830 C831 1.366 . S
C831 C830 1.366 . S
C831 C832 1.414 . S
C831 C834 1.499 . S
C832 H812 0.950 . S
C832 C831 1.414 . S
C832 C833 1.374 . S
C833 H813 0.950 . S
C833 C829 1.385 . S
C833 C832 1.374 . S
C834 C831 1.499 . S
C834 C835 1.373 . S
C834 C836 1.389 . S
C835 H814 0.950 . S
C835 C834 1.373 . S
C835 C851 1.377 . S
C836 C834 1.389 . S
C836 C837 1.524 . S
C836 C850 1.377 . S
C837 C836 1.524 . S
C837 C838 1.397 . S
C837 C842 1.363 . S
C838 H815 0.950 . S
C838 C837 1.397 . S
C838 C839 1.334 . S
C839 H816 0.950 . S
C839 C838 1.334 . S
C839 C840 1.287 . S
C840 C839 1.287 . S
C840 C841 1.524 . S
C840 H859 0.913 . S
C841 H817 0.950 . S
C841 C840 1.524 . S
C841 C842 1.415 . S
C842 H818 0.950 . S
C842 C837 1.363 . S
C842 C841 1.415 . S
C843 H819 0.951 . S
C843 C844 1.366 . S
C843 C845 1.388 . S
C844 C843 1.366 . S
C844 C848 1.385 . S
C845 H820 0.951 . S
C845 C843 1.388 . S
C845 C846 1.366 . S
C846 C845 1.366 . S
C846 C847 1.414 . S
C846 C849 1.499 . S
C847 H821 0.950 . S
C847 C846 1.414 . S
C847 C848 1.374 . S
C848 H822 0.950 . S
C848 C844 1.385 . S
C848 C847 1.374 . S
C849 C846 1.499 . S
C849 C850 1.373 . S
C849 C851 1.389 . S
C850 H823 0.950 . S
C850 C836 1.377 . S
C850 C849 1.373 . S
C851 C835 1.377 . S
C851 C849 1.389 . S
C851 C852 1.524 . S
C852 C851 1.524 . S
C852 C853 1.397 . S
C852 C857 1.363 . S
C853 H824 0.950 . S
C853 C852 1.397 . S
C853 C854 1.334 . S
C854 H825 0.950 . S
C854 C853 1.334 . S
C854 C855 1.287 . S
C855 C854 1.287 . S
C855 C856 1.524 . S
C855 H858 0.999 . S
C856 H826 0.950 . S
C856 C855 1.524 . S
C856 C857 1.415 . S
C857 H827 0.950 . S
C857 C852 1.363 . S
C857 C856 1.415 . S
H858 C855 0.999 . S
H859 C840 0.913 . S
H860 C878 0.951 . S
H861 C880 0.951 . S
H862 C882 0.950 . S
H863 C883 0.950 . S
H864 C885 0.950 . S
H865 C888 0.950 . S
H866 C889 0.950 . S
H867 C891 0.950 . S
H868 C892 0.950 . S
H869 C893 0.951 . S
H870 C895 0.951 . S
H871 C897 0.950 . S
H872 C898 0.950 . S
H873 C900 0.950 . S
H874 C903 0.950 . S
H875 C904 0.950 . S
H876 C906 0.950 . S
H877 C907 0.950 . S
C878 H860 0.951 . S
C878 C879 1.366 . S
C878 C880 1.388 . S
C879 C878 1.366 . S
C879 C883 1.385 . S
C880 H861 0.951 . S
C880 C878 1.388 . S
C880 C881 1.366 . S
C881 C880 1.366 . S
C881 C882 1.414 . S
C881 C884 1.499 . S
C882 H862 0.950 . S
C882 C881 1.414 . S
C882 C883 1.374 . S
C883 H863 0.950 . S
C883 C879 1.385 . S
C883 C882 1.374 . S
C884 C881 1.499 . S
C884 C885 1.373 . S
C884 C886 1.389 . S
C885 H864 0.950 . S
C885 C884 1.373 . S
C885 C901 1.377 . S
C886 C884 1.389 . S
C886 C887 1.524 . S
C886 C900 1.377 . S
C887 C886 1.524 . S
C887 C888 1.397 . S
C887 C892 1.363 . S
C888 H865 0.950 . S
C888 C887 1.397 . S
C888 C889 1.334 . S
C889 H866 0.950 . S
C889 C888 1.334 . S
C889 C890 1.287 . S
C890 C889 1.287 . S
C890 C891 1.524 . S
C890 H909 0.913 . S
C891 H867 0.950 . S
C891 C890 1.524 . S
C891 C892 1.415 . S
C892 H868 0.950 . S
C892 C887 1.363 . S
C892 C891 1.415 . S
C893 H869 0.951 . S
C893 C894 1.366 . S
C893 C895 1.388 . S
C894 C893 1.366 . S
C894 C898 1.385 . S
C895 H870 0.951 . S
C895 C893 1.388 . S
C895 C896 1.366 . S
C896 C895 1.366 . S
C896 C897 1.414 . S
C896 C899 1.499 . S
C897 H871 0.950 . S
C897 C896 1.414 . S
C897 C898 1.374 . S
C898 H872 0.950 . S
C898 C894 1.385 . S
C898 C897 1.374 . S
C899 C896 1.499 . S
C899 C900 1.373 . S
C899 C901 1.389 . S
C900 H873 0.950 . S
C900 C886 1.377 . S
C900 C899 1.373 . S
C901 C885 1.377 . S
C901 C899 1.389 . S
C901 C902 1.524 . S
C902 C901 1.524 . S
C902 C903 1.397 . S
C902 C907 1.363 . S
C903 H874 0.950 . S
C903 C902 1.397 . S
C903 C904 1.334 . S
C904 H875 0.950 . S
C904 C903 1.334 . S
C904 C905 1.287 . S
C905 C904 1.287 . S
C905 C906 1.524 . S
C905 H908 0.999 . S
C906 H876 0.950 . S
C906 C905 1.524 . S
C906 C907 1.415 . S
C907 H877 0.950 . S
C907 C902 1.363 . S
C907 C906 1.415 . S
H908 C905 0.999 . S
H909 C890 0.913 . S
H910 C928 0.951 . S
H911 C930 0.951 . S
H912 C932 0.950 . S
H913 C933 0.950 . S
H914 C935 0.950 . S
H915 C938 0.950 . S
H916 C939 0.950 . S
H917 C941 0.950 . S
H918 C942 0.950 . S
H919 C943 0.951 . S
H920 C945 0.951 . S
H921 C947 0.950 . S
H922 C948 0.950 . S
H923 C950 0.950 . S
H924 C953 0.950 . S
H925 C954 0.950 . S
H926 C956 0.950 . S
H927 C957 0.950 . S
C928 H910 0.951 . S
C928 C929 1.366 . S
C928 C930 1.388 . S
C929 C928 1.366 . S
C929 C933 1.385 . S
C930 H911 0.951 . S
C930 C928 1.388 . S
C930 C931 1.366 . S
C931 C930 1.366 . S
C931 C932 1.414 . S
C931 C934 1.499 . S
C932 H912 0.950 . S
C932 C931 1.414 . S
C932 C933 1.374 . S
C933 H913 0.950 . S
C933 C929 1.385 . S
C933 C932 1.374 . S
C934 C931 1.499 . S
C934 C935 1.373 . S
C934 C936 1.389 . S
C935 H914 0.950 . S
C935 C934 1.373 . S
C935 C951 1.377 . S
C936 C934 1.389 . S
C936 C937 1.524 . S
C936 C950 1.377 . S
C937 C936 1.524 . S
C937 C938 1.397 . S
C937 C942 1.363 . S
C938 H915 0.950 . S
C938 C937 1.397 . S
C938 C939 1.334 . S
C939 H916 0.950 . S
C939 C938 1.334 . S
C939 C940 1.287 . S
C940 C939 1.287 . S
C940 C941 1.524 . S
C940 H959 0.913 . S
C941 H917 0.950 . S
C941 C940 1.524 . S
C941 C942 1.415 . S
C942 H918 0.950 . S
C942 C937 1.363 . S
C942 C941 1.415 . S
C943 H919 0.951 . S
C943 C944 1.366 . S
C943 C945 1.388 . S
C944 C943 1.366 . S
C944 C948 1.385 . S
C945 H920 0.951 . S
C945 C943 1.388 . S
C945 C946 1.366 . S
C946 C945 1.366 . S
C946 C947 1.414 . S
C946 C949 1.499 . S
C947 H921 0.950 . S
C947 C946 1.414 . S
C947 C948 1.374 . S
C948 H922 0.950 . S
C948 C944 1.385 . S
C948 C947 1.374 . S
C949 C946 1.499 . S
C949 C950 1.373 . S
C949 C951 1.389 . S
C950 H923 0.950 . S
C950 C936 1.377 . S
C950 C949 1.373 . S
C951 C935 1.377 . S
C951 C949 1.389 . S
C951 C952 1.524 . S
C952 C951 1.524 . S
C952 C953 1.397 . S
C952 C957 1.363 . S
C953 H924 0.950 . S
C953 C952 1.397 . S
C953 C954 1.334 . S
C954 H925 0.950 . S
C954 C953 1.334 . S
C954 C955 1.287 . S
C955 C954 1.287 . S
C955 C956 1.524 . S
C955 H958 0.999 . S
C956 H926 0.950 . S
C956 C955 1.524 . S
C956 C957 1.415 . S
C957 H927 0.950 . S
C957 C952 1.363 . S
C957 C956 1.415 . S
H958 C955 0.999 . S
H959 C940 0.913 . S
H960 C978 0.951 . S
H961 C980 0.951 . S
H962 C982 0.950 . S
H963 C983 0.950 . S
H964 C985 0.950 . S
H965 C988 0.950 . S
H966 C989 0.950 . S
H967 C991 0.950 . S
H968 C992 0.950 . S
H969 C993 0.951 . S
H970 C995 0.951 . S
H971 C997 0.950 . S
H972 C998 0.950 . S
H973 C1000 0.950 . S
H974 C1003 0.950 . S
H975 C1004 0.950 . S
H976 C1006 0.950 . S
H977 C1007 0.950 . S
C978 H960 0.951 . S
C978 C979 1.366 . S
C978 C980 1.388 . S
C979 C978 1.366 . S
C979 C983 1.385 . S
C980 H961 0.951 . S
C980 C978 1.388 . S
C980 C981 1.366 . S
C981 C980 1.366 . S
C981 C982 1.414 . S
C981 C984 1.499 . S
C982 H962 0.950 . S
C982 C981 1.414 . S
C982 C983 1.374 . S
C983 H963 0.950 . S
C983 C979 1.385 . S
C983 C982 1.374 . S
C984 C981 1.499 . S
C984 C985 1.373 . S
C984 C986 1.389 . S
C985 H964 0.950 . S
C985 C984 1.373 . S
C985 C1001 1.377 . S
C986 C984 1.389 . S
C986 C987 1.524 . S
C986 C1000 1.377 . S
C987 C986 1.524 . S
C987 C988 1.397 . S
C987 C992 1.363 . S
C988 H965 0.950 . S
C988 C987 1.397 . S
C988 C989 1.334 . S
C989 H966 0.950 . S
C989 C988 1.334 . S
C989 C990 1.287 . S
C990 C989 1.287 . S
C990 C991 1.524 . S
C990 H1009 0.913 . S
C991 H967 0.950 . S
C991 C990 1.524 . S
C991 C992 1.415 . S
C992 H968 0.950 . S
C992 C987 1.363 . S
C992 C991 1.415 . S
C993 H969 0.951 . S
C993 C994 1.366 . S
C993 C995 1.388 . S
C994 C993 1.366 . S
C994 C998 1.385 . S
C995 H970 0.951 . S
C995 C993 1.388 . S
C995 C996 1.366 . S
C996 C995 1.366 . S
C996 C997 1.414 . S
C996 C999 1.499 . S
C997 H971 0.950 . S
C997 C996 1.414 . S
C997 C998 1.374 . S
C998 H972 0.950 . S
C998 C994 1.385 . S
C998 C997 1.374 . S
C999 C996 1.499 . S
C999 C1000 1.373 . S
C999 C1001 1.389 . S
C1000 H973 0.950 . S
C1000 C986 1.377 . S
C1000 C999 1.373 . S
C1001 C985 1.377 . S
C1001 C999 1.389 . S
C1001 C1002 1.524 . S
C1002 C1001 1.524 . S
C1002 C1003 1.397 . S
C1002 C1007 1.363 . S
C1003 H974 0.950 . S
C1003 C1002 1.397 . S
C1003 C1004 1.334 . S
C1004 H975 0.950 . S
C1004 C1003 1.334 . S
C1004 C1005 1.287 . S
C1005 C1004 1.287 . S
C1005 C1006 1.524 . S
C1005 H1008 0.999 . S
C1006 H976 0.950 . S
C1006 C1005 1.524 . S
C1006 C1007 1.415 . S
C1007 H977 0.950 . S
C1007 C1002 1.363 . S
C1007 C1006 1.415 . S
H1008 C1005 0.999 . S
H1009 C990 0.913 . S
H1010 C1028 0.951 . S
H1011 C1030 0.951 . S
H1012 C1032 0.950 . S
H1013 C1033 0.950 . S
H1014 C1035 0.950 . S
H1015 C1038 0.950 . S
H1016 C1039 0.950 . S
H1017 C1041 0.950 . S
H1018 C1042 0.950 . S
H1019 C1043 0.951 . S
H1020 C1045 0.951 . S
H1021 C1047 0.950 . S
H1022 C1048 0.950 . S
H1023 C1050 0.950 . S
H1024 C1053 0.950 . S
H1025 C1054 0.950 . S
H1026 C1056 0.950 . S
H1027 C1057 0.950 . S
C1028 H1010 0.951 . S
C1028 C1029 1.366 . S
C1028 C1030 1.388 . S
C1029 C1028 1.366 . S
C1029 C1033 1.385 . S
C1030 H1011 0.951 . S
C1030 C1028 1.388 . S
C1030 C1031 1.366 . S
C1031 C1030 1.366 . S
C1031 C1032 1.414 . S
C1031 C1034 1.499 . S
C1032 H1012 0.950 . S
C1032 C1031 1.414 . S
C1032 C1033 1.374 . S
C1033 H1013 0.950 . S
C1033 C1029 1.385 . S
C1033 C1032 1.374 . S
C1034 C1031 1.499 . S
C1034 C1035 1.373 . S
C1034 C1036 1.389 . S
C1035 H1014 0.950 . S
C1035 C1034 1.373 . S
C1035 C1051 1.377 . S
C1036 C1034 1.389 . S
C1036 C1037 1.524 . S
C1036 C1050 1.377 . S
C1037 C1036 1.524 . S
C1037 C1038 1.397 . S
C1037 C1042 1.363 . S
C1038 H1015 0.950 . S
C1038 C1037 1.397 . S
C1038 C1039 1.334 . S
C1039 H1016 0.950 . S
C1039 C1038 1.334 . S
C1039 C1040 1.287 . S
C1040 C1039 1.287 . S
C1040 C1041 1.524 . S
C1040 H1059 0.913 . S
C1041 H1017 0.950 . S
C1041 C1040 1.524 . S
C1041 C1042 1.415 . S
C1042 H1018 0.950 . S
C1042 C1037 1.363 . S
C1042 C1041 1.415 . S
C1043 H1019 0.951 . S
C1043 C1044 1.366 . S
C1043 C1045 1.388 . S
C1044 C1043 1.366 . S
C1044 C1048 1.385 . S
C1045 H1020 0.951 . S
C1045 C1043 1.388 . S
C1045 C1046 1.366 . S
C1046 C1045 1.366 . S
C1046 C1047 1.414 . S
C1046 C1049 1.499 . S
C1047 H1021 0.950 . S
C1047 C1046 1.414 . S
C1047 C1048 1.374 . S
C1048 H1022 0.950 . S
C1048 C1044 1.385 . S
C1048 C1047 1.374 . S
C1049 C1046 1.499 . S
C1049 C1050 1.373 . S
C1049 C1051 1.389 . S
C1050 H1023 0.950 . S
C1050 C1036 1.377 . S
C1050 C1049 1.373 . S
C1051 C1035 1.377 . S
C1051 C1049 1.389 . S
C1051 C1052 1.524 . S
C1052 C1051 1.524 . S
C1052 C1053 1.397 . S
C1052 C1057 1.363 . S
C1053 H1024 0.950 . S
C1053 C1052 1.397 . S
C1053 C1054 1.334 . S
C1054 H1025 0.950 . S
C1054 C1053 1.334 . S
C1054 C1055 1.287 . S
C1055 C1054 1.287 . S
C1055 C1056 1.524 . S
C1055 H1058 0.999 . S
C1056 H1026 0.950 . S
C1056 C1055 1.524 . S
C1056 C1057 1.415 . S
C1057 H1027 0.950 . S
C1057 C1052 1.363 . S
C1057 C1056 1.415 . S
H1058 C1055 0.999 . S
H1059 C1040 0.913 . S
H1060 C1078 0.951 . S
H1061 C1080 0.951 . S
H1062 C1082 0.950 . S
H1063 C1083 0.950 . S
H1064 C1085 0.950 . S
H1065 C1088 0.950 . S
H1066 C1089 0.950 . S
H1067 C1091 0.950 . S
H1068 C1092 0.950 . S
H1069 C1093 0.951 . S
H1070 C1095 0.951 . S
H1071 C1097 0.950 . S
H1072 C1098 0.950 . S
H1073 C1100 0.950 . S
H1074 C1103 0.950 . S
H1075 C1104 0.950 . S
H1076 C1106 0.950 . S
H1077 C1107 0.950 . S
C1078 H1060 0.951 . S
C1078 C1079 1.366 . S
C1078 C1080 1.388 . S
C1079 C1078 1.366 . S
C1079 C1083 1.385 . S
C1080 H1061 0.951 . S
C1080 C1078 1.388 . S
C1080 C1081 1.366 . S
C1081 C1080 1.366 . S
C1081 C1082 1.414 . S
C1081 C1084 1.499 . S
C1082 H1062 0.950 . S
C1082 C1081 1.414 . S
C1082 C1083 1.374 . S
C1083 H1063 0.950 . S
C1083 C1079 1.385 . S
C1083 C1082 1.374 . S
C1084 C1081 1.499 . S
C1084 C1085 1.373 . S
C1084 C1086 1.389 . S
C1085 H1064 0.950 . S
C1085 C1084 1.373 . S
C1085 C1101 1.377 . S
C1086 C1084 1.389 . S
C1086 C1087 1.524 . S
C1086 C1100 1.377 . S
C1087 C1086 1.524 . S
C1087 C1088 1.397 . S
C1087 C1092 1.363 . S
C1088 H1065 0.950 . S
C1088 C1087 1.397 . S
C1088 C1089 1.334 . S
C1089 H1066 0.950 . S
C1089 C1088 1.334 . S
C1089 C1090 1.287 . S
C1090 C1089 1.287 . S
C1090 C1091 1.524 . S
C1090 H1109 0.913 . S
C1091 H1067 0.950 . S
C1091 C1090 1.524 . S
C1091 C1092 1.415 . S
C1092 H1068 0.950 . S
C1092 C1087 1.363 . S
C1092 C1091 1.415 . S
C1093 H1069 0.951 . S
C1093 C1094 1.366 . S
C1093 C1095 1.388 . S
C1094 C1093 1.366 . S
C1094 C1098 1.385 . S
C1095 H1070 0.951 . S
C1095 C1093 1.388 . S
C1095 C1096 1.366 . S
C1096 C1095 1.366 . S
C1096 C1097 1.414 . S
C1096 C1099 1.499 . S
C1097 H1071 0.950 . S
C1097 C1096 1.414 . S
C1097 C1098 1.374 . S
C1098 H1072 0.950 . S
C1098 C1094 1.385 . S
C1098 C1097 1.374 . S
C1099 C1096 1.499 . S
C1099 C1100 1.373 . S
C1099 C1101 1.389 . S
C1100 H1073 0.950 . S
C1100 C1086 1.377 . S
C1100 C1099 1.373 . S
C1101 C1085 1.377 . S
C1101 C1099 1.389 . S
C1101 C1102 1.524 . S
C1102 C1101 1.524 . S
C1102 C1103 1.397 . S
C1102 C1107 1.363 . S
C1103 H1074 0.950 . S
C1103 C1102 1.397 . S
C1103 C1104 1.334 . S
C1104 H1075 0.950 . S
C1104 C1103 1.334 . S
C1104 C1105 1.287 . S
C1105 C1104 1.287 . S
C1105 C1106 1.524 . S
C1105 H1108 0.999 . S
C1106 H1076 0.950 . S
C1106 C1105 1.524 . S
C1106 C1107 1.415 . S
C1107 H1077 0.950 . S
C1107 C1102 1.363 . S
C1107 C1106 1.415 . S
H1108 C1105 0.999 . S
H1109 C1090 0.913 . S
H1110 C1128 0.951 1_556 S
H1111 C1130 0.951 . S
H1112 C1132 0.950 . S
H1113 C1133 0.950 . S
H1114 C1135 0.950 . S
H1115 C1138 0.950 . S
H1116 C1139 0.950 . S
H1117 C1141 0.950 1_556 S
H1118 C1142 0.950 . S
H1119 C1143 0.951 . S
H1120 C1145 0.951 . S
H1121 C1147 0.950 . S
H1122 C1148 0.950 . S
H1123 C1150 0.950 . S
H1124 C1153 0.950 . S
H1125 C1154 0.950 . S
H1126 C1156 0.950 . S
H1127 C1157 0.950 . S
C1128 H1110 0.951 1_554 S
C1128 C1129 1.366 . S
C1128 C1130 1.388 . S
C1129 C1128 1.366 . S
C1129 C1133 1.385 . S
C1130 H1111 0.951 . S
C1130 C1128 1.388 . S
C1130 C1131 1.366 . S
C1131 C1130 1.366 . S
C1131 C1132 1.414 . S
C1131 C1134 1.499 . S
C1132 H1112 0.950 . S
C1132 C1131 1.414 . S
C1132 C1133 1.374 . S
C1133 H1113 0.950 . S
C1133 C1129 1.385 . S
C1133 C1132 1.374 . S
C1134 C1131 1.499 . S
C1134 C1135 1.373 . S
C1134 C1136 1.389 . S
C1135 H1114 0.950 . S
C1135 C1134 1.373 . S
C1135 C1151 1.377 . S
C1136 C1134 1.389 . S
C1136 C1137 1.524 . S
C1136 C1150 1.377 . S
C1137 C1136 1.524 . S
C1137 C1138 1.397 . S
C1137 C1142 1.363 . S
C1138 H1115 0.950 . S
C1138 C1137 1.397 . S
C1138 C1139 1.334 . S
C1139 H1116 0.950 . S
C1139 C1138 1.334 . S
C1139 C1140 1.287 . S
C1140 C1139 1.287 . S
C1140 C1141 1.524 . S
C1140 H1159 0.913 . S
C1141 H1117 0.950 1_554 S
C1141 C1140 1.524 . S
C1141 C1142 1.415 . S
C1142 H1118 0.950 . S
C1142 C1137 1.363 . S
C1142 C1141 1.415 . S
C1143 H1119 0.951 . S
C1143 C1144 1.366 . S
C1143 C1145 1.388 . S
C1144 C1143 1.366 . S
C1144 C1148 1.385 . S
C1145 H1120 0.951 . S
C1145 C1143 1.388 . S
C1145 C1146 1.366 . S
C1146 C1145 1.366 . S
C1146 C1147 1.414 . S
C1146 C1149 1.499 . S
C1147 H1121 0.950 . S
C1147 C1146 1.414 . S
C1147 C1148 1.374 . S
C1148 H1122 0.950 . S
C1148 C1144 1.385 . S
C1148 C1147 1.374 . S
C1149 C1146 1.499 . S
C1149 C1150 1.373 . S
C1149 C1151 1.389 . S
C1150 H1123 0.950 . S
C1150 C1136 1.377 . S
C1150 C1149 1.373 . S
C1151 C1135 1.377 . S
C1151 C1149 1.389 . S
C1151 C1152 1.524 . S
C1152 C1151 1.524 . S
C1152 C1153 1.397 . S
C1152 C1157 1.363 . S
C1153 H1124 0.950 . S
C1153 C1152 1.397 . S
C1153 C1154 1.334 . S
C1154 H1125 0.950 . S
C1154 C1153 1.334 . S
C1154 C1155 1.287 . S
C1155 C1154 1.287 . S
C1155 C1156 1.524 . S
C1155 H1158 0.999 . S
C1156 H1126 0.950 . S
C1156 C1155 1.524 . S
C1156 C1157 1.415 . S
C1157 H1127 0.950 . S
C1157 C1152 1.363 . S
C1157 C1156 1.415 . S
H1158 C1155 0.999 . S
H1159 C1140 0.913 . S
H1160 C1178 0.951 . S
H1161 C1180 0.951 . S
H1162 C1182 0.950 . S
H1163 C1183 0.950 . S
H1164 C1185 0.950 . S
H1165 C1188 0.950 . S
H1166 C1189 0.950 . S
H1167 C1191 0.950 . S
H1168 C1192 0.950 . S
H1169 C1193 0.951 . S
H1170 C1195 0.951 . S
H1171 C1197 0.950 . S
H1172 C1198 0.950 . S
H1173 C1200 0.950 . S
H1174 C1203 0.950 . S
H1175 C1204 0.950 . S
H1176 C1206 0.950 . S
H1177 C1207 0.950 . S
C1178 H1160 0.951 . S
C1178 C1179 1.366 . S
C1178 C1180 1.388 . S
C1179 C1178 1.366 . S
C1179 C1183 1.385 . S
C1180 H1161 0.951 . S
C1180 C1178 1.388 . S
C1180 C1181 1.366 . S
C1181 C1180 1.366 . S
C1181 C1182 1.414 . S
C1181 C1184 1.499 . S
C1182 H1162 0.950 . S
C1182 C1181 1.414 . S
C1182 C1183 1.374 . S
C1183 H1163 0.950 . S
C1183 C1179 1.385 . S
C1183 C1182 1.374 . S
C1184 C1181 1.499 . S
C1184 C1185 1.373 . S
C1184 C1186 1.389 . S
C1185 H1164 0.950 . S
C1185 C1184 1.373 . S
C1185 C1201 1.377 . S
C1186 C1184 1.389 . S
C1186 C1187 1.524 . S
C1186 C1200 1.377 . S
C1187 C1186 1.524 . S
C1187 C1188 1.397 . S
C1187 C1192 1.363 . S
C1188 H1165 0.950 . S
C1188 C1187 1.397 . S
C1188 C1189 1.334 . S
C1189 H1166 0.950 . S
C1189 C1188 1.334 . S
C1189 C1190 1.287 . S
C1190 C1189 1.287 . S
C1190 C1191 1.524 . S
C1190 H1209 0.913 . S
C1191 H1167 0.950 . S
C1191 C1190 1.524 . S
C1191 C1192 1.415 . S
C1192 H1168 0.950 . S
C1192 C1187 1.363 . S
C1192 C1191 1.415 . S
C1193 H1169 0.951 . S
C1193 C1194 1.366 . S
C1193 C1195 1.388 . S
C1194 C1193 1.366 . S
C1194 C1198 1.385 . S
C1195 H1170 0.951 . S
C1195 C1193 1.388 . S
C1195 C1196 1.366 . S
C1196 C1195 1.366 . S
C1196 C1197 1.414 . S
C1196 C1199 1.499 . S
C1197 H1171 0.950 . S
C1197 C1196 1.414 . S
C1197 C1198 1.374 . S
C1198 H1172 0.950 . S
C1198 C1194 1.385 . S
C1198 C1197 1.374 . S
C1199 C1196 1.499 . S
C1199 C1200 1.373 . S
C1199 C1201 1.389 . S
C1200 H1173 0.950 . S
C1200 C1186 1.377 . S
C1200 C1199 1.373 . S
C1201 C1185 1.377 . S
C1201 C1199 1.389 . S
C1201 C1202 1.524 . S
C1202 C1201 1.524 . S
C1202 C1203 1.397 . S
C1202 C1207 1.363 . S
C1203 H1174 0.950 . S
C1203 C1202 1.397 . S
C1203 C1204 1.334 . S
C1204 H1175 0.950 . S
C1204 C1203 1.334 . S
C1204 C1205 1.287 . S
C1205 C1204 1.287 . S
C1205 C1206 1.524 . S
C1205 H1208 0.999 . S
C1206 H1176 0.950 . S
C1206 C1205 1.524 . S
C1206 C1207 1.415 . S
C1207 H1177 0.950 . S
C1207 C1202 1.363 . S
C1207 C1206 1.415 . S
H1208 C1205 0.999 . S
H1209 C1190 0.913 . S
H1210 C1228 0.951 . S
H1211 C1230 0.951 . S
H1212 C1232 0.950 . S
H1213 C1233 0.950 . S
H1214 C1235 0.950 . S
H1215 C1238 0.950 . S
H1216 C1239 0.950 . S
H1217 C1241 0.950 . S
H1218 C1242 0.950 . S
H1219 C1243 0.951 . S
H1220 C1245 0.951 . S
H1221 C1247 0.950 . S
H1222 C1248 0.950 . S
H1223 C1250 0.950 . S
H1224 C1253 0.950 . S
H1225 C1254 0.950 . S
H1226 C1256 0.950 . S
H1227 C1257 0.950 . S
C1228 H1210 0.951 . S
C1228 C1229 1.366 . S
C1228 C1230 1.388 . S
C1229 C1228 1.366 . S
C1229 C1233 1.385 . S
C1230 H1211 0.951 . S
C1230 C1228 1.388 . S
C1230 C1231 1.366 . S
C1231 C1230 1.366 . S
C1231 C1232 1.414 . S
C1231 C1234 1.499 . S
C1232 H1212 0.950 . S
C1232 C1231 1.414 . S
C1232 C1233 1.374 . S
C1233 H1213 0.950 . S
C1233 C1229 1.385 . S
C1233 C1232 1.374 . S
C1234 C1231 1.499 . S
C1234 C1235 1.373 . S
C1234 C1236 1.389 . S
C1235 H1214 0.950 . S
C1235 C1234 1.373 . S
C1235 C1251 1.377 . S
C1236 C1234 1.389 . S
C1236 C1237 1.524 . S
C1236 C1250 1.377 . S
C1237 C1236 1.524 . S
C1237 C1238 1.397 . S
C1237 C1242 1.363 . S
C1238 H1215 0.950 . S
C1238 C1237 1.397 . S
C1238 C1239 1.334 . S
C1239 H1216 0.950 . S
C1239 C1238 1.334 . S
C1239 C1240 1.287 . S
C1240 C1239 1.287 . S
C1240 C1241 1.524 . S
C1240 H1259 0.913 . S
C1241 H1217 0.950 . S
C1241 C1240 1.524 . S
C1241 C1242 1.415 . S
C1242 H1218 0.950 . S
C1242 C1237 1.363 . S
C1242 C1241 1.415 . S
C1243 H1219 0.951 . S
C1243 C1244 1.366 . S
C1243 C1245 1.388 . S
C1244 C1243 1.366 . S
C1244 C1248 1.385 . S
C1245 H1220 0.951 . S
C1245 C1243 1.388 . S
C1245 C1246 1.366 . S
C1246 C1245 1.366 . S
C1246 C1247 1.414 . S
C1246 C1249 1.499 . S
C1247 H1221 0.950 . S
C1247 C1246 1.414 . S
C1247 C1248 1.374 . S
C1248 H1222 0.950 . S
C1248 C1244 1.385 . S
C1248 C1247 1.374 . S
C1249 C1246 1.499 . S
C1249 C1250 1.373 . S
C1249 C1251 1.389 . S
C1250 H1223 0.950 . S
C1250 C1236 1.377 . S
C1250 C1249 1.373 . S
C1251 C1235 1.377 . S
C1251 C1249 1.389 . S
C1251 C1252 1.524 . S
C1252 C1251 1.524 . S
C1252 C1253 1.397 . S
C1252 C1257 1.363 . S
C1253 H1224 0.950 . S
C1253 C1252 1.397 . S
C1253 C1254 1.334 . S
C1254 H1225 0.950 . S
C1254 C1253 1.334 . S
C1254 C1255 1.287 . S
C1255 C1254 1.287 . S
C1255 C1256 1.524 . S
C1255 H1258 0.999 . S
C1256 H1226 0.950 . S
C1256 C1255 1.524 . S
C1256 C1257 1.415 . S
C1257 H1227 0.950 . S
C1257 C1252 1.363 . S
C1257 C1256 1.415 . S
H1258 C1255 0.999 . S
H1259 C1240 0.913 . S
H1260 C1278 0.951 . S
H1261 C1280 0.951 . S
H1262 C1282 0.950 . S
H1263 C1283 0.950 . S
H1264 C1285 0.950 . S
H1265 C1288 0.950 . S
H1266 C1289 0.950 . S
H1267 C1291 0.950 . S
H1268 C1292 0.950 . S
H1269 C1293 0.951 . S
H1270 C1295 0.951 . S
H1271 C1297 0.950 . S
H1272 C1298 0.950 . S
H1273 C1300 0.950 . S
H1274 C1303 0.950 . S
H1275 C1304 0.950 . S
H1276 C1306 0.950 . S
H1277 C1307 0.950 . S
C1278 H1260 0.951 . S
C1278 C1279 1.366 . S
C1278 C1280 1.388 . S
C1279 C1278 1.366 . S
C1279 C1283 1.385 . S
C1280 H1261 0.951 . S
C1280 C1278 1.388 . S
C1280 C1281 1.366 . S
C1281 C1280 1.366 . S
C1281 C1282 1.414 . S
C1281 C1284 1.499 . S
C1282 H1262 0.950 . S
C1282 C1281 1.414 . S
C1282 C1283 1.374 . S
C1283 H1263 0.950 . S
C1283 C1279 1.385 . S
C1283 C1282 1.374 . S
C1284 C1281 1.499 . S
C1284 C1285 1.373 . S
C1284 C1286 1.389 . S
C1285 H1264 0.950 . S
C1285 C1284 1.373 . S
C1285 C1301 1.377 . S
C1286 C1284 1.389 . S
C1286 C1287 1.524 . S
C1286 C1300 1.377 . S
C1287 C1286 1.524 . S
C1287 C1288 1.397 . S
C1287 C1292 1.363 . S
C1288 H1265 0.950 . S
C1288 C1287 1.397 . S
C1288 C1289 1.334 . S
C1289 H1266 0.950 . S
C1289 C1288 1.334 . S
C1289 C1290 1.287 . S
C1290 C1289 1.287 . S
C1290 C1291 1.524 . S
C1290 H1309 0.913 . S
C1291 H1267 0.950 . S
C1291 C1290 1.524 . S
C1291 C1292 1.415 . S
C1292 H1268 0.950 . S
C1292 C1287 1.363 . S
C1292 C1291 1.415 . S
C1293 H1269 0.951 . S
C1293 C1294 1.366 . S
C1293 C1295 1.388 . S
C1294 C1293 1.366 . S
C1294 C1298 1.385 . S
C1295 H1270 0.951 . S
C1295 C1293 1.388 . S
C1295 C1296 1.366 . S
C1296 C1295 1.366 . S
C1296 C1297 1.414 . S
C1296 C1299 1.499 . S
C1297 H1271 0.950 . S
C1297 C1296 1.414 . S
C1297 C1298 1.374 . S
C1298 H1272 0.950 . S
C1298 C1294 1.385 . S
C1298 C1297 1.374 . S
C1299 C1296 1.499 . S
C1299 C1300 1.373 . S
C1299 C1301 1.389 . S
C1300 H1273 0.950 . S
C1300 C1286 1.377 . S
C1300 C1299 1.373 . S
C1301 C1285 1.377 . S
C1301 C1299 1.389 . S
C1301 C1302 1.524 . S
C1302 C1301 1.524 . S
C1302 C1303 1.397 . S
C1302 C1307 1.363 . S
C1303 H1274 0.950 . S
C1303 C1302 1.397 . S
C1303 C1304 1.334 . S
C1304 H1275 0.950 . S
C1304 C1303 1.334 . S
C1304 C1305 1.287 . S
C1305 C1304 1.287 . S
C1305 C1306 1.524 . S
C1305 H1308 0.999 . S
C1306 H1276 0.950 . S
C1306 C1305 1.524 . S
C1306 C1307 1.415 . S
C1307 H1277 0.950 . S
C1307 C1302 1.363 . S
C1307 C1306 1.415 . S
H1308 C1305 0.999 . S
H1309 C1290 0.913 . S
H1310 C1328 0.951 . S
H1311 C1330 0.951 . S
H1312 C1332 0.950 . S
H1313 C1333 0.950 . S
H1314 C1335 0.950 . S
H1315 C1338 0.950 . S
H1316 C1339 0.950 . S
H1317 C1341 0.950 . S
H1318 C1342 0.950 . S
H1319 C1343 0.951 . S
H1320 C1345 0.951 . S
H1321 C1347 0.950 . S
H1322 C1348 0.950 . S
H1323 C1350 0.950 . S
H1324 C1353 0.950 . S
H1325 C1354 0.950 . S
H1326 C1356 0.950 . S
H1327 C1357 0.950 . S
C1328 H1310 0.951 . S
C1328 C1329 1.366 . S
C1328 C1330 1.388 . S
C1329 C1328 1.366 . S
C1329 C1333 1.385 . S
C1330 H1311 0.951 . S
C1330 C1328 1.388 . S
C1330 C1331 1.366 . S
C1331 C1330 1.366 . S
C1331 C1332 1.414 . S
C1331 C1334 1.499 . S
C1332 H1312 0.950 . S
C1332 C1331 1.414 . S
C1332 C1333 1.374 . S
C1333 H1313 0.950 . S
C1333 C1329 1.385 . S
C1333 C1332 1.374 . S
C1334 C1331 1.499 . S
C1334 C1335 1.373 . S
C1334 C1336 1.389 . S
C1335 H1314 0.950 . S
C1335 C1334 1.373 . S
C1335 C1351 1.377 . S
C1336 C1334 1.389 . S
C1336 C1337 1.524 . S
C1336 C1350 1.377 . S
C1337 C1336 1.524 . S
C1337 C1338 1.397 . S
C1337 C1342 1.363 . S
C1338 H1315 0.950 . S
C1338 C1337 1.397 . S
C1338 C1339 1.334 . S
C1339 H1316 0.950 . S
C1339 C1338 1.334 . S
C1339 C1340 1.287 . S
C1340 C1339 1.287 . S
C1340 C1341 1.524 . S
C1340 H1359 0.913 . S
C1341 H1317 0.950 . S
C1341 C1340 1.524 . S
C1341 C1342 1.415 . S
C1342 H1318 0.950 . S
C1342 C1337 1.363 . S
C1342 C1341 1.415 . S
C1343 H1319 0.951 . S
C1343 C1344 1.366 . S
C1343 C1345 1.388 . S
C1344 C1343 1.366 . S
C1344 C1348 1.385 . S
C1345 H1320 0.951 . S
C1345 C1343 1.388 . S
C1345 C1346 1.366 . S
C1346 C1345 1.366 . S
C1346 C1347 1.414 . S
C1346 C1349 1.499 . S
C1347 H1321 0.950 . S
C1347 C1346 1.414 . S
C1347 C1348 1.374 . S
C1348 H1322 0.950 . S
C1348 C1344 1.385 . S
C1348 C1347 1.374 . S
C1349 C1346 1.499 . S
C1349 C1350 1.373 . S
C1349 C1351 1.389 . S
C1350 H1323 0.950 . S
C1350 C1336 1.377 . S
C1350 C1349 1.373 . S
C1351 C1335 1.377 . S
C1351 C1349 1.389 . S
C1351 C1352 1.524 . S
C1352 C1351 1.524 . S
C1352 C1353 1.397 . S
C1352 C1357 1.363 . S
C1353 H1324 0.950 . S
C1353 C1352 1.397 . S
C1353 C1354 1.334 . S
C1354 H1325 0.950 . S
C1354 C1353 1.334 . S
C1354 C1355 1.287 . S
C1355 C1354 1.287 . S
C1355 C1356 1.524 . S
C1355 H1358 0.999 . S
C1356 H1326 0.950 . S
C1356 C1355 1.524 . S
C1356 C1357 1.415 . S
C1357 H1327 0.950 . S
C1357 C1352 1.363 . S
C1357 C1356 1.415 . S
H1358 C1355 0.999 . S
H1359 C1340 0.913 . S
H1360 C1378 0.951 . S
H1361 C1380 0.951 . S
H1362 C1382 0.950 . S
H1363 C1383 0.950 . S
H1364 C1385 0.950 . S
H1365 C1388 0.950 . S
H1366 C1389 0.950 . S
H1367 C1391 0.950 . S
H1368 C1392 0.950 . S
H1369 C1393 0.951 . S
H1370 C1395 0.951 . S
H1371 C1397 0.950 . S
H1372 C1398 0.950 . S
H1373 C1400 0.950 . S
H1374 C1403 0.950 . S
H1375 C1404 0.950 . S
H1376 C1406 0.950 . S
H1377 C1407 0.950 . S
C1378 H1360 0.951 . S
C1378 C1379 1.366 . S
C1378 C1380 1.388 . S
C1379 C1378 1.366 . S
C1379 C1383 1.385 . S
C1380 H1361 0.951 . S
C1380 C1378 1.388 . S
C1380 C1381 1.366 . S
C1381 C1380 1.366 . S
C1381 C1382 1.414 . S
C1381 C1384 1.499 . S
C1382 H1362 0.950 . S
C1382 C1381 1.414 . S
C1382 C1383 1.374 . S
C1383 H1363 0.950 . S
C1383 C1379 1.385 . S
C1383 C1382 1.374 . S
C1384 C1381 1.499 . S
C1384 C1385 1.373 . S
C1384 C1386 1.389 . S
C1385 H1364 0.950 . S
C1385 C1384 1.373 . S
C1385 C1401 1.377 . S
C1386 C1384 1.389 . S
C1386 C1387 1.524 . S
C1386 C1400 1.377 . S
C1387 C1386 1.524 . S
C1387 C1388 1.397 . S
C1387 C1392 1.363 . S
C1388 H1365 0.950 . S
C1388 C1387 1.397 . S
C1388 C1389 1.334 . S
C1389 H1366 0.950 . S
C1389 C1388 1.334 . S
C1389 C1390 1.287 . S
C1390 C1389 1.287 . S
C1390 C1391 1.524 . S
C1390 H1409 0.913 . S
C1391 H1367 0.950 . S
C1391 C1390 1.524 . S
C1391 C1392 1.415 . S
C1392 H1368 0.950 . S
C1392 C1387 1.363 . S
C1392 C1391 1.415 . S
C1393 H1369 0.951 . S
C1393 C1394 1.366 . S
C1393 C1395 1.388 . S
C1394 C1393 1.366 . S
C1394 C1398 1.385 . S
C1395 H1370 0.951 . S
C1395 C1393 1.388 . S
C1395 C1396 1.366 . S
C1396 C1395 1.366 . S
C1396 C1397 1.414 . S
C1396 C1399 1.499 . S
C1397 H1371 0.950 . S
C1397 C1396 1.414 . S
C1397 C1398 1.374 . S
C1398 H1372 0.950 . S
C1398 C1394 1.385 . S
C1398 C1397 1.374 . S
C1399 C1396 1.499 . S
C1399 C1400 1.373 . S
C1399 C1401 1.389 . S
C1400 H1373 0.950 . S
C1400 C1386 1.377 . S
C1400 C1399 1.373 . S
C1401 C1385 1.377 . S
C1401 C1399 1.389 . S
C1401 C1402 1.524 . S
C1402 C1401 1.524 . S
C1402 C1403 1.397 . S
C1402 C1407 1.363 . S
C1403 H1374 0.950 . S
C1403 C1402 1.397 . S
C1403 C1404 1.334 . S
C1404 H1375 0.950 . S
C1404 C1403 1.334 . S
C1404 C1405 1.287 . S
C1405 C1404 1.287 . S
C1405 C1406 1.524 . S
C1405 H1408 0.999 . S
C1406 H1376 0.950 . S
C1406 C1405 1.524 . S
C1406 C1407 1.415 . S
C1407 H1377 0.950 . S
C1407 C1402 1.363 . S
C1407 C1406 1.415 . S
H1408 C1405 0.999 . S
H1409 C1390 0.913 . S
H1410 C1428 0.951 . S
H1411 C1430 0.951 . S
H1412 C1432 0.950 . S
H1413 C1433 0.950 . S
H1414 C1435 0.950 . S
H1415 C1438 0.950 . S
H1416 C1439 0.950 . S
H1417 C1441 0.950 . S
H1418 C1442 0.950 . S
H1419 C1443 0.951 . S
H1420 C1445 0.951 . S
H1421 C1447 0.950 . S
H1422 C1448 0.950 . S
H1423 C1450 0.950 . S
H1424 C1453 0.950 . S
H1425 C1454 0.950 . S
H1426 C1456 0.950 . S
H1427 C1457 0.950 . S
C1428 H1410 0.951 . S
C1428 C1429 1.366 . S
C1428 C1430 1.388 . S
C1429 C1428 1.366 . S
C1429 C1433 1.385 . S
C1430 H1411 0.951 . S
C1430 C1428 1.388 . S
C1430 C1431 1.366 . S
C1431 C1430 1.366 . S
C1431 C1432 1.414 . S
C1431 C1434 1.499 . S
C1432 H1412 0.950 . S
C1432 C1431 1.414 . S
C1432 C1433 1.374 . S
C1433 H1413 0.950 . S
C1433 C1429 1.385 . S
C1433 C1432 1.374 . S
C1434 C1431 1.499 . S
C1434 C1435 1.373 . S
C1434 C1436 1.389 . S
C1435 H1414 0.950 . S
C1435 C1434 1.373 . S
C1435 C1451 1.377 . S
C1436 C1434 1.389 . S
C1436 C1437 1.524 . S
C1436 C1450 1.377 . S
C1437 C1436 1.524 . S
C1437 C1438 1.397 . S
C1437 C1442 1.363 . S
C1438 H1415 0.950 . S
C1438 C1437 1.397 . S
C1438 C1439 1.334 . S
C1439 H1416 0.950 . S
C1439 C1438 1.334 . S
C1439 C1440 1.287 . S
C1440 C1439 1.287 . S
C1440 C1441 1.524 . S
C1440 H1459 0.913 . S
C1441 H1417 0.950 . S
C1441 C1440 1.524 . S
C1441 C1442 1.415 . S
C1442 H1418 0.950 . S
C1442 C1437 1.363 . S
C1442 C1441 1.415 . S
C1443 H1419 0.951 . S
C1443 C1444 1.366 . S
C1443 C1445 1.388 . S
C1444 C1443 1.366 . S
C1444 C1448 1.385 . S
C1445 H1420 0.951 . S
C1445 C1443 1.388 . S
C1445 C1446 1.366 1_554 S
C1446 C1445 1.366 1_556 S
C1446 C1447 1.414 . S
C1446 C1449 1.499 . S
C1447 H1421 0.950 . S
C1447 C1446 1.414 . S
C1447 C1448 1.374 1_556 S
C1448 H1422 0.950 . S
C1448 C1444 1.385 . S
C1448 C1447 1.374 1_554 S
C1449 C1446 1.499 . S
C1449 C1450 1.373 . S
C1449 C1451 1.389 . S
C1450 H1423 0.950 . S
C1450 C1436 1.377 . S
C1450 C1449 1.373 . S
C1451 C1435 1.377 . S
C1451 C1449 1.389 . S
C1451 C1452 1.524 . S
C1452 C1451 1.524 . S
C1452 C1453 1.397 . S
C1452 C1457 1.363 . S
C1453 H1424 0.950 . S
C1453 C1452 1.397 . S
C1453 C1454 1.334 1_556 S
C1454 H1425 0.950 . S
C1454 C1453 1.334 1_554 S
C1454 C1455 1.287 . S
C1455 C1454 1.287 . S
C1455 C1456 1.524 . S
C1455 H1458 0.999 . S
C1456 H1426 0.950 . S
C1456 C1455 1.524 . S
C1456 C1457 1.415 1_554 S
C1457 H1427 0.950 . S
C1457 C1452 1.363 . S
C1457 C1456 1.415 1_556 S
H1458 C1455 0.999 . S
H1459 C1440 0.913 . S
H1460 C1478 0.951 . S
H1461 C1480 0.951 . S
H1462 C1482 0.950 . S
H1463 C1483 0.950 . S
H1464 C1485 0.950 . S
H1465 C1488 0.938 . S
H1466 C1489 0.950 . S
H1467 C1491 0.950 . S
H1468 C1492 0.950 . S
H1469 C1493 0.951 . S
H1470 C1495 0.951 . S
H1471 C1497 0.950 . S
H1472 C1498 0.950 . S
H1473 C1500 0.950 . S
H1474 C1503 0.950 . S
H1475 C1504 0.950 . S
H1476 C1506 0.950 . S
H1477 C1507 0.950 . S
C1478 H1460 0.951 . S
C1478 C1479 1.366 . S
C1478 C1480 1.388 . S
C1479 C1478 1.366 . S
C1479 C1483 1.385 . S
C1480 H1461 0.951 . S
C1480 C1478 1.388 . S
C1480 C1481 1.366 . S
C1481 C1480 1.366 . S
C1481 C1482 1.414 . S
C1481 C1484 1.499 . S
C1482 H1462 0.950 . S
C1482 C1481 1.414 . S
C1482 C1483 1.374 . S
C1483 H1463 0.950 . S
C1483 C1479 1.385 . S
C1483 C1482 1.374 . S
C1484 C1481 1.499 . S
C1484 C1485 1.373 . S
C1484 C1486 1.389 . S
C1485 H1464 0.950 . S
C1485 C1484 1.373 . S
C1485 C1501 1.377 . S
C1486 C1484 1.389 . S
C1486 C1487 1.524 . S
C1486 C1500 1.377 . S
C1487 C1486 1.524 . S
C1487 C1488 1.381 1_565 S
C1487 C1492 1.363 . S
C1488 H1465 0.938 . S
C1488 C1487 1.381 1_545 S
C1488 C1489 1.362 . S
C1489 H1466 0.950 . S
C1489 C1488 1.362 . S
C1489 C1490 1.287 . S
C1490 C1489 1.287 . S
C1490 C1491 1.524 1_545 S
C1490 H1509 0.913 . S
C1491 H1467 0.950 . S
C1491 C1490 1.524 1_565 S
C1491 C1492 1.415 . S
C1492 H1468 0.950 . S
C1492 C1487 1.363 . S
C1492 C1491 1.415 . S
C1493 H1469 0.951 . S
C1493 C1494 1.366 . S
C1493 C1495 1.388 . S
C1494 C1493 1.366 . S
C1494 C1498 1.385 . S
C1495 H1470 0.951 . S
C1495 C1493 1.388 . S
C1495 C1496 1.366 . S
C1496 C1495 1.366 . S
C1496 C1497 1.414 . S
C1496 C1499 1.499 . S
C1497 H1471 0.950 . S
C1497 C1496 1.414 . S
C1497 C1498 1.374 . S
C1498 H1472 0.950 . S
C1498 C1494 1.385 . S
C1498 C1497 1.374 . S
C1499 C1496 1.499 . S
C1499 C1500 1.373 . S
C1499 C1501 1.389 . S
C1500 H1473 0.950 . S
C1500 C1486 1.377 . S
C1500 C1499 1.373 . S
C1501 C1485 1.377 . S
C1501 C1499 1.389 . S
C1501 C1502 1.524 . S
C1502 C1501 1.524 . S
C1502 C1503 1.397 . S
C1502 C1507 1.363 . S
C1503 H1474 0.950 . S
C1503 C1502 1.397 . S
C1503 C1504 1.334 . S
C1504 H1475 0.950 . S
C1504 C1503 1.334 . S
C1504 C1505 1.287 . S
C1505 C1504 1.287 . S
C1505 C1506 1.524 . S
C1505 H1508 0.999 . S
C1506 H1476 0.950 . S
C1506 C1505 1.524 . S
C1506 C1507 1.415 . S
C1507 H1477 0.950 . S
C1507 C1502 1.363 . S
C1507 C1506 1.415 . S
H1508 C1505 0.999 . S
H1509 C1490 0.913 . S
H1510 C1528 0.951 . S
H1511 C1530 0.951 . S
H1512 C1532 0.950 . S
H1513 C1533 0.950 . S
H1514 C1535 0.950 . S
H1515 C1538 0.950 . S
H1516 C1539 0.950 . S
H1517 C1541 0.950 . S
H1518 C1542 0.950 . S
H1519 C1543 0.951 . S
H1520 C1545 0.951 . S
H1521 C1547 0.950 . S
H1522 C1548 0.950 . S
H1523 C1550 0.950 . S
H1524 C1553 0.950 . S
H1525 C1554 0.950 . S
H1526 C1556 0.950 . S
H1527 C1557 0.950 . S
C1528 H1510 0.951 . S
C1528 C1529 1.366 . S
C1528 C1530 1.388 . S
C1529 C1528 1.366 . S
C1529 C1533 1.385 . S
C1530 H1511 0.951 . S
C1530 C1528 1.388 . S
C1530 C1531 1.366 . S
C1531 C1530 1.366 . S
C1531 C1532 1.414 . S
C1531 C1534 1.499 . S
C1532 H1512 0.950 . S
C1532 C1531 1.414 . S
C1532 C1533 1.374 . S
C1533 H1513 0.950 . S
C1533 C1529 1.385 . S
C1533 C1532 1.374 . S
C1534 C1531 1.499 . S
C1534 C1535 1.373 . S
C1534 C1536 1.389 . S
C1535 H1514 0.950 . S
C1535 C1534 1.373 . S
C1535 C1551 1.377 . S
C1536 C1534 1.389 . S
C1536 C1537 1.524 . S
C1536 C1550 1.377 . S
C1537 C1536 1.524 . S
C1537 C1538 1.397 . S
C1537 C1542 1.363 . S
C1538 H1515 0.950 . S
C1538 C1537 1.397 . S
C1538 C1539 1.334 . S
C1539 H1516 0.950 . S
C1539 C1538 1.334 . S
C1539 C1540 1.287 . S
C1540 C1539 1.287 . S
C1540 C1541 1.524 . S
C1540 H1559 0.913 . S
C1541 H1517 0.950 . S
C1541 C1540 1.524 . S
C1541 C1542 1.415 . S
C1542 H1518 0.950 . S
C1542 C1537 1.363 . S
C1542 C1541 1.415 . S
C1543 H1519 0.951 . S
C1543 C1544 1.366 . S
C1543 C1545 1.388 . S
C1544 C1543 1.366 . S
C1544 C1548 1.385 . S
C1545 H1520 0.951 . S
C1545 C1543 1.388 . S
C1545 C1546 1.366 . S
C1546 C1545 1.366 . S
C1546 C1547 1.414 . S
C1546 C1549 1.499 . S
C1547 H1521 0.950 . S
C1547 C1546 1.414 . S
C1547 C1548 1.374 . S
C1548 H1522 0.950 . S
C1548 C1544 1.385 . S
C1548 C1547 1.374 . S
C1549 C1546 1.499 . S
C1549 C1550 1.373 . S
C1549 C1551 1.389 . S
C1550 H1523 0.950 . S
C1550 C1536 1.377 . S
C1550 C1549 1.373 . S
C1551 C1535 1.377 . S
C1551 C1549 1.389 . S
C1551 C1552 1.524 . S
C1552 C1551 1.524 . S
C1552 C1553 1.397 . S
C1552 C1557 1.363 . S
C1553 H1524 0.950 . S
C1553 C1552 1.397 . S
C1553 C1554 1.334 . S
C1554 H1525 0.950 . S
C1554 C1553 1.334 . S
C1554 C1555 1.287 . S
C1555 C1554 1.287 . S
C1555 C1556 1.524 . S
C1555 H1558 0.999 . S
C1556 H1526 0.950 . S
C1556 C1555 1.524 . S
C1556 C1557 1.415 . S
C1557 H1527 0.950 . S
C1557 C1552 1.363 . S
C1557 C1556 1.415 . S
H1558 C1555 0.999 . S
H1559 C1540 0.913 . S
H1560 C1578 0.951 . S
H1561 C1580 0.951 . S
H1562 C1582 0.950 . S
H1563 C1583 0.950 . S
H1564 C1585 0.950 . S
H1565 C1588 0.950 . S
H1566 C1589 0.950 1_545 S
H1567 C1591 0.950 . S
H1568 C1592 0.950 . S
H1569 C1593 0.951 . S
H1570 C1595 0.951 . S
H1571 C1597 0.950 . S
H1572 C1598 0.950 . S
H1573 C1600 0.950 . S
H1574 C1603 0.950 . S
H1575 C1604 0.950 . S
H1576 C1606 0.950 . S
H1577 C1607 0.950 . S
C1578 H1560 0.951 . S
C1578 C1579 1.366 . S
C1578 C1580 1.388 . S
C1579 C1578 1.366 . S
C1579 C1583 1.385 . S
C1580 H1561 0.951 . S
C1580 C1578 1.388 . S
C1580 C1581 1.366 . S
C1581 C1580 1.366 . S
C1581 C1582 1.414 . S
C1581 C1584 1.499 . S
C1582 H1562 0.950 . S
C1582 C1581 1.414 . S
C1582 C1583 1.374 . S
C1583 H1563 0.950 . S
C1583 C1579 1.385 . S
C1583 C1582 1.374 . S
C1584 C1581 1.499 . S
C1584 C1585 1.373 . S
C1584 C1586 1.389 . S
C1585 H1564 0.950 . S
C1585 C1584 1.373 . S
C1585 C1601 1.377 . S
C1586 C1584 1.389 . S
C1586 C1587 1.524 . S
C1586 C1600 1.377 . S
C1587 C1586 1.524 . S
C1587 C1588 1.397 . S
C1587 C1592 1.363 . S
C1588 H1565 0.950 . S
C1588 C1587 1.397 . S
C1588 C1589 1.334 . S
C1589 H1566 0.950 1_565 S
C1589 C1588 1.334 . S
C1589 C1590 1.287 . S
C1590 C1589 1.287 . S
C1590 C1591 1.524 . S
C1590 H1609 0.913 . S
C1591 H1567 0.950 . S
C1591 C1590 1.524 . S
C1591 C1592 1.415 . S
C1592 H1568 0.950 . S
C1592 C1587 1.363 . S
C1592 C1591 1.415 . S
C1593 H1569 0.951 . S
C1593 C1594 1.366 . S
C1593 C1595 1.388 . S
C1594 C1593 1.366 . S
C1594 C1598 1.385 . S
C1595 H1570 0.951 . S
C1595 C1593 1.388 . S
C1595 C1596 1.366 . S
C1596 C1595 1.366 . S
C1596 C1597 1.414 . S
C1596 C1599 1.499 . S
C1597 H1571 0.950 . S
C1597 C1596 1.414 . S
C1597 C1598 1.374 . S
C1598 H1572 0.950 . S
C1598 C1594 1.385 . S
C1598 C1597 1.374 . S
C1599 C1596 1.499 . S
C1599 C1600 1.373 . S
C1599 C1601 1.389 . S
C1600 H1573 0.950 . S
C1600 C1586 1.377 . S
C1600 C1599 1.373 . S
C1601 C1585 1.377 . S
C1601 C1599 1.389 . S
C1601 C1602 1.524 . S
C1602 C1601 1.524 . S
C1602 C1603 1.397 . S
C1602 C1607 1.363 . S
C1603 H1574 0.950 . S
C1603 C1602 1.397 . S
C1603 C1604 1.334 . S
C1604 H1575 0.950 . S
C1604 C1603 1.334 . S
C1604 C1605 1.287 . S
C1605 C1604 1.287 . S
C1605 C1606 1.524 . S
C1605 H1608 0.999 . S
C1606 H1576 0.950 . S
C1606 C1605 1.524 . S
C1606 C1607 1.415 . S
C1607 H1577 0.950 . S
C1607 C1602 1.363 . S
C1607 C1606 1.415 . S
H1608 C1605 0.999 . S
H1609 C1590 0.913 . S
H1610 C1628 0.951 . S
H1611 C1630 0.951 . S
H1612 C1632 0.950 . S
H1613 C1633 0.950 . S
H1614 C1635 0.950 . S
H1615 C1638 0.950 . S
H1616 C1639 0.950 . S
H1617 C1641 0.950 . S
H1618 C1642 0.950 . S
H1619 C1643 0.951 . S
H1620 C1645 0.951 . S
H1621 C1647 0.950 . S
H1622 C1648 0.950 . S
H1623 C1650 0.950 . S
H1624 C1653 0.950 . S
H1625 C1654 0.950 . S
H1626 C1656 0.950 . S
H1627 C1657 0.950 . S
C1628 H1610 0.951 . S
C1628 C1629 1.366 . S
C1628 C1630 1.388 . S
C1629 C1628 1.366 . S
C1629 C1633 1.385 . S
C1630 H1611 0.951 . S
C1630 C1628 1.388 . S
C1630 C1631 1.366 . S
C1631 C1630 1.366 . S
C1631 C1632 1.414 . S
C1631 C1634 1.499 . S
C1632 H1612 0.950 . S
C1632 C1631 1.414 . S
C1632 C1633 1.374 . S
C1633 H1613 0.950 . S
C1633 C1629 1.385 . S
C1633 C1632 1.374 . S
C1634 C1631 1.499 . S
C1634 C1635 1.373 . S
C1634 C1636 1.389 . S
C1635 H1614 0.950 . S
C1635 C1634 1.373 . S
C1635 C1651 1.377 . S
C1636 C1634 1.389 . S
C1636 C1637 1.524 . S
C1636 C1650 1.377 . S
C1637 C1636 1.524 . S
C1637 C1638 1.397 . S
C1637 C1642 1.363 . S
C1638 H1615 0.950 . S
C1638 C1637 1.397 . S
C1638 C1639 1.334 . S
C1639 H1616 0.950 . S
C1639 C1638 1.334 . S
C1639 C1640 1.287 . S
C1640 C1639 1.287 . S
C1640 C1641 1.524 . S
C1640 H1659 0.913 . S
C1641 H1617 0.950 . S
C1641 C1640 1.524 . S
C1641 C1642 1.415 . S
C1642 H1618 0.950 . S
C1642 C1637 1.363 . S
C1642 C1641 1.415 . S
C1643 H1619 0.951 . S
C1643 C1644 1.366 . S
C1643 C1645 1.388 . S
C1644 C1643 1.366 . S
C1644 C1648 1.385 . S
C1645 H1620 0.951 . S
C1645 C1643 1.388 . S
C1645 C1646 1.366 . S
C1646 C1645 1.366 . S
C1646 C1647 1.414 . S
C1646 C1649 1.499 . S
C1647 H1621 0.950 . S
C1647 C1646 1.414 . S
C1647 C1648 1.374 . S
C1648 H1622 0.950 . S
C1648 C1644 1.385 . S
C1648 C1647 1.374 . S
C1649 C1646 1.499 . S
C1649 C1650 1.373 . S
C1649 C1651 1.389 . S
C1650 H1623 0.950 . S
C1650 C1636 1.377 . S
C1650 C1649 1.373 . S
C1651 C1635 1.377 . S
C1651 C1649 1.389 . S
C1651 C1652 1.524 . S
C1652 C1651 1.524 . S
C1652 C1653 1.397 . S
C1652 C1657 1.363 . S
C1653 H1624 0.950 . S
C1653 C1652 1.397 . S
C1653 C1654 1.334 . S
C1654 H1625 0.950 . S
C1654 C1653 1.334 . S
C1654 C1655 1.287 . S
C1655 C1654 1.287 . S
C1655 C1656 1.524 . S
C1655 H1658 0.999 . S
C1656 H1626 0.950 . S
C1656 C1655 1.524 . S
C1656 C1657 1.415 . S
C1657 H1627 0.950 . S
C1657 C1652 1.363 . S
C1657 C1656 1.415 . S
H1658 C1655 0.999 . S
H1659 C1640 0.913 . S
H1660 C1678 0.951 . S
H1661 C1680 0.951 . S
H1662 C1682 0.950 . S
H1663 C1683 0.950 . S
H1664 C1685 0.950 . S
H1665 C1688 0.950 . S
H1666 C1689 0.950 . S
H1667 C1691 0.950 . S
H1668 C1692 0.950 . S
H1669 C1693 0.951 . S
H1670 C1695 0.951 . S
H1671 C1697 0.950 . S
H1672 C1698 0.950 . S
H1673 C1700 0.950 . S
H1674 C1703 0.950 . S
H1675 C1704 0.950 . S
H1676 C1706 0.950 . S
H1677 C1707 0.950 . S
C1678 H1660 0.951 . S
C1678 C1679 1.366 . S
C1678 C1680 1.388 . S
C1679 C1678 1.366 . S
C1679 C1683 1.385 . S
C1680 H1661 0.951 . S
C1680 C1678 1.388 . S
C1680 C1681 1.366 . S
C1681 C1680 1.366 . S
C1681 C1682 1.414 . S
C1681 C1684 1.499 . S
C1682 H1662 0.950 . S
C1682 C1681 1.414 . S
C1682 C1683 1.374 . S
C1683 H1663 0.950 . S
C1683 C1679 1.385 . S
C1683 C1682 1.374 . S
C1684 C1681 1.499 . S
C1684 C1685 1.373 . S
C1684 C1686 1.389 . S
C1685 H1664 0.950 . S
C1685 C1684 1.373 . S
C1685 C1701 1.377 . S
C1686 C1684 1.389 . S
C1686 C1687 1.524 . S
C1686 C1700 1.377 . S
C1687 C1686 1.524 . S
C1687 C1688 1.397 . S
C1687 C1692 1.363 . S
C1688 H1665 0.950 . S
C1688 C1687 1.397 . S
C1688 C1689 1.334 . S
C1689 H1666 0.950 . S
C1689 C1688 1.334 . S
C1689 C1690 1.287 . S
C1690 C1689 1.287 . S
C1690 C1691 1.524 . S
C1690 H1709 0.913 . S
C1691 H1667 0.950 . S
C1691 C1690 1.524 . S
C1691 C1692 1.415 . S
C1692 H1668 0.950 . S
C1692 C1687 1.363 . S
C1692 C1691 1.415 . S
C1693 H1669 0.951 . S
C1693 C1694 1.366 . S
C1693 C1695 1.388 . S
C1694 C1693 1.366 . S
C1694 C1698 1.385 . S
C1695 H1670 0.951 . S
C1695 C1693 1.388 . S
C1695 C1696 1.366 . S
C1696 C1695 1.366 . S
C1696 C1697 1.414 . S
C1696 C1699 1.499 . S
C1697 H1671 0.950 . S
C1697 C1696 1.414 . S
C1697 C1698 1.374 . S
C1698 H1672 0.950 . S
C1698 C1694 1.385 . S
C1698 C1697 1.374 . S
C1699 C1696 1.499 . S
C1699 C1700 1.373 . S
C1699 C1701 1.389 . S
C1700 H1673 0.950 . S
C1700 C1686 1.377 . S
C1700 C1699 1.373 . S
C1701 C1685 1.377 . S
C1701 C1699 1.389 . S
C1701 C1702 1.524 . S
C1702 C1701 1.524 . S
C1702 C1703 1.397 . S
C1702 C1707 1.363 . S
C1703 H1674 0.950 . S
C1703 C1702 1.397 . S
C1703 C1704 1.334 . S
C1704 H1675 0.950 . S
C1704 C1703 1.334 . S
C1704 C1705 1.287 . S
C1705 C1704 1.287 . S
C1705 C1706 1.524 . S
C1705 H1708 0.999 . S
C1706 H1676 0.950 . S
C1706 C1705 1.524 . S
C1706 C1707 1.415 . S
C1707 H1677 0.950 . S
C1707 C1702 1.363 . S
C1707 C1706 1.415 . S
H1708 C1705 0.999 . S
H1709 C1690 0.913 . S
H1710 C1728 0.951 . S
H1711 C1730 0.951 . S
H1712 C1732 0.950 . S
H1713 C1733 0.950 . S
H1714 C1735 0.950 . S
H1715 C1738 0.950 . S
H1716 C1739 0.950 . S
H1717 C1741 0.950 . S
H1718 C1742 0.950 . S
H1719 C1743 0.951 . S
H1720 C1745 0.951 . S
H1721 C1747 0.950 . S
H1722 C1748 0.950 . S
H1723 C1750 0.950 . S
H1724 C1753 0.950 . S
H1725 C1754 0.950 . S
H1726 C1756 0.950 . S
H1727 C1757 0.950 . S
C1728 H1710 0.951 . S
C1728 C1729 1.366 . S
C1728 C1730 1.388 . S
C1729 C1728 1.366 . S
C1729 C1733 1.385 . S
C1730 H1711 0.951 . S
C1730 C1728 1.388 . S
C1730 C1731 1.366 . S
C1731 C1730 1.366 . S
C1731 C1732 1.414 . S
C1731 C1734 1.499 . S
C1732 H1712 0.950 . S
C1732 C1731 1.414 . S
C1732 C1733 1.374 . S
C1733 H1713 0.950 . S
C1733 C1729 1.385 . S
C1733 C1732 1.374 . S
C1734 C1731 1.499 . S
C1734 C1735 1.373 . S
C1734 C1736 1.389 . S
C1735 H1714 0.950 . S
C1735 C1734 1.373 . S
C1735 C1751 1.377 . S
C1736 C1734 1.389 . S
C1736 C1737 1.524 . S
C1736 C1750 1.377 . S
C1737 C1736 1.524 . S
C1737 C1738 1.397 . S
C1737 C1742 1.363 . S
C1738 H1715 0.950 . S
C1738 C1737 1.397 . S
C1738 C1739 1.334 . S
C1739 H1716 0.950 . S
C1739 C1738 1.334 . S
C1739 C1740 1.287 . S
C1740 C1739 1.287 . S
C1740 C1741 1.524 . S
C1740 H1759 0.935 . S
C1741 H1717 0.950 . S
C1741 C1740 1.524 . S
C1741 C1742 1.415 . S
C1742 H1718 0.950 . S
C1742 C1737 1.363 . S
C1742 C1741 1.415 . S
C1743 H1719 0.951 . S
C1743 C1744 1.366 . S
C1743 C1745 1.388 . S
C1744 C1743 1.366 . S
C1744 C1748 1.385 . S
C1745 H1720 0.951 . S
C1745 C1743 1.388 . S
C1745 C1746 1.366 . S
C1746 C1745 1.366 . S
C1746 C1747 1.414 . S
C1746 C1749 1.499 . S
C1747 H1721 0.950 . S
C1747 C1746 1.414 . S
C1747 C1748 1.374 . S
C1748 H1722 0.950 . S
C1748 C1744 1.385 . S
C1748 C1747 1.374 . S
C1749 C1746 1.499 . S
C1749 C1750 1.373 . S
C1749 C1751 1.389 . S
C1750 H1723 0.950 . S
C1750 C1736 1.377 . S
C1750 C1749 1.373 . S
C1751 C1735 1.377 . S
C1751 C1749 1.389 . S
C1751 C1752 1.524 . S
C1752 C1751 1.524 . S
C1752 C1753 1.397 . S
C1752 C1757 1.363 . S
C1753 H1724 0.950 . S
C1753 C1752 1.397 . S
C1753 C1754 1.334 . S
C1754 H1725 0.950 . S
C1754 C1753 1.334 . S
C1754 C1755 1.287 . S
C1755 C1754 1.287 . S
C1755 C1756 1.524 . S
C1755 H1758 0.999 . S
C1756 H1726 0.950 . S
C1756 C1755 1.524 . S
C1756 C1757 1.415 . S
C1757 H1727 0.950 . S
C1757 C1752 1.363 . S
C1757 C1756 1.415 . S
H1758 C1755 0.999 . S
H1759 C1740 0.935 . S
H1760 C1778 0.951 . S
H1761 C1780 0.951 . S
H1762 C1782 0.950 . S
H1763 C1783 0.950 . S
H1764 C1785 0.950 . S
H1765 C1788 0.950 . S
H1766 C1789 0.950 . S
H1767 C1791 0.950 . S
H1768 C1792 0.950 . S
H1769 C1793 0.951 . S
H1770 C1795 0.951 . S
H1771 C1797 0.950 . S
H1772 C1798 0.950 . S
H1773 C1800 0.950 1_556 S
H1774 C1803 0.950 . S
H1775 C1804 0.950 . S
H1776 C1806 0.950 . S
H1777 C1807 0.950 . S
C1778 H1760 0.951 . S
C1778 C1779 1.366 . S
C1778 C1780 1.388 . S
C1779 C1778 1.366 . S
C1779 C1783 1.385 . S
C1780 H1761 0.951 . S
C1780 C1778 1.388 . S
C1780 C1781 1.366 . S
C1781 C1780 1.366 . S
C1781 C1782 1.414 . S
C1781 C1784 1.499 . S
C1782 H1762 0.950 . S
C1782 C1781 1.414 . S
C1782 C1783 1.374 . S
C1783 H1763 0.950 . S
C1783 C1779 1.385 . S
C1783 C1782 1.374 . S
C1784 C1781 1.499 . S
C1784 C1785 1.373 . S
C1784 C1786 1.389 . S
C1785 H1764 0.950 . S
C1785 C1784 1.373 . S
C1785 C1801 1.377 . S
C1786 C1784 1.389 . S
C1786 C1787 1.524 . S
C1786 C1800 1.377 . S
C1787 C1786 1.524 . S
C1787 C1788 1.397 . S
C1787 C1792 1.363 . S
C1788 H1765 0.950 . S
C1788 C1787 1.397 . S
C1788 C1789 1.334 . S
C1789 H1766 0.950 . S
C1789 C1788 1.334 . S
C1789 C1790 1.287 . S
C1790 C1789 1.287 . S
C1790 C1791 1.524 . S
C1790 H1809 0.913 . S
C1791 H1767 0.950 . S
C1791 C1790 1.524 . S
C1791 C1792 1.415 . S
C1792 H1768 0.950 . S
C1792 C1787 1.363 . S
C1792 C1791 1.415 . S
C1793 H1769 0.951 . S
C1793 C1794 1.366 . S
C1793 C1795 1.388 . S
C1794 C1793 1.366 . S
C1794 C1798 1.385 . S
C1795 H1770 0.951 . S
C1795 C1793 1.388 . S
C1795 C1796 1.366 . S
C1796 C1795 1.366 . S
C1796 C1797 1.414 . S
C1796 C1799 1.499 . S
C1797 H1771 0.950 . S
C1797 C1796 1.414 . S
C1797 C1798 1.374 . S
C1798 H1772 0.950 . S
C1798 C1794 1.385 . S
C1798 C1797 1.374 . S
C1799 C1796 1.499 . S
C1799 C1800 1.373 1_556 S
C1799 C1801 1.389 1_556 S
C1800 H1773 0.950 1_554 S
C1800 C1786 1.377 . S
C1800 C1799 1.373 1_554 S
C1801 C1785 1.377 . S
C1801 C1799 1.389 1_554 S
C1801 C1802 1.524 . S
C1802 C1801 1.524 . S
C1802 C1803 1.397 1_554 S
C1802 C1807 1.363 . S
C1803 H1774 0.950 . S
C1803 C1802 1.397 1_556 S
C1803 C1804 1.334 . S
C1804 H1775 0.950 . S
C1804 C1803 1.334 . S
C1804 C1805 1.287 . S
C1805 C1804 1.287 . S
C1805 C1806 1.524 . S
C1805 H1808 0.999 . S
C1806 H1776 0.950 . S
C1806 C1805 1.524 . S
C1806 C1807 1.415 1_556 S
C1807 H1777 0.950 . S
C1807 C1802 1.363 . S
C1807 C1806 1.415 1_554 S
H1808 C1805 0.999 . S
H1809 C1790 0.913 . S
H1810 C1828 0.951 . S
H1811 C1830 0.951 . S
H1812 C1832 0.950 . S
H1813 C1833 0.950 . S
H1814 C1835 0.950 . S
H1815 C1838 0.950 . S
H1816 C1839 0.950 . S
H1817 C1841 0.950 . S
H1818 C1842 0.950 . S
H1819 C1843 0.951 . S
H1820 C1845 0.951 . S
H1821 C1847 0.950 . S
H1822 C1848 0.950 . S
H1823 C1850 0.950 . S
H1824 C1853 0.950 . S
H1825 C1854 0.950 . S
H1826 C1856 0.950 . S
H1827 C1857 0.950 . S
C1828 H1810 0.951 . S
C1828 C1829 1.366 . S
C1828 C1830 1.388 . S
C1829 C1828 1.366 . S
C1829 C1833 1.385 . S
C1830 H1811 0.951 . S
C1830 C1828 1.388 . S
C1830 C1831 1.366 . S
C1831 C1830 1.366 . S
C1831 C1832 1.414 . S
C1831 C1834 1.499 . S
C1832 H1812 0.950 . S
C1832 C1831 1.414 . S
C1832 C1833 1.374 . S
C1833 H1813 0.950 . S
C1833 C1829 1.385 . S
C1833 C1832 1.374 . S
C1834 C1831 1.499 . S
C1834 C1835 1.373 . S
C1834 C1836 1.389 . S
C1835 H1814 0.950 . S
C1835 C1834 1.373 . S
C1835 C1851 1.377 . S
C1836 C1834 1.389 . S
C1836 C1837 1.524 . S
C1836 C1850 1.377 . S
C1837 C1836 1.524 . S
C1837 C1838 1.397 . S
C1837 C1842 1.363 . S
C1838 H1815 0.950 . S
C1838 C1837 1.397 . S
C1838 C1839 1.334 . S
C1839 H1816 0.950 . S
C1839 C1838 1.334 . S
C1839 C1840 1.327 . S
C1840 C1839 1.327 . S
C1840 C1841 1.521 . S
C1840 H1859 0.871 1_655 S
C1841 H1817 0.950 . S
C1841 C1840 1.521 . S
C1841 C1842 1.415 . S
C1842 H1818 0.950 . S
C1842 C1837 1.363 . S
C1842 C1841 1.415 . S
C1843 H1819 0.951 . S
C1843 C1844 1.366 . S
C1843 C1845 1.388 . S
C1844 C1843 1.366 . S
C1844 C1848 1.385 . S
C1845 H1820 0.951 . S
C1845 C1843 1.388 . S
C1845 C1846 1.366 . S
C1846 C1845 1.366 . S
C1846 C1847 1.414 . S
C1846 C1849 1.499 . S
C1847 H1821 0.950 . S
C1847 C1846 1.414 . S
C1847 C1848 1.374 . S
C1848 H1822 0.950 . S
C1848 C1844 1.385 . S
C1848 C1847 1.374 . S
C1849 C1846 1.499 . S
C1849 C1850 1.373 . S
C1849 C1851 1.389 . S
C1850 H1823 0.950 . S
C1850 C1836 1.377 . S
C1850 C1849 1.373 . S
C1851 C1835 1.377 . S
C1851 C1849 1.389 . S
C1851 C1852 1.524 . S
C1852 C1851 1.524 . S
C1852 C1853 1.397 . S
C1852 C1857 1.363 . S
C1853 H1824 0.950 . S
C1853 C1852 1.397 . S
C1853 C1854 1.334 . S
C1854 H1825 0.950 . S
C1854 C1853 1.334 . S
C1854 C1855 1.287 . S
C1855 C1854 1.287 . S
C1855 C1856 1.524 . S
C1855 H1858 0.999 . S
C1856 H1826 0.950 . S
C1856 C1855 1.524 . S
C1856 C1857 1.415 . S
C1857 H1827 0.950 . S
C1857 C1852 1.363 . S
C1857 C1856 1.415 . S
H1858 C1855 0.999 . S
H1859 C1840 0.871 1_455 S
C694 C627 1.310 . S
C679 C51 1.294 . S
C729 C125 1.424 . S
C744 C447 1.421 . S
C779 C217 2.761 . S
C794 C494 2.751 . S
C829 C291 1.484 . S
C844 C530 1.461 . S
C894 C555 0.731 . S
C879 C347 0.732 . S
C929 C421 0.760 . S
C944 C591 0.760 . S
C979 C143 2.408 . S
C994 C483 2.406 . S
C1029 C199 1.486 . S
C1044 C519 1.497 . S
C1079 C273 0.307 . S
C1094 C566 0.381 . S
C1144 C602 1.663 . S
C1129 C365 1.665 . S
C1194 C638 1.799 . S
C1179 C439 1.826 . S
C1244 C458 2.585 . S
C1229 C69 2.558 . S
C1279 C63 1.330 . S
C1294 C482 1.409 . S
C1329 C137 1.476 . S
C1344 C518 1.527 . S
C1394 C556 1.319 . S
C1379 C187 1.275 . S
C1429 C261 1.441 . S
C1444 C592 1.471 . S
C1494 C628 1.426 . S
C1479 C359 1.323 . S
C1544 C448 0.991 . S
C1529 C433 0.960 . S
C1594 C626 1.562 . S
C1579 C113 1.563 . S
C1629 C211 1.213 . S
C1644 C446 1.270 . S
C1694 C484 1.472 . S
C1679 C285 1.408 . S
C1729 C335 1.307 . S
C1744 C520 1.367 . S
C1779 C409 1.301 . S
C1794 C554 1.328 . S
C1829 C39 1.653 . S
C1844 C590 1.684 . S
