# Generated by pormake.
# Topology rtl, (3,6)-cn, num edge types: 1
# Building blocks:
#     Node 0, Type 0, BuildingBlock: MIDCAF_clean_linker_0, # of connection points: 3
#     Node 1, Type 0, BuildingBlock: MIDCAF_clean_linker_0, # of connection points: 3
#     Node 2, Type 0, BuildingBlock: MIDCAF_clean_linker_0, # of connection points: 3
#     Node 3, Type 0, BuildingBlock: MIDCAF_clean_linker_0, # of connection points: 3
#     Node 4, Type 1, BuildingBlock: LEVNOQ01_clean_sbu_1, # of connection points: 6
#     Node 5, Type 1, BuildingBlock: LEVNOQ01_clean_sbu_1, # of connection points: 6
#     Edge 6, Type (0, 1), BuildingBlock: CIFDUS_clean_linker_0, # of connection points: 2
#     Edge 7, Type (0, 1), BuildingBlock: CIFDUS_clean_linker_0, # of connection points: 2
#     Edge 8, Type (0, 1), BuildingBlock: CIFDUS_clean_linker_0, # of connection points: 2
#     Edge 9, Type (0, 1), BuildingBlock: CIFDUS_clean_linker_0, # of connection points: 2
#     Edge 10, Type (0, 1), BuildingBlock: CIFDUS_clean_linker_0, # of connection points: 2
#     Edge 11, Type (0, 1), BuildingBlock: CIFDUS_clean_linker_0, # of connection points: 2
#     Edge 12, Type (0, 1), BuildingBlock: CIFDUS_clean_linker_0, # of connection points: 2
#     Edge 13, Type (0, 1), BuildingBlock: CIFDUS_clean_linker_0, # of connection points: 2
#     Edge 14, Type (0, 1), BuildingBlock: CIFDUS_clean_linker_0, # of connection points: 2
#     Edge 15, Type (0, 1), BuildingBlock: CIFDUS_clean_linker_0, # of connection points: 2
#     Edge 16, Type (0, 1), BuildingBlock: CIFDUS_clean_linker_0, # of connection points: 2
#     Edge 17, Type (0, 1), BuildingBlock: CIFDUS_clean_linker_0, # of connection points: 2
# Relax obj value: 0.027
# Max RMSD: 0.061
# Mean RMSD: 0.047
data_MOF--net-rtl--node1-LEVNOQ01_clean_sbu_1--node2-MIDCAF_clean_linker_0--edge1-CIFDUS_clean_linker_0
_symmetry_space_group_name_H-M    P1
_symmetry_Int_Tables_number       1
_symmetry_cell_setting            triclinic
loop_
_symmetry_equiv_pos_as_xyz
'x, y, z'
_cell_length_a     33.458765
_cell_length_b     38.302805
_cell_length_c     26.746964
_cell_angle_alpha  89.586592
_cell_angle_beta   97.971808
_cell_angle_gamma 90.174439
loop_
_atom_site_label
_atom_site_type_symbol
_atom_site_fract_x
_atom_site_fract_y
_atom_site_fract_z
_atom_type_partial_charge
C0 C 0.21691 0.95279 0.24012 0.0
C1 C 0.21299 0.9298 0.28059 0.0
C2 C 0.22095 0.8941 0.27455 0.0
C3 C 0.23378 0.88194 0.23045 0.0
H4 H 0.30732 0.80456 0.18705 0.0
H5 H 0.35128 0.75333 0.19403 0.0
H6 H 0.39131 0.78091 0.05225 0.0
H7 H 0.34735 0.83183 0.04488 0.0
H8 H 0.29621 0.89486 0.97511 0.0
H9 H 0.27109 0.91612 0.88988 0.0
H10 H 0.15674 0.94101 0.93786 0.0
H11 H 0.18204 0.92078 0.0235 0.0
H12 H 0.23222 0.95867 0.16506 0.0
H13 H 0.21142 0.98046 0.24324 0.0
H14 H 0.21694 0.8752 0.30373 0.0
H15 H 0.24003 0.85434 0.22753 0.0
N16 N 0.28012 0.86465 0.14999 0.0
N17 N 0.28321 0.86628 0.06307 0.0
N18 N 0.24129 0.9055 0.09856 0.0
C19 C 0.29531 0.85202 0.10933 0.0
C20 C 0.25597 0.89278 0.05729 0.0
C21 C 0.25353 0.89157 0.14509 0.0
C22 C 0.32369 0.82219 0.11522 0.0
C23 C 0.32584 0.79991 0.15762 0.0
C24 C 0.35091 0.77056 0.16168 0.0
C25 C 0.37488 0.76332 0.12392 0.0
C26 C 0.37361 0.78615 0.08234 0.0
C27 C 0.34812 0.81513 0.07786 0.0
C28 C 0.24116 0.90636 0.00608 0.0
C29 C 0.26574 0.90493 0.96751 0.0
C30 C 0.25143 0.91699 0.9188 0.0
C31 C 0.21194 0.92979 0.90746 0.0
C32 C 0.18719 0.93087 0.94572 0.0
C33 C 0.2018 0.91964 0.99473 0.0
C34 C 0.23801 0.90488 0.19043 0.0
C35 C 0.22891 0.94037 0.19528 0.0
C36 C 0.66478 0.61495 0.41235 0.0
C37 C 0.68764 0.5974 0.3798 0.0
C38 C 0.72659 0.58563 0.39974 0.0
C39 C 0.74274 0.59258 0.44974 0.0
H40 H 0.82593 0.68284 0.50973 0.0
H41 H 0.8592 0.73879 0.50393 0.0
H42 H 0.82763 0.76803 0.64898 0.0
H43 H 0.79413 0.7113 0.65526 0.0
H44 H 0.75418 0.64785 0.71605 0.0
H45 H 0.7262 0.62695 0.7903 0.0
H46 H 0.6688 0.5413 0.70387 0.0
H47 H 0.69682 0.56187 0.62966 0.0
H48 H 0.6628 0.63532 0.48655 0.0
H49 H 0.63512 0.62516 0.39878 0.0
H50 H 0.74492 0.57117 0.37681 0.0
H51 H 0.77328 0.58441 0.46355 0.0
N52 N 0.76546 0.64808 0.53519 0.0
N53 N 0.76804 0.6482 0.62321 0.0
N54 N 0.72612 0.60828 0.57413 0.0
C55 C 0.78038 0.66165 0.58072 0.0
C56 C 0.74136 0.6211 0.62026 0.0
C57 C 0.73842 0.62159 0.53165 0.0
C58 C 0.80667 0.69288 0.58249 0.0
C59 C 0.82641 0.70089 0.54081 0.0
C60 C 0.84542 0.73299 0.5374 0.0
C61 C 0.84508 0.75801 0.57545 0.0
C62 C 0.82809 0.74921 0.61904 0.0
C63 C 0.80898 0.71678 0.62257 0.0
C64 C 0.72734 0.60684 0.66657 0.0
C65 C 0.73601 0.62432 0.71291 0.0
C66 C 0.71997 0.61239 0.7555 0.0
C67 C 0.69522 0.58257 0.75283 0.0
C68 C 0.68809 0.56417 0.70722 0.0
C69 C 0.70385 0.57621 0.66453 0.0
C70 C 0.71984 0.61028 0.48145 0.0
C71 C 0.68059 0.62095 0.46275 0.0
C72 C 0.80577 0.06817 0.8655 0.0
C73 C 0.79416 0.08745 0.82101 0.0
C74 C 0.76376 0.11274 0.82046 0.0
C75 C 0.74738 0.12034 0.86443 0.0
H76 H 0.6766 0.19212 0.9217 0.0
H77 H 0.63135 0.24193 0.92235 0.0
H78 H 0.64241 0.23508 0.08492 0.0
H79 H 0.687 0.18523 0.08449 0.0
H80 H 0.77557 0.14912 0.13852 0.0
H81 H 0.81979 0.12996 0.21403 0.0
H82 H 0.84067 0.03289 0.14045 0.0
H83 H 0.79807 0.05263 0.06469 0.0
H84 H 0.80062 0.06157 0.94374 0.0
H85 H 0.82933 0.04869 0.86723 0.0
H86 H 0.75387 0.12772 0.7865 0.0
H87 H 0.72533 0.14108 0.8631 0.0
N88 N 0.72244 0.14155 0.95885 0.0
N89 N 0.73366 0.14201 0.04744 0.0
N90 N 0.76818 0.10222 0.00287 0.0
C91 C 0.71418 0.155 0.00317 0.0
C92 C 0.76056 0.11548 0.04754 0.0
C93 C 0.74932 0.11508 0.95835 0.0
C94 C 0.68558 0.18457 0.0031 0.0
C95 C 0.66918 0.20105 0.95761 0.0
C96 C 0.64336 0.22972 0.95789 0.0
C97 C 0.63311 0.24236 0.0036 0.0
C98 C 0.64913 0.22563 0.04894 0.0
C99 C 0.67502 0.19715 0.04871 0.0
C100 C 0.78365 0.10257 0.09537 0.0
C101 C 0.78937 0.12357 0.13871 0.0
C102 C 0.81466 0.11252 0.1821 0.0
C103 C 0.8344 0.08006 0.18325 0.0
C104 C 0.82701 0.05848 0.14057 0.0
C105 C 0.80229 0.06969 0.09713 0.0
C106 C 0.76124 0.10292 0.90999 0.0
C107 C 0.78952 0.07583 0.90953 0.0
C108 C 0.32329 0.41954 0.64088 0.0
C109 C 0.3011 0.41152 0.68035 0.0
C110 C 0.26336 0.3951 0.669 0.0
C111 C 0.24815 0.38678 0.61909 0.0
H112 H 0.15771 0.32634 0.52501 0.0
H113 H 0.11985 0.27172 0.51352 0.0
H114 H 0.17127 0.25174 0.37723 0.0
H115 H 0.20857 0.30692 0.3879 0.0
H116 H 0.2317 0.38569 0.33726 0.0
H117 H 0.26471 0.40859 0.26817 0.0
H118 H 0.34897 0.46532 0.37488 0.0
H119 H 0.31645 0.44228 0.44418 0.0
H120 H 0.32555 0.41859 0.56132 0.0
H121 H 0.35223 0.43263 0.64856 0.0
H122 H 0.24562 0.38873 0.69878 0.0
H123 H 0.21897 0.37411 0.61156 0.0
N124 N 0.22621 0.36079 0.51637 0.0
N125 N 0.22769 0.36817 0.42951 0.0
N126 N 0.26824 0.40335 0.48748 0.0
C127 C 0.21311 0.35131 0.46797 0.0
C128 C 0.25489 0.39451 0.43885 0.0
C129 C 0.25393 0.3867 0.52644 0.0
C130 C 0.18626 0.32077 0.45757 0.0
C131 C 0.16031 0.31067 0.49205 0.0
C132 C 0.1384 0.27959 0.48524 0.0
C133 C 0.14262 0.2577 0.44436 0.0
C134 C 0.16742 0.26832 0.40885 0.0
C135 C 0.18867 0.29986 0.41504 0.0
C136 C 0.27184 0.41162 0.39649 0.0
C137 C 0.25701 0.40333 0.34609 0.0
C138 C 0.27568 0.41666 0.30636 0.0
C139 C 0.30964 0.43841 0.31622 0.0
C140 C 0.32315 0.44817 0.36629 0.0
C141 C 0.30443 0.435 0.40598 0.0
C142 C 0.27001 0.39538 0.5794 0.0
C143 C 0.30778 0.41183 0.5909 0.0
O144 O 0.98458 0.07012 0.65813 0.0
Mg145 Mg 0.04198 0.07248 0.63465 0.0
O146 O 0.96323 0.02498 0.60985 0.0
Mg147 Mg 0.01179 0.01405 0.55645 0.0
O148 O 0.03524 0.07075 0.55793 0.0
O149 O 0.05857 0.1176 0.60211 0.0
O150 O 0.06293 0.00929 0.50185 0.0
O151 O 0.96487 0.03248 0.48937 0.0
Mg152 Mg 0.01257 0.96468 0.49785 0.0
O153 O 0.98269 0.95639 0.55841 0.0
O154 O 0.07478 0.95362 0.5061 0.0
O155 O 0.98606 -0.00376 0.43581 0.0
O156 O 0.98174 0.91982 0.49263 0.0
C157 C 0.08474 0.00588 0.65983 0.0
C158 C 0.9579 0.04746 0.64339 0.0
C159 C 0.04846 0.10264 0.55915 0.0
C160 C 0.08537 0.98366 0.49385 0.0
C161 C 0.96449 0.02207 0.44423 0.0
C162 C 0.97127 0.92723 0.53586 0.0
O163 O 0.08698 0.03832 0.66855 0.0
O164 O 0.05894 -0.00623 0.62435 0.0
O165 O 0.59354 0.52038 0.0961 0.0
Mg166 Mg 0.54919 0.48065 0.08628 0.0
O167 O 0.53292 0.54012 0.09681 0.0
Mg168 Mg 0.4954 0.50964 0.02785 0.0
O169 O 0.53281 0.45639 0.01912 0.0
O170 O 0.57654 0.43465 0.08363 0.0
O171 O 0.45369 0.4824 0.95989 0.0
O172 O 0.53696 0.53517 0.97378 0.0
Mg173 Mg 0.44802 0.56142 0.95649 0.0
O174 O 0.45651 0.55972 0.0334 0.0
O175 O 0.41186 0.52175 0.92145 0.0
O176 O 0.50137 0.5758 0.92821 0.0
O177 O 0.41845 0.59976 0.98729 0.0
C178 C 0.47123 0.4759 0.12873 0.0
C179 C 0.5706 0.54233 0.11232 0.0
C180 C 0.55748 0.43199 0.03857 0.0
C181 C 0.42357 0.49047 0.927 0.0
C182 C 0.53429 0.55976 0.94098 0.0
C183 C 0.43388 0.58744 0.03069 0.0
O184 O 0.50918 0.4756 0.1411 0.0
O185 O 0.45644 0.48441 0.08382 0.0
H186 H 0.0647 0.23937 0.4479 0.0
H187 H 0.1826 0.19652 0.44031 0.0
H188 H 0.15933 0.13881 0.46325 0.0
H189 H 0.11042 0.10505 0.50511 0.0
H190 H 0.99375 0.14887 0.51627 0.0
H191 H 0.01071 0.20118 0.47073 0.0
C192 C 0.08479 0.21707 0.44971 0.0
C193 C 0.12536 0.22209 0.44337 0.0
C194 C 0.07136 0.18416 0.4638 0.0
C195 C 0.15122 0.19315 0.44522 0.0
C196 C 0.138 0.16022 0.45869 0.0
C197 C 0.08808 0.12531 0.495 0.0
C198 C 0.05095 0.12337 0.51358 0.0
C199 C 0.0988 0.1559 0.47077 0.0
C200 C 0.02233 0.14986 0.50155 0.0
C201 C 0.03229 0.17999 0.47629 0.0
H202 H 0.34947 0.69745 0.1406 0.0
H203 H 0.45323 0.75611 0.1085 0.0
H204 H 0.48706 0.7021 0.0906 0.0
H205 H 0.48032 0.64067 0.06589 0.0
H206 H 0.3736 0.5832 0.08857 0.0
H207 H 0.34834 0.63357 0.13055 0.0
C208 C 0.38002 0.69824 0.13134 0.0
C209 C 0.39864 0.73065 0.12502 0.0
C210 C 0.39867 0.66714 0.11942 0.0
C211 C 0.4381 0.73143 0.1127 0.0
C212 C 0.45744 0.70057 0.10253 0.0
C213 C 0.45258 0.63874 0.08253 0.0
C214 C 0.42894 0.60844 0.07489 0.0
C215 C 0.43716 0.66852 0.10325 0.0
C216 C 0.39252 0.60619 0.09506 0.0
C217 C 0.37778 0.63522 0.11813 0.0
H218 H 0.89746 0.79882 0.63849 0.0
H219 H 0.82418 0.79767 0.49237 0.0
H220 H 0.8535 0.85285 0.47015 0.0
H221 H 0.9054 0.89729 0.48764 0.0
H222 H 0.97992 0.90035 0.6323 0.0
H223 H 0.94428 0.84901 0.66038 0.0
C224 C 0.88755 0.81108 0.60223 0.0
C225 C 0.85949 0.79383 0.56657 0.0
C226 C 0.90484 0.84297 0.58943 0.0
C227 C 0.84654 0.81003 0.51986 0.0
C228 C 0.86314 0.84163 0.50717 0.0
C229 C 0.91324 0.88708 0.52571 0.0
C230 C 0.94523 0.90208 0.5578 0.0
C231 C 0.89317 0.85766 0.54094 0.0
C232 C 0.95513 0.88909 0.60714 0.0
C233 C 0.93502 0.85962 0.62291 0.0
H234 H 0.63572 0.30343 0.95054 0.0
H235 H 0.57199 0.25157 0.05971 0.0
H236 H 0.53705 0.30568 0.07339 0.0
H237 H 0.53247 0.3692 0.0639 0.0
H238 H 0.59667 0.42213 0.95687 0.0
H239 H 0.62272 0.36601 0.93137 0.0
C240 C 0.61343 0.30377 0.97634 0.0
C241 C 0.60713 0.27367 0.0049 0.0
C242 C 0.59359 0.33517 0.98434 0.0
C243 C 0.57817 0.27458 0.03826 0.0
C244 C 0.55803 0.30547 0.04594 0.0
C245 C 0.55101 0.36816 0.03369 0.0
C246 C 0.56253 0.39934 0.01186 0.0
C247 C 0.56662 0.33613 0.02059 0.0
C248 C 0.58701 0.39818 0.97343 0.0
C249 C 0.60227 0.36619 0.95944 0.0
H250 H 0.16059 0.98319 0.29378 0.0
H251 H 0.23654 0.90524 0.37681 0.0
H252 H 0.20686 0.91799 0.45251 0.0
H253 H 0.15329 0.94586 0.49224 0.0
H254 H 0.08097 0.02675 0.41195 0.0
H255 H 0.11662 0.01931 0.33888 0.0
C256 C 0.17157 0.96955 0.32858 0.0
C257 C 0.19978 0.94225 0.32859 0.0
C258 C 0.15511 0.97763 0.37275 0.0
C259 C 0.21353 0.92521 0.37463 0.0
C260 C 0.1969 0.93274 0.41833 0.0
C261 C 0.14624 0.96256 0.45927 0.0
C262 C 0.11442 0.98656 0.45724 0.0
C263 C 0.1667 0.95802 0.41736 0.0
C264 C 0.10557 0.00821 0.4145 0.0
C265 C 0.12561 0.00365 0.37245 0.0
H266 H 0.65484 0.62557 0.80758 0.0
H267 H 0.6858 0.51733 0.79269 0.0
H268 H 0.6422 0.50079 0.85546 0.0
H269 H 0.58977 0.51686 0.908 0.0
H270 H 0.55589 0.62496 0.91664 0.0
H271 H 0.60678 0.64196 0.86398 0.0
C272 C 0.65281 0.59845 0.81895 0.0
C273 C 0.67346 0.57272 0.79557 0.0
C274 C 0.62697 0.58913 0.85387 0.0
C275 C 0.66991 0.53758 0.80996 0.0
C276 C 0.64503 0.52814 0.84583 0.0
C277 C 0.59424 0.54415 0.89908 0.0
C278 C 0.5692 0.56966 0.9159 0.0
C279 C 0.62259 0.55362 0.8671 0.0
C280 C 0.57476 0.60491 0.90374 0.0
C281 C 0.60375 0.61463 0.87359 0.0
H282 H 0.83023 0.09051 0.28402 0.0
H283 H 0.90545 0.0453 0.18263 0.0
H284 H 0.95217 0.02428 0.25411 0.0
H285 H 0.97104 0.01707 0.34498 0.0
H286 H 0.89861 0.06408 0.44769 0.0
H287 H 0.85209 0.08684 0.37608 0.0
C288 C 0.85708 0.07645 0.27749 0.0
C289 C 0.86369 0.069 0.22772 0.0
C290 C 0.88448 0.06484 0.31901 0.0
C291 C 0.89873 0.05058 0.22029 0.0
C292 C 0.92579 0.03878 0.26122 0.0
C293 C 0.94516 0.03241 0.35181 0.0
C294 C 0.9381 0.03859 0.40159 0.0
C295 C 0.91874 0.0454 0.31065 0.0
C296 C 0.90473 0.05894 0.40971 0.0
C297 C 0.87804 0.07182 0.36877 0.0
H298 H 0.37499 0.39914 0.73471 0.0
H299 H 0.26071 0.44904 0.74278 0.0
H300 H 0.28724 0.47404 0.82447 0.0
H301 H 0.34507 0.48735 0.88814 0.0
H302 H 0.45948 0.43738 0.88193 0.0
H303 H 0.43064 0.40603 0.80562 0.0
C304 C 0.35587 0.41515 0.7548 0.0
C305 C 0.31611 0.4226 0.73263 0.0
C306 C 0.37133 0.42933 0.80197 0.0
C307 C 0.29136 0.44295 0.75917 0.0
C308 C 0.30656 0.45734 0.80575 0.0
C309 C 0.36339 0.46892 0.87073 0.0
C310 C 0.40435 0.46481 0.89023 0.0
C311 C 0.34675 0.45145 0.8268 0.0
C312 C 0.42779 0.44075 0.86771 0.0
C313 C 0.41141 0.42318 0.82376 0.0
H314 H 0.60855 0.58865 0.33735 0.0
H315 H 0.72956 0.59415 0.29815 0.0
H316 H 0.70381 0.58034 0.21109 0.0
H317 H 0.64744 0.56267 0.14692 0.0
H318 H 0.52618 0.56284 0.18471 0.0
H319 H 0.55155 0.58029 0.27076 0.0
C320 C 0.62947 0.58777 0.30991 0.0
C321 C 0.67128 0.5917 0.32541 0.0
C322 C 0.61435 0.58116 0.25917 0.0
C323 C 0.69745 0.58991 0.28846 0.0
C324 C 0.6827 0.58247 0.2382 0.0
C325 C 0.62652 0.56736 0.1737 0.0
C326 C 0.58506 0.56123 0.15945 0.0
C327 C 0.64129 0.57743 0.2233 0.0
C328 C 0.55825 0.56755 0.19448 0.0
C329 C 0.57277 0.57716 0.24397 0.0
H330 H 0.8191 0.02829 0.77732 0.0
H331 H 0.82327 0.14085 0.76964 0.0
H332 H 0.87111 0.13798 0.70915 0.0
H333 H 0.91777 0.10405 0.66667 0.0
H334 H 0.91495 0.99165 0.67264 0.0
H335 H 0.86034 -0.00625 0.72525 0.0
C336 C 0.83012 0.0521 0.76178 0.0
C337 C 0.81778 0.08473 0.77817 0.0
C338 C 0.85808 0.0503 0.72714 0.0
C339 C 0.83191 0.11542 0.75734 0.0
C340 C 0.85958 0.11383 0.72306 0.0
C341 C 0.90471 0.08001 0.6789 0.0
C342 C 0.9205 0.04778 0.66662 0.0
C343 C 0.87371 0.0815 0.70892 0.0
C344 C 0.90313 0.01675 0.68181 0.0
C345 C 0.87217 0.01799 0.71211 0.0
H346 H 0.39012 0.43399 0.31915 0.0
H347 H 0.28206 0.46343 0.22108 0.0
H348 H 0.32221 0.47719 0.1533 0.0
H349 H 0.38873 0.48091 0.12243 0.0
H350 H 0.49571 0.45056 0.22282 0.0
H351 H 0.45524 0.43729 0.28903 0.0
C352 C 0.37537 0.44388 0.28317 0.0
C353 C 0.33334 0.4481 0.27528 0.0
C354 C 0.39846 0.45142 0.24464 0.0
C355 C 0.31449 0.46001 0.228 0.0
C356 C 0.33742 0.46789 0.18933 0.0
C357 C 0.40308 0.47126 0.15872 0.0
C358 C 0.44525 0.46683 0.16747 0.0
C359 C 0.37952 0.46361 0.19719 0.0
C360 C 0.46338 0.45437 0.21485 0.0
C361 C 0.44028 0.44674 0.25294 0.0
H362 H 0.14735 0.90751 0.84239 0.0
H363 H 0.24354 0.98339 0.85911 0.0
H364 H 0.21509 0.01152 0.77968 0.0
H365 H 0.15895 0.01813 0.71074 0.0
H366 H 0.06369 0.94132 0.69167 0.0
H367 H 0.09611 0.90932 0.76596 0.0
C368 C 0.1622 0.92994 0.8281 0.0
C369 C 0.1971 0.94376 0.85657 0.0
C370 C 0.1459 0.94568 0.7821 0.0
C371 C 0.21657 0.97249 0.83771 0.0
C372 C 0.20028 0.98857 0.79245 0.0
C373 C 0.14577 -0.00604 0.72226 0.0
C374 C 0.10881 0.98227 0.69618 0.0
C375 C 0.16444 0.9759 0.76502 0.0
C376 C 0.09221 0.95076 0.71106 0.0
C377 C 0.11052 0.93268 0.75385 0.0
loop_
_geom_bond_atom_site_label_1
_geom_bond_atom_site_label_2
_geom_bond_distance
_geom_bond_site_symmetry_2
_ccdc_geom_bond_type
C0 C1 1.384 . S
C0 H13 0.947 . S
C0 C35 1.382 . S
C1 C0 1.384 . S
C1 C2 1.378 . S
C2 C1 1.378 . S
C2 C3 1.378 . S
C2 H14 0.952 . S
C3 C2 1.378 . S
C3 H15 0.950 . S
C3 C34 1.383 . S
H4 C23 0.947 . S
H5 C24 0.946 . S
H6 C26 0.953 . S
H7 C27 0.945 . S
H8 C29 0.952 . S
H9 C30 0.949 . S
H10 C32 0.950 . S
H11 C33 0.948 1_554 S
H12 C35 0.951 . S
H13 C0 0.947 . S
H14 C2 0.952 . S
H15 C3 0.950 . S
N16 C19 1.382 . S
N16 C21 1.363 . S
N17 C19 1.371 . S
N17 C20 1.372 . S
N18 C20 1.361 . S
N18 C21 1.377 . S
C19 N16 1.382 . S
C19 N17 1.371 . S
C19 C22 1.480 . S
C20 N17 1.372 . S
C20 N18 1.361 . S
C20 C28 1.457 1_554 S
C21 N16 1.363 . S
C21 N18 1.377 . S
C21 C34 1.479 . S
C22 C19 1.480 . S
C22 C23 1.383 . S
C22 C27 1.385 . S
C23 H4 0.947 . S
C23 C22 1.383 . S
C23 C24 1.388 . S
C24 H5 0.946 . S
C24 C23 1.388 . S
C24 C25 1.384 . S
C25 C24 1.384 . S
C25 C26 1.377 . S
C26 H6 0.953 . S
C26 C25 1.377 . S
C26 C27 1.369 . S
C27 H7 0.945 . S
C27 C22 1.385 . S
C27 C26 1.369 . S
C28 C20 1.457 1_556 S
C28 C29 1.372 . S
C28 C33 1.364 . S
C29 H8 0.952 . S
C29 C28 1.372 . S
C29 C30 1.389 . S
C30 H9 0.949 . S
C30 C29 1.389 . S
C30 C31 1.387 . S
C31 C30 1.387 . S
C31 C32 1.372 . S
C32 H10 0.950 . S
C32 C31 1.372 . S
C32 C33 1.379 . S
C33 H11 0.948 1_556 S
C33 C28 1.364 . S
C33 C32 1.379 . S
C34 C3 1.383 . S
C34 C21 1.479 . S
C34 C35 1.398 . S
C35 C0 1.382 . S
C35 H12 0.951 . S
C35 C34 1.398 . S
C36 C37 1.384 . S
C36 H49 0.947 . S
C36 C71 1.382 . S
C37 C36 1.384 . S
C37 C38 1.378 . S
C38 C37 1.378 . S
C38 C39 1.378 . S
C38 H50 0.952 . S
C39 C38 1.378 . S
C39 H51 0.950 . S
C39 C70 1.383 . S
H40 C59 0.947 . S
H41 C60 0.946 . S
H42 C62 0.953 . S
H43 C63 0.945 . S
H44 C65 0.952 . S
H45 C66 0.949 . S
H46 C68 0.950 . S
H47 C69 0.948 . S
H48 C71 0.951 . S
H49 C36 0.947 . S
H50 C38 0.952 . S
H51 C39 0.950 . S
N52 C55 1.382 . S
N52 C57 1.363 . S
N53 C55 1.371 . S
N53 C56 1.372 . S
N54 C56 1.361 . S
N54 C57 1.377 . S
C55 N52 1.382 . S
C55 N53 1.371 . S
C55 C58 1.480 . S
C56 N53 1.372 . S
C56 N54 1.361 . S
C56 C64 1.457 . S
C57 N52 1.363 . S
C57 N54 1.377 . S
C57 C70 1.479 . S
C58 C55 1.480 . S
C58 C59 1.383 . S
C58 C63 1.385 . S
C59 H40 0.947 . S
C59 C58 1.383 . S
C59 C60 1.388 . S
C60 H41 0.946 . S
C60 C59 1.388 . S
C60 C61 1.384 . S
C61 C60 1.384 . S
C61 C62 1.377 . S
C62 H42 0.953 . S
C62 C61 1.377 . S
C62 C63 1.369 . S
C63 H43 0.945 . S
C63 C58 1.385 . S
C63 C62 1.369 . S
C64 C56 1.457 . S
C64 C65 1.372 . S
C64 C69 1.364 . S
C65 H44 0.952 . S
C65 C64 1.372 . S
C65 C66 1.389 . S
C66 H45 0.949 . S
C66 C65 1.389 . S
C66 C67 1.387 . S
C67 C66 1.387 . S
C67 C68 1.372 . S
C68 H46 0.950 . S
C68 C67 1.372 . S
C68 C69 1.379 . S
C69 H47 0.948 . S
C69 C64 1.364 . S
C69 C68 1.379 . S
C70 C39 1.383 . S
C70 C57 1.479 . S
C70 C71 1.398 . S
C71 C36 1.382 . S
C71 H48 0.951 . S
C71 C70 1.398 . S
C72 C73 1.384 . S
C72 H85 0.947 . S
C72 C107 1.382 . S
C73 C72 1.384 . S
C73 C74 1.378 . S
C74 C73 1.378 . S
C74 C75 1.378 . S
C74 H86 0.952 . S
C75 C74 1.378 . S
C75 H87 0.950 . S
C75 C106 1.383 . S
H76 C95 0.947 . S
H77 C96 0.946 . S
H78 C98 0.953 . S
H79 C99 0.945 . S
H80 C101 0.952 . S
H81 C102 0.949 . S
H82 C104 0.950 . S
H83 C105 0.948 . S
H84 C107 0.951 . S
H85 C72 0.947 . S
H86 C74 0.952 . S
H87 C75 0.950 . S
N88 C91 1.382 1_556 S
N88 C93 1.363 . S
N89 C91 1.371 . S
N89 C92 1.372 . S
N90 C92 1.361 . S
N90 C93 1.377 1_554 S
C91 N88 1.382 1_554 S
C91 N89 1.371 . S
C91 C94 1.480 . S
C92 N89 1.372 . S
C92 N90 1.361 . S
C92 C100 1.457 . S
C93 N88 1.363 . S
C93 N90 1.377 1_556 S
C93 C106 1.479 . S
C94 C91 1.480 . S
C94 C95 1.383 1_554 S
C94 C99 1.385 . S
C95 H76 0.947 . S
C95 C94 1.383 1_556 S
C95 C96 1.388 . S
C96 H77 0.946 . S
C96 C95 1.388 . S
C96 C97 1.384 . S
C97 C96 1.384 . S
C97 C98 1.377 1_556 S
C98 H78 0.953 . S
C98 C97 1.377 1_554 S
C98 C99 1.369 . S
C99 H79 0.945 . S
C99 C94 1.385 . S
C99 C98 1.369 . S
C100 C92 1.457 . S
C100 C101 1.372 . S
C100 C105 1.364 . S
C101 H80 0.952 . S
C101 C100 1.372 . S
C101 C102 1.389 . S
C102 H81 0.949 . S
C102 C101 1.389 . S
C102 C103 1.387 . S
C103 C102 1.387 . S
C103 C104 1.372 . S
C104 H82 0.950 . S
C104 C103 1.372 . S
C104 C105 1.379 . S
C105 H83 0.948 . S
C105 C100 1.364 . S
C105 C104 1.379 . S
C106 C75 1.383 . S
C106 C93 1.479 . S
C106 C107 1.398 . S
C107 C72 1.382 . S
C107 H84 0.951 . S
C107 C106 1.398 . S
C108 C109 1.384 . S
C108 H121 0.947 . S
C108 C143 1.382 . S
C109 C108 1.384 . S
C109 C110 1.378 . S
C110 C109 1.378 . S
C110 C111 1.378 . S
C110 H122 0.952 . S
C111 C110 1.378 . S
C111 H123 0.950 . S
C111 C142 1.383 . S
H112 C131 0.947 . S
H113 C132 0.946 . S
H114 C134 0.953 . S
H115 C135 0.945 . S
H116 C137 0.952 . S
H117 C138 0.949 . S
H118 C140 0.950 . S
H119 C141 0.948 . S
H120 C143 0.951 . S
H121 C108 0.947 . S
H122 C110 0.952 . S
H123 C111 0.950 . S
N124 C127 1.382 . S
N124 C129 1.363 . S
N125 C127 1.371 . S
N125 C128 1.372 . S
N126 C128 1.361 . S
N126 C129 1.377 . S
C127 N124 1.382 . S
C127 N125 1.371 . S
C127 C130 1.480 . S
C128 N125 1.372 . S
C128 N126 1.361 . S
C128 C136 1.457 . S
C129 N124 1.363 . S
C129 N126 1.377 . S
C129 C142 1.479 . S
C130 C127 1.480 . S
C130 C131 1.383 . S
C130 C135 1.385 . S
C131 H112 0.947 . S
C131 C130 1.383 . S
C131 C132 1.388 . S
C132 H113 0.946 . S
C132 C131 1.388 . S
C132 C133 1.384 . S
C133 C132 1.384 . S
C133 C134 1.377 . S
C134 H114 0.953 . S
C134 C133 1.377 . S
C134 C135 1.369 . S
C135 H115 0.945 . S
C135 C130 1.385 . S
C135 C134 1.369 . S
C136 C128 1.457 . S
C136 C137 1.372 . S
C136 C141 1.364 . S
C137 H116 0.952 . S
C137 C136 1.372 . S
C137 C138 1.389 . S
C138 H117 0.949 . S
C138 C137 1.389 . S
C138 C139 1.387 . S
C139 C138 1.387 . S
C139 C140 1.372 . S
C140 H118 0.950 . S
C140 C139 1.372 . S
C140 C141 1.379 . S
C141 H119 0.948 . S
C141 C136 1.364 . S
C141 C140 1.379 . S
C142 C111 1.383 . S
C142 C129 1.479 . S
C142 C143 1.398 . S
C143 C108 1.382 . S
C143 H120 0.951 . S
C143 C142 1.398 . S
O144 Mg145 1.990 1_655 S
O144 C158 1.253 . S
Mg145 O144 1.990 1_455 S
Mg145 O148 2.180 . S
Mg145 O149 2.117 . S
Mg145 O163 2.030 . S
O146 Mg147 2.072 1_655 S
O146 C158 1.260 . S
Mg147 O146 2.072 1_455 S
Mg147 O148 2.099 . S
Mg147 O150 2.079 1_545 S
Mg147 O151 2.072 1_455 S
Mg147 O153 2.099 1_445 S
Mg147 O164 2.079 1_545 S
O148 Mg145 2.180 . S
O148 Mg147 2.099 . S
O148 C159 1.279 . S
O149 Mg145 2.117 . S
O149 C159 1.250 . S
O150 Mg147 2.079 1_565 S
O150 C160 1.264 . S
O151 Mg147 2.072 1_655 S
O151 C161 1.260 . S
Mg152 O153 2.180 . S
Mg152 O154 2.030 1_655 S
Mg152 O155 1.982 1_565 S
Mg152 O156 2.117 . S
O153 Mg147 2.099 1_665 S
O153 Mg152 2.180 . S
O153 C162 1.279 . S
O154 Mg152 2.030 1_455 S
O154 C160 1.248 . S
O155 Mg152 1.982 1_545 S
O155 C161 1.261 . S
O156 Mg152 2.117 . S
O156 C162 1.250 . S
C157 O163 1.248 1_565 S
C157 O164 1.264 . S
C158 O144 1.253 . S
C158 O146 1.260 . S
C159 O148 1.279 . S
C159 O149 1.250 . S
C160 O150 1.264 . S
C160 O154 1.248 . S
C161 O151 1.260 . S
C161 O155 1.261 . S
C162 O153 1.279 . S
C162 O156 1.250 . S
O163 Mg145 2.030 . S
O163 C157 1.248 1_545 S
O164 Mg147 2.079 1_565 S
O164 C157 1.264 . S
O165 Mg166 1.990 . S
O165 C179 1.253 . S
Mg166 O165 1.990 . S
Mg166 O169 2.180 . S
Mg166 O170 2.117 . S
Mg166 O184 2.030 . S
O167 Mg168 2.072 . S
O167 C179 1.260 . S
Mg168 O167 2.072 . S
Mg168 O169 2.099 . S
Mg168 O171 2.079 1_554 S
Mg168 O172 2.072 1_554 S
Mg168 O174 2.099 . S
Mg168 O185 2.079 . S
O169 Mg166 2.180 . S
O169 Mg168 2.099 . S
O169 C180 1.279 . S
O170 Mg166 2.117 . S
O170 C180 1.250 . S
O171 Mg168 2.079 1_556 S
O171 C181 1.264 . S
O172 Mg168 2.072 1_556 S
O172 C182 1.260 . S
Mg173 O174 2.180 1_556 S
Mg173 O175 2.030 . S
Mg173 O176 1.990 . S
Mg173 O177 2.117 . S
O174 Mg168 2.099 . S
O174 Mg173 2.180 1_554 S
O174 C183 1.279 . S
O175 Mg173 2.030 . S
O175 C181 1.248 . S
O176 Mg173 1.990 . S
O176 C182 1.253 . S
O177 Mg173 2.117 . S
O177 C183 1.250 1_556 S
C178 O184 1.248 . S
C178 O185 1.264 . S
C179 O165 1.253 . S
C179 O167 1.260 . S
C180 O169 1.279 . S
C180 O170 1.250 . S
C181 O171 1.264 . S
C181 O175 1.248 . S
C182 O172 1.260 . S
C182 O176 1.253 . S
C183 O174 1.279 . S
C183 O177 1.250 1_554 S
O184 Mg166 2.030 . S
O184 C178 1.248 . S
O185 Mg168 2.079 . S
O185 C178 1.264 . S
H186 C192 0.930 . S
H187 C195 0.930 . S
H188 C196 0.930 . S
H189 C197 0.930 . S
H190 C200 0.930 . S
H191 C201 0.930 . S
C192 H186 0.930 . S
C192 C193 1.355 . S
C192 C194 1.415 . S
C193 C192 1.355 . S
C193 C195 1.419 . S
C194 C192 1.415 . S
C194 C199 1.425 . S
C194 C201 1.409 . S
C195 H187 0.930 . S
C195 C193 1.419 . S
C195 C196 1.362 . S
C196 H188 0.930 . S
C196 C195 1.362 . S
C196 C199 1.409 . S
C197 H189 0.930 . S
C197 C198 1.355 . S
C197 C199 1.415 . S
C198 C197 1.355 . S
C198 C200 1.419 . S
C199 C194 1.425 . S
C199 C196 1.409 . S
C199 C197 1.415 . S
C200 H190 0.930 . S
C200 C198 1.419 . S
C200 C201 1.362 . S
C201 H191 0.930 . S
C201 C194 1.409 . S
C201 C200 1.362 . S
H202 C208 0.930 . S
H203 C211 0.930 . S
H204 C212 0.930 . S
H205 C213 0.930 . S
H206 C216 0.930 . S
H207 C217 0.930 . S
C208 H202 0.930 . S
C208 C209 1.355 . S
C208 C210 1.415 . S
C209 C208 1.355 . S
C209 C211 1.419 . S
C210 C208 1.415 . S
C210 C215 1.425 . S
C210 C217 1.409 . S
C211 H203 0.930 . S
C211 C209 1.419 . S
C211 C212 1.362 . S
C212 H204 0.930 . S
C212 C211 1.362 . S
C212 C215 1.409 . S
C213 H205 0.930 . S
C213 C214 1.355 . S
C213 C215 1.415 . S
C214 C213 1.355 . S
C214 C216 1.419 . S
C215 C210 1.425 . S
C215 C212 1.409 . S
C215 C213 1.415 . S
C216 H206 0.930 . S
C216 C214 1.419 . S
C216 C217 1.362 . S
C217 H207 0.930 . S
C217 C210 1.409 . S
C217 C216 1.362 . S
H218 C224 0.930 . S
H219 C227 0.930 . S
H220 C228 0.930 . S
H221 C229 0.930 . S
H222 C232 0.930 . S
H223 C233 0.930 . S
C224 H218 0.930 . S
C224 C225 1.355 . S
C224 C226 1.415 . S
C225 C224 1.355 . S
C225 C227 1.419 . S
C226 C224 1.415 . S
C226 C231 1.425 . S
C226 C233 1.409 . S
C227 H219 0.930 . S
C227 C225 1.419 . S
C227 C228 1.362 . S
C228 H220 0.930 . S
C228 C227 1.362 . S
C228 C231 1.409 . S
C229 H221 0.930 . S
C229 C230 1.355 . S
C229 C231 1.415 . S
C230 C229 1.355 . S
C230 C232 1.419 . S
C231 C226 1.425 . S
C231 C228 1.409 . S
C231 C229 1.415 . S
C232 H222 0.930 . S
C232 C230 1.419 . S
C232 C233 1.362 . S
C233 H223 0.930 . S
C233 C226 1.409 . S
C233 C232 1.362 . S
H234 C240 0.930 . S
H235 C243 0.930 . S
H236 C244 0.930 . S
H237 C245 0.930 . S
H238 C248 0.930 . S
H239 C249 0.930 1_556 S
C240 H234 0.930 . S
C240 C241 1.356 . S
C240 C242 1.415 1_556 S
C241 C240 1.356 . S
C241 C243 1.415 1_556 S
C242 C240 1.415 1_554 S
C242 C247 1.425 . S
C242 C249 1.409 . S
C243 H235 0.930 . S
C243 C241 1.415 1_554 S
C243 C244 1.362 . S
C244 H236 0.930 . S
C244 C243 1.362 . S
C244 C247 1.409 . S
C245 H237 0.930 . S
C245 C246 1.355 . S
C245 C247 1.415 . S
C246 C245 1.355 . S
C246 C248 1.419 . S
C247 C242 1.425 . S
C247 C244 1.409 . S
C247 C245 1.415 . S
C248 H238 0.930 . S
C248 C246 1.419 . S
C248 C249 1.362 . S
C249 H239 0.930 1_554 S
C249 C242 1.409 . S
C249 C248 1.362 . S
H250 C256 0.930 . S
H251 C259 0.930 . S
H252 C260 0.930 . S
H253 C261 0.930 . S
H254 C264 0.930 . S
H255 C265 0.930 . S
C256 H250 0.930 . S
C256 C257 1.355 . S
C256 C258 1.415 . S
C257 C256 1.355 . S
C257 C259 1.419 . S
C258 C256 1.415 . S
C258 C263 1.425 . S
C258 C265 1.409 . S
C259 H251 0.930 . S
C259 C257 1.419 . S
C259 C260 1.362 . S
C260 H252 0.930 . S
C260 C259 1.362 . S
C260 C263 1.409 . S
C261 H253 0.930 . S
C261 C262 1.355 . S
C261 C263 1.415 . S
C262 C261 1.355 . S
C262 C264 1.419 . S
C263 C258 1.425 . S
C263 C260 1.409 . S
C263 C261 1.415 . S
C264 H254 0.930 . S
C264 C262 1.419 . S
C264 C265 1.362 . S
C265 H255 0.930 . S
C265 C258 1.409 . S
C265 C264 1.362 . S
H266 C272 0.930 . S
H267 C275 0.930 . S
H268 C276 0.930 . S
H269 C277 0.930 . S
H270 C280 0.930 . S
H271 C281 0.930 . S
C272 H266 0.930 . S
C272 C273 1.355 . S
C272 C274 1.415 . S
C273 C272 1.355 . S
C273 C275 1.419 . S
C274 C272 1.415 . S
C274 C279 1.425 . S
C274 C281 1.409 . S
C275 H267 0.930 . S
C275 C273 1.419 . S
C275 C276 1.362 . S
C276 H268 0.930 . S
C276 C275 1.362 . S
C276 C279 1.409 . S
C277 H269 0.930 . S
C277 C278 1.355 . S
C277 C279 1.415 . S
C278 C277 1.355 . S
C278 C280 1.419 . S
C279 C274 1.425 . S
C279 C276 1.409 . S
C279 C277 1.415 . S
C280 H270 0.930 . S
C280 C278 1.419 . S
C280 C281 1.362 . S
C281 H271 0.930 . S
C281 C274 1.409 . S
C281 C280 1.362 . S
H282 C288 0.930 . S
H283 C291 0.930 . S
H284 C292 0.930 . S
H285 C293 0.930 . S
H286 C296 0.930 . S
H287 C297 0.930 . S
C288 H282 0.930 . S
C288 C289 1.355 . S
C288 C290 1.415 . S
C289 C288 1.355 . S
C289 C291 1.419 . S
C290 C288 1.415 . S
C290 C295 1.425 . S
C290 C297 1.409 . S
C291 H283 0.930 . S
C291 C289 1.419 . S
C291 C292 1.362 . S
C292 H284 0.930 . S
C292 C291 1.362 . S
C292 C295 1.409 . S
C293 H285 0.930 . S
C293 C294 1.355 . S
C293 C295 1.415 . S
C294 C293 1.355 . S
C294 C296 1.419 . S
C295 C290 1.425 . S
C295 C292 1.409 . S
C295 C293 1.415 . S
C296 H286 0.930 . S
C296 C294 1.419 . S
C296 C297 1.362 . S
C297 H287 0.930 . S
C297 C290 1.409 . S
C297 C296 1.362 . S
H298 C304 0.930 . S
H299 C307 0.930 . S
H300 C308 0.930 . S
H301 C309 0.930 . S
H302 C312 0.930 . S
H303 C313 0.930 . S
C304 H298 0.930 . S
C304 C305 1.355 . S
C304 C306 1.415 . S
C305 C304 1.355 . S
C305 C307 1.419 . S
C306 C304 1.415 . S
C306 C311 1.425 . S
C306 C313 1.409 . S
C307 H299 0.930 . S
C307 C305 1.419 . S
C307 C308 1.362 . S
C308 H300 0.930 . S
C308 C307 1.362 . S
C308 C311 1.409 . S
C309 H301 0.930 . S
C309 C310 1.355 . S
C309 C311 1.415 . S
C310 C309 1.355 . S
C310 C312 1.419 . S
C311 C306 1.425 . S
C311 C308 1.409 . S
C311 C309 1.415 . S
C312 H302 0.930 . S
C312 C310 1.419 . S
C312 C313 1.362 . S
C313 H303 0.930 . S
C313 C306 1.409 . S
C313 C312 1.362 . S
H314 C320 0.930 . S
H315 C323 0.930 . S
H316 C324 0.930 . S
H317 C325 0.930 . S
H318 C328 0.930 . S
H319 C329 0.930 . S
C320 H314 0.930 . S
C320 C321 1.355 . S
C320 C322 1.415 . S
C321 C320 1.355 . S
C321 C323 1.419 . S
C322 C320 1.415 . S
C322 C327 1.425 . S
C322 C329 1.409 . S
C323 H315 0.930 . S
C323 C321 1.419 . S
C323 C324 1.362 . S
C324 H316 0.930 . S
C324 C323 1.362 . S
C324 C327 1.409 . S
C325 H317 0.930 . S
C325 C326 1.355 . S
C325 C327 1.415 . S
C326 C325 1.355 . S
C326 C328 1.419 . S
C327 C322 1.425 . S
C327 C324 1.409 . S
C327 C325 1.415 . S
C328 H318 0.930 . S
C328 C326 1.419 . S
C328 C329 1.362 . S
C329 H319 0.930 . S
C329 C322 1.409 . S
C329 C328 1.362 . S
H330 C336 0.930 . S
H331 C339 0.930 . S
H332 C340 0.930 . S
H333 C341 0.930 . S
H334 C344 0.930 1_565 S
H335 C345 0.930 1_565 S
C336 H330 0.930 . S
C336 C337 1.355 . S
C336 C338 1.415 . S
C337 C336 1.355 . S
C337 C339 1.419 . S
C338 C336 1.415 . S
C338 C343 1.425 . S
C338 C345 1.409 . S
C339 H331 0.930 . S
C339 C337 1.419 . S
C339 C340 1.362 . S
C340 H332 0.930 . S
C340 C339 1.362 . S
C340 C343 1.409 . S
C341 H333 0.930 . S
C341 C342 1.355 . S
C341 C343 1.415 . S
C342 C341 1.355 . S
C342 C344 1.419 . S
C343 C338 1.425 . S
C343 C340 1.409 . S
C343 C341 1.415 . S
C344 H334 0.930 1_545 S
C344 C342 1.419 . S
C344 C345 1.362 . S
C345 H335 0.930 1_545 S
C345 C338 1.409 . S
C345 C344 1.362 . S
H346 C352 0.930 . S
H347 C355 0.930 . S
H348 C356 0.930 . S
H349 C357 0.930 . S
H350 C360 0.930 . S
H351 C361 0.930 . S
C352 H346 0.930 . S
C352 C353 1.355 . S
C352 C354 1.415 . S
C353 C352 1.355 . S
C353 C355 1.419 . S
C354 C352 1.415 . S
C354 C359 1.425 . S
C354 C361 1.409 . S
C355 H347 0.930 . S
C355 C353 1.419 . S
C355 C356 1.362 . S
C356 H348 0.930 . S
C356 C355 1.362 . S
C356 C359 1.409 . S
C357 H349 0.930 . S
C357 C358 1.355 . S
C357 C359 1.415 . S
C358 C357 1.355 . S
C358 C360 1.419 . S
C359 C354 1.425 . S
C359 C356 1.409 . S
C359 C357 1.415 . S
C360 H350 0.930 . S
C360 C358 1.419 . S
C360 C361 1.362 . S
C361 H351 0.930 . S
C361 C354 1.409 . S
C361 C360 1.362 . S
H362 C368 0.930 . S
H363 C371 0.930 . S
H364 C372 0.930 1_545 S
H365 C373 0.923 1_545 S
H366 C376 0.930 . S
H367 C377 0.930 . S
C368 H362 0.930 . S
C368 C369 1.355 . S
C368 C370 1.415 . S
C369 C368 1.355 . S
C369 C371 1.419 . S
C370 C368 1.415 . S
C370 C375 1.425 . S
C370 C377 1.409 . S
C371 H363 0.930 . S
C371 C369 1.419 . S
C371 C372 1.362 . S
C372 H364 0.930 1_565 S
C372 C371 1.362 . S
C372 C375 1.409 . S
C373 H365 0.923 1_565 S
C373 C374 1.355 . S
C373 C375 1.415 . S
C374 C373 1.355 . S
C374 C376 1.419 . S
C375 C370 1.425 . S
C375 C372 1.409 . S
C375 C373 1.415 . S
C376 H366 0.930 . S
C376 C374 1.419 . S
C376 C377 1.362 . S
C377 H367 0.930 . S
C377 C370 1.409 . S
C377 C376 1.362 . S
C198 C159 1.353 . S
C193 C133 1.481 . S
C209 C25 1.570 . S
C214 C183 1.377 . S
C225 C61 1.665 . S
C230 C162 1.486 . S
C241 C97 1.647 . S
C246 C180 1.508 . S
C262 C160 1.611 . S
C257 C1 1.651 . S
C278 C182 1.566 . S
C273 C67 1.633 . S
C289 C103 1.537 . S
C294 C161 1.485 . S
C305 C109 1.566 . S
C310 C181 1.496 . S
C326 C179 1.495 . S
C321 C37 1.599 . S
C342 C158 1.618 . S
C337 C73 1.575 . S
C358 C178 1.616 . S
C353 C139 1.611 . S
C369 C31 1.633 . S
C374 C157 1.539 . S
