# Generated by pormake.
# Topology pyr, (3,6)-cn, num edge types: 1
# Building blocks:
#     Node 0, Type 0, BuildingBlock: VETTIZ_charged_linker_0, # of connection points: 3
#     Node 1, Type 0, BuildingBlock: VETTIZ_charged_linker_0, # of connection points: 3
#     Node 2, Type 0, BuildingBlock: VETTIZ_charged_linker_0, # of connection points: 3
#     Node 3, Type 0, BuildingBlock: VETTIZ_charged_linker_0, # of connection points: 3
#     Node 4, Type 0, BuildingBlock: VETTIZ_charged_linker_0, # of connection points: 3
#     Node 5, Type 0, BuildingBlock: VETTIZ_charged_linker_0, # of connection points: 3
#     Node 6, Type 0, BuildingBlock: VETTIZ_charged_linker_0, # of connection points: 3
#     Node 7, Type 0, BuildingBlock: VETTIZ_charged_linker_0, # of connection points: 3
#     Node 8, Type 1, BuildingBlock: PAMTOO_clean_sbu_0, # of connection points: 6
#     Node 9, Type 1, BuildingBlock: PAMTOO_clean_sbu_0, # of connection points: 6
#     Node 10, Type 1, BuildingBlock: PAMTOO_clean_sbu_0, # of connection points: 6
#     Node 11, Type 1, BuildingBlock: PAMTOO_clean_sbu_0, # of connection points: 6
#     Edge 12, Type (0, 1), BuildingBlock: UVAHIK_clean_linker_0, # of connection points: 2
#     Edge 13, Type (0, 1), BuildingBlock: UVAHIK_clean_linker_0, # of connection points: 2
#     Edge 14, Type (0, 1), BuildingBlock: UVAHIK_clean_linker_0, # of connection points: 2
#     Edge 15, Type (0, 1), BuildingBlock: UVAHIK_clean_linker_0, # of connection points: 2
#     Edge 16, Type (0, 1), BuildingBlock: UVAHIK_clean_linker_0, # of connection points: 2
#     Edge 17, Type (0, 1), BuildingBlock: UVAHIK_clean_linker_0, # of connection points: 2
#     Edge 18, Type (0, 1), BuildingBlock: UVAHIK_clean_linker_0, # of connection points: 2
#     Edge 19, Type (0, 1), BuildingBlock: UVAHIK_clean_linker_0, # of connection points: 2
#     Edge 20, Type (0, 1), BuildingBlock: UVAHIK_clean_linker_0, # of connection points: 2
#     Edge 21, Type (0, 1), BuildingBlock: UVAHIK_clean_linker_0, # of connection points: 2
#     Edge 22, Type (0, 1), BuildingBlock: UVAHIK_clean_linker_0, # of connection points: 2
#     Edge 23, Type (0, 1), BuildingBlock: UVAHIK_clean_linker_0, # of connection points: 2
#     Edge 24, Type (0, 1), BuildingBlock: UVAHIK_clean_linker_0, # of connection points: 2
#     Edge 25, Type (0, 1), BuildingBlock: UVAHIK_clean_linker_0, # of connection points: 2
#     Edge 26, Type (0, 1), BuildingBlock: UVAHIK_clean_linker_0, # of connection points: 2
#     Edge 27, Type (0, 1), BuildingBlock: UVAHIK_clean_linker_0, # of connection points: 2
#     Edge 28, Type (0, 1), BuildingBlock: UVAHIK_clean_linker_0, # of connection points: 2
#     Edge 29, Type (0, 1), BuildingBlock: UVAHIK_clean_linker_0, # of connection points: 2
#     Edge 30, Type (0, 1), BuildingBlock: UVAHIK_clean_linker_0, # of connection points: 2
#     Edge 31, Type (0, 1), BuildingBlock: UVAHIK_clean_linker_0, # of connection points: 2
#     Edge 32, Type (0, 1), BuildingBlock: UVAHIK_clean_linker_0, # of connection points: 2
#     Edge 33, Type (0, 1), BuildingBlock: UVAHIK_clean_linker_0, # of connection points: 2
#     Edge 34, Type (0, 1), BuildingBlock: UVAHIK_clean_linker_0, # of connection points: 2
#     Edge 35, Type (0, 1), BuildingBlock: UVAHIK_clean_linker_0, # of connection points: 2
# Relax obj value: 0.072
# Max RMSD: 0.146
# Mean RMSD: 0.065
data_MOF--net-pyr--node1-PAMTOO_clean_sbu_0--node2-VETTIZ_charged_linker_0--edge1-UVAHIK_clean_linker_0
_symmetry_space_group_name_H-M    P1
_symmetry_Int_Tables_number       1
_symmetry_cell_setting            triclinic
loop_
_symmetry_equiv_pos_as_xyz
'x, y, z'
_cell_length_a     55.773274
_cell_length_b     58.171566
_cell_length_c     58.445593
_cell_angle_alpha  89.969415
_cell_angle_beta   89.929367
_cell_angle_gamma 100.9516
loop_
_atom_site_label
_atom_site_type_symbol
_atom_site_fract_x
_atom_site_fract_y
_atom_site_fract_z
_atom_type_partial_charge
C0 C 0.29329 0.22168 0.29029 0.0
C1 C 0.27326 0.22734 0.30226 0.0
C2 C 0.26087 0.24411 0.29282 0.0
C3 C 0.28641 0.24709 0.25901 0.0
C4 C 0.29943 0.23164 0.26872 0.0
C5 C 0.31881 0.22602 0.25286 0.0
H6 H 0.36339 0.22663 0.14548 0.0
C7 C 0.29564 0.25232 0.23554 0.0
C8 C 0.31484 0.24028 0.23186 0.0
H9 H 0.38629 0.19325 0.20558 0.0
H10 H 0.36011 0.21194 0.22921 0.0
H11 H 0.36459 0.27692 0.16986 0.0
H12 H 0.30617 0.21825 0.15748 0.0
H13 H 0.2966 0.2442 0.14918 0.0
H14 H 0.32229 0.23596 0.13507 0.0
H15 H 0.35052 0.27184 0.14227 0.0
H16 H 0.3383 0.28841 0.16408 0.0
C17 C 0.34412 0.23489 0.2639 0.0
C18 C 0.31299 0.19933 0.24809 0.0
C19 C 0.24962 0.29732 0.1824 0.0
C20 C 0.25211 0.30327 0.15913 0.0
C21 C 0.2722 0.29818 0.1468 0.0
C22 C 0.28892 0.2863 0.15734 0.0
C23 C 0.28547 0.27947 0.1804 0.0
C24 C 0.26643 0.28558 0.19264 0.0
C25 C 0.26563 0.27725 0.21699 0.0
C26 C 0.28724 0.26491 0.21738 0.0
C27 C 0.29858 0.26593 0.19584 0.0
C28 C 0.26963 0.29898 0.23288 0.0
C29 C 0.24102 0.26003 0.22063 0.0
C30 C 0.36276 0.22344 0.16375 0.0
C31 C 0.37661 0.20821 0.17366 0.0
C32 C 0.37581 0.20492 0.19756 0.0
C33 C 0.36041 0.21559 0.21122 0.0
C34 C 0.34552 0.22956 0.20088 0.0
C35 C 0.34748 0.23399 0.17765 0.0
C36 C 0.33082 0.24994 0.1698 0.0
C37 C 0.31792 0.25365 0.19202 0.0
C38 C 0.32633 0.24132 0.21007 0.0
C39 C 0.34671 0.27297 0.16086 0.0
C40 C 0.31303 0.2366 0.15184 0.0
H41 H 0.25686 0.26627 0.26496 0.0
H42 H 0.3035 0.2092 0.2972 0.0
H43 H 0.29309 0.1933 0.24509 0.0
H44 H 0.32199 0.19419 0.23264 0.0
H45 H 0.31824 0.18934 0.26286 0.0
H46 H 0.34382 0.25019 0.27523 0.0
H47 H 0.34992 0.22102 0.27444 0.0
H48 H 0.35843 0.24131 0.25106 0.0
H49 H 0.2346 0.30142 0.19239 0.0
H50 H 0.27448 0.30272 0.12885 0.0
H51 H 0.30355 0.2824 0.147 0.0
H52 H 0.2816 0.31422 0.22461 0.0
H53 H 0.25205 0.30431 0.23711 0.0
H54 H 0.27919 0.29616 0.24891 0.0
H55 H 0.23584 0.24924 0.20506 0.0
H56 H 0.24163 0.24718 0.23438 0.0
H57 H 0.22602 0.26962 0.22432 0.0
H58 H 0.24525 0.24871 0.30144 0.0
C59 C 0.26746 0.25412 0.27141 0.0
C60 C 0.15082 0.80507 0.66396 0.0
C61 C 0.14259 0.82349 0.67521 0.0
C62 C 0.14948 0.82859 0.69809 0.0
C63 C 0.17345 0.79801 0.6979 0.0
C64 C 0.16632 0.79267 0.67558 0.0
C65 C 0.1781 0.77356 0.66583 0.0
H66 H 0.25975 0.70201 0.67873 0.0
C67 C 0.19045 0.78267 0.70474 0.0
C68 C 0.19317 0.76816 0.68609 0.0
H69 H 0.21808 0.71141 0.61827 0.0
H70 H 0.19711 0.73766 0.63913 0.0
H71 H 0.27211 0.75458 0.69191 0.0
H72 H 0.21524 0.69877 0.71492 0.0
H73 H 0.22445 0.71628 0.73898 0.0
H74 H 0.24615 0.70174 0.72469 0.0
H75 H 0.27778 0.73129 0.71004 0.0
H76 H 0.26985 0.75749 0.72166 0.0
C77 C 0.19434 0.78387 0.64534 0.0
C78 C 0.15772 0.75253 0.65964 0.0
C79 C 0.23278 0.7945 0.7819 0.0
C80 C 0.25053 0.78384 0.79247 0.0
C81 C 0.25732 0.76423 0.78194 0.0
C82 C 0.24751 0.75609 0.76075 0.0
C83 C 0.23082 0.76775 0.74983 0.0
C84 C 0.2232 0.78618 0.7607 0.0
C85 C 0.20518 0.7963 0.7466 0.0
C86 C 0.2037 0.78124 0.72525 0.0
C87 C 0.21897 0.76477 0.72715 0.0
C88 C 0.21641 0.8223 0.74153 0.0
C89 C 0.18058 0.79248 0.75974 0.0
C90 C 0.24571 0.70925 0.67007 0.0
C91 C 0.24053 0.70457 0.64683 0.0
C92 C 0.22254 0.7149 0.63612 0.0
C93 C 0.21041 0.73013 0.64826 0.0
C94 C 0.21656 0.73533 0.67127 0.0
C95 C 0.23369 0.72462 0.68184 0.0
C96 C 0.23869 0.73268 0.70606 0.0
C97 C 0.22189 0.75019 0.70831 0.0
C98 C 0.209 0.75177 0.68791 0.0
C99 C 0.26601 0.74452 0.70775 0.0
C100 C 0.23095 0.71135 0.72213 0.0
H101 H 0.16944 0.82077 0.72686 0.0
H102 H 0.146 0.80096 0.64628 0.0
H103 H 0.14313 0.74991 0.67292 0.0
H104 H 0.16429 0.7358 0.65891 0.0
H105 H 0.14912 0.75544 0.64302 0.0
H106 H 0.20274 0.80254 0.64844 0.0
H107 H 0.1835 0.78309 0.62934 0.0
H108 H 0.20998 0.7751 0.64249 0.0
H109 H 0.22725 0.80969 0.78941 0.0
H110 H 0.27059 0.75541 0.78992 0.0
H111 H 0.25381 0.74141 0.75342 0.0
H112 H 0.23641 0.82454 0.73844 0.0
H113 H 0.21365 0.83371 0.75615 0.0
H114 H 0.2091 0.82903 0.72589 0.0
H115 H 0.17797 0.77618 0.77017 0.0
H116 H 0.16459 0.79001 0.74821 0.0
H117 H 0.17975 0.80726 0.77156 0.0
H118 H 0.14313 0.84257 0.70712 0.0
C119 C 0.16471 0.81588 0.70953 0.0
C120 C 0.62371 0.27843 0.87433 0.0
C121 C 0.60294 0.2637 0.86537 0.0
C122 C 0.59141 0.2715 0.8461 0.0
C123 C 0.62178 0.30764 0.84489 0.0
C124 C 0.63275 0.30001 0.86391 0.0
C125 C 0.6549 0.31713 0.87146 0.0
H126 H 0.73572 0.41817 0.8565 0.0
C127 C 0.63629 0.3309 0.83819 0.0
C128 C 0.6557 0.33635 0.85381 0.0
H129 H 0.73416 0.36566 0.90924 0.0
H130 H 0.69755 0.34319 0.89336 0.0
H131 H 0.67723 0.41807 0.85845 0.0
H132 H 0.72057 0.38232 0.81496 0.0
H133 H 0.69873 0.39193 0.79762 0.0
H134 H 0.72099 0.41316 0.8126 0.0
H135 H 0.69684 0.43292 0.83653 0.0
H136 H 0.66582 0.41875 0.83052 0.0
C137 C 0.64997 0.32564 0.89589 0.0
C138 C 0.67729 0.30495 0.86951 0.0
C139 C 0.61219 0.37583 0.76924 0.0
C140 C 0.62252 0.39761 0.75928 0.0
C141 C 0.64406 0.4106 0.76898 0.0
C142 C 0.65491 0.4024 0.78819 0.0
C143 C 0.6443 0.38083 0.79803 0.0
C144 C 0.62334 0.36783 0.78854 0.0
C145 C 0.61485 0.34518 0.80137 0.0
C146 C 0.63403 0.34689 0.82014 0.0
C147 C 0.65127 0.36789 0.81803 0.0
C148 C 0.58914 0.34535 0.81122 0.0
C149 C 0.61586 0.32463 0.78484 0.0
C150 C 0.72736 0.4019 0.86467 0.0
C151 C 0.73821 0.39357 0.88401 0.0
C152 C 0.72665 0.37227 0.89405 0.0
C153 C 0.70519 0.35925 0.88485 0.0
C154 C 0.69485 0.36745 0.86531 0.0
C155 C 0.70574 0.38853 0.85561 0.0
C156 C 0.69179 0.39438 0.83498 0.0
C157 C 0.67093 0.37324 0.83389 0.0
C158 C 0.67297 0.35758 0.85169 0.0
C159 C 0.68249 0.4173 0.84014 0.0
C160 C 0.7088 0.39572 0.81385 0.0
H161 H 0.59124 0.29819 0.82115 0.0
H162 H 0.63281 0.27339 0.88937 0.0
H163 H 0.67528 0.29263 0.85477 0.0
H164 H 0.69456 0.3173 0.86613 0.0
H165 H 0.67941 0.29471 0.88518 0.0
H166 H 0.63025 0.32592 0.89842 0.0
H167 H 0.65537 0.31395 0.90917 0.0
H168 H 0.65932 0.34384 0.89925 0.0
H169 H 0.59561 0.36537 0.7624 0.0
H170 H 0.65283 0.42712 0.76152 0.0
H171 H 0.67125 0.41322 0.7946 0.0
H172 H 0.58811 0.36294 0.81817 0.0
H173 H 0.57494 0.34106 0.79778 0.0
H174 H 0.5844 0.33312 0.82567 0.0
H175 H 0.63252 0.32849 0.77394 0.0
H176 H 0.617 0.30819 0.79382 0.0
H177 H 0.59974 0.3215 0.77333 0.0
H178 H 0.57543 0.26054 0.83872 0.0
C179 C 0.60072 0.29333 0.83582 0.0
C180 C 0.89897 0.7451 0.35743 0.0
C181 C 0.8901 0.75594 0.37646 0.0
C182 C 0.86952 0.74372 0.38826 0.0
C183 C 0.86627 0.71115 0.36194 0.0
C184 C 0.88669 0.72274 0.35042 0.0
C185 C 0.89294 0.70861 0.3303 0.0
H186 H 0.86414 0.61043 0.26449 0.0
C187 C 0.8573 0.6886 0.35028 0.0
C188 C 0.87278 0.68686 0.33165 0.0
H189 H 0.9255 0.66777 0.25645 0.0
H190 H 0.91235 0.68694 0.28952 0.0
H191 H 0.86894 0.60664 0.31963 0.0
H192 H 0.82441 0.64197 0.27683 0.0
H193 H 0.8061 0.62841 0.29937 0.0
H194 H 0.8192 0.61065 0.2794 0.0
H195 H 0.84386 0.59105 0.3032 0.0
H196 H 0.83939 0.60209 0.3314 0.0
C197 C 0.91848 0.70271 0.33454 0.0
C198 C 0.89115 0.72284 0.30822 0.0
C199 C 0.7808 0.6358 0.38057 0.0
C200 C 0.76699 0.6142 0.37347 0.0
C201 C 0.77509 0.60303 0.35428 0.0
C202 C 0.79629 0.61337 0.34227 0.0
C203 C 0.80967 0.63516 0.34947 0.0
C204 C 0.80182 0.64588 0.3684 0.0
C205 C 0.81797 0.66899 0.37365 0.0
C206 C 0.83688 0.6705 0.35476 0.0
C207 C 0.83203 0.65068 0.3406 0.0
C208 C 0.82936 0.6672 0.39764 0.0
C209 C 0.80239 0.68834 0.37138 0.0
C210 C 0.87495 0.62699 0.26992 0.0
C211 C 0.89592 0.6375 0.25758 0.0
C212 C 0.90908 0.65933 0.26526 0.0
C213 C 0.9015 0.67042 0.28462 0.0
C214 C 0.88048 0.65969 0.29665 0.0
C215 C 0.86766 0.63827 0.28925 0.0
C216 C 0.84585 0.62929 0.30414 0.0
C217 C 0.84765 0.64878 0.3217 0.0
C218 C 0.86796 0.66669 0.31724 0.0
C219 C 0.84943 0.60596 0.31514 0.0
C220 C 0.82256 0.62726 0.28928 0.0
H221 H 0.84209 0.71342 0.39098 0.0
H222 H 0.91475 0.75398 0.34798 0.0
H223 H 0.87502 0.73151 0.30894 0.0
H224 H 0.88853 0.71187 0.29271 0.0
H225 H 0.90766 0.73672 0.30595 0.0
H226 H 0.92084 0.69866 0.35292 0.0
H227 H 0.93316 0.71769 0.32983 0.0
H228 H 0.92136 0.68698 0.3252 0.0
H229 H 0.77546 0.64475 0.39543 0.0
H230 H 0.76476 0.58648 0.34825 0.0
H231 H 0.80134 0.60409 0.32771 0.0
H232 H 0.83267 0.6492 0.40086 0.0
H233 H 0.81709 0.67135 0.41139 0.0
H234 H 0.8475 0.6786 0.39953 0.0
H235 H 0.78804 0.68373 0.35806 0.0
H236 H 0.81311 0.70534 0.3657 0.0
H237 H 0.79305 0.69085 0.38773 0.0
H238 H 0.86259 0.75131 0.40323 0.0
C239 C 0.85765 0.72154 0.38117 0.0
C240 C 0.74239 0.72449 0.87626 0.0
C241 C 0.76265 0.71749 0.86596 0.0
C242 C 0.76667 0.72111 0.84233 0.0
C243 C 0.73204 0.74047 0.83996 0.0
C244 C 0.72741 0.73608 0.86295 0.0
C245 C 0.7062 0.74644 0.87131 0.0
H246 H 0.62749 0.81946 0.85156 0.0
C247 C 0.71451 0.7545 0.83139 0.0
C248 C 0.69911 0.75791 0.84958 0.0
H249 H 0.63756 0.78302 0.9143 0.0
H250 H 0.6656 0.76251 0.89507 0.0
H251 H 0.62495 0.7743 0.8183 0.0
H252 H 0.68265 0.83117 0.83742 0.0
H253 H 0.68448 0.82723 0.80772 0.0
H254 H 0.65739 0.83492 0.81971 0.0
H255 H 0.62753 0.80298 0.80613 0.0
H256 H 0.6432 0.78142 0.79386 0.0
C257 C 0.68577 0.7262 0.8794 0.0
C258 C 0.71578 0.76465 0.8901 0.0
C259 C 0.7256 0.7889 0.75143 0.0
C260 C 0.71386 0.80448 0.7393 0.0
C261 C 0.69282 0.81085 0.74886 0.0
C262 C 0.68437 0.80279 0.77057 0.0
C263 C 0.69718 0.78831 0.78299 0.0
C264 C 0.71698 0.78107 0.7731 0.0
C265 C 0.72839 0.76572 0.78876 0.0
C266 C 0.71241 0.76524 0.80986 0.0
C267 C 0.69438 0.77874 0.80649 0.0
C268 C 0.72575 0.7412 0.77759 0.0
C269 C 0.75513 0.77816 0.79336 0.0
C270 C 0.63529 0.8067 0.86109 0.0
C271 C 0.63045 0.80307 0.88456 0.0
C272 C 0.64131 0.78648 0.89631 0.0
C273 C 0.65759 0.77459 0.88512 0.0
C274 C 0.66329 0.77946 0.86198 0.0
C275 C 0.65167 0.7948 0.85021 0.0
C276 C 0.65999 0.79799 0.82576 0.0
C277 C 0.67883 0.78234 0.82486 0.0
C278 C 0.68093 0.77173 0.84619 0.0
C279 C 0.63785 0.7889 0.81005 0.0
C280 C 0.67164 0.82416 0.82223 0.0
H281 H 0.75573 0.73494 0.81146 0.0
H282 H 0.73896 0.72196 0.89442 0.0
H283 H 0.73409 0.77484 0.88541 0.0
H284 H 0.70424 0.77786 0.89255 0.0
H285 H 0.71759 0.75593 0.90675 0.0
H286 H 0.68526 0.71034 0.86864 0.0
H287 H 0.68872 0.72126 0.8974 0.0
H288 H 0.66734 0.73042 0.87778 0.0
H289 H 0.74194 0.78379 0.74476 0.0
H290 H 0.68314 0.82248 0.73972 0.0
H291 H 0.6686 0.80868 0.7771 0.0
H292 H 0.70894 0.7371 0.76696 0.0
H293 H 0.74154 0.74016 0.7663 0.0
H294 H 0.72366 0.7269 0.79034 0.0
H295 H 0.75647 0.79746 0.79457 0.0
H296 H 0.7624 0.77318 0.80979 0.0
H297 H 0.76746 0.77473 0.77936 0.0
H298 H 0.78197 0.71552 0.83402 0.0
C299 C 0.7514 0.73238 0.82927 0.0
C300 C 0.86652 0.22755 0.38414 0.0
C301 C 0.87798 0.21078 0.37348 0.0
C302 C 0.87404 0.20635 0.34993 0.0
C303 C 0.84582 0.23323 0.34867 0.0
C304 C 0.85056 0.23851 0.37146 0.0
C305 C 0.83583 0.25578 0.38037 0.0
H306 H 0.74433 0.31546 0.36323 0.0
C307 C 0.82684 0.24601 0.3409 0.0
C308 C 0.82108 0.25951 0.3593 0.0
H309 H 0.78761 0.31416 0.42439 0.0
H310 H 0.81204 0.28985 0.40512 0.0
H311 H 0.73839 0.26297 0.35231 0.0
H312 H 0.79 0.3221 0.32728 0.0
H313 H 0.78117 0.30361 0.30377 0.0
H314 H 0.75851 0.31622 0.31882 0.0
H315 H 0.73028 0.28285 0.33151 0.0
H316 H 0.74266 0.25762 0.32324 0.0
C317 C 0.81939 0.24392 0.40008 0.0
C318 C 0.85369 0.27841 0.38739 0.0
C319 C 0.78689 0.2267 0.26356 0.0
C320 C 0.7664 0.23301 0.25304 0.0
C321 C 0.75594 0.25088 0.26297 0.0
C322 C 0.7648 0.26125 0.28369 0.0
C323 C 0.78416 0.25351 0.29479 0.0
C324 C 0.79528 0.23696 0.28441 0.0
C325 C 0.8151 0.23031 0.29898 0.0
C326 C 0.81369 0.24526 0.32005 0.0
C327 C 0.79546 0.25868 0.31754 0.0
C328 C 0.80794 0.20375 0.30433 0.0
C329 C 0.83975 0.2376 0.28621 0.0
C330 C 0.75937 0.31037 0.3724 0.0
C331 C 0.76404 0.31681 0.39538 0.0
C332 C 0.78346 0.30926 0.40676 0.0
C333 C 0.79766 0.2952 0.39552 0.0
C334 C 0.79227 0.28842 0.37271 0.0
C335 C 0.7736 0.29632 0.36149 0.0
C336 C 0.77003 0.28714 0.33748 0.0
C337 C 0.78975 0.27252 0.33601 0.0
C338 C 0.80262 0.27313 0.35673 0.0
C339 C 0.744 0.27197 0.3358 0.0
C340 C 0.77497 0.30825 0.32082 0.0
H341 H 0.85556 0.21301 0.31977 0.0
H342 H 0.86946 0.23167 0.40211 0.0
H343 H 0.86983 0.28181 0.3758 0.0
H344 H 0.8455 0.29422 0.38601 0.0
H345 H 0.8605 0.27704 0.40509 0.0
H346 H 0.81184 0.22529 0.39591 0.0
H347 H 0.8299 0.24424 0.41625 0.0
H348 H 0.80329 0.25192 0.40323 0.0
H349 H 0.79564 0.21331 0.2562 0.0
H350 H 0.74006 0.25604 0.25537 0.0
H351 H 0.75557 0.27423 0.2907 0.0
H352 H 0.78794 0.19862 0.30737 0.0
H353 H 0.81268 0.19309 0.28985 0.0
H354 H 0.81641 0.19852 0.32004 0.0
H355 H 0.83979 0.25335 0.27538 0.0
H356 H 0.85534 0.24275 0.29799 0.0
H357 H 0.84339 0.22336 0.27483 0.0
H358 H 0.8824 0.19341 0.34127 0.0
C359 C 0.85819 0.21757 0.33748 0.0
C360 C 0.39236 0.65138 0.27766 0.0
C361 C 0.38117 0.63019 0.28822 0.0
C362 C 0.35987 0.61713 0.27813 0.0
C363 C 0.36115 0.64609 0.248 0.0
C364 C 0.3821 0.65893 0.25766 0.0
C365 C 0.3917 0.68093 0.2442 0.0
H366 H 0.37889 0.75064 0.1532 0.0
C367 C 0.3552 0.65859 0.22726 0.0
C368 C 0.37315 0.67907 0.22488 0.0
H369 H 0.436 0.76251 0.20418 0.0
H370 H 0.41762 0.72645 0.22336 0.0
H371 H 0.33501 0.73324 0.18755 0.0
H372 H 0.37995 0.69832 0.14545 0.0
H373 H 0.35114 0.67994 0.14533 0.0
H374 H 0.35452 0.70929 0.13399 0.0
H375 H 0.33253 0.73162 0.15696 0.0
H376 H 0.31545 0.70931 0.17515 0.0
C377 C 0.39093 0.70226 0.25979 0.0
C378 C 0.4175 0.67955 0.23526 0.0
C379 C 0.27923 0.62591 0.1797 0.0
C380 C 0.26964 0.63381 0.15941 0.0
C381 C 0.28269 0.65415 0.14873 0.0
C382 C 0.30419 0.66676 0.15822 0.0
C383 C 0.31324 0.65902 0.17864 0.0
C384 C 0.30106 0.63875 0.18893 0.0
C385 C 0.31416 0.63298 0.21018 0.0
C386 C 0.33586 0.65337 0.21102 0.0
C387 C 0.335 0.66856 0.19253 0.0
C388 C 0.29685 0.63317 0.23087 0.0
C389 C 0.32232 0.60927 0.20624 0.0
C390 C 0.38776 0.74547 0.16832 0.0
C391 C 0.40912 0.75953 0.17696 0.0
C392 C 0.41947 0.75218 0.19712 0.0
C393 C 0.40882 0.73113 0.20819 0.0
C394 C 0.38754 0.71722 0.19907 0.0
C395 C 0.37748 0.72461 0.17943 0.0
C396 C 0.35502 0.70794 0.17183 0.0
C397 C 0.35301 0.68922 0.19015 0.0
C398 C 0.37202 0.69459 0.20617 0.0
C399 C 0.33328 0.72107 0.1727 0.0
C400 C 0.36017 0.69841 0.14786 0.0
H401 H 0.33365 0.61412 0.25153 0.0
H402 H 0.4086 0.66203 0.28491 0.0
H403 H 0.41819 0.66149 0.22939 0.0
H404 H 0.42294 0.69087 0.22026 0.0
H405 H 0.43141 0.68423 0.2489 0.0
H406 H 0.37394 0.69932 0.27026 0.0
H407 H 0.40671 0.70536 0.27171 0.0
H408 H 0.39064 0.71847 0.25007 0.0
H409 H 0.26986 0.61033 0.18839 0.0
H410 H 0.27642 0.66036 0.13276 0.0
H411 H 0.31291 0.68212 0.14918 0.0
H412 H 0.28692 0.64799 0.22948 0.0
H413 H 0.28302 0.6167 0.23168 0.0
H414 H 0.30658 0.63574 0.24736 0.0
H415 H 0.32711 0.60716 0.18797 0.0
H416 H 0.33903 0.60779 0.21579 0.0
H417 H 0.30754 0.59433 0.21083 0.0
H418 H 0.35104 0.60056 0.28543 0.0
C419 C 0.34984 0.62494 0.25823 0.0
C420 C 0.10796 0.2726 0.68934 0.0
C421 C 0.11548 0.26228 0.66932 0.0
C422 C 0.1347 0.27523 0.65625 0.0
C423 C 0.13945 0.30726 0.68328 0.0
C424 C 0.12021 0.29512 0.69596 0.0
C425 C 0.11497 0.30903 0.71663 0.0
H426 H 0.14265 0.40946 0.77943 0.0
C427 C 0.14863 0.32991 0.69462 0.0
C428 C 0.13433 0.3313 0.71417 0.0
H429 H 0.08617 0.349 0.79277 0.0
H430 H 0.09835 0.32976 0.75923 0.0
H431 H 0.13504 0.41078 0.72431 0.0
H432 H 0.18416 0.37962 0.766 0.0
H433 H 0.20057 0.39321 0.74238 0.0
H434 H 0.18752 0.41075 0.7626 0.0
H435 H 0.15991 0.42804 0.73979 0.0
H436 H 0.16423 0.41674 0.71168 0.0
C437 C 0.08881 0.31399 0.71422 0.0
C438 C 0.11897 0.29505 0.73837 0.0
C439 C 0.22227 0.38374 0.66053 0.0
C440 C 0.23548 0.40603 0.66634 0.0
C441 C 0.22787 0.41743 0.68565 0.0
C442 C 0.20763 0.40678 0.69882 0.0
C443 C 0.19471 0.38444 0.6927 0.0
C444 C 0.2021 0.37346 0.67373 0.0
C445 C 0.18623 0.35002 0.66934 0.0
C446 C 0.16823 0.34844 0.68902 0.0
C447 C 0.1732 0.36857 0.70275 0.0
C448 C 0.17362 0.35108 0.64577 0.0
C449 C 0.20245 0.33118 0.67118 0.0
C450 C 0.13276 0.39216 0.77503 0.0
C451 C 0.11332 0.38083 0.78882 0.0
C452 C 0.10131 0.35809 0.78262 0.0
C453 C 0.10832 0.34698 0.76303 0.0
C454 C 0.12771 0.35857 0.74941 0.0
C455 C 0.13968 0.38074 0.75561 0.0
C456 C 0.16032 0.3902 0.73951 0.0
C457 C 0.15856 0.37027 0.72243 0.0
C458 C 0.13933 0.35172 0.72823 0.0
C459 C 0.15484 0.41273 0.72824 0.0
C460 C 0.18449 0.39385 0.7532 0.0
H461 H 0.16123 0.30599 0.65237 0.0
H462 H 0.0932 0.26328 0.69977 0.0
H463 H 0.13499 0.2864 0.73621 0.0
H464 H 0.12316 0.30625 0.75363 0.0
H465 H 0.10278 0.28119 0.74202 0.0
H466 H 0.08516 0.31848 0.69621 0.0
H467 H 0.07496 0.29841 0.71913 0.0
H468 H 0.0858 0.32913 0.72443 0.0
H469 H 0.22764 0.37417 0.64611 0.0
H470 H 0.23741 0.43473 0.69046 0.0
H471 H 0.20277 0.41639 0.71323 0.0
H472 H 0.17176 0.36927 0.64136 0.0
H473 H 0.18422 0.34471 0.63182 0.0
H474 H 0.15466 0.34103 0.64553 0.0
H475 H 0.21613 0.33558 0.68512 0.0
H476 H 0.19209 0.31365 0.67566 0.0
H477 H 0.2126 0.32993 0.65501 0.0
H478 H 0.14047 0.26827 0.64041 0.0
C479 C 0.14669 0.29741 0.66312 0.0
Dy480 Dy 0.02718 0.01364 0.50927 0.0
Dy481 Dy 0.97517 1.00422 0.53778 0.0
C482 C 0.01839 0.04804 0.54959 0.0
O483 O 0.03314 0.99592 0.5421 0.0
O484 O 0.99438 0.97551 0.54799 0.0
O485 O 0.06652 0.02128 0.50915 0.0
O486 O 0.04675 0.01333 0.4773 0.0
O487 O 0.96882 0.98171 0.50637 0.0
O488 O 0.00824 0.97739 0.50023 0.0
O489 O 0.97555 0.0368 0.51788 0.0
O490 O 1.00191 0.03153 0.48909 0.0
O491 O 0.93594 1.00137 0.53806 0.0
O492 O 0.95554 0.99803 0.56963 0.0
C493 C 0.01796 0.97852 0.55156 0.0
O494 O 0.02827 0.04638 0.52937 0.0
O495 O 1.00073 0.03165 0.55753 0.0
C496 C 0.0849 0.03934 0.47537 0.0
C497 C 0.11946 0.07399 0.45325 0.0
C498 C 0.11166 0.07758 0.47564 0.0
C499 C 0.09449 0.06044 0.4866 0.0
C500 C 0.09233 0.03589 0.45293 0.0
C501 C 0.10934 0.05305 0.44193 0.0
C502 C 0.06798 0.02031 0.48691 0.0
C503 C 0.98469 0.97051 0.49694 0.0
C504 C 0.98472 0.04177 0.49742 0.0
C505 C 0.91452 0.97772 0.56723 0.0
C506 C 0.87616 0.94359 0.58472 0.0
C507 C 0.90025 0.93954 0.58446 0.0
C508 C 0.9193 0.95647 0.57576 0.0
C509 C 0.89045 0.98143 0.5667 0.0
C510 C 0.87143 0.96452 0.5753 0.0
C511 C 0.93427 0.9968 0.55992 0.0
H512 H 0.11922 0.0934 0.48493 0.0
H513 H 0.08903 0.06359 0.50394 0.0
H514 H 0.08511 0.01977 0.44394 0.0
H515 H 0.11453 0.04989 0.42452 0.0
H516 H 0.90454 0.92368 0.59174 0.0
H517 H 0.93778 0.9532 0.57622 0.0
H518 H 0.88641 0.99767 0.56006 0.0
H519 H 0.85303 0.968 0.57484 0.0
Dy520 Dy 0.47992 1.00581 1.00667 0.0
Dy521 Dy 0.53082 0.01751 0.03655 0.0
C522 C 0.48888 0.97331 0.04836 0.0
O523 O 0.47225 0.02608 0.03744 0.0
O524 O 0.51086 0.04578 0.04591 0.0
O525 O 0.44075 0.99488 1.00626 0.0
O526 O 0.46046 1.00474 0.97466 0.0
O527 O 0.53724 0.04069 1.00548 0.0
O528 O 0.49755 0.04206 0.9964 0.0
O529 O 0.53236 0.98506 1.01703 0.0
O530 O 0.50705 0.98959 0.98721 0.0
O531 O 0.5703 0.02313 0.03774 0.0
O532 O 0.54914 0.0224 0.06904 0.0
C533 C 0.48706 0.04336 0.04752 0.0
O534 O 0.48078 0.97365 0.02731 0.0
O535 O 0.5044 0.99117 0.05675 0.0
C536 C 0.42476 0.97494 0.97255 0.0
C537 C 0.39502 0.93678 0.95031 0.0
C538 C 0.39063 0.94193 0.97325 0.0
C539 C 0.40528 0.96085 0.98422 0.0
C540 C 0.42923 0.96973 0.94964 0.0
C541 C 0.41456 0.95082 0.93867 0.0
C542 C 0.43953 0.99555 0.98397 0.0
C543 C 0.52105 0.05044 0.99465 0.0
C544 C 0.52423 0.97987 0.99628 0.0
C545 C 0.58849 0.046 0.06879 0.0
C546 C 0.62178 0.08165 0.09061 0.0
C547 C 0.59783 0.08467 0.08594 0.0
C548 C 0.58129 0.06696 0.07509 0.0
C549 C 0.61263 0.0434 0.0724 0.0
C550 C 0.62917 0.06108 0.08316 0.0
C551 C 0.57087 0.02605 0.05987 0.0
H552 H 0.37585 0.93133 0.98275 0.0
H553 H 0.4012 0.96453 1.00181 0.0
H554 H 0.44386 0.98042 0.94005 0.0
H555 H 0.41816 0.94757 0.92086 0.0
H556 H 0.59154 0.10024 0.0916 0.0
H557 H 0.56269 0.06931 0.07231 0.0
H558 H 0.61851 0.02738 0.0675 0.0
H559 H 0.64761 0.05841 0.08614 0.0
Dy560 Dy 0.50037 0.4855 0.50791 0.0
Dy561 Dy 0.5043 0.53545 0.53501 0.0
C562 C 0.52621 0.49399 0.55738 0.0
O563 O 0.46232 0.4854 0.52041 0.0
O564 O 0.47307 0.51054 0.55038 0.0
O565 O 0.4925 0.44764 0.50737 0.0
O566 O 0.50476 0.46705 0.4766 0.0
O567 O 0.477 0.53607 0.50701 0.0
O568 O 0.49072 0.51096 0.48236 0.0
O569 O 0.53499 0.54083 0.50977 0.0
O570 O 0.53971 0.50281 0.50589 0.0
O571 O 0.51052 0.57323 0.53448 0.0
O572 O 0.50134 0.55461 0.56629 0.0
C573 C 0.45721 0.49429 0.54009 0.0
O574 O 0.51215 0.47936 0.54367 0.0
O575 O 0.52975 0.51677 0.5541 0.0
C576 C 0.52027 0.4331 0.48334 0.0
C577 C 0.56096 0.41232 0.47418 0.0
C578 C 0.55905 0.42367 0.49514 0.0
C579 C 0.53896 0.43412 0.49962 0.0
C580 C 0.52172 0.42115 0.46274 0.0
C581 C 0.54192 0.41086 0.45816 0.0
C582 C 0.50083 0.44667 0.4866 0.0
C583 C 0.4787 0.52792 0.48624 0.0
C584 C 0.54781 0.52533 0.50303 0.0
C585 C 0.4831 0.58704 0.55928 0.0
C586 C 0.44172 0.60699 0.56816 0.0
C587 C 0.44377 0.59514 0.54751 0.0
C588 C 0.46416 0.58516 0.54319 0.0
C589 C 0.48147 0.5993 0.57968 0.0
C590 C 0.46095 0.60923 0.5841 0.0
C591 C 0.50337 0.57455 0.55562 0.0
H592 H 0.57356 0.42531 0.50767 0.0
H593 H 0.53841 0.44364 0.51549 0.0
H594 H 0.5076 0.4204 0.44989 0.0
H595 H 0.54283 0.40205 0.44194 0.0
H596 H 0.42952 0.59341 0.53471 0.0
H597 H 0.46489 0.57558 0.52742 0.0
H598 H 0.49576 0.60069 0.59242 0.0
H599 H 0.45983 0.618 0.60029 0.0
Dy600 Dy 0.00621 0.53685 1.00703 0.0
Dy601 Dy 1.00241 0.48723 0.03522 0.0
C602 C 0.98135 0.5298 0.05688 0.0
O603 O 0.04416 0.53807 1.01998 0.0
O604 O 0.03569 0.51074 0.04878 0.0
O605 O 0.01386 0.57466 1.00547 0.0
O606 O 1.00192 0.55438 0.97517 0.0
O607 O 0.0292 0.48519 1.00711 0.0
O608 O 0.01705 0.51121 0.98228 0.0
O609 O 0.97214 0.4816 1.00966 0.0
O610 O 0.96688 0.51941 1.00545 0.0
O611 O 0.99582 0.44946 0.03539 0.0
O612 O 0.00356 0.46862 0.0671 0.0
C613 C 0.0504 0.52812 0.0387 0.0
O614 O 0.99515 0.54409 0.04269 0.0
O615 O 0.97765 0.50697 0.05406 0.0
C616 C 0.98768 0.58933 0.97998 0.0
C617 C 0.95016 0.61369 0.96876 0.0
C618 C 0.94823 0.59934 0.98833 0.0
C619 C 0.9668 0.58718 0.99384 0.0
C620 C 0.98991 0.60389 0.96073 0.0
C621 C 0.97133 0.61595 0.95514 0.0
C622 C 0.00625 0.5751 0.98442 0.0
C623 C 0.02836 0.49379 0.9864 0.0
C624 C 0.95902 0.49682 1.0029 0.0
C625 C 0.02048 0.43501 0.0624 0.0
C626 C 0.05854 0.41169 0.07447 0.0
C627 C 0.06012 0.42529 0.05443 0.0
C628 C 0.04133 0.43695 0.04852 0.0
C629 C 0.01863 0.42128 0.08223 0.0
C630 C 0.0375 0.40971 0.08825 0.0
C631 C 1.00139 0.44838 0.05698 0.0
H632 H 0.93233 0.59739 0.99932 0.0
H633 H 0.96468 0.57581 1.00869 0.0
H634 H 0.00578 0.60548 0.9497 0.0
H635 H 0.97326 0.62647 0.93972 0.0
H636 H 0.07588 0.42695 0.04328 0.0
H637 H 0.0432 0.44766 0.03322 0.0
H638 H 1.00279 0.41983 0.09326 0.0
H639 H 0.03585 0.3997 0.10398 0.0
C640 C 0.26274 0.18992 0.32456 0.0
C641 C 0.26363 0.21421 0.32322 0.0
C642 C 0.25066 0.17688 0.34263 0.0
C643 C 0.19967 0.17725 0.38122 0.0
H644 H 0.22195 0.12511 0.41015 0.0
C645 C 0.13849 0.11583 0.44432 0.0
C646 C 0.13835 0.09176 0.44178 0.0
C647 C 0.15595 0.13241 0.43303 0.0
C648 C 0.21539 0.13952 0.40212 0.0
H649 H 0.25385 0.24402 0.34072 0.0
H650 H 0.23229 0.22107 0.37207 0.0
H651 H 0.24951 0.15141 0.38502 0.0
H652 H 0.15702 0.06636 0.42594 0.0
H653 H 0.18674 0.0951 0.40562 0.0
H654 H 0.16526 0.1649 0.39741 0.0
C655 C 0.24082 0.21218 0.35897 0.0
C656 C 0.23122 0.15461 0.38782 0.0
C657 C 0.25312 0.22529 0.34099 0.0
C658 C 0.15632 0.08472 0.42799 0.0
C659 C 0.17365 0.10126 0.41661 0.0
C660 C 0.18377 0.16205 0.39536 0.0
C661 C 0.23902 0.18778 0.35968 0.0
C662 C 0.22338 0.1734 0.37693 0.0
C663 C 0.17362 0.12531 0.41887 0.0
C664 C 0.19128 0.14274 0.40565 0.0
H665 H 0.27025 0.1807 0.31104 0.0
H666 H 0.24932 0.15805 0.34258 0.0
H667 H 0.19301 0.19139 0.3728 0.0
H668 H 0.12482 0.12187 0.45468 0.0
H669 H 0.15555 0.1508 0.43535 0.0
C670 C 0.28874 0.79654 0.81525 0.0
C671 C 0.26328 0.79431 0.81335 0.0
C672 C 0.30127 0.80861 0.83359 0.0
C673 C 0.29612 0.85548 0.87386 0.0
H674 H 0.35291 0.83767 0.90186 0.0
C675 C 0.35336 0.91368 0.94135 0.0
C676 C 0.37881 0.91734 0.93829 0.0
C677 C 0.33798 0.89626 0.92906 0.0
C678 C 0.33715 0.84291 0.89412 0.0
H679 H 0.23086 0.80197 0.82988 0.0
H680 H 0.25282 0.82317 0.86195 0.0
H681 H 0.32789 0.81086 0.87533 0.0
H682 H 0.40811 0.905 0.92055 0.0
H683 H 0.38126 0.87496 0.89871 0.0
H684 H 0.30567 0.88775 0.89209 0.0
C685 C 0.26308 0.81581 0.84903 0.0
C686 C 0.32281 0.82756 0.87897 0.0
C687 C 0.25052 0.80369 0.83068 0.0
C688 C 0.38856 0.90281 0.92308 0.0
C689 C 0.37319 0.88539 0.91079 0.0
C690 C 0.31045 0.87082 0.88898 0.0
C691 C 0.28865 0.81878 0.85044 0.0
C692 C 0.30237 0.83384 0.86839 0.0
C693 C 0.3477 0.88212 0.91342 0.0
C694 C 0.33135 0.86488 0.89899 0.0
H695 H 0.29919 0.78988 0.80201 0.0
H696 H 0.321 0.81088 0.83398 0.0
H697 H 0.28072 0.86101 0.86572 0.0
H698 H 0.34524 0.9247 0.95279 0.0
H699 H 0.31844 0.89402 0.93164 0.0
C700 C 0.6113 0.43113 0.73684 0.0
C701 C 0.61123 0.40698 0.73887 0.0
C702 C 0.60207 0.44027 0.71728 0.0
C703 C 0.56169 0.42418 0.66707 0.0
H704 H 0.59762 0.48236 0.64195 0.0
C705 C 0.53585 0.45997 0.57983 0.0
C706 C 0.53741 0.4843 0.5775 0.0
C707 C 0.54519 0.45056 0.59921 0.0
C708 C 0.58714 0.46626 0.64885 0.0
H709 H 0.60086 0.37354 0.7217 0.0
H710 H 0.58453 0.38947 0.68764 0.0
H711 H 0.61256 0.46584 0.67623 0.0
H712 H 0.55035 0.51778 0.59386 0.0
H713 H 0.56633 0.5014 0.62779 0.0
H714 H 0.53615 0.42467 0.63984 0.0
C715 C 0.59169 0.40133 0.70133 0.0
C716 C 0.59576 0.45674 0.66856 0.0
C717 C 0.60103 0.39216 0.72092 0.0
C718 C 0.54891 0.49899 0.59497 0.0
C719 C 0.55818 0.48955 0.61444 0.0
C720 C 0.55301 0.43375 0.64741 0.0
C721 C 0.59233 0.42556 0.69913 0.0
C722 C 0.58315 0.43557 0.67798 0.0
C723 C 0.55629 0.46516 0.61694 0.0
C724 C 0.56561 0.45495 0.63797 0.0
H725 H 0.61845 0.44307 0.75047 0.0
H726 H 0.6024 0.45893 0.71646 0.0
H727 H 0.5513 0.40804 0.67398 0.0
H728 H 0.52731 0.44807 0.56668 0.0
H729 H 0.54379 0.43176 0.60019 0.0
C730 C 0.90184 0.60134 0.23591 0.0
C731 C 0.90398 0.62584 0.23683 0.0
C732 C 0.9092 0.59042 0.21642 0.0
C733 C 0.92314 0.60044 0.15434 0.0
H734 H 0.95527 0.54728 0.16102 0.0
C735 C 0.9723 0.56433 0.07888 0.0
C736 C 0.97039 0.53993 0.07691 0.0
C737 C 0.96308 0.57413 0.09809 0.0
C738 C 0.94604 0.56192 0.1588 0.0
H739 H 0.91548 0.65793 0.21756 0.0
H740 H 0.92888 0.63904 0.18399 0.0
H741 H 0.94184 0.5657 0.19496 0.0
H742 H 0.95691 0.50673 0.09371 0.0
H743 H 0.94073 0.52386 0.12721 0.0
H744 H 0.92761 0.59681 0.11818 0.0
C745 C 0.92117 0.62817 0.19822 0.0
C746 C 0.93831 0.57252 0.17832 0.0
C747 C 0.91378 0.63908 0.21768 0.0
C748 C 0.95872 0.52558 0.0946 0.0
C749 C 0.94959 0.53543 0.11392 0.0
C750 C 0.93094 0.5899 0.13484 0.0
C751 C 0.91896 0.60366 0.19726 0.0
C752 C 0.92685 0.59203 0.1764 0.0
C753 C 0.95174 0.55986 0.11598 0.0
C754 C 0.94262 0.57056 0.13678 0.0
H755 H 0.89467 0.59052 0.25036 0.0
H756 H 0.90694 0.57152 0.21632 0.0
H757 H 0.91396 0.6151 0.15205 0.0
H758 H 0.98116 0.57598 0.06565 0.0
H759 H 0.96535 0.59301 0.09914 0.0
C760 C 0.41375 0.19116 0.16494 0.0
C761 C 0.39012 0.19418 0.15906 0.0
C762 C 0.4254 0.1761 0.15224 0.0
C763 C 0.41109 0.12352 0.11735 0.0
H764 H 0.47795 0.13987 0.09582 0.0
C765 C 0.45191 0.06235 0.05783 0.0
C766 C 0.47656 0.06082 0.06061 0.0
C767 C 0.44202 0.07914 0.06975 0.0
C768 C 0.45938 0.13488 0.10201 0.0
H769 H 0.36028 0.18408 0.13514 0.0
H770 H 0.38058 0.15772 0.11306 0.0
H771 H 0.45987 0.1688 0.11663 0.0
H772 H 0.51016 0.07555 0.07827 0.0
H773 H 0.4927 0.10438 0.09966 0.0
H774 H 0.41057 0.08952 0.10342 0.0
C775 C 0.39009 0.16704 0.12745 0.0
C776 C 0.44903 0.15151 0.11382 0.0
C777 C 0.37859 0.18228 0.13994 0.0
C778 C 0.4911 0.07636 0.07568 0.0
C779 C 0.48112 0.093 0.08783 0.0
C780 C 0.42149 0.10683 0.10583 0.0
C781 C 0.41344 0.16354 0.13367 0.0
C782 C 0.42472 0.14602 0.12141 0.0
C783 C 0.45645 0.09463 0.08498 0.0
C784 C 0.4457 0.11233 0.09782 0.0
H785 H 0.42307 0.20021 0.17954 0.0
H786 H 0.44338 0.17364 0.15742 0.0
H787 H 0.39243 0.11871 0.12339 0.0
H788 H 0.44028 0.05081 0.04616 0.0
H789 H 0.4231 0.08016 0.06673 0.0
C790 C 0.10698 0.82801 0.65052 0.0
C791 C 0.12781 0.83818 0.66298 0.0
C792 C 0.09284 0.84215 0.63951 0.0
C793 C 0.08207 0.90351 0.63857 0.0
H794 H 0.05344 0.88581 0.57921 0.0
C795 C 0.05117 0.96842 0.57594 0.0
C796 C 0.02791 0.96183 0.56612 0.0
C797 C 0.06112 0.95252 0.58905 0.0
C798 C 0.06111 0.8908 0.59591 0.0
H799 H 0.15076 0.87092 0.67304 0.0
H800 H 0.12676 0.89556 0.6533 0.0
H801 H 0.07556 0.85943 0.59923 0.0
H802 H 0.99679 0.93342 0.56229 0.0
H803 H 0.01458 0.90533 0.58488 0.0
H804 H 0.06848 0.93535 0.63466 0.0
C805 C 0.12064 0.87676 0.65265 0.0
C806 C 0.07372 0.87569 0.60743 0.0
C807 C 0.13452 0.86266 0.66387 0.0
C808 C 0.01472 0.93901 0.56975 0.0
C809 C 0.02491 0.92292 0.58254 0.0
C810 C 0.0698 0.91872 0.6269 0.0
C811 C 0.09947 0.86673 0.6405 0.0
C812 C 0.08467 0.88201 0.62879 0.0
C813 C 0.0482 0.92958 0.59228 0.0
C814 C 0.05945 0.91262 0.60537 0.0
H815 H 0.10138 0.80915 0.64969 0.0
H816 H 0.07653 0.8338 0.63054 0.0
H817 H 0.08966 0.90873 0.65523 0.0
H818 H 0.06174 0.9859 0.5735 0.0
H819 H 0.0792 0.958 0.59625 0.0
C820 C 0.76577 0.43101 0.89684 0.0
C821 C 0.76149 0.40655 0.89396 0.0
C822 C 0.78677 0.44258 0.90825 0.0
C823 C 0.83169 0.43079 0.9508 0.0
H824 H 0.872 0.48876 0.92989 0.0
C825 C 0.92715 0.46395 0.98808 0.0
C826 C 0.93524 0.48811 0.99143 0.0
C827 C 0.9053 0.45551 0.9766 0.0
C828 C 0.86074 0.47275 0.93616 0.0
H829 H 0.77684 0.37539 0.89939 0.0
H830 H 0.81308 0.39543 0.91928 0.0
H831 H 0.83532 0.47151 0.90838 0.0
H832 H 0.92645 0.52236 0.98533 0.0
H833 H 0.88801 0.50753 0.96552 0.0
H834 H 0.85681 0.43187 0.97853 0.0
C835 C 0.8 0.40563 0.91326 0.0
C836 C 0.83975 0.46285 0.92379 0.0
C837 C 0.77919 0.39414 0.90184 0.0
C838 C 0.92077 0.50363 0.98309 0.0
C839 C 0.89881 0.49514 0.97158 0.0
C840 C 0.8525 0.44069 0.96318 0.0
C841 C 0.80384 0.4299 0.91705 0.0
C842 C 0.82525 0.44151 0.93075 0.0
C843 C 0.8908 0.47094 0.96819 0.0
C844 C 0.86758 0.46157 0.95582 0.0
H845 H 0.75248 0.44107 0.89104 0.0
H846 H 0.78921 0.46131 0.91091 0.0
H847 H 0.82061 0.41462 0.95695 0.0
H848 H 0.93783 0.45144 0.99409 0.0
H849 H 0.90002 0.4368 0.97397 0.0
C850 C 0.73804 0.57951 0.39016 0.0
C851 C 0.74412 0.60373 0.3859 0.0
C852 C 0.71685 0.56998 0.40245 0.0
C853 C 0.65711 0.58333 0.42095 0.0
H854 H 0.65879 0.53497 0.46628 0.0
C855 C 0.57961 0.55747 0.48658 0.0
C856 C 0.57137 0.53349 0.49094 0.0
C857 C 0.60085 0.56518 0.47384 0.0
C858 C 0.65794 0.5483 0.45352 0.0
H859 H 0.73217 0.63678 0.39079 0.0
H860 H 0.6958 0.62037 0.41254 0.0
H861 H 0.69517 0.54977 0.44342 0.0
H862 H 0.5795 0.49884 0.48566 0.0
H863 H 0.61664 0.51236 0.46342 0.0
H864 H 0.62003 0.58205 0.43117 0.0
C865 C 0.70721 0.60862 0.40625 0.0
C866 C 0.6788 0.55677 0.44037 0.0
C867 C 0.72831 0.6181 0.39399 0.0
C868 C 0.58529 0.51744 0.48268 0.0
C869 C 0.60665 0.52519 0.46998 0.0
C870 C 0.63635 0.57494 0.43413 0.0
C871 C 0.70118 0.58444 0.4107 0.0
C872 C 0.67872 0.57456 0.42404 0.0
C873 C 0.61451 0.54914 0.46514 0.0
C874 C 0.63654 0.55747 0.45073 0.0
H875 H 0.74986 0.56793 0.38435 0.0
H876 H 0.71268 0.55126 0.40534 0.0
H877 H 0.65615 0.59666 0.40822 0.0
H878 H 0.56946 0.57037 0.49271 0.0
H879 H 0.6066 0.58378 0.4708 0.0
C880 C 0.23917 0.33395 0.13425 0.0
C881 C 0.23306 0.31373 0.14778 0.0
C882 C 0.22078 0.34447 0.12495 0.0
C883 C 0.15557 0.34704 0.13384 0.0
H884 H 0.16039 0.37526 0.07349 0.0
C885 C 0.07426 0.37763 0.09121 0.0
C886 C 0.07898 0.40005 0.08126 0.0
C887 C 0.09346 0.36705 0.09832 0.0
C888 C 0.15891 0.36757 0.09044 0.0
H889 H 0.20317 0.28787 0.16114 0.0
H890 H 0.1712 0.30578 0.14456 0.0
H891 H 0.19339 0.35668 0.08748 0.0
H892 H 0.1077 0.42886 0.07094 0.0
H893 H 0.14119 0.41015 0.08303 0.0
H894 H 0.12103 0.35766 0.1367 0.0
C895 C 0.19006 0.31406 0.14171 0.0
C896 C 0.17781 0.357 0.09848 0.0
C897 C 0.20836 0.30373 0.15114 0.0
C898 C 0.10339 0.41144 0.07821 0.0
C899 C 0.1226 0.40076 0.08517 0.0
C900 C 0.13666 0.35741 0.12575 0.0
C901 C 0.196 0.33481 0.12887 0.0
C902 C 0.17628 0.34648 0.12025 0.0
C903 C 0.11781 0.37857 0.0955 0.0
C904 C 0.13807 0.36769 0.10394 0.0
H905 H 0.25811 0.34201 0.13148 0.0
H906 H 0.22599 0.36053 0.11527 0.0
H907 H 0.15403 0.33964 0.15091 0.0
H908 H 0.05571 0.36818 0.09343 0.0
H909 H 0.08925 0.34977 0.10594 0.0
C910 C 0.61016 0.22688 0.88466 0.0
C911 C 0.59367 0.24043 0.87628 0.0
C912 C 0.60183 0.20583 0.89626 0.0
C913 C 0.54821 0.17371 0.92831 0.0
H914 H 0.58181 0.12149 0.92201 0.0
C915 C 0.51215 0.08337 0.97014 0.0
C916 C 0.52932 0.07175 0.98042 0.0
C917 C 0.51972 0.10355 0.95694 0.0
C918 C 0.57237 0.13598 0.92415 0.0
H919 H 0.55527 0.24193 0.87319 0.0
H920 H 0.54065 0.20487 0.89295 0.0
H921 H 0.59493 0.15677 0.89923 0.0
H922 H 0.56807 0.07243 0.98471 0.0
H923 H 0.58126 0.10765 0.96169 0.0
H924 H 0.5256 0.15283 0.95319 0.0
C925 C 0.56014 0.2108 0.8909 0.0
C926 C 0.57989 0.15627 0.91106 0.0
C927 C 0.56851 0.23194 0.87929 0.0
C928 C 0.55431 0.08084 0.97704 0.0
C929 C 0.56189 0.101 0.96372 0.0
C930 C 0.54063 0.15338 0.94133 0.0
C931 C 0.57671 0.19755 0.89975 0.0
C932 C 0.56802 0.1755 0.91303 0.0
C933 C 0.54468 0.11266 0.95354 0.0
C934 C 0.55267 0.13427 0.93951 0.0
H935 H 0.62965 0.23261 0.88237 0.0
H936 H 0.6152 0.19634 0.90297 0.0
H937 H 0.53886 0.18824 0.93065 0.0
H938 H 0.49274 0.07694 0.9723 0.0
H939 H 0.50594 0.11186 0.94916 0.0
C940 C 0.88704 0.79579 0.39121 0.0
C941 C 0.90173 0.77985 0.38437 0.0
C942 C 0.89736 0.81729 0.40102 0.0
C943 C 0.95233 0.84663 0.43234 0.0
H944 H 0.9244 0.90199 0.42242 0.0
C945 C 0.99264 0.93628 0.47377 0.0
C946 C 0.97597 0.94934 0.48272 0.0
C947 C 0.98455 0.91624 0.46055 0.0
C948 C 0.93228 0.88664 0.42555 0.0
H949 H 0.93902 0.77452 0.38172 0.0
H950 H 0.95723 0.81239 0.39857 0.0
H951 H 0.90933 0.86655 0.40052 0.0
H952 H 0.93759 0.9514 0.48462 0.0
H953 H 0.9235 0.91644 0.46162 0.0
H954 H 0.97521 0.86675 0.45746 0.0
C955 C 0.93759 0.80801 0.39666 0.0
C956 C 0.92365 0.86628 0.41295 0.0
C957 C 0.9272 0.78641 0.38675 0.0
C958 C 0.95098 0.94185 0.47799 0.0
C959 C 0.9429 0.92185 0.46467 0.0
C960 C 0.96102 0.86703 0.44488 0.0
C961 C 0.92275 0.8236 0.40425 0.0
C962 C 0.93333 0.84587 0.41636 0.0
C963 C 0.95957 0.90874 0.4558 0.0
C964 C 0.95092 0.88724 0.44184 0.0
H965 H 0.86738 0.79145 0.38935 0.0
H966 H 0.88527 0.82863 0.4068 0.0
H967 H 0.96 0.83121 0.43571 0.0
H968 H 0.01203 0.94148 0.477 0.0
H969 H 0.99794 0.90677 0.45381 0.0
C970 C 0.26237 0.67082 0.64363 0.0
C971 C 0.25547 0.69058 0.63369 0.0
C972 C 0.2798 0.66003 0.63312 0.0
C973 C 0.33213 0.67458 0.59409 0.0
H974 H 0.33295 0.6083 0.59941 0.0
C975 C 0.4206 0.63795 0.58431 0.0
C976 C 0.41924 0.61628 0.57328 0.0
C977 C 0.39937 0.64643 0.58933 0.0
C978 C 0.33292 0.62681 0.5975 0.0
H979 H 0.26036 0.71362 0.60419 0.0
H980 H 0.29032 0.69435 0.58547 0.0
H981 H 0.29657 0.62294 0.61073 0.0
H982 H 0.39439 0.58644 0.55908 0.0
H983 H 0.35749 0.60153 0.56725 0.0
H984 H 0.36839 0.67844 0.5807 0.0
C985 C 0.28262 0.68752 0.60168 0.0
C986 C 0.31213 0.63523 0.60422 0.0
C987 C 0.2652 0.69837 0.61225 0.0
C988 C 0.39615 0.60335 0.56731 0.0
C989 C 0.37494 0.61186 0.57225 0.0
C990 C 0.35287 0.66614 0.5873 0.0
C991 C 0.29066 0.66867 0.61234 0.0
C992 C 0.31163 0.65927 0.60293 0.0
C993 C 0.37627 0.63347 0.58339 0.0
C994 C 0.35367 0.64222 0.58927 0.0
H995 H 0.25495 0.66421 0.66001 0.0
H996 H 0.28563 0.64565 0.64191 0.0
H997 H 0.33252 0.69323 0.59311 0.0
H998 H 0.43809 0.64844 0.58896 0.0
H999 H 0.40105 0.66299 0.5982 0.0
C1000 C 0.73607 0.80284 0.70201 0.0
C1001 C 0.72488 0.81561 0.7179 0.0
C1002 C 0.74921 0.81413 0.68348 0.0
C1003 C 0.76067 0.86943 0.65011 0.0
H1004 H 0.82576 0.85607 0.64259 0.0
C1005 C 0.83911 0.93504 0.60982 0.0
C1006 C 0.85624 0.92676 0.59595 0.0
C1007 C 0.82093 0.91945 0.62124 0.0
C1008 C 0.80749 0.85973 0.64412 0.0
H1009 H 0.71816 0.85016 0.72632 0.0
H1010 H 0.74081 0.86972 0.69401 0.0
H1011 H 0.79698 0.83208 0.66837 0.0
H1012 H 0.86734 0.89552 0.58282 0.0
H1013 H 0.83552 0.86818 0.60294 0.0
H1014 H 0.77143 0.89749 0.62634 0.0
C1015 C 0.73923 0.85094 0.6957 0.0
C1016 C 0.79098 0.84596 0.6589 0.0
C1017 C 0.72619 0.8397 0.71424 0.0
C1018 C 0.85458 0.90245 0.59358 0.0
C1019 C 0.83636 0.88681 0.60507 0.0
C1020 C 0.77716 0.88317 0.63532 0.0
C1021 C 0.75133 0.83839 0.6804 0.0
C1022 C 0.76759 0.85101 0.66246 0.0
C1023 C 0.81941 0.89516 0.61913 0.0
C1024 C 0.80096 0.87883 0.63258 0.0
H1025 H 0.73509 0.78419 0.70415 0.0
H1026 H 0.75806 0.80393 0.67179 0.0
H1027 H 0.74264 0.8735 0.65223 0.0
H1028 H 0.84015 0.95364 0.61242 0.0
H1029 H 0.80851 0.92649 0.63233 0.0
C1030 C 0.75194 0.19476 0.23334 0.0
C1031 C 0.75434 0.21926 0.23341 0.0
C1032 C 0.73854 0.18132 0.21633 0.0
C1033 C 0.71183 0.18292 0.15883 0.0
H1034 H 0.66867 0.12682 0.18048 0.0
C1035 C 0.63982 0.12312 0.10192 0.0
C1036 C 0.63837 0.09889 0.10483 0.0
C1037 C 0.65445 0.13907 0.11642 0.0
C1038 C 0.68078 0.14231 0.17412 0.0
H1039 H 0.74531 0.24889 0.21504 0.0
H1040 H 0.72143 0.2252 0.18537 0.0
H1041 H 0.69361 0.15242 0.2077 0.0
H1042 H 0.65117 0.07245 0.1252 0.0
H1043 H 0.67685 0.10015 0.1501 0.0
H1044 H 0.69878 0.17261 0.12513 0.0
C1045 C 0.73012 0.21651 0.1985 0.0
C1046 C 0.69509 0.15697 0.18971 0.0
C1047 C 0.74361 0.23004 0.21559 0.0
C1048 C 0.65211 0.09098 0.12227 0.0
C1049 C 0.6666 0.10685 0.13675 0.0
C1050 C 0.6974 0.1682 0.14315 0.0
C1051 C 0.72704 0.19196 0.199 0.0
C1052 C 0.71107 0.17723 0.18224 0.0
C1053 C 0.66768 0.13104 0.1342 0.0
C1054 C 0.68203 0.14755 0.15064 0.0
H1055 H 0.75963 0.1858 0.24694 0.0
H1056 H 0.73685 0.16246 0.21697 0.0
H1057 H 0.72402 0.19839 0.15257 0.0
H1058 H 0.62956 0.12973 0.08852 0.0
H1059 H 0.65489 0.15762 0.11412 0.0
C1060 C 0.37603 0.60979 0.32661 0.0
C1061 C 0.39154 0.62147 0.30949 0.0
C1062 C 0.38556 0.60066 0.34605 0.0
C1063 C 0.44187 0.58229 0.36774 0.0
H1064 H 0.40908 0.58171 0.42632 0.0
C1065 C 0.46795 0.52903 0.44446 0.0
C1066 C 0.46766 0.53854 0.46657 0.0
C1067 C 0.45863 0.53952 0.42572 0.0
C1068 C 0.41866 0.58188 0.41018 0.0
H1069 H 0.42952 0.63284 0.29988 0.0
H1070 H 0.44614 0.61757 0.33403 0.0
H1071 H 0.3938 0.60028 0.39349 0.0
H1072 H 0.45708 0.56667 0.48613 0.0
H1073 H 0.44121 0.58517 0.4535 0.0
H1074 H 0.46711 0.56445 0.38455 0.0
C1075 C 0.4265 0.61507 0.3322 0.0
C1076 C 0.40966 0.59231 0.39119 0.0
C1077 C 0.41694 0.62414 0.31269 0.0
C1078 C 0.45753 0.55874 0.46943 0.0
C1079 C 0.4483 0.56932 0.45065 0.0
C1080 C 0.45091 0.57194 0.38675 0.0
C1081 C 0.41095 0.60302 0.34912 0.0
C1082 C 0.42104 0.59256 0.36962 0.0
C1083 C 0.44883 0.55996 0.42846 0.0
C1084 C 0.43937 0.57143 0.40825 0.0
H1085 H 0.35639 0.60766 0.32504 0.0
H1086 H 0.37291 0.59132 0.35846 0.0
H1087 H 0.45103 0.58185 0.35146 0.0
H1088 H 0.47548 0.51343 0.44154 0.0
H1089 H 0.45897 0.53145 0.40907 0.0
C1090 C 0.10351 0.41639 0.80877 0.0
C1091 C 0.10555 0.39265 0.80952 0.0
C1092 C 0.09588 0.42741 0.82806 0.0
C1093 C 0.0911 0.42347 0.89116 0.0
H1094 H 0.04304 0.46302 0.88368 0.0
C1095 C 0.04597 0.46087 0.96909 0.0
C1096 C 0.03938 0.48294 0.96689 0.0
C1097 C 0.05475 0.45004 0.9502 0.0
C1098 C 0.05678 0.45238 0.88615 0.0
H1099 H 0.10156 0.36208 0.83143 0.0
H1100 H 0.08835 0.38133 0.8651 0.0
H1101 H 0.05706 0.44414 0.85041 0.0
H1102 H 0.03773 0.51123 0.94312 0.0
H1103 H 0.05371 0.49287 0.91059 0.0
H1104 H 0.09119 0.43197 0.92682 0.0
C1105 C 0.09263 0.39141 0.84954 0.0
C1106 C 0.06476 0.44145 0.86698 0.0
C1107 C 0.09999 0.38031 0.83017 0.0
C1108 C 0.0424 0.49415 0.94546 0.0
C1109 C 0.05142 0.48346 0.92667 0.0
C1110 C 0.08331 0.4346 0.91033 0.0
C1111 C 0.09034 0.41508 0.84872 0.0
C1112 C 0.082 0.42681 0.86921 0.0
C1113 C 0.05743 0.46108 0.92861 0.0
C1114 C 0.06599 0.44924 0.90815 0.0
H1115 H 0.10747 0.42639 0.79313 0.0
H1116 H 0.09452 0.44569 0.82685 0.0
H1117 H 0.10461 0.41253 0.89348 0.0
H1118 H 0.04375 0.45163 0.98528 0.0
H1119 H 0.05883 0.43272 0.95246 0.0
C1120 C 0.59553 0.82476 0.88683 0.0
C1121 C 0.61603 0.81812 0.897 0.0
C1122 C 0.58399 0.84135 0.89731 0.0
C1123 C 0.59771 0.89063 0.93757 0.0
H1124 H 0.52756 0.88688 0.93917 0.0
C1125 C 0.55359 0.9526 0.99266 0.0
C1126 C 0.53411 0.96178 0.98346 0.0
C1127 C 0.56276 0.93512 0.9812 0.0
C1128 C 0.54719 0.88829 0.93857 0.0
H1129 H 0.6399 0.82314 0.9266 0.0
H1130 H 0.61943 0.85152 0.9451 0.0
H1131 H 0.54442 0.85516 0.9217 0.0
H1132 H 0.50895 0.95969 0.95492 0.0
H1133 H 0.5252 0.92907 0.93474 0.0
H1134 H 0.60059 0.92362 0.95442 0.0
C1135 C 0.61252 0.84421 0.92883 0.0
C1136 C 0.55684 0.87011 0.92863 0.0
C1137 C 0.62404 0.82766 0.91837 0.0
C1138 C 0.52402 0.95305 0.96243 0.0
C1139 C 0.5332 0.93541 0.95096 0.0
C1140 C 0.5881 0.90872 0.94746 0.0
C1141 C 0.59274 0.85167 0.91817 0.0
C1142 C 0.58221 0.87098 0.92828 0.0
C1143 C 0.55272 0.92631 0.96023 0.0
C1144 C 0.56274 0.90765 0.94834 0.0
H1145 H 0.58872 0.81752 0.8705 0.0
H1146 H 0.56881 0.84674 0.88865 0.0
H1147 H 0.61736 0.89213 0.93705 0.0
H1148 H 0.56179 0.95881 1.00884 0.0
H1149 H 0.57755 0.92824 0.98899 0.0
C1150 C 0.88386 0.18783 0.40866 0.0
C1151 C 0.89228 0.19647 0.38705 0.0
C1152 C 0.89552 0.17216 0.42037 0.0
C1153 C 0.95214 0.14773 0.42315 0.0
H1154 H 0.90906 0.0953 0.45161 0.0
C1155 C 0.98574 0.06737 0.4625 0.0
C1156 C 0.97548 0.05974 0.48383 0.0
C1157 C 0.97665 0.08439 0.44996 0.0
C1158 C 0.92136 0.10993 0.44391 0.0
H1159 H 0.92038 0.19632 0.36139 0.0
H1160 H 0.94047 0.16856 0.38168 0.0
H1161 H 0.89176 0.12509 0.43179 0.0
H1162 H 0.94776 0.06422 0.50872 0.0
H1163 H 0.93216 0.09368 0.487 0.0
H1164 H 0.98176 0.13232 0.43534 0.0
C1165 C 0.9249 0.17402 0.38959 0.0
C1166 C 0.91145 0.12705 0.43261 0.0
C1167 C 0.91324 0.18976 0.37786 0.0
C1168 C 0.95608 0.06955 0.49233 0.0
C1169 C 0.947 0.0864 0.47981 0.0
C1170 C 0.96209 0.1305 0.43447 0.0
C1171 C 0.91583 0.16465 0.41075 0.0
C1172 C 0.92669 0.14631 0.42233 0.0
C1173 C 0.95706 0.09393 0.45844 0.0
C1174 C 0.94678 0.11157 0.4452 0.0
H1175 H 0.86765 0.19242 0.41617 0.0
H1176 H 0.88834 0.16561 0.43684 0.0
H1177 H 0.96438 0.1624 0.41549 0.0
H1178 H 1.00073 0.06021 0.45549 0.0
H1179 H 0.98468 0.08978 0.43347 0.0
C1180 C 0.23999 0.59664 0.14891 0.0
C1181 C 0.2463 0.62126 0.149 0.0
C1182 C 0.21902 0.58519 0.13737 0.0
C1183 C 0.17968 0.59333 0.08924 0.0
H1184 H 0.13048 0.5457 0.11737 0.0
C1185 C 0.0865 0.56039 0.04569 0.0
C1186 C 0.07435 0.53728 0.04957 0.0
C1187 C 0.10806 0.56956 0.05746 0.0
C1188 C 0.14421 0.55863 0.10901 0.0
H1189 H 0.2343 0.65301 0.13822 0.0
H1190 H 0.19852 0.63307 0.1176 0.0
H1191 H 0.16681 0.56304 0.13903 0.0
H1192 H 0.07584 0.50535 0.06822 0.0
H1193 H 0.11387 0.5209 0.08793 0.0
H1194 H 0.15772 0.58873 0.05907 0.0
C1195 C 0.20996 0.62265 0.12619 0.0
C1196 C 0.165 0.56864 0.12154 0.0
C1197 C 0.23059 0.63405 0.13796 0.0
C1198 C 0.08464 0.52332 0.06498 0.0
C1199 C 0.1064 0.53235 0.07646 0.0
C1200 C 0.15916 0.58308 0.07658 0.0
C1201 C 0.20411 0.59812 0.12548 0.0
C1202 C 0.18276 0.58633 0.11189 0.0
C1203 C 0.11829 0.55573 0.07316 0.0
C1204 C 0.14089 0.5658 0.08635 0.0
H1205 H 0.25165 0.58617 0.15708 0.0
H1206 H 0.2149 0.56623 0.1371 0.0
H1207 H 0.19328 0.60672 0.08126 0.0
H1208 H 0.07893 0.57168 0.03411 0.0
H1209 H 0.11629 0.58774 0.05466 0.0
C1210 C 0.25751 0.41359 0.62854 0.0
C1211 C 0.25718 0.41699 0.65241 0.0
C1212 C 0.27832 0.42254 0.6156 0.0
C1213 C 0.33472 0.46728 0.61554 0.0
H1214 H 0.35817 0.42629 0.57204 0.0
C1215 C 0.42996 0.49229 0.5744 0.0
C1216 C 0.43345 0.48562 0.55168 0.0
C1217 C 0.40791 0.48426 0.58574 0.0
C1218 C 0.35171 0.43814 0.5838 0.0
H1219 H 0.27871 0.43295 0.68115 0.0
H1220 H 0.31476 0.44905 0.65845 0.0
H1221 H 0.32075 0.41214 0.59354 0.0
H1222 H 0.4162 0.46531 0.52305 0.0
H1223 H 0.37734 0.45169 0.54269 0.0
H1224 H 0.36533 0.49341 0.60569 0.0
C1225 C 0.29882 0.43938 0.64982 0.0
C1226 C 0.33027 0.42997 0.5962 0.0
C1227 C 0.27808 0.43021 0.66283 0.0
C1228 C 0.41418 0.47072 0.54056 0.0
C1229 C 0.39193 0.46282 0.5519 0.0
C1230 C 0.356 0.47554 0.60298 0.0
C1231 C 0.29928 0.43541 0.62609 0.0
C1232 C 0.32165 0.44437 0.61238 0.0
C1233 C 0.38849 0.4695 0.57469 0.0
C1234 C 0.365 0.46101 0.58712 0.0
H1235 H 0.24164 0.40401 0.61976 0.0
H1236 H 0.27794 0.41952 0.59731 0.0
H1237 H 0.32835 0.47892 0.6276 0.0
H1238 H 0.44441 0.50357 0.58365 0.0
H1239 H 0.40629 0.48941 0.60339 0.0
C1240 C 0.80553 0.71755 0.87764 0.0
C1241 C 0.78062 0.7078 0.87972 0.0
C1242 C 0.82296 0.70789 0.88938 0.0
C1243 C 0.83171 0.66733 0.93642 0.0
H1244 H 0.89139 0.66531 0.90297 0.0
C1245 C 0.90537 0.61402 0.96409 0.0
C1246 C 0.92986 0.62554 0.96196 0.0
C1247 C 0.88641 0.62448 0.95601 0.0
C1248 C 0.87493 0.66595 0.91261 0.0
H1249 H 0.75419 0.68077 0.89618 0.0
H1250 H 0.78482 0.66327 0.91639 0.0
H1251 H 0.85949 0.68221 0.88503 0.0
H1252 H 0.95345 0.65765 0.95077 0.0
H1253 H 0.92042 0.67561 0.93626 0.0
H1254 H 0.84723 0.65038 0.96382 0.0
C1255 C 0.79087 0.67866 0.90593 0.0
C1256 C 0.85664 0.6757 0.90237 0.0
C1257 C 0.77334 0.68858 0.89434 0.0
C1258 C 0.93487 0.64806 0.95223 0.0
C1259 C 0.91596 0.65839 0.94399 0.0
C1260 C 0.84999 0.6573 0.94661 0.0
C1261 C 0.81594 0.688 0.90327 0.0
C1262 C 0.83491 0.67681 0.91422 0.0
C1263 C 0.89159 0.64656 0.94546 0.0
C1264 C 0.87188 0.65678 0.93486 0.0
H1265 H 0.81156 0.73268 0.86682 0.0
H1266 H 0.842 0.716 0.88744 0.0
H1267 H 0.8153 0.66804 0.9461 0.0
H1268 H 0.90085 0.59655 0.97124 0.0
H1269 H 0.86779 0.61492 0.9572 0.0
C1270 C 0.41972 0.78269 0.14073 0.0
C1271 C 0.42016 0.78167 0.1648 0.0
C1272 C 0.42789 0.80376 0.12916 0.0
C1273 C 0.4662 0.86253 0.13381 0.0
H1274 H 0.42415 0.87792 0.08565 0.0
C1275 C 0.48642 0.95197 0.08612 0.0
C1276 C 0.48093 0.95201 0.06263 0.0
C1277 C 0.47913 0.93173 0.09937 0.0
C1278 C 0.43635 0.87383 0.09879 0.0
H1279 H 0.43056 0.80217 0.19543 0.0
H1280 H 0.44536 0.83897 0.17508 0.0
H1281 H 0.41221 0.84169 0.10708 0.0
H1282 H 0.4637 0.93055 0.03466 0.0
H1283 H 0.45162 0.89532 0.05744 0.0
H1284 H 0.49064 0.89443 0.1252 0.0
C1285 C 0.43848 0.82333 0.16526 0.0
C1286 C 0.42942 0.85303 0.11116 0.0
C1287 C 0.43006 0.8022 0.17691 0.0
C1288 C 0.46806 0.93129 0.05273 0.0
C1289 C 0.46098 0.91103 0.0659 0.0
C1290 C 0.4733 0.88329 0.12125 0.0
C1291 C 0.43702 0.82442 0.14125 0.0
C1292 C 0.44431 0.84702 0.12871 0.0
C1293 C 0.46631 0.91092 0.08944 0.0
C1294 C 0.45854 0.88917 0.10343 0.0
H1295 H 0.41288 0.76717 0.13073 0.0
H1296 H 0.42702 0.80387 0.11064 0.0
H1297 H 0.47816 0.85833 0.14712 0.0
H1298 H 0.49624 0.96763 0.09435 0.0
H1299 H 0.4833 0.93251 0.11747 0.0
C1300 C 0.11812 0.22372 0.65115 0.0
C1301 C 0.10376 0.23832 0.66147 0.0
C1302 C 0.10732 0.20271 0.64076 0.0
C1303 C 0.05486 0.15547 0.6381 0.0
H1304 H 0.07257 0.15144 0.57425 0.0
C1305 C 0.01258 0.07602 0.58105 0.0
C1306 C 0.02719 0.06924 0.56364 0.0
C1307 C 0.02065 0.09653 0.59369 0.0
C1308 C 0.06769 0.15195 0.59215 0.0
H1309 H 0.06664 0.24119 0.67024 0.0
H1310 H 0.04776 0.20374 0.65263 0.0
H1311 H 0.08886 0.18653 0.59601 0.0
H1312 H 0.06211 0.0783 0.54635 0.0
H1313 H 0.07664 0.11321 0.56887 0.0
H1314 H 0.03452 0.12052 0.63464 0.0
C1315 C 0.06745 0.20906 0.65234 0.0
C1316 C 0.0769 0.17223 0.60455 0.0
C1317 C 0.07828 0.23043 0.6625 0.0
C1318 C 0.05025 0.08315 0.55946 0.0
C1319 C 0.05851 0.10337 0.57233 0.0
C1320 C 0.04596 0.1349 0.62579 0.0
C1321 C 0.08188 0.19538 0.6408 0.0
C1322 C 0.07075 0.17416 0.62768 0.0
C1323 C 0.04374 0.11059 0.58947 0.0
C1324 C 0.05244 0.13274 0.60264 0.0
H1325 H 0.13783 0.22878 0.65062 0.0
H1326 H 0.1189 0.19228 0.63236 0.0
H1327 H 0.04995 0.15649 0.65596 0.0
H1328 H 0.99463 0.06577 0.58461 0.0
H1329 H 0.00853 0.10153 0.60644 0.0
C1330 C 0.7394 0.32403 0.42977 0.0
C1331 C 0.74776 0.33027 0.4075 0.0
C1332 C 0.72172 0.3348 0.44002 0.0
C1333 C 0.68969 0.38526 0.43431 0.0
H1334 H 0.63667 0.3436 0.46475 0.0
C1335 C 0.59468 0.40814 0.44713 0.0
C1336 C 0.58335 0.40323 0.46853 0.0
C1337 C 0.61623 0.40036 0.44195 0.0
C1338 C 0.65149 0.35551 0.45657 0.0
H1339 H 0.74521 0.35372 0.37912 0.0
H1340 H 0.714 0.37196 0.39662 0.0
H1341 H 0.67249 0.32867 0.45217 0.0
H1342 H 0.58558 0.38615 0.50122 0.0
H1343 H 0.62329 0.37231 0.49205 0.0
H1344 H 0.66818 0.41187 0.43803 0.0
C1345 C 0.72118 0.35893 0.40634 0.0
C1346 C 0.67209 0.347 0.44943 0.0
C1347 C 0.73889 0.34825 0.39616 0.0
C1348 C 0.59397 0.39024 0.48462 0.0
C1349 C 0.61544 0.38224 0.47934 0.0
C1350 C 0.66902 0.3937 0.44129 0.0
C1351 C 0.71199 0.35201 0.42821 0.0
C1352 C 0.69128 0.36168 0.43787 0.0
C1353 C 0.62685 0.38733 0.45799 0.0
C1354 C 0.64954 0.37882 0.45217 0.0
H1355 H 0.74575 0.31015 0.43893 0.0
H1356 H 0.71532 0.3293 0.45702 0.0
H1357 H 0.70432 0.39717 0.42587 0.0
H1358 H 0.58707 0.41835 0.4345 0.0
H1359 H 0.62447 0.40432 0.42527 0.0
loop_
_geom_bond_atom_site_label_1
_geom_bond_atom_site_label_2
_geom_bond_distance
_geom_bond_site_symmetry_2
_ccdc_geom_bond_type
C0 C1 1.391 . S
C0 C4 1.391 . S
C0 H42 0.948 . S
C1 C0 1.391 . S
C1 C2 1.391 . S
C2 C1 1.391 . S
C2 H58 0.947 . S
C2 C59 1.392 . S
C3 C4 1.391 . S
C3 C7 1.397 . S
C3 C59 1.419 . S
C4 C0 1.391 . S
C4 C3 1.391 . S
C4 C5 1.399 . S
C5 C4 1.399 . S
C5 C8 1.396 . S
C5 C17 1.453 . S
C5 C18 1.684 . S
H6 C30 0.948 . S
C7 C3 1.397 . S
C7 C8 1.394 . S
C7 C26 1.723 . S
C8 C5 1.396 . S
C8 C7 1.394 . S
C8 C38 1.723 . S
H9 C32 0.947 . S
H10 C33 0.948 . S
H11 C39 0.982 . S
H12 C40 0.979 . S
H13 C40 0.980 . S
H14 C40 0.983 . S
H15 C39 0.979 . S
H16 C39 0.977 . S
C17 C5 1.453 . S
C17 H46 0.982 . S
C17 H47 0.979 . S
C17 H48 0.977 . S
C18 C5 1.684 . S
C18 H43 0.979 . S
C18 H44 0.980 . S
C18 H45 0.983 . S
C19 C20 1.391 . S
C19 C24 1.391 . S
C19 H49 0.948 . S
C20 C19 1.391 . S
C20 C21 1.391 . S
C21 C20 1.391 . S
C21 C22 1.392 . S
C21 H50 0.947 . S
C22 C21 1.392 . S
C22 C23 1.419 . S
C22 H51 0.948 . S
C23 C22 1.419 . S
C23 C24 1.391 . S
C23 C27 1.397 . S
C24 C19 1.391 . S
C24 C23 1.391 . S
C24 C25 1.399 . S
C25 C24 1.399 . S
C25 C26 1.396 . S
C25 C28 1.453 . S
C25 C29 1.684 . S
C26 C7 1.723 . S
C26 C25 1.396 . S
C26 C27 1.394 . S
C27 C23 1.397 . S
C27 C26 1.394 . S
C27 C37 1.723 . S
C28 C25 1.453 . S
C28 H52 0.982 . S
C28 H53 0.979 . S
C28 H54 0.977 . S
C29 C25 1.684 . S
C29 H55 0.979 . S
C29 H56 0.980 . S
C29 H57 0.983 . S
C30 H6 0.948 . S
C30 C31 1.391 . S
C30 C35 1.391 . S
C31 C30 1.391 . S
C31 C32 1.391 . S
C32 H9 0.947 . S
C32 C31 1.391 . S
C32 C33 1.392 . S
C33 H10 0.948 . S
C33 C32 1.392 . S
C33 C34 1.419 . S
C34 C33 1.419 . S
C34 C35 1.391 . S
C34 C38 1.397 . S
C35 C30 1.391 . S
C35 C34 1.391 . S
C35 C36 1.399 . S
C36 C35 1.399 . S
C36 C37 1.396 . S
C36 C39 1.453 . S
C36 C40 1.684 . S
C37 C27 1.723 . S
C37 C36 1.396 . S
C37 C38 1.394 . S
C38 C8 1.723 . S
C38 C34 1.397 . S
C38 C37 1.394 . S
C39 H11 0.982 . S
C39 H15 0.979 . S
C39 H16 0.977 . S
C39 C36 1.453 . S
C40 H12 0.979 . S
C40 H13 0.980 . S
C40 H14 0.983 . S
C40 C36 1.684 . S
H41 C59 0.948 . S
H42 C0 0.948 . S
H43 C18 0.979 . S
H44 C18 0.980 . S
H45 C18 0.983 . S
H46 C17 0.982 . S
H47 C17 0.979 . S
H48 C17 0.977 . S
H49 C19 0.948 . S
H50 C21 0.947 . S
H51 C22 0.948 . S
H52 C28 0.982 . S
H53 C28 0.979 . S
H54 C28 0.977 . S
H55 C29 0.979 . S
H56 C29 0.980 . S
H57 C29 0.983 . S
H58 C2 0.947 . S
C59 C2 1.392 . S
C59 C3 1.419 . S
C59 H41 0.948 . S
C60 C61 1.391 . S
C60 C64 1.391 . S
C60 H102 0.948 . S
C61 C60 1.391 . S
C61 C62 1.391 . S
C62 C61 1.391 . S
C62 H118 0.947 . S
C62 C119 1.392 . S
C63 C64 1.391 . S
C63 C67 1.397 . S
C63 C119 1.419 . S
C64 C60 1.391 . S
C64 C63 1.391 . S
C64 C65 1.399 . S
C65 C64 1.399 . S
C65 C68 1.396 . S
C65 C77 1.453 . S
C65 C78 1.684 . S
H66 C90 0.948 . S
C67 C63 1.397 . S
C67 C68 1.394 . S
C67 C86 1.723 . S
C68 C65 1.396 . S
C68 C67 1.394 . S
C68 C98 1.723 . S
H69 C92 0.947 . S
H70 C93 0.948 . S
H71 C99 0.982 . S
H72 C100 0.979 . S
H73 C100 0.980 . S
H74 C100 0.983 . S
H75 C99 0.979 . S
H76 C99 0.977 . S
C77 C65 1.453 . S
C77 H106 0.982 . S
C77 H107 0.979 . S
C77 H108 0.977 . S
C78 C65 1.684 . S
C78 H103 0.979 . S
C78 H104 0.980 . S
C78 H105 0.983 . S
C79 C80 1.391 . S
C79 C84 1.391 . S
C79 H109 0.948 . S
C80 C79 1.391 . S
C80 C81 1.391 . S
C81 C80 1.391 . S
C81 C82 1.392 . S
C81 H110 0.947 . S
C82 C81 1.392 . S
C82 C83 1.419 . S
C82 H111 0.948 . S
C83 C82 1.419 . S
C83 C84 1.391 . S
C83 C87 1.397 . S
C84 C79 1.391 . S
C84 C83 1.391 . S
C84 C85 1.399 . S
C85 C84 1.399 . S
C85 C86 1.396 . S
C85 C88 1.453 . S
C85 C89 1.684 . S
C86 C67 1.723 . S
C86 C85 1.396 . S
C86 C87 1.394 . S
C87 C83 1.397 . S
C87 C86 1.394 . S
C87 C97 1.723 . S
C88 C85 1.453 . S
C88 H112 0.982 . S
C88 H113 0.979 . S
C88 H114 0.977 . S
C89 C85 1.684 . S
C89 H115 0.979 . S
C89 H116 0.980 . S
C89 H117 0.983 . S
C90 H66 0.948 . S
C90 C91 1.391 . S
C90 C95 1.391 . S
C91 C90 1.391 . S
C91 C92 1.391 . S
C92 H69 0.947 . S
C92 C91 1.391 . S
C92 C93 1.392 . S
C93 H70 0.948 . S
C93 C92 1.392 . S
C93 C94 1.419 . S
C94 C93 1.419 . S
C94 C95 1.391 . S
C94 C98 1.397 . S
C95 C90 1.391 . S
C95 C94 1.391 . S
C95 C96 1.399 . S
C96 C95 1.399 . S
C96 C97 1.396 . S
C96 C99 1.453 . S
C96 C100 1.684 . S
C97 C87 1.723 . S
C97 C96 1.396 . S
C97 C98 1.394 . S
C98 C68 1.723 . S
C98 C94 1.397 . S
C98 C97 1.394 . S
C99 H71 0.982 . S
C99 H75 0.979 . S
C99 H76 0.977 . S
C99 C96 1.453 . S
C100 H72 0.979 . S
C100 H73 0.980 . S
C100 H74 0.983 . S
C100 C96 1.684 . S
H101 C119 0.948 . S
H102 C60 0.948 . S
H103 C78 0.979 . S
H104 C78 0.980 . S
H105 C78 0.983 . S
H106 C77 0.982 . S
H107 C77 0.979 . S
H108 C77 0.977 . S
H109 C79 0.948 . S
H110 C81 0.947 . S
H111 C82 0.948 . S
H112 C88 0.982 . S
H113 C88 0.979 . S
H114 C88 0.977 . S
H115 C89 0.979 . S
H116 C89 0.980 . S
H117 C89 0.983 . S
H118 C62 0.947 . S
C119 C62 1.392 . S
C119 C63 1.419 . S
C119 H101 0.948 . S
C120 C121 1.391 . S
C120 C124 1.391 . S
C120 H162 0.948 . S
C121 C120 1.391 . S
C121 C122 1.391 . S
C122 C121 1.391 . S
C122 H178 0.947 . S
C122 C179 1.392 . S
C123 C124 1.391 . S
C123 C127 1.397 . S
C123 C179 1.419 . S
C124 C120 1.391 . S
C124 C123 1.391 . S
C124 C125 1.399 . S
C125 C124 1.399 . S
C125 C128 1.396 . S
C125 C137 1.453 . S
C125 C138 1.684 . S
H126 C150 0.948 . S
C127 C123 1.397 . S
C127 C128 1.394 . S
C127 C146 1.723 . S
C128 C125 1.396 . S
C128 C127 1.394 . S
C128 C158 1.723 . S
H129 C152 0.947 . S
H130 C153 0.948 . S
H131 C159 0.982 . S
H132 C160 0.979 . S
H133 C160 0.980 . S
H134 C160 0.983 . S
H135 C159 0.979 . S
H136 C159 0.977 . S
C137 C125 1.453 . S
C137 H166 0.982 . S
C137 H167 0.979 . S
C137 H168 0.977 . S
C138 C125 1.684 . S
C138 H163 0.979 . S
C138 H164 0.980 . S
C138 H165 0.983 . S
C139 C140 1.391 . S
C139 C144 1.391 . S
C139 H169 0.948 . S
C140 C139 1.391 . S
C140 C141 1.391 . S
C141 C140 1.391 . S
C141 C142 1.392 . S
C141 H170 0.947 . S
C142 C141 1.392 . S
C142 C143 1.419 . S
C142 H171 0.948 . S
C143 C142 1.419 . S
C143 C144 1.391 . S
C143 C147 1.397 . S
C144 C139 1.391 . S
C144 C143 1.391 . S
C144 C145 1.399 . S
C145 C144 1.399 . S
C145 C146 1.396 . S
C145 C148 1.453 . S
C145 C149 1.684 . S
C146 C127 1.723 . S
C146 C145 1.396 . S
C146 C147 1.394 . S
C147 C143 1.397 . S
C147 C146 1.394 . S
C147 C157 1.723 . S
C148 C145 1.453 . S
C148 H172 0.982 . S
C148 H173 0.979 . S
C148 H174 0.977 . S
C149 C145 1.684 . S
C149 H175 0.979 . S
C149 H176 0.980 . S
C149 H177 0.983 . S
C150 H126 0.948 . S
C150 C151 1.391 . S
C150 C155 1.391 . S
C151 C150 1.391 . S
C151 C152 1.391 . S
C152 H129 0.947 . S
C152 C151 1.391 . S
C152 C153 1.392 . S
C153 H130 0.948 . S
C153 C152 1.392 . S
C153 C154 1.419 . S
C154 C153 1.419 . S
C154 C155 1.391 . S
C154 C158 1.397 . S
C155 C150 1.391 . S
C155 C154 1.391 . S
C155 C156 1.399 . S
C156 C155 1.399 . S
C156 C157 1.396 . S
C156 C159 1.453 . S
C156 C160 1.684 . S
C157 C147 1.723 . S
C157 C156 1.396 . S
C157 C158 1.394 . S
C158 C128 1.723 . S
C158 C154 1.397 . S
C158 C157 1.394 . S
C159 H131 0.982 . S
C159 H135 0.979 . S
C159 H136 0.977 . S
C159 C156 1.453 . S
C160 H132 0.979 . S
C160 H133 0.980 . S
C160 H134 0.983 . S
C160 C156 1.684 . S
H161 C179 0.948 . S
H162 C120 0.948 . S
H163 C138 0.979 . S
H164 C138 0.980 . S
H165 C138 0.983 . S
H166 C137 0.982 . S
H167 C137 0.979 . S
H168 C137 0.977 . S
H169 C139 0.948 . S
H170 C141 0.947 . S
H171 C142 0.948 . S
H172 C148 0.982 . S
H173 C148 0.979 . S
H174 C148 0.977 . S
H175 C149 0.979 . S
H176 C149 0.980 . S
H177 C149 0.983 . S
H178 C122 0.947 . S
C179 C122 1.392 . S
C179 C123 1.419 . S
C179 H161 0.948 . S
C180 C181 1.391 . S
C180 C184 1.391 . S
C180 H222 0.948 . S
C181 C180 1.391 . S
C181 C182 1.391 . S
C182 C181 1.391 . S
C182 H238 0.947 . S
C182 C239 1.392 . S
C183 C184 1.391 . S
C183 C187 1.397 . S
C183 C239 1.419 . S
C184 C180 1.391 . S
C184 C183 1.391 . S
C184 C185 1.399 . S
C185 C184 1.399 . S
C185 C188 1.396 . S
C185 C197 1.453 . S
C185 C198 1.684 . S
H186 C210 0.948 . S
C187 C183 1.397 . S
C187 C188 1.394 . S
C187 C206 1.723 . S
C188 C185 1.396 . S
C188 C187 1.394 . S
C188 C218 1.723 . S
H189 C212 0.947 . S
H190 C213 0.948 . S
H191 C219 0.982 . S
H192 C220 0.979 . S
H193 C220 0.980 . S
H194 C220 0.983 . S
H195 C219 0.979 . S
H196 C219 0.977 . S
C197 C185 1.453 . S
C197 H226 0.982 . S
C197 H227 0.979 . S
C197 H228 0.977 . S
C198 C185 1.684 . S
C198 H223 0.979 . S
C198 H224 0.980 . S
C198 H225 0.983 . S
C199 C200 1.391 . S
C199 C204 1.391 . S
C199 H229 0.948 . S
C200 C199 1.391 . S
C200 C201 1.391 . S
C201 C200 1.391 . S
C201 C202 1.392 . S
C201 H230 0.947 . S
C202 C201 1.392 . S
C202 C203 1.419 . S
C202 H231 0.948 . S
C203 C202 1.419 . S
C203 C204 1.391 . S
C203 C207 1.397 . S
C204 C199 1.391 . S
C204 C203 1.391 . S
C204 C205 1.399 . S
C205 C204 1.399 . S
C205 C206 1.396 . S
C205 C208 1.453 . S
C205 C209 1.684 . S
C206 C187 1.723 . S
C206 C205 1.396 . S
C206 C207 1.394 . S
C207 C203 1.397 . S
C207 C206 1.394 . S
C207 C217 1.723 . S
C208 C205 1.453 . S
C208 H232 0.982 . S
C208 H233 0.979 . S
C208 H234 0.977 . S
C209 C205 1.684 . S
C209 H235 0.979 . S
C209 H236 0.980 . S
C209 H237 0.983 . S
C210 H186 0.948 . S
C210 C211 1.391 . S
C210 C215 1.391 . S
C211 C210 1.391 . S
C211 C212 1.391 . S
C212 H189 0.947 . S
C212 C211 1.391 . S
C212 C213 1.392 . S
C213 H190 0.948 . S
C213 C212 1.392 . S
C213 C214 1.419 . S
C214 C213 1.419 . S
C214 C215 1.391 . S
C214 C218 1.397 . S
C215 C210 1.391 . S
C215 C214 1.391 . S
C215 C216 1.399 . S
C216 C215 1.399 . S
C216 C217 1.396 . S
C216 C219 1.453 . S
C216 C220 1.684 . S
C217 C207 1.723 . S
C217 C216 1.396 . S
C217 C218 1.394 . S
C218 C188 1.723 . S
C218 C214 1.397 . S
C218 C217 1.394 . S
C219 H191 0.982 . S
C219 H195 0.979 . S
C219 H196 0.977 . S
C219 C216 1.453 . S
C220 H192 0.979 . S
C220 H193 0.980 . S
C220 H194 0.983 . S
C220 C216 1.684 . S
H221 C239 0.948 . S
H222 C180 0.948 . S
H223 C198 0.979 . S
H224 C198 0.980 . S
H225 C198 0.983 . S
H226 C197 0.982 . S
H227 C197 0.979 . S
H228 C197 0.977 . S
H229 C199 0.948 . S
H230 C201 0.947 . S
H231 C202 0.948 . S
H232 C208 0.982 . S
H233 C208 0.979 . S
H234 C208 0.977 . S
H235 C209 0.979 . S
H236 C209 0.980 . S
H237 C209 0.983 . S
H238 C182 0.947 . S
C239 C182 1.392 . S
C239 C183 1.419 . S
C239 H221 0.948 . S
C240 C241 1.391 . S
C240 C244 1.391 . S
C240 H282 0.948 . S
C241 C240 1.391 . S
C241 C242 1.391 . S
C242 C241 1.391 . S
C242 H298 0.947 . S
C242 C299 1.392 . S
C243 C244 1.391 . S
C243 C247 1.397 . S
C243 C299 1.419 . S
C244 C240 1.391 . S
C244 C243 1.391 . S
C244 C245 1.399 . S
C245 C244 1.399 . S
C245 C248 1.396 . S
C245 C257 1.453 . S
C245 C258 1.684 . S
H246 C270 0.948 . S
C247 C243 1.397 . S
C247 C248 1.394 . S
C247 C266 1.723 . S
C248 C245 1.396 . S
C248 C247 1.394 . S
C248 C278 1.723 . S
H249 C272 0.947 . S
H250 C273 0.948 . S
H251 C279 0.982 . S
H252 C280 0.979 . S
H253 C280 0.980 . S
H254 C280 0.983 . S
H255 C279 0.979 . S
H256 C279 0.977 . S
C257 C245 1.453 . S
C257 H286 0.982 . S
C257 H287 0.979 . S
C257 H288 0.977 . S
C258 C245 1.684 . S
C258 H283 0.979 . S
C258 H284 0.980 . S
C258 H285 0.983 . S
C259 C260 1.391 . S
C259 C264 1.391 . S
C259 H289 0.948 . S
C260 C259 1.391 . S
C260 C261 1.391 . S
C261 C260 1.391 . S
C261 C262 1.392 . S
C261 H290 0.947 . S
C262 C261 1.392 . S
C262 C263 1.419 . S
C262 H291 0.948 . S
C263 C262 1.419 . S
C263 C264 1.391 . S
C263 C267 1.397 . S
C264 C259 1.391 . S
C264 C263 1.391 . S
C264 C265 1.399 . S
C265 C264 1.399 . S
C265 C266 1.396 . S
C265 C268 1.453 . S
C265 C269 1.684 . S
C266 C247 1.723 . S
C266 C265 1.396 . S
C266 C267 1.394 . S
C267 C263 1.397 . S
C267 C266 1.394 . S
C267 C277 1.723 . S
C268 C265 1.453 . S
C268 H292 0.982 . S
C268 H293 0.979 . S
C268 H294 0.977 . S
C269 C265 1.684 . S
C269 H295 0.979 . S
C269 H296 0.980 . S
C269 H297 0.983 . S
C270 H246 0.948 . S
C270 C271 1.391 . S
C270 C275 1.391 . S
C271 C270 1.391 . S
C271 C272 1.391 . S
C272 H249 0.947 . S
C272 C271 1.391 . S
C272 C273 1.392 . S
C273 H250 0.948 . S
C273 C272 1.392 . S
C273 C274 1.419 . S
C274 C273 1.419 . S
C274 C275 1.391 . S
C274 C278 1.397 . S
C275 C270 1.391 . S
C275 C274 1.391 . S
C275 C276 1.399 . S
C276 C275 1.399 . S
C276 C277 1.396 . S
C276 C279 1.453 . S
C276 C280 1.684 . S
C277 C267 1.723 . S
C277 C276 1.396 . S
C277 C278 1.394 . S
C278 C248 1.723 . S
C278 C274 1.397 . S
C278 C277 1.394 . S
C279 H251 0.982 . S
C279 H255 0.979 . S
C279 H256 0.977 . S
C279 C276 1.453 . S
C280 H252 0.979 . S
C280 H253 0.980 . S
C280 H254 0.983 . S
C280 C276 1.684 . S
H281 C299 0.948 . S
H282 C240 0.948 . S
H283 C258 0.979 . S
H284 C258 0.980 . S
H285 C258 0.983 . S
H286 C257 0.982 . S
H287 C257 0.979 . S
H288 C257 0.977 . S
H289 C259 0.948 . S
H290 C261 0.947 . S
H291 C262 0.948 . S
H292 C268 0.982 . S
H293 C268 0.979 . S
H294 C268 0.977 . S
H295 C269 0.979 . S
H296 C269 0.980 . S
H297 C269 0.983 . S
H298 C242 0.947 . S
C299 C242 1.392 . S
C299 C243 1.419 . S
C299 H281 0.948 . S
C300 C301 1.391 . S
C300 C304 1.391 . S
C300 H342 0.948 . S
C301 C300 1.391 . S
C301 C302 1.391 . S
C302 C301 1.391 . S
C302 H358 0.947 . S
C302 C359 1.392 . S
C303 C304 1.391 . S
C303 C307 1.397 . S
C303 C359 1.419 . S
C304 C300 1.391 . S
C304 C303 1.391 . S
C304 C305 1.399 . S
C305 C304 1.399 . S
C305 C308 1.396 . S
C305 C317 1.453 . S
C305 C318 1.684 . S
H306 C330 0.948 . S
C307 C303 1.397 . S
C307 C308 1.394 . S
C307 C326 1.723 . S
C308 C305 1.396 . S
C308 C307 1.394 . S
C308 C338 1.723 . S
H309 C332 0.947 . S
H310 C333 0.948 . S
H311 C339 0.982 . S
H312 C340 0.979 . S
H313 C340 0.980 . S
H314 C340 0.983 . S
H315 C339 0.979 . S
H316 C339 0.977 . S
C317 C305 1.453 . S
C317 H346 0.982 . S
C317 H347 0.979 . S
C317 H348 0.977 . S
C318 C305 1.684 . S
C318 H343 0.979 . S
C318 H344 0.980 . S
C318 H345 0.983 . S
C319 C320 1.391 . S
C319 C324 1.391 . S
C319 H349 0.948 . S
C320 C319 1.391 . S
C320 C321 1.391 . S
C321 C320 1.391 . S
C321 C322 1.392 . S
C321 H350 0.947 . S
C322 C321 1.392 . S
C322 C323 1.419 . S
C322 H351 0.948 . S
C323 C322 1.419 . S
C323 C324 1.391 . S
C323 C327 1.397 . S
C324 C319 1.391 . S
C324 C323 1.391 . S
C324 C325 1.399 . S
C325 C324 1.399 . S
C325 C326 1.396 . S
C325 C328 1.453 . S
C325 C329 1.684 . S
C326 C307 1.723 . S
C326 C325 1.396 . S
C326 C327 1.394 . S
C327 C323 1.397 . S
C327 C326 1.394 . S
C327 C337 1.723 . S
C328 C325 1.453 . S
C328 H352 0.982 . S
C328 H353 0.979 . S
C328 H354 0.977 . S
C329 C325 1.684 . S
C329 H355 0.979 . S
C329 H356 0.980 . S
C329 H357 0.983 . S
C330 H306 0.948 . S
C330 C331 1.391 . S
C330 C335 1.391 . S
C331 C330 1.391 . S
C331 C332 1.391 . S
C332 H309 0.947 . S
C332 C331 1.391 . S
C332 C333 1.392 . S
C333 H310 0.948 . S
C333 C332 1.392 . S
C333 C334 1.419 . S
C334 C333 1.419 . S
C334 C335 1.391 . S
C334 C338 1.397 . S
C335 C330 1.391 . S
C335 C334 1.391 . S
C335 C336 1.399 . S
C336 C335 1.399 . S
C336 C337 1.396 . S
C336 C339 1.453 . S
C336 C340 1.684 . S
C337 C327 1.723 . S
C337 C336 1.396 . S
C337 C338 1.394 . S
C338 C308 1.723 . S
C338 C334 1.397 . S
C338 C337 1.394 . S
C339 H311 0.982 . S
C339 H315 0.979 . S
C339 H316 0.977 . S
C339 C336 1.453 . S
C340 H312 0.979 . S
C340 H313 0.980 . S
C340 H314 0.983 . S
C340 C336 1.684 . S
H341 C359 0.948 . S
H342 C300 0.948 . S
H343 C318 0.979 . S
H344 C318 0.980 . S
H345 C318 0.983 . S
H346 C317 0.982 . S
H347 C317 0.979 . S
H348 C317 0.977 . S
H349 C319 0.948 . S
H350 C321 0.947 . S
H351 C322 0.948 . S
H352 C328 0.982 . S
H353 C328 0.979 . S
H354 C328 0.977 . S
H355 C329 0.979 . S
H356 C329 0.980 . S
H357 C329 0.983 . S
H358 C302 0.947 . S
C359 C302 1.392 . S
C359 C303 1.419 . S
C359 H341 0.948 . S
C360 C361 1.391 . S
C360 C364 1.391 . S
C360 H402 0.948 . S
C361 C360 1.391 . S
C361 C362 1.391 . S
C362 C361 1.391 . S
C362 H418 0.947 . S
C362 C419 1.392 . S
C363 C364 1.391 . S
C363 C367 1.397 . S
C363 C419 1.419 . S
C364 C360 1.391 . S
C364 C363 1.391 . S
C364 C365 1.399 . S
C365 C364 1.399 . S
C365 C368 1.396 . S
C365 C377 1.453 . S
C365 C378 1.684 . S
H366 C390 0.948 . S
C367 C363 1.397 . S
C367 C368 1.394 . S
C367 C386 1.723 . S
C368 C365 1.396 . S
C368 C367 1.394 . S
C368 C398 1.723 . S
H369 C392 0.947 . S
H370 C393 0.948 . S
H371 C399 0.982 . S
H372 C400 0.979 . S
H373 C400 0.980 . S
H374 C400 0.983 . S
H375 C399 0.979 . S
H376 C399 0.977 . S
C377 C365 1.453 . S
C377 H406 0.982 . S
C377 H407 0.979 . S
C377 H408 0.977 . S
C378 C365 1.684 . S
C378 H403 0.979 . S
C378 H404 0.980 . S
C378 H405 0.983 . S
C379 C380 1.391 . S
C379 C384 1.391 . S
C379 H409 0.948 . S
C380 C379 1.391 . S
C380 C381 1.391 . S
C381 C380 1.391 . S
C381 C382 1.392 . S
C381 H410 0.947 . S
C382 C381 1.392 . S
C382 C383 1.419 . S
C382 H411 0.948 . S
C383 C382 1.419 . S
C383 C384 1.391 . S
C383 C387 1.397 . S
C384 C379 1.391 . S
C384 C383 1.391 . S
C384 C385 1.399 . S
C385 C384 1.399 . S
C385 C386 1.396 . S
C385 C388 1.453 . S
C385 C389 1.684 . S
C386 C367 1.723 . S
C386 C385 1.396 . S
C386 C387 1.394 . S
C387 C383 1.397 . S
C387 C386 1.394 . S
C387 C397 1.723 . S
C388 C385 1.453 . S
C388 H412 0.982 . S
C388 H413 0.979 . S
C388 H414 0.977 . S
C389 C385 1.684 . S
C389 H415 0.979 . S
C389 H416 0.980 . S
C389 H417 0.983 . S
C390 H366 0.948 . S
C390 C391 1.391 . S
C390 C395 1.391 . S
C391 C390 1.391 . S
C391 C392 1.391 . S
C392 H369 0.947 . S
C392 C391 1.391 . S
C392 C393 1.392 . S
C393 H370 0.948 . S
C393 C392 1.392 . S
C393 C394 1.419 . S
C394 C393 1.419 . S
C394 C395 1.391 . S
C394 C398 1.397 . S
C395 C390 1.391 . S
C395 C394 1.391 . S
C395 C396 1.399 . S
C396 C395 1.399 . S
C396 C397 1.396 . S
C396 C399 1.453 . S
C396 C400 1.684 . S
C397 C387 1.723 . S
C397 C396 1.396 . S
C397 C398 1.394 . S
C398 C368 1.723 . S
C398 C394 1.397 . S
C398 C397 1.394 . S
C399 H371 0.982 . S
C399 H375 0.979 . S
C399 H376 0.977 . S
C399 C396 1.453 . S
C400 H372 0.979 . S
C400 H373 0.980 . S
C400 H374 0.983 . S
C400 C396 1.684 . S
H401 C419 0.948 . S
H402 C360 0.948 . S
H403 C378 0.979 . S
H404 C378 0.980 . S
H405 C378 0.983 . S
H406 C377 0.982 . S
H407 C377 0.979 . S
H408 C377 0.977 . S
H409 C379 0.948 . S
H410 C381 0.947 . S
H411 C382 0.948 . S
H412 C388 0.982 . S
H413 C388 0.979 . S
H414 C388 0.977 . S
H415 C389 0.979 . S
H416 C389 0.980 . S
H417 C389 0.983 . S
H418 C362 0.947 . S
C419 C362 1.392 . S
C419 C363 1.419 . S
C419 H401 0.948 . S
C420 C421 1.391 . S
C420 C424 1.391 . S
C420 H462 0.948 . S
C421 C420 1.391 . S
C421 C422 1.391 . S
C422 C421 1.391 . S
C422 H478 0.947 . S
C422 C479 1.392 . S
C423 C424 1.391 . S
C423 C427 1.397 . S
C423 C479 1.419 . S
C424 C420 1.391 . S
C424 C423 1.391 . S
C424 C425 1.399 . S
C425 C424 1.399 . S
C425 C428 1.396 . S
C425 C437 1.453 . S
C425 C438 1.684 . S
H426 C450 0.948 . S
C427 C423 1.397 . S
C427 C428 1.394 . S
C427 C446 1.723 . S
C428 C425 1.396 . S
C428 C427 1.394 . S
C428 C458 1.723 . S
H429 C452 0.947 . S
H430 C453 0.948 . S
H431 C459 0.982 . S
H432 C460 0.979 . S
H433 C460 0.980 . S
H434 C460 0.983 . S
H435 C459 0.979 . S
H436 C459 0.977 . S
C437 C425 1.453 . S
C437 H466 0.982 . S
C437 H467 0.979 . S
C437 H468 0.977 . S
C438 C425 1.684 . S
C438 H463 0.979 . S
C438 H464 0.980 . S
C438 H465 0.983 . S
C439 C440 1.391 . S
C439 C444 1.391 . S
C439 H469 0.948 . S
C440 C439 1.391 . S
C440 C441 1.391 . S
C441 C440 1.391 . S
C441 C442 1.392 . S
C441 H470 0.947 . S
C442 C441 1.392 . S
C442 C443 1.419 . S
C442 H471 0.948 . S
C443 C442 1.419 . S
C443 C444 1.391 . S
C443 C447 1.397 . S
C444 C439 1.391 . S
C444 C443 1.391 . S
C444 C445 1.399 . S
C445 C444 1.399 . S
C445 C446 1.396 . S
C445 C448 1.453 . S
C445 C449 1.684 . S
C446 C427 1.723 . S
C446 C445 1.396 . S
C446 C447 1.394 . S
C447 C443 1.397 . S
C447 C446 1.394 . S
C447 C457 1.723 . S
C448 C445 1.453 . S
C448 H472 0.982 . S
C448 H473 0.979 . S
C448 H474 0.977 . S
C449 C445 1.684 . S
C449 H475 0.979 . S
C449 H476 0.980 . S
C449 H477 0.983 . S
C450 H426 0.948 . S
C450 C451 1.391 . S
C450 C455 1.391 . S
C451 C450 1.391 . S
C451 C452 1.391 . S
C452 H429 0.947 . S
C452 C451 1.391 . S
C452 C453 1.392 . S
C453 H430 0.948 . S
C453 C452 1.392 . S
C453 C454 1.419 . S
C454 C453 1.419 . S
C454 C455 1.391 . S
C454 C458 1.397 . S
C455 C450 1.391 . S
C455 C454 1.391 . S
C455 C456 1.399 . S
C456 C455 1.399 . S
C456 C457 1.396 . S
C456 C459 1.453 . S
C456 C460 1.684 . S
C457 C447 1.723 . S
C457 C456 1.396 . S
C457 C458 1.394 . S
C458 C428 1.723 . S
C458 C454 1.397 . S
C458 C457 1.394 . S
C459 H431 0.982 . S
C459 H435 0.979 . S
C459 H436 0.977 . S
C459 C456 1.453 . S
C460 H432 0.979 . S
C460 H433 0.980 . S
C460 H434 0.983 . S
C460 C456 1.684 . S
H461 C479 0.948 . S
H462 C420 0.948 . S
H463 C438 0.979 . S
H464 C438 0.980 . S
H465 C438 0.983 . S
H466 C437 0.982 . S
H467 C437 0.979 . S
H468 C437 0.977 . S
H469 C439 0.948 . S
H470 C441 0.947 . S
H471 C442 0.948 . S
H472 C448 0.982 . S
H473 C448 0.979 . S
H474 C448 0.977 . S
H475 C449 0.979 . S
H476 C449 0.980 . S
H477 C449 0.983 . S
H478 C422 0.947 . S
C479 C422 1.392 . S
C479 C423 1.419 . S
C479 H461 0.948 . S
Dy480 O483 2.307 1_545 S
Dy480 O485 2.395 . S
Dy480 O486 2.379 . S
Dy480 O488 2.339 1_545 S
Dy480 O490 2.298 1_455 S
Dy480 O494 2.275 . S
Dy480 C502 2.738 . S
Dy481 O484 2.298 1_655 S
Dy481 O487 2.275 . S
Dy481 O489 2.307 1_565 S
Dy481 O491 2.395 . S
Dy481 O492 2.379 . S
Dy481 O495 2.339 1_565 S
Dy481 C511 2.738 . S
C482 O494 1.254 . S
C482 O495 1.257 1_455 S
O483 Dy480 2.307 1_565 S
O483 C493 1.266 . S
O484 Dy481 2.298 1_455 S
O484 C493 1.236 . S
O485 Dy480 2.395 . S
O485 C502 1.255 . S
O486 Dy480 2.379 . S
O486 C502 1.249 . S
O487 Dy481 2.275 . S
O487 C503 1.254 . S
O488 Dy480 2.339 1_565 S
O488 C503 1.257 1_455 S
O489 Dy481 2.307 1_545 S
O489 C504 1.266 . S
O490 Dy480 2.298 1_655 S
O490 C504 1.236 . S
O491 Dy481 2.395 . S
O491 C511 1.255 . S
O492 Dy481 2.379 . S
O492 C511 1.249 . S
C493 O483 1.266 . S
C493 O484 1.236 . S
O494 Dy480 2.275 . S
O494 C482 1.254 . S
O495 Dy481 2.339 1_545 S
O495 C482 1.257 1_655 S
C496 C499 1.344 . S
C496 C500 1.328 . S
C496 C502 1.516 . S
C497 C498 1.304 . S
C497 C501 1.323 . S
C498 C497 1.304 . S
C498 C499 1.371 . S
C498 H512 0.930 . S
C499 C496 1.344 . S
C499 C498 1.371 . S
C499 H513 0.931 . S
C500 C496 1.328 . S
C500 C501 1.433 . S
C500 H514 0.931 . S
C501 C497 1.323 . S
C501 C500 1.433 . S
C501 H515 0.933 . S
C502 Dy480 2.738 . S
C502 O485 1.255 . S
C502 O486 1.249 . S
C502 C496 1.516 . S
C503 O487 1.254 . S
C503 O488 1.257 1_655 S
C504 O489 1.266 . S
C504 O490 1.236 . S
C505 C508 1.344 . S
C505 C509 1.328 . S
C505 C511 1.516 . S
C506 C507 1.304 . S
C506 C510 1.323 . S
C507 C506 1.304 . S
C507 C508 1.371 . S
C507 H516 0.930 . S
C508 C505 1.344 . S
C508 C507 1.371 . S
C508 H517 0.931 . S
C509 C505 1.328 . S
C509 C510 1.433 . S
C509 H518 0.931 . S
C510 C506 1.323 . S
C510 C509 1.433 . S
C510 H519 0.933 . S
C511 Dy481 2.738 . S
C511 O491 1.255 . S
C511 O492 1.249 . S
C511 C505 1.516 . S
H512 C498 0.930 . S
H513 C499 0.931 . S
H514 C500 0.931 . S
H515 C501 0.933 . S
H516 C507 0.930 . S
H517 C508 0.931 . S
H518 C509 0.931 . S
H519 C510 0.933 . S
Dy520 O523 2.307 1_566 S
Dy520 O525 2.395 . S
Dy520 O526 2.379 . S
Dy520 O528 2.339 1_565 S
Dy520 O530 2.298 . S
Dy520 O534 2.275 1_556 S
Dy520 C542 2.738 . S
Dy521 O524 2.298 . S
Dy521 O527 2.275 1_554 S
Dy521 O529 2.307 1_544 S
Dy521 O531 2.395 . S
Dy521 O532 2.379 . S
Dy521 O535 2.339 1_545 S
Dy521 C551 2.738 . S
C522 O534 1.254 . S
C522 O535 1.257 . S
O523 Dy520 2.307 1_544 S
O523 C533 1.266 . S
O524 Dy521 2.298 . S
O524 C533 1.236 . S
O525 Dy520 2.395 . S
O525 C542 1.255 . S
O526 Dy520 2.379 . S
O526 C542 1.249 . S
O527 Dy521 2.275 1_556 S
O527 C543 1.254 . S
O528 Dy520 2.339 1_545 S
O528 C543 1.257 . S
O529 Dy521 2.307 1_566 S
O529 C544 1.266 . S
O530 Dy520 2.298 . S
O530 C544 1.236 . S
O531 Dy521 2.395 . S
O531 C551 1.255 . S
O532 Dy521 2.379 . S
O532 C551 1.249 . S
C533 O523 1.266 . S
C533 O524 1.236 . S
O534 Dy520 2.275 1_554 S
O534 C522 1.254 . S
O535 Dy521 2.339 1_565 S
O535 C522 1.257 . S
C536 C539 1.344 . S
C536 C540 1.328 . S
C536 C542 1.516 . S
C537 C538 1.304 . S
C537 C541 1.323 . S
C538 C537 1.304 . S
C538 C539 1.371 . S
C538 H552 0.930 . S
C539 C536 1.344 . S
C539 C538 1.371 . S
C539 H553 0.931 . S
C540 C536 1.328 . S
C540 C541 1.433 . S
C540 H554 0.931 . S
C541 C537 1.323 . S
C541 C540 1.433 . S
C541 H555 0.933 . S
C542 Dy520 2.738 . S
C542 O525 1.255 . S
C542 O526 1.249 . S
C542 C536 1.516 . S
C543 O527 1.254 . S
C543 O528 1.257 . S
C544 O529 1.266 . S
C544 O530 1.236 . S
C545 C548 1.344 . S
C545 C549 1.328 . S
C545 C551 1.516 . S
C546 C547 1.304 . S
C546 C550 1.323 . S
C547 C546 1.304 . S
C547 C548 1.371 . S
C547 H556 0.930 . S
C548 C545 1.344 . S
C548 C547 1.371 . S
C548 H557 0.931 . S
C549 C545 1.328 . S
C549 C550 1.433 . S
C549 H558 0.931 . S
C550 C546 1.323 . S
C550 C549 1.433 . S
C550 H559 0.933 . S
C551 Dy521 2.738 . S
C551 O531 1.255 . S
C551 O532 1.249 . S
C551 C545 1.516 . S
H552 C538 0.930 . S
H553 C539 0.931 . S
H554 C540 0.931 . S
H555 C541 0.933 . S
H556 C547 0.930 . S
H557 C548 0.931 . S
H558 C549 0.931 . S
H559 C550 0.933 . S
Dy560 O563 2.307 . S
Dy560 O565 2.395 . S
Dy560 O566 2.379 . S
Dy560 O568 2.339 . S
Dy560 O570 2.298 . S
Dy560 O574 2.275 . S
Dy560 C582 2.738 . S
Dy561 O564 2.298 . S
Dy561 O567 2.275 . S
Dy561 O569 2.307 . S
Dy561 O571 2.395 . S
Dy561 O572 2.379 . S
Dy561 O575 2.339 . S
Dy561 C591 2.738 . S
C562 O574 1.254 . S
C562 O575 1.257 . S
O563 Dy560 2.307 . S
O563 C573 1.266 . S
O564 Dy561 2.298 . S
O564 C573 1.236 . S
O565 Dy560 2.395 . S
O565 C582 1.255 . S
O566 Dy560 2.379 . S
O566 C582 1.249 . S
O567 Dy561 2.275 . S
O567 C583 1.254 . S
O568 Dy560 2.339 . S
O568 C583 1.257 . S
O569 Dy561 2.307 . S
O569 C584 1.266 . S
O570 Dy560 2.298 . S
O570 C584 1.236 . S
O571 Dy561 2.395 . S
O571 C591 1.255 . S
O572 Dy561 2.379 . S
O572 C591 1.249 . S
C573 O563 1.266 . S
C573 O564 1.236 . S
O574 Dy560 2.275 . S
O574 C562 1.254 . S
O575 Dy561 2.339 . S
O575 C562 1.257 . S
C576 C579 1.344 . S
C576 C580 1.328 . S
C576 C582 1.516 . S
C577 C578 1.304 . S
C577 C581 1.323 . S
C578 C577 1.304 . S
C578 C579 1.371 . S
C578 H592 0.930 . S
C579 C576 1.344 . S
C579 C578 1.371 . S
C579 H593 0.931 . S
C580 C576 1.328 . S
C580 C581 1.433 . S
C580 H594 0.931 . S
C581 C577 1.323 . S
C581 C580 1.433 . S
C581 H595 0.933 . S
C582 Dy560 2.738 . S
C582 O565 1.255 . S
C582 O566 1.249 . S
C582 C576 1.516 . S
C583 O567 1.254 . S
C583 O568 1.257 . S
C584 O569 1.266 . S
C584 O570 1.236 . S
C585 C588 1.344 . S
C585 C589 1.328 . S
C585 C591 1.516 . S
C586 C587 1.304 . S
C586 C590 1.323 . S
C587 C586 1.304 . S
C587 C588 1.371 . S
C587 H596 0.930 . S
C588 C585 1.344 . S
C588 C587 1.371 . S
C588 H597 0.931 . S
C589 C585 1.328 . S
C589 C590 1.433 . S
C589 H598 0.931 . S
C590 C586 1.323 . S
C590 C589 1.433 . S
C590 H599 0.933 . S
C591 Dy561 2.738 . S
C591 O571 1.255 . S
C591 O572 1.249 . S
C591 C585 1.516 . S
H592 C578 0.930 . S
H593 C579 0.931 . S
H594 C580 0.931 . S
H595 C581 0.933 . S
H596 C587 0.930 . S
H597 C588 0.931 . S
H598 C589 0.931 . S
H599 C590 0.933 . S
Dy600 O603 2.306 1_656 S
Dy600 O605 2.395 . S
Dy600 O606 2.379 . S
Dy600 O608 2.339 1_655 S
Dy600 O610 2.298 . S
Dy600 O614 2.275 1_556 S
Dy600 C622 2.738 . S
Dy601 O604 2.298 . S
Dy601 O607 2.275 1_554 S
Dy601 O609 2.306 1_455 S
Dy601 O611 2.395 . S
Dy601 O612 2.379 . S
Dy601 O615 2.339 1_455 S
Dy601 C631 2.738 . S
C602 O614 1.254 . S
C602 O615 1.257 . S
O603 Dy600 2.306 1_454 S
O603 C613 1.268 . S
O604 Dy601 2.298 . S
O604 C613 1.236 . S
O605 Dy600 2.395 . S
O605 C622 1.255 . S
O606 Dy600 2.379 . S
O606 C622 1.249 . S
O607 Dy601 2.275 1_556 S
O607 C623 1.254 . S
O608 Dy600 2.339 1_455 S
O608 C623 1.257 . S
O609 Dy601 2.306 1_655 S
O609 C624 1.267 1_554 S
O610 Dy600 2.298 . S
O610 C624 1.236 . S
O611 Dy601 2.395 . S
O611 C631 1.255 . S
O612 Dy601 2.379 . S
O612 C631 1.249 . S
C613 O603 1.268 . S
C613 O604 1.236 . S
O614 Dy600 2.275 1_554 S
O614 C602 1.254 . S
O615 Dy601 2.339 1_655 S
O615 C602 1.257 . S
C616 C619 1.344 . S
C616 C620 1.328 . S
C616 C622 1.516 . S
C617 C618 1.304 . S
C617 C621 1.323 . S
C618 C617 1.304 . S
C618 C619 1.371 . S
C618 H632 0.930 . S
C619 C616 1.344 . S
C619 C618 1.371 . S
C619 H633 0.931 . S
C620 C616 1.328 . S
C620 C621 1.433 . S
C620 H634 0.931 . S
C621 C617 1.323 . S
C621 C620 1.433 . S
C621 H635 0.933 . S
C622 Dy600 2.738 . S
C622 O605 1.255 . S
C622 O606 1.249 . S
C622 C616 1.516 . S
C623 O607 1.254 . S
C623 O608 1.257 . S
C624 O609 1.267 1_556 S
C624 O610 1.236 . S
C625 C628 1.344 . S
C625 C629 1.328 . S
C625 C631 1.516 . S
C626 C627 1.304 . S
C626 C630 1.323 . S
C627 C626 1.304 . S
C627 C628 1.371 . S
C627 H636 0.930 . S
C628 C625 1.344 . S
C628 C627 1.371 . S
C628 H637 0.931 . S
C629 C625 1.328 . S
C629 C630 1.433 . S
C629 H638 0.931 . S
C630 C626 1.323 . S
C630 C629 1.433 . S
C630 H639 0.933 . S
C631 Dy601 2.738 . S
C631 O611 1.255 . S
C631 O612 1.249 . S
C631 C625 1.516 . S
H632 C618 0.930 . S
H633 C619 0.931 . S
H634 C620 0.931 . S
H635 C621 0.933 . S
H636 C627 0.930 . S
H637 C628 0.931 . S
H638 C629 0.931 . S
H639 C630 0.933 . S
C640 C641 1.349 . S
C640 C642 1.327 . S
C640 H665 0.950 . S
C641 C640 1.349 . S
C641 C657 1.349 . S
C642 C640 1.327 . S
C642 C661 1.429 . S
C642 H666 0.950 . S
C643 C660 1.574 . S
C643 C662 1.368 . S
C643 H667 0.949 . S
H644 C648 0.949 . S
C645 C646 1.349 . S
C645 C647 1.327 . S
C645 H668 0.950 . S
C646 C645 1.349 . S
C646 C658 1.349 . S
C647 C645 1.327 . S
C647 C663 1.429 . S
C647 H669 0.950 . S
C648 H644 0.949 . S
C648 C656 1.574 . S
C648 C664 1.368 . S
H649 C657 0.950 . S
H650 C655 0.950 . S
H651 C656 0.949 . S
H652 C658 0.950 . S
H653 C659 0.950 . S
H654 C660 0.949 . S
C655 H650 0.950 . S
C655 C657 1.327 . S
C655 C661 1.429 . S
C656 C648 1.574 . S
C656 H651 0.949 . S
C656 C662 1.368 . S
C657 C641 1.349 . S
C657 H649 0.950 . S
C657 C655 1.327 . S
C658 C646 1.349 . S
C658 H652 0.950 . S
C658 C659 1.327 . S
C659 H653 0.950 . S
C659 C658 1.327 . S
C659 C663 1.429 . S
C660 C643 1.574 . S
C660 H654 0.949 . S
C660 C664 1.368 . S
C661 C642 1.429 . S
C661 C655 1.429 . S
C661 C662 1.523 . S
C662 C643 1.368 . S
C662 C656 1.368 . S
C662 C661 1.523 . S
C663 C647 1.429 . S
C663 C659 1.429 . S
C663 C664 1.523 . S
C664 C648 1.368 . S
C664 C660 1.368 . S
C664 C663 1.523 . S
H665 C640 0.950 . S
H666 C642 0.950 . S
H667 C643 0.949 . S
H668 C645 0.950 . S
H669 C647 0.950 . S
C670 C671 1.349 . S
C670 C672 1.327 . S
C670 H695 0.950 . S
C671 C670 1.349 . S
C671 C687 1.349 . S
C672 C670 1.327 . S
C672 C691 1.429 . S
C672 H696 0.950 . S
C673 C690 1.574 . S
C673 C692 1.368 . S
C673 H697 0.949 . S
H674 C678 0.949 . S
C675 C676 1.349 . S
C675 C677 1.327 . S
C675 H698 0.950 . S
C676 C675 1.349 . S
C676 C688 1.349 . S
C677 C675 1.327 . S
C677 C693 1.429 . S
C677 H699 0.950 . S
C678 H674 0.949 . S
C678 C686 1.574 . S
C678 C694 1.368 . S
H679 C687 0.950 . S
H680 C685 0.950 . S
H681 C686 0.949 . S
H682 C688 0.950 . S
H683 C689 0.950 . S
H684 C690 0.949 . S
C685 H680 0.950 . S
C685 C687 1.327 . S
C685 C691 1.429 . S
C686 C678 1.574 . S
C686 H681 0.949 . S
C686 C692 1.368 . S
C687 C671 1.349 . S
C687 H679 0.950 . S
C687 C685 1.327 . S
C688 C676 1.349 . S
C688 H682 0.950 . S
C688 C689 1.327 . S
C689 H683 0.950 . S
C689 C688 1.327 . S
C689 C693 1.429 . S
C690 C673 1.574 . S
C690 H684 0.949 . S
C690 C694 1.368 . S
C691 C672 1.429 . S
C691 C685 1.429 . S
C691 C692 1.523 . S
C692 C673 1.368 . S
C692 C686 1.368 . S
C692 C691 1.523 . S
C693 C677 1.429 . S
C693 C689 1.429 . S
C693 C694 1.523 . S
C694 C678 1.368 . S
C694 C690 1.368 . S
C694 C693 1.523 . S
H695 C670 0.950 . S
H696 C672 0.950 . S
H697 C673 0.949 . S
H698 C675 0.950 . S
H699 C677 0.950 . S
C700 C701 1.349 . S
C700 C702 1.327 . S
C700 H725 0.950 . S
C701 C700 1.349 . S
C701 C717 1.349 . S
C702 C700 1.327 . S
C702 C721 1.429 . S
C702 H726 0.950 . S
C703 C720 1.574 . S
C703 C722 1.368 . S
C703 H727 0.949 . S
H704 C708 0.949 . S
C705 C706 1.349 . S
C705 C707 1.327 . S
C705 H728 0.950 . S
C706 C705 1.349 . S
C706 C718 1.349 . S
C707 C705 1.327 . S
C707 C723 1.429 . S
C707 H729 0.950 . S
C708 H704 0.949 . S
C708 C716 1.574 . S
C708 C724 1.368 . S
H709 C717 0.950 . S
H710 C715 0.950 . S
H711 C716 0.949 . S
H712 C718 0.950 . S
H713 C719 0.950 . S
H714 C720 0.949 . S
C715 H710 0.950 . S
C715 C717 1.327 . S
C715 C721 1.429 . S
C716 C708 1.574 . S
C716 H711 0.949 . S
C716 C722 1.368 . S
C717 C701 1.349 . S
C717 H709 0.950 . S
C717 C715 1.327 . S
C718 C706 1.349 . S
C718 H712 0.950 . S
C718 C719 1.327 . S
C719 H713 0.950 . S
C719 C718 1.327 . S
C719 C723 1.429 . S
C720 C703 1.574 . S
C720 H714 0.949 . S
C720 C724 1.368 . S
C721 C702 1.429 . S
C721 C715 1.429 . S
C721 C722 1.523 . S
C722 C703 1.368 . S
C722 C716 1.368 . S
C722 C721 1.523 . S
C723 C707 1.429 . S
C723 C719 1.429 . S
C723 C724 1.523 . S
C724 C708 1.368 . S
C724 C720 1.368 . S
C724 C723 1.523 . S
H725 C700 0.950 . S
H726 C702 0.950 . S
H727 C703 0.949 . S
H728 C705 0.950 . S
H729 C707 0.950 . S
C730 C731 1.349 . S
C730 C732 1.327 . S
C730 H755 0.950 . S
C731 C730 1.349 . S
C731 C747 1.349 . S
C732 C730 1.327 . S
C732 C751 1.429 . S
C732 H756 0.950 . S
C733 C750 1.574 . S
C733 C752 1.368 . S
C733 H757 0.949 . S
H734 C738 0.949 . S
C735 C736 1.349 . S
C735 C737 1.327 . S
C735 H758 0.950 . S
C736 C735 1.349 . S
C736 C748 1.349 . S
C737 C735 1.327 . S
C737 C753 1.429 . S
C737 H759 0.950 . S
C738 H734 0.949 . S
C738 C746 1.574 . S
C738 C754 1.368 . S
H739 C747 0.950 . S
H740 C745 0.950 . S
H741 C746 0.949 . S
H742 C748 0.950 . S
H743 C749 0.950 . S
H744 C750 0.949 . S
C745 H740 0.950 . S
C745 C747 1.327 . S
C745 C751 1.429 . S
C746 C738 1.574 . S
C746 H741 0.949 . S
C746 C752 1.368 . S
C747 C731 1.349 . S
C747 H739 0.950 . S
C747 C745 1.327 . S
C748 C736 1.349 . S
C748 H742 0.950 . S
C748 C749 1.327 . S
C749 H743 0.950 . S
C749 C748 1.327 . S
C749 C753 1.429 . S
C750 C733 1.574 . S
C750 H744 0.949 . S
C750 C754 1.368 . S
C751 C732 1.429 . S
C751 C745 1.429 . S
C751 C752 1.523 . S
C752 C733 1.368 . S
C752 C746 1.368 . S
C752 C751 1.523 . S
C753 C737 1.429 . S
C753 C749 1.429 . S
C753 C754 1.523 . S
C754 C738 1.368 . S
C754 C750 1.368 . S
C754 C753 1.523 . S
H755 C730 0.950 . S
H756 C732 0.950 . S
H757 C733 0.949 . S
H758 C735 0.950 . S
H759 C737 0.950 . S
C760 C761 1.349 . S
C760 C762 1.327 . S
C760 H785 0.950 . S
C761 C760 1.349 . S
C761 C777 1.349 . S
C762 C760 1.327 . S
C762 C781 1.429 . S
C762 H786 0.950 . S
C763 C780 1.574 . S
C763 C782 1.368 . S
C763 H787 0.949 . S
H764 C768 0.949 . S
C765 C766 1.349 . S
C765 C767 1.327 . S
C765 H788 0.950 . S
C766 C765 1.349 . S
C766 C778 1.349 . S
C767 C765 1.327 . S
C767 C783 1.429 . S
C767 H789 0.950 . S
C768 H764 0.949 . S
C768 C776 1.574 . S
C768 C784 1.368 . S
H769 C777 0.950 . S
H770 C775 0.950 . S
H771 C776 0.949 . S
H772 C778 0.950 . S
H773 C779 0.950 . S
H774 C780 0.949 . S
C775 H770 0.950 . S
C775 C777 1.327 . S
C775 C781 1.429 . S
C776 C768 1.574 . S
C776 H771 0.949 . S
C776 C782 1.368 . S
C777 C761 1.349 . S
C777 H769 0.950 . S
C777 C775 1.327 . S
C778 C766 1.349 . S
C778 H772 0.950 . S
C778 C779 1.327 . S
C779 H773 0.950 . S
C779 C778 1.327 . S
C779 C783 1.429 . S
C780 C763 1.574 . S
C780 H774 0.949 . S
C780 C784 1.368 . S
C781 C762 1.429 . S
C781 C775 1.429 . S
C781 C782 1.523 . S
C782 C763 1.368 . S
C782 C776 1.368 . S
C782 C781 1.523 . S
C783 C767 1.429 . S
C783 C779 1.429 . S
C783 C784 1.523 . S
C784 C768 1.368 . S
C784 C780 1.368 . S
C784 C783 1.523 . S
H785 C760 0.950 . S
H786 C762 0.950 . S
H787 C763 0.949 . S
H788 C765 0.950 . S
H789 C767 0.950 . S
C790 C791 1.349 . S
C790 C792 1.327 . S
C790 H815 0.950 . S
C791 C790 1.349 . S
C791 C807 1.349 . S
C792 C790 1.327 . S
C792 C811 1.429 . S
C792 H816 0.950 . S
C793 C810 1.574 . S
C793 C812 1.368 . S
C793 H817 0.949 . S
H794 C798 0.949 . S
C795 C796 1.349 . S
C795 C797 1.327 . S
C795 H818 0.950 . S
C796 C795 1.349 . S
C796 C808 1.349 . S
C797 C795 1.327 . S
C797 C813 1.429 . S
C797 H819 0.950 . S
C798 H794 0.949 . S
C798 C806 1.574 . S
C798 C814 1.368 . S
H799 C807 0.950 . S
H800 C805 0.950 . S
H801 C806 0.949 . S
H802 C808 0.950 . S
H803 C809 0.950 . S
H804 C810 0.949 . S
C805 H800 0.950 . S
C805 C807 1.327 . S
C805 C811 1.429 . S
C806 C798 1.574 . S
C806 H801 0.949 . S
C806 C812 1.368 . S
C807 C791 1.349 . S
C807 H799 0.950 . S
C807 C805 1.327 . S
C808 C796 1.349 . S
C808 H802 0.950 . S
C808 C809 1.327 . S
C809 H803 0.950 . S
C809 C808 1.327 . S
C809 C813 1.429 . S
C810 C793 1.574 . S
C810 H804 0.949 . S
C810 C814 1.368 . S
C811 C792 1.429 . S
C811 C805 1.429 . S
C811 C812 1.523 . S
C812 C793 1.368 . S
C812 C806 1.368 . S
C812 C811 1.523 . S
C813 C797 1.429 . S
C813 C809 1.429 . S
C813 C814 1.523 . S
C814 C798 1.368 . S
C814 C810 1.368 . S
C814 C813 1.523 . S
H815 C790 0.950 . S
H816 C792 0.950 . S
H817 C793 0.949 . S
H818 C795 0.950 . S
H819 C797 0.950 . S
C820 C821 1.349 . S
C820 C822 1.327 . S
C820 H845 0.950 . S
C821 C820 1.349 . S
C821 C837 1.349 . S
C822 C820 1.327 . S
C822 C841 1.429 . S
C822 H846 0.950 . S
C823 C840 1.574 . S
C823 C842 1.368 . S
C823 H847 0.949 . S
H824 C828 0.949 . S
C825 C826 1.349 . S
C825 C827 1.327 . S
C825 H848 0.950 . S
C826 C825 1.349 . S
C826 C838 1.349 . S
C827 C825 1.327 . S
C827 C843 1.429 . S
C827 H849 0.950 . S
C828 H824 0.949 . S
C828 C836 1.574 . S
C828 C844 1.368 . S
H829 C837 0.950 . S
H830 C835 0.950 . S
H831 C836 0.949 . S
H832 C838 0.950 . S
H833 C839 0.950 . S
H834 C840 0.949 . S
C835 H830 0.950 . S
C835 C837 1.327 . S
C835 C841 1.429 . S
C836 C828 1.574 . S
C836 H831 0.949 . S
C836 C842 1.368 . S
C837 C821 1.349 . S
C837 H829 0.950 . S
C837 C835 1.327 . S
C838 C826 1.349 . S
C838 H832 0.950 . S
C838 C839 1.327 . S
C839 H833 0.950 . S
C839 C838 1.327 . S
C839 C843 1.429 . S
C840 C823 1.574 . S
C840 H834 0.949 . S
C840 C844 1.368 . S
C841 C822 1.429 . S
C841 C835 1.429 . S
C841 C842 1.523 . S
C842 C823 1.368 . S
C842 C836 1.368 . S
C842 C841 1.523 . S
C843 C827 1.429 . S
C843 C839 1.429 . S
C843 C844 1.523 . S
C844 C828 1.368 . S
C844 C840 1.368 . S
C844 C843 1.523 . S
H845 C820 0.950 . S
H846 C822 0.950 . S
H847 C823 0.949 . S
H848 C825 0.950 . S
H849 C827 0.950 . S
C850 C851 1.349 . S
C850 C852 1.327 . S
C850 H875 0.950 . S
C851 C850 1.349 . S
C851 C867 1.349 . S
C852 C850 1.327 . S
C852 C871 1.429 . S
C852 H876 0.950 . S
C853 C870 1.574 . S
C853 C872 1.368 . S
C853 H877 0.949 . S
H854 C858 0.949 . S
C855 C856 1.349 . S
C855 C857 1.327 . S
C855 H878 0.950 . S
C856 C855 1.349 . S
C856 C868 1.349 . S
C857 C855 1.327 . S
C857 C873 1.429 . S
C857 H879 0.950 . S
C858 H854 0.949 . S
C858 C866 1.574 . S
C858 C874 1.368 . S
H859 C867 0.950 . S
H860 C865 0.950 . S
H861 C866 0.949 . S
H862 C868 0.950 . S
H863 C869 0.950 . S
H864 C870 0.949 . S
C865 H860 0.950 . S
C865 C867 1.327 . S
C865 C871 1.429 . S
C866 C858 1.574 . S
C866 H861 0.949 . S
C866 C872 1.368 . S
C867 C851 1.349 . S
C867 H859 0.950 . S
C867 C865 1.327 . S
C868 C856 1.349 . S
C868 H862 0.950 . S
C868 C869 1.327 . S
C869 H863 0.950 . S
C869 C868 1.327 . S
C869 C873 1.429 . S
C870 C853 1.574 . S
C870 H864 0.949 . S
C870 C874 1.368 . S
C871 C852 1.429 . S
C871 C865 1.429 . S
C871 C872 1.523 . S
C872 C853 1.368 . S
C872 C866 1.368 . S
C872 C871 1.523 . S
C873 C857 1.429 . S
C873 C869 1.429 . S
C873 C874 1.523 . S
C874 C858 1.368 . S
C874 C870 1.368 . S
C874 C873 1.523 . S
H875 C850 0.950 . S
H876 C852 0.950 . S
H877 C853 0.949 . S
H878 C855 0.950 . S
H879 C857 0.950 . S
C880 C881 1.349 . S
C880 C882 1.327 . S
C880 H905 0.950 . S
C881 C880 1.349 . S
C881 C897 1.349 . S
C882 C880 1.327 . S
C882 C901 1.429 . S
C882 H906 0.950 . S
C883 C900 1.574 . S
C883 C902 1.368 . S
C883 H907 0.949 . S
H884 C888 0.949 . S
C885 C886 1.349 . S
C885 C887 1.327 . S
C885 H908 0.950 . S
C886 C885 1.349 . S
C886 C898 1.349 . S
C887 C885 1.327 . S
C887 C903 1.429 . S
C887 H909 0.950 . S
C888 H884 0.949 . S
C888 C896 1.574 . S
C888 C904 1.368 . S
H889 C897 0.950 . S
H890 C895 0.950 . S
H891 C896 0.949 . S
H892 C898 0.950 . S
H893 C899 0.950 . S
H894 C900 0.949 . S
C895 H890 0.950 . S
C895 C897 1.327 . S
C895 C901 1.429 . S
C896 C888 1.574 . S
C896 H891 0.949 . S
C896 C902 1.368 . S
C897 C881 1.349 . S
C897 H889 0.950 . S
C897 C895 1.327 . S
C898 C886 1.349 . S
C898 H892 0.950 . S
C898 C899 1.327 . S
C899 H893 0.950 . S
C899 C898 1.327 . S
C899 C903 1.429 . S
C900 C883 1.574 . S
C900 H894 0.949 . S
C900 C904 1.368 . S
C901 C882 1.429 . S
C901 C895 1.429 . S
C901 C902 1.523 . S
C902 C883 1.368 . S
C902 C896 1.368 . S
C902 C901 1.523 . S
C903 C887 1.429 . S
C903 C899 1.429 . S
C903 C904 1.523 . S
C904 C888 1.368 . S
C904 C900 1.368 . S
C904 C903 1.523 . S
H905 C880 0.950 . S
H906 C882 0.950 . S
H907 C883 0.949 . S
H908 C885 0.950 . S
H909 C887 0.950 . S
C910 C911 1.349 . S
C910 C912 1.327 . S
C910 H935 0.950 . S
C911 C910 1.349 . S
C911 C927 1.349 . S
C912 C910 1.327 . S
C912 C931 1.429 . S
C912 H936 0.950 . S
C913 C930 1.574 . S
C913 C932 1.368 . S
C913 H937 0.949 . S
H914 C918 0.949 . S
C915 C916 1.349 . S
C915 C917 1.327 . S
C915 H938 0.950 . S
C916 C915 1.349 . S
C916 C928 1.349 . S
C917 C915 1.327 . S
C917 C933 1.429 . S
C917 H939 0.950 . S
C918 H914 0.949 . S
C918 C926 1.574 . S
C918 C934 1.368 . S
H919 C927 0.950 . S
H920 C925 0.950 . S
H921 C926 0.949 . S
H922 C928 0.950 . S
H923 C929 0.950 . S
H924 C930 0.949 . S
C925 H920 0.950 . S
C925 C927 1.327 . S
C925 C931 1.429 . S
C926 C918 1.574 . S
C926 H921 0.949 . S
C926 C932 1.368 . S
C927 C911 1.349 . S
C927 H919 0.950 . S
C927 C925 1.327 . S
C928 C916 1.349 . S
C928 H922 0.950 . S
C928 C929 1.327 . S
C929 H923 0.950 . S
C929 C928 1.327 . S
C929 C933 1.429 . S
C930 C913 1.574 . S
C930 H924 0.949 . S
C930 C934 1.368 . S
C931 C912 1.429 . S
C931 C925 1.429 . S
C931 C932 1.523 . S
C932 C913 1.368 . S
C932 C926 1.368 . S
C932 C931 1.523 . S
C933 C917 1.429 . S
C933 C929 1.429 . S
C933 C934 1.523 . S
C934 C918 1.368 . S
C934 C930 1.368 . S
C934 C933 1.523 . S
H935 C910 0.950 . S
H936 C912 0.950 . S
H937 C913 0.949 . S
H938 C915 0.950 . S
H939 C917 0.950 . S
C940 C941 1.349 . S
C940 C942 1.327 . S
C940 H965 0.950 . S
C941 C940 1.349 . S
C941 C957 1.349 . S
C942 C940 1.327 . S
C942 C961 1.429 . S
C942 H966 0.950 . S
C943 C960 1.574 . S
C943 C962 1.368 . S
C943 H967 0.949 . S
H944 C948 0.949 . S
C945 C946 1.349 . S
C945 C947 1.327 . S
C945 H968 0.950 . S
C946 C945 1.349 . S
C946 C958 1.349 . S
C947 C945 1.327 . S
C947 C963 1.429 . S
C947 H969 0.950 . S
C948 H944 0.949 . S
C948 C956 1.574 . S
C948 C964 1.368 . S
H949 C957 0.950 . S
H950 C955 0.950 . S
H951 C956 0.949 . S
H952 C958 0.950 . S
H953 C959 0.950 . S
H954 C960 0.949 . S
C955 H950 0.950 . S
C955 C957 1.327 . S
C955 C961 1.429 . S
C956 C948 1.574 . S
C956 H951 0.949 . S
C956 C962 1.368 . S
C957 C941 1.349 . S
C957 H949 0.950 . S
C957 C955 1.327 . S
C958 C946 1.349 . S
C958 H952 0.950 . S
C958 C959 1.327 . S
C959 H953 0.950 . S
C959 C958 1.327 . S
C959 C963 1.429 . S
C960 C943 1.574 . S
C960 H954 0.949 . S
C960 C964 1.368 . S
C961 C942 1.429 . S
C961 C955 1.429 . S
C961 C962 1.523 . S
C962 C943 1.368 . S
C962 C956 1.368 . S
C962 C961 1.523 . S
C963 C947 1.429 . S
C963 C959 1.429 . S
C963 C964 1.523 . S
C964 C948 1.368 . S
C964 C960 1.368 . S
C964 C963 1.523 . S
H965 C940 0.950 . S
H966 C942 0.950 . S
H967 C943 0.949 . S
H968 C945 0.950 . S
H969 C947 0.950 . S
C970 C971 1.349 . S
C970 C972 1.327 . S
C970 H995 0.950 . S
C971 C970 1.349 . S
C971 C987 1.349 . S
C972 C970 1.327 . S
C972 C991 1.429 . S
C972 H996 0.950 . S
C973 C990 1.574 . S
C973 C992 1.368 . S
C973 H997 0.949 . S
H974 C978 0.949 . S
C975 C976 1.349 . S
C975 C977 1.327 . S
C975 H998 0.950 . S
C976 C975 1.349 . S
C976 C988 1.349 . S
C977 C975 1.327 . S
C977 C993 1.429 . S
C977 H999 0.950 . S
C978 H974 0.949 . S
C978 C986 1.574 . S
C978 C994 1.368 . S
H979 C987 0.950 . S
H980 C985 0.950 . S
H981 C986 0.949 . S
H982 C988 0.950 . S
H983 C989 0.950 . S
H984 C990 0.949 . S
C985 H980 0.950 . S
C985 C987 1.327 . S
C985 C991 1.429 . S
C986 C978 1.574 . S
C986 H981 0.949 . S
C986 C992 1.368 . S
C987 C971 1.349 . S
C987 H979 0.950 . S
C987 C985 1.327 . S
C988 C976 1.349 . S
C988 H982 0.950 . S
C988 C989 1.327 . S
C989 H983 0.950 . S
C989 C988 1.327 . S
C989 C993 1.429 . S
C990 C973 1.574 . S
C990 H984 0.949 . S
C990 C994 1.368 . S
C991 C972 1.429 . S
C991 C985 1.429 . S
C991 C992 1.523 . S
C992 C973 1.368 . S
C992 C986 1.368 . S
C992 C991 1.523 . S
C993 C977 1.429 . S
C993 C989 1.429 . S
C993 C994 1.523 . S
C994 C978 1.368 . S
C994 C990 1.368 . S
C994 C993 1.523 . S
H995 C970 0.950 . S
H996 C972 0.950 . S
H997 C973 0.949 . S
H998 C975 0.950 . S
H999 C977 0.950 . S
C1000 C1001 1.349 . S
C1000 C1002 1.327 . S
C1000 H1025 0.950 . S
C1001 C1000 1.349 . S
C1001 C1017 1.349 . S
C1002 C1000 1.327 . S
C1002 C1021 1.429 . S
C1002 H1026 0.950 . S
C1003 C1020 1.574 . S
C1003 C1022 1.368 . S
C1003 H1027 0.949 . S
H1004 C1008 0.949 . S
C1005 C1006 1.349 . S
C1005 C1007 1.327 . S
C1005 H1028 0.950 . S
C1006 C1005 1.349 . S
C1006 C1018 1.349 . S
C1007 C1005 1.327 . S
C1007 C1023 1.429 . S
C1007 H1029 0.950 . S
C1008 H1004 0.949 . S
C1008 C1016 1.574 . S
C1008 C1024 1.368 . S
H1009 C1017 0.950 . S
H1010 C1015 0.950 . S
H1011 C1016 0.949 . S
H1012 C1018 0.950 . S
H1013 C1019 0.950 . S
H1014 C1020 0.949 . S
C1015 H1010 0.950 . S
C1015 C1017 1.327 . S
C1015 C1021 1.429 . S
C1016 C1008 1.574 . S
C1016 H1011 0.949 . S
C1016 C1022 1.368 . S
C1017 C1001 1.349 . S
C1017 H1009 0.950 . S
C1017 C1015 1.327 . S
C1018 C1006 1.349 . S
C1018 H1012 0.950 . S
C1018 C1019 1.327 . S
C1019 H1013 0.950 . S
C1019 C1018 1.327 . S
C1019 C1023 1.429 . S
C1020 C1003 1.574 . S
C1020 H1014 0.949 . S
C1020 C1024 1.368 . S
C1021 C1002 1.429 . S
C1021 C1015 1.429 . S
C1021 C1022 1.523 . S
C1022 C1003 1.368 . S
C1022 C1016 1.368 . S
C1022 C1021 1.523 . S
C1023 C1007 1.429 . S
C1023 C1019 1.429 . S
C1023 C1024 1.523 . S
C1024 C1008 1.368 . S
C1024 C1020 1.368 . S
C1024 C1023 1.523 . S
H1025 C1000 0.950 . S
H1026 C1002 0.950 . S
H1027 C1003 0.949 . S
H1028 C1005 0.950 . S
H1029 C1007 0.950 . S
C1030 C1031 1.349 . S
C1030 C1032 1.327 . S
C1030 H1055 0.950 . S
C1031 C1030 1.349 . S
C1031 C1047 1.349 . S
C1032 C1030 1.327 . S
C1032 C1051 1.429 . S
C1032 H1056 0.950 . S
C1033 C1050 1.574 . S
C1033 C1052 1.368 . S
C1033 H1057 0.949 . S
H1034 C1038 0.949 . S
C1035 C1036 1.349 . S
C1035 C1037 1.327 . S
C1035 H1058 0.950 . S
C1036 C1035 1.349 . S
C1036 C1048 1.349 . S
C1037 C1035 1.327 . S
C1037 C1053 1.429 . S
C1037 H1059 0.950 . S
C1038 H1034 0.949 . S
C1038 C1046 1.574 . S
C1038 C1054 1.368 . S
H1039 C1047 0.950 . S
H1040 C1045 0.950 . S
H1041 C1046 0.949 . S
H1042 C1048 0.950 . S
H1043 C1049 0.950 . S
H1044 C1050 0.949 . S
C1045 H1040 0.950 . S
C1045 C1047 1.327 . S
C1045 C1051 1.429 . S
C1046 C1038 1.574 . S
C1046 H1041 0.949 . S
C1046 C1052 1.368 . S
C1047 C1031 1.349 . S
C1047 H1039 0.950 . S
C1047 C1045 1.327 . S
C1048 C1036 1.349 . S
C1048 H1042 0.950 . S
C1048 C1049 1.327 . S
C1049 H1043 0.950 . S
C1049 C1048 1.327 . S
C1049 C1053 1.429 . S
C1050 C1033 1.574 . S
C1050 H1044 0.949 . S
C1050 C1054 1.368 . S
C1051 C1032 1.429 . S
C1051 C1045 1.429 . S
C1051 C1052 1.523 . S
C1052 C1033 1.368 . S
C1052 C1046 1.368 . S
C1052 C1051 1.523 . S
C1053 C1037 1.429 . S
C1053 C1049 1.429 . S
C1053 C1054 1.523 . S
C1054 C1038 1.368 . S
C1054 C1050 1.368 . S
C1054 C1053 1.523 . S
H1055 C1030 0.950 . S
H1056 C1032 0.950 . S
H1057 C1033 0.949 . S
H1058 C1035 0.950 . S
H1059 C1037 0.950 . S
C1060 C1061 1.349 . S
C1060 C1062 1.327 . S
C1060 H1085 0.950 . S
C1061 C1060 1.349 . S
C1061 C1077 1.349 . S
C1062 C1060 1.327 . S
C1062 C1081 1.429 . S
C1062 H1086 0.950 . S
C1063 C1080 1.574 . S
C1063 C1082 1.368 . S
C1063 H1087 0.949 . S
H1064 C1068 0.949 . S
C1065 C1066 1.349 . S
C1065 C1067 1.327 . S
C1065 H1088 0.950 . S
C1066 C1065 1.349 . S
C1066 C1078 1.349 . S
C1067 C1065 1.327 . S
C1067 C1083 1.429 . S
C1067 H1089 0.950 . S
C1068 H1064 0.949 . S
C1068 C1076 1.574 . S
C1068 C1084 1.368 . S
H1069 C1077 0.950 . S
H1070 C1075 0.950 . S
H1071 C1076 0.949 . S
H1072 C1078 0.950 . S
H1073 C1079 0.950 . S
H1074 C1080 0.949 . S
C1075 H1070 0.950 . S
C1075 C1077 1.327 . S
C1075 C1081 1.429 . S
C1076 C1068 1.574 . S
C1076 H1071 0.949 . S
C1076 C1082 1.368 . S
C1077 C1061 1.349 . S
C1077 H1069 0.950 . S
C1077 C1075 1.327 . S
C1078 C1066 1.349 . S
C1078 H1072 0.950 . S
C1078 C1079 1.327 . S
C1079 H1073 0.950 . S
C1079 C1078 1.327 . S
C1079 C1083 1.429 . S
C1080 C1063 1.574 . S
C1080 H1074 0.949 . S
C1080 C1084 1.368 . S
C1081 C1062 1.429 . S
C1081 C1075 1.429 . S
C1081 C1082 1.523 . S
C1082 C1063 1.368 . S
C1082 C1076 1.368 . S
C1082 C1081 1.523 . S
C1083 C1067 1.429 . S
C1083 C1079 1.429 . S
C1083 C1084 1.523 . S
C1084 C1068 1.368 . S
C1084 C1080 1.368 . S
C1084 C1083 1.523 . S
H1085 C1060 0.950 . S
H1086 C1062 0.950 . S
H1087 C1063 0.949 . S
H1088 C1065 0.950 . S
H1089 C1067 0.950 . S
C1090 C1091 1.349 . S
C1090 C1092 1.327 . S
C1090 H1115 0.950 . S
C1091 C1090 1.349 . S
C1091 C1107 1.349 . S
C1092 C1090 1.327 . S
C1092 C1111 1.429 . S
C1092 H1116 0.950 . S
C1093 C1110 1.574 . S
C1093 C1112 1.368 . S
C1093 H1117 0.949 . S
H1094 C1098 0.949 . S
C1095 C1096 1.349 . S
C1095 C1097 1.327 . S
C1095 H1118 0.950 . S
C1096 C1095 1.349 . S
C1096 C1108 1.349 . S
C1097 C1095 1.327 . S
C1097 C1113 1.429 . S
C1097 H1119 0.950 . S
C1098 H1094 0.949 . S
C1098 C1106 1.574 . S
C1098 C1114 1.368 . S
H1099 C1107 0.950 . S
H1100 C1105 0.950 . S
H1101 C1106 0.949 . S
H1102 C1108 0.950 . S
H1103 C1109 0.950 . S
H1104 C1110 0.949 . S
C1105 H1100 0.950 . S
C1105 C1107 1.327 . S
C1105 C1111 1.429 . S
C1106 C1098 1.574 . S
C1106 H1101 0.949 . S
C1106 C1112 1.368 . S
C1107 C1091 1.349 . S
C1107 H1099 0.950 . S
C1107 C1105 1.327 . S
C1108 C1096 1.349 . S
C1108 H1102 0.950 . S
C1108 C1109 1.327 . S
C1109 H1103 0.950 . S
C1109 C1108 1.327 . S
C1109 C1113 1.429 . S
C1110 C1093 1.574 . S
C1110 H1104 0.949 . S
C1110 C1114 1.368 . S
C1111 C1092 1.429 . S
C1111 C1105 1.429 . S
C1111 C1112 1.523 . S
C1112 C1093 1.368 . S
C1112 C1106 1.368 . S
C1112 C1111 1.523 . S
C1113 C1097 1.429 . S
C1113 C1109 1.429 . S
C1113 C1114 1.523 . S
C1114 C1098 1.368 . S
C1114 C1110 1.368 . S
C1114 C1113 1.523 . S
H1115 C1090 0.950 . S
H1116 C1092 0.950 . S
H1117 C1093 0.949 . S
H1118 C1095 0.950 . S
H1119 C1097 0.950 . S
C1120 C1121 1.349 . S
C1120 C1122 1.327 . S
C1120 H1145 0.950 . S
C1121 C1120 1.349 . S
C1121 C1137 1.349 . S
C1122 C1120 1.327 . S
C1122 C1141 1.429 . S
C1122 H1146 0.950 . S
C1123 C1140 1.574 . S
C1123 C1142 1.368 . S
C1123 H1147 0.949 . S
H1124 C1128 0.949 . S
C1125 C1126 1.349 . S
C1125 C1127 1.327 . S
C1125 H1148 0.950 . S
C1126 C1125 1.349 . S
C1126 C1138 1.349 . S
C1127 C1125 1.327 . S
C1127 C1143 1.429 . S
C1127 H1149 0.950 . S
C1128 H1124 0.949 . S
C1128 C1136 1.574 . S
C1128 C1144 1.368 . S
H1129 C1137 0.950 . S
H1130 C1135 0.950 . S
H1131 C1136 0.949 . S
H1132 C1138 0.950 . S
H1133 C1139 0.950 . S
H1134 C1140 0.949 . S
C1135 H1130 0.950 . S
C1135 C1137 1.327 . S
C1135 C1141 1.429 . S
C1136 C1128 1.574 . S
C1136 H1131 0.949 . S
C1136 C1142 1.368 . S
C1137 C1121 1.349 . S
C1137 H1129 0.950 . S
C1137 C1135 1.327 . S
C1138 C1126 1.349 . S
C1138 H1132 0.950 . S
C1138 C1139 1.327 . S
C1139 H1133 0.950 . S
C1139 C1138 1.327 . S
C1139 C1143 1.429 . S
C1140 C1123 1.574 . S
C1140 H1134 0.949 . S
C1140 C1144 1.368 . S
C1141 C1122 1.429 . S
C1141 C1135 1.429 . S
C1141 C1142 1.523 . S
C1142 C1123 1.368 . S
C1142 C1136 1.368 . S
C1142 C1141 1.523 . S
C1143 C1127 1.429 . S
C1143 C1139 1.429 . S
C1143 C1144 1.523 . S
C1144 C1128 1.368 . S
C1144 C1140 1.368 . S
C1144 C1143 1.523 . S
H1145 C1120 0.950 . S
H1146 C1122 0.950 . S
H1147 C1123 0.949 . S
H1148 C1125 0.950 . S
H1149 C1127 0.950 . S
C1150 C1151 1.349 . S
C1150 C1152 1.327 . S
C1150 H1175 0.950 . S
C1151 C1150 1.349 . S
C1151 C1167 1.349 . S
C1152 C1150 1.327 . S
C1152 C1171 1.429 . S
C1152 H1176 0.950 . S
C1153 C1170 1.574 . S
C1153 C1172 1.368 . S
C1153 H1177 0.949 . S
H1154 C1158 0.949 . S
C1155 C1156 1.349 . S
C1155 C1157 1.327 . S
C1155 H1178 0.950 . S
C1156 C1155 1.349 . S
C1156 C1168 1.349 . S
C1157 C1155 1.327 . S
C1157 C1173 1.429 . S
C1157 H1179 0.950 . S
C1158 H1154 0.949 . S
C1158 C1166 1.574 . S
C1158 C1174 1.368 . S
H1159 C1167 0.950 . S
H1160 C1165 0.950 . S
H1161 C1166 0.949 . S
H1162 C1168 0.950 . S
H1163 C1169 0.950 . S
H1164 C1170 0.949 . S
C1165 H1160 0.950 . S
C1165 C1167 1.327 . S
C1165 C1171 1.429 . S
C1166 C1158 1.574 . S
C1166 H1161 0.949 . S
C1166 C1172 1.368 . S
C1167 C1151 1.349 . S
C1167 H1159 0.950 . S
C1167 C1165 1.327 . S
C1168 C1156 1.349 . S
C1168 H1162 0.950 . S
C1168 C1169 1.327 . S
C1169 H1163 0.950 . S
C1169 C1168 1.327 . S
C1169 C1173 1.429 . S
C1170 C1153 1.574 . S
C1170 H1164 0.949 . S
C1170 C1174 1.368 . S
C1171 C1152 1.429 . S
C1171 C1165 1.429 . S
C1171 C1172 1.523 . S
C1172 C1153 1.368 . S
C1172 C1166 1.368 . S
C1172 C1171 1.523 . S
C1173 C1157 1.429 . S
C1173 C1169 1.429 . S
C1173 C1174 1.523 . S
C1174 C1158 1.368 . S
C1174 C1170 1.368 . S
C1174 C1173 1.523 . S
H1175 C1150 0.950 . S
H1176 C1152 0.950 . S
H1177 C1153 0.949 . S
H1178 C1155 0.950 . S
H1179 C1157 0.950 . S
C1180 C1181 1.349 . S
C1180 C1182 1.327 . S
C1180 H1205 0.950 . S
C1181 C1180 1.349 . S
C1181 C1197 1.349 . S
C1182 C1180 1.327 . S
C1182 C1201 1.429 . S
C1182 H1206 0.950 . S
C1183 C1200 1.574 . S
C1183 C1202 1.368 . S
C1183 H1207 0.949 . S
H1184 C1188 0.949 . S
C1185 C1186 1.349 . S
C1185 C1187 1.327 . S
C1185 H1208 0.950 . S
C1186 C1185 1.349 . S
C1186 C1198 1.349 . S
C1187 C1185 1.327 . S
C1187 C1203 1.429 . S
C1187 H1209 0.950 . S
C1188 H1184 0.949 . S
C1188 C1196 1.574 . S
C1188 C1204 1.368 . S
H1189 C1197 0.950 . S
H1190 C1195 0.950 . S
H1191 C1196 0.949 . S
H1192 C1198 0.950 . S
H1193 C1199 0.950 . S
H1194 C1200 0.949 . S
C1195 H1190 0.950 . S
C1195 C1197 1.327 . S
C1195 C1201 1.429 . S
C1196 C1188 1.574 . S
C1196 H1191 0.949 . S
C1196 C1202 1.368 . S
C1197 C1181 1.349 . S
C1197 H1189 0.950 . S
C1197 C1195 1.327 . S
C1198 C1186 1.349 . S
C1198 H1192 0.950 . S
C1198 C1199 1.327 . S
C1199 H1193 0.950 . S
C1199 C1198 1.327 . S
C1199 C1203 1.429 . S
C1200 C1183 1.574 . S
C1200 H1194 0.949 . S
C1200 C1204 1.368 . S
C1201 C1182 1.429 . S
C1201 C1195 1.429 . S
C1201 C1202 1.523 . S
C1202 C1183 1.368 . S
C1202 C1196 1.368 . S
C1202 C1201 1.523 . S
C1203 C1187 1.429 . S
C1203 C1199 1.429 . S
C1203 C1204 1.523 . S
C1204 C1188 1.368 . S
C1204 C1200 1.368 . S
C1204 C1203 1.523 . S
H1205 C1180 0.950 . S
H1206 C1182 0.950 . S
H1207 C1183 0.949 . S
H1208 C1185 0.950 . S
H1209 C1187 0.950 . S
C1210 C1211 1.349 . S
C1210 C1212 1.327 . S
C1210 H1235 0.950 . S
C1211 C1210 1.349 . S
C1211 C1227 1.349 . S
C1212 C1210 1.327 . S
C1212 C1231 1.429 . S
C1212 H1236 0.950 . S
C1213 C1230 1.574 . S
C1213 C1232 1.368 . S
C1213 H1237 0.949 . S
H1214 C1218 0.949 . S
C1215 C1216 1.349 . S
C1215 C1217 1.327 . S
C1215 H1238 0.950 . S
C1216 C1215 1.349 . S
C1216 C1228 1.349 . S
C1217 C1215 1.327 . S
C1217 C1233 1.429 . S
C1217 H1239 0.950 . S
C1218 H1214 0.949 . S
C1218 C1226 1.574 . S
C1218 C1234 1.368 . S
H1219 C1227 0.950 . S
H1220 C1225 0.950 . S
H1221 C1226 0.949 . S
H1222 C1228 0.950 . S
H1223 C1229 0.950 . S
H1224 C1230 0.949 . S
C1225 H1220 0.950 . S
C1225 C1227 1.327 . S
C1225 C1231 1.429 . S
C1226 C1218 1.574 . S
C1226 H1221 0.949 . S
C1226 C1232 1.368 . S
C1227 C1211 1.349 . S
C1227 H1219 0.950 . S
C1227 C1225 1.327 . S
C1228 C1216 1.349 . S
C1228 H1222 0.950 . S
C1228 C1229 1.327 . S
C1229 H1223 0.950 . S
C1229 C1228 1.327 . S
C1229 C1233 1.429 . S
C1230 C1213 1.574 . S
C1230 H1224 0.949 . S
C1230 C1234 1.368 . S
C1231 C1212 1.429 . S
C1231 C1225 1.429 . S
C1231 C1232 1.523 . S
C1232 C1213 1.368 . S
C1232 C1226 1.368 . S
C1232 C1231 1.523 . S
C1233 C1217 1.429 . S
C1233 C1229 1.429 . S
C1233 C1234 1.523 . S
C1234 C1218 1.368 . S
C1234 C1230 1.368 . S
C1234 C1233 1.523 . S
H1235 C1210 0.950 . S
H1236 C1212 0.950 . S
H1237 C1213 0.949 . S
H1238 C1215 0.950 . S
H1239 C1217 0.950 . S
C1240 C1241 1.349 . S
C1240 C1242 1.327 . S
C1240 H1265 0.950 . S
C1241 C1240 1.349 . S
C1241 C1257 1.349 . S
C1242 C1240 1.327 . S
C1242 C1261 1.429 . S
C1242 H1266 0.950 . S
C1243 C1260 1.574 . S
C1243 C1262 1.368 . S
C1243 H1267 0.949 . S
H1244 C1248 0.949 . S
C1245 C1246 1.349 . S
C1245 C1247 1.327 . S
C1245 H1268 0.950 . S
C1246 C1245 1.349 . S
C1246 C1258 1.349 . S
C1247 C1245 1.327 . S
C1247 C1263 1.429 . S
C1247 H1269 0.950 . S
C1248 H1244 0.949 . S
C1248 C1256 1.574 . S
C1248 C1264 1.368 . S
H1249 C1257 0.950 . S
H1250 C1255 0.950 . S
H1251 C1256 0.949 . S
H1252 C1258 0.950 . S
H1253 C1259 0.950 . S
H1254 C1260 0.949 . S
C1255 H1250 0.950 . S
C1255 C1257 1.327 . S
C1255 C1261 1.429 . S
C1256 C1248 1.574 . S
C1256 H1251 0.949 . S
C1256 C1262 1.368 . S
C1257 C1241 1.349 . S
C1257 H1249 0.950 . S
C1257 C1255 1.327 . S
C1258 C1246 1.349 . S
C1258 H1252 0.950 . S
C1258 C1259 1.327 . S
C1259 H1253 0.950 . S
C1259 C1258 1.327 . S
C1259 C1263 1.429 . S
C1260 C1243 1.574 . S
C1260 H1254 0.949 . S
C1260 C1264 1.368 . S
C1261 C1242 1.429 . S
C1261 C1255 1.429 . S
C1261 C1262 1.523 . S
C1262 C1243 1.368 . S
C1262 C1256 1.368 . S
C1262 C1261 1.523 . S
C1263 C1247 1.429 . S
C1263 C1259 1.429 . S
C1263 C1264 1.523 . S
C1264 C1248 1.368 . S
C1264 C1260 1.368 . S
C1264 C1263 1.523 . S
H1265 C1240 0.950 . S
H1266 C1242 0.950 . S
H1267 C1243 0.949 . S
H1268 C1245 0.950 . S
H1269 C1247 0.950 . S
C1270 C1271 1.349 . S
C1270 C1272 1.327 . S
C1270 H1295 0.950 . S
C1271 C1270 1.349 . S
C1271 C1287 1.349 . S
C1272 C1270 1.327 . S
C1272 C1291 1.429 . S
C1272 H1296 0.950 . S
C1273 C1290 1.574 . S
C1273 C1292 1.368 . S
C1273 H1297 0.949 . S
H1274 C1278 0.949 . S
C1275 C1276 1.349 . S
C1275 C1277 1.327 . S
C1275 H1298 0.950 . S
C1276 C1275 1.349 . S
C1276 C1288 1.349 . S
C1277 C1275 1.327 . S
C1277 C1293 1.429 . S
C1277 H1299 0.950 . S
C1278 H1274 0.949 . S
C1278 C1286 1.574 . S
C1278 C1294 1.368 . S
H1279 C1287 0.950 . S
H1280 C1285 0.950 . S
H1281 C1286 0.949 . S
H1282 C1288 0.950 . S
H1283 C1289 0.950 . S
H1284 C1290 0.949 . S
C1285 H1280 0.950 . S
C1285 C1287 1.327 . S
C1285 C1291 1.429 . S
C1286 C1278 1.574 . S
C1286 H1281 0.949 . S
C1286 C1292 1.368 . S
C1287 C1271 1.349 . S
C1287 H1279 0.950 . S
C1287 C1285 1.327 . S
C1288 C1276 1.349 . S
C1288 H1282 0.950 . S
C1288 C1289 1.327 . S
C1289 H1283 0.950 . S
C1289 C1288 1.327 . S
C1289 C1293 1.429 . S
C1290 C1273 1.574 . S
C1290 H1284 0.949 . S
C1290 C1294 1.368 . S
C1291 C1272 1.429 . S
C1291 C1285 1.429 . S
C1291 C1292 1.523 . S
C1292 C1273 1.368 . S
C1292 C1286 1.368 . S
C1292 C1291 1.523 . S
C1293 C1277 1.429 . S
C1293 C1289 1.429 . S
C1293 C1294 1.523 . S
C1294 C1278 1.368 . S
C1294 C1290 1.368 . S
C1294 C1293 1.523 . S
H1295 C1270 0.950 . S
H1296 C1272 0.950 . S
H1297 C1273 0.949 . S
H1298 C1275 0.950 . S
H1299 C1277 0.950 . S
C1300 C1301 1.349 . S
C1300 C1302 1.327 . S
C1300 H1325 0.950 . S
C1301 C1300 1.349 . S
C1301 C1317 1.349 . S
C1302 C1300 1.327 . S
C1302 C1321 1.429 . S
C1302 H1326 0.950 . S
C1303 C1320 1.574 . S
C1303 C1322 1.368 . S
C1303 H1327 0.949 . S
H1304 C1308 0.949 . S
C1305 C1306 1.349 . S
C1305 C1307 1.327 . S
C1305 H1328 0.923 1_455 S
C1306 C1305 1.349 . S
C1306 C1318 1.349 . S
C1307 C1305 1.327 . S
C1307 C1323 1.429 . S
C1307 H1329 0.950 . S
C1308 H1304 0.949 . S
C1308 C1316 1.574 . S
C1308 C1324 1.368 . S
H1309 C1317 0.950 . S
H1310 C1315 0.950 . S
H1311 C1316 0.949 . S
H1312 C1318 0.950 . S
H1313 C1319 0.950 . S
H1314 C1320 0.949 . S
C1315 H1310 0.950 . S
C1315 C1317 1.327 . S
C1315 C1321 1.429 . S
C1316 C1308 1.574 . S
C1316 H1311 0.949 . S
C1316 C1322 1.368 . S
C1317 C1301 1.349 . S
C1317 H1309 0.950 . S
C1317 C1315 1.327 . S
C1318 C1306 1.349 . S
C1318 H1312 0.950 . S
C1318 C1319 1.327 . S
C1319 H1313 0.950 . S
C1319 C1318 1.327 . S
C1319 C1323 1.429 . S
C1320 C1303 1.574 . S
C1320 H1314 0.949 . S
C1320 C1324 1.368 . S
C1321 C1302 1.429 . S
C1321 C1315 1.429 . S
C1321 C1322 1.523 . S
C1322 C1303 1.368 . S
C1322 C1316 1.368 . S
C1322 C1321 1.523 . S
C1323 C1307 1.429 . S
C1323 C1319 1.429 . S
C1323 C1324 1.523 . S
C1324 C1308 1.368 . S
C1324 C1320 1.368 . S
C1324 C1323 1.523 . S
H1325 C1300 0.950 . S
H1326 C1302 0.950 . S
H1327 C1303 0.949 . S
H1328 C1305 0.923 1_655 S
H1329 C1307 0.950 . S
C1330 C1331 1.349 . S
C1330 C1332 1.327 . S
C1330 H1355 0.950 . S
C1331 C1330 1.349 . S
C1331 C1347 1.349 . S
C1332 C1330 1.327 . S
C1332 C1351 1.429 . S
C1332 H1356 0.950 . S
C1333 C1350 1.574 . S
C1333 C1352 1.368 . S
C1333 H1357 0.949 . S
H1334 C1338 0.949 . S
C1335 C1336 1.349 . S
C1335 C1337 1.327 . S
C1335 H1358 0.950 . S
C1336 C1335 1.349 . S
C1336 C1348 1.349 . S
C1337 C1335 1.327 . S
C1337 C1353 1.429 . S
C1337 H1359 0.950 . S
C1338 H1334 0.949 . S
C1338 C1346 1.574 . S
C1338 C1354 1.368 . S
H1339 C1347 0.950 . S
H1340 C1345 0.950 . S
H1341 C1346 0.949 . S
H1342 C1348 0.950 . S
H1343 C1349 0.950 . S
H1344 C1350 0.949 . S
C1345 H1340 0.950 . S
C1345 C1347 1.327 . S
C1345 C1351 1.429 . S
C1346 C1338 1.574 . S
C1346 H1341 0.949 . S
C1346 C1352 1.368 . S
C1347 C1331 1.349 . S
C1347 H1339 0.950 . S
C1347 C1345 1.327 . S
C1348 C1336 1.349 . S
C1348 H1342 0.950 . S
C1348 C1349 1.327 . S
C1349 H1343 0.950 . S
C1349 C1348 1.327 . S
C1349 C1353 1.429 . S
C1350 C1333 1.574 . S
C1350 H1344 0.949 . S
C1350 C1354 1.368 . S
C1351 C1332 1.429 . S
C1351 C1345 1.429 . S
C1351 C1352 1.523 . S
C1352 C1333 1.368 . S
C1352 C1346 1.368 . S
C1352 C1351 1.523 . S
C1353 C1337 1.429 . S
C1353 C1349 1.429 . S
C1353 C1354 1.523 . S
C1354 C1338 1.368 . S
C1354 C1350 1.368 . S
C1354 C1353 1.523 . S
H1355 C1330 0.950 . S
H1356 C1332 0.950 . S
H1357 C1333 0.949 . S
H1358 C1335 0.950 . S
H1359 C1337 0.950 . S
C641 C1 1.114 . S
C646 C497 1.186 . S
C671 C80 1.160 . S
C676 C537 1.186 . S
C706 C562 2.336 . S
C701 C140 2.348 . S
C731 C211 2.364 . S
C736 C602 2.336 . S
C766 C533 1.786 . S
C761 C31 1.658 . S
C796 C493 1.786 . S
C791 C61 1.731 . S
C826 C624 1.591 . S
C821 C151 1.558 . S
C856 C584 1.591 . S
C851 C200 1.604 . S
C881 C20 1.250 . S
C886 C626 1.288 . S
C916 C543 2.108 . S
C911 C121 2.130 . S
C941 C181 2.084 . S
C946 C503 2.108 . S
C971 C91 1.298 . S
C976 C586 1.288 . S
C1006 C506 1.186 . S
C1001 C260 1.143 . S
C1031 C320 1.160 . S
C1036 C546 1.186 . S
C1061 C361 2.361 . S
C1066 C583 2.336 . S
C1091 C451 2.364 . S
C1096 C623 2.336 . S
C1121 C271 1.693 . S
C1126 C544 1.786 . S
C1156 C504 1.786 . S
C1151 C301 1.731 . S
C1186 C613 1.591 . S
C1181 C380 1.561 . S
C1216 C573 1.591 . S
C1211 C440 1.604 . S
C1241 C241 1.198 . S
C1246 C617 1.288 . S
C1276 C522 2.108 . S
C1271 C391 2.141 . S
C1306 C482 2.108 . S
C1301 C421 2.083 . S
C1331 C331 1.298 . S
C1336 C577 1.288 . S
