# Generated by pormake.
# Topology anh, (6,3)-cn, num edge types: 1
# Building blocks:
#     Node 0, Type 0, BuildingBlock: BETFAJ_clean_sbu_0, # of connection points: 6
#     Node 1, Type 0, BuildingBlock: BETFAJ_clean_sbu_0, # of connection points: 6
#     Node 2, Type 0, BuildingBlock: BETFAJ_clean_sbu_0, # of connection points: 6
#     Node 3, Type 1, BuildingBlock: BETDIP_clean_linker_0, # of connection points: 3
#     Node 4, Type 1, BuildingBlock: BETDIP_clean_linker_0, # of connection points: 3
#     Node 5, Type 1, BuildingBlock: BETDIP_clean_linker_0, # of connection points: 3
#     Node 6, Type 1, BuildingBlock: BETDIP_clean_linker_0, # of connection points: 3
#     Node 7, Type 1, BuildingBlock: BETDIP_clean_linker_0, # of connection points: 3
#     Node 8, Type 1, BuildingBlock: BETDIP_clean_linker_0, # of connection points: 3
#     Edge 9, Type (0, 1), BuildingBlock: CIFDUS_clean_linker_0, # of connection points: 2
#     Edge 10, Type (0, 1), BuildingBlock: CIFDUS_clean_linker_0, # of connection points: 2
#     Edge 11, Type (0, 1), BuildingBlock: CIFDUS_clean_linker_0, # of connection points: 2
#     Edge 12, Type (0, 1), BuildingBlock: CIFDUS_clean_linker_0, # of connection points: 2
#     Edge 13, Type (0, 1), BuildingBlock: CIFDUS_clean_linker_0, # of connection points: 2
#     Edge 14, Type (0, 1), BuildingBlock: CIFDUS_clean_linker_0, # of connection points: 2
#     Edge 15, Type (0, 1), BuildingBlock: CIFDUS_clean_linker_0, # of connection points: 2
#     Edge 16, Type (0, 1), BuildingBlock: CIFDUS_clean_linker_0, # of connection points: 2
#     Edge 17, Type (0, 1), BuildingBlock: CIFDUS_clean_linker_0, # of connection points: 2
#     Edge 18, Type (0, 1), BuildingBlock: CIFDUS_clean_linker_0, # of connection points: 2
#     Edge 19, Type (0, 1), BuildingBlock: CIFDUS_clean_linker_0, # of connection points: 2
#     Edge 20, Type (0, 1), BuildingBlock: CIFDUS_clean_linker_0, # of connection points: 2
#     Edge 21, Type (0, 1), BuildingBlock: CIFDUS_clean_linker_0, # of connection points: 2
#     Edge 22, Type (0, 1), BuildingBlock: CIFDUS_clean_linker_0, # of connection points: 2
#     Edge 23, Type (0, 1), BuildingBlock: CIFDUS_clean_linker_0, # of connection points: 2
#     Edge 24, Type (0, 1), BuildingBlock: CIFDUS_clean_linker_0, # of connection points: 2
#     Edge 25, Type (0, 1), BuildingBlock: CIFDUS_clean_linker_0, # of connection points: 2
#     Edge 26, Type (0, 1), BuildingBlock: CIFDUS_clean_linker_0, # of connection points: 2
# Relax obj value: 0.182
# Max RMSD: 0.191
# Mean RMSD: 0.130
data_MOF--net-anh--node1-BETFAJ_clean_sbu_0--node2-BETDIP_clean_linker_0--edge1-CIFDUS_clean_linker_0
_symmetry_space_group_name_H-M    P1
_symmetry_Int_Tables_number       1
_symmetry_cell_setting            triclinic
loop_
_symmetry_equiv_pos_as_xyz
'x, y, z'
_cell_length_a     26.672742
_cell_length_b     34.233456
_cell_length_c     43.548721
_cell_angle_alpha  94.624971
_cell_angle_beta   88.930723
_cell_angle_gamma 130.92509
loop_
_atom_site_label
_atom_site_type_symbol
_atom_site_fract_x
_atom_site_fract_y
_atom_site_fract_z
_atom_type_partial_charge
Sm0 Sm 0.23547 0.60785 0.15035 0.0
Sm1 Sm 0.12588 0.60829 0.15983 0.0
C2 C 0.3373 0.61504 0.13499 0.0
C3 C 0.34868 0.57886 0.13655 0.0
C4 C 0.40541 0.59039 0.12428 0.0
C5 C 0.41438 0.55454 0.12441 0.0
C6 C 0.36657 0.50662 0.13681 0.0
C7 C 0.31044 0.49584 0.14974 0.0
C8 C 0.30162 0.53176 0.14963 0.0
C9 C 0.19951 0.59989 0.21044 0.0
C10 C 0.27078 0.71959 0.15989 0.0
C11 C 1.01769 0.59109 0.17695 0.0
C12 C 0.94651 0.54587 0.1714 0.0
C13 C 0.92312 0.49527 0.17141 0.0
C14 C 0.85752 0.45249 0.16213 0.0
C15 C 0.81389 0.45949 0.15303 0.0
C16 C 0.83642 0.50999 0.15431 0.0
C17 C 0.90246 0.55292 0.16326 0.0
C18 C 0.15804 0.61099 0.09908 0.0
C19 C 1.09067 0.49484 0.15165 0.0
O20 O 0.33454 0.63391 0.16163 0.0
O21 O 0.29044 0.60031 0.11509 0.0
O22 O 0.20638 0.63065 0.19294 0.0
O23 O 0.21275 0.57283 0.19657 0.0
O24 O 0.28564 0.69351 0.14476 0.0
O25 O 0.21316 0.6946 0.17291 0.0
O26 O 1.05114 0.5853 0.19467 0.0
O27 O 1.04948 0.61493 0.1526 0.0
O28 O 0.15276 0.5826 0.11793 0.0
O29 O 0.14432 0.63845 0.11177 0.0
O30 O 1.07032 0.52031 0.15993 0.0
O31 O 0.15237 0.5196 0.14398 0.0
H32 H 0.44203 0.62657 0.11406 0.0
H33 H 0.45754 0.56356 0.11376 0.0
H34 H 0.27301 0.45943 0.15956 0.0
H35 H 0.25757 0.52247 0.15933 0.0
H36 H 0.95585 0.48872 0.17792 0.0
H37 H 0.84103 0.41391 0.16174 0.0
H38 H 0.80369 0.51634 0.14725 0.0
H39 H 0.91963 0.59164 0.16297 0.0
Sm40 Sm 0.67788 0.06396 0.47612 0.0
Sm41 Sm 0.58369 0.08122 0.46183 0.0
C42 C 0.73836 0.03427 0.49925 0.0
C43 C 0.72159 0.98696 0.50938 0.0
C44 C 0.74033 0.9879 0.53949 0.0
C45 C 0.72631 0.94407 0.54959 0.0
C46 C 0.69364 0.89849 0.52967 0.0
C47 C 0.67449 0.89742 0.49954 0.0
C48 C 0.68807 0.94119 0.4895 0.0
C49 C 0.66261 0.06814 0.41465 0.0
C50 C 0.51644 0.96311 0.46386 0.0
C51 C 0.5274 0.11675 0.44303 0.0
C52 C 0.54768 0.16865 0.44849 0.0
C53 C 0.61429 0.21366 0.44607 0.0
C54 C 0.63613 0.26237 0.45667 0.0
C55 C 0.59175 0.2672 0.46983 0.0
C56 C 0.52424 0.22254 0.47054 0.0
C57 C 0.50246 0.17362 0.46006 0.0
C58 C 0.5969 0.07578 0.52324 0.0
C59 C 0.74685 0.18116 0.46674 0.0
O60 O 0.71813 0.05444 0.51627 0.0
O61 O 0.73273 0.03591 0.46972 0.0
O62 O 0.61641 0.0448 0.43321 0.0
O63 O 0.71923 0.08852 0.4279 0.0
O64 O 0.57238 0.98224 0.47871 0.0
O65 O 0.51166 0.99369 0.45024 0.0
O66 O 0.56504 0.11314 0.42565 0.0
O67 O 0.50959 0.09128 0.46747 0.0
O68 O 0.64455 0.10003 0.50532 0.0
O69 O 0.5413 0.05575 0.50922 0.0
O70 O 0.6869 0.16055 0.45685 0.0
O71 O 0.75736 0.15334 0.47959 0.0
H72 H 0.76629 0.02277 0.55519 0.0
H73 H 0.74224 0.94619 0.57282 0.0
H74 H 0.64862 0.86261 0.48382 0.0
H75 H 0.67253 0.93919 0.46621 0.0
H76 H 0.65023 0.21115 0.43717 0.0
H77 H 0.68825 0.29616 0.45544 0.0
H78 H 0.48898 0.22505 0.48074 0.0
H79 H 0.45095 0.13944 0.46232 0.0
Sm80 Sm 0.68543 0.58036 0.83717 0.0
Sm81 Sm 0.58973 0.46431 0.84056 0.0
C82 C 0.74956 0.67674 0.82347 0.0
C83 C 0.73655 0.71167 0.81904 0.0
C84 C 0.67249 0.6921 0.81121 0.0
C85 C 0.66183 0.72601 0.80582 0.0
C86 C 0.71503 0.78009 0.80825 0.0
C87 C 0.77883 0.79941 0.81677 0.0
C88 C 0.78942 0.76548 0.82207 0.0
C89 C 0.66598 0.54795 0.89551 0.0
C90 C 0.52447 0.51764 0.84567 0.0
C91 C 0.53056 0.36817 0.85251 0.0
C92 C 0.53318 0.32838 0.83971 0.0
C93 C 0.53356 0.2982 0.85954 0.0
C94 C 0.53966 0.26223 0.84778 0.0
C95 C 0.54503 0.25568 0.81595 0.0
C96 C 0.54483 0.28617 0.79621 0.0
C97 C 0.53933 0.32233 0.80798 0.0
C98 C 0.60487 0.49159 0.78144 0.0
C99 C 0.75346 0.52958 0.83975 0.0
O100 O 0.72288 0.63735 0.8027 0.0
O101 O 0.74652 0.66463 0.85155 0.0
O102 O 0.62239 0.52955 0.87454 0.0
O103 O 0.72398 0.58748 0.88673 0.0
O104 O 0.58047 0.55759 0.83396 0.0
O105 O 0.51988 0.47955 0.85507 0.0
O106 O 0.58484 0.40921 0.86721 0.0
O107 O 0.50346 0.37955 0.83472 0.0
O108 O 0.65199 0.51424 0.80154 0.0
O109 O 0.54949 0.45218 0.79194 0.0
O110 O 0.693 0.48756 0.84605 0.0
O111 O 0.76426 0.57103 0.83185 0.0
H112 H 0.63088 0.65066 0.80893 0.0
H113 H 0.61195 0.70987 0.79969 0.0
H114 H 0.82099 0.84073 0.81851 0.0
H115 H 0.83921 0.78129 0.82809 0.0
H116 H 0.52966 0.30279 0.88415 0.0
H117 H 0.53949 0.23919 0.8635 0.0
H118 H 0.55006 0.28266 0.77165 0.0
H119 H 0.54057 0.34592 0.79227 0.0
H120 H 0.62473 0.05778 0.14324 0.0
H121 H 0.74497 0.15549 0.2248 0.0
H122 H 0.57283 0.99547 0.23164 0.0
H123 H 0.82684 0.17924 0.1815 0.0
C124 C 0.80373 0.19124 0.16985 0.0
C125 C 0.63443 0.06281 0.16791 0.0
C126 C 0.59129 0.02063 0.18589 0.0
C127 C 0.69064 0.11148 0.18185 0.0
C128 C 0.7029 0.11778 0.2139 0.0
C129 C 0.65997 0.07639 0.2321 0.0
C130 C 0.60471 0.02809 0.21785 0.0
N131 N 0.73357 0.15447 0.16387 0.0
H132 H 0.66183 0.55576 0.51797 0.0
H133 H 0.69858 0.62666 0.61049 0.0
H134 H 0.66526 0.48578 0.59485 0.0
H135 H 0.64334 0.64871 0.5902 0.0
C136 C 0.66423 0.66026 0.56771 0.0
C137 C 0.66843 0.55609 0.5425 0.0
C138 C 0.66363 0.5165 0.55385 0.0
C139 C 0.67992 0.59549 0.56272 0.0
C140 C 0.68902 0.59625 0.59457 0.0
C141 C 0.68335 0.55659 0.60625 0.0
C142 C 0.67108 0.51708 0.58577 0.0
N143 N 0.68054 0.63308 0.55051 0.0
H144 H 0.11765 0.55339 0.82591 0.0
H145 H 0.22179 0.58551 0.91189 0.0
H146 H 1.06207 0.58677 0.911 0.0
H147 H 0.21055 0.51405 0.88558 0.0
C148 C 0.2375 0.53615 0.86603 0.0
C149 C 0.12492 0.56311 0.85063 0.0
C150 C 1.08323 0.56938 0.86663 0.0
C151 C 0.1742 0.56726 0.86705 0.0
C152 C 0.1829 0.58022 0.89919 0.0
C153 C 0.14351 0.58816 0.91504 0.0
C154 C 1.09369 0.582 0.89864 0.0
N155 N 0.21541 0.55919 0.85158 0.0
H156 H 0.21961 0.61915 0.48276 0.0
H157 H 0.12281 0.51425 0.40033 0.0
H158 H 0.28002 0.67733 0.39328 0.0
H159 H 1.03351 0.49369 0.4355 0.0
C160 C 1.0514 0.48275 0.45215 0.0
C161 C 0.21524 0.6123 0.45784 0.0
C162 C 0.25558 0.65442 0.43959 0.0
C163 C 0.166 0.56165 0.4437 0.0
C164 C 0.16017 0.55323 0.41129 0.0
C165 C 0.20082 0.59472 0.39296 0.0
C166 C 0.24815 0.64504 0.40732 0.0
N167 N 0.1199 0.51952 0.46174 0.0
H168 H 0.64831 0.05442 0.78762 0.0
H169 H 0.682 0.01783 0.69667 0.0
H170 H 0.6498 0.12514 0.70973 0.0
H171 H 0.61166 0.93629 0.71684 0.0
C172 C 0.63954 0.94719 0.73843 0.0
C173 C 0.65492 0.06038 0.76331 0.0
C174 C 0.64787 0.0935 0.7511 0.0
C175 C 0.66571 0.03195 0.74373 0.0
C176 C 0.67328 0.03918 0.71202 0.0
C177 C 0.66694 0.07241 0.69977 0.0
C178 C 0.6548 0.09956 0.7194 0.0
N179 N 0.66536 0.99438 0.75591 0.0
H180 H 0.41798 0.28204 0.09697 0.0
H181 H 0.50338 0.28751 0.01093 0.0
H182 H 0.53798 0.42257 0.05134 0.0
H183 H 0.46223 0.18104 0.05275 0.0
C184 C 0.47828 0.21837 0.0617 0.0
C185 C 0.44875 0.30362 0.07808 0.0
C186 C 0.47948 0.35595 0.07757 0.0
C187 C 0.46039 0.27983 0.05493 0.0
C188 C 0.49766 0.30697 0.02968 0.0
C189 C 0.52517 0.35846 0.02814 0.0
C190 C 0.51813 0.3832 0.05275 0.0
N191 N 0.43537 0.22876 0.0573 0.0
H192 H 0.47742 0.52017 0.14709 0.0
H193 H 0.26967 0.40329 0.11911 0.0
H194 H 0.28425 0.34113 0.10436 0.0
H195 H 0.36002 0.32568 0.09043 0.0
H196 H 0.56915 0.44493 0.11423 0.0
H197 H 0.55031 0.50032 0.13996 0.0
C198 C 0.43524 0.48087 0.13813 0.0
C199 C 0.37292 0.46664 0.13368 0.0
C200 C 0.44442 0.44587 0.12877 0.0
C201 C 0.31823 0.41525 0.12277 0.0
C202 C 0.32661 0.37976 0.1141 0.0
C203 C 0.40089 0.36302 0.10227 0.0
C204 C 0.46577 0.38161 0.10047 0.0
C205 C 0.38999 0.39535 0.11578 0.0
C206 C 0.51882 0.43021 0.11543 0.0
C207 C 0.50811 0.46192 0.12987 0.0
H208 H 0.87066 0.25544 0.49724 0.0
H209 H 0.74846 0.22952 0.42068 0.0
H210 H 0.8306 0.31964 0.41057 0.0
H211 H 0.93509 0.40635 0.42344 0.0
H212 H 1.06414 0.43638 0.49743 0.0
H213 H 0.98224 0.34466 0.50847 0.0
C214 C 0.86249 0.26964 0.47829 0.0
C215 C 0.80229 0.23583 0.46036 0.0
C216 C 0.91114 0.32235 0.47213 0.0
C217 C 0.7929 0.25479 0.43563 0.0
C218 C 0.84022 0.30642 0.42957 0.0
C219 C 0.94541 0.39287 0.44202 0.0
C220 C 1.0051 0.42797 0.45972 0.0
C221 C 0.89893 0.3406 0.44783 0.0
C222 C 1.01827 0.40997 0.48351 0.0
C223 C 0.97142 0.35755 0.48978 0.0
H224 H 0.64069 0.76808 0.76044 0.0
H225 H 0.76711 0.87368 0.83898 0.0
H226 H 0.75446 0.93472 0.825 0.0
H227 H 0.7091 0.95898 0.78956 0.0
H228 H 0.58366 0.85286 0.71096 0.0
H229 H 0.59359 0.79099 0.72607 0.0
C230 C 0.66473 0.80409 0.77478 0.0
C231 C 0.70472 0.81616 0.80074 0.0
C232 C 0.65749 0.83905 0.76655 0.0
C233 C 0.73653 0.86357 0.81869 0.0
C234 C 0.72914 0.89845 0.81078 0.0
C235 C 0.68374 0.92221 0.77588 0.0
C236 C 0.64562 0.91041 0.74917 0.0
C237 C 0.6901 0.8868 0.7846 0.0
C238 C 0.61328 0.86274 0.73161 0.0
C239 C 0.61894 0.82735 0.74022 0.0
H240 H 0.77853 0.38408 0.10887 0.0
H241 H 0.69774 0.43459 0.16982 0.0
H242 H 0.58562 0.36149 0.14851 0.0
H243 H 0.51149 0.28398 0.11246 0.0
H244 H 0.59211 0.23765 0.04803 0.0
H245 H 0.70362 0.30672 0.07199 0.0
C246 C 0.73618 0.37867 0.11763 0.0
C247 C 0.746 0.41438 0.14088 0.0
C248 C 0.67225 0.33722 0.10489 0.0
C249 C 0.69113 0.4076 0.15182 0.0
C250 C 0.6272 0.36581 0.13975 0.0
C251 C 0.55371 0.29004 0.10303 0.0
C252 C 0.54444 0.25749 0.07768 0.0
C253 C 0.61737 0.33076 0.11611 0.0
C254 C 0.59865 0.26303 0.06723 0.0
C255 C 0.6622 0.30256 0.0808 0.0
H256 H 0.50547 0.88495 0.48648 0.0
H257 H 0.39702 0.91305 0.43435 0.0
H258 H 0.30451 0.82037 0.42545 0.0
H259 H 0.25716 0.73121 0.42868 0.0
H260 H 0.36275 0.70015 0.47966 0.0
H261 H 0.45275 0.79377 0.49337 0.0
C262 C 0.46138 0.87079 0.4734 0.0
C263 C 0.4589 0.90628 0.46084 0.0
C264 C 0.40762 0.81681 0.46822 0.0
C265 C 0.401 0.88702 0.44412 0.0
C266 C 0.34774 0.83383 0.439 0.0
C267 C 0.29946 0.745 0.44323 0.0
C268 C 0.30367 0.70913 0.45309 0.0
C269 C 0.35097 0.79845 0.45044 0.0
C270 C 0.35838 0.72718 0.47202 0.0
C271 C 0.41001 0.78067 0.47956 0.0
H272 H 0.62511 0.2389 0.83697 0.0
H273 H 0.47756 0.18629 0.76572 0.0
H274 H 0.49254 0.1282 0.74113 0.0
H275 H 0.55201 0.09646 0.73789 0.0
H276 H 0.70253 0.14995 0.80747 0.0
H277 H 0.68057 0.20237 0.8353 0.0
C278 C 0.59563 0.21413 0.81632 0.0
C279 C 0.55078 0.21732 0.80298 0.0
C280 C 0.60498 0.18099 0.80206 0.0
C281 C 0.51317 0.18521 0.77613 0.0
C282 C 0.5215 0.15182 0.76213 0.0
C283 C 0.57999 0.11954 0.7592 0.0
C284 C 0.62953 0.12 0.77038 0.0
C285 C 0.5681 0.15017 0.77454 0.0
C286 C 0.66417 0.149 0.7984 0.0
C287 C 0.65193 0.17922 0.81416 0.0
H288 H 0.71539 0.83858 0.49916 0.0
H289 H 0.64342 0.85595 0.58415 0.0
H290 H 0.62709 0.78315 0.603 0.0
H291 H 0.63574 0.71593 0.59584 0.0
H292 H 0.70894 0.69892 0.51124 0.0
H293 H 0.72191 0.76992 0.49159 0.0
C294 C 0.69542 0.82599 0.52165 0.0
C295 C 0.68075 0.85264 0.54028 0.0
C296 C 0.68663 0.78434 0.53243 0.0
C297 C 0.65574 0.83639 0.56954 0.0
C298 C 0.64622 0.79471 0.58028 0.0
C299 C 0.65437 0.72777 0.57307 0.0
C300 C 0.67142 0.70241 0.55505 0.0
C301 C 0.66202 0.76871 0.56204 0.0
C302 C 0.69553 0.71792 0.52559 0.0
C303 C 0.70294 0.7585 0.51433 0.0
H304 H 0.8833 0.59571 0.81879 0.0
H305 H 0.7498 0.46172 0.87011 0.0
H306 H 0.83647 0.4588 0.87954 0.0
H307 H 0.95221 0.49653 0.87664 0.0
H308 H 1.08855 0.62931 0.82562 0.0
H309 H 0.99959 0.62971 0.81223 0.0
C310 C 0.87311 0.56577 0.8319 0.0
C311 C 0.80923 0.52916 0.84376 0.0
C312 C 0.92395 0.56367 0.83716 0.0
C313 C 0.79765 0.49052 0.86052 0.0
C314 C 0.84751 0.48867 0.86602 0.0
C315 C 0.96204 0.52472 0.86186 0.0
C316 C 1.02695 0.5623 0.85177 0.0
C317 C 0.91093 0.52517 0.85476 0.0
C318 C 1.03892 0.59918 0.83315 0.0
C319 C 0.98806 0.59982 0.82587 0.0
H320 H 0.38916 0.78587 0.13159 0.0
H321 H 0.26547 0.78375 0.19814 0.0
H322 H 0.35089 0.87738 0.20949 0.0
H323 H 0.46428 0.95896 0.20397 0.0
H324 H 0.5892 0.96274 0.1378 0.0
H325 H 0.49954 0.86996 0.12238 0.0
C326 C 0.38063 0.80594 0.14837 0.0
C327 C 0.32095 0.77738 0.1642 0.0
C328 C 0.43026 0.86028 0.15484 0.0
C329 C 0.31073 0.80435 0.18564 0.0
C330 C 0.35972 0.85807 0.19222 0.0
C331 C 0.47146 0.93959 0.18581 0.0
C332 C 0.53342 0.96762 0.17216 0.0
C333 C 0.42011 0.88626 0.17744 0.0
C334 C 0.54187 0.94217 0.1485 0.0
C335 C 0.49079 0.88898 0.13993 0.0
H336 H 0.54042 0.31428 0.46537 0.0
H337 H 0.69952 0.33313 0.50937 0.0
H338 H 0.73817 0.41347 0.53784 0.0
H339 H 0.72344 0.47602 0.55239 0.0
H340 H 0.56492 0.45807 0.50869 0.0
H341 H 0.52977 0.3802 0.47776 0.0
C342 C 0.58364 0.33616 0.48112 0.0
C343 C 0.61698 0.31776 0.48526 0.0
C344 C 0.6057 0.38248 0.49748 0.0
C345 C 0.67338 0.34673 0.50551 0.0
C346 C 0.69532 0.39254 0.52195 0.0
C347 C 0.6814 0.45513 0.53597 0.0
C348 C 0.64662 0.47254 0.53291 0.0
C349 C 0.66141 0.41042 0.51841 0.0
C350 C 0.59278 0.4456 0.51128 0.0
C351 C 0.57238 0.4009 0.49376 0.0
H352 H 0.49862 0.57713 0.82206 0.0
H353 H 0.41961 0.45446 0.88126 0.0
H354 H 0.32603 0.44949 0.8916 0.0
H355 H 0.26581 0.47966 0.88519 0.0
H356 H 0.33808 0.59972 0.82548 0.0
H357 H 0.43373 0.60572 0.81398 0.0
C358 C 0.4609 0.54929 0.83718 0.0
C359 C 0.46716 0.51623 0.85081 0.0
C360 C 0.40538 0.54596 0.84296 0.0
C361 C 0.417 0.48036 0.87023 0.0
C362 C 0.363 0.47743 0.87628 0.0
C363 C 0.3022 0.507 0.86944 0.0
C364 C 0.2943 0.53907 0.85622 0.0
C365 C 0.3566 0.50993 0.86289 0.0
C366 C 0.34226 0.57424 0.83589 0.0
C367 C 0.39727 0.57778 0.82943 0.0
H368 H 0.95434 0.42499 0.14656 0.0
H369 H 0.12323 0.43559 0.15881 0.0
H370 H 1.04923 0.34271 0.16434 0.0
H371 H 0.93685 0.25909 0.16842 0.0
H372 H 0.76694 0.24632 0.15444 0.0
H373 H 0.84059 0.33903 0.14681 0.0
C374 C 0.97487 0.40695 0.15046 0.0
C375 C 1.04441 0.43752 0.15263 0.0
C376 C 0.93177 0.35305 0.15335 0.0
C377 C 1.07008 0.41319 0.15702 0.0
C378 C 1.02775 0.36001 0.16031 0.0
C379 C 0.91599 0.27657 0.16341 0.0
C380 C 0.84664 0.24596 0.16209 0.0
C381 C 0.95861 0.32969 0.15888 0.0
C382 C 0.82015 0.26896 0.15547 0.0
C383 C 0.86233 0.32208 0.15127 0.0
H384 H 0.15724 0.66185 0.05474 0.0
H385 H 0.17048 0.54538 0.06826 0.0
H386 H 0.17113 0.52999 0.01248 0.0
H387 H 0.16108 0.546 0.95967 0.0
H388 H 0.14756 0.66245 0.94645 0.0
H389 H 0.15371 0.68135 0.00217 0.0
C390 C 0.16071 0.63336 0.04545 0.0
C391 C 0.1633 0.60454 0.06553 0.0
C392 C 0.16058 0.62446 0.01337 0.0
C393 C 0.16814 0.56792 0.05323 0.0
C394 C 0.16842 0.55905 0.02134 0.0
C395 C 0.1605 0.57603 0.96901 0.0
C396 C 0.15326 0.60242 0.94892 0.0
C397 C 0.16375 0.58659 0.00115 0.0
C398 C 0.15201 0.64096 0.96141 0.0
C399 C 0.15575 0.65194 -0.00673 0.0
H400 H 0.75548 0.11234 0.37129 0.0
H401 H 0.54617 0.02329 0.38378 0.0
H402 H 0.52743 0.01987 0.32857 0.0
H403 H 0.56993 0.0402 0.27666 0.0
H404 H 0.77872 0.12739 0.26366 0.0
H405 H 0.79849 0.13434 0.31921 0.0
C406 C 0.70585 0.09231 0.36188 0.0
C407 C 0.65222 0.06781 0.38146 0.0
C408 C 0.6954 0.09032 0.33008 0.0
C409 C 0.58819 0.04223 0.36909 0.0
C410 C 0.57745 0.04027 0.33755 0.0
C411 C 0.61974 0.0605 0.28596 0.0
C412 C 0.67268 0.08296 0.266 0.0
C413 C 0.63057 0.06376 0.31781 0.0
C414 C 0.73715 0.11009 0.27851 0.0
C415 C 0.74843 0.11378 0.31025 0.0
H416 H 0.70975 0.57409 0.75208 0.0
H417 H 0.51746 0.42059 0.73581 0.0
H418 H 0.52694 0.42644 0.68052 0.0
H419 H 0.58749 0.47518 0.63662 0.0
H420 H 0.77612 0.63075 0.65112 0.0
H421 H 0.77054 0.62443 0.70711 0.0
C422 C 0.67017 0.5421 0.73634 0.0
C423 C 0.61309 0.49703 0.74804 0.0
C424 C 0.6752 0.54607 0.70426 0.0
C425 C 0.56188 0.45583 0.72745 0.0
C426 C 0.56719 0.45901 0.69576 0.0
C427 C 0.62773 0.50745 0.65205 0.0
C428 C 0.68245 0.55303 0.63993 0.0
C429 C 0.62336 0.50391 0.68393 0.0
C430 C 0.73361 0.59515 0.6601 0.0
C431 C 0.73038 0.59152 0.69202 0.0
H432 H 0.70343 0.10403 0.55736 0.0
H433 H 0.50242 0.04368 0.56417 0.0
H434 H 0.50692 0.0377 0.61915 0.0
H435 H 0.56669 0.04848 0.66529 0.0
H436 H 0.76408 0.10196 0.65929 0.0
H437 H 0.7619 0.11033 0.60383 0.0
C438 C 0.66056 0.08909 0.57087 0.0
C439 C 0.60259 0.07404 0.55666 0.0
C440 C 0.66267 0.08415 0.60252 0.0
C441 C 0.54761 0.05542 0.57452 0.0
C442 C 0.55001 0.05187 0.60598 0.0
C443 C 0.60918 0.06195 0.65175 0.0
C444 C 0.66563 0.07505 0.66612 0.0
C445 C 0.60705 0.06591 0.62016 0.0
C446 C 0.72014 0.09172 0.6485 0.0
C447 C 0.71894 0.0967 0.61693 0.0
H448 H 0.55518 0.45188 0.90532 0.0
H449 H 0.74833 0.58137 0.94668 0.0
H450 H 0.72426 0.53251 -0.0087 0.0
H451 H 0.64491 0.45316 0.01899 0.0
H452 H 0.45863 0.32128 0.97302 0.0
H453 H 0.48512 0.36985 0.92849 0.0
C454 C 0.59281 0.46917 0.92372 0.0
C455 C 0.65354 0.52001 0.92269 0.0
C456 C 0.58022 0.43996 0.94805 0.0
C457 C 0.70115 0.54222 0.94704 0.0
C458 C 0.68751 0.5142 0.97238 0.0
C459 C 0.61117 0.43485 -0.00118 0.0
C460 C 0.55 0.38378 -0.00089 0.0
C461 C 0.62699 0.46299 0.97314 0.0
C462 C 0.5063 0.36027 0.97305 0.0
C463 C 0.52098 0.38825 0.94782 0.0
H464 H 0.18765 0.53794 0.25018 0.0
H465 H 0.1964 0.66775 0.24595 0.0
H466 H 0.19483 0.67627 0.30227 0.0
H467 H 0.19652 0.64934 0.35271 0.0
H468 H 0.18897 0.52004 0.35665 0.0
H469 H 0.1837 0.50833 0.30034 0.0
C470 C 0.18883 0.56791 0.26159 0.0
C471 C 0.1928 0.60251 0.24406 0.0
C472 C 0.18825 0.57268 0.29387 0.0
C473 C 0.19364 0.64083 0.25904 0.0
C474 C 0.19289 0.64577 0.2912 0.0
C475 C 0.19387 0.61869 0.3412 0.0
C476 C 0.19374 0.58588 0.3588 0.0
C477 C 0.19126 0.61241 0.30885 0.0
C478 C 0.18888 0.54564 0.34362 0.0
C479 C 0.1862 0.5391 0.31144 0.0
loop_
_geom_bond_atom_site_label_1
_geom_bond_atom_site_label_2
_geom_bond_distance
_geom_bond_site_symmetry_2
_ccdc_geom_bond_type
Sm0 C2 2.846 . S
Sm0 O20 2.543 . S
Sm0 O21 2.450 . S
Sm0 O22 2.681 . S
Sm0 O23 2.464 . S
Sm0 O24 2.396 . S
Sm0 O28 2.386 . S
Sm0 O31 2.408 1_455 S
Sm1 C11 2.846 1_455 S
Sm1 O22 2.386 . S
Sm1 O25 2.408 . S
Sm1 O26 2.543 1_455 S
Sm1 O27 2.450 1_455 S
Sm1 O28 2.681 . S
Sm1 O29 2.464 . S
Sm1 O30 2.396 1_455 S
C2 Sm0 2.846 . S
C2 C3 1.506 . S
C2 O20 1.261 . S
C2 O21 1.242 . S
C3 C2 1.506 . S
C3 C4 1.358 . S
C3 C8 1.382 . S
C4 C3 1.358 . S
C4 C5 1.385 . S
C4 H32 0.930 . S
C5 C4 1.385 . S
C5 C6 1.395 . S
C5 H33 0.929 . S
C6 C5 1.395 . S
C6 C7 1.335 . S
C7 C6 1.335 . S
C7 C8 1.398 . S
C7 H34 0.930 . S
C8 C3 1.382 . S
C8 C7 1.398 . S
C8 H35 0.929 . S
C9 O22 1.271 . S
C9 O23 1.251 . S
C10 O24 1.252 . S
C10 O25 1.272 . S
C11 Sm1 2.846 1_655 S
C11 C12 1.506 . S
C11 O26 1.261 . S
C11 O27 1.242 . S
C12 C11 1.506 . S
C12 C13 1.358 . S
C12 C17 1.382 . S
C13 C12 1.358 . S
C13 C14 1.385 . S
C13 H36 0.930 . S
C14 C13 1.385 . S
C14 C15 1.395 . S
C14 H37 0.929 . S
C15 C14 1.395 . S
C15 C16 1.335 . S
C16 C15 1.335 . S
C16 C17 1.398 . S
C16 H38 0.930 . S
C17 C12 1.382 . S
C17 C16 1.398 . S
C17 H39 0.929 . S
C18 O28 1.271 . S
C18 O29 1.251 . S
C19 O30 1.252 . S
C19 O31 1.272 . S
O20 Sm0 2.543 . S
O20 C2 1.261 . S
O21 Sm0 2.450 . S
O21 C2 1.242 . S
O22 Sm0 2.681 . S
O22 Sm1 2.386 . S
O22 C9 1.271 . S
O23 Sm0 2.464 . S
O23 C9 1.251 . S
O24 Sm0 2.396 . S
O24 C10 1.252 . S
O25 Sm1 2.408 . S
O25 C10 1.272 . S
O26 Sm1 2.543 1_655 S
O26 C11 1.261 . S
O27 Sm1 2.450 1_655 S
O27 C11 1.242 . S
O28 Sm0 2.386 . S
O28 Sm1 2.681 . S
O28 C18 1.271 . S
O29 Sm1 2.464 . S
O29 C18 1.251 . S
O30 Sm1 2.396 1_655 S
O30 C19 1.252 . S
O31 Sm0 2.408 1_655 S
O31 C19 1.272 . S
H32 C4 0.930 . S
H33 C5 0.929 . S
H34 C7 0.930 . S
H35 C8 0.929 . S
H36 C13 0.930 . S
H37 C14 0.929 . S
H38 C16 0.930 . S
H39 C17 0.929 . S
Sm40 C42 2.846 1_545 S
Sm40 O60 2.543 1_545 S
Sm40 O61 2.450 1_545 S
Sm40 O62 2.681 . S
Sm40 O63 2.464 . S
Sm40 O64 2.396 1_545 S
Sm40 O68 2.386 . S
Sm40 O71 2.408 . S
Sm41 C51 2.846 . S
Sm41 O62 2.386 . S
Sm41 O65 2.408 1_545 S
Sm41 O66 2.543 . S
Sm41 O67 2.450 . S
Sm41 O68 2.681 . S
Sm41 O69 2.464 . S
Sm41 O70 2.396 . S
C42 Sm40 2.846 1_565 S
C42 C43 1.506 . S
C42 O60 1.261 . S
C42 O61 1.242 . S
C43 C42 1.506 . S
C43 C44 1.358 . S
C43 C48 1.382 . S
C44 C43 1.358 . S
C44 C45 1.385 . S
C44 H72 0.930 . S
C45 C44 1.385 . S
C45 C46 1.395 . S
C45 H73 0.929 . S
C46 C45 1.395 . S
C46 C47 1.335 . S
C47 C46 1.335 . S
C47 C48 1.398 . S
C47 H74 0.930 . S
C48 C43 1.382 . S
C48 C47 1.398 . S
C48 H75 0.929 . S
C49 O62 1.271 . S
C49 O63 1.251 . S
C50 O64 1.252 . S
C50 O65 1.272 . S
C51 Sm41 2.846 . S
C51 C52 1.506 . S
C51 O66 1.261 . S
C51 O67 1.242 . S
C52 C51 1.506 . S
C52 C53 1.358 . S
C52 C57 1.382 . S
C53 C52 1.358 . S
C53 C54 1.385 . S
C53 H76 0.930 . S
C54 C53 1.385 . S
C54 C55 1.395 . S
C54 H77 0.929 . S
C55 C54 1.395 . S
C55 C56 1.335 . S
C56 C55 1.335 . S
C56 C57 1.398 . S
C56 H78 0.930 . S
C57 C52 1.382 . S
C57 C56 1.398 . S
C57 H79 0.929 . S
C58 O68 1.271 . S
C58 O69 1.251 . S
C59 O70 1.252 . S
C59 O71 1.272 . S
O60 Sm40 2.543 1_565 S
O60 C42 1.261 . S
O61 Sm40 2.450 1_565 S
O61 C42 1.242 . S
O62 Sm40 2.681 . S
O62 Sm41 2.386 . S
O62 C49 1.271 . S
O63 Sm40 2.464 . S
O63 C49 1.251 . S
O64 Sm40 2.396 1_565 S
O64 C50 1.252 . S
O65 Sm41 2.408 1_565 S
O65 C50 1.272 . S
O66 Sm41 2.543 . S
O66 C51 1.261 . S
O67 Sm41 2.450 . S
O67 C51 1.242 . S
O68 Sm40 2.386 . S
O68 Sm41 2.681 . S
O68 C58 1.271 . S
O69 Sm41 2.464 . S
O69 C58 1.251 . S
O70 Sm41 2.396 . S
O70 C59 1.252 . S
O71 Sm40 2.408 . S
O71 C59 1.272 . S
H72 C44 0.930 . S
H73 C45 0.929 . S
H74 C47 0.930 . S
H75 C48 0.929 . S
H76 C53 0.930 . S
H77 C54 0.929 . S
H78 C56 0.930 . S
H79 C57 0.929 . S
Sm80 C82 2.846 . S
Sm80 O100 2.543 . S
Sm80 O101 2.450 . S
Sm80 O102 2.681 . S
Sm80 O103 2.464 . S
Sm80 O104 2.396 . S
Sm80 O108 2.386 . S
Sm80 O111 2.408 . S
Sm81 C91 2.846 . S
Sm81 O102 2.386 . S
Sm81 O105 2.408 . S
Sm81 O106 2.543 . S
Sm81 O107 2.450 . S
Sm81 O108 2.681 . S
Sm81 O109 2.464 . S
Sm81 O110 2.396 . S
C82 Sm80 2.846 . S
C82 C83 1.506 . S
C82 O100 1.261 . S
C82 O101 1.242 . S
C83 C82 1.506 . S
C83 C84 1.358 . S
C83 C88 1.382 . S
C84 C83 1.358 . S
C84 C85 1.385 . S
C84 H112 0.930 . S
C85 C84 1.385 . S
C85 C86 1.395 . S
C85 H113 0.929 . S
C86 C85 1.395 . S
C86 C87 1.335 . S
C87 C86 1.335 . S
C87 C88 1.398 . S
C87 H114 0.930 . S
C88 C83 1.382 . S
C88 C87 1.398 . S
C88 H115 0.929 . S
C89 O102 1.271 . S
C89 O103 1.251 . S
C90 O104 1.252 . S
C90 O105 1.272 . S
C91 Sm81 2.846 . S
C91 C92 1.506 . S
C91 O106 1.261 . S
C91 O107 1.242 . S
C92 C91 1.506 . S
C92 C93 1.358 . S
C92 C97 1.382 . S
C93 C92 1.358 . S
C93 C94 1.385 . S
C93 H116 0.930 . S
C94 C93 1.385 . S
C94 C95 1.395 . S
C94 H117 0.929 . S
C95 C94 1.395 . S
C95 C96 1.335 . S
C96 C95 1.335 . S
C96 C97 1.398 . S
C96 H118 0.930 . S
C97 C92 1.382 . S
C97 C96 1.398 . S
C97 H119 0.929 . S
C98 O108 1.271 . S
C98 O109 1.251 . S
C99 O110 1.252 . S
C99 O111 1.272 . S
O100 Sm80 2.543 . S
O100 C82 1.261 . S
O101 Sm80 2.450 . S
O101 C82 1.242 . S
O102 Sm80 2.681 . S
O102 Sm81 2.386 . S
O102 C89 1.271 . S
O103 Sm80 2.464 . S
O103 C89 1.251 . S
O104 Sm80 2.396 . S
O104 C90 1.252 . S
O105 Sm81 2.408 . S
O105 C90 1.272 . S
O106 Sm81 2.543 . S
O106 C91 1.261 . S
O107 Sm81 2.450 . S
O107 C91 1.242 . S
O108 Sm80 2.386 . S
O108 Sm81 2.681 . S
O108 C98 1.271 . S
O109 Sm81 2.464 . S
O109 C98 1.251 . S
O110 Sm81 2.396 . S
O110 C99 1.252 . S
O111 Sm80 2.408 . S
O111 C99 1.272 . S
H112 C84 0.930 . S
H113 C85 0.929 . S
H114 C87 0.930 . S
H115 C88 0.929 . S
H116 C93 0.930 . S
H117 C94 0.929 . S
H118 C96 0.930 . S
H119 C97 0.929 . S
H120 C125 0.930 . S
H121 C128 0.930 . S
H122 C130 0.930 . S
H123 C124 1.016 . S
C124 H123 1.016 . S
C124 N131 1.286 . S
C125 H120 0.930 . S
C125 C126 1.397 1_545 S
C125 C127 1.361 . S
C126 C125 1.397 1_565 S
C126 C130 1.390 . S
C127 C125 1.361 . S
C127 C128 1.393 . S
C127 N131 1.413 . S
C128 H121 0.930 . S
C128 C127 1.393 . S
C128 C129 1.399 . S
C129 C128 1.399 . S
C129 C130 1.381 1_545 S
C130 H122 0.930 . S
C130 C126 1.390 . S
C130 C129 1.381 1_565 S
N131 C124 1.286 . S
N131 C127 1.413 . S
H132 C137 0.930 . S
H133 C140 0.930 . S
H134 C142 0.930 . S
H135 C136 1.016 . S
C136 H135 1.016 . S
C136 N143 1.286 . S
C137 H132 0.930 . S
C137 C138 1.397 . S
C137 C139 1.361 . S
C138 C137 1.397 . S
C138 C142 1.390 . S
C139 C137 1.361 . S
C139 C140 1.393 . S
C139 N143 1.413 . S
C140 H133 0.930 . S
C140 C139 1.393 . S
C140 C141 1.399 . S
C141 C140 1.399 . S
C141 C142 1.381 . S
C142 H134 0.930 . S
C142 C138 1.390 . S
C142 C141 1.381 . S
N143 C136 1.286 . S
N143 C139 1.413 . S
H144 C149 0.930 1_655 S
H145 C152 0.930 . S
H146 C154 0.930 . S
H147 C148 1.016 . S
C148 H147 1.016 . S
C148 N155 1.286 . S
C149 H144 0.930 1_455 S
C149 C150 1.397 1_455 S
C149 C151 1.361 . S
C150 C149 1.397 1_655 S
C150 C154 1.390 . S
C151 C149 1.361 . S
C151 C152 1.393 . S
C151 N155 1.413 . S
C152 H145 0.930 . S
C152 C151 1.393 . S
C152 C153 1.399 . S
C153 C152 1.399 . S
C153 C154 1.381 1_455 S
C154 H146 0.930 . S
C154 C150 1.390 . S
C154 C153 1.381 1_655 S
N155 C148 1.286 . S
N155 C151 1.413 . S
H156 C161 0.930 . S
H157 C164 0.930 . S
H158 C166 0.930 . S
H159 C160 1.016 . S
C160 H159 1.016 . S
C160 N167 1.286 . S
C161 H156 0.930 . S
C161 C162 1.397 . S
C161 C163 1.361 1_455 S
C162 C161 1.397 . S
C162 C166 1.390 . S
C163 C161 1.361 1_655 S
C163 C164 1.393 . S
C163 N167 1.413 . S
C164 H157 0.930 . S
C164 C163 1.393 . S
C164 C165 1.399 1_655 S
C165 C164 1.399 1_455 S
C165 C166 1.381 . S
C166 H158 0.930 . S
C166 C162 1.390 . S
C166 C165 1.381 . S
N167 C160 1.286 . S
N167 C163 1.413 . S
H168 C173 0.930 . S
H169 C176 0.911 1_565 S
H170 C178 0.930 . S
H171 C172 1.016 . S
C172 H171 1.016 . S
C172 N179 1.286 . S
C173 H168 0.930 . S
C173 C174 1.397 . S
C173 C175 1.361 . S
C174 C173 1.397 . S
C174 C178 1.390 . S
C175 C173 1.361 . S
C175 C176 1.394 . S
C175 N179 1.413 1_545 S
C176 H169 0.911 1_545 S
C176 C175 1.394 . S
C176 C177 1.417 . S
C177 C176 1.417 . S
C177 C178 1.381 . S
C178 H170 0.930 . S
C178 C174 1.390 . S
C178 C177 1.381 . S
N179 C172 1.286 . S
N179 C175 1.413 1_565 S
H180 C185 0.930 . S
H181 C188 0.930 . S
H182 C190 0.930 . S
H183 C184 1.016 . S
C184 H183 1.016 . S
C184 N191 1.286 . S
C185 H180 0.930 . S
C185 C186 1.397 . S
C185 C187 1.361 . S
C186 C185 1.397 . S
C186 C190 1.390 . S
C187 C185 1.361 . S
C187 C188 1.393 . S
C187 N191 1.413 . S
C188 H181 0.930 . S
C188 C187 1.393 . S
C188 C189 1.399 . S
C189 C188 1.399 . S
C189 C190 1.381 . S
C190 H182 0.930 . S
C190 C186 1.390 . S
C190 C189 1.381 . S
N191 C184 1.286 . S
N191 C187 1.413 . S
H192 C198 0.930 . S
H193 C201 0.930 . S
H194 C202 0.930 . S
H195 C203 0.930 . S
H196 C206 0.930 . S
H197 C207 0.930 . S
C198 H192 0.930 . S
C198 C199 1.355 . S
C198 C200 1.415 . S
C199 C198 1.355 . S
C199 C201 1.419 . S
C200 C198 1.415 . S
C200 C205 1.425 . S
C200 C207 1.409 . S
C201 H193 0.930 . S
C201 C199 1.419 . S
C201 C202 1.362 . S
C202 H194 0.930 . S
C202 C201 1.362 . S
C202 C205 1.409 . S
C203 H195 0.930 . S
C203 C204 1.355 . S
C203 C205 1.415 . S
C204 C203 1.355 . S
C204 C206 1.419 . S
C205 C200 1.425 . S
C205 C202 1.409 . S
C205 C203 1.415 . S
C206 H196 0.930 . S
C206 C204 1.419 . S
C206 C207 1.362 . S
C207 H197 0.930 . S
C207 C200 1.409 . S
C207 C206 1.362 . S
H208 C214 0.930 . S
H209 C217 0.930 . S
H210 C218 0.930 . S
H211 C219 0.930 . S
H212 C222 0.930 . S
H213 C223 0.930 . S
C214 H208 0.930 . S
C214 C215 1.355 . S
C214 C216 1.415 . S
C215 C214 1.355 . S
C215 C217 1.419 . S
C216 C214 1.415 . S
C216 C221 1.425 . S
C216 C223 1.409 . S
C217 H209 0.930 . S
C217 C215 1.419 . S
C217 C218 1.362 . S
C218 H210 0.930 . S
C218 C217 1.362 . S
C218 C221 1.409 . S
C219 H211 0.930 . S
C219 C220 1.355 . S
C219 C221 1.415 . S
C220 C219 1.355 . S
C220 C222 1.419 . S
C221 C216 1.425 . S
C221 C218 1.409 . S
C221 C219 1.415 . S
C222 H212 0.930 . S
C222 C220 1.419 . S
C222 C223 1.362 . S
C223 H213 0.930 . S
C223 C216 1.409 . S
C223 C222 1.362 . S
H224 C230 0.930 . S
H225 C233 0.930 . S
H226 C234 0.930 . S
H227 C235 0.930 . S
H228 C238 0.930 . S
H229 C239 0.930 . S
C230 H224 0.930 . S
C230 C231 1.355 . S
C230 C232 1.415 . S
C231 C230 1.355 . S
C231 C233 1.419 . S
C232 C230 1.415 . S
C232 C237 1.425 . S
C232 C239 1.409 . S
C233 H225 0.930 . S
C233 C231 1.419 . S
C233 C234 1.362 . S
C234 H226 0.930 . S
C234 C233 1.362 . S
C234 C237 1.409 . S
C235 H227 0.930 . S
C235 C236 1.355 . S
C235 C237 1.415 . S
C236 C235 1.355 . S
C236 C238 1.419 . S
C237 C232 1.425 . S
C237 C234 1.409 . S
C237 C235 1.415 . S
C238 H228 0.930 . S
C238 C236 1.419 . S
C238 C239 1.362 . S
C239 H229 0.930 . S
C239 C232 1.409 . S
C239 C238 1.362 . S
H240 C246 0.930 . S
H241 C249 0.930 . S
H242 C250 0.930 . S
H243 C251 0.930 . S
H244 C254 0.930 . S
H245 C255 0.930 . S
C246 H240 0.930 . S
C246 C247 1.355 . S
C246 C248 1.415 . S
C247 C246 1.355 . S
C247 C249 1.419 . S
C248 C246 1.415 . S
C248 C253 1.425 . S
C248 C255 1.409 . S
C249 H241 0.930 . S
C249 C247 1.419 . S
C249 C250 1.362 . S
C250 H242 0.930 . S
C250 C249 1.362 . S
C250 C253 1.409 . S
C251 H243 0.930 . S
C251 C252 1.355 . S
C251 C253 1.415 . S
C252 C251 1.355 . S
C252 C254 1.419 . S
C253 C248 1.425 . S
C253 C250 1.409 . S
C253 C251 1.415 . S
C254 H244 0.930 . S
C254 C252 1.419 . S
C254 C255 1.362 . S
C255 H245 0.930 . S
C255 C248 1.409 . S
C255 C254 1.362 . S
H256 C262 0.930 . S
H257 C265 0.930 . S
H258 C266 0.930 . S
H259 C267 0.930 . S
H260 C270 0.930 . S
H261 C271 0.930 . S
C262 H256 0.930 . S
C262 C263 1.355 . S
C262 C264 1.415 . S
C263 C262 1.355 . S
C263 C265 1.419 . S
C264 C262 1.415 . S
C264 C269 1.425 . S
C264 C271 1.409 . S
C265 H257 0.930 . S
C265 C263 1.419 . S
C265 C266 1.362 . S
C266 H258 0.930 . S
C266 C265 1.362 . S
C266 C269 1.409 . S
C267 H259 0.930 . S
C267 C268 1.355 . S
C267 C269 1.415 . S
C268 C267 1.355 . S
C268 C270 1.419 . S
C269 C264 1.425 . S
C269 C266 1.409 . S
C269 C267 1.415 . S
C270 H260 0.930 . S
C270 C268 1.419 . S
C270 C271 1.362 . S
C271 H261 0.930 . S
C271 C264 1.409 . S
C271 C270 1.362 . S
H272 C278 0.930 . S
H273 C281 0.930 . S
H274 C282 0.930 . S
H275 C283 0.930 . S
H276 C286 0.930 . S
H277 C287 0.930 . S
C278 H272 0.930 . S
C278 C279 1.355 . S
C278 C280 1.415 . S
C279 C278 1.355 . S
C279 C281 1.419 . S
C280 C278 1.415 . S
C280 C285 1.425 . S
C280 C287 1.409 . S
C281 H273 0.930 . S
C281 C279 1.419 . S
C281 C282 1.362 . S
C282 H274 0.930 . S
C282 C281 1.362 . S
C282 C285 1.409 . S
C283 H275 0.930 . S
C283 C284 1.355 . S
C283 C285 1.415 . S
C284 C283 1.355 . S
C284 C286 1.419 . S
C285 C280 1.425 . S
C285 C282 1.409 . S
C285 C283 1.415 . S
C286 H276 0.930 . S
C286 C284 1.419 . S
C286 C287 1.362 . S
C287 H277 0.930 . S
C287 C280 1.409 . S
C287 C286 1.362 . S
H288 C294 0.930 . S
H289 C297 0.930 . S
H290 C298 0.930 . S
H291 C299 0.930 . S
H292 C302 0.930 . S
H293 C303 0.930 . S
C294 H288 0.930 . S
C294 C295 1.355 . S
C294 C296 1.415 . S
C295 C294 1.355 . S
C295 C297 1.419 . S
C296 C294 1.415 . S
C296 C301 1.425 . S
C296 C303 1.409 . S
C297 H289 0.930 . S
C297 C295 1.419 . S
C297 C298 1.362 . S
C298 H290 0.930 . S
C298 C297 1.362 . S
C298 C301 1.409 . S
C299 H291 0.930 . S
C299 C300 1.355 . S
C299 C301 1.415 . S
C300 C299 1.355 . S
C300 C302 1.419 . S
C301 C296 1.425 . S
C301 C298 1.409 . S
C301 C299 1.415 . S
C302 H292 0.930 . S
C302 C300 1.419 . S
C302 C303 1.362 . S
C303 H293 0.930 . S
C303 C296 1.409 . S
C303 C302 1.362 . S
H304 C310 0.930 . S
H305 C313 0.930 . S
H306 C314 0.930 . S
H307 C315 0.930 . S
H308 C318 0.930 . S
H309 C319 0.930 . S
C310 H304 0.930 . S
C310 C311 1.355 . S
C310 C312 1.415 . S
C311 C310 1.355 . S
C311 C313 1.419 . S
C312 C310 1.415 . S
C312 C317 1.425 . S
C312 C319 1.409 . S
C313 H305 0.930 . S
C313 C311 1.419 . S
C313 C314 1.362 . S
C314 H306 0.930 . S
C314 C313 1.362 . S
C314 C317 1.409 . S
C315 H307 0.930 . S
C315 C316 1.355 . S
C315 C317 1.415 . S
C316 C315 1.355 . S
C316 C318 1.419 . S
C317 C312 1.425 . S
C317 C314 1.409 . S
C317 C315 1.415 . S
C318 H308 0.930 . S
C318 C316 1.419 . S
C318 C319 1.362 . S
C319 H309 0.930 . S
C319 C312 1.409 . S
C319 C318 1.362 . S
H320 C326 0.930 . S
H321 C329 0.930 . S
H322 C330 0.930 . S
H323 C331 0.930 . S
H324 C334 0.930 . S
H325 C335 0.930 . S
C326 H320 0.930 . S
C326 C327 1.355 . S
C326 C328 1.415 . S
C327 C326 1.355 . S
C327 C329 1.419 . S
C328 C326 1.415 . S
C328 C333 1.425 . S
C328 C335 1.409 . S
C329 H321 0.930 . S
C329 C327 1.419 . S
C329 C330 1.362 . S
C330 H322 0.930 . S
C330 C329 1.362 . S
C330 C333 1.409 . S
C331 H323 0.930 . S
C331 C332 1.355 . S
C331 C333 1.415 . S
C332 C331 1.355 . S
C332 C334 1.419 . S
C333 C328 1.425 . S
C333 C330 1.409 . S
C333 C331 1.415 . S
C334 H324 0.930 . S
C334 C332 1.419 . S
C334 C335 1.362 . S
C335 H325 0.930 . S
C335 C328 1.409 . S
C335 C334 1.362 . S
H336 C342 0.930 . S
H337 C345 0.930 . S
H338 C346 0.930 . S
H339 C347 0.930 . S
H340 C350 0.930 . S
H341 C351 0.930 . S
C342 H336 0.930 . S
C342 C343 1.355 . S
C342 C344 1.415 . S
C343 C342 1.355 . S
C343 C345 1.419 . S
C344 C342 1.415 . S
C344 C349 1.425 . S
C344 C351 1.409 . S
C345 H337 0.930 . S
C345 C343 1.419 . S
C345 C346 1.362 . S
C346 H338 0.930 . S
C346 C345 1.362 . S
C346 C349 1.409 . S
C347 H339 0.930 . S
C347 C348 1.355 . S
C347 C349 1.415 . S
C348 C347 1.355 . S
C348 C350 1.419 . S
C349 C344 1.425 . S
C349 C346 1.409 . S
C349 C347 1.415 . S
C350 H340 0.930 . S
C350 C348 1.419 . S
C350 C351 1.362 . S
C351 H341 0.930 . S
C351 C344 1.409 . S
C351 C350 1.362 . S
H352 C358 0.930 . S
H353 C361 0.930 . S
H354 C362 0.930 . S
H355 C363 0.930 . S
H356 C366 0.930 . S
H357 C367 0.930 . S
C358 H352 0.930 . S
C358 C359 1.355 . S
C358 C360 1.415 . S
C359 C358 1.355 . S
C359 C361 1.419 . S
C360 C358 1.415 . S
C360 C365 1.425 . S
C360 C367 1.409 . S
C361 H353 0.930 . S
C361 C359 1.419 . S
C361 C362 1.362 . S
C362 H354 0.930 . S
C362 C361 1.362 . S
C362 C365 1.409 . S
C363 H355 0.930 . S
C363 C364 1.355 . S
C363 C365 1.415 . S
C364 C363 1.355 . S
C364 C366 1.419 . S
C365 C360 1.425 . S
C365 C362 1.409 . S
C365 C363 1.415 . S
C366 H356 0.930 . S
C366 C364 1.419 . S
C366 C367 1.362 . S
C367 H357 0.930 . S
C367 C360 1.409 . S
C367 C366 1.362 . S
H368 C374 0.930 . S
H369 C377 0.930 . S
H370 C378 0.930 . S
H371 C379 0.930 . S
H372 C382 0.930 . S
H373 C383 0.930 . S
C374 H368 0.930 . S
C374 C375 1.355 . S
C374 C376 1.415 . S
C375 C374 1.355 . S
C375 C377 1.419 . S
C376 C374 1.415 . S
C376 C381 1.425 . S
C376 C383 1.409 . S
C377 H369 0.930 . S
C377 C375 1.419 . S
C377 C378 1.362 . S
C378 H370 0.930 . S
C378 C377 1.362 . S
C378 C381 1.409 . S
C379 H371 0.930 . S
C379 C380 1.355 . S
C379 C381 1.415 . S
C380 C379 1.355 . S
C380 C382 1.419 . S
C381 C376 1.425 . S
C381 C378 1.409 . S
C381 C379 1.415 . S
C382 H372 0.930 . S
C382 C380 1.419 . S
C382 C383 1.362 . S
C383 H373 0.930 . S
C383 C376 1.409 . S
C383 C382 1.362 . S
H384 C390 0.930 . S
H385 C393 0.930 1_655 S
H386 C394 0.930 . S
H387 C395 0.930 1_655 S
H388 C398 0.930 . S
H389 C399 0.930 . S
C390 H384 0.930 . S
C390 C391 1.355 . S
C390 C392 1.415 . S
C391 C390 1.355 . S
C391 C393 1.419 . S
C392 C390 1.415 . S
C392 C397 1.425 . S
C392 C399 1.409 1_554 S
C393 H385 0.930 1_455 S
C393 C391 1.419 . S
C393 C394 1.362 1_455 S
C394 H386 0.930 . S
C394 C393 1.362 1_655 S
C394 C397 1.409 1_655 S
C395 H387 0.930 1_455 S
C395 C396 1.355 . S
C395 C397 1.415 1_556 S
C396 C395 1.355 . S
C396 C398 1.419 . S
C397 C392 1.425 . S
C397 C394 1.409 1_455 S
C397 C395 1.415 1_554 S
C398 H388 0.930 . S
C398 C396 1.419 . S
C398 C399 1.362 . S
C399 H389 0.930 . S
C399 C392 1.409 1_556 S
C399 C398 1.362 . S
H400 C406 0.930 . S
H401 C409 0.930 . S
H402 C410 0.930 . S
H403 C411 0.930 1_565 S
H404 C414 0.930 . S
H405 C415 0.930 . S
C406 H400 0.930 . S
C406 C407 1.355 . S
C406 C408 1.415 . S
C407 C406 1.355 . S
C407 C409 1.419 1_545 S
C408 C406 1.415 . S
C408 C413 1.425 . S
C408 C415 1.409 . S
C409 H401 0.930 . S
C409 C407 1.419 1_565 S
C409 C410 1.362 . S
C410 H402 0.930 . S
C410 C409 1.362 . S
C410 C413 1.409 1_565 S
C411 H403 0.930 1_545 S
C411 C412 1.355 . S
C411 C413 1.415 . S
C412 C411 1.355 . S
C412 C414 1.419 . S
C413 C408 1.425 . S
C413 C410 1.409 1_545 S
C413 C411 1.415 . S
C414 H404 0.930 . S
C414 C412 1.419 . S
C414 C415 1.362 . S
C415 H405 0.930 . S
C415 C408 1.409 . S
C415 C414 1.362 . S
H416 C422 0.930 . S
H417 C425 0.930 . S
H418 C426 0.930 . S
H419 C427 0.930 . S
H420 C430 0.930 . S
H421 C431 0.930 . S
C422 H416 0.930 . S
C422 C423 1.355 . S
C422 C424 1.415 . S
C423 C422 1.355 . S
C423 C425 1.419 . S
C424 C422 1.415 . S
C424 C429 1.425 . S
C424 C431 1.409 . S
C425 H417 0.930 . S
C425 C423 1.419 . S
C425 C426 1.362 . S
C426 H418 0.930 . S
C426 C425 1.362 . S
C426 C429 1.409 . S
C427 H419 0.930 . S
C427 C428 1.355 . S
C427 C429 1.415 . S
C428 C427 1.355 . S
C428 C430 1.419 . S
C429 C424 1.425 . S
C429 C426 1.409 . S
C429 C427 1.415 . S
C430 H420 0.930 . S
C430 C428 1.419 . S
C430 C431 1.362 . S
C431 H421 0.930 . S
C431 C424 1.409 . S
C431 C430 1.362 . S
H432 C438 0.930 1_565 S
H433 C441 0.930 . S
H434 C442 0.930 . S
H435 C443 0.930 . S
H436 C446 0.930 . S
H437 C447 0.930 . S
C438 H432 0.930 1_545 S
C438 C439 1.355 . S
C438 C440 1.415 . S
C439 C438 1.355 . S
C439 C441 1.419 . S
C440 C438 1.415 . S
C440 C445 1.425 . S
C440 C447 1.409 1_545 S
C441 H433 0.930 . S
C441 C439 1.419 . S
C441 C442 1.362 . S
C442 H434 0.930 . S
C442 C441 1.362 . S
C442 C445 1.409 . S
C443 H435 0.930 . S
C443 C444 1.355 . S
C443 C445 1.415 . S
C444 C443 1.355 . S
C444 C446 1.419 1_545 S
C445 C440 1.425 . S
C445 C442 1.409 . S
C445 C443 1.415 . S
C446 H436 0.930 . S
C446 C444 1.419 1_565 S
C446 C447 1.362 . S
C447 H437 0.930 . S
C447 C440 1.409 1_565 S
C447 C446 1.362 . S
H448 C454 0.930 . S
H449 C457 0.930 . S
H450 C458 0.930 . S
H451 C459 0.930 . S
H452 C462 0.930 . S
H453 C463 0.930 . S
C454 H448 0.930 . S
C454 C455 1.355 . S
C454 C456 1.415 . S
C455 C454 1.355 . S
C455 C457 1.419 . S
C456 C454 1.415 . S
C456 C461 1.425 . S
C456 C463 1.409 . S
C457 H449 0.930 . S
C457 C455 1.419 . S
C457 C458 1.362 . S
C458 H450 0.930 . S
C458 C457 1.362 . S
C458 C461 1.409 . S
C459 H451 0.930 . S
C459 C460 1.355 . S
C459 C461 1.415 1_554 S
C460 C459 1.355 . S
C460 C462 1.419 . S
C461 C456 1.425 . S
C461 C458 1.409 . S
C461 C459 1.415 1_556 S
C462 H452 0.930 . S
C462 C460 1.419 . S
C462 C463 1.362 1_554 S
C463 H453 0.930 . S
C463 C456 1.409 . S
C463 C462 1.362 1_556 S
H464 C470 0.930 . S
H465 C473 0.929 1_655 S
H466 C474 0.930 . S
H467 C475 0.930 . S
H468 C478 0.930 . S
H469 C479 0.930 . S
C470 H464 0.930 . S
C470 C471 1.355 . S
C470 C472 1.415 . S
C471 C470 1.355 . S
C471 C473 1.421 . S
C472 C470 1.415 . S
C472 C477 1.425 . S
C472 C479 1.409 . S
C473 H465 0.929 1_455 S
C473 C471 1.421 . S
C473 C474 1.361 1_455 S
C474 H466 0.930 . S
C474 C473 1.361 1_655 S
C474 C477 1.409 1_655 S
C475 H467 0.930 . S
C475 C476 1.355 1_655 S
C475 C477 1.415 1_655 S
C476 C475 1.355 1_455 S
C476 C478 1.419 . S
C477 C472 1.425 . S
C477 C474 1.409 1_455 S
C477 C475 1.415 1_455 S
C478 H468 0.930 . S
C478 C476 1.419 . S
C478 C479 1.362 . S
C479 H469 0.930 . S
C479 C472 1.409 . S
C479 C478 1.362 . S
C199 C6 0.853 . S
C204 C186 0.912 . S
C215 C59 1.962 . S
C220 C160 1.894 . S
C231 C86 1.334 . S
C236 C172 1.294 . S
C247 C15 0.512 . S
C252 C184 0.175 . S
C268 C162 1.823 . S
C263 C50 1.889 . S
C284 C174 1.208 . S
C279 C95 1.182 . S
C295 C46 1.327 . S
C300 C136 1.347 . S
C311 C99 3.331 . S
C316 C150 3.309 . S
C327 C10 1.886 . S
C332 C126 1.910 . S
C348 C138 1.192 . S
C343 C55 1.179 . S
C364 C148 2.748 . S
C359 C90 2.842 . S
C375 C19 1.943 . S
C380 C124 1.893 . S
C396 C153 1.781 . S
C391 C18 1.659 . S
C407 C49 1.437 . S
C412 C129 1.471 . S
C423 C98 1.479 . S
C428 C141 1.528 . S
C444 C177 1.532 . S
C439 C58 1.482 . S
C460 C189 1.235 . S
C455 C89 1.148 . S
C471 C9 1.372 . S
C476 C165 1.418 . S
