# Generated by pormake.
# Topology zzz, (3,6)-cn, num edge types: 1
# Building blocks:
#     Node 0, Type 0, BuildingBlock: BELTOD_clean_linker_0, # of connection points: 3
#     Node 1, Type 0, BuildingBlock: BELTOD_clean_linker_0, # of connection points: 3
#     Node 2, Type 0, BuildingBlock: BELTOD_clean_linker_0, # of connection points: 3
#     Node 3, Type 0, BuildingBlock: BELTOD_clean_linker_0, # of connection points: 3
#     Node 4, Type 0, BuildingBlock: BELTOD_clean_linker_0, # of connection points: 3
#     Node 5, Type 0, BuildingBlock: BELTOD_clean_linker_0, # of connection points: 3
#     Node 6, Type 0, BuildingBlock: BELTOD_clean_linker_0, # of connection points: 3
#     Node 7, Type 0, BuildingBlock: BELTOD_clean_linker_0, # of connection points: 3
#     Node 8, Type 1, BuildingBlock: BETDEL_clean_sbu_0, # of connection points: 6
#     Node 9, Type 1, BuildingBlock: BETDEL_clean_sbu_0, # of connection points: 6
#     Node 10, Type 1, BuildingBlock: BETDEL_clean_sbu_0, # of connection points: 6
#     Node 11, Type 1, BuildingBlock: BETDEL_clean_sbu_0, # of connection points: 6
#     Edge 12, Type (0, 1), BuildingBlock: XIVTED_clean_linker_0, # of connection points: 2
#     Edge 13, Type (0, 1), BuildingBlock: XIVTED_clean_linker_0, # of connection points: 2
#     Edge 14, Type (0, 1), BuildingBlock: XIVTED_clean_linker_0, # of connection points: 2
#     Edge 15, Type (0, 1), BuildingBlock: XIVTED_clean_linker_0, # of connection points: 2
#     Edge 16, Type (0, 1), BuildingBlock: XIVTED_clean_linker_0, # of connection points: 2
#     Edge 17, Type (0, 1), BuildingBlock: XIVTED_clean_linker_0, # of connection points: 2
#     Edge 18, Type (0, 1), BuildingBlock: XIVTED_clean_linker_0, # of connection points: 2
#     Edge 19, Type (0, 1), BuildingBlock: XIVTED_clean_linker_0, # of connection points: 2
#     Edge 20, Type (0, 1), BuildingBlock: XIVTED_clean_linker_0, # of connection points: 2
#     Edge 21, Type (0, 1), BuildingBlock: XIVTED_clean_linker_0, # of connection points: 2
#     Edge 22, Type (0, 1), BuildingBlock: XIVTED_clean_linker_0, # of connection points: 2
#     Edge 23, Type (0, 1), BuildingBlock: XIVTED_clean_linker_0, # of connection points: 2
#     Edge 24, Type (0, 1), BuildingBlock: XIVTED_clean_linker_0, # of connection points: 2
#     Edge 25, Type (0, 1), BuildingBlock: XIVTED_clean_linker_0, # of connection points: 2
#     Edge 26, Type (0, 1), BuildingBlock: XIVTED_clean_linker_0, # of connection points: 2
#     Edge 27, Type (0, 1), BuildingBlock: XIVTED_clean_linker_0, # of connection points: 2
#     Edge 28, Type (0, 1), BuildingBlock: XIVTED_clean_linker_0, # of connection points: 2
#     Edge 29, Type (0, 1), BuildingBlock: XIVTED_clean_linker_0, # of connection points: 2
#     Edge 30, Type (0, 1), BuildingBlock: XIVTED_clean_linker_0, # of connection points: 2
#     Edge 31, Type (0, 1), BuildingBlock: XIVTED_clean_linker_0, # of connection points: 2
#     Edge 32, Type (0, 1), BuildingBlock: XIVTED_clean_linker_0, # of connection points: 2
#     Edge 33, Type (0, 1), BuildingBlock: XIVTED_clean_linker_0, # of connection points: 2
#     Edge 34, Type (0, 1), BuildingBlock: XIVTED_clean_linker_0, # of connection points: 2
#     Edge 35, Type (0, 1), BuildingBlock: XIVTED_clean_linker_0, # of connection points: 2
# Relax obj value: 0.314
# Max RMSD: 0.214
# Mean RMSD: 0.200
data_MOF--net-zzz--node1-BETDEL_clean_sbu_0--node2-BELTOD_clean_linker_0--edge1-XIVTED_clean_linker_0
_symmetry_space_group_name_H-M    P1
_symmetry_Int_Tables_number       1
_symmetry_cell_setting            triclinic
loop_
_symmetry_equiv_pos_as_xyz
'x, y, z'
_cell_length_a     53.217293
_cell_length_b     52.98258
_cell_length_c     18.479711
_cell_angle_alpha  91.265062
_cell_angle_beta   89.357371
_cell_angle_gamma 95.929711
loop_
_atom_site_label
_atom_site_type_symbol
_atom_site_fract_x
_atom_site_fract_y
_atom_site_fract_z
_atom_type_partial_charge
P0 P 0.73002 0.42068 0.12413 0.0
H1 H 0.73183 0.42322 0.28301 0.0
H2 H 0.76383 0.44448 0.36271 0.0
H3 H 0.79605 0.48759 0.18173 0.0
H4 H 0.76265 0.46796 0.10492 0.0
H5 H 0.69809 0.39415 0.01668 0.0
H6 H 0.66567 0.40668 0.93742 0.0
H7 H 0.67293 0.48158 0.03788 0.0
H8 H 0.70638 0.4689 0.11561 0.0
H9 H 0.77262 0.39106 0.14111 0.0
H10 H 0.74469 0.4381 0.9788 0.0
O11 O 0.71961 0.39417 0.16697 0.0
H12 H 0.81355 0.39326 0.07831 0.0
H13 H 0.78524 0.44012 0.91592 0.0
C14 C 0.74517 0.44357 0.1876 0.0
C15 C 0.74511 0.43808 0.26136 0.0
C16 C 0.76386 0.44997 0.30665 0.0
C17 C 0.78347 0.46701 0.27841 0.0
C18 C 0.78159 0.47455 0.20616 0.0
C19 C 0.76238 0.4632 0.16161 0.0
C20 C 0.70445 0.43051 0.07225 0.0
C21 C 0.69251 0.4132 0.02218 0.0
C22 C 0.6738 0.4204 0.97709 0.0
C23 C 0.66636 0.44513 0.98145 0.0
C24 C 0.67826 0.46245 0.03254 0.0
C25 C 0.69725 0.4552 0.07748 0.0
C26 C 0.75548 0.4141 0.06419 0.0
C27 C 0.7749 0.40086 0.09026 0.0
C28 C 0.7983 0.40224 0.0546 0.0
C29 C 0.80259 0.41715 0.99292 0.0
C30 C 0.78248 0.42873 0.9639 0.0
C31 C 0.75914 0.42729 0.99938 0.0
P32 P 0.00517 0.73457 0.14113 0.0
H33 H 0.99657 0.74298 0.29592 0.0
H34 H 0.976 0.77648 0.35628 0.0
H35 H 0.93909 0.79107 0.15656 0.0
H36 H 0.96078 0.75834 0.09565 0.0
H37 H 0.03201 0.69137 0.10246 0.0
H38 H 0.02309 0.65539 0.01933 0.0
H39 H 0.9501 0.68003 0.97427 0.0
H40 H 0.95902 0.71602 0.0589 0.0
H41 H 0.03441 0.78232 0.17596 0.0
H42 H 0.00152 0.74447 0.98532 0.0
O43 O 0.02762 0.72833 0.19851 0.0
H44 H 0.04107 0.82202 0.11081 0.0
H45 H 0.00872 0.78387 0.91924 0.0
C46 C 0.98038 0.74809 0.19104 0.0
C47 C 0.98319 0.75254 0.26568 0.0
C48 C 0.97132 0.77185 0.30037 0.0
C49 C 0.95636 0.78699 0.26082 0.0
C50 C 0.95095 0.78017 0.18824 0.0
C51 C 0.96299 0.76099 0.15353 0.0
C52 C 0.99609 0.70626 0.08783 0.0
C53 C 0.01382 0.68878 0.07616 0.0
C54 C 0.00869 0.66817 0.02854 0.0
C55 C 0.98584 0.66482 0.99049 0.0
C56 C 0.96789 0.68219 0.00279 0.0
C57 C 0.97294 0.70271 0.05145 0.0
C58 C 0.01774 0.76035 0.08542 0.0
C59 C 0.02959 0.78231 0.11916 0.0
C60 C 0.03331 0.80505 0.08185 0.0
C61 C 0.02513 0.8062 0.01005 0.0
C62 C 0.0148 0.78371 0.97495 0.0
C63 C 0.01098 0.76102 0.01248 0.0
P64 P 0.77288 0.04392 0.12359 0.0
H65 H 0.7644 0.03056 0.27601 0.0
H66 H 0.7267 0.01088 0.33848 0.0
H67 H 0.69193 0.99117 0.13232 0.0
H68 H 0.72974 0.01021 0.07007 0.0
H69 H 0.82549 0.06189 0.09783 0.0
H70 H 0.85786 0.04644 0.0193 0.0
H71 H 0.80799 0.97886 0.96941 0.0
H72 H 0.77553 0.99447 0.04911 0.0
H73 H 0.73938 0.08394 0.13649 0.0
H74 H 0.76728 0.03725 0.96566 0.0
O75 O 0.78508 0.06561 0.18382 0.0
H76 H 0.70896 0.09863 0.053 0.0
H77 H 0.73656 0.05085 0.88341 0.0
C78 C 0.74968 0.0223 0.16841 0.0
C79 C 0.74906 0.0212 0.24421 0.0
C80 C 0.72754 0.00991 0.27989 0.0
C81 C 0.70637 0.99985 0.24003 0.0
C82 C 0.70798 0.99898 0.16414 0.0
C83 C 0.7296 0.00987 0.12862 0.0
C84 C 0.79824 0.02919 0.08012 0.0
C85 C 0.82176 0.04336 0.07196 0.0
C86 C 0.8403 0.03449 0.02692 0.0
C87 C 0.83549 0.01142 0.98808 0.0
C88 C 0.81219 0.99674 0.99847 0.0
C89 C 0.79373 0.00553 0.04445 0.0
C90 C 0.75579 0.05967 0.05741 0.0
C91 C 0.73944 0.07737 0.08057 0.0
C92 C 0.72184 0.08551 0.03294 0.0
C93 C 0.72006 0.07575 0.96149 0.0
C94 C 0.73753 0.05912 0.93754 0.0
C95 C 0.75518 0.05116 0.98502 0.0
P96 P 0.51297 0.76296 0.17996 0.0
H97 H 0.50982 0.75539 0.33532 0.0
H98 H 0.53133 0.7259 0.40434 0.0
H99 H 0.58789 0.72412 0.23538 0.0
H100 H 0.56629 0.75424 0.16668 0.0
H101 H 0.49971 0.76779 0.02959 0.0
H102 H 0.50521 0.8026 0.94635 0.0
H103 H 0.54809 0.84869 0.10703 0.0
H104 H 0.54341 0.81276 0.19022 0.0
H105 H 0.47602 0.71879 0.20393 0.0
H106 H 0.53897 0.73952 0.06076 0.0
O107 O 0.4866 0.77002 0.22203 0.0
H108 H 0.47318 0.67512 0.15524 0.0
H109 H 0.53623 0.69625 0.01214 0.0
C110 C 0.5362 0.75674 0.24525 0.0
C111 C 0.52769 0.74998 0.31488 0.0
C112 C 0.54003 0.73288 0.35439 0.0
C113 C 0.56094 0.72209 0.32435 0.0
C114 C 0.57154 0.73176 0.25928 0.0
C115 C 0.55934 0.74922 0.2203 0.0
C116 C 0.52171 0.7874 0.11555 0.0
C117 C 0.51107 0.78499 0.04648 0.0
C118 C 0.51389 0.80514 0.9991 0.0
C119 C 0.52676 0.82858 0.0204 0.0
C120 C 0.53821 0.83082 0.0889 0.0
C121 C 0.53555 0.81035 0.13641 0.0
C122 C 0.50724 0.73256 0.13449 0.0
C123 C 0.48878 0.71413 0.16076 0.0
C124 C 0.48728 0.68918 0.13333 0.0
C125 C 0.50463 0.68227 0.0804 0.0
C126 C 0.52284 0.70092 0.05363 0.0
C127 C 0.52418 0.72577 0.08063 0.0
P128 P 0.27791 0.47773 0.99021 0.0
H129 H 0.27031 0.46669 0.83555 0.0
H130 H 0.23713 0.47911 0.75869 0.0
H131 H 0.22408 0.5396 0.91052 0.0
H132 H 0.25696 0.52673 0.98807 0.0
H133 H 0.32326 0.45537 0.0308 0.0
H134 H 0.3588 0.47005 0.10767 0.0
H135 H 0.33092 0.54353 0.12982 0.0
H136 H 0.29536 0.52883 0.0509 0.0
H137 H 0.22795 0.45167 0.97351 0.0
H138 H 0.26829 0.49787 0.13835 0.0
O139 O 0.28232 0.44881 0.95804 0.0
H140 H 0.18818 0.45734 0.03472 0.0
H141 H 0.22864 0.50309 0.20095 0.0
C142 C 0.26613 0.4956 0.91817 0.0
C143 C 0.26127 0.48344 0.85081 0.0
C144 C 0.24209 0.49052 0.80675 0.0
C145 C 0.22744 0.50991 0.82947 0.0
C146 C 0.23466 0.52422 0.89224 0.0
C147 C 0.25391 0.51718 0.93609 0.0
C148 C 0.30655 0.49098 0.03464 0.0
C149 C 0.325 0.47487 0.05036 0.0
C150 C 0.34542 0.4833 0.09447 0.0
C151 C 0.34763 0.50792 0.12501 0.0
C152 C 0.32962 0.5244 0.10728 0.0
C153 C 0.30938 0.51606 0.06175 0.0
C154 C 0.25116 0.47438 0.05097 0.0
C155 C 0.22836 0.46221 0.02447 0.0
C156 C 0.20555 0.46557 0.05949 0.0
C157 C 0.20515 0.48106 0.12216 0.0
C158 C 0.22824 0.49158 0.15173 0.0
C159 C 0.25105 0.48837 0.11623 0.0
P160 P 0.10978 0.27449 0.00549 0.0
H161 H 0.12436 0.26134 0.85716 0.0
H162 H 0.1052 0.22779 0.77706 0.0
H163 H 0.03701 0.22338 0.90705 0.0
H164 H 0.05648 0.2564 0.98794 0.0
H165 H 0.13584 0.31058 0.10528 0.0
H166 H 0.12188 0.34463 0.18167 0.0
H167 H 0.0487 0.33429 0.07995 0.0
H168 H 0.06322 0.30092 0.00152 0.0
H169 H 0.12421 0.22326 0.99948 0.0
H170 H 0.08199 0.26837 0.14425 0.0
O171 O 0.14043 0.27885 0.98391 0.0
H172 H 0.10584 0.18483 0.05772 0.0
H173 H 0.06462 0.23024 0.20531 0.0
C174 C 0.09186 0.26166 0.9285 0.0
C175 C 0.10484 0.25413 0.8665 0.0
C176 C 0.09387 0.23475 0.82076 0.0
C177 C 0.06979 0.22253 0.83671 0.0
C178 C 0.05577 0.23214 0.89406 0.0
C179 C 0.06672 0.25152 0.93956 0.0
C180 C 0.10063 0.3032 0.04759 0.0
C181 C 0.11702 0.31612 0.09796 0.0
C182 C 0.10889 0.33538 0.1423 0.0
C183 C 0.08402 0.34193 0.13786 0.0
C184 C 0.06801 0.32982 0.08463 0.0
C185 C 0.07626 0.31057 0.0399 0.0
C186 C 0.10462 0.24872 0.06749 0.0
C187 C 0.11191 0.22499 0.04605 0.0
C188 C 0.10126 0.20296 0.07936 0.0
C189 C 0.0833 0.20434 0.1354 0.0
C190 C 0.07782 0.2284 0.16095 0.0
C191 C 0.08816 0.25037 0.12677 0.0
P192 P 0.25697 0.04564 0.03633 0.0
H193 H 0.28436 0.08251 0.94165 0.0
H194 H 0.31378 0.07632 0.84376 0.0
H195 H 0.28626 0.99665 0.8312 0.0
H196 H 0.25743 0.00296 0.93226 0.0
H197 H 0.21634 0.07562 0.08152 0.0
H198 H 0.17493 0.06331 0.13328 0.0
H199 H 0.18203 0.985 0.07353 0.0
H200 H 0.2241 0.99753 0.02332 0.0
H201 H 0.30895 0.03295 0.02696 0.0
H202 H 0.24433 0.01553 0.16718 0.0
O203 O 0.26434 0.0753 0.06722 0.0
H204 H 0.33335 0.0066 0.09857 0.0
H205 H 0.26854 0.98833 0.23802 0.0
C206 C 0.26868 0.04319 0.94473 0.0
C207 C 0.28386 0.06387 0.9162 0.0
C208 C 0.30083 0.06025 0.85966 0.0
C209 C 0.30292 0.03582 0.83017 0.0
C210 C 0.28565 0.01562 0.8537 0.0
C211 C 0.26875 0.01928 0.91073 0.0
C212 C 0.22349 0.03747 0.04918 0.0
C213 C 0.20878 0.05588 0.07748 0.0
C214 C 0.1849 0.04878 0.10702 0.0
C215 C 0.17522 0.02307 0.10881 0.0
C216 C 0.1891 0.00492 0.07433 0.0
C217 C 0.21304 0.01209 0.04459 0.0
C218 C 0.27446 0.02553 0.08982 0.0
C219 C 0.29975 0.02298 0.07213 0.0
C220 C 0.31371 0.00772 0.11302 0.0
C221 C 0.30276 0.99486 0.17319 0.0
C222 C 0.2775 0.99783 0.19174 0.0
C223 C 0.26355 0.01324 0.15077 0.0
P224 P 0.41866 0.23503 0.99176 0.0
H225 H 0.39153 0.24613 0.86278 0.0
H226 H 0.40507 0.27766 0.7728 0.0
H227 H 0.48262 0.27484 0.83465 0.0
H228 H 0.46893 0.24329 0.92547 0.0
H229 H 0.42116 0.22473 0.14377 0.0
H230 H 0.43976 0.19267 0.21221 0.0
H231 H 0.46481 0.15887 0.01285 0.0
H232 H 0.44637 0.19169 0.94395 0.0
H233 H 0.39447 0.2819 0.9946 0.0
H234 H 0.46239 0.25554 0.07695 0.0
O235 O 0.38739 0.22787 0.99399 0.0
H236 H 0.41015 0.32542 0.02881 0.0
H237 H 0.47745 0.29845 0.11542 0.0
C238 C 0.42919 0.24234 0.90117 0.0
C239 C 0.41158 0.25101 0.85422 0.0
C240 C 0.4193 0.26936 0.80332 0.0
C241 C 0.4448 0.27906 0.7981 0.0
C242 C 0.46283 0.26766 0.83764 0.0
C243 C 0.45504 0.24937 0.88905 0.0
C244 C 0.433 0.21095 0.03903 0.0
C245 C 0.43095 0.21065 0.11465 0.0
C246 C 0.44163 0.19236 0.15377 0.0
C247 C 0.45407 0.17354 0.11792 0.0
C248 C 0.45547 0.17331 0.04175 0.0
C249 C 0.44504 0.19203 0.00246 0.0
C250 C 0.42677 0.26532 0.03572 0.0
C251 C 0.41227 0.28535 0.02278 0.0
C252 C 0.42137 0.31026 0.04198 0.0
C253 C 0.44517 0.31554 0.07457 0.0
C254 C 0.45927 0.29523 0.08922 0.0
C255 C 0.45034 0.27047 0.06895 0.0
Dy256 Dy 0.01059 0.99042 0.60897 0.0
C257 C 0.9924 0.05169 0.35737 0.0
C258 C 0.01217 0.96298 0.73095 0.0
Dy259 Dy 0.99118 0.02067 0.47289 0.0
O260 O 0.03066 0.97874 0.70712 0.0
O261 O 0.99263 0.96285 0.68919 0.0
O262 O 0.04771 0.98146 0.55481 0.0
O263 O 0.02299 0.00239 0.50461 0.0
C264 C 0.04376 0.99367 0.49644 0.0
C265 C 0.95747 0.00808 0.57783 0.0
O266 O 0.98374 0.98053 0.43298 0.0
O267 O 0.98681 0.96071 0.54421 0.0
O268 O 0.98063 0.05542 0.41817 0.0
O269 O 0.00232 0.03029 0.35871 0.0
O270 O 0.95099 0.01136 0.51098 0.0
O271 O 0.98079 0.01432 0.58549 0.0
O272 O 0.01872 0.03079 0.64795 0.0
O273 O 0.01542 0.05039 0.53656 0.0
C274 C 0.98075 0.96023 0.47449 0.0
C275 C 0.02162 0.05107 0.60618 0.0
Dy276 Dy 0.48838 0.98406 0.51877 0.0
C277 C 0.56641 0.04895 0.66505 0.0
C278 C 0.44505 0.96076 0.46012 0.0
Dy279 Dy 0.52516 0.02345 0.60065 0.0
O280 O 0.46729 0.96129 0.42997 0.0
O281 O 0.44672 0.97257 0.52233 0.0
O282 O 0.52117 0.96281 0.48331 0.0
O283 O 0.52602 0.00243 0.49892 0.0
C284 C 0.53728 0.9831 0.48528 0.0
C285 C 0.47619 0.02549 0.6301 0.0
O286 O 0.5188 0.04646 0.50381 0.0
O287 O 0.48408 0.02029 0.46071 0.0
O288 O 0.54348 0.04781 0.69049 0.0
O289 O 0.56679 0.03629 0.60411 0.0
O290 O 0.4926 0.04548 0.63126 0.0
O291 O 0.48714 0.00571 0.61956 0.0
O292 O 0.49477 0.96109 0.61411 0.0
O293 O 0.52937 0.98691 0.65926 0.0
C294 C 0.49942 0.04172 0.45919 0.0
C295 C 0.51385 0.96553 0.65954 0.0
Dy296 Dy 0.50757 0.51342 0.62459 0.0
C297 C 0.51107 0.46808 0.33867 0.0
C298 C 0.50556 0.53227 0.76265 0.0
Dy299 Dy 0.51839 0.4872 0.47545 0.0
O300 O 0.48604 0.52428 0.72378 0.0
O301 O 0.52621 0.52948 0.72646 0.0
O302 O 0.47904 0.53575 0.5725 0.0
O303 O 0.48573 0.49996 0.53027 0.0
C304 C 0.47491 0.51957 0.51917 0.0
C305 C 0.55147 0.4813 0.57973 0.0
O306 O 0.53091 0.52818 0.45239 0.0
O307 O 0.53144 0.54486 0.57055 0.0
O308 O 0.53305 0.47184 0.36972 0.0
O309 O 0.49365 0.47495 0.38213 0.0
O310 O 0.54684 0.46489 0.5268 0.0
O311 O 0.54044 0.50085 0.5694 0.0
O312 O 0.49877 0.47208 0.65029 0.0
O313 O 0.49766 0.45474 0.53312 0.0
C314 C 0.53613 0.54714 0.50011 0.0
C315 C 0.49437 0.45262 0.60397 0.0
Dy316 Dy 0.99414 0.48084 0.62504 0.0
C317 C 0.04451 0.51494 0.36507 0.0
C318 C 0.96552 0.46715 0.74376 0.0
Dy319 Dy 0.01589 0.5078 0.48751 0.0
O320 O 0.9762 0.45154 0.70114 0.0
O321 O 0.97099 0.49027 0.72241 0.0
O322 O 0.01349 0.44656 0.59288 0.0
O323 O 1.00026 0.46957 0.51314 0.0
C324 C 0.01251 0.4509 0.52402 0.0
C325 C 0.99876 0.53827 0.5894 0.0
O326 O 0.97569 0.50207 0.4523 0.0
O327 O 0.95923 0.48723 0.56277 0.0
O328 O 0.04478 0.53093 0.41957 0.0
O329 O 0.02779 0.49585 0.37657 0.0
O330 O 0.99895 0.54361 0.52074 0.0
O331 O 0.01006 0.51889 0.59917 0.0
O332 O 0.03319 0.49235 0.66444 0.0
O333 O 0.05039 0.49917 0.54948 0.0
C334 C 0.95634 0.49461 0.49534 0.0
C335 C 0.05298 0.49637 0.6203 0.0
H336 H 0.16744 0.98196 0.19687 0.0
H337 H 0.04729 0.03112 0.39666 0.0
H338 H 0.13164 0.04664 0.12689 0.0
H339 H 0.07966 0.96323 0.4544 0.0
H340 H 0.07618 0.03572 0.2926 0.0
H341 H 0.13342 0.97287 0.2847 0.0
C342 C 0.15217 0.99399 0.19876 0.0
C343 C 0.15258 0.01522 0.15435 0.0
C344 C 0.07676 0.0196 0.32734 0.0
C345 C 0.11374 0.00525 0.25684 0.0
C346 C 0.06004 0.01683 0.38615 0.0
C347 C 0.06069 0.99644 0.43279 0.0
C348 C 0.09447 0.00195 0.3157 0.0
C349 C 0.07851 0.97916 0.41931 0.0
C350 C 0.13283 0.98891 0.24966 0.0
C351 C 0.1324 0.03032 0.16071 0.0
N352 N 0.09472 0.98232 0.36207 0.0
N353 N 0.11396 0.02518 0.21142 0.0
H354 H 0.48421 0.1809 0.23661 0.0
H355 H 0.46814 0.03526 0.34222 0.0
H356 H 0.44782 0.12185 0.09814 0.0
H357 H 0.5202 0.09126 0.45048 0.0
H358 H 0.45996 0.06677 0.25353 0.0
H359 H 0.4975 0.14851 0.31599 0.0
C360 C 0.47922 0.16106 0.22268 0.0
C361 C 0.46479 0.15401 0.161 0.0
C362 C 0.47329 0.07214 0.29641 0.0
C363 C 0.47969 0.11684 0.25192 0.0
C364 C 0.47789 0.05419 0.34743 0.0
C365 C 0.49481 0.06064 0.40429 0.0
C366 C 0.48544 0.09688 0.30257 0.0
C367 C 0.507 0.08543 0.40769 0.0
C368 C 0.48684 0.14259 0.26789 0.0
C369 C 0.45901 0.12807 0.14502 0.0
N370 N 0.50192 0.1027 0.35787 0.0
N371 N 0.46623 0.11041 0.1907 0.0
H372 H 0.34242 0.53075 0.25798 0.0
H373 H 0.48548 0.52015 0.3747 0.0
H374 H 0.39799 0.50127 0.11672 0.0
H375 H 0.42509 0.52712 0.52828 0.0
H376 H 0.45532 0.52057 0.27554 0.0
H377 H 0.37428 0.53752 0.35323 0.0
C378 C 0.36145 0.52615 0.24657 0.0
C379 C 0.36755 0.51533 0.17943 0.0
C380 C 0.44861 0.52194 0.33089 0.0
C381 C 0.40399 0.52282 0.28824 0.0
C382 C 0.46573 0.52128 0.38734 0.0
C383 C 0.45742 0.52232 0.45933 0.0
C384 C 0.42304 0.52421 0.34675 0.0
C385 C 0.43204 0.52575 0.47319 0.0
C386 C 0.37954 0.5298 0.30114 0.0
C387 C 0.39243 0.50942 0.16793 0.0
N388 N 0.41565 0.52637 0.41735 0.0
N389 N 0.40969 0.51317 0.22181 0.0
H390 H 0.05214 0.37902 0.11749 0.0
H391 H 0.04731 0.41731 0.5395 0.0
H392 H 0.09347 0.34513 0.28308 0.0
H393 H 0.00284 0.44965 0.37868 0.0
H394 H 0.06573 0.39201 0.44444 0.0
H395 H 0.0352 0.40652 0.21042 0.0
C396 C 0.05768 0.37737 0.17325 0.0
C397 C 0.07435 0.35976 0.19231 0.0
C398 C 0.05203 0.40471 0.4297 0.0
C399 C 0.05507 0.39117 0.29887 0.0
C400 C 0.04148 0.4191 0.48402 0.0
C401 C 0.02371 0.4357 0.46669 0.0
C402 C 0.04465 0.40682 0.35743 0.0
C403 C 0.01681 0.43734 0.39403 0.0
C404 C 0.04807 0.39313 0.22623 0.0
C405 C 0.08105 0.35867 0.26543 0.0
N406 N 0.02727 0.42305 0.34197 0.0
N407 N 0.07135 0.37406 0.31585 0.0
H408 H 0.88706 0.01339 0.99789 0.0
H409 H 0.90638 0.99599 0.57139 0.0
H410 H 0.82567 0.99388 0.84979 0.0
H411 H 0.9679 0.0086 0.72215 0.0
H412 H 0.87662 0.99144 0.67347 0.0
H413 H 0.9171 0.00788 0.89914 0.0
C414 C 0.87992 0.00766 0.94472 0.0
C415 C 0.85382 0.00427 0.93196 0.0
C416 C 0.89664 0.99494 0.6843 0.0
C417 C 0.88809 0.99813 0.81838 0.0
C418 C 0.91361 0.99756 0.62604 0.0
C419 C 0.93956 0.00289 0.63849 0.0
C420 C 0.90572 0.99787 0.75548 0.0
C421 C 0.94799 0.00462 0.71025 0.0
C422 C 0.89707 0.00448 0.88835 0.0
C423 C 0.84561 0.99655 0.8622 0.0
N424 N 0.9311 0.00236 0.76604 0.0
N425 N 0.86268 0.99406 0.80786 0.0
H426 H 0.56525 0.86589 0.98667 0.0
H427 H 0.48165 0.92356 0.68776 0.0
H428 H 0.48652 0.84213 0.94668 0.0
H429 H 0.55281 0.96292 0.75651 0.0
H430 H 0.48559 0.89187 0.77796 0.0
H431 H 0.56319 0.90058 0.90079 0.0
C432 C 0.54756 0.86804 0.96025 0.0
C433 C 0.52616 0.85077 0.97278 0.0
C434 C 0.5004 0.90742 0.77375 0.0
C435 C 0.52374 0.89004 0.87477 0.0
C436 C 0.49822 0.92557 0.72172 0.0
C437 C 0.51693 0.94605 0.71428 0.0
C438 C 0.52153 0.90945 0.81905 0.0
C439 C 0.5379 0.94748 0.76045 0.0
C440 C 0.54642 0.88774 0.91122 0.0
C441 C 0.5037 0.85447 0.93727 0.0
N442 N 0.53969 0.92934 0.8109 0.0
N443 N 0.50316 0.8735 0.8898 0.0
H444 H 0.66414 0.49115 0.91555 0.0
H445 H 0.56205 0.43595 0.63 0.0
H446 H 0.62397 0.41632 0.93126 0.0
H447 H 0.57502 0.51643 0.67465 0.0
H448 H 0.58786 0.42829 0.73433 0.0
H449 H 0.63419 0.50122 0.82332 0.0
C450 C 0.6489 0.47693 0.90055 0.0
C451 C 0.6469 0.45267 0.93083 0.0
C452 C 0.58497 0.44764 0.72165 0.0
C453 C 0.61299 0.46396 0.824 0.0
C454 C 0.57038 0.45201 0.66191 0.0
C455 C 0.56654 0.47684 0.6438 0.0
C456 C 0.59624 0.46828 0.76282 0.0
C457 C 0.57755 0.497 0.68716 0.0
C458 C 0.63189 0.48269 0.84758 0.0
C459 C 0.62682 0.43501 0.90825 0.0
N460 N 0.5922 0.4923 0.74438 0.0
N461 N 0.6109 0.44089 0.85571 0.0
H462 H 0.99471 0.61521 0.00279 0.0
H463 H 0.97735 0.58299 0.58001 0.0
H464 H 0.96816 0.66737 0.85225 0.0
H465 H 0.005 0.53263 0.73381 0.0
H466 H 0.96932 0.61247 0.68002 0.0
H467 H 0.99365 0.58286 0.90652 0.0
C468 C 0.98845 0.61976 0.94949 0.0
C469 C 0.98177 0.64408 0.93528 0.0
C470 C 0.9769 0.59484 0.69188 0.0
C471 C 0.98067 0.60717 0.82438 0.0
C472 C 0.9815 0.57805 0.63487 0.0
C473 C 0.99193 0.55542 0.64875 0.0
C474 C 0.98286 0.5889 0.76306 0.0
C475 C 0.9969 0.54985 0.7207 0.0
C476 C 0.98782 0.60128 0.89449 0.0
C477 C 0.97342 0.64883 0.86553 0.0
N478 N 0.99247 0.56653 0.775 0.0
N479 N 0.97339 0.63063 0.81238 0.0
H480 H 0.09998 0.15753 0.15672 0.0
H481 H 0.97457 0.09795 0.34767 0.0
H482 H 0.03321 0.19733 0.1744 0.0
H483 H 0.03 0.05222 0.25625 0.0
H484 H 0.99541 0.13484 0.28544 0.0
H485 H 0.07503 0.11898 0.19669 0.0
C486 C 0.0801 0.15821 0.16872 0.0
C487 C 0.06881 0.18088 0.16265 0.0
C488 C 0.00273 0.11663 0.27791 0.0
C489 C 0.04019 0.1368 0.2091 0.0
C490 C 0.99076 0.09557 0.31303 0.0
C491 C 1.00065 0.07211 0.30712 0.0
C492 C 0.02499 0.1142 0.23791 0.0
C493 C 0.02176 0.07001 0.26208 0.0
C494 C 0.06586 0.13617 0.19148 0.0
C495 C 0.04297 0.18056 0.17995 0.0
N496 N 0.03352 0.09092 0.23016 0.0
N497 N 0.0296 0.15893 0.20281 0.0
H498 H 0.30296 0.99241 0.32132 0.0
H499 H 0.43781 0.94342 0.32068 0.0
H500 H 0.33846 0.96368 0.12959 0.0
H501 H 0.39771 0.9633 0.5144 0.0
H502 H 0.39853 0.9426 0.25267 0.0
H503 H 0.33368 0.97402 0.39529 0.0
C504 C 0.31686 0.98176 0.29472 0.0
C505 C 0.31844 0.98008 0.21894 0.0
C506 C 0.39818 0.94659 0.31037 0.0
C507 C 0.35413 0.95946 0.30347 0.0
C508 C 0.42058 0.94697 0.34917 0.0
C509 C 0.42099 0.9539 0.42276 0.0
C510 C 0.37625 0.9535 0.34551 0.0
C511 C 0.39821 0.95822 0.45735 0.0
C512 C 0.33454 0.97136 0.33708 0.0
C513 C 0.33701 0.96613 0.18774 0.0
N514 N 0.37683 0.95843 0.41814 0.0
N515 N 0.3544 0.95675 0.23004 0.0
H516 H 0.41934 0.35469 0.12515 0.0
H517 H 0.54099 0.43706 0.26415 0.0
H518 H 0.49441 0.33703 0.06589 0.0
H519 H 0.46701 0.46349 0.26594 0.0
H520 H 0.52571 0.40302 0.17853 0.0
H521 H 0.437 0.39676 0.16532 0.0
C522 C 0.4395 0.35972 0.11953 0.0
C523 C 0.45541 0.34202 0.09326 0.0
C524 C 0.513 0.41666 0.19628 0.0
C525 C 0.47591 0.39018 0.14076 0.0
C526 C 0.52178 0.43615 0.24473 0.0
C527 C 0.50505 0.45267 0.27291 0.0
C528 C 0.48734 0.41374 0.17699 0.0
C529 C 0.48036 0.45076 0.24631 0.0
C530 C 0.44962 0.38381 0.1427 0.0
C531 C 0.48146 0.34972 0.08798 0.0
N532 N 0.47209 0.4313 0.20092 0.0
N533 N 0.49095 0.37308 0.11262 0.0
H534 H 0.19389 0.52709 0.17729 0.0
H535 H 0.04966 0.47831 0.26238 0.0
H536 H 0.16046 0.45042 0.13574 0.0
H537 H 0.0866 0.54869 0.3489 0.0
H538 H 0.08818 0.47141 0.19513 0.0
H539 H 0.15327 0.53804 0.22439 0.0
C540 C 0.17811 0.51247 0.17868 0.0
C541 C 0.18073 0.48769 0.15312 0.0
C542 C 0.08777 0.48855 0.22795 0.0
C543 C 0.13397 0.50037 0.20508 0.0
C544 C 0.06571 0.49264 0.26578 0.0
C545 C 0.06508 0.51403 0.31155 0.0
C546 C 0.10932 0.506 0.23599 0.0
C547 C 0.08639 0.53192 0.31424 0.0
C548 C 0.15485 0.51884 0.20485 0.0
C549 C 0.15935 0.46979 0.15436 0.0
N550 N 0.10781 0.52737 0.27757 0.0
N551 N 0.13691 0.47648 0.18 0.0
H552 H 0.06152 0.84714 0.01484 0.0
H553 H 0.0545 0.9548 0.80558 0.0
H554 H 0.98817 0.82232 0.9264 0.0
H555 H 0.97585 0.92748 0.78055 0.0
H556 H 0.06005 0.91855 0.88038 0.0
H557 H 0.05971 0.8884 0.96062 0.0
C558 C 0.04512 0.85032 0.98347 0.0
C559 C 0.02515 0.83105 0.97434 0.0
C560 C 0.04139 0.92063 0.86042 0.0
C561 C 0.02305 0.87825 0.91038 0.0
C562 C 0.03825 0.94143 0.81748 0.0
C563 C 0.01471 0.94403 0.78679 0.0
C564 C 0.02074 0.90235 0.87275 0.0
C565 C 0.99434 0.92612 0.80313 0.0
C566 C 0.04416 0.87391 0.95179 0.0
C567 C 0.00433 0.8363 0.93338 0.0
N568 N 0.99789 0.90592 0.84437 0.0
N569 N 0.00386 0.85933 0.90306 0.0
H570 H 0.71942 0.08168 0.81362 0.0
H571 H 0.5685 0.07057 0.80029 0.0
H572 H 0.67087 0.07934 0.00279 0.0
H573 H 0.61554 0.05245 0.61878 0.0
H574 H 0.60651 0.08401 0.87025 0.0
H575 H 0.68208 0.08099 0.73732 0.0
C576 C 0.70099 0.08131 0.83925 0.0
C577 C 0.69836 0.08018 0.91492 0.0
C578 C 0.60852 0.07737 0.81484 0.0
C579 C 0.6556 0.07969 0.82778 0.0
C580 C 0.58686 0.06976 0.77488 0.0
C581 C 0.58898 0.06014 0.70409 0.0
C582 C 0.63244 0.07538 0.7836 0.0
C583 C 0.61316 0.05958 0.67353 0.0
C584 C 0.67971 0.081 0.79561 0.0
C585 C 0.67399 0.08038 0.94493 0.0
N586 N 0.63399 0.06689 0.71371 0.0
N587 N 0.65358 0.07985 0.90128 0.0
H588 H 0.54457 0.65439 0.05998 0.0
H589 H 0.46357 0.54572 0.83361 0.0
H590 H 0.46357 0.64982 0.0388 0.0
H591 H 0.54496 0.55405 0.84298 0.0
H592 H 0.46243 0.57832 0.92915 0.0
H593 H 0.54424 0.61277 0.0005 0.0
C594 C 0.52668 0.64451 0.04308 0.0
C595 C 0.50411 0.65576 0.05291 0.0
C596 C 0.48053 0.57272 0.91121 0.0
C597 C 0.50357 0.60807 0.98497 0.0
C598 C 0.48118 0.55405 0.85694 0.0
C599 C 0.50441 0.54754 0.82985 0.0
C600 C 0.5033 0.58497 0.93812 0.0
C601 C 0.52666 0.55876 0.86196 0.0
C602 C 0.52649 0.6207 0.00948 0.0
C603 C 0.48141 0.64187 0.03184 0.0
N604 N 0.52557 0.57721 0.91375 0.0
N605 N 0.48174 0.61888 0.99786 0.0
H606 H 0.83863 0.38478 0.96074 0.0
H607 H 0.93883 0.4979 0.82758 0.0
H608 H 0.82566 0.46383 0.96251 0.0
H609 H 0.94683 0.41904 0.78002 0.0
H610 H 0.90093 0.48516 0.89892 0.0
H611 H 0.8815 0.39648 0.91303 0.0
C612 C 0.84484 0.40455 0.95115 0.0
C613 C 0.82851 0.42333 0.96419 0.0
C614 C 0.91111 0.47059 0.87358 0.0
C615 C 0.8773 0.43684 0.91112 0.0
C616 C 0.93282 0.47787 0.83327 0.0
C617 C 0.94574 0.45948 0.79743 0.0
C618 C 0.90222 0.44475 0.87781 0.0
C619 C 0.93724 0.43378 0.80663 0.0
C620 C 0.86923 0.41121 0.92407 0.0
C621 C 0.83746 0.4487 0.95149 0.0
N622 N 0.91579 0.42714 0.84537 0.0
N623 N 0.8612 0.45468 0.92559 0.0
H624 H 0.04848 0.17958 0.9012 0.0
H625 H 0.03664 0.09533 0.53673 0.0
H626 H 0.07221 0.20867 0.69229 0.0
H627 H 0.02635 0.06426 0.75039 0.0
H628 H 0.04785 0.13726 0.59146 0.0
H629 H 0.03744 0.13787 0.84529 0.0
C630 C 0.05097 0.17731 0.84325 0.0
C631 C 0.06105 0.19778 0.80122 0.0
C632 C 0.04327 0.12126 0.62637 0.0
C633 C 0.04894 0.14973 0.73699 0.0
C634 C 0.03686 0.09725 0.5952 0.0
C635 C 0.03048 0.07615 0.63902 0.0
C636 C 0.0431 0.12432 0.70198 0.0
C637 C 0.0312 0.0799 0.71442 0.0
C638 C 0.04495 0.15337 0.81151 0.0
C639 C 0.06452 0.19344 0.72672 0.0
N640 N 0.03723 0.10354 0.74346 0.0
N641 N 0.05843 0.16991 0.69694 0.0
H642 H 0.3302 0.99448 0.82899 0.0
H643 H 0.44843 0.06588 0.62906 0.0
H644 H 0.32728 0.06665 0.72672 0.0
H645 H 0.44243 0.98572 0.67067 0.0
H646 H 0.40397 0.06657 0.66413 0.0
H647 H 0.37051 0.99028 0.76876 0.0
C648 C 0.33763 0.00922 0.79262 0.0
C649 C 0.32519 0.03111 0.78371 0.0
C650 C 0.41228 0.04876 0.66488 0.0
C651 C 0.37209 0.02669 0.71626 0.0
C652 C 0.43767 0.0484 0.64523 0.0
C653 C 0.44906 0.02574 0.64728 0.0
C654 C 0.39831 0.02636 0.68789 0.0
C655 C 0.4343 0.00359 0.66823 0.0
C656 C 0.36088 0.00688 0.7587 0.0
C657 C 0.33632 0.04971 0.73678 0.0
N658 N 0.40974 0.0045 0.68849 0.0
N659 N 0.35927 0.04725 0.70573 0.0
H660 H 0.48211 0.29184 0.6969 0.0
H661 H 0.47075 0.44028 0.73303 0.0
H662 H 0.42372 0.32278 0.82418 0.0
H663 H 0.50058 0.40676 0.53959 0.0
H664 H 0.45844 0.39755 0.77826 0.0
H665 H 0.4942 0.33435 0.64806 0.0
C666 C 0.47176 0.30754 0.71397 0.0
C667 C 0.45167 0.30382 0.76358 0.0
C668 C 0.46762 0.39962 0.72581 0.0
C669 C 0.46571 0.35225 0.71002 0.0
C670 C 0.47471 0.42396 0.70013 0.0
C671 C 0.48651 0.42707 0.63224 0.0
C672 C 0.47288 0.37828 0.684 0.0
C673 C 0.49125 0.40523 0.59189 0.0
C674 C 0.47862 0.33169 0.68626 0.0
C675 C 0.43901 0.32479 0.78486 0.0
N676 N 0.48458 0.38175 0.61858 0.0
N677 N 0.44635 0.34812 0.75844 0.0
H678 H 0.21541 0.50781 0.68434 0.0
H679 H 0.06648 0.4986 0.76329 0.0
H680 H 0.18245 0.51584 0.89701 0.0
H681 H 0.09846 0.50081 0.54745 0.0
H682 H 0.10908 0.50447 0.81265 0.0
H683 H 0.17303 0.5055 0.63225 0.0
C684 C 0.19933 0.50938 0.71998 0.0
C685 C 0.20259 0.51214 0.79517 0.0
C686 C 0.1068 0.50371 0.75446 0.0
C687 C 0.154 0.50919 0.73606 0.0
C688 C 0.08243 0.50022 0.72618 0.0
C689 C 0.07879 0.49913 0.65101 0.0
C690 C 0.12781 0.506 0.7074 0.0
C691 C 0.10029 0.50151 0.60576 0.0
C692 C 0.17514 0.50805 0.69024 0.0
C693 C 0.18101 0.51415 0.83868 0.0
N694 N 0.12385 0.50476 0.63463 0.0
N695 N 0.1577 0.51242 0.8086 0.0
H696 H 0.94266 0.79974 0.40044 0.0
H697 H 0.97166 0.94843 0.33096 0.0
H698 H 0.95844 0.83203 0.19016 0.0
H699 H 0.96695 0.91553 0.54311 0.0
H700 H 0.95868 0.90654 0.27776 0.0
H701 H 0.94303 0.84266 0.45234 0.0
C702 C 0.94579 0.81578 0.36495 0.0
C703 C 0.9508 0.81214 0.29087 0.0
C704 C 0.96028 0.90855 0.33602 0.0
C705 C 0.95129 0.86133 0.34997 0.0
C706 C 0.96769 0.93249 0.36648 0.0
C707 C 0.97078 0.9355 0.44161 0.0
C708 C 0.95588 0.88746 0.38095 0.0
C709 C 0.96519 0.91411 0.48483 0.0
C710 C 0.94599 0.84028 0.39463 0.0
C711 C 0.95428 0.83372 0.2474 0.0
N712 N 0.95821 0.891 0.45385 0.0
N713 N 0.95478 0.85733 0.27773 0.0
H714 H 0.69317 0.96696 0.35103 0.0
H715 H 0.56548 0.02515 0.43787 0.0
H716 H 0.66361 0.02122 0.21306 0.0
H717 H 0.56782 0.94468 0.46355 0.0
H718 H 0.60699 0.02759 0.3793 0.0
H719 H 0.6519 0.96128 0.41465 0.0
C720 C 0.67794 0.97747 0.33396 0.0
C721 C 0.68157 0.99437 0.27645 0.0
C722 C 0.59845 0.00942 0.39807 0.0
C723 C 0.63518 0.98864 0.34961 0.0
C724 C 0.57485 0.00801 0.43177 0.0
C725 C 0.56316 0.98462 0.45499 0.0
C726 C 0.61075 0.98741 0.3888 0.0
C727 C 0.57619 0.96302 0.44579 0.0
C728 C 0.65454 0.97422 0.36999 0.0
C729 C 0.66143 0.00776 0.25652 0.0
N730 N 0.59947 0.96492 0.41351 0.0
N731 N 0.63921 0.00484 0.29358 0.0
H732 H 0.56655 0.7086 0.46584 0.0
H733 H 0.54732 0.56135 0.36017 0.0
H734 H 0.56907 0.67929 0.24646 0.0
H735 H 0.54933 0.59051 0.58039 0.0
H736 H 0.56097 0.60404 0.31822 0.0
H737 H 0.56661 0.66538 0.50974 0.0
C738 C 0.5677 0.69315 0.42698 0.0
C739 C 0.56763 0.69759 0.3524 0.0
C740 C 0.5587 0.60104 0.37579 0.0
C741 C 0.56722 0.648 0.40206 0.0
C742 C 0.55086 0.57663 0.39982 0.0
C743 C 0.54684 0.5723 0.47392 0.0
C744 C 0.56241 0.62134 0.42614 0.0
C745 C 0.5519 0.5929 0.52267 0.0
C746 C 0.56765 0.66845 0.452 0.0
C747 C 0.56929 0.67685 0.30445 0.0
N748 N 0.55915 0.61651 0.49788 0.0
N749 N 0.56859 0.65294 0.33005 0.0
H750 H 0.80512 0.43887 0.37972 0.0
H751 H 0.93942 0.51755 0.37536 0.0
H752 H 0.81708 0.51078 0.27173 0.0
H753 H 0.91374 0.46862 0.55084 0.0
H754 H 0.8961 0.51354 0.32863 0.0
H755 H 0.84587 0.44799 0.43704 0.0
C756 C 0.8159 0.45686 0.3689 0.0
C757 C 0.80721 0.47406 0.32033 0.0
C758 C 0.90001 0.50389 0.37767 0.0
C759 C 0.85493 0.48403 0.38433 0.0
C760 C 0.92472 0.50603 0.40413 0.0
C761 C 0.93027 0.49333 0.46699 0.0
C762 C 0.88089 0.48855 0.41358 0.0
C763 C 0.91041 0.47879 0.50227 0.0
C764 C 0.83944 0.46189 0.40135 0.0
C765 C 0.82293 0.49663 0.30742 0.0
N766 N 0.88672 0.47659 0.47469 0.0
N767 N 0.84613 0.5008 0.33845 0.0
loop_
_geom_bond_atom_site_label_1
_geom_bond_atom_site_label_2
_geom_bond_distance
_geom_bond_site_symmetry_2
_ccdc_geom_bond_type
P0 O11 1.490 . S
P0 C14 1.812 . S
P0 C20 1.803 . S
P0 C26 1.819 1_554 S
H1 C15 0.941 . S
H2 C16 0.939 . S
H3 C18 0.940 . S
H4 C19 0.940 . S
H5 C21 0.939 . S
H6 C22 0.942 . S
H7 C24 0.940 . S
H8 C25 0.939 . S
H9 C27 0.941 . S
H10 C31 0.939 . S
O11 P0 1.490 . S
H12 C28 0.939 . S
H13 C30 0.940 . S
C14 P0 1.812 . S
C14 C15 1.389 . S
C14 C19 1.391 . S
C15 H1 0.941 . S
C15 C14 1.389 . S
C15 C16 1.397 . S
C16 H2 0.939 . S
C16 C15 1.397 . S
C16 C17 1.378 . S
C17 C16 1.378 . S
C17 C18 1.378 . S
C18 H3 0.940 . S
C18 C17 1.378 . S
C18 C19 1.396 . S
C19 H4 0.940 . S
C19 C14 1.391 . S
C19 C18 1.396 . S
C20 P0 1.803 . S
C20 C21 1.378 1_554 S
C20 C25 1.400 . S
C21 H5 0.939 . S
C21 C20 1.378 1_556 S
C21 C22 1.361 . S
C22 H6 0.942 . S
C22 C21 1.361 . S
C22 C23 1.369 . S
C23 C22 1.369 . S
C23 C24 1.404 1_556 S
C24 H7 0.940 . S
C24 C23 1.404 1_554 S
C24 C25 1.389 . S
C25 H8 0.939 . S
C25 C20 1.400 . S
C25 C24 1.389 . S
C26 P0 1.819 1_556 S
C26 C27 1.391 . S
C26 C31 1.391 . S
C27 H9 0.941 . S
C27 C26 1.391 . S
C27 C28 1.396 . S
C28 H12 0.939 . S
C28 C27 1.396 . S
C28 C29 1.397 . S
C29 C28 1.397 . S
C29 C30 1.385 . S
C30 H13 0.940 . S
C30 C29 1.385 . S
C30 C31 1.388 . S
C31 H10 0.939 . S
C31 C26 1.391 . S
C31 C30 1.388 . S
P32 O43 1.490 . S
P32 C46 1.812 . S
P32 C52 1.803 1_554 S
P32 C58 1.819 1_554 S
H33 C47 0.941 . S
H34 C48 0.939 . S
H35 C50 0.940 . S
H36 C51 0.940 . S
H37 C53 0.939 . S
H38 C54 0.942 . S
H39 C56 0.940 1_554 S
H40 C57 0.939 . S
H41 C59 0.941 . S
H42 C63 0.939 . S
O43 P32 1.490 . S
H44 C60 0.939 . S
H45 C62 0.940 . S
C46 P32 1.812 . S
C46 C47 1.389 . S
C46 C51 1.391 . S
C47 H33 0.941 . S
C47 C46 1.389 . S
C47 C48 1.397 . S
C48 H34 0.939 . S
C48 C47 1.397 . S
C48 C49 1.378 . S
C49 C48 1.378 . S
C49 C50 1.378 . S
C50 H35 0.940 . S
C50 C49 1.378 . S
C50 C51 1.396 . S
C51 H36 0.940 . S
C51 C46 1.391 . S
C51 C50 1.396 . S
C52 P32 1.803 1_556 S
C52 C53 1.378 . S
C52 C57 1.400 1_556 S
C53 H37 0.939 . S
C53 C52 1.378 . S
C53 C54 1.361 . S
C54 H38 0.942 . S
C54 C53 1.361 . S
C54 C55 1.369 . S
C55 C54 1.369 . S
C55 C56 1.404 . S
C56 H39 0.940 1_556 S
C56 C55 1.404 . S
C56 C57 1.389 1_556 S
C57 H40 0.939 . S
C57 C52 1.400 1_554 S
C57 C56 1.389 1_554 S
C58 P32 1.819 1_556 S
C58 C59 1.391 . S
C58 C63 1.391 . S
C59 H41 0.941 . S
C59 C58 1.391 . S
C59 C60 1.396 . S
C60 H44 0.939 . S
C60 C59 1.396 . S
C60 C61 1.397 . S
C61 C60 1.397 . S
C61 C62 1.385 . S
C62 H45 0.940 . S
C62 C61 1.385 . S
C62 C63 1.388 . S
C63 H42 0.939 . S
C63 C58 1.391 . S
C63 C62 1.388 . S
P64 O75 1.490 . S
P64 C78 1.812 . S
P64 C84 1.803 . S
P64 C90 1.819 1_554 S
H65 C79 0.941 . S
H66 C80 0.939 . S
H67 C82 0.940 . S
H68 C83 0.950 . S
H69 C85 0.939 . S
H70 C86 0.942 . S
H71 C88 0.940 . S
H72 C89 0.957 . S
H73 C91 0.941 1_554 S
H74 C95 0.926 1_565 S
O75 P64 1.490 . S
H76 C92 0.939 . S
H77 C94 0.940 . S
C78 P64 1.812 . S
C78 C79 1.389 . S
C78 C83 1.376 1_545 S
C79 H65 0.941 . S
C79 C78 1.389 . S
C79 C80 1.397 . S
C80 H66 0.939 . S
C80 C79 1.397 . S
C80 C81 1.378 . S
C81 C80 1.378 . S
C81 C82 1.378 1_545 S
C82 H67 0.940 . S
C82 C81 1.378 1_565 S
C82 C83 1.402 . S
C83 H68 0.950 . S
C83 C78 1.376 1_565 S
C83 C82 1.402 . S
C84 P64 1.803 . S
C84 C85 1.378 1_554 S
C84 C89 1.367 1_545 S
C85 H69 0.939 . S
C85 C84 1.378 1_556 S
C85 C86 1.361 . S
C86 H70 0.942 . S
C86 C85 1.361 . S
C86 C87 1.369 . S
C87 C86 1.369 . S
C87 C88 1.404 1_546 S
C88 H71 0.940 . S
C88 C87 1.404 1_564 S
C88 C89 1.405 . S
C89 H72 0.957 . S
C89 C84 1.367 1_565 S
C89 C88 1.405 . S
C90 P64 1.819 1_556 S
C90 C91 1.391 . S
C90 C95 1.391 . S
C91 H73 0.941 1_556 S
C91 C90 1.391 . S
C91 C92 1.396 . S
C92 H76 0.939 . S
C92 C91 1.396 . S
C92 C93 1.397 . S
C93 C92 1.397 . S
C93 C94 1.385 1_545 S
C94 H77 0.940 . S
C94 C93 1.385 1_565 S
C94 C95 1.388 1_565 S
C95 H74 0.926 1_545 S
C95 C90 1.391 . S
C95 C94 1.388 1_545 S
P96 O107 1.490 . S
P96 C110 1.812 . S
P96 C116 1.803 . S
P96 C122 1.827 . S
H97 C111 0.941 . S
H98 C112 0.939 . S
H99 C114 0.940 . S
H100 C115 0.940 . S
H101 C117 0.939 1_556 S
H102 C118 0.942 . S
H103 C120 0.940 . S
H104 C121 0.939 . S
H105 C123 0.941 1_554 S
H106 C127 0.939 . S
O107 P96 1.490 . S
H108 C124 0.939 . S
H109 C126 0.940 . S
C110 P96 1.812 . S
C110 C111 1.389 . S
C110 C115 1.391 . S
C111 H97 0.941 . S
C111 C110 1.389 . S
C111 C112 1.397 . S
C112 H98 0.939 . S
C112 C111 1.397 . S
C112 C113 1.378 . S
C113 C112 1.378 . S
C113 C114 1.378 . S
C114 H99 0.940 . S
C114 C113 1.378 . S
C114 C115 1.396 . S
C115 H100 0.940 . S
C115 C110 1.391 . S
C115 C114 1.396 . S
C116 P96 1.803 . S
C116 C117 1.378 . S
C116 C121 1.400 . S
C117 H101 0.939 1_554 S
C117 C116 1.378 . S
C117 C118 1.361 1_554 S
C118 H102 0.942 . S
C118 C117 1.361 1_556 S
C118 C119 1.369 1_556 S
C119 C118 1.369 1_554 S
C119 C120 1.404 . S
C120 H103 0.940 . S
C120 C119 1.404 . S
C120 C121 1.389 . S
C121 H104 0.939 . S
C121 C116 1.400 . S
C121 C120 1.389 . S
C122 P96 1.827 . S
C122 C123 1.391 1_554 S
C122 C127 1.384 1_554 S
C123 H105 0.941 1_556 S
C123 C122 1.391 1_556 S
C123 C124 1.396 . S
C124 H108 0.939 . S
C124 C123 1.396 . S
C124 C125 1.397 . S
C125 C124 1.397 . S
C125 C126 1.385 . S
C126 H109 0.940 . S
C126 C125 1.385 . S
C126 C127 1.388 . S
C127 H106 0.939 . S
C127 C122 1.384 1_556 S
C127 C126 1.388 . S
P128 O139 1.490 . S
P128 C142 1.811 . S
P128 C148 1.803 . S
P128 C154 1.819 . S
H129 C143 0.941 . S
H130 C144 0.939 . S
H131 C146 0.940 . S
H132 C147 0.940 1_554 S
H133 C149 0.939 . S
H134 C150 0.942 . S
H135 C152 0.940 . S
H136 C153 0.939 . S
H137 C155 0.941 . S
H138 C159 0.939 . S
O139 P128 1.490 . S
H140 C156 0.939 . S
H141 C158 0.940 . S
C142 P128 1.811 . S
C142 C143 1.389 1_554 S
C142 C147 1.391 1_554 S
C143 H129 0.941 . S
C143 C142 1.389 1_556 S
C143 C144 1.397 . S
C144 H130 0.939 . S
C144 C143 1.397 . S
C144 C145 1.378 . S
C145 C144 1.378 . S
C145 C146 1.378 . S
C146 H131 0.940 . S
C146 C145 1.378 . S
C146 C147 1.396 . S
C147 H132 0.940 1_556 S
C147 C142 1.391 1_556 S
C147 C146 1.396 . S
C148 P128 1.803 . S
C148 C149 1.378 . S
C148 C153 1.400 . S
C149 H133 0.939 . S
C149 C148 1.378 . S
C149 C150 1.361 . S
C150 H134 0.942 . S
C150 C149 1.361 . S
C150 C151 1.369 . S
C151 C150 1.369 . S
C151 C152 1.404 . S
C152 H135 0.940 . S
C152 C151 1.404 . S
C152 C153 1.389 . S
C153 H136 0.939 . S
C153 C148 1.400 . S
C153 C152 1.389 . S
C154 P128 1.819 . S
C154 C155 1.391 . S
C154 C159 1.391 . S
C155 H137 0.941 . S
C155 C154 1.391 . S
C155 C156 1.396 . S
C156 H140 0.939 . S
C156 C155 1.396 . S
C156 C157 1.397 . S
C157 C156 1.397 . S
C157 C158 1.385 . S
C158 H141 0.940 . S
C158 C157 1.385 . S
C158 C159 1.388 . S
C159 H138 0.939 . S
C159 C154 1.391 . S
C159 C158 1.388 . S
P160 O171 1.490 . S
P160 C174 1.812 . S
P160 C180 1.803 . S
P160 C186 1.819 . S
H161 C175 0.941 . S
H162 C176 0.939 . S
H163 C178 0.940 . S
H164 C179 0.940 . S
H165 C181 0.939 . S
H166 C182 0.942 . S
H167 C184 0.940 . S
H168 C185 0.939 . S
H169 C187 0.941 . S
H170 C191 0.939 . S
O171 P160 1.490 . S
H172 C188 0.939 . S
H173 C190 0.940 . S
C174 P160 1.812 . S
C174 C175 1.389 1_554 S
C174 C179 1.391 . S
C175 H161 0.941 . S
C175 C174 1.389 1_556 S
C175 C176 1.397 . S
C176 H162 0.939 . S
C176 C175 1.397 . S
C176 C177 1.378 . S
C177 C176 1.378 . S
C177 C178 1.378 . S
C178 H163 0.940 . S
C178 C177 1.378 . S
C178 C179 1.396 1_556 S
C179 H164 0.940 . S
C179 C174 1.391 . S
C179 C178 1.396 1_554 S
C180 P160 1.803 . S
C180 C181 1.378 . S
C180 C185 1.400 . S
C181 H165 0.939 . S
C181 C180 1.378 . S
C181 C182 1.361 . S
C182 H166 0.942 . S
C182 C181 1.361 . S
C182 C183 1.369 . S
C183 C182 1.369 . S
C183 C184 1.404 . S
C184 H167 0.940 . S
C184 C183 1.404 . S
C184 C185 1.389 . S
C185 H168 0.939 . S
C185 C180 1.400 . S
C185 C184 1.389 . S
C186 P160 1.819 . S
C186 C187 1.391 . S
C186 C191 1.391 . S
C187 H169 0.941 . S
C187 C186 1.391 . S
C187 C188 1.396 . S
C188 H172 0.939 . S
C188 C187 1.396 . S
C188 C189 1.397 . S
C189 C188 1.397 . S
C189 C190 1.385 . S
C190 H173 0.940 . S
C190 C189 1.385 . S
C190 C191 1.388 . S
C191 H170 0.939 . S
C191 C186 1.391 . S
C191 C190 1.388 . S
P192 O203 1.490 . S
P192 C206 1.812 1_554 S
P192 C212 1.803 . S
P192 C218 1.819 . S
H193 C207 0.941 . S
H194 C208 0.939 . S
H195 C210 0.940 . S
H196 C211 0.944 1_554 S
H197 C213 0.939 . S
H198 C214 0.942 . S
H199 C216 0.940 . S
H200 C217 0.954 . S
H201 C219 0.941 . S
H202 C223 0.934 1_565 S
O203 P192 1.490 . S
H204 C220 0.939 . S
H205 C222 0.940 . S
C206 P192 1.812 1_556 S
C206 C207 1.389 . S
C206 C211 1.384 1_545 S
C207 H193 0.941 . S
C207 C206 1.389 . S
C207 C208 1.397 . S
C208 H194 0.939 . S
C208 C207 1.397 . S
C208 C209 1.378 . S
C209 C208 1.378 . S
C209 C210 1.378 1_545 S
C210 H195 0.940 . S
C210 C209 1.378 1_565 S
C210 C211 1.399 . S
C211 H196 0.944 1_556 S
C211 C206 1.384 1_565 S
C211 C210 1.399 . S
C212 P192 1.803 . S
C212 C213 1.378 . S
C212 C217 1.379 1_545 S
C213 H197 0.939 . S
C213 C212 1.378 . S
C213 C214 1.361 . S
C214 H198 0.942 . S
C214 C213 1.361 . S
C214 C215 1.369 . S
C215 C214 1.369 . S
C215 C216 1.404 1_545 S
C216 H199 0.940 . S
C216 C215 1.404 1_565 S
C216 C217 1.396 . S
C217 H200 0.954 . S
C217 C212 1.379 1_565 S
C217 C216 1.396 . S
C218 P192 1.819 . S
C218 C219 1.391 . S
C218 C223 1.391 . S
C219 H201 0.941 . S
C219 C218 1.391 . S
C219 C220 1.396 . S
C220 H204 0.939 . S
C220 C219 1.396 . S
C220 C221 1.397 . S
C221 C220 1.397 . S
C221 C222 1.385 1_545 S
C222 H205 0.940 . S
C222 C221 1.385 1_565 S
C222 C223 1.388 1_565 S
C223 H202 0.934 1_545 S
C223 C218 1.391 . S
C223 C222 1.388 1_545 S
P224 O235 1.490 . S
P224 C238 1.812 1_554 S
P224 C244 1.803 . S
P224 C250 1.819 . S
H225 C239 0.941 . S
H226 C240 0.939 . S
H227 C242 0.940 . S
H228 C243 0.937 1_554 S
H229 C245 0.939 . S
H230 C246 0.942 . S
H231 C248 0.940 . S
H232 C249 0.939 . S
H233 C251 0.941 . S
H234 C255 0.939 . S
O235 P224 1.490 . S
H236 C252 0.939 . S
H237 C254 0.940 . S
C238 P224 1.812 1_556 S
C238 C239 1.389 . S
C238 C243 1.391 . S
C239 H225 0.941 . S
C239 C238 1.389 . S
C239 C240 1.397 . S
C240 H226 0.939 . S
C240 C239 1.397 . S
C240 C241 1.378 . S
C241 C240 1.378 . S
C241 C242 1.378 . S
C242 H227 0.940 . S
C242 C241 1.378 . S
C242 C243 1.396 . S
C243 H228 0.937 1_556 S
C243 C238 1.391 . S
C243 C242 1.396 . S
C244 P224 1.803 . S
C244 C245 1.378 . S
C244 C249 1.400 . S
C245 H229 0.939 . S
C245 C244 1.378 . S
C245 C246 1.361 . S
C246 H230 0.942 . S
C246 C245 1.361 . S
C246 C247 1.369 . S
C247 C246 1.369 . S
C247 C248 1.404 . S
C248 H231 0.940 . S
C248 C247 1.404 . S
C248 C249 1.389 . S
C249 H232 0.939 . S
C249 C244 1.400 . S
C249 C248 1.389 . S
C250 P224 1.819 . S
C250 C251 1.391 . S
C250 C255 1.391 . S
C251 H233 0.941 . S
C251 C250 1.391 . S
C251 C252 1.396 . S
C252 H236 0.939 . S
C252 C251 1.396 . S
C252 C253 1.397 . S
C253 C252 1.397 . S
C253 C254 1.385 . S
C254 H237 0.940 . S
C254 C253 1.385 . S
C254 C255 1.388 . S
C255 H234 0.939 . S
C255 C250 1.391 . S
C255 C254 1.388 . S
Dy256 O260 2.398 . S
Dy256 O261 2.491 1_455 S
Dy256 O262 2.403 . S
Dy256 O263 2.664 1_565 S
Dy256 O267 2.326 . S
Dy256 O271 2.310 1_455 S
Dy256 O272 2.351 1_565 S
C257 O268 1.185 1_455 S
C257 O269 1.355 . S
C258 O260 1.185 . S
C258 O261 1.355 1_455 S
Dy259 O263 2.310 1_655 S
Dy259 O266 2.351 1_545 S
Dy259 O268 2.398 . S
Dy259 O269 2.491 1_655 S
Dy259 O270 2.403 . S
Dy259 O271 2.664 1_545 S
Dy259 O273 2.326 1_655 S
O260 Dy256 2.398 . S
O260 C258 1.185 . S
O261 Dy256 2.491 1_655 S
O261 C258 1.355 1_655 S
O262 Dy256 2.403 . S
O262 C264 1.254 . S
O263 Dy256 2.664 1_545 S
O263 Dy259 2.310 1_455 S
O263 C264 1.268 1_545 S
C264 O262 1.254 . S
C264 O263 1.268 1_565 S
C265 O270 1.254 . S
C265 O271 1.268 1_545 S
O266 Dy259 2.351 1_565 S
O266 C274 1.249 . S
O267 Dy256 2.326 . S
O267 C274 1.267 1_455 S
O268 C257 1.185 1_655 S
O268 Dy259 2.398 . S
O269 C257 1.355 . S
O269 Dy259 2.491 1_455 S
O270 Dy259 2.403 . S
O270 C265 1.254 . S
O271 Dy256 2.310 1_655 S
O271 Dy259 2.664 1_565 S
O271 C265 1.268 1_565 S
O272 Dy256 2.351 1_545 S
O272 C275 1.249 . S
O273 Dy259 2.326 1_455 S
O273 C275 1.267 . S
C274 O266 1.249 . S
C274 O267 1.267 1_655 S
C275 O272 1.249 . S
C275 O273 1.267 . S
Dy276 O280 2.398 . S
Dy276 O281 2.491 . S
Dy276 O282 2.403 . S
Dy276 O283 2.664 . S
Dy276 O287 2.326 1_565 S
Dy276 O291 2.310 1_565 S
Dy276 O292 2.351 . S
C277 O288 1.185 . S
C277 O289 1.355 . S
C278 O280 1.185 . S
C278 O281 1.355 . S
Dy279 O283 2.310 1_545 S
Dy279 O286 2.351 . S
Dy279 O288 2.398 . S
Dy279 O289 2.491 . S
Dy279 O290 2.403 . S
Dy279 O291 2.664 . S
Dy279 O293 2.326 1_545 S
O280 Dy276 2.398 . S
O280 C278 1.185 . S
O281 Dy276 2.491 . S
O281 C278 1.355 . S
O282 Dy276 2.403 . S
O282 C284 1.254 . S
O283 Dy276 2.664 . S
O283 Dy279 2.310 1_565 S
O283 C284 1.268 . S
C284 O282 1.254 . S
C284 O283 1.268 . S
C285 O290 1.254 . S
C285 O291 1.268 . S
O286 Dy279 2.351 . S
O286 C294 1.249 . S
O287 Dy276 2.326 1_545 S
O287 C294 1.267 . S
O288 C277 1.185 . S
O288 Dy279 2.398 . S
O289 C277 1.355 . S
O289 Dy279 2.491 . S
O290 Dy279 2.403 . S
O290 C285 1.254 . S
O291 Dy276 2.310 1_545 S
O291 Dy279 2.664 . S
O291 C285 1.268 . S
O292 Dy276 2.351 . S
O292 C295 1.249 . S
O293 Dy279 2.326 1_565 S
O293 C295 1.267 . S
C294 O286 1.249 . S
C294 O287 1.267 . S
C295 O292 1.249 . S
C295 O293 1.267 . S
Dy296 O300 2.398 . S
Dy296 O301 2.491 . S
Dy296 O302 2.403 . S
Dy296 O303 2.664 . S
Dy296 O307 2.326 . S
Dy296 O311 2.310 . S
Dy296 O312 2.351 . S
C297 O308 1.185 . S
C297 O309 1.355 . S
C298 O300 1.185 . S
C298 O301 1.355 . S
Dy299 O303 2.310 . S
Dy299 O306 2.351 . S
Dy299 O308 2.398 . S
Dy299 O309 2.491 . S
Dy299 O310 2.403 . S
Dy299 O311 2.664 . S
Dy299 O313 2.326 . S
O300 Dy296 2.398 . S
O300 C298 1.185 . S
O301 Dy296 2.491 . S
O301 C298 1.355 . S
O302 Dy296 2.403 . S
O302 C304 1.254 . S
O303 Dy296 2.664 . S
O303 Dy299 2.310 . S
O303 C304 1.268 . S
C304 O302 1.254 . S
C304 O303 1.268 . S
C305 O310 1.254 . S
C305 O311 1.268 . S
O306 Dy299 2.351 . S
O306 C314 1.249 . S
O307 Dy296 2.326 . S
O307 C314 1.267 . S
O308 C297 1.185 . S
O308 Dy299 2.398 . S
O309 C297 1.355 . S
O309 Dy299 2.491 . S
O310 Dy299 2.403 . S
O310 C305 1.254 . S
O311 Dy296 2.310 . S
O311 Dy299 2.664 . S
O311 C305 1.268 . S
O312 Dy296 2.351 . S
O312 C315 1.249 . S
O313 Dy299 2.326 . S
O313 C315 1.267 . S
C314 O306 1.249 . S
C314 O307 1.267 . S
C315 O312 1.249 . S
C315 O313 1.267 . S
Dy316 O320 2.398 . S
Dy316 O321 2.491 . S
Dy316 O322 2.403 1_655 S
Dy316 O323 2.664 1_655 S
Dy316 O327 2.326 . S
Dy316 O331 2.310 . S
Dy316 O332 2.351 1_655 S
C317 O328 1.185 . S
C317 O329 1.355 . S
C318 O320 1.185 . S
C318 O321 1.355 . S
Dy319 O323 2.310 . S
Dy319 O326 2.351 1_455 S
Dy319 O328 2.398 . S
Dy319 O329 2.491 . S
Dy319 O330 2.403 . S
Dy319 O331 2.664 1_455 S
Dy319 O333 2.326 . S
O320 Dy316 2.398 . S
O320 C318 1.185 . S
O321 Dy316 2.491 . S
O321 C318 1.355 . S
O322 Dy316 2.403 1_455 S
O322 C324 1.254 . S
O323 Dy316 2.664 1_455 S
O323 Dy319 2.310 . S
O323 C324 1.268 . S
C324 O322 1.254 . S
C324 O323 1.268 . S
C325 O330 1.254 1_655 S
C325 O331 1.268 . S
O326 Dy319 2.351 1_655 S
O326 C334 1.249 . S
O327 Dy316 2.326 . S
O327 C334 1.267 . S
O328 C317 1.185 . S
O328 Dy319 2.398 . S
O329 C317 1.355 . S
O329 Dy319 2.491 . S
O330 Dy319 2.403 . S
O330 C325 1.254 1_455 S
O331 Dy316 2.310 . S
O331 Dy319 2.664 1_655 S
O331 C325 1.268 . S
O332 Dy316 2.351 1_455 S
O332 C335 1.249 . S
O333 Dy319 2.326 . S
O333 C335 1.267 . S
C334 O326 1.249 . S
C334 O327 1.267 . S
C335 O332 1.249 . S
C335 O333 1.267 . S
H336 C342 0.930 . S
H337 C346 0.930 . S
H338 C351 0.929 . S
H339 C349 0.929 . S
H340 C344 0.929 . S
H341 C350 0.929 . S
C342 H336 0.930 . S
C342 C343 1.395 . S
C342 C350 1.378 . S
C343 C342 1.395 . S
C343 C351 1.404 1_565 S
C344 H340 0.929 . S
C344 C346 1.378 . S
C344 C348 1.350 1_545 S
C345 C348 1.463 . S
C345 C350 1.350 . S
C345 N353 1.427 1_565 S
C346 H337 0.930 . S
C346 C344 1.378 . S
C346 C347 1.367 1_545 S
C347 C346 1.367 1_565 S
C347 C349 1.433 . S
C348 C344 1.350 1_565 S
C348 C345 1.463 . S
C348 N352 1.427 . S
C349 H339 0.929 . S
C349 C347 1.433 . S
C349 N352 1.384 . S
C350 H341 0.929 . S
C350 C342 1.378 . S
C350 C345 1.350 . S
C351 H338 0.929 . S
C351 C343 1.404 1_545 S
C351 N353 1.384 . S
N352 C348 1.427 . S
N352 C349 1.384 . S
N353 C345 1.427 1_545 S
N353 C351 1.384 . S
H354 C360 0.930 . S
H355 C364 0.930 . S
H356 C369 0.929 . S
H357 C367 0.929 . S
H358 C362 0.929 . S
H359 C368 0.929 . S
C360 H354 0.930 . S
C360 C361 1.367 . S
C360 C368 1.378 . S
C361 C360 1.367 . S
C361 C369 1.433 . S
C362 H358 0.929 . S
C362 C364 1.378 . S
C362 C366 1.350 . S
C363 C366 1.463 . S
C363 C368 1.350 . S
C363 N371 1.427 . S
C364 H355 0.930 . S
C364 C362 1.378 . S
C364 C365 1.367 . S
C365 C364 1.367 . S
C365 C367 1.433 . S
C366 C362 1.350 . S
C366 C363 1.463 . S
C366 N370 1.427 . S
C367 H357 0.929 . S
C367 C365 1.433 . S
C367 N370 1.384 . S
C368 H359 0.929 . S
C368 C360 1.378 . S
C368 C363 1.350 . S
C369 H356 0.929 . S
C369 C361 1.433 . S
C369 N371 1.384 . S
N370 C366 1.427 . S
N370 C367 1.384 . S
N371 C363 1.427 . S
N371 C369 1.384 . S
H372 C378 0.930 . S
H373 C382 0.930 . S
H374 C387 0.929 . S
H375 C385 0.929 . S
H376 C380 0.929 . S
H377 C386 0.929 . S
C378 H372 0.930 . S
C378 C379 1.367 . S
C378 C386 1.378 . S
C379 C378 1.367 . S
C379 C387 1.433 . S
C380 H376 0.929 . S
C380 C382 1.378 . S
C380 C384 1.350 . S
C381 C384 1.463 . S
C381 C386 1.350 . S
C381 N389 1.427 . S
C382 H373 0.930 . S
C382 C380 1.378 . S
C382 C383 1.367 . S
C383 C382 1.367 . S
C383 C385 1.433 . S
C384 C380 1.350 . S
C384 C381 1.463 . S
C384 N388 1.427 . S
C385 H375 0.929 . S
C385 C383 1.433 . S
C385 N388 1.384 . S
C386 H377 0.929 . S
C386 C378 1.378 . S
C386 C381 1.350 . S
C387 H374 0.929 . S
C387 C379 1.433 . S
C387 N389 1.384 . S
N388 C384 1.427 . S
N388 C385 1.384 . S
N389 C381 1.427 . S
N389 C387 1.384 . S
H390 C396 0.930 . S
H391 C400 0.930 . S
H392 C405 0.929 . S
H393 C403 0.944 . S
H394 C398 0.929 . S
H395 C404 0.929 . S
C396 H390 0.930 . S
C396 C397 1.367 . S
C396 C404 1.378 . S
C397 C396 1.367 . S
C397 C405 1.433 . S
C398 H394 0.929 . S
C398 C400 1.378 . S
C398 C402 1.350 . S
C399 C402 1.463 . S
C399 C404 1.350 . S
C399 N407 1.427 . S
C400 H391 0.930 . S
C400 C398 1.378 . S
C400 C401 1.367 . S
C401 C400 1.367 . S
C401 C403 1.433 . S
C402 C398 1.350 . S
C402 C399 1.463 . S
C402 N406 1.427 . S
C403 H393 0.944 . S
C403 C401 1.433 . S
C403 N406 1.384 . S
C404 H395 0.929 . S
C404 C396 1.378 . S
C404 C399 1.350 . S
C405 H392 0.929 . S
C405 C397 1.433 . S
C405 N407 1.384 . S
N406 C402 1.427 . S
N406 C403 1.384 . S
N407 C399 1.427 . S
N407 C405 1.384 . S
H408 C414 0.930 . S
H409 C418 0.930 . S
H410 C423 0.929 . S
H411 C421 0.929 . S
H412 C416 0.929 . S
H413 C422 0.929 . S
C414 H408 0.930 . S
C414 C415 1.373 . S
C414 C422 1.378 . S
C415 C414 1.373 . S
C415 C423 1.426 1_545 S
C416 H412 0.929 . S
C416 C418 1.378 . S
C416 C420 1.350 1_565 S
C417 C420 1.463 . S
C417 C422 1.350 . S
C417 N425 1.427 1_545 S
C418 H409 0.930 . S
C418 C416 1.378 . S
C418 C419 1.367 1_565 S
C419 C418 1.367 1_545 S
C419 C421 1.433 . S
C420 C416 1.350 1_545 S
C420 C417 1.463 . S
C420 N424 1.427 . S
C421 H411 0.929 . S
C421 C419 1.433 . S
C421 N424 1.384 . S
C422 H413 0.929 . S
C422 C414 1.378 . S
C422 C417 1.350 . S
C423 H410 0.929 . S
C423 C415 1.426 1_565 S
C423 N425 1.384 . S
N424 C420 1.427 . S
N424 C421 1.384 . S
N425 C417 1.427 1_565 S
N425 C423 1.384 . S
H426 C432 0.930 . S
H427 C436 0.930 . S
H428 C441 0.929 . S
H429 C439 0.929 . S
H430 C434 0.929 . S
H431 C440 0.929 . S
C432 H426 0.930 . S
C432 C433 1.367 . S
C432 C440 1.378 . S
C433 C432 1.367 . S
C433 C441 1.433 . S
C434 H430 0.929 . S
C434 C436 1.378 . S
C434 C438 1.350 . S
C435 C438 1.463 . S
C435 C440 1.350 . S
C435 N443 1.427 . S
C436 H427 0.930 . S
C436 C434 1.378 . S
C436 C437 1.367 . S
C437 C436 1.367 . S
C437 C439 1.433 . S
C438 C434 1.350 . S
C438 C435 1.463 . S
C438 N442 1.427 . S
C439 H429 0.929 . S
C439 C437 1.433 . S
C439 N442 1.384 . S
C440 H431 0.929 . S
C440 C432 1.378 . S
C440 C435 1.350 . S
C441 H428 0.929 . S
C441 C433 1.433 . S
C441 N443 1.384 . S
N442 C438 1.427 . S
N442 C439 1.384 . S
N443 C435 1.427 . S
N443 C441 1.384 . S
H444 C450 0.930 . S
H445 C454 0.930 . S
H446 C459 0.929 . S
H447 C457 0.929 . S
H448 C452 0.929 . S
H449 C458 0.929 . S
C450 H444 0.930 . S
C450 C451 1.367 . S
C450 C458 1.378 . S
C451 C450 1.367 . S
C451 C459 1.433 . S
C452 H448 0.929 . S
C452 C454 1.378 . S
C452 C456 1.350 . S
C453 C456 1.463 . S
C453 C458 1.350 . S
C453 N461 1.427 . S
C454 H445 0.930 . S
C454 C452 1.378 . S
C454 C455 1.367 . S
C455 C454 1.367 . S
C455 C457 1.433 . S
C456 C452 1.350 . S
C456 C453 1.463 . S
C456 N460 1.427 . S
C457 H447 0.929 . S
C457 C455 1.433 . S
C457 N460 1.384 . S
C458 H449 0.929 . S
C458 C450 1.378 . S
C458 C453 1.350 . S
C459 H446 0.929 . S
C459 C451 1.433 . S
C459 N461 1.384 . S
N460 C456 1.427 . S
N460 C457 1.384 . S
N461 C453 1.427 . S
N461 C459 1.384 . S
H462 C468 0.930 . S
H463 C472 0.930 . S
H464 C477 0.929 . S
H465 C475 0.929 . S
H466 C470 0.929 . S
H467 C476 0.929 . S
C468 H462 0.930 . S
C468 C469 1.367 . S
C468 C476 1.378 . S
C469 C468 1.367 . S
C469 C477 1.433 . S
C470 H466 0.929 . S
C470 C472 1.378 . S
C470 C474 1.350 . S
C471 C474 1.463 . S
C471 C476 1.350 . S
C471 N479 1.427 . S
C472 H463 0.930 . S
C472 C470 1.378 . S
C472 C473 1.367 . S
C473 C472 1.367 . S
C473 C475 1.433 . S
C474 C470 1.350 . S
C474 C471 1.463 . S
C474 N478 1.427 . S
C475 H465 0.929 . S
C475 C473 1.433 . S
C475 N478 1.384 . S
C476 H467 0.929 . S
C476 C468 1.378 . S
C476 C471 1.350 . S
C477 H464 0.929 . S
C477 C469 1.433 . S
C477 N479 1.384 . S
N478 C474 1.427 . S
N478 C475 1.384 . S
N479 C471 1.427 . S
N479 C477 1.384 . S
H480 C486 0.930 . S
H481 C490 0.930 1_655 S
H482 C495 0.929 . S
H483 C493 0.929 . S
H484 C488 0.929 . S
H485 C494 0.929 . S
C486 H480 0.930 . S
C486 C487 1.367 . S
C486 C494 1.378 . S
C487 C486 1.367 . S
C487 C495 1.433 . S
C488 H484 0.929 . S
C488 C490 1.378 . S
C488 C492 1.350 . S
C489 C492 1.463 . S
C489 C494 1.350 . S
C489 N497 1.427 . S
C490 H481 0.930 1_455 S
C490 C488 1.378 . S
C490 C491 1.367 . S
C491 C490 1.367 . S
C491 C493 1.433 . S
C492 C488 1.350 . S
C492 C489 1.463 . S
C492 N496 1.427 . S
C493 H483 0.929 . S
C493 C491 1.433 . S
C493 N496 1.384 . S
C494 H485 0.929 . S
C494 C486 1.378 . S
C494 C489 1.350 . S
C495 H482 0.929 . S
C495 C487 1.433 . S
C495 N497 1.384 . S
N496 C492 1.427 . S
N496 C493 1.384 . S
N497 C489 1.427 . S
N497 C495 1.384 . S
H498 C504 0.930 . S
H499 C508 0.930 . S
H500 C513 0.929 . S
H501 C511 0.929 . S
H502 C506 0.929 . S
H503 C512 0.929 . S
C504 H498 0.930 . S
C504 C505 1.347 1_565 S
C504 C512 1.378 . S
C505 C504 1.347 1_545 S
C505 C513 1.447 . S
C506 H502 0.929 . S
C506 C508 1.378 . S
C506 C510 1.350 1_545 S
C507 C510 1.463 . S
C507 C512 1.350 . S
C507 N515 1.427 1_565 S
C508 H499 0.930 . S
C508 C506 1.378 . S
C508 C509 1.367 1_545 S
C509 C508 1.367 1_565 S
C509 C511 1.433 . S
C510 C506 1.350 1_565 S
C510 C507 1.463 . S
C510 N514 1.427 . S
C511 H501 0.929 . S
C511 C509 1.433 . S
C511 N514 1.384 . S
C512 H503 0.929 . S
C512 C504 1.378 . S
C512 C507 1.350 . S
C513 H500 0.929 . S
C513 C505 1.447 . S
C513 N515 1.384 . S
N514 C510 1.427 . S
N514 C511 1.384 . S
N515 C507 1.427 1_545 S
N515 C513 1.384 . S
H516 C522 0.930 . S
H517 C526 0.930 . S
H518 C531 0.929 . S
H519 C529 0.929 . S
H520 C524 0.929 . S
H521 C530 0.929 . S
C522 H516 0.930 . S
C522 C523 1.367 . S
C522 C530 1.378 . S
C523 C522 1.367 . S
C523 C531 1.433 . S
C524 H520 0.929 . S
C524 C526 1.378 . S
C524 C528 1.350 . S
C525 C528 1.463 . S
C525 C530 1.350 . S
C525 N533 1.427 . S
C526 H517 0.930 . S
C526 C524 1.378 . S
C526 C527 1.367 . S
C527 C526 1.367 . S
C527 C529 1.433 . S
C528 C524 1.350 . S
C528 C525 1.463 . S
C528 N532 1.427 . S
C529 H519 0.929 . S
C529 C527 1.433 . S
C529 N532 1.384 . S
C530 H521 0.929 . S
C530 C522 1.378 . S
C530 C525 1.350 . S
C531 H518 0.929 . S
C531 C523 1.433 . S
C531 N533 1.384 . S
N532 C528 1.427 . S
N532 C529 1.384 . S
N533 C525 1.427 . S
N533 C531 1.384 . S
H534 C540 0.930 . S
H535 C544 0.930 . S
H536 C549 0.929 . S
H537 C547 0.929 . S
H538 C542 0.929 . S
H539 C548 0.929 . S
C540 H534 0.930 . S
C540 C541 1.367 . S
C540 C548 1.378 . S
C541 C540 1.367 . S
C541 C549 1.433 . S
C542 H538 0.929 . S
C542 C544 1.378 . S
C542 C546 1.350 . S
C543 C546 1.463 . S
C543 C548 1.350 . S
C543 N551 1.427 . S
C544 H535 0.930 . S
C544 C542 1.378 . S
C544 C545 1.367 . S
C545 C544 1.367 . S
C545 C547 1.433 . S
C546 C542 1.350 . S
C546 C543 1.463 . S
C546 N550 1.427 . S
C547 H537 0.929 . S
C547 C545 1.433 . S
C547 N550 1.384 . S
C548 H539 0.929 . S
C548 C540 1.378 . S
C548 C543 1.350 . S
C549 H536 0.929 . S
C549 C541 1.433 . S
C549 N551 1.384 . S
N550 C546 1.427 . S
N550 C547 1.384 . S
N551 C543 1.427 . S
N551 C549 1.384 . S
H552 C558 0.930 . S
H553 C562 0.930 . S
H554 C567 0.929 . S
H555 C565 0.929 . S
H556 C560 0.929 . S
H557 C566 0.929 . S
C558 H552 0.930 . S
C558 C559 1.367 . S
C558 C566 1.378 . S
C559 C558 1.367 . S
C559 C567 1.433 . S
C560 H556 0.929 . S
C560 C562 1.378 1_655 S
C560 C564 1.350 . S
C561 C564 1.463 . S
C561 C566 1.350 . S
C561 N569 1.427 . S
C562 H553 0.930 . S
C562 C560 1.378 1_455 S
C562 C563 1.374 . S
C563 C562 1.374 . S
C563 C565 1.415 1_455 S
C564 C560 1.350 . S
C564 C561 1.463 . S
C564 N568 1.427 . S
C565 H555 0.929 . S
C565 C563 1.415 1_655 S
C565 N568 1.384 . S
C566 H557 0.929 . S
C566 C558 1.378 . S
C566 C561 1.350 . S
C567 H554 0.929 . S
C567 C559 1.433 . S
C567 N569 1.384 . S
N568 C564 1.427 . S
N568 C565 1.384 . S
N569 C561 1.427 . S
N569 C567 1.384 . S
H570 C576 0.930 . S
H571 C580 0.930 . S
H572 C585 0.929 . S
H573 C583 0.929 . S
H574 C578 0.929 . S
H575 C584 0.929 . S
C576 H570 0.930 . S
C576 C577 1.353 1_545 S
C576 C584 1.378 . S
C577 C576 1.353 1_565 S
C577 C585 1.445 . S
C578 H574 0.929 . S
C578 C580 1.378 . S
C578 C582 1.350 1_565 S
C579 C582 1.463 . S
C579 C584 1.350 . S
C579 N587 1.427 1_545 S
C580 H571 0.930 . S
C580 C578 1.378 . S
C580 C581 1.367 1_565 S
C581 C580 1.367 1_545 S
C581 C583 1.433 . S
C582 C578 1.350 1_545 S
C582 C579 1.463 . S
C582 N586 1.427 . S
C583 H573 0.929 . S
C583 C581 1.433 . S
C583 N586 1.384 . S
C584 H575 0.929 . S
C584 C576 1.378 . S
C584 C579 1.350 . S
C585 H572 0.929 . S
C585 C577 1.445 . S
C585 N587 1.384 . S
N586 C582 1.427 . S
N586 C583 1.384 . S
N587 C579 1.427 1_565 S
N587 C585 1.384 . S
H588 C594 0.930 . S
H589 C598 0.930 . S
H590 C603 0.929 . S
H591 C601 0.929 . S
H592 C596 0.929 . S
H593 C602 0.929 . S
C594 H588 0.930 . S
C594 C595 1.367 . S
C594 C602 1.378 . S
C595 C594 1.367 . S
C595 C603 1.433 . S
C596 H592 0.929 . S
C596 C598 1.378 . S
C596 C600 1.350 . S
C597 C600 1.463 . S
C597 C602 1.350 . S
C597 N605 1.427 . S
C598 H589 0.930 . S
C598 C596 1.378 . S
C598 C599 1.367 . S
C599 C598 1.367 . S
C599 C601 1.433 . S
C600 C596 1.350 . S
C600 C597 1.463 . S
C600 N604 1.427 . S
C601 H591 0.929 . S
C601 C599 1.433 . S
C601 N604 1.384 . S
C602 H593 0.929 . S
C602 C594 1.378 . S
C602 C597 1.350 . S
C603 H590 0.929 . S
C603 C595 1.433 . S
C603 N605 1.384 . S
N604 C600 1.427 . S
N604 C601 1.384 . S
N605 C597 1.427 . S
N605 C603 1.384 . S
H606 C612 0.930 . S
H607 C616 0.930 . S
H608 C621 0.929 . S
H609 C619 0.929 . S
H610 C614 0.929 . S
H611 C620 0.929 . S
C612 H606 0.930 . S
C612 C613 1.367 . S
C612 C620 1.378 . S
C613 C612 1.367 . S
C613 C621 1.433 . S
C614 H610 0.929 . S
C614 C616 1.378 . S
C614 C618 1.350 . S
C615 C618 1.463 . S
C615 C620 1.350 . S
C615 N623 1.427 . S
C616 H607 0.930 . S
C616 C614 1.378 . S
C616 C617 1.367 . S
C617 C616 1.367 . S
C617 C619 1.433 . S
C618 C614 1.350 . S
C618 C615 1.463 . S
C618 N622 1.427 . S
C619 H609 0.929 . S
C619 C617 1.433 . S
C619 N622 1.384 . S
C620 H611 0.929 . S
C620 C612 1.378 . S
C620 C615 1.350 . S
C621 H608 0.929 . S
C621 C613 1.433 . S
C621 N623 1.384 . S
N622 C618 1.427 . S
N622 C619 1.384 . S
N623 C615 1.427 . S
N623 C621 1.384 . S
H624 C630 0.930 . S
H625 C634 0.930 . S
H626 C639 0.929 . S
H627 C637 0.929 . S
H628 C632 0.929 . S
H629 C638 0.929 . S
C630 H624 0.930 . S
C630 C631 1.367 . S
C630 C638 1.378 . S
C631 C630 1.367 . S
C631 C639 1.433 . S
C632 H628 0.929 . S
C632 C634 1.378 . S
C632 C636 1.350 . S
C633 C636 1.463 . S
C633 C638 1.350 . S
C633 N641 1.427 . S
C634 H625 0.930 . S
C634 C632 1.378 . S
C634 C635 1.367 . S
C635 C634 1.367 . S
C635 C637 1.433 . S
C636 C632 1.350 . S
C636 C633 1.463 . S
C636 N640 1.427 . S
C637 H627 0.929 . S
C637 C635 1.433 . S
C637 N640 1.384 . S
C638 H629 0.929 . S
C638 C630 1.378 . S
C638 C633 1.350 . S
C639 H626 0.929 . S
C639 C631 1.433 . S
C639 N641 1.384 . S
N640 C636 1.427 . S
N640 C637 1.384 . S
N641 C633 1.427 . S
N641 C639 1.384 . S
H642 C648 0.930 . S
H643 C652 0.930 . S
H644 C657 0.929 . S
H645 C655 0.929 . S
H646 C650 0.929 . S
H647 C656 0.929 . S
C648 H642 0.930 . S
C648 C649 1.368 . S
C648 C656 1.376 . S
C649 C648 1.368 . S
C649 C657 1.434 . S
C650 H646 0.929 . S
C650 C652 1.378 . S
C650 C654 1.350 . S
C651 C654 1.463 . S
C651 C656 1.350 . S
C651 N659 1.427 . S
C652 H643 0.930 . S
C652 C650 1.378 . S
C652 C653 1.367 . S
C653 C652 1.367 . S
C653 C655 1.433 . S
C654 C650 1.350 . S
C654 C651 1.463 . S
C654 N658 1.427 . S
C655 H645 0.929 . S
C655 C653 1.433 . S
C655 N658 1.384 . S
C656 H647 0.929 . S
C656 C648 1.376 . S
C656 C651 1.350 . S
C657 H644 0.929 . S
C657 C649 1.434 . S
C657 N659 1.384 . S
N658 C654 1.427 . S
N658 C655 1.384 . S
N659 C651 1.427 . S
N659 C657 1.384 . S
H660 C666 0.930 . S
H661 C670 0.930 . S
H662 C675 0.929 . S
H663 C673 0.929 . S
H664 C668 0.929 . S
H665 C674 0.929 . S
C666 H660 0.930 . S
C666 C667 1.367 . S
C666 C674 1.378 . S
C667 C666 1.367 . S
C667 C675 1.433 . S
C668 H664 0.929 . S
C668 C670 1.378 . S
C668 C672 1.350 . S
C669 C672 1.463 . S
C669 C674 1.350 . S
C669 N677 1.427 . S
C670 H661 0.930 . S
C670 C668 1.378 . S
C670 C671 1.367 . S
C671 C670 1.367 . S
C671 C673 1.433 . S
C672 C668 1.350 . S
C672 C669 1.463 . S
C672 N676 1.427 . S
C673 H663 0.929 . S
C673 C671 1.433 . S
C673 N676 1.384 . S
C674 H665 0.929 . S
C674 C666 1.378 . S
C674 C669 1.350 . S
C675 H662 0.929 . S
C675 C667 1.433 . S
C675 N677 1.384 . S
N676 C672 1.427 . S
N676 C673 1.384 . S
N677 C669 1.427 . S
N677 C675 1.384 . S
H678 C684 0.930 . S
H679 C688 0.930 . S
H680 C693 0.929 . S
H681 C691 0.929 . S
H682 C686 0.929 . S
H683 C692 0.929 . S
C684 H678 0.930 . S
C684 C685 1.367 . S
C684 C692 1.378 . S
C685 C684 1.367 . S
C685 C693 1.433 . S
C686 H682 0.929 . S
C686 C688 1.378 . S
C686 C690 1.350 . S
C687 C690 1.463 . S
C687 C692 1.350 . S
C687 N695 1.427 . S
C688 H679 0.930 . S
C688 C686 1.378 . S
C688 C689 1.367 . S
C689 C688 1.367 . S
C689 C691 1.433 . S
C690 C686 1.350 . S
C690 C687 1.463 . S
C690 N694 1.427 . S
C691 H681 0.929 . S
C691 C689 1.433 . S
C691 N694 1.384 . S
C692 H683 0.929 . S
C692 C684 1.378 . S
C692 C687 1.350 . S
C693 H680 0.929 . S
C693 C685 1.433 . S
C693 N695 1.384 . S
N694 C690 1.427 . S
N694 C691 1.384 . S
N695 C687 1.427 . S
N695 C693 1.384 . S
H696 C702 0.930 . S
H697 C706 0.930 . S
H698 C711 0.929 . S
H699 C709 0.929 . S
H700 C704 0.929 . S
H701 C710 0.929 . S
C702 H696 0.930 . S
C702 C703 1.367 . S
C702 C710 1.378 . S
C703 C702 1.367 . S
C703 C711 1.433 . S
C704 H700 0.929 . S
C704 C706 1.378 . S
C704 C708 1.350 . S
C705 C708 1.463 . S
C705 C710 1.350 . S
C705 N713 1.427 . S
C706 H697 0.930 . S
C706 C704 1.378 . S
C706 C707 1.367 . S
C707 C706 1.367 . S
C707 C709 1.433 . S
C708 C704 1.350 . S
C708 C705 1.463 . S
C708 N712 1.427 . S
C709 H699 0.929 . S
C709 C707 1.433 . S
C709 N712 1.384 . S
C710 H701 0.929 . S
C710 C702 1.378 . S
C710 C705 1.350 . S
C711 H698 0.929 . S
C711 C703 1.433 . S
C711 N713 1.384 . S
N712 C708 1.427 . S
N712 C709 1.384 . S
N713 C705 1.427 . S
N713 C711 1.384 . S
H714 C720 0.930 . S
H715 C724 0.930 . S
H716 C729 0.929 . S
H717 C727 0.929 . S
H718 C722 0.929 . S
H719 C728 0.929 . S
C720 H714 0.930 . S
C720 C721 1.374 . S
C720 C728 1.378 . S
C721 C720 1.374 . S
C721 C729 1.425 1_565 S
C722 H718 0.929 . S
C722 C724 1.378 . S
C722 C726 1.350 1_545 S
C723 C726 1.463 . S
C723 C728 1.350 . S
C723 N731 1.427 1_565 S
C724 H715 0.930 . S
C724 C722 1.378 . S
C724 C725 1.367 1_545 S
C725 C724 1.367 1_565 S
C725 C727 1.433 . S
C726 C722 1.350 1_565 S
C726 C723 1.463 . S
C726 N730 1.427 . S
C727 H717 0.929 . S
C727 C725 1.433 . S
C727 N730 1.384 . S
C728 H719 0.929 . S
C728 C720 1.378 . S
C728 C723 1.350 . S
C729 H716 0.929 . S
C729 C721 1.425 1_545 S
C729 N731 1.384 . S
N730 C726 1.427 . S
N730 C727 1.384 . S
N731 C723 1.427 1_545 S
N731 C729 1.384 . S
H732 C738 0.930 . S
H733 C742 0.930 . S
H734 C747 0.929 . S
H735 C745 0.929 . S
H736 C740 0.929 . S
H737 C746 0.929 . S
C738 H732 0.930 . S
C738 C739 1.367 . S
C738 C746 1.378 . S
C739 C738 1.367 . S
C739 C747 1.433 . S
C740 H736 0.929 . S
C740 C742 1.378 . S
C740 C744 1.350 . S
C741 C744 1.463 . S
C741 C746 1.350 . S
C741 N749 1.427 . S
C742 H733 0.930 . S
C742 C740 1.378 . S
C742 C743 1.367 . S
C743 C742 1.367 . S
C743 C745 1.433 . S
C744 C740 1.350 . S
C744 C741 1.463 . S
C744 N748 1.427 . S
C745 H735 0.929 . S
C745 C743 1.433 . S
C745 N748 1.384 . S
C746 H737 0.929 . S
C746 C738 1.378 . S
C746 C741 1.350 . S
C747 H734 0.929 . S
C747 C739 1.433 . S
C747 N749 1.384 . S
N748 C744 1.427 . S
N748 C745 1.384 . S
N749 C741 1.427 . S
N749 C747 1.384 . S
H750 C756 0.930 . S
H751 C760 0.930 . S
H752 C765 0.929 . S
H753 C763 0.929 . S
H754 C758 0.929 . S
H755 C764 0.929 . S
C756 H750 0.930 . S
C756 C757 1.367 . S
C756 C764 1.378 . S
C757 C756 1.367 . S
C757 C765 1.433 . S
C758 H754 0.929 . S
C758 C760 1.378 . S
C758 C762 1.350 . S
C759 C762 1.463 . S
C759 C764 1.350 . S
C759 N767 1.427 . S
C760 H751 0.930 . S
C760 C758 1.378 . S
C760 C761 1.367 . S
C761 C760 1.367 . S
C761 C763 1.433 . S
C762 C758 1.350 . S
C762 C759 1.463 . S
C762 N766 1.427 . S
C763 H753 0.929 . S
C763 C761 1.433 . S
C763 N766 1.384 . S
C764 H755 0.929 . S
C764 C756 1.378 . S
C764 C759 1.350 . S
C765 H752 0.929 . S
C765 C757 1.433 . S
C765 N767 1.384 . S
N766 C762 1.427 . S
N766 C763 1.384 . S
N767 C759 1.427 . S
N767 C765 1.384 . S
C343 C215 1.625 1_565 S
C347 C264 1.701 . S
C365 C294 2.193 . S
C361 C247 2.168 . S
C383 C304 1.739 . S
C379 C151 1.604 . S
C401 C324 1.630 . S
C397 C183 1.586 . S
C419 C265 1.700 . S
C415 C87 1.630 . S
C433 C119 2.015 1_556 S
C437 C295 2.200 . S
C451 C23 1.712 . S
C455 C305 1.733 . S
C469 C55 1.470 . S
C473 C325 1.630 . S
C491 C257 0.787 . S
C487 C189 0.774 . S
C509 C278 0.338 . S
C505 C221 0.426 . S
C527 C297 1.044 . S
C523 C253 1.046 . S
C541 C157 0.645 . S
C545 C317 0.576 . S
C559 C61 0.785 . S
C563 C258 0.785 . S
C581 C277 0.329 . S
C577 C93 0.416 1_565 S
C599 C298 1.042 . S
C595 C125 0.933 . S
C613 C29 0.581 . S
C617 C318 0.576 . S
C631 C177 2.064 . S
C635 C275 2.173 . S
C649 C209 1.591 . S
C653 C285 1.759 . S
C671 C315 2.349 . S
C667 C241 2.226 . S
C689 C335 2.250 . S
C685 C145 2.036 . S
C703 C49 1.973 . S
C707 C274 2.181 . S
C725 C284 1.761 . S
C721 C81 1.610 1_565 S
C743 C314 2.347 . S
C739 C113 2.093 . S
C757 C17 2.161 . S
C761 C334 2.257 . S
