# Generated by pormake.
# Topology tsx, (6,3)-cn, num edge types: 1
# Building blocks:
#     Node 0, Type 0, BuildingBlock: MIDCAF_clean_sbu_0, # of connection points: 6
#     Node 1, Type 0, BuildingBlock: MIDCAF_clean_sbu_0, # of connection points: 6
#     Node 2, Type 1, BuildingBlock: BETDIP_clean_linker_0, # of connection points: 3
#     Node 3, Type 1, BuildingBlock: BETDIP_clean_linker_0, # of connection points: 3
#     Node 4, Type 1, BuildingBlock: BETDIP_clean_linker_0, # of connection points: 3
#     Node 5, Type 1, BuildingBlock: BETDIP_clean_linker_0, # of connection points: 3
#     Edge 6, Type (0, 1), BuildingBlock: TEMPAE_clean_linker_10, # of connection points: 2
#     Edge 7, Type (0, 1), BuildingBlock: TEMPAE_clean_linker_10, # of connection points: 2
#     Edge 8, Type (0, 1), BuildingBlock: TEMPAE_clean_linker_10, # of connection points: 2
#     Edge 9, Type (0, 1), BuildingBlock: TEMPAE_clean_linker_10, # of connection points: 2
#     Edge 10, Type (0, 1), BuildingBlock: TEMPAE_clean_linker_10, # of connection points: 2
#     Edge 11, Type (0, 1), BuildingBlock: TEMPAE_clean_linker_10, # of connection points: 2
#     Edge 12, Type (0, 1), BuildingBlock: TEMPAE_clean_linker_10, # of connection points: 2
#     Edge 13, Type (0, 1), BuildingBlock: TEMPAE_clean_linker_10, # of connection points: 2
#     Edge 14, Type (0, 1), BuildingBlock: TEMPAE_clean_linker_10, # of connection points: 2
#     Edge 15, Type (0, 1), BuildingBlock: TEMPAE_clean_linker_10, # of connection points: 2
#     Edge 16, Type (0, 1), BuildingBlock: TEMPAE_clean_linker_10, # of connection points: 2
#     Edge 17, Type (0, 1), BuildingBlock: TEMPAE_clean_linker_10, # of connection points: 2
# Relax obj value: 0.082
# Max RMSD: 0.149
# Mean RMSD: 0.112
data_MOF--net-tsx--node1-MIDCAF_clean_sbu_0--node2-BETDIP_clean_linker_0--edge1-TEMPAE_clean_linker_10
_symmetry_space_group_name_H-M    P1
_symmetry_Int_Tables_number       1
_symmetry_cell_setting            triclinic
loop_
_symmetry_equiv_pos_as_xyz
'x, y, z'
_cell_length_a     20.263702
_cell_length_b     21.03073
_cell_length_c     35.933207
_cell_angle_alpha  90.280318
_cell_angle_beta   105.07704
_cell_angle_gamma 89.617625
loop_
_atom_site_label
_atom_site_type_symbol
_atom_site_fract_x
_atom_site_fract_y
_atom_site_fract_z
_atom_type_partial_charge
Zn0 Zn 0.88002 0.98202 0.94869 0.0
Zn1 Zn 0.06584 0.90838 0.03685 0.0
Zn2 Zn 0.98852 0.96318 0.99296 0.0
C3 C 0.1187 0.03099 0.02832 0.0
C4 C 0.07975 0.85646 0.97568 0.0
O5 O 0.92724 0.89081 0.00934 0.0
O6 O 0.83045 0.91075 0.96658 0.0
C7 C 0.92366 0.09485 0.99486 0.0
O8 O 0.05395 0.04135 0.023 0.0
O9 O 0.13968 0.9739 0.03192 0.0
O10 O 0.06384 0.82985 0.00373 0.0
O11 O 0.06215 0.91473 0.96789 0.0
O12 O 0.87556 0.07055 0.96908 0.0
O13 O 0.97761 0.06203 0.01035 0.0
O14 O 0.01565 0.95861 0.93834 0.0
O15 O 0.9119 0.97178 0.90075 0.0
C16 C 0.97516 0.96337 0.9045 0.0
O17 O 1.0068 0.01802 0.04685 0.0
O18 O 0.01588 0.92781 0.07861 0.0
C19 C 0.86448 0.87774 0.99442 0.0
C20 C 1.00654 0.98757 0.07784 0.0
Zn21 Zn 0.67311 0.55681 0.57182 0.0
Zn22 Zn 0.45493 0.54569 0.45821 0.0
Zn23 Zn 0.56459 0.55037 0.51485 0.0
C24 C 0.5538 0.47772 0.43415 0.0
C25 C 0.48112 0.67352 0.47014 0.0
O26 O 0.54119 0.50698 0.56659 0.0
O27 O 0.64039 0.51029 0.61053 0.0
C28 C 0.7127 0.48774 0.51564 0.0
O29 O 0.59036 0.49688 0.46717 0.0
O30 O 0.49083 0.49067 0.42356 0.0
O31 O 0.44189 0.637 0.44654 0.0
O32 O 0.52969 0.6498 0.49729 0.0
O33 O 0.73785 0.51189 0.54842 0.0
O34 O 0.64881 0.49635 0.4986 0.0
O35 O 0.59445 0.65147 0.52394 0.0
O36 O 0.68087 0.65012 0.57626 0.0
C37 C 0.64089 0.68081 0.54949 0.0
O38 O 0.48326 0.50176 0.53524 0.0
O39 O 0.39254 0.50765 0.48529 0.0
C40 C 0.57824 0.49482 0.60085 0.0
C41 C 0.41946 0.49085 0.51953 0.0
H42 H 0.20334 0.11392 0.46888 0.0
H43 H 0.07013 0.16485 0.35932 0.0
H44 H 0.2461 0.04651 0.36437 0.0
H45 H 0.07325 0.26144 0.39212 0.0
C46 C 0.0606 0.24168 0.4173 0.0
C47 C 0.19109 0.11264 0.43768 0.0
C48 C 0.23126 0.07611 0.41895 0.0
C49 C 0.13534 0.14793 0.41607 0.0
C50 C 0.11689 0.14253 0.37565 0.0
C51 C 0.15604 0.10594 0.3564 0.0
C52 C 0.21466 0.07466 0.37849 0.0
N53 N 0.09634 0.18672 0.43512 0.0
H54 H 0.95709 0.091 0.54244 0.0
H55 H 0.10293 0.11515 0.65256 0.0
H56 H 0.96225 0.95943 0.63434 0.0
H57 H 0.07589 0.22228 0.63395 0.0
C58 C 0.08695 0.21642 0.60609 0.0
C59 C 0.97955 0.07499 0.57164 0.0
C60 C 0.95494 0.02013 0.58538 0.0
C61 C 0.03248 0.10986 0.5959 0.0
C62 C 0.06126 0.08907 0.63387 0.0
C63 C 0.03639 0.03477 0.64804 0.0
C64 C 0.98371 0.00021 0.62339 0.0
N65 N 0.05687 0.16533 0.58167 0.0
H66 H 0.5912 0.49118 0.97493 0.0
H67 H 0.47687 0.54998 0.86178 0.0
H68 H 0.60563 0.38567 0.87383 0.0
H69 H 0.4963 0.64718 0.89043 0.0
C70 C 0.48058 0.63616 0.91637 0.0
C71 C 0.57667 0.4839 0.944 0.0
C72 C 0.60329 0.43181 0.92758 0.0
C73 C 0.53197 0.52749 0.9205 0.0
C74 C 0.51238 0.51776 0.8804 0.0
C75 C 0.53842 0.46654 0.86366 0.0
C76 C 0.58338 0.42358 0.88724 0.0
N77 N 0.50623 0.58022 0.93749 0.0
H78 H 0.51758 0.37949 0.06148 0.0
H79 H 0.6419 0.46651 0.16416 0.0
H80 H 0.50697 0.3164 0.17423 0.0
H81 H 0.59294 0.55499 0.12316 0.0
C82 C 0.61354 0.53895 0.0996 0.0
C83 C 0.53427 0.38162 0.09263 0.0
C84 C 0.50626 0.34024 0.11537 0.0
C85 C 0.58179 0.42829 0.11003 0.0
C86 C 0.60492 0.43101 0.15038 0.0
C87 C 0.57919 0.38948 0.17324 0.0
C88 C 0.52967 0.34492 0.15584 0.0
N89 N 0.60329 0.47462 0.08702 0.0
C90 C 0.16011 0.13879 0.05391 0.0
C91 C 0.1691 0.08294 0.0344 0.0
C92 C 0.21315 0.18347 0.06467 0.0
C93 C 0.2749 0.17347 0.05377 0.0
C94 C 0.28166 0.11951 0.03132 0.0
C95 C 0.22932 0.07426 0.02265 0.0
C96 C 0.20469 0.23917 0.0897 0.0
C97 C 0.3452 0.10828 0.01762 0.0
C98 C 0.39937 0.31162 0.06373 0.0
C99 C 0.44921 0.29559 0.09767 0.0
C100 C 0.34301 0.27191 0.04864 0.0
C101 C 0.33473 0.21592 0.06863 0.0
C102 C 0.38473 0.19928 0.1027 0.0
C103 C 0.44192 0.2383 0.11619 0.0
C104 C 0.29213 0.29008 0.01143 0.0
C105 C 0.37741 0.14054 0.12534 0.0
H106 H 0.11321 0.14589 0.06259 0.0
H107 H 0.23577 0.03154 0.0069 0.0
H108 H 0.24173 0.23459 0.11838 0.0
H109 H 0.21599 0.28435 0.0769 0.0
H110 H 0.15232 0.2421 0.09388 0.0
H111 H 0.33854 0.06901 0.99618 0.0
H112 H 0.3592 0.15212 0.00446 0.0
H113 H 0.38863 0.09598 0.04248 0.0
H114 H 0.40328 0.35591 0.04924 0.0
H115 H 0.48069 0.22393 0.14168 0.0
H116 H 0.2416 0.30002 0.01683 0.0
H117 H 0.2853 0.25 0.9906 0.0
H118 H 0.30829 0.33272 0.99802 0.0
H119 H 0.32715 0.14112 0.13231 0.0
H120 H 0.41832 0.13664 0.15266 0.0
H121 H 0.37916 0.09737 0.10778 0.0
C122 C 0.13058 0.76015 0.95299 0.0
C123 C 0.13078 0.826 0.95874 0.0
C124 C 0.18534 0.72972 0.94286 0.0
C125 C 0.24259 0.76587 0.94002 0.0
C126 C 0.24204 0.83271 0.94481 0.0
C127 C 0.1856 0.86206 0.95359 0.0
C128 C 0.18293 0.65868 0.93649 0.0
C129 C 0.30269 0.87282 0.94303 0.0
C130 C 0.41192 0.67671 0.96017 0.0
C131 C 0.42118 0.6706 0.92309 0.0
C132 C 0.35464 0.70897 0.96618 0.0
C133 C 0.30451 0.73341 0.93412 0.0
C134 C 0.3136 0.72671 0.89657 0.0
C135 C 0.3726 0.69636 0.89162 0.0
C136 C 0.34795 0.71722 0.0068 0.0
C137 C 0.26038 0.75031 0.8616 0.0
H138 H 0.08819 0.73237 0.95715 0.0
H139 H 0.18645 0.91289 0.95894 0.0
H140 H 0.19607 0.64675 0.90915 0.0
H141 H 0.22131 0.63506 0.96016 0.0
H142 H 0.13182 0.63879 0.93544 0.0
H143 H 0.29297 0.92443 0.94597 0.0
H144 H 0.3477 0.85865 0.96653 0.0
H145 H 0.31624 0.86483 0.9154 0.0
H146 H 0.44998 0.65716 0.98449 0.0
H147 H 0.37986 0.69106 0.8629 0.0
H148 H 0.30192 0.69205 0.01012 0.0
H149 H 0.34127 0.76834 0.01285 0.0
H150 H 0.39323 0.69862 0.02864 0.0
H151 H 0.21069 0.72714 0.86006 0.0
H152 H 0.27482 0.7405 0.83434 0.0
H153 H 0.25246 0.80226 0.86389 0.0
C154 C 0.76112 0.81222 0.99221 0.0
C155 C 0.83056 0.82465 0.00904 0.0
C156 C 0.72724 0.76305 0.00571 0.0
C157 C 0.76346 0.7254 0.03693 0.0
C158 C 0.83393 0.73638 0.05342 0.0
C159 C 0.86668 0.78613 0.0394 0.0
C160 C 0.65257 0.75139 0.98663 0.0
C161 C 0.87457 0.69539 0.08579 0.0
C162 C 0.65912 0.64724 0.09729 0.0
C163 C 0.65202 0.58514 0.08263 0.0
C164 C 0.69596 0.69289 0.08292 0.0
C165 C 0.72666 0.67605 0.05309 0.0
C166 C 0.71975 0.61321 0.03808 0.0
C167 C 0.68246 0.56834 0.05312 0.0
C168 C 0.70136 0.75946 0.09939 0.0
C169 C 0.7506 0.5924 0.00599 0.0
H170 H 0.7328 0.84119 0.96846 0.0
H171 H 0.92045 0.79489 0.05228 0.0
H172 H 0.64565 0.70192 0.97542 0.0
H173 H 0.62214 0.75668 0.00807 0.0
H174 H 0.63179 0.78461 0.96241 0.0
H175 H 0.92937 0.70885 0.0948 0.0
H176 H 0.85296 0.69937 0.1111 0.0
H177 H 0.87078 0.64477 0.07659 0.0
H178 H 0.63564 0.66021 0.12017 0.0
H179 H 0.67737 0.52028 0.04176 0.0
H180 H 0.67812 0.7939 0.07632 0.0
H181 H 0.75587 0.77256 0.11076 0.0
H182 H 0.67546 0.76455 0.12297 0.0
H183 H 0.7811 0.62959 0.99653 0.0
H184 H 0.70907 0.57751 0.98073 0.0
H185 H 0.78418 0.55047 0.0155 0.0
C186 C 0.91688 0.20901 0.9813 0.0
C187 C 0.91299 0.16 0.00679 0.0
C188 C 0.87499 0.26311 0.97846 0.0
C189 C 0.82804 0.26751 0.0015 0.0
C190 C 0.83198 0.22287 0.03138 0.0
C191 C 0.87431 0.16905 0.03352 0.0
C192 C 0.87435 0.31089 0.94719 0.0
C193 C 0.78533 0.22764 0.05784 0.0
C194 C 0.70986 0.41186 0.98086 0.0
C195 C 0.65544 0.38816 0.95156 0.0
C196 C 0.76491 0.37255 -0.00056 0.0
C197 C 0.76584 0.3081 0.98806 0.0
C198 C 0.70878 0.28297 0.96033 0.0
C199 C 0.65428 0.32314 0.9427 0.0
C200 C 0.82332 0.40153 0.02946 0.0
C201 C 0.70678 0.21423 0.94762 0.0
H202 H 0.94646 0.20161 0.96044 0.0
H203 H 0.871 0.13078 0.05307 0.0
H204 H 0.82839 0.30327 0.92289 0.0
H205 H 0.87162 0.36001 0.95809 0.0
H206 H 0.9204 0.30643 0.936 0.0
H207 H 0.80474 0.19878 0.08429 0.0
H208 H 0.77956 0.27783 0.06622 0.0
H209 H 0.73391 0.20987 0.0426 0.0
H210 H 0.71122 0.46184 0.988 0.0
H211 H 0.61155 0.30398 0.92088 0.0
H212 H 0.85932 0.42378 0.01487 0.0
H213 H 0.85187 0.36568 0.05012 0.0
H214 H 0.80448 0.43943 0.04581 0.0
H215 H 0.74841 0.20491 0.9334 0.0
H216 H 0.65737 0.20156 0.92712 0.0
H217 H 0.71522 0.18235 0.97294 0.0
C218 C 0.65303 0.77406 0.50917 0.0
C219 C 0.65526 0.74863 0.54547 0.0
C220 C 0.68705 0.83101 0.50602 0.0
C221 C 0.72426 0.86214 0.53996 0.0
C222 C 0.71857 0.84089 0.57635 0.0
C223 C 0.68426 0.78415 0.57863 0.0
C224 C 0.68915 0.85365 0.46662 0.0
C225 C 0.7557 0.8736 0.61332 0.0
C226 C 0.90419 0.91971 0.55534 0.0
C227 C 0.89621 0.98451 0.56186 0.0
C228 C 0.84728 0.88013 0.54371 0.0
C229 C 0.78086 0.90615 0.53896 0.0
C230 C 0.77238 0.9728 0.54131 0.0
C231 C 0.83056 0.01147 0.55293 0.0
C232 C 0.85885 0.80945 0.54073 0.0
C233 C 0.70256 0.00269 0.53536 0.0
H234 H 0.63006 0.74685 0.4834 0.0
H235 H 0.68481 0.76495 0.60667 0.0
H236 H 0.69278 0.90621 0.46574 0.0
H237 H 0.73481 0.83312 0.45931 0.0
H238 H 0.64314 0.83801 0.44426 0.0
H239 H 0.73867 0.85636 0.63847 0.0
H240 H 0.81143 0.86441 0.61889 0.0
H241 H 0.74759 0.92576 0.61098 0.0
H242 H 0.9552 0.89925 0.56215 0.0
H243 H 0.82459 0.06177 0.55806 0.0
H244 H 0.82426 0.78988 0.51406 0.0
H245 H 0.84728 0.78505 0.56561 0.0
H246 H 0.91243 0.798 0.54068 0.0
H247 H 0.66335 0.97632 0.51352 0.0
H248 H 0.70268 0.05307 0.52622 0.0
H249 H 0.68752 0.00183 0.56291 0.0
C250 C 0.7343 0.39772 0.47391 0.0
C251 C 0.75843 0.44974 0.49799 0.0
C252 C 0.77936 0.35967 0.45937 0.0
C253 C 0.85026 0.37339 0.4699 0.0
C254 C 0.87469 0.42586 0.49425 0.0
C255 C 0.82854 0.46332 0.5079 0.0
C256 C 0.75134 0.30423 0.43337 0.0
C257 C 0.94972 0.44262 0.50589 0.0
C258 C 0.98795 0.25245 0.46423 0.0
C259 C 1.0049 0.27212 0.43069 0.0
C260 C 0.93534 0.2831 0.47653 0.0
C261 C 0.89944 0.3346 0.45483 0.0
C262 C 0.91545 0.35325 0.42044 0.0
C263 C 0.96801 0.32185 0.40887 0.0
C264 C 0.92 0.26176 0.51342 0.0
C265 C 0.87816 0.40745 0.39635 0.0
H266 H 0.68058 0.38581 0.46725 0.0
H267 H 0.84756 0.50342 0.52661 0.0
H268 H 0.76749 0.30714 0.40621 0.0
H269 H 0.77235 0.25916 0.44775 0.0
H270 H 0.69462 0.30232 0.42605 0.0
H271 H 0.96041 0.48481 0.5252 0.0
H272 H 0.98015 0.40185 0.52092 0.0
H273 H 0.96772 0.45257 0.47987 0.0
H274 H 0.01627 0.21386 0.48115 0.0
H275 H 0.98077 0.33668 0.38273 0.0
H276 H 0.86406 0.26003 0.51013 0.0
H277 H 0.94192 0.29634 0.5367 0.0
H278 H 0.94225 0.21417 0.52257 0.0
H279 H 0.8224 0.39868 0.38878 0.0
H280 H 0.89423 0.41394 0.36932 0.0
H281 H 0.88752 0.45236 0.41319 0.0
C282 C 0.40171 0.40434 0.56327 0.0
C283 C 0.37644 0.45694 0.54012 0.0
C284 C 0.3577 0.36634 0.578 0.0
C285 C 0.28698 0.38122 0.56881 0.0
C286 C 0.26204 0.43615 0.54699 0.0
C287 C 0.3071 0.47321 0.53281 0.0
C288 C 0.38622 0.30838 0.60144 0.0
C289 C 0.18718 0.4542 0.53711 0.0
C290 C 0.15603 0.25074 0.56132 0.0
C291 C 0.13757 0.25849 0.59602 0.0
C292 C 0.20612 0.28934 0.55263 0.0
C293 C 0.23782 0.33707 0.57915 0.0
C294 C 0.21933 0.34494 0.61424 0.0
C295 C 0.1694 0.30536 0.62228 0.0
C296 C 0.22437 0.27957 0.51483 0.0
C297 C 0.25192 0.39537 0.6431 0.0
H298 H 0.45514 0.39124 0.56838 0.0
H299 H 0.28766 0.51411 0.51495 0.0
H300 H 0.3675 0.30594 0.62778 0.0
H301 H 0.36837 0.26495 0.58418 0.0
H302 H 0.44301 0.30805 0.61009 0.0
H303 H 0.17717 0.5012 0.52269 0.0
H304 H 0.15681 0.41783 0.51761 0.0
H305 H 0.16858 0.45559 0.56354 0.0
H306 H 0.1316 0.21445 0.54094 0.0
H307 H 0.15524 0.31099 0.64921 0.0
H308 H 0.2806 0.2755 0.51973 0.0
H309 H 0.20712 0.3213 0.49594 0.0
H310 H 0.20038 0.2363 0.49938 0.0
H311 H 0.308 0.38772 0.65234 0.0
H312 H 0.23179 0.39531 0.66906 0.0
H313 H 0.24291 0.44305 0.62958 0.0
C314 C 0.42466 0.76723 0.43293 0.0
C315 C 0.46585 0.74268 0.46749 0.0
C316 C 0.39775 0.82896 0.43101 0.0
C317 C 0.41385 0.86821 0.46426 0.0
C318 C 0.45987 0.84562 0.49846 0.0
C319 C 0.48402 0.78251 0.49994 0.0
C320 C 0.34855 0.85059 0.39391 0.0
C321 C 0.48091 0.88651 0.53413 0.0
C322 C 0.35137 0.03474 0.43499 0.0
C323 C 0.28544 0.03269 0.44056 0.0
C324 C 0.39764 0.98418 0.44695 0.0
C325 C 0.37631 0.9296 0.46348 0.0
C326 C 0.31197 0.93001 0.47221 0.0
C327 C 0.2675 0.98195 0.46093 0.0
C328 C 0.46706 0.98695 0.43896 0.0
C329 C 0.28709 0.87287 0.48979 0.0
H330 H 0.41061 0.73694 0.40763 0.0
H331 H 0.51421 0.76364 0.52704 0.0
H332 H 0.29753 0.85993 0.39887 0.0
H333 H 0.36633 0.89564 0.38399 0.0
H334 H 0.34266 0.81476 0.37046 0.0
H335 H 0.53089 0.87072 0.55298 0.0
H336 H 0.48468 0.93729 0.52672 0.0
H337 H 0.4421 0.88267 0.5508 0.0
H338 H 0.36534 0.0743 0.41941 0.0
H339 H 0.21638 0.98029 0.46503 0.0
H340 H 0.46655 0.95859 0.41277 0.0
H341 H 0.50682 0.96628 0.46324 0.0
H342 H 0.48144 0.03651 0.43408 0.0
H343 H 0.27708 0.83329 0.46855 0.0
H344 H 0.23932 0.88319 0.49845 0.0
H345 H 0.32669 0.85636 0.51545 0.0
C346 C 0.07571 0.0582 0.12766 0.0
C347 C 0.01686 0.02149 0.11463 0.0
C348 C 0.09599 0.0798 0.16586 0.0
C349 C 0.05554 0.06498 0.19135 0.0
C350 C 0.99326 0.03174 0.17741 0.0
C351 C 0.97533 0.00913 0.13927 0.0
C352 C 0.16367 0.11342 0.1796 0.0
C353 C 0.94761 0.01688 0.20335 0.0
C354 C 0.14338 0.03855 0.29694 0.0
C355 C 0.13295 0.09702 0.31367 0.0
C356 C 0.11991 0.02835 0.25713 0.0
C357 C 0.08255 0.07683 0.23337 0.0
C358 C 0.07126 0.1358 0.24982 0.0
C359 C 0.0977 0.14563 0.28961 0.0
C360 C 0.13466 0.96526 0.24055 0.0
C361 C 0.03029 0.18804 0.2255 0.0
H362 H 0.10885 0.06568 0.10886 0.0
H363 H 0.93013 0.98013 0.12908 0.0
H364 H 0.15878 0.15588 0.1971 0.0
H365 H 0.20127 0.08087 0.1983 0.0
H366 H 0.18433 0.12847 0.15525 0.0
H367 H 0.89649 7e-05 0.18677 0.0
H368 H 0.97163 0.97921 0.22406 0.0
H369 H 0.94088 0.05951 0.22034 0.0
H370 H 0.16877 -0.00013 0.31497 0.0
H371 H 0.09029 0.19148 0.30182 0.0
H372 H 0.15942 0.97302 0.2168 0.0
H373 H 0.08615 0.93968 0.22822 0.0
H374 H 0.16846 0.93431 0.26253 0.0
H375 H 0.05509 0.2025 0.20278 0.0
H376 H 0.02471 0.23065 0.24286 0.0
H377 H 0.97861 0.17032 0.21072 0.0
C378 C 0.95395 0.96108 0.83325 0.0
C379 C 1.0009 0.96062 0.86959 0.0
C380 C 0.97566 0.96618 0.79955 0.0
C381 C 0.04641 0.97026 0.80208 0.0
C382 C 0.09454 0.96537 0.83846 0.0
C383 C 0.07112 0.96122 0.87194 0.0
C384 C 0.92234 0.97064 0.76135 0.0
C385 C 0.17044 0.96764 0.84242 0.0
C386 C 0.06707 0.9547 0.70146 0.0
C387 C 0.05872 0.0184 0.68959 0.0
C388 C 0.07201 0.93817 0.7399 0.0
C389 C 0.06753 0.98645 0.7667 0.0
C390 C 0.06712 0.05109 0.75582 0.0
C391 C 0.06264 0.06631 0.71734 0.0
C392 C 0.07521 0.86884 0.75083 0.0
C393 C 0.06339 0.10411 0.78369 0.0
H394 H 0.8996 0.95964 0.83105 0.0
H395 H 0.10774 0.9607 0.8999 0.0
H396 H 0.92487 0.01802 0.74833 0.0
H397 H 0.93232 0.93432 0.74097 0.0
H398 H 0.86964 0.96379 0.76432 0.0
H399 H 0.19961 0.94423 0.86941 0.0
H400 H 0.18395 0.94445 0.81757 0.0
H401 H 0.18682 0.01799 0.84345 0.0
H402 H 0.06589 0.91755 0.68028 0.0
H403 H 0.05637 0.11565 0.70846 0.0
H404 H 0.02332 0.85245 0.75093 0.0
H405 H 0.10903 0.86152 0.78021 0.0
H406 H 0.09391 0.83885 0.73011 0.0
H407 H 0.01149 0.10545 0.78856 0.0
H408 H 0.07378 0.15125 0.77265 0.0
H409 H 0.10052 0.09581 0.81193 0.0
C410 C 0.59183 0.43026 0.65961 0.0
C411 C 0.5494 0.46776 0.63093 0.0
C412 C 0.57596 0.41965 0.69468 0.0
C413 C 0.51556 0.4466 0.70095 0.0
C414 C 0.46821 0.47744 0.67018 0.0
C415 C 0.48626 0.48867 0.63556 0.0
C416 C 0.62803 0.38634 0.7265 0.0
C417 C 0.40175 0.50427 0.67497 0.0
C418 C 0.49436 0.40947 0.80059 0.0
C419 C 0.52521 0.46286 0.82129 0.0
C420 C 0.48547 0.4054 0.76048 0.0
C421 C 0.51072 0.45466 0.7413 0.0
C422 C 0.54002 0.50943 0.76216 0.0
C423 C 0.54609 0.51309 0.80178 0.0
C424 C 0.45122 0.34763 0.739 0.0
C425 C 0.56849 0.56284 0.7431 0.0
H426 H 0.6404 0.41346 0.65581 0.0
H427 H 0.45343 0.51799 0.61353 0.0
H428 H 0.65311 0.42173 0.74862 0.0
H429 H 0.60304 0.35078 0.74088 0.0
H430 H 0.6682 0.36193 0.71568 0.0
H431 H 0.36289 0.50719 0.64678 0.0
H432 H 0.38127 0.47509 0.69503 0.0
H433 H 0.41036 0.55308 0.68704 0.0
H434 H 0.47752 0.37096 0.81579 0.0
H435 H 0.56997 0.55427 0.81797 0.0
H436 H 0.4907 0.31343 0.73499 0.0
H437 H 0.41906 0.36069 0.71001 0.0
H438 H 0.41889 0.32321 0.75513 0.0
H439 H 0.61083 0.54459 0.73161 0.0
H440 H 0.58823 0.6026 0.76331 0.0
H441 H 0.52842 0.58187 0.71844 0.0
C442 C 0.64197 0.47214 0.39721 0.0
C443 C 0.58435 0.44628 0.40597 0.0
C444 C 0.65816 0.45606 0.36261 0.0
C445 C 0.61533 0.41357 0.33653 0.0
C446 C 0.56196 0.38199 0.3476 0.0
C447 C 0.54704 0.39896 0.38222 0.0
C448 C 0.7161 0.49012 0.35221 0.0
C449 C 0.51508 0.3362 0.32085 0.0
C450 C 0.56605 0.44976 0.23001 0.0
C451 C 0.59617 0.39896 0.21526 0.0
C452 C 0.57483 0.45668 0.26974 0.0
C453 C 0.61587 0.41218 0.29528 0.0
C454 C 0.64984 0.36286 0.28054 0.0
C455 C 0.63868 0.35618 0.24041 0.0
C456 C 0.53695 0.50959 0.28413 0.0
C457 C 0.69606 0.31629 0.30706 0.0
H458 H 0.67073 0.50894 0.41561 0.0
H459 H 0.50269 0.37878 0.38927 0.0
H460 H 0.74095 0.45953 0.3345 0.0
H461 H 0.69583 0.53302 0.33508 0.0
H462 H 0.75512 0.50584 0.37842 0.0
H463 H 0.48257 0.30933 0.33582 0.0
H464 H 0.48113 0.36311 0.29676 0.0
H465 H 0.5448 0.30177 0.30817 0.0
H466 H 0.53323 0.4826 0.21024 0.0
H467 H 0.66226 0.3172 0.22864 0.0
H468 H 0.57296 0.53841 0.3062 0.0
H469 H 0.49897 0.48903 0.29797 0.0
H470 H 0.50963 0.54166 0.26058 0.0
H471 H 0.73391 0.34224 0.32986 0.0
H472 H 0.7238 0.28465 0.29135 0.0
H473 H 0.66558 0.28641 0.32169 0.0
loop_
_geom_bond_atom_site_label_1
_geom_bond_atom_site_label_2
_geom_bond_distance
_geom_bond_site_symmetry_2
_ccdc_geom_bond_type
Zn0 O6 1.920 1_545 S
Zn0 O12 1.898 . S
Zn0 O15 1.905 1_545 S
Zn1 O9 1.905 . S
Zn1 O10 1.898 1_545 S
Zn1 O18 1.920 1_545 S
Zn2 O5 2.080 1_445 S
Zn2 O8 2.114 . S
Zn2 O11 2.120 1_545 S
Zn2 O13 2.120 1_455 S
Zn2 O14 2.114 1_554 S
Zn2 O17 2.080 . S
C3 O8 1.166 . S
C3 O9 1.182 . S
C4 O10 1.167 . S
C4 O11 1.299 . S
O5 Zn2 2.080 1_665 S
O5 C19 1.305 . S
O6 Zn0 1.920 1_565 S
O6 C19 1.234 1_556 S
C7 O12 1.167 . S
C7 O13 1.299 1_556 S
O8 Zn2 2.114 . S
O8 C3 1.166 . S
O9 Zn1 1.905 . S
O9 C3 1.182 . S
O10 Zn1 1.898 1_565 S
O10 C4 1.167 . S
O11 Zn2 2.120 1_565 S
O11 C4 1.299 . S
O12 Zn0 1.898 . S
O12 C7 1.167 . S
O13 Zn2 2.120 1_655 S
O13 C7 1.299 1_554 S
O14 Zn2 2.114 1_556 S
O14 C16 1.163 1_445 S
O15 Zn0 1.905 1_565 S
O15 C16 1.189 . S
C16 O14 1.163 1_665 S
C16 O15 1.189 . S
O17 Zn2 2.080 . S
O17 C20 1.305 1_545 S
O18 Zn1 1.920 1_565 S
O18 C20 1.234 . S
C19 O5 1.305 . S
C19 O6 1.234 1_554 S
C20 O17 1.305 1_565 S
C20 O18 1.234 . S
Zn21 O27 1.920 . S
Zn21 O33 1.898 . S
Zn21 O36 1.905 . S
Zn22 O30 1.905 . S
Zn22 O31 1.898 . S
Zn22 O39 1.920 . S
Zn23 O26 2.080 . S
Zn23 O29 2.114 . S
Zn23 O32 2.120 . S
Zn23 O34 2.120 . S
Zn23 O35 2.114 . S
Zn23 O38 2.080 . S
C24 O29 1.166 . S
C24 O30 1.182 . S
C25 O31 1.167 . S
C25 O32 1.299 . S
O26 Zn23 2.080 . S
O26 C40 1.305 . S
O27 Zn21 1.920 . S
O27 C40 1.234 . S
C28 O33 1.167 . S
C28 O34 1.299 . S
O29 Zn23 2.114 . S
O29 C24 1.166 . S
O30 Zn22 1.905 . S
O30 C24 1.182 . S
O31 Zn22 1.898 . S
O31 C25 1.167 . S
O32 Zn23 2.120 . S
O32 C25 1.299 . S
O33 Zn21 1.898 . S
O33 C28 1.167 . S
O34 Zn23 2.120 . S
O34 C28 1.299 . S
O35 Zn23 2.114 . S
O35 C37 1.166 . S
O36 Zn21 1.905 . S
O36 C37 1.182 . S
C37 O35 1.166 . S
C37 O36 1.182 . S
O38 Zn23 2.080 . S
O38 C41 1.305 . S
O39 Zn22 1.920 . S
O39 C41 1.234 . S
C40 O26 1.305 . S
C40 O27 1.234 . S
C41 O38 1.305 . S
C41 O39 1.234 . S
H42 C47 0.930 1_565 S
H43 C50 0.930 . S
H44 C52 0.930 . S
H45 C46 1.016 . S
C46 H45 1.016 . S
C46 N53 1.286 . S
C47 H42 0.930 1_545 S
C47 C48 1.397 1_545 S
C47 C49 1.361 . S
C48 C47 1.397 1_565 S
C48 C52 1.390 . S
C49 C47 1.361 . S
C49 C50 1.393 . S
C49 N53 1.413 . S
C50 H43 0.930 . S
C50 C49 1.393 . S
C50 C51 1.399 . S
C51 C50 1.399 . S
C51 C52 1.381 1_545 S
C52 H44 0.930 . S
C52 C48 1.390 . S
C52 C51 1.381 1_565 S
N53 C46 1.286 . S
N53 C49 1.413 . S
H54 C59 0.930 1_565 S
H55 C62 0.930 . S
H56 C64 0.930 . S
H57 C58 1.016 . S
C58 H57 1.016 . S
C58 N65 1.286 . S
C59 H54 0.930 1_545 S
C59 C60 1.397 1_545 S
C59 C61 1.361 1_655 S
C60 C59 1.397 1_565 S
C60 C64 1.390 . S
C61 C59 1.361 1_455 S
C61 C62 1.393 . S
C61 N65 1.413 . S
C62 H55 0.930 . S
C62 C61 1.393 . S
C62 C63 1.399 1_455 S
C63 C62 1.399 1_655 S
C63 C64 1.381 1_545 S
C64 H56 0.930 . S
C64 C60 1.390 . S
C64 C63 1.381 1_565 S
N65 C58 1.286 . S
N65 C61 1.413 . S
H66 C71 0.930 . S
H67 C74 0.930 . S
H68 C76 0.930 . S
H69 C70 1.016 . S
C70 H69 1.016 . S
C70 N77 1.286 . S
C71 H66 0.930 . S
C71 C72 1.397 . S
C71 C73 1.361 . S
C72 C71 1.397 . S
C72 C76 1.390 . S
C73 C71 1.361 . S
C73 C74 1.393 . S
C73 N77 1.413 . S
C74 H67 0.930 . S
C74 C73 1.393 . S
C74 C75 1.399 . S
C75 C74 1.399 . S
C75 C76 1.381 . S
C76 H68 0.930 . S
C76 C72 1.390 . S
C76 C75 1.381 . S
N77 C70 1.286 . S
N77 C73 1.413 . S
H78 C83 0.930 . S
H79 C86 0.930 . S
H80 C88 0.930 . S
H81 C82 1.016 . S
C82 H81 1.016 . S
C82 N89 1.286 . S
C83 H78 0.930 . S
C83 C84 1.397 . S
C83 C85 1.361 . S
C84 C83 1.397 . S
C84 C88 1.390 . S
C85 C83 1.361 . S
C85 C86 1.393 . S
C85 N89 1.413 . S
C86 H79 0.930 . S
C86 C85 1.393 . S
C86 C87 1.399 . S
C87 C86 1.399 . S
C87 C88 1.381 . S
C88 H80 0.930 . S
C88 C84 1.390 . S
C88 C87 1.381 . S
N89 C82 1.286 . S
N89 C85 1.413 . S
C90 C91 1.391 . S
C90 C92 1.394 . S
C90 H106 0.931 . S
C91 C90 1.391 . S
C91 C95 1.376 . S
C92 C90 1.394 . S
C92 C93 1.369 . S
C92 C96 1.531 . S
C93 C92 1.369 . S
C93 C94 1.410 . S
C93 C101 1.503 . S
C94 C93 1.410 . S
C94 C95 1.392 . S
C94 C97 1.511 . S
C95 C91 1.376 . S
C95 C94 1.392 . S
C95 H107 0.929 . S
C96 C92 1.531 . S
C96 H108 0.960 . S
C96 H109 0.962 . S
C96 H110 0.960 . S
C97 C94 1.511 . S
C97 H111 0.961 1_554 S
C97 H112 0.961 . S
C97 H113 0.961 . S
C98 C99 1.370 . S
C98 C100 1.363 . S
C98 H114 0.931 . S
C99 C98 1.370 . S
C99 C103 1.408 . S
C100 C98 1.363 . S
C100 C101 1.370 . S
C100 C104 1.524 . S
C101 C93 1.503 . S
C101 C100 1.370 . S
C101 C102 1.403 . S
C102 C101 1.403 . S
C102 C103 1.404 . S
C102 C105 1.539 . S
C103 C99 1.408 . S
C103 C102 1.404 . S
C103 H115 0.930 . S
C104 C100 1.524 . S
C104 H116 0.956 . S
C104 H117 0.961 1_554 S
C104 H118 0.961 1_554 S
C105 C102 1.539 . S
C105 H119 0.958 . S
C105 H120 0.961 . S
C105 H121 0.960 . S
H106 C90 0.931 . S
H107 C95 0.929 . S
H108 C96 0.960 . S
H109 C96 0.962 . S
H110 C96 0.960 . S
H111 C97 0.961 1_556 S
H112 C97 0.961 . S
H113 C97 0.961 . S
H114 C98 0.931 . S
H115 C103 0.930 . S
H116 C104 0.956 . S
H117 C104 0.961 1_556 S
H118 C104 0.961 1_556 S
H119 C105 0.958 . S
H120 C105 0.961 . S
H121 C105 0.960 . S
C122 C123 1.391 1_554 S
C122 C124 1.394 1_554 S
C122 H138 0.931 . S
C123 C122 1.391 1_556 S
C123 C127 1.376 . S
C124 C122 1.394 1_556 S
C124 C125 1.369 . S
C124 C128 1.531 1_556 S
C125 C124 1.369 . S
C125 C126 1.410 . S
C125 C133 1.503 . S
C126 C125 1.410 . S
C126 C127 1.392 . S
C126 C129 1.511 . S
C127 C123 1.376 . S
C127 C126 1.392 . S
C127 H139 0.929 . S
C128 C124 1.531 1_554 S
C128 H140 0.960 1_554 S
C128 H141 0.962 . S
C128 H142 0.960 . S
C129 C126 1.511 . S
C129 H143 0.961 . S
C129 H144 0.961 . S
C129 H145 0.961 . S
C130 C131 1.370 . S
C130 C132 1.365 . S
C130 H146 0.931 1_556 S
C131 C130 1.370 . S
C131 C135 1.408 . S
C132 C130 1.365 . S
C132 C133 1.374 . S
C132 C136 1.519 1_556 S
C133 C125 1.503 . S
C133 C132 1.374 . S
C133 C134 1.403 . S
C134 C133 1.403 . S
C134 C135 1.404 . S
C134 C137 1.539 . S
C135 C131 1.408 . S
C135 C134 1.404 . S
C135 H147 0.930 . S
C136 C132 1.519 1_554 S
C136 H148 0.956 . S
C136 H149 0.961 . S
C136 H150 0.961 . S
C137 C134 1.539 . S
C137 H151 0.958 . S
C137 H152 0.961 . S
C137 H153 0.960 . S
H138 C122 0.931 . S
H139 C127 0.929 . S
H140 C128 0.960 1_556 S
H141 C128 0.962 . S
H142 C128 0.960 . S
H143 C129 0.961 . S
H144 C129 0.961 . S
H145 C129 0.961 . S
H146 C130 0.931 1_554 S
H147 C135 0.930 . S
H148 C136 0.956 . S
H149 C136 0.961 . S
H150 C136 0.961 . S
H151 C137 0.958 . S
H152 C137 0.961 . S
H153 C137 0.960 . S
C154 C155 1.391 . S
C154 C156 1.394 . S
C154 H170 0.931 1_554 S
C155 C154 1.391 . S
C155 C159 1.376 . S
C156 C154 1.394 . S
C156 C157 1.369 . S
C156 C160 1.531 1_554 S
C157 C156 1.369 . S
C157 C158 1.410 . S
C157 C165 1.503 . S
C158 C157 1.410 . S
C158 C159 1.392 . S
C158 C161 1.511 . S
C159 C155 1.376 . S
C159 C158 1.392 . S
C159 H171 0.929 . S
C160 C156 1.531 1_556 S
C160 H172 0.960 . S
C160 H173 0.962 1_556 S
C160 H174 0.960 . S
C161 C158 1.511 . S
C161 H175 0.961 . S
C161 H176 0.961 . S
C161 H177 0.961 . S
C162 C163 1.370 . S
C162 C164 1.363 . S
C162 H178 0.931 . S
C163 C162 1.370 . S
C163 C167 1.408 . S
C164 C162 1.363 . S
C164 C165 1.370 . S
C164 C168 1.524 . S
C165 C157 1.503 . S
C165 C164 1.370 . S
C165 C166 1.403 . S
C166 C165 1.403 . S
C166 C167 1.404 . S
C166 C169 1.539 1_554 S
C167 C163 1.408 . S
C167 C166 1.404 . S
C167 H179 0.930 . S
C168 C164 1.524 . S
C168 H180 0.956 . S
C168 H181 0.961 . S
C168 H182 0.961 . S
C169 C166 1.539 1_556 S
C169 H183 0.958 . S
C169 H184 0.961 . S
C169 H185 0.960 . S
H170 C154 0.931 1_556 S
H171 C159 0.929 . S
H172 C160 0.960 . S
H173 C160 0.962 1_554 S
H174 C160 0.960 . S
H175 C161 0.961 . S
H176 C161 0.961 . S
H177 C161 0.961 . S
H178 C162 0.931 . S
H179 C167 0.930 . S
H180 C168 0.956 . S
H181 C168 0.961 . S
H182 C168 0.961 . S
H183 C169 0.958 . S
H184 C169 0.961 . S
H185 C169 0.960 . S
C186 C187 1.391 . S
C186 C188 1.394 . S
C186 H202 0.931 . S
C187 C186 1.391 . S
C187 C191 1.376 . S
C188 C186 1.394 . S
C188 C189 1.369 . S
C188 C192 1.531 . S
C189 C188 1.369 . S
C189 C190 1.410 . S
C189 C197 1.503 . S
C190 C189 1.410 . S
C190 C191 1.392 . S
C190 C193 1.511 . S
C191 C187 1.376 . S
C191 C190 1.392 . S
C191 H203 0.929 1_556 S
C192 C188 1.531 . S
C192 H204 0.960 . S
C192 H205 0.962 . S
C192 H206 0.960 . S
C193 C190 1.511 . S
C193 H207 0.961 1_556 S
C193 H208 0.958 1_556 S
C193 H209 0.961 . S
C194 C195 1.370 . S
C194 C196 1.363 . S
C194 H210 0.931 . S
C195 C194 1.370 . S
C195 C199 1.408 . S
C196 C194 1.363 . S
C196 C197 1.370 . S
C196 C200 1.524 1_556 S
C197 C189 1.503 . S
C197 C196 1.370 . S
C197 C198 1.403 . S
C198 C197 1.403 . S
C198 C199 1.404 . S
C198 C201 1.539 . S
C199 C195 1.408 . S
C199 C198 1.404 . S
C199 H211 0.930 . S
C200 C196 1.524 1_554 S
C200 H212 0.956 . S
C200 H213 0.961 . S
C200 H214 0.961 . S
C201 C198 1.539 . S
C201 H215 0.958 . S
C201 H216 0.961 . S
C201 H217 0.960 . S
H202 C186 0.931 . S
H203 C191 0.929 1_554 S
H204 C192 0.960 . S
H205 C192 0.962 . S
H206 C192 0.960 . S
H207 C193 0.961 1_554 S
H208 C193 0.958 1_554 S
H209 C193 0.961 . S
H210 C194 0.931 . S
H211 C199 0.930 . S
H212 C200 0.956 . S
H213 C200 0.961 . S
H214 C200 0.961 . S
H215 C201 0.958 . S
H216 C201 0.961 . S
H217 C201 0.960 . S
C218 C219 1.391 . S
C218 C220 1.394 . S
C218 H234 0.931 . S
C219 C218 1.391 . S
C219 C223 1.376 . S
C220 C218 1.394 . S
C220 C221 1.369 . S
C220 C224 1.531 . S
C221 C220 1.369 . S
C221 C222 1.410 . S
C221 C229 1.503 . S
C222 C221 1.410 . S
C222 C223 1.392 . S
C222 C225 1.511 . S
C223 C219 1.376 . S
C223 C222 1.392 . S
C223 H235 0.929 . S
C224 C220 1.531 . S
C224 H236 0.960 . S
C224 H237 0.962 . S
C224 H238 0.960 . S
C225 C222 1.511 . S
C225 H239 0.961 . S
C225 H240 0.961 . S
C225 H241 0.961 . S
C226 C227 1.370 . S
C226 C228 1.363 . S
C226 H242 0.931 . S
C227 C226 1.370 . S
C227 C231 1.408 . S
C228 C226 1.363 . S
C228 C229 1.370 . S
C228 C232 1.524 . S
C229 C221 1.503 . S
C229 C228 1.370 . S
C229 C230 1.403 . S
C230 C229 1.403 . S
C230 C231 1.404 . S
C230 C233 1.539 . S
C231 C227 1.408 . S
C231 C230 1.404 . S
C231 H243 0.930 . S
C232 C228 1.524 . S
C232 H244 0.956 . S
C232 H245 0.961 . S
C232 H246 0.961 . S
C233 C230 1.539 . S
C233 H247 0.958 . S
C233 H248 0.961 . S
C233 H249 0.960 . S
H234 C218 0.931 . S
H235 C223 0.929 . S
H236 C224 0.960 . S
H237 C224 0.962 . S
H238 C224 0.960 . S
H239 C225 0.961 . S
H240 C225 0.961 . S
H241 C225 0.961 . S
H242 C226 0.931 . S
H243 C231 0.930 . S
H244 C232 0.956 . S
H245 C232 0.961 . S
H246 C232 0.961 . S
H247 C233 0.958 . S
H248 C233 0.961 . S
H249 C233 0.960 . S
C250 C251 1.391 . S
C250 C252 1.394 . S
C250 H266 0.931 . S
C251 C250 1.391 . S
C251 C255 1.376 . S
C252 C250 1.394 . S
C252 C253 1.369 . S
C252 C256 1.531 . S
C253 C252 1.369 . S
C253 C254 1.410 . S
C253 C261 1.503 . S
C254 C253 1.410 . S
C254 C255 1.392 . S
C254 C257 1.511 . S
C255 C251 1.376 . S
C255 C254 1.392 . S
C255 H267 0.929 . S
C256 C252 1.531 . S
C256 H268 0.960 . S
C256 H269 0.962 . S
C256 H270 0.960 . S
C257 C254 1.511 . S
C257 H271 0.961 . S
C257 H272 0.961 . S
C257 H273 0.961 . S
C258 C259 1.370 . S
C258 C260 1.363 . S
C258 H274 0.931 . S
C259 C258 1.370 . S
C259 C263 1.408 . S
C260 C258 1.363 . S
C260 C261 1.370 . S
C260 C264 1.524 . S
C261 C253 1.503 . S
C261 C260 1.370 . S
C261 C262 1.403 . S
C262 C261 1.403 . S
C262 C263 1.404 . S
C262 C265 1.539 . S
C263 C259 1.408 . S
C263 C262 1.404 . S
C263 H275 0.930 . S
C264 C260 1.524 . S
C264 H276 0.956 . S
C264 H277 0.961 . S
C264 H278 0.961 . S
C265 C262 1.539 . S
C265 H279 0.958 . S
C265 H280 0.961 . S
C265 H281 0.960 . S
H266 C250 0.931 . S
H267 C255 0.929 . S
H268 C256 0.960 . S
H269 C256 0.962 . S
H270 C256 0.960 . S
H271 C257 0.961 . S
H272 C257 0.961 . S
H273 C257 0.961 . S
H274 C258 0.931 . S
H275 C263 0.930 . S
H276 C264 0.956 . S
H277 C264 0.961 . S
H278 C264 0.961 . S
H279 C265 0.958 . S
H280 C265 0.961 . S
H281 C265 0.960 . S
C282 C283 1.391 . S
C282 C284 1.394 . S
C282 H298 0.931 . S
C283 C282 1.391 . S
C283 C287 1.376 . S
C284 C282 1.394 . S
C284 C285 1.369 . S
C284 C288 1.531 . S
C285 C284 1.369 . S
C285 C286 1.410 . S
C285 C293 1.503 . S
C286 C285 1.410 . S
C286 C287 1.392 . S
C286 C289 1.511 . S
C287 C283 1.376 . S
C287 C286 1.392 . S
C287 H299 0.929 . S
C288 C284 1.531 . S
C288 H300 0.960 . S
C288 H301 0.962 . S
C288 H302 0.960 . S
C289 C286 1.511 . S
C289 H303 0.961 . S
C289 H304 0.961 . S
C289 H305 0.961 . S
C290 C291 1.370 . S
C290 C292 1.363 . S
C290 H306 0.931 . S
C291 C290 1.370 . S
C291 C295 1.408 . S
C292 C290 1.363 . S
C292 C293 1.370 . S
C292 C296 1.524 . S
C293 C285 1.503 . S
C293 C292 1.370 . S
C293 C294 1.403 . S
C294 C293 1.403 . S
C294 C295 1.404 . S
C294 C297 1.539 . S
C295 C291 1.408 . S
C295 C294 1.404 . S
C295 H307 0.930 . S
C296 C292 1.524 . S
C296 H308 0.956 . S
C296 H309 0.961 . S
C296 H310 0.961 . S
C297 C294 1.539 . S
C297 H311 0.958 . S
C297 H312 0.961 . S
C297 H313 0.960 . S
H298 C282 0.931 . S
H299 C287 0.929 . S
H300 C288 0.960 . S
H301 C288 0.962 . S
H302 C288 0.960 . S
H303 C289 0.961 . S
H304 C289 0.961 . S
H305 C289 0.961 . S
H306 C290 0.931 . S
H307 C295 0.930 . S
H308 C296 0.956 . S
H309 C296 0.961 . S
H310 C296 0.961 . S
H311 C297 0.958 . S
H312 C297 0.961 . S
H313 C297 0.960 . S
C314 C315 1.391 . S
C314 C316 1.394 . S
C314 H330 0.931 . S
C315 C314 1.391 . S
C315 C319 1.376 . S
C316 C314 1.394 . S
C316 C317 1.369 . S
C316 C320 1.531 . S
C317 C316 1.369 . S
C317 C318 1.410 . S
C317 C325 1.503 . S
C318 C317 1.410 . S
C318 C319 1.392 . S
C318 C321 1.511 . S
C319 C315 1.376 . S
C319 C318 1.392 . S
C319 H331 0.929 . S
C320 C316 1.531 . S
C320 H332 0.960 . S
C320 H333 0.962 . S
C320 H334 0.960 . S
C321 C318 1.511 . S
C321 H335 0.961 . S
C321 H336 0.961 . S
C321 H337 0.961 . S
C322 C323 1.370 . S
C322 C324 1.363 . S
C322 H338 0.931 . S
C323 C322 1.370 . S
C323 C327 1.408 . S
C324 C322 1.363 . S
C324 C325 1.370 . S
C324 C328 1.524 . S
C325 C317 1.503 . S
C325 C324 1.370 . S
C325 C326 1.403 . S
C326 C325 1.403 . S
C326 C327 1.404 . S
C326 C329 1.539 . S
C327 C323 1.408 . S
C327 C326 1.404 . S
C327 H339 0.930 . S
C328 C324 1.524 . S
C328 H340 0.956 . S
C328 H341 0.961 . S
C328 H342 0.961 . S
C329 C326 1.539 . S
C329 H343 0.958 . S
C329 H344 0.961 . S
C329 H345 0.960 . S
H330 C314 0.931 . S
H331 C319 0.929 . S
H332 C320 0.960 . S
H333 C320 0.962 . S
H334 C320 0.960 . S
H335 C321 0.961 . S
H336 C321 0.961 . S
H337 C321 0.961 . S
H338 C322 0.931 . S
H339 C327 0.930 . S
H340 C328 0.956 . S
H341 C328 0.961 . S
H342 C328 0.961 . S
H343 C329 0.958 . S
H344 C329 0.961 . S
H345 C329 0.960 . S
C346 C347 1.391 1_545 S
C346 C348 1.394 . S
C346 H362 0.931 . S
C347 C346 1.391 1_565 S
C347 C351 1.376 . S
C348 C346 1.394 . S
C348 C349 1.369 . S
C348 C352 1.531 . S
C349 C348 1.369 . S
C349 C350 1.410 1_545 S
C349 C357 1.503 . S
C350 C349 1.410 1_565 S
C350 C351 1.392 . S
C350 C353 1.511 1_455 S
C351 C347 1.376 . S
C351 C350 1.392 . S
C351 H363 0.929 1_455 S
C352 C348 1.531 . S
C352 H364 0.960 . S
C352 H365 0.962 . S
C352 H366 0.960 . S
C353 C350 1.511 1_655 S
C353 H367 0.961 . S
C353 H368 0.961 . S
C353 H369 0.961 1_565 S
C354 C355 1.370 1_565 S
C354 C356 1.363 . S
C354 H370 0.931 . S
C355 C354 1.370 1_545 S
C355 C359 1.408 . S
C356 C354 1.363 . S
C356 C357 1.370 1_565 S
C356 C360 1.524 . S
C357 C349 1.503 . S
C357 C356 1.370 1_545 S
C357 C358 1.403 . S
C358 C357 1.403 . S
C358 C359 1.404 . S
C358 C361 1.539 . S
C359 C355 1.408 . S
C359 C358 1.404 . S
C359 H371 0.930 . S
C360 C356 1.524 . S
C360 H372 0.956 . S
C360 H373 0.961 . S
C360 H374 0.961 . S
C361 C358 1.539 . S
C361 H375 0.958 . S
C361 H376 0.961 1_455 S
C361 H377 0.960 . S
H362 C346 0.931 . S
H363 C351 0.929 1_655 S
H364 C352 0.960 . S
H365 C352 0.962 . S
H366 C352 0.960 . S
H367 C353 0.961 . S
H368 C353 0.961 . S
H369 C353 0.961 1_545 S
H370 C354 0.931 . S
H371 C359 0.930 . S
H372 C360 0.956 . S
H373 C360 0.961 . S
H374 C360 0.961 . S
H375 C361 0.958 . S
H376 C361 0.961 1_655 S
H377 C361 0.960 . S
C378 C379 1.391 1_655 S
C378 C380 1.394 . S
C378 H394 0.931 . S
C379 C378 1.391 1_455 S
C379 C383 1.376 1_565 S
C380 C378 1.394 . S
C380 C381 1.369 1_665 S
C380 C384 1.531 . S
C381 C380 1.369 1_445 S
C381 C382 1.410 . S
C381 C389 1.503 . S
C382 C381 1.410 . S
C382 C383 1.392 . S
C382 C385 1.511 . S
C383 C379 1.376 1_545 S
C383 C382 1.392 . S
C383 H395 0.929 . S
C384 C380 1.531 . S
C384 H396 0.960 1_565 S
C384 H397 0.962 . S
C384 H398 0.960 . S
C385 C382 1.511 . S
C385 H399 0.961 . S
C385 H400 0.961 . S
C385 H401 0.961 . S
C386 C387 1.370 1_465 S
C386 C388 1.363 . S
C386 H402 0.931 . S
C387 C386 1.370 1_645 S
C387 C391 1.408 . S
C388 C386 1.363 . S
C388 C389 1.370 1_565 S
C388 C392 1.524 . S
C389 C381 1.503 . S
C389 C388 1.370 1_545 S
C389 C390 1.403 1_455 S
C390 C389 1.403 1_655 S
C390 C391 1.404 . S
C390 C393 1.539 . S
C391 C387 1.408 . S
C391 C390 1.404 . S
C391 H403 0.930 . S
C392 C388 1.524 . S
C392 H404 0.972 . S
C392 H405 0.961 . S
C392 H406 0.961 . S
C393 C390 1.539 . S
C393 H407 0.958 . S
C393 H408 0.961 . S
C393 H409 0.960 . S
H394 C378 0.931 . S
H395 C383 0.929 . S
H396 C384 0.960 1_545 S
H397 C384 0.962 . S
H398 C384 0.960 . S
H399 C385 0.961 . S
H400 C385 0.961 . S
H401 C385 0.961 . S
H402 C386 0.931 . S
H403 C391 0.930 . S
H404 C392 0.972 . S
H405 C392 0.961 . S
H406 C392 0.961 . S
H407 C393 0.958 . S
H408 C393 0.961 . S
H409 C393 0.960 . S
C410 C411 1.391 . S
C410 C412 1.394 . S
C410 H426 0.931 . S
C411 C410 1.391 . S
C411 C415 1.376 . S
C412 C410 1.394 . S
C412 C413 1.369 . S
C412 C416 1.531 . S
C413 C412 1.369 . S
C413 C414 1.410 . S
C413 C421 1.503 . S
C414 C413 1.410 . S
C414 C415 1.392 . S
C414 C417 1.511 . S
C415 C411 1.376 . S
C415 C414 1.392 . S
C415 H427 0.929 . S
C416 C412 1.531 . S
C416 H428 0.960 . S
C416 H429 0.962 . S
C416 H430 0.960 . S
C417 C414 1.511 . S
C417 H431 0.961 . S
C417 H432 0.961 . S
C417 H433 0.961 . S
C418 C419 1.370 . S
C418 C420 1.363 . S
C418 H434 0.931 . S
C419 C418 1.370 . S
C419 C423 1.408 . S
C420 C418 1.363 . S
C420 C421 1.370 . S
C420 C424 1.524 . S
C421 C413 1.503 . S
C421 C420 1.370 . S
C421 C422 1.403 . S
C422 C421 1.403 . S
C422 C423 1.404 . S
C422 C425 1.539 . S
C423 C419 1.408 . S
C423 C422 1.404 . S
C423 H435 0.930 . S
C424 C420 1.524 . S
C424 H436 0.956 . S
C424 H437 0.961 . S
C424 H438 0.961 . S
C425 C422 1.539 . S
C425 H439 0.958 . S
C425 H440 0.961 . S
C425 H441 0.960 . S
H426 C410 0.931 . S
H427 C415 0.929 . S
H428 C416 0.960 . S
H429 C416 0.962 . S
H430 C416 0.960 . S
H431 C417 0.961 . S
H432 C417 0.961 . S
H433 C417 0.961 . S
H434 C418 0.931 . S
H435 C423 0.930 . S
H436 C424 0.956 . S
H437 C424 0.961 . S
H438 C424 0.961 . S
H439 C425 0.958 . S
H440 C425 0.961 . S
H441 C425 0.960 . S
C442 C443 1.391 . S
C442 C444 1.394 . S
C442 H458 0.931 . S
C443 C442 1.391 . S
C443 C447 1.376 . S
C444 C442 1.394 . S
C444 C445 1.369 . S
C444 C448 1.531 . S
C445 C444 1.369 . S
C445 C446 1.410 . S
C445 C453 1.503 . S
C446 C445 1.410 . S
C446 C447 1.392 . S
C446 C449 1.511 . S
C447 C443 1.376 . S
C447 C446 1.392 . S
C447 H459 0.929 . S
C448 C444 1.531 . S
C448 H460 0.960 . S
C448 H461 0.962 . S
C448 H462 0.960 . S
C449 C446 1.511 . S
C449 H463 0.961 . S
C449 H464 0.961 . S
C449 H465 0.961 . S
C450 C451 1.370 . S
C450 C452 1.363 . S
C450 H466 0.931 . S
C451 C450 1.370 . S
C451 C455 1.408 . S
C452 C450 1.363 . S
C452 C453 1.370 . S
C452 C456 1.524 . S
C453 C445 1.503 . S
C453 C452 1.370 . S
C453 C454 1.403 . S
C454 C453 1.403 . S
C454 C455 1.404 . S
C454 C457 1.539 . S
C455 C451 1.408 . S
C455 C454 1.404 . S
C455 H467 0.930 . S
C456 C452 1.524 . S
C456 H468 0.956 . S
C456 H469 0.961 . S
C456 H470 0.961 . S
C457 C454 1.539 . S
C457 H471 0.958 . S
C457 H472 0.961 . S
C457 H473 0.960 . S
H458 C442 0.931 . S
H459 C447 0.929 . S
H460 C448 0.960 . S
H461 C448 0.962 . S
H462 C448 0.960 . S
H463 C449 0.961 . S
H464 C449 0.961 . S
H465 C449 0.961 . S
H466 C450 0.931 . S
H467 C455 0.930 . S
H468 C456 0.956 . S
H469 C456 0.961 . S
H470 C456 0.961 . S
H471 C457 0.958 . S
H472 C457 0.961 . S
H473 C457 0.960 . S
C99 C84 1.322 . S
C91 C3 1.163 . S
C123 C4 1.477 1_556 S
C131 C70 1.504 . S
C155 C19 1.436 . S
C163 C82 1.540 . S
C187 C7 1.168 . S
C195 C72 1.328 . S
C219 C37 1.239 . S
C227 C60 1.337 . S
C251 C28 1.460 . S
C259 C46 1.504 1_655 S
C291 C58 1.521 . S
C283 C41 1.495 . S
C323 C48 1.339 . S
C315 C25 1.194 . S
C347 C20 1.353 . S
C355 C51 1.498 . S
C379 C16 1.362 1_455 S
C387 C63 1.540 . S
C419 C75 1.498 . S
C411 C40 1.337 . S
C443 C24 1.398 . S
C451 C87 1.528 . S
