# Generated by pormake.
# Topology pth, (4,4)-cn, num edge types: 1
# Building blocks:
#     Node 0, Type 0, BuildingBlock: QUQFOY_clean_sbu_1, # of connection points: 4
#     Node 1, Type 0, BuildingBlock: QUQFOY_clean_sbu_1, # of connection points: 4
#     Node 2, Type 0, BuildingBlock: QUQFOY_clean_sbu_1, # of connection points: 4
#     Node 3, Type 1, BuildingBlock: AZAVOO_clean_linker_0, # of connection points: 4
#     Node 4, Type 1, BuildingBlock: AZAVOO_clean_linker_0, # of connection points: 4
#     Node 5, Type 1, BuildingBlock: AZAVOO_clean_linker_0, # of connection points: 4
#     Edge 6, Type (0, 1), BuildingBlock: TEMPAE_clean_linker_10, # of connection points: 2
#     Edge 7, Type (0, 1), BuildingBlock: TEMPAE_clean_linker_10, # of connection points: 2
#     Edge 8, Type (0, 1), BuildingBlock: TEMPAE_clean_linker_10, # of connection points: 2
#     Edge 9, Type (0, 1), BuildingBlock: TEMPAE_clean_linker_10, # of connection points: 2
#     Edge 10, Type (0, 1), BuildingBlock: TEMPAE_clean_linker_10, # of connection points: 2
#     Edge 11, Type (0, 1), BuildingBlock: TEMPAE_clean_linker_10, # of connection points: 2
#     Edge 12, Type (0, 1), BuildingBlock: TEMPAE_clean_linker_10, # of connection points: 2
#     Edge 13, Type (0, 1), BuildingBlock: TEMPAE_clean_linker_10, # of connection points: 2
#     Edge 14, Type (0, 1), BuildingBlock: TEMPAE_clean_linker_10, # of connection points: 2
#     Edge 15, Type (0, 1), BuildingBlock: TEMPAE_clean_linker_10, # of connection points: 2
#     Edge 16, Type (0, 1), BuildingBlock: TEMPAE_clean_linker_10, # of connection points: 2
#     Edge 17, Type (0, 1), BuildingBlock: TEMPAE_clean_linker_10, # of connection points: 2
# Relax obj value: 0.116
# Max RMSD: 0.231
# Mean RMSD: 0.168
data_MOF--net-pth--node1-QUQFOY_clean_sbu_1--node2-AZAVOO_clean_linker_0--edge1-TEMPAE_clean_linker_10
_symmetry_space_group_name_H-M    P1
_symmetry_Int_Tables_number       1
_symmetry_cell_setting            triclinic
loop_
_symmetry_equiv_pos_as_xyz
'x, y, z'
_cell_length_a     25.411244
_cell_length_b     28.249308
_cell_length_c     74.053852
_cell_angle_alpha  92.579438
_cell_angle_beta   88.771051
_cell_angle_gamma 120.47156
loop_
_atom_site_label
_atom_site_type_symbol
_atom_site_fract_x
_atom_site_fract_y
_atom_site_fract_z
_atom_type_partial_charge
O0 O 0.13834 0.14915 0.07947 0.0
Cd1 Cd 0.06154 0.08612 0.09106 0.0
Cd2 Cd 0.12713 0.03694 0.08715 0.0
O3 O 0.19667 0.11211 0.07969 0.0
O4 O 0.0159 0.12043 0.10208 0.0
O5 O 0.05786 0.08382 0.11807 0.0
C6 C 0.02833 0.10979 0.11765 0.0
C7 C 0.13314 0.99141 0.11152 0.0
C8 C 0.18933 0.15212 0.07639 0.0
C9 C 0.01414 0.99017 0.06483 0.0
O10 O 0.0638 0.99099 0.06752 0.0
O11 O 0.00156 0.02236 0.07396 0.0
O12 O 0.16066 0.99253 0.09654 0.0
O13 O 0.10399 0.01785 0.11273 0.0
O14 O 0.00952 0.0877 0.43158 0.0
Cd15 Cd 0.06424 0.09732 0.40963 0.0
Cd16 Cd 0.01088 0.98746 0.41388 0.0
O17 O 0.95157 0.99743 0.43086 0.0
O18 O 0.08289 0.17004 0.40139 0.0
O19 O 0.03539 0.09363 0.38421 0.0
C20 C 0.05578 0.14572 0.38642 0.0
C21 C 0.97722 0.90642 0.39635 0.0
C22 C 0.96483 0.04429 0.43763 0.0
C23 C 0.1464 0.06353 0.42285 0.0
O24 O 0.09756 0.01725 0.42385 0.0
O25 O 0.14578 0.10321 0.41568 0.0
O26 O 0.98051 0.90728 0.41369 0.0
O27 O 0.98968 0.95138 0.38887 0.0
O28 O 0.97047 0.03849 0.73552 0.0
Cd29 Cd 0.02374 0.02205 0.75178 0.0
Cd30 Cd 0.1015 0.13105 0.74707 0.0
O31 O 0.03039 0.12801 0.73337 0.0
O32 O 0.9634 0.94875 0.76065 0.0
O33 O 0.0137 0.02243 0.77883 0.0
C34 C 0.9733 0.97087 0.77673 0.0
C35 C 0.15798 0.20215 0.76803 0.0
C36 C 0.98046 0.084 0.72975 0.0
C37 C 0.13988 0.05129 0.7328 0.0
O38 O 0.14983 0.10013 0.73376 0.0
O39 O 0.09242 0.01272 0.73995 0.0
O40 O 0.16382 0.20989 0.75092 0.0
O41 O 0.11779 0.15404 0.77338 0.0
H42 H 0.02509 0.46333 0.13217 0.0
H43 H 0.0656 0.84488 0.30668 0.0
H44 H 0.92475 0.39476 0.23693 0.0
H45 H 0.92179 0.31725 0.21987 0.0
H46 H 0.119 0.40839 0.21648 0.0
H47 H 0.12085 0.48651 0.23263 0.0
H48 H 0.94622 0.4716 0.20646 0.0
H49 H 0.96113 0.45752 0.17432 0.0
H50 H 0.15458 0.573 0.18043 0.0
H51 H 0.139 0.58623 0.21258 0.0
H52 H 0.95231 0.5918 0.21673 0.0
H53 H 0.97283 0.66541 0.1965 0.0
H54 H 0.16385 0.74911 0.21141 0.0
H55 H 0.14196 0.67636 0.23219 0.0
H56 H 0.93323 0.61656 0.25369 0.0
H57 H 0.93075 0.69505 0.26822 0.0
H58 H 0.11047 0.75413 0.29049 0.0
H59 H 0.11253 0.67585 0.27572 0.0
H60 H 0.90136 0.52961 0.28034 0.0
H61 H 0.88558 0.57506 0.30675 0.0
H62 H 0.06779 0.62666 0.32539 0.0
H63 H 0.08404 0.58316 0.29819 0.0
H64 H 0.92374 0.43322 0.28485 0.0
H65 H 0.92744 0.37025 0.30573 0.0
H66 H 0.10983 0.41841 0.28701 0.0
H67 H 0.1078 0.48484 0.26787 0.0
O68 O 0.02017 0.46977 0.14488 0.0
O69 O 0.11915 0.52996 0.14868 0.0
O70 O 0.9734 0.78207 0.28873 0.0
O71 O 0.06589 0.81423 0.30039 0.0
C72 C 0.02366 0.49595 0.2433 0.0
C73 C 0.03244 0.53697 0.23136 0.0
C74 C 0.03315 0.58467 0.23808 0.0
C75 C 0.02188 0.59015 0.2565 0.0
C76 C 0.01069 0.5481 0.26837 0.0
C77 C 0.01462 0.50217 0.26197 0.0
C78 C 0.02295 0.44607 0.23592 0.0
C79 C 0.96724 0.39739 0.23275 0.0
C80 C 0.96575 0.35312 0.22306 0.0
C81 C 0.02015 0.35678 0.2166 0.0
C82 C 0.07616 0.40461 0.22087 0.0
C83 C 0.07746 0.44907 0.23026 0.0
C84 C 0.04149 0.53005 0.21177 0.0
C85 C 0.99172 0.49388 0.20079 0.0
C86 C 0.00039 0.48591 0.18246 0.0
C87 C 0.05906 0.51414 0.1748 0.0
C88 C 0.1088 0.55066 0.18589 0.0
C89 C 0.10004 0.55846 0.20422 0.0
C90 C 0.04571 0.62902 0.22582 0.0
C91 C -0.00156 0.62624 0.21562 0.0
C92 C 0.01042 0.66812 0.204 0.0
C93 C 0.07009 0.71313 0.20227 0.0
C94 C 0.11728 0.71553 0.2126 0.0
C95 C 0.10506 0.67392 0.22437 0.0
C96 C 0.02308 0.6407 0.26365 0.0
C97 C 0.97237 0.64703 0.26146 0.0
C98 C 0.97094 0.69166 0.26988 0.0
C99 C 0.02032 0.73072 0.28061 0.0
C100 C 0.07167 0.72482 0.28236 0.0
C101 C 0.07308 0.68028 0.27389 0.0
C102 C 0.99402 0.55369 0.28729 0.0
C103 C 0.93685 0.54857 0.29055 0.0
C104 C 0.92803 0.57487 0.30569 0.0
C105 C 0.97606 0.60593 0.31798 0.0
C106 C 0.03051 0.60449 0.31588 0.0
C107 C 0.03957 0.57875 0.30055 0.0
C108 C 0.01541 0.46354 0.27477 0.0
C109 C 0.96476 0.43066 0.28554 0.0
C110 C 0.96672 0.39404 0.29726 0.0
C111 C 0.01896 0.38883 0.29813 0.0
C112 C 0.06925 0.42177 0.28713 0.0
C113 C 0.06785 0.4593 0.27589 0.0
C114 C 0.06818 0.50528 0.15535 0.0
C115 C 0.01823 0.77714 0.2901 0.0
H116 H 0.66708 0.06927 0.46593 0.0
H117 H 0.20467 0.05933 0.61941 0.0
H118 H 0.62377 0.9894 0.57198 0.0
H119 H 0.70435 0.99069 0.55304 0.0
H120 H 0.78548 0.16582 0.54802 0.0
H121 H 0.70486 0.16425 0.56713 0.0
H122 H 0.57021 0.0004 0.53839 0.0
H123 H 0.60853 0.01396 0.50736 0.0
H124 H 0.64528 0.18125 0.51137 0.0
H125 H 0.60774 0.16736 0.54254 0.0
H126 H 0.45151 0.99765 0.53721 0.0
H127 H 0.40583 0.01167 0.5107 0.0
H128 H 0.4355 0.16527 0.53491 0.0
H129 H 0.48278 0.15168 0.56129 0.0
H130 H 0.37215 0.97436 0.5732 0.0
H131 H 0.27189 0.96029 0.58198 0.0
H132 H 0.35985 0.1148 0.61287 0.0
H133 H 0.45966 0.12868 0.60377 0.0
H134 H 0.43194 0.9542 0.60749 0.0
H135 H 0.37271 0.93167 0.63556 0.0
H136 H 0.48574 0.09955 0.65557 0.0
H137 H 0.54449 0.12166 0.62747 0.0
H138 H 0.58501 0.97737 0.60563 0.0
H139 H 0.65067 0.98038 0.63011 0.0
H140 H 0.7207 0.15455 0.63861 0.0
H141 H 0.65604 0.1514 0.61392 0.0
O142 O 0.65237 0.06493 0.47826 0.0
O143 O 0.67136 0.15092 0.48106 0.0
O144 O 0.20049 0.98639 0.59872 0.0
O145 O 0.24363 0.06443 0.61538 0.0
C146 C 0.59923 0.07202 0.57554 0.0
C147 C 0.56362 0.07456 0.56164 0.0
C148 C 0.50635 0.06911 0.56569 0.0
C149 C 0.48376 0.05924 0.58351 0.0
C150 C 0.5188 0.05505 0.59727 0.0
C151 C 0.57718 0.063 0.59337 0.0
C152 C 0.65843 0.07667 0.57079 0.0
C153 C 0.66085 0.0285 0.56766 0.0
C154 C 0.70668 0.02926 0.55673 0.0
C155 C 0.7502 0.07819 0.54882 0.0
C156 C 0.75185 0.1275 0.5538 0.0
C157 C 0.70632 0.12677 0.56484 0.0
C158 C 0.58649 0.08297 0.54271 0.0
C159 C 0.58689 0.04003 0.53257 0.0
C160 C 0.60858 0.04783 0.51483 0.0
C161 C 0.62984 0.09865 0.50686 0.0
C162 C 0.62919 0.14159 0.51709 0.0
C163 C 0.60771 0.13378 0.53487 0.0
C164 C 0.47061 0.07379 0.55108 0.0
C165 C 0.44778 0.03414 0.53683 0.0
C166 C 0.42229 0.0424 0.52169 0.0
C167 C 0.41824 0.08997 0.52072 0.0
C168 C 0.43851 0.12844 0.53537 0.0
C169 C 0.46496 0.12055 0.55043 0.0
C170 C 0.42306 0.0525 0.58785 0.0
C171 C 0.36959 0.00538 0.58168 0.0
C172 C 0.31243 0.99735 0.58679 0.0
C173 C 0.30786 0.03634 0.5982 0.0
C174 C 0.36169 0.0839 0.60412 0.0
C175 C 0.41875 0.09196 0.59894 0.0
C176 C 0.49229 0.03951 0.61552 0.0
C177 C 0.44492 0.98561 0.61818 0.0
C178 C 0.41114 0.97289 0.63414 0.0
C179 C 0.42453 0.01393 0.64767 0.0
C180 C 0.47496 0.06695 0.64547 0.0
C181 C 0.50852 0.0797 0.62945 0.0
C182 C 0.61617 0.0642 0.60807 0.0
C183 C 0.61479 0.0161 0.61276 0.0
C184 C 0.65212 0.0179 0.62667 0.0
C185 C 0.69041 0.06768 0.63621 0.0
C186 C 0.69114 0.11564 0.63155 0.0
C187 C 0.65459 0.11396 0.61746 0.0
C188 C 0.65245 0.10663 0.48797 0.0
C189 C 0.24734 0.02738 0.60405 0.0
H190 H 0.6501 0.68536 0.04089 0.0
H191 H 0.28245 0.25707 0.86992 0.0
H192 H 0.62189 0.71552 0.93811 0.0
H193 H 0.69845 0.78947 0.95797 0.0
H194 H 0.79424 0.70028 0.96131 0.0
H195 H 0.71828 0.62709 0.94135 0.0
H196 H 0.54481 0.63642 0.96822 0.0
H197 H 0.57763 0.6635 -0.00029 0.0
H198 H 0.67146 0.5715 0.99619 0.0
H199 H 0.63893 0.54537 0.96466 0.0
H200 H 0.41724 0.50926 0.95582 0.0
H201 H 0.36406 0.44761 0.98069 0.0
H202 H 0.49539 0.39351 0.97841 0.0
H203 H 0.54678 0.45332 0.95301 0.0
H204 H 0.38373 0.48425 0.92269 0.0
H205 H 0.2984 0.4025 0.90814 0.0
H206 H 0.4228 0.34924 0.88902 0.0
H207 H 0.5074 0.43059 0.90392 0.0
H208 H 0.44511 0.56174 0.89441 0.0
H209 H 0.38785 0.51311 0.8672 0.0
H210 H 0.52913 0.47683 0.85161 0.0
H211 H 0.58457 0.52345 0.87955 0.0
H212 H 0.56791 0.66577 0.8913 0.0
H213 H 0.63537 0.73092 0.86915 0.0
H214 H 0.77961 0.70173 0.88451 0.0
H215 H 0.71014 0.63339 0.90535 0.0
O216 O 0.63621 0.67298 0.02859 0.0
O217 O 0.67773 0.62003 0.02676 0.0
O218 O 0.25123 0.31377 0.88838 0.0
O219 O 0.3146 0.28792 0.87672 0.0
C220 C 0.60986 0.61498 0.93191 0.0
C221 C 0.57319 0.57618 0.94475 0.0
C222 C 0.52127 0.52648 0.93912 0.0
C223 C 0.50447 0.51641 0.92077 0.0
C224 C 0.53959 0.55651 0.908 0.0
C225 C 0.59352 0.60518 0.91345 0.0
C226 C 0.6647 0.66612 0.9384 0.0
C227 C 0.66099 0.7133 0.94246 0.0
C228 C 0.70437 0.75518 0.95385 0.0
C229 C 0.75131 0.74976 0.9613 0.0
C230 C 0.75799 0.7049 0.95581 0.0
C231 C 0.7151 0.66347 0.94433 0.0
C232 C 0.589 0.58853 0.96426 0.0
C233 C 0.5719 0.62172 0.97436 0.0
C234 C 0.59093 0.63729 0.99231 0.0
C235 C 0.62717 0.61965 0.00047 0.0
C236 C 0.64341 0.58564 0.99034 0.0
C237 C 0.62461 0.57036 0.97237 0.0
C238 C 0.48535 0.48519 0.95261 0.0
C239 C 0.43352 0.48308 0.96041 0.0
C240 C 0.40363 0.44837 0.97462 0.0
C241 C 0.42628 0.41655 0.98139 0.0
C242 C 0.47764 0.41813 0.97339 0.0
C243 C 0.50662 0.45185 0.95892 0.0
C244 C 0.45155 0.46298 0.91451 0.0
C245 C 0.39212 0.45408 0.91579 0.0
C246 C 0.3436 0.40765 0.9073 0.0
C247 C 0.35387 0.36951 0.8973 0.0
C248 C 0.41329 0.3778 0.89656 0.0
C249 C 0.46163 0.42403 0.90516 0.0
C250 C 0.51854 0.54556 0.88899 0.0
C251 C 0.46474 0.54504 0.88477 0.0
C252 C 0.43203 0.51708 0.86918 0.0
C253 C 0.45321 0.48996 0.85738 0.0
C254 C 0.51077 0.49603 0.86067 0.0
C255 C 0.54312 0.52347 0.87644 0.0
C256 C 0.63407 0.64482 0.89995 0.0
C257 C 0.61384 0.67299 0.88966 0.0
C258 C 0.65287 0.71085 0.87719 0.0
C259 C 0.71331 0.72202 0.87503 0.0
C260 C 0.73327 0.69375 0.88551 0.0
C261 C 0.69382 0.6551 0.89764 0.0
C262 C 0.64855 0.63734 0.0194 0.0
C263 C 0.30329 0.32203 0.88728 0.0
C264 C 0.04513 0.13637 0.15053 0.0
C265 C 0.01442 0.13157 0.13443 0.0
C266 C 0.04115 0.16618 0.16564 0.0
C267 C 0.00496 0.19098 0.16464 0.0
C268 C 0.96987 0.18228 0.14894 0.0
C269 C 0.9754 0.153 0.13395 0.0
C270 C 0.07953 0.17479 0.1821 0.0
C271 C 0.9298 0.20717 0.14748 0.0
C272 C 0.9756 0.25744 0.20644 0.0
C273 C 0.0183 0.31323 0.20412 0.0
C274 C 0.97108 0.21678 0.19386 0.0
C275 C 0.01062 0.23233 0.17876 0.0
C276 C 0.05477 0.28834 0.1766 0.0
C277 C 0.05764 0.32803 0.18918 0.0
C278 C 0.92311 0.15747 0.19648 0.0
C279 C 0.09813 0.30664 0.16072 0.0
H280 H 0.07526 0.11974 0.15099 0.0
H281 H 0.95095 0.14878 0.12161 0.0
H282 H 0.11859 0.21766 0.18268 0.0
H283 H 0.05267 0.16886 0.19466 0.0
H284 H 0.09784 0.14643 0.18183 0.0
H285 H 0.89897 0.19007 0.13556 0.0
H286 H 0.9017 0.20005 0.15984 0.0
H287 H 0.95887 0.25228 0.14623 0.0
H288 H 0.94542 0.24556 0.21803 0.0
H289 H 0.08976 0.37102 0.18697 0.0
H290 H 0.94436 0.1315 0.19621 0.0
H291 H 0.88975 0.14233 0.18518 0.0
H292 H 0.89803 0.15182 0.20942 0.0
H293 H 0.12298 0.28372 0.15991 0.0
H294 H 0.13212 0.35135 0.16162 0.0
H295 H 0.07201 0.29743 0.14796 0.0
C296 C 0.96273 0.09476 0.46571 0.0
C297 C 0.93243 0.0489 0.45377 0.0
C298 C 0.93477 0.09936 0.48163 0.0
C299 C 0.87446 0.05771 0.4855 0.0
C300 C 0.84322 0.01156 0.47341 0.0
C301 C 0.87298 0.00731 0.45775 0.0
C302 C 0.9698 0.14881 0.49433 0.0
C303 C 0.77828 0.96705 0.47694 0.0
C304 C 0.81732 0.04712 0.53377 0.0
C305 C 0.78603 0.07596 0.53317 0.0
C306 C 0.84674 0.04104 0.51834 0.0
C307 C 0.84368 0.06358 0.50196 0.0
C308 C 0.81232 0.09293 0.50134 0.0
C309 C 0.78398 0.09886 0.51698 0.0
C310 C 0.88097 0.01051 0.51954 0.0
C311 C 0.80754 0.11706 0.48408 0.0
H312 H 0.00906 0.12669 0.46281 0.0
H313 H 0.84953 0.97186 0.44852 0.0
H314 H 0.94614 0.17273 0.49556 0.0
H315 H 0.97154 0.13529 0.50803 0.0
H316 H 0.01727 0.17641 0.48967 0.0
H317 H 0.76041 0.93391 0.46618 0.0
H318 H 0.77546 0.94858 0.49009 0.0
H319 H 0.74828 0.98503 0.47785 0.0
H320 H 0.81861 0.02926 0.54629 0.0
H321 H 0.7585 0.12004 0.5164 0.0
H322 H 0.9293 0.03744 0.51555 0.0
H323 H 0.86098 0.97426 0.50998 0.0
H324 H 0.87984 0.99632 0.53336 0.0
H325 H 0.85343 0.14328 0.4782 0.0
H326 H 0.78549 0.1422 0.48624 0.0
H327 H 0.78047 0.08339 0.47399 0.0
C328 C 0.9599 0.95257 0.80979 0.0
C329 C 0.93751 0.93789 0.79206 0.0
C330 C 0.92611 0.92007 0.82425 0.0
C331 C 0.86811 0.87281 0.82086 0.0
C332 C 0.84481 0.85873 0.80302 0.0
C333 C 0.88013 0.89106 0.78882 0.0
C334 C 0.95292 0.93555 0.84305 0.0
C335 C 0.78259 0.80938 0.79889 0.0
C336 C 0.79742 0.75316 0.85204 0.0
C337 C 0.75516 0.76236 0.86177 0.0
C338 C 0.83642 0.79019 0.83929 0.0
C339 C 0.83202 0.83687 0.83578 0.0
C340 C 0.79002 0.84685 0.84561 0.0
C341 C 0.75263 0.80984 0.85864 0.0
C342 C 0.88125 0.77854 0.82924 0.0
C343 C 0.7833 0.89571 0.842 0.0
H344 H 0.00438 0.9887 0.81229 0.0
H345 H 0.86238 0.87997 0.77514 0.0
H346 H 0.92163 0.94111 0.85241 0.0
H347 H 0.95814 0.90184 0.84818 0.0
H348 H -0.00181 0.97396 0.84346 0.0
H349 H 0.76993 0.80576 0.78442 0.0
H350 H 0.78175 0.77124 0.8024 0.0
H351 H 0.74732 0.81204 0.80724 0.0
H352 H 0.79924 0.71628 0.85405 0.0
H353 H 0.72119 0.81811 0.86631 0.0
H354 H 0.92768 0.81545 0.82983 0.0
H355 H 0.868 0.76861 0.81479 0.0
H356 H 0.88322 0.74361 0.83481 0.0
H357 H 0.82804 0.93429 0.84346 0.0
H358 H 0.75008 0.89873 0.85127 0.0
H359 H 0.76773 0.89254 0.82788 0.0
C360 C 0.08915 0.94537 0.1405 0.0
C361 C 0.13144 0.95768 0.12643 0.0
C362 C 0.08195 0.90833 0.15364 0.0
C363 C 0.11856 0.88371 0.15281 0.0
C364 C 0.16337 0.89802 0.13916 0.0
C365 C 0.16899 0.93458 0.12603 0.0
C366 C 0.03325 0.89365 0.1679 0.0
C367 C 0.20394 0.87327 0.13805 0.0
C368 C 0.12448 0.8124 0.19431 0.0
C369 C 0.08308 0.75707 0.18959 0.0
C370 C 0.13716 0.85413 0.18239 0.0
C371 C 0.10704 0.84021 0.16547 0.0
C372 C 0.06516 0.78454 0.16063 0.0
C373 C 0.05407 0.74364 0.17268 0.0
C374 C 0.18254 0.91306 0.18791 0.0
C375 C 0.03182 0.76815 0.14274 0.0
H376 H 0.05991 0.96302 0.14086 0.0
H377 H 0.20204 0.94427 0.11525 0.0
H378 H 0.99749 0.84971 0.16601 0.0
H379 H 0.05298 0.89909 0.18157 0.0
H380 H 0.01126 0.91897 0.16735 0.0
H381 H 0.24003 0.89233 0.12762 0.0
H382 H 0.22603 0.87815 0.15131 0.0
H383 H 0.17599 0.82854 0.13472 0.0
H384 H 0.14649 0.82326 0.20743 0.0
H385 H 0.02295 0.70096 0.16877 0.0
H386 H 0.15965 0.93768 0.18853 0.0
H387 H 0.21932 0.93132 0.17766 0.0
H388 H 0.2036 0.91679 0.20128 0.0
H389 H 0.00537 0.78927 0.14147 0.0
H390 H -1e-05 0.7231 0.14117 0.0
H391 H 0.06511 0.7812 0.13146 0.0
C392 C 0.19934 0.0282 0.44104 0.0
C393 C 0.20115 0.07243 0.43256 0.0
C394 C 0.24372 0.03683 0.45368 0.0
C395 C 0.29182 0.09097 0.45771 0.0
C396 C 0.29724 0.13523 0.44798 0.0
C397 C 0.25148 0.1255 0.43555 0.0
C398 C 0.23626 0.98841 0.46374 0.0
C399 C 0.34899 0.19327 0.45156 0.0
C400 C 0.34354 0.10869 0.50622 0.0
C401 C 0.39187 0.09851 0.5045 0.0
C402 C 0.31275 0.10969 0.49091 0.0
C403 C 0.33154 0.10108 0.47351 0.0
C404 C 0.38318 0.09476 0.47168 0.0
C405 C 0.41243 0.09296 0.48725 0.0
C406 C 0.25754 0.11614 0.49343 0.0
C407 C 0.40547 0.0869 0.45336 0.0
H408 H 0.16112 0.98691 0.43862 0.0
H409 H 0.25355 0.15987 0.42894 0.0
H410 H 0.27922 0.98723 0.46333 0.0
H411 H 0.22593 0.99275 0.47816 0.0
H412 H 0.19887 0.94858 0.45809 0.0
H413 H 0.35328 0.22077 0.44065 0.0
H414 H 0.34069 0.20981 0.46449 0.0
H415 H 0.39295 0.19425 0.45289 0.0
H416 H 0.32774 0.11291 0.51959 0.0
H417 H 0.45057 0.08596 0.48597 0.0
H418 H 0.21581 0.07708 0.48931 0.0
H419 H 0.26094 0.1485 0.48473 0.0
H420 H 0.25203 0.12691 0.50769 0.0
H421 H 0.37376 0.04482 0.4478 0.0
H422 H 0.45187 0.09235 0.45409 0.0
H423 H 0.40629 0.11628 0.44375 0.0
C424 C 0.18376 0.24568 0.79924 0.0
C425 C 0.19911 0.24646 0.78092 0.0
C426 C 0.22419 0.28682 0.81157 0.0
C427 C 0.28176 0.32867 0.80547 0.0
C428 C 0.29735 0.32956 0.78699 0.0
C429 C 0.25551 0.28884 0.7749 0.0
C430 C 0.20554 0.28536 0.83113 0.0
C431 C 0.35894 0.37261 0.78006 0.0
C432 C 0.3726 0.4613 0.83351 0.0
C433 C 0.41222 0.45051 0.84309 0.0
C434 C 0.32935 0.42176 0.82139 0.0
C435 C 0.32659 0.3707 0.81846 0.0
C436 C 0.36729 0.35997 0.82775 0.0
C437 C 0.40907 0.3997 0.84009 0.0
C438 C 0.28598 0.43426 0.81193 0.0
C439 C 0.36634 0.30628 0.82479 0.0
H440 H 0.14008 0.21305 0.8039 0.0
H441 H 0.26784 0.28927 0.76078 0.0
H442 H 0.23669 0.27957 0.83982 0.0
H443 H 0.20943 0.32512 0.83548 0.0
H444 H 0.158 0.25177 0.83351 0.0
H445 H 0.36376 0.3677 0.76525 0.0
H446 H 0.36625 0.41431 0.78311 0.0
H447 H 0.39561 0.37007 0.78703 0.0
H448 H 0.37497 0.50054 0.83563 0.0
H449 H 0.43821 0.39024 0.84776 0.0
H450 H 0.23811 0.40265 0.81495 0.0
H451 H 0.29201 0.43269 0.79708 0.0
H452 H 0.293 0.47536 0.81607 0.0
H453 H 0.32181 0.2718 0.82918 0.0
H454 H 0.40322 0.30561 0.83235 0.0
H455 H 0.37144 0.2988 0.81019 0.0
C456 C 0.95172 0.12929 0.70682 0.0
C457 C 0.93497 0.08471 0.71783 0.0
C458 C 0.91072 0.1279 0.69412 0.0
C459 C 0.85139 0.08115 0.69262 0.0
C460 C 0.83338 0.03704 0.70422 0.0
C461 C 0.87554 0.03919 0.71661 0.0
C462 C 0.93166 0.17549 0.68185 0.0
C463 C 0.77014 0.98691 0.7032 0.0
C464 C 0.73091 0.09456 0.66772 0.0
C465 C 0.73041 0.06998 0.65081 0.0
C466 C 0.76959 0.09795 0.68157 0.0
C467 C 0.80926 0.07708 0.67827 0.0
C468 C 0.80892 0.05229 0.66118 0.0
C469 C 0.76906 0.04865 0.64769 0.0
C470 C 0.76798 0.12375 0.69973 0.0
C471 C 0.85117 0.03022 0.65709 0.0
H472 H 0.99763 0.16451 0.70765 0.0
H473 H 0.86214 0.00478 0.72519 0.0
H474 H 0.93172 0.16134 0.66763 0.0
H475 H 0.8996 0.19128 0.68262 0.0
H476 H 0.97825 0.20985 0.6853 0.0
H477 H 0.76187 0.95811 0.71409 0.0
H478 H 0.73512 -0.00069 0.70418 0.0
H479 H 0.76378 0.96467 0.68996 0.0
H480 H 0.70057 0.11065 0.67013 0.0
H481 H 0.76899 0.03015 0.63453 0.0
H482 H 0.81347 0.16006 0.70288 0.0
H483 H 0.75731 0.0941 0.71049 0.0
H484 H 0.73354 0.13694 0.7002 0.0
H485 H 0.89932 0.06354 0.65904 0.0
H486 H 0.84564 0.01273 0.64305 0.0
H487 H 0.84237 0.99773 0.66659 0.0
C488 C 0.91345 0.94492 0.04876 0.0
C489 C 0.97287 0.95404 0.05017 0.0
C490 C 0.87507 0.91238 0.03443 0.0
C491 C 0.89711 0.88923 0.02112 0.0
C492 C 0.95705 0.89842 0.02245 0.0
C493 C 0.99403 0.93036 0.03703 0.0
C494 C 0.81099 0.90264 0.03355 0.0
C495 C 0.98224 0.87466 0.00842 0.0
C496 C 0.78822 0.76324 0.99286 0.0
C497 C 0.78794 0.78628 0.97653 0.0
C498 C 0.82219 0.7965 0.00767 0.0
C499 C 0.85722 0.85411 0.00598 0.0
C500 C 0.85642 0.87769 0.98957 0.0
C501 C 0.82114 0.84335 0.97502 0.0
C502 C 0.82099 0.76996 0.02505 0.0
C503 C 0.89386 0.93894 0.98726 0.0
H504 H 0.89683 0.96307 0.05889 0.0
H505 H 0.04008 0.9376 0.03793 0.0
H506 H 0.80431 0.91772 0.02071 0.0
H507 H 0.77746 0.85791 0.03367 0.0
H508 H 0.8008 0.92347 0.04501 0.0
H509 H 0.03043 0.88702 0.01117 0.0
H510 H 0.9543 0.82913 0.00801 0.0
H511 H 0.97966 0.88834 0.99482 0.0
H512 H 0.76137 0.71903 0.99406 0.0
H513 H 0.82043 0.86089 0.96237 0.0
H514 H 0.80488 0.7867 0.03629 0.0
H515 H 0.86774 0.77965 0.02855 0.0
H516 H 0.7908 0.72458 0.02414 0.0
H517 H 0.88216 0.96089 -0.00207 0.0
H518 H 0.88664 0.95083 0.97384 0.0
H519 H 0.94308 0.95309 0.98878 0.0
C520 C 0.97352 0.81667 0.39348 0.0
C521 C 0.96567 0.85682 0.38551 0.0
C522 C 0.97104 0.77287 0.3831 0.0
C523 C 0.959 0.76836 0.36436 0.0
C524 C 0.94765 0.80702 0.3564 0.0
C525 C 0.95192 0.85131 0.36704 0.0
C526 C 0.98461 0.73318 0.39204 0.0
C527 C 0.93325 0.80274 0.33651 0.0
C528 C 0.0232 0.69854 0.33382 0.0
C529 C 0.97237 0.64556 0.33114 0.0
C530 C 0.01948 0.73854 0.34474 0.0
C531 C 0.96318 0.72581 0.3529 0.0
C532 C 0.91166 0.67253 0.35032 0.0
C533 C 0.91702 0.63285 0.33963 0.0
C534 C 0.0758 0.79465 0.3474 0.0
C535 C 0.85063 0.6578 0.35858 0.0
H536 H 0.98453 0.82081 0.40774 0.0
H537 H 0.94554 0.88209 0.36084 0.0
H538 H 0.9479 0.69019 0.38906 0.0
H539 H 0.02771 0.73749 0.38652 0.0
H540 H 0.98941 0.74038 0.40694 0.0
H541 H 0.9188 0.83217 0.33285 0.0
H542 H 0.97422 0.81129 0.32847 0.0
H543 H 0.89654 0.76044 0.33261 0.0
H544 H 0.06573 0.70947 0.32695 0.0
H545 H 0.87758 0.59201 0.33774 0.0
H546 H 0.08679 0.80391 0.36202 0.0
H547 H 0.06727 0.82666 0.34247 0.0
H548 H 0.11618 0.79778 0.3402 0.0
H549 H 0.85471 0.66318 0.37351 0.0
H550 H 0.81476 0.61478 0.35506 0.0
H551 H 0.83569 0.68588 0.35387 0.0
C552 C 0.22475 0.07861 0.71077 0.0
C553 C 0.18286 0.03961 0.72255 0.0
C554 C 0.26388 0.06789 0.70011 0.0
C555 C 0.26187 0.01719 0.70145 0.0
C556 C 0.22111 0.97821 0.71372 0.0
C557 C 0.18153 0.98968 0.72404 0.0
C558 C 0.30614 0.11031 0.68699 0.0
C559 C 0.21862 0.92417 0.71568 0.0
C560 C 0.31888 0.98111 0.65863 0.0
C561 C 0.38104 0.0042 0.6626 0.0
C562 C 0.27826 0.98117 0.67169 0.0
C563 C 0.30041 0.00465 0.68914 0.0
C564 C 0.36211 0.02401 0.69365 0.0
C565 C 0.40195 0.02397 0.68024 0.0
C566 C 0.213 0.96069 0.66625 0.0
C567 C 0.38712 0.04854 0.7122 0.0
H568 H 0.22594 0.11722 0.70948 0.0
H569 H 0.14953 0.95955 0.73323 0.0
H570 H 0.35415 0.12216 0.68968 0.0
H571 H 0.29512 0.09266 0.67296 0.0
H572 H 0.30271 0.14802 0.68784 0.0
H573 H 0.18802 0.90028 0.72685 0.0
H574 H 0.202 0.89899 0.70291 0.0
H575 H 0.26503 0.93136 0.71825 0.0
H576 H 0.3027 0.96645 0.64494 0.0
H577 H 0.44995 0.0414 0.68334 0.0
H578 H 0.20626 0.99628 0.66502 0.0
H579 H 0.18087 0.93423 0.6767 0.0
H580 H 0.20105 0.93706 0.6531 0.0
H581 H 0.39241 0.09 0.71372 0.0
H582 H 0.43235 0.05264 0.71448 0.0
H583 H 0.35513 0.02304 0.72285 0.0
C584 C 0.27882 0.19221 0.0557 0.0
C585 C 0.23694 0.19898 0.06651 0.0
C586 C 0.31561 0.23157 0.04324 0.0
C587 C 0.31122 0.27927 0.0419 0.0
C588 C 0.27294 0.28854 0.05388 0.0
C589 C 0.23564 0.2479 0.06593 0.0
C590 C 0.35535 0.21991 0.03055 0.0
C591 C 0.26845 0.33971 0.05318 0.0
C592 C 0.42939 0.39246 0.01309 0.0
C593 C 0.39684 0.38224 0.99698 0.0
C594 C 0.40173 0.36008 0.02807 0.0
C595 C 0.34083 0.31582 0.0266 0.0
C596 C 0.30801 0.30539 0.01025 0.0
C597 C 0.3363 0.33929 0.99568 0.0
C598 C 0.43746 0.37318 0.04542 0.0
C599 C 0.24332 0.25793 0.00806 0.0
H600 H 0.27992 0.15439 0.05606 0.0
H601 H 0.20376 0.25353 0.07441 0.0
H602 H 0.33606 0.21131 0.01668 0.0
H603 H 0.40208 0.25618 0.03 0.0
H604 H 0.35852 0.18402 0.03458 0.0
H605 H 0.24422 0.34467 0.06513 0.0
H606 H 0.31457 0.37679 0.05245 0.0
H607 H 0.24317 0.33748 0.04084 0.0
H608 H 0.4762 0.42622 0.014 0.0
H609 H 0.31159 0.33164 0.98311 0.0
H610 H 0.44284 0.33801 0.0488 0.0
H611 H 0.41219 0.37971 0.05673 0.0
H612 H 0.48351 0.41041 0.04454 0.0
H613 H 0.24161 0.21873 0.01058 0.0
H614 H 0.22474 0.25494 0.99435 0.0
H615 H 0.21318 0.26256 0.01815 0.0
C616 C 0.04742 0.16479 0.35425 0.0
C617 C 0.04603 0.17679 0.37274 0.0
C618 C 0.04101 0.19653 0.34133 0.0
C619 C 0.03088 0.23976 0.34714 0.0
C620 C 0.02698 0.25036 0.36583 0.0
C621 C 0.03568 0.21936 0.3784 0.0
C622 C 0.04728 0.18514 0.32153 0.0
C623 C 0.01441 0.29495 0.37258 0.0
C624 C 0.07724 0.36273 0.31853 0.0
C625 C 0.02166 0.34975 0.31048 0.0
C626 C 0.08119 0.3262 0.32984 0.0
C627 C 0.02784 0.2762 0.33385 0.0
C628 C 0.97143 0.26284 0.326 0.0
C629 C 0.96917 0.29935 0.3142 0.0
C630 C 0.14248 0.34158 0.33771 0.0
C631 C 0.91326 0.21053 0.33036 0.0
H632 H 0.05559 0.1319 0.34992 0.0
H633 H 0.03375 0.22809 0.39273 0.0
H634 H 0.00658 0.17799 0.31394 0.0
H635 H 0.08745 0.22153 0.31585 0.0
H636 H 0.05303 0.14889 0.31921 0.0
H637 H 0.00751 0.29469 0.38745 0.0
H638 H 0.0532 0.33578 0.36913 0.0
H639 H 0.97314 0.28992 0.36588 0.0
H640 H 0.11792 0.40194 0.31623 0.0
H641 H 0.92616 0.28819 0.30787 0.0
H642 H 0.15184 0.3075 0.33525 0.0
H643 H 0.1421 0.34859 0.35256 0.0
H644 H 0.18041 0.37937 0.3319 0.0
H645 H 0.91811 0.17435 0.32685 0.0
H646 H 0.87316 0.20593 0.32301 0.0
H647 H 0.90421 0.21011 0.34509 0.0
loop_
_geom_bond_atom_site_label_1
_geom_bond_atom_site_label_2
_geom_bond_distance
_geom_bond_site_symmetry_2
_ccdc_geom_bond_type
O0 Cd1 2.223 . S
O0 C8 1.315 . S
Cd1 O0 2.223 . S
Cd1 O4 2.297 . S
Cd1 O5 2.439 . S
Cd1 O11 2.240 . S
Cd2 O3 2.240 . S
Cd2 O10 2.223 1_545 S
Cd2 O12 2.297 1_545 S
Cd2 O13 2.439 1_545 S
O3 Cd2 2.240 . S
O3 C8 1.279 . S
O4 Cd1 2.297 . S
O4 C6 1.247 . S
O5 Cd1 2.439 . S
O5 C6 1.208 . S
C6 O4 1.247 . S
C6 O5 1.208 . S
C7 O12 1.247 . S
C7 O13 1.208 . S
C8 O0 1.315 . S
C8 O3 1.279 . S
C9 O10 1.315 . S
C9 O11 1.279 1_565 S
O10 Cd2 2.223 1_565 S
O10 C9 1.315 . S
O11 Cd1 2.240 . S
O11 C9 1.279 1_545 S
O12 Cd2 2.297 1_565 S
O12 C7 1.247 . S
O13 Cd2 2.439 1_565 S
O13 C7 1.208 . S
O14 Cd15 2.223 . S
O14 C22 1.315 1_455 S
Cd15 O14 2.223 . S
Cd15 O18 2.297 . S
Cd15 O19 2.439 . S
Cd15 O25 2.240 . S
Cd16 O17 2.240 1_565 S
Cd16 O24 2.223 1_655 S
Cd16 O26 2.297 1_655 S
Cd16 O27 2.439 1_655 S
O17 Cd16 2.240 1_545 S
O17 C22 1.279 . S
O18 Cd15 2.297 . S
O18 C20 1.247 . S
O19 Cd15 2.439 . S
O19 C20 1.208 . S
C20 O18 1.247 . S
C20 O19 1.208 . S
C21 O26 1.247 . S
C21 O27 1.208 . S
C22 O14 1.315 1_655 S
C22 O17 1.279 . S
C23 O24 1.315 1_545 S
C23 O25 1.279 . S
O24 Cd16 2.223 1_455 S
O24 C23 1.315 1_565 S
O25 Cd15 2.240 . S
O25 C23 1.279 . S
O26 Cd16 2.297 1_455 S
O26 C21 1.247 . S
O27 Cd16 2.439 1_455 S
O27 C21 1.208 . S
O28 Cd29 2.223 . S
O28 C36 1.315 . S
Cd29 O28 2.223 . S
Cd29 O32 2.297 1_445 S
Cd29 O33 2.439 . S
Cd29 O39 2.240 . S
Cd30 O31 2.240 . S
Cd30 O38 2.223 . S
Cd30 O40 2.297 . S
Cd30 O41 2.439 . S
O31 Cd30 2.240 . S
O31 C36 1.279 . S
O32 Cd29 2.297 1_665 S
O32 C34 1.247 . S
O33 Cd29 2.439 . S
O33 C34 1.208 1_445 S
C34 O32 1.247 . S
C34 O33 1.208 1_665 S
C35 O40 1.247 . S
C35 O41 1.208 . S
C36 O28 1.315 . S
C36 O31 1.279 . S
C37 O38 1.315 . S
C37 O39 1.279 . S
O38 Cd30 2.223 . S
O38 C37 1.315 . S
O39 Cd29 2.240 . S
O39 C37 1.279 . S
O40 Cd30 2.297 . S
O40 C35 1.247 . S
O41 Cd30 2.439 . S
O41 C35 1.208 . S
H42 O68 0.856 . S
H43 O71 0.854 . S
H44 C79 0.930 . S
H45 C80 0.930 . S
H46 C82 0.930 . S
H47 C83 0.930 . S
H48 C85 0.931 1_655 S
H49 C86 0.930 1_655 S
H50 C88 0.930 . S
H51 C89 0.929 . S
H52 C91 0.930 1_655 S
H53 C92 0.931 1_655 S
H54 C94 0.930 . S
H55 C95 0.929 . S
H56 C97 0.931 . S
H57 C98 0.930 . S
H58 C100 0.930 . S
H59 C101 0.932 . S
H60 C103 0.930 . S
H61 C104 0.929 . S
H62 C106 0.931 . S
H63 C107 0.930 . S
H64 C109 0.929 . S
H65 C110 0.931 . S
H66 C112 0.930 . S
H67 C113 0.929 . S
O68 H42 0.856 . S
O68 C114 1.300 . S
O69 C114 1.209 . S
O70 C115 1.199 . S
O71 H43 0.854 . S
O71 C115 1.297 . S
C72 C73 1.404 . S
C72 C77 1.397 . S
C72 C78 1.492 . S
C73 C72 1.404 . S
C73 C74 1.396 . S
C73 C84 1.492 . S
C74 C73 1.396 . S
C74 C75 1.397 . S
C74 C90 1.509 . S
C75 C74 1.397 . S
C75 C76 1.412 . S
C75 C96 1.485 . S
C76 C75 1.412 . S
C76 C77 1.388 . S
C76 C102 1.490 . S
C77 C72 1.397 . S
C77 C76 1.388 . S
C77 C108 1.519 . S
C78 C72 1.492 . S
C78 C79 1.363 1_455 S
C78 C83 1.390 . S
C79 H44 0.930 . S
C79 C78 1.363 1_655 S
C79 C80 1.372 . S
C80 H45 0.930 . S
C80 C79 1.372 . S
C80 C81 1.383 1_655 S
C81 C80 1.383 1_455 S
C81 C82 1.395 . S
C82 H46 0.930 . S
C82 C81 1.395 . S
C82 C83 1.362 . S
C83 H47 0.930 . S
C83 C78 1.390 . S
C83 C82 1.362 . S
C84 C73 1.492 . S
C84 C85 1.377 . S
C84 C89 1.397 . S
C85 H48 0.931 1_455 S
C85 C84 1.377 . S
C85 C86 1.376 . S
C86 H49 0.930 1_455 S
C86 C85 1.376 . S
C86 C87 1.376 . S
C87 C86 1.376 . S
C87 C88 1.378 . S
C87 C114 1.486 . S
C88 H50 0.930 . S
C88 C87 1.378 . S
C88 C89 1.376 . S
C89 H51 0.929 . S
C89 C84 1.397 . S
C89 C88 1.376 . S
C90 C74 1.509 . S
C90 C91 1.391 . S
C90 C95 1.386 . S
C91 H52 0.930 1_455 S
C91 C90 1.391 . S
C91 C92 1.375 . S
C92 H53 0.931 1_455 S
C92 C91 1.375 . S
C92 C93 1.375 . S
C93 C92 1.375 . S
C93 C94 1.361 . S
C94 H54 0.930 . S
C94 C93 1.361 . S
C94 C95 1.399 . S
C95 H55 0.929 . S
C95 C90 1.386 . S
C95 C94 1.399 . S
C96 C75 1.485 . S
C96 C97 1.394 1_455 S
C96 C101 1.360 . S
C97 H56 0.931 . S
C97 C96 1.394 1_655 S
C97 C98 1.372 . S
C98 H57 0.930 . S
C98 C97 1.372 . S
C98 C99 1.397 1_655 S
C99 C98 1.397 1_455 S
C99 C100 1.390 . S
C99 C115 1.476 . S
C100 H58 0.930 . S
C100 C99 1.390 . S
C100 C101 1.366 . S
C101 H59 0.932 . S
C101 C96 1.360 . S
C101 C100 1.366 . S
C102 C76 1.490 . S
C102 C103 1.380 1_455 S
C102 C107 1.386 . S
C103 H60 0.930 . S
C103 C102 1.380 1_655 S
C103 C104 1.381 . S
C104 H61 0.929 . S
C104 C103 1.381 . S
C104 C105 1.371 1_655 S
C105 C104 1.371 1_455 S
C105 C106 1.380 . S
C106 H62 0.931 . S
C106 C105 1.380 . S
C106 C107 1.387 . S
C107 H63 0.930 . S
C107 C102 1.386 . S
C107 C106 1.387 . S
C108 C77 1.519 . S
C108 C109 1.377 1_455 S
C108 C113 1.361 . S
C109 H64 0.929 . S
C109 C108 1.377 1_655 S
C109 C110 1.386 . S
C110 H65 0.931 . S
C110 C109 1.386 . S
C110 C111 1.363 1_655 S
C111 C110 1.363 1_455 S
C111 C112 1.385 . S
C112 H66 0.930 . S
C112 C111 1.385 . S
C112 C113 1.396 . S
C113 H67 0.929 . S
C113 C108 1.361 . S
C113 C112 1.396 . S
C114 O68 1.300 . S
C114 O69 1.209 . S
C114 C87 1.486 . S
C115 O70 1.199 . S
C115 O71 1.297 . S
C115 C99 1.476 . S
H116 O142 0.856 . S
H117 O145 0.854 . S
H118 C153 0.930 1_565 S
H119 C154 0.930 1_565 S
H120 C156 0.930 . S
H121 C157 0.930 . S
H122 C159 0.929 1_565 S
H123 C160 0.930 1_565 S
H124 C162 0.930 . S
H125 C163 0.929 . S
H126 C165 0.928 . S
H127 C166 0.931 . S
H128 C168 0.930 . S
H129 C169 0.929 . S
H130 C171 0.931 . S
H131 C172 0.930 . S
H132 C174 0.930 . S
H133 C175 0.932 . S
H134 C177 0.930 1_565 S
H135 C178 0.929 1_565 S
H136 C180 0.931 . S
H137 C181 0.930 . S
H138 C183 0.929 1_565 S
H139 C184 0.931 . S
H140 C186 0.930 . S
H141 C187 0.929 . S
O142 H116 0.856 . S
O142 C188 1.300 . S
O143 C188 1.209 . S
O144 C189 1.199 . S
O145 H117 0.854 . S
O145 C189 1.297 . S
C146 C147 1.404 . S
C146 C151 1.397 . S
C146 C152 1.492 . S
C147 C146 1.404 . S
C147 C148 1.396 . S
C147 C158 1.492 . S
C148 C147 1.396 . S
C148 C149 1.397 . S
C148 C164 1.509 . S
C149 C148 1.397 . S
C149 C150 1.412 . S
C149 C170 1.485 . S
C150 C149 1.412 . S
C150 C151 1.388 . S
C150 C176 1.490 . S
C151 C146 1.397 . S
C151 C150 1.388 . S
C151 C182 1.519 . S
C152 C146 1.492 . S
C152 C153 1.363 . S
C152 C157 1.390 . S
C153 H118 0.930 1_545 S
C153 C152 1.363 . S
C153 C154 1.372 . S
C154 H119 0.930 1_545 S
C154 C153 1.372 . S
C154 C155 1.383 . S
C155 C154 1.383 . S
C155 C156 1.395 . S
C156 H120 0.930 . S
C156 C155 1.395 . S
C156 C157 1.362 . S
C157 H121 0.930 . S
C157 C152 1.390 . S
C157 C156 1.362 . S
C158 C147 1.492 . S
C158 C159 1.377 . S
C158 C163 1.397 . S
C159 H122 0.929 1_545 S
C159 C158 1.377 . S
C159 C160 1.376 . S
C160 H123 0.930 1_545 S
C160 C159 1.376 . S
C160 C161 1.376 . S
C161 C160 1.376 . S
C161 C162 1.378 . S
C161 C188 1.486 . S
C162 H124 0.930 . S
C162 C161 1.378 . S
C162 C163 1.376 . S
C163 H125 0.929 . S
C163 C158 1.397 . S
C163 C162 1.376 . S
C164 C148 1.509 . S
C164 C165 1.391 . S
C164 C169 1.386 . S
C165 H126 0.928 . S
C165 C164 1.391 . S
C165 C166 1.375 . S
C166 H127 0.931 . S
C166 C165 1.375 . S
C166 C167 1.375 . S
C167 C166 1.375 . S
C167 C168 1.361 . S
C168 H128 0.930 . S
C168 C167 1.361 . S
C168 C169 1.399 . S
C169 H129 0.929 . S
C169 C164 1.386 . S
C169 C168 1.399 . S
C170 C149 1.485 . S
C170 C171 1.394 . S
C170 C175 1.360 . S
C171 H130 0.931 . S
C171 C170 1.394 . S
C171 C172 1.372 . S
C172 H131 0.930 . S
C172 C171 1.372 . S
C172 C173 1.397 . S
C173 C172 1.397 . S
C173 C174 1.390 . S
C173 C189 1.476 . S
C174 H132 0.930 . S
C174 C173 1.390 . S
C174 C175 1.366 . S
C175 H133 0.932 . S
C175 C170 1.360 . S
C175 C174 1.366 . S
C176 C150 1.490 . S
C176 C177 1.380 . S
C176 C181 1.386 . S
C177 H134 0.930 1_545 S
C177 C176 1.380 . S
C177 C178 1.381 . S
C178 H135 0.929 1_545 S
C178 C177 1.381 . S
C178 C179 1.371 . S
C179 C178 1.371 . S
C179 C180 1.380 . S
C180 H136 0.931 . S
C180 C179 1.380 . S
C180 C181 1.387 . S
C181 H137 0.930 . S
C181 C176 1.386 . S
C181 C180 1.387 . S
C182 C151 1.519 . S
C182 C183 1.377 . S
C182 C187 1.361 . S
C183 H138 0.929 1_545 S
C183 C182 1.377 . S
C183 C184 1.386 . S
C184 H139 0.931 . S
C184 C183 1.386 . S
C184 C185 1.363 . S
C185 C184 1.363 . S
C185 C186 1.385 . S
C186 H140 0.930 . S
C186 C185 1.385 . S
C186 C187 1.396 . S
C187 H141 0.929 . S
C187 C182 1.361 . S
C187 C186 1.396 . S
C188 O142 1.300 . S
C188 O143 1.209 . S
C188 C161 1.486 . S
C189 O144 1.199 . S
C189 O145 1.297 . S
C189 C173 1.476 . S
H190 O216 0.856 . S
H191 O219 0.854 . S
H192 C227 0.930 . S
H193 C228 0.930 . S
H194 C230 0.930 . S
H195 C231 0.930 . S
H196 C233 0.931 . S
H197 C234 0.930 . S
H198 C236 0.930 1_554 S
H199 C237 0.929 . S
H200 C239 0.930 . S
H201 C240 0.931 . S
H202 C242 0.930 . S
H203 C243 0.929 . S
H204 C245 0.931 . S
H205 C246 0.930 . S
H206 C248 0.930 . S
H207 C249 0.932 . S
H208 C251 0.930 . S
H209 C252 0.929 . S
H210 C254 0.931 . S
H211 C255 0.930 . S
H212 C257 0.929 . S
H213 C258 0.931 . S
H214 C260 0.930 . S
H215 C261 0.929 . S
O216 H190 0.856 . S
O216 C262 1.300 . S
O217 C262 1.209 . S
O218 C263 1.199 . S
O219 H191 0.854 . S
O219 C263 1.297 . S
C220 C221 1.404 . S
C220 C225 1.397 . S
C220 C226 1.492 . S
C221 C220 1.404 . S
C221 C222 1.396 . S
C221 C232 1.492 . S
C222 C221 1.396 . S
C222 C223 1.397 . S
C222 C238 1.509 . S
C223 C222 1.397 . S
C223 C224 1.412 . S
C223 C244 1.485 . S
C224 C223 1.412 . S
C224 C225 1.388 . S
C224 C250 1.490 . S
C225 C220 1.397 . S
C225 C224 1.388 . S
C225 C256 1.519 . S
C226 C220 1.492 . S
C226 C227 1.363 . S
C226 C231 1.390 . S
C227 H192 0.930 . S
C227 C226 1.363 . S
C227 C228 1.372 . S
C228 H193 0.930 . S
C228 C227 1.372 . S
C228 C229 1.383 . S
C229 C228 1.383 . S
C229 C230 1.395 . S
C230 H194 0.930 . S
C230 C229 1.395 . S
C230 C231 1.362 . S
C231 H195 0.930 . S
C231 C226 1.390 . S
C231 C230 1.362 . S
C232 C221 1.492 . S
C232 C233 1.377 . S
C232 C237 1.397 . S
C233 H196 0.931 . S
C233 C232 1.377 . S
C233 C234 1.376 1_556 S
C234 H197 0.930 . S
C234 C233 1.376 1_554 S
C234 C235 1.376 . S
C235 C234 1.376 . S
C235 C236 1.378 1_554 S
C235 C262 1.486 . S
C236 H198 0.930 1_556 S
C236 C235 1.378 1_556 S
C236 C237 1.376 . S
C237 H199 0.929 . S
C237 C232 1.397 . S
C237 C236 1.376 . S
C238 C222 1.509 . S
C238 C239 1.391 . S
C238 C243 1.386 . S
C239 H200 0.930 . S
C239 C238 1.391 . S
C239 C240 1.375 . S
C240 H201 0.931 . S
C240 C239 1.375 . S
C240 C241 1.375 . S
C241 C240 1.375 . S
C241 C242 1.361 . S
C242 H202 0.930 . S
C242 C241 1.361 . S
C242 C243 1.399 . S
C243 H203 0.929 . S
C243 C238 1.386 . S
C243 C242 1.399 . S
C244 C223 1.485 . S
C244 C245 1.394 . S
C244 C249 1.360 . S
C245 H204 0.931 . S
C245 C244 1.394 . S
C245 C246 1.372 . S
C246 H205 0.930 . S
C246 C245 1.372 . S
C246 C247 1.397 . S
C247 C246 1.397 . S
C247 C248 1.390 . S
C247 C263 1.476 . S
C248 H206 0.930 . S
C248 C247 1.390 . S
C248 C249 1.366 . S
C249 H207 0.932 . S
C249 C244 1.360 . S
C249 C248 1.366 . S
C250 C224 1.490 . S
C250 C251 1.380 . S
C250 C255 1.386 . S
C251 H208 0.930 . S
C251 C250 1.380 . S
C251 C252 1.381 . S
C252 H209 0.929 . S
C252 C251 1.381 . S
C252 C253 1.371 . S
C253 C252 1.371 . S
C253 C254 1.380 . S
C254 H210 0.931 . S
C254 C253 1.380 . S
C254 C255 1.387 . S
C255 H211 0.930 . S
C255 C250 1.386 . S
C255 C254 1.387 . S
C256 C225 1.519 . S
C256 C257 1.377 . S
C256 C261 1.361 . S
C257 H212 0.929 . S
C257 C256 1.377 . S
C257 C258 1.386 . S
C258 H213 0.931 . S
C258 C257 1.386 . S
C258 C259 1.363 . S
C259 C258 1.363 . S
C259 C260 1.385 . S
C260 H214 0.930 . S
C260 C259 1.385 . S
C260 C261 1.396 . S
C261 H215 0.929 . S
C261 C256 1.361 . S
C261 C260 1.396 . S
C262 O216 1.300 . S
C262 O217 1.209 . S
C262 C235 1.486 . S
C263 O218 1.199 . S
C263 O219 1.297 . S
C263 C247 1.476 . S
C264 C265 1.391 . S
C264 C266 1.394 . S
C264 H280 0.931 . S
C265 C264 1.391 . S
C265 C269 1.376 . S
C266 C264 1.394 . S
C266 C267 1.369 . S
C266 C270 1.531 . S
C267 C266 1.369 . S
C267 C268 1.410 . S
C267 C275 1.503 . S
C268 C267 1.410 . S
C268 C269 1.392 . S
C268 C271 1.511 1_455 S
C269 C265 1.376 . S
C269 C268 1.392 . S
C269 H281 0.929 . S
C270 C266 1.531 . S
C270 H282 0.960 . S
C270 H283 0.962 . S
C270 H284 0.960 . S
C271 C268 1.511 1_655 S
C271 H285 0.961 . S
C271 H286 0.961 . S
C271 H287 0.961 1_655 S
C272 C273 1.370 1_655 S
C272 C274 1.363 . S
C272 H288 0.931 . S
C273 C272 1.370 1_455 S
C273 C277 1.408 . S
C274 C272 1.363 . S
C274 C275 1.370 1_655 S
C274 C278 1.524 . S
C275 C267 1.503 . S
C275 C274 1.370 1_455 S
C275 C276 1.403 . S
C276 C275 1.403 . S
C276 C277 1.404 . S
C276 C279 1.539 . S
C277 C273 1.408 . S
C277 C276 1.404 . S
C277 H289 0.930 . S
C278 C274 1.524 . S
C278 H290 0.956 . S
C278 H291 0.961 . S
C278 H292 0.961 . S
C279 C276 1.539 . S
C279 H293 0.958 . S
C279 H294 0.961 . S
C279 H295 0.960 . S
H280 C264 0.931 . S
H281 C269 0.929 . S
H282 C270 0.960 . S
H283 C270 0.962 . S
H284 C270 0.960 . S
H285 C271 0.961 . S
H286 C271 0.961 . S
H287 C271 0.961 1_455 S
H288 C272 0.931 . S
H289 C277 0.930 . S
H290 C278 0.956 . S
H291 C278 0.961 . S
H292 C278 0.961 . S
H293 C279 0.958 . S
H294 C279 0.961 . S
H295 C279 0.960 . S
C296 C297 1.391 . S
C296 C298 1.394 . S
C296 H312 0.931 1_655 S
C297 C296 1.391 . S
C297 C301 1.376 . S
C298 C296 1.394 . S
C298 C299 1.369 . S
C298 C302 1.531 . S
C299 C298 1.369 . S
C299 C300 1.410 . S
C299 C307 1.503 . S
C300 C299 1.410 . S
C300 C301 1.392 . S
C300 C303 1.511 1_545 S
C301 C297 1.376 . S
C301 C300 1.392 . S
C301 H313 0.929 1_545 S
C302 C298 1.531 . S
C302 H314 0.960 . S
C302 H315 0.962 . S
C302 H316 0.960 1_655 S
C303 C300 1.511 1_565 S
C303 H317 0.961 . S
C303 H318 0.961 . S
C303 H319 0.961 1_565 S
C304 C305 1.370 . S
C304 C306 1.363 . S
C304 H320 0.931 1_545 S
C305 C304 1.370 . S
C305 C309 1.408 . S
C306 C304 1.363 . S
C306 C307 1.370 . S
C306 C310 1.524 1_545 S
C307 C299 1.503 . S
C307 C306 1.370 . S
C307 C308 1.403 . S
C308 C307 1.403 . S
C308 C309 1.404 . S
C308 C311 1.539 . S
C309 C305 1.408 . S
C309 C308 1.404 . S
C309 H321 0.930 . S
C310 C306 1.524 1_565 S
C310 H322 0.956 . S
C310 H323 0.961 . S
C310 H324 0.961 . S
C311 C308 1.539 . S
C311 H325 0.958 . S
C311 H326 0.961 . S
C311 H327 0.960 . S
H312 C296 0.931 1_455 S
H313 C301 0.929 1_565 S
H314 C302 0.960 . S
H315 C302 0.962 . S
H316 C302 0.960 1_455 S
H317 C303 0.961 . S
H318 C303 0.961 . S
H319 C303 0.961 1_545 S
H320 C304 0.931 1_565 S
H321 C309 0.930 . S
H322 C310 0.956 . S
H323 C310 0.961 . S
H324 C310 0.961 . S
H325 C311 0.958 . S
H326 C311 0.961 . S
H327 C311 0.960 . S
C328 C329 1.391 . S
C328 C330 1.394 . S
C328 H344 0.931 . S
C329 C328 1.391 . S
C329 C333 1.376 . S
C330 C328 1.394 . S
C330 C331 1.369 . S
C330 C334 1.531 . S
C331 C330 1.369 . S
C331 C332 1.410 . S
C331 C339 1.503 . S
C332 C331 1.410 . S
C332 C333 1.392 . S
C332 C335 1.511 . S
C333 C329 1.376 . S
C333 C332 1.392 . S
C333 H345 0.929 . S
C334 C330 1.531 . S
C334 H346 0.960 . S
C334 H347 0.962 . S
C334 H348 0.960 . S
C335 C332 1.511 . S
C335 H349 0.961 . S
C335 H350 0.961 . S
C335 H351 0.961 . S
C336 C337 1.370 . S
C336 C338 1.363 . S
C336 H352 0.931 . S
C337 C336 1.370 . S
C337 C341 1.408 . S
C338 C336 1.363 . S
C338 C339 1.370 . S
C338 C342 1.524 . S
C339 C331 1.503 . S
C339 C338 1.370 . S
C339 C340 1.403 . S
C340 C339 1.403 . S
C340 C341 1.404 . S
C340 C343 1.539 . S
C341 C337 1.408 . S
C341 C340 1.404 . S
C341 H353 0.930 . S
C342 C338 1.524 . S
C342 H354 0.956 . S
C342 H355 0.961 . S
C342 H356 0.961 . S
C343 C340 1.539 . S
C343 H357 0.958 . S
C343 H358 0.961 . S
C343 H359 0.960 . S
H344 C328 0.931 . S
H345 C333 0.929 . S
H346 C334 0.960 . S
H347 C334 0.962 . S
H348 C334 0.960 . S
H349 C335 0.961 . S
H350 C335 0.961 . S
H351 C335 0.961 . S
H352 C336 0.931 . S
H353 C341 0.930 . S
H354 C342 0.956 . S
H355 C342 0.961 . S
H356 C342 0.961 . S
H357 C343 0.958 . S
H358 C343 0.961 . S
H359 C343 0.960 . S
C360 C361 1.391 . S
C360 C362 1.394 . S
C360 H376 0.931 1_455 S
C361 C360 1.391 . S
C361 C365 1.376 . S
C362 C360 1.394 . S
C362 C363 1.369 . S
C362 C366 1.531 1_455 S
C363 C362 1.369 . S
C363 C364 1.410 . S
C363 C371 1.503 . S
C364 C363 1.410 . S
C364 C365 1.392 . S
C364 C367 1.511 . S
C365 C361 1.376 . S
C365 C364 1.392 . S
C365 H377 0.929 . S
C366 C362 1.531 1_655 S
C366 H378 0.960 . S
C366 H379 0.962 . S
C366 H380 0.960 . S
C367 C364 1.511 . S
C367 H381 0.961 . S
C367 H382 0.961 . S
C367 H383 0.961 . S
C368 C369 1.370 . S
C368 C370 1.363 . S
C368 H384 0.931 . S
C369 C368 1.370 . S
C369 C373 1.408 . S
C370 C368 1.363 . S
C370 C371 1.370 . S
C370 C374 1.524 . S
C371 C363 1.503 . S
C371 C370 1.370 . S
C371 C372 1.403 . S
C372 C371 1.403 . S
C372 C373 1.404 . S
C372 C375 1.539 . S
C373 C369 1.408 . S
C373 C372 1.404 . S
C373 H385 0.930 . S
C374 C370 1.524 . S
C374 H386 0.956 . S
C374 H387 0.961 . S
C374 H388 0.961 . S
C375 C372 1.539 . S
C375 H389 0.958 . S
C375 H390 0.961 . S
C375 H391 0.960 . S
H376 C360 0.931 1_655 S
H377 C365 0.929 . S
H378 C366 0.960 . S
H379 C366 0.962 . S
H380 C366 0.960 . S
H381 C367 0.961 . S
H382 C367 0.961 . S
H383 C367 0.961 . S
H384 C368 0.931 . S
H385 C373 0.930 . S
H386 C374 0.956 . S
H387 C374 0.961 . S
H388 C374 0.961 . S
H389 C375 0.958 . S
H390 C375 0.961 . S
H391 C375 0.960 . S
C392 C393 1.391 . S
C392 C394 1.394 . S
C392 H408 0.931 1_545 S
C393 C392 1.391 . S
C393 C397 1.376 . S
C394 C392 1.394 . S
C394 C395 1.369 . S
C394 C398 1.531 1_545 S
C395 C394 1.369 . S
C395 C396 1.410 . S
C395 C403 1.503 . S
C396 C395 1.410 . S
C396 C397 1.392 . S
C396 C399 1.511 . S
C397 C393 1.376 . S
C397 C396 1.392 . S
C397 H409 0.929 . S
C398 C394 1.531 1_565 S
C398 H410 0.960 . S
C398 H411 0.962 1_565 S
C398 H412 0.960 . S
C399 C396 1.511 . S
C399 H413 0.961 . S
C399 H414 0.961 . S
C399 H415 0.961 . S
C400 C401 1.370 . S
C400 C402 1.363 . S
C400 H416 0.931 . S
C401 C400 1.370 . S
C401 C405 1.408 . S
C402 C400 1.363 . S
C402 C403 1.370 . S
C402 C406 1.524 . S
C403 C395 1.503 . S
C403 C402 1.370 . S
C403 C404 1.403 . S
C404 C403 1.403 . S
C404 C405 1.404 . S
C404 C407 1.539 1_545 S
C405 C401 1.408 . S
C405 C404 1.404 . S
C405 H417 0.930 . S
C406 C402 1.524 . S
C406 H418 0.956 . S
C406 H419 0.961 . S
C406 H420 0.961 . S
C407 C404 1.539 1_565 S
C407 H421 0.958 . S
C407 H422 0.961 . S
C407 H423 0.960 . S
H408 C392 0.931 1_565 S
H409 C397 0.929 . S
H410 C398 0.960 . S
H411 C398 0.962 1_545 S
H412 C398 0.960 . S
H413 C399 0.961 . S
H414 C399 0.961 . S
H415 C399 0.961 . S
H416 C400 0.931 . S
H417 C405 0.930 . S
H418 C406 0.956 . S
H419 C406 0.961 . S
H420 C406 0.961 . S
H421 C407 0.958 . S
H422 C407 0.961 . S
H423 C407 0.960 . S
C424 C425 1.391 . S
C424 C426 1.394 . S
C424 H440 0.931 . S
C425 C424 1.391 . S
C425 C429 1.376 . S
C426 C424 1.394 . S
C426 C427 1.369 . S
C426 C430 1.531 . S
C427 C426 1.369 . S
C427 C428 1.410 . S
C427 C435 1.503 . S
C428 C427 1.410 . S
C428 C429 1.392 . S
C428 C431 1.511 . S
C429 C425 1.376 . S
C429 C428 1.392 . S
C429 H441 0.929 . S
C430 C426 1.531 . S
C430 H442 0.960 . S
C430 H443 0.962 . S
C430 H444 0.960 . S
C431 C428 1.511 . S
C431 H445 0.961 . S
C431 H446 0.961 . S
C431 H447 0.961 . S
C432 C433 1.370 . S
C432 C434 1.363 . S
C432 H448 0.931 . S
C433 C432 1.370 . S
C433 C437 1.408 . S
C434 C432 1.363 . S
C434 C435 1.370 . S
C434 C438 1.524 . S
C435 C427 1.503 . S
C435 C434 1.370 . S
C435 C436 1.403 . S
C436 C435 1.403 . S
C436 C437 1.404 . S
C436 C439 1.539 . S
C437 C433 1.408 . S
C437 C436 1.404 . S
C437 H449 0.930 . S
C438 C434 1.524 . S
C438 H450 0.956 . S
C438 H451 0.961 . S
C438 H452 0.961 . S
C439 C436 1.539 . S
C439 H453 0.958 . S
C439 H454 0.961 . S
C439 H455 0.960 . S
H440 C424 0.931 . S
H441 C429 0.929 . S
H442 C430 0.960 . S
H443 C430 0.962 . S
H444 C430 0.960 . S
H445 C431 0.961 . S
H446 C431 0.961 . S
H447 C431 0.961 . S
H448 C432 0.931 . S
H449 C437 0.930 . S
H450 C438 0.956 . S
H451 C438 0.961 . S
H452 C438 0.961 . S
H453 C439 0.958 . S
H454 C439 0.961 . S
H455 C439 0.960 . S
C456 C457 1.391 . S
C456 C458 1.394 . S
C456 H472 0.931 1_655 S
C457 C456 1.391 . S
C457 C461 1.376 . S
C458 C456 1.394 . S
C458 C459 1.369 . S
C458 C462 1.531 . S
C459 C458 1.369 . S
C459 C460 1.410 . S
C459 C467 1.503 . S
C460 C459 1.410 . S
C460 C461 1.392 . S
C460 C463 1.511 . S
C461 C457 1.376 . S
C461 C460 1.392 . S
C461 H473 0.929 . S
C462 C458 1.531 . S
C462 H474 0.960 . S
C462 H475 0.962 . S
C462 H476 0.960 1_655 S
C463 C460 1.511 . S
C463 H477 0.961 . S
C463 H478 0.961 . S
C463 H479 0.961 1_545 S
C464 C465 1.370 . S
C464 C466 1.363 . S
C464 H480 0.931 . S
C465 C464 1.370 . S
C465 C469 1.408 . S
C466 C464 1.363 . S
C466 C467 1.370 . S
C466 C470 1.524 . S
C467 C459 1.503 . S
C467 C466 1.370 . S
C467 C468 1.403 . S
C468 C467 1.403 . S
C468 C469 1.404 . S
C468 C471 1.539 1_545 S
C469 C465 1.408 . S
C469 C468 1.404 . S
C469 H481 0.930 . S
C470 C466 1.524 . S
C470 H482 0.956 . S
C470 H483 0.961 . S
C470 H484 0.961 . S
C471 C468 1.539 1_565 S
C471 H485 0.958 . S
C471 H486 0.961 . S
C471 H487 0.960 . S
H472 C456 0.931 1_455 S
H473 C461 0.929 . S
H474 C462 0.960 . S
H475 C462 0.962 . S
H476 C462 0.960 1_455 S
H477 C463 0.961 . S
H478 C463 0.961 . S
H479 C463 0.961 1_565 S
H480 C464 0.931 . S
H481 C469 0.930 . S
H482 C470 0.956 . S
H483 C470 0.961 . S
H484 C470 0.961 . S
H485 C471 0.958 . S
H486 C471 0.961 . S
H487 C471 0.960 . S
C488 C489 1.391 . S
C488 C490 1.394 . S
C488 H504 0.931 . S
C489 C488 1.391 . S
C489 C493 1.376 . S
C490 C488 1.394 . S
C490 C491 1.369 . S
C490 C494 1.531 . S
C491 C490 1.369 . S
C491 C492 1.410 . S
C491 C499 1.503 . S
C492 C491 1.410 . S
C492 C493 1.392 . S
C492 C495 1.555 . S
C493 C489 1.376 . S
C493 C492 1.392 . S
C493 H505 0.929 1_655 S
C494 C490 1.531 . S
C494 H506 0.960 . S
C494 H507 0.962 . S
C494 H508 0.960 . S
C495 C492 1.555 . S
C495 H509 0.981 1_655 S
C495 H510 0.937 1_554 S
C495 H511 0.925 1_654 S
C496 C497 1.370 . S
C496 C498 1.363 1_556 S
C496 H512 0.931 . S
C497 C496 1.370 . S
C497 C501 1.408 . S
C498 C496 1.363 1_554 S
C498 C499 1.370 . S
C498 C502 1.524 . S
C499 C491 1.503 . S
C499 C498 1.370 . S
C499 C500 1.403 1_554 S
C500 C499 1.403 1_556 S
C500 C501 1.404 . S
C500 C503 1.539 . S
C501 C497 1.408 . S
C501 C500 1.404 . S
C501 H513 0.930 . S
C502 C498 1.524 . S
C502 H514 0.956 . S
C502 H515 0.961 . S
C502 H516 0.961 . S
C503 C500 1.539 . S
C503 H517 0.958 . S
C503 H518 0.961 . S
C503 H519 0.960 . S
H504 C488 0.931 . S
H505 C493 0.929 1_455 S
H506 C494 0.960 . S
H507 C494 0.962 . S
H508 C494 0.960 . S
H509 C495 0.981 1_455 S
H510 C495 0.937 1_556 S
H511 C495 0.925 1_456 S
H512 C496 0.931 . S
H513 C501 0.930 . S
H514 C502 0.956 . S
H515 C502 0.961 . S
H516 C502 0.961 . S
H517 C503 0.958 . S
H518 C503 0.961 . S
H519 C503 0.960 . S
C520 C521 1.391 . S
C520 C522 1.394 . S
C520 H536 0.931 . S
C521 C520 1.391 . S
C521 C525 1.376 1_455 S
C522 C520 1.394 . S
C522 C523 1.369 . S
C522 C526 1.531 . S
C523 C522 1.369 . S
C523 C524 1.410 1_455 S
C523 C531 1.503 . S
C524 C523 1.410 1_655 S
C524 C525 1.392 . S
C524 C527 1.511 . S
C525 C521 1.376 1_655 S
C525 C524 1.392 . S
C525 H537 0.929 . S
C526 C522 1.531 . S
C526 H538 0.960 . S
C526 H539 0.962 . S
C526 H540 0.960 . S
C527 C524 1.511 . S
C527 H541 0.961 . S
C527 H542 0.961 . S
C527 H543 0.961 . S
C528 C529 1.370 . S
C528 C530 1.363 . S
C528 H544 0.931 . S
C529 C528 1.370 . S
C529 C533 1.408 1_455 S
C530 C528 1.363 . S
C530 C531 1.370 . S
C530 C534 1.524 . S
C531 C523 1.503 . S
C531 C530 1.370 . S
C531 C532 1.403 1_455 S
C532 C531 1.403 1_655 S
C532 C533 1.404 . S
C532 C535 1.539 . S
C533 C529 1.408 1_655 S
C533 C532 1.404 . S
C533 H545 0.930 . S
C534 C530 1.524 . S
C534 H546 0.956 . S
C534 H547 0.961 . S
C534 H548 0.961 . S
C535 C532 1.539 . S
C535 H549 0.958 . S
C535 H550 0.961 . S
C535 H551 0.960 . S
H536 C520 0.931 . S
H537 C525 0.929 . S
H538 C526 0.960 . S
H539 C526 0.962 . S
H540 C526 0.960 . S
H541 C527 0.961 . S
H542 C527 0.961 . S
H543 C527 0.961 . S
H544 C528 0.931 . S
H545 C533 0.930 . S
H546 C534 0.956 . S
H547 C534 0.961 . S
H548 C534 0.961 . S
H549 C535 0.958 . S
H550 C535 0.961 . S
H551 C535 0.960 . S
C552 C553 1.391 . S
C552 C554 1.394 . S
C552 H568 0.931 . S
C553 C552 1.391 . S
C553 C557 1.376 . S
C554 C552 1.394 . S
C554 C555 1.369 . S
C554 C558 1.531 . S
C555 C554 1.369 . S
C555 C556 1.410 . S
C555 C563 1.503 . S
C556 C555 1.410 . S
C556 C557 1.392 . S
C556 C559 1.511 . S
C557 C553 1.376 . S
C557 C556 1.392 . S
C557 H569 0.929 . S
C558 C554 1.531 . S
C558 H570 0.960 . S
C558 H571 0.962 . S
C558 H572 0.960 . S
C559 C556 1.511 . S
C559 H573 0.961 . S
C559 H574 0.961 . S
C559 H575 0.961 . S
C560 C561 1.370 . S
C560 C562 1.363 . S
C560 H576 0.931 1_545 S
C561 C560 1.370 . S
C561 C565 1.408 . S
C562 C560 1.363 . S
C562 C563 1.370 . S
C562 C566 1.524 1_545 S
C563 C555 1.503 . S
C563 C562 1.370 . S
C563 C564 1.403 . S
C564 C563 1.403 . S
C564 C565 1.404 . S
C564 C567 1.539 . S
C565 C561 1.408 . S
C565 C564 1.404 . S
C565 H577 0.930 . S
C566 C562 1.524 1_565 S
C566 H578 0.956 1_565 S
C566 H579 0.961 . S
C566 H580 0.961 . S
C567 C564 1.539 . S
C567 H581 0.958 . S
C567 H582 0.961 . S
C567 H583 0.960 . S
H568 C552 0.931 . S
H569 C557 0.929 . S
H570 C558 0.960 . S
H571 C558 0.962 . S
H572 C558 0.960 . S
H573 C559 0.961 . S
H574 C559 0.961 . S
H575 C559 0.961 . S
H576 C560 0.931 1_565 S
H577 C565 0.930 . S
H578 C566 0.956 1_545 S
H579 C566 0.961 . S
H580 C566 0.961 . S
H581 C567 0.958 . S
H582 C567 0.961 . S
H583 C567 0.960 . S
C584 C585 1.391 . S
C584 C586 1.394 . S
C584 H600 0.931 . S
C585 C584 1.391 . S
C585 C589 1.376 . S
C586 C584 1.394 . S
C586 C587 1.369 . S
C586 C590 1.531 . S
C587 C586 1.369 . S
C587 C588 1.410 . S
C587 C595 1.503 . S
C588 C587 1.410 . S
C588 C589 1.392 . S
C588 C591 1.511 . S
C589 C585 1.376 . S
C589 C588 1.392 . S
C589 H601 0.929 . S
C590 C586 1.531 . S
C590 H602 0.960 . S
C590 H603 0.962 . S
C590 H604 0.960 . S
C591 C588 1.511 . S
C591 H605 0.961 . S
C591 H606 0.961 . S
C591 H607 0.961 . S
C592 C593 1.362 1_554 S
C592 C594 1.363 . S
C592 H608 0.931 . S
C593 C592 1.362 1_556 S
C593 C597 1.412 . S
C594 C592 1.363 . S
C594 C595 1.370 . S
C594 C598 1.524 . S
C595 C587 1.503 . S
C595 C594 1.370 . S
C595 C596 1.403 . S
C596 C595 1.403 . S
C596 C597 1.404 1_554 S
C596 C599 1.539 1_554 S
C597 C593 1.412 . S
C597 C596 1.404 1_556 S
C597 H609 0.930 . S
C598 C594 1.524 . S
C598 H610 0.956 . S
C598 H611 0.961 . S
C598 H612 0.961 . S
C599 C596 1.539 1_556 S
C599 H613 0.958 . S
C599 H614 0.961 . S
C599 H615 0.960 1_556 S
H600 C584 0.931 . S
H601 C589 0.929 . S
H602 C590 0.960 . S
H603 C590 0.962 . S
H604 C590 0.960 . S
H605 C591 0.961 . S
H606 C591 0.961 . S
H607 C591 0.961 . S
H608 C592 0.931 . S
H609 C597 0.930 . S
H610 C598 0.956 . S
H611 C598 0.961 . S
H612 C598 0.961 . S
H613 C599 0.958 . S
H614 C599 0.961 . S
H615 C599 0.960 1_554 S
C616 C617 1.391 . S
C616 C618 1.394 . S
C616 H632 0.931 . S
C617 C616 1.391 . S
C617 C621 1.376 . S
C618 C616 1.394 . S
C618 C619 1.369 . S
C618 C622 1.531 . S
C619 C618 1.369 . S
C619 C620 1.415 . S
C619 C627 1.503 . S
C620 C619 1.415 . S
C620 C621 1.398 . S
C620 C623 1.500 1_455 S
C621 C617 1.376 . S
C621 C620 1.398 . S
C621 H633 0.929 1_455 S
C622 C618 1.531 . S
C622 H634 0.960 . S
C622 H635 0.962 . S
C622 H636 0.960 . S
C623 C620 1.500 1_655 S
C623 H637 0.961 . S
C623 H638 0.961 . S
C623 H639 0.961 . S
C624 C625 1.370 . S
C624 C626 1.363 . S
C624 H640 0.931 . S
C625 C624 1.370 . S
C625 C629 1.408 1_455 S
C626 C624 1.363 . S
C626 C627 1.370 . S
C626 C630 1.524 . S
C627 C619 1.503 . S
C627 C626 1.370 . S
C627 C628 1.403 1_455 S
C628 C627 1.403 1_655 S
C628 C629 1.404 . S
C628 C631 1.539 . S
C629 C625 1.408 1_655 S
C629 C628 1.404 . S
C629 H641 0.930 . S
C630 C626 1.524 . S
C630 H642 0.956 . S
C630 H643 0.961 . S
C630 H644 0.961 . S
C631 C628 1.539 . S
C631 H645 0.958 . S
C631 H646 0.961 . S
C631 H647 0.960 . S
H632 C616 0.931 . S
H633 C621 0.929 1_655 S
H634 C622 0.960 . S
H635 C622 0.962 . S
H636 C622 0.960 . S
H637 C623 0.961 . S
H638 C623 0.961 . S
H639 C623 0.961 . S
H640 C624 0.931 . S
H641 C629 0.930 . S
H642 C630 0.956 . S
H643 C630 0.961 . S
H644 C630 0.961 . S
H645 C631 0.958 . S
H646 C631 0.961 . S
H647 C631 0.960 . S
C273 C81 1.416 . S
C265 C6 1.519 . S
C297 C22 1.550 . S
C305 C155 1.463 . S
C329 C34 1.917 . S
C337 C259 1.925 . S
C361 C7 0.808 . S
C369 C93 0.836 . S
C401 C167 0.927 . S
C393 C23 0.914 . S
C425 C35 1.323 . S
C433 C253 1.225 . S
C465 C185 2.173 . S
C457 C36 2.160 1_655 S
C489 C9 1.809 1_655 S
C497 C229 1.732 . S
C529 C105 1.502 . S
C521 C21 1.531 . S
C561 C179 1.490 . S
C553 C37 1.555 . S
C593 C241 1.114 . S
C585 C8 1.098 . S
C617 C20 2.187 . S
C625 C111 2.203 . S
