# Generated by pormake.
# Topology tsx, (6,3)-cn, num edge types: 1
# Building blocks:
#     Node 0, Type 0, BuildingBlock: FUNLAD_clean_sbu_0, # of connection points: 6
#     Node 1, Type 0, BuildingBlock: FUNLAD_clean_sbu_0, # of connection points: 6
#     Node 2, Type 1, BuildingBlock: INOVEN_clean_linker_0, # of connection points: 3
#     Node 3, Type 1, BuildingBlock: INOVEN_clean_linker_0, # of connection points: 3
#     Node 4, Type 1, BuildingBlock: INOVEN_clean_linker_0, # of connection points: 3
#     Node 5, Type 1, BuildingBlock: INOVEN_clean_linker_0, # of connection points: 3
#     Edge 6, Type (0, 1), BuildingBlock: ZUJKAS_clean_linker_0, # of connection points: 2
#     Edge 7, Type (0, 1), BuildingBlock: ZUJKAS_clean_linker_0, # of connection points: 2
#     Edge 8, Type (0, 1), BuildingBlock: ZUJKAS_clean_linker_0, # of connection points: 2
#     Edge 9, Type (0, 1), BuildingBlock: ZUJKAS_clean_linker_0, # of connection points: 2
#     Edge 10, Type (0, 1), BuildingBlock: ZUJKAS_clean_linker_0, # of connection points: 2
#     Edge 11, Type (0, 1), BuildingBlock: ZUJKAS_clean_linker_0, # of connection points: 2
#     Edge 12, Type (0, 1), BuildingBlock: ZUJKAS_clean_linker_0, # of connection points: 2
#     Edge 13, Type (0, 1), BuildingBlock: ZUJKAS_clean_linker_0, # of connection points: 2
#     Edge 14, Type (0, 1), BuildingBlock: ZUJKAS_clean_linker_0, # of connection points: 2
#     Edge 15, Type (0, 1), BuildingBlock: ZUJKAS_clean_linker_0, # of connection points: 2
#     Edge 16, Type (0, 1), BuildingBlock: ZUJKAS_clean_linker_0, # of connection points: 2
#     Edge 17, Type (0, 1), BuildingBlock: ZUJKAS_clean_linker_0, # of connection points: 2
# Relax obj value: 0.101
# Max RMSD: 0.111
# Mean RMSD: 0.102
data_MOF--net-tsx--node1-FUNLAD_clean_sbu_0--node2-INOVEN_clean_linker_0--edge1-ZUJKAS_clean_linker_0
_symmetry_space_group_name_H-M    P1
_symmetry_Int_Tables_number       1
_symmetry_cell_setting            triclinic
loop_
_symmetry_equiv_pos_as_xyz
'x, y, z'
_cell_length_a     25.429121
_cell_length_b     28.074487
_cell_length_c     49.451182
_cell_angle_alpha  90.990768
_cell_angle_beta   101.04793
_cell_angle_gamma 89.903212
loop_
_atom_site_label
_atom_site_type_symbol
_atom_site_fract_x
_atom_site_fract_y
_atom_site_fract_z
_atom_type_partial_charge
C0 C 0.9408 0.93362 0.00457 0.0
N1 N 0.03648 0.0059 0.07117 0.0
C2 C 0.99251 0.00226 0.08293 0.0
C3 C -0.00217 0.00291 0.11149 0.0
C4 C 0.04884 0.00784 0.12815 0.0
C5 C 0.09358 0.01195 0.11555 0.0
C6 C 0.08647 0.01062 0.08682 0.0
Zn7 Zn 0.02554 0.00483 0.02928 0.0
C8 C 0.09546 0.93519 0.00806 0.0
N9 N -0.00143 0.00244 0.94175 0.0
C10 C 0.9486 0.00363 0.92587 0.0
C11 C 0.04309 0.00217 0.93028 0.0
C12 C 0.03843 0.00349 0.90179 0.0
C13 C 0.98745 0.00496 0.88483 0.0
C14 C 0.94207 0.00493 0.89719 0.0
Zn15 Zn 0.00915 0.00301 0.9836 0.0
O16 O 0.96797 0.94934 0.02725 0.0
C17 C 0.93924 0.07263 0.00504 0.0
O18 O 0.94933 0.95034 0.98209 0.0
H19 H 0.08245 0.00148 0.94328 0.0
H20 H 0.95309 -0.00099 0.07012 0.0
H21 H 0.91379 0.00384 0.93547 0.0
O22 O 0.96412 0.05627 0.02771 0.0
O23 O 0.95064 0.05705 0.98257 0.0
H24 H 0.12086 0.01337 0.07702 0.0
O25 O 0.06903 0.05607 0.98541 0.0
O26 O 0.08242 0.06029 0.03049 0.0
O27 O 0.06764 0.94877 0.98537 0.0
O28 O 0.08722 0.95356 0.03053 0.0
C29 C 0.09326 0.07463 0.00795 0.0
H30 H 0.9623 0.00029 0.12046 0.0
H31 H 0.1336 0.01551 0.12777 0.0
H32 H 0.07451 0.00425 0.89318 0.0
H33 H 0.90201 0.00557 0.88484 0.0
C34 C 0.43472 0.44331 0.50314 0.0
N35 N 0.53 0.52017 0.56793 0.0
C36 C 0.48653 0.51977 0.58023 0.0
C37 C 0.49286 0.52325 0.6088 0.0
C38 C 0.54445 0.52698 0.625 0.0
C39 C 0.58879 0.52655 0.61186 0.0
C40 C 0.58058 0.5233 0.58309 0.0
Zn41 Zn 0.5166 0.51755 0.52586 0.0
C42 C 0.5879 0.44985 0.50402 0.0
N43 N 0.48376 0.51307 0.43799 0.0
C44 C 0.43259 0.51309 0.42344 0.0
C45 C 0.52636 0.51396 0.42505 0.0
C46 C 0.51839 0.51548 0.39638 0.0
C47 C 0.46605 0.51624 0.38082 0.0
C48 C 0.42278 0.51478 0.39469 0.0
Zn49 Zn 0.49786 0.51466 0.48003 0.0
O50 O 0.46095 0.46126 0.52546 0.0
C51 C 0.42677 0.58228 0.50238 0.0
O52 O 0.44215 0.45914 0.48025 0.0
H53 H 0.5667 0.51428 0.437 0.0
H54 H 0.44668 0.51699 0.56784 0.0
H55 H 0.39932 0.51232 0.43416 0.0
O56 O 0.45457 0.56777 0.5248 0.0
O57 O 0.43623 0.56601 0.47965 0.0
H58 H 0.61456 0.52367 0.57287 0.0
O59 O 0.55353 0.57031 0.48017 0.0
O60 O 0.57171 0.57398 0.52535 0.0
O61 O 0.55981 0.46334 0.48134 0.0
O62 O 0.57867 0.46728 0.52654 0.0
C63 C 0.57908 0.58927 0.5023 0.0
H64 H 0.45765 0.52261 0.61813 0.0
H65 H 0.62922 0.52955 0.62364 0.0
H66 H 0.5529 0.51719 0.38654 0.0
H67 H 0.3818 0.51479 0.38345 0.0
H68 H 0.03734 0.99312 0.49452 0.0
H69 H 0.08535 0.93797 0.42129 0.0
H70 H -0.00037 0.06998 0.4186 0.0
N71 N 0.9871 0.06973 0.47155 0.0
N72 N 0.97242 0.10831 0.46043 0.0
C73 C 0.03863 0.99621 0.47287 0.0
C74 C 0.06335 0.9605 0.45952 0.0
C75 C 0.01518 0.03566 0.45822 0.0
C76 C 0.01799 0.03988 0.4302 0.0
C77 C 0.0428 0.00453 0.41674 0.0
C78 C 0.0651 0.96491 0.43149 0.0
H79 H 0.96031 0.00662 0.51388 0.0
H80 H 0.91294 0.95593 0.58713 0.0
H81 H 0.02765 0.06951 0.59295 0.0
N82 N 0.03085 0.07084 0.53903 0.0
N83 N 0.07403 0.08661 0.55247 0.0
C84 C 0.96291 0.00869 0.53597 0.0
C85 C 0.93378 0.97661 0.54883 0.0
C86 C -0.00221 0.04154 0.55187 0.0
C87 C 0.00088 0.04406 0.5806 0.0
C88 C 0.97018 0.01349 0.59349 0.0
C89 C 0.93696 0.97976 0.57742 0.0
H90 H 0.54534 0.48035 0.99202 0.0
H91 H 0.59906 0.43508 0.91826 0.0
H92 H 0.51 0.56509 0.91921 0.0
N93 N 0.4968 0.55912 0.97144 0.0
N94 N 0.49428 0.60223 0.9657 0.0
C95 C 0.54824 0.48602 0.97073 0.0
C96 C 0.57478 0.45269 0.95666 0.0
C97 C 0.52556 0.52688 0.9574 0.0
C98 C 0.52907 0.53424 0.92974 0.0
C99 C 0.55456 0.50076 0.91525 0.0
C100 C 0.57764 0.46031 0.92898 0.0
H101 H 0.46724 0.49887 0.01629 0.0
H102 H 0.40215 0.46328 0.0875 0.0
H103 H 0.49376 0.59164 0.08794 0.0
N104 N 0.51661 0.57817 0.03731 0.0
N105 N 0.52968 0.6191 0.04629 0.0
C106 C 0.4611 0.50741 0.03691 0.0
C107 C 0.43163 0.47639 0.05029 0.0
C108 C 0.48375 0.549 0.05039 0.0
C109 C 0.47607 0.55977 0.0773 0.0
C110 C 0.44657 0.52906 0.09082 0.0
C111 C 0.42446 0.48756 0.0771 0.0
H112 H 0.13098 0.10835 0.9637 0.0
H113 H 0.19321 0.17465 0.96314 0.0
H114 H 0.2063 0.19493 0.05079 0.0
H115 H 0.14422 0.12872 0.05165 0.0
H116 H 0.18022 0.2796 0.01555 0.0
H117 H 0.35937 0.17861 -0.0027 0.0
H118 H 0.29552 0.1645 0.97586 0.0
H119 H 0.30707 0.15124 0.01184 0.0
C120 C 0.14735 0.12671 0.98291 0.0
C121 C 0.13261 0.11331 0.00774 0.0
C122 C 0.18303 0.16442 0.98253 0.0
C123 C 0.20446 0.18933 0.00693 0.0
C124 C 0.19019 0.17591 0.03176 0.0
H125 H 0.44461 0.38717 0.0706 0.0
H126 H 0.39117 0.31666 0.05382 0.0
C127 C 0.15479 0.13807 0.03221 0.0
C128 C 0.2401 0.23076 0.00662 0.0
H129 H 0.36788 0.26201 0.00228 0.0
C130 C 0.22105 0.27599 0.0123 0.0
C131 C 0.29322 0.22557 0.00238 0.0
C132 C 0.31547 0.17742 -0.00337 0.0
C133 C 0.25432 0.31621 0.01472 0.0
C134 C 0.3079 0.31098 0.01109 0.0
C135 C 0.32657 0.26588 0.00468 0.0
C136 C 0.3466 0.35071 0.01763 0.0
C137 C 0.23275 0.3636 0.02251 0.0
C138 C 0.34084 0.39251 0.00212 0.0
C139 C 0.3715 0.43292 0.01168 0.0
C140 C 0.40792 0.43186 0.03691 0.0
C141 C 0.41636 0.3889 0.05123 0.0
C142 C 0.38605 0.34863 0.04162 0.0
H143 H 0.19287 0.36013 0.02834 0.0
H144 H 0.26085 0.38041 0.04003 0.0
H145 H 0.22868 0.38787 0.00476 0.0
H146 H 0.31086 0.39455 0.98339 0.0
H147 H 0.36435 0.4657 0.00033 0.0
H148 H 0.10067 0.86797 0.96848 0.0
H149 H 0.17154 0.80972 0.96726 0.0
H150 H 0.25762 0.86411 0.04545 0.0
H151 H 0.18516 0.9209 0.04741 0.0
H152 H 0.26964 0.82508 0.964 0.0
H153 H 0.27067 0.72524 0.05974 0.0
H154 H 0.2181 0.76648 0.04626 0.0
H155 H 0.28074 0.78796 0.06604 0.0
C156 C 0.13439 0.86708 0.98558 0.0
C157 C 0.13741 0.89883 0.00807 0.0
C158 C 0.1749 0.83379 0.98488 0.0
C159 C 0.21975 0.83201 0.00643 0.0
C160 C 0.22282 0.86375 0.02896 0.0
H161 H 0.50794 0.69566 0.96991 0.0
H162 H 0.44648 0.75414 0.98433 0.0
C163 C 0.1816 0.89646 0.02996 0.0
C164 C 0.2645 0.79901 0.00412 0.0
H165 H 0.34332 0.71043 0.03669 0.0
C166 C 0.28556 0.79991 0.97989 0.0
C167 C 0.28509 0.76589 0.02475 0.0
C168 C 0.26213 0.76091 0.05053 0.0
C169 C 0.32585 0.76832 0.97545 0.0
C170 C 0.34777 0.73626 -0.00357 0.0
C171 C 0.32709 0.73551 0.02081 0.0
C172 C 0.38976 0.70137 0.99259 0.0
C173 C 0.34277 0.76848 0.94778 0.0
C174 C 0.38048 0.65234 0.99456 0.0
C175 C 0.41641 0.61908 0.98716 0.0
C176 C 0.46186 0.63456 0.97746 0.0
C177 C 0.47269 0.68334 0.97703 0.0
C178 C 0.43749 0.71655 0.98506 0.0
H179 H 0.3118 0.78486 0.9317 0.0
H180 H 0.38003 0.78973 0.94944 0.0
H181 H 0.35058 0.7318 0.94079 0.0
H182 H 0.34418 0.63975 0.00054 0.0
H183 H 0.40724 0.58149 0.98766 0.0
H184 H 0.87529 0.89203 0.95994 0.0
H185 H 0.80345 0.83414 0.96026 0.0
H186 H 0.83853 0.83594 0.04911 0.0
H187 H 0.91069 0.89316 0.04906 0.0
H188 H 0.82434 0.7443 0.02562 0.0
H189 H 0.65802 0.86551 0.98106 0.0
H190 H 0.70999 0.85753 0.96136 0.0
H191 H 0.72502 0.88682 0.99451 0.0
C192 C 0.86781 0.88 0.97955 0.0
C193 C 0.8986 0.89735 0.00449 0.0
C194 C 0.82656 0.84712 0.97967 0.0
C195 C 0.81524 0.83129 0.00471 0.0
C196 C 0.84656 0.84784 0.02957 0.0
H197 H 0.54835 0.71008 0.05816 0.0
H198 H 0.61627 0.76036 0.04355 0.0
C199 C 0.88776 0.88059 0.02949 0.0
C200 C 0.77072 0.79762 0.00531 0.0
H201 H 0.63429 0.78795 0.99172 0.0
C202 C 0.78278 0.75356 0.01797 0.0
C203 C 0.7166 0.81009 0.99545 0.0
C204 C 0.7013 0.85767 0.98251 0.0
C205 C 0.74211 0.72205 0.02171 0.0
C206 C 0.68794 0.73469 0.01209 0.0
C207 C 0.6759 0.77825 -0.00119 0.0
C208 C 0.64337 0.70543 0.01819 0.0
C209 C 0.75738 0.67655 0.03708 0.0
C210 C 0.6352 0.65837 0.00817 0.0
C211 C 0.59663 0.62968 0.01665 0.0
C212 C 0.56539 0.64805 0.03502 0.0
C213 C 0.57213 0.69554 0.04401 0.0
C214 C 0.61065 0.72412 0.03562 0.0
H215 H 0.80007 0.67658 0.04767 0.0
H216 H 0.73193 0.67093 0.05266 0.0
H217 H 0.75112 0.64594 0.02231 0.0
H218 H 0.65953 0.64351 0.99438 0.0
H219 H 0.59241 0.59297 0.00952 0.0
H220 H 0.88791 0.12344 0.96114 0.0
H221 H 0.82239 0.18726 0.96143 0.0
H222 H 0.83179 0.17016 0.04868 0.0
H223 H 0.89765 0.10632 0.04873 0.0
H224 H 0.72157 0.17695 0.01246 0.0
H225 H 0.86327 0.3221 0.00048 0.0
H226 H 0.8622 0.272 0.9772 0.0
H227 H 0.88539 0.26421 0.01349 0.0
C228 C 0.87599 0.1331 0.98039 0.0
C229 C 0.8982 0.11002 0.00494 0.0
C230 C 0.83868 0.16961 0.98052 0.0
C231 C 0.8228 0.18351 0.00512 0.0
C232 C 0.84383 0.15991 0.02954 0.0
H233 H 0.64494 0.4503 0.00586 0.0
H234 H 0.70179 0.38307 0.02429 0.0
C235 C 0.88148 0.12359 0.0295 0.0
C236 C 0.78469 0.22321 0.00518 0.0
H237 H 0.77079 0.3421 0.99301 0.0
C238 C 0.73234 0.21323 0.00858 0.0
C239 C 0.79932 0.27046 0.0006 0.0
C240 C 0.85572 0.28315 -0.00205 0.0
C241 C 0.69325 0.24914 0.00597 0.0
C242 C 0.70709 0.29586 -0.00033 0.0
C243 C 0.76024 0.30621 -0.0022 0.0
C244 C 0.66641 0.33345 0.99195 0.0
C245 C 0.63732 0.23665 0.00946 0.0
C246 C 0.62703 0.32739 0.96807 0.0
C247 C 0.59485 0.36559 0.95753 0.0
C248 C 0.60157 0.41055 0.97066 0.0
C249 C 0.63875 0.41589 0.99549 0.0
C250 C 0.67128 0.37765 0.00595 0.0
H251 H 0.63726 0.20475 0.02244 0.0
H252 H 0.61851 0.26679 0.01889 0.0
H253 H 0.61236 0.22841 0.98894 0.0
H254 H 0.62326 0.29389 0.95667 0.0
H255 H 0.56626 0.36057 0.93841 0.0
H256 H 0.60428 0.62904 0.45632 0.0
H257 H 0.66271 0.69745 0.45418 0.0
H258 H 0.69512 0.70914 0.54288 0.0
H259 H 0.6365 0.64101 0.54531 0.0
H260 H 0.66501 0.79647 0.51396 0.0
H261 H 0.8292 0.69964 0.47637 0.0
H262 H 0.76201 0.69045 0.4575 0.0
H263 H 0.78039 0.66937 0.49206 0.0
C264 C 0.62403 0.646 0.47541 0.0
C265 C 0.61584 0.62954 0.50102 0.0
C266 C 0.6575 0.68497 0.4741 0.0
C267 C 0.68341 0.70799 0.49836 0.0
C268 C 0.67541 0.69168 0.52393 0.0
H269 H 0.94174 0.88266 0.5595 0.0
H270 H 0.87934 0.81969 0.53976 0.0
C271 C 0.64204 0.65271 0.52528 0.0
C272 C 0.71836 0.74966 0.49736 0.0
H273 H 0.84136 0.78169 0.48569 0.0
C274 C 0.70324 0.79358 0.5074 0.0
C275 C 0.76801 0.74546 0.48869 0.0
C276 C 0.78633 0.69872 0.47817 0.0
C277 C 0.73765 0.83307 0.51024 0.0
C278 C 0.7882 0.82847 0.50251 0.0
C279 C 0.80229 0.78511 0.49128 0.0
C280 C 0.83003 0.86531 0.51039 0.0
C281 C 0.72111 0.87846 0.52313 0.0
C282 C 0.82411 0.91143 0.49962 0.0
C283 C 0.8599 0.94764 0.51095 0.0
C284 C 0.9016 0.93791 0.53321 0.0
C285 C 0.90941 0.89104 0.54257 0.0
C286 C 0.87402 0.85506 0.53123 0.0
H287 H 0.68347 0.87405 0.53111 0.0
H288 H 0.75319 0.89066 0.54036 0.0
H289 H 0.71469 0.90683 0.5075 0.0
H290 H 0.79067 0.91979 0.48329 0.0
H291 H 0.85333 0.98357 0.5034 0.0
H292 H 0.61149 0.39952 0.46012 0.0
H293 H 0.68104 0.33922 0.46051 0.0
H294 H 0.73038 0.35823 0.54842 0.0
H295 H 0.66079 0.41876 0.54832 0.0
H296 H 0.81602 0.35802 0.5171 0.0
H297 H 0.67949 0.20275 0.49245 0.0
H298 H 0.66236 0.2522 0.46987 0.0
H299 H 0.65872 0.25866 0.50568 0.0
C300 C 0.63702 0.39089 0.47957 0.0
C301 C 0.63044 0.41379 0.50421 0.0
C302 C 0.67654 0.35626 0.47976 0.0
C303 C 0.71022 0.3439 0.50455 0.0
C304 C 0.70444 0.36713 0.52913 0.0
H305 H 0.92278 0.09696 0.5042 0.0
H306 H 0.86336 0.15524 0.52058 0.0
C307 C 0.66466 0.40163 0.529 0.0
C308 C 0.75214 0.30737 0.50447 0.0
H309 H 0.76991 0.19132 0.48676 0.0
C310 C 0.80609 0.32139 0.51085 0.0
C311 C 0.73899 0.25951 0.49676 0.0
C312 C 0.68176 0.24212 0.49104 0.0
C313 C 0.84722 0.28925 0.50818 0.0
C314 C 0.83379 0.24221 0.49872 0.0
C315 C 0.78005 0.22753 0.49386 0.0
C316 C 0.87408 0.20898 0.49122 0.0
C317 C 0.9046 0.3061 0.51501 0.0
C318 C 0.89973 0.22001 0.4694 0.0
C319 C 0.93327 0.18683 0.46002 0.0
C320 C 0.94182 0.14224 0.47225 0.0
C321 C 0.91723 0.1314 0.49459 0.0
C322 C 0.88328 0.16455 0.5039 0.0
H323 H 0.90931 0.33722 0.52946 0.0
H324 H 0.93172 0.2772 0.52429 0.0
H325 H 0.91729 0.3172 0.4958 0.0
H326 H 0.89227 0.25366 0.45896 0.0
H327 H 0.95167 0.19545 0.44269 0.0
H328 H 0.40279 0.40755 0.54835 0.0
H329 H 0.33754 0.34425 0.54965 0.0
H330 H 0.3126 0.32845 0.46124 0.0
H331 H 0.37794 0.39194 0.45962 0.0
H332 H 0.22474 0.34359 0.51851 0.0
H333 H 0.34961 0.19106 0.49432 0.0
H334 H 0.37882 0.24721 0.50792 0.0
H335 H 0.34452 0.24258 0.47275 0.0
C336 C 0.38362 0.39058 0.52916 0.0
C337 C 0.39563 0.4047 0.50388 0.0
C338 C 0.3463 0.35452 0.52995 0.0
C339 C 0.32068 0.33167 0.50556 0.0
C340 C 0.33243 0.34551 0.48027 0.0
H341 H 0.049 0.13764 0.50542 0.0
H342 H 0.10742 0.1959 0.48923 0.0
C343 C 0.36961 0.38183 0.47942 0.0
C344 C 0.28115 0.29377 0.50686 0.0
H345 H 0.26457 0.17306 0.50369 0.0
C346 C 0.23296 0.30633 0.51491 0.0
C347 C 0.29246 0.24535 0.50222 0.0
C348 C 0.34421 0.23034 0.49394 0.0
C349 C 0.19618 0.27145 0.5192 0.0
C350 C 0.20804 0.22293 0.51521 0.0
C351 C 0.25562 0.21041 0.50648 0.0
C352 C 0.17418 0.18475 0.5229 0.0
C353 C 0.14603 0.28644 0.52916 0.0
C354 C 0.19291 0.15877 0.54676 0.0
C355 C 0.15968 0.1257 0.55591 0.0
C356 C 0.10766 0.11768 0.5412 0.0
C357 C 0.0893 0.14267 0.51682 0.0
C358 C 0.12246 0.17608 0.50771 0.0
H359 H 0.14596 0.3251 0.53435 0.0
H360 H 0.11051 0.2785 0.51285 0.0
H361 H 0.14177 0.26603 0.54767 0.0
H362 H 0.23266 0.16519 0.55878 0.0
H363 H 0.17416 0.10685 0.5748 0.0
H364 H 0.36929 0.63053 0.45891 0.0
H365 H 0.30362 0.69386 0.46059 0.0
H366 H 0.32382 0.6796 0.54864 0.0
H367 H 0.38967 0.61634 0.54728 0.0
H368 H 0.21114 0.6861 0.51639 0.0
H369 H 0.34895 0.82946 0.4969 0.0
H370 H 0.34398 0.77883 0.47376 0.0
H371 H 0.37242 0.77173 0.5096 0.0
C372 C 0.35959 0.64066 0.47861 0.0
C373 C 0.38495 0.61868 0.50298 0.0
C374 C 0.32222 0.67688 0.47954 0.0
C375 C 0.30947 0.69152 0.50477 0.0
C376 C 0.33342 0.66878 0.52901 0.0
H377 H 0.13776 0.96079 0.5073 0.0
H378 H 0.19478 0.89373 0.5259 0.0
C379 C 0.37107 0.63278 0.52816 0.0
C380 C 0.27206 0.73147 0.50578 0.0
H381 H 0.2571 0.85 0.49283 0.0
C382 C 0.22124 0.72211 0.51159 0.0
C383 C 0.28594 0.77841 0.50008 0.0
C384 C 0.34094 0.79053 0.49495 0.0
C385 C 0.18268 0.7583 0.51027 0.0
C386 C 0.19545 0.80466 0.5028 0.0
C387 C 0.24734 0.81442 0.49854 0.0
C388 C 0.15441 0.84221 0.49596 0.0
C389 C 0.12836 0.74646 0.51637 0.0
C390 C 0.11203 0.83503 0.47354 0.0
C391 C 0.07976 0.87309 0.46293 0.0
C392 C 0.08943 0.91903 0.4745 0.0
C393 C 0.12936 0.92561 0.49816 0.0
C394 C 0.16196 0.88745 0.5087 0.0
H395 H 0.13057 0.71557 0.53029 0.0
H396 H 0.11109 0.77734 0.52595 0.0
H397 H 0.1008 0.73678 0.49682 0.0
H398 H 0.1061 0.8007 0.46306 0.0
H399 H 0.04903 0.86718 0.44472 0.0
H400 H 0.1076 0.07025 0.16496 0.0
H401 H 0.11367 0.0736 0.21516 0.0
H402 H 0.00969 0.95127 0.20971 0.0
H403 H 0.00336 0.94766 0.15967 0.0
H404 H 0.008 0.07372 0.24174 0.0
H405 H 0.15665 0.92869 0.27101 0.0
H406 H 0.15484 0.96382 0.24054 0.0
H407 H 0.10472 0.91919 0.24104 0.0
C408 C 0.08656 0.0438 0.17456 0.0
C409 C 0.05492 0.00874 0.1585 0.0
C410 C 0.08987 0.04591 0.2031 0.0
C411 C 0.06223 0.01259 0.21591 0.0
C412 C 0.03137 0.97714 0.20004 0.0
H413 H 0.01904 0.93604 0.37661 0.0
H414 H 0.02541 0.94167 0.32806 0.0
C415 C 0.02762 0.97528 0.17154 0.0
C416 C 0.06381 0.01546 0.24582 0.0
H417 H 0.11341 0.95929 0.30584 0.0
C418 C 0.03142 0.04917 0.25593 0.0
C419 C 0.09419 0.98305 0.26394 0.0
C420 C 0.12991 0.94666 0.25378 0.0
C421 C 0.02712 0.05024 0.2838 0.0
C422 C 0.05708 0.01738 0.30198 0.0
C423 C 0.09049 0.98441 0.29186 0.0
C424 C 0.05256 0.01496 0.33131 0.0
C425 C 0.98886 0.08512 0.29324 0.0
C426 C 0.06585 0.05428 0.34922 0.0
C427 C 0.06185 0.05124 0.37694 0.0
C428 C 0.0453 0.00857 0.38721 0.0
C429 C 0.0323 0.96922 0.36925 0.0
C430 C 0.03586 0.97242 0.34155 0.0
H431 H 0.9594 0.09918 0.27565 0.0
H432 H 0.96665 0.06829 0.30785 0.0
H433 H 0.01188 0.11575 0.30399 0.0
H434 H 0.07999 0.08709 0.34187 0.0
H435 H 0.07282 0.08185 0.39046 0.0
H436 H 0.91791 0.05919 0.8487 0.0
H437 H 0.91205 0.06468 0.79881 0.0
H438 H 0.03966 0.96222 0.80268 0.0
H439 H 0.04525 0.95582 0.85236 0.0
H440 H 0.05163 0.0491 0.77327 0.0
H441 H 0.8539 0.96003 0.73935 0.0
H442 H 0.85693 0.00749 0.76453 0.0
H443 H 0.89329 0.95342 0.77357 0.0
C444 C 0.94415 0.03729 0.83886 0.0
C445 C 0.98208 0.00709 0.85448 0.0
C446 C 0.94087 0.04061 0.81042 0.0
C447 C 0.9753 0.0137 0.79719 0.0
C448 C 0.0129 0.98336 0.81263 0.0
H449 H 0.97534 0.93928 0.62888 0.0
H450 H 0.9761 0.943 0.67834 0.0
C451 C 0.01614 0.97991 0.841 0.0
C452 C 0.97305 0.01755 0.76726 0.0
H453 H 0.89619 0.9897 0.7046 0.0
C454 C 0.01758 0.03642 0.75819 0.0
C455 C 0.92862 0.00064 0.74783 0.0
C456 C 0.8805 0.97891 0.75665 0.0
C457 C 0.01905 0.03844 0.73003 0.0
C458 C 0.97469 0.02139 0.71061 0.0
C459 C 0.92996 0.00293 0.71966 0.0
C460 C 0.97506 0.01997 0.6808 0.0
C461 C 0.06854 0.05742 0.72125 0.0
C462 C 0.97424 0.06213 0.66593 0.0
C463 C 0.97342 0.06016 0.63759 0.0
C464 C 0.97323 0.01595 0.62373 0.0
C465 C 0.9746 0.97386 0.63886 0.0
C466 C 0.97526 0.97588 0.66711 0.0
H467 H 0.10266 0.06156 0.7389 0.0
H468 H 0.08087 0.03337 0.70553 0.0
H469 H 0.05958 0.09281 0.71182 0.0
H470 H 0.97343 0.09647 0.67617 0.0
H471 H 0.97171 0.09315 0.62642 0.0
H472 H 0.48789 0.58287 0.65487 0.0
H473 H 0.49428 0.58509 0.70483 0.0
H474 H 0.62219 0.48201 0.71381 0.0
H475 H 0.61622 0.47987 0.66377 0.0
H476 H 0.4766 0.51028 0.73598 0.0
H477 H 0.68167 0.58138 0.77259 0.0
H478 H 0.64757 0.58492 0.73712 0.0
H479 H 0.67944 0.53041 0.74996 0.0
C480 C 0.51761 0.5609 0.66751 0.0
C481 C 0.55143 0.53103 0.65542 0.0
C482 C 0.52137 0.56236 0.69604 0.0
C483 C 0.55906 0.53411 0.71305 0.0
C484 C 0.59363 0.50492 0.70112 0.0
H485 H 0.53838 0.43305 0.87416 0.0
H486 H 0.54045 0.44313 0.82545 0.0
C487 C 0.59008 0.50362 0.67254 0.0
C488 C 0.55921 0.53253 0.743 0.0
H489 H 0.63838 0.54766 0.80663 0.0
C490 C 0.51188 0.51878 0.75142 0.0
C491 C 0.60509 0.54415 0.76311 0.0
C492 C 0.65619 0.5615 0.7553 0.0
C493 C 0.50948 0.51528 0.77939 0.0
C494 C 0.55597 0.52491 0.79947 0.0
C495 C 0.60297 0.53984 0.79114 0.0
C496 C 0.55666 0.51883 0.8292 0.0
C497 C 0.45704 0.50161 0.7872 0.0
C498 C 0.56657 0.55785 0.84758 0.0
C499 C 0.56601 0.55212 0.87557 0.0
C500 C 0.55591 0.50715 0.88563 0.0
C501 C 0.54677 0.46806 0.86714 0.0
C502 C 0.54738 0.47383 0.83924 0.0
H503 H 0.42249 0.50827 0.77021 0.0
H504 H 0.45761 0.46302 0.79173 0.0
H505 H 0.45073 0.52164 0.80587 0.0
H506 H 0.57416 0.59282 0.84021 0.0
H507 H 0.57388 0.58277 0.88935 0.0
H508 H 0.39326 0.57175 0.34739 0.0
H509 H 0.38031 0.57852 0.2972 0.0
H510 H 0.50635 0.47621 0.29547 0.0
H511 H 0.51873 0.4684 0.34545 0.0
H512 H 0.45767 0.60665 0.26609 0.0
H513 H 0.38036 0.42446 0.23729 0.0
H514 H 0.38212 0.45048 0.27111 0.0
H515 H 0.44189 0.42565 0.26219 0.0
C516 C 0.41765 0.55016 0.33626 0.0
C517 C 0.45691 0.51941 0.35036 0.0
C518 C 0.41045 0.55433 0.30765 0.0
C519 C 0.44198 0.52748 0.29266 0.0
C520 C 0.48108 0.49671 0.30665 0.0
H521 H 0.52461 0.55766 0.13402 0.0
H522 H 0.51836 0.56323 0.1827 0.0
C523 C 0.48843 0.49263 0.33522 0.0
C524 C 0.43532 0.53251 0.26248 0.0
H525 H 0.4087 0.46901 0.20198 0.0
C526 C 0.44643 0.57675 0.25199 0.0
C527 C 0.41993 0.4936 0.24417 0.0
C528 C 0.40487 0.44596 0.25418 0.0
C529 C 0.44458 0.58258 0.22368 0.0
C530 C 0.43192 0.54297 0.20556 0.0
C531 C 0.4188 0.49925 0.21596 0.0
C532 C 0.43404 0.54525 0.17591 0.0
C533 C 0.45628 0.63098 0.21343 0.0
C534 C 0.38872 0.53338 0.15595 0.0
C535 C 0.3922 0.53012 0.12814 0.0
C536 C 0.44122 0.53835 0.1198 0.0
C537 C 0.48613 0.55181 0.13975 0.0
C538 C 0.4826 0.55503 0.16757 0.0
H539 H 0.44973 0.65981 0.22811 0.0
H540 H 0.49885 0.63242 0.21121 0.0
H541 H 0.4308 0.63796 0.19301 0.0
H542 H 0.35091 0.52561 0.16199 0.0
H543 H 0.35679 0.52017 0.1132 0.0
loop_
_geom_bond_atom_site_label_1
_geom_bond_atom_site_label_2
_geom_bond_distance
_geom_bond_site_symmetry_2
_ccdc_geom_bond_type
C0 O16 1.251 . S
C0 O18 1.254 1_554 S
N1 C2 1.333 1_455 S
N1 C6 1.307 . S
N1 Zn7 2.020 . S
C2 N1 1.333 1_655 S
C2 C3 1.379 . S
C2 H20 0.952 1_545 S
C3 C2 1.379 . S
C3 C4 1.390 1_655 S
C3 H30 0.949 1_545 S
C4 C3 1.390 1_455 S
C4 C5 1.357 . S
C5 C4 1.357 . S
C5 C6 1.370 . S
C5 H31 0.950 . S
C6 N1 1.307 . S
C6 C5 1.370 . S
C6 H24 0.948 . S
Zn7 N1 2.020 . S
Zn7 O16 2.039 1_445 S
Zn7 O22 2.034 1_455 S
Zn7 O26 2.025 . S
Zn7 O28 2.024 1_545 S
C8 O27 1.246 1_554 S
C8 O28 1.249 . S
N9 C10 1.293 1_455 S
N9 C11 1.349 . S
N9 Zn15 2.017 . S
C10 N9 1.293 1_655 S
C10 C14 1.370 . S
C10 H21 0.948 1_545 S
C11 N9 1.349 . S
C11 C12 1.379 . S
C11 H19 0.952 . S
C12 C11 1.379 . S
C12 C13 1.390 1_455 S
C12 H32 0.949 . S
C13 C12 1.390 1_655 S
C13 C14 1.357 . S
C14 C10 1.370 . S
C14 C13 1.357 . S
C14 H33 0.950 1_545 S
Zn15 N9 2.017 . S
Zn15 O18 2.025 1_445 S
Zn15 O23 2.024 1_455 S
Zn15 O25 2.039 . S
Zn15 O27 2.034 1_545 S
O16 C0 1.251 . S
O16 Zn7 2.039 1_665 S
C17 O22 1.246 . S
C17 O23 1.249 1_554 S
O18 C0 1.254 1_556 S
O18 Zn15 2.025 1_665 S
H19 C11 0.952 . S
H20 C2 0.952 1_565 S
H21 C10 0.948 1_565 S
O22 Zn7 2.034 1_655 S
O22 C17 1.246 . S
O23 Zn15 2.024 1_655 S
O23 C17 1.249 1_556 S
H24 C6 0.948 . S
O25 Zn15 2.039 . S
O25 C29 1.251 1_556 S
O26 Zn7 2.025 . S
O26 C29 1.254 . S
O27 C8 1.246 1_556 S
O27 Zn15 2.034 1_565 S
O28 Zn7 2.024 1_565 S
O28 C8 1.249 . S
C29 O25 1.251 1_554 S
C29 O26 1.254 . S
H30 C3 0.949 1_565 S
H31 C5 0.950 . S
H32 C12 0.949 . S
H33 C14 0.950 1_565 S
C34 O50 1.251 . S
C34 O52 1.254 . S
N35 C36 1.333 . S
N35 C40 1.307 . S
N35 Zn41 2.020 . S
C36 N35 1.333 . S
C36 C37 1.379 . S
C36 H54 0.952 . S
C37 C36 1.379 . S
C37 C38 1.390 . S
C37 H64 0.949 . S
C38 C37 1.390 . S
C38 C39 1.357 . S
C39 C38 1.357 . S
C39 C40 1.370 . S
C39 H65 0.950 . S
C40 N35 1.307 . S
C40 C39 1.370 . S
C40 H58 0.948 . S
Zn41 N35 2.020 . S
Zn41 O50 2.039 . S
Zn41 O56 2.034 . S
Zn41 O60 2.025 . S
Zn41 O62 2.024 . S
C42 O61 1.246 . S
C42 O62 1.249 . S
N43 C44 1.307 . S
N43 C45 1.333 . S
N43 Zn49 2.020 . S
C44 N43 1.307 . S
C44 C48 1.370 . S
C44 H55 0.948 . S
C45 N43 1.333 . S
C45 C46 1.379 . S
C45 H53 0.952 . S
C46 C45 1.379 . S
C46 C47 1.390 . S
C46 H66 0.949 . S
C47 C46 1.390 . S
C47 C48 1.357 . S
C48 C44 1.370 . S
C48 C47 1.357 . S
C48 H67 0.950 . S
Zn49 N43 2.020 . S
Zn49 O52 2.025 . S
Zn49 O57 2.024 . S
Zn49 O59 2.039 . S
Zn49 O61 2.034 . S
O50 C34 1.251 . S
O50 Zn41 2.039 . S
C51 O56 1.246 . S
C51 O57 1.249 . S
O52 C34 1.254 . S
O52 Zn49 2.025 . S
H53 C45 0.952 . S
H54 C36 0.952 . S
H55 C44 0.948 . S
O56 Zn41 2.034 . S
O56 C51 1.246 . S
O57 Zn49 2.024 . S
O57 C51 1.249 . S
H58 C40 0.948 . S
O59 Zn49 2.039 . S
O59 C63 1.251 . S
O60 Zn41 2.025 . S
O60 C63 1.254 . S
O61 C42 1.246 . S
O61 Zn49 2.034 . S
O62 Zn41 2.024 . S
O62 C42 1.249 . S
C63 O59 1.251 . S
C63 O60 1.254 . S
H64 C37 0.949 . S
H65 C39 0.950 . S
H66 C46 0.949 . S
H67 C48 0.950 . S
H68 C73 0.929 . S
H69 C78 0.931 . S
H70 C76 0.930 1_655 S
N71 N72 1.234 . S
N71 C75 1.453 1_655 S
N72 N71 1.234 . S
C73 H68 0.929 . S
C73 C74 1.373 . S
C73 C75 1.368 1_565 S
C74 C73 1.373 . S
C74 C78 1.397 . S
C75 N71 1.453 1_455 S
C75 C73 1.368 1_545 S
C75 C76 1.373 . S
C76 H70 0.930 1_455 S
C76 C75 1.373 . S
C76 C77 1.371 . S
C77 C76 1.371 . S
C77 C78 1.383 1_545 S
C78 H69 0.931 . S
C78 C74 1.397 . S
C78 C77 1.383 1_565 S
H79 C84 0.927 1_565 S
H80 C89 0.931 . S
H81 C87 0.930 . S
N82 N83 1.234 . S
N82 C86 1.453 . S
N83 N82 1.234 . S
C84 H79 0.927 1_545 S
C84 C85 1.366 1_545 S
C84 C86 1.378 1_655 S
C85 C84 1.366 1_565 S
C85 C89 1.397 . S
C86 N82 1.453 . S
C86 C84 1.378 1_455 S
C86 C87 1.373 . S
C87 H81 0.930 . S
C87 C86 1.373 . S
C87 C88 1.371 1_455 S
C88 C87 1.371 1_655 S
C88 C89 1.383 1_545 S
C89 H80 0.931 . S
C89 C85 1.397 . S
C89 C88 1.383 1_565 S
H90 C95 0.929 1_554 S
H91 C100 0.931 . S
H92 C98 0.930 . S
N93 N94 1.234 . S
N93 C97 1.453 . S
N94 N93 1.234 . S
C95 H90 0.929 1_556 S
C95 C96 1.373 . S
C95 C97 1.368 . S
C96 C95 1.373 . S
C96 C100 1.397 . S
C97 N93 1.453 . S
C97 C95 1.368 . S
C97 C98 1.373 . S
C98 H92 0.930 . S
C98 C97 1.373 . S
C98 C99 1.371 . S
C99 C98 1.371 . S
C99 C100 1.383 . S
C100 H91 0.931 . S
C100 C96 1.397 . S
C100 C99 1.383 . S
H101 C106 0.929 . S
H102 C111 0.931 . S
H103 C109 0.930 . S
N104 N105 1.234 . S
N104 C108 1.453 . S
N105 N104 1.234 . S
C106 H101 0.929 . S
C106 C107 1.373 . S
C106 C108 1.368 . S
C107 C106 1.373 . S
C107 C111 1.397 . S
C108 N104 1.453 . S
C108 C106 1.368 . S
C108 C109 1.373 . S
C109 H103 0.930 . S
C109 C108 1.373 . S
C109 C110 1.371 . S
C110 C109 1.371 . S
C110 C111 1.383 . S
C111 H102 0.931 . S
C111 C107 1.397 . S
C111 C110 1.383 . S
H112 C120 0.929 . S
H113 C122 0.930 . S
H114 C124 0.930 . S
H115 C127 0.929 . S
H116 C130 0.930 . S
H117 C132 0.960 . S
H118 C132 0.960 . S
H119 C132 0.960 . S
C120 H112 0.929 . S
C120 C121 1.377 1_556 S
C120 C122 1.384 . S
C121 C120 1.377 1_554 S
C121 C127 1.390 . S
C122 H113 0.930 . S
C122 C120 1.384 . S
C122 C123 1.372 1_556 S
C123 C122 1.372 1_554 S
C123 C124 1.400 . S
C123 C128 1.490 . S
C124 H114 0.930 . S
C124 C123 1.400 . S
C124 C127 1.386 . S
H125 C141 0.930 . S
H126 C142 0.931 . S
C127 H115 0.929 . S
C127 C121 1.390 . S
C127 C124 1.386 . S
C128 C123 1.490 . S
C128 C130 1.395 . S
C128 C131 1.403 . S
H129 C135 0.930 . S
C130 H116 0.930 . S
C130 C128 1.395 . S
C130 C133 1.403 . S
C131 C128 1.403 . S
C131 C132 1.524 . S
C131 C135 1.400 . S
C132 H117 0.960 . S
C132 H118 0.960 . S
C132 H119 0.960 . S
C132 C131 1.524 . S
C133 C130 1.403 . S
C133 C134 1.392 . S
C133 C137 1.495 . S
C134 C133 1.392 . S
C134 C135 1.385 . S
C134 C136 1.478 . S
C135 H129 0.930 . S
C135 C131 1.400 . S
C135 C134 1.385 . S
C136 C134 1.478 . S
C136 C138 1.381 . S
C136 C142 1.383 . S
C137 C133 1.495 . S
C137 H143 0.959 . S
C137 H144 0.961 . S
C137 H145 0.960 . S
C138 C136 1.381 . S
C138 C139 1.394 . S
C138 H146 0.930 1_554 S
C139 C138 1.394 . S
C139 C140 1.383 . S
C139 H147 0.929 1_554 S
C140 C139 1.383 . S
C140 C141 1.377 . S
C141 H125 0.930 . S
C141 C140 1.377 . S
C141 C142 1.379 . S
C142 H126 0.931 . S
C142 C136 1.383 . S
C142 C141 1.379 . S
H143 C137 0.959 . S
H144 C137 0.961 . S
H145 C137 0.960 . S
H146 C138 0.930 1_556 S
H147 C139 0.929 1_556 S
H148 C156 0.929 1_556 S
H149 C158 0.926 1_556 S
H150 C160 0.930 . S
H151 C163 0.929 . S
H152 C166 0.930 . S
H153 C168 0.960 . S
H154 C168 0.960 . S
H155 C168 0.960 . S
C156 H148 0.929 1_554 S
C156 C157 1.377 . S
C156 C158 1.388 . S
C157 C156 1.377 . S
C157 C163 1.390 . S
C158 H149 0.926 1_554 S
C158 C156 1.388 . S
C158 C159 1.372 . S
C159 C158 1.372 . S
C159 C160 1.400 . S
C159 C164 1.490 . S
C160 H150 0.930 . S
C160 C159 1.400 . S
C160 C163 1.386 . S
H161 C177 0.930 . S
H162 C178 0.931 . S
C163 H151 0.929 . S
C163 C157 1.390 . S
C163 C160 1.386 . S
C164 C159 1.490 . S
C164 C166 1.395 1_554 S
C164 C167 1.403 . S
H165 C171 0.930 . S
C166 H152 0.930 . S
C166 C164 1.395 1_556 S
C166 C169 1.403 . S
C167 C164 1.403 . S
C167 C168 1.524 . S
C167 C171 1.400 . S
C168 H153 0.960 . S
C168 H154 0.960 . S
C168 H155 0.960 . S
C168 C167 1.524 . S
C169 C166 1.403 . S
C169 C170 1.392 . S
C169 C173 1.495 . S
C170 C169 1.392 . S
C170 C171 1.385 1_556 S
C170 C172 1.478 . S
C171 H165 0.930 . S
C171 C167 1.400 . S
C171 C170 1.385 1_554 S
C172 C170 1.478 . S
C172 C174 1.381 . S
C172 C178 1.383 . S
C173 C169 1.495 . S
C173 H179 0.959 . S
C173 H180 0.961 . S
C173 H181 0.960 . S
C174 C172 1.381 . S
C174 C175 1.394 . S
C174 H182 0.930 . S
C175 C174 1.394 . S
C175 C176 1.383 . S
C175 H183 0.929 . S
C176 C175 1.383 . S
C176 C177 1.377 . S
C177 H161 0.930 . S
C177 C176 1.377 . S
C177 C178 1.379 . S
C178 H162 0.931 . S
C178 C172 1.383 . S
C178 C177 1.379 . S
H179 C173 0.959 . S
H180 C173 0.961 . S
H181 C173 0.960 . S
H182 C174 0.930 . S
H183 C175 0.929 . S
H184 C192 0.929 . S
H185 C194 0.930 . S
H186 C196 0.930 . S
H187 C199 0.929 . S
H188 C202 0.930 . S
H189 C204 0.960 . S
H190 C204 0.960 . S
H191 C204 0.960 1_554 S
C192 H184 0.929 . S
C192 C193 1.377 1_556 S
C192 C194 1.384 . S
C193 C192 1.377 1_554 S
C193 C199 1.390 . S
C194 H185 0.930 . S
C194 C192 1.384 . S
C194 C195 1.372 1_556 S
C195 C194 1.372 1_554 S
C195 C196 1.400 . S
C195 C200 1.490 . S
C196 H186 0.930 . S
C196 C195 1.400 . S
C196 C199 1.386 . S
H197 C213 0.930 . S
H198 C214 0.931 . S
C199 H187 0.929 . S
C199 C193 1.390 . S
C199 C196 1.386 . S
C200 C195 1.490 . S
C200 C202 1.395 . S
C200 C203 1.403 . S
H201 C207 0.930 . S
C202 H188 0.930 . S
C202 C200 1.395 . S
C202 C205 1.403 . S
C203 C200 1.403 . S
C203 C204 1.524 1_554 S
C203 C207 1.400 . S
C204 H189 0.960 . S
C204 H190 0.960 . S
C204 H191 0.960 1_556 S
C204 C203 1.524 1_556 S
C205 C202 1.403 . S
C205 C206 1.392 . S
C205 C209 1.495 . S
C206 C205 1.392 . S
C206 C207 1.385 . S
C206 C208 1.478 . S
C207 H201 0.930 . S
C207 C203 1.400 . S
C207 C206 1.385 . S
C208 C206 1.478 . S
C208 C210 1.381 . S
C208 C214 1.383 . S
C209 C205 1.495 . S
C209 H215 0.959 . S
C209 H216 0.961 . S
C209 H217 0.960 . S
C210 C208 1.381 . S
C210 C211 1.394 . S
C210 H218 0.930 1_554 S
C211 C210 1.394 . S
C211 C212 1.383 . S
C211 H219 0.929 1_554 S
C212 C211 1.383 . S
C212 C213 1.377 . S
C213 H197 0.930 . S
C213 C212 1.377 . S
C213 C214 1.379 . S
C214 H198 0.931 . S
C214 C208 1.383 . S
C214 C213 1.379 . S
H215 C209 0.959 . S
H216 C209 0.961 . S
H217 C209 0.960 . S
H218 C210 0.930 1_556 S
H219 C211 0.929 1_556 S
H220 C228 0.929 . S
H221 C230 0.930 . S
H222 C232 0.930 . S
H223 C235 0.929 . S
H224 C238 0.930 . S
H225 C240 0.960 . S
H226 C240 0.960 . S
H227 C240 0.960 . S
C228 H220 0.929 . S
C228 C229 1.377 1_556 S
C228 C230 1.384 . S
C229 C228 1.377 1_554 S
C229 C235 1.390 . S
C230 H221 0.930 . S
C230 C228 1.384 . S
C230 C231 1.372 . S
C231 C230 1.372 . S
C231 C232 1.400 1_556 S
C231 C236 1.490 . S
C232 H222 0.930 . S
C232 C231 1.400 1_554 S
C232 C235 1.386 . S
H233 C249 0.930 . S
H234 C250 0.931 1_554 S
C235 H223 0.929 . S
C235 C229 1.390 . S
C235 C232 1.386 . S
C236 C231 1.490 . S
C236 C238 1.395 1_556 S
C236 C239 1.403 . S
H237 C243 0.930 . S
C238 H224 0.930 . S
C238 C236 1.395 1_554 S
C238 C241 1.403 . S
C239 C236 1.403 . S
C239 C240 1.524 . S
C239 C243 1.400 . S
C240 H225 0.960 . S
C240 H226 0.960 . S
C240 H227 0.960 . S
C240 C239 1.524 . S
C241 C238 1.403 . S
C241 C242 1.392 1_554 S
C241 C245 1.495 . S
C242 C241 1.392 1_556 S
C242 C243 1.385 . S
C242 C244 1.478 . S
C243 H237 0.930 . S
C243 C239 1.400 . S
C243 C242 1.385 . S
C244 C242 1.478 . S
C244 C246 1.381 . S
C244 C250 1.383 . S
C245 C241 1.495 . S
C245 H251 0.959 . S
C245 H252 0.961 . S
C245 H253 0.960 . S
C246 C244 1.381 . S
C246 C247 1.394 . S
C246 H254 0.930 . S
C247 C246 1.394 . S
C247 C248 1.383 . S
C247 H255 0.929 . S
C248 C247 1.383 . S
C248 C249 1.377 . S
C249 H233 0.930 . S
C249 C248 1.377 . S
C249 C250 1.379 . S
C250 H234 0.931 1_556 S
C250 C244 1.383 . S
C250 C249 1.379 . S
H251 C245 0.959 . S
H252 C245 0.961 . S
H253 C245 0.960 . S
H254 C246 0.930 . S
H255 C247 0.929 . S
H256 C264 0.929 . S
H257 C266 0.930 . S
H258 C268 0.930 . S
H259 C271 0.929 . S
H260 C274 0.930 . S
H261 C276 0.960 . S
H262 C276 0.960 . S
H263 C276 0.960 . S
C264 H256 0.929 . S
C264 C265 1.377 . S
C264 C266 1.384 . S
C265 C264 1.377 . S
C265 C271 1.390 . S
C266 H257 0.930 . S
C266 C264 1.384 . S
C266 C267 1.372 . S
C267 C266 1.372 . S
C267 C268 1.400 . S
C267 C272 1.490 . S
C268 H258 0.930 . S
C268 C267 1.400 . S
C268 C271 1.386 . S
H269 C285 0.930 . S
H270 C286 0.931 . S
C271 H259 0.929 . S
C271 C265 1.390 . S
C271 C268 1.386 . S
C272 C267 1.490 . S
C272 C274 1.395 . S
C272 C275 1.403 . S
H273 C279 0.930 . S
C274 H260 0.930 . S
C274 C272 1.395 . S
C274 C277 1.403 . S
C275 C272 1.403 . S
C275 C276 1.524 . S
C275 C279 1.400 . S
C276 H261 0.960 . S
C276 H262 0.960 . S
C276 H263 0.960 . S
C276 C275 1.524 . S
C277 C274 1.403 . S
C277 C278 1.392 . S
C277 C281 1.495 . S
C278 C277 1.392 . S
C278 C279 1.385 . S
C278 C280 1.478 . S
C279 H273 0.930 . S
C279 C275 1.400 . S
C279 C278 1.385 . S
C280 C278 1.478 . S
C280 C282 1.381 . S
C280 C286 1.383 . S
C281 C277 1.495 . S
C281 H287 0.959 . S
C281 H288 0.961 . S
C281 H289 0.960 . S
C282 C280 1.381 . S
C282 C283 1.394 . S
C282 H290 0.930 . S
C283 C282 1.394 . S
C283 C284 1.383 . S
C283 H291 0.929 . S
C284 C283 1.383 . S
C284 C285 1.377 . S
C285 H269 0.930 . S
C285 C284 1.377 . S
C285 C286 1.379 . S
C286 H270 0.931 . S
C286 C280 1.383 . S
C286 C285 1.379 . S
H287 C281 0.959 . S
H288 C281 0.961 . S
H289 C281 0.960 . S
H290 C282 0.930 . S
H291 C283 0.929 . S
H292 C300 0.929 . S
H293 C302 0.930 . S
H294 C304 0.930 . S
H295 C307 0.929 . S
H296 C310 0.930 . S
H297 C312 0.960 . S
H298 C312 0.960 . S
H299 C312 0.960 . S
C300 H292 0.929 . S
C300 C301 1.377 . S
C300 C302 1.384 . S
C301 C300 1.377 . S
C301 C307 1.390 . S
C302 H293 0.930 . S
C302 C300 1.384 . S
C302 C303 1.372 . S
C303 C302 1.372 . S
C303 C304 1.400 . S
C303 C308 1.490 . S
C304 H294 0.930 . S
C304 C303 1.400 . S
C304 C307 1.386 . S
H305 C321 0.930 . S
H306 C322 0.931 . S
C307 H295 0.929 . S
C307 C301 1.390 . S
C307 C304 1.386 . S
C308 C303 1.490 . S
C308 C310 1.395 . S
C308 C311 1.403 . S
H309 C315 0.930 . S
C310 H296 0.930 . S
C310 C308 1.395 . S
C310 C313 1.403 . S
C311 C308 1.403 . S
C311 C312 1.524 . S
C311 C315 1.400 . S
C312 H297 0.960 . S
C312 H298 0.960 . S
C312 H299 0.960 . S
C312 C311 1.524 . S
C313 C310 1.403 . S
C313 C314 1.392 . S
C313 C317 1.495 . S
C314 C313 1.392 . S
C314 C315 1.385 . S
C314 C316 1.478 . S
C315 H309 0.930 . S
C315 C311 1.400 . S
C315 C314 1.385 . S
C316 C314 1.478 . S
C316 C318 1.381 . S
C316 C322 1.383 . S
C317 C313 1.495 . S
C317 H323 0.959 . S
C317 H324 0.961 . S
C317 H325 0.960 . S
C318 C316 1.381 . S
C318 C319 1.394 . S
C318 H326 0.930 . S
C319 C318 1.394 . S
C319 C320 1.383 . S
C319 H327 0.929 . S
C320 C319 1.383 . S
C320 C321 1.377 . S
C321 H305 0.930 . S
C321 C320 1.377 . S
C321 C322 1.379 . S
C322 H306 0.931 . S
C322 C316 1.383 . S
C322 C321 1.379 . S
H323 C317 0.959 . S
H324 C317 0.961 . S
H325 C317 0.960 . S
H326 C318 0.930 . S
H327 C319 0.929 . S
H328 C336 0.929 . S
H329 C338 0.930 . S
H330 C340 0.930 . S
H331 C343 0.929 . S
H332 C346 0.930 . S
H333 C348 0.960 . S
H334 C348 0.960 . S
H335 C348 0.960 . S
C336 H328 0.929 . S
C336 C337 1.377 . S
C336 C338 1.384 . S
C337 C336 1.377 . S
C337 C343 1.390 . S
C338 H329 0.930 . S
C338 C336 1.384 . S
C338 C339 1.372 . S
C339 C338 1.372 . S
C339 C340 1.400 . S
C339 C344 1.490 . S
C340 H330 0.930 . S
C340 C339 1.400 . S
C340 C343 1.386 . S
H341 C357 0.930 . S
H342 C358 0.931 . S
C343 H331 0.929 . S
C343 C337 1.390 . S
C343 C340 1.386 . S
C344 C339 1.490 . S
C344 C346 1.395 . S
C344 C347 1.403 . S
H345 C351 0.930 . S
C346 H332 0.930 . S
C346 C344 1.395 . S
C346 C349 1.403 . S
C347 C344 1.403 . S
C347 C348 1.524 . S
C347 C351 1.400 . S
C348 H333 0.960 . S
C348 H334 0.960 . S
C348 H335 0.960 . S
C348 C347 1.524 . S
C349 C346 1.403 . S
C349 C350 1.392 . S
C349 C353 1.495 . S
C350 C349 1.392 . S
C350 C351 1.385 . S
C350 C352 1.478 . S
C351 H345 0.930 . S
C351 C347 1.400 . S
C351 C350 1.385 . S
C352 C350 1.478 . S
C352 C354 1.381 . S
C352 C358 1.383 . S
C353 C349 1.495 . S
C353 H359 0.959 . S
C353 H360 0.961 . S
C353 H361 0.960 . S
C354 C352 1.381 . S
C354 C355 1.394 . S
C354 H362 0.930 . S
C355 C354 1.394 . S
C355 C356 1.383 . S
C355 H363 0.929 . S
C356 C355 1.383 . S
C356 C357 1.377 . S
C357 H341 0.930 . S
C357 C356 1.377 . S
C357 C358 1.379 . S
C358 H342 0.931 . S
C358 C352 1.383 . S
C358 C357 1.379 . S
H359 C353 0.959 . S
H360 C353 0.961 . S
H361 C353 0.960 . S
H362 C354 0.930 . S
H363 C355 0.929 . S
H364 C372 0.929 . S
H365 C374 0.930 . S
H366 C376 0.930 . S
H367 C379 0.929 . S
H368 C382 0.930 . S
H369 C384 0.960 . S
H370 C384 0.960 . S
H371 C384 0.960 . S
C372 H364 0.929 . S
C372 C373 1.377 . S
C372 C374 1.384 . S
C373 C372 1.377 . S
C373 C379 1.390 . S
C374 H365 0.930 . S
C374 C372 1.384 . S
C374 C375 1.372 . S
C375 C374 1.372 . S
C375 C376 1.400 . S
C375 C380 1.490 . S
C376 H366 0.930 . S
C376 C375 1.400 . S
C376 C379 1.386 . S
H377 C393 0.930 . S
H378 C394 0.931 . S
C379 H367 0.929 . S
C379 C373 1.390 . S
C379 C376 1.386 . S
C380 C375 1.490 . S
C380 C382 1.395 . S
C380 C383 1.403 . S
H381 C387 0.930 . S
C382 H368 0.930 . S
C382 C380 1.395 . S
C382 C385 1.403 . S
C383 C380 1.403 . S
C383 C384 1.524 . S
C383 C387 1.400 . S
C384 H369 0.960 . S
C384 H370 0.960 . S
C384 H371 0.960 . S
C384 C383 1.524 . S
C385 C382 1.403 . S
C385 C386 1.392 . S
C385 C389 1.495 . S
C386 C385 1.392 . S
C386 C387 1.385 . S
C386 C388 1.478 . S
C387 H381 0.930 . S
C387 C383 1.400 . S
C387 C386 1.385 . S
C388 C386 1.478 . S
C388 C390 1.381 . S
C388 C394 1.383 . S
C389 C385 1.495 . S
C389 H395 0.959 . S
C389 H396 0.961 . S
C389 H397 0.960 . S
C390 C388 1.381 . S
C390 C391 1.394 . S
C390 H398 0.930 . S
C391 C390 1.394 . S
C391 C392 1.383 . S
C391 H399 0.929 . S
C392 C391 1.383 . S
C392 C393 1.377 . S
C393 H377 0.930 . S
C393 C392 1.377 . S
C393 C394 1.379 . S
C394 H378 0.931 . S
C394 C388 1.383 . S
C394 C393 1.379 . S
H395 C389 0.959 . S
H396 C389 0.961 . S
H397 C389 0.960 . S
H398 C390 0.930 . S
H399 C391 0.929 . S
H400 C408 0.929 . S
H401 C410 0.930 . S
H402 C412 0.930 1_655 S
H403 C415 0.929 1_655 S
H404 C418 0.930 1_655 S
H405 C420 0.960 . S
H406 C420 0.960 . S
H407 C420 0.960 . S
C408 H400 0.929 . S
C408 C409 1.377 . S
C408 C410 1.384 . S
C409 C408 1.377 . S
C409 C415 1.390 1_545 S
C410 H401 0.930 . S
C410 C408 1.384 . S
C410 C411 1.372 . S
C411 C410 1.372 . S
C411 C412 1.400 1_545 S
C411 C416 1.490 . S
C412 H402 0.930 1_455 S
C412 C411 1.400 1_565 S
C412 C415 1.386 . S
H413 C429 0.939 . S
H414 C430 0.931 . S
C415 H403 0.929 1_455 S
C415 C409 1.390 1_565 S
C415 C412 1.386 . S
C416 C411 1.490 . S
C416 C418 1.395 . S
C416 C419 1.403 1_545 S
H417 C423 0.930 . S
C418 H404 0.930 1_455 S
C418 C416 1.395 . S
C418 C421 1.403 . S
C419 C416 1.403 1_565 S
C419 C420 1.524 . S
C419 C423 1.400 . S
C420 H405 0.960 . S
C420 H406 0.960 . S
C420 H407 0.960 . S
C420 C419 1.524 . S
C421 C418 1.403 . S
C421 C422 1.392 . S
C421 C425 1.495 1_455 S
C422 C421 1.392 . S
C422 C423 1.385 1_545 S
C422 C424 1.478 . S
C423 H417 0.930 . S
C423 C419 1.400 . S
C423 C422 1.385 1_565 S
C424 C422 1.478 . S
C424 C426 1.381 . S
C424 C430 1.383 1_445 S
C425 C421 1.495 1_655 S
C425 H431 0.959 . S
C425 H432 0.961 . S
C425 H433 0.960 1_655 S
C426 C424 1.381 . S
C426 C427 1.394 . S
C426 H434 0.930 . S
C427 C426 1.394 . S
C427 C428 1.383 . S
C427 H435 0.929 . S
C428 C427 1.383 . S
C428 C429 1.370 1_445 S
C429 H413 0.939 . S
C429 C428 1.370 1_665 S
C429 C430 1.377 . S
C430 H414 0.931 . S
C430 C424 1.383 1_665 S
C430 C429 1.377 . S
H431 C425 0.959 . S
H432 C425 0.961 . S
H433 C425 0.960 1_455 S
H434 C426 0.930 . S
H435 C427 0.929 . S
H436 C444 0.929 . S
H437 C446 0.930 . S
H438 C448 0.930 . S
H439 C451 0.929 . S
H440 C454 0.930 . S
H441 C456 0.960 . S
H442 C456 0.960 . S
H443 C456 0.960 . S
C444 H436 0.929 . S
C444 C445 1.377 . S
C444 C446 1.384 . S
C445 C444 1.377 . S
C445 C451 1.390 1_645 S
C446 H437 0.930 . S
C446 C444 1.384 . S
C446 C447 1.372 . S
C447 C446 1.372 . S
C447 C448 1.400 1_645 S
C447 C452 1.490 . S
C448 H438 0.930 . S
C448 C447 1.400 1_465 S
C448 C451 1.386 . S
H449 C465 0.930 . S
H450 C466 0.931 . S
C451 H439 0.929 . S
C451 C445 1.390 1_465 S
C451 C448 1.386 . S
C452 C447 1.490 . S
C452 C454 1.395 1_655 S
C452 C455 1.403 1_545 S
H453 C459 0.930 . S
C454 H440 0.930 . S
C454 C452 1.395 1_455 S
C454 C457 1.403 . S
C455 C452 1.403 1_565 S
C455 C456 1.524 . S
C455 C459 1.400 . S
C456 H441 0.960 . S
C456 H442 0.960 . S
C456 H443 0.960 . S
C456 C455 1.524 . S
C457 C454 1.403 . S
C457 C458 1.392 . S
C457 C461 1.495 . S
C458 C457 1.392 . S
C458 C459 1.385 1_445 S
C458 C460 1.478 . S
C459 H453 0.930 . S
C459 C455 1.400 . S
C459 C458 1.385 1_665 S
C460 C458 1.478 . S
C460 C462 1.381 1_455 S
C460 C466 1.383 1_545 S
C461 C457 1.495 . S
C461 H467 0.959 . S
C461 H468 0.961 . S
C461 H469 0.960 . S
C462 C460 1.381 1_655 S
C462 C463 1.394 . S
C462 H470 0.930 . S
C463 C462 1.394 . S
C463 C464 1.388 . S
C463 H471 0.929 . S
C464 C463 1.388 . S
C464 C465 1.374 1_645 S
C465 H449 0.930 . S
C465 C464 1.374 1_465 S
C465 C466 1.379 . S
C466 H450 0.931 . S
C466 C460 1.383 1_565 S
C466 C465 1.379 . S
H467 C461 0.959 . S
H468 C461 0.961 . S
H469 C461 0.960 . S
H470 C462 0.930 . S
H471 C463 0.929 . S
H472 C480 0.929 . S
H473 C482 0.930 . S
H474 C484 0.930 . S
H475 C487 0.929 . S
H476 C490 0.930 . S
H477 C492 0.960 . S
H478 C492 0.960 . S
H479 C492 0.960 . S
C480 H472 0.929 . S
C480 C481 1.377 . S
C480 C482 1.384 . S
C481 C480 1.377 . S
C481 C487 1.390 . S
C482 H473 0.930 . S
C482 C480 1.384 . S
C482 C483 1.372 . S
C483 C482 1.372 . S
C483 C484 1.400 . S
C483 C488 1.490 . S
C484 H474 0.930 . S
C484 C483 1.400 . S
C484 C487 1.386 . S
H485 C501 0.930 . S
H486 C502 0.931 . S
C487 H475 0.929 . S
C487 C481 1.390 . S
C487 C484 1.386 . S
C488 C483 1.490 . S
C488 C490 1.395 . S
C488 C491 1.403 . S
H489 C495 0.930 . S
C490 H476 0.930 . S
C490 C488 1.395 . S
C490 C493 1.403 . S
C491 C488 1.403 . S
C491 C492 1.524 . S
C491 C495 1.400 . S
C492 H477 0.960 . S
C492 H478 0.960 . S
C492 H479 0.960 . S
C492 C491 1.524 . S
C493 C490 1.403 . S
C493 C494 1.392 . S
C493 C497 1.495 . S
C494 C493 1.392 . S
C494 C495 1.385 . S
C494 C496 1.478 . S
C495 H489 0.930 . S
C495 C491 1.400 . S
C495 C494 1.385 . S
C496 C494 1.478 . S
C496 C498 1.381 . S
C496 C502 1.383 . S
C497 C493 1.495 . S
C497 H503 0.959 . S
C497 H504 0.961 . S
C497 H505 0.960 . S
C498 C496 1.381 . S
C498 C499 1.394 . S
C498 H506 0.930 . S
C499 C498 1.394 . S
C499 C500 1.383 . S
C499 H507 0.929 . S
C500 C499 1.383 . S
C500 C501 1.377 . S
C501 H485 0.930 . S
C501 C500 1.377 . S
C501 C502 1.379 . S
C502 H486 0.931 . S
C502 C496 1.383 . S
C502 C501 1.379 . S
H503 C497 0.959 . S
H504 C497 0.961 . S
H505 C497 0.960 . S
H506 C498 0.930 . S
H507 C499 0.929 . S
H508 C516 0.929 . S
H509 C518 0.930 . S
H510 C520 0.930 . S
H511 C523 0.929 . S
H512 C526 0.930 . S
H513 C528 0.960 . S
H514 C528 0.960 . S
H515 C528 0.960 . S
C516 H508 0.929 . S
C516 C517 1.377 . S
C516 C518 1.384 . S
C517 C516 1.377 . S
C517 C523 1.390 . S
C518 H509 0.930 . S
C518 C516 1.384 . S
C518 C519 1.372 . S
C519 C518 1.372 . S
C519 C520 1.400 . S
C519 C524 1.490 . S
C520 H510 0.930 . S
C520 C519 1.400 . S
C520 C523 1.386 . S
H521 C537 0.930 . S
H522 C538 0.931 . S
C523 H511 0.929 . S
C523 C517 1.390 . S
C523 C520 1.386 . S
C524 C519 1.490 . S
C524 C526 1.395 . S
C524 C527 1.403 . S
H525 C531 0.930 . S
C526 H512 0.930 . S
C526 C524 1.395 . S
C526 C529 1.403 . S
C527 C524 1.403 . S
C527 C528 1.524 . S
C527 C531 1.400 . S
C528 H513 0.960 . S
C528 H514 0.960 . S
C528 H515 0.960 . S
C528 C527 1.524 . S
C529 C526 1.403 . S
C529 C530 1.392 . S
C529 C533 1.495 . S
C530 C529 1.392 . S
C530 C531 1.385 . S
C530 C532 1.478 . S
C531 H525 0.930 . S
C531 C527 1.400 . S
C531 C530 1.385 . S
C532 C530 1.478 . S
C532 C534 1.381 . S
C532 C538 1.383 . S
C533 C529 1.495 . S
C533 H539 0.959 . S
C533 H540 0.961 . S
C533 H541 0.960 . S
C534 C532 1.381 . S
C534 C535 1.394 . S
C534 H542 0.930 . S
C535 C534 1.394 . S
C535 C536 1.383 . S
C535 H543 0.929 . S
C536 C535 1.383 . S
C536 C537 1.377 . S
C537 H521 0.930 . S
C537 C536 1.377 . S
C537 C538 1.379 . S
C538 H522 0.931 . S
C538 C532 1.383 . S
C538 C537 1.379 . S
H539 C533 0.959 . S
H540 C533 0.961 . S
H541 C533 0.960 . S
H542 C534 0.930 . S
H543 C535 0.929 . S
C140 C107 1.434 . S
C121 C29 1.461 . S
C157 C8 1.354 . S
C176 N94 1.277 . S
C193 C0 1.361 . S
C212 N105 1.305 . S
C229 C17 1.463 . S
C248 C96 1.452 . S
C265 C63 1.461 . S
C284 C85 1.429 . S
C301 C42 1.350 . S
C320 N72 1.326 . S
C356 N83 1.288 . S
C337 C34 1.360 . S
C392 C74 1.449 . S
C373 C51 1.463 . S
C409 C4 1.513 . S
C428 C77 1.514 . S
C445 C13 1.508 . S
C464 C88 1.506 . S
C500 C99 1.507 . S
C481 C38 1.513 . S
C517 C47 1.507 . S
C536 C110 1.503 . S
