# Generated by pormake.
# Topology ssb, (4,4)-cn, num edge types: 1
# Building blocks:
#     Node 0, Type 0, BuildingBlock: AZAVOO_clean_linker_0, # of connection points: 4
#     Node 1, Type 0, BuildingBlock: AZAVOO_clean_linker_0, # of connection points: 4
#     Node 2, Type 0, BuildingBlock: AZAVOO_clean_linker_0, # of connection points: 4
#     Node 3, Type 0, BuildingBlock: AZAVOO_clean_linker_0, # of connection points: 4
#     Node 4, Type 0, BuildingBlock: AZAVOO_clean_linker_0, # of connection points: 4
#     Node 5, Type 0, BuildingBlock: AZAVOO_clean_linker_0, # of connection points: 4
#     Node 6, Type 0, BuildingBlock: AZAVOO_clean_linker_0, # of connection points: 4
#     Node 7, Type 0, BuildingBlock: AZAVOO_clean_linker_0, # of connection points: 4
#     Node 8, Type 1, BuildingBlock: NAWXER_clean_sbu_0, # of connection points: 4
#     Node 9, Type 1, BuildingBlock: NAWXER_clean_sbu_0, # of connection points: 4
#     Node 10, Type 1, BuildingBlock: NAWXER_clean_sbu_0, # of connection points: 4
#     Node 11, Type 1, BuildingBlock: NAWXER_clean_sbu_0, # of connection points: 4
#     Node 12, Type 1, BuildingBlock: NAWXER_clean_sbu_0, # of connection points: 4
#     Node 13, Type 1, BuildingBlock: NAWXER_clean_sbu_0, # of connection points: 4
#     Node 14, Type 1, BuildingBlock: NAWXER_clean_sbu_0, # of connection points: 4
#     Node 15, Type 1, BuildingBlock: NAWXER_clean_sbu_0, # of connection points: 4
#     Edge 16, Type (0, 1), BuildingBlock: CIFDUS_clean_linker_0, # of connection points: 2
#     Edge 17, Type (0, 1), BuildingBlock: CIFDUS_clean_linker_0, # of connection points: 2
#     Edge 18, Type (0, 1), BuildingBlock: CIFDUS_clean_linker_0, # of connection points: 2
#     Edge 19, Type (0, 1), BuildingBlock: CIFDUS_clean_linker_0, # of connection points: 2
#     Edge 20, Type (0, 1), BuildingBlock: CIFDUS_clean_linker_0, # of connection points: 2
#     Edge 21, Type (0, 1), BuildingBlock: CIFDUS_clean_linker_0, # of connection points: 2
#     Edge 22, Type (0, 1), BuildingBlock: CIFDUS_clean_linker_0, # of connection points: 2
#     Edge 23, Type (0, 1), BuildingBlock: CIFDUS_clean_linker_0, # of connection points: 2
#     Edge 24, Type (0, 1), BuildingBlock: CIFDUS_clean_linker_0, # of connection points: 2
#     Edge 25, Type (0, 1), BuildingBlock: CIFDUS_clean_linker_0, # of connection points: 2
#     Edge 26, Type (0, 1), BuildingBlock: CIFDUS_clean_linker_0, # of connection points: 2
#     Edge 27, Type (0, 1), BuildingBlock: CIFDUS_clean_linker_0, # of connection points: 2
#     Edge 28, Type (0, 1), BuildingBlock: CIFDUS_clean_linker_0, # of connection points: 2
#     Edge 29, Type (0, 1), BuildingBlock: CIFDUS_clean_linker_0, # of connection points: 2
#     Edge 30, Type (0, 1), BuildingBlock: CIFDUS_clean_linker_0, # of connection points: 2
#     Edge 31, Type (0, 1), BuildingBlock: CIFDUS_clean_linker_0, # of connection points: 2
#     Edge 32, Type (0, 1), BuildingBlock: CIFDUS_clean_linker_0, # of connection points: 2
#     Edge 33, Type (0, 1), BuildingBlock: CIFDUS_clean_linker_0, # of connection points: 2
#     Edge 34, Type (0, 1), BuildingBlock: CIFDUS_clean_linker_0, # of connection points: 2
#     Edge 35, Type (0, 1), BuildingBlock: CIFDUS_clean_linker_0, # of connection points: 2
#     Edge 36, Type (0, 1), BuildingBlock: CIFDUS_clean_linker_0, # of connection points: 2
#     Edge 37, Type (0, 1), BuildingBlock: CIFDUS_clean_linker_0, # of connection points: 2
#     Edge 38, Type (0, 1), BuildingBlock: CIFDUS_clean_linker_0, # of connection points: 2
#     Edge 39, Type (0, 1), BuildingBlock: CIFDUS_clean_linker_0, # of connection points: 2
#     Edge 40, Type (0, 1), BuildingBlock: CIFDUS_clean_linker_0, # of connection points: 2
#     Edge 41, Type (0, 1), BuildingBlock: CIFDUS_clean_linker_0, # of connection points: 2
#     Edge 42, Type (0, 1), BuildingBlock: CIFDUS_clean_linker_0, # of connection points: 2
#     Edge 43, Type (0, 1), BuildingBlock: CIFDUS_clean_linker_0, # of connection points: 2
#     Edge 44, Type (0, 1), BuildingBlock: CIFDUS_clean_linker_0, # of connection points: 2
#     Edge 45, Type (0, 1), BuildingBlock: CIFDUS_clean_linker_0, # of connection points: 2
#     Edge 46, Type (0, 1), BuildingBlock: CIFDUS_clean_linker_0, # of connection points: 2
#     Edge 47, Type (0, 1), BuildingBlock: CIFDUS_clean_linker_0, # of connection points: 2
# Relax obj value: 0.060
# Max RMSD: 0.289
# Mean RMSD: 0.113
data_MOF--net-ssb--node1-NAWXER_clean_sbu_0--node2-AZAVOO_clean_linker_0--edge1-CIFDUS_clean_linker_0
_symmetry_space_group_name_H-M    P1
_symmetry_Int_Tables_number       1
_symmetry_cell_setting            triclinic
loop_
_symmetry_equiv_pos_as_xyz
'x, y, z'
_cell_length_a     45.89793
_cell_length_b     47.467261
_cell_length_c     39.81449
_cell_angle_alpha  92.714139
_cell_angle_beta   90.038841
_cell_angle_gamma 90.026133
loop_
_atom_site_label
_atom_site_type_symbol
_atom_site_fract_x
_atom_site_fract_y
_atom_site_fract_z
_atom_type_partial_charge
H0 H 0.10668 0.52454 0.24422 0.0
H1 H 0.34173 0.38729 0.01207 0.0
H2 H 0.22604 0.42071 0.28939 0.0
H3 H 0.19421 0.41836 0.3386 0.0
H4 H 0.14523 0.35112 0.28792 0.0
H5 H 0.17727 0.35362 0.23889 0.0
H6 H 0.2177 0.46476 0.23002 0.0
H7 H 0.17619 0.49656 0.23902 0.0
H8 H 0.11772 0.42918 0.20645 0.0
H9 H 0.15951 0.39768 0.19726 0.0
H10 H 0.26743 0.46093 0.17621 0.0
H11 H 0.25781 0.50121 0.14209 0.0
H12 H 0.18155 0.45903 0.10035 0.0
H13 H 0.19221 0.41809 0.13379 0.0
H14 H 0.31069 0.42587 0.17148 0.0
H15 H 0.34288 0.42822 0.1227 0.0
H16 H 0.28478 0.37251 0.06546 0.0
H17 H 0.25286 0.37031 0.11454 0.0
H18 H 0.32042 0.3923 0.22048 0.0
H19 H 0.36663 0.3701 0.20566 0.0
H20 H 0.32046 0.29878 0.15932 0.0
H21 H 0.27411 0.32238 0.17271 0.0
H22 H 0.2877 0.37945 0.27811 0.0
H23 H 0.297 0.34859 0.32458 0.0
H24 H 0.23286 0.28968 0.2839 0.0
H25 H 0.22387 0.32066 0.23739 0.0
O26 O 0.12277 0.51164 0.24038 0.0
O27 O 0.09363 0.47628 0.22352 0.0
O28 O 0.35828 0.41567 0.06211 0.0
O29 O 0.32926 0.38692 0.03166 0.0
C30 C 0.22279 0.38921 0.23113 0.0
C31 C 0.21682 0.40981 0.20764 0.0
C32 C 0.23575 0.41314 0.18019 0.0
C33 C 0.2605 0.39566 0.17629 0.0
C34 C 0.26682 0.37552 0.20039 0.0
C35 C 0.24794 0.3722 0.22783 0.0
C36 C 0.20392 0.38721 0.2609 0.0
C37 C 0.20845 0.40546 0.28908 0.0
C38 C 0.19021 0.4042 0.31695 0.0
C39 C 0.16728 0.38456 0.31698 0.0
C40 C 0.16293 0.36623 0.28865 0.0
C41 C 0.1811 0.36764 0.26071 0.0
C42 C 0.19155 0.42899 0.21294 0.0
C43 C 0.1959 0.45697 0.22474 0.0
C44 C 0.17216 0.47506 0.22991 0.0
C45 C 0.14362 0.46541 0.22346 0.0
C46 C 0.1394 0.43728 0.21167 0.0
C47 C 0.16319 0.41924 0.20644 0.0
C48 C 0.23076 0.43644 0.15719 0.0
C49 C 0.24901 0.46012 0.15918 0.0
C50 C 0.24316 0.48332 0.14004 0.0
C51 C 0.21866 0.48353 0.11877 0.0
C52 C 0.20067 0.45949 0.11631 0.0
C53 C 0.20668 0.43614 0.13542 0.0
C54 C 0.27952 0.39791 0.14646 0.0
C55 C 0.30496 0.41425 0.14835 0.0
C56 C 0.32329 0.41553 0.12046 0.0
C57 C 0.31642 0.4005 0.09017 0.0
C58 C 0.29074 0.38432 0.08838 0.0
C59 C 0.27244 0.38306 0.11632 0.0
C60 C 0.29408 0.35904 0.19734 0.0
C61 C 0.32035 0.37165 0.20765 0.0
C62 C 0.34679 0.35872 0.19934 0.0
C63 C 0.34746 0.3326 0.18099 0.0
C64 C 0.32085 0.31912 0.17281 0.0
C65 C 0.29434 0.33237 0.18073 0.0
C66 C 0.25519 0.35225 0.25432 0.0
C67 C 0.27597 0.35968 0.27901 0.0
C68 C 0.28122 0.34204 0.30554 0.0
C69 C 0.26558 0.3167 0.30804 0.0
C70 C 0.245 0.30919 0.28295 0.0
C71 C 0.23997 0.32675 0.25627 0.0
C72 C 0.11844 0.48467 0.22907 0.0
C73 C 0.33597 0.40157 0.06055 0.0
H74 H 0.56664 0.19066 0.32926 0.0
H75 H 0.84032 0.25325 0.55356 0.0
H76 H 0.70388 0.26139 0.28827 0.0
H77 H 0.67078 0.27195 0.24294 0.0
H78 H 0.65112 0.35259 0.29339 0.0
H79 H 0.6817 0.33996 0.34047 0.0
H80 H 0.68917 0.22438 0.32866 0.0
H81 H 0.64046 0.20388 0.32236 0.0
H82 H 0.60648 0.26895 0.39127 0.0
H83 H 0.65541 0.2892 0.39734 0.0
H84 H 0.7204 0.20646 0.37413 0.0
H85 H 0.71498 0.16668 0.41055 0.0
H86 H 0.70591 0.22475 0.49664 0.0
H87 H 0.71009 0.2646 0.45981 0.0
H88 H 0.78008 0.22552 0.40295 0.0
H89 H 0.81051 0.21067 0.44937 0.0
H90 H 0.79635 0.29144 0.50166 0.0
H91 H 0.76557 0.30586 0.45528 0.0
H92 H 0.81218 0.27031 0.36765 0.0
H93 H 0.86025 0.28767 0.38345 0.0
H94 H 0.82338 0.36968 0.40994 0.0
H95 H 0.77482 0.35105 0.39671 0.0
H96 H 0.7752 0.2954 0.29561 0.0
H97 H 0.79038 0.32929 0.25442 0.0
H98 H 0.7456 0.39572 0.31153 0.0
H99 H 0.73072 0.36166 0.35272 0.0
O100 O 0.58571 0.19911 0.33214 0.0
O101 O 0.56931 0.23302 0.36766 0.0
O102 O 0.83522 0.21752 0.50675 0.0
O103 O 0.82853 0.25866 0.53475 0.0
C104 C 0.71414 0.2922 0.34611 0.0
C105 C 0.70523 0.27073 0.36729 0.0
C106 C 0.72384 0.2621 0.39306 0.0
C107 C 0.75122 0.27536 0.39812 0.0
C108 C 0.76026 0.29683 0.37691 0.0
C109 C 0.74166 0.30523 0.3509 0.0
C110 C 0.69517 0.29985 0.31769 0.0
C111 C 0.6921 0.28117 0.28964 0.0
C112 C 0.67343 0.28757 0.26338 0.0
C113 C 0.65818 0.31338 0.26394 0.0
C114 C 0.66188 0.3323 0.29202 0.0
C115 C 0.67981 0.32537 0.31884 0.0
C116 C 0.67575 0.2582 0.36351 0.0
C117 C 0.67118 0.23412 0.34241 0.0
C118 C 0.64333 0.22249 0.33884 0.0
C119 C 0.61956 0.23477 0.35633 0.0
C120 C 0.6243 0.25896 0.37746 0.0
C121 C 0.65219 0.27056 0.38099 0.0
C122 C 0.71535 0.23846 0.41424 0.0
C123 C 0.71595 0.21065 0.4006 0.0
C124 C 0.713 0.18795 0.42143 0.0
C125 C 0.71004 0.19273 0.45632 0.0
C126 C 0.70814 0.22058 0.46977 0.0
C127 C 0.71048 0.24329 0.44882 0.0
C128 C 0.7705 0.2667 0.42585 0.0
C129 C 0.7835 0.23993 0.4245 0.0
C130 C 0.80093 0.23154 0.45101 0.0
C131 C 0.80581 0.24986 0.47928 0.0
C132 C 0.793 0.2768 0.48032 0.0
C133 C 0.77548 0.28512 0.45384 0.0
C134 C 0.7899 0.30929 0.38123 0.0
C135 C 0.81452 0.29209 0.37667 0.0
C136 C 0.84216 0.30226 0.38545 0.0
C137 C 0.84604 0.33022 0.3982 0.0
C138 C 0.82137 0.34789 0.40095 0.0
C139 C 0.79356 0.33743 0.39285 0.0
C140 C 0.7518 0.32611 0.32698 0.0
C141 C 0.76885 0.31731 0.29927 0.0
C142 C 0.77751 0.33667 0.27586 0.0
C143 C 0.76906 0.36513 0.27971 0.0
C144 C 0.7521 0.37387 0.3077 0.0
C145 C 0.74371 0.35453 0.33126 0.0
C146 C 0.58999 0.22234 0.35248 0.0
C147 C 0.8241 0.24095 0.50766 0.0
H148 H 0.6581 0.94175 0.28529 0.0
H149 H 0.7208 0.6269 0.14111 0.0
H150 H 0.8027 0.83415 0.32051 0.0
H151 H 0.80778 0.86554 0.37063 0.0
H152 H 0.72076 0.84281 0.40143 0.0
H153 H 0.71719 0.8097 0.35318 0.0
H154 H 0.74968 0.8563 0.27219 0.0
H155 H 0.71783 0.89765 0.27576 0.0
H156 H 0.64448 0.84385 0.29612 0.0
H157 H 0.67664 0.80273 0.2929 0.0
H158 H 0.73071 0.8192 0.20627 0.0
H159 H 0.69216 0.82797 0.16572 0.0
H160 H 0.64227 0.75884 0.20297 0.0
H161 H 0.68115 0.75018 0.2437 0.0
H162 H 0.75874 0.75937 0.18507 0.0
H163 H 0.75171 0.72197 0.14136 0.0
H164 H 0.72314 0.66557 0.21694 0.0
H165 H 0.72987 0.70326 0.26031 0.0
H166 H 0.81087 0.73874 0.22698 0.0
H167 H 0.83482 0.69319 0.21832 0.0
H168 H 0.80129 0.66767 0.31376 0.0
H169 H 0.77604 0.7129 0.32122 0.0
H170 H 0.83403 0.77703 0.28836 0.0
H171 H 0.8746 0.77749 0.32841 0.0
H172 H 0.81366 0.76946 0.41 0.0
H173 H 0.77317 0.76814 0.36969 0.0
O174 O 0.6703 0.92511 0.28398 0.0
O175 O 0.63326 0.8965 0.29408 0.0
O176 O 0.73798 0.67208 0.11989 0.0
O177 O 0.72354 0.64214 0.15785 0.0
C178 C 0.7572 0.7986 0.30442 0.0
C179 C 0.73495 0.80147 0.28022 0.0
C180 C 0.73125 0.78056 0.25409 0.0
C181 C 0.74949 0.75661 0.25241 0.0
C182 C 0.77218 0.75407 0.27617 0.0
C183 C 0.77615 0.77508 0.30204 0.0
C184 C 0.75963 0.81951 0.33327 0.0
C185 C 0.78488 0.83587 0.33831 0.0
C186 C 0.7876 0.85401 0.36684 0.0
C187 C 0.76478 0.85666 0.39041 0.0
C188 C 0.73916 0.84084 0.3845 0.0
C189 C 0.73681 0.82221 0.35654 0.0
C190 C 0.71546 0.82653 0.28222 0.0
C191 C 0.72674 0.85352 0.2775 0.0
C192 C 0.70849 0.87708 0.2795 0.0
C193 C 0.67859 0.87406 0.2862 0.0
C194 C 0.66738 0.84693 0.29088 0.0
C195 C 0.68568 0.8234 0.28895 0.0
C196 C 0.7086 0.78423 0.22805 0.0
C197 C 0.71153 0.80587 0.20557 0.0
C198 C 0.68948 0.81087 0.18254 0.0
C199 C 0.6641 0.79425 0.18147 0.0
C200 C 0.66165 0.77187 0.20318 0.0
C201 C 0.68374 0.76696 0.22643 0.0
C202 C 0.74475 0.73403 0.22582 0.0
C203 C 0.75077 0.73898 0.19208 0.0
C204 C 0.74683 0.71755 0.1672 0.0
C205 C 0.73688 0.69075 0.17567 0.0
C206 C 0.73083 0.68594 0.20954 0.0
C207 C 0.73468 0.70741 0.23437 0.0
C208 C 0.79124 0.72882 0.27433 0.0
C209 C 0.80912 0.72345 0.24624 0.0
C210 C 0.82312 0.69751 0.2416 0.0
C211 C 0.81975 0.67661 0.26523 0.0
C212 C 0.80392 0.68313 0.29484 0.0
C213 C 0.78961 0.70898 0.29924 0.0
C214 C 0.80066 0.77278 0.32615 0.0
C215 C 0.82948 0.77482 0.3148 0.0
C216 C 0.85258 0.77507 0.33764 0.0
C217 C 0.84715 0.77368 0.37222 0.0
C218 C 0.81833 0.77081 0.38346 0.0
C219 C 0.79527 0.77006 0.36054 0.0
C220 C 0.65927 0.89914 0.28834 0.0
C221 C 0.73286 0.66785 0.14937 0.0
H222 H 0.36849 0.06892 0.34263 0.0
H223 H 0.29104 0.80576 0.09345 0.0
H224 H 0.30233 0.93521 0.36431 0.0
H225 H 0.30935 0.97926 0.39597 0.0
H226 H 0.22463 0.00743 0.36301 0.0
H227 H 0.21981 0.9642 0.32795 0.0
H228 H 0.34021 0.95031 0.31226 0.0
H229 H 0.36059 0.99702 0.32639 0.0
H230 H 0.2819 0.03548 0.29021 0.0
H231 H 0.26195 0.98863 0.27583 0.0
H232 H 0.3508 0.91508 0.26442 0.0
H233 H 0.38724 0.92245 0.22068 0.0
H234 H 0.31954 0.95093 0.15504 0.0
H235 H 0.28331 0.94429 0.19932 0.0
H236 H 0.31877 0.85428 0.25025 0.0
H237 H 0.33028 0.82185 0.20241 0.0
H238 H 0.26435 0.86175 0.14328 0.0
H239 H 0.25332 0.8942 0.19122 0.0
H240 H 0.27023 0.83621 0.30087 0.0
H241 H 0.26436 0.79129 0.26909 0.0
H242 H 0.20577 0.83148 0.20095 0.0
H243 H 0.21068 0.87547 0.23383 0.0
H244 H 0.25274 0.89294 0.37297 0.0
H245 H 0.2133 0.878 0.40998 0.0
H246 H 0.15279 0.87977 0.32722 0.0
H247 H 0.19166 0.89622 0.29084 0.0
O248 O 0.36062 0.05071 0.33538 0.0
O249 O 0.3202 0.06948 0.31525 0.0
O250 O 0.32442 0.80221 0.14177 0.0
O251 O 0.28758 0.81892 0.11236 0.0
C252 C 0.26515 0.92891 0.31207 0.0
C253 C 0.2858 0.93791 0.2882 0.0
C254 C 0.29211 0.9208 0.25943 0.0
C255 C 0.2773 0.89509 0.25381 0.0
C256 C 0.25553 0.88672 0.27656 0.0
C257 C 0.24912 0.9037 0.30583 0.0
C258 C 0.26106 0.94696 0.34303 0.0
C259 C 0.28477 0.95049 0.36502 0.0
C260 C 0.28877 0.97604 0.38315 0.0
C261 C 0.26826 0.99795 0.38087 0.0
C262 C 0.24184 0.99191 0.36378 0.0
C263 C 0.23849 0.96676 0.34447 0.0
C264 C 0.29972 0.96612 0.2928 0.0
C265 C 0.32773 0.96886 0.30664 0.0
C266 C 0.33917 0.99557 0.31501 0.0
C267 C 0.3228 0.01999 0.30961 0.0
C268 C 0.29508 0.01712 0.29473 0.0
C269 C 0.28369 0.99041 0.28635 0.0
C270 C 0.3145 0.92936 0.23507 0.0
C271 C 0.34402 0.92382 0.24103 0.0
C272 C 0.36476 0.92802 0.21607 0.0
C273 C 0.35614 0.93728 0.18457 0.0
C274 C 0.32669 0.9438 0.17914 0.0
C275 C 0.30605 0.94006 0.20433 0.0
C276 C 0.28515 0.87642 0.22416 0.0
C277 C 0.30703 0.85608 0.22684 0.0
C278 C 0.31352 0.8376 0.19951 0.0
C279 C 0.29813 0.83914 0.16906 0.0
C280 C 0.27653 0.85991 0.16638 0.0
C281 C 0.27022 0.87851 0.19366 0.0
C282 C 0.24118 0.85914 0.26936 0.0
C283 C 0.25468 0.83477 0.28037 0.0
C284 C 0.25176 0.80925 0.26169 0.0
C285 C 0.23558 0.80798 0.23157 0.0
C286 C 0.21852 0.83146 0.22382 0.0
C287 C 0.22113 0.85679 0.24281 0.0
C288 C 0.22529 0.89547 0.32895 0.0
C289 C 0.23089 0.89061 0.36293 0.0
C290 C 0.20841 0.88207 0.38403 0.0
C291 C 0.18012 0.8777 0.37132 0.0
C292 C 0.17447 0.88288 0.33752 0.0
C293 C 0.19672 0.89204 0.3167 0.0
C294 C 0.33438 0.04825 0.32011 0.0
C295 C 0.3043 0.819 0.14029 0.0
H296 H 0.41862 0.03289 0.74289 0.0
H297 H 0.13819 0.93795 0.57276 0.0
H298 H 0.3497 0.88923 0.74409 0.0
H299 H 0.38676 0.87964 0.78654 0.0
H300 H 0.32553 0.90289 0.86527 0.0
H301 H 0.28816 0.9117 0.82264 0.0
H302 H 0.33946 0.9432 0.6947 0.0
H303 H 0.37671 0.97934 0.70587 0.0
H304 H 0.33684 0.00056 0.80216 0.0
H305 H 0.29954 0.96455 0.79051 0.0
H306 H 0.28527 0.93781 0.64177 0.0
H307 H 0.27858 0.98001 0.60941 0.0
H308 H 0.25539 0.02778 0.70039 0.0
H309 H 0.26093 0.98522 0.7325 0.0
H310 H 0.25533 0.87977 0.64071 0.0
H311 H 0.22137 0.88271 0.59362 0.0
H312 H 0.17366 0.94821 0.64912 0.0
H313 H 0.20755 0.94475 0.69624 0.0
H314 H 0.26981 0.83391 0.69452 0.0
H315 H 0.23803 0.79736 0.66883 0.0
H316 H 0.16283 0.84832 0.69615 0.0
H317 H 0.19464 0.88408 0.72247 0.0
H318 H 0.31184 0.84221 0.76297 0.0
H319 H 0.30631 0.80595 0.80351 0.0
H320 H 0.21727 0.83297 0.82142 0.0
H321 H 0.22463 0.87144 0.78427 0.0
O322 O 0.4036 0.01881 0.73892 0.0
O323 O 0.38228 0.02891 0.78817 0.0
O324 O 0.17704 0.90241 0.56372 0.0
O325 O 0.15191 0.93634 0.59104 0.0
C326 C 0.29374 0.90495 0.75448 0.0
C327 C 0.29444 0.92913 0.73497 0.0
C328 C 0.27416 0.932 0.70859 0.0
C329 C 0.25433 0.90986 0.70061 0.0
C330 C 0.25383 0.88564 0.72006 0.0
C331 C 0.27262 0.88366 0.74792 0.0
C332 C 0.31634 0.9011 0.7804 0.0
C333 C 0.34435 0.89233 0.77051 0.0
C334 C 0.36534 0.8867 0.79464 0.0
C335 C 0.35877 0.89039 0.82897 0.0
C336 C 0.33095 0.89989 0.83887 0.0
C337 C 0.30973 0.90496 0.81469 0.0
C338 C 0.31686 0.95124 0.74181 0.0
C339 C 0.33876 0.95576 0.71813 0.0
C340 C 0.36004 0.97637 0.72461 0.0
C341 C 0.35978 0.99282 0.75494 0.0
C342 C 0.33771 0.98824 0.77858 0.0
C343 C 0.31642 0.96765 0.77204 0.0
C344 C 0.27331 0.95829 0.6895 0.0
C345 C 0.2787 0.95735 0.65474 0.0
C346 C 0.27483 0.98141 0.6363 0.0
C347 C 0.26621 0.00704 0.6524 0.0
C348 C 0.26205 0.00828 0.6874 0.0
C349 C 0.26532 0.98404 0.70574 0.0
C350 C 0.23386 0.91201 0.67189 0.0
C351 C 0.23746 0.89466 0.64268 0.0
C352 C 0.21807 0.89643 0.6158 0.0
C353 C 0.19478 0.91571 0.61761 0.0
C354 C 0.19134 0.93314 0.6469 0.0
C355 C 0.21069 0.93126 0.67383 0.0
C356 C 0.23446 0.86171 0.70997 0.0
C357 C 0.24641 0.83671 0.6957 0.0
C358 C 0.22827 0.81598 0.68089 0.0
C359 C 0.19793 0.81998 0.68026 0.0
C360 C 0.18605 0.84431 0.69658 0.0
C361 C 0.20417 0.86494 0.71139 0.0
C362 C 0.26891 0.86003 0.77105 0.0
C363 C 0.29141 0.84074 0.77631 0.0
C364 C 0.28787 0.81948 0.79914 0.0
C365 C 0.26124 0.81613 0.81625 0.0
C366 C 0.23842 0.83502 0.80983 0.0
C367 C 0.2424 0.8569 0.78801 0.0
C368 C 0.38249 0.01462 0.7618 0.0
C369 C 0.17412 0.91767 0.58911 0.0
H370 H 0.24156 0.60866 0.78514 0.0
H371 H 0.22627 0.31576 0.60926 0.0
H372 H 0.34908 0.50015 0.78056 0.0
H373 H 0.35603 0.53861 0.82296 0.0
H374 H 0.32183 0.48588 0.89912 0.0
H375 H 0.31454 0.44753 0.85642 0.0
H376 H 0.29635 0.50517 0.73021 0.0
H377 H 0.27538 0.55169 0.74405 0.0
H378 H 0.24316 0.52151 0.83786 0.0
H379 H 0.26381 0.475 0.82346 0.0
H380 H 0.28258 0.453 0.67576 0.0
H381 H 0.23821 0.45393 0.64148 0.0
H382 H 0.18596 0.44599 0.73063 0.0
H383 H 0.23041 0.44412 0.76466 0.0
H384 H 0.32541 0.40615 0.67329 0.0
H385 H 0.30818 0.37509 0.62663 0.0
H386 H 0.23445 0.35128 0.68664 0.0
H387 H 0.25228 0.382 0.73336 0.0
H388 H 0.37338 0.39814 0.7186 0.0
H389 H 0.38359 0.35527 0.68413 0.0
H390 H 0.3162 0.31155 0.73665 0.0
H391 H 0.30535 0.35473 0.76985 0.0
H392 H 0.38684 0.44714 0.80132 0.0
H393 H 0.41788 0.43356 0.84756 0.0
H394 H 0.36103 0.36255 0.86331 0.0
H395 H 0.32852 0.37853 0.82031 0.0
O396 O 0.24903 0.58992 0.77976 0.0
O397 O 0.23338 0.57345 0.82791 0.0
O398 O 0.27286 0.33973 0.5983 0.0
O399 O 0.2337 0.32803 0.62742 0.0
C400 C 0.32036 0.45118 0.78854 0.0
C401 C 0.29638 0.45926 0.7686 0.0
C402 C 0.2863 0.44113 0.74207 0.0
C403 C 0.30063 0.41523 0.73494 0.0
C404 C 0.32416 0.40687 0.75527 0.0
C405 C 0.33362 0.42444 0.7828 0.0
C406 C 0.33103 0.47124 0.81543 0.0
C407 C 0.34391 0.49663 0.80658 0.0
C408 C 0.34785 0.51852 0.83073 0.0
C409 C 0.33925 0.51517 0.86413 0.0
C410 C 0.32883 0.48884 0.87355 0.0
C411 C 0.32462 0.46699 0.84926 0.0
C412 C 0.28169 0.48678 0.77588 0.0
C413 C 0.28445 0.50857 0.75353 0.0
C414 C 0.27258 0.53515 0.7616 0.0
C415 C 0.25774 0.54037 0.79217 0.0
C416 C 0.25454 0.51825 0.81418 0.0
C417 C 0.2663 0.49167 0.80601 0.0
C418 C 0.25975 0.44818 0.72266 0.0
C419 C 0.26155 0.452 0.68798 0.0
C420 C 0.23626 0.45249 0.66846 0.0
C421 C 0.20874 0.44983 0.68344 0.0
C422 C 0.2069 0.44825 0.71852 0.0
C423 C 0.23225 0.44724 0.73797 0.0
C424 C 0.29017 0.39618 0.70672 0.0
C425 C 0.30568 0.39402 0.67638 0.0
C426 C 0.29572 0.37636 0.64974 0.0
C427 C 0.26987 0.36077 0.65288 0.0
C428 C 0.25439 0.36302 0.68336 0.0
C429 C 0.2645 0.38054 0.71007 0.0
C430 C 0.33851 0.37956 0.74653 0.0
C431 C 0.36191 0.37889 0.72386 0.0
C432 C 0.36763 0.35438 0.70408 0.0
C433 C 0.35012 0.33032 0.7071 0.0
C434 C 0.3296 0.33 0.7333 0.0
C435 C 0.32366 0.35453 0.75268 0.0
C436 C 0.35522 0.41393 0.80728 0.0
C437 C 0.38107 0.42873 0.81494 0.0
C438 C 0.39904 0.42066 0.84129 0.0
C439 C 0.39204 0.39702 0.85991 0.0
C440 C 0.36692 0.3814 0.85067 0.0
C441 C 0.34851 0.39009 0.82525 0.0
C442 C 0.24592 0.56884 0.80112 0.0
C443 C 0.259 0.34226 0.62449 0.0
H444 H 0.96219 0.38254 0.89185 0.0
H445 H 0.82162 0.19845 0.60615 0.0
H446 H 0.847 0.2826 0.90521 0.0
H447 H 0.84592 0.31619 0.95381 0.0
H448 H 0.77153 0.35745 0.91117 0.0
H449 H 0.77274 0.32374 0.86282 0.0
H450 H 0.8951 0.2837 0.84423 0.0
H451 H 0.92999 0.31957 0.86466 0.0
H452 H 0.8636 0.38363 0.85743 0.0
H453 H 0.8291 0.34765 0.83651 0.0
H454 H 0.88734 0.2469 0.76807 0.0
H455 H 0.9194 0.2612 0.7232 0.0
H456 H 0.87981 0.34412 0.72856 0.0
H457 H 0.84564 0.32834 0.77017 0.0
H458 H 0.84263 0.20136 0.7722 0.0
H459 H 0.84484 0.17582 0.71741 0.0
H460 H 0.81157 0.24943 0.67013 0.0
H461 H 0.80902 0.27456 0.72517 0.0
H462 H 0.80315 0.19587 0.83222 0.0
H463 H 0.78602 0.1518 0.80429 0.0
H464 H 0.73877 0.19946 0.73235 0.0
H465 H 0.75642 0.24342 0.75994 0.0
H466 H 0.78716 0.24778 0.90301 0.0
H467 H 0.74122 0.24627 0.9347 0.0
H468 H 0.6936 0.26707 0.84578 0.0
H469 H 0.73936 0.2703 0.81484 0.0
O470 O 0.94814 0.36875 0.88338 0.0
O471 O 0.91312 0.40081 0.87958 0.0
O472 O 0.83702 0.17046 0.65384 0.0
O473 O 0.82123 0.20813 0.62809 0.0
C474 C 0.81432 0.28436 0.84849 0.0
C475 C 0.83822 0.29093 0.82779 0.0
C476 C 0.84168 0.27675 0.79608 0.0
C477 C 0.82249 0.25466 0.78615 0.0
C478 C 0.7992 0.24758 0.80737 0.0
C479 C 0.79423 0.2632 0.8378 0.0
C480 C 0.81001 0.30087 0.88056 0.0
C481 C 0.83009 0.29851 0.90684 0.0
C482 C 0.82959 0.31781 0.93435 0.0
C483 C 0.80887 0.33961 0.93604 0.0
C484 C 0.78762 0.34075 0.91066 0.0
C485 C 0.78823 0.32153 0.88308 0.0
C486 C 0.85952 0.31303 0.83917 0.0
C487 C 0.8882 0.30552 0.84692 0.0
C488 C 0.90805 0.32604 0.85867 0.0
C489 C 0.89955 0.35445 0.86284 0.0
C490 C 0.87084 0.36193 0.85465 0.0
C491 C 0.85106 0.34141 0.84279 0.0
C492 C 0.86394 0.28646 0.77218 0.0
C493 C 0.88552 0.26808 0.75928 0.0
C494 C 0.90414 0.27649 0.7339 0.0
C495 C 0.90216 0.30383 0.72176 0.0
C496 C 0.88152 0.32264 0.7363 0.0
C497 C 0.86227 0.31386 0.76071 0.0
C498 C 0.82561 0.23977 0.75263 0.0
C499 C 0.83586 0.21192 0.74997 0.0
C500 C 0.8371 0.1974 0.71865 0.0
C501 C 0.8283 0.21057 0.68939 0.0
C502 C 0.81848 0.23865 0.69215 0.0
C503 C 0.8171 0.25309 0.72351 0.0
C504 C 0.7811 0.22269 0.79793 0.0
C505 C 0.78806 0.19679 0.81136 0.0
C506 C 0.77845 0.17172 0.79534 0.0
C507 C 0.76135 0.17246 0.76616 0.0
C508 C 0.75176 0.19848 0.755 0.0
C509 C 0.76174 0.22353 0.77072 0.0
C510 C 0.76667 0.25912 0.85655 0.0
C511 C 0.76682 0.2519 0.89035 0.0
C512 C 0.74068 0.25089 0.90832 0.0
C513 C 0.71408 0.25629 0.89241 0.0
C514 C 0.71387 0.2624 0.85833 0.0
C515 C 0.73996 0.26415 0.84068 0.0
C516 C 0.92058 0.37614 0.87574 0.0
C517 C 0.82918 0.1951 0.65612 0.0
H518 H 0.95197 0.65384 0.82225 0.0
H519 H 0.6772 0.72881 0.01294 0.0
H520 H 0.87162 0.7942 0.82351 0.0
H521 H 0.90468 0.80539 0.77763 0.0
H522 H 0.84128 0.77341 0.70523 0.0
H523 H 0.80818 0.76251 0.75136 0.0
H524 H 0.87041 0.7399 0.8743 0.0
H525 H 0.90935 0.70601 0.8609 0.0
H526 H 0.86301 0.67775 0.77085 0.0
H527 H 0.82409 0.71155 0.78476 0.0
H528 H 0.82664 0.7415 0.9286 0.0
H529 H 0.82565 0.70106 0.96477 0.0
H530 H 0.78234 0.65132 0.88597 0.0
H531 H 0.78368 0.69181 0.84985 0.0
H532 H 0.78258 0.79622 0.93359 0.0
H533 H 0.7526 0.79099 0.98375 0.0
H534 H 0.70763 0.72082 0.93357 0.0
H535 H 0.73748 0.72654 0.88345 0.0
H536 H 0.7833 0.84321 0.87626 0.0
H537 H 0.7456 0.8761 0.89706 0.0
H538 H 0.6801 0.81221 0.87545 0.0
H539 H 0.71769 0.78026 0.85321 0.0
H540 H 0.82562 0.83995 0.82016 0.0
H541 H 0.81812 0.87646 0.77962 0.0
H542 H 0.74301 0.83106 0.73981 0.0
H543 H 0.75041 0.79503 0.78099 0.0
O544 O 0.93629 0.66701 0.82713 0.0
O545 O 0.91163 0.65329 0.78112 0.0
O546 O 0.71288 0.76777 0.01798 0.0
O547 O 0.68927 0.73142 0.99341 0.0
C548 C 0.81711 0.77236 0.81871 0.0
C549 C 0.82099 0.74877 0.83866 0.0
C550 C 0.80248 0.7449 0.86641 0.0
C551 C 0.78058 0.76497 0.87468 0.0
C552 C 0.77635 0.78832 0.85442 0.0
C553 C 0.79432 0.79171 0.82613 0.0
C554 C 0.83758 0.77749 0.79073 0.0
C555 C 0.86497 0.78948 0.79774 0.0
C556 C 0.8837 0.79603 0.77155 0.0
C557 C 0.8755 0.79036 0.73786 0.0
C558 C 0.84823 0.77785 0.73094 0.0
C559 C 0.82933 0.77165 0.75718 0.0
C560 C 0.84448 0.72814 0.8305 0.0
C561 C 0.86868 0.72628 0.85177 0.0
C562 C 0.89091 0.70695 0.84401 0.0
C563 C 0.88931 0.68917 0.81478 0.0
C564 C 0.86494 0.69113 0.79353 0.0
C565 C 0.84272 0.71044 0.80137 0.0
C566 C 0.80533 0.71951 0.88661 0.0
C567 C 0.81745 0.7217 0.91897 0.0
C568 C 0.81684 0.69863 0.93955 0.0
C569 C 0.80376 0.67311 0.92822 0.0
C570 C 0.79231 0.67081 0.89543 0.0
C571 C 0.79328 0.69377 0.87472 0.0
C572 C 0.76225 0.7617 0.90499 0.0
C573 C 0.76618 0.77979 0.93349 0.0
C574 C 0.74907 0.77672 0.9621 0.0
C575 C 0.72774 0.75544 0.96269 0.0
C576 C 0.72387 0.73738 0.93399 0.0
C577 C 0.74094 0.74054 0.90537 0.0
C578 C 0.75324 0.80931 0.86333 0.0
C579 C 0.76069 0.83664 0.87531 0.0
C580 C 0.73914 0.85528 0.88752 0.0
C581 C 0.70974 0.84685 0.88817 0.0
C582 C 0.70236 0.81972 0.87492 0.0
C583 C 0.72386 0.80126 0.86244 0.0
C584 C 0.78861 0.81488 0.80336 0.0
C585 C 0.80744 0.83809 0.80283 0.0
C586 C 0.8032 0.85879 0.77953 0.0
C587 C 0.78008 0.85657 0.75628 0.0
C588 C 0.76082 0.83358 0.75755 0.0
C589 C 0.76506 0.81294 0.78094 0.0
C590 C 0.913 0.66872 0.80655 0.0
C591 C 0.70958 0.75201 0.99307 0.0
C592 C 0.01693 0.33523 0.57808 0.0
C593 C 0.07003 0.35227 0.47622 0.0
O594 O 0.01555 0.36111 0.57043 0.0
Zn595 Zn 0.03291 0.3872 0.53307 0.0
O596 O 0.03199 0.31782 0.56029 0.0
Zn597 Zn 0.04409 0.34387 0.52737 0.0
O598 O 0.07549 0.36973 0.55401 0.0
O599 O 0.05827 0.41309 0.55885 0.0
O600 O 0.0664 0.32906 0.49028 0.0
O601 O 0.05885 0.37503 0.48938 0.0
O602 O 0.99735 0.40128 0.51373 0.0
O603 O 0.0041 0.35561 0.50312 0.0
C604 C 0.07837 0.39552 0.56449 0.0
C605 C 0.98881 0.37798 0.50004 0.0
C606 C 0.77346 0.04726 0.62778 0.0
C607 C 0.77555 0.98028 0.53182 0.0
O608 O 0.79559 0.03932 0.6106 0.0
Zn609 Zn 0.77498 0.0145 0.57937 0.0
O610 O 0.74821 0.03722 0.62022 0.0
Zn611 Zn 0.7292 0.00776 0.58378 0.0
O612 O 0.71429 0.97924 0.61243 0.0
O613 O 0.76234 0.9815 0.61147 0.0
O614 O 0.75011 0.9829 0.54481 0.0
O615 O 0.79646 0.99537 0.5433 0.0
O616 O 0.74838 0.04379 0.55429 0.0
O617 O 0.70233 0.03131 0.55961 0.0
C618 C 0.73887 0.97032 0.62221 0.0
C619 C 0.72131 0.04802 0.54854 0.0
C620 C 0.98366 0.80325 0.58166 0.0
C621 C 0.05728 0.83415 0.50187 0.0
O622 O 0.99101 0.82845 0.57606 0.0
Zn623 Zn 0.01962 0.81913 0.54172 0.0
O624 O 0.996 0.78262 0.56513 0.0
Zn625 Zn 0.02945 0.77663 0.52675 0.0
O626 O 0.05931 0.75597 0.54982 0.0
O627 O 0.05182 0.79926 0.57112 0.0
O628 O 0.0546 0.80725 0.50138 0.0
O629 O 0.04131 0.84928 0.52154 0.0
O630 O 0.99281 0.80093 0.50208 0.0
O631 O 0.00846 0.75753 0.49053 0.0
C632 C 0.06488 0.77548 0.57182 0.0
C633 C 0.99076 0.77737 0.48505 0.0
C634 C 0.31218 0.22218 0.55365 0.0
C635 C 0.31287 0.14377 0.47042 0.0
O636 O 0.33433 0.21132 0.53893 0.0
Zn637 Zn 0.31345 0.18442 0.50989 0.0
O638 O 0.28659 0.21369 0.54505 0.0
Zn639 Zn 0.26698 0.18331 0.51064 0.0
O640 O 0.24643 0.1587 0.54039 0.0
O641 O 0.29433 0.15756 0.54598 0.0
O642 O 0.28724 0.1523 0.47836 0.0
O643 O 0.33509 0.15633 0.483 0.0
O644 O 0.29273 0.2099 0.47315 0.0
O645 O 0.2453 0.20553 0.47985 0.0
C646 C 0.26898 0.1493 0.55471 0.0
C647 C 0.26663 0.21604 0.4644 0.0
C648 C 0.49114 0.92607 0.06023 0.0
C649 C 0.56643 0.9044 0.97607 0.0
O650 O 0.5107 0.94297 0.05074 0.0
Zn651 Zn 0.52958 0.91638 0.0191 0.0
O652 O 0.49082 0.90043 0.04854 0.0
Zn653 Zn 0.51507 0.87334 0.01422 0.0
O654 O 0.53218 0.84569 0.04311 0.0
O655 O 0.54945 0.88868 0.05255 0.0
O656 O 0.55013 0.88335 0.98207 0.0
O657 O 0.56269 0.92788 0.99218 0.0
O658 O 0.49532 0.90776 0.98307 0.0
O659 O 0.48535 0.8621 0.9821 0.0
C660 C 0.54895 0.86264 0.05954 0.0
C661 C 0.48043 0.88654 0.97153 0.0
C662 C 0.24641 0.70919 0.0644 0.0
C663 C 0.2821 0.64669 0.97323 0.0
O664 O 0.27266 0.70301 0.05712 0.0
Zn665 Zn 0.26501 0.67859 0.01816 0.0
O666 O 0.22577 0.69941 0.0455 0.0
Zn667 Zn 0.22138 0.67256 0.00087 0.0
O668 O 0.19833 0.64106 0.01629 0.0
O669 O 0.24194 0.64478 0.03965 0.0
O670 O 0.25448 0.65054 0.97201 0.0
O671 O 0.29708 0.65847 0.9968 0.0
O672 O 0.25153 0.70649 0.98009 0.0
O673 O 0.20516 0.69765 0.96868 0.0
C674 C 0.2172 0.63244 0.03684 0.0
C675 C 0.22826 0.71161 0.96364 0.0
C676 C 0.57468 0.29867 0.00217 0.0
C677 C 0.48581 0.30054 0.0684 0.0
O678 O 0.57017 0.32274 0.01725 0.0
Zn679 Zn 0.53696 0.34271 0.04799 0.0
O680 O 0.5556 0.27936 0.00363 0.0
Zn681 Zn 0.52913 0.29979 0.03349 0.0
O682 O 0.50904 0.3293 0.00168 0.0
O683 O 0.522 0.37202 0.02027 0.0
O684 O 0.49569 0.28009 0.0501 0.0
O685 O 0.49898 0.3244 0.06963 0.0
O686 O 0.55863 0.35369 0.08793 0.0
O687 O 0.5561 0.30746 0.07781 0.0
C688 C 0.50826 0.35609 0.99924 0.0
C689 C 0.56542 0.32885 0.09565 0.0
C690 C 0.8525 0.54392 0.15118 0.0
C691 C 0.8423 0.47028 0.06301 0.0
O692 O 0.87313 0.52946 0.13784 0.0
Zn693 Zn 0.84871 0.50835 0.10574 0.0
O694 O 0.82641 0.54095 0.1401 0.0
Zn695 Zn 0.80305 0.51666 0.10255 0.0
O696 O 0.77533 0.49758 0.12992 0.0
O697 O 0.82094 0.48462 0.13809 0.0
O698 O 0.81828 0.48278 0.07046 0.0
O699 O 0.86586 0.47886 0.07686 0.0
O700 O 0.83724 0.54016 0.07167 0.0
O701 O 0.78944 0.54439 0.07184 0.0
C702 C 0.79369 0.48247 0.14489 0.0
C703 C 0.81412 0.55198 0.061 0.0
H704 H 0.14957 0.33774 0.34755 0.0
H705 H 0.14196 0.42843 0.35257 0.0
H706 H 0.11068 0.42634 0.40203 0.0
H707 H 0.08606 0.39883 0.44396 0.0
H708 H 0.09387 0.30805 0.43931 0.0
H709 H 0.12431 0.31009 0.38922 0.0
C710 C 0.1408 0.35699 0.35932 0.0
C711 C 0.148 0.38318 0.34655 0.0
C712 C 0.12292 0.35563 0.3877 0.0
C713 C 0.13692 0.40804 0.36225 0.0
C714 C 0.11896 0.40685 0.39038 0.0
C715 C 0.09429 0.37945 0.43194 0.0
C716 C 0.0877 0.35334 0.44536 0.0
C717 C 0.11191 0.38077 0.40336 0.0
C718 C 0.09865 0.32845 0.42952 0.0
C719 C 0.11606 0.32958 0.40089 0.0
H720 H 0.6786 0.14381 0.45507 0.0
H721 H 0.74841 0.18827 0.50723 0.0
H722 H 0.75744 0.14753 0.54094 0.0
H723 H 0.7474 0.09857 0.55338 0.0
H724 H 0.67629 0.05404 0.50405 0.0
H725 H 0.66561 0.09552 0.47146 0.0
C726 C 0.69554 0.14454 0.4741 0.0
C727 C 0.71282 0.16892 0.47878 0.0
C728 C 0.70045 0.12106 0.49364 0.0
C729 C 0.73466 0.16982 0.50352 0.0
C730 C 0.73996 0.14649 0.5226 0.0
C731 C 0.72949 0.098 0.53555 0.0
C732 C 0.71288 0.07328 0.53066 0.0
C733 C 0.72329 0.12191 0.51753 0.0
C734 C 0.68938 0.07289 0.50808 0.0
C735 C 0.68337 0.09654 0.48943 0.0
H736 H 0.89846 0.74508 0.37181 0.0
H737 H 0.84992 0.80981 0.42695 0.0
H738 H 0.89047 0.8171 0.46622 0.0
H739 H 0.93969 0.80543 0.48448 0.0
H740 H 0.98786 0.73927 0.43135 0.0
H741 H 0.94754 0.73221 0.39147 0.0
C742 C 0.89688 0.76074 0.39247 0.0
C743 C 0.87135 0.77689 0.3966 0.0
C744 C 0.92018 0.76463 0.4151 0.0
C745 C 0.8693 0.79696 0.42356 0.0
C746 C 0.8925 0.80124 0.44585 0.0
C747 C 0.94145 0.78958 0.46404 0.0
C748 C 0.96679 0.77308 0.46061 0.0
C749 C 0.91805 0.78528 0.44177 0.0
C750 C 0.96857 0.75226 0.43442 0.0
C751 C 0.94555 0.74823 0.41165 0.0
H752 H 0.30584 0.01606 0.43173 0.0
H753 H 0.24934 0.04731 0.3547 0.0
H754 H 0.26092 0.09531 0.37314 0.0
H755 H 0.28441 0.12867 0.41354 0.0
H756 H 0.34475 0.09814 0.48627 0.0
H757 H 0.33584 0.04951 0.46536 0.0
C758 C 0.29638 0.03313 0.4183 0.0
C759 C 0.27583 0.0275 0.39244 0.0
C760 C 0.30436 0.06096 0.42773 0.0
C761 C 0.26396 0.05048 0.37586 0.0
C762 C 0.27104 0.07816 0.38588 0.0
C763 C 0.29631 0.11136 0.42397 0.0
C764 C 0.31522 0.11675 0.45119 0.0
C765 C 0.29086 0.08363 0.41208 0.0
C766 C 0.33045 0.09437 0.46485 0.0
C767 C 0.32495 0.06659 0.4533 0.0
H768 H 0.14372 0.80118 0.69526 0.0
H769 H 0.20917 0.79687 0.61743 0.0
H770 H 0.17401 0.77573 0.57786 0.0
H771 H 0.12251 0.76786 0.56251 0.0
H772 H 0.05635 0.77808 0.63871 0.0
H773 H 0.09363 0.78724 0.68176 0.0
C774 C 0.15038 0.79518 0.66977 0.0
C775 C 0.17886 0.80106 0.6592 0.0
C776 C 0.12971 0.7843 0.64671 0.0
C777 C 0.1874 0.79255 0.62633 0.0
C778 C 0.1672 0.78072 0.60352 0.0
C779 C 0.11652 0.771 0.58878 0.0
C780 C 0.08702 0.77213 0.59777 0.0
C781 C 0.13799 0.77777 0.613 0.0
C782 C 0.07912 0.7769 0.63157 0.0
C783 C 0.10037 0.78239 0.65605 0.0
H784 H 0.30193 0.30874 0.67745 0.0
H785 H 0.39568 0.30371 0.67352 0.0
H786 H 0.39246 0.27021 0.62472 0.0
H787 H 0.36251 0.24256 0.58309 0.0
H788 H 0.26866 0.24898 0.58842 0.0
H789 H 0.27253 0.28141 0.63717 0.0
C790 C 0.32172 0.2999 0.66642 0.0
C791 C 0.34899 0.30827 0.67946 0.0
C792 C 0.31967 0.28108 0.63844 0.0
C793 C 0.37441 0.29739 0.66406 0.0
C794 C 0.37256 0.27833 0.63616 0.0
C795 C 0.34294 0.25124 0.59478 0.0
C796 C 0.31535 0.2433 0.58198 0.0
C797 C 0.34525 0.27013 0.62301 0.0
C798 C 0.2902 0.25468 0.59757 0.0
C799 C 0.29234 0.27327 0.62553 0.0
H800 H 0.95798 0.28712 0.70595 0.0
H801 H 0.88767 0.33955 0.67226 0.0
H802 H 0.91769 0.35479 0.62648 0.0
H803 H 0.96341 0.35292 0.59521 0.0
H804 H 0.03154 0.29629 0.62358 0.0
H805 H 0.00241 0.28225 0.67173 0.0
C806 C 0.94893 0.30152 0.68839 0.0
C807 C 0.92061 0.31246 0.69325 0.0
C808 C 0.96585 0.30932 0.66099 0.0
C809 C 0.90965 0.33143 0.67018 0.0
C810 C 0.92668 0.33996 0.64359 0.0
C811 C 0.97186 0.33755 0.61204 0.0
C812 C 0.99954 0.32583 0.60635 0.0
C813 C 0.95477 0.32909 0.63882 0.0
C814 C 0.01018 0.30553 0.62771 0.0
C815 C 0.99361 0.29761 0.65518 0.0
H816 H 0.72974 0.87982 0.73334 0.0
H817 H 0.82309 0.88032 0.7198 0.0
H818 H 0.81832 0.91508 0.67706 0.0
H819 H 0.78802 0.94545 0.64387 0.0
H820 H 0.69456 0.94485 0.65588 0.0
H821 H 0.699 0.90949 0.69842 0.0
C822 C 0.74901 0.88735 0.72082 0.0
C823 C 0.77676 0.87763 0.73006 0.0
C824 C 0.74611 0.90719 0.6959 0.0
C825 C 0.80152 0.88784 0.71376 0.0
C826 C 0.79881 0.90757 0.68909 0.0
C827 C 0.76854 0.93759 0.65566 0.0
C828 C 0.74099 0.94788 0.64673 0.0
C829 C 0.77126 0.91744 0.68008 0.0
C830 C 0.71603 0.93729 0.66224 0.0
C831 C 0.71857 0.91713 0.68664 0.0
H832 H 0.89148 0.7571 0.6835 0.0
H833 H 0.90416 0.84 0.73019 0.0
H834 H 0.93777 0.85189 0.68532 0.0
H835 H 0.96449 0.83829 0.63337 0.0
H836 H 0.95319 0.75457 0.58814 0.0
H837 H 0.91804 0.74356 0.63157 0.0
C838 C 0.90144 0.77784 0.68365 0.0
C839 C 0.89537 0.79764 0.7101 0.0
C840 C 0.92104 0.78438 0.65801 0.0
C841 C 0.90871 0.82431 0.71024 0.0
C842 C 0.92784 0.83115 0.68453 0.0
C843 C 0.95418 0.81771 0.63289 0.0
C844 C 0.96147 0.79732 0.60748 0.0
C845 C 0.93431 0.8113 0.65837 0.0
C846 C 0.94809 0.77065 0.60745 0.0
C847 C 0.92794 0.76431 0.63228 0.0
H848 H 0.2889 0.05949 0.66366 0.0
H849 H 0.23242 0.0109 0.59659 0.0
H850 H 0.22524 0.05193 0.56249 0.0
H851 H 0.2375 0.10096 0.54981 0.0
H852 H 0.29759 0.14792 0.61402 0.0
H853 H 0.30051 0.10862 0.65153 0.0
C854 C 0.2748 0.05806 0.64176 0.0
C855 C 0.26123 0.03229 0.63257 0.0
C856 C 0.27133 0.08154 0.62188 0.0
C857 C 0.24328 0.03051 0.60393 0.0
C858 C 0.23909 0.05397 0.58453 0.0
C859 C 0.25067 0.10271 0.57245 0.0
C860 C 0.26695 0.12734 0.57957 0.0
C861 C 0.25326 0.07953 0.59303 0.0
C862 C 0.28466 0.12918 0.60835 0.0
C863 C 0.28646 0.10669 0.62965 0.0
H864 H 0.20185 0.4116 0.63195 0.0
H865 H 0.15646 0.47758 0.68847 0.0
H866 H 0.1122 0.46791 0.6552 0.0
H867 H 0.08596 0.43911 0.61123 0.0
H868 H 0.13145 0.37115 0.55797 0.0
H869 H 0.1761 0.38325 0.58849 0.0
C870 C 0.18237 0.42413 0.6366 0.0
C871 C 0.18241 0.44547 0.66225 0.0
C872 C 0.15698 0.41796 0.61803 0.0
C873 C 0.15687 0.46111 0.66869 0.0
C874 C 0.13162 0.45556 0.64971 0.0
C875 C 0.10574 0.42717 0.60618 0.0
C876 C 0.10539 0.40428 0.58239 0.0
C877 C 0.13133 0.43383 0.62448 0.0
C878 C 0.13109 0.38875 0.57632 0.0
C879 C 0.15667 0.39568 0.5937 0.0
H880 H 0.80447 0.14005 0.74054 0.0
H881 H 0.71105 0.14911 0.74114 0.0
H882 H 0.70661 0.10976 0.69924 0.0
H883 H 0.72962 0.0749 0.66058 0.0
H884 H 0.82341 0.06788 0.65741 0.0
H885 H 0.8275 0.10459 0.70237 0.0
C886 C 0.78315 0.13296 0.7319 0.0
C887 C 0.75804 0.14693 0.74406 0.0
C888 C 0.78093 0.11106 0.70723 0.0
C889 C 0.73054 0.13831 0.7322 0.0
C890 C 0.72807 0.11599 0.70824 0.0
C891 C 0.75098 0.08119 0.66988 0.0
C892 C 0.77619 0.06867 0.6557 0.0
C893 C 0.75316 0.10251 0.69527 0.0
C894 C 0.80369 0.07725 0.66785 0.0
C895 C 0.80604 0.09818 0.69357 0.0
H896 H 0.85895 0.36801 0.45062 0.0
H897 H 0.89986 0.315 0.37294 0.0
H898 H 0.94744 0.32549 0.39731 0.0
H899 H 0.97737 0.34716 0.44283 0.0
H900 H 0.93753 0.40379 0.51706 0.0
H901 H 0.88965 0.39509 0.49122 0.0
C902 C 0.87819 0.35923 0.43835 0.0
C903 C 0.87539 0.34008 0.4103 0.0
C904 C 0.90578 0.366 0.45193 0.0
C905 C 0.90094 0.32895 0.39521 0.0
C906 C 0.92832 0.33513 0.40896 0.0
C907 C 0.9582 0.35783 0.45304 0.0
C908 C 0.96079 0.37585 0.48191 0.0
C909 C 0.93094 0.3531 0.43774 0.0
C910 C 0.93598 0.38988 0.49476 0.0
C911 C 0.90863 0.38478 0.4801 0.0
H912 H 0.79286 0.90769 0.39725 0.0
H913 H 0.74304 0.84843 0.4532 0.0
H914 H 0.74247 0.88141 0.50173 0.0
H915 H 0.75374 0.92795 0.52746 0.0
H916 H 0.80731 0.98569 0.47448 0.0
H917 H 0.80958 0.95199 0.4258 0.0
C918 C 0.78237 0.90165 0.4202 0.0
C919 C 0.76734 0.87578 0.42103 0.0
C920 C 0.78283 0.92042 0.44857 0.0
C921 C 0.75384 0.86856 0.45119 0.0
C922 C 0.75373 0.8873 0.47919 0.0
C923 C 0.7661 0.93299 0.5053 0.0
C924 C 0.78002 0.95921 0.50412 0.0
C925 C 0.76765 0.91345 0.47791 0.0
C926 C 0.79642 0.96551 0.47572 0.0
C927 C 0.79758 0.94634 0.44793 0.0
H928 H 0.15629 0.90155 0.42864 0.0
H929 H 0.15175 0.82812 0.36096 0.0
H930 H 0.11341 0.80812 0.39528 0.0
H931 H 0.08141 0.81131 0.44468 0.0
H932 H 0.08333 0.88591 0.51083 0.0
H933 H 0.12217 0.90578 0.47701 0.0
C934 C 0.14684 0.88117 0.42159 0.0
C935 C 0.15684 0.86617 0.39253 0.0
C936 C 0.12427 0.8701 0.44107 0.0
C937 C 0.14431 0.83996 0.38327 0.0
C938 C 0.12243 0.82854 0.40287 0.0
C939 C 0.09028 0.83196 0.45166 0.0
C940 C 0.07956 0.84704 0.48033 0.0
C941 C 0.11225 0.8434 0.43183 0.0
C942 C 0.09109 0.8739 0.48881 0.0
C943 C 0.1134 0.88522 0.46955 0.0
H944 H 0.22483 0.29059 0.34562 0.0
H945 H 0.31764 0.30175 0.3354 0.0
H946 H 0.32611 0.27211 0.38297 0.0
H947 H 0.30727 0.24266 0.42721 0.0
H948 H 0.2144 0.23149 0.43756 0.0
H949 H 0.20594 0.2613 0.39019 0.0
C950 C 0.24692 0.28633 0.35362 0.0
C951 C 0.27057 0.29836 0.33686 0.0
C952 C 0.25165 0.26927 0.38109 0.0
C953 C 0.29903 0.293 0.34799 0.0
C954 C 0.30391 0.27594 0.37513 0.0
C955 C 0.28515 0.24674 0.41918 0.0
C956 C 0.26153 0.23474 0.43603 0.0
C957 C 0.28039 0.26396 0.39188 0.0
C958 C 0.23303 0.24039 0.42517 0.0
C959 C 0.22815 0.25744 0.398 0.0
H960 H 0.65324 0.85374 0.86875 0.0
H961 H 0.71504 0.88113 0.94532 0.0
H962 H 0.67649 0.9061 0.97651 0.0
H963 H 0.62396 0.91463 0.98607 0.0
H964 H 0.56196 0.88232 0.91266 0.0
H965 H 0.60158 0.86488 0.87631 0.0
C966 C 0.65835 0.8652 0.89223 0.0
C967 C 0.68705 0.8652 0.90472 0.0
C968 C 0.63587 0.87862 0.91075 0.0
C969 C 0.69328 0.88085 0.93481 0.0
C970 C 0.67114 0.89498 0.9529 0.0
C971 C 0.61932 0.90451 0.96164 0.0
C972 C 0.59027 0.89996 0.95173 0.0
C973 C 0.64221 0.89333 0.94162 0.0
C974 C 0.58427 0.8862 0.92051 0.0
C975 C 0.60688 0.87607 0.89989 0.0
H976 H 0.22546 0.8158 0.87191 0.0
H977 H 0.28783 0.76394 0.81583 0.0
H978 H 0.28373 0.72798 0.8569 0.0
H979 H 0.26283 0.71099 0.90918 0.0
H980 H 0.19589 0.75946 0.9609 0.0
H981 H 0.20062 0.79659 0.92032 0.0
C982 C 0.23777 0.79648 0.86794 0.0
C983 C 0.25735 0.79323 0.84063 0.0
C984 C 0.23434 0.77507 0.89087 0.0
C985 C 0.27333 0.7679 0.83693 0.0
C986 C 0.27075 0.74698 0.86027 0.0
C987 C 0.24917 0.72965 0.91128 0.0
C988 C 0.22918 0.73278 0.93786 0.0
C989 C 0.25149 0.75041 0.88743 0.0
C990 C 0.21134 0.75675 0.94044 0.0
C991 C 0.21416 0.77794 0.91737 0.0
H992 H 0.45109 0.40461 0.87041 0.0
H993 H 0.37382 0.37193 0.91716 0.0
H994 H 0.40298 0.356 0.96332 0.0
H995 H 0.45057 0.35028 0.99045 0.0
H996 H 0.52676 0.38803 0.9484 0.0
H997 H 0.49774 0.40382 0.90094 0.0
C998 C 0.44036 0.39449 0.89085 0.0
C999 C 0.41013 0.38895 0.88933 0.0
C1000 C 0.45711 0.38638 0.91842 0.0
C1001 C 0.39708 0.37556 0.91641 0.0
C1002 C 0.41371 0.36669 0.94328 0.0
C1003 C 0.46064 0.36221 0.97097 0.0
C1004 C 0.49059 0.36797 0.97255 0.0
C1005 C 0.44374 0.37173 0.94439 0.0
C1006 C 0.50362 0.38354 0.94753 0.0
C1007 C 0.48707 0.39241 0.92042 0.0
H1008 H 0.85747 0.36701 0.95877 0.0
H1009 H 0.76426 0.36354 0.97247 0.0
H1010 H 0.76671 0.40375 0.01295 0.0
H1011 H 0.79494 0.44037 0.04302 0.0
H1012 H 0.8883 0.44384 0.0307 0.0
H1013 H 0.88623 0.4027 0.99117 0.0
C1014 C 0.83777 0.37475 0.97109 0.0
C1015 C 0.8107 0.36235 0.96268 0.0
C1016 C 0.83935 0.39787 0.9943 0.0
C1017 C 0.78529 0.37292 0.97832 0.0
C1018 C 0.78669 0.39584 0.00148 0.0
C1019 C 0.8149 0.43223 0.03166 0.0
C1020 C 0.84172 0.4453 0.03949 0.0
C1021 C 0.81354 0.40864 0.00931 0.0
C1022 C 0.86738 0.43419 0.02496 0.0
C1023 C 0.86619 0.41071 0.0024 0.0
H1024 H 0.66321 0.29679 0.19727 0.0
H1025 H 0.60802 0.34558 0.2661 0.0
H1026 H 0.57598 0.3566 0.21984 0.0
H1027 H 0.56225 0.35088 0.15978 0.0
H1028 H 0.61363 0.29648 0.09348 0.0
H1029 H 0.64799 0.28842 0.13902 0.0
C1030 C 0.64393 0.30937 0.2026 0.0
C1031 C 0.6384 0.32027 0.23554 0.0
C1032 C 0.62468 0.3145 0.1762 0.0
C1033 C 0.61353 0.33729 0.24113 0.0
C1034 C 0.59487 0.3434 0.21466 0.0
C1035 C 0.58105 0.33736 0.15548 0.0
C1036 C 0.58566 0.32437 0.12351 0.0
C1037 C 0.60013 0.332 0.18212 0.0
C1038 C 0.60976 0.30657 0.11806 0.0
C1039 C 0.62938 0.30203 0.14402 0.0
H1040 H 0.86915 0.65765 0.23278 0.0
H1041 H 0.78875 0.62907 0.27621 0.0
H1042 H 0.79565 0.58263 0.24942 0.0
H1043 H 0.81872 0.55357 0.20496 0.0
H1044 H 0.89714 0.58204 0.15781 0.0
H1045 H 0.89699 0.62497 0.19473 0.0
C1046 C 0.85344 0.64108 0.23682 0.0
C1047 C 0.82825 0.64707 0.25607 0.0
C1048 C 0.85694 0.61452 0.22022 0.0
C1049 C 0.80843 0.62518 0.26175 0.0
C1050 C 0.81215 0.5986 0.24607 0.0
C1051 C 0.8362 0.56888 0.20345 0.0
C1052 C 0.85763 0.56512 0.17858 0.0
C1053 C 0.83547 0.59356 0.22399 0.0
C1054 C 0.88043 0.58468 0.1769 0.0
C1055 C 0.88015 0.60928 0.19775 0.0
H1056 H 0.40999 0.96173 0.18275 0.0
H1057 H 0.34932 0.91082 0.12348 0.0
H1058 H 0.38536 0.90447 0.07874 0.0
H1059 H 0.43515 0.91016 0.05846 0.0
H1060 H 0.49602 0.96223 0.11573 0.0
H1061 H 0.45886 0.97169 0.15922 0.0
C1062 C 0.40469 0.94955 0.15982 0.0
C1063 C 0.37714 0.93669 0.15635 0.0
C1064 C 0.42553 0.94611 0.13403 0.0
C1065 C 0.37031 0.9211 0.12652 0.0
C1066 C 0.39094 0.91731 0.10105 0.0
C1067 C 0.44015 0.92382 0.08035 0.0
C1068 C 0.46824 0.93524 0.08425 0.0
C1069 C 0.41875 0.92925 0.10484 0.0
C1070 C 0.47446 0.95326 0.11231 0.0
C1071 C 0.45329 0.9585 0.13719 0.0
H1072 H 0.22258 0.53825 0.14123 0.0
H1073 H 0.19946 0.48613 0.05355 0.0
H1074 H 0.19256 0.52828 0.02132 0.0
H1075 H 0.19822 0.57996 0.01658 0.0
H1076 H 0.22564 0.63076 0.10349 0.0
H1077 H 0.2257 0.58928 0.1375 0.0
C1078 C 0.21612 0.53605 0.11503 0.0
C1079 C 0.21199 0.50902 0.09974 0.0
C1080 C 0.21294 0.56025 0.0965 0.0
C1081 C 0.20277 0.50666 0.06601 0.0
C1082 C 0.19897 0.53077 0.0475 0.0
C1083 C 0.20347 0.58189 0.04316 0.0
C1084 C 0.21168 0.60826 0.05773 0.0
C1085 C 0.20459 0.55767 0.06227 0.0
C1086 C 0.21911 0.6106 0.09194 0.0
C1087 C 0.21931 0.58691 0.1113 0.0
H1088 H 0.35758 0.3047 0.12043 0.0
H1089 H 0.40125 0.33512 0.21129 0.0
H1090 H 0.44835 0.32608 0.18481 0.0
H1091 H 0.47694 0.31484 0.13368 0.0
H1092 H 0.4338 0.28099 0.04452 0.0
H1093 H 0.3865 0.28532 0.07291 0.0
C1094 C 0.37727 0.30855 0.13497 0.0
C1095 C 0.37568 0.32135 0.16761 0.0
C1096 C 0.40438 0.30284 0.11981 0.0
C1097 C 0.40169 0.32622 0.18575 0.0
C1098 C 0.4287 0.32091 0.17071 0.0
C1099 C 0.45716 0.30788 0.12083 0.0
C1100 C 0.45853 0.29787 0.08716 0.0
C1101 C 0.43026 0.31017 0.13739 0.0
C1102 C 0.43305 0.28866 0.07057 0.0
C1103 C 0.40607 0.29132 0.08671 0.0
H1104 H 0.73541 0.40449 0.25062 0.0
H1105 H 0.82297 0.37156 0.25259 0.0
H1106 H 0.83814 0.4049 0.21111 0.0
H1107 H 0.82669 0.44331 0.17454 0.0
H1108 H 0.7391 0.47622 0.17158 0.0
H1109 H 0.72382 0.44305 0.21335 0.0
C1110 C 0.75785 0.40479 0.24211 0.0
C1111 C 0.77806 0.38561 0.25466 0.0
C1112 C 0.7664 0.42396 0.21812 0.0
C1113 C 0.80696 0.38593 0.24307 0.0
C1114 C 0.81567 0.40506 0.21947 0.0
C1115 C 0.80423 0.44333 0.18302 0.0
C1116 C 0.7841 0.46232 0.16998 0.0
C1117 C 0.79559 0.42414 0.20683 0.0
C1118 C 0.75506 0.46184 0.18116 0.0
C1119 C 0.74631 0.44289 0.20508 0.0
H1120 H 0.64166 0.84581 0.17302 0.0
H1121 H 0.63197 0.75862 0.13957 0.0
H1122 H 0.59376 0.77161 0.10001 0.0
H1123 H 0.56518 0.80857 0.07267 0.0
H1124 H 0.57676 0.89566 0.10664 0.0
H1125 H 0.61216 0.88187 0.14808 0.0
C1126 C 0.63127 0.82965 0.15695 0.0
C1127 C 0.63986 0.8014 0.1588 0.0
C1128 C 0.60969 0.83728 0.13428 0.0
C1129 C 0.6257 0.78056 0.13852 0.0
C1130 C 0.60397 0.78799 0.11584 0.0
C1131 C 0.57528 0.82443 0.08938 0.0
C1132 C 0.56849 0.85311 0.08629 0.0
C1133 C 0.59604 0.81639 0.11318 0.0
C1134 C 0.58176 0.87345 0.10815 0.0
C1135 C 0.60204 0.86562 0.13194 0.0
H1136 H 0.19666 0.78437 0.18614 0.0
H1137 H 0.28676 0.78051 0.21712 0.0
H1138 H 0.29779 0.74918 0.16889 0.0
H1139 H 0.28308 0.72597 0.11525 0.0
H1140 H 0.19355 0.73118 0.08282 0.0
H1141 H 0.18149 0.75961 0.13355 0.0
C1142 C 0.21871 0.77665 0.18244 0.0
C1143 C 0.24074 0.785 0.20545 0.0
C1144 C 0.22526 0.75934 0.15387 0.0
C1145 C 0.26907 0.77418 0.20043 0.0
C1146 C 0.2756 0.75653 0.17244 0.0
C1147 C 0.26093 0.73334 0.11924 0.0
C1148 C 0.23935 0.72665 0.0951 0.0
C1149 C 0.25405 0.74955 0.14857 0.0
C1150 C 0.21067 0.73613 0.10089 0.0
C1151 C 0.2037 0.75233 0.12997 0.0
H1152 H 0.37983 0.92672 0.87711 0.0
H1153 H 0.38784 0.84124 0.83689 0.0
H1154 H 0.42574 0.83187 0.87836 0.0
H1155 H 0.45716 0.84851 0.92558 0.0
H1156 H 0.45095 0.93514 0.96295 0.0
H1157 H 0.41187 0.94361 0.92318 0.0
C1158 C 0.38983 0.90604 0.87769 0.0
C1159 C 0.38113 0.88462 0.85437 0.0
C1160 C 0.41197 0.90108 0.90096 0.0
C1161 C 0.39437 0.85798 0.85477 0.0
C1162 C 0.41595 0.85265 0.87842 0.0
C1163 C 0.44715 0.86918 0.92501 0.0
C1164 C 0.45689 0.89114 0.94713 0.0
C1165 C 0.42503 0.8741 0.90157 0.0
C1166 C 0.44396 0.91792 0.94598 0.0
C1167 C 0.42155 0.92279 0.92334 0.0
H1168 H 0.31145 0.56322 0.85188 0.0
H1169 H 0.35942 0.52223 0.9288 0.0
H1170 H 0.34913 0.5619 0.96887 0.0
H1171 H 0.3224 0.60613 0.98304 0.0
H1172 H 0.27076 0.64397 0.90673 0.0
H1173 H 0.28699 0.60796 0.86502 0.0
C1174 C 0.32024 0.56333 0.87721 0.0
C1175 C 0.33642 0.54015 0.88743 0.0
C1176 C 0.31345 0.5856 0.90012 0.0
C1177 C 0.347 0.54002 0.92051 0.0
C1178 C 0.34109 0.56262 0.94333 0.0
C1179 C 0.31533 0.60673 0.95708 0.0
C1180 C 0.29562 0.62758 0.94771 0.0
C1181 C 0.32381 0.58526 0.93359 0.0
C1182 C 0.28598 0.62801 0.91429 0.0
C1183 C 0.29516 0.60743 0.89054 0.0
H1184 H 0.70249 0.29242 0.94455 0.0
H1185 H 0.66451 0.22543 0.88226 0.0
H1186 H 0.61778 0.23183 0.91159 0.0
H1187 H 0.5874 0.25795 0.95371 0.0
H1188 H 0.62525 0.32725 0.01287 0.0
H1189 H 0.67228 0.31863 0.986 0.0
C1190 C 0.68402 0.27901 0.93784 0.0
C1191 C 0.68677 0.25827 0.9118 0.0
C1192 C 0.65717 0.28346 0.95398 0.0
C1193 C 0.66271 0.24137 0.90255 0.0
C1194 C 0.63607 0.24511 0.91919 0.0
C1195 C 0.60598 0.27109 0.9607 0.0
C1196 C 0.60282 0.29325 0.98512 0.0
C1197 C 0.63296 0.26633 0.94471 0.0
C1198 C 0.62703 0.31022 0.99387 0.0
C1199 C 0.65399 0.30524 0.97866 0.0
H1200 H 0.84607 0.651 0.96683 0.0
H1201 H 0.75525 0.64213 0.94076 0.0
H1202 H 0.75013 0.604 0.97961 0.0
H1203 H 0.77144 0.57352 0.02172 0.0
H1204 H 0.86279 0.58167 0.04617 0.0
H1205 H 0.86766 0.61968 0.00749 0.0
C1206 C 0.82517 0.64072 0.96975 0.0
C1207 C 0.80108 0.64936 0.95102 0.0
C1208 C 0.82245 0.61869 0.99192 0.0
C1209 C 0.77418 0.63566 0.9547 0.0
C1210 C 0.77121 0.61396 0.97704 0.0
C1211 C 0.79239 0.58363 0.01858 0.0
C1212 C 0.81666 0.57477 0.03693 0.0
C1213 C 0.79518 0.60534 0.99588 0.0
C1214 C 0.84373 0.58797 0.03232 0.0
C1215 C 0.84656 0.60978 0.01023 0.0
loop_
_geom_bond_atom_site_label_1
_geom_bond_atom_site_label_2
_geom_bond_distance
_geom_bond_site_symmetry_2
_ccdc_geom_bond_type
H0 O26 0.856 . S
H1 O29 0.854 . S
H2 C37 0.930 . S
H3 C38 0.930 . S
H4 C40 0.930 . S
H5 C41 0.930 . S
H6 C43 0.931 . S
H7 C44 0.930 . S
H8 C46 0.930 . S
H9 C47 0.929 . S
H10 C49 0.930 . S
H11 C50 0.931 . S
H12 C52 0.930 . S
H13 C53 0.929 . S
H14 C55 0.931 . S
H15 C56 0.930 . S
H16 C58 0.930 . S
H17 C59 0.932 . S
H18 C61 0.930 . S
H19 C62 0.929 . S
H20 C64 0.931 . S
H21 C65 0.930 . S
H22 C67 0.929 . S
H23 C68 0.931 . S
H24 C70 0.930 . S
H25 C71 0.929 . S
O26 H0 0.856 . S
O26 C72 1.300 . S
O27 C72 1.209 . S
O28 C73 1.199 . S
O29 H1 0.854 . S
O29 C73 1.297 . S
C30 C31 1.404 . S
C30 C35 1.397 . S
C30 C36 1.492 . S
C31 C30 1.404 . S
C31 C32 1.396 . S
C31 C42 1.492 . S
C32 C31 1.396 . S
C32 C33 1.397 . S
C32 C48 1.509 . S
C33 C32 1.397 . S
C33 C34 1.412 . S
C33 C54 1.485 . S
C34 C33 1.412 . S
C34 C35 1.388 . S
C34 C60 1.490 . S
C35 C30 1.397 . S
C35 C34 1.388 . S
C35 C66 1.519 . S
C36 C30 1.492 . S
C36 C37 1.363 . S
C36 C41 1.390 . S
C37 H2 0.930 . S
C37 C36 1.363 . S
C37 C38 1.372 . S
C38 H3 0.930 . S
C38 C37 1.372 . S
C38 C39 1.383 . S
C39 C38 1.383 . S
C39 C40 1.395 . S
C40 H4 0.930 . S
C40 C39 1.395 . S
C40 C41 1.362 . S
C41 H5 0.930 . S
C41 C36 1.390 . S
C41 C40 1.362 . S
C42 C31 1.492 . S
C42 C43 1.377 . S
C42 C47 1.397 . S
C43 H6 0.931 . S
C43 C42 1.377 . S
C43 C44 1.376 . S
C44 H7 0.930 . S
C44 C43 1.376 . S
C44 C45 1.376 . S
C45 C44 1.376 . S
C45 C46 1.378 . S
C45 C72 1.486 . S
C46 H8 0.930 . S
C46 C45 1.378 . S
C46 C47 1.376 . S
C47 H9 0.929 . S
C47 C42 1.397 . S
C47 C46 1.376 . S
C48 C32 1.509 . S
C48 C49 1.391 . S
C48 C53 1.386 . S
C49 H10 0.930 . S
C49 C48 1.391 . S
C49 C50 1.375 . S
C50 H11 0.931 . S
C50 C49 1.375 . S
C50 C51 1.375 . S
C51 C50 1.375 . S
C51 C52 1.361 . S
C52 H12 0.930 . S
C52 C51 1.361 . S
C52 C53 1.399 . S
C53 H13 0.929 . S
C53 C48 1.386 . S
C53 C52 1.399 . S
C54 C33 1.485 . S
C54 C55 1.394 . S
C54 C59 1.360 . S
C55 H14 0.931 . S
C55 C54 1.394 . S
C55 C56 1.372 . S
C56 H15 0.930 . S
C56 C55 1.372 . S
C56 C57 1.397 . S
C57 C56 1.397 . S
C57 C58 1.390 . S
C57 C73 1.476 . S
C58 H16 0.930 . S
C58 C57 1.390 . S
C58 C59 1.366 . S
C59 H17 0.932 . S
C59 C54 1.360 . S
C59 C58 1.366 . S
C60 C34 1.490 . S
C60 C61 1.380 . S
C60 C65 1.386 . S
C61 H18 0.930 . S
C61 C60 1.380 . S
C61 C62 1.381 . S
C62 H19 0.929 . S
C62 C61 1.381 . S
C62 C63 1.371 . S
C63 C62 1.371 . S
C63 C64 1.380 . S
C64 H20 0.931 . S
C64 C63 1.380 . S
C64 C65 1.387 . S
C65 H21 0.930 . S
C65 C60 1.386 . S
C65 C64 1.387 . S
C66 C35 1.519 . S
C66 C67 1.377 . S
C66 C71 1.361 . S
C67 H22 0.929 . S
C67 C66 1.377 . S
C67 C68 1.386 . S
C68 H23 0.931 . S
C68 C67 1.386 . S
C68 C69 1.363 . S
C69 C68 1.363 . S
C69 C70 1.385 . S
C70 H24 0.930 . S
C70 C69 1.385 . S
C70 C71 1.396 . S
C71 H25 0.929 . S
C71 C66 1.361 . S
C71 C70 1.396 . S
C72 O26 1.300 . S
C72 O27 1.209 . S
C72 C45 1.486 . S
C73 O28 1.199 . S
C73 O29 1.297 . S
C73 C57 1.476 . S
H74 O100 0.856 . S
H75 O103 0.854 . S
H76 C111 0.930 . S
H77 C112 0.930 . S
H78 C114 0.930 . S
H79 C115 0.930 . S
H80 C117 0.931 . S
H81 C118 0.930 . S
H82 C120 0.930 . S
H83 C121 0.929 . S
H84 C123 0.930 . S
H85 C124 0.931 . S
H86 C126 0.930 . S
H87 C127 0.929 . S
H88 C129 0.931 . S
H89 C130 0.930 . S
H90 C132 0.930 . S
H91 C133 0.932 . S
H92 C135 0.930 . S
H93 C136 0.929 . S
H94 C138 0.931 . S
H95 C139 0.930 . S
H96 C141 0.929 . S
H97 C142 0.931 . S
H98 C144 0.930 . S
H99 C145 0.929 . S
O100 H74 0.856 . S
O100 C146 1.300 . S
O101 C146 1.209 . S
O102 C147 1.199 . S
O103 H75 0.854 . S
O103 C147 1.297 . S
C104 C105 1.404 . S
C104 C109 1.397 . S
C104 C110 1.492 . S
C105 C104 1.404 . S
C105 C106 1.396 . S
C105 C116 1.492 . S
C106 C105 1.396 . S
C106 C107 1.397 . S
C106 C122 1.509 . S
C107 C106 1.397 . S
C107 C108 1.412 . S
C107 C128 1.485 . S
C108 C107 1.412 . S
C108 C109 1.388 . S
C108 C134 1.490 . S
C109 C104 1.397 . S
C109 C108 1.388 . S
C109 C140 1.519 . S
C110 C104 1.492 . S
C110 C111 1.363 . S
C110 C115 1.390 . S
C111 H76 0.930 . S
C111 C110 1.363 . S
C111 C112 1.372 . S
C112 H77 0.930 . S
C112 C111 1.372 . S
C112 C113 1.383 . S
C113 C112 1.383 . S
C113 C114 1.395 . S
C114 H78 0.930 . S
C114 C113 1.395 . S
C114 C115 1.362 . S
C115 H79 0.930 . S
C115 C110 1.390 . S
C115 C114 1.362 . S
C116 C105 1.492 . S
C116 C117 1.377 . S
C116 C121 1.397 . S
C117 H80 0.931 . S
C117 C116 1.377 . S
C117 C118 1.376 . S
C118 H81 0.930 . S
C118 C117 1.376 . S
C118 C119 1.376 . S
C119 C118 1.376 . S
C119 C120 1.378 . S
C119 C146 1.486 . S
C120 H82 0.930 . S
C120 C119 1.378 . S
C120 C121 1.376 . S
C121 H83 0.929 . S
C121 C116 1.397 . S
C121 C120 1.376 . S
C122 C106 1.509 . S
C122 C123 1.391 . S
C122 C127 1.386 . S
C123 H84 0.930 . S
C123 C122 1.391 . S
C123 C124 1.375 . S
C124 H85 0.931 . S
C124 C123 1.375 . S
C124 C125 1.375 . S
C125 C124 1.375 . S
C125 C126 1.361 . S
C126 H86 0.930 . S
C126 C125 1.361 . S
C126 C127 1.399 . S
C127 H87 0.929 . S
C127 C122 1.386 . S
C127 C126 1.399 . S
C128 C107 1.485 . S
C128 C129 1.394 . S
C128 C133 1.360 . S
C129 H88 0.931 . S
C129 C128 1.394 . S
C129 C130 1.372 . S
C130 H89 0.930 . S
C130 C129 1.372 . S
C130 C131 1.397 . S
C131 C130 1.397 . S
C131 C132 1.390 . S
C131 C147 1.476 . S
C132 H90 0.930 . S
C132 C131 1.390 . S
C132 C133 1.366 . S
C133 H91 0.932 . S
C133 C128 1.360 . S
C133 C132 1.366 . S
C134 C108 1.490 . S
C134 C135 1.380 . S
C134 C139 1.386 . S
C135 H92 0.930 . S
C135 C134 1.380 . S
C135 C136 1.381 . S
C136 H93 0.929 . S
C136 C135 1.381 . S
C136 C137 1.371 . S
C137 C136 1.371 . S
C137 C138 1.380 . S
C138 H94 0.931 . S
C138 C137 1.380 . S
C138 C139 1.387 . S
C139 H95 0.930 . S
C139 C134 1.386 . S
C139 C138 1.387 . S
C140 C109 1.519 . S
C140 C141 1.377 . S
C140 C145 1.361 . S
C141 H96 0.929 . S
C141 C140 1.377 . S
C141 C142 1.386 . S
C142 H97 0.931 . S
C142 C141 1.386 . S
C142 C143 1.363 . S
C143 C142 1.363 . S
C143 C144 1.385 . S
C144 H98 0.930 . S
C144 C143 1.385 . S
C144 C145 1.396 . S
C145 H99 0.929 . S
C145 C140 1.361 . S
C145 C144 1.396 . S
C146 O100 1.300 . S
C146 O101 1.209 . S
C146 C119 1.486 . S
C147 O102 1.199 . S
C147 O103 1.297 . S
C147 C131 1.476 . S
H148 O174 0.856 . S
H149 O177 0.854 . S
H150 C185 0.930 . S
H151 C186 0.930 . S
H152 C188 0.930 . S
H153 C189 0.930 . S
H154 C191 0.931 . S
H155 C192 0.930 . S
H156 C194 0.930 . S
H157 C195 0.929 . S
H158 C197 0.930 . S
H159 C198 0.931 . S
H160 C200 0.930 . S
H161 C201 0.929 . S
H162 C203 0.931 . S
H163 C204 0.930 . S
H164 C206 0.930 . S
H165 C207 0.932 . S
H166 C209 0.930 . S
H167 C210 0.929 . S
H168 C212 0.931 . S
H169 C213 0.930 . S
H170 C215 0.929 . S
H171 C216 0.931 . S
H172 C218 0.930 . S
H173 C219 0.929 . S
O174 H148 0.856 . S
O174 C220 1.300 . S
O175 C220 1.209 . S
O176 C221 1.199 . S
O177 H149 0.854 . S
O177 C221 1.297 . S
C178 C179 1.404 . S
C178 C183 1.397 . S
C178 C184 1.492 . S
C179 C178 1.404 . S
C179 C180 1.396 . S
C179 C190 1.492 . S
C180 C179 1.396 . S
C180 C181 1.397 . S
C180 C196 1.509 . S
C181 C180 1.397 . S
C181 C182 1.412 . S
C181 C202 1.485 . S
C182 C181 1.412 . S
C182 C183 1.388 . S
C182 C208 1.490 . S
C183 C178 1.397 . S
C183 C182 1.388 . S
C183 C214 1.519 . S
C184 C178 1.492 . S
C184 C185 1.363 . S
C184 C189 1.390 . S
C185 H150 0.930 . S
C185 C184 1.363 . S
C185 C186 1.372 . S
C186 H151 0.930 . S
C186 C185 1.372 . S
C186 C187 1.383 . S
C187 C186 1.383 . S
C187 C188 1.395 . S
C188 H152 0.930 . S
C188 C187 1.395 . S
C188 C189 1.362 . S
C189 H153 0.930 . S
C189 C184 1.390 . S
C189 C188 1.362 . S
C190 C179 1.492 . S
C190 C191 1.377 . S
C190 C195 1.397 . S
C191 H154 0.931 . S
C191 C190 1.377 . S
C191 C192 1.376 . S
C192 H155 0.930 . S
C192 C191 1.376 . S
C192 C193 1.376 . S
C193 C192 1.376 . S
C193 C194 1.378 . S
C193 C220 1.486 . S
C194 H156 0.930 . S
C194 C193 1.378 . S
C194 C195 1.376 . S
C195 H157 0.929 . S
C195 C190 1.397 . S
C195 C194 1.376 . S
C196 C180 1.509 . S
C196 C197 1.391 . S
C196 C201 1.386 . S
C197 H158 0.930 . S
C197 C196 1.391 . S
C197 C198 1.375 . S
C198 H159 0.931 . S
C198 C197 1.375 . S
C198 C199 1.375 . S
C199 C198 1.375 . S
C199 C200 1.361 . S
C200 H160 0.930 . S
C200 C199 1.361 . S
C200 C201 1.399 . S
C201 H161 0.929 . S
C201 C196 1.386 . S
C201 C200 1.399 . S
C202 C181 1.485 . S
C202 C203 1.394 . S
C202 C207 1.360 . S
C203 H162 0.931 . S
C203 C202 1.394 . S
C203 C204 1.372 . S
C204 H163 0.930 . S
C204 C203 1.372 . S
C204 C205 1.397 . S
C205 C204 1.397 . S
C205 C206 1.390 . S
C205 C221 1.476 . S
C206 H164 0.930 . S
C206 C205 1.390 . S
C206 C207 1.366 . S
C207 H165 0.932 . S
C207 C202 1.360 . S
C207 C206 1.366 . S
C208 C182 1.490 . S
C208 C209 1.380 . S
C208 C213 1.386 . S
C209 H166 0.930 . S
C209 C208 1.380 . S
C209 C210 1.381 . S
C210 H167 0.929 . S
C210 C209 1.381 . S
C210 C211 1.371 . S
C211 C210 1.371 . S
C211 C212 1.380 . S
C212 H168 0.931 . S
C212 C211 1.380 . S
C212 C213 1.387 . S
C213 H169 0.930 . S
C213 C208 1.386 . S
C213 C212 1.387 . S
C214 C183 1.519 . S
C214 C215 1.377 . S
C214 C219 1.361 . S
C215 H170 0.929 . S
C215 C214 1.377 . S
C215 C216 1.386 . S
C216 H171 0.931 . S
C216 C215 1.386 . S
C216 C217 1.363 . S
C217 C216 1.363 . S
C217 C218 1.385 . S
C218 H172 0.930 . S
C218 C217 1.385 . S
C218 C219 1.396 . S
C219 H173 0.929 . S
C219 C214 1.361 . S
C219 C218 1.396 . S
C220 O174 1.300 . S
C220 O175 1.209 . S
C220 C193 1.486 . S
C221 O176 1.199 . S
C221 O177 1.297 . S
C221 C205 1.476 . S
H222 O248 0.856 . S
H223 O251 0.854 . S
H224 C259 0.930 . S
H225 C260 0.930 . S
H226 C262 0.904 1_545 S
H227 C263 0.930 . S
H228 C265 0.931 . S
H229 C266 0.930 . S
H230 C268 0.930 . S
H231 C269 0.929 . S
H232 C271 0.930 . S
H233 C272 0.931 . S
H234 C274 0.930 . S
H235 C275 0.929 . S
H236 C277 0.931 . S
H237 C278 0.930 . S
H238 C280 0.930 . S
H239 C281 0.932 . S
H240 C283 0.930 . S
H241 C284 0.929 . S
H242 C286 0.931 . S
H243 C287 0.930 . S
H244 C289 0.929 . S
H245 C290 0.931 . S
H246 C292 0.930 . S
H247 C293 0.929 . S
O248 H222 0.856 . S
O248 C294 1.300 . S
O249 C294 1.209 . S
O250 C295 1.199 . S
O251 H223 0.854 . S
O251 C295 1.297 . S
C252 C253 1.404 . S
C252 C257 1.397 . S
C252 C258 1.492 . S
C253 C252 1.404 . S
C253 C254 1.396 . S
C253 C264 1.492 . S
C254 C253 1.396 . S
C254 C255 1.397 . S
C254 C270 1.509 . S
C255 C254 1.397 . S
C255 C256 1.412 . S
C255 C276 1.485 . S
C256 C255 1.412 . S
C256 C257 1.388 . S
C256 C282 1.490 . S
C257 C252 1.397 . S
C257 C256 1.388 . S
C257 C288 1.519 . S
C258 C252 1.492 . S
C258 C259 1.363 . S
C258 C263 1.390 . S
C259 H224 0.930 . S
C259 C258 1.363 . S
C259 C260 1.372 . S
C260 H225 0.930 . S
C260 C259 1.372 . S
C260 C261 1.383 . S
C261 C260 1.383 . S
C261 C262 1.395 . S
C262 H226 0.904 1_565 S
C262 C261 1.395 . S
C262 C263 1.362 . S
C263 H227 0.930 . S
C263 C258 1.390 . S
C263 C262 1.362 . S
C264 C253 1.492 . S
C264 C265 1.377 . S
C264 C269 1.397 1_565 S
C265 H228 0.931 . S
C265 C264 1.377 . S
C265 C266 1.376 . S
C266 H229 0.930 . S
C266 C265 1.376 . S
C266 C267 1.376 1_565 S
C267 C266 1.376 1_545 S
C267 C268 1.378 . S
C267 C294 1.486 . S
C268 H230 0.930 . S
C268 C267 1.378 . S
C268 C269 1.376 . S
C269 H231 0.929 . S
C269 C264 1.397 1_545 S
C269 C268 1.376 . S
C270 C254 1.509 . S
C270 C271 1.391 . S
C270 C275 1.386 . S
C271 H232 0.930 . S
C271 C270 1.391 . S
C271 C272 1.375 . S
C272 H233 0.931 . S
C272 C271 1.375 . S
C272 C273 1.375 . S
C273 C272 1.375 . S
C273 C274 1.361 . S
C274 H234 0.930 . S
C274 C273 1.361 . S
C274 C275 1.399 . S
C275 H235 0.929 . S
C275 C270 1.386 . S
C275 C274 1.399 . S
C276 C255 1.485 . S
C276 C277 1.394 . S
C276 C281 1.360 . S
C277 H236 0.931 . S
C277 C276 1.394 . S
C277 C278 1.372 . S
C278 H237 0.930 . S
C278 C277 1.372 . S
C278 C279 1.397 . S
C279 C278 1.397 . S
C279 C280 1.390 . S
C279 C295 1.476 . S
C280 H238 0.930 . S
C280 C279 1.390 . S
C280 C281 1.366 . S
C281 H239 0.932 . S
C281 C276 1.360 . S
C281 C280 1.366 . S
C282 C256 1.490 . S
C282 C283 1.380 . S
C282 C287 1.386 . S
C283 H240 0.930 . S
C283 C282 1.380 . S
C283 C284 1.381 . S
C284 H241 0.929 . S
C284 C283 1.381 . S
C284 C285 1.371 . S
C285 C284 1.371 . S
C285 C286 1.380 . S
C286 H242 0.931 . S
C286 C285 1.380 . S
C286 C287 1.387 . S
C287 H243 0.930 . S
C287 C282 1.386 . S
C287 C286 1.387 . S
C288 C257 1.519 . S
C288 C289 1.377 . S
C288 C293 1.361 . S
C289 H244 0.929 . S
C289 C288 1.377 . S
C289 C290 1.386 . S
C290 H245 0.931 . S
C290 C289 1.386 . S
C290 C291 1.363 . S
C291 C290 1.363 . S
C291 C292 1.385 . S
C292 H246 0.930 . S
C292 C291 1.385 . S
C292 C293 1.396 . S
C293 H247 0.929 . S
C293 C288 1.361 . S
C293 C292 1.396 . S
C294 O248 1.300 . S
C294 O249 1.209 . S
C294 C267 1.486 . S
C295 O250 1.199 . S
C295 O251 1.297 . S
C295 C279 1.476 . S
H296 O322 0.856 . S
H297 O325 0.854 . S
H298 C333 0.930 . S
H299 C334 0.930 . S
H300 C336 0.930 . S
H301 C337 0.930 . S
H302 C339 0.931 . S
H303 C340 0.930 . S
H304 C342 0.930 1_545 S
H305 C343 0.929 . S
H306 C345 0.930 . S
H307 C346 0.931 . S
H308 C348 0.930 . S
H309 C349 0.929 . S
H310 C351 0.931 . S
H311 C352 0.930 . S
H312 C354 0.930 . S
H313 C355 0.932 . S
H314 C357 0.930 . S
H315 C358 0.929 . S
H316 C360 0.931 . S
H317 C361 0.930 . S
H318 C363 0.929 . S
H319 C364 0.931 . S
H320 C366 0.930 . S
H321 C367 0.929 . S
O322 H296 0.856 . S
O322 C368 1.300 . S
O323 C368 1.209 . S
O324 C369 1.199 . S
O325 H297 0.854 . S
O325 C369 1.297 . S
C326 C327 1.404 . S
C326 C331 1.397 . S
C326 C332 1.492 . S
C327 C326 1.404 . S
C327 C328 1.396 . S
C327 C338 1.492 . S
C328 C327 1.396 . S
C328 C329 1.397 . S
C328 C344 1.509 . S
C329 C328 1.397 . S
C329 C330 1.412 . S
C329 C350 1.485 . S
C330 C329 1.412 . S
C330 C331 1.388 . S
C330 C356 1.490 . S
C331 C326 1.397 . S
C331 C330 1.388 . S
C331 C362 1.519 . S
C332 C326 1.492 . S
C332 C333 1.363 . S
C332 C337 1.390 . S
C333 H298 0.930 . S
C333 C332 1.363 . S
C333 C334 1.372 . S
C334 H299 0.930 . S
C334 C333 1.372 . S
C334 C335 1.383 . S
C335 C334 1.383 . S
C335 C336 1.395 . S
C336 H300 0.930 . S
C336 C335 1.395 . S
C336 C337 1.362 . S
C337 H301 0.930 . S
C337 C332 1.390 . S
C337 C336 1.362 . S
C338 C327 1.492 . S
C338 C339 1.377 . S
C338 C343 1.397 . S
C339 H302 0.931 . S
C339 C338 1.377 . S
C339 C340 1.376 . S
C340 H303 0.930 . S
C340 C339 1.376 . S
C340 C341 1.376 . S
C341 C340 1.376 . S
C341 C342 1.378 . S
C341 C368 1.486 1_565 S
C342 H304 0.930 1_565 S
C342 C341 1.378 . S
C342 C343 1.376 . S
C343 H305 0.929 . S
C343 C338 1.397 . S
C343 C342 1.376 . S
C344 C328 1.509 . S
C344 C345 1.391 . S
C344 C349 1.386 . S
C345 H306 0.930 . S
C345 C344 1.391 . S
C345 C346 1.375 . S
C346 H307 0.931 . S
C346 C345 1.375 . S
C346 C347 1.375 1_565 S
C347 C346 1.375 1_545 S
C347 C348 1.361 . S
C348 H308 0.930 . S
C348 C347 1.361 . S
C348 C349 1.399 1_545 S
C349 H309 0.929 . S
C349 C344 1.386 . S
C349 C348 1.399 1_565 S
C350 C329 1.485 . S
C350 C351 1.394 . S
C350 C355 1.360 . S
C351 H310 0.931 . S
C351 C350 1.394 . S
C351 C352 1.372 . S
C352 H311 0.930 . S
C352 C351 1.372 . S
C352 C353 1.397 . S
C353 C352 1.397 . S
C353 C354 1.390 . S
C353 C369 1.476 . S
C354 H312 0.930 . S
C354 C353 1.390 . S
C354 C355 1.366 . S
C355 H313 0.932 . S
C355 C350 1.360 . S
C355 C354 1.366 . S
C356 C330 1.490 . S
C356 C357 1.380 . S
C356 C361 1.386 . S
C357 H314 0.930 . S
C357 C356 1.380 . S
C357 C358 1.381 . S
C358 H315 0.929 . S
C358 C357 1.381 . S
C358 C359 1.371 . S
C359 C358 1.371 . S
C359 C360 1.380 . S
C360 H316 0.931 . S
C360 C359 1.380 . S
C360 C361 1.387 . S
C361 H317 0.930 . S
C361 C356 1.386 . S
C361 C360 1.387 . S
C362 C331 1.519 . S
C362 C363 1.377 . S
C362 C367 1.361 . S
C363 H318 0.929 . S
C363 C362 1.377 . S
C363 C364 1.386 . S
C364 H319 0.931 . S
C364 C363 1.386 . S
C364 C365 1.363 . S
C365 C364 1.363 . S
C365 C366 1.385 . S
C366 H320 0.930 . S
C366 C365 1.385 . S
C366 C367 1.396 . S
C367 H321 0.929 . S
C367 C362 1.361 . S
C367 C366 1.396 . S
C368 O322 1.300 . S
C368 O323 1.209 . S
C368 C341 1.486 1_545 S
C369 O324 1.199 . S
C369 O325 1.297 . S
C369 C353 1.476 . S
H370 O396 0.856 . S
H371 O399 0.854 . S
H372 C407 0.930 . S
H373 C408 0.930 . S
H374 C410 0.930 . S
H375 C411 0.930 . S
H376 C413 0.931 . S
H377 C414 0.930 . S
H378 C416 0.930 . S
H379 C417 0.929 . S
H380 C419 0.930 . S
H381 C420 0.931 . S
H382 C422 0.930 . S
H383 C423 0.929 . S
H384 C425 0.931 . S
H385 C426 0.930 . S
H386 C428 0.930 . S
H387 C429 0.932 . S
H388 C431 0.930 . S
H389 C432 0.929 . S
H390 C434 0.931 . S
H391 C435 0.930 . S
H392 C437 0.929 . S
H393 C438 0.931 . S
H394 C440 0.930 . S
H395 C441 0.929 . S
O396 H370 0.856 . S
O396 C442 1.300 . S
O397 C442 1.209 . S
O398 C443 1.199 . S
O399 H371 0.854 . S
O399 C443 1.297 . S
C400 C401 1.404 . S
C400 C405 1.397 . S
C400 C406 1.492 . S
C401 C400 1.404 . S
C401 C402 1.396 . S
C401 C412 1.492 . S
C402 C401 1.396 . S
C402 C403 1.397 . S
C402 C418 1.509 . S
C403 C402 1.397 . S
C403 C404 1.412 . S
C403 C424 1.485 . S
C404 C403 1.412 . S
C404 C405 1.388 . S
C404 C430 1.490 . S
C405 C400 1.397 . S
C405 C404 1.388 . S
C405 C436 1.519 . S
C406 C400 1.492 . S
C406 C407 1.363 . S
C406 C411 1.390 . S
C407 H372 0.930 . S
C407 C406 1.363 . S
C407 C408 1.372 . S
C408 H373 0.930 . S
C408 C407 1.372 . S
C408 C409 1.383 . S
C409 C408 1.383 . S
C409 C410 1.395 . S
C410 H374 0.930 . S
C410 C409 1.395 . S
C410 C411 1.362 . S
C411 H375 0.930 . S
C411 C406 1.390 . S
C411 C410 1.362 . S
C412 C401 1.492 . S
C412 C413 1.377 . S
C412 C417 1.397 . S
C413 H376 0.931 . S
C413 C412 1.377 . S
C413 C414 1.376 . S
C414 H377 0.930 . S
C414 C413 1.376 . S
C414 C415 1.376 . S
C415 C414 1.376 . S
C415 C416 1.378 . S
C415 C442 1.486 . S
C416 H378 0.930 . S
C416 C415 1.378 . S
C416 C417 1.376 . S
C417 H379 0.929 . S
C417 C412 1.397 . S
C417 C416 1.376 . S
C418 C402 1.509 . S
C418 C419 1.391 . S
C418 C423 1.386 . S
C419 H380 0.930 . S
C419 C418 1.391 . S
C419 C420 1.375 . S
C420 H381 0.931 . S
C420 C419 1.375 . S
C420 C421 1.375 . S
C421 C420 1.375 . S
C421 C422 1.361 . S
C422 H382 0.930 . S
C422 C421 1.361 . S
C422 C423 1.399 . S
C423 H383 0.929 . S
C423 C418 1.386 . S
C423 C422 1.399 . S
C424 C403 1.485 . S
C424 C425 1.394 . S
C424 C429 1.360 . S
C425 H384 0.931 . S
C425 C424 1.394 . S
C425 C426 1.372 . S
C426 H385 0.930 . S
C426 C425 1.372 . S
C426 C427 1.397 . S
C427 C426 1.397 . S
C427 C428 1.390 . S
C427 C443 1.476 . S
C428 H386 0.930 . S
C428 C427 1.390 . S
C428 C429 1.366 . S
C429 H387 0.932 . S
C429 C424 1.360 . S
C429 C428 1.366 . S
C430 C404 1.490 . S
C430 C431 1.380 . S
C430 C435 1.386 . S
C431 H388 0.930 . S
C431 C430 1.380 . S
C431 C432 1.381 . S
C432 H389 0.929 . S
C432 C431 1.381 . S
C432 C433 1.371 . S
C433 C432 1.371 . S
C433 C434 1.380 . S
C434 H390 0.931 . S
C434 C433 1.380 . S
C434 C435 1.387 . S
C435 H391 0.930 . S
C435 C430 1.386 . S
C435 C434 1.387 . S
C436 C405 1.519 . S
C436 C437 1.377 . S
C436 C441 1.361 . S
C437 H392 0.929 . S
C437 C436 1.377 . S
C437 C438 1.386 . S
C438 H393 0.931 . S
C438 C437 1.386 . S
C438 C439 1.363 . S
C439 C438 1.363 . S
C439 C440 1.385 . S
C440 H394 0.930 . S
C440 C439 1.385 . S
C440 C441 1.396 . S
C441 H395 0.929 . S
C441 C436 1.361 . S
C441 C440 1.396 . S
C442 O396 1.300 . S
C442 O397 1.209 . S
C442 C415 1.486 . S
C443 O398 1.199 . S
C443 O399 1.297 . S
C443 C427 1.476 . S
H444 O470 0.856 . S
H445 O473 0.854 . S
H446 C481 0.930 . S
H447 C482 0.930 . S
H448 C484 0.930 . S
H449 C485 0.930 . S
H450 C487 0.931 . S
H451 C488 0.930 . S
H452 C490 0.930 . S
H453 C491 0.929 . S
H454 C493 0.930 . S
H455 C494 0.931 . S
H456 C496 0.930 . S
H457 C497 0.929 . S
H458 C499 0.931 . S
H459 C500 0.930 . S
H460 C502 0.930 . S
H461 C503 0.932 . S
H462 C505 0.930 . S
H463 C506 0.929 . S
H464 C508 0.931 . S
H465 C509 0.930 . S
H466 C511 0.929 . S
H467 C512 0.931 . S
H468 C514 0.930 . S
H469 C515 0.929 . S
O470 H444 0.856 . S
O470 C516 1.300 . S
O471 C516 1.209 . S
O472 C517 1.199 . S
O473 H445 0.854 . S
O473 C517 1.297 . S
C474 C475 1.404 . S
C474 C479 1.397 . S
C474 C480 1.492 . S
C475 C474 1.404 . S
C475 C476 1.396 . S
C475 C486 1.492 . S
C476 C475 1.396 . S
C476 C477 1.397 . S
C476 C492 1.509 . S
C477 C476 1.397 . S
C477 C478 1.412 . S
C477 C498 1.485 . S
C478 C477 1.412 . S
C478 C479 1.388 . S
C478 C504 1.490 . S
C479 C474 1.397 . S
C479 C478 1.388 . S
C479 C510 1.519 . S
C480 C474 1.492 . S
C480 C481 1.363 . S
C480 C485 1.390 . S
C481 H446 0.930 . S
C481 C480 1.363 . S
C481 C482 1.372 . S
C482 H447 0.930 . S
C482 C481 1.372 . S
C482 C483 1.383 . S
C483 C482 1.383 . S
C483 C484 1.395 . S
C484 H448 0.930 . S
C484 C483 1.395 . S
C484 C485 1.362 . S
C485 H449 0.930 . S
C485 C480 1.390 . S
C485 C484 1.362 . S
C486 C475 1.492 . S
C486 C487 1.377 . S
C486 C491 1.397 . S
C487 H450 0.931 . S
C487 C486 1.377 . S
C487 C488 1.376 . S
C488 H451 0.930 . S
C488 C487 1.376 . S
C488 C489 1.376 . S
C489 C488 1.376 . S
C489 C490 1.378 . S
C489 C516 1.486 . S
C490 H452 0.930 . S
C490 C489 1.378 . S
C490 C491 1.376 . S
C491 H453 0.929 . S
C491 C486 1.397 . S
C491 C490 1.376 . S
C492 C476 1.509 . S
C492 C493 1.391 . S
C492 C497 1.386 . S
C493 H454 0.930 . S
C493 C492 1.391 . S
C493 C494 1.375 . S
C494 H455 0.931 . S
C494 C493 1.375 . S
C494 C495 1.375 . S
C495 C494 1.375 . S
C495 C496 1.361 . S
C496 H456 0.930 . S
C496 C495 1.361 . S
C496 C497 1.399 . S
C497 H457 0.929 . S
C497 C492 1.386 . S
C497 C496 1.399 . S
C498 C477 1.485 . S
C498 C499 1.394 . S
C498 C503 1.360 . S
C499 H458 0.931 . S
C499 C498 1.394 . S
C499 C500 1.372 . S
C500 H459 0.930 . S
C500 C499 1.372 . S
C500 C501 1.397 . S
C501 C500 1.397 . S
C501 C502 1.390 . S
C501 C517 1.476 . S
C502 H460 0.930 . S
C502 C501 1.390 . S
C502 C503 1.366 . S
C503 H461 0.932 . S
C503 C498 1.360 . S
C503 C502 1.366 . S
C504 C478 1.490 . S
C504 C505 1.380 . S
C504 C509 1.386 . S
C505 H462 0.930 . S
C505 C504 1.380 . S
C505 C506 1.381 . S
C506 H463 0.929 . S
C506 C505 1.381 . S
C506 C507 1.371 . S
C507 C506 1.371 . S
C507 C508 1.380 . S
C508 H464 0.931 . S
C508 C507 1.380 . S
C508 C509 1.387 . S
C509 H465 0.930 . S
C509 C504 1.386 . S
C509 C508 1.387 . S
C510 C479 1.519 . S
C510 C511 1.377 . S
C510 C515 1.361 . S
C511 H466 0.929 . S
C511 C510 1.377 . S
C511 C512 1.386 . S
C512 H467 0.931 . S
C512 C511 1.386 . S
C512 C513 1.363 . S
C513 C512 1.363 . S
C513 C514 1.385 . S
C514 H468 0.930 . S
C514 C513 1.385 . S
C514 C515 1.396 . S
C515 H469 0.929 . S
C515 C510 1.361 . S
C515 C514 1.396 . S
C516 O470 1.300 . S
C516 O471 1.209 . S
C516 C489 1.486 . S
C517 O472 1.199 . S
C517 O473 1.297 . S
C517 C501 1.476 . S
H518 O544 0.856 . S
H519 O547 0.854 1_554 S
H520 C555 0.930 . S
H521 C556 0.930 . S
H522 C558 0.930 . S
H523 C559 0.930 . S
H524 C561 0.931 . S
H525 C562 0.930 . S
H526 C564 0.930 . S
H527 C565 0.929 . S
H528 C567 0.930 . S
H529 C568 0.931 . S
H530 C570 0.930 . S
H531 C571 0.929 . S
H532 C573 0.931 . S
H533 C574 0.930 . S
H534 C576 0.930 . S
H535 C577 0.932 . S
H536 C579 0.930 . S
H537 C580 0.929 . S
H538 C582 0.931 . S
H539 C583 0.930 . S
H540 C585 0.929 . S
H541 C586 0.931 . S
H542 C588 0.930 . S
H543 C589 0.929 . S
O544 H518 0.856 . S
O544 C590 1.300 . S
O545 C590 1.209 . S
O546 C591 1.199 1_554 S
O547 H519 0.854 1_556 S
O547 C591 1.297 . S
C548 C549 1.404 . S
C548 C553 1.397 . S
C548 C554 1.492 . S
C549 C548 1.404 . S
C549 C550 1.396 . S
C549 C560 1.492 . S
C550 C549 1.396 . S
C550 C551 1.397 . S
C550 C566 1.509 . S
C551 C550 1.397 . S
C551 C552 1.412 . S
C551 C572 1.485 . S
C552 C551 1.412 . S
C552 C553 1.388 . S
C552 C578 1.490 . S
C553 C548 1.397 . S
C553 C552 1.388 . S
C553 C584 1.519 . S
C554 C548 1.492 . S
C554 C555 1.363 . S
C554 C559 1.390 . S
C555 H520 0.930 . S
C555 C554 1.363 . S
C555 C556 1.372 . S
C556 H521 0.930 . S
C556 C555 1.372 . S
C556 C557 1.383 . S
C557 C556 1.383 . S
C557 C558 1.395 . S
C558 H522 0.930 . S
C558 C557 1.395 . S
C558 C559 1.362 . S
C559 H523 0.930 . S
C559 C554 1.390 . S
C559 C558 1.362 . S
C560 C549 1.492 . S
C560 C561 1.377 . S
C560 C565 1.397 . S
C561 H524 0.931 . S
C561 C560 1.377 . S
C561 C562 1.376 . S
C562 H525 0.930 . S
C562 C561 1.376 . S
C562 C563 1.376 . S
C563 C562 1.376 . S
C563 C564 1.378 . S
C563 C590 1.486 . S
C564 H526 0.930 . S
C564 C563 1.378 . S
C564 C565 1.376 . S
C565 H527 0.929 . S
C565 C560 1.397 . S
C565 C564 1.376 . S
C566 C550 1.509 . S
C566 C567 1.391 . S
C566 C571 1.386 . S
C567 H528 0.930 . S
C567 C566 1.391 . S
C567 C568 1.375 . S
C568 H529 0.931 . S
C568 C567 1.375 . S
C568 C569 1.375 . S
C569 C568 1.375 . S
C569 C570 1.361 . S
C570 H530 0.930 . S
C570 C569 1.361 . S
C570 C571 1.399 . S
C571 H531 0.929 . S
C571 C566 1.386 . S
C571 C570 1.399 . S
C572 C551 1.485 . S
C572 C573 1.394 . S
C572 C577 1.360 . S
C573 H532 0.931 . S
C573 C572 1.394 . S
C573 C574 1.372 . S
C574 H533 0.930 . S
C574 C573 1.372 . S
C574 C575 1.397 . S
C575 C574 1.397 . S
C575 C576 1.390 . S
C575 C591 1.476 . S
C576 H534 0.930 . S
C576 C575 1.390 . S
C576 C577 1.366 . S
C577 H535 0.932 . S
C577 C572 1.360 . S
C577 C576 1.366 . S
C578 C552 1.490 . S
C578 C579 1.380 . S
C578 C583 1.386 . S
C579 H536 0.930 . S
C579 C578 1.380 . S
C579 C580 1.381 . S
C580 H537 0.929 . S
C580 C579 1.381 . S
C580 C581 1.371 . S
C581 C580 1.371 . S
C581 C582 1.380 . S
C582 H538 0.931 . S
C582 C581 1.380 . S
C582 C583 1.387 . S
C583 H539 0.930 . S
C583 C578 1.386 . S
C583 C582 1.387 . S
C584 C553 1.519 . S
C584 C585 1.377 . S
C584 C589 1.361 . S
C585 H540 0.929 . S
C585 C584 1.377 . S
C585 C586 1.386 . S
C586 H541 0.931 . S
C586 C585 1.386 . S
C586 C587 1.363 . S
C587 C586 1.363 . S
C587 C588 1.385 . S
C588 H542 0.930 . S
C588 C587 1.385 . S
C588 C589 1.396 . S
C589 H543 0.929 . S
C589 C584 1.361 . S
C589 C588 1.396 . S
C590 O544 1.300 . S
C590 O545 1.209 . S
C590 C563 1.486 . S
C591 O546 1.199 1_556 S
C591 O547 1.297 . S
C591 C575 1.476 . S
C592 O594 1.247 . S
C592 O596 1.258 . S
C593 O600 1.247 . S
C593 O601 1.258 . S
O594 C592 1.247 . S
O594 Zn595 2.028 . S
Zn595 O594 2.028 . S
Zn595 O599 2.035 1_655 S
Zn595 O601 2.035 1_655 S
Zn595 O602 2.028 . S
O596 C592 1.258 . S
O596 Zn597 2.035 1_655 S
Zn597 O596 2.035 1_455 S
Zn597 O598 2.028 . S
Zn597 O600 2.028 . S
Zn597 O603 2.035 1_455 S
O598 Zn597 2.028 . S
O598 C604 1.247 . S
O599 Zn595 2.035 1_455 S
O599 C604 1.258 . S
O600 C593 1.247 . S
O600 Zn597 2.028 . S
O601 C593 1.258 . S
O601 Zn595 2.035 1_455 S
O602 Zn595 2.028 . S
O602 C605 1.247 . S
O603 Zn597 2.035 1_655 S
O603 C605 1.258 . S
C604 O598 1.247 . S
C604 O599 1.258 . S
C605 O602 1.247 . S
C605 O603 1.258 . S
C606 O608 1.247 . S
C606 O610 1.258 . S
C607 O614 1.247 . S
C607 O615 1.258 . S
O608 C606 1.247 . S
O608 Zn609 2.028 . S
Zn609 O608 2.028 . S
Zn609 O613 2.035 1_545 S
Zn609 O615 2.035 1_545 S
Zn609 O616 2.028 . S
O610 C606 1.258 . S
O610 Zn611 2.035 . S
Zn611 O610 2.035 . S
Zn611 O612 2.028 1_545 S
Zn611 O614 2.028 1_545 S
Zn611 O617 2.035 . S
O612 Zn611 2.028 1_565 S
O612 C618 1.247 . S
O613 Zn609 2.035 1_565 S
O613 C618 1.258 . S
O614 C607 1.247 . S
O614 Zn611 2.028 1_565 S
O615 C607 1.258 . S
O615 Zn609 2.035 1_565 S
O616 Zn609 2.028 . S
O616 C619 1.247 . S
O617 Zn611 2.035 . S
O617 C619 1.258 . S
C618 O612 1.247 . S
C618 O613 1.258 . S
C619 O616 1.247 . S
C619 O617 1.258 . S
C620 O622 1.247 . S
C620 O624 1.258 . S
C621 O628 1.247 . S
C621 O629 1.258 . S
O622 C620 1.247 . S
O622 Zn623 2.028 . S
Zn623 O622 2.028 . S
Zn623 O627 2.035 . S
Zn623 O629 2.035 . S
Zn623 O630 2.028 . S
O624 C620 1.258 . S
O624 Zn625 2.035 . S
Zn625 O624 2.035 . S
Zn625 O626 2.028 . S
Zn625 O628 2.028 . S
Zn625 O631 2.035 . S
O626 Zn625 2.028 . S
O626 C632 1.247 . S
O627 Zn623 2.035 . S
O627 C632 1.258 . S
O628 C621 1.247 . S
O628 Zn625 2.028 . S
O629 C621 1.258 . S
O629 Zn623 2.035 . S
O630 Zn623 2.028 . S
O630 C633 1.247 . S
O631 Zn625 2.035 . S
O631 C633 1.258 . S
C632 O626 1.247 . S
C632 O627 1.258 . S
C633 O630 1.247 . S
C633 O631 1.258 . S
C634 O636 1.247 . S
C634 O638 1.258 . S
C635 O642 1.247 . S
C635 O643 1.258 . S
O636 C634 1.247 . S
O636 Zn637 2.028 . S
Zn637 O636 2.028 . S
Zn637 O641 2.035 . S
Zn637 O643 2.035 . S
Zn637 O644 2.028 . S
O638 C634 1.258 . S
O638 Zn639 2.035 . S
Zn639 O638 2.035 . S
Zn639 O640 2.028 . S
Zn639 O642 2.028 . S
Zn639 O645 2.035 . S
O640 Zn639 2.028 . S
O640 C646 1.247 . S
O641 Zn637 2.035 . S
O641 C646 1.258 . S
O642 C635 1.247 . S
O642 Zn639 2.028 . S
O643 C635 1.258 . S
O643 Zn637 2.035 . S
O644 Zn637 2.028 . S
O644 C647 1.247 . S
O645 Zn639 2.035 . S
O645 C647 1.258 . S
C646 O640 1.247 . S
C646 O641 1.258 . S
C647 O644 1.247 . S
C647 O645 1.258 . S
C648 O650 1.247 . S
C648 O652 1.258 . S
C649 O656 1.247 . S
C649 O657 1.258 . S
O650 C648 1.247 . S
O650 Zn651 2.028 . S
Zn651 O650 2.028 . S
Zn651 O655 2.035 . S
Zn651 O657 2.035 1_554 S
Zn651 O658 2.028 1_554 S
O652 C648 1.258 . S
O652 Zn653 2.035 . S
Zn653 O652 2.035 . S
Zn653 O654 2.028 . S
Zn653 O656 2.028 1_554 S
Zn653 O659 2.035 1_554 S
O654 Zn653 2.028 . S
O654 C660 1.247 . S
O655 Zn651 2.035 . S
O655 C660 1.258 . S
O656 C649 1.247 . S
O656 Zn653 2.028 1_556 S
O657 C649 1.258 . S
O657 Zn651 2.035 1_556 S
O658 Zn651 2.028 1_556 S
O658 C661 1.247 . S
O659 Zn653 2.035 1_556 S
O659 C661 1.258 . S
C660 O654 1.247 . S
C660 O655 1.258 . S
C661 O658 1.247 . S
C661 O659 1.258 . S
C662 O664 1.247 . S
C662 O666 1.258 . S
C663 O670 1.247 . S
C663 O671 1.258 . S
O664 C662 1.247 . S
O664 Zn665 2.028 . S
Zn665 O664 2.028 . S
Zn665 O669 2.035 . S
Zn665 O671 2.035 1_554 S
Zn665 O672 2.028 1_554 S
O666 C662 1.258 . S
O666 Zn667 2.035 . S
Zn667 O666 2.035 . S
Zn667 O668 2.028 . S
Zn667 O670 2.028 1_554 S
Zn667 O673 2.035 1_554 S
O668 Zn667 2.028 . S
O668 C674 1.247 . S
O669 Zn665 2.035 . S
O669 C674 1.258 . S
O670 C663 1.247 . S
O670 Zn667 2.028 1_556 S
O671 C663 1.258 . S
O671 Zn665 2.035 1_556 S
O672 Zn665 2.028 1_556 S
O672 C675 1.247 . S
O673 Zn667 2.035 1_556 S
O673 C675 1.258 . S
C674 O668 1.247 . S
C674 O669 1.258 . S
C675 O672 1.247 . S
C675 O673 1.258 . S
C676 O678 1.247 1_556 S
C676 O680 1.254 1_556 S
C677 O684 1.247 . S
C677 O685 1.258 . S
O678 C676 1.247 1_554 S
O678 Zn679 2.028 . S
Zn679 O678 2.028 . S
Zn679 O683 2.018 1_554 S
Zn679 O685 2.035 . S
Zn679 O686 2.028 . S
O680 C676 1.254 1_554 S
O680 Zn681 2.051 . S
Zn681 O680 2.051 . S
Zn681 O682 2.028 1_554 S
Zn681 O684 2.028 . S
Zn681 O687 2.035 . S
O682 Zn681 2.028 1_556 S
O682 C688 1.247 . S
O683 Zn679 2.018 1_556 S
O683 C688 1.266 . S
O684 C677 1.247 . S
O684 Zn681 2.028 . S
O685 C677 1.258 . S
O685 Zn679 2.035 . S
O686 Zn679 2.028 . S
O686 C689 1.247 . S
O687 Zn681 2.035 . S
O687 C689 1.258 . S
C688 O682 1.247 . S
C688 O683 1.266 . S
C689 O686 1.247 . S
C689 O687 1.258 . S
C690 O692 1.247 . S
C690 O694 1.258 . S
C691 O698 1.247 . S
C691 O699 1.258 . S
O692 C690 1.247 . S
O692 Zn693 2.028 . S
Zn693 O692 2.028 . S
Zn693 O697 2.035 . S
Zn693 O699 2.035 . S
Zn693 O700 2.028 . S
O694 C690 1.258 . S
O694 Zn695 2.035 . S
Zn695 O694 2.035 . S
Zn695 O696 2.028 . S
Zn695 O698 2.028 . S
Zn695 O701 2.035 . S
O696 Zn695 2.028 . S
O696 C702 1.247 . S
O697 Zn693 2.035 . S
O697 C702 1.258 . S
O698 C691 1.247 . S
O698 Zn695 2.028 . S
O699 C691 1.258 . S
O699 Zn693 2.035 . S
O700 Zn693 2.028 . S
O700 C703 1.247 . S
O701 Zn695 2.035 . S
O701 C703 1.258 . S
C702 O696 1.247 . S
C702 O697 1.258 . S
C703 O700 1.247 . S
C703 O701 1.258 . S
H704 C710 0.930 . S
H705 C713 0.930 . S
H706 C714 0.930 . S
H707 C715 0.930 . S
H708 C718 0.930 . S
H709 C719 0.930 . S
C710 H704 0.930 . S
C710 C711 1.355 . S
C710 C712 1.415 . S
C711 C710 1.355 . S
C711 C713 1.419 . S
C712 C710 1.415 . S
C712 C717 1.425 . S
C712 C719 1.409 . S
C713 H705 0.930 . S
C713 C711 1.419 . S
C713 C714 1.362 . S
C714 H706 0.930 . S
C714 C713 1.362 . S
C714 C717 1.409 . S
C715 H707 0.930 . S
C715 C716 1.355 . S
C715 C717 1.415 . S
C716 C715 1.355 . S
C716 C718 1.419 . S
C717 C712 1.425 . S
C717 C714 1.409 . S
C717 C715 1.415 . S
C718 H708 0.930 . S
C718 C716 1.419 . S
C718 C719 1.362 . S
C719 H709 0.930 . S
C719 C712 1.409 . S
C719 C718 1.362 . S
H720 C726 0.930 . S
H721 C729 0.930 . S
H722 C730 0.930 . S
H723 C731 0.930 . S
H724 C734 0.930 . S
H725 C735 0.930 . S
C726 H720 0.930 . S
C726 C727 1.355 . S
C726 C728 1.415 . S
C727 C726 1.355 . S
C727 C729 1.419 . S
C728 C726 1.415 . S
C728 C733 1.425 . S
C728 C735 1.409 . S
C729 H721 0.930 . S
C729 C727 1.419 . S
C729 C730 1.362 . S
C730 H722 0.930 . S
C730 C729 1.362 . S
C730 C733 1.409 . S
C731 H723 0.930 . S
C731 C732 1.355 . S
C731 C733 1.415 . S
C732 C731 1.355 . S
C732 C734 1.419 . S
C733 C728 1.425 . S
C733 C730 1.409 . S
C733 C731 1.415 . S
C734 H724 0.930 . S
C734 C732 1.419 . S
C734 C735 1.362 . S
C735 H725 0.930 . S
C735 C728 1.409 . S
C735 C734 1.362 . S
H736 C742 0.930 . S
H737 C745 0.930 . S
H738 C746 0.930 . S
H739 C747 0.930 . S
H740 C750 0.930 . S
H741 C751 0.930 . S
C742 H736 0.930 . S
C742 C743 1.355 . S
C742 C744 1.415 . S
C743 C742 1.355 . S
C743 C745 1.419 . S
C744 C742 1.415 . S
C744 C749 1.425 . S
C744 C751 1.409 . S
C745 H737 0.930 . S
C745 C743 1.419 . S
C745 C746 1.362 . S
C746 H738 0.930 . S
C746 C745 1.362 . S
C746 C749 1.409 . S
C747 H739 0.930 . S
C747 C748 1.355 . S
C747 C749 1.415 . S
C748 C747 1.355 . S
C748 C750 1.419 . S
C749 C744 1.425 . S
C749 C746 1.409 . S
C749 C747 1.415 . S
C750 H740 0.930 . S
C750 C748 1.419 . S
C750 C751 1.362 . S
C751 H741 0.930 . S
C751 C744 1.409 . S
C751 C750 1.362 . S
H752 C758 0.930 1_565 S
H753 C761 0.930 . S
H754 C762 0.930 . S
H755 C763 0.930 . S
H756 C766 0.930 . S
H757 C767 0.930 . S
C758 H752 0.930 1_545 S
C758 C759 1.355 . S
C758 C760 1.415 . S
C759 C758 1.355 . S
C759 C761 1.419 . S
C760 C758 1.415 . S
C760 C765 1.425 . S
C760 C767 1.409 . S
C761 H753 0.930 . S
C761 C759 1.419 . S
C761 C762 1.362 . S
C762 H754 0.930 . S
C762 C761 1.362 . S
C762 C765 1.409 . S
C763 H755 0.930 . S
C763 C764 1.355 . S
C763 C765 1.415 . S
C764 C763 1.355 . S
C764 C766 1.419 . S
C765 C760 1.425 . S
C765 C762 1.409 . S
C765 C763 1.415 . S
C766 H756 0.930 . S
C766 C764 1.419 . S
C766 C767 1.362 . S
C767 H757 0.930 . S
C767 C760 1.409 . S
C767 C766 1.362 . S
H768 C774 0.930 . S
H769 C777 0.930 . S
H770 C778 0.930 . S
H771 C779 0.930 . S
H772 C782 0.930 . S
H773 C783 0.930 . S
C774 H768 0.930 . S
C774 C775 1.355 . S
C774 C776 1.415 . S
C775 C774 1.355 . S
C775 C777 1.419 . S
C776 C774 1.415 . S
C776 C781 1.425 . S
C776 C783 1.409 . S
C777 H769 0.930 . S
C777 C775 1.419 . S
C777 C778 1.362 . S
C778 H770 0.930 . S
C778 C777 1.362 . S
C778 C781 1.409 . S
C779 H771 0.930 . S
C779 C780 1.355 . S
C779 C781 1.415 . S
C780 C779 1.355 . S
C780 C782 1.419 . S
C781 C776 1.425 . S
C781 C778 1.409 . S
C781 C779 1.415 . S
C782 H772 0.930 . S
C782 C780 1.419 . S
C782 C783 1.362 . S
C783 H773 0.930 . S
C783 C776 1.409 . S
C783 C782 1.362 . S
H784 C790 0.930 . S
H785 C793 0.930 . S
H786 C794 0.930 . S
H787 C795 0.930 . S
H788 C798 0.930 . S
H789 C799 0.930 . S
C790 H784 0.930 . S
C790 C791 1.355 . S
C790 C792 1.415 . S
C791 C790 1.355 . S
C791 C793 1.419 . S
C792 C790 1.415 . S
C792 C797 1.425 . S
C792 C799 1.409 . S
C793 H785 0.930 . S
C793 C791 1.419 . S
C793 C794 1.362 . S
C794 H786 0.930 . S
C794 C793 1.362 . S
C794 C797 1.409 . S
C795 H787 0.930 . S
C795 C796 1.355 . S
C795 C797 1.415 . S
C796 C795 1.355 . S
C796 C798 1.419 . S
C797 C792 1.425 . S
C797 C794 1.409 . S
C797 C795 1.415 . S
C798 H788 0.930 . S
C798 C796 1.419 . S
C798 C799 1.362 . S
C799 H789 0.930 . S
C799 C792 1.409 . S
C799 C798 1.362 . S
H800 C806 0.930 . S
H801 C809 0.930 . S
H802 C810 0.930 . S
H803 C811 0.930 . S
H804 C814 0.930 . S
H805 C815 0.930 . S
C806 H800 0.930 . S
C806 C807 1.355 . S
C806 C808 1.415 . S
C807 C806 1.355 . S
C807 C809 1.419 . S
C808 C806 1.415 . S
C808 C813 1.425 . S
C808 C815 1.409 . S
C809 H801 0.930 . S
C809 C807 1.419 . S
C809 C810 1.362 . S
C810 H802 0.930 . S
C810 C809 1.362 . S
C810 C813 1.409 . S
C811 H803 0.930 . S
C811 C812 1.355 . S
C811 C813 1.415 . S
C812 C811 1.355 . S
C812 C814 1.419 . S
C813 C808 1.425 . S
C813 C810 1.409 . S
C813 C811 1.415 . S
C814 H804 0.930 . S
C814 C812 1.419 . S
C814 C815 1.362 . S
C815 H805 0.930 . S
C815 C808 1.409 . S
C815 C814 1.362 . S
H816 C822 0.930 . S
H817 C825 0.930 . S
H818 C826 0.930 . S
H819 C827 0.930 . S
H820 C830 0.930 . S
H821 C831 0.930 . S
C822 H816 0.930 . S
C822 C823 1.355 . S
C822 C824 1.415 . S
C823 C822 1.355 . S
C823 C825 1.419 . S
C824 C822 1.415 . S
C824 C829 1.425 . S
C824 C831 1.409 . S
C825 H817 0.930 . S
C825 C823 1.419 . S
C825 C826 1.362 . S
C826 H818 0.930 . S
C826 C825 1.362 . S
C826 C829 1.409 . S
C827 H819 0.930 . S
C827 C828 1.355 . S
C827 C829 1.415 . S
C828 C827 1.355 . S
C828 C830 1.419 . S
C829 C824 1.425 . S
C829 C826 1.409 . S
C829 C827 1.415 . S
C830 H820 0.930 . S
C830 C828 1.419 . S
C830 C831 1.362 . S
C831 H821 0.930 . S
C831 C824 1.409 . S
C831 C830 1.362 . S
H832 C838 0.930 . S
H833 C841 0.930 . S
H834 C842 0.930 . S
H835 C843 0.930 1_455 S
H836 C846 0.930 . S
H837 C847 0.930 . S
C838 H832 0.930 . S
C838 C839 1.355 . S
C838 C840 1.415 . S
C839 C838 1.355 . S
C839 C841 1.419 . S
C840 C838 1.415 . S
C840 C845 1.425 . S
C840 C847 1.409 . S
C841 H833 0.930 . S
C841 C839 1.419 . S
C841 C842 1.362 . S
C842 H834 0.930 . S
C842 C841 1.362 . S
C842 C845 1.409 . S
C843 H835 0.930 1_655 S
C843 C844 1.355 . S
C843 C845 1.415 . S
C844 C843 1.355 . S
C844 C846 1.419 . S
C845 C840 1.425 . S
C845 C842 1.409 . S
C845 C843 1.415 . S
C846 H836 0.930 . S
C846 C844 1.419 . S
C846 C847 1.362 . S
C847 H837 0.930 . S
C847 C840 1.409 . S
C847 C846 1.362 . S
H848 C854 0.930 . S
H849 C857 0.930 . S
H850 C858 0.930 . S
H851 C859 0.930 . S
H852 C862 0.930 . S
H853 C863 0.930 . S
C854 H848 0.930 . S
C854 C855 1.355 . S
C854 C856 1.415 . S
C855 C854 1.355 . S
C855 C857 1.419 . S
C856 C854 1.415 . S
C856 C861 1.425 . S
C856 C863 1.409 . S
C857 H849 0.930 . S
C857 C855 1.419 . S
C857 C858 1.362 . S
C858 H850 0.930 . S
C858 C857 1.362 . S
C858 C861 1.409 . S
C859 H851 0.930 . S
C859 C860 1.355 . S
C859 C861 1.415 . S
C860 C859 1.355 . S
C860 C862 1.419 . S
C861 C856 1.425 . S
C861 C858 1.409 . S
C861 C859 1.415 . S
C862 H852 0.930 . S
C862 C860 1.419 . S
C862 C863 1.362 . S
C863 H853 0.930 . S
C863 C856 1.409 . S
C863 C862 1.362 . S
H864 C870 0.930 . S
H865 C873 0.930 . S
H866 C874 0.930 . S
H867 C875 0.930 . S
H868 C878 0.930 . S
H869 C879 0.930 . S
C870 H864 0.930 . S
C870 C871 1.355 . S
C870 C872 1.415 . S
C871 C870 1.355 . S
C871 C873 1.419 . S
C872 C870 1.415 . S
C872 C877 1.425 . S
C872 C879 1.409 . S
C873 H865 0.930 . S
C873 C871 1.419 . S
C873 C874 1.362 . S
C874 H866 0.930 . S
C874 C873 1.362 . S
C874 C877 1.409 . S
C875 H867 0.930 . S
C875 C876 1.355 . S
C875 C877 1.415 . S
C876 C875 1.355 . S
C876 C878 1.419 . S
C877 C872 1.425 . S
C877 C874 1.409 . S
C877 C875 1.415 . S
C878 H868 0.930 . S
C878 C876 1.419 . S
C878 C879 1.362 . S
C879 H869 0.930 . S
C879 C872 1.409 . S
C879 C878 1.362 . S
H880 C886 0.930 . S
H881 C889 0.930 . S
H882 C890 0.930 . S
H883 C891 0.930 . S
H884 C894 0.930 . S
H885 C895 0.930 . S
C886 H880 0.930 . S
C886 C887 1.355 . S
C886 C888 1.415 . S
C887 C886 1.355 . S
C887 C889 1.419 . S
C888 C886 1.415 . S
C888 C893 1.425 . S
C888 C895 1.409 . S
C889 H881 0.930 . S
C889 C887 1.419 . S
C889 C890 1.362 . S
C890 H882 0.930 . S
C890 C889 1.362 . S
C890 C893 1.409 . S
C891 H883 0.930 . S
C891 C892 1.355 . S
C891 C893 1.415 . S
C892 C891 1.355 . S
C892 C894 1.419 . S
C893 C888 1.425 . S
C893 C890 1.409 . S
C893 C891 1.415 . S
C894 H884 0.930 . S
C894 C892 1.419 . S
C894 C895 1.362 . S
C895 H885 0.930 . S
C895 C888 1.409 . S
C895 C894 1.362 . S
H896 C902 0.930 . S
H897 C905 0.930 . S
H898 C906 0.930 . S
H899 C907 0.930 . S
H900 C910 0.930 . S
H901 C911 0.930 . S
C902 H896 0.930 . S
C902 C903 1.355 . S
C902 C904 1.415 . S
C903 C902 1.355 . S
C903 C905 1.419 . S
C904 C902 1.415 . S
C904 C909 1.425 . S
C904 C911 1.409 . S
C905 H897 0.930 . S
C905 C903 1.419 . S
C905 C906 1.362 . S
C906 H898 0.930 . S
C906 C905 1.362 . S
C906 C909 1.409 . S
C907 H899 0.930 . S
C907 C908 1.355 . S
C907 C909 1.415 . S
C908 C907 1.355 . S
C908 C910 1.419 . S
C909 C904 1.425 . S
C909 C906 1.409 . S
C909 C907 1.415 . S
C910 H900 0.930 . S
C910 C908 1.419 . S
C910 C911 1.362 . S
C911 H901 0.930 . S
C911 C904 1.409 . S
C911 C910 1.362 . S
H912 C918 0.930 . S
H913 C921 0.930 . S
H914 C922 0.930 . S
H915 C923 0.930 . S
H916 C926 0.930 . S
H917 C927 0.930 . S
C918 H912 0.930 . S
C918 C919 1.355 . S
C918 C920 1.415 . S
C919 C918 1.355 . S
C919 C921 1.419 . S
C920 C918 1.415 . S
C920 C925 1.425 . S
C920 C927 1.409 . S
C921 H913 0.930 . S
C921 C919 1.419 . S
C921 C922 1.362 . S
C922 H914 0.930 . S
C922 C921 1.362 . S
C922 C925 1.409 . S
C923 H915 0.930 . S
C923 C924 1.355 . S
C923 C925 1.415 . S
C924 C923 1.355 . S
C924 C926 1.419 . S
C925 C920 1.425 . S
C925 C922 1.409 . S
C925 C923 1.415 . S
C926 H916 0.930 . S
C926 C924 1.419 . S
C926 C927 1.362 . S
C927 H917 0.930 . S
C927 C920 1.409 . S
C927 C926 1.362 . S
H928 C934 0.930 . S
H929 C937 0.930 . S
H930 C938 0.930 . S
H931 C939 0.930 . S
H932 C942 0.930 . S
H933 C943 0.930 . S
C934 H928 0.930 . S
C934 C935 1.355 . S
C934 C936 1.415 . S
C935 C934 1.355 . S
C935 C937 1.419 . S
C936 C934 1.415 . S
C936 C941 1.425 . S
C936 C943 1.409 . S
C937 H929 0.930 . S
C937 C935 1.419 . S
C937 C938 1.362 . S
C938 H930 0.930 . S
C938 C937 1.362 . S
C938 C941 1.409 . S
C939 H931 0.930 . S
C939 C940 1.355 . S
C939 C941 1.415 . S
C940 C939 1.355 . S
C940 C942 1.419 . S
C941 C936 1.425 . S
C941 C938 1.409 . S
C941 C939 1.415 . S
C942 H932 0.930 . S
C942 C940 1.419 . S
C942 C943 1.362 . S
C943 H933 0.930 . S
C943 C936 1.409 . S
C943 C942 1.362 . S
H944 C950 0.930 . S
H945 C953 0.930 . S
H946 C954 0.930 . S
H947 C955 0.930 . S
H948 C958 0.930 . S
H949 C959 0.930 . S
C950 H944 0.930 . S
C950 C951 1.355 . S
C950 C952 1.415 . S
C951 C950 1.355 . S
C951 C953 1.419 . S
C952 C950 1.415 . S
C952 C957 1.425 . S
C952 C959 1.409 . S
C953 H945 0.930 . S
C953 C951 1.419 . S
C953 C954 1.362 . S
C954 H946 0.930 . S
C954 C953 1.362 . S
C954 C957 1.409 . S
C955 H947 0.930 . S
C955 C956 1.355 . S
C955 C957 1.415 . S
C956 C955 1.355 . S
C956 C958 1.419 . S
C957 C952 1.425 . S
C957 C954 1.409 . S
C957 C955 1.415 . S
C958 H948 0.930 . S
C958 C956 1.419 . S
C958 C959 1.362 . S
C959 H949 0.930 . S
C959 C952 1.409 . S
C959 C958 1.362 . S
H960 C966 0.930 . S
H961 C969 0.930 . S
H962 C970 0.930 . S
H963 C971 0.930 . S
H964 C974 0.930 . S
H965 C975 0.930 . S
C966 H960 0.930 . S
C966 C967 1.355 . S
C966 C968 1.415 . S
C967 C966 1.355 . S
C967 C969 1.419 . S
C968 C966 1.415 . S
C968 C973 1.425 . S
C968 C975 1.409 . S
C969 H961 0.930 . S
C969 C967 1.419 . S
C969 C970 1.362 . S
C970 H962 0.930 . S
C970 C969 1.362 . S
C970 C973 1.409 . S
C971 H963 0.930 . S
C971 C972 1.355 . S
C971 C973 1.415 . S
C972 C971 1.355 . S
C972 C974 1.419 . S
C973 C968 1.425 . S
C973 C970 1.409 . S
C973 C971 1.415 . S
C974 H964 0.930 . S
C974 C972 1.419 . S
C974 C975 1.362 . S
C975 H965 0.930 . S
C975 C968 1.409 . S
C975 C974 1.362 . S
H976 C982 0.930 . S
H977 C985 0.930 . S
H978 C986 0.930 . S
H979 C987 0.930 . S
H980 C990 0.930 . S
H981 C991 0.930 . S
C982 H976 0.930 . S
C982 C983 1.355 . S
C982 C984 1.415 . S
C983 C982 1.355 . S
C983 C985 1.419 . S
C984 C982 1.415 . S
C984 C989 1.425 . S
C984 C991 1.409 . S
C985 H977 0.930 . S
C985 C983 1.419 . S
C985 C986 1.362 . S
C986 H978 0.930 . S
C986 C985 1.362 . S
C986 C989 1.409 . S
C987 H979 0.930 . S
C987 C988 1.355 . S
C987 C989 1.415 . S
C988 C987 1.355 . S
C988 C990 1.419 . S
C989 C984 1.425 . S
C989 C986 1.409 . S
C989 C987 1.415 . S
C990 H980 0.930 . S
C990 C988 1.419 . S
C990 C991 1.362 . S
C991 H981 0.930 . S
C991 C984 1.409 . S
C991 C990 1.362 . S
H992 C998 0.930 . S
H993 C1001 0.930 . S
H994 C1002 0.930 . S
H995 C1003 0.930 . S
H996 C1006 0.930 . S
H997 C1007 0.930 . S
C998 H992 0.930 . S
C998 C999 1.355 . S
C998 C1000 1.415 . S
C999 C998 1.355 . S
C999 C1001 1.419 . S
C1000 C998 1.415 . S
C1000 C1005 1.425 . S
C1000 C1007 1.409 . S
C1001 H993 0.930 . S
C1001 C999 1.419 . S
C1001 C1002 1.362 . S
C1002 H994 0.930 . S
C1002 C1001 1.362 . S
C1002 C1005 1.409 . S
C1003 H995 0.930 . S
C1003 C1004 1.355 . S
C1003 C1005 1.415 . S
C1004 C1003 1.355 . S
C1004 C1006 1.419 . S
C1005 C1000 1.425 . S
C1005 C1002 1.409 . S
C1005 C1003 1.415 . S
C1006 H996 0.930 . S
C1006 C1004 1.419 . S
C1006 C1007 1.362 . S
C1007 H997 0.930 . S
C1007 C1000 1.409 . S
C1007 C1006 1.362 . S
H1008 C1014 0.930 . S
H1009 C1017 0.930 . S
H1010 C1018 0.930 . S
H1011 C1019 0.930 . S
H1012 C1022 0.930 . S
H1013 C1023 0.930 . S
C1014 H1008 0.930 . S
C1014 C1015 1.355 . S
C1014 C1016 1.415 . S
C1015 C1014 1.355 . S
C1015 C1017 1.419 . S
C1016 C1014 1.415 . S
C1016 C1021 1.425 1_556 S
C1016 C1023 1.409 1_556 S
C1017 H1009 0.930 . S
C1017 C1015 1.419 . S
C1017 C1018 1.362 1_556 S
C1018 H1010 0.930 . S
C1018 C1017 1.362 1_554 S
C1018 C1021 1.409 . S
C1019 H1011 0.930 . S
C1019 C1020 1.355 . S
C1019 C1021 1.415 . S
C1020 C1019 1.355 . S
C1020 C1022 1.419 . S
C1021 C1016 1.425 1_554 S
C1021 C1018 1.409 . S
C1021 C1019 1.415 . S
C1022 H1012 0.930 . S
C1022 C1020 1.419 . S
C1022 C1023 1.362 . S
C1023 H1013 0.930 . S
C1023 C1016 1.409 1_554 S
C1023 C1022 1.362 . S
H1024 C1030 0.930 . S
H1025 C1033 0.930 . S
H1026 C1034 0.930 . S
H1027 C1035 0.930 . S
H1028 C1038 0.930 . S
H1029 C1039 0.930 . S
C1030 H1024 0.930 . S
C1030 C1031 1.355 . S
C1030 C1032 1.415 . S
C1031 C1030 1.355 . S
C1031 C1033 1.419 . S
C1032 C1030 1.415 . S
C1032 C1037 1.425 . S
C1032 C1039 1.409 . S
C1033 H1025 0.930 . S
C1033 C1031 1.419 . S
C1033 C1034 1.362 . S
C1034 H1026 0.930 . S
C1034 C1033 1.362 . S
C1034 C1037 1.409 . S
C1035 H1027 0.930 . S
C1035 C1036 1.355 . S
C1035 C1037 1.415 . S
C1036 C1035 1.355 . S
C1036 C1038 1.419 . S
C1037 C1032 1.425 . S
C1037 C1034 1.409 . S
C1037 C1035 1.415 . S
C1038 H1028 0.930 . S
C1038 C1036 1.419 . S
C1038 C1039 1.362 . S
C1039 H1029 0.930 . S
C1039 C1032 1.409 . S
C1039 C1038 1.362 . S
H1040 C1046 0.930 . S
H1041 C1049 0.930 . S
H1042 C1050 0.930 . S
H1043 C1051 0.930 . S
H1044 C1054 0.930 . S
H1045 C1055 0.930 . S
C1046 H1040 0.930 . S
C1046 C1047 1.355 . S
C1046 C1048 1.415 . S
C1047 C1046 1.355 . S
C1047 C1049 1.419 . S
C1048 C1046 1.415 . S
C1048 C1053 1.425 . S
C1048 C1055 1.409 . S
C1049 H1041 0.930 . S
C1049 C1047 1.419 . S
C1049 C1050 1.362 . S
C1050 H1042 0.930 . S
C1050 C1049 1.362 . S
C1050 C1053 1.409 . S
C1051 H1043 0.930 . S
C1051 C1052 1.355 . S
C1051 C1053 1.415 . S
C1052 C1051 1.355 . S
C1052 C1054 1.419 . S
C1053 C1048 1.425 . S
C1053 C1050 1.409 . S
C1053 C1051 1.415 . S
C1054 H1044 0.930 . S
C1054 C1052 1.419 . S
C1054 C1055 1.362 . S
C1055 H1045 0.930 . S
C1055 C1048 1.409 . S
C1055 C1054 1.362 . S
H1056 C1062 0.930 . S
H1057 C1065 0.930 . S
H1058 C1066 0.930 . S
H1059 C1067 0.930 . S
H1060 C1070 0.930 . S
H1061 C1071 0.930 . S
C1062 H1056 0.930 . S
C1062 C1063 1.355 . S
C1062 C1064 1.415 . S
C1063 C1062 1.355 . S
C1063 C1065 1.419 . S
C1064 C1062 1.415 . S
C1064 C1069 1.425 . S
C1064 C1071 1.409 . S
C1065 H1057 0.930 . S
C1065 C1063 1.419 . S
C1065 C1066 1.362 . S
C1066 H1058 0.930 . S
C1066 C1065 1.362 . S
C1066 C1069 1.409 . S
C1067 H1059 0.930 . S
C1067 C1068 1.355 . S
C1067 C1069 1.415 . S
C1068 C1067 1.355 . S
C1068 C1070 1.419 . S
C1069 C1064 1.425 . S
C1069 C1066 1.409 . S
C1069 C1067 1.415 . S
C1070 H1060 0.930 . S
C1070 C1068 1.419 . S
C1070 C1071 1.362 . S
C1071 H1061 0.930 . S
C1071 C1064 1.409 . S
C1071 C1070 1.362 . S
H1072 C1078 0.930 . S
H1073 C1081 0.930 . S
H1074 C1082 0.930 . S
H1075 C1083 0.930 . S
H1076 C1086 0.930 . S
H1077 C1087 0.930 . S
C1078 H1072 0.930 . S
C1078 C1079 1.355 . S
C1078 C1080 1.415 . S
C1079 C1078 1.355 . S
C1079 C1081 1.419 . S
C1080 C1078 1.415 . S
C1080 C1085 1.425 . S
C1080 C1087 1.409 . S
C1081 H1073 0.930 . S
C1081 C1079 1.419 . S
C1081 C1082 1.362 . S
C1082 H1074 0.930 . S
C1082 C1081 1.362 . S
C1082 C1085 1.409 . S
C1083 H1075 0.930 . S
C1083 C1084 1.355 . S
C1083 C1085 1.415 . S
C1084 C1083 1.355 . S
C1084 C1086 1.419 . S
C1085 C1080 1.425 . S
C1085 C1082 1.409 . S
C1085 C1083 1.415 . S
C1086 H1076 0.930 . S
C1086 C1084 1.419 . S
C1086 C1087 1.362 . S
C1087 H1077 0.930 . S
C1087 C1080 1.409 . S
C1087 C1086 1.362 . S
H1088 C1094 0.930 . S
H1089 C1097 0.930 . S
H1090 C1098 0.930 . S
H1091 C1099 0.930 . S
H1092 C1102 0.930 . S
H1093 C1103 0.930 . S
C1094 H1088 0.930 . S
C1094 C1095 1.355 . S
C1094 C1096 1.415 . S
C1095 C1094 1.355 . S
C1095 C1097 1.419 . S
C1096 C1094 1.415 . S
C1096 C1101 1.425 . S
C1096 C1103 1.409 . S
C1097 H1089 0.930 . S
C1097 C1095 1.419 . S
C1097 C1098 1.362 . S
C1098 H1090 0.930 . S
C1098 C1097 1.362 . S
C1098 C1101 1.409 . S
C1099 H1091 0.930 . S
C1099 C1100 1.355 . S
C1099 C1101 1.415 . S
C1100 C1099 1.355 . S
C1100 C1102 1.419 . S
C1101 C1096 1.425 . S
C1101 C1098 1.409 . S
C1101 C1099 1.415 . S
C1102 H1092 0.930 . S
C1102 C1100 1.419 . S
C1102 C1103 1.362 . S
C1103 H1093 0.930 . S
C1103 C1096 1.409 . S
C1103 C1102 1.362 . S
H1104 C1110 0.930 . S
H1105 C1113 0.930 . S
H1106 C1114 0.930 . S
H1107 C1115 0.930 . S
H1108 C1118 0.930 . S
H1109 C1119 0.930 . S
C1110 H1104 0.930 . S
C1110 C1111 1.355 . S
C1110 C1112 1.415 . S
C1111 C1110 1.355 . S
C1111 C1113 1.419 . S
C1112 C1110 1.415 . S
C1112 C1117 1.425 . S
C1112 C1119 1.409 . S
C1113 H1105 0.930 . S
C1113 C1111 1.419 . S
C1113 C1114 1.362 . S
C1114 H1106 0.930 . S
C1114 C1113 1.362 . S
C1114 C1117 1.409 . S
C1115 H1107 0.930 . S
C1115 C1116 1.355 . S
C1115 C1117 1.415 . S
C1116 C1115 1.355 . S
C1116 C1118 1.419 . S
C1117 C1112 1.425 . S
C1117 C1114 1.409 . S
C1117 C1115 1.415 . S
C1118 H1108 0.930 . S
C1118 C1116 1.419 . S
C1118 C1119 1.362 . S
C1119 H1109 0.930 . S
C1119 C1112 1.409 . S
C1119 C1118 1.362 . S
H1120 C1126 0.930 . S
H1121 C1129 0.930 . S
H1122 C1130 0.930 . S
H1123 C1131 0.930 . S
H1124 C1134 0.930 . S
H1125 C1135 0.930 . S
C1126 H1120 0.930 . S
C1126 C1127 1.355 . S
C1126 C1128 1.415 . S
C1127 C1126 1.355 . S
C1127 C1129 1.419 . S
C1128 C1126 1.415 . S
C1128 C1133 1.425 . S
C1128 C1135 1.409 . S
C1129 H1121 0.930 . S
C1129 C1127 1.419 . S
C1129 C1130 1.362 . S
C1130 H1122 0.930 . S
C1130 C1129 1.362 . S
C1130 C1133 1.409 . S
C1131 H1123 0.930 . S
C1131 C1132 1.355 . S
C1131 C1133 1.415 . S
C1132 C1131 1.355 . S
C1132 C1134 1.419 . S
C1133 C1128 1.425 . S
C1133 C1130 1.409 . S
C1133 C1131 1.415 . S
C1134 H1124 0.930 . S
C1134 C1132 1.419 . S
C1134 C1135 1.362 . S
C1135 H1125 0.930 . S
C1135 C1128 1.409 . S
C1135 C1134 1.362 . S
H1136 C1142 0.930 . S
H1137 C1145 0.930 . S
H1138 C1146 0.930 . S
H1139 C1147 0.930 . S
H1140 C1150 0.930 . S
H1141 C1151 0.930 . S
C1142 H1136 0.930 . S
C1142 C1143 1.355 . S
C1142 C1144 1.415 . S
C1143 C1142 1.355 . S
C1143 C1145 1.419 . S
C1144 C1142 1.415 . S
C1144 C1149 1.425 . S
C1144 C1151 1.409 . S
C1145 H1137 0.930 . S
C1145 C1143 1.419 . S
C1145 C1146 1.362 . S
C1146 H1138 0.930 . S
C1146 C1145 1.362 . S
C1146 C1149 1.409 . S
C1147 H1139 0.930 . S
C1147 C1148 1.355 . S
C1147 C1149 1.415 . S
C1148 C1147 1.355 . S
C1148 C1150 1.419 . S
C1149 C1144 1.425 . S
C1149 C1146 1.409 . S
C1149 C1147 1.415 . S
C1150 H1140 0.930 . S
C1150 C1148 1.419 . S
C1150 C1151 1.362 . S
C1151 H1141 0.930 . S
C1151 C1144 1.409 . S
C1151 C1150 1.362 . S
H1152 C1158 0.930 . S
H1153 C1161 0.930 . S
H1154 C1162 0.930 . S
H1155 C1163 0.930 . S
H1156 C1166 0.930 . S
H1157 C1167 0.930 . S
C1158 H1152 0.930 . S
C1158 C1159 1.355 . S
C1158 C1160 1.415 . S
C1159 C1158 1.355 . S
C1159 C1161 1.419 . S
C1160 C1158 1.415 . S
C1160 C1165 1.425 . S
C1160 C1167 1.409 . S
C1161 H1153 0.930 . S
C1161 C1159 1.419 . S
C1161 C1162 1.362 . S
C1162 H1154 0.930 . S
C1162 C1161 1.362 . S
C1162 C1165 1.409 . S
C1163 H1155 0.930 . S
C1163 C1164 1.355 . S
C1163 C1165 1.415 . S
C1164 C1163 1.355 . S
C1164 C1166 1.419 . S
C1165 C1160 1.425 . S
C1165 C1162 1.409 . S
C1165 C1163 1.415 . S
C1166 H1156 0.930 . S
C1166 C1164 1.419 . S
C1166 C1167 1.362 . S
C1167 H1157 0.930 . S
C1167 C1160 1.409 . S
C1167 C1166 1.362 . S
H1168 C1174 0.930 . S
H1169 C1177 0.930 . S
H1170 C1178 0.930 . S
H1171 C1179 0.930 . S
H1172 C1182 0.930 . S
H1173 C1183 0.930 . S
C1174 H1168 0.930 . S
C1174 C1175 1.355 . S
C1174 C1176 1.415 . S
C1175 C1174 1.355 . S
C1175 C1177 1.419 . S
C1176 C1174 1.415 . S
C1176 C1181 1.425 . S
C1176 C1183 1.409 . S
C1177 H1169 0.930 . S
C1177 C1175 1.419 . S
C1177 C1178 1.362 . S
C1178 H1170 0.930 . S
C1178 C1177 1.362 . S
C1178 C1181 1.409 . S
C1179 H1171 0.930 . S
C1179 C1180 1.355 . S
C1179 C1181 1.415 . S
C1180 C1179 1.355 . S
C1180 C1182 1.419 . S
C1181 C1176 1.425 . S
C1181 C1178 1.409 . S
C1181 C1179 1.415 . S
C1182 H1172 0.930 . S
C1182 C1180 1.419 . S
C1182 C1183 1.362 . S
C1183 H1173 0.930 . S
C1183 C1176 1.409 . S
C1183 C1182 1.362 . S
H1184 C1190 0.930 . S
H1185 C1193 0.930 . S
H1186 C1194 0.930 . S
H1187 C1195 0.930 . S
H1188 C1198 0.930 1_554 S
H1189 C1199 0.930 . S
C1190 H1184 0.930 . S
C1190 C1191 1.355 . S
C1190 C1192 1.415 . S
C1191 C1190 1.355 . S
C1191 C1193 1.419 . S
C1192 C1190 1.415 . S
C1192 C1197 1.425 . S
C1192 C1199 1.409 . S
C1193 H1185 0.930 . S
C1193 C1191 1.419 . S
C1193 C1194 1.362 . S
C1194 H1186 0.930 . S
C1194 C1193 1.362 . S
C1194 C1197 1.409 . S
C1195 H1187 0.930 . S
C1195 C1196 1.355 . S
C1195 C1197 1.415 . S
C1196 C1195 1.355 . S
C1196 C1198 1.419 . S
C1197 C1192 1.425 . S
C1197 C1194 1.409 . S
C1197 C1195 1.415 . S
C1198 H1188 0.930 1_556 S
C1198 C1196 1.419 . S
C1198 C1199 1.362 . S
C1199 H1189 0.930 . S
C1199 C1192 1.409 . S
C1199 C1198 1.362 . S
H1200 C1206 0.930 . S
H1201 C1209 0.930 . S
H1202 C1210 0.930 . S
H1203 C1211 0.930 . S
H1204 C1214 0.930 . S
H1205 C1215 0.930 . S
C1206 H1200 0.930 . S
C1206 C1207 1.355 . S
C1206 C1208 1.390 1_556 S
C1207 C1206 1.355 . S
C1207 C1209 1.419 . S
C1208 C1206 1.390 1_554 S
C1208 C1213 1.422 1_554 S
C1208 C1215 1.437 . S
C1209 H1201 0.930 . S
C1209 C1207 1.419 . S
C1209 C1210 1.362 . S
C1210 H1202 0.930 . S
C1210 C1209 1.362 . S
C1210 C1213 1.409 . S
C1211 H1203 0.930 . S
C1211 C1212 1.355 . S
C1211 C1213 1.415 1_554 S
C1212 C1211 1.355 . S
C1212 C1214 1.419 . S
C1213 C1208 1.422 1_556 S
C1213 C1210 1.409 . S
C1213 C1211 1.415 1_556 S
C1214 H1204 0.930 . S
C1214 C1212 1.419 . S
C1214 C1215 1.362 . S
C1215 H1205 0.930 . S
C1215 C1208 1.437 . S
C1215 C1214 1.362 . S
C716 C593 1.687 . S
C711 C39 1.639 . S
C732 C619 1.646 . S
C727 C125 1.650 . S
C748 C633 2.198 1_655 S
C743 C217 2.083 . S
C764 C635 1.988 . S
C759 C261 1.862 1_545 S
C775 C359 1.475 . S
C780 C632 1.499 . S
C796 C634 1.614 . S
C791 C433 1.526 . S
C812 C592 1.526 . S
C807 C495 1.563 . S
C828 C618 1.715 . S
C823 C587 1.716 . S
C844 C620 1.724 1_655 S
C839 C557 1.718 . S
C860 C646 1.161 . S
C855 C347 1.155 . S
C876 C604 1.146 . S
C871 C421 1.177 . S
C892 C606 1.630 . S
C887 C507 1.596 . S
C908 C605 1.532 . S
C903 C137 1.552 . S
C924 C607 1.611 . S
C919 C187 1.583 . S
C940 C621 2.572 . S
C935 C291 2.522 . S
C956 C647 2.070 . S
C951 C69 2.079 . S
C972 C649 1.458 . S
C967 C581 1.472 . S
C983 C365 2.016 . S
C988 C675 2.003 . S
C999 C439 2.396 . S
C1004 C688 2.383 . S
C1015 C483 1.502 . S
C1020 C691 1.523 . S
C1031 C113 1.717 . S
C1036 C689 1.760 . S
C1047 C211 1.594 . S
C1052 C690 1.690 . S
C1063 C273 1.392 . S
C1068 C648 1.450 . S
C1084 C674 1.205 . S
C1079 C51 1.219 . S
C1100 C677 1.636 . S
C1095 C63 1.607 . S
C1111 C143 1.748 . S
C1116 C702 1.741 . S
C1127 C199 1.850 . S
C1132 C660 1.861 . S
C1143 C285 1.436 . S
C1148 C662 1.580 . S
C1164 C661 1.634 . S
C1159 C335 1.607 . S
C1180 C663 2.037 . S
C1175 C409 1.922 . S
C1191 C513 1.961 . S
C1196 C676 1.957 . S
C1212 C703 1.646 . S
C1207 C569 1.643 . S
