# Generated by pormake.
# Topology ctn, (3,4)-cn, num edge types: 1
# Building blocks:
#     Node 0, Type 0, BuildingBlock: KAKCAD_clean_linker_0, # of connection points: 3
#     Node 1, Type 0, BuildingBlock: KAKCAD_clean_linker_0, # of connection points: 3
#     Node 2, Type 0, BuildingBlock: KAKCAD_clean_linker_0, # of connection points: 3
#     Node 3, Type 0, BuildingBlock: KAKCAD_clean_linker_0, # of connection points: 3
#     Node 4, Type 0, BuildingBlock: KAKCAD_clean_linker_0, # of connection points: 3
#     Node 5, Type 0, BuildingBlock: KAKCAD_clean_linker_0, # of connection points: 3
#     Node 6, Type 0, BuildingBlock: KAKCAD_clean_linker_0, # of connection points: 3
#     Node 7, Type 0, BuildingBlock: KAKCAD_clean_linker_0, # of connection points: 3
#     Node 8, Type 0, BuildingBlock: KAKCAD_clean_linker_0, # of connection points: 3
#     Node 9, Type 0, BuildingBlock: KAKCAD_clean_linker_0, # of connection points: 3
#     Node 10, Type 0, BuildingBlock: KAKCAD_clean_linker_0, # of connection points: 3
#     Node 11, Type 0, BuildingBlock: KAKCAD_clean_linker_0, # of connection points: 3
#     Node 12, Type 0, BuildingBlock: KAKCAD_clean_linker_0, # of connection points: 3
#     Node 13, Type 0, BuildingBlock: KAKCAD_clean_linker_0, # of connection points: 3
#     Node 14, Type 0, BuildingBlock: KAKCAD_clean_linker_0, # of connection points: 3
#     Node 15, Type 0, BuildingBlock: KAKCAD_clean_linker_0, # of connection points: 3
#     Node 16, Type 1, BuildingBlock: QUQFOY_clean_sbu_1, # of connection points: 4
#     Node 17, Type 1, BuildingBlock: QUQFOY_clean_sbu_1, # of connection points: 4
#     Node 18, Type 1, BuildingBlock: QUQFOY_clean_sbu_1, # of connection points: 4
#     Node 19, Type 1, BuildingBlock: QUQFOY_clean_sbu_1, # of connection points: 4
#     Node 20, Type 1, BuildingBlock: QUQFOY_clean_sbu_1, # of connection points: 4
#     Node 21, Type 1, BuildingBlock: QUQFOY_clean_sbu_1, # of connection points: 4
#     Node 22, Type 1, BuildingBlock: QUQFOY_clean_sbu_1, # of connection points: 4
#     Node 23, Type 1, BuildingBlock: QUQFOY_clean_sbu_1, # of connection points: 4
#     Node 24, Type 1, BuildingBlock: QUQFOY_clean_sbu_1, # of connection points: 4
#     Node 25, Type 1, BuildingBlock: QUQFOY_clean_sbu_1, # of connection points: 4
#     Node 26, Type 1, BuildingBlock: QUQFOY_clean_sbu_1, # of connection points: 4
#     Node 27, Type 1, BuildingBlock: QUQFOY_clean_sbu_1, # of connection points: 4
#     Edge 28, Type (0, 1), None
#     Edge 29, Type (0, 1), None
#     Edge 30, Type (0, 1), None
#     Edge 31, Type (0, 1), None
#     Edge 32, Type (0, 1), None
#     Edge 33, Type (0, 1), None
#     Edge 34, Type (0, 1), None
#     Edge 35, Type (0, 1), None
#     Edge 36, Type (0, 1), None
#     Edge 37, Type (0, 1), None
#     Edge 38, Type (0, 1), None
#     Edge 39, Type (0, 1), None
#     Edge 40, Type (0, 1), None
#     Edge 41, Type (0, 1), None
#     Edge 42, Type (0, 1), None
#     Edge 43, Type (0, 1), None
#     Edge 44, Type (0, 1), None
#     Edge 45, Type (0, 1), None
#     Edge 46, Type (0, 1), None
#     Edge 47, Type (0, 1), None
#     Edge 48, Type (0, 1), None
#     Edge 49, Type (0, 1), None
#     Edge 50, Type (0, 1), None
#     Edge 51, Type (0, 1), None
#     Edge 52, Type (0, 1), None
#     Edge 53, Type (0, 1), None
#     Edge 54, Type (0, 1), None
#     Edge 55, Type (0, 1), None
#     Edge 56, Type (0, 1), None
#     Edge 57, Type (0, 1), None
#     Edge 58, Type (0, 1), None
#     Edge 59, Type (0, 1), None
#     Edge 60, Type (0, 1), None
#     Edge 61, Type (0, 1), None
#     Edge 62, Type (0, 1), None
#     Edge 63, Type (0, 1), None
#     Edge 64, Type (0, 1), None
#     Edge 65, Type (0, 1), None
#     Edge 66, Type (0, 1), None
#     Edge 67, Type (0, 1), None
#     Edge 68, Type (0, 1), None
#     Edge 69, Type (0, 1), None
#     Edge 70, Type (0, 1), None
#     Edge 71, Type (0, 1), None
#     Edge 72, Type (0, 1), None
#     Edge 73, Type (0, 1), None
#     Edge 74, Type (0, 1), None
#     Edge 75, Type (0, 1), None
# Relax obj value: 0.037
# Max RMSD: 0.149
# Mean RMSD: 0.067
data_MOF--net-ctn--node1-QUQFOY_clean_sbu_1--node2-KAKCAD_clean_linker_0--edge1-none
_symmetry_space_group_name_H-M    P1
_symmetry_Int_Tables_number       1
_symmetry_cell_setting            triclinic
loop_
_symmetry_equiv_pos_as_xyz
'x, y, z'
_cell_length_a     37.343478
_cell_length_b     37.497848
_cell_length_c     37.418533
_cell_angle_alpha  92.516677
_cell_angle_beta   90.202225
_cell_angle_gamma 93.873201
loop_
_atom_site_label
_atom_site_type_symbol
_atom_site_fract_x
_atom_site_fract_y
_atom_site_fract_z
_atom_type_partial_charge
C0 C 0.02044 0.15438 0.94471 0.0
C1 C 0.00074 0.18024 0.96251 0.0
C2 C 0.03033 0.12443 0.96262 0.0
C3 C 0.02147 0.12038 -0.00111 0.0
C4 C 0.00339 0.14756 0.01687 0.0
C5 C 0.99261 0.17671 -0.00125 0.0
C6 C 0.02977 0.0877 0.01793 0.0
C7 C 0.0609 0.06962 0.01026 0.0
C8 C 0.06849 0.03895 0.02861 0.0
C9 C 0.04501 0.02718 0.05558 0.0
C10 C 0.01414 0.04509 0.06402 0.0
C11 C 0.00629 0.07459 0.04439 0.0
C12 C 0.99083 0.03375 0.09423 0.0
C13 C 0.98458 -0.00267 0.1012 0.0
C14 C 0.97608 0.05942 0.11743 0.0
C15 C 0.95644 0.04893 0.14738 0.0
C16 C 0.95162 0.01264 0.15503 0.0
C17 C 0.10061 0.01878 0.01962 0.0
C18 C 0.11183 0.01438 0.98394 0.0
C19 C 0.11944 0.00245 0.04648 0.0
C20 C 0.14793 0.98144 0.03778 0.0
C21 C 0.15884 0.97691 0.00213 0.0
C22 C 0.1408 -0.00608 0.97535 0.0
C23 C 0.96546 0.98693 0.13141 0.0
H24 H 0.02697 0.15662 0.91668 0.0
H25 H 0.04397 0.10405 0.94771 0.0
H26 H -0.00276 0.14636 0.04506 0.0
H27 H 0.97802 0.19671 0.01323 0.0
H28 H 0.07968 0.07986 0.99061 0.0
H29 H 0.98145 0.08713 0.04962 0.0
H30 H 0.05083 0.00398 0.07023 0.0
H31 H 0.99474 0.97678 0.08352 0.0
H32 H 0.98072 0.08773 0.11318 0.0
H33 H 0.94617 0.06932 0.16521 0.0
H34 H 0.09776 0.02604 0.96246 0.0
H35 H 0.11229 0.00592 0.07436 0.0
H36 H 0.96176 0.95868 0.13641 0.0
H37 H 0.14863 -0.00913 0.94759 0.0
H38 H 0.16172 0.96913 0.05905 0.0
C39 C 0.38083 0.7953 0.30909 0.0
C40 C 0.39378 0.76674 0.32723 0.0
C41 C 0.35106 0.7897 0.28632 0.0
C42 C 0.33415 0.75525 0.28062 0.0
C43 C 0.34785 0.7266 0.29832 0.0
C44 C 0.37696 0.7324 0.32177 0.0
C45 C 0.30236 0.74891 0.25647 0.0
C46 C 0.29925 0.76796 0.2252 0.0
C47 C 0.26983 0.76055 0.20183 0.0
C48 C 0.24376 0.73323 0.2094 0.0
C49 C 0.24705 0.71344 0.24004 0.0
C50 C 0.27547 0.72245 0.264 0.0
C51 C 0.22277 0.68152 0.24618 0.0
C52 C 0.18547 0.68204 0.24175 0.0
C53 C 0.23726 0.65018 0.25729 0.0
C54 C 0.21495 0.62043 0.26522 0.0
C55 C 0.17757 0.62118 0.26194 0.0
C56 C 0.2678 0.77964 0.16822 0.0
C57 C 0.23623 0.79521 0.15834 0.0
C58 C 0.29772 0.78224 0.14572 0.0
C59 C 0.29627 0.80024 0.11402 0.0
C60 C 0.26499 0.8164 0.10428 0.0
C61 C 0.23492 0.81374 0.12672 0.0
C62 C 0.163 0.65206 0.24958 0.0
H63 H 0.3933 0.82212 0.31304 0.0
H64 H 0.34107 0.81249 0.27365 0.0
H65 H 0.33639 0.69947 0.29385 0.0
H66 H 0.38679 0.70986 0.33506 0.0
H67 H 0.31998 0.78815 0.21854 0.0
H68 H 0.27678 0.70824 0.28852 0.0
H69 H 0.22208 0.72619 0.19052 0.0
H70 H 0.17365 0.70587 0.23319 0.0
H71 H 0.26601 0.64869 0.26006 0.0
H72 H 0.22708 0.59693 0.2742 0.0
H73 H 0.21283 0.79352 0.17536 0.0
H74 H 0.3222 0.77007 0.15252 0.0
H75 H 0.13426 0.65338 0.24671 0.0
H76 H 0.21047 0.82589 0.11984 0.0
H77 H 0.31993 0.80182 0.09736 0.0
C78 C 0.99137 0.51911 0.19855 0.0
C79 C 0.027 0.50981 0.2014 0.0
C80 C 0.97163 0.51047 0.16729 0.0
C81 C 0.98743 0.49313 0.13783 0.0
C82 C 0.02282 0.48278 0.14131 0.0
C83 C 0.04225 0.4907 0.17294 0.0
C84 C 0.96784 0.48758 0.10311 0.0
C85 C 0.94517 0.51343 0.09152 0.0
C86 C 0.92799 0.50933 0.05801 0.0
C87 C 0.93427 0.47936 0.0357 0.0
C88 C 0.95702 0.45366 0.0466 0.0
C89 C 0.97306 0.4574 0.08055 0.0
C90 C 0.96488 0.4236 0.02171 0.0
C91 C 0.96052 0.38811 0.03222 0.0
C92 C 0.97621 0.43048 0.98683 0.0
C93 C 0.98239 0.40235 0.96255 0.0
C94 C 0.97689 0.36672 0.97254 0.0
C95 C 0.90329 0.53599 0.04607 0.0
C96 C 0.87851 0.55062 0.06986 0.0
C97 C 0.90288 0.54535 0.01012 0.0
C98 C 0.877 0.56699 -0.00226 0.0
C99 C 0.85118 0.58019 0.0211 0.0
C100 C 0.85276 0.57266 0.0575 0.0
C101 C 0.9662 0.35984 0.00772 0.0
H102 H 0.97891 0.53359 0.22035 0.0
H103 H 0.94418 0.51798 0.16604 0.0
H104 H 0.03619 0.4699 0.11913 0.0
H105 H 0.06982 0.48352 0.17441 0.0
H106 H 0.94173 0.5374 0.10802 0.0
H107 H 0.99019 0.43709 0.08894 0.0
H108 H 0.92099 0.47557 0.00988 0.0
H109 H 0.95177 0.38224 0.05903 0.0
H110 H 0.98012 0.45771 0.9783 0.0
H111 H 0.99056 0.40858 0.93565 0.0
H112 H 0.87799 0.54381 0.09769 0.0
H113 H 0.92216 0.53534 0.99128 0.0
H114 H 0.96183 0.33265 0.0162 0.0
H115 H 0.83314 0.58245 0.0761 0.0
H116 H 0.87676 0.57273 0.96962 0.0
C117 C 0.68427 0.72027 0.12134 0.0
C118 C 0.71689 0.70698 0.11009 0.0
C119 C 0.68186 0.73842 0.15448 0.0
C120 C 0.71206 0.74383 0.17697 0.0
C121 C 0.74433 0.72936 0.16635 0.0
C122 C 0.74669 0.71094 0.13325 0.0
C123 C 0.71087 0.76786 0.20932 0.0
C124 C 0.68134 0.76583 0.23254 0.0
C125 C 0.67846 0.79171 0.26043 0.0
C126 C 0.70581 0.81894 0.26568 0.0
C127 C 0.73503 0.82178 0.24234 0.0
C128 C 0.73754 0.79585 0.21446 0.0
C129 C 0.76122 0.85335 0.24531 0.0
C130 C 0.74963 0.88744 0.2547 0.0
C131 C 0.79772 0.84994 0.23785 0.0
C132 C 0.82204 0.87991 0.23977 0.0
C133 C 0.81043 0.91377 0.24973 0.0
C134 C 0.64523 0.79325 0.28161 0.0
C135 C 0.62842 0.82559 0.28484 0.0
C136 C 0.63009 0.76315 0.2985 0.0
C137 C 0.59883 0.76564 0.31882 0.0
C138 C 0.58209 0.79812 0.32195 0.0
C139 C 0.59718 0.82797 0.30466 0.0
C140 C 0.77403 0.91725 0.25722 0.0
H141 H 0.66072 0.7174 0.1042 0.0
H142 H 0.65678 0.74967 0.16175 0.0
H143 H 0.76798 0.73306 0.18332 0.0
H144 H 0.7721 0.70078 0.12538 0.0
H145 H 0.65991 0.74514 0.22795 0.0
H146 H 0.75911 0.79867 0.19527 0.0
H147 H 0.70369 0.83857 0.28759 0.0
H148 H 0.72157 0.89128 0.25967 0.0
H149 H 0.80763 0.82406 0.23092 0.0
H150 H 0.85006 0.87641 0.2342 0.0
H151 H 0.63929 0.84907 0.27165 0.0
H152 H 0.64265 0.73794 0.29634 0.0
H153 H 0.76432 0.9431 0.26472 0.0
H154 H 0.58492 0.85336 0.30648 0.0
H155 H 0.58764 0.74216 0.33174 0.0
C156 C 0.94395 0.98954 0.38233 0.0
C157 C 0.95677 0.98967 0.34705 0.0
C158 C 0.96633 0.98136 0.41039 0.0
C159 C 0.00206 0.97376 0.40376 0.0
C160 C 0.01505 0.97436 0.36863 0.0
C161 C 0.99253 0.98194 0.34048 0.0
C162 C 0.02626 0.96716 0.43374 0.0
C163 C 0.016 0.94221 0.45936 0.0
C164 C 0.03794 0.93799 0.48941 0.0
C165 C 0.07009 0.95956 0.49353 0.0
C166 C 0.08071 0.98412 0.4678 0.0
C167 C 0.059 0.98745 0.43776 0.0
C168 C 0.11262 0.00895 0.47394 0.0
C169 C 0.11559 0.03018 0.50571 0.0
C170 C 0.13883 0.01341 0.44737 0.0
C171 C 0.16741 0.03924 0.45238 0.0
C172 C 0.16956 0.0614 0.48366 0.0
C173 C 0.0271 0.91181 0.51685 0.0
C174 C 0.99079 0.90528 0.52586 0.0
C175 C 0.05305 0.89322 0.53447 0.0
C176 C 0.04292 0.86876 0.56032 0.0
C177 C 0.0066 0.86184 0.56863 0.0
C178 C 0.98065 0.88035 0.5512 0.0
C179 C 0.14364 0.05635 0.51041 0.0
H180 H 0.91644 -0.00492 0.38819 0.0
H181 H 0.95589 0.98152 0.43737 0.0
H182 H 0.04257 0.96867 0.36292 0.0
H183 H 0.00314 0.98175 0.31357 0.0
H184 H 0.99108 0.92593 0.45553 0.0
H185 H 0.06661 0.00738 0.41854 0.0
H186 H 0.08667 0.95791 0.51715 0.0
H187 H 0.09548 0.02739 0.52639 0.0
H188 H 0.13692 -0.00278 0.42265 0.0
H189 H 0.18706 0.04266 0.43137 0.0
H190 H 0.97009 0.91959 0.51357 0.0
H191 H 0.08121 0.89701 0.52787 0.0
H192 H 0.14484 0.07291 0.53492 0.0
H193 H 0.95242 0.87569 0.55726 0.0
H194 H 0.06346 0.85458 0.57307 0.0
C195 C 0.11081 0.71026 0.73402 0.0
C196 C 0.10329 0.7424 0.71842 0.0
C197 C 0.1452 0.70531 0.74682 0.0
C198 C 0.17255 0.73262 0.74476 0.0
C199 C 0.16551 0.76417 0.7278 0.0
C200 C 0.13122 0.76886 0.71435 0.0
C201 C 0.20572 0.73087 0.76608 0.0
C202 C 0.22712 0.70145 0.76282 0.0
C203 C 0.25538 0.69812 0.7872 0.0
C204 C 0.26196 0.72451 0.81473 0.0
C205 C 0.24039 0.75366 0.81851 0.0
C206 C 0.21278 0.75685 0.79367 0.0
C207 C 0.24411 0.77899 0.85011 0.0
C208 C 0.25024 0.76642 0.8843 0.0
C209 C 0.23893 0.81547 0.84672 0.0
C210 C 0.23902 0.83869 0.87689 0.0
C211 C 0.24476 0.82603 0.91109 0.0
C212 C 0.27613 0.66571 0.78629 0.0
C213 C 0.28032 0.64731 0.81776 0.0
C214 C 0.29194 0.65304 0.75459 0.0
C215 C 0.31189 0.62264 0.75453 0.0
C216 C 0.31573 0.60409 0.78605 0.0
C217 C 0.2997 0.61679 0.8176 0.0
C218 C 0.25074 0.78974 0.91445 0.0
H219 H 0.0899 0.68916 0.73705 0.0
H220 H 0.14984 0.68102 0.76028 0.0
H221 H 0.1862 0.78573 0.72626 0.0
H222 H 0.12621 0.79377 0.70222 0.0
H223 H 0.22088 0.68058 0.74234 0.0
H224 H 0.19487 0.77831 0.79728 0.0
H225 H 0.28359 0.72197 0.83364 0.0
H226 H 0.25365 0.73836 0.88796 0.0
H227 H 0.23461 0.8261 0.82072 0.0
H228 H 0.23489 0.86664 0.87335 0.0
H229 H 0.26813 0.65626 0.84252 0.0
H230 H 0.28919 0.66686 0.73 0.0
H231 H 0.25529 0.77919 0.94045 0.0
H232 H 0.30208 0.60311 0.84232 0.0
H233 H 0.32375 0.61333 0.72975 0.0
C234 C 0.97804 0.67542 0.56313 0.0
C235 C 0.97718 0.67516 0.60063 0.0
C236 C 0.97875 0.64345 0.54283 0.0
C237 C 0.97812 0.6107 0.55965 0.0
C238 C 0.97612 0.61022 0.59702 0.0
C239 C 0.97599 0.64227 0.61741 0.0
C240 C 0.97855 0.57714 0.53784 0.0
C241 C 0.0043 0.57352 0.51099 0.0
C242 C 0.00206 0.54368 0.48709 0.0
C243 C 0.97378 0.51753 0.48985 0.0
C244 C 0.94766 0.52133 0.51625 0.0
C245 C 0.95068 0.55055 0.5409 0.0
C246 C 0.91394 0.49892 0.51383 0.0
C247 C 0.89201 0.50051 0.48353 0.0
C248 C 0.90243 0.47786 0.54214 0.0
C249 C 0.86944 0.45798 0.53981 0.0
C250 C 0.84728 0.4598 0.50956 0.0
C251 C 0.02528 0.54286 0.45557 0.0
C252 C 0.02243 0.56887 0.43016 0.0
C253 C 0.04814 0.5151 0.44934 0.0
C254 C 0.06791 0.51334 0.41772 0.0
C255 C 0.06406 0.53872 0.39171 0.0
C256 C 0.04139 0.56662 0.3983 0.0
C257 C 0.85877 0.48135 0.48154 0.0
H258 H 0.97914 0.70034 0.54948 0.0
H259 H 0.97967 0.64428 0.51394 0.0
H260 H 0.97537 0.58514 0.6104 0.0
H261 H 0.97527 0.64132 0.6463 0.0
H262 H 0.02533 0.59453 0.50785 0.0
H263 H 0.92964 0.5542 0.56039 0.0
H264 H 0.97069 0.4956 0.46995 0.0
H265 H 0.90036 0.51711 0.46166 0.0
H266 H 0.91899 0.47672 0.56584 0.0
H267 H 0.86108 0.44155 0.56179 0.0
H268 H 0.00461 0.59027 0.43448 0.0
H269 H 0.05036 0.49471 0.46872 0.0
H270 H 0.84233 0.483 0.45783 0.0
H271 H 0.03819 0.58664 0.37872 0.0
H272 H 0.08518 0.49155 0.41307 0.0
C273 C 0.80112 0.73254 0.91676 0.0
C274 C 0.76587 0.72282 0.927 0.0
C275 C 0.80781 0.75808 0.8912 0.0
C276 C 0.7793 0.77372 0.87438 0.0
C277 C 0.74392 0.76392 0.88487 0.0
C278 C 0.73733 0.73907 0.91127 0.0
C279 C 0.78671 0.79992 0.84601 0.0
C280 C 0.81636 0.79673 0.82329 0.0
C281 C 0.82522 0.82233 0.7979 0.0
C282 C 0.8032 0.8509 0.79439 0.0
C283 C 0.77268 0.85368 0.81579 0.0
C284 C 0.76472 0.82845 0.84167 0.0
C285 C 0.74964 0.88372 0.81204 0.0
C286 C 0.76362 0.9189 0.81937 0.0
C287 C 0.71338 0.87731 0.80216 0.0
C288 C 0.69131 0.90584 0.7998 0.0
C289 C 0.70504 0.94099 0.80823 0.0
C290 C 0.85713 0.81848 0.77479 0.0
C291 C 0.88897 0.80661 0.78893 0.0
C292 C 0.85549 0.82494 0.73814 0.0
C293 C 0.88451 0.81833 0.71591 0.0
C294 C 0.91573 0.80494 0.7298 0.0
C295 C 0.91789 0.79979 0.76669 0.0
C296 C 0.7414 0.94728 0.81789 0.0
H297 H 0.82362 0.72068 0.92887 0.0
H298 H 0.83547 0.76561 0.88485 0.0
H299 H 0.72119 0.77483 0.87228 0.0
H300 H 0.70985 0.73176 0.91859 0.0
H301 H 0.83238 0.77383 0.82486 0.0
H302 H 0.74197 0.8319 0.85907 0.0
H303 H 0.80969 0.87101 0.77505 0.0
H304 H 0.79151 0.92431 0.82712 0.0
H305 H 0.70219 0.85025 0.79637 0.0
H306 H 0.66333 0.90031 0.79246 0.0
H307 H 0.89137 0.8021 0.81721 0.0
H308 H 0.8313 0.83381 0.72633 0.0
H309 H 0.75268 0.97417 0.82438 0.0
H310 H 0.94165 0.78982 0.77832 0.0
H311 H 0.88192 0.82258 0.6876 0.0
C312 C 0.30112 0.23253 0.41677 0.0
C313 C 0.26587 0.22281 0.42701 0.0
C314 C 0.30781 0.25807 0.39121 0.0
C315 C 0.2793 0.27371 0.37438 0.0
C316 C 0.24393 0.26391 0.38488 0.0
C317 C 0.23733 0.23906 0.41127 0.0
C318 C 0.28671 0.29991 0.34601 0.0
C319 C 0.31637 0.29673 0.3233 0.0
C320 C 0.32523 0.32232 0.2979 0.0
C321 C 0.30321 0.35089 0.29439 0.0
C322 C 0.27269 0.35367 0.31579 0.0
C323 C 0.26473 0.32844 0.34168 0.0
C324 C 0.24964 0.38371 0.31204 0.0
C325 C 0.26363 0.41889 0.31936 0.0
C326 C 0.21338 0.3773 0.30217 0.0
C327 C 0.19131 0.40583 0.29981 0.0
C328 C 0.20504 0.44099 0.30823 0.0
C329 C 0.35714 0.31847 0.27479 0.0
C330 C 0.38898 0.3066 0.28894 0.0
C331 C 0.3555 0.32493 0.23815 0.0
C332 C 0.38452 0.31833 0.21592 0.0
C333 C 0.41574 0.30494 0.22981 0.0
C334 C 0.4179 0.29979 0.26669 0.0
C335 C 0.24141 0.44727 0.31788 0.0
H336 H 0.32362 0.22067 0.42887 0.0
H337 H 0.33547 0.26561 0.38486 0.0
H338 H 0.22119 0.27482 0.37228 0.0
H339 H 0.20985 0.23174 0.41858 0.0
H340 H 0.33239 0.27382 0.32487 0.0
H341 H 0.24198 0.33189 0.35908 0.0
H342 H 0.3097 0.371 0.27506 0.0
H343 H 0.29152 0.4243 0.3271 0.0
H344 H 0.20219 0.35024 0.29639 0.0
H345 H 0.16334 0.4003 0.29247 0.0
H346 H 0.39138 0.30208 0.31722 0.0
H347 H 0.33131 0.33381 0.22634 0.0
H348 H 0.25269 0.47416 0.32436 0.0
H349 H 0.44166 0.28981 0.27833 0.0
H350 H 0.38193 0.32259 0.18761 0.0
C351 C 0.49137 0.0191 0.69855 0.0
C352 C 0.52701 0.0098 0.70139 0.0
C353 C 0.47163 0.01045 0.66728 0.0
C354 C 0.48743 -0.00689 0.63783 0.0
C355 C 0.52282 0.98276 0.6413 0.0
C356 C 0.54226 0.99068 0.67293 0.0
C357 C 0.46784 0.98756 0.6031 0.0
C358 C 0.44518 0.01341 0.59152 0.0
C359 C 0.42799 0.00931 0.55801 0.0
C360 C 0.43427 0.97934 0.5357 0.0
C361 C 0.45702 0.95363 0.5466 0.0
C362 C 0.47306 0.95738 0.58054 0.0
C363 C 0.46488 0.92357 0.52171 0.0
C364 C 0.46051 0.88808 0.53221 0.0
C365 C 0.47621 0.93046 0.48683 0.0
C366 C 0.48238 0.90233 0.46255 0.0
C367 C 0.47688 0.8667 0.47253 0.0
C368 C 0.40329 0.03597 0.54607 0.0
C369 C 0.37852 0.0506 0.56986 0.0
C370 C 0.40289 0.04533 0.51011 0.0
C371 C 0.377 0.06697 0.49774 0.0
C372 C 0.35119 0.08018 0.5211 0.0
C373 C 0.35277 0.07265 0.55749 0.0
C374 C 0.46619 0.85982 0.50771 0.0
H375 H 0.47891 0.03358 0.72034 0.0
H376 H 0.44418 0.01796 0.66603 0.0
H377 H 0.53619 0.96988 0.61912 0.0
H378 H 0.56983 0.98351 0.6744 0.0
H379 H 0.44173 0.03738 0.60801 0.0
H380 H 0.49019 0.93707 0.58894 0.0
H381 H 0.42098 0.97555 0.50987 0.0
H382 H 0.45176 0.88222 0.55903 0.0
H383 H 0.48012 0.95769 0.47829 0.0
H384 H 0.49055 0.90855 0.43565 0.0
H385 H 0.37799 0.04379 0.59769 0.0
H386 H 0.42217 0.03531 0.49127 0.0
H387 H 0.46182 0.83262 0.51619 0.0
H388 H 0.33315 0.08243 0.5761 0.0
H389 H 0.37676 0.07272 0.46962 0.0
C390 C 0.18426 0.22026 0.62134 0.0
C391 C 0.21688 0.20697 0.61009 0.0
C392 C 0.18185 0.23841 0.65448 0.0
C393 C 0.21205 0.24382 0.67696 0.0
C394 C 0.24432 0.22935 0.66635 0.0
C395 C 0.24668 0.21093 0.63324 0.0
C396 C 0.21086 0.26786 0.70931 0.0
C397 C 0.18133 0.26583 0.73253 0.0
C398 C 0.17845 0.29172 0.76042 0.0
C399 C 0.20579 0.31895 0.76567 0.0
C400 C 0.23501 0.32179 0.74232 0.0
C401 C 0.23753 0.29585 0.71445 0.0
C402 C 0.26121 0.35336 0.74528 0.0
C403 C 0.24961 0.38744 0.75467 0.0
C404 C 0.29771 0.34994 0.73783 0.0
C405 C 0.32203 0.37991 0.73975 0.0
C406 C 0.31042 0.41377 0.74971 0.0
C407 C 0.14522 0.29326 0.7816 0.0
C408 C 0.12841 0.3256 0.78482 0.0
C409 C 0.13008 0.26316 0.79849 0.0
C410 C 0.09883 0.26566 0.81881 0.0
C411 C 0.08208 0.29814 0.82194 0.0
C412 C 0.09716 0.32798 0.80464 0.0
C413 C 0.27402 0.41726 0.7572 0.0
H414 H 0.16072 0.21738 0.6042 0.0
H415 H 0.15677 0.24966 0.66174 0.0
H416 H 0.26797 0.23306 0.68332 0.0
H417 H 0.2721 0.20077 0.62538 0.0
H418 H 0.1599 0.24514 0.72795 0.0
H419 H 0.2591 0.29866 0.69526 0.0
H420 H 0.20368 0.33858 0.78757 0.0
H421 H 0.22156 0.39129 0.75964 0.0
H422 H 0.30762 0.32406 0.7309 0.0
H423 H 0.35005 0.37641 0.73418 0.0
H424 H 0.13928 0.34907 0.77163 0.0
H425 H 0.14264 0.23795 0.79633 0.0
H426 H 0.26432 0.44311 0.76469 0.0
H427 H 0.08491 0.35337 0.80646 0.0
H428 H 0.08763 0.24218 0.83174 0.0
C429 C 0.88082 0.29532 0.8091 0.0
C430 C 0.89377 0.26676 0.82724 0.0
C431 C 0.85105 0.28972 0.78634 0.0
C432 C 0.83414 0.25527 0.78064 0.0
C433 C 0.84784 0.22663 0.79834 0.0
C434 C 0.87696 0.23242 0.82179 0.0
C435 C 0.80235 0.24893 0.75649 0.0
C436 C 0.79924 0.26797 0.72522 0.0
C437 C 0.76982 0.26056 0.70185 0.0
C438 C 0.74376 0.23324 0.70942 0.0
C439 C 0.74704 0.21345 0.74006 0.0
C440 C 0.77546 0.22247 0.76402 0.0
C441 C 0.72276 0.18153 0.7462 0.0
C442 C 0.68546 0.18205 0.74176 0.0
C443 C 0.73726 0.1502 0.75732 0.0
C444 C 0.71494 0.12045 0.76524 0.0
C445 C 0.67757 0.12119 0.76195 0.0
C446 C 0.7678 0.27965 0.66824 0.0
C447 C 0.73623 0.29522 0.65835 0.0
C448 C 0.79771 0.28224 0.64574 0.0
C449 C 0.79627 0.30024 0.61404 0.0
C450 C 0.765 0.3164 0.6043 0.0
C451 C 0.73493 0.31374 0.62673 0.0
C452 C 0.663 0.15207 0.74958 0.0
H453 H 0.89329 0.32214 0.81306 0.0
H454 H 0.84106 0.31251 0.77367 0.0
H455 H 0.83638 0.19949 0.79388 0.0
H456 H 0.88678 0.20988 0.83508 0.0
H457 H 0.81997 0.28817 0.71856 0.0
H458 H 0.77677 0.20826 0.78854 0.0
H459 H 0.72208 0.2262 0.69053 0.0
H460 H 0.67364 0.20588 0.73319 0.0
H461 H 0.766 0.14871 0.7601 0.0
H462 H 0.72707 0.09695 0.77423 0.0
H463 H 0.71282 0.29354 0.67537 0.0
H464 H 0.8222 0.27007 0.65254 0.0
H465 H 0.63425 0.15338 0.74671 0.0
H466 H 0.71047 0.3259 0.61985 0.0
H467 H 0.81994 0.30182 0.59737 0.0
C468 C 0.52045 0.65436 0.44471 0.0
C469 C 0.50075 0.68022 0.46251 0.0
C470 C 0.53035 0.62442 0.46262 0.0
C471 C 0.52149 0.62038 0.4989 0.0
C472 C 0.5034 0.64755 0.51687 0.0
C473 C 0.49262 0.6767 0.49875 0.0
C474 C 0.52979 0.58769 0.51793 0.0
C475 C 0.56093 0.56962 0.51027 0.0
C476 C 0.56853 0.53895 0.52862 0.0
C477 C 0.54504 0.52719 0.5556 0.0
C478 C 0.51417 0.54509 0.56403 0.0
C479 C 0.50631 0.57458 0.54439 0.0
C480 C 0.49086 0.53375 0.59424 0.0
C481 C 0.48461 0.49733 0.60121 0.0
C482 C 0.4761 0.55941 0.61743 0.0
C483 C 0.45646 0.54893 0.64738 0.0
C484 C 0.45164 0.51263 0.65503 0.0
C485 C 0.60065 0.51879 0.51963 0.0
C486 C 0.61187 0.51439 0.48395 0.0
C487 C 0.61948 0.50247 0.54649 0.0
C488 C 0.64797 0.48146 0.53779 0.0
C489 C 0.65888 0.47692 0.50215 0.0
C490 C 0.64084 0.49393 0.47536 0.0
C491 C 0.46549 0.48692 0.63142 0.0
H492 H 0.52698 0.65661 0.41668 0.0
H493 H 0.544 0.60405 0.44771 0.0
H494 H 0.49725 0.64635 0.54506 0.0
H495 H 0.47802 0.6967 0.51322 0.0
H496 H 0.57971 0.57986 0.49062 0.0
H497 H 0.48147 0.58712 0.54963 0.0
H498 H 0.55087 0.50399 0.57025 0.0
H499 H 0.49478 0.47678 0.58353 0.0
H500 H 0.48074 0.58773 0.61318 0.0
H501 H 0.44618 0.56932 0.66521 0.0
H502 H 0.5978 0.52605 0.46247 0.0
H503 H 0.61232 0.50593 0.57438 0.0
H504 H 0.46179 0.45868 0.63642 0.0
H505 H 0.64867 0.49088 0.4476 0.0
H506 H 0.66176 0.46914 0.55907 0.0
C507 C 0.44393 0.48954 0.88232 0.0
C508 C 0.45675 0.48968 0.84705 0.0
C509 C 0.46631 0.48137 0.91039 0.0
C510 C 0.50204 0.47377 0.90377 0.0
C511 C 0.51504 0.47437 0.86863 0.0
C512 C 0.49251 0.48194 0.84048 0.0
C513 C 0.52624 0.46718 0.93375 0.0
C514 C 0.51598 0.44223 0.95937 0.0
C515 C 0.53792 0.43802 0.98942 0.0
C516 C 0.57007 0.45959 0.99354 0.0
C517 C 0.58069 0.48415 0.96781 0.0
C518 C 0.55897 0.48748 0.93777 0.0
C519 C 0.6126 0.50898 0.97395 0.0
C520 C 0.61557 0.53021 0.00571 0.0
C521 C 0.63881 0.51344 0.94738 0.0
C522 C 0.66739 0.53926 0.95239 0.0
C523 C 0.66954 0.56142 0.98366 0.0
C524 C 0.52709 0.41183 0.01686 0.0
C525 C 0.49078 0.40529 0.02587 0.0
C526 C 0.55304 0.39324 0.03447 0.0
C527 C 0.54292 0.36879 0.06033 0.0
C528 C 0.5066 0.36186 0.06864 0.0
C529 C 0.48064 0.38036 0.05121 0.0
C530 C 0.64363 0.55638 0.01042 0.0
H531 H 0.41642 0.49508 0.88818 0.0
H532 H 0.45587 0.48153 0.93737 0.0
H533 H 0.54255 0.46868 0.86293 0.0
H534 H 0.50313 0.48176 0.81357 0.0
H535 H 0.49106 0.42595 0.95554 0.0
H536 H 0.56658 0.50741 0.91854 0.0
H537 H 0.58666 0.45794 0.01715 0.0
H538 H 0.59546 0.52742 0.02639 0.0
H539 H 0.6369 0.49724 0.92266 0.0
H540 H 0.68704 0.54268 0.93138 0.0
H541 H 0.47008 0.41961 0.01358 0.0
H542 H 0.5812 0.39704 0.02787 0.0
H543 H 0.64482 0.57293 0.03492 0.0
H544 H 0.45241 0.3757 0.05728 0.0
H545 H 0.56346 0.3546 0.07308 0.0
C546 C 0.61082 0.21026 0.23403 0.0
C547 C 0.60329 0.2424 0.21843 0.0
C548 C 0.64521 0.20531 0.24684 0.0
C549 C 0.67256 0.23262 0.24478 0.0
C550 C 0.66552 0.26417 0.22782 0.0
C551 C 0.63122 0.26886 0.21436 0.0
C552 C 0.70573 0.23087 0.2661 0.0
C553 C 0.72713 0.20145 0.26283 0.0
C554 C 0.75539 0.19812 0.28721 0.0
C555 C 0.76197 0.22451 0.31474 0.0
C556 C 0.7404 0.25366 0.31852 0.0
C557 C 0.71278 0.25685 0.29368 0.0
C558 C 0.74412 0.27899 0.35012 0.0
C559 C 0.75024 0.26642 0.38432 0.0
C560 C 0.73894 0.31548 0.34674 0.0
C561 C 0.73904 0.33869 0.3769 0.0
C562 C 0.74477 0.32603 0.4111 0.0
C563 C 0.77614 0.16571 0.28631 0.0
C564 C 0.78033 0.14731 0.31778 0.0
C565 C 0.79195 0.15304 0.2546 0.0
C566 C 0.8119 0.12264 0.25455 0.0
C567 C 0.81574 0.10409 0.28607 0.0
C568 C 0.79971 0.11679 0.31762 0.0
C569 C 0.75075 0.28974 0.41446 0.0
H570 H 0.58991 0.18916 0.23706 0.0
H571 H 0.64984 0.18102 0.26029 0.0
H572 H 0.68621 0.28573 0.22628 0.0
H573 H 0.62622 0.29377 0.20223 0.0
H574 H 0.72088 0.18058 0.24236 0.0
H575 H 0.69488 0.27831 0.29729 0.0
H576 H 0.7836 0.22197 0.33366 0.0
H577 H 0.75366 0.23836 0.38797 0.0
H578 H 0.73462 0.3261 0.32073 0.0
H579 H 0.7349 0.36664 0.37336 0.0
H580 H 0.76814 0.15626 0.34253 0.0
H581 H 0.78919 0.16685 0.23002 0.0
H582 H 0.75531 0.27919 0.44046 0.0
H583 H 0.80209 0.10311 0.34234 0.0
H584 H 0.82376 0.11333 0.22977 0.0
C585 C 0.47803 0.17544 0.06313 0.0
C586 C 0.47718 0.17517 0.10062 0.0
C587 C 0.47873 0.14347 0.04282 0.0
C588 C 0.47809 0.11072 0.05963 0.0
C589 C 0.4761 0.11024 0.097 0.0
C590 C 0.47598 0.14229 0.1174 0.0
C591 C 0.47852 0.07716 0.03782 0.0
C592 C 0.50426 0.07354 0.01096 0.0
C593 C 0.50201 0.04369 0.98707 0.0
C594 C 0.47373 0.01756 0.98983 0.0
C595 C 0.44761 0.02135 0.01623 0.0
C596 C 0.45064 0.05058 0.04088 0.0
C597 C 0.41389 -0.00105 0.01381 0.0
C598 C 0.39196 0.00053 0.98352 0.0
C599 C 0.40239 0.97788 0.04212 0.0
C600 C 0.36941 0.958 0.0398 0.0
C601 C 0.34724 0.95982 0.00955 0.0
C602 C 0.52524 0.04287 0.95555 0.0
C603 C 0.52239 0.06887 0.93013 0.0
C604 C 0.5481 0.01511 0.94933 0.0
C605 C 0.56788 0.01335 0.91771 0.0
C606 C 0.56403 0.03873 0.89169 0.0
C607 C 0.54136 0.06662 0.89828 0.0
C608 C 0.35873 0.98137 0.98153 0.0
H609 H 0.47913 0.20037 0.04947 0.0
H610 H 0.47965 0.14431 0.01392 0.0
H611 H 0.47534 0.08516 0.11038 0.0
H612 H 0.47526 0.14133 0.14628 0.0
H613 H 0.5253 0.09455 0.00782 0.0
H614 H 0.42961 0.05423 0.06037 0.0
H615 H 0.47064 -0.00438 0.96992 0.0
H616 H 0.40031 0.01713 0.96165 0.0
H617 H 0.41896 0.97674 0.06582 0.0
H618 H 0.36105 0.94156 0.06177 0.0
H619 H 0.50457 0.09028 0.93444 0.0
H620 H 0.55033 -0.00527 0.96871 0.0
H621 H 0.34228 0.98302 0.95782 0.0
H622 H 0.53816 0.08663 0.87869 0.0
H623 H 0.58516 -0.00844 0.91307 0.0
O624 O 0.25935 0.84145 0.97189 0.0
Cd625 Cd 0.26802 0.86995 0.01991 0.0
Cd626 Cd 0.23858 0.92269 0.97873 0.0
O627 O 0.23464 0.88191 0.94038 0.0
O628 O 0.29036 0.83401 0.04862 0.0
O629 O 0.23978 0.85738 0.06426 0.0
C630 C 0.26466 0.83636 0.07115 0.0
C631 C 0.18931 0.95515 0.99295 0.0
C632 C 0.2458 0.85086 0.94285 0.0
C633 C 0.31286 0.93842 0.00651 0.0
O634 O 0.28833 0.94814 0.98627 0.0
O635 O 0.30881 0.90961 0.023 0.0
O636 O 0.20627 0.95933 0.9633 0.0
O637 O 0.20003 0.93188 0.0144 0.0
O638 O 0.16782 0.56522 0.28872 0.0
Cd639 Cd 0.1453 0.51942 0.3107 0.0
Cd640 Cd 0.08563 0.54748 0.27847 0.0
O641 O 0.12079 0.58899 0.26604 0.0
O642 O 0.189 0.49885 0.32935 0.0
O643 O 0.15307 0.47036 0.28886 0.0
C644 C 0.18154 0.47104 0.30864 0.0
C645 C 0.04904 0.52303 0.23246 0.0
C646 C 0.15419 0.59017 0.27247 0.0
C647 C 0.08245 0.5359 0.3572 0.0
O648 O 0.06724 0.5466 0.32967 0.0
O649 O 0.11326 0.52356 0.35534 0.0
O650 O 0.04218 0.55254 0.24919 0.0
O651 O 0.07664 0.50681 0.24236 0.0
O652 O 0.73279 0.6969 0.97463 0.0
Cd653 Cd 0.72268 0.66399 0.01673 0.0
Cd654 Cd 0.77162 0.62429 0.98319 0.0
O655 O 0.77951 0.66948 0.95417 0.0
O656 O 0.69408 0.69185 0.05102 0.0
O657 O 0.74779 0.67408 0.06397 0.0
C658 C 0.71974 0.69023 0.07388 0.0
C659 C 0.82123 0.59909 0.0067 0.0
C660 C 0.75906 0.69514 0.95331 0.0
C661 C 0.69765 0.59069 0.98829 0.0
O662 O 0.72754 0.58908 0.97244 0.0
O663 O 0.69153 0.61751 0.00858 0.0
O664 O 0.81391 0.59637 0.97296 0.0
O665 O 0.80061 0.61705 0.02733 0.0
O666 O 0.94007 0.984 0.28577 0.0
Cd667 Cd 0.90784 0.98324 0.24131 0.0
Cd668 Cd 0.86212 0.0164 0.28664 0.0
O669 O 0.90289 0.00979 0.32294 0.0
O670 O 0.93898 0.97062 0.20047 0.0
O671 O 0.91371 0.0223 0.20633 0.0
C672 C 0.93387 0.00147 0.18826 0.0
C673 C 0.8349 0.0708 0.28624 0.0
C674 C 0.93237 -0.0045 0.31703 0.0
C675 C 0.83639 0.94503 0.25357 0.0
O676 O 0.82898 0.97176 0.27352 0.0
O677 O 0.86651 0.94437 0.23806 0.0
O678 O 0.83018 0.0494 0.31206 0.0
O679 O 0.85603 0.06176 0.26061 0.0
O680 O 0.2328 0.19689 0.47462 0.0
Cd681 Cd 0.22268 0.16397 0.51673 0.0
Cd682 Cd 0.27163 0.12428 0.48319 0.0
O683 O 0.27951 0.16947 0.45418 0.0
O684 O 0.19407 0.19183 0.55102 0.0
O685 O 0.24779 0.17407 0.56397 0.0
C686 C 0.21973 0.19022 0.57388 0.0
C687 C 0.32124 0.09908 0.5067 0.0
C688 C 0.25907 0.19513 0.45331 0.0
C689 C 0.19767 0.09068 0.48828 0.0
O690 O 0.22755 0.08907 0.47244 0.0
O691 O 0.19153 0.11749 0.50858 0.0
O692 O 0.31392 0.09636 0.47296 0.0
O693 O 0.30062 0.11704 0.52733 0.0
O694 O 0.44006 0.484 0.78577 0.0
Cd695 Cd 0.40783 0.48323 0.7413 0.0
Cd696 Cd 0.36211 0.5164 0.78663 0.0
O697 O 0.40288 0.50979 0.82293 0.0
O698 O 0.43898 0.47061 0.70047 0.0
O699 O 0.41372 0.5223 0.70632 0.0
C700 C 0.43388 0.50147 0.68826 0.0
C701 C 0.33489 0.5708 0.78622 0.0
C702 C 0.43235 0.4955 0.81702 0.0
C703 C 0.33638 0.44503 0.75355 0.0
O704 O 0.32897 0.47176 0.77349 0.0
O705 O 0.3665 0.44437 0.73804 0.0
O706 O 0.33017 0.54939 0.81205 0.0
O707 O 0.35602 0.56176 0.7606 0.0
O708 O 0.75937 0.34146 0.4719 0.0
Cd709 Cd 0.76804 0.36995 0.51992 0.0
Cd710 Cd 0.73861 0.4227 0.47874 0.0
O711 O 0.73467 0.38191 0.44039 0.0
O712 O 0.79037 0.33401 0.54863 0.0
O713 O 0.73979 0.35739 0.56427 0.0
C714 C 0.76467 0.33636 0.57116 0.0
C715 C 0.68935 0.45516 0.49296 0.0
C716 C 0.74582 0.35086 0.44286 0.0
C717 C 0.8129 0.43841 0.50652 0.0
O718 O 0.78837 0.44814 0.48628 0.0
O719 O 0.80884 0.4096 0.52302 0.0
O720 O 0.70631 0.45934 0.46331 0.0
O721 O 0.70007 0.43189 0.51442 0.0
O722 O 0.66781 0.06523 0.78874 0.0
Cd723 Cd 0.64529 0.01942 0.8107 0.0
Cd724 Cd 0.58563 0.04748 0.77846 0.0
O725 O 0.62079 0.08899 0.76603 0.0
O726 O 0.68899 -0.00115 0.82936 0.0
O727 O 0.65307 0.97037 0.78886 0.0
C728 C 0.68153 0.97104 0.80864 0.0
C729 C 0.54905 0.02302 0.73245 0.0
C730 C 0.65419 0.09018 0.77248 0.0
C731 C 0.58243 0.03591 0.85719 0.0
O732 O 0.56723 0.0466 0.82966 0.0
O733 O 0.61324 0.02356 0.85534 0.0
O734 O 0.54218 0.05253 0.74917 0.0
O735 O 0.57665 0.0068 0.74236 0.0
O736 O 0.96692 0.30597 0.95161 0.0
Cd737 Cd 0.96663 0.2606 0.91802 0.0
Cd738 Cd -0.00432 0.30748 0.87336 0.0
O739 O 0.99495 0.34352 0.91587 0.0
O740 O 0.95665 0.2219 0.95183 0.0
O741 O 0.00653 0.227 0.92007 0.0
C742 C 0.9875 0.21049 0.94377 0.0
C743 C 0.04869 0.30131 0.84243 0.0
C744 C 0.98038 0.33714 0.94567 0.0
C745 C 0.92493 0.27275 0.85146 0.0
O746 O 0.94873 0.29742 0.84533 0.0
O747 O 0.9278 0.25334 0.87823 0.0
O748 O 0.03029 0.3289 0.8393 0.0
O749 O 0.037 0.27693 0.86368 0.0
O750 O 0.46691 0.80594 0.45161 0.0
Cd751 Cd 0.46662 0.76058 0.41801 0.0
Cd752 Cd 0.49568 0.80746 0.37336 0.0
O753 O 0.49495 0.84349 0.41586 0.0
O754 O 0.45665 0.72187 0.45182 0.0
O755 O 0.50653 0.72699 0.42007 0.0
C756 C 0.4875 0.71048 0.44376 0.0
C757 C 0.54869 0.80129 0.34243 0.0
C758 C 0.48037 0.83712 0.44567 0.0
C759 C 0.42493 0.77273 0.35145 0.0
O760 O 0.44874 0.7974 0.34532 0.0
O761 O 0.4278 0.75332 0.37822 0.0
O762 O 0.53029 0.82889 0.33931 0.0
O763 O 0.53701 0.77691 0.36368 0.0
O764 O 0.97 0.77681 0.71745 0.0
Cd765 Cd 0.00775 0.75216 0.68686 0.0
Cd766 Cd 0.9775 0.78862 0.63155 0.0
O767 O 0.94284 0.80042 0.67253 0.0
O768 O 0.03963 0.72933 0.72033 0.0
O769 O 0.05941 0.77104 0.6838 0.0
C770 C 0.06622 0.74807 0.70723 0.0
C771 C -0.00453 0.83427 0.59403 0.0
C772 C 0.94473 0.79417 0.70557 0.0
C773 C 0.98023 0.70909 0.62206 0.0
O774 O 0.97465 0.73819 0.60756 0.0
O775 O 0.99103 0.70909 0.65418 0.0
O776 O 0.96325 0.81965 0.59293 0.0
O777 O 0.01763 0.82336 0.61711 0.0
O778 O 0.47001 0.2768 0.21746 0.0
Cd779 Cd 0.50776 0.25216 0.18686 0.0
Cd780 Cd 0.47751 0.28864 0.13155 0.0
O781 O 0.44285 0.30042 0.17254 0.0
O782 O 0.53963 0.22933 0.22033 0.0
O783 O 0.55942 0.27104 0.1838 0.0
C784 C 0.56622 0.24806 0.20724 0.0
C785 C 0.49547 0.33429 0.09404 0.0
C786 C 0.44474 0.29417 0.20558 0.0
C787 C 0.48023 0.2091 0.12205 0.0
O788 O 0.47466 0.2382 0.10757 0.0
O789 O 0.49104 0.2091 0.15418 0.0
O790 O 0.46325 0.31966 0.09294 0.0
O791 O 0.51764 0.32338 0.11711 0.0
loop_
_geom_bond_atom_site_label_1
_geom_bond_atom_site_label_2
_geom_bond_distance
_geom_bond_site_symmetry_2
_ccdc_geom_bond_type
C0 C1 1.386 . S
C0 C2 1.397 . S
C0 H24 0.931 1_554 S
C1 C0 1.386 . S
C1 C5 1.397 . S
C2 C0 1.397 . S
C2 C3 1.384 . S
C2 H25 0.930 . S
C3 C2 1.384 . S
C3 C4 1.377 . S
C3 C6 1.481 . S
C4 C3 1.377 . S
C4 C5 1.389 . S
C4 H26 0.929 . S
C5 C1 1.397 . S
C5 C4 1.389 . S
C5 H27 0.931 . S
C6 C3 1.481 . S
C6 C7 1.387 . S
C6 C11 1.390 . S
C7 C6 1.387 . S
C7 C8 1.401 . S
C7 H28 0.930 . S
C8 C7 1.401 . S
C8 C9 1.376 . S
C8 C17 1.511 . S
C9 C8 1.376 . S
C9 C10 1.392 . S
C9 H30 0.931 . S
C10 C9 1.392 . S
C10 C11 1.361 . S
C10 C12 1.500 . S
C11 C6 1.390 . S
C11 C10 1.361 . S
C11 H29 0.931 . S
C12 C10 1.500 . S
C12 C13 1.371 . S
C12 C14 1.365 . S
C13 C12 1.371 . S
C13 C23 1.386 . S
C13 H31 0.931 . S
C14 C12 1.365 . S
C14 C15 1.409 . S
C14 H32 0.929 . S
C15 C14 1.409 . S
C15 C16 1.380 . S
C15 H33 0.930 . S
C16 C15 1.380 . S
C16 C23 1.357 . S
C17 C8 1.511 . S
C17 C18 1.341 . S
C17 C19 1.371 . S
C18 C17 1.341 . S
C18 C22 1.394 . S
C18 H34 0.930 . S
C19 C17 1.371 . S
C19 C20 1.392 . S
C19 H35 0.931 . S
C20 C19 1.392 . S
C20 C21 1.331 . S
C20 H38 0.932 . S
C21 C20 1.331 . S
C21 C22 1.336 . S
C22 C18 1.394 . S
C22 C21 1.336 . S
C22 H37 0.929 . S
C23 C13 1.386 . S
C23 C16 1.357 . S
C23 H36 0.928 . S
H24 C0 0.931 1_556 S
H25 C2 0.930 . S
H26 C4 0.929 . S
H27 C5 0.931 . S
H28 C7 0.930 . S
H29 C11 0.931 . S
H30 C9 0.931 . S
H31 C13 0.931 . S
H32 C14 0.929 . S
H33 C15 0.930 . S
H34 C18 0.930 . S
H35 C19 0.931 . S
H36 C23 0.928 . S
H37 C22 0.929 . S
H38 C20 0.932 . S
C39 C40 1.386 . S
C39 C41 1.397 . S
C39 H63 0.931 . S
C40 C39 1.386 . S
C40 C44 1.397 . S
C41 C39 1.397 . S
C41 C42 1.384 . S
C41 H64 0.930 . S
C42 C41 1.384 . S
C42 C43 1.377 . S
C42 C45 1.481 . S
C43 C42 1.377 . S
C43 C44 1.389 . S
C43 H65 0.929 . S
C44 C40 1.397 . S
C44 C43 1.389 . S
C44 H66 0.931 . S
C45 C42 1.481 . S
C45 C46 1.387 . S
C45 C50 1.390 . S
C46 C45 1.387 . S
C46 C47 1.401 . S
C46 H67 0.930 . S
C47 C46 1.401 . S
C47 C48 1.376 . S
C47 C56 1.511 . S
C48 C47 1.376 . S
C48 C49 1.392 . S
C48 H69 0.931 . S
C49 C48 1.392 . S
C49 C50 1.361 . S
C49 C51 1.500 . S
C50 C45 1.390 . S
C50 C49 1.361 . S
C50 H68 0.931 . S
C51 C49 1.500 . S
C51 C52 1.371 . S
C51 C53 1.365 . S
C52 C51 1.371 . S
C52 C62 1.386 . S
C52 H70 0.931 . S
C53 C51 1.365 . S
C53 C54 1.409 . S
C53 H71 0.929 . S
C54 C53 1.409 . S
C54 C55 1.380 . S
C54 H72 0.930 . S
C55 C54 1.380 . S
C55 C62 1.357 . S
C56 C47 1.511 . S
C56 C57 1.341 . S
C56 C58 1.371 . S
C57 C56 1.341 . S
C57 C61 1.394 . S
C57 H73 0.930 . S
C58 C56 1.371 . S
C58 C59 1.392 . S
C58 H74 0.931 . S
C59 C58 1.392 . S
C59 C60 1.331 . S
C59 H77 0.932 . S
C60 C59 1.331 . S
C60 C61 1.336 . S
C61 C57 1.394 . S
C61 C60 1.336 . S
C61 H76 0.929 . S
C62 C52 1.386 . S
C62 C55 1.357 . S
C62 H75 0.928 . S
H63 C39 0.931 . S
H64 C41 0.930 . S
H65 C43 0.929 . S
H66 C44 0.931 . S
H67 C46 0.930 . S
H68 C50 0.931 . S
H69 C48 0.931 . S
H70 C52 0.931 . S
H71 C53 0.929 . S
H72 C54 0.930 . S
H73 C57 0.930 . S
H74 C58 0.931 . S
H75 C62 0.928 . S
H76 C61 0.929 . S
H77 C59 0.932 . S
C78 C79 1.386 . S
C78 C80 1.397 . S
C78 H102 0.931 . S
C79 C78 1.386 . S
C79 C83 1.397 1_655 S
C80 C78 1.397 . S
C80 C81 1.384 . S
C80 H103 0.930 . S
C81 C80 1.384 . S
C81 C82 1.377 . S
C81 C84 1.481 . S
C82 C81 1.377 . S
C82 C83 1.389 1_655 S
C82 H104 0.929 . S
C83 C79 1.397 1_455 S
C83 C82 1.389 1_455 S
C83 H105 0.931 . S
C84 C81 1.481 . S
C84 C85 1.387 . S
C84 C89 1.390 . S
C85 C84 1.387 . S
C85 C86 1.401 . S
C85 H106 0.930 . S
C86 C85 1.401 . S
C86 C87 1.376 . S
C86 C95 1.511 . S
C87 C86 1.376 . S
C87 C88 1.392 . S
C87 H108 0.931 . S
C88 C87 1.392 . S
C88 C89 1.361 . S
C88 C90 1.500 . S
C89 C84 1.390 . S
C89 C88 1.361 . S
C89 H107 0.931 . S
C90 C88 1.500 . S
C90 C91 1.371 . S
C90 C92 1.365 . S
C91 C90 1.371 . S
C91 C101 1.386 1_554 S
C91 H109 0.931 . S
C92 C90 1.365 . S
C92 C93 1.409 . S
C92 H110 0.929 . S
C93 C92 1.409 . S
C93 C94 1.380 1_554 S
C93 H111 0.930 . S
C94 C93 1.380 1_556 S
C94 C101 1.357 . S
C95 C86 1.511 . S
C95 C96 1.341 . S
C95 C97 1.371 . S
C96 C95 1.341 . S
C96 C100 1.394 . S
C96 H112 0.930 . S
C97 C95 1.371 . S
C97 C98 1.392 . S
C97 H113 0.931 . S
C98 C97 1.392 . S
C98 C99 1.331 . S
C98 H116 0.932 . S
C99 C98 1.331 . S
C99 C100 1.336 . S
C100 C96 1.394 . S
C100 C99 1.336 . S
C100 H115 0.929 . S
C101 C91 1.386 1_556 S
C101 C94 1.357 . S
C101 H114 0.928 . S
H102 C78 0.931 . S
H103 C80 0.930 . S
H104 C82 0.929 . S
H105 C83 0.931 . S
H106 C85 0.930 . S
H107 C89 0.931 . S
H108 C87 0.931 . S
H109 C91 0.931 . S
H110 C92 0.929 . S
H111 C93 0.930 . S
H112 C96 0.930 . S
H113 C97 0.931 . S
H114 C101 0.928 . S
H115 C100 0.929 . S
H116 C98 0.932 . S
C117 C118 1.386 . S
C117 C119 1.397 . S
C117 H141 0.931 . S
C118 C117 1.386 . S
C118 C122 1.397 . S
C119 C117 1.397 . S
C119 C120 1.384 . S
C119 H142 0.930 . S
C120 C119 1.384 . S
C120 C121 1.377 . S
C120 C123 1.481 . S
C121 C120 1.377 . S
C121 C122 1.389 . S
C121 H143 0.929 . S
C122 C118 1.397 . S
C122 C121 1.389 . S
C122 H144 0.931 . S
C123 C120 1.481 . S
C123 C124 1.387 . S
C123 C128 1.390 . S
C124 C123 1.387 . S
C124 C125 1.401 . S
C124 H145 0.930 . S
C125 C124 1.401 . S
C125 C126 1.376 . S
C125 C134 1.511 . S
C126 C125 1.376 . S
C126 C127 1.392 . S
C126 H147 0.931 . S
C127 C126 1.392 . S
C127 C128 1.361 . S
C127 C129 1.500 . S
C128 C123 1.390 . S
C128 C127 1.361 . S
C128 H146 0.931 . S
C129 C127 1.500 . S
C129 C130 1.371 . S
C129 C131 1.365 . S
C130 C129 1.371 . S
C130 C140 1.386 . S
C130 H148 0.931 . S
C131 C129 1.365 . S
C131 C132 1.409 . S
C131 H149 0.929 . S
C132 C131 1.409 . S
C132 C133 1.380 . S
C132 H150 0.930 . S
C133 C132 1.380 . S
C133 C140 1.357 . S
C134 C125 1.511 . S
C134 C135 1.341 . S
C134 C136 1.371 . S
C135 C134 1.341 . S
C135 C139 1.394 . S
C135 H151 0.930 . S
C136 C134 1.371 . S
C136 C137 1.392 . S
C136 H152 0.931 . S
C137 C136 1.392 . S
C137 C138 1.331 . S
C137 H155 0.932 . S
C138 C137 1.331 . S
C138 C139 1.336 . S
C139 C135 1.394 . S
C139 C138 1.336 . S
C139 H154 0.929 . S
C140 C130 1.386 . S
C140 C133 1.357 . S
C140 H153 0.928 . S
H141 C117 0.931 . S
H142 C119 0.930 . S
H143 C121 0.929 . S
H144 C122 0.931 . S
H145 C124 0.930 . S
H146 C128 0.931 . S
H147 C126 0.931 . S
H148 C130 0.931 . S
H149 C131 0.929 . S
H150 C132 0.930 . S
H151 C135 0.930 . S
H152 C136 0.931 . S
H153 C140 0.928 . S
H154 C139 0.929 . S
H155 C137 0.932 . S
C156 C157 1.386 . S
C156 C158 1.397 . S
C156 H180 0.931 . S
C157 C156 1.386 . S
C157 C161 1.397 1_655 S
C158 C156 1.397 . S
C158 C159 1.384 1_655 S
C158 H181 0.930 . S
C159 C158 1.384 1_455 S
C159 C160 1.377 . S
C159 C162 1.481 . S
C160 C159 1.377 . S
C160 C161 1.389 . S
C160 H182 0.929 . S
C161 C157 1.397 1_455 S
C161 C160 1.389 . S
C161 H183 0.931 . S
C162 C159 1.481 . S
C162 C163 1.387 . S
C162 C167 1.390 . S
C163 C162 1.387 . S
C163 C164 1.401 . S
C163 H184 0.930 . S
C164 C163 1.401 . S
C164 C165 1.376 . S
C164 C173 1.511 . S
C165 C164 1.376 . S
C165 C166 1.392 . S
C165 H186 0.931 . S
C166 C165 1.392 . S
C166 C167 1.361 . S
C166 C168 1.500 1_565 S
C167 C162 1.390 . S
C167 C166 1.361 . S
C167 H185 0.931 1_565 S
C168 C166 1.500 1_545 S
C168 C169 1.371 . S
C168 C170 1.365 . S
C169 C168 1.371 . S
C169 C179 1.386 . S
C169 H187 0.931 1_545 S
C170 C168 1.365 . S
C170 C171 1.409 . S
C170 H188 0.929 . S
C171 C170 1.409 . S
C171 C172 1.380 . S
C171 H189 0.930 . S
C172 C171 1.380 . S
C172 C179 1.357 . S
C173 C164 1.511 . S
C173 C174 1.341 . S
C173 C175 1.371 . S
C174 C173 1.341 . S
C174 C178 1.394 . S
C174 H190 0.930 . S
C175 C173 1.371 . S
C175 C176 1.392 . S
C175 H191 0.931 . S
C176 C175 1.392 . S
C176 C177 1.331 . S
C176 H194 0.932 . S
C177 C176 1.331 . S
C177 C178 1.336 . S
C178 C174 1.394 . S
C178 C177 1.336 . S
C178 H193 0.929 1_455 S
C179 C169 1.386 . S
C179 C172 1.357 . S
C179 H192 0.928 . S
H180 C156 0.931 . S
H181 C158 0.930 . S
H182 C160 0.929 . S
H183 C161 0.931 . S
H184 C163 0.930 . S
H185 C167 0.931 1_545 S
H186 C165 0.931 . S
H187 C169 0.931 1_565 S
H188 C170 0.929 . S
H189 C171 0.930 . S
H190 C174 0.930 . S
H191 C175 0.931 . S
H192 C179 0.928 . S
H193 C178 0.929 1_655 S
H194 C176 0.932 . S
C195 C196 1.386 . S
C195 C197 1.397 . S
C195 H219 0.931 . S
C196 C195 1.386 . S
C196 C200 1.397 . S
C197 C195 1.397 . S
C197 C198 1.384 . S
C197 H220 0.930 . S
C198 C197 1.384 . S
C198 C199 1.377 . S
C198 C201 1.481 . S
C199 C198 1.377 . S
C199 C200 1.389 . S
C199 H221 0.929 . S
C200 C196 1.397 . S
C200 C199 1.389 . S
C200 H222 0.931 . S
C201 C198 1.481 . S
C201 C202 1.387 . S
C201 C206 1.390 . S
C202 C201 1.387 . S
C202 C203 1.401 . S
C202 H223 0.930 . S
C203 C202 1.401 . S
C203 C204 1.376 . S
C203 C212 1.511 . S
C204 C203 1.376 . S
C204 C205 1.392 . S
C204 H225 0.931 . S
C205 C204 1.392 . S
C205 C206 1.361 . S
C205 C207 1.500 . S
C206 C201 1.390 . S
C206 C205 1.361 . S
C206 H224 0.931 . S
C207 C205 1.500 . S
C207 C208 1.371 . S
C207 C209 1.365 . S
C208 C207 1.371 . S
C208 C218 1.386 . S
C208 H226 0.931 . S
C209 C207 1.365 . S
C209 C210 1.409 . S
C209 H227 0.929 . S
C210 C209 1.409 . S
C210 C211 1.380 . S
C210 H228 0.930 . S
C211 C210 1.380 . S
C211 C218 1.357 . S
C212 C203 1.511 . S
C212 C213 1.341 . S
C212 C214 1.371 . S
C213 C212 1.341 . S
C213 C217 1.394 . S
C213 H229 0.930 . S
C214 C212 1.371 . S
C214 C215 1.392 . S
C214 H230 0.931 . S
C215 C214 1.392 . S
C215 C216 1.331 . S
C215 H233 0.932 . S
C216 C215 1.331 . S
C216 C217 1.336 . S
C217 C213 1.394 . S
C217 C216 1.336 . S
C217 H232 0.929 . S
C218 C208 1.386 . S
C218 C211 1.357 . S
C218 H231 0.928 . S
H219 C195 0.931 . S
H220 C197 0.930 . S
H221 C199 0.929 . S
H222 C200 0.931 . S
H223 C202 0.930 . S
H224 C206 0.931 . S
H225 C204 0.931 . S
H226 C208 0.931 . S
H227 C209 0.929 . S
H228 C210 0.930 . S
H229 C213 0.930 . S
H230 C214 0.931 . S
H231 C218 0.928 . S
H232 C217 0.929 . S
H233 C215 0.932 . S
C234 C235 1.386 . S
C234 C236 1.397 . S
C234 H258 0.931 . S
C235 C234 1.386 . S
C235 C239 1.397 . S
C236 C234 1.397 . S
C236 C237 1.384 . S
C236 H259 0.930 . S
C237 C236 1.384 . S
C237 C238 1.377 . S
C237 C240 1.481 . S
C238 C237 1.377 . S
C238 C239 1.389 . S
C238 H260 0.929 . S
C239 C235 1.397 . S
C239 C238 1.389 . S
C239 H261 0.931 . S
C240 C237 1.481 . S
C240 C241 1.387 . S
C240 C245 1.390 . S
C241 C240 1.387 . S
C241 C242 1.401 . S
C241 H262 0.930 . S
C242 C241 1.401 . S
C242 C243 1.376 . S
C242 C251 1.511 . S
C243 C242 1.376 . S
C243 C244 1.392 . S
C243 H264 0.931 . S
C244 C243 1.392 . S
C244 C245 1.361 . S
C244 C246 1.500 . S
C245 C240 1.390 . S
C245 C244 1.361 . S
C245 H263 0.931 . S
C246 C244 1.500 . S
C246 C247 1.371 . S
C246 C248 1.365 . S
C247 C246 1.371 . S
C247 C257 1.386 . S
C247 H265 0.931 . S
C248 C246 1.365 . S
C248 C249 1.409 . S
C248 H266 0.929 . S
C249 C248 1.409 . S
C249 C250 1.380 . S
C249 H267 0.930 . S
C250 C249 1.380 . S
C250 C257 1.357 . S
C251 C242 1.511 . S
C251 C252 1.341 . S
C251 C253 1.371 . S
C252 C251 1.341 . S
C252 C256 1.394 1_655 S
C252 H268 0.930 . S
C253 C251 1.371 . S
C253 C254 1.392 . S
C253 H269 0.931 . S
C254 C253 1.392 . S
C254 C255 1.331 1_655 S
C254 H272 0.932 . S
C255 C254 1.331 1_455 S
C255 C256 1.336 . S
C256 C252 1.394 1_455 S
C256 C255 1.336 . S
C256 H271 0.929 . S
C257 C247 1.386 . S
C257 C250 1.357 . S
C257 H270 0.928 . S
H258 C234 0.931 . S
H259 C236 0.930 . S
H260 C238 0.929 . S
H261 C239 0.931 . S
H262 C241 0.930 . S
H263 C245 0.931 . S
H264 C243 0.931 . S
H265 C247 0.931 . S
H266 C248 0.929 . S
H267 C249 0.930 . S
H268 C252 0.930 . S
H269 C253 0.931 . S
H270 C257 0.928 . S
H271 C256 0.929 . S
H272 C254 0.932 . S
C273 C274 1.386 . S
C273 C275 1.397 . S
C273 H297 0.931 . S
C274 C273 1.386 . S
C274 C278 1.397 . S
C275 C273 1.397 . S
C275 C276 1.384 . S
C275 H298 0.930 . S
C276 C275 1.384 . S
C276 C277 1.377 . S
C276 C279 1.481 . S
C277 C276 1.377 . S
C277 C278 1.389 . S
C277 H299 0.929 . S
C278 C274 1.397 . S
C278 C277 1.389 . S
C278 H300 0.931 . S
C279 C276 1.481 . S
C279 C280 1.387 . S
C279 C284 1.390 . S
C280 C279 1.387 . S
C280 C281 1.401 . S
C280 H301 0.930 . S
C281 C280 1.401 . S
C281 C282 1.376 . S
C281 C290 1.511 . S
C282 C281 1.376 . S
C282 C283 1.392 . S
C282 H303 0.931 . S
C283 C282 1.392 . S
C283 C284 1.361 . S
C283 C285 1.500 . S
C284 C279 1.390 . S
C284 C283 1.361 . S
C284 H302 0.931 . S
C285 C283 1.500 . S
C285 C286 1.371 . S
C285 C287 1.365 . S
C286 C285 1.371 . S
C286 C296 1.386 . S
C286 H304 0.931 . S
C287 C285 1.365 . S
C287 C288 1.409 . S
C287 H305 0.929 . S
C288 C287 1.409 . S
C288 C289 1.380 . S
C288 H306 0.930 . S
C289 C288 1.380 . S
C289 C296 1.357 . S
C290 C281 1.511 . S
C290 C291 1.341 . S
C290 C292 1.371 . S
C291 C290 1.341 . S
C291 C295 1.394 . S
C291 H307 0.930 . S
C292 C290 1.371 . S
C292 C293 1.392 . S
C292 H308 0.931 . S
C293 C292 1.392 . S
C293 C294 1.331 . S
C293 H311 0.932 . S
C294 C293 1.331 . S
C294 C295 1.336 . S
C295 C291 1.394 . S
C295 C294 1.336 . S
C295 H310 0.929 . S
C296 C286 1.386 . S
C296 C289 1.357 . S
C296 H309 0.928 . S
H297 C273 0.931 . S
H298 C275 0.930 . S
H299 C277 0.929 . S
H300 C278 0.931 . S
H301 C280 0.930 . S
H302 C284 0.931 . S
H303 C282 0.931 . S
H304 C286 0.931 . S
H305 C287 0.929 . S
H306 C288 0.930 . S
H307 C291 0.930 . S
H308 C292 0.931 . S
H309 C296 0.928 . S
H310 C295 0.929 . S
H311 C293 0.932 . S
C312 C313 1.386 . S
C312 C314 1.397 . S
C312 H336 0.931 . S
C313 C312 1.386 . S
C313 C317 1.397 . S
C314 C312 1.397 . S
C314 C315 1.384 . S
C314 H337 0.930 . S
C315 C314 1.384 . S
C315 C316 1.377 . S
C315 C318 1.481 . S
C316 C315 1.377 . S
C316 C317 1.389 . S
C316 H338 0.929 . S
C317 C313 1.397 . S
C317 C316 1.389 . S
C317 H339 0.931 . S
C318 C315 1.481 . S
C318 C319 1.387 . S
C318 C323 1.390 . S
C319 C318 1.387 . S
C319 C320 1.401 . S
C319 H340 0.930 . S
C320 C319 1.401 . S
C320 C321 1.376 . S
C320 C329 1.511 . S
C321 C320 1.376 . S
C321 C322 1.392 . S
C321 H342 0.931 . S
C322 C321 1.392 . S
C322 C323 1.361 . S
C322 C324 1.500 . S
C323 C318 1.390 . S
C323 C322 1.361 . S
C323 H341 0.931 . S
C324 C322 1.500 . S
C324 C325 1.371 . S
C324 C326 1.365 . S
C325 C324 1.371 . S
C325 C335 1.386 . S
C325 H343 0.931 . S
C326 C324 1.365 . S
C326 C327 1.409 . S
C326 H344 0.929 . S
C327 C326 1.409 . S
C327 C328 1.380 . S
C327 H345 0.930 . S
C328 C327 1.380 . S
C328 C335 1.357 . S
C329 C320 1.511 . S
C329 C330 1.341 . S
C329 C331 1.371 . S
C330 C329 1.341 . S
C330 C334 1.394 . S
C330 H346 0.930 . S
C331 C329 1.371 . S
C331 C332 1.392 . S
C331 H347 0.931 . S
C332 C331 1.392 . S
C332 C333 1.331 . S
C332 H350 0.932 . S
C333 C332 1.331 . S
C333 C334 1.336 . S
C334 C330 1.394 . S
C334 C333 1.336 . S
C334 H349 0.929 . S
C335 C325 1.386 . S
C335 C328 1.357 . S
C335 H348 0.928 . S
H336 C312 0.931 . S
H337 C314 0.930 . S
H338 C316 0.929 . S
H339 C317 0.931 . S
H340 C319 0.930 . S
H341 C323 0.931 . S
H342 C321 0.931 . S
H343 C325 0.931 . S
H344 C326 0.929 . S
H345 C327 0.930 . S
H346 C330 0.930 . S
H347 C331 0.931 . S
H348 C335 0.928 . S
H349 C334 0.929 . S
H350 C332 0.932 . S
C351 C352 1.386 . S
C351 C353 1.397 . S
C351 H375 0.931 . S
C352 C351 1.386 . S
C352 C356 1.397 . S
C353 C351 1.397 . S
C353 C354 1.384 . S
C353 H376 0.930 . S
C354 C353 1.384 . S
C354 C355 1.377 . S
C354 C357 1.481 . S
C355 C354 1.377 . S
C355 C356 1.389 . S
C355 H377 0.929 . S
C356 C352 1.397 . S
C356 C355 1.389 . S
C356 H378 0.931 . S
C357 C354 1.481 . S
C357 C358 1.387 . S
C357 C362 1.390 . S
C358 C357 1.387 . S
C358 C359 1.401 . S
C358 H379 0.930 . S
C359 C358 1.401 . S
C359 C360 1.376 . S
C359 C368 1.511 . S
C360 C359 1.376 . S
C360 C361 1.392 . S
C360 H381 0.931 . S
C361 C360 1.392 . S
C361 C362 1.361 . S
C361 C363 1.500 . S
C362 C357 1.390 . S
C362 C361 1.361 . S
C362 H380 0.931 . S
C363 C361 1.500 . S
C363 C364 1.371 . S
C363 C365 1.365 . S
C364 C363 1.371 . S
C364 C374 1.386 . S
C364 H382 0.931 . S
C365 C363 1.365 . S
C365 C366 1.409 . S
C365 H383 0.929 . S
C366 C365 1.409 . S
C366 C367 1.380 . S
C366 H384 0.930 . S
C367 C366 1.380 . S
C367 C374 1.357 . S
C368 C359 1.511 . S
C368 C369 1.341 . S
C368 C370 1.371 . S
C369 C368 1.341 . S
C369 C373 1.394 1_565 S
C369 H385 0.930 . S
C370 C368 1.371 . S
C370 C371 1.392 . S
C370 H386 0.931 . S
C371 C370 1.392 . S
C371 C372 1.331 1_565 S
C371 H389 0.935 . S
C372 C371 1.331 1_545 S
C372 C373 1.336 . S
C373 C369 1.394 1_545 S
C373 C372 1.336 . S
C373 H388 0.929 . S
C374 C364 1.386 . S
C374 C367 1.357 . S
C374 H387 0.928 . S
H375 C351 0.931 . S
H376 C353 0.930 . S
H377 C355 0.929 . S
H378 C356 0.931 . S
H379 C358 0.930 . S
H380 C362 0.931 . S
H381 C360 0.931 . S
H382 C364 0.931 . S
H383 C365 0.929 . S
H384 C366 0.930 . S
H385 C369 0.930 . S
H386 C370 0.931 . S
H387 C374 0.928 . S
H388 C373 0.929 . S
H389 C371 0.935 . S
C390 C391 1.386 . S
C390 C392 1.397 . S
C390 H414 0.931 . S
C391 C390 1.386 . S
C391 C395 1.397 . S
C392 C390 1.397 . S
C392 C393 1.384 . S
C392 H415 0.930 . S
C393 C392 1.384 . S
C393 C394 1.377 . S
C393 C396 1.481 . S
C394 C393 1.377 . S
C394 C395 1.389 . S
C394 H416 0.929 . S
C395 C391 1.397 . S
C395 C394 1.389 . S
C395 H417 0.931 . S
C396 C393 1.481 . S
C396 C397 1.387 . S
C396 C401 1.390 . S
C397 C396 1.387 . S
C397 C398 1.401 . S
C397 H418 0.930 . S
C398 C397 1.401 . S
C398 C399 1.376 . S
C398 C407 1.511 . S
C399 C398 1.376 . S
C399 C400 1.392 . S
C399 H420 0.931 . S
C400 C399 1.392 . S
C400 C401 1.361 . S
C400 C402 1.500 . S
C401 C396 1.390 . S
C401 C400 1.361 . S
C401 H419 0.931 . S
C402 C400 1.500 . S
C402 C403 1.371 . S
C402 C404 1.365 . S
C403 C402 1.371 . S
C403 C413 1.386 . S
C403 H421 0.931 . S
C404 C402 1.365 . S
C404 C405 1.409 . S
C404 H422 0.929 . S
C405 C404 1.409 . S
C405 C406 1.380 . S
C405 H423 0.930 . S
C406 C405 1.380 . S
C406 C413 1.357 . S
C407 C398 1.511 . S
C407 C408 1.341 . S
C407 C409 1.371 . S
C408 C407 1.341 . S
C408 C412 1.394 . S
C408 H424 0.930 . S
C409 C407 1.371 . S
C409 C410 1.392 . S
C409 H425 0.931 . S
C410 C409 1.392 . S
C410 C411 1.331 . S
C410 H428 0.932 . S
C411 C410 1.331 . S
C411 C412 1.336 . S
C412 C408 1.394 . S
C412 C411 1.336 . S
C412 H427 0.929 . S
C413 C403 1.386 . S
C413 C406 1.357 . S
C413 H426 0.928 . S
H414 C390 0.931 . S
H415 C392 0.930 . S
H416 C394 0.929 . S
H417 C395 0.931 . S
H418 C397 0.930 . S
H419 C401 0.931 . S
H420 C399 0.931 . S
H421 C403 0.931 . S
H422 C404 0.929 . S
H423 C405 0.930 . S
H424 C408 0.930 . S
H425 C409 0.931 . S
H426 C413 0.928 . S
H427 C412 0.929 . S
H428 C410 0.932 . S
C429 C430 1.386 . S
C429 C431 1.397 . S
C429 H453 0.931 . S
C430 C429 1.386 . S
C430 C434 1.397 . S
C431 C429 1.397 . S
C431 C432 1.384 . S
C431 H454 0.930 . S
C432 C431 1.384 . S
C432 C433 1.377 . S
C432 C435 1.481 . S
C433 C432 1.377 . S
C433 C434 1.389 . S
C433 H455 0.929 . S
C434 C430 1.397 . S
C434 C433 1.389 . S
C434 H456 0.931 . S
C435 C432 1.481 . S
C435 C436 1.387 . S
C435 C440 1.390 . S
C436 C435 1.387 . S
C436 C437 1.401 . S
C436 H457 0.930 . S
C437 C436 1.401 . S
C437 C438 1.376 . S
C437 C446 1.511 . S
C438 C437 1.376 . S
C438 C439 1.392 . S
C438 H459 0.931 . S
C439 C438 1.392 . S
C439 C440 1.361 . S
C439 C441 1.500 . S
C440 C435 1.390 . S
C440 C439 1.361 . S
C440 H458 0.931 . S
C441 C439 1.500 . S
C441 C442 1.371 . S
C441 C443 1.365 . S
C442 C441 1.371 . S
C442 C452 1.386 . S
C442 H460 0.931 . S
C443 C441 1.365 . S
C443 C444 1.409 . S
C443 H461 0.929 . S
C444 C443 1.409 . S
C444 C445 1.380 . S
C444 H462 0.930 . S
C445 C444 1.380 . S
C445 C452 1.357 . S
C446 C437 1.511 . S
C446 C447 1.341 . S
C446 C448 1.371 . S
C447 C446 1.341 . S
C447 C451 1.394 . S
C447 H463 0.930 . S
C448 C446 1.371 . S
C448 C449 1.392 . S
C448 H464 0.931 . S
C449 C448 1.392 . S
C449 C450 1.331 . S
C449 H467 0.932 . S
C450 C449 1.331 . S
C450 C451 1.336 . S
C451 C447 1.394 . S
C451 C450 1.336 . S
C451 H466 0.929 . S
C452 C442 1.386 . S
C452 C445 1.357 . S
C452 H465 0.928 . S
H453 C429 0.931 . S
H454 C431 0.930 . S
H455 C433 0.929 . S
H456 C434 0.931 . S
H457 C436 0.930 . S
H458 C440 0.931 . S
H459 C438 0.931 . S
H460 C442 0.931 . S
H461 C443 0.929 . S
H462 C444 0.930 . S
H463 C447 0.930 . S
H464 C448 0.931 . S
H465 C452 0.928 . S
H466 C451 0.929 . S
H467 C449 0.932 . S
C468 C469 1.386 . S
C468 C470 1.397 . S
C468 H492 0.931 . S
C469 C468 1.386 . S
C469 C473 1.397 . S
C470 C468 1.397 . S
C470 C471 1.384 . S
C470 H493 0.930 . S
C471 C470 1.384 . S
C471 C472 1.377 . S
C471 C474 1.481 . S
C472 C471 1.377 . S
C472 C473 1.389 . S
C472 H494 0.929 . S
C473 C469 1.397 . S
C473 C472 1.389 . S
C473 H495 0.931 . S
C474 C471 1.481 . S
C474 C475 1.387 . S
C474 C479 1.390 . S
C475 C474 1.387 . S
C475 C476 1.401 . S
C475 H496 0.930 . S
C476 C475 1.401 . S
C476 C477 1.376 . S
C476 C485 1.511 . S
C477 C476 1.376 . S
C477 C478 1.392 . S
C477 H498 0.931 . S
C478 C477 1.392 . S
C478 C479 1.361 . S
C478 C480 1.500 . S
C479 C474 1.390 . S
C479 C478 1.361 . S
C479 H497 0.931 . S
C480 C478 1.500 . S
C480 C481 1.371 . S
C480 C482 1.365 . S
C481 C480 1.371 . S
C481 C491 1.386 . S
C481 H499 0.931 . S
C482 C480 1.365 . S
C482 C483 1.409 . S
C482 H500 0.929 . S
C483 C482 1.409 . S
C483 C484 1.380 . S
C483 H501 0.930 . S
C484 C483 1.380 . S
C484 C491 1.357 . S
C485 C476 1.511 . S
C485 C486 1.341 . S
C485 C487 1.371 . S
C486 C485 1.341 . S
C486 C490 1.394 . S
C486 H502 0.930 . S
C487 C485 1.371 . S
C487 C488 1.392 . S
C487 H503 0.931 . S
C488 C487 1.392 . S
C488 C489 1.331 . S
C488 H506 0.932 . S
C489 C488 1.331 . S
C489 C490 1.336 . S
C490 C486 1.394 . S
C490 C489 1.336 . S
C490 H505 0.929 . S
C491 C481 1.386 . S
C491 C484 1.357 . S
C491 H504 0.928 . S
H492 C468 0.931 . S
H493 C470 0.930 . S
H494 C472 0.929 . S
H495 C473 0.931 . S
H496 C475 0.930 . S
H497 C479 0.931 . S
H498 C477 0.931 . S
H499 C481 0.931 . S
H500 C482 0.929 . S
H501 C483 0.930 . S
H502 C486 0.930 . S
H503 C487 0.931 . S
H504 C491 0.928 . S
H505 C490 0.929 . S
H506 C488 0.932 . S
C507 C508 1.386 . S
C507 C509 1.397 . S
C507 H531 0.931 . S
C508 C507 1.386 . S
C508 C512 1.397 . S
C509 C507 1.397 . S
C509 C510 1.384 . S
C509 H532 0.930 . S
C510 C509 1.384 . S
C510 C511 1.377 . S
C510 C513 1.481 . S
C511 C510 1.377 . S
C511 C512 1.389 . S
C511 H533 0.929 . S
C512 C508 1.397 . S
C512 C511 1.389 . S
C512 H534 0.931 . S
C513 C510 1.481 . S
C513 C514 1.387 . S
C513 C518 1.390 . S
C514 C513 1.387 . S
C514 C515 1.401 . S
C514 H535 0.930 . S
C515 C514 1.401 . S
C515 C516 1.376 . S
C515 C524 1.511 . S
C516 C515 1.376 . S
C516 C517 1.392 . S
C516 H537 0.931 . S
C517 C516 1.392 . S
C517 C518 1.361 . S
C517 C519 1.500 . S
C518 C513 1.390 . S
C518 C517 1.361 . S
C518 H536 0.931 . S
C519 C517 1.500 . S
C519 C520 1.371 . S
C519 C521 1.365 . S
C520 C519 1.371 . S
C520 C530 1.386 . S
C520 H538 0.931 . S
C521 C519 1.365 . S
C521 C522 1.409 . S
C521 H539 0.929 . S
C522 C521 1.409 . S
C522 C523 1.380 . S
C522 H540 0.930 . S
C523 C522 1.380 . S
C523 C530 1.357 . S
C524 C515 1.511 . S
C524 C525 1.341 . S
C524 C526 1.371 . S
C525 C524 1.341 . S
C525 C529 1.394 . S
C525 H541 0.930 . S
C526 C524 1.371 . S
C526 C527 1.392 1_556 S
C526 H542 0.931 . S
C527 C526 1.392 1_554 S
C527 C528 1.331 . S
C527 H545 0.932 . S
C528 C527 1.331 . S
C528 C529 1.336 1_554 S
C529 C525 1.394 . S
C529 C528 1.336 1_556 S
C529 H544 0.929 . S
C530 C520 1.386 . S
C530 C523 1.357 . S
C530 H543 0.928 . S
H531 C507 0.931 . S
H532 C509 0.930 . S
H533 C511 0.929 . S
H534 C512 0.931 . S
H535 C514 0.930 . S
H536 C518 0.931 . S
H537 C516 0.931 . S
H538 C520 0.931 . S
H539 C521 0.929 . S
H540 C522 0.930 . S
H541 C525 0.930 . S
H542 C526 0.931 . S
H543 C530 0.928 . S
H544 C529 0.929 . S
H545 C527 0.932 . S
C546 C547 1.386 . S
C546 C548 1.397 . S
C546 H570 0.931 . S
C547 C546 1.386 . S
C547 C551 1.397 . S
C548 C546 1.397 . S
C548 C549 1.384 . S
C548 H571 0.930 . S
C549 C548 1.384 . S
C549 C550 1.377 . S
C549 C552 1.481 . S
C550 C549 1.377 . S
C550 C551 1.389 . S
C550 H572 0.929 . S
C551 C547 1.397 . S
C551 C550 1.389 . S
C551 H573 0.931 . S
C552 C549 1.481 . S
C552 C553 1.387 . S
C552 C557 1.390 . S
C553 C552 1.387 . S
C553 C554 1.401 . S
C553 H574 0.930 . S
C554 C553 1.401 . S
C554 C555 1.376 . S
C554 C563 1.511 . S
C555 C554 1.376 . S
C555 C556 1.392 . S
C555 H576 0.931 . S
C556 C555 1.392 . S
C556 C557 1.361 . S
C556 C558 1.500 . S
C557 C552 1.390 . S
C557 C556 1.361 . S
C557 H575 0.931 . S
C558 C556 1.500 . S
C558 C559 1.371 . S
C558 C560 1.365 . S
C559 C558 1.371 . S
C559 C569 1.386 . S
C559 H577 0.931 . S
C560 C558 1.365 . S
C560 C561 1.409 . S
C560 H578 0.929 . S
C561 C560 1.409 . S
C561 C562 1.380 . S
C561 H579 0.930 . S
C562 C561 1.380 . S
C562 C569 1.357 . S
C563 C554 1.511 . S
C563 C564 1.341 . S
C563 C565 1.371 . S
C564 C563 1.341 . S
C564 C568 1.394 . S
C564 H580 0.930 . S
C565 C563 1.371 . S
C565 C566 1.392 . S
C565 H581 0.931 . S
C566 C565 1.392 . S
C566 C567 1.331 . S
C566 H584 0.932 . S
C567 C566 1.331 . S
C567 C568 1.336 . S
C568 C564 1.394 . S
C568 C567 1.336 . S
C568 H583 0.929 . S
C569 C559 1.386 . S
C569 C562 1.357 . S
C569 H582 0.928 . S
H570 C546 0.931 . S
H571 C548 0.930 . S
H572 C550 0.929 . S
H573 C551 0.931 . S
H574 C553 0.930 . S
H575 C557 0.931 . S
H576 C555 0.931 . S
H577 C559 0.931 . S
H578 C560 0.929 . S
H579 C561 0.930 . S
H580 C564 0.930 . S
H581 C565 0.931 . S
H582 C569 0.928 . S
H583 C568 0.929 . S
H584 C566 0.932 . S
C585 C586 1.386 1_556 S
C585 C587 1.397 . S
C585 H609 0.931 . S
C586 C585 1.386 1_554 S
C586 C590 1.397 . S
C587 C585 1.397 . S
C587 C588 1.384 . S
C587 H610 0.930 . S
C588 C587 1.384 . S
C588 C589 1.377 1_556 S
C588 C591 1.481 . S
C589 C588 1.377 1_554 S
C589 C590 1.389 . S
C589 H611 0.929 . S
C590 C586 1.397 . S
C590 C589 1.389 . S
C590 H612 0.931 . S
C591 C588 1.481 . S
C591 C592 1.387 . S
C591 C596 1.390 . S
C592 C591 1.387 . S
C592 C593 1.401 . S
C592 H613 0.930 . S
C593 C592 1.401 . S
C593 C594 1.376 . S
C593 C602 1.511 . S
C594 C593 1.376 . S
C594 C595 1.392 . S
C594 H615 0.931 . S
C595 C594 1.392 . S
C595 C596 1.361 . S
C595 C597 1.500 . S
C596 C591 1.390 . S
C596 C595 1.361 . S
C596 H614 0.931 . S
C597 C595 1.500 . S
C597 C598 1.371 . S
C597 C599 1.365 1_556 S
C598 C597 1.371 . S
C598 C608 1.394 . S
C598 H616 0.931 . S
C599 C597 1.365 1_554 S
C599 C600 1.409 . S
C599 H617 0.929 . S
C600 C599 1.409 . S
C600 C601 1.368 1_544 S
C600 H618 0.930 . S
C601 C600 1.368 1_566 S
C601 C608 1.355 1_565 S
C602 C593 1.511 . S
C602 C603 1.341 . S
C602 C604 1.371 . S
C603 C602 1.341 . S
C603 C607 1.394 . S
C603 H619 0.930 . S
C604 C602 1.371 . S
C604 C605 1.392 . S
C604 H620 0.931 . S
C605 C604 1.392 . S
C605 C606 1.331 . S
C605 H623 0.932 . S
C606 C605 1.331 . S
C606 C607 1.336 . S
C607 C603 1.394 . S
C607 C606 1.336 . S
C607 H622 0.929 . S
C608 C598 1.394 . S
C608 C601 1.355 1_545 S
C608 H621 0.921 1_545 S
H609 C585 0.931 . S
H610 C587 0.930 . S
H611 C589 0.929 . S
H612 C590 0.931 . S
H613 C592 0.930 . S
H614 C596 0.931 . S
H615 C594 0.931 . S
H616 C598 0.931 . S
H617 C599 0.929 . S
H618 C600 0.930 . S
H619 C603 0.930 . S
H620 C604 0.931 . S
H621 C608 0.921 1_565 S
H622 C607 0.929 . S
H623 C605 0.932 . S
O624 Cd625 2.223 . S
O624 C632 1.319 . S
Cd625 O624 2.223 . S
Cd625 O628 2.297 . S
Cd625 O629 2.439 . S
Cd625 O635 2.240 . S
Cd626 O627 2.240 . S
Cd626 O634 2.223 1_554 S
Cd626 O636 2.297 . S
Cd626 O637 2.439 . S
O627 Cd626 2.240 . S
O627 C632 1.289 . S
O628 Cd625 2.297 . S
O628 C630 1.247 . S
O629 Cd625 2.439 . S
O629 C630 1.208 . S
C630 O628 1.247 . S
C630 O629 1.208 . S
C631 O636 1.247 . S
C631 O637 1.208 . S
C632 O624 1.319 . S
C632 O627 1.289 . S
C633 O634 1.315 1_554 S
C633 O635 1.279 . S
O634 Cd626 2.223 1_556 S
O634 C633 1.315 1_556 S
O635 Cd625 2.240 . S
O635 C633 1.279 . S
O636 Cd626 2.297 . S
O636 C631 1.247 . S
O637 Cd626 2.439 . S
O637 C631 1.208 . S
O638 Cd639 2.223 . S
O638 C646 1.315 . S
Cd639 O638 2.223 . S
Cd639 O642 2.297 . S
Cd639 O643 2.439 . S
Cd639 O649 2.240 . S
Cd640 O641 2.240 . S
Cd640 O648 2.223 . S
Cd640 O650 2.297 . S
Cd640 O651 2.439 . S
O641 Cd640 2.240 . S
O641 C646 1.279 . S
O642 Cd639 2.297 . S
O642 C644 1.247 . S
O643 Cd639 2.439 . S
O643 C644 1.208 . S
C644 O642 1.247 . S
C644 O643 1.208 . S
C645 O650 1.247 . S
C645 O651 1.208 . S
C646 O638 1.315 . S
C646 O641 1.279 . S
C647 O648 1.315 . S
C647 O649 1.279 . S
O648 Cd640 2.223 . S
O648 C647 1.315 . S
O649 Cd639 2.240 . S
O649 C647 1.279 . S
O650 Cd640 2.297 . S
O650 C645 1.247 . S
O651 Cd640 2.439 . S
O651 C645 1.208 . S
O652 Cd653 2.223 1_556 S
O652 C660 1.315 . S
Cd653 O652 2.223 1_554 S
Cd653 O656 2.297 . S
Cd653 O657 2.439 . S
Cd653 O663 2.240 . S
Cd654 O655 2.240 . S
Cd654 O662 2.223 . S
Cd654 O664 2.307 . S
Cd654 O665 2.439 1_556 S
O655 Cd654 2.240 . S
O655 C660 1.279 . S
O656 Cd653 2.297 . S
O656 C658 1.247 . S
O657 Cd653 2.439 . S
O657 C658 1.208 . S
C658 O656 1.247 . S
C658 O657 1.208 . S
C659 O664 1.224 1_554 S
C659 O665 1.208 . S
C660 O652 1.315 . S
C660 O655 1.279 . S
C661 O662 1.315 . S
C661 O663 1.279 1_556 S
O662 Cd654 2.223 . S
O662 C661 1.315 . S
O663 Cd653 2.240 . S
O663 C661 1.279 1_554 S
O664 Cd654 2.307 . S
O664 C659 1.224 1_556 S
O665 Cd654 2.439 1_554 S
O665 C659 1.208 . S
O666 Cd667 2.223 1_565 S
O666 C674 1.315 1_565 S
Cd667 O666 2.223 1_545 S
Cd667 O670 2.297 . S
Cd667 O671 2.439 . S
Cd667 O677 2.240 . S
Cd668 O669 2.240 . S
Cd668 O676 2.223 . S
Cd668 O678 2.297 . S
Cd668 O679 2.439 . S
O669 Cd668 2.240 . S
O669 C674 1.279 . S
O670 Cd667 2.297 . S
O670 C672 1.247 . S
O671 Cd667 2.439 . S
O671 C672 1.208 . S
C672 O670 1.247 . S
C672 O671 1.208 . S
C673 O678 1.247 . S
C673 O679 1.208 . S
C674 O666 1.315 1_545 S
C674 O669 1.279 . S
C675 O676 1.312 1_565 S
C675 O677 1.269 1_565 S
O676 Cd668 2.223 . S
O676 C675 1.312 1_545 S
O677 Cd667 2.240 . S
O677 C675 1.269 1_545 S
O678 Cd668 2.297 . S
O678 C673 1.247 . S
O679 Cd668 2.439 . S
O679 C673 1.208 . S
O680 Cd681 2.223 . S
O680 C688 1.315 . S
Cd681 O680 2.223 . S
Cd681 O684 2.297 . S
Cd681 O685 2.439 . S
Cd681 O691 2.240 . S
Cd682 O683 2.240 . S
Cd682 O690 2.223 . S
Cd682 O692 2.297 . S
Cd682 O693 2.439 . S
O683 Cd682 2.240 . S
O683 C688 1.279 . S
O684 Cd681 2.297 . S
O684 C686 1.247 . S
O685 Cd681 2.439 . S
O685 C686 1.208 . S
C686 O684 1.247 . S
C686 O685 1.208 . S
C687 O692 1.247 . S
C687 O693 1.208 . S
C688 O680 1.315 . S
C688 O683 1.279 . S
C689 O690 1.315 . S
C689 O691 1.279 . S
O690 Cd682 2.223 . S
O690 C689 1.315 . S
O691 Cd681 2.240 . S
O691 C689 1.279 . S
O692 Cd682 2.297 . S
O692 C687 1.247 . S
O693 Cd682 2.439 . S
O693 C687 1.208 . S
O694 Cd695 2.223 . S
O694 C702 1.315 . S
Cd695 O694 2.223 . S
Cd695 O698 2.297 . S
Cd695 O699 2.439 . S
Cd695 O705 2.240 . S
Cd696 O697 2.240 . S
Cd696 O704 2.223 . S
Cd696 O706 2.297 . S
Cd696 O707 2.439 . S
O697 Cd696 2.240 . S
O697 C702 1.279 . S
O698 Cd695 2.297 . S
O698 C700 1.247 . S
O699 Cd695 2.439 . S
O699 C700 1.208 . S
C700 O698 1.247 . S
C700 O699 1.208 . S
C701 O706 1.247 . S
C701 O707 1.208 . S
C702 O694 1.315 . S
C702 O697 1.279 . S
C703 O704 1.315 . S
C703 O705 1.279 . S
O704 Cd696 2.223 . S
O704 C703 1.315 . S
O705 Cd695 2.240 . S
O705 C703 1.279 . S
O706 Cd696 2.297 . S
O706 C701 1.247 . S
O707 Cd696 2.439 . S
O707 C701 1.208 . S
O708 Cd709 2.223 . S
O708 C716 1.315 . S
Cd709 O708 2.223 . S
Cd709 O712 2.297 . S
Cd709 O713 2.439 . S
Cd709 O719 2.240 . S
Cd710 O711 2.240 . S
Cd710 O718 2.223 . S
Cd710 O720 2.297 . S
Cd710 O721 2.439 . S
O711 Cd710 2.240 . S
O711 C716 1.279 . S
O712 Cd709 2.297 . S
O712 C714 1.247 . S
O713 Cd709 2.439 . S
O713 C714 1.208 . S
C714 O712 1.247 . S
C714 O713 1.208 . S
C715 O720 1.247 . S
C715 O721 1.208 . S
C716 O708 1.315 . S
C716 O711 1.279 . S
C717 O718 1.315 . S
C717 O719 1.279 . S
O718 Cd710 2.223 . S
O718 C717 1.315 . S
O719 Cd709 2.240 . S
O719 C717 1.279 . S
O720 Cd710 2.297 . S
O720 C715 1.247 . S
O721 Cd710 2.439 . S
O721 C715 1.208 . S
O722 Cd723 2.223 1_545 S
O722 C730 1.315 . S
Cd723 O722 2.223 1_565 S
Cd723 O726 2.297 . S
Cd723 O727 2.439 . S
Cd723 O733 2.240 1_565 S
Cd724 O725 2.240 . S
Cd724 O732 2.223 . S
Cd724 O734 2.297 . S
Cd724 O735 2.439 1_545 S
O725 Cd724 2.240 . S
O725 C730 1.279 . S
O726 Cd723 2.297 . S
O726 C728 1.247 . S
O727 Cd723 2.439 . S
O727 C728 1.208 . S
C728 O726 1.247 . S
C728 O727 1.208 . S
C729 O734 1.247 1_565 S
C729 O735 1.208 . S
C730 O722 1.315 . S
C730 O725 1.279 . S
C731 O732 1.315 . S
C731 O733 1.279 . S
O732 Cd724 2.223 . S
O732 C731 1.315 . S
O733 Cd723 2.240 1_545 S
O733 C731 1.279 . S
O734 Cd724 2.297 . S
O734 C729 1.247 1_545 S
O735 Cd724 2.439 1_565 S
O735 C729 1.208 . S
O736 Cd737 2.223 . S
O736 C744 1.315 . S
Cd737 O736 2.223 . S
Cd737 O740 2.297 1_655 S
Cd737 O741 2.439 1_655 S
Cd737 O747 2.240 . S
Cd738 O739 2.240 . S
Cd738 O746 2.223 1_455 S
Cd738 O748 2.297 . S
Cd738 O749 2.439 . S
O739 Cd738 2.240 . S
O739 C744 1.279 1_455 S
O740 Cd737 2.297 1_455 S
O740 C742 1.247 . S
O741 Cd737 2.439 1_455 S
O741 C742 1.208 . S
C742 O740 1.247 . S
C742 O741 1.208 . S
C743 O748 1.247 . S
C743 O749 1.208 . S
C744 O736 1.315 . S
C744 O739 1.279 1_655 S
C745 O746 1.315 . S
C745 O747 1.279 . S
O746 Cd738 2.223 1_655 S
O746 C745 1.315 . S
O747 Cd737 2.240 . S
O747 C745 1.279 . S
O748 Cd738 2.297 . S
O748 C743 1.247 . S
O749 Cd738 2.439 . S
O749 C743 1.208 . S
O750 Cd751 2.223 . S
O750 C758 1.315 . S
Cd751 O750 2.223 . S
Cd751 O754 2.297 . S
Cd751 O755 2.439 . S
Cd751 O761 2.240 . S
Cd752 O753 2.240 . S
Cd752 O760 2.223 . S
Cd752 O762 2.297 . S
Cd752 O763 2.439 . S
O753 Cd752 2.240 . S
O753 C758 1.279 . S
O754 Cd751 2.297 . S
O754 C756 1.247 . S
O755 Cd751 2.439 . S
O755 C756 1.208 . S
C756 O754 1.247 . S
C756 O755 1.208 . S
C757 O762 1.247 . S
C757 O763 1.208 . S
C758 O750 1.315 . S
C758 O753 1.279 . S
C759 O760 1.315 . S
C759 O761 1.279 . S
O760 Cd752 2.223 . S
O760 C759 1.315 . S
O761 Cd751 2.240 . S
O761 C759 1.279 . S
O762 Cd752 2.297 . S
O762 C757 1.247 . S
O763 Cd752 2.439 . S
O763 C757 1.208 . S
O764 Cd765 2.223 1_655 S
O764 C772 1.315 . S
Cd765 O764 2.223 1_455 S
Cd765 O768 2.297 . S
Cd765 O769 2.439 . S
Cd765 O775 2.240 . S
Cd766 O767 2.240 . S
Cd766 O774 2.223 . S
Cd766 O776 2.296 1_655 S
Cd766 O777 2.439 1_655 S
O767 Cd766 2.240 . S
O767 C772 1.279 . S
O768 Cd765 2.297 . S
O768 C770 1.247 . S
O769 Cd765 2.439 . S
O769 C770 1.208 . S
C770 O768 1.247 . S
C770 O769 1.208 . S
C771 O776 1.251 . S
C771 O777 1.208 . S
C772 O764 1.315 . S
C772 O767 1.279 . S
C773 O774 1.315 . S
C773 O775 1.279 1_655 S
O774 Cd766 2.223 . S
O774 C773 1.315 . S
O775 Cd765 2.240 . S
O775 C773 1.279 1_455 S
O776 Cd766 2.296 1_455 S
O776 C771 1.251 . S
O777 Cd766 2.439 1_455 S
O777 C771 1.208 . S
O778 Cd779 2.223 . S
O778 C786 1.315 . S
Cd779 O778 2.223 . S
Cd779 O782 2.297 . S
Cd779 O783 2.439 . S
Cd779 O789 2.240 . S
Cd780 O781 2.240 . S
Cd780 O788 2.223 . S
Cd780 O790 2.297 . S
Cd780 O791 2.439 . S
O781 Cd780 2.240 . S
O781 C786 1.279 . S
O782 Cd779 2.297 . S
O782 C784 1.247 . S
O783 Cd779 2.439 . S
O783 C784 1.208 . S
C784 O782 1.247 . S
C784 O783 1.208 . S
C785 O790 1.247 . S
C785 O791 1.208 . S
C786 O778 1.315 . S
C786 O781 1.279 . S
C787 O788 1.315 . S
C787 O789 1.279 . S
O788 Cd780 2.223 . S
O788 C787 1.315 . S
O789 Cd779 2.240 . S
O789 C787 1.279 . S
O790 Cd780 2.297 . S
O790 C785 1.247 . S
O791 Cd780 2.439 . S
O791 C785 1.208 . S
C632 C211 1.761 1_554 S
C647 C255 2.128 . S
C274 C660 1.873 . S
C674 C157 2.041 1_545 S
C686 C391 1.686 . S
C700 C484 2.160 . S
C450 C714 1.861 . S
C729 C352 2.073 . S
C430 C745 1.801 . S
C758 C367 2.041 . S
C411 C743 1.564 . S
C756 C469 2.501 . S
C294 C772 2.017 . S
C177 C771 2.203 . S
C196 C770 1.701 . S
C235 C773 1.999 . S
C133 C675 1.999 . S
C567 C673 1.457 . S
C633 C601 1.835 1_554 S
C644 C328 2.039 . S
C172 C689 1.992 . S
C730 C445 2.091 . S
C687 C372 2.391 . S
C715 C489 2.304 . S
C716 C562 1.774 . S
C606 C731 2.129 . S
C313 C688 1.873 . S
C702 C508 2.041 . S
C118 C658 1.685 . S
C672 C16 2.160 1_655 S
C630 C60 1.861 . S
C645 C79 2.073 1_455 S
C40 C759 1.800 . S
C94 C744 2.041 . S
C138 C757 1.565 . S
C1 C742 2.501 1_554 S
C786 C333 2.017 . S
C785 C528 2.203 . S
C784 C547 1.701 . S
C586 C787 1.999 . S
C406 C703 1.991 . S
C701 C216 1.458 . S
C717 C250 1.815 . S
C728 C289 2.039 . S
C523 C661 1.992 . S
C646 C55 2.091 . S
C99 C659 2.391 . S
C631 C21 2.304 1_565 S
