# Generated by pormake.
# Topology llj, (12,3)-cn, num edge types: 1
# Building blocks:
#     Node 0, Type 0, BuildingBlock: QEWDON_clean_sbu_0, # of connection points: 12
#     Node 1, Type 0, BuildingBlock: QEWDON_clean_sbu_0, # of connection points: 12
#     Node 2, Type 1, BuildingBlock: BETDAH_clean_linker_0, # of connection points: 3
#     Node 3, Type 1, BuildingBlock: BETDAH_clean_linker_0, # of connection points: 3
#     Node 4, Type 1, BuildingBlock: BETDAH_clean_linker_0, # of connection points: 3
#     Node 5, Type 1, BuildingBlock: BETDAH_clean_linker_0, # of connection points: 3
#     Node 6, Type 1, BuildingBlock: BETDAH_clean_linker_0, # of connection points: 3
#     Node 7, Type 1, BuildingBlock: BETDAH_clean_linker_0, # of connection points: 3
#     Node 8, Type 1, BuildingBlock: BETDAH_clean_linker_0, # of connection points: 3
#     Node 9, Type 1, BuildingBlock: BETDAH_clean_linker_0, # of connection points: 3
#     Edge 10, Type (0, 1), BuildingBlock: EZIPEK_clean_linker_0, # of connection points: 2
#     Edge 11, Type (0, 1), BuildingBlock: EZIPEK_clean_linker_0, # of connection points: 2
#     Edge 12, Type (0, 1), BuildingBlock: EZIPEK_clean_linker_0, # of connection points: 2
#     Edge 13, Type (0, 1), BuildingBlock: EZIPEK_clean_linker_0, # of connection points: 2
#     Edge 14, Type (0, 1), BuildingBlock: EZIPEK_clean_linker_0, # of connection points: 2
#     Edge 15, Type (0, 1), BuildingBlock: EZIPEK_clean_linker_0, # of connection points: 2
#     Edge 16, Type (0, 1), BuildingBlock: EZIPEK_clean_linker_0, # of connection points: 2
#     Edge 17, Type (0, 1), BuildingBlock: EZIPEK_clean_linker_0, # of connection points: 2
#     Edge 18, Type (0, 1), BuildingBlock: EZIPEK_clean_linker_0, # of connection points: 2
#     Edge 19, Type (0, 1), BuildingBlock: EZIPEK_clean_linker_0, # of connection points: 2
#     Edge 20, Type (0, 1), BuildingBlock: EZIPEK_clean_linker_0, # of connection points: 2
#     Edge 21, Type (0, 1), BuildingBlock: EZIPEK_clean_linker_0, # of connection points: 2
#     Edge 22, Type (0, 1), BuildingBlock: EZIPEK_clean_linker_0, # of connection points: 2
#     Edge 23, Type (0, 1), BuildingBlock: EZIPEK_clean_linker_0, # of connection points: 2
#     Edge 24, Type (0, 1), BuildingBlock: EZIPEK_clean_linker_0, # of connection points: 2
#     Edge 25, Type (0, 1), BuildingBlock: EZIPEK_clean_linker_0, # of connection points: 2
#     Edge 26, Type (0, 1), BuildingBlock: EZIPEK_clean_linker_0, # of connection points: 2
#     Edge 27, Type (0, 1), BuildingBlock: EZIPEK_clean_linker_0, # of connection points: 2
#     Edge 28, Type (0, 1), BuildingBlock: EZIPEK_clean_linker_0, # of connection points: 2
#     Edge 29, Type (0, 1), BuildingBlock: EZIPEK_clean_linker_0, # of connection points: 2
#     Edge 30, Type (0, 1), BuildingBlock: EZIPEK_clean_linker_0, # of connection points: 2
#     Edge 31, Type (0, 1), BuildingBlock: EZIPEK_clean_linker_0, # of connection points: 2
#     Edge 32, Type (0, 1), BuildingBlock: EZIPEK_clean_linker_0, # of connection points: 2
#     Edge 33, Type (0, 1), BuildingBlock: EZIPEK_clean_linker_0, # of connection points: 2
# Relax obj value: 0.009
# Max RMSD: 0.091
# Mean RMSD: 0.078
data_MOF--net-llj--node1-QEWDON_clean_sbu_0--node2-BETDAH_clean_linker_0--edge1-EZIPEK_clean_linker_0
_symmetry_space_group_name_H-M    P1
_symmetry_Int_Tables_number       1
_symmetry_cell_setting            triclinic
loop_
_symmetry_equiv_pos_as_xyz
'x, y, z'
_cell_length_a     30.203581
_cell_length_b     30.231955
_cell_length_c     18.590049
_cell_angle_alpha  91.193854
_cell_angle_beta   90.758415
_cell_angle_gamma 90.128222
loop_
_atom_site_label
_atom_site_type_symbol
_atom_site_fract_x
_atom_site_fract_y
_atom_site_fract_z
_atom_type_partial_charge
Zn0 Zn 0.98673 0.14956 0.87911 0.0
Zn1 Zn 0.95505 0.10281 0.02364 0.0
O2 O 0.99234 0.09325 0.93647 0.0
H3 H 0.00291 0.06507 0.91831 0.0
C4 C 0.87084 0.05648 0.74224 0.0
O5 O 0.88405 0.07645 0.80222 0.0
Zn6 Zn 0.0433 0.89052 -0.00111 0.0
Zn7 Zn 0.03532 0.87051 0.82997 0.0
O8 O 0.01789 0.91453 0.90841 0.0
H9 H 0.99982 0.94064 0.90332 0.0
Zn10 Zn 0.86752 0.97614 0.83098 0.0
O11 O 0.90912 0.99364 0.91298 0.0
Zn12 Zn 0.89171 0.95538 -0.00566 0.0
H13 H 0.9379 0.00698 0.90702 0.0
Zn14 Zn 0.14264 0.0289 0.87809 0.0
O15 O 0.09088 0.00801 0.93675 0.0
H16 H 0.06383 0.99507 0.91758 0.0
Zn17 Zn 0.09842 0.03788 0.03308 0.0
C18 C 0.13712 0.97537 0.74525 0.0
O19 O 0.09455 0.98082 0.75585 0.0
O20 O 0.93602 0.19144 0.90937 0.0
O21 O 0.91598 0.15691 0.00884 0.0
O22 O 0.07991 0.82191 0.86038 0.0
O23 O 0.08339 0.83784 0.97793 0.0
O24 O 0.81448 0.93671 0.85742 0.0
O25 O 0.83461 0.92194 0.97013 0.0
C26 C 0.03177 0.09254 0.11018 0.0
O27 O 0.18409 0.07321 0.93095 0.0
O28 O 0.14849 0.08304 0.03445 0.0
O29 O 0.99225 0.85931 0.74379 0.0
C30 C 0.91145 0.18815 0.96419 0.0
O31 O 0.01622 0.15429 0.77917 0.0
C32 C 0.95537 0.89073 0.06533 0.0
O33 O 0.86251 0.01525 0.74155 0.0
C34 C 0.0948 0.8144 0.92343 0.0
O35 O 0.16486 0.99204 0.79013 0.0
C36 C 0.89641 0.03201 0.08744 0.0
O37 O 0.99482 0.11249 0.11039 0.0
O38 O 0.04103 0.0676 0.05673 0.0
C39 C 0.80777 0.91779 0.91685 0.0
O40 O 0.99348 0.87308 0.06448 0.0
O41 O 0.9439 0.91538 0.01367 0.0
C42 C 0.1062 0.95193 0.10079 0.0
O43 O 0.88027 0.99328 0.08153 0.0
O44 O 0.91986 0.04651 0.03658 0.0
C45 C 0.18046 0.09174 -0.00724 0.0
O46 O 0.116 0.99279 0.10528 0.0
O47 O 0.07895 0.93966 0.05096 0.0
C48 C 0.96958 0.8902 0.71619 0.0
O49 O 0.97311 0.9307 0.74269 0.0
C50 C 0.04931 0.13016 0.76375 0.0
O51 O 0.06446 0.10211 0.81111 0.0
Zn52 Zn 0.49412 0.61799 0.53172 0.0
Zn53 Zn 0.44923 0.57984 0.66846 0.0
O54 O 0.48819 0.56101 0.58676 0.0
H55 H 0.50759 0.5357 0.58453 0.0
C56 C 0.37511 0.52667 0.41711 0.0
O57 O 0.41566 0.52535 0.44332 0.0
Zn58 Zn 0.56235 0.41089 0.66663 0.0
Zn59 Zn 0.50398 0.37161 0.54337 0.0
O60 O 0.52057 0.43156 0.58906 0.0
H61 H 0.52384 0.45887 0.5637 0.0
Zn62 Zn 0.35372 0.4724 0.54316 0.0
O63 O 0.41538 0.47299 0.58692 0.0
Zn64 Zn 0.40679 0.43273 0.66919 0.0
H65 H 0.44277 0.47907 0.56279 0.0
Zn66 Zn 0.59481 0.55659 0.5116 0.0
O67 O 0.60011 0.51477 0.59245 0.0
H68 H 0.61475 0.48675 0.58428 0.0
Zn69 Zn 0.60919 0.55648 0.67545 0.0
C70 C 0.57905 0.49102 0.39455 0.0
O71 O 0.54162 0.48347 0.42732 0.0
O72 O 0.43895 0.65724 0.54204 0.0
O73 O 0.40537 0.62596 0.63413 0.0
O74 O 0.55904 0.33155 0.54115 0.0
O75 O 0.60341 0.36523 0.62193 0.0
O76 O 0.32622 0.40985 0.54631 0.0
O77 O 0.36542 0.38216 0.63707 0.0
C78 C 0.52873 0.60056 0.75041 0.0
O79 O 0.63714 0.60904 0.5301 0.0
O80 O 0.65344 0.60476 0.6469 0.0
O81 O 0.46886 0.36743 0.44594 0.0
C82 C 0.4063 0.65427 0.58427 0.0
O83 O 0.52162 0.61802 0.42987 0.0
C84 C 0.48655 0.39075 0.74797 0.0
O85 O 0.34388 0.50759 0.44977 0.0
C86 C 0.59631 0.33551 0.57343 0.0
O87 O 0.60472 0.52154 0.41781 0.0
C88 C 0.39479 0.50998 0.75434 0.0
O89 O 0.48699 0.60585 0.74744 0.0
O90 O 0.54764 0.57973 0.69905 0.0
C91 C 0.33627 0.37785 0.58697 0.0
O92 O 0.52804 0.38438 0.74572 0.0
O93 O 0.46778 0.41016 0.69569 0.0
C94 C 0.61826 0.48017 0.7599 0.0
O95 O 0.3834 0.4694 0.75123 0.0
O96 O 0.41772 0.52494 0.70309 0.0
C97 C 0.6588 0.62227 0.58558 0.0
O98 O 0.63141 0.52016 0.75725 0.0
O99 O 0.59535 0.46477 0.70699 0.0
C100 C 0.43374 0.38569 0.42251 0.0
O101 O 0.4127 0.41465 0.4628 0.0
C102 C 0.55277 0.64516 0.41845 0.0
O103 O 0.56838 0.66977 0.47195 0.0
H104 H 0.41544 0.37829 0.07672 0.0
H105 H 0.37809 0.25684 0.17712 0.0
H106 H 0.40562 0.25695 0.95164 0.0
C107 C 0.4072 0.34339 0.0725 0.0
C108 C 0.41107 0.32076 0.00593 0.0
C109 C 0.39651 0.32022 0.13487 0.0
C110 C 0.38597 0.27509 0.12933 0.0
C111 C 0.38836 0.25273 0.06294 0.0
C112 C 0.40198 0.27516 0.00206 0.0
N113 N 0.38019 0.20682 0.05811 0.0
C114 C 0.33723 0.19065 0.05545 0.0
H115 H 0.61215 0.42705 0.07686 0.0
H116 H 0.70013 0.35799 0.21817 0.0
H117 H 0.72214 0.35396 0.98984 0.0
C118 C 0.64009 0.40504 0.08426 0.0
C119 C 0.6652 0.39159 0.02448 0.0
C120 C 0.65324 0.39415 0.1542 0.0
C121 C 0.68956 0.36627 0.16413 0.0
C122 C 0.71362 0.35035 0.10527 0.0
C123 C 0.70206 0.36381 0.03524 0.0
N124 N 0.75043 0.32277 0.11991 0.0
C125 C 0.77725 0.30271 0.06879 0.0
H126 H 0.58808 0.63919 0.08139 0.0
H127 H 0.60719 0.75042 0.94334 0.0
H128 H 0.60896 0.76942 0.17257 0.0
C129 C 0.59544 0.67394 0.07421 0.0
C130 C 0.59823 0.70234 0.13455 0.0
C131 C 0.5967 0.69116 0.00459 0.0
C132 C 0.60632 0.73643 -0.0035 0.0
C133 C 0.61248 0.76425 0.05725 0.0
C134 C 0.60696 0.74736 0.12589 0.0
N135 N 0.62096 0.80998 0.05051 0.0
C136 C 0.654 0.82595 0.00676 0.0
H137 H 0.38075 0.57546 0.08307 0.0
H138 H 0.26862 0.61999 0.95794 0.0
H139 H 0.26509 0.62535 0.18851 0.0
C140 C 0.34849 0.59102 0.07971 0.0
C141 C 0.32531 0.59983 0.14317 0.0
C142 C 0.3279 0.5967 0.01205 0.0
C143 C 0.28551 0.61628 0.00923 0.0
C144 C 0.26372 0.62835 0.0731 0.0
C145 C 0.28337 0.61915 0.13952 0.0
N146 N 0.22003 0.64525 0.07273 0.0
C147 C 0.2039 0.67502 0.02301 0.0
H148 H 0.89849 0.8966 0.39952 0.0
H149 H 0.82715 0.79557 0.50828 0.0
H150 H 0.83083 0.79362 0.27743 0.0
C151 C 0.87684 0.86793 0.39685 0.0
C152 C 0.86617 0.84801 0.32969 0.0
C153 C 0.86493 0.84755 0.46093 0.0
C154 C 0.83629 0.81102 0.45854 0.0
C155 C 0.82249 0.79262 0.39189 0.0
C156 C 0.8389 0.81014 0.32823 0.0
N157 N 0.79441 0.75493 0.38678 0.0
C158 C 0.77421 0.7355 0.44509 0.0
H159 H 0.1512 0.92699 0.42244 0.0
H160 H 0.22768 0.82897 0.53399 0.0
H161 H 0.21171 0.82028 0.30373 0.0
C162 C 0.1714 0.89737 0.42146 0.0
C163 C 0.18009 0.87582 0.35579 0.0
C164 C 0.18848 0.88049 0.48594 0.0
C165 C 0.21466 0.842 0.48418 0.0
C166 C 0.22282 0.82011 0.41809 0.0
C167 C 0.20546 0.83724 0.35457 0.0
N168 N 0.24745 0.78038 0.41268 0.0
C169 C 0.27152 0.7616 0.46819 0.0
H170 H 0.08364 0.11953 0.42578 0.0
H171 H 0.20141 0.15223 0.31026 0.0
H172 H 0.1975 0.17227 0.53994 0.0
C173 C 0.11751 0.1315 0.42566 0.0
C174 C 0.13835 0.14438 0.49073 0.0
C175 C 0.14018 0.13398 0.36049 0.0
C176 C 0.18392 0.14979 0.36059 0.0
C177 C 0.20423 0.16504 0.42465 0.0
C178 C 0.18162 0.16159 0.48991 0.0
N179 N 0.24705 0.18426 0.4216 0.0
C180 C 0.26191 0.21754 0.4689 0.0
H181 H 0.88398 0.1024 0.42112 0.0
H182 H 0.77659 0.17919 0.50661 0.0
H183 H 0.78357 0.15395 0.27921 0.0
C184 C 0.85459 0.12218 0.41226 0.0
C185 C 0.83732 0.12664 0.34218 0.0
C186 C 0.83129 0.13895 0.47163 0.0
C187 C 0.79412 0.16591 0.46053 0.0
C188 C 0.7776 0.17217 0.39049 0.0
C189 C 0.79822 0.15109 0.33246 0.0
N190 N 0.73907 0.19741 0.37644 0.0
C191 C 0.71714 0.22244 0.42815 0.0
C192 C 0.22532 0.16027 0.97684 0.0
C193 C 0.21594 0.12239 0.0178 0.0
C194 C 0.27997 0.13889 0.09634 0.0
C195 C 0.29334 0.17161 0.04786 0.0
N196 N 0.27978 0.21484 0.94245 0.0
N197 N 0.2356 0.0734 0.11442 0.0
C198 C 0.26607 0.18309 0.98859 0.0
C199 C 0.24311 0.11147 0.07792 0.0
N200 N 0.19475 0.1748 0.92788 0.0
N201 N 0.30258 0.13409 0.1599 0.0
H202 H 0.20933 0.05196 0.10264 0.0
H203 H 0.25734 0.06114 0.15306 0.0
H204 H 0.32995 0.15362 0.17438 0.0
H205 H 0.29184 0.11387 0.20089 0.0
H206 H 0.19765 0.20443 0.90079 0.0
H207 H 0.16427 0.15911 0.9192 0.0
H208 H 0.26406 0.22117 0.89358 0.0
H209 H 0.30846 0.23358 0.95144 0.0
C210 C 0.88759 0.26413 0.00399 0.0
C211 C 0.87632 0.22123 0.97713 0.0
C212 C 0.79767 0.2357 -0.00207 0.0
C213 C 0.80917 0.27799 0.02664 0.0
N214 N 0.86198 0.3373 0.04036 0.0
N215 N 0.8211 0.1701 0.93114 0.0
C216 C 0.85321 0.29385 0.02386 0.0
C217 C 0.83136 0.20832 0.96836 0.0
N218 N 0.9311 0.27554 0.01417 0.0
N219 N 0.75487 0.22117 0.00152 0.0
H220 H 0.84521 0.14949 0.90885 0.0
H221 H 0.78892 0.16057 0.91725 0.0
H222 H 0.72915 0.24135 0.01966 0.0
H223 H 0.74513 0.18875 0.98975 0.0
H224 H 0.94149 0.30424 0.04138 0.0
H225 H 0.95718 0.25492 -0.00083 0.0
H226 H 0.89271 0.35211 0.0333 0.0
H227 H 0.83721 0.35963 0.05508 0.0
C228 C 0.72539 0.91484 0.93176 0.0
C229 C 0.76649 0.89231 0.92663 0.0
C230 C 0.73147 0.82346 0.96418 0.0
C231 C 0.69066 0.84619 0.96998 0.0
N232 N 0.64554 0.90923 0.94235 0.0
N233 N 0.80676 0.82377 0.91978 0.0
C234 C 0.68658 0.89051 0.94788 0.0
C235 C 0.76891 0.84605 0.93713 0.0
N236 N 0.72388 0.95981 0.92548 0.0
N237 N 0.73474 0.78082 0.98675 0.0
H238 H 0.83447 0.83954 0.89914 0.0
H239 H 0.8095 0.78946 0.91998 0.0
H240 H 0.70746 0.76273 0.00365 0.0
H241 H 0.76466 0.76411 -0.00784 0.0
H242 H 0.69601 0.97869 0.93722 0.0
H243 H 0.75145 0.97893 0.91333 0.0
H244 H 0.63982 0.94 0.91992 0.0
H245 H 0.61657 0.89211 0.9542 0.0
C246 C 0.11401 0.73331 0.92239 0.0
C247 C 0.12689 0.7781 0.93487 0.0
C248 C 0.19564 0.75407 -0.00625 0.0
C249 C 0.18217 0.70953 0.98266 0.0
N250 N 0.13577 0.65592 0.92103 0.0
N251 N 0.1842 0.83119 0.96487 0.0
C252 C 0.14377 0.69892 0.94145 0.0
C253 C 0.16918 0.78848 0.96502 0.0
N254 N 0.07237 0.72355 0.89696 0.0
N255 N 0.23284 0.76344 0.034 0.0
H256 H 0.16584 0.85697 0.94301 0.0
H257 H 0.2162 0.84053 0.98022 0.0
H258 H 0.25415 0.7389 0.05251 0.0
H259 H 0.24154 0.79517 0.0519 0.0
H260 H 0.05928 0.69166 0.89468 0.0
H261 H 0.04944 0.74764 0.8827 0.0
H262 H 0.11053 0.64628 0.88535 0.0
H263 H 0.15715 0.63024 0.93471 0.0
C264 C 0.67918 0.7002 0.55806 0.0
C265 C 0.69288 0.65672 0.57482 0.0
C266 C 0.76564 0.67036 0.52259 0.0
C267 C 0.75029 0.71214 0.49999 0.0
N268 N 0.69908 0.77241 0.51254 0.0
N269 N 0.75174 0.60427 0.5914 0.0
C270 C 0.7092 0.72901 0.52362 0.0
C271 C 0.73728 0.64329 0.56375 0.0
N272 N 0.6368 0.71299 0.57241 0.0
N273 N 0.80648 0.65593 0.5017 0.0
H274 H 0.73142 0.58383 0.62121 0.0
H275 H 0.78446 0.59368 0.59005 0.0
H276 H 0.82858 0.67599 0.47445 0.0
H277 H 0.81812 0.62397 0.50902 0.0
H278 H 0.62265 0.74219 0.55458 0.0
H279 H 0.61504 0.69317 0.60065 0.0
H280 H 0.67111 0.78804 0.53285 0.0
H281 H 0.72084 0.79395 0.48756 0.0
C282 C 0.37277 0.72934 0.57436 0.0
C283 C 0.36742 0.6827 0.57104 0.0
C284 C 0.29179 0.69152 0.52446 0.0
C285 C 0.30044 0.737 0.51535 0.0
N286 N 0.34743 0.80076 0.53279 0.0
N287 N 0.32277 0.61848 0.53925 0.0
C288 C 0.34022 0.75656 0.54165 0.0
C289 C 0.32682 0.66344 0.54655 0.0
N290 N 0.40877 0.74734 0.60948 0.0
N291 N 0.25015 0.67525 0.51127 0.0
H292 H 0.34755 0.59646 0.55424 0.0
H293 H 0.29608 0.60292 0.51321 0.0
H294 H 0.22398 0.69535 0.49485 0.0
H295 H 0.24056 0.64315 0.52321 0.0
H296 H 0.41297 0.78113 0.61918 0.0
H297 H 0.43274 0.72801 0.63469 0.0
H298 H 0.37775 0.81626 0.54289 0.0
H299 H 0.3232 0.82176 0.5122 0.0
C300 C 0.2701 0.32879 0.56537 0.0
C301 C 0.31683 0.33359 0.56978 0.0
C302 C 0.32539 0.2568 0.52646 0.0
C303 C 0.27944 0.25484 0.51105 0.0
N304 N 0.20742 0.28886 0.51256 0.0
N305 N 0.3896 0.30364 0.54553 0.0
C306 C 0.25148 0.29067 0.53018 0.0
C307 C 0.34477 0.29775 0.54914 0.0
N308 N 0.24367 0.36035 0.59611 0.0
N309 N 0.35059 0.21952 0.51902 0.0
H310 H 0.40558 0.33322 0.55931 0.0
H311 H 0.4108 0.28039 0.52245 0.0
H312 H 0.33737 0.18913 0.50172 0.0
H313 H 0.38345 0.21773 0.53644 0.0
H314 H 0.20951 0.35701 0.60064 0.0
H315 H 0.25647 0.38817 0.62337 0.0
H316 H 0.18616 0.31577 0.51758 0.0
H317 H 0.19258 0.26097 0.48861 0.0
C318 C 0.62938 0.26044 0.55754 0.0
C319 C 0.6329 0.30681 0.54908 0.0
C320 C 0.69996 0.29648 0.47801 0.0
C321 C 0.69207 0.25034 0.47685 0.0
N322 N 0.6507 0.18707 0.5151 0.0
N323 N 0.66977 0.36973 0.49823 0.0
C324 C 0.65747 0.23182 0.51724 0.0
C325 C 0.66819 0.32519 0.50957 0.0
N326 N 0.59957 0.24407 0.60495 0.0
N327 N 0.73789 0.31273 0.44896 0.0
H328 H 0.64753 0.39216 0.52088 0.0
H329 H 0.6912 0.38429 0.46219 0.0
H330 H 0.76163 0.29235 0.42507 0.0
H331 H 0.74777 0.34566 0.45423 0.0
H332 H 0.59773 0.21091 0.61855 0.0
H333 H 0.579 0.26449 0.63566 0.0
H334 H 0.62306 0.17173 0.5364 0.0
H335 H 0.67201 0.16515 0.48877 0.0
C336 C 0.07414 0.06788 0.21939 0.0
C337 C 0.06425 0.10117 0.16903 0.0
C338 C 0.10484 0.15589 0.24318 0.0
C339 C 0.11683 0.12215 0.29175 0.0
N340 N 0.12177 0.04441 0.31738 0.0
N341 N 0.07892 0.17366 0.12334 0.0
C342 C 0.10427 0.07754 0.27705 0.0
C343 C 0.08245 0.14419 0.17789 0.0
N344 N 0.05313 0.02782 0.21428 0.0
N345 N 0.11262 0.19935 0.261 0.0
H346 H 0.06296 0.166 0.0745 0.0
H347 H 0.09547 0.20393 0.12375 0.0
H348 H 0.12814 0.20966 0.30891 0.0
H349 H 0.10016 0.22547 0.23124 0.0
H350 H 0.05536 0.00401 0.25387 0.0
H351 H 0.03101 0.01945 0.17259 0.0
H352 H 0.11735 0.01095 0.30463 0.0
H353 H 0.14421 0.05039 0.35965 0.0
C354 C 0.89185 0.03875 0.22146 0.0
C355 C 0.8874 0.0586 0.15338 0.0
C356 C 0.8622 0.12617 0.21308 0.0
C357 C 0.85793 0.10362 0.27897 0.0
N358 N 0.85724 0.03208 0.33654 0.0
N359 N 0.85233 0.11628 0.08539 0.0
C360 C 0.86991 0.05808 0.28119 0.0
C361 C 0.86843 0.10114 0.14904 0.0
N362 N 0.9165 0.00135 0.22912 0.0
N363 N 0.86069 0.17123 0.21108 0.0
H364 H 0.85354 0.09782 0.03742 0.0
H365 H 0.83395 0.14539 0.0826 0.0
H366 H 0.85925 0.19107 0.25759 0.0
H367 H 0.86597 0.1884 0.16379 0.0
H368 H 0.92295 0.98745 0.27905 0.0
H369 H 0.93437 0.98752 0.18667 0.0
H370 H 0.86276 0.99804 0.33657 0.0
H371 H 0.83626 0.04299 0.3772 0.0
C372 C 0.95138 0.89271 0.1989 0.0
C373 C 0.92908 0.88673 0.1319 0.0
C374 C 0.86212 0.86743 0.19693 0.0
C375 C 0.88726 0.86375 0.26191 0.0
N376 N 0.96116 0.86095 0.31499 0.0
N377 N 0.86505 0.85786 0.06777 0.0
C378 C 0.93341 0.87343 0.26062 0.0
C379 C 0.88473 0.8715 0.13075 0.0
N380 N 0.98986 0.91647 0.20379 0.0
N381 N 0.81698 0.86806 0.19804 0.0
H382 H 0.88162 0.85779 0.0189 0.0
H383 H 0.83402 0.84265 0.06589 0.0
H384 H 0.79928 0.86821 0.24585 0.0
H385 H 0.79776 0.87362 0.15207 0.0
H386 H 0.00542 0.92414 0.25292 0.0
H387 H 0.00302 0.93284 0.16001 0.0
H388 H 0.99528 0.86582 0.31374 0.0
H389 H 0.95123 0.84046 0.35597 0.0
C390 C 0.17221 0.93436 0.17732 0.0
C391 C 0.12881 0.92219 0.15386 0.0
C392 C 0.12122 0.8757 0.25986 0.0
C393 C 0.16199 0.89263 0.28723 0.0
N394 N 0.22598 0.93948 0.27519 0.0
N395 N 0.07337 0.86546 0.15594 0.0
C396 C 0.18764 0.92207 0.24654 0.0
C397 C 0.10617 0.88842 0.19049 0.0
N398 N 0.19952 0.95541 0.1309 0.0
N399 N 0.09674 0.84782 0.30068 0.0
H400 H 0.06905 0.86849 0.10125 0.0
H401 H 0.05634 0.83884 0.17701 0.0
H402 H 0.10701 0.83741 0.35137 0.0
H403 H 0.06509 0.83688 0.28667 0.0
H404 H 0.2328 0.96211 0.14166 0.0
H405 H 0.19006 0.96157 0.07782 0.0
H406 H 0.24346 0.96512 0.252 0.0
H407 H 0.23872 0.93058 0.32527 0.0
C408 C 0.18117 0.97034 0.63149 0.0
C409 C 0.15257 0.95004 0.68119 0.0
C410 C 0.14739 0.88384 0.60282 0.0
C411 C 0.178 0.90317 0.55534 0.0
N412 N 0.23109 0.96046 0.53137 0.0
N413 N 0.11624 0.88426 0.7224 0.0
C414 C 0.19709 0.94512 0.57189 0.0
C415 C 0.1379 0.90579 0.66924 0.0
N416 N 0.19132 0.01433 0.63899 0.0
N417 N 0.12631 0.84524 0.58338 0.0
H418 H 0.10967 0.8989 0.77241 0.0
H419 H 0.10855 0.85068 0.71982 0.0
H420 H 0.13195 0.82839 0.53486 0.0
H421 H 0.10084 0.83143 0.61271 0.0
H422 H 0.20795 0.03202 0.60015 0.0
H423 H 0.17934 0.03446 0.68053 0.0
H424 H 0.2495 0.98861 0.54515 0.0
H425 H 0.24367 0.94279 0.48739 0.0
C426 C 0.08778 0.1754 0.67141 0.0
C427 C 0.07102 0.13393 0.69309 0.0
C428 C 0.10125 0.09854 0.58457 0.0
C429 C 0.11438 0.14071 0.55987 0.0
N430 N 0.11007 0.22025 0.57185 0.0
N431 N 0.05307 0.0579 0.66294 0.0
C432 C 0.10471 0.17948 0.601 0.0
C433 C 0.07524 0.09595 0.64753 0.0
N434 N 0.08933 0.21051 0.71893 0.0
N435 N 0.11478 0.06089 0.54933 0.0
H436 H 0.03285 0.05504 0.70766 0.0
H437 H 0.05121 0.03062 0.62787 0.0
H438 H 0.13528 0.06122 0.50467 0.0
H439 H 0.10913 0.02922 0.56822 0.0
H440 H 0.10555 0.24006 0.7082 0.0
H441 H 0.07834 0.20875 0.77174 0.0
H442 H 0.0995 0.24943 0.59694 0.0
H443 H 0.12072 0.22459 0.51933 0.0
C444 C 0.81735 0.07766 0.64608 0.0
C445 C 0.86014 0.08225 0.6775 0.0
C446 C 0.88137 0.13154 0.5805 0.0
C447 C 0.84088 0.12137 0.54419 0.0
N448 N 0.77452 0.07629 0.53583 0.0
N449 N 0.93522 0.10938 0.67072 0.0
C450 C 0.8099 0.09221 0.57521 0.0
C451 C 0.89282 0.1084 0.64407 0.0
N452 N 0.7834 0.06043 0.68465 0.0
N453 N 0.90849 0.16361 0.55476 0.0
H454 H 0.94499 0.09255 0.71664 0.0
H455 H 0.96148 0.12392 0.64411 0.0
H456 H 0.90088 0.18108 0.50839 0.0
H457 H 0.93638 0.17547 0.58257 0.0
H458 H 0.75061 0.06034 0.66642 0.0
H459 H 0.78708 0.05089 0.73801 0.0
H460 H 0.7538 0.05137 0.55389 0.0
H461 H 0.76847 0.08427 0.48232 0.0
C462 C 0.89669 0.89294 0.64796 0.0
C463 C 0.94218 0.88089 0.6508 0.0
C464 C 0.93386 0.84154 0.53544 0.0
C465 C 0.89026 0.85829 0.52799 0.0
N466 N 0.83152 0.90455 0.57274 0.0
N467 N 0.00643 0.85393 0.58762 0.0
C468 C 0.87203 0.88554 0.58292 0.0
C469 C 0.96148 0.85808 0.59178 0.0
N470 N 0.87647 0.90919 0.7082 0.0
N471 N 0.94853 0.80867 0.49021 0.0
H472 H 0.02816 0.86793 0.62581 0.0
H473 H 0.02217 0.84119 0.54214 0.0
H474 H 0.92872 0.79426 0.44972 0.0
H475 H 0.97868 0.7926 0.49786 0.0
H476 H 0.84249 0.91458 0.71109 0.0
H477 H 0.89299 0.91326 0.75748 0.0
H478 H 0.81858 0.92845 0.60769 0.0
H479 H 0.81232 0.89877 0.52639 0.0
C480 C 0.53251 0.60959 0.88324 0.0
C481 C 0.55257 0.61668 0.81605 0.0
C482 C 0.60894 0.66227 0.87756 0.0
C483 C 0.58313 0.66304 0.94093 0.0
N484 N 0.5122 0.64561 -0.00591 0.0
N485 N 0.60487 0.65875 0.7479 0.0
C486 C 0.54277 0.6386 0.94158 0.0
C487 C 0.58987 0.64505 0.81257 0.0
N488 N 0.50315 0.57564 0.89116 0.0
N489 N 0.65146 0.67768 0.87915 0.0
H490 H 0.58942 0.64972 0.69936 0.0
H491 H 0.62956 0.68267 0.74338 0.0
H492 H 0.66713 0.68877 0.92654 0.0
H493 H 0.67229 0.67478 0.83501 0.0
H494 H 0.49008 0.56758 0.94088 0.0
H495 H 0.49611 0.55263 0.84989 0.0
H496 H 0.48101 0.63073 -0.00743 0.0
H497 H 0.51533 0.67042 0.03345 0.0
C498 C 0.36228 0.5783 0.81591 0.0
C499 C 0.38362 0.53665 0.81967 0.0
C500 C 0.36428 0.53261 0.94605 0.0
C501 C 0.3483 0.57687 0.94565 0.0
N502 N 0.34423 0.64568 0.88154 0.0
N503 N 0.41782 0.48235 0.89564 0.0
C504 C 0.35119 0.60111 0.88101 0.0
C505 C 0.38908 0.51668 0.88731 0.0
N506 N 0.34962 0.5947 0.75109 0.0
N507 N 0.35307 0.50431 -0.00085 0.0
H508 H 0.43832 0.47149 0.85422 0.0
H509 H 0.42486 0.46877 0.94564 0.0
H510 H 0.33016 0.51236 0.03856 0.0
H511 H 0.3618 0.47094 -0.00212 0.0
H512 H 0.33069 0.62333 0.74637 0.0
H513 H 0.35377 0.57705 0.70292 0.0
H514 H 0.34921 0.6649 0.83641 0.0
H515 H 0.33836 0.66387 0.92874 0.0
C516 C 0.48233 0.38931 0.88142 0.0
C517 C 0.46277 0.37833 0.81364 0.0
C518 C 0.40326 0.34004 0.8749 0.0
C519 C 0.42745 0.34361 0.94088 0.0
N520 N 0.49715 0.36274 2e-05 0.0
N521 N 0.41017 0.33334 0.74594 0.0
C522 C 0.46885 0.36617 0.94265 0.0
C523 C 0.4244 0.35132 0.81007 0.0
N524 N 0.51375 0.42186 0.88757 0.0
N525 N 0.36023 0.3261 0.87393 0.0
H526 H 0.42703 0.33789 0.69808 0.0
H527 H 0.38458 0.31018 0.74192 0.0
H528 H 0.34312 0.31913 0.92076 0.0
H529 H 0.34051 0.32617 0.82746 0.0
H530 H 0.52638 0.43318 0.93711 0.0
H531 H 0.52312 0.44107 0.8443 0.0
H532 H 0.52923 0.37559 0.0005 0.0
H533 H 0.49092 0.34213 0.04262 0.0
C534 C 0.64094 0.4094 0.82345 0.0
C535 C 0.62802 0.45462 0.82588 0.0
C536 C 0.65117 0.45878 0.95131 0.0
C537 C 0.65559 0.4122 0.95345 0.0
N538 N 0.64593 0.3418 0.89084 0.0
N539 N 0.60733 0.51709 0.90202 0.0
C540 C 0.64774 0.38684 0.88931 0.0
C541 C 0.62873 0.47769 0.89296 0.0
N542 N 0.65 0.38888 0.75943 0.0
N543 N 0.67058 0.48531 0.00281 0.0
H544 H 0.58681 0.53018 0.86233 0.0
H545 H 0.60551 0.53335 0.95197 0.0
H546 H 0.69305 0.47261 0.03987 0.0
H547 H 0.66972 0.51977 0.00097 0.0
H548 H 0.66248 0.35679 0.75579 0.0
H549 H 0.65063 0.40601 0.71144 0.0
H550 H 0.63676 0.32249 0.84592 0.0
H551 H 0.64937 0.32427 0.93828 0.0
C552 C 0.5948 0.41753 0.33228 0.0
C553 C 0.59247 0.46455 0.33077 0.0
C554 C 0.63628 0.46409 0.2222 0.0
C555 C 0.63298 0.41741 0.21688 0.0
N556 N 0.60276 0.34957 0.26189 0.0
N557 N 0.60017 0.53097 0.26199 0.0
C558 C 0.61022 0.39394 0.27043 0.0
C559 C 0.60954 0.48729 0.2715 0.0
N560 N 0.5842 0.39545 0.3931 0.0
N561 N 0.66751 0.48608 0.18447 0.0
H562 H 0.57861 0.54852 0.29537 0.0
H563 H 0.60978 0.54794 0.21644 0.0
H564 H 0.69225 0.46922 0.15677 0.0
H565 H 0.67286 0.52007 0.19017 0.0
H566 H 0.58952 0.36166 0.39881 0.0
H567 H 0.57372 0.41126 0.44016 0.0
H568 H 0.58272 0.33172 0.29613 0.0
H569 H 0.61325 0.33149 0.21689 0.0
C570 C 0.60602 0.64679 0.31596 0.0
C571 C 0.56363 0.65683 0.34389 0.0
C572 C 0.54268 0.69245 0.2314 0.0
C573 C 0.58642 0.68599 0.20627 0.0
N574 N 0.66138 0.66167 0.22607 0.0
N575 N 0.49365 0.69487 0.33329 0.0
C576 C 0.6186 0.66438 0.24894 0.0
C577 C 0.53234 0.68094 0.30283 0.0
N578 N 0.63356 0.61913 0.35242 0.0
N579 N 0.51081 0.70906 0.18658 0.0
H580 H 0.48444 0.68713 0.38541 0.0
H581 H 0.47214 0.71717 0.30919 0.0
H582 H 0.5174 0.72 0.135 0.0
H583 H 0.47721 0.7091 0.19845 0.0
H584 H 0.66317 0.60694 0.3321 0.0
H585 H 0.62441 0.6047 0.40025 0.0
H586 H 0.68752 0.65076 0.25808 0.0
H587 H 0.67144 0.6734 0.17648 0.0
C588 C 0.34658 0.51766 0.2912 0.0
C589 C 0.36636 0.54523 0.34524 0.0
C590 C 0.36613 0.60722 0.2619 0.0
C591 C 0.3409 0.5811 0.2121 0.0
N592 N 0.30022 0.51374 0.18455 0.0
N593 N 0.39153 0.61755 0.3855 0.0
C594 C 0.32924 0.53691 0.22812 0.0
C595 C 0.37564 0.59037 0.33143 0.0
N596 N 0.34579 0.47277 0.29892 0.0
N597 N 0.38112 0.64789 0.24251 0.0
H598 H 0.3988 0.60637 0.43695 0.0
H599 H 0.39439 0.65172 0.38115 0.0
H600 H 0.37384 0.66138 0.19252 0.0
H601 H 0.4034 0.66671 0.27355 0.0
H602 H 0.336 0.45077 0.25782 0.0
H603 H 0.35946 0.45719 0.3435 0.0
H604 H 0.28702 0.48319 0.19802 0.0
H605 H 0.28593 0.52672 0.13824 0.0
C606 C 0.37703 0.35997 0.32818 0.0
C607 C 0.4199 0.37655 0.34674 0.0
C608 C 0.44664 0.35421 0.22883 0.0
C609 C 0.40336 0.34119 0.20718 0.0
N610 N 0.3252 0.34011 0.23172 0.0
N611 N 0.48936 0.40435 0.30406 0.0
C612 C 0.36771 0.34688 0.2554 0.0
C613 C 0.45262 0.37869 0.29341 0.0
N614 N 0.34607 0.35461 0.38002 0.0
N615 N 0.48261 0.34 0.19133 0.0
H616 H 0.49403 0.42399 0.35035 0.0
H617 H 0.51172 0.41007 0.26299 0.0
H618 H 0.48005 0.31617 0.1502 0.0
H619 H 0.51503 0.34685 0.20804 0.0
H620 H 0.31613 0.33813 0.37086 0.0
H621 H 0.35179 0.36374 0.43352 0.0
H622 H 0.29769 0.3477 0.26281 0.0
H623 H 0.31752 0.33062 0.17872 0.0
loop_
_geom_bond_atom_site_label_1
_geom_bond_atom_site_label_2
_geom_bond_distance
_geom_bond_site_symmetry_2
_ccdc_geom_bond_type
Zn0 O2 1.933 1_556 S
Zn0 O20 1.985 . S
Zn0 O31 1.955 . S
Zn1 O2 1.911 . S
Zn1 O21 1.970 . S
Zn1 O37 1.945 . S
Zn1 O44 1.981 . S
O2 Zn0 1.933 1_554 S
O2 Zn1 1.911 . S
O2 H3 0.841 1_655 S
H3 O2 0.841 1_455 S
C4 O5 1.246 . S
C4 O33 1.276 1_545 S
O5 C4 1.246 . S
Zn6 O8 1.911 . S
Zn6 O23 1.970 . S
Zn6 O40 1.945 . S
Zn6 O47 1.981 . S
Zn7 O8 1.933 1_556 S
Zn7 O22 1.985 . S
Zn7 O29 1.955 . S
O8 Zn6 1.911 . S
O8 Zn7 1.933 1_554 S
O8 H9 0.841 1_455 S
H9 O8 0.841 1_655 S
Zn10 O11 1.933 1_556 S
Zn10 O24 1.985 . S
Zn10 O33 1.955 . S
O11 Zn10 1.933 1_554 S
O11 Zn12 1.911 . S
O11 H13 0.841 1_565 S
Zn12 O11 1.911 . S
Zn12 O25 1.970 . S
Zn12 O41 1.981 . S
Zn12 O43 1.945 . S
H13 O11 0.841 1_545 S
Zn14 O15 1.933 1_556 S
Zn14 O27 1.985 . S
Zn14 O35 1.955 . S
O15 Zn14 1.933 1_554 S
O15 H16 0.841 1_545 S
O15 Zn17 1.911 . S
H16 O15 0.841 1_565 S
Zn17 O15 1.911 . S
Zn17 O28 1.970 . S
Zn17 O38 1.981 . S
Zn17 O46 1.945 . S
C18 O19 1.246 . S
C18 O35 1.276 1_565 S
O19 C18 1.246 . S
O20 Zn0 1.985 . S
O20 C30 1.245 1_556 S
O21 Zn1 1.970 . S
O21 C30 1.263 . S
O22 Zn7 1.985 . S
O22 C34 1.245 1_556 S
O23 Zn6 1.970 . S
O23 C34 1.263 . S
O24 Zn10 1.985 . S
O24 C39 1.245 1_556 S
O25 Zn12 1.970 . S
O25 C39 1.263 . S
C26 O37 1.262 1_455 S
C26 O38 1.245 . S
O27 Zn14 1.985 . S
O27 C45 1.245 1_556 S
O28 Zn17 1.970 . S
O28 C45 1.263 . S
O29 Zn7 1.955 . S
O29 C48 1.276 1_455 S
C30 O20 1.245 1_554 S
C30 O21 1.263 . S
O31 Zn0 1.955 . S
O31 C50 1.276 1_655 S
C32 O40 1.262 1_655 S
C32 O41 1.245 . S
O33 C4 1.276 1_565 S
O33 Zn10 1.955 . S
C34 O22 1.245 1_554 S
C34 O23 1.263 . S
O35 Zn14 1.955 . S
O35 C18 1.276 1_545 S
C36 O43 1.262 1_545 S
C36 O44 1.245 . S
O37 Zn1 1.945 . S
O37 C26 1.262 1_655 S
O38 Zn17 1.981 . S
O38 C26 1.245 . S
C39 O24 1.245 1_554 S
C39 O25 1.263 . S
O40 Zn6 1.945 . S
O40 C32 1.262 1_455 S
O41 Zn12 1.981 . S
O41 C32 1.245 . S
C42 O46 1.262 1_565 S
C42 O47 1.245 . S
O43 Zn12 1.945 . S
O43 C36 1.262 1_565 S
O44 Zn1 1.981 . S
O44 C36 1.245 . S
C45 O27 1.245 1_554 S
C45 O28 1.263 . S
O46 Zn17 1.945 . S
O46 C42 1.262 1_545 S
O47 Zn6 1.981 . S
O47 C42 1.245 . S
C48 O29 1.276 1_655 S
C48 O49 1.246 . S
O49 C48 1.246 . S
C50 O31 1.276 1_455 S
C50 O51 1.246 . S
O51 C50 1.246 . S
Zn52 O54 1.933 . S
Zn52 O72 1.985 . S
Zn52 O83 1.955 . S
Zn53 O54 1.911 . S
Zn53 O73 1.970 . S
Zn53 O89 1.945 . S
Zn53 O96 1.981 . S
O54 Zn52 1.933 . S
O54 Zn53 1.911 . S
O54 H55 0.841 . S
H55 O54 0.841 . S
C56 O57 1.246 . S
C56 O85 1.276 . S
O57 C56 1.246 . S
Zn58 O60 1.911 . S
Zn58 O75 1.970 . S
Zn58 O92 1.945 . S
Zn58 O99 1.981 . S
Zn59 O60 1.933 . S
Zn59 O74 1.985 . S
Zn59 O81 1.955 . S
O60 Zn58 1.911 . S
O60 Zn59 1.933 . S
O60 H61 0.841 . S
H61 O60 0.841 . S
Zn62 O63 1.933 . S
Zn62 O76 1.985 . S
Zn62 O85 1.955 . S
O63 Zn62 1.933 . S
O63 Zn64 1.911 . S
O63 H65 0.841 . S
Zn64 O63 1.911 . S
Zn64 O77 1.970 . S
Zn64 O93 1.981 . S
Zn64 O95 1.945 . S
H65 O63 0.841 . S
Zn66 O67 1.933 . S
Zn66 O79 1.985 . S
Zn66 O87 1.955 . S
O67 Zn66 1.933 . S
O67 H68 0.841 . S
O67 Zn69 1.911 . S
H68 O67 0.841 . S
Zn69 O67 1.911 . S
Zn69 O80 1.970 . S
Zn69 O90 1.981 . S
Zn69 O98 1.945 . S
C70 O71 1.246 . S
C70 O87 1.276 . S
O71 C70 1.246 . S
O72 Zn52 1.985 . S
O72 C82 1.245 . S
O73 Zn53 1.970 . S
O73 C82 1.263 . S
O74 Zn59 1.985 . S
O74 C86 1.245 . S
O75 Zn58 1.970 . S
O75 C86 1.263 . S
O76 Zn62 1.985 . S
O76 C91 1.245 . S
O77 Zn64 1.970 . S
O77 C91 1.263 . S
C78 O89 1.262 . S
C78 O90 1.245 . S
O79 Zn66 1.985 . S
O79 C97 1.245 . S
O80 Zn69 1.970 . S
O80 C97 1.263 . S
O81 Zn59 1.955 . S
O81 C100 1.276 . S
C82 O72 1.245 . S
C82 O73 1.263 . S
O83 Zn52 1.955 . S
O83 C102 1.276 . S
C84 O92 1.262 . S
C84 O93 1.245 . S
O85 C56 1.276 . S
O85 Zn62 1.955 . S
C86 O74 1.245 . S
C86 O75 1.263 . S
O87 Zn66 1.955 . S
O87 C70 1.276 . S
C88 O95 1.262 . S
C88 O96 1.245 . S
O89 Zn53 1.945 . S
O89 C78 1.262 . S
O90 Zn69 1.981 . S
O90 C78 1.245 . S
C91 O76 1.245 . S
C91 O77 1.263 . S
O92 Zn58 1.945 . S
O92 C84 1.262 . S
O93 Zn64 1.981 . S
O93 C84 1.245 . S
C94 O98 1.262 . S
C94 O99 1.245 . S
O95 Zn64 1.945 . S
O95 C88 1.262 . S
O96 Zn53 1.981 . S
O96 C88 1.245 . S
C97 O79 1.245 . S
C97 O80 1.263 . S
O98 Zn69 1.945 . S
O98 C94 1.262 . S
O99 Zn58 1.981 . S
O99 C94 1.245 . S
C100 O81 1.276 . S
C100 O101 1.246 . S
O101 C100 1.246 . S
C102 O83 1.276 . S
C102 O103 1.246 . S
O103 C102 1.246 . S
H104 C107 0.929 . S
H105 C110 0.929 . S
H106 C112 0.930 . S
C107 H104 0.929 . S
C107 C108 1.398 1_554 S
C107 C109 1.396 . S
C108 C107 1.398 1_556 S
C108 C112 1.407 . S
C109 C107 1.396 . S
C109 C110 1.394 . S
C110 H105 0.929 . S
C110 C109 1.394 . S
C110 C111 1.382 1_554 S
C111 C110 1.382 1_556 S
C111 C112 1.392 . S
C111 N113 1.420 . S
C112 H106 0.930 . S
C112 C108 1.407 . S
C112 C111 1.392 . S
N113 C111 1.420 . S
N113 C114 1.244 1_556 S
C114 N113 1.244 1_554 S
H115 C118 0.929 . S
H116 C121 0.929 . S
H117 C123 0.930 . S
C118 H115 0.929 . S
C118 C119 1.398 1_554 S
C118 C120 1.396 . S
C119 C118 1.398 1_556 S
C119 C123 1.407 . S
C120 C118 1.396 . S
C120 C121 1.394 . S
C121 H116 0.929 . S
C121 C120 1.394 . S
C121 C122 1.374 1_554 S
C122 C121 1.374 1_556 S
C122 C123 1.399 . S
C122 N124 1.421 . S
C123 H117 0.930 . S
C123 C119 1.407 . S
C123 C122 1.399 . S
N124 C122 1.421 . S
N124 C125 1.244 1_556 S
C125 N124 1.244 1_554 S
H126 C129 0.929 . S
H127 C132 0.929 . S
H128 C134 0.930 . S
C129 H126 0.929 . S
C129 C130 1.398 . S
C129 C131 1.396 1_554 S
C130 C129 1.398 . S
C130 C134 1.407 . S
C131 C129 1.396 1_556 S
C131 C132 1.394 . S
C132 H127 0.929 . S
C132 C131 1.394 . S
C132 C133 1.382 1_556 S
C133 C132 1.382 1_554 S
C133 C134 1.392 . S
C133 N135 1.420 . S
C134 H128 0.930 . S
C134 C130 1.407 . S
C134 C133 1.392 . S
N135 C133 1.420 . S
N135 C136 1.244 1_554 S
C136 N135 1.244 1_556 S
H137 C140 0.929 . S
H138 C143 0.929 . S
H139 C145 0.930 . S
C140 H137 0.929 . S
C140 C141 1.398 . S
C140 C142 1.396 1_554 S
C141 C140 1.398 . S
C141 C145 1.407 . S
C142 C140 1.396 1_556 S
C142 C143 1.394 . S
C143 H138 0.929 . S
C143 C142 1.394 . S
C143 C144 1.382 1_556 S
C144 C143 1.382 1_554 S
C144 C145 1.392 . S
C144 N146 1.420 . S
C145 H139 0.930 . S
C145 C141 1.407 . S
C145 C144 1.392 . S
N146 C144 1.420 . S
N146 C147 1.244 1_554 S
C147 N146 1.244 1_556 S
H148 C151 0.929 . S
H149 C154 0.929 . S
H150 C156 0.930 . S
C151 H148 0.929 . S
C151 C152 1.398 . S
C151 C153 1.396 . S
C152 C151 1.398 . S
C152 C156 1.407 . S
C153 C151 1.396 . S
C153 C154 1.394 . S
C154 H149 0.929 . S
C154 C153 1.394 . S
C154 C155 1.382 . S
C155 C154 1.382 . S
C155 C156 1.392 . S
C155 N157 1.420 . S
C156 H150 0.930 . S
C156 C152 1.407 . S
C156 C155 1.392 . S
N157 C155 1.420 . S
N157 C158 1.244 . S
C158 N157 1.244 . S
H159 C162 0.929 . S
H160 C165 0.929 . S
H161 C167 0.930 . S
C162 H159 0.929 . S
C162 C163 1.398 . S
C162 C164 1.396 . S
C163 C162 1.398 . S
C163 C167 1.407 . S
C164 C162 1.396 . S
C164 C165 1.394 . S
C165 H160 0.929 . S
C165 C164 1.394 . S
C165 C166 1.382 . S
C166 C165 1.382 . S
C166 C167 1.392 . S
C166 N168 1.420 . S
C167 H161 0.930 . S
C167 C163 1.407 . S
C167 C166 1.392 . S
N168 C166 1.420 . S
N168 C169 1.244 . S
C169 N168 1.244 . S
H170 C173 0.929 . S
H171 C176 0.929 . S
H172 C178 0.930 . S
C173 H170 0.929 . S
C173 C174 1.398 . S
C173 C175 1.396 . S
C174 C173 1.398 . S
C174 C178 1.407 . S
C175 C173 1.396 . S
C175 C176 1.394 . S
C176 H171 0.929 . S
C176 C175 1.394 . S
C176 C177 1.382 . S
C177 C176 1.382 . S
C177 C178 1.392 . S
C177 N179 1.420 . S
C178 H172 0.930 . S
C178 C174 1.407 . S
C178 C177 1.392 . S
N179 C177 1.420 . S
N179 C180 1.244 . S
C180 N179 1.244 . S
H181 C184 0.929 . S
H182 C187 0.929 . S
H183 C189 0.930 . S
C184 H181 0.929 . S
C184 C185 1.398 . S
C184 C186 1.396 . S
C185 C184 1.398 . S
C185 C189 1.407 . S
C186 C184 1.396 . S
C186 C187 1.394 . S
C187 H182 0.929 . S
C187 C186 1.394 . S
C187 C188 1.382 . S
C188 C187 1.382 . S
C188 C189 1.392 . S
C188 N190 1.420 . S
C189 H183 0.930 . S
C189 C185 1.407 . S
C189 C188 1.392 . S
N190 C188 1.420 . S
N190 C191 1.244 . S
C191 N190 1.244 . S
C192 C193 1.363 . S
C192 C198 1.379 . S
C192 N200 1.356 . S
C193 C192 1.363 . S
C193 C199 1.363 1_554 S
C194 C195 1.363 1_556 S
C194 C199 1.379 . S
C194 N201 1.356 . S
C195 C194 1.363 1_554 S
C195 C198 1.363 . S
N196 C198 1.356 . S
N196 H208 0.984 . S
N196 H209 0.985 . S
N197 C199 1.356 . S
N197 H202 0.984 . S
N197 H203 0.985 . S
C198 C192 1.379 . S
C198 C195 1.363 . S
C198 N196 1.356 . S
C199 C193 1.363 1_556 S
C199 C194 1.379 . S
C199 N197 1.356 . S
N200 C192 1.356 . S
N200 H206 0.984 . S
N200 H207 0.984 . S
N201 C194 1.356 . S
N201 H204 0.984 . S
N201 H205 0.985 . S
H202 N197 0.984 . S
H203 N197 0.985 . S
H204 N201 0.984 . S
H205 N201 0.985 . S
H206 N200 0.984 . S
H207 N200 0.984 . S
H208 N196 0.984 . S
H209 N196 0.985 . S
C210 C211 1.363 1_556 S
C210 C216 1.379 . S
C210 N218 1.356 . S
C211 C210 1.363 1_554 S
C211 C217 1.363 . S
C212 C213 1.363 . S
C212 C217 1.379 . S
C212 N219 1.356 . S
C213 C212 1.363 . S
C213 C216 1.363 1_554 S
N214 C216 1.356 . S
N214 H226 0.984 . S
N214 H227 0.985 . S
N215 C217 1.356 . S
N215 H220 0.984 . S
N215 H221 0.985 . S
C216 C210 1.379 . S
C216 C213 1.363 1_556 S
C216 N214 1.356 . S
C217 C211 1.363 . S
C217 C212 1.379 . S
C217 N215 1.356 . S
N218 C210 1.356 . S
N218 H224 0.984 . S
N218 H225 0.984 . S
N219 C212 1.356 . S
N219 H222 0.984 . S
N219 H223 0.985 . S
H220 N215 0.984 . S
H221 N215 0.985 . S
H222 N219 0.984 . S
H223 N219 0.985 . S
H224 N218 0.984 . S
H225 N218 0.984 . S
H226 N214 0.984 . S
H227 N214 0.985 . S
C228 C229 1.363 1_556 S
C228 C234 1.379 . S
C228 N236 1.356 . S
C229 C228 1.363 1_554 S
C229 C235 1.363 . S
C230 C231 1.363 . S
C230 C235 1.379 . S
C230 N237 1.356 . S
C231 C230 1.363 . S
C231 C234 1.363 1_554 S
N232 C234 1.356 . S
N232 H244 0.984 . S
N232 H245 0.985 . S
N233 C235 1.356 . S
N233 H238 0.984 . S
N233 H239 0.985 . S
C234 C228 1.379 . S
C234 C231 1.363 1_556 S
C234 N232 1.356 . S
C235 C229 1.363 . S
C235 C230 1.379 . S
C235 N233 1.356 . S
N236 C228 1.356 . S
N236 H242 0.984 . S
N236 H243 0.984 . S
N237 C230 1.356 . S
N237 H240 0.984 . S
N237 H241 0.985 . S
H238 N233 0.984 . S
H239 N233 0.985 . S
H240 N237 0.984 . S
H241 N237 0.985 . S
H242 N236 0.984 . S
H243 N236 0.984 . S
H244 N232 0.984 . S
H245 N232 0.985 . S
C246 C247 1.363 1_556 S
C246 C252 1.379 . S
C246 N254 1.356 . S
C247 C246 1.363 1_554 S
C247 C253 1.363 . S
C248 C249 1.363 1_554 S
C248 C253 1.379 . S
C248 N255 1.356 . S
C249 C248 1.363 1_556 S
C249 C252 1.363 . S
N250 C252 1.356 . S
N250 H262 0.984 . S
N250 H263 0.985 . S
N251 C253 1.356 . S
N251 H256 0.984 . S
N251 H257 0.985 . S
C252 C246 1.379 . S
C252 C249 1.363 . S
C252 N250 1.356 . S
C253 C247 1.363 . S
C253 C248 1.379 . S
C253 N251 1.356 . S
N254 C246 1.356 . S
N254 H260 0.984 . S
N254 H261 0.984 . S
N255 C248 1.356 . S
N255 H258 0.984 . S
N255 H259 0.985 . S
H256 N251 0.984 . S
H257 N251 0.985 . S
H258 N255 0.984 . S
H259 N255 0.985 . S
H260 N254 0.984 . S
H261 N254 0.984 . S
H262 N250 0.984 . S
H263 N250 0.985 . S
C264 C265 1.363 . S
C264 C270 1.379 . S
C264 N272 1.356 . S
C265 C264 1.363 . S
C265 C271 1.363 . S
C266 C267 1.363 . S
C266 C271 1.379 . S
C266 N273 1.356 . S
C267 C266 1.363 . S
C267 C270 1.363 . S
N268 C270 1.356 . S
N268 H280 0.984 . S
N268 H281 0.985 . S
N269 C271 1.356 . S
N269 H274 0.984 . S
N269 H275 0.985 . S
C270 C264 1.379 . S
C270 C267 1.363 . S
C270 N268 1.356 . S
C271 C265 1.363 . S
C271 C266 1.379 . S
C271 N269 1.356 . S
N272 C264 1.356 . S
N272 H278 0.984 . S
N272 H279 0.984 . S
N273 C266 1.356 . S
N273 H276 0.984 . S
N273 H277 0.985 . S
H274 N269 0.984 . S
H275 N269 0.985 . S
H276 N273 0.984 . S
H277 N273 0.985 . S
H278 N272 0.984 . S
H279 N272 0.984 . S
H280 N268 0.984 . S
H281 N268 0.985 . S
C282 C283 1.363 . S
C282 C288 1.379 . S
C282 N290 1.356 . S
C283 C282 1.363 . S
C283 C289 1.363 . S
C284 C285 1.363 . S
C284 C289 1.379 . S
C284 N291 1.356 . S
C285 C284 1.363 . S
C285 C288 1.363 . S
N286 C288 1.356 . S
N286 H298 0.984 . S
N286 H299 0.985 . S
N287 C289 1.356 . S
N287 H292 0.984 . S
N287 H293 0.985 . S
C288 C282 1.379 . S
C288 C285 1.363 . S
C288 N286 1.356 . S
C289 C283 1.363 . S
C289 C284 1.379 . S
C289 N287 1.356 . S
N290 C282 1.356 . S
N290 H296 0.984 . S
N290 H297 0.984 . S
N291 C284 1.356 . S
N291 H294 0.984 . S
N291 H295 0.985 . S
H292 N287 0.984 . S
H293 N287 0.985 . S
H294 N291 0.984 . S
H295 N291 0.985 . S
H296 N290 0.984 . S
H297 N290 0.984 . S
H298 N286 0.984 . S
H299 N286 0.985 . S
C300 C301 1.363 . S
C300 C306 1.379 . S
C300 N308 1.356 . S
C301 C300 1.363 . S
C301 C307 1.363 . S
C302 C303 1.363 . S
C302 C307 1.379 . S
C302 N309 1.356 . S
C303 C302 1.363 . S
C303 C306 1.363 . S
N304 C306 1.356 . S
N304 H316 0.984 . S
N304 H317 0.985 . S
N305 C307 1.356 . S
N305 H310 0.984 . S
N305 H311 0.985 . S
C306 C300 1.379 . S
C306 C303 1.363 . S
C306 N304 1.356 . S
C307 C301 1.363 . S
C307 C302 1.379 . S
C307 N305 1.356 . S
N308 C300 1.356 . S
N308 H314 0.984 . S
N308 H315 0.984 . S
N309 C302 1.356 . S
N309 H312 0.984 . S
N309 H313 0.985 . S
H310 N305 0.984 . S
H311 N305 0.985 . S
H312 N309 0.984 . S
H313 N309 0.985 . S
H314 N308 0.984 . S
H315 N308 0.984 . S
H316 N304 0.984 . S
H317 N304 0.985 . S
C318 C319 1.363 . S
C318 C324 1.379 . S
C318 N326 1.356 . S
C319 C318 1.363 . S
C319 C325 1.363 . S
C320 C321 1.363 . S
C320 C325 1.379 . S
C320 N327 1.356 . S
C321 C320 1.363 . S
C321 C324 1.363 . S
N322 C324 1.356 . S
N322 H334 0.984 . S
N322 H335 0.985 . S
N323 C325 1.356 . S
N323 H328 0.984 . S
N323 H329 0.985 . S
C324 C318 1.379 . S
C324 C321 1.363 . S
C324 N322 1.356 . S
C325 C319 1.363 . S
C325 C320 1.379 . S
C325 N323 1.356 . S
N326 C318 1.356 . S
N326 H332 0.984 . S
N326 H333 0.984 . S
N327 C320 1.356 . S
N327 H330 0.984 . S
N327 H331 0.985 . S
H328 N323 0.984 . S
H329 N323 0.985 . S
H330 N327 0.984 . S
H331 N327 0.985 . S
H332 N326 0.984 . S
H333 N326 0.984 . S
H334 N322 0.984 . S
H335 N322 0.985 . S
C336 C337 1.363 . S
C336 C342 1.379 . S
C336 N344 1.356 . S
C337 C336 1.363 . S
C337 C343 1.363 . S
C338 C339 1.363 . S
C338 C343 1.379 . S
C338 N345 1.356 . S
C339 C338 1.363 . S
C339 C342 1.363 . S
N340 C342 1.356 . S
N340 H352 0.984 . S
N340 H353 0.985 . S
N341 C343 1.356 . S
N341 H346 0.984 . S
N341 H347 0.985 . S
C342 C336 1.379 . S
C342 C339 1.363 . S
C342 N340 1.356 . S
C343 C337 1.363 . S
C343 C338 1.379 . S
C343 N341 1.356 . S
N344 C336 1.356 . S
N344 H350 0.984 . S
N344 H351 0.984 . S
N345 C338 1.356 . S
N345 H348 0.984 . S
N345 H349 0.985 . S
H346 N341 0.984 . S
H347 N341 0.985 . S
H348 N345 0.984 . S
H349 N345 0.985 . S
H350 N344 0.984 . S
H351 N344 0.984 . S
H352 N340 0.984 . S
H353 N340 0.985 . S
C354 C355 1.363 . S
C354 C360 1.379 . S
C354 N362 1.356 1_545 S
C355 C354 1.363 . S
C355 C361 1.363 . S
C356 C357 1.363 . S
C356 C361 1.379 . S
C356 N363 1.356 . S
C357 C356 1.363 . S
C357 C360 1.363 . S
N358 C360 1.356 . S
N358 H370 0.984 1_545 S
N358 H371 0.985 . S
N359 C361 1.356 . S
N359 H364 0.984 . S
N359 H365 0.985 . S
C360 C354 1.379 . S
C360 C357 1.363 . S
C360 N358 1.356 . S
C361 C355 1.363 . S
C361 C356 1.379 . S
C361 N359 1.356 . S
N362 C354 1.356 1_565 S
N362 H368 0.984 . S
N362 H369 0.984 . S
N363 C356 1.356 . S
N363 H366 0.984 . S
N363 H367 0.985 . S
H364 N359 0.984 . S
H365 N359 0.985 . S
H366 N363 0.984 . S
H367 N363 0.985 . S
H368 N362 0.984 . S
H369 N362 0.984 . S
H370 N358 0.984 1_565 S
H371 N358 0.985 . S
C372 C373 1.363 . S
C372 C378 1.379 . S
C372 N380 1.356 1_655 S
C373 C372 1.363 . S
C373 C379 1.363 . S
C374 C375 1.363 . S
C374 C379 1.379 . S
C374 N381 1.356 . S
C375 C374 1.363 . S
C375 C378 1.363 . S
N376 C378 1.356 . S
N376 H388 0.984 1_655 S
N376 H389 0.985 . S
N377 C379 1.356 . S
N377 H382 0.984 . S
N377 H383 0.985 . S
C378 C372 1.379 . S
C378 C375 1.363 . S
C378 N376 1.356 . S
C379 C373 1.363 . S
C379 C374 1.379 . S
C379 N377 1.356 . S
N380 C372 1.356 1_455 S
N380 H386 0.984 . S
N380 H387 0.984 . S
N381 C374 1.356 . S
N381 H384 0.984 . S
N381 H385 0.985 . S
H382 N377 0.984 . S
H383 N377 0.985 . S
H384 N381 0.984 . S
H385 N381 0.985 . S
H386 N380 0.984 . S
H387 N380 0.984 . S
H388 N376 0.984 1_455 S
H389 N376 0.985 . S
C390 C391 1.363 . S
C390 C396 1.379 . S
C390 N398 1.356 1_565 S
C391 C390 1.363 . S
C391 C397 1.363 . S
C392 C393 1.363 . S
C392 C397 1.379 . S
C392 N399 1.356 . S
C393 C392 1.363 . S
C393 C396 1.363 . S
N394 C396 1.356 . S
N394 H406 0.984 1_565 S
N394 H407 0.985 . S
N395 C397 1.356 . S
N395 H400 0.984 . S
N395 H401 0.985 . S
C396 C390 1.379 . S
C396 C393 1.363 . S
C396 N394 1.356 . S
C397 C391 1.363 . S
C397 C392 1.379 . S
C397 N395 1.356 . S
N398 C390 1.356 1_545 S
N398 H404 0.984 . S
N398 H405 0.984 . S
N399 C392 1.356 . S
N399 H402 0.984 . S
N399 H403 0.985 . S
H400 N395 0.984 . S
H401 N395 0.985 . S
H402 N399 0.984 . S
H403 N399 0.985 . S
H404 N398 0.984 . S
H405 N398 0.984 . S
H406 N394 0.984 1_545 S
H407 N394 0.985 . S
C408 C409 1.363 . S
C408 C414 1.379 . S
C408 N416 1.356 1_565 S
C409 C408 1.363 . S
C409 C415 1.363 . S
C410 C411 1.363 . S
C410 C415 1.379 . S
C410 N417 1.356 . S
C411 C410 1.363 . S
C411 C414 1.363 . S
N412 C414 1.356 . S
N412 H424 0.984 1_565 S
N412 H425 0.985 . S
N413 C415 1.356 . S
N413 H418 0.984 . S
N413 H419 0.985 . S
C414 C408 1.379 . S
C414 C411 1.363 . S
C414 N412 1.356 . S
C415 C409 1.363 . S
C415 C410 1.379 . S
C415 N413 1.356 . S
N416 C408 1.356 1_545 S
N416 H422 0.984 . S
N416 H423 0.984 . S
N417 C410 1.356 . S
N417 H420 0.984 . S
N417 H421 0.985 . S
H418 N413 0.984 . S
H419 N413 0.985 . S
H420 N417 0.984 . S
H421 N417 0.985 . S
H422 N416 0.984 . S
H423 N416 0.984 . S
H424 N412 0.984 1_545 S
H425 N412 0.985 . S
C426 C427 1.363 . S
C426 C432 1.379 . S
C426 N434 1.356 . S
C427 C426 1.363 . S
C427 C433 1.363 . S
C428 C429 1.363 . S
C428 C433 1.379 . S
C428 N435 1.356 . S
C429 C428 1.363 . S
C429 C432 1.363 . S
N430 C432 1.356 . S
N430 H442 0.984 . S
N430 H443 0.985 . S
N431 C433 1.356 . S
N431 H436 0.984 . S
N431 H437 0.985 . S
C432 C426 1.379 . S
C432 C429 1.363 . S
C432 N430 1.356 . S
C433 C427 1.363 . S
C433 C428 1.379 . S
C433 N431 1.356 . S
N434 C426 1.356 . S
N434 H440 0.984 1_455 S
N434 H441 0.984 . S
N435 C428 1.356 . S
N435 H438 0.984 . S
N435 H439 0.985 . S
H436 N431 0.984 . S
H437 N431 0.985 . S
H438 N435 0.984 . S
H439 N435 0.985 . S
H440 N434 0.984 1_655 S
H441 N434 0.984 . S
H442 N430 0.984 . S
H443 N430 0.985 . S
C444 C445 1.363 . S
C444 C450 1.379 . S
C444 N452 1.356 . S
C445 C444 1.363 . S
C445 C451 1.363 . S
C446 C447 1.363 . S
C446 C451 1.379 . S
C446 N453 1.356 . S
C447 C446 1.363 . S
C447 C450 1.363 . S
N448 C450 1.356 . S
N448 H460 0.984 . S
N448 H461 0.985 . S
N449 C451 1.356 . S
N449 H454 0.984 . S
N449 H455 0.985 . S
C450 C444 1.379 . S
C450 C447 1.363 . S
C450 N448 1.356 . S
C451 C445 1.363 . S
C451 C446 1.379 . S
C451 N449 1.356 . S
N452 C444 1.356 . S
N452 H458 0.984 1_545 S
N452 H459 0.984 . S
N453 C446 1.356 . S
N453 H456 0.984 . S
N453 H457 0.985 . S
H454 N449 0.984 . S
H455 N449 0.985 . S
H456 N453 0.984 . S
H457 N453 0.985 . S
H458 N452 0.984 1_565 S
H459 N452 0.984 . S
H460 N448 0.984 . S
H461 N448 0.985 . S
C462 C463 1.363 . S
C462 C468 1.379 . S
C462 N470 1.356 . S
C463 C462 1.363 . S
C463 C469 1.363 . S
C464 C465 1.363 . S
C464 C469 1.379 . S
C464 N471 1.356 . S
C465 C464 1.363 . S
C465 C468 1.363 . S
N466 C468 1.356 . S
N466 H478 0.984 . S
N466 H479 0.985 . S
N467 C469 1.356 1_455 S
N467 H472 0.984 . S
N467 H473 0.985 . S
C468 C462 1.379 . S
C468 C465 1.363 . S
C468 N466 1.356 . S
C469 C463 1.363 . S
C469 C464 1.379 . S
C469 N467 1.356 1_655 S
N470 C462 1.356 . S
N470 H476 0.984 . S
N470 H477 0.984 . S
N471 C464 1.356 . S
N471 H474 0.984 . S
N471 H475 0.985 1_655 S
H472 N467 0.984 . S
H473 N467 0.985 . S
H474 N471 0.984 . S
H475 N471 0.985 1_455 S
H476 N470 0.984 . S
H477 N470 0.984 . S
H478 N466 0.984 . S
H479 N466 0.985 . S
C480 C481 1.363 . S
C480 C486 1.379 . S
C480 N488 1.356 . S
C481 C480 1.363 . S
C481 C487 1.363 . S
C482 C483 1.363 . S
C482 C487 1.379 . S
C482 N489 1.356 . S
C483 C482 1.363 . S
C483 C486 1.363 . S
N484 C486 1.356 . S
N484 H496 0.984 . S
N484 H497 0.985 . S
N485 C487 1.356 . S
N485 H490 0.984 . S
N485 H491 0.985 . S
C486 C480 1.379 . S
C486 C483 1.363 . S
C486 N484 1.356 . S
C487 C481 1.363 . S
C487 C482 1.379 . S
C487 N485 1.356 . S
N488 C480 1.356 . S
N488 H494 0.984 . S
N488 H495 0.984 . S
N489 C482 1.356 . S
N489 H492 0.984 . S
N489 H493 0.985 . S
H490 N485 0.984 . S
H491 N485 0.985 . S
H492 N489 0.984 . S
H493 N489 0.985 . S
H494 N488 0.984 . S
H495 N488 0.984 . S
H496 N484 0.984 . S
H497 N484 0.985 . S
C498 C499 1.363 . S
C498 C504 1.379 . S
C498 N506 1.356 . S
C499 C498 1.363 . S
C499 C505 1.363 . S
C500 C501 1.363 . S
C500 C505 1.379 . S
C500 N507 1.356 . S
C501 C500 1.363 . S
C501 C504 1.363 . S
N502 C504 1.356 . S
N502 H514 0.984 . S
N502 H515 0.985 . S
N503 C505 1.356 . S
N503 H508 0.984 . S
N503 H509 0.985 . S
C504 C498 1.379 . S
C504 C501 1.363 . S
C504 N502 1.356 . S
C505 C499 1.363 . S
C505 C500 1.379 . S
C505 N503 1.356 . S
N506 C498 1.356 . S
N506 H512 0.984 . S
N506 H513 0.984 . S
N507 C500 1.356 . S
N507 H510 0.984 . S
N507 H511 0.985 . S
H508 N503 0.984 . S
H509 N503 0.985 . S
H510 N507 0.984 . S
H511 N507 0.985 . S
H512 N506 0.984 . S
H513 N506 0.984 . S
H514 N502 0.984 . S
H515 N502 0.985 . S
C516 C517 1.363 . S
C516 C522 1.379 . S
C516 N524 1.356 . S
C517 C516 1.363 . S
C517 C523 1.363 . S
C518 C519 1.363 . S
C518 C523 1.379 . S
C518 N525 1.356 . S
C519 C518 1.363 . S
C519 C522 1.363 . S
N520 C522 1.356 . S
N520 H532 0.984 . S
N520 H533 0.985 . S
N521 C523 1.356 . S
N521 H526 0.984 . S
N521 H527 0.985 . S
C522 C516 1.379 . S
C522 C519 1.363 . S
C522 N520 1.356 . S
C523 C517 1.363 . S
C523 C518 1.379 . S
C523 N521 1.356 . S
N524 C516 1.356 . S
N524 H530 0.984 . S
N524 H531 0.984 . S
N525 C518 1.356 . S
N525 H528 0.984 . S
N525 H529 0.985 . S
H526 N521 0.984 . S
H527 N521 0.985 . S
H528 N525 0.984 . S
H529 N525 0.985 . S
H530 N524 0.984 . S
H531 N524 0.984 . S
H532 N520 0.984 . S
H533 N520 0.985 . S
C534 C535 1.363 . S
C534 C540 1.379 . S
C534 N542 1.356 . S
C535 C534 1.363 . S
C535 C541 1.363 . S
C536 C537 1.363 . S
C536 C541 1.379 . S
C536 N543 1.356 . S
C537 C536 1.363 . S
C537 C540 1.363 . S
N538 C540 1.356 . S
N538 H550 0.984 . S
N538 H551 0.985 . S
N539 C541 1.356 . S
N539 H544 0.984 . S
N539 H545 0.985 . S
C540 C534 1.379 . S
C540 C537 1.363 . S
C540 N538 1.356 . S
C541 C535 1.363 . S
C541 C536 1.379 . S
C541 N539 1.356 . S
N542 C534 1.356 . S
N542 H548 0.984 . S
N542 H549 0.984 . S
N543 C536 1.356 . S
N543 H546 0.984 . S
N543 H547 0.985 . S
H544 N539 0.984 . S
H545 N539 0.985 . S
H546 N543 0.984 . S
H547 N543 0.985 . S
H548 N542 0.984 . S
H549 N542 0.984 . S
H550 N538 0.984 . S
H551 N538 0.985 . S
C552 C553 1.363 . S
C552 C558 1.379 . S
C552 N560 1.356 . S
C553 C552 1.363 . S
C553 C559 1.363 . S
C554 C555 1.363 . S
C554 C559 1.379 . S
C554 N561 1.356 . S
C555 C554 1.363 . S
C555 C558 1.363 . S
N556 C558 1.356 . S
N556 H568 0.984 . S
N556 H569 0.985 . S
N557 C559 1.356 . S
N557 H562 0.984 . S
N557 H563 0.985 . S
C558 C552 1.379 . S
C558 C555 1.363 . S
C558 N556 1.356 . S
C559 C553 1.363 . S
C559 C554 1.379 . S
C559 N557 1.356 . S
N560 C552 1.356 . S
N560 H566 0.984 . S
N560 H567 0.984 . S
N561 C554 1.356 . S
N561 H564 0.984 . S
N561 H565 0.985 . S
H562 N557 0.984 . S
H563 N557 0.985 . S
H564 N561 0.984 . S
H565 N561 0.985 . S
H566 N560 0.984 . S
H567 N560 0.984 . S
H568 N556 0.984 . S
H569 N556 0.985 . S
C570 C571 1.363 . S
C570 C576 1.379 . S
C570 N578 1.356 . S
C571 C570 1.363 . S
C571 C577 1.363 . S
C572 C573 1.363 . S
C572 C577 1.379 . S
C572 N579 1.356 . S
C573 C572 1.363 . S
C573 C576 1.363 . S
N574 C576 1.356 . S
N574 H586 0.984 . S
N574 H587 0.985 . S
N575 C577 1.356 . S
N575 H580 0.984 . S
N575 H581 0.985 . S
C576 C570 1.379 . S
C576 C573 1.363 . S
C576 N574 1.356 . S
C577 C571 1.363 . S
C577 C572 1.379 . S
C577 N575 1.356 . S
N578 C570 1.356 . S
N578 H584 0.984 . S
N578 H585 0.984 . S
N579 C572 1.356 . S
N579 H582 0.984 . S
N579 H583 0.985 . S
H580 N575 0.984 . S
H581 N575 0.985 . S
H582 N579 0.984 . S
H583 N579 0.985 . S
H584 N578 0.984 . S
H585 N578 0.984 . S
H586 N574 0.984 . S
H587 N574 0.985 . S
C588 C589 1.363 . S
C588 C594 1.379 . S
C588 N596 1.356 . S
C589 C588 1.363 . S
C589 C595 1.363 . S
C590 C591 1.363 . S
C590 C595 1.379 . S
C590 N597 1.356 . S
C591 C590 1.363 . S
C591 C594 1.363 . S
N592 C594 1.356 . S
N592 H604 0.984 . S
N592 H605 0.985 . S
N593 C595 1.356 . S
N593 H598 0.984 . S
N593 H599 0.985 . S
C594 C588 1.379 . S
C594 C591 1.363 . S
C594 N592 1.356 . S
C595 C589 1.363 . S
C595 C590 1.379 . S
C595 N593 1.356 . S
N596 C588 1.356 . S
N596 H602 0.984 . S
N596 H603 0.984 . S
N597 C590 1.356 . S
N597 H600 0.984 . S
N597 H601 0.985 . S
H598 N593 0.984 . S
H599 N593 0.985 . S
H600 N597 0.984 . S
H601 N597 0.985 . S
H602 N596 0.984 . S
H603 N596 0.984 . S
H604 N592 0.984 . S
H605 N592 0.985 . S
C606 C607 1.363 . S
C606 C612 1.379 . S
C606 N614 1.356 . S
C607 C606 1.363 . S
C607 C613 1.363 . S
C608 C609 1.363 . S
C608 C613 1.379 . S
C608 N615 1.356 . S
C609 C608 1.363 . S
C609 C612 1.363 . S
N610 C612 1.356 . S
N610 H622 0.984 . S
N610 H623 0.985 . S
N611 C613 1.356 . S
N611 H616 0.984 . S
N611 H617 0.985 . S
C612 C606 1.379 . S
C612 C609 1.363 . S
C612 N610 1.356 . S
C613 C607 1.363 . S
C613 C608 1.379 . S
C613 N611 1.356 . S
N614 C606 1.356 . S
N614 H620 0.984 . S
N614 H621 0.984 . S
N615 C608 1.356 . S
N615 H618 0.984 . S
N615 H619 0.985 . S
H616 N611 0.984 . S
H617 N611 0.985 . S
H618 N615 0.984 . S
H619 N615 0.985 . S
H620 N614 0.984 . S
H621 N614 0.984 . S
H622 N610 0.984 . S
H623 N610 0.985 . S
C193 C45 1.551 . S
C195 C114 1.563 . S
C211 C30 1.553 . S
C213 C125 1.566 . S
C229 C39 1.551 . S
C231 C136 1.554 1_554 S
C249 C147 1.555 . S
C247 C34 1.551 . S
C265 C97 1.551 . S
C267 C158 1.562 . S
C285 C169 1.562 . S
C283 C82 1.550 . S
C303 C180 1.555 . S
C301 C91 1.551 . S
C321 C191 1.569 . S
C319 C86 1.554 . S
C339 C175 1.546 . S
C337 C26 1.505 . S
C357 C185 1.467 . S
C355 C36 1.426 . S
C375 C152 1.540 . S
C373 C32 1.498 . S
C393 C163 1.505 . S
C391 C42 1.468 . S
C409 C18 1.565 . S
C411 C164 1.619 . S
C429 C174 1.599 . S
C427 C50 1.522 . S
C445 C4 1.608 . S
C447 C186 1.654 . S
C463 C48 1.531 . S
C465 C153 1.581 . S
C483 C131 1.527 . S
C481 C78 1.488 . S
C499 C88 1.502 . S
C501 C142 1.547 . S
C519 C108 1.514 . S
C517 C84 1.471 . S
C537 C119 1.496 . S
C535 C94 1.458 . S
C555 C120 1.628 . S
C553 C70 1.575 . S
C573 C130 1.618 . S
C571 C102 1.540 . S
C589 C56 1.525 . S
C591 C141 1.596 . S
C607 C100 1.558 . S
C609 C109 1.606 . S
