# Generated by pormake.
# Topology pyr, (3,6)-cn, num edge types: 1
# Building blocks:
#     Node 0, Type 0, BuildingBlock: BELTOD_clean_linker_0, # of connection points: 3
#     Node 1, Type 0, BuildingBlock: BELTOD_clean_linker_0, # of connection points: 3
#     Node 2, Type 0, BuildingBlock: BELTOD_clean_linker_0, # of connection points: 3
#     Node 3, Type 0, BuildingBlock: BELTOD_clean_linker_0, # of connection points: 3
#     Node 4, Type 0, BuildingBlock: BELTOD_clean_linker_0, # of connection points: 3
#     Node 5, Type 0, BuildingBlock: BELTOD_clean_linker_0, # of connection points: 3
#     Node 6, Type 0, BuildingBlock: BELTOD_clean_linker_0, # of connection points: 3
#     Node 7, Type 0, BuildingBlock: BELTOD_clean_linker_0, # of connection points: 3
#     Node 8, Type 1, BuildingBlock: MIDCAF_clean_sbu_0, # of connection points: 6
#     Node 9, Type 1, BuildingBlock: MIDCAF_clean_sbu_0, # of connection points: 6
#     Node 10, Type 1, BuildingBlock: MIDCAF_clean_sbu_0, # of connection points: 6
#     Node 11, Type 1, BuildingBlock: MIDCAF_clean_sbu_0, # of connection points: 6
#     Edge 12, Type (0, 1), BuildingBlock: EZIPEK_clean_linker_0, # of connection points: 2
#     Edge 13, Type (0, 1), BuildingBlock: EZIPEK_clean_linker_0, # of connection points: 2
#     Edge 14, Type (0, 1), BuildingBlock: EZIPEK_clean_linker_0, # of connection points: 2
#     Edge 15, Type (0, 1), BuildingBlock: EZIPEK_clean_linker_0, # of connection points: 2
#     Edge 16, Type (0, 1), BuildingBlock: EZIPEK_clean_linker_0, # of connection points: 2
#     Edge 17, Type (0, 1), BuildingBlock: EZIPEK_clean_linker_0, # of connection points: 2
#     Edge 18, Type (0, 1), BuildingBlock: EZIPEK_clean_linker_0, # of connection points: 2
#     Edge 19, Type (0, 1), BuildingBlock: EZIPEK_clean_linker_0, # of connection points: 2
#     Edge 20, Type (0, 1), BuildingBlock: EZIPEK_clean_linker_0, # of connection points: 2
#     Edge 21, Type (0, 1), BuildingBlock: EZIPEK_clean_linker_0, # of connection points: 2
#     Edge 22, Type (0, 1), BuildingBlock: EZIPEK_clean_linker_0, # of connection points: 2
#     Edge 23, Type (0, 1), BuildingBlock: EZIPEK_clean_linker_0, # of connection points: 2
#     Edge 24, Type (0, 1), BuildingBlock: EZIPEK_clean_linker_0, # of connection points: 2
#     Edge 25, Type (0, 1), BuildingBlock: EZIPEK_clean_linker_0, # of connection points: 2
#     Edge 26, Type (0, 1), BuildingBlock: EZIPEK_clean_linker_0, # of connection points: 2
#     Edge 27, Type (0, 1), BuildingBlock: EZIPEK_clean_linker_0, # of connection points: 2
#     Edge 28, Type (0, 1), BuildingBlock: EZIPEK_clean_linker_0, # of connection points: 2
#     Edge 29, Type (0, 1), BuildingBlock: EZIPEK_clean_linker_0, # of connection points: 2
#     Edge 30, Type (0, 1), BuildingBlock: EZIPEK_clean_linker_0, # of connection points: 2
#     Edge 31, Type (0, 1), BuildingBlock: EZIPEK_clean_linker_0, # of connection points: 2
#     Edge 32, Type (0, 1), BuildingBlock: EZIPEK_clean_linker_0, # of connection points: 2
#     Edge 33, Type (0, 1), BuildingBlock: EZIPEK_clean_linker_0, # of connection points: 2
#     Edge 34, Type (0, 1), BuildingBlock: EZIPEK_clean_linker_0, # of connection points: 2
#     Edge 35, Type (0, 1), BuildingBlock: EZIPEK_clean_linker_0, # of connection points: 2
# Relax obj value: 0.020
# Max RMSD: 0.063
# Mean RMSD: 0.033
data_MOF--net-pyr--node1-MIDCAF_clean_sbu_0--node2-BELTOD_clean_linker_0--edge1-EZIPEK_clean_linker_0
_symmetry_space_group_name_H-M    P1
_symmetry_Int_Tables_number       1
_symmetry_cell_setting            triclinic
loop_
_symmetry_equiv_pos_as_xyz
'x, y, z'
_cell_length_a     30.838187
_cell_length_b     31.14678
_cell_length_c     30.579635
_cell_angle_alpha  89.469962
_cell_angle_beta   90.049603
_cell_angle_gamma 90.383996
loop_
_atom_site_label
_atom_site_type_symbol
_atom_site_fract_x
_atom_site_fract_y
_atom_site_fract_z
_atom_type_partial_charge
P0 P 0.26968 0.27525 0.28268 0.0
H1 H 0.32456 0.30396 0.21067 0.0
H2 H 0.36824 0.26601 0.15633 0.0
H3 H 0.3314 0.14491 0.21528 0.0
H4 H 0.28571 0.18222 0.26735 0.0
H5 H 0.2613 0.36942 0.28404 0.0
H6 H 0.21495 0.41948 0.24301 0.0
H7 H 0.15788 0.31311 0.17383 0.0
H8 H 0.20497 0.26313 0.21407 0.0
H9 H 0.29279 0.2064 0.34388 0.0
H10 H 0.17549 0.26944 0.30205 0.0
O11 O 0.30379 0.30276 0.3144 0.0
H12 H 0.24949 0.15464 0.38659 0.0
H13 H 0.13256 0.21914 0.3464 0.0
C14 C 0.30188 0.2462 0.24346 0.0
C15 C 0.32575 0.26922 0.21186 0.0
C16 C 0.3509 0.24764 0.18105 0.0
C17 C 0.35337 0.20264 0.18198 0.0
C18 C 0.33021 0.17966 0.21418 0.0
C19 C 0.30418 0.20117 0.24419 0.0
C20 C 0.23623 0.31249 0.25235 0.0
C21 C 0.23897 0.35681 0.25997 0.0
C22 C 0.21261 0.3854 0.23657 0.0
C23 C 0.18273 0.36994 0.2057 0.0
C24 C 0.18057 0.32565 0.19765 0.0
C25 C 0.2073 0.29718 0.22062 0.0
C26 C 0.23744 0.24058 0.31799 0.0
C27 C 0.25781 0.20926 0.34397 0.0
C28 C 0.23316 0.17996 0.36865 0.0
C29 C 0.18772 0.18258 0.36914 0.0
C30 C 0.16754 0.21614 0.34597 0.0
C31 C 0.19216 0.24468 0.32033 0.0
P32 P 0.31334 0.81571 0.74131 0.0
H33 H 0.36627 0.7753 0.80896 0.0
H34 H 0.39309 0.8094 0.87535 0.0
H35 H 0.29049 0.90233 0.86691 0.0
H36 H 0.26345 0.86828 0.80088 0.0
H37 H 0.36569 0.7937 0.66702 0.0
H38 H 0.39406 0.72609 0.64036 0.0
H39 H 0.32442 0.65717 0.74153 0.0
H40 H 0.29628 0.726 0.76922 0.0
H41 H 0.29452 0.87265 0.66847 0.0
H42 H 0.22232 0.79124 0.7577 0.0
O43 O 0.35085 0.85158 0.72566 0.0
H44 H 0.22729 0.89441 0.63302 0.0
H45 H 0.15412 0.81326 0.72147 0.0
C46 C 0.31304 0.81945 0.79973 0.0
C47 C 0.34752 0.80097 0.82306 0.0
C48 C 0.36298 0.82049 0.86102 0.0
C49 C 0.3442 0.85881 0.87523 0.0
C50 C 0.30534 0.87279 0.85625 0.0
C51 C 0.28985 0.85319 0.81845 0.0
C52 C 0.3301 0.76478 0.72086 0.0
C53 C 0.35649 0.76421 0.68372 0.0
C54 C 0.37249 0.72564 0.66834 0.0
C55 C 0.36185 0.6869 0.68946 0.0
C56 C 0.3333 0.68697 0.72525 0.0
C57 C 0.31744 0.726 0.74098 0.0
C58 C 0.26319 0.83092 0.71615 0.0
C59 C 0.26418 0.85962 0.68066 0.0
C60 C 0.22588 0.87201 0.66033 0.0
C61 C 0.18604 0.85556 0.67489 0.0
C62 C 0.18478 0.82632 0.7101 0.0
C63 C 0.22343 0.81387 0.73061 0.0
P64 P 0.77551 0.28011 0.76778 0.0
H65 H 0.86655 0.27128 0.79383 0.0
H66 H 0.91291 0.31125 0.84472 0.0
H67 H 0.80651 0.3955 0.87347 0.0
H68 H 0.76062 0.35664 0.82173 0.0
H69 H 0.75146 0.18966 0.75691 0.0
H70 H 0.70329 0.14098 0.79795 0.0
H71 H 0.67351 0.24289 0.88728 0.0
H72 H 0.7225 0.29128 0.84712 0.0
H73 H 0.78439 0.3053 0.67557 0.0
H74 H 0.69749 0.33232 0.78224 0.0
O75 O 0.8073 0.2503 0.73616 0.0
H76 H 0.74358 0.35457 0.62821 0.0
H77 H 0.65807 0.38298 0.73546 0.0
C78 C 0.81001 0.31097 0.8037 0.0
C79 C 0.85322 0.29863 0.81062 0.0
C80 C 0.87971 0.32133 0.83969 0.0
C81 C 0.86303 0.35614 0.86301 0.0
C82 C 0.81995 0.36869 0.85582 0.0
C83 C 0.79372 0.34638 0.82629 0.0
C84 C 0.74083 0.24421 0.79895 0.0
C85 C 0.73498 0.20155 0.78555 0.0
C86 C 0.7075 0.17372 0.8089 0.0
C87 C 0.68479 0.18839 0.84556 0.0
C88 C 0.69079 0.23097 0.8591 0.0
C89 C 0.71868 0.25862 0.83604 0.0
C90 C 0.74409 0.31502 0.7326 0.0
C91 C 0.75659 0.32169 0.68889 0.0
C92 C 0.73343 0.34989 0.66184 0.0
C93 C 0.69805 0.37272 0.67842 0.0
C94 C 0.68539 0.36582 0.72206 0.0
C95 C 0.70802 0.33697 0.74881 0.0
P96 P 0.75019 0.7831 0.25066 0.0
H97 H 0.75013 0.87336 0.27849 0.0
H98 H 0.80301 0.91655 0.31996 0.0
H99 H 0.88522 0.80577 0.33343 0.0
H100 H 0.83302 0.76288 0.29179 0.0
H101 H 0.74614 0.69103 0.22892 0.0
H102 H 0.79419 0.6455 0.18583 0.0
H103 H 0.8718 0.75618 0.15073 0.0
H104 H 0.8232 0.80212 0.19315 0.0
H105 H 0.76506 0.74438 0.33757 0.0
H106 H 0.6611 0.75057 0.24317 0.0
O107 O 0.71917 0.81532 0.2202 0.0
H108 H 0.71885 0.70205 0.38674 0.0
H109 H 0.6148 0.70752 0.2927 0.0
C110 C 0.7879 0.81507 0.28175 0.0
C111 C 0.77957 0.85843 0.29026 0.0
C112 C 0.8096 0.88302 0.3138 0.0
C113 C 0.84788 0.86418 0.32947 0.0
C114 C 0.85585 0.82074 0.32143 0.0
C115 C 0.82611 0.79638 0.29771 0.0
C116 C 0.7815 0.74988 0.21475 0.0
C117 C 0.77299 0.70575 0.2115 0.0
C118 C 0.80029 0.67978 0.18683 0.0
C119 C 0.83639 0.69763 0.16524 0.0
C120 C 0.84396 0.74199 0.16708 0.0
C121 C 0.81635 0.76803 0.19133 0.0
C122 C 0.71625 0.75158 0.28701 0.0
C123 C 0.73234 0.73692 0.32737 0.0
C124 C 0.70605 0.71256 0.35545 0.0
C125 C 0.66347 0.70198 0.34336 0.0
C126 C 0.64757 0.71563 0.30256 0.0
C127 C 0.6739 0.74025 0.27451 0.0
P128 P 0.92041 0.93036 0.92729 0.0
H129 H 0.87555 0.98331 0.99137 0.0
H130 H 0.79873 0.00132 0.00116 0.0
H131 H 0.76689 0.93399 0.88275 0.0
H132 H 0.84346 0.91612 0.87275 0.0
H133 H 0.99605 0.87798 0.94417 0.0
H134 H 0.0052 0.80413 0.97107 0.0
H135 H 0.86702 0.79232 0.9893 0.0
H136 H 0.85767 0.86621 0.96238 0.0
H137 H 0.95948 0.9954 0.87009 0.0
H138 H 0.9146 0.86441 0.85953 0.0
O139 O 0.95287 0.96414 0.95416 0.0
H140 H 0.97284 0.99779 0.79097 0.0
H141 H 0.92749 0.86708 0.78029 0.0
C142 C 0.86531 0.94883 0.93105 0.0
C143 C 0.85225 0.97335 0.96691 0.0
C144 C 0.80856 0.98379 0.97242 0.0
C145 C 0.77742 0.96941 0.94234 0.0
C146 C 0.79064 0.94593 0.90585 0.0
C147 C 0.83431 0.93564 0.90027 0.0
C148 C 0.9263 0.87762 0.95123 0.0
C149 C 0.96777 0.85978 0.95454 0.0
C150 C 0.97299 0.8178 0.96999 0.0
C151 C 0.93679 0.79303 0.98228 0.0
C152 C 0.8953 0.81118 0.98022 0.0
C153 C 0.89006 0.85327 0.96465 0.0
C154 C 0.93654 0.92959 0.87071 0.0
C155 C 0.95352 0.96686 0.85098 0.0
C156 C 0.96127 0.96821 0.80595 0.0
C157 C 0.95159 0.93245 0.78003 0.0
C158 C 0.93578 0.89472 0.79994 0.0
C159 C 0.92834 0.89329 0.84505 0.0
P160 P 0.70202 0.20956 0.34463 0.0
H161 H 0.75117 0.25441 0.41219 0.0
H162 H 0.7289 0.30642 0.4678 0.0
H163 H 0.59497 0.2846 0.43321 0.0
H164 H 0.61661 0.23099 0.38042 0.0
H165 H 0.73511 0.14109 0.2902 0.0
H166 H 0.78348 0.08031 0.30548 0.0
H167 H 0.78708 0.11538 0.44157 0.0
H168 H 0.73693 0.17397 0.42708 0.0
H169 H 0.64785 0.2592 0.28489 0.0
H170 H 0.6525 0.1293 0.33498 0.0
O171 O 0.7337 0.2417 0.3144 0.0
H172 H 0.59246 0.23732 0.23149 0.0
H173 H 0.59924 0.10715 0.28031 0.0
C174 C 0.68561 0.23934 0.39173 0.0
C175 C 0.71695 0.2598 0.41772 0.0
C176 C 0.70436 0.28938 0.44932 0.0
C177 C 0.66046 0.30008 0.45353 0.0
C178 C 0.62909 0.27717 0.42989 0.0
C179 C 0.64155 0.24673 0.39945 0.0
C180 C 0.73289 0.16237 0.35741 0.0
C181 C 0.74562 0.13508 0.32349 0.0
C182 C 0.77305 0.10049 0.33209 0.0
C183 C 0.7894 0.09411 0.37441 0.0
C184 C 0.77508 0.12023 0.40858 0.0
C185 C 0.74676 0.15397 0.40021 0.0
C186 C 0.65575 0.19532 0.31209 0.0
C187 C 0.63662 0.22618 0.28467 0.0
C188 C 0.6048 0.2139 0.25468 0.0
C189 C 0.59288 0.17049 0.25141 0.0
C190 C 0.60866 0.14067 0.28204 0.0
C191 C 0.63956 0.15319 0.3127 0.0
P192 P 0.42102 0.62777 0.10774 0.0
H193 H 0.38383 0.56523 0.04736 0.0
H194 H 0.31522 0.52883 0.04417 0.0
H195 H 0.27303 0.59877 0.15824 0.0
H196 H 0.34196 0.63488 0.16023 0.0
H197 H 0.48764 0.69328 0.10576 0.0
H198 H 0.48818 0.76913 0.08388 0.0
H199 H 0.35276 0.76044 0.04964 0.0
H200 H 0.35213 0.68406 0.07156 0.0
H201 H 0.47477 0.56457 0.15315 0.0
H202 H 0.40735 0.68115 0.18478 0.0
O203 O 0.45581 0.60238 0.07534 0.0
H204 H 0.49117 0.55302 0.23092 0.0
H205 H 0.42301 0.66905 0.26261 0.0
C206 C 0.3689 0.60134 0.10524 0.0
C207 C 0.36017 0.57147 0.07261 0.0
C208 C 0.32057 0.54941 0.07182 0.0
C209 C 0.28875 0.55528 0.10468 0.0
C210 C 0.29709 0.5883 0.13523 0.0
C211 C 0.33673 0.6104 0.13588 0.0
C212 C 0.41984 0.68322 0.09069 0.0
C213 C 0.45805 0.70758 0.09349 0.0
C214 C 0.4584 0.75071 0.08091 0.0
C215 C 0.42053 0.77021 0.06524 0.0
C216 C 0.38226 0.74579 0.06169 0.0
C217 C 0.38193 0.70237 0.07434 0.0
C218 C 0.44015 0.62388 0.16324 0.0
C219 C 0.46451 0.58824 0.17663 0.0
C220 C 0.474 0.5817 0.22089 0.0
C221 C 0.45851 0.61036 0.2523 0.0
C222 C 0.43565 0.64693 0.23872 0.0
C223 C 0.4266 0.65369 0.19441 0.0
P224 P 0.1837 0.33879 0.70317 0.0
H225 H 0.19359 0.33053 0.60706 0.0
H226 H 0.16572 0.27662 0.55575 0.0
H227 H 0.09355 0.21628 0.66055 0.0
H228 H 0.12229 0.269 0.71197 0.0
H229 H 0.26913 0.32868 0.66606 0.0
H230 H 0.32184 0.37949 0.6349 0.0
H231 H 0.23361 0.48382 0.65744 0.0
H232 H 0.18013 0.4327 0.68783 0.0
H233 H 0.19074 0.38573 0.78356 0.0
H234 H 0.0886 0.35098 0.69371 0.0
O235 O 0.21221 0.30767 0.73715 0.0
H236 H 0.13749 0.41959 0.83109 0.0
H237 H 0.03488 0.38382 0.74238 0.0
C238 C 0.1597 0.30384 0.66333 0.0
C239 C 0.17148 0.30599 0.61898 0.0
C240 C 0.15557 0.27541 0.58964 0.0
C241 C 0.12737 0.24287 0.60444 0.0
C242 C 0.11501 0.24143 0.64855 0.0
C243 C 0.13131 0.27149 0.6778 0.0
C244 C 0.22095 0.37694 0.67939 0.0
C245 C 0.26102 0.36244 0.66423 0.0
C246 C 0.29105 0.39136 0.64661 0.0
C247 C 0.28149 0.43525 0.64401 0.0
C248 C 0.2414 0.45 0.65927 0.0
C249 C 0.21103 0.42084 0.67653 0.0
C250 C 0.14357 0.36529 0.73561 0.0
C251 C 0.15687 0.38535 0.77412 0.0
C252 C 0.12656 0.4046 0.80115 0.0
C253 C 0.08239 0.404 0.79018 0.0
C254 C 0.06889 0.38452 0.75125 0.0
C255 C 0.09952 0.36565 0.72373 0.0
Zn256 Zn 0.95995 0.05529 0.54571 0.0
Zn257 Zn 0.06954 0.9542 0.45953 0.0
Zn258 Zn 0.01464 0.00296 0.51003 0.0
C259 C 0.09351 0.04159 0.45145 0.0
C260 C 0.98612 0.94099 0.42908 0.0
O261 O 0.00089 0.97257 0.5756 0.0
O262 O 0.94735 0.01493 0.59433 0.0
C263 C 0.03535 0.10147 0.5372 0.0
O264 O 0.0667 0.0453 0.48356 0.0
O265 O 0.0985 0.00586 0.43292 0.0
O266 O 0.02297 0.92395 0.42532 0.0
O267 O 0.97996 0.97155 0.45641 0.0
O268 O 0.99913 0.1047 0.55595 0.0
O269 O 0.04503 0.06722 0.51607 0.0
O270 O 0.95466 0.00418 0.47159 0.0
O271 O 0.9171 0.05846 0.49772 0.0
C272 C 0.92175 0.02923 0.46991 0.0
O273 O 0.03971 0.95628 0.55572 0.0
O274 O 0.09287 0.92943 0.51562 0.0
C275 C 0.96884 0.98114 0.60119 0.0
C276 C 0.07394 0.93321 0.55208 0.0
Zn277 Zn 0.46265 0.0849 0.96156 0.0
Zn278 Zn 0.54721 0.99041 0.0765 0.0
Zn279 Zn 0.51075 0.03566 0.01634 0.0
C280 C 0.603 0.99552 0.00082 0.0
C281 C 0.48011 0.94046 0.05057 0.0
O282 O 0.47856 0.08767 0.0535 0.0
O283 O 0.43069 0.11619 0.00782 0.0
C284 C 0.55299 0.09423 0.94183 0.0
O285 O 0.57632 0.02478 0.9879 0.0
O286 O 0.59711 0.97799 0.03779 0.0
O287 O 0.50453 0.94311 0.08357 0.0
O288 O 0.4797 0.97095 0.02176 0.0
O289 O 0.51637 0.11141 0.93589 0.0
O290 O 0.55682 0.06161 0.96783 0.0
O291 O 0.46128 0.99492 0.98822 0.0
O292 O 0.43384 0.03388 0.93402 0.0
C293 C 0.43625 0.99872 0.95487 0.0
O294 O 0.51237 0.07154 0.07807 0.0
O295 O 0.55415 0.03367 0.12263 0.0
C296 C 0.44646 0.11304 0.04583 0.0
C297 C 0.53278 0.06716 0.11456 0.0
Zn298 Zn 0.5695 0.58584 0.57148 0.0
Zn299 Zn 0.47783 0.4705 0.48147 0.0
Zn300 Zn 0.51985 0.53107 0.52222 0.0
C301 C 0.55554 0.43545 0.50111 0.0
C302 C 0.48008 0.54575 0.42698 0.0
O303 O 0.47839 0.55653 0.57273 0.0
O304 O 0.51683 0.6096 0.60144 0.0
C305 C 0.60084 0.50363 0.58582 0.0
O306 O 0.55737 0.47139 0.52146 0.0
O307 O 0.52328 0.42625 0.47756 0.0
O308 O 0.46523 0.50798 0.43057 0.0
O309 O 0.50717 0.55943 0.45597 0.0
O310 O 0.60385 0.5405 0.60245 0.0
O311 O 0.57425 0.49665 0.55403 0.0
O312 O 0.54361 0.57971 0.47621 0.0
O313 O 0.59376 0.61226 0.51634 0.0
C314 C 0.57583 0.60603 0.47969 0.0
O315 O 0.45615 0.52265 0.5537 0.0
O316 O 0.42995 0.46329 0.52415 0.0
C317 C 0.48158 0.58881 0.59837 0.0
C318 C 0.42681 0.49319 0.55152 0.0
Zn319 Zn 0.07072 0.57202 0.97654 0.0
Zn320 Zn 0.96318 0.47663 0.08749 0.0
Zn321 Zn 0.01727 0.52538 0.03179 0.0
C322 C 0.05215 0.46513 0.111 0.0
C323 C 0.95081 0.45041 0.99969 0.0
O324 O 0.99387 0.5921 0.02963 0.0
O325 O 0.03489 0.62493 0.97989 0.0
C326 C 0.12074 0.53953 0.0459 0.0
O327 O 0.05825 0.49404 0.08122 0.0
O328 O 0.01439 0.45119 0.11936 0.0
O329 O 0.9354 0.44458 0.03764 0.0
O330 O 0.98194 0.47748 0.99324 0.0
O331 O 0.1236 0.56475 0.01343 0.0
O332 O 0.08435 0.52154 0.05604 0.0
O333 O 0.01357 0.49658 0.96705 0.0
O334 O 0.06195 0.5319 0.92682 0.0
C335 C 0.03461 0.50176 0.93109 0.0
O336 O 0.97148 0.56925 0.06195 0.0
O337 O 0.93462 0.52985 0.11026 0.0
C338 C 0.00368 0.62558 0.0066 0.0
C339 C 0.94281 0.56576 0.09233 0.0
C340 C 0.13333 0.12181 0.36637 0.0
C341 C 0.1613 0.14846 0.39141 0.0
C342 C 0.14625 0.10381 0.45633 0.0
C343 C 0.11516 0.08009 0.43222 0.0
N344 N 0.07148 0.07365 0.36703 0.0
N345 N 0.18643 0.17057 0.46259 0.0
C346 C 0.10628 0.09138 0.38809 0.0
C347 C 0.16532 0.14125 0.4372 0.0
N348 N 0.1342 0.12371 0.32169 0.0
N349 N 0.15945 0.08934 0.4964 0.0
H350 H 0.20001 0.19877 0.44981 0.0
H351 H 0.18662 0.1689 0.49665 0.0
H352 H 0.14704 0.06136 0.51078 0.0
H353 H 0.18522 0.10303 0.51351 0.0
H354 H 0.11764 0.10188 0.30206 0.0
H355 H 0.15491 0.14402 0.30411 0.0
H356 H 0.06104 0.08404 0.33631 0.0
H357 H 0.05039 0.05172 0.38202 0.0
C358 C 0.40245 0.91472 0.8738 0.0
C359 C 0.37129 0.89076 0.8983 0.0
C360 C 0.3829 0.93746 0.9612 0.0
C361 C 0.41518 0.96009 0.93703 0.0
N362 N 0.46491 0.96181 0.87616 0.0
N363 N 0.33839 0.873 0.96747 0.0
C364 C 0.42783 0.94608 0.89512 0.0
C365 C 0.36362 0.90008 0.94285 0.0
N366 N 0.40648 0.90915 0.82965 0.0
N367 N 0.3695 0.95263 0.0007 0.0
H368 H 0.32382 0.84558 0.95449 0.0
H369 H 0.33512 0.87556 0.00124 0.0
H370 H 0.38294 0.97992 0.01504 0.0
H371 H 0.34323 0.93989 0.01793 0.0
H372 H 0.42496 0.92952 0.80976 0.0
H373 H 0.38861 0.88675 0.81196 0.0
H374 H 0.47805 0.94921 0.84767 0.0
H375 H 0.48511 0.98428 0.8912 0.0
C376 C 0.62981 0.39712 0.6408 0.0
C377 C 0.67426 0.40427 0.65048 0.0
C378 C 0.67203 0.47174 0.60846 0.0
C379 C 0.62633 0.46778 0.60498 0.0
N380 N 0.56057 0.42981 0.62515 0.0
N381 N 0.73637 0.45204 0.64906 0.0
C382 C 0.60483 0.43115 0.6228 0.0
C383 C 0.69519 0.44247 0.63557 0.0
N384 N 0.61159 0.3576 0.64814 0.0
N385 N 0.69342 0.50294 0.58515 0.0
H386 H 0.75418 0.43217 0.66987 0.0
H387 H 0.75133 0.48157 0.6429 0.0
H388 H 0.6775 0.52435 0.56428 0.0
H389 H 0.72711 0.50471 0.58307 0.0
H390 H 0.58036 0.34949 0.638 0.0
H391 H 0.62919 0.33165 0.66041 0.0
H392 H 0.54361 0.40593 0.64215 0.0
H393 H 0.54078 0.45445 0.61362 0.0
C394 C 0.86593 0.66071 0.09896 0.0
C395 C 0.86839 0.66894 0.14443 0.0
C396 C 0.9279 0.61765 0.15187 0.0
C397 C 0.92039 0.60435 0.10832 0.0
N398 N 0.88208 0.61184 0.0399 0.0
N399 N 0.90138 0.65606 0.21488 0.0
C400 C 0.88985 0.62597 0.0814 0.0
C401 C 0.89959 0.64789 0.17104 0.0
N402 N 0.84078 0.68614 0.07273 0.0
N403 N 0.96292 0.60219 0.17436 0.0
H404 H 0.88293 0.67978 0.22976 0.0
H405 H 0.91942 0.63791 0.23701 0.0
H406 H 0.9847 0.58048 0.16089 0.0
H407 H 0.97283 0.61371 0.20463 0.0
H408 H 0.84129 0.68497 0.03872 0.0
H409 H 0.82194 0.71103 0.08486 0.0
H410 H 0.857 0.62314 0.02023 0.0
H411 H 0.89917 0.58673 0.0258 0.0
C412 C 0.35571 0.15139 0.11892 0.0
C413 C 0.37811 0.1793 0.14776 0.0
C414 C 0.44575 0.16618 0.10776 0.0
C415 C 0.42409 0.13482 0.08231 0.0
N416 N 0.36075 0.09018 0.07125 0.0
N417 N 0.4463 0.2067 0.17506 0.0
C418 C 0.37974 0.1252 0.09018 0.0
C419 C 0.42376 0.18481 0.1438 0.0
N420 N 0.3114 0.15123 0.11743 0.0
N421 N 0.48655 0.17949 0.09647 0.0
H422 H 0.43149 0.21975 0.20251 0.0
H423 H 0.48003 0.20844 0.17586 0.0
H424 H 0.50331 0.16688 0.06996 0.0
H425 H 0.50232 0.20525 0.11122 0.0
H426 H 0.29373 0.13462 0.09387 0.0
H427 H 0.29236 0.1712 0.13658 0.0
H428 H 0.32973 0.07934 0.07942 0.0
H429 H 0.37751 0.06931 0.05093 0.0
C430 C 0.13016 0.91101 0.66079 0.0
C431 C 0.14634 0.86964 0.65193 0.0
C432 C 0.101 0.86572 0.58656 0.0
C433 C 0.09258 0.91027 0.59025 0.0
N434 N 0.09944 0.97622 0.63104 0.0
N435 N 0.14725 0.80634 0.60731 0.0
C436 C 0.10633 0.93307 0.62793 0.0
C437 C 0.13114 0.84623 0.61549 0.0
N438 N 0.1383 0.92923 0.70045 0.0
N439 N 0.07954 0.8421 0.55582 0.0
H440 H 0.16815 0.7905 0.62881 0.0
H441 H 0.14167 0.78993 0.57832 0.0
H442 H 0.05629 0.85545 0.53502 0.0
H443 H 0.08143 0.8088 0.55394 0.0
H444 H 0.12405 0.95765 0.71067 0.0
H445 H 0.15599 0.9135 0.72484 0.0
H446 H 0.11332 0.9953 0.65515 0.0
H447 H 0.08221 0.99382 0.6079 0.0
C448 C 0.90123 0.42284 0.88883 0.0
C449 C 0.89004 0.37908 0.89589 0.0
C450 C 0.92842 0.38049 0.96607 0.0
C451 C 0.93261 0.42577 0.96247 0.0
N452 N 0.91668 0.4912 0.92241 0.0
N453 N 0.88787 0.31745 0.94449 0.0
C454 C 0.91772 0.44734 0.92419 0.0
C455 C 0.90245 0.35807 0.93532 0.0
N456 N 0.89666 0.44084 0.84819 0.0
N457 N 0.95031 0.35868 0.99807 0.0
H458 H 0.86805 0.30003 0.92336 0.0
H459 H 0.8922 0.30257 0.97482 0.0
H460 H 0.97098 0.37385 0.02019 0.0
H461 H 0.95168 0.32528 0.99957 0.0
H462 H 0.90854 0.4713 0.84013 0.0
H463 H 0.88505 0.42363 0.82146 0.0
H464 H 0.9022 0.50826 0.89689 0.0
H465 H 0.92631 0.51065 0.94825 0.0
C466 C 0.61209 0.69944 0.40673 0.0
C467 C 0.6356 0.67719 0.37432 0.0
C468 C 0.61195 0.60801 0.40576 0.0
C469 C 0.59265 0.63026 0.4411 0.0
N470 N 0.5729 0.69673 0.47551 0.0
N471 N 0.65937 0.61112 0.34228 0.0
C472 C 0.59232 0.67592 0.44159 0.0
C473 C 0.63541 0.63165 0.37327 0.0
N474 N 0.60804 0.74308 0.4035 0.0
N475 N 0.60837 0.56428 0.40354 0.0
H476 H 0.6756 0.62739 0.31714 0.0
H477 H 0.66522 0.57827 0.34245 0.0
H478 H 0.59447 0.54539 0.42812 0.0
H479 H 0.61699 0.54655 0.37626 0.0
H480 H 0.58789 0.76119 0.42327 0.0
H481 H 0.62257 0.76128 0.37867 0.0
H482 H 0.57621 0.72945 0.48125 0.0
H483 H 0.55415 0.68093 0.49912 0.0
C484 C 0.11854 0.41987 0.20481 0.0
C485 C 0.15292 0.39971 0.18211 0.0
C486 C 0.12282 0.42473 0.1122 0.0
C487 C 0.08954 0.44648 0.13505 0.0
N488 N 0.06289 0.47445 0.20304 0.0
N489 N 0.19422 0.3928 0.11572 0.0
C490 C 0.08973 0.44714 0.1814 0.0
C491 C 0.15716 0.40544 0.13623 0.0
N492 N 0.11191 0.41128 0.24821 0.0
N493 N 0.12032 0.41997 0.06787 0.0
H494 H 0.22017 0.37898 0.1325 0.0
H495 H 0.20087 0.39986 0.08303 0.0
H496 H 0.09522 0.43245 0.04891 0.0
H497 H 0.1412 0.40045 0.05029 0.0
H498 H 0.08453 0.42133 0.26512 0.0
H499 H 0.13177 0.39103 0.26658 0.0
H500 H 0.06455 0.47938 0.23665 0.0
H501 H 0.04203 0.4955 0.18678 0.0
C502 C 0.66249 0.14603 0.91256 0.0
C503 C 0.65354 0.15971 0.8691 0.0
C504 C 0.58534 0.11898 0.87092 0.0
C505 C 0.59048 0.11196 0.91656 0.0
N506 N 0.63333 0.12175 0.98201 0.0
N507 N 0.60345 0.16365 0.80842 0.0
C508 C 0.62913 0.12585 0.93772 0.0
C509 C 0.61426 0.14715 0.84852 0.0
N510 N 0.70316 0.15155 0.92947 0.0
N511 N 0.55354 0.09758 0.84865 0.0
H512 H 0.62325 0.18503 0.79105 0.0
H513 H 0.57306 0.15917 0.7942 0.0
H514 H 0.53296 0.07517 0.86368 0.0
H515 H 0.55086 0.09833 0.81468 0.0
H516 H 0.71297 0.13817 0.95918 0.0
H517 H 0.72838 0.16592 0.9118 0.0
H518 H 0.65843 0.13589 0.9997 0.0
H519 H 0.61009 0.10688 0.00164 0.0
C520 C 0.87739 0.8901 0.40076 0.0
C521 C 0.88017 0.88942 0.35454 0.0
C522 C 0.94874 0.92961 0.3573 0.0
C523 C 0.94895 0.92471 0.40343 0.0
N524 N 0.91578 0.89697 0.46949 0.0
N525 N 0.91871 0.90649 0.28799 0.0
C526 C 0.91364 0.90451 0.42539 0.0
C527 C 0.91581 0.90888 0.33251 0.0
N528 N 0.84 0.87707 0.42103 0.0
N529 N 0.97921 0.95519 0.33741 0.0
H530 H 0.89425 0.89324 0.26864 0.0
H531 H 0.94628 0.9154 0.27042 0.0
H532 H 0.00359 0.97108 0.3547 0.0
H533 H 0.97817 0.96373 0.30443 0.0
H534 H 0.83413 0.88128 0.45424 0.0
H535 H 0.81314 0.86545 0.40396 0.0
H536 H 0.89329 0.87823 0.48655 0.0
H537 H 0.94193 0.90656 0.48881 0.0
C538 C 0.37195 0.63323 0.63127 0.0
C539 C 0.38289 0.64741 0.67365 0.0
C540 C 0.44977 0.606 0.67084 0.0
C541 C 0.44409 0.60186 0.6251 0.0
N542 N 0.39925 0.61187 0.56075 0.0
N543 N 0.43136 0.64608 0.73558 0.0
C544 C 0.40448 0.61436 0.60506 0.0
C545 C 0.42106 0.63252 0.69449 0.0
N546 N 0.33091 0.63954 0.61586 0.0
N547 N 0.48258 0.58456 0.69144 0.0
H548 H 0.41052 0.66455 0.75436 0.0
H549 H 0.46141 0.64074 0.75015 0.0
H550 H 0.50351 0.56422 0.67477 0.0
H551 H 0.48616 0.58345 0.7253 0.0
H552 H 0.31964 0.62685 0.58655 0.0
H553 H 0.30701 0.65383 0.63494 0.0
H554 H 0.37274 0.62468 0.54419 0.0
H555 H 0.42287 0.60012 0.53981 0.0
C556 C 0.98592 0.91888 0.70649 0.0
C557 C 0.95193 0.93674 0.73164 0.0
C558 C 0.91885 0.96494 0.66458 0.0
C559 C 0.95755 0.95542 0.64162 0.0
N560 N 0.00744 0.89757 0.63395 0.0
N561 N 0.88319 0.9734 0.73447 0.0
C562 C 0.98583 0.92496 0.66036 0.0
C563 C 0.91718 0.95831 0.71053 0.0
N564 N 0.01893 0.89735 0.72656 0.0
N565 N 0.88264 0.97653 0.64166 0.0
H566 H 0.87926 0.96682 0.76775 0.0
H567 H 0.85996 0.99422 0.72183 0.0
H568 H 0.88176 0.97615 0.60754 0.0
H569 H 0.8523 0.98068 0.65583 0.0
H570 H 0.04658 0.88754 0.7099 0.0
H571 H 0.01983 0.89183 0.76025 0.0
H572 H 0.0251 0.87157 0.64593 0.0
H573 H 0.00154 0.89697 0.60038 0.0
C574 C 0.59388 0.15223 0.17202 0.0
C575 C 0.57056 0.15428 0.21202 0.0
C576 C 0.51404 0.10712 0.18253 0.0
C577 C 0.53851 0.10401 0.14366 0.0
N578 N 0.59174 0.1349 0.09515 0.0
N579 N 0.50396 0.14359 0.25174 0.0
C580 C 0.57489 0.13079 0.13627 0.0
C581 C 0.52887 0.13507 0.21599 0.0
N582 N 0.63559 0.16725 0.16911 0.0
N583 N 0.47762 0.08243 0.18767 0.0
H584 H 0.51438 0.16426 0.27635 0.0
H585 H 0.47197 0.13329 0.25524 0.0
H586 H 0.46527 0.06356 0.16244 0.0
H587 H 0.46046 0.07973 0.21686 0.0
H588 H 0.65553 0.16163 0.14231 0.0
H589 H 0.652 0.18204 0.19469 0.0
H590 H 0.61593 0.15705 0.08693 0.0
H591 H 0.57799 0.11952 0.06834 0.0
C592 C 0.48903 0.62003 0.32819 0.0
C593 C 0.46011 0.59866 0.29942 0.0
C594 C 0.43183 0.55625 0.36101 0.0
C595 C 0.46668 0.57138 0.38725 0.0
N596 N 0.50263 0.63779 0.40356 0.0
N597 N 0.4012 0.54822 0.28863 0.0
C598 C 0.48855 0.60909 0.37339 0.0
C599 C 0.4304 0.5675 0.31597 0.0
N600 N 0.51776 0.64987 0.31241 0.0
N601 N 0.39773 0.53522 0.38035 0.0
H602 H 0.39665 0.55771 0.25617 0.0
H603 H 0.38299 0.52125 0.29751 0.0
H604 H 0.39487 0.53235 0.41426 0.0
H605 H 0.36957 0.52633 0.36385 0.0
H606 H 0.54237 0.66301 0.33162 0.0
H607 H 0.5189 0.659 0.27951 0.0
H608 H 0.51413 0.66826 0.39498 0.0
H609 H 0.49562 0.63394 0.4367 0.0
C610 C 0.04606 0.40209 0.86223 0.0
C611 C 0.05135 0.42293 0.82136 0.0
C612 C 0.02214 0.48865 0.85216 0.0
C613 C 0.02923 0.47141 0.89456 0.0
N614 N 0.04787 0.41038 0.94057 0.0
N615 N 0.04091 0.48515 0.77532 0.0
C616 C 0.0397 0.42729 0.90001 0.0
C617 C 0.03717 0.46569 0.81534 0.0
N618 N 0.04915 0.35844 0.86478 0.0
N619 N 0.00179 0.52723 0.84752 0.0
H620 H 0.05079 0.4687 0.74755 0.0
H621 H 0.03601 0.51785 0.77012 0.0
H622 H 0.99018 0.54411 0.8744 0.0
H623 H 0.99269 0.54011 0.81736 0.0
H624 H 0.04207 0.34085 0.89306 0.0
H625 H 0.05438 0.33981 0.83708 0.0
H626 H 0.0604 0.37975 0.94554 0.0
H627 H 0.04532 0.42768 0.96935 0.0
C628 C 0.70491 0.00502 0.93131 0.0
C629 C 0.73052 0.9732 0.95229 0.0
C630 C 0.66587 0.9454 0.98954 0.0
C631 C 0.64267 0.98234 0.97559 0.0
N632 N 0.63208 0.02514 0.91099 0.0
N633 N 0.73542 0.91144 0.00044 0.0
C634 C 0.65965 0.00649 0.94011 0.0
C635 C 0.71092 0.94264 0.98088 0.0
N636 N 0.72381 0.03437 0.90377 0.0
N637 N 0.64379 0.91105 0.00683 0.0
H638 H 0.76806 0.90662 0.99324 0.0
H639 H 0.724 0.89197 0.02587 0.0
H640 H 0.60996 0.90977 0.00756 0.0
H641 H 0.65814 0.88172 0.01432 0.0
H642 H 0.70726 0.06079 0.89114 0.0
H643 H 0.75677 0.03388 0.8961 0.0
H644 H 0.64248 0.03987 0.88208 0.0
H645 H 0.5988 0.01923 0.91223 0.0
C646 C 0.86771 0.07321 0.37271 0.0
C647 C 0.82412 0.06275 0.38374 0.0
C648 C 0.84867 0.01255 0.44014 0.0
C649 C 0.89139 0.02757 0.43295 0.0
N650 N 0.94397 0.05694 0.38298 0.0
N651 N 0.77358 0.01261 0.41571 0.0
C652 C 0.90168 0.05223 0.39543 0.0
C653 C 0.81488 0.02844 0.41306 0.0
N654 N 0.87666 0.1058 0.34382 0.0
N655 N 0.84053 0.98523 0.47437 0.0
H656 H 0.74875 0.02433 0.39574 0.0
H657 H 0.76481 0.98598 0.43459 0.0
H658 H 0.86552 0.97235 0.49338 0.0
H659 H 0.80957 0.9761 0.48443 0.0
H660 H 0.90763 0.11847 0.33895 0.0
H661 H 0.85288 0.12189 0.32606 0.0
H662 H 0.9535 0.07173 0.35382 0.0
H663 H 0.96922 0.04209 0.39989 0.0
C664 C 0.21032 0.54286 0.13073 0.0
C665 C 0.24518 0.53194 0.10293 0.0
C666 C 0.19347 0.50476 0.04949 0.0
C667 C 0.16066 0.52892 0.07023 0.0
N668 N 0.13529 0.56484 0.13498 0.0
N669 N 0.26348 0.47115 0.0591 0.0
C670 C 0.16791 0.54529 0.11276 0.0
C671 C 0.2352 0.50308 0.06889 0.0
N672 N 0.21696 0.54528 0.17468 0.0
N673 N 0.18518 0.48448 0.01097 0.0
H674 H 0.2918 0.46674 0.07733 0.0
H675 H 0.25645 0.44678 0.03703 0.0
H676 H 0.15424 0.48321 0.99712 0.0
H677 H 0.20938 0.47035 0.99231 0.0
H678 H 0.19192 0.54934 0.19711 0.0
H679 H 0.24698 0.53761 0.18845 0.0
H680 H 0.14044 0.58122 0.16412 0.0
H681 H 0.10361 0.56632 0.12313 0.0
C682 C 0.35307 0.4726 0.64825 0.0
C683 C 0.31425 0.46483 0.6247 0.0
C684 C 0.34704 0.49643 0.55913 0.0
C685 C 0.38805 0.49403 0.57972 0.0
N686 N 0.43107 0.48241 0.64462 0.0
N687 N 0.27278 0.47073 0.55797 0.0
C688 C 0.39132 0.48403 0.6249 0.0
C689 C 0.31037 0.47818 0.58043 0.0
N690 N 0.35318 0.46817 0.69272 0.0
N691 N 0.34361 0.51576 0.519 0.0
H692 H 0.24497 0.45806 0.57268 0.0
H693 H 0.26982 0.47496 0.52429 0.0
H694 H 0.3703 0.52964 0.50317 0.0
H695 H 0.3141 0.52178 0.50361 0.0
H696 H 0.37939 0.47669 0.71236 0.0
H697 H 0.32529 0.45974 0.71022 0.0
H698 H 0.43603 0.47052 0.67613 0.0
H699 H 0.45969 0.49099 0.6286 0.0
C700 C 0.9387 0.71601 0.9595 0.0
C701 C 0.94275 0.74687 0.99311 0.0
C702 C 0.97705 0.69356 0.04123 0.0
C703 C 0.97551 0.6638 0.0065 0.0
N704 N 0.94244 0.64096 0.93932 0.0
N705 N 0.95373 0.76256 0.06919 0.0
C706 C 0.95202 0.67321 0.96784 0.0
C707 C 0.95782 0.73468 0.03525 0.0
N708 N 0.92446 0.72814 0.91889 0.0
N709 N 0.99873 0.68326 0.07883 0.0
H710 H 0.93983 0.79281 0.06529 0.0
H711 H 0.9605 0.7545 0.10158 0.0
H712 H 0.01197 0.65296 0.08441 0.0
H713 H 0.0051 0.70499 0.1037 0.0
H714 H 0.92596 0.70844 0.89163 0.0
H715 H 0.91336 0.75896 0.91169 0.0
H716 H 0.92204 0.64476 0.91243 0.0
H717 H 0.95147 0.60916 0.94512 0.0
C718 C 0.44118 0.83033 0.01463 0.0
C719 C 0.42183 0.81677 0.05442 0.0
C720 C 0.42416 0.89065 0.08079 0.0
C721 C 0.45254 0.90161 0.046 0.0
N722 N 0.48736 0.8827 0.97815 0.0
N723 N 0.39232 0.83373 0.12507 0.0
C724 C 0.45997 0.87209 0.01172 0.0
C725 C 0.41164 0.84707 0.08707 0.0
N726 N 0.44197 0.80291 0.98006 0.0
N727 N 0.40941 0.92212 0.10769 0.0
H728 H 0.38147 0.80228 0.13012 0.0
H729 H 0.38891 0.85321 0.15233 0.0
H730 H 0.41777 0.95439 0.10303 0.0
H731 H 0.38582 0.91702 0.13154 0.0
H732 H 0.45192 0.81202 0.94877 0.0
H733 H 0.42849 0.77211 0.98187 0.0
H734 H 0.4979 0.86084 0.95498 0.0
H735 H 0.50159 0.91295 0.97459 0.0
C736 C 0.07764 0.21427 0.54603 0.0
C737 C 0.1126 0.20784 0.57545 0.0
C738 C 0.10336 0.13012 0.57111 0.0
C739 C 0.06737 0.1364 0.54292 0.0
N740 N 0.02833 0.1823 0.49331 0.0
N741 N 0.16785 0.16106 0.60377 0.0
C742 C 0.05739 0.17792 0.52677 0.0
C743 C 0.12865 0.16608 0.58358 0.0
N744 N 0.06217 0.25469 0.53864 0.0
N745 N 0.11163 0.09041 0.5884 0.0
H746 H 0.18702 0.18718 0.61308 0.0
H747 H 0.18313 0.13148 0.60712 0.0
H748 H 0.09446 0.06299 0.57941 0.0
H749 H 0.13401 0.08504 0.61336 0.0
H750 H 0.03364 0.26094 0.52158 0.0
H751 H 0.07676 0.28204 0.55165 0.0
H752 H 0.02217 0.21138 0.47752 0.0
H753 H 0.01349 0.15584 0.47867 0.0
C754 C 0.61656 0.33167 0.51309 0.0
C755 C 0.6463 0.33809 0.47838 0.0
C756 C 0.62922 0.41465 0.47727 0.0
C757 C 0.59215 0.40546 0.50295 0.0
N758 N 0.55101 0.35646 0.54822 0.0
N759 N 0.68095 0.38627 0.42618 0.0
C760 C 0.58642 0.36448 0.52255 0.0
C761 C 0.65375 0.38 0.46098 0.0
N762 N 0.61667 0.29376 0.53585 0.0
N763 N 0.63989 0.45616 0.46695 0.0
H764 H 0.69953 0.3621 0.41252 0.0
H765 H 0.68289 0.41506 0.40868 0.0
H766 H 0.62194 0.4823 0.47753 0.0
H767 H 0.66889 0.46485 0.4517 0.0
H768 H 0.59798 0.28814 0.56369 0.0
H769 H 0.63881 0.2695 0.52901 0.0
H770 H 0.54237 0.32595 0.55952 0.0
H771 H 0.52915 0.38043 0.55669 0.0
loop_
_geom_bond_atom_site_label_1
_geom_bond_atom_site_label_2
_geom_bond_distance
_geom_bond_site_symmetry_2
_ccdc_geom_bond_type
P0 O11 1.490 . S
P0 C14 1.812 . S
P0 C20 1.803 . S
P0 C26 1.819 . S
H1 C15 0.941 . S
H2 C16 0.939 . S
H3 C18 0.940 . S
H4 C19 0.940 . S
H5 C21 0.939 . S
H6 C22 0.942 . S
H7 C24 0.940 . S
H8 C25 0.939 . S
H9 C27 0.941 . S
H10 C31 0.939 . S
O11 P0 1.490 . S
H12 C28 0.939 . S
H13 C30 0.940 . S
C14 P0 1.812 . S
C14 C15 1.389 . S
C14 C19 1.391 . S
C15 H1 0.941 . S
C15 C14 1.389 . S
C15 C16 1.397 . S
C16 H2 0.939 . S
C16 C15 1.397 . S
C16 C17 1.378 . S
C17 C16 1.378 . S
C17 C18 1.378 . S
C18 H3 0.940 . S
C18 C17 1.378 . S
C18 C19 1.396 . S
C19 H4 0.940 . S
C19 C14 1.391 . S
C19 C18 1.396 . S
C20 P0 1.803 . S
C20 C21 1.378 . S
C20 C25 1.400 . S
C21 H5 0.939 . S
C21 C20 1.378 . S
C21 C22 1.361 . S
C22 H6 0.942 . S
C22 C21 1.361 . S
C22 C23 1.369 . S
C23 C22 1.369 . S
C23 C24 1.404 . S
C24 H7 0.940 . S
C24 C23 1.404 . S
C24 C25 1.389 . S
C25 H8 0.939 . S
C25 C20 1.400 . S
C25 C24 1.389 . S
C26 P0 1.819 . S
C26 C27 1.391 . S
C26 C31 1.391 . S
C27 H9 0.941 . S
C27 C26 1.391 . S
C27 C28 1.396 . S
C28 H12 0.939 . S
C28 C27 1.396 . S
C28 C29 1.397 . S
C29 C28 1.397 . S
C29 C30 1.385 . S
C30 H13 0.940 . S
C30 C29 1.385 . S
C30 C31 1.388 . S
C31 H10 0.939 . S
C31 C26 1.391 . S
C31 C30 1.388 . S
P32 O43 1.490 . S
P32 C46 1.812 . S
P32 C52 1.803 . S
P32 C58 1.819 . S
H33 C47 0.941 . S
H34 C48 0.939 . S
H35 C50 0.940 . S
H36 C51 0.940 . S
H37 C53 0.939 . S
H38 C54 0.942 . S
H39 C56 0.940 . S
H40 C57 0.939 . S
H41 C59 0.941 . S
H42 C63 0.939 . S
O43 P32 1.490 . S
H44 C60 0.939 . S
H45 C62 0.940 . S
C46 P32 1.812 . S
C46 C47 1.389 . S
C46 C51 1.391 . S
C47 H33 0.941 . S
C47 C46 1.389 . S
C47 C48 1.397 . S
C48 H34 0.939 . S
C48 C47 1.397 . S
C48 C49 1.378 . S
C49 C48 1.378 . S
C49 C50 1.378 . S
C50 H35 0.940 . S
C50 C49 1.378 . S
C50 C51 1.396 . S
C51 H36 0.940 . S
C51 C46 1.391 . S
C51 C50 1.396 . S
C52 P32 1.803 . S
C52 C53 1.378 . S
C52 C57 1.400 . S
C53 H37 0.939 . S
C53 C52 1.378 . S
C53 C54 1.361 . S
C54 H38 0.942 . S
C54 C53 1.361 . S
C54 C55 1.369 . S
C55 C54 1.369 . S
C55 C56 1.404 . S
C56 H39 0.940 . S
C56 C55 1.404 . S
C56 C57 1.389 . S
C57 H40 0.939 . S
C57 C52 1.400 . S
C57 C56 1.389 . S
C58 P32 1.819 . S
C58 C59 1.391 . S
C58 C63 1.391 . S
C59 H41 0.941 . S
C59 C58 1.391 . S
C59 C60 1.396 . S
C60 H44 0.939 . S
C60 C59 1.396 . S
C60 C61 1.397 . S
C61 C60 1.397 . S
C61 C62 1.385 . S
C62 H45 0.940 . S
C62 C61 1.385 . S
C62 C63 1.388 . S
C63 H42 0.939 . S
C63 C58 1.391 . S
C63 C62 1.388 . S
P64 O75 1.490 . S
P64 C78 1.812 . S
P64 C84 1.803 . S
P64 C90 1.819 . S
H65 C79 0.941 . S
H66 C80 0.939 . S
H67 C82 0.940 . S
H68 C83 0.940 . S
H69 C85 0.939 . S
H70 C86 0.942 . S
H71 C88 0.940 . S
H72 C89 0.939 . S
H73 C91 0.941 . S
H74 C95 0.939 . S
O75 P64 1.490 . S
H76 C92 0.939 . S
H77 C94 0.940 . S
C78 P64 1.812 . S
C78 C79 1.389 . S
C78 C83 1.391 . S
C79 H65 0.941 . S
C79 C78 1.389 . S
C79 C80 1.397 . S
C80 H66 0.939 . S
C80 C79 1.397 . S
C80 C81 1.378 . S
C81 C80 1.378 . S
C81 C82 1.378 . S
C82 H67 0.940 . S
C82 C81 1.378 . S
C82 C83 1.396 . S
C83 H68 0.940 . S
C83 C78 1.391 . S
C83 C82 1.396 . S
C84 P64 1.803 . S
C84 C85 1.378 . S
C84 C89 1.400 . S
C85 H69 0.939 . S
C85 C84 1.378 . S
C85 C86 1.361 . S
C86 H70 0.942 . S
C86 C85 1.361 . S
C86 C87 1.369 . S
C87 C86 1.369 . S
C87 C88 1.404 . S
C88 H71 0.940 . S
C88 C87 1.404 . S
C88 C89 1.389 . S
C89 H72 0.939 . S
C89 C84 1.400 . S
C89 C88 1.389 . S
C90 P64 1.819 . S
C90 C91 1.391 . S
C90 C95 1.391 . S
C91 H73 0.941 . S
C91 C90 1.391 . S
C91 C92 1.396 . S
C92 H76 0.939 . S
C92 C91 1.396 . S
C92 C93 1.397 . S
C93 C92 1.397 . S
C93 C94 1.385 . S
C94 H77 0.940 . S
C94 C93 1.385 . S
C94 C95 1.388 . S
C95 H74 0.939 . S
C95 C90 1.391 . S
C95 C94 1.388 . S
P96 O107 1.490 . S
P96 C110 1.812 . S
P96 C116 1.803 . S
P96 C122 1.819 . S
H97 C111 0.941 . S
H98 C112 0.939 . S
H99 C114 0.940 . S
H100 C115 0.940 . S
H101 C117 0.939 . S
H102 C118 0.942 . S
H103 C120 0.940 . S
H104 C121 0.939 . S
H105 C123 0.941 . S
H106 C127 0.939 . S
O107 P96 1.490 . S
H108 C124 0.939 . S
H109 C126 0.940 . S
C110 P96 1.812 . S
C110 C111 1.389 . S
C110 C115 1.391 . S
C111 H97 0.941 . S
C111 C110 1.389 . S
C111 C112 1.397 . S
C112 H98 0.939 . S
C112 C111 1.397 . S
C112 C113 1.378 . S
C113 C112 1.378 . S
C113 C114 1.378 . S
C114 H99 0.940 . S
C114 C113 1.378 . S
C114 C115 1.396 . S
C115 H100 0.940 . S
C115 C110 1.391 . S
C115 C114 1.396 . S
C116 P96 1.803 . S
C116 C117 1.378 . S
C116 C121 1.400 . S
C117 H101 0.939 . S
C117 C116 1.378 . S
C117 C118 1.361 . S
C118 H102 0.942 . S
C118 C117 1.361 . S
C118 C119 1.369 . S
C119 C118 1.369 . S
C119 C120 1.404 . S
C120 H103 0.940 . S
C120 C119 1.404 . S
C120 C121 1.389 . S
C121 H104 0.939 . S
C121 C116 1.400 . S
C121 C120 1.389 . S
C122 P96 1.819 . S
C122 C123 1.391 . S
C122 C127 1.391 . S
C123 H105 0.941 . S
C123 C122 1.391 . S
C123 C124 1.396 . S
C124 H108 0.939 . S
C124 C123 1.396 . S
C124 C125 1.397 . S
C125 C124 1.397 . S
C125 C126 1.385 . S
C126 H109 0.940 . S
C126 C125 1.385 . S
C126 C127 1.388 . S
C127 H106 0.939 . S
C127 C122 1.391 . S
C127 C126 1.388 . S
P128 O139 1.490 1_556 S
P128 C142 1.812 . S
P128 C148 1.803 . S
P128 C154 1.819 . S
H129 C143 0.941 . S
H130 C144 0.939 1_545 S
H131 C146 0.940 . S
H132 C147 0.940 . S
H133 C149 0.939 1_554 S
H134 C150 0.942 . S
H135 C152 0.940 . S
H136 C153 0.939 . S
H137 C155 0.941 . S
H138 C159 0.939 . S
O139 P128 1.490 1_554 S
H140 C156 0.939 . S
H141 C158 0.940 . S
C142 P128 1.812 . S
C142 C143 1.389 1_556 S
C142 C147 1.391 . S
C143 H129 0.941 . S
C143 C142 1.389 1_554 S
C143 C144 1.397 . S
C144 H130 0.939 1_565 S
C144 C143 1.397 . S
C144 C145 1.378 . S
C145 C144 1.378 . S
C145 C146 1.378 1_554 S
C146 H131 0.940 . S
C146 C145 1.378 1_556 S
C146 C147 1.396 . S
C147 H132 0.940 . S
C147 C142 1.391 . S
C147 C146 1.396 . S
C148 P128 1.803 . S
C148 C149 1.378 1_655 S
C148 C153 1.400 . S
C149 H133 0.939 1_556 S
C149 C148 1.378 1_455 S
C149 C150 1.361 1_556 S
C150 H134 0.942 . S
C150 C149 1.361 1_554 S
C150 C151 1.369 1_454 S
C151 C150 1.369 1_656 S
C151 C152 1.404 . S
C152 H135 0.940 . S
C152 C151 1.404 . S
C152 C153 1.389 . S
C153 H136 0.939 . S
C153 C148 1.400 . S
C153 C152 1.389 . S
C154 P128 1.819 . S
C154 C155 1.391 1_565 S
C154 C159 1.391 . S
C155 H137 0.941 . S
C155 C154 1.391 1_545 S
C155 C156 1.396 . S
C156 H140 0.939 . S
C156 C155 1.396 . S
C156 C157 1.397 1_545 S
C157 C156 1.397 1_565 S
C157 C158 1.385 . S
C158 H141 0.940 . S
C158 C157 1.385 . S
C158 C159 1.388 . S
C159 H138 0.939 . S
C159 C154 1.391 . S
C159 C158 1.388 . S
P160 O171 1.490 . S
P160 C174 1.812 . S
P160 C180 1.803 . S
P160 C186 1.819 . S
H161 C175 0.941 . S
H162 C176 0.939 . S
H163 C178 0.940 . S
H164 C179 0.940 . S
H165 C181 0.939 . S
H166 C182 0.942 . S
H167 C184 0.940 . S
H168 C185 0.939 . S
H169 C187 0.941 . S
H170 C191 0.939 . S
O171 P160 1.490 . S
H172 C188 0.939 . S
H173 C190 0.940 . S
C174 P160 1.812 . S
C174 C175 1.389 . S
C174 C179 1.391 . S
C175 H161 0.941 . S
C175 C174 1.389 . S
C175 C176 1.397 . S
C176 H162 0.939 . S
C176 C175 1.397 . S
C176 C177 1.378 . S
C177 C176 1.378 . S
C177 C178 1.378 . S
C178 H163 0.940 . S
C178 C177 1.378 . S
C178 C179 1.396 . S
C179 H164 0.940 . S
C179 C174 1.391 . S
C179 C178 1.396 . S
C180 P160 1.803 . S
C180 C181 1.378 . S
C180 C185 1.400 . S
C181 H165 0.939 . S
C181 C180 1.378 . S
C181 C182 1.361 . S
C182 H166 0.942 . S
C182 C181 1.361 . S
C182 C183 1.369 . S
C183 C182 1.369 . S
C183 C184 1.404 . S
C184 H167 0.940 . S
C184 C183 1.404 . S
C184 C185 1.389 . S
C185 H168 0.939 . S
C185 C180 1.400 . S
C185 C184 1.389 . S
C186 P160 1.819 . S
C186 C187 1.391 . S
C186 C191 1.391 . S
C187 H169 0.941 . S
C187 C186 1.391 . S
C187 C188 1.396 . S
C188 H172 0.939 . S
C188 C187 1.396 . S
C188 C189 1.397 . S
C189 C188 1.397 . S
C189 C190 1.385 . S
C190 H173 0.940 . S
C190 C189 1.385 . S
C190 C191 1.388 . S
C191 H170 0.939 . S
C191 C186 1.391 . S
C191 C190 1.388 . S
P192 O203 1.490 . S
P192 C206 1.812 . S
P192 C212 1.803 . S
P192 C218 1.819 . S
H193 C207 0.941 1_556 S
H194 C208 0.939 1_556 S
H195 C210 0.940 . S
H196 C211 0.940 . S
H197 C213 0.939 . S
H198 C214 0.942 . S
H199 C216 0.940 . S
H200 C217 0.939 . S
H201 C219 0.941 . S
H202 C223 0.939 . S
O203 P192 1.490 . S
H204 C220 0.939 . S
H205 C222 0.940 . S
C206 P192 1.812 . S
C206 C207 1.389 . S
C206 C211 1.391 . S
C207 H193 0.941 1_554 S
C207 C206 1.389 . S
C207 C208 1.397 . S
C208 H194 0.939 1_554 S
C208 C207 1.397 . S
C208 C209 1.378 . S
C209 C208 1.378 . S
C209 C210 1.378 . S
C210 H195 0.940 . S
C210 C209 1.378 . S
C210 C211 1.396 . S
C211 H196 0.940 . S
C211 C206 1.391 . S
C211 C210 1.396 . S
C212 P192 1.803 . S
C212 C213 1.378 . S
C212 C217 1.400 . S
C213 H197 0.939 . S
C213 C212 1.378 . S
C213 C214 1.361 . S
C214 H198 0.942 . S
C214 C213 1.361 . S
C214 C215 1.369 . S
C215 C214 1.369 . S
C215 C216 1.404 . S
C216 H199 0.940 . S
C216 C215 1.404 . S
C216 C217 1.389 . S
C217 H200 0.939 . S
C217 C212 1.400 . S
C217 C216 1.389 . S
C218 P192 1.819 . S
C218 C219 1.391 . S
C218 C223 1.391 . S
C219 H201 0.941 . S
C219 C218 1.391 . S
C219 C220 1.396 . S
C220 H204 0.939 . S
C220 C219 1.396 . S
C220 C221 1.397 . S
C221 C220 1.397 . S
C221 C222 1.385 . S
C222 H205 0.940 . S
C222 C221 1.385 . S
C222 C223 1.388 . S
C223 H202 0.939 . S
C223 C218 1.391 . S
C223 C222 1.388 . S
P224 O235 1.490 . S
P224 C238 1.812 . S
P224 C244 1.803 . S
P224 C250 1.819 . S
H225 C239 0.941 . S
H226 C240 0.939 . S
H227 C242 0.940 . S
H228 C243 0.940 . S
H229 C245 0.939 . S
H230 C246 0.942 . S
H231 C248 0.940 . S
H232 C249 0.939 . S
H233 C251 0.941 . S
H234 C255 0.939 . S
O235 P224 1.490 . S
H236 C252 0.939 . S
H237 C254 0.940 . S
C238 P224 1.812 . S
C238 C239 1.389 . S
C238 C243 1.391 . S
C239 H225 0.941 . S
C239 C238 1.389 . S
C239 C240 1.397 . S
C240 H226 0.939 . S
C240 C239 1.397 . S
C240 C241 1.378 . S
C241 C240 1.378 . S
C241 C242 1.378 . S
C242 H227 0.940 . S
C242 C241 1.378 . S
C242 C243 1.396 . S
C243 H228 0.940 . S
C243 C238 1.391 . S
C243 C242 1.396 . S
C244 P224 1.803 . S
C244 C245 1.378 . S
C244 C249 1.400 . S
C245 H229 0.939 . S
C245 C244 1.378 . S
C245 C246 1.361 . S
C246 H230 0.942 . S
C246 C245 1.361 . S
C246 C247 1.369 . S
C247 C246 1.369 . S
C247 C248 1.404 . S
C248 H231 0.940 . S
C248 C247 1.404 . S
C248 C249 1.389 . S
C249 H232 0.939 . S
C249 C244 1.400 . S
C249 C248 1.389 . S
C250 P224 1.819 . S
C250 C251 1.391 . S
C250 C255 1.391 . S
C251 H233 0.941 . S
C251 C250 1.391 . S
C251 C252 1.396 . S
C252 H236 0.939 . S
C252 C251 1.396 . S
C252 C253 1.397 . S
C253 C252 1.397 . S
C253 C254 1.385 . S
C254 H237 0.940 . S
C254 C253 1.385 . S
C254 C255 1.388 . S
C255 H234 0.939 . S
C255 C250 1.391 . S
C255 C254 1.388 . S
Zn256 O262 1.920 . S
Zn256 O268 1.898 . S
Zn256 O271 1.905 . S
Zn257 O265 1.905 1_565 S
Zn257 O266 1.898 . S
Zn257 O274 1.920 . S
Zn258 O261 2.080 1_455 S
Zn258 O264 2.114 . S
Zn258 O267 2.120 1_445 S
Zn258 O269 2.120 . S
Zn258 O270 2.114 1_455 S
Zn258 O273 2.080 . S
C259 O264 1.166 . S
C259 O265 1.182 . S
C260 O266 1.167 1_655 S
C260 O267 1.299 . S
O261 Zn258 2.080 1_655 S
O261 C275 1.305 . S
O262 Zn256 1.920 . S
O262 C275 1.234 . S
C263 O268 1.167 1_455 S
C263 O269 1.299 . S
O264 Zn258 2.114 . S
O264 C259 1.166 . S
O265 Zn257 1.905 1_545 S
O265 C259 1.182 . S
O266 Zn257 1.898 . S
O266 C260 1.167 1_455 S
O267 Zn258 2.120 1_665 S
O267 C260 1.299 . S
O268 Zn256 1.898 . S
O268 C263 1.167 1_655 S
O269 Zn258 2.120 . S
O269 C263 1.299 . S
O270 Zn258 2.114 1_655 S
O270 C272 1.166 . S
O271 Zn256 1.905 . S
O271 C272 1.182 . S
C272 O270 1.166 . S
C272 O271 1.182 . S
O273 Zn258 2.080 . S
O273 C276 1.305 1_545 S
O274 Zn257 1.920 . S
O274 C276 1.234 . S
C275 O261 1.305 . S
C275 O262 1.234 . S
C276 O273 1.305 1_565 S
C276 O274 1.234 . S
Zn277 O283 1.920 1_556 S
Zn277 O289 1.898 . S
Zn277 O292 1.905 . S
Zn278 O286 1.905 . S
Zn278 O287 1.898 . S
Zn278 O295 1.920 . S
Zn279 O282 2.080 . S
Zn279 O285 2.114 1_545 S
Zn279 O288 2.120 1_545 S
Zn279 O290 2.120 . S
Zn279 O291 2.114 1_544 S
Zn279 O294 2.080 . S
C280 O285 1.166 . S
C280 O286 1.182 . S
C281 O287 1.167 . S
C281 O288 1.299 . S
O282 Zn279 2.080 . S
O282 C296 1.305 . S
O283 Zn277 1.920 1_554 S
O283 C296 1.234 . S
C284 O289 1.167 . S
C284 O290 1.299 1_556 S
O285 Zn279 2.114 1_565 S
O285 C280 1.166 . S
O286 Zn278 1.905 . S
O286 C280 1.182 . S
O287 Zn278 1.898 . S
O287 C281 1.167 . S
O288 Zn279 2.120 1_565 S
O288 C281 1.299 . S
O289 Zn277 1.898 . S
O289 C284 1.167 . S
O290 Zn279 2.120 . S
O290 C284 1.299 1_554 S
O291 Zn279 2.114 1_566 S
O291 C293 1.166 . S
O292 Zn277 1.905 . S
O292 C293 1.182 1_545 S
C293 O291 1.166 . S
C293 O292 1.182 1_565 S
O294 Zn279 2.080 . S
O294 C297 1.305 . S
O295 Zn278 1.920 . S
O295 C297 1.234 1_565 S
C296 O282 1.305 . S
C296 O283 1.234 . S
C297 O294 1.305 . S
C297 O295 1.234 1_545 S
Zn298 O304 1.920 . S
Zn298 O310 1.898 . S
Zn298 O313 1.905 . S
Zn299 O307 1.905 . S
Zn299 O308 1.898 . S
Zn299 O316 1.920 . S
Zn300 O303 2.080 . S
Zn300 O306 2.114 . S
Zn300 O309 2.120 . S
Zn300 O311 2.120 . S
Zn300 O312 2.114 . S
Zn300 O315 2.080 . S
C301 O306 1.166 . S
C301 O307 1.182 . S
C302 O308 1.167 . S
C302 O309 1.299 . S
O303 Zn300 2.080 . S
O303 C317 1.305 . S
O304 Zn298 1.920 . S
O304 C317 1.234 . S
C305 O310 1.167 . S
C305 O311 1.299 . S
O306 Zn300 2.114 . S
O306 C301 1.166 . S
O307 Zn299 1.905 . S
O307 C301 1.182 . S
O308 Zn299 1.898 . S
O308 C302 1.167 . S
O309 Zn300 2.120 . S
O309 C302 1.299 . S
O310 Zn298 1.898 . S
O310 C305 1.167 . S
O311 Zn300 2.120 . S
O311 C305 1.299 . S
O312 Zn300 2.114 . S
O312 C314 1.166 . S
O313 Zn298 1.905 . S
O313 C314 1.182 . S
C314 O312 1.166 . S
C314 O313 1.182 . S
O315 Zn300 2.080 . S
O315 C318 1.305 . S
O316 Zn299 1.920 . S
O316 C318 1.234 . S
C317 O303 1.305 . S
C317 O304 1.234 . S
C318 O315 1.305 . S
C318 O316 1.234 . S
Zn319 O325 1.920 . S
Zn319 O331 1.898 . S
Zn319 O334 1.905 . S
Zn320 O328 1.905 1_655 S
Zn320 O329 1.898 . S
Zn320 O337 1.920 . S
Zn321 O324 2.080 1_554 S
Zn321 O327 2.114 . S
Zn321 O330 2.120 1_454 S
Zn321 O332 2.120 . S
Zn321 O333 2.114 1_554 S
Zn321 O336 2.080 . S
C322 O327 1.166 . S
C322 O328 1.182 . S
C323 O329 1.167 1_556 S
C323 O330 1.299 . S
O324 Zn321 2.080 1_556 S
O324 C338 1.305 . S
O325 Zn319 1.920 . S
O325 C338 1.234 . S
C326 O331 1.167 1_554 S
C326 O332 1.299 . S
O327 Zn321 2.114 . S
O327 C322 1.166 . S
O328 Zn320 1.905 1_455 S
O328 C322 1.182 . S
O329 Zn320 1.898 . S
O329 C323 1.167 1_554 S
O330 Zn321 2.120 1_656 S
O330 C323 1.299 . S
O331 Zn319 1.898 . S
O331 C326 1.167 1_556 S
O332 Zn321 2.120 . S
O332 C326 1.299 . S
O333 Zn321 2.114 1_556 S
O333 C335 1.166 . S
O334 Zn319 1.905 . S
O334 C335 1.182 . S
C335 O333 1.166 . S
C335 O334 1.182 . S
O336 Zn321 2.080 . S
O336 C339 1.305 1_455 S
O337 Zn320 1.920 . S
O337 C339 1.234 . S
C338 O324 1.305 . S
C338 O325 1.234 . S
C339 O336 1.305 1_655 S
C339 O337 1.234 . S
C340 C341 1.363 . S
C340 C346 1.379 . S
C340 N348 1.356 . S
C341 C340 1.363 . S
C341 C347 1.363 . S
C342 C343 1.363 . S
C342 C347 1.379 . S
C342 N349 1.356 . S
C343 C342 1.363 . S
C343 C346 1.363 . S
N344 C346 1.356 . S
N344 H356 0.984 . S
N344 H357 0.985 . S
N345 C347 1.356 . S
N345 H350 0.984 . S
N345 H351 0.985 . S
C346 C340 1.379 . S
C346 C343 1.363 . S
C346 N344 1.356 . S
C347 C341 1.363 . S
C347 C342 1.379 . S
C347 N345 1.356 . S
N348 C340 1.356 . S
N348 H354 0.984 . S
N348 H355 0.984 . S
N349 C342 1.356 . S
N349 H352 0.984 . S
N349 H353 0.985 . S
H350 N345 0.984 . S
H351 N345 0.985 . S
H352 N349 0.984 . S
H353 N349 0.985 . S
H354 N348 0.984 . S
H355 N348 0.984 . S
H356 N344 0.984 . S
H357 N344 0.985 . S
C358 C359 1.363 . S
C358 C364 1.379 . S
C358 N366 1.356 . S
C359 C358 1.363 . S
C359 C365 1.363 . S
C360 C361 1.363 . S
C360 C365 1.379 . S
C360 N367 1.356 . S
C361 C360 1.363 . S
C361 C364 1.363 . S
N362 C364 1.356 1_545 S
N362 H374 0.984 . S
N362 H375 0.985 . S
N363 C365 1.356 . S
N363 H368 0.984 . S
N363 H369 0.985 . S
C364 C358 1.379 . S
C364 C361 1.363 . S
C364 N362 1.356 1_565 S
C365 C359 1.363 . S
C365 C360 1.379 . S
C365 N363 1.356 . S
N366 C358 1.356 . S
N366 H372 0.984 . S
N366 H373 0.984 . S
N367 C360 1.356 . S
N367 H370 0.984 . S
N367 H371 0.985 . S
H368 N363 0.984 . S
H369 N363 0.985 . S
H370 N367 0.984 . S
H371 N367 0.985 . S
H372 N366 0.984 . S
H373 N366 0.984 . S
H374 N362 0.984 . S
H375 N362 0.985 . S
C376 C377 1.363 . S
C376 C382 1.379 . S
C376 N384 1.356 . S
C377 C376 1.363 . S
C377 C383 1.363 . S
C378 C379 1.363 . S
C378 C383 1.379 . S
C378 N385 1.356 . S
C379 C378 1.363 . S
C379 C382 1.363 . S
N380 C382 1.356 . S
N380 H392 0.984 . S
N380 H393 0.985 . S
N381 C383 1.356 . S
N381 H386 0.984 . S
N381 H387 0.985 . S
C382 C376 1.379 . S
C382 C379 1.363 . S
C382 N380 1.356 . S
C383 C377 1.363 . S
C383 C378 1.379 . S
C383 N381 1.356 . S
N384 C376 1.356 . S
N384 H390 0.984 . S
N384 H391 0.984 . S
N385 C378 1.356 . S
N385 H388 0.984 . S
N385 H389 0.985 . S
H386 N381 0.984 . S
H387 N381 0.985 . S
H388 N385 0.984 . S
H389 N385 0.985 . S
H390 N384 0.984 . S
H391 N384 0.984 . S
H392 N380 0.984 . S
H393 N380 0.985 . S
C394 C395 1.363 . S
C394 C400 1.379 . S
C394 N402 1.356 . S
C395 C394 1.363 . S
C395 C401 1.363 . S
C396 C397 1.363 . S
C396 C401 1.379 . S
C396 N403 1.356 1_655 S
C397 C396 1.363 . S
C397 C400 1.363 . S
N398 C400 1.356 . S
N398 H410 0.984 . S
N398 H411 0.985 . S
N399 C401 1.356 . S
N399 H404 0.984 . S
N399 H405 0.985 . S
C400 C394 1.379 . S
C400 C397 1.363 . S
C400 N398 1.356 . S
C401 C395 1.363 . S
C401 C396 1.379 . S
C401 N399 1.356 . S
N402 C394 1.356 . S
N402 H408 0.984 . S
N402 H409 0.984 . S
N403 C396 1.356 1_455 S
N403 H406 0.984 . S
N403 H407 0.985 . S
H404 N399 0.984 . S
H405 N399 0.985 . S
H406 N403 0.984 . S
H407 N403 0.985 . S
H408 N402 0.984 . S
H409 N402 0.984 . S
H410 N398 0.984 . S
H411 N398 0.985 . S
C412 C413 1.363 . S
C412 C418 1.379 . S
C412 N420 1.356 . S
C413 C412 1.363 . S
C413 C419 1.363 . S
C414 C415 1.363 . S
C414 C419 1.379 . S
C414 N421 1.356 . S
C415 C414 1.363 . S
C415 C418 1.363 . S
N416 C418 1.356 . S
N416 H428 0.984 . S
N416 H429 0.985 . S
N417 C419 1.356 . S
N417 H422 0.984 . S
N417 H423 0.985 . S
C418 C412 1.379 . S
C418 C415 1.363 . S
C418 N416 1.356 . S
C419 C413 1.363 . S
C419 C414 1.379 . S
C419 N417 1.356 . S
N420 C412 1.356 . S
N420 H426 0.984 . S
N420 H427 0.984 . S
N421 C414 1.356 . S
N421 H424 0.984 . S
N421 H425 0.985 . S
H422 N417 0.984 . S
H423 N417 0.985 . S
H424 N421 0.984 . S
H425 N421 0.985 . S
H426 N420 0.984 . S
H427 N420 0.984 . S
H428 N416 0.984 . S
H429 N416 0.985 . S
C430 C431 1.363 . S
C430 C436 1.379 . S
C430 N438 1.356 . S
C431 C430 1.363 . S
C431 C437 1.363 . S
C432 C433 1.363 . S
C432 C437 1.379 . S
C432 N439 1.356 . S
C433 C432 1.363 . S
C433 C436 1.363 . S
N434 C436 1.356 . S
N434 H446 0.984 1_565 S
N434 H447 0.985 1_565 S
N435 C437 1.356 . S
N435 H440 0.984 . S
N435 H441 0.985 . S
C436 C430 1.379 . S
C436 C433 1.363 . S
C436 N434 1.356 . S
C437 C431 1.363 . S
C437 C432 1.379 . S
C437 N435 1.356 . S
N438 C430 1.356 . S
N438 H444 0.984 . S
N438 H445 0.984 . S
N439 C432 1.356 . S
N439 H442 0.984 . S
N439 H443 0.985 . S
H440 N435 0.984 . S
H441 N435 0.985 . S
H442 N439 0.984 . S
H443 N439 0.985 . S
H444 N438 0.984 . S
H445 N438 0.984 . S
H446 N434 0.984 1_545 S
H447 N434 0.985 1_545 S
C448 C449 1.363 . S
C448 C454 1.379 . S
C448 N456 1.356 . S
C449 C448 1.363 . S
C449 C455 1.363 . S
C450 C451 1.363 . S
C450 C455 1.379 . S
C450 N457 1.356 . S
C451 C450 1.363 . S
C451 C454 1.363 . S
N452 C454 1.356 . S
N452 H464 0.984 . S
N452 H465 0.985 . S
N453 C455 1.356 . S
N453 H458 0.984 . S
N453 H459 0.985 . S
C454 C448 1.379 . S
C454 C451 1.363 . S
C454 N452 1.356 . S
C455 C449 1.363 . S
C455 C450 1.379 . S
C455 N453 1.356 . S
N456 C448 1.356 . S
N456 H462 0.984 . S
N456 H463 0.984 . S
N457 C450 1.356 . S
N457 H460 0.984 . S
N457 H461 0.989 . S
H458 N453 0.984 . S
H459 N453 0.985 . S
H460 N457 0.984 . S
H461 N457 0.989 . S
H462 N456 0.984 . S
H463 N456 0.984 . S
H464 N452 0.984 . S
H465 N452 0.985 . S
C466 C467 1.363 . S
C466 C472 1.379 . S
C466 N474 1.356 . S
C467 C466 1.363 . S
C467 C473 1.363 . S
C468 C469 1.363 . S
C468 C473 1.379 . S
C468 N475 1.356 . S
C469 C468 1.363 . S
C469 C472 1.363 . S
N470 C472 1.356 . S
N470 H482 0.984 . S
N470 H483 0.985 . S
N471 C473 1.356 . S
N471 H476 0.984 . S
N471 H477 0.985 . S
C472 C466 1.379 . S
C472 C469 1.363 . S
C472 N470 1.356 . S
C473 C467 1.363 . S
C473 C468 1.379 . S
C473 N471 1.356 . S
N474 C466 1.356 . S
N474 H480 0.984 . S
N474 H481 0.984 . S
N475 C468 1.356 . S
N475 H478 0.984 . S
N475 H479 0.985 . S
H476 N471 0.984 . S
H477 N471 0.985 . S
H478 N475 0.984 . S
H479 N475 0.985 . S
H480 N474 0.984 . S
H481 N474 0.984 . S
H482 N470 0.984 . S
H483 N470 0.985 . S
C484 C485 1.363 . S
C484 C490 1.379 . S
C484 N492 1.356 . S
C485 C484 1.363 . S
C485 C491 1.363 . S
C486 C487 1.363 . S
C486 C491 1.379 . S
C486 N493 1.356 . S
C487 C486 1.363 . S
C487 C490 1.363 . S
N488 C490 1.356 . S
N488 H500 0.984 . S
N488 H501 0.985 . S
N489 C491 1.356 . S
N489 H494 0.984 . S
N489 H495 0.985 . S
C490 C484 1.379 . S
C490 C487 1.363 . S
C490 N488 1.356 . S
C491 C485 1.363 . S
C491 C486 1.379 . S
C491 N489 1.356 . S
N492 C484 1.356 . S
N492 H498 0.984 . S
N492 H499 0.984 . S
N493 C486 1.356 . S
N493 H496 0.984 . S
N493 H497 0.985 1_554 S
H494 N489 0.984 . S
H495 N489 0.985 . S
H496 N493 0.984 . S
H497 N493 0.985 1_556 S
H498 N492 0.984 . S
H499 N492 0.984 . S
H500 N488 0.984 . S
H501 N488 0.985 . S
C502 C503 1.363 . S
C502 C508 1.379 . S
C502 N510 1.356 . S
C503 C502 1.363 . S
C503 C509 1.363 . S
C504 C505 1.363 . S
C504 C509 1.379 . S
C504 N511 1.356 . S
C505 C504 1.363 . S
C505 C508 1.363 . S
N506 C508 1.356 1_554 S
N506 H518 0.984 . S
N506 H519 0.985 . S
N507 C509 1.356 . S
N507 H512 0.984 . S
N507 H513 0.985 . S
C508 C502 1.379 . S
C508 C505 1.363 . S
C508 N506 1.356 1_556 S
C509 C503 1.363 . S
C509 C504 1.379 . S
C509 N507 1.356 . S
N510 C502 1.356 . S
N510 H516 0.984 1_556 S
N510 H517 0.984 . S
N511 C504 1.356 . S
N511 H514 0.984 . S
N511 H515 0.985 . S
H512 N507 0.984 . S
H513 N507 0.985 . S
H514 N511 0.984 . S
H515 N511 0.985 . S
H516 N510 0.984 1_554 S
H517 N510 0.984 . S
H518 N506 0.984 . S
H519 N506 0.985 . S
C520 C521 1.363 . S
C520 C526 1.379 . S
C520 N528 1.356 . S
C521 C520 1.363 . S
C521 C527 1.363 . S
C522 C523 1.363 . S
C522 C527 1.379 . S
C522 N529 1.356 . S
C523 C522 1.363 . S
C523 C526 1.363 . S
N524 C526 1.356 . S
N524 H536 0.984 . S
N524 H537 0.985 . S
N525 C527 1.356 . S
N525 H530 0.984 . S
N525 H531 0.985 . S
C526 C520 1.379 . S
C526 C523 1.363 . S
C526 N524 1.356 . S
C527 C521 1.363 . S
C527 C522 1.379 . S
C527 N525 1.356 . S
N528 C520 1.356 . S
N528 H534 0.984 . S
N528 H535 0.984 . S
N529 C522 1.356 . S
N529 H532 0.984 . S
N529 H533 0.985 . S
H530 N525 0.984 . S
H531 N525 0.985 . S
H532 N529 0.984 . S
H533 N529 0.985 . S
H534 N528 0.984 . S
H535 N528 0.984 . S
H536 N524 0.984 . S
H537 N524 0.985 . S
C538 C539 1.363 . S
C538 C544 1.379 . S
C538 N546 1.356 . S
C539 C538 1.363 . S
C539 C545 1.363 . S
C540 C541 1.363 . S
C540 C545 1.379 . S
C540 N547 1.356 . S
C541 C540 1.363 . S
C541 C544 1.363 . S
N542 C544 1.356 . S
N542 H554 0.984 . S
N542 H555 0.985 . S
N543 C545 1.356 . S
N543 H548 0.984 . S
N543 H549 0.985 . S
C544 C538 1.379 . S
C544 C541 1.363 . S
C544 N542 1.356 . S
C545 C539 1.363 . S
C545 C540 1.379 . S
C545 N543 1.356 . S
N546 C538 1.356 . S
N546 H552 0.984 . S
N546 H553 0.984 . S
N547 C540 1.356 . S
N547 H550 0.984 . S
N547 H551 0.985 . S
H548 N543 0.984 . S
H549 N543 0.985 . S
H550 N547 0.984 . S
H551 N547 0.985 . S
H552 N546 0.984 . S
H553 N546 0.984 . S
H554 N542 0.984 . S
H555 N542 0.985 . S
C556 C557 1.363 1_465 S
C556 C562 1.379 . S
C556 N564 1.356 . S
C557 C556 1.363 1_645 S
C557 C563 1.363 . S
C558 C559 1.363 . S
C558 C563 1.379 . S
C558 N565 1.356 . S
C559 C558 1.363 . S
C559 C562 1.363 1_645 S
N560 C562 1.356 . S
N560 H572 0.984 . S
N560 H573 0.985 . S
N561 C563 1.356 . S
N561 H566 0.984 . S
N561 H567 0.985 . S
C562 C556 1.379 . S
C562 C559 1.363 1_465 S
C562 N560 1.356 . S
C563 C557 1.363 . S
C563 C558 1.379 . S
C563 N561 1.356 . S
N564 C556 1.356 . S
N564 H570 0.984 . S
N564 H571 0.984 . S
N565 C558 1.356 . S
N565 H568 0.984 . S
N565 H569 0.985 . S
H566 N561 0.984 . S
H567 N561 0.985 . S
H568 N565 0.984 . S
H569 N565 0.985 . S
H570 N564 0.984 . S
H571 N564 0.984 . S
H572 N560 0.984 . S
H573 N560 0.985 . S
C574 C575 1.363 . S
C574 C580 1.379 . S
C574 N582 1.356 . S
C575 C574 1.363 . S
C575 C581 1.363 . S
C576 C577 1.363 . S
C576 C581 1.379 . S
C576 N583 1.356 . S
C577 C576 1.363 . S
C577 C580 1.363 . S
N578 C580 1.356 1_565 S
N578 H590 0.984 . S
N578 H591 0.985 . S
N579 C581 1.356 . S
N579 H584 0.984 . S
N579 H585 0.985 . S
C580 C574 1.379 . S
C580 C577 1.363 . S
C580 N578 1.356 1_545 S
C581 C575 1.363 . S
C581 C576 1.379 . S
C581 N579 1.356 . S
N582 C574 1.356 . S
N582 H588 0.984 1_545 S
N582 H589 0.984 . S
N583 C576 1.356 . S
N583 H586 0.984 . S
N583 H587 0.985 . S
H584 N579 0.984 . S
H585 N579 0.985 . S
H586 N583 0.984 . S
H587 N583 0.985 . S
H588 N582 0.984 1_565 S
H589 N582 0.984 . S
H590 N578 0.984 . S
H591 N578 0.985 . S
C592 C593 1.363 . S
C592 C598 1.379 . S
C592 N600 1.356 . S
C593 C592 1.363 . S
C593 C599 1.363 . S
C594 C595 1.363 . S
C594 C599 1.379 . S
C594 N601 1.356 . S
C595 C594 1.363 . S
C595 C598 1.363 . S
N596 C598 1.356 . S
N596 H608 0.984 . S
N596 H609 0.985 . S
N597 C599 1.356 . S
N597 H602 0.984 . S
N597 H603 0.985 . S
C598 C592 1.379 . S
C598 C595 1.363 . S
C598 N596 1.356 . S
C599 C593 1.363 . S
C599 C594 1.379 . S
C599 N597 1.356 . S
N600 C592 1.356 . S
N600 H606 0.984 . S
N600 H607 0.984 . S
N601 C594 1.356 . S
N601 H604 0.984 . S
N601 H605 0.985 . S
H602 N597 0.984 . S
H603 N597 0.985 . S
H604 N601 0.984 . S
H605 N601 0.985 . S
H606 N600 0.984 . S
H607 N600 0.984 . S
H608 N596 0.984 . S
H609 N596 0.985 . S
C610 C611 1.363 . S
C610 C616 1.379 . S
C610 N618 1.362 . S
C611 C610 1.363 . S
C611 C617 1.363 . S
C612 C613 1.363 . S
C612 C617 1.379 . S
C612 N619 1.356 . S
C613 C612 1.363 . S
C613 C616 1.363 . S
N614 C616 1.356 . S
N614 H626 0.984 1_455 S
N614 H627 0.985 . S
N615 C617 1.356 . S
N615 H620 0.984 . S
N615 H621 0.985 . S
C616 C610 1.379 . S
C616 C613 1.363 . S
C616 N614 1.356 . S
C617 C611 1.363 . S
C617 C612 1.379 . S
C617 N615 1.356 . S
N618 C610 1.362 . S
N618 H624 0.977 1_455 S
N618 H625 0.986 . S
N619 C612 1.356 . S
N619 H622 0.984 . S
N619 H623 0.985 . S
H620 N615 0.984 . S
H621 N615 0.985 . S
H622 N619 0.984 . S
H623 N619 0.985 . S
H624 N618 0.977 1_655 S
H625 N618 0.986 . S
H626 N614 0.984 1_655 S
H627 N614 0.985 . S
C628 C629 1.363 1_546 S
C628 C634 1.379 . S
C628 N636 1.356 . S
C629 C628 1.363 1_564 S
C629 C635 1.363 . S
C630 C631 1.363 . S
C630 C635 1.379 . S
C630 N637 1.356 . S
C631 C630 1.363 . S
C631 C634 1.363 1_564 S
N632 C634 1.356 . S
N632 H644 0.984 . S
N632 H645 0.985 . S
N633 C635 1.356 . S
N633 H638 0.984 . S
N633 H639 0.985 . S
C634 C628 1.379 . S
C634 C631 1.363 1_546 S
C634 N632 1.356 . S
C635 C629 1.363 . S
C635 C630 1.379 . S
C635 N633 1.356 . S
N636 C628 1.356 . S
N636 H642 0.984 . S
N636 H643 0.984 . S
N637 C630 1.356 . S
N637 H640 0.984 . S
N637 H641 0.985 . S
H638 N633 0.984 . S
H639 N633 0.985 . S
H640 N637 0.984 . S
H641 N637 0.985 . S
H642 N636 0.984 . S
H643 N636 0.984 . S
H644 N632 0.984 . S
H645 N632 0.985 . S
C646 C647 1.363 . S
C646 C652 1.379 . S
C646 N654 1.356 . S
C647 C646 1.363 . S
C647 C653 1.363 . S
C648 C649 1.363 . S
C648 C653 1.379 . S
C648 N655 1.356 . S
C649 C648 1.363 . S
C649 C652 1.363 . S
N650 C652 1.356 . S
N650 H662 0.984 . S
N650 H663 0.985 . S
N651 C653 1.356 . S
N651 H656 0.984 . S
N651 H657 0.985 1_545 S
C652 C646 1.379 . S
C652 C649 1.363 . S
C652 N650 1.356 . S
C653 C647 1.363 . S
C653 C648 1.379 . S
C653 N651 1.356 . S
N654 C646 1.356 . S
N654 H660 0.984 . S
N654 H661 0.984 . S
N655 C648 1.356 . S
N655 H658 0.984 . S
N655 H659 0.985 1_545 S
H656 N651 0.984 . S
H657 N651 0.985 1_565 S
H658 N655 0.984 . S
H659 N655 0.985 1_565 S
H660 N654 0.984 . S
H661 N654 0.984 . S
H662 N650 0.984 . S
H663 N650 0.985 . S
C664 C665 1.363 . S
C664 C670 1.379 . S
C664 N672 1.356 . S
C665 C664 1.363 . S
C665 C671 1.363 1_554 S
C666 C667 1.363 1_556 S
C666 C671 1.379 . S
C666 N673 1.356 . S
C667 C666 1.363 1_554 S
C667 C670 1.363 . S
N668 C670 1.356 . S
N668 H680 0.984 . S
N668 H681 0.985 . S
N669 C671 1.356 . S
N669 H674 0.984 . S
N669 H675 0.985 . S
C670 C664 1.379 . S
C670 C667 1.363 . S
C670 N668 1.356 . S
C671 C665 1.363 1_556 S
C671 C666 1.379 . S
C671 N669 1.356 . S
N672 C664 1.356 . S
N672 H678 0.984 . S
N672 H679 0.984 . S
N673 C666 1.356 . S
N673 H676 0.984 . S
N673 H677 0.985 . S
H674 N669 0.984 . S
H675 N669 0.985 . S
H676 N673 0.984 . S
H677 N673 0.985 . S
H678 N672 0.984 . S
H679 N672 0.984 . S
H680 N668 0.984 . S
H681 N668 0.985 . S
C682 C683 1.363 . S
C682 C688 1.379 . S
C682 N690 1.356 . S
C683 C682 1.363 . S
C683 C689 1.363 . S
C684 C685 1.363 . S
C684 C689 1.379 . S
C684 N691 1.356 . S
C685 C684 1.363 . S
C685 C688 1.363 . S
N686 C688 1.356 . S
N686 H698 0.984 . S
N686 H699 0.985 . S
N687 C689 1.356 . S
N687 H692 0.984 . S
N687 H693 0.985 . S
C688 C682 1.379 . S
C688 C685 1.363 . S
C688 N686 1.356 . S
C689 C683 1.363 . S
C689 C684 1.379 . S
C689 N687 1.356 . S
N690 C682 1.356 . S
N690 H696 0.984 . S
N690 H697 0.984 . S
N691 C684 1.356 . S
N691 H694 0.984 . S
N691 H695 0.985 . S
H692 N687 0.984 . S
H693 N687 0.985 . S
H694 N691 0.984 . S
H695 N691 0.985 . S
H696 N690 0.984 . S
H697 N690 0.984 . S
H698 N686 0.984 . S
H699 N686 0.985 . S
C700 C701 1.363 1_655 S
C700 C706 1.379 . S
C700 N708 1.356 . S
C701 C700 1.363 1_455 S
C701 C707 1.363 1_556 S
C702 C703 1.363 1_554 S
C702 C707 1.379 . S
C702 N709 1.356 . S
C703 C702 1.363 1_556 S
C703 C706 1.363 1_455 S
N704 C706 1.356 . S
N704 H716 0.984 . S
N704 H717 0.985 . S
N705 C707 1.356 . S
N705 H710 0.984 . S
N705 H711 0.985 . S
C706 C700 1.379 . S
C706 C703 1.363 1_655 S
C706 N704 1.356 . S
C707 C701 1.363 1_554 S
C707 C702 1.379 . S
C707 N705 1.356 . S
N708 C700 1.356 . S
N708 H714 0.984 . S
N708 H715 0.984 . S
N709 C702 1.356 . S
N709 H712 0.984 . S
N709 H713 0.985 . S
H710 N705 0.984 . S
H711 N705 0.985 . S
H712 N709 0.984 . S
H713 N709 0.985 . S
H714 N708 0.984 . S
H715 N708 0.984 . S
H716 N704 0.984 . S
H717 N704 0.985 . S
C718 C719 1.363 . S
C718 C724 1.379 . S
C718 N726 1.356 1_554 S
C719 C718 1.363 . S
C719 C725 1.363 . S
C720 C721 1.363 . S
C720 C725 1.379 . S
C720 N727 1.356 . S
C721 C720 1.363 . S
C721 C724 1.363 . S
N722 C724 1.356 . S
N722 H734 0.984 1_554 S
N722 H735 0.985 . S
N723 C725 1.356 . S
N723 H728 0.984 . S
N723 H729 0.985 . S
C724 C718 1.379 . S
C724 C721 1.363 . S
C724 N722 1.356 . S
C725 C719 1.363 . S
C725 C720 1.379 . S
C725 N723 1.356 . S
N726 C718 1.356 1_556 S
N726 H732 0.984 . S
N726 H733 0.989 . S
N727 C720 1.356 . S
N727 H730 0.984 . S
N727 H731 0.985 . S
H728 N723 0.984 . S
H729 N723 0.985 . S
H730 N727 0.984 . S
H731 N727 0.985 . S
H732 N726 0.984 . S
H733 N726 0.989 . S
H734 N722 0.984 1_556 S
H735 N722 0.985 . S
C736 C737 1.363 . S
C736 C742 1.379 . S
C736 N744 1.356 1_455 S
C737 C736 1.363 . S
C737 C743 1.363 . S
C738 C739 1.363 . S
C738 C743 1.379 . S
C738 N745 1.356 . S
C739 C738 1.363 . S
C739 C742 1.363 . S
N740 C742 1.356 1_655 S
N740 H752 0.984 . S
N740 H753 0.985 . S
N741 C743 1.356 . S
N741 H746 0.984 . S
N741 H747 0.985 . S
C742 C736 1.379 . S
C742 C739 1.363 . S
C742 N740 1.356 1_455 S
C743 C737 1.363 . S
C743 C738 1.379 . S
C743 N741 1.356 . S
N744 C736 1.356 1_655 S
N744 H750 0.984 . S
N744 H751 0.984 . S
N745 C738 1.356 . S
N745 H748 0.984 . S
N745 H749 0.985 . S
H746 N741 0.984 . S
H747 N741 0.985 . S
H748 N745 0.984 . S
H749 N745 0.985 . S
H750 N744 0.984 . S
H751 N744 0.984 . S
H752 N740 0.984 . S
H753 N740 0.985 . S
C754 C755 1.363 . S
C754 C760 1.379 . S
C754 N762 1.356 . S
C755 C754 1.363 . S
C755 C761 1.363 . S
C756 C757 1.363 . S
C756 C761 1.379 . S
C756 N763 1.356 . S
C757 C756 1.363 . S
C757 C760 1.363 . S
N758 C760 1.356 . S
N758 H770 0.984 . S
N758 H771 0.985 . S
N759 C761 1.356 . S
N759 H764 0.984 . S
N759 H765 0.985 . S
C760 C754 1.379 . S
C760 C757 1.363 . S
C760 N758 1.356 . S
C761 C755 1.363 . S
C761 C756 1.379 . S
C761 N759 1.356 . S
N762 C754 1.356 . S
N762 H768 0.984 . S
N762 H769 0.984 . S
N763 C756 1.356 . S
N763 H766 0.984 . S
N763 H767 0.985 . S
H764 N759 0.984 . S
H765 N759 0.985 . S
H766 N763 0.984 . S
H767 N763 0.985 . S
H768 N762 0.984 . S
H769 N762 0.984 . S
H770 N758 0.984 . S
H771 N758 0.985 . S
C341 C29 1.541 . S
C343 C259 1.470 . S
C359 C49 1.464 . S
C361 C293 1.389 . S
C379 C305 1.426 . S
C377 C93 1.499 . S
C395 C119 1.448 . S
C397 C339 1.375 . S
C415 C296 1.427 . S
C413 C17 1.487 . S
C433 C276 1.436 . S
C431 C61 1.508 . S
C451 C323 1.391 . S
C449 C81 1.454 . S
C469 C314 1.434 . S
C467 C125 1.510 . S
C485 C23 1.481 . S
C487 C322 1.400 . S
C505 C284 1.376 . S
C503 C87 1.461 . S
C521 C113 1.515 . S
C523 C260 1.442 . S
C539 C55 1.484 . S
C541 C317 1.418 . S
C559 C275 1.572 . S
C557 C157 1.717 1_545 S
C575 C189 1.521 . S
C577 C297 1.593 . S
C593 C221 1.742 . S
C595 C302 1.592 . S
C611 C253 1.543 . S
C613 C335 1.628 . S
C629 C145 1.761 . S
C631 C280 1.636 . S
C649 C272 1.583 . S
C647 C183 1.526 . S
C667 C326 1.619 . S
C665 C209 1.749 . S
C685 C318 1.575 . S
C683 C247 1.517 . S
C701 C151 1.726 1_455 S
C703 C338 1.594 . S
C721 C281 1.600 . S
C719 C215 1.744 . S
C739 C263 1.594 . S
C737 C241 1.561 . S
C755 C177 1.577 . S
C757 C301 1.623 . S
