# Generated by pormake.
# Topology pyr, (3,6)-cn, num edge types: 1
# Building blocks:
#     Node 0, Type 0, BuildingBlock: PAMTOO_clean_linker_0, # of connection points: 3
#     Node 1, Type 0, BuildingBlock: PAMTOO_clean_linker_0, # of connection points: 3
#     Node 2, Type 0, BuildingBlock: PAMTOO_clean_linker_0, # of connection points: 3
#     Node 3, Type 0, BuildingBlock: PAMTOO_clean_linker_0, # of connection points: 3
#     Node 4, Type 0, BuildingBlock: PAMTOO_clean_linker_0, # of connection points: 3
#     Node 5, Type 0, BuildingBlock: PAMTOO_clean_linker_0, # of connection points: 3
#     Node 6, Type 0, BuildingBlock: PAMTOO_clean_linker_0, # of connection points: 3
#     Node 7, Type 0, BuildingBlock: PAMTOO_clean_linker_0, # of connection points: 3
#     Node 8, Type 1, BuildingBlock: MIDCAF_clean_sbu_0, # of connection points: 6
#     Node 9, Type 1, BuildingBlock: MIDCAF_clean_sbu_0, # of connection points: 6
#     Node 10, Type 1, BuildingBlock: MIDCAF_clean_sbu_0, # of connection points: 6
#     Node 11, Type 1, BuildingBlock: MIDCAF_clean_sbu_0, # of connection points: 6
#     Edge 12, Type (0, 1), BuildingBlock: UVAHIK_clean_linker_0, # of connection points: 2
#     Edge 13, Type (0, 1), BuildingBlock: UVAHIK_clean_linker_0, # of connection points: 2
#     Edge 14, Type (0, 1), BuildingBlock: UVAHIK_clean_linker_0, # of connection points: 2
#     Edge 15, Type (0, 1), BuildingBlock: UVAHIK_clean_linker_0, # of connection points: 2
#     Edge 16, Type (0, 1), BuildingBlock: UVAHIK_clean_linker_0, # of connection points: 2
#     Edge 17, Type (0, 1), BuildingBlock: UVAHIK_clean_linker_0, # of connection points: 2
#     Edge 18, Type (0, 1), BuildingBlock: UVAHIK_clean_linker_0, # of connection points: 2
#     Edge 19, Type (0, 1), BuildingBlock: UVAHIK_clean_linker_0, # of connection points: 2
#     Edge 20, Type (0, 1), BuildingBlock: UVAHIK_clean_linker_0, # of connection points: 2
#     Edge 21, Type (0, 1), BuildingBlock: UVAHIK_clean_linker_0, # of connection points: 2
#     Edge 22, Type (0, 1), BuildingBlock: UVAHIK_clean_linker_0, # of connection points: 2
#     Edge 23, Type (0, 1), BuildingBlock: UVAHIK_clean_linker_0, # of connection points: 2
#     Edge 24, Type (0, 1), BuildingBlock: UVAHIK_clean_linker_0, # of connection points: 2
#     Edge 25, Type (0, 1), BuildingBlock: UVAHIK_clean_linker_0, # of connection points: 2
#     Edge 26, Type (0, 1), BuildingBlock: UVAHIK_clean_linker_0, # of connection points: 2
#     Edge 27, Type (0, 1), BuildingBlock: UVAHIK_clean_linker_0, # of connection points: 2
#     Edge 28, Type (0, 1), BuildingBlock: UVAHIK_clean_linker_0, # of connection points: 2
#     Edge 29, Type (0, 1), BuildingBlock: UVAHIK_clean_linker_0, # of connection points: 2
#     Edge 30, Type (0, 1), BuildingBlock: UVAHIK_clean_linker_0, # of connection points: 2
#     Edge 31, Type (0, 1), BuildingBlock: UVAHIK_clean_linker_0, # of connection points: 2
#     Edge 32, Type (0, 1), BuildingBlock: UVAHIK_clean_linker_0, # of connection points: 2
#     Edge 33, Type (0, 1), BuildingBlock: UVAHIK_clean_linker_0, # of connection points: 2
#     Edge 34, Type (0, 1), BuildingBlock: UVAHIK_clean_linker_0, # of connection points: 2
#     Edge 35, Type (0, 1), BuildingBlock: UVAHIK_clean_linker_0, # of connection points: 2
# Relax obj value: 0.091
# Max RMSD: 0.201
# Mean RMSD: 0.142
data_MOF--net-pry--node1-MIDCAF_clean_sbu_0--node2-PAMTOO_clean_linker_0--edge1-UVAHIK_clean_linker_0
_symmetry_space_group_name_H-M    P1
_symmetry_Int_Tables_number       1
_symmetry_cell_setting            triclinic
loop_
_symmetry_equiv_pos_as_xyz
'x, y, z'
_cell_length_a     44.987686
_cell_length_b     46.426231
_cell_length_c     45.825503
_cell_angle_alpha  89.810363
_cell_angle_beta   91.260451
_cell_angle_gamma 95.298034
loop_
_atom_site_label
_atom_site_type_symbol
_atom_site_fract_x
_atom_site_fract_y
_atom_site_fract_z
_atom_type_partial_charge
H0 H 0.21122 0.25729 0.2526 0.0
H1 H 0.27129 0.19016 0.25337 0.0
H2 H 0.27728 0.25422 0.1861 0.0
H3 H 0.27925 0.19279 0.16786 0.0
C4 C 0.29283 0.18541 0.18657 0.0
O5 O 0.29882 0.20767 0.20634 0.0
H6 H 0.27953 0.16703 0.19721 0.0
C7 C 0.22961 0.24733 0.24322 0.0
C8 C 0.2427 0.25905 0.21756 0.0
C9 C 0.23979 0.22262 0.25672 0.0
C10 C 0.26344 0.20962 0.24405 0.0
C11 C 0.2766 0.22092 0.21859 0.0
C12 C 0.26647 0.24563 0.20558 0.0
H13 H 0.2916 0.86217 0.74056 0.0
H14 H 0.29238 0.82133 0.65635 0.0
H15 H 0.36609 0.81604 0.71596 0.0
H16 H 0.37712 0.82938 0.65234 0.0
C17 C 0.36083 0.81202 0.64322 0.0
O18 O 0.34329 0.79984 0.6652 0.0
H19 H 0.34649 0.82199 0.62667 0.0
C20 C 0.30265 0.84983 0.72474 0.0
C21 C 0.33078 0.84033 0.73182 0.0
C22 C 0.2886 0.8436 0.69746 0.0
C23 C 0.30241 0.82626 0.67766 0.0
C24 C 0.33007 0.81614 0.68461 0.0
C25 C 0.34425 0.82329 0.71146 0.0
H26 H 0.79245 0.26378 0.83711 0.0
H27 H 0.70715 0.26021 0.79255 0.0
H28 H 0.76367 0.33968 0.79428 0.0
H29 H 0.70097 0.34542 0.80287 0.0
C30 C 0.69072 0.32759 0.78872 0.0
O31 O 0.71283 0.31403 0.77532 0.0
H32 H 0.67747 0.31166 0.80261 0.0
C33 C 0.77603 0.27447 0.82448 0.0
C34 C 0.78171 0.30388 0.81705 0.0
C35 C 0.74915 0.25859 0.81616 0.0
C36 C 0.72824 0.27195 0.79886 0.0
C37 C 0.73371 0.30106 0.79089 0.0
C38 C 0.76033 0.31695 0.7999 0.0
H39 H 0.80568 0.74092 0.35848 0.0
H40 H 0.82538 0.68058 0.292 0.0
H41 H 0.87401 0.76401 0.2958 0.0
H42 H 0.86158 0.74308 0.23419 0.0
C43 C 0.85729 0.7197 0.23954 0.0
O44 O 0.86671 0.71529 0.26794 0.0
H45 H 0.83293 0.71323 0.23689 0.0
C46 C 0.81827 0.73574 0.33966 0.0
C47 C 0.84025 0.75637 0.32881 0.0
C48 C 0.81289 0.70812 0.32691 0.0
C49 C 0.82923 0.70155 0.30243 0.0
C50 C 0.85068 0.72203 0.29109 0.0
C51 C 0.85638 0.7491 0.30435 0.0
H52 H 0.90496 0.94176 0.86269 0.0
H53 H 0.89468 0.87814 0.93131 0.0
H54 H 0.96225 0.87229 0.86779 0.0
H55 H 0.93085 0.81649 0.88337 0.0
C56 C 0.92441 0.82136 0.906 0.0
O57 O 0.93734 0.84836 0.9141 0.0
H58 H 0.89965 0.82119 0.90645 0.0
C59 C 0.91193 0.92262 0.8735 0.0
C60 C 0.93558 0.90853 0.86216 0.0
C61 C 0.897 0.91197 0.89853 0.0
C62 C 0.90613 0.88705 0.91229 0.0
C63 C 0.92939 0.87273 0.90104 0.0
C64 C 0.94412 0.88348 0.87613 0.0
H65 H 0.7044 0.12225 0.33181 0.0
H66 H 0.66537 0.20358 0.32569 0.0
H67 H 0.73441 0.19236 0.38961 0.0
H68 H 0.69044 0.22619 0.41184 0.0
C69 C 0.68031 0.23395 0.39123 0.0
O70 O 0.6981 0.22825 0.3682 0.0
H71 H 0.65772 0.22219 0.38833 0.0
C72 C 0.7031 0.14426 0.33919 0.0
C73 C 0.72183 0.15512 0.36228 0.0
C74 C 0.6825 0.16147 0.32584 0.0
C75 C 0.68122 0.19002 0.33552 0.0
C76 C 0.69987 0.201 0.35854 0.0
C77 C 0.7201 0.18361 0.37183 0.0
H78 H 0.37019 0.66204 0.10212 0.0
H79 H 0.37825 0.63601 0.19214 0.0
H80 H 0.41359 0.72073 0.1657 0.0
H81 H 0.45076 0.69974 0.21167 0.0
C82 C 0.43555 0.6809 0.21878 0.0
O83 O 0.40683 0.68485 0.20945 0.0
H84 H 0.44315 0.66102 0.20891 0.0
C85 C 0.37824 0.66653 0.12427 0.0
C86 C 0.39268 0.69386 0.13107 0.0
C87 C 0.37259 0.64555 0.14618 0.0
C88 C 0.38228 0.65193 0.17499 0.0
C89 C 0.39724 0.67892 0.1818 0.0
C90 C 0.40208 0.69989 0.16002 0.0
H91 H 0.11895 0.35243 0.67039 0.0
H92 H 0.18925 0.40742 0.71224 0.0
H93 H 0.21058 0.34919 0.64517 0.0
H94 H 0.2427 0.35207 0.70571 0.0
C95 C 0.25025 0.37543 0.7028 0.0
O96 O 0.23224 0.38817 0.68272 0.0
H97 H 0.24897 0.38619 0.72432 0.0
C98 C 0.14248 0.35974 0.67264 0.0
C99 C 0.16349 0.34823 0.65469 0.0
C100 C 0.15162 0.38116 0.69326 0.0
C101 C 0.18189 0.39112 0.6961 0.0
C102 C 0.20299 0.37935 0.67894 0.0
C103 C 0.19385 0.35821 0.65812 0.0
Zn104 Zn 0.99971 0.06628 0.54973 0.0
Zn105 Zn 0.06055 0.99793 0.48539 0.0
Zn106 Zn 0.02976 0.03244 0.51866 0.0
C107 C 0.08561 0.05457 0.47711 0.0
C108 C 1.00051 0.99045 0.46713 0.0
O109 O 0.03312 0.01902 0.56536 0.0
O110 O 0.01136 0.05261 0.58888 0.0
C111 C 0.04124 0.10216 0.5198 0.0
O112 O 0.0643 0.05954 0.49425 0.0
O113 O 0.08992 0.02894 0.47046 0.0
O114 O 0.02582 0.98337 0.46005 0.0
O115 O 0.9981 0.00808 0.48842 0.0
O116 O 0.01861 0.10367 0.53531 0.0
O117 O 0.04935 0.07739 0.51232 0.0
O118 O 0.98232 0.02847 0.50295 0.0
O119 O 0.95916 0.05381 0.53464 0.0
C120 C 0.9582 0.03796 0.51227 0.0
O121 O 0.05108 0.00246 0.54837 0.0
O122 O 0.07272 0.97357 0.51868 0.0
C123 C 0.02497 0.03002 0.58941 0.0
C124 C 0.0666 0.98089 0.54423 0.0
Zn125 Zn 0.53121 0.04244 0.97095 0.0
Zn126 Zn 0.56847 0.96464 0.04578 0.0
Zn127 Zn 0.55102 0.0037 0.00832 0.0
C128 C 0.61598 0.97933 0.00794 0.0
C129 C 0.51943 0.93821 0.0165 0.0
O130 O 0.53159 0.03777 0.03391 0.0
O131 O 0.51264 0.06592 1.00062 0.0
C132 C 0.59242 0.04182 0.96309 0.0
O133 O 0.59858 0.99829 0.99904 0.0
O134 O 0.6075 0.96118 0.02733 0.0
O135 O 0.53619 0.93387 0.03816 0.0
O136 O 0.52248 0.96228 0.0023 0.0
O137 O 0.57085 0.0561 0.956 0.0
O138 O 0.58911 0.02078 0.9815 0.0
O139 O 0.51595 0.98102 0.9799 0.0
O140 O 0.50631 0.01369 0.94651 0.0
C141 C 0.50253 0.98814 0.95617 0.0
O142 O 0.54836 0.02153 0.05284 0.0
O143 O 0.56656 0.98851 0.08135 0.0
C144 C 0.51672 0.0594 0.0271 0.0
C145 C 0.55636 0.01281 0.07833 0.0
Zn146 Zn 0.57884 0.55692 0.55661 0.0
Zn147 Zn 0.50478 0.49317 0.48233 0.0
Zn148 Zn 0.54218 0.52516 0.519 0.0
C149 C 0.56335 0.4893 0.46376 0.0
C150 C 0.49014 0.55057 0.47914 0.0
O151 O 0.52484 0.56807 0.52355 0.0
O152 O 0.55443 0.59057 0.55717 0.0
C153 C 0.55781 0.5061 0.58555 0.0
O154 O 0.56939 0.50691 0.48522 0.0
O155 O 0.53664 0.48015 0.45763 0.0
O156 O 0.48277 0.52583 0.46841 0.0
O157 O 0.5109 0.55394 0.49902 0.0
O158 O 0.57563 0.52852 0.58923 0.0
O159 O 0.54277 0.50222 0.56139 0.0
O160 O 0.58685 0.52925 0.49993 0.0
O161 O 0.61392 0.55813 0.53063 0.0
C162 C 0.61163 0.54394 0.50706 0.0
O163 O 0.51859 0.48999 0.54423 0.0
O164 O 0.48729 0.46646 0.51266 0.0
C165 C 0.53184 0.5901 0.54023 0.0
C166 C 0.49767 0.46984 0.53839 0.0
Zn167 Zn 0.09121 0.54058 0.986 0.0
Zn168 Zn 0.01621 0.46968 0.0492 0.0
Zn169 Zn 0.0537 0.50534 0.0165 0.0
C170 C 0.0745 0.46318 0.06905 0.0
C171 C 0.00731 0.45381 0.99014 0.0
O172 O 0.04133 0.55052 0.02046 0.0
O173 O 0.07668 0.57777 0.99789 0.0
C174 C 0.12592 0.51074 0.02432 0.0
O175 O 0.08043 0.48132 0.04813 0.0
O176 O 0.04776 0.45501 0.07502 0.0
O177 O 0.99941 0.44598 0.01547 0.0
O178 O 0.02718 0.4753 0.98663 0.0
O179 O 0.12879 0.52818 0.00317 0.0
O180 O 0.09977 0.50077 0.03261 0.0
O181 O 0.04872 0.49198 0.97023 0.0
O182 O 0.07799 0.52518 0.94717 0.0
C183 C 0.05972 0.50285 0.94646 0.0
O184 O 0.02423 0.53227 0.03993 0.0
O185 O 0.99323 0.50111 0.06377 0.0
C186 C 0.05274 0.57558 0.01194 0.0
C187 C 0.00205 0.52685 0.05704 0.0
C188 C 0.2424 0.19718 0.30533 0.0
C189 C 0.22535 0.20993 0.28352 0.0
C190 C 0.22873 0.18388 0.32963 0.0
C191 C 0.16213 0.17997 0.37481 0.0
H192 H 0.17935 0.10084 0.38907 0.0
C193 C 0.09062 0.10171 0.45024 0.0
C194 C 0.10397 0.07849 0.46309 0.0
C195 C 0.10702 0.12107 0.43182 0.0
C196 C 0.1747 0.12313 0.38606 0.0
H197 H 0.18029 0.21887 0.2708 0.0
H198 H 0.15673 0.19645 0.31373 0.0
H199 H 0.20498 0.12853 0.35066 0.0
H200 H 0.14527 0.05852 0.46883 0.0
H201 H 0.17439 0.0931 0.43835 0.0
H202 H 0.13214 0.1748 0.41051 0.0
C203 C 0.18073 0.19683 0.31183 0.0
C204 C 0.18933 0.13893 0.36378 0.0
C205 C 0.19432 0.20977 0.28725 0.0
C206 C 0.13443 0.07614 0.45895 0.0
C207 C 0.15098 0.0958 0.44114 0.0
C208 C 0.1478 0.1643 0.39754 0.0
C209 C 0.19774 0.18337 0.33302 0.0
C210 C 0.18304 0.1674 0.35773 0.0
C211 C 0.13724 0.1178 0.42624 0.0
C212 C 0.1537 0.13552 0.40335 0.0
H213 H 0.26639 0.1974 0.30366 0.0
H214 H 0.24242 0.1739 0.34581 0.0
H215 H 0.15701 0.20198 0.3707 0.0
H216 H 0.06703 0.10376 0.45285 0.0
H217 H 0.09546 0.13752 0.42073 0.0
C218 C 0.34408 0.87725 0.77117 0.0
C219 C 0.34652 0.84945 0.75977 0.0
C220 C 0.35936 0.88634 0.79682 0.0
C221 C 0.42677 0.87659 0.83876 0.0
H222 H 0.3902 0.92074 0.89773 0.0
C223 C 0.46256 0.94698 0.95011 0.0
C224 C 0.48512 0.96609 0.93822 0.0
C225 C 0.4454 0.92723 0.93205 0.0
C226 C 0.40062 0.90804 0.88173 0.0
H227 H 0.3668 0.8093 0.76709 0.0
H228 H 0.39442 0.82575 0.81144 0.0
H229 H 0.35906 0.89629 0.8591 0.0
H230 H 0.50805 0.97939 0.89867 0.0
H231 H 0.47853 0.9448 0.86729 0.0
H232 H 0.4685 0.88958 0.86052 0.0
C233 C 0.38035 0.84029 0.80041 0.0
C234 C 0.38287 0.89427 0.85951 0.0
C235 C 0.36467 0.83098 0.7749 0.0
C236 C 0.49073 0.96482 0.9083 0.0
C237 C 0.47404 0.94488 0.89042 0.0
C238 C 0.44455 0.89069 0.86072 0.0
C239 C 0.37787 0.86809 0.81158 0.0
C240 C 0.39588 0.87902 0.83741 0.0
C241 C 0.45098 0.92611 0.902 0.0
C242 C 0.43173 0.90714 0.88198 0.0
H243 H 0.33099 0.89242 0.75987 0.0
H244 H 0.3575 0.9081 0.80459 0.0
H245 H 0.43741 0.86512 0.82193 0.0
H246 H 0.45755 0.94802 0.97305 0.0
H247 H 0.42765 0.91305 0.94147 0.0
C248 C 0.63976 0.33908 0.77039 0.0
C249 C 0.67071 0.34031 0.76626 0.0
C250 C 0.62134 0.3526 0.75066 0.0
C251 C 0.61854 0.3824 0.67586 0.0
H252 H 0.56215 0.43193 0.70718 0.0
C253 C 0.55369 0.45381 0.59985 0.0
C254 C 0.55742 0.4831 0.60795 0.0
C255 C 0.5601 0.4323 0.61989 0.0
C256 C 0.5776 0.41799 0.6981 0.0
H257 H 0.70681 0.35744 0.73889 0.0
H258 H 0.67469 0.3808 0.70419 0.0
H259 H 0.58958 0.40195 0.74022 0.0
H260 H 0.56848 0.51271 0.64383 0.0
H261 H 0.57952 0.47533 0.67874 0.0
H262 H 0.60758 0.39929 0.63391 0.0
C263 C 0.66453 0.36885 0.72231 0.0
C264 C 0.59318 0.40069 0.71699 0.0
C265 C 0.68294 0.35554 0.74216 0.0
C266 C 0.56546 0.4903 0.63698 0.0
C267 C 0.57163 0.46884 0.65704 0.0
C268 C 0.60284 0.39952 0.65697 0.0
C269 C 0.63354 0.36766 0.72641 0.0
C270 C 0.61441 0.3833 0.70613 0.0
C271 C 0.57018 0.43971 0.64841 0.0
C272 C 0.58276 0.41807 0.66795 0.0
H273 H 0.62984 0.32792 0.7891 0.0
H274 H 0.59756 0.35131 0.75439 0.0
H275 H 0.63448 0.36894 0.66682 0.0
H276 H 0.54787 0.44762 0.57755 0.0
H277 H 0.55848 0.40999 0.61271 0.0
C278 C 0.88147 0.71229 0.19125 0.0
C279 C 0.87358 0.7017 0.21902 0.0
C280 C 0.89531 0.69507 0.17162 0.0
C281 C 0.90639 0.61829 0.15705 0.0
H282 H 0.96892 0.65097 0.10659 0.0
C283 C 0.95583 0.54712 0.07277 0.0
C284 C 0.98689 0.55043 0.06978 0.0
C285 C 0.94142 0.56778 0.08765 0.0
C286 C 0.95163 0.64147 0.12067 0.0
H287 H 0.87292 0.66446 0.24772 0.0
H288 H 0.89808 0.63483 0.21414 0.0
H289 H 0.94584 0.68227 0.14041 0.0
H290 H 0.02735 0.57805 0.07924 0.0
H291 H 0.00235 0.6139 0.10621 0.0
H292 H 0.91298 0.57738 0.13856 0.0
C293 C 0.8934 0.65631 0.20722 0.0
C294 C 0.93812 0.65949 0.13982 0.0
C295 C 0.87931 0.6734 0.22666 0.0
C296 C 0.0033 0.5752 0.08113 0.0
C297 C 0.98892 0.59575 0.09645 0.0
C298 C 0.92003 0.60032 0.13819 0.0
C299 C 0.9014 0.66682 0.17936 0.0
C300 C 0.91545 0.64805 0.15839 0.0
C301 C 0.95785 0.59189 0.10051 0.0
C302 C 0.94285 0.61161 0.11975 0.0
H303 H 0.87666 0.73383 0.18462 0.0
H304 H 0.90064 0.70369 0.15019 0.0
H305 H 0.88865 0.60875 0.17059 0.0
H306 H 0.9427 0.52828 0.06394 0.0
H307 H 0.9174 0.56447 0.0896 0.0
C308 C 0.33167 0.14934 0.18434 0.0
C309 C 0.32149 0.17571 0.17524 0.0
C310 C 0.35688 0.13927 0.17184 0.0
C311 C 0.3994 0.14652 0.10407 0.0
H312 H 0.45676 0.10383 0.14637 0.0
C313 C 0.49662 0.10456 0.04407 0.0
C314 C 0.50236 0.07581 0.04966 0.0
C315 C 0.47869 0.11892 0.06257 0.0
C316 C 0.44082 0.11557 0.13424 0.0
H317 H 0.33052 0.21306 0.14744 0.0
H318 H 0.37478 0.19573 0.12572 0.0
H319 H 0.41756 0.12518 0.17289 0.0
H320 H 0.49482 0.03995 0.07976 0.0
H321 H 0.46311 0.06494 0.11207 0.0
H322 H 0.42192 0.1365 0.06541 0.0
C323 C 0.36297 0.18246 0.14201 0.0
C324 C 0.41836 0.12781 0.14943 0.0
C325 C 0.33777 0.1925 0.1545 0.0
C326 C 0.49108 0.06222 0.07508 0.0
C327 C 0.47285 0.07656 0.09356 0.0
C328 C 0.42171 0.13429 0.08894 0.0
C329 C 0.37248 0.15543 0.15006 0.0
C330 C 0.39732 0.14339 0.13448 0.0
C331 C 0.46563 0.10478 0.08696 0.0
C332 C 0.44273 0.11862 0.10375 0.0
H333 H 0.3196 0.13611 0.20049 0.0
H334 H 0.36343 0.1183 0.17845 0.0
H335 H 0.38321 0.15776 0.09172 0.0
H336 H 0.50526 0.1157 0.0248 0.0
H337 H 0.4743 0.1409 0.05722 0.0
C338 C 0.25638 0.8851 0.69747 0.0
C339 C 0.26054 0.85664 0.68906 0.0
C340 C 0.23104 0.89815 0.68819 0.0
C341 C 0.15548 0.88311 0.65313 0.0
H342 H 0.16958 0.96284 0.62767 0.0
C343 C 0.08409 0.93622 0.56628 0.0
C344 C 0.07965 0.96562 0.569 0.0
C345 C 0.10121 0.92267 0.58704 0.0
C346 C 0.16505 0.94077 0.63522 0.0
H347 H 0.24051 0.81933 0.66503 0.0
H348 H 0.19701 0.84248 0.64781 0.0
H349 H 0.20965 0.93956 0.65173 0.0
H350 H 0.08869 0.0037 0.59606 0.0
H351 H 0.11872 0.97997 0.63257 0.0
H352 H 0.11117 0.88413 0.63514 0.0
C353 C 0.21307 0.85456 0.6621 0.0
C354 C 0.18808 0.92735 0.64905 0.0
C355 C 0.23831 0.84139 0.67162 0.0
C356 C 0.09143 0.98091 0.59366 0.0
C357 C 0.10883 0.96741 0.61436 0.0
C358 C 0.13249 0.8965 0.63905 0.0
C359 C 0.2093 0.88327 0.66994 0.0
C360 C 0.1838 0.89817 0.65773 0.0
C361 C 0.11462 0.93836 0.61079 0.0
C362 C 0.13722 0.92532 0.62948 0.0
H363 H 0.27312 0.89774 0.71055 0.0
H364 H 0.22873 0.92011 0.69506 0.0
H365 H 0.15117 0.86081 0.66002 0.0
H366 H 0.0753 0.92397 0.5474 0.0
H367 H 0.10546 0.90037 0.58349 0.0
C368 C 0.82412 0.34334 0.81227 0.0
C369 C 0.80914 0.32094 0.82865 0.0
C370 C 0.84993 0.35903 0.82359 0.0
C371 C 0.91201 0.3533 0.87482 0.0
H372 H 0.91202 0.43555 0.88911 0.0
C373 C 0.98145 0.40963 0.96716 0.0
C374 C 0.99214 0.43886 0.96481 0.0
C375 C 0.96405 0.396 0.94477 0.0
C376 C 0.91285 0.41275 0.88466 0.0
H377 H 0.80919 0.29856 0.87043 0.0
H378 H 0.85462 0.32487 0.88925 0.0
H379 H 0.87173 0.4104 0.85972 0.0
H380 H 0.9929 0.47689 0.93724 0.0
H381 H 0.96339 0.45279 0.89739 0.0
H382 H 0.95273 0.35526 0.89992 0.0
C383 C 0.8465 0.33007 0.8676 0.0
C384 C 0.88969 0.39839 0.8679 0.0
C385 C 0.82052 0.31487 0.85665 0.0
C386 C 0.98562 0.4541 0.93928 0.0
C387 C 0.96833 0.4404 0.91668 0.0
C388 C 0.93533 0.36767 0.89117 0.0
C389 C 0.86146 0.35221 0.85121 0.0
C390 C 0.88856 0.36837 0.8638 0.0
C391 C 0.95686 0.41129 0.91939 0.0
C392 C 0.93542 0.39734 0.89733 0.0
H393 H 0.81619 0.34854 0.79059 0.0
H394 H 0.86112 0.37614 0.81063 0.0
H395 H 0.91173 0.33016 0.87162 0.0
H396 H 0.9859 0.39743 0.98673 0.0
H397 H 0.95516 0.37377 0.948 0.0
C398 C 0.79798 0.65698 0.34297 0.0
C399 C 0.79125 0.68591 0.34017 0.0
C400 C 0.77906 0.63683 0.35816 0.0
C401 C 0.72782 0.63472 0.41814 0.0
H402 H 0.69976 0.55712 0.39264 0.0
C403 C 0.63077 0.54622 0.45604 0.0
C404 C 0.63641 0.54784 0.48633 0.0
C405 C 0.65254 0.55728 0.43657 0.0
C406 C 0.70761 0.57869 0.40001 0.0
H407 H 0.75827 0.71572 0.34946 0.0
H408 H 0.72578 0.68077 0.37657 0.0
H409 H 0.73068 0.58923 0.36023 0.0
H410 H 0.67019 0.55937 0.5198 0.0
H411 H 0.70805 0.57849 0.48588 0.0
H412 H 0.70488 0.62463 0.45767 0.0
C413 C 0.74584 0.67382 0.36721 0.0
C414 C 0.72528 0.59697 0.38156 0.0
C415 C 0.76453 0.69385 0.35181 0.0
C416 C 0.66506 0.55815 0.4966 0.0
C417 C 0.68671 0.56918 0.4772 0.0
C418 C 0.71063 0.61643 0.43662 0.0
C419 C 0.75324 0.64531 0.37107 0.0
C420 C 0.73518 0.62529 0.39038 0.0
C421 C 0.68016 0.57018 0.44713 0.0
C422 C 0.70018 0.5883 0.42775 0.0
H423 H 0.81849 0.65016 0.33452 0.0
H424 H 0.78534 0.61501 0.36098 0.0
H425 H 0.73544 0.65632 0.42561 0.0
H426 H 0.60884 0.53868 0.44744 0.0
H427 H 0.64687 0.55782 0.41349 0.0
C428 C 0.21975 0.30663 0.21949 0.0
C429 C 0.2309 0.28465 0.20294 0.0
C430 C 0.20667 0.32945 0.20579 0.0
C431 C 0.20161 0.3709 0.13802 0.0
H432 H 0.12097 0.38056 0.16163 0.0
C433 C 0.12177 0.43868 0.071 0.0
C434 C 0.09856 0.45038 0.08555 0.0
C435 C 0.14136 0.42193 0.08626 0.0
C436 C 0.14372 0.37886 0.15511 0.0
H437 H 0.23753 0.27024 0.15867 0.0
H438 H 0.21565 0.31067 0.13496 0.0
H439 H 0.14918 0.34541 0.18653 0.0
H440 H 0.07881 0.45576 0.12754 0.0
H441 H 0.11386 0.42828 0.15453 0.0
H442 H 0.19649 0.40474 0.10694 0.0
C443 C 0.21701 0.30999 0.15858 0.0
C444 C 0.1598 0.35844 0.16935 0.0
C445 C 0.22965 0.28686 0.17226 0.0
C446 C 0.09641 0.4467 0.11582 0.0
C447 C 0.11634 0.43061 0.13118 0.0
C448 C 0.18571 0.39182 0.12408 0.0
C449 C 0.20491 0.3312 0.17522 0.0
C450 C 0.18877 0.35404 0.16081 0.0
C451 C 0.13835 0.41693 0.11648 0.0
C452 C 0.15638 0.39596 0.13227 0.0
H453 H 0.22094 0.30621 0.2431 0.0
H454 H 0.19777 0.34571 0.21914 0.0
H455 H 0.22402 0.36801 0.13113 0.0
H456 H 0.12369 0.44103 0.04757 0.0
H457 H 0.15778 0.41173 0.07399 0.0
C458 C 0.7293 0.20647 0.80986 0.0
C459 C 0.74195 0.229 0.82783 0.0
C460 C 0.72095 0.17914 0.82166 0.0
C461 C 0.72662 0.13475 0.88986 0.0
H462 H 0.64881 0.10052 0.86375 0.0
C463 C 0.6404 0.07232 0.96202 0.0
C464 C 0.62111 0.05009 0.94955 0.0
C465 C 0.66298 0.08659 0.94549 0.0
C466 C 0.6709 0.10932 0.87091 0.0
H467 H 0.75588 0.24062 0.87216 0.0
H468 H 0.74064 0.19356 0.89284 0.0
H469 H 0.67305 0.14086 0.83689 0.0
H470 H 0.61067 0.02421 0.9109 0.0
H471 H 0.65018 0.04927 0.88176 0.0
H472 H 0.72316 0.10427 0.9252 0.0
C473 C 0.73799 0.19641 0.8695 0.0
C474 C 0.68488 0.13254 0.85545 0.0
C475 C 0.7466 0.22354 0.85767 0.0
C476 C 0.62576 0.04102 0.92101 0.0
C477 C 0.64815 0.05546 0.90435 0.0
C478 C 0.71243 0.11172 0.90555 0.0
C479 C 0.7247 0.17391 0.85176 0.0
C480 C 0.71248 0.14619 0.86525 0.0
C481 C 0.6661 0.07923 0.91604 0.0
C482 C 0.68404 0.09934 0.89667 0.0
H483 H 0.72573 0.21004 0.78672 0.0
H484 H 0.71118 0.16224 0.80725 0.0
H485 H 0.74822 0.14425 0.89765 0.0
H486 H 0.63668 0.07996 0.98384 0.0
H487 H 0.67623 0.10501 0.95501 0.0
C488 C 0.85736 0.80969 0.32784 0.0
C489 C 0.84735 0.78482 0.34375 0.0
C490 C 0.86651 0.83567 0.3421 0.0
C491 C 0.89227 0.86267 0.41565 0.0
H492 H 0.8934 0.93711 0.37683 0.0
C493 C 0.94895 0.96572 0.46879 0.0
C494 C 0.97375 0.97605 0.45244 0.0
C495 C 0.92633 0.94682 0.4561 0.0
C496 C 0.89284 0.91648 0.38801 0.0
H497 H 0.83812 0.76858 0.3875 0.0
H498 H 0.85165 0.8141 0.41189 0.0
H499 H 0.86622 0.89462 0.3542 0.0
H500 H 0.99343 0.97674 0.40971 0.0
H501 H 0.95343 0.94435 0.38731 0.0
H502 H 0.91876 0.88476 0.44948 0.0
C503 C 0.85372 0.81332 0.38843 0.0
C504 C 0.87761 0.89203 0.37496 0.0
C505 C 0.84532 0.78715 0.37425 0.0
C506 C 0.97449 0.96902 0.42272 0.0
C507 C 0.95158 0.95066 0.4099 0.0
C508 C 0.90683 0.88719 0.42894 0.0
C509 C 0.86524 0.83778 0.37269 0.0
C510 C 0.87787 0.86458 0.38818 0.0
C511 C 0.92794 0.93852 0.42677 0.0
C512 C 0.90793 0.91413 0.4149 0.0
H513 H 0.85862 0.80909 0.30429 0.0
H514 H 0.87551 0.85376 0.32907 0.0
H515 H 0.89367 0.84204 0.4264 0.0
H516 H 0.94804 0.97064 0.49182 0.0
H517 H 0.90829 0.93765 0.46951 0.0
C518 C 0.36064 0.7661 0.61378 0.0
C519 C 0.37688 0.78908 0.6286 0.0
C520 C 0.37547 0.74504 0.59971 0.0
C521 C 0.44871 0.73214 0.56948 0.0
H522 H 0.42224 0.65103 0.5803 0.0
C523 C 0.52501 0.64151 0.55175 0.0
C524 C 0.51276 0.61439 0.5415 0.0
C525 C 0.50673 0.66353 0.55708 0.0
C526 C 0.42961 0.67357 0.57652 0.0
H527 H 0.42124 0.80814 0.64042 0.0
H528 H 0.4472 0.7714 0.61599 0.0
H529 H 0.39344 0.68791 0.60058 0.0
H530 H 0.4717 0.58934 0.52815 0.0
H531 H 0.4397 0.62813 0.5369 0.0
H532 H 0.48512 0.71787 0.54584 0.0
C533 C 0.42303 0.76974 0.61493 0.0
C534 C 0.41314 0.69473 0.58825 0.0
C535 C 0.4082 0.79067 0.6291 0.0
C536 C 0.48188 0.61014 0.53562 0.0
C537 C 0.4635 0.63224 0.54101 0.0
C538 C 0.46511 0.71101 0.55767 0.0
C539 C 0.40686 0.74668 0.60002 0.0
C540 C 0.42285 0.72425 0.5854 0.0
C541 C 0.47566 0.65901 0.55241 0.0
C542 C 0.45615 0.68144 0.56159 0.0
H543 H 0.33646 0.76455 0.61302 0.0
H544 H 0.36238 0.72768 0.58826 0.0
H545 H 0.45645 0.75471 0.56638 0.0
H546 H 0.54871 0.64545 0.55653 0.0
H547 H 0.51688 0.68368 0.56619 0.0
C548 C 0.95657 0.90113 0.81261 0.0
C549 C 0.95096 0.91982 0.83552 0.0
C550 C 0.96965 0.91207 0.78691 0.0
C551 C 0.98047 0.98039 0.74497 0.0
H552 H 0.03477 0.93907 0.69976 0.0
C553 C 0.03184 0.03238 0.64328 0.0
C554 C 0.02855 0.01552 0.61785 0.0
C555 C 0.02812 0.0196 0.67069 0.0
C556 C 0.01957 0.95078 0.71215 0.0
H557 H 0.95599 0.96437 0.85007 0.0
H558 H 0.97929 0.98341 0.80566 0.0
H559 H 0.01677 0.91908 0.74639 0.0
H560 H 0.02072 0.97183 0.60116 0.0
H561 H 0.01412 0.94929 0.64934 0.0
H562 H 0.98303 0.01193 0.71093 0.0
C563 C 0.97284 0.9604 0.80706 0.0
C564 C 0.00917 0.93932 0.73881 0.0
C565 C 0.95954 0.94951 0.83258 0.0
C566 C 0.02367 0.9853 0.62045 0.0
C567 C 0.01981 0.97243 0.64803 0.0
C568 C 0.99097 0.99185 0.71858 0.0
C569 C 0.9776 0.94192 0.78365 0.0
C570 C 0.98946 0.95403 0.75557 0.0
C571 C 0.02069 0.98965 0.67332 0.0
C572 C 0.01067 0.97728 0.70184 0.0
H573 H 0.95 0.87815 0.81418 0.0
H574 H 0.97263 0.89721 0.76928 0.0
H575 H 0.96473 0.99198 0.75676 0.0
H576 H 0.03582 0.05572 0.64191 0.0
H577 H 0.02965 0.03338 0.6898 0.0
C578 C 0.65812 0.16474 0.27618 0.0
C579 C 0.66214 0.14927 0.30217 0.0
C580 C 0.64067 0.15211 0.2531 0.0
C581 C 0.61497 0.07984 0.22472 0.0
H582 H 0.5648 0.121 0.17229 0.0
C583 C 0.55259 0.01895 0.13188 0.0
C584 C 0.55616 0.03163 0.10419 0.0
C585 C 0.55897 0.03536 0.15702 0.0
C586 C 0.57879 0.10929 0.18674 0.0
H587 H 0.64947 0.10932 0.32516 0.0
H588 H 0.61879 0.08743 0.28522 0.0
H589 H 0.58906 0.14597 0.21479 0.0
H590 H 0.56685 0.07182 0.08097 0.0
H591 H 0.57872 0.1006 0.12511 0.0
H592 H 0.60547 0.04345 0.19673 0.0
C593 C 0.62974 0.10898 0.28224 0.0
C594 C 0.59271 0.12357 0.21102 0.0
C595 C 0.6473 0.1215 0.30514 0.0
C596 C 0.56389 0.06156 0.1021 0.0
C597 C 0.57066 0.07801 0.12738 0.0
C598 C 0.60111 0.06565 0.20064 0.0
C599 C 0.62677 0.12382 0.25568 0.0
C600 C 0.61098 0.10895 0.23029 0.0
C601 C 0.56959 0.06473 0.15505 0.0
C602 C 0.58283 0.08012 0.18134 0.0
H603 H 0.66938 0.18618 0.27329 0.0
H604 H 0.63904 0.16405 0.23288 0.0
H605 H 0.62949 0.0681 0.23859 0.0
H606 H 0.54624 0.99598 0.13408 0.0
H607 H 0.55706 0.02466 0.17803 0.0
C608 C 0.45794 0.69442 0.2685 0.0
C609 C 0.43668 0.67754 0.25143 0.0
C610 C 0.46058 0.68949 0.29852 0.0
C611 C 0.4227 0.65229 0.36131 0.0
H612 H 0.50331 0.64241 0.38853 0.0
C613 C 0.45057 0.57161 0.44935 0.0
C614 C 0.47763 0.57572 0.4653 0.0
C615 C 0.44239 0.59253 0.4296 0.0
C616 C 0.48069 0.64582 0.38173 0.0
H617 H 0.40146 0.64254 0.25212 0.0
H618 H 0.40602 0.63378 0.30459 0.0
H619 H 0.49521 0.66293 0.34055 0.0
H620 H 0.51596 0.60618 0.47514 0.0
H621 H 0.50135 0.64314 0.44106 0.0
H622 H 0.40814 0.63408 0.40214 0.0
C623 C 0.42027 0.65119 0.29497 0.0
C624 C 0.47605 0.65751 0.35407 0.0
C625 C 0.41775 0.65604 0.26495 0.0
C626 C 0.49493 0.60241 0.46324 0.0
C627 C 0.48671 0.62344 0.44344 0.0
C628 C 0.42735 0.64071 0.38907 0.0
C629 C 0.44203 0.66756 0.31203 0.0
C630 C 0.44696 0.65991 0.34315 0.0
C631 C 0.46112 0.61809 0.42533 0.0
C632 C 0.45635 0.63633 0.39918 0.0
H633 H 0.47292 0.71102 0.25852 0.0
H634 H 0.47745 0.70253 0.3111 0.0
H635 H 0.40004 0.65438 0.35367 0.0
H636 H 0.43669 0.55128 0.45061 0.0
H637 H 0.42262 0.58752 0.416 0.0
C638 C 0.12516 0.42179 0.71217 0.0
C639 C 0.12995 0.39242 0.71289 0.0
C640 C 0.10778 0.43331 0.73329 0.0
C641 C 0.05873 0.41427 0.79711 0.0
H642 H 0.09505 0.48822 0.82524 0.0
C643 C 0.05281 0.45876 0.91495 0.0
C644 C 0.05298 0.48885 0.91802 0.0
C645 C 0.05306 0.44643 0.88712 0.0
C646 C 0.08417 0.46784 0.81738 0.0
H647 H 0.11975 0.35167 0.73512 0.0
H648 H 0.09053 0.37191 0.77301 0.0
H649 H 0.11296 0.46804 0.78119 0.0
H650 H 0.05093 0.52938 0.89488 0.0
H651 H 0.05107 0.50792 0.84641 0.0
H652 H 0.03112 0.41372 0.83484 0.0
C653 C 0.09925 0.38603 0.75575 0.0
C654 C 0.0944 0.45623 0.79194 0.0
C655 C 0.11612 0.37441 0.7342 0.0
C656 C 0.05105 0.50613 0.89301 0.0
C657 C 0.05118 0.49386 0.86532 0.0
C658 C 0.04868 0.42583 0.82293 0.0
C659 C 0.09559 0.41583 0.75607 0.0
C660 C 0.08212 0.42914 0.78156 0.0
C661 C 0.05365 0.46411 0.8621 0.0
C662 C 0.06154 0.45263 0.83342 0.0
H663 H 0.13549 0.43594 0.69568 0.0
H664 H 0.10478 0.45617 0.73231 0.0
H665 H 0.04848 0.39353 0.7896 0.0
H666 H 0.05451 0.44506 0.93398 0.0
H667 H 0.05508 0.42344 0.88529 0.0
C668 C 0.86814 0.93008 0.93988 0.0
C669 C 0.87113 0.92601 0.90976 0.0
C670 C 0.84257 0.94086 0.9507 0.0
C671 C 0.77412 0.9764 0.92957 0.0
H672 H 0.74183 0.93513 0.99718 0.0
C673 C 0.66403 0.00139 0.98655 0.0
C674 C 0.64537 0.97695 0.9948 0.0
C675 C 0.69255 0.99834 0.97579 0.0
C676 C 0.75047 0.94685 0.97823 0.0
H677 H 0.84999 0.93089 0.8673 0.0
H678 H 0.80512 0.94931 0.88618 0.0
H679 H 0.79006 0.92484 0.97926 0.0
H680 H 0.64156 0.93016 0.99779 0.0
H681 H 0.69084 0.92477 0.97907 0.0
H682 H 0.73367 0.99764 0.92815 0.0
C683 C 0.82276 0.94464 0.90145 0.0
C684 C 0.77839 0.94122 0.96816 0.0
C685 C 0.84846 0.93401 0.89061 0.0
C686 C 0.65554 0.94944 0.99179 0.0
C687 C 0.68385 0.94636 0.98117 0.0
C688 C 0.74606 0.98207 0.93972 0.0
C689 C 0.81921 0.94763 0.93169 0.0
C690 C 0.79046 0.95561 0.94348 0.0
C691 C 0.70292 0.97074 0.97345 0.0
C692 C 0.73369 0.96692 0.96385 0.0
H693 H 0.88547 0.9246 0.95514 0.0
H694 H 0.8409 0.94347 0.97407 0.0
H695 H 0.7829 0.98811 0.91069 0.0
H696 H 0.65711 0.0228 0.98964 0.0
H697 H 0.70683 0.01756 0.97027 0.0
C698 C 0.76292 0.1222 0.36045 0.0
C699 C 0.74278 0.13657 0.3768 0.0
C700 C 0.78346 0.10561 0.37442 0.0
C701 C 0.81935 0.09687 0.44728 0.0
H702 H 0.84863 0.02936 0.41203 0.0
C703 C 0.90285 0.03544 0.50984 0.0
C704 C 0.92985 0.03419 0.49529 0.0
C705 C 0.87689 0.04074 0.49437 0.0
C706 C 0.84054 0.04813 0.42209 0.0
H707 H 0.72715 0.14377 0.42025 0.0
H708 H 0.76204 0.11403 0.44463 0.0
H709 H 0.80887 0.05349 0.38732 0.0
H710 H 0.95029 0.03482 0.4529 0.0
H711 H 0.90464 0.04395 0.42569 0.0
H712 H 0.85078 0.09155 0.482 0.0
C713 C 0.76295 0.11633 0.42115 0.0
C714 C 0.81792 0.0621 0.40791 0.0
C715 C 0.74283 0.1333 0.40723 0.0
C716 C 0.92973 0.0354 0.46464 0.0
C717 C 0.90362 0.04074 0.44908 0.0
C718 C 0.84151 0.08274 0.46154 0.0
C719 C 0.78397 0.1027 0.40502 0.0
C720 C 0.80715 0.08679 0.42028 0.0
C721 C 0.87742 0.04503 0.46404 0.0
C722 C 0.85244 0.0583 0.44912 0.0
H723 H 0.76332 0.12448 0.33692 0.0
H724 H 0.79948 0.0958 0.36125 0.0
H725 H 0.81241 0.11622 0.45719 0.0
H726 H 0.90227 0.03434 0.53345 0.0
H727 H 0.85684 0.04339 0.50637 0.0
C728 C 0.36073 0.6023 0.11406 0.0
C729 C 0.3547 0.61797 0.13906 0.0
C730 C 0.34106 0.57895 0.10472 0.0
C731 C 0.27186 0.5321 0.12375 0.0
H732 H 0.2535 0.54173 0.04152 0.0
C733 C 0.15511 0.50862 0.07095 0.0
C734 C 0.15299 0.50431 0.04068 0.0
C735 C 0.1831 0.51116 0.08513 0.0
C736 C 0.25862 0.53792 0.06433 0.0
H737 H 0.32446 0.62048 0.17491 0.0
H738 H 0.28966 0.58026 0.15824 0.0
H739 H 0.29752 0.56764 0.06272 0.0
H740 H 0.17736 0.49552 0.00203 0.0
H741 H 0.22601 0.49842 0.02689 0.0
H742 H 0.23175 0.50332 0.12535 0.0
C743 C 0.30983 0.58552 0.1461 0.0
C744 C 0.28406 0.55295 0.07657 0.0
C745 C 0.3297 0.60868 0.15562 0.0
C746 C 0.17862 0.49921 0.02539 0.0
C747 C 0.20645 0.5011 0.03961 0.0
C748 C 0.24626 0.51694 0.11142 0.0
C749 C 0.31471 0.57106 0.11995 0.0
C750 C 0.29059 0.55092 0.10658 0.0
C751 C 0.20926 0.50909 0.0692 0.0
C752 C 0.2389 0.52034 0.08168 0.0
H753 H 0.38015 0.60875 0.10119 0.0
H754 H 0.34586 0.56787 0.08485 0.0
H755 H 0.27647 0.52976 0.14689 0.0
H756 H 0.13555 0.51268 0.08312 0.0
H757 H 0.18433 0.5173 0.10793 0.0
C758 C 0.30118 0.40272 0.69989 0.0
C759 C 0.28168 0.37846 0.69218 0.0
C760 C 0.32935 0.40708 0.6875 0.0
C761 C 0.36669 0.39039 0.62062 0.0
H762 H 0.43831 0.42309 0.66149 0.0
C763 C 0.47008 0.42435 0.55577 0.0
C764 C 0.48325 0.45231 0.56188 0.0
C765 C 0.45087 0.40994 0.57559 0.0
C766 C 0.41849 0.41399 0.64978 0.0
H767 H 0.27595 0.33979 0.66567 0.0
H768 H 0.32536 0.34716 0.64414 0.0
H769 H 0.39345 0.40818 0.689 0.0
H770 H 0.48851 0.48636 0.59428 0.0
H771 H 0.45423 0.46162 0.62864 0.0
H772 H 0.39082 0.39724 0.58137 0.0
C773 C 0.31899 0.36278 0.65979 0.0
C774 C 0.39283 0.40545 0.66553 0.0
C775 C 0.29086 0.35844 0.67219 0.0
C776 C 0.47872 0.46474 0.58912 0.0
C777 C 0.4591 0.45049 0.60882 0.0
C778 C 0.39216 0.39901 0.60492 0.0
C779 C 0.33834 0.38741 0.66692 0.0
C780 C 0.36655 0.39393 0.65102 0.0
C781 C 0.44392 0.42346 0.60168 0.0
C782 C 0.41828 0.41129 0.61921 0.0
H783 H 0.29428 0.41868 0.71489 0.0
H784 H 0.34353 0.4265 0.69306 0.0
H785 H 0.34665 0.38213 0.6087 0.0
H786 H 0.47356 0.41416 0.53503 0.0
H787 H 0.44027 0.38878 0.56979 0.0
C788 C 0.91437 0.77608 0.93627 0.0
C789 C 0.93482 0.79836 0.9261 0.0
C790 C 0.92424 0.75319 0.95263 0.0
C791 C 0.98837 0.72968 0.99569 0.0
H792 H 0.95834 0.65304 0.96921 0.0
C793 C 0.05221 0.62922 0.01386 0.0
C794 C 0.03648 0.60167 0.01491 0.0
C795 C 0.03702 0.65395 0.01024 0.0
C796 C 0.96652 0.67418 0.9775 0.0
H797 H 0.98159 0.81406 0.92473 0.0
H798 H 0.99894 0.77414 0.95353 0.0
H799 H 0.93715 0.69514 0.94881 0.0
H800 H 0.99238 0.57858 0.01415 0.0
H801 H 0.96572 0.62181 0.0093 0.0
H802 H 0.01812 0.7087 0.02407 0.0
C803 C 0.97521 0.77464 0.94934 0.0
C804 C 0.9544 0.69838 0.96565 0.0
C805 C 0.96533 0.79744 0.93281 0.0
C806 C 0.00513 0.59952 0.01406 0.0
C807 C 0.98988 0.62431 0.01073 0.0
C808 C 1.00036 0.70542 0.00775 0.0
C809 C 0.9548 0.75204 0.95909 0.0
C810 C 0.96562 0.72643 0.97411 0.0
C811 C 0.00568 0.65175 0.00761 0.0
C812 C 0.99008 0.67735 0.9983 0.0
H813 H 0.89076 0.77606 0.93109 0.0
H814 H 0.90797 0.73619 0.95994 0.0
H815 H 0.99718 0.75101 0.00296 0.0
H816 H 0.0764 0.63156 0.01431 0.0
H817 H 0.05005 0.67456 0.00765 0.0
C818 C 0.39079 0.74476 0.11353 0.0
C819 C 0.39746 0.71634 0.10816 0.0
C820 C 0.39659 0.76637 0.09264 0.0
C821 C 0.40089 0.80655 0.04025 0.0
H822 H 0.48293 0.81349 0.01514 0.0
C823 C 0.49986 0.89328 0.99064 0.0
C824 C 0.49515 0.91597 0.00957 0.0
C825 C 0.48083 0.86766 0.99107 0.0
C826 C 0.45966 0.81164 0.02105 0.0
H827 H 0.41468 0.68801 0.07641 0.0
H828 H 0.42525 0.72603 0.03987 0.0
H829 H 0.46273 0.76935 0.03884 0.0
H830 H 0.46627 0.93107 0.04212 0.0
H831 H 0.4332 0.88664 0.0432 0.0
H832 H 0.39824 0.8494 0.02361 0.0
C833 C 0.4154 0.73148 0.06025 0.0
C834 C 0.44811 0.78627 0.0348 0.0
C835 C 0.40929 0.70975 0.08109 0.0
C836 C 0.46995 0.91384 0.02708 0.0
C837 C 0.45099 0.88835 0.02757 0.0
C838 C 0.41236 0.83186 0.02629 0.0
C839 C 0.40941 0.76009 0.06597 0.0
C840 C 0.41908 0.78401 0.04574 0.0
C841 C 0.4571 0.86438 0.01072 0.0
C842 C 0.44235 0.83525 0.01781 0.0
H843 H 0.38133 0.75036 0.13407 0.0
H844 H 0.39211 0.78827 0.09788 0.0
H845 H 0.37822 0.80515 0.04797 0.0
H846 H 0.51943 0.89454 0.97717 0.0
H847 H 0.48588 0.84978 0.97748 0.0
C848 C 0.13152 0.30342 0.63983 0.0
C849 C 0.15374 0.32548 0.63289 0.0
C850 C 0.12178 0.28234 0.61932 0.0
C851 C 0.14278 0.2452 0.55373 0.0
H852 H 0.05769 0.22271 0.54939 0.0
C853 C 0.04574 0.15376 0.5054 0.0
C854 C 0.05971 0.12913 0.51358 0.0
C855 C 0.06077 0.18122 0.50882 0.0
C856 C 0.08147 0.229 0.54958 0.0
H857 H 0.18338 0.34249 0.59893 0.0
H858 H 0.16648 0.30519 0.56309 0.0
H859 H 0.07636 0.26411 0.57848 0.0
H860 H 0.10109 0.11323 0.52856 0.0
H861 H 0.12707 0.16122 0.53594 0.0
H862 H 0.14783 0.20951 0.52518 0.0
C863 C 0.15671 0.30436 0.5845 0.0
C864 C 0.09219 0.25255 0.56673 0.0
C865 C 0.16639 0.32564 0.60504 0.0
C866 C 0.08994 0.13205 0.52212 0.0
C867 C 0.10481 0.15961 0.52627 0.0
C868 C 0.13201 0.22148 0.53645 0.0
C869 C 0.13407 0.2827 0.59137 0.0
C870 C 0.12296 0.26032 0.56978 0.0
C871 C 0.08965 0.1845 0.52148 0.0
C872 C 0.10124 0.21262 0.53483 0.0
H873 H 0.12182 0.30222 0.66127 0.0
H874 H 0.10476 0.26551 0.62547 0.0
H875 H 0.16665 0.25079 0.55565 0.0
H876 H 0.02247 0.15189 0.49843 0.0
H877 H 0.04881 0.19991 0.50389 0.0
C878 C 0.68695 0.28204 0.41749 0.0
C879 C 0.67688 0.26584 0.39279 0.0
C880 C 0.68122 0.31103 0.41995 0.0
C881 C 0.62647 0.35959 0.39428 0.0
H882 H 0.67948 0.41908 0.43269 0.0
C883 C 0.58236 0.46682 0.41959 0.0
C884 C 0.58721 0.47599 0.44858 0.0
C885 C 0.59986 0.44675 0.40762 0.0
C886 C 0.66442 0.40271 0.42194 0.0
H887 H 0.65419 0.2673 0.3508 0.0
H888 H 0.64435 0.3181 0.35483 0.0
H889 H 0.69752 0.37227 0.42159 0.0
H890 H 0.61589 0.47369 0.48691 0.0
H891 H 0.64595 0.43787 0.46642 0.0
H892 H 0.59299 0.38909 0.3956 0.0
C893 C 0.65632 0.30837 0.37251 0.0
C894 C 0.67475 0.37589 0.41559 0.0
C895 C 0.66203 0.2794 0.37009 0.0
C896 C 0.61175 0.46699 0.46445 0.0
C897 C 0.62897 0.44642 0.45265 0.0
C898 C 0.61615 0.38622 0.40067 0.0
C899 C 0.66527 0.32437 0.39775 0.0
C900 C 0.65572 0.35388 0.40205 0.0
C901 C 0.62212 0.4349 0.42464 0.0
C902 C 0.63481 0.40805 0.41493 0.0
H903 H 0.69848 0.27205 0.43529 0.0
H904 H 0.68814 0.32258 0.43981 0.0
H905 H 0.61098 0.34299 0.3844 0.0
H906 H 0.56376 0.47374 0.40678 0.0
H907 H 0.59463 0.43914 0.38562 0.0
loop_
_geom_bond_atom_site_label_1
_geom_bond_atom_site_label_2
_geom_bond_distance
_geom_bond_site_symmetry_2
_ccdc_geom_bond_type
H0 C7 0.929 . S
H1 C10 0.930 . S
H2 C12 0.929 . S
H3 C4 0.969 . S
C4 H3 0.969 . S
C4 O5 1.550 . S
C4 H6 0.973 . S
O5 C4 1.550 . S
O5 C11 1.412 . S
H6 C4 0.973 . S
C7 H0 0.929 . S
C7 C8 1.400 . S
C7 C9 1.364 . S
C8 C7 1.400 . S
C8 C12 1.377 . S
C9 C7 1.364 . S
C9 C10 1.374 . S
C10 H1 0.930 . S
C10 C9 1.374 . S
C10 C11 1.383 . S
C11 O5 1.412 . S
C11 C10 1.383 . S
C11 C12 1.394 . S
C12 H2 0.929 . S
C12 C8 1.377 . S
C12 C11 1.394 . S
H13 C20 0.929 . S
H14 C23 0.930 . S
H15 C25 0.929 . S
H16 C17 0.969 . S
C17 H16 0.969 . S
C17 O18 1.550 . S
C17 H19 0.973 . S
O18 C17 1.550 . S
O18 C24 1.412 . S
H19 C17 0.973 . S
C20 H13 0.929 . S
C20 C21 1.400 . S
C20 C22 1.364 . S
C21 C20 1.400 . S
C21 C25 1.377 . S
C22 C20 1.364 . S
C22 C23 1.374 . S
C23 H14 0.930 . S
C23 C22 1.374 . S
C23 C24 1.383 . S
C24 O18 1.412 . S
C24 C23 1.383 . S
C24 C25 1.394 . S
C25 H15 0.929 . S
C25 C21 1.377 . S
C25 C24 1.394 . S
H26 C33 0.929 . S
H27 C36 0.930 . S
H28 C38 0.929 . S
H29 C30 0.969 . S
C30 H29 0.969 . S
C30 O31 1.550 . S
C30 H32 0.973 . S
O31 C30 1.550 . S
O31 C37 1.412 . S
H32 C30 0.973 . S
C33 H26 0.929 . S
C33 C34 1.400 . S
C33 C35 1.364 . S
C34 C33 1.400 . S
C34 C38 1.377 . S
C35 C33 1.364 . S
C35 C36 1.374 . S
C36 H27 0.930 . S
C36 C35 1.374 . S
C36 C37 1.383 . S
C37 O31 1.412 . S
C37 C36 1.383 . S
C37 C38 1.394 . S
C38 H28 0.929 . S
C38 C34 1.377 . S
C38 C37 1.394 . S
H39 C46 0.929 . S
H40 C49 0.930 . S
H41 C51 0.929 . S
H42 C43 0.969 . S
C43 H42 0.969 . S
C43 O44 1.550 . S
C43 H45 0.973 . S
O44 C43 1.550 . S
O44 C50 1.412 . S
H45 C43 0.973 . S
C46 H39 0.929 . S
C46 C47 1.400 . S
C46 C48 1.364 . S
C47 C46 1.400 . S
C47 C51 1.377 . S
C48 C46 1.364 . S
C48 C49 1.374 . S
C49 H40 0.930 . S
C49 C48 1.374 . S
C49 C50 1.383 . S
C50 O44 1.412 . S
C50 C49 1.383 . S
C50 C51 1.394 . S
C51 H41 0.929 . S
C51 C47 1.377 . S
C51 C50 1.394 . S
H52 C59 0.929 . S
H53 C62 0.930 . S
H54 C64 0.929 1_455 S
H55 C56 0.969 . S
C56 H55 0.969 . S
C56 O57 1.550 . S
C56 H58 0.973 . S
O57 C56 1.550 . S
O57 C63 1.412 . S
H58 C56 0.973 . S
C59 H52 0.929 . S
C59 C60 1.400 . S
C59 C61 1.364 . S
C60 C59 1.400 . S
C60 C64 1.377 . S
C61 C59 1.364 . S
C61 C62 1.374 . S
C62 H53 0.930 . S
C62 C61 1.374 . S
C62 C63 1.383 . S
C63 O57 1.412 . S
C63 C62 1.383 . S
C63 C64 1.394 . S
C64 H54 0.929 1_655 S
C64 C60 1.377 . S
C64 C63 1.394 . S
H65 C72 0.929 . S
H66 C75 0.930 . S
H67 C77 0.929 . S
H68 C69 0.969 . S
C69 H68 0.969 . S
C69 O70 1.550 . S
C69 H71 0.973 . S
O70 C69 1.550 . S
O70 C76 1.412 . S
H71 C69 0.973 . S
C72 H65 0.929 . S
C72 C73 1.400 . S
C72 C74 1.364 . S
C73 C72 1.400 . S
C73 C77 1.377 . S
C74 C72 1.364 . S
C74 C75 1.374 . S
C75 H66 0.930 . S
C75 C74 1.374 . S
C75 C76 1.383 . S
C76 O70 1.412 . S
C76 C75 1.383 . S
C76 C77 1.394 . S
C77 H67 0.929 . S
C77 C73 1.377 . S
C77 C76 1.394 . S
H78 C85 0.929 . S
H79 C88 0.930 . S
H80 C90 0.929 . S
H81 C82 0.969 . S
C82 H81 0.969 . S
C82 O83 1.550 . S
C82 H84 0.973 . S
O83 C82 1.550 . S
O83 C89 1.412 . S
H84 C82 0.973 . S
C85 H78 0.929 . S
C85 C86 1.400 . S
C85 C87 1.364 . S
C86 C85 1.400 . S
C86 C90 1.377 . S
C87 C85 1.364 . S
C87 C88 1.374 . S
C88 H79 0.930 . S
C88 C87 1.374 . S
C88 C89 1.383 . S
C89 O83 1.412 . S
C89 C88 1.383 . S
C89 C90 1.394 . S
C90 H80 0.929 . S
C90 C86 1.377 . S
C90 C89 1.394 . S
H91 C98 0.929 . S
H92 C101 0.930 . S
H93 C103 0.929 . S
H94 C95 0.969 . S
C95 H94 0.969 . S
C95 O96 1.550 . S
C95 H97 0.973 . S
O96 C95 1.550 . S
O96 C102 1.412 . S
H97 C95 0.973 . S
C98 H91 0.929 . S
C98 C99 1.400 . S
C98 C100 1.364 . S
C99 C98 1.400 . S
C99 C103 1.377 . S
C100 C98 1.364 . S
C100 C101 1.374 . S
C101 H92 0.930 . S
C101 C100 1.374 . S
C101 C102 1.383 . S
C102 O96 1.412 . S
C102 C101 1.383 . S
C102 C103 1.394 . S
C103 H93 0.929 . S
C103 C99 1.377 . S
C103 C102 1.394 . S
Zn104 O110 1.920 . S
Zn104 O116 1.898 . S
Zn104 O119 1.905 . S
Zn105 O113 1.905 1_565 S
Zn105 O114 1.898 . S
Zn105 O122 1.920 . S
Zn106 O109 2.080 1_455 S
Zn106 O112 2.114 . S
Zn106 O115 2.120 1_445 S
Zn106 O117 2.120 . S
Zn106 O118 2.114 1_455 S
Zn106 O121 2.080 . S
C107 O112 1.166 . S
C107 O113 1.182 . S
C108 O114 1.167 1_655 S
C108 O115 1.299 . S
O109 Zn106 2.080 1_655 S
O109 C123 1.305 . S
O110 Zn104 1.920 . S
O110 C123 1.234 . S
C111 O116 1.167 1_455 S
C111 O117 1.299 . S
O112 Zn106 2.114 . S
O112 C107 1.166 . S
O113 Zn105 1.905 1_545 S
O113 C107 1.182 . S
O114 Zn105 1.898 . S
O114 C108 1.167 1_455 S
O115 Zn106 2.120 1_665 S
O115 C108 1.299 . S
O116 Zn104 1.898 . S
O116 C111 1.167 1_655 S
O117 Zn106 2.120 . S
O117 C111 1.299 . S
O118 Zn106 2.114 1_655 S
O118 C120 1.166 . S
O119 Zn104 1.905 . S
O119 C120 1.182 . S
C120 O118 1.166 . S
C120 O119 1.182 . S
O121 Zn106 2.080 . S
O121 C124 1.305 . S
O122 Zn105 1.920 . S
O122 C124 1.234 1_565 S
C123 O109 1.305 . S
C123 O110 1.234 . S
C124 O121 1.305 . S
C124 O122 1.234 1_545 S
Zn125 O131 1.920 1_556 S
Zn125 O137 1.898 . S
Zn125 O140 1.905 . S
Zn126 O134 1.905 . S
Zn126 O135 1.898 . S
Zn126 O143 1.920 . S
Zn127 O130 2.080 . S
Zn127 O133 2.114 1_545 S
Zn127 O136 2.120 1_545 S
Zn127 O138 2.120 . S
Zn127 O139 2.114 1_544 S
Zn127 O142 2.080 . S
C128 O133 1.166 . S
C128 O134 1.182 . S
C129 O135 1.167 . S
C129 O136 1.299 . S
O130 Zn127 2.080 . S
O130 C144 1.305 . S
O131 Zn125 1.920 1_554 S
O131 C144 1.234 . S
C132 O137 1.167 . S
C132 O138 1.299 1_556 S
O133 Zn127 2.114 1_565 S
O133 C128 1.166 . S
O134 Zn126 1.905 . S
O134 C128 1.182 . S
O135 Zn126 1.898 . S
O135 C129 1.167 . S
O136 Zn127 2.120 1_565 S
O136 C129 1.299 . S
O137 Zn125 1.898 . S
O137 C132 1.167 . S
O138 Zn127 2.120 . S
O138 C132 1.299 1_554 S
O139 Zn127 2.114 1_566 S
O139 C141 1.166 . S
O140 Zn125 1.905 . S
O140 C141 1.182 1_545 S
C141 O139 1.166 . S
C141 O140 1.182 1_565 S
O142 Zn127 2.080 . S
O142 C145 1.305 . S
O143 Zn126 1.920 . S
O143 C145 1.234 1_565 S
C144 O130 1.305 . S
C144 O131 1.234 . S
C145 O142 1.305 . S
C145 O143 1.234 1_545 S
Zn146 O152 1.920 . S
Zn146 O158 1.898 . S
Zn146 O161 1.905 . S
Zn147 O155 1.905 . S
Zn147 O156 1.898 . S
Zn147 O164 1.920 . S
Zn148 O151 2.080 . S
Zn148 O154 2.114 . S
Zn148 O157 2.120 . S
Zn148 O159 2.120 . S
Zn148 O160 2.114 . S
Zn148 O163 2.080 . S
C149 O154 1.166 . S
C149 O155 1.182 . S
C150 O156 1.167 . S
C150 O157 1.299 . S
O151 Zn148 2.080 . S
O151 C165 1.305 . S
O152 Zn146 1.920 . S
O152 C165 1.234 . S
C153 O158 1.167 . S
C153 O159 1.299 . S
O154 Zn148 2.114 . S
O154 C149 1.166 . S
O155 Zn147 1.905 . S
O155 C149 1.182 . S
O156 Zn147 1.898 . S
O156 C150 1.167 . S
O157 Zn148 2.120 . S
O157 C150 1.299 . S
O158 Zn146 1.898 . S
O158 C153 1.167 . S
O159 Zn148 2.120 . S
O159 C153 1.299 . S
O160 Zn148 2.114 . S
O160 C162 1.166 . S
O161 Zn146 1.905 . S
O161 C162 1.182 . S
C162 O160 1.166 . S
C162 O161 1.182 . S
O163 Zn148 2.080 . S
O163 C166 1.305 . S
O164 Zn147 1.920 . S
O164 C166 1.234 . S
C165 O151 1.305 . S
C165 O152 1.234 . S
C166 O163 1.305 . S
C166 O164 1.234 . S
Zn167 O173 1.920 . S
Zn167 O179 1.898 . S
Zn167 O182 1.905 . S
Zn168 O176 1.905 . S
Zn168 O177 1.898 1_455 S
Zn168 O185 1.928 . S
Zn169 O172 2.080 1_554 S
Zn169 O175 2.114 . S
Zn169 O178 2.120 1_554 S
Zn169 O180 2.120 . S
Zn169 O181 2.114 1_554 S
Zn169 O184 2.080 . S
C170 O175 1.166 . S
C170 O176 1.182 . S
C171 O177 1.167 1_556 S
C171 O178 1.299 1_655 S
O172 Zn169 2.080 1_556 S
O172 C186 1.305 . S
O173 Zn167 1.920 . S
O173 C186 1.234 . S
C174 O179 1.167 1_554 S
C174 O180 1.299 . S
O175 Zn169 2.114 . S
O175 C170 1.166 . S
O176 Zn168 1.905 . S
O176 C170 1.182 . S
O177 Zn168 1.898 1_655 S
O177 C171 1.167 1_554 S
O178 Zn169 2.120 1_556 S
O178 C171 1.299 1_455 S
O179 Zn167 1.898 . S
O179 C174 1.167 1_556 S
O180 Zn169 2.120 . S
O180 C174 1.299 . S
O181 Zn169 2.114 1_556 S
O181 C183 1.166 . S
O182 Zn167 1.905 . S
O182 C183 1.182 . S
C183 O181 1.166 . S
C183 O182 1.182 . S
O184 Zn169 2.080 . S
O184 C187 1.305 . S
O185 Zn168 1.928 . S
O185 C187 1.252 . S
C186 O172 1.305 . S
C186 O173 1.234 . S
C187 O184 1.305 . S
C187 O185 1.252 . S
C188 C189 1.349 . S
C188 C190 1.327 . S
C188 H213 0.950 . S
C189 C188 1.349 . S
C189 C205 1.349 . S
C190 C188 1.327 . S
C190 C209 1.429 . S
C190 H214 0.950 . S
C191 C208 1.574 . S
C191 C210 1.368 . S
C191 H215 0.949 . S
H192 C196 0.949 . S
C193 C194 1.349 . S
C193 C195 1.327 . S
C193 H216 0.950 . S
C194 C193 1.349 . S
C194 C206 1.349 . S
C195 C193 1.327 . S
C195 C211 1.429 . S
C195 H217 0.950 . S
C196 H192 0.949 . S
C196 C204 1.574 . S
C196 C212 1.368 . S
H197 C205 0.950 . S
H198 C203 0.950 . S
H199 C204 0.949 . S
H200 C206 0.950 . S
H201 C207 0.950 . S
H202 C208 0.949 . S
C203 H198 0.950 . S
C203 C205 1.327 . S
C203 C209 1.429 . S
C204 C196 1.574 . S
C204 H199 0.949 . S
C204 C210 1.368 . S
C205 C189 1.349 . S
C205 H197 0.950 . S
C205 C203 1.327 . S
C206 C194 1.349 . S
C206 H200 0.950 . S
C206 C207 1.327 . S
C207 H201 0.950 . S
C207 C206 1.327 . S
C207 C211 1.429 . S
C208 C191 1.574 . S
C208 H202 0.949 . S
C208 C212 1.368 . S
C209 C190 1.429 . S
C209 C203 1.429 . S
C209 C210 1.523 . S
C210 C191 1.368 . S
C210 C204 1.368 . S
C210 C209 1.523 . S
C211 C195 1.429 . S
C211 C207 1.429 . S
C211 C212 1.523 . S
C212 C196 1.368 . S
C212 C208 1.368 . S
C212 C211 1.523 . S
H213 C188 0.950 . S
H214 C190 0.950 . S
H215 C191 0.949 . S
H216 C193 0.950 . S
H217 C195 0.950 . S
C218 C219 1.349 . S
C218 C220 1.327 . S
C218 H243 0.950 . S
C219 C218 1.349 . S
C219 C235 1.349 . S
C220 C218 1.327 . S
C220 C239 1.429 . S
C220 H244 0.950 . S
C221 C238 1.574 . S
C221 C240 1.368 . S
C221 H245 0.949 . S
H222 C226 0.949 . S
C223 C224 1.349 . S
C223 C225 1.327 . S
C223 H246 0.950 . S
C224 C223 1.349 . S
C224 C236 1.349 . S
C225 C223 1.327 . S
C225 C241 1.429 . S
C225 H247 0.950 . S
C226 H222 0.949 . S
C226 C234 1.574 . S
C226 C242 1.368 . S
H227 C235 0.950 . S
H228 C233 0.950 . S
H229 C234 0.949 . S
H230 C236 0.950 1_545 S
H231 C237 0.950 . S
H232 C238 0.949 . S
C233 H228 0.950 . S
C233 C235 1.327 . S
C233 C239 1.429 . S
C234 C226 1.574 . S
C234 H229 0.949 . S
C234 C240 1.368 . S
C235 C219 1.349 . S
C235 H227 0.950 . S
C235 C233 1.327 . S
C236 C224 1.349 . S
C236 H230 0.950 1_565 S
C236 C237 1.327 . S
C237 H231 0.950 . S
C237 C236 1.327 . S
C237 C241 1.429 . S
C238 C221 1.574 . S
C238 H232 0.949 . S
C238 C242 1.368 . S
C239 C220 1.429 . S
C239 C233 1.429 . S
C239 C240 1.523 . S
C240 C221 1.368 . S
C240 C234 1.368 . S
C240 C239 1.523 . S
C241 C225 1.429 . S
C241 C237 1.429 . S
C241 C242 1.523 . S
C242 C226 1.368 . S
C242 C238 1.368 . S
C242 C241 1.523 . S
H243 C218 0.950 . S
H244 C220 0.950 . S
H245 C221 0.949 . S
H246 C223 0.950 . S
H247 C225 0.950 . S
C248 C249 1.349 . S
C248 C250 1.327 . S
C248 H273 0.950 . S
C249 C248 1.349 . S
C249 C265 1.349 . S
C250 C248 1.327 . S
C250 C269 1.429 . S
C250 H274 0.950 . S
C251 C268 1.574 . S
C251 C270 1.368 . S
C251 H275 0.949 . S
H252 C256 0.949 . S
C253 C254 1.349 . S
C253 C255 1.327 . S
C253 H276 0.950 . S
C254 C253 1.349 . S
C254 C266 1.349 . S
C255 C253 1.327 . S
C255 C271 1.429 . S
C255 H277 0.950 . S
C256 H252 0.949 . S
C256 C264 1.574 . S
C256 C272 1.368 . S
H257 C265 0.950 . S
H258 C263 0.950 . S
H259 C264 0.949 . S
H260 C266 0.950 . S
H261 C267 0.950 . S
H262 C268 0.949 . S
C263 H258 0.950 . S
C263 C265 1.327 . S
C263 C269 1.429 . S
C264 C256 1.574 . S
C264 H259 0.949 . S
C264 C270 1.368 . S
C265 C249 1.349 . S
C265 H257 0.950 . S
C265 C263 1.327 . S
C266 C254 1.349 . S
C266 H260 0.950 . S
C266 C267 1.327 . S
C267 H261 0.950 . S
C267 C266 1.327 . S
C267 C271 1.429 . S
C268 C251 1.574 . S
C268 H262 0.949 . S
C268 C272 1.368 . S
C269 C250 1.429 . S
C269 C263 1.429 . S
C269 C270 1.523 . S
C270 C251 1.368 . S
C270 C264 1.368 . S
C270 C269 1.523 . S
C271 C255 1.429 . S
C271 C267 1.429 . S
C271 C272 1.523 . S
C272 C256 1.368 . S
C272 C268 1.368 . S
C272 C271 1.523 . S
H273 C248 0.950 . S
H274 C250 0.950 . S
H275 C251 0.949 . S
H276 C253 0.950 . S
H277 C255 0.950 . S
C278 C279 1.349 . S
C278 C280 1.327 . S
C278 H303 0.950 . S
C279 C278 1.349 . S
C279 C295 1.349 . S
C280 C278 1.327 . S
C280 C299 1.429 . S
C280 H304 0.950 . S
C281 C298 1.574 . S
C281 C300 1.368 . S
C281 H305 0.949 . S
H282 C286 0.968 . S
C283 C284 1.349 1_655 S
C283 C285 1.327 . S
C283 H306 0.950 . S
C284 C283 1.349 1_455 S
C284 C296 1.349 . S
C285 C283 1.327 . S
C285 C301 1.429 . S
C285 H307 0.950 . S
C286 H282 0.968 . S
C286 C294 1.574 . S
C286 C302 1.368 . S
H287 C295 0.950 . S
H288 C293 0.950 . S
H289 C294 0.949 . S
H290 C296 0.950 . S
H291 C297 0.950 . S
H292 C298 0.949 . S
C293 H288 0.950 . S
C293 C295 1.327 . S
C293 C299 1.429 . S
C294 C286 1.574 . S
C294 H289 0.949 . S
C294 C300 1.368 . S
C295 C279 1.349 . S
C295 H287 0.950 . S
C295 C293 1.327 . S
C296 C284 1.349 . S
C296 H290 0.950 . S
C296 C297 1.327 . S
C297 H291 0.950 . S
C297 C296 1.327 . S
C297 C301 1.429 1_455 S
C298 C281 1.574 . S
C298 H292 0.949 . S
C298 C302 1.368 . S
C299 C280 1.429 . S
C299 C293 1.429 . S
C299 C300 1.523 . S
C300 C281 1.368 . S
C300 C294 1.368 . S
C300 C299 1.523 . S
C301 C285 1.429 . S
C301 C297 1.429 1_655 S
C301 C302 1.523 . S
C302 C286 1.368 . S
C302 C298 1.368 . S
C302 C301 1.523 . S
H303 C278 0.950 . S
H304 C280 0.950 . S
H305 C281 0.949 . S
H306 C283 0.950 . S
H307 C285 0.950 . S
C308 C309 1.349 . S
C308 C310 1.327 . S
C308 H333 0.950 . S
C309 C308 1.349 . S
C309 C325 1.349 . S
C310 C308 1.327 . S
C310 C329 1.429 . S
C310 H334 0.950 . S
C311 C328 1.574 . S
C311 C330 1.368 . S
C311 H335 0.949 . S
H312 C316 0.949 . S
C313 C314 1.349 . S
C313 C315 1.327 . S
C313 H336 0.950 . S
C314 C313 1.349 . S
C314 C326 1.349 . S
C315 C313 1.327 . S
C315 C331 1.429 . S
C315 H337 0.950 . S
C316 H312 0.949 . S
C316 C324 1.574 . S
C316 C332 1.368 . S
H317 C325 0.950 . S
H318 C323 0.950 . S
H319 C324 0.949 . S
H320 C326 0.950 . S
H321 C327 0.950 . S
H322 C328 0.949 . S
C323 H318 0.950 . S
C323 C325 1.327 . S
C323 C329 1.429 . S
C324 C316 1.574 . S
C324 H319 0.949 . S
C324 C330 1.368 . S
C325 C309 1.349 . S
C325 H317 0.950 . S
C325 C323 1.327 . S
C326 C314 1.349 . S
C326 H320 0.950 . S
C326 C327 1.327 . S
C327 H321 0.950 . S
C327 C326 1.327 . S
C327 C331 1.429 . S
C328 C311 1.574 . S
C328 H322 0.949 . S
C328 C332 1.368 . S
C329 C310 1.429 . S
C329 C323 1.429 . S
C329 C330 1.523 . S
C330 C311 1.368 . S
C330 C324 1.368 . S
C330 C329 1.523 . S
C331 C315 1.429 . S
C331 C327 1.429 . S
C331 C332 1.523 . S
C332 C316 1.368 . S
C332 C328 1.368 . S
C332 C331 1.523 . S
H333 C308 0.950 . S
H334 C310 0.950 . S
H335 C311 0.949 . S
H336 C313 0.950 . S
H337 C315 0.950 . S
C338 C339 1.349 . S
C338 C340 1.327 . S
C338 H363 0.950 . S
C339 C338 1.349 . S
C339 C355 1.349 . S
C340 C338 1.327 . S
C340 C359 1.429 . S
C340 H364 0.950 . S
C341 C358 1.574 . S
C341 C360 1.368 . S
C341 H365 0.949 . S
H342 C346 0.949 . S
C343 C344 1.349 . S
C343 C345 1.327 . S
C343 H366 0.950 . S
C344 C343 1.349 . S
C344 C356 1.349 1_565 S
C345 C343 1.327 . S
C345 C361 1.429 . S
C345 H367 0.950 . S
C346 H342 0.949 . S
C346 C354 1.574 . S
C346 C362 1.368 . S
H347 C355 0.950 . S
H348 C353 0.950 . S
H349 C354 0.949 . S
H350 C356 0.950 . S
H351 C357 0.950 1_545 S
H352 C358 0.949 . S
C353 H348 0.950 . S
C353 C355 1.327 . S
C353 C359 1.429 . S
C354 C346 1.574 . S
C354 H349 0.949 . S
C354 C360 1.368 . S
C355 C339 1.349 . S
C355 H347 0.950 . S
C355 C353 1.327 . S
C356 C344 1.349 1_545 S
C356 H350 0.950 . S
C356 C357 1.327 1_545 S
C357 H351 0.950 1_565 S
C357 C356 1.327 1_565 S
C357 C361 1.429 . S
C358 C341 1.574 . S
C358 H352 0.949 . S
C358 C362 1.368 . S
C359 C340 1.429 . S
C359 C353 1.429 . S
C359 C360 1.523 . S
C360 C341 1.368 . S
C360 C354 1.368 . S
C360 C359 1.523 . S
C361 C345 1.429 . S
C361 C357 1.429 . S
C361 C362 1.523 . S
C362 C346 1.368 . S
C362 C358 1.368 . S
C362 C361 1.523 . S
H363 C338 0.950 . S
H364 C340 0.950 . S
H365 C341 0.949 . S
H366 C343 0.950 . S
H367 C345 0.950 . S
C368 C369 1.349 . S
C368 C370 1.327 . S
C368 H393 0.950 . S
C369 C368 1.349 . S
C369 C385 1.349 . S
C370 C368 1.327 . S
C370 C389 1.429 . S
C370 H394 0.950 . S
C371 C388 1.574 . S
C371 C390 1.368 . S
C371 H395 0.949 . S
H372 C376 0.949 . S
C373 C374 1.349 . S
C373 C375 1.327 . S
C373 H396 0.950 1_556 S
C374 C373 1.349 . S
C374 C386 1.349 . S
C375 C373 1.327 . S
C375 C391 1.429 . S
C375 H397 0.950 . S
C376 H372 0.949 . S
C376 C384 1.574 . S
C376 C392 1.368 . S
H377 C385 0.950 . S
H378 C383 0.950 . S
H379 C384 0.949 . S
H380 C386 0.950 . S
H381 C387 0.950 . S
H382 C388 0.949 . S
C383 H378 0.950 . S
C383 C385 1.327 . S
C383 C389 1.429 . S
C384 C376 1.574 . S
C384 H379 0.949 . S
C384 C390 1.368 . S
C385 C369 1.349 . S
C385 H377 0.950 . S
C385 C383 1.327 . S
C386 C374 1.349 . S
C386 H380 0.950 . S
C386 C387 1.327 . S
C387 H381 0.950 . S
C387 C386 1.327 . S
C387 C391 1.429 . S
C388 C371 1.574 . S
C388 H382 0.949 . S
C388 C392 1.368 . S
C389 C370 1.429 . S
C389 C383 1.429 . S
C389 C390 1.523 . S
C390 C371 1.368 . S
C390 C384 1.368 . S
C390 C389 1.523 . S
C391 C375 1.429 . S
C391 C387 1.429 . S
C391 C392 1.523 . S
C392 C376 1.368 . S
C392 C388 1.368 . S
C392 C391 1.523 . S
H393 C368 0.950 . S
H394 C370 0.950 . S
H395 C371 0.949 . S
H396 C373 0.950 1_554 S
H397 C375 0.950 . S
C398 C399 1.349 . S
C398 C400 1.327 . S
C398 H423 0.950 . S
C399 C398 1.349 . S
C399 C415 1.349 . S
C400 C398 1.327 . S
C400 C419 1.429 . S
C400 H424 0.950 . S
C401 C418 1.574 . S
C401 C420 1.368 . S
C401 H425 0.949 . S
H402 C406 0.949 . S
C403 C404 1.349 . S
C403 C405 1.327 . S
C403 H426 0.950 . S
C404 C403 1.349 . S
C404 C416 1.349 . S
C405 C403 1.327 . S
C405 C421 1.429 . S
C405 H427 0.950 . S
C406 H402 0.949 . S
C406 C414 1.574 . S
C406 C422 1.368 . S
H407 C415 0.950 . S
H408 C413 0.950 . S
H409 C414 0.949 . S
H410 C416 0.950 . S
H411 C417 0.950 . S
H412 C418 0.949 . S
C413 H408 0.950 . S
C413 C415 1.327 . S
C413 C419 1.429 . S
C414 C406 1.574 . S
C414 H409 0.949 . S
C414 C420 1.368 . S
C415 C399 1.349 . S
C415 H407 0.950 . S
C415 C413 1.327 . S
C416 C404 1.349 . S
C416 H410 0.950 . S
C416 C417 1.327 . S
C417 H411 0.950 . S
C417 C416 1.327 . S
C417 C421 1.429 . S
C418 C401 1.574 . S
C418 H412 0.949 . S
C418 C422 1.368 . S
C419 C400 1.429 . S
C419 C413 1.429 . S
C419 C420 1.523 . S
C420 C401 1.368 . S
C420 C414 1.368 . S
C420 C419 1.523 . S
C421 C405 1.429 . S
C421 C417 1.429 . S
C421 C422 1.523 . S
C422 C406 1.368 . S
C422 C418 1.368 . S
C422 C421 1.523 . S
H423 C398 0.950 . S
H424 C400 0.950 . S
H425 C401 0.949 . S
H426 C403 0.950 . S
H427 C405 0.950 . S
C428 C429 1.349 . S
C428 C430 1.327 . S
C428 H453 0.950 . S
C429 C428 1.349 . S
C429 C445 1.349 . S
C430 C428 1.327 . S
C430 C449 1.429 . S
C430 H454 0.950 . S
C431 C448 1.574 . S
C431 C450 1.368 . S
C431 H455 0.949 . S
H432 C436 0.949 . S
C433 C434 1.349 . S
C433 C435 1.327 . S
C433 H456 0.950 . S
C434 C433 1.349 . S
C434 C446 1.349 . S
C435 C433 1.327 . S
C435 C451 1.429 . S
C435 H457 0.950 . S
C436 H432 0.949 . S
C436 C444 1.574 . S
C436 C452 1.368 . S
H437 C445 0.950 . S
H438 C443 0.950 . S
H439 C444 0.949 . S
H440 C446 0.950 . S
H441 C447 0.950 . S
H442 C448 0.949 . S
C443 H438 0.950 . S
C443 C445 1.327 . S
C443 C449 1.429 . S
C444 C436 1.574 . S
C444 H439 0.949 . S
C444 C450 1.368 . S
C445 C429 1.349 . S
C445 H437 0.950 . S
C445 C443 1.327 . S
C446 C434 1.349 . S
C446 H440 0.950 . S
C446 C447 1.327 . S
C447 H441 0.950 . S
C447 C446 1.327 . S
C447 C451 1.429 . S
C448 C431 1.574 . S
C448 H442 0.949 . S
C448 C452 1.368 . S
C449 C430 1.429 . S
C449 C443 1.429 . S
C449 C450 1.523 . S
C450 C431 1.368 . S
C450 C444 1.368 . S
C450 C449 1.523 . S
C451 C435 1.429 . S
C451 C447 1.429 . S
C451 C452 1.523 . S
C452 C436 1.368 . S
C452 C448 1.368 . S
C452 C451 1.523 . S
H453 C428 0.950 . S
H454 C430 0.950 . S
H455 C431 0.949 . S
H456 C433 0.950 . S
H457 C435 0.950 . S
C458 C459 1.349 . S
C458 C460 1.327 . S
C458 H483 0.950 . S
C459 C458 1.349 . S
C459 C475 1.349 . S
C460 C458 1.327 . S
C460 C479 1.429 . S
C460 H484 0.950 . S
C461 C478 1.574 . S
C461 C480 1.368 . S
C461 H485 0.949 . S
H462 C466 0.949 . S
C463 C464 1.349 . S
C463 C465 1.327 . S
C463 H486 0.918 1_556 S
C464 C463 1.349 . S
C464 C476 1.349 . S
C465 C463 1.327 . S
C465 C481 1.429 . S
C465 H487 0.950 . S
C466 H462 0.949 . S
C466 C474 1.574 . S
C466 C482 1.368 . S
H467 C475 0.950 . S
H468 C473 0.950 . S
H469 C474 0.949 . S
H470 C476 0.950 . S
H471 C477 0.950 . S
H472 C478 0.949 . S
C473 H468 0.950 . S
C473 C475 1.327 . S
C473 C479 1.429 . S
C474 C466 1.574 . S
C474 H469 0.949 . S
C474 C480 1.368 . S
C475 C459 1.349 . S
C475 H467 0.950 . S
C475 C473 1.327 . S
C476 C464 1.349 . S
C476 H470 0.950 . S
C476 C477 1.327 . S
C477 H471 0.950 . S
C477 C476 1.327 . S
C477 C481 1.429 . S
C478 C461 1.574 . S
C478 H472 0.949 . S
C478 C482 1.368 . S
C479 C460 1.429 . S
C479 C473 1.429 . S
C479 C480 1.523 . S
C480 C461 1.368 . S
C480 C474 1.368 . S
C480 C479 1.523 . S
C481 C465 1.429 . S
C481 C477 1.429 . S
C481 C482 1.523 . S
C482 C466 1.368 . S
C482 C478 1.368 . S
C482 C481 1.523 . S
H483 C458 0.950 . S
H484 C460 0.950 . S
H485 C461 0.949 . S
H486 C463 0.918 1_554 S
H487 C465 0.950 . S
C488 C489 1.349 . S
C488 C490 1.327 . S
C488 H513 0.950 . S
C489 C488 1.349 . S
C489 C505 1.349 . S
C490 C488 1.327 . S
C490 C509 1.429 . S
C490 H514 0.950 . S
C491 C508 1.574 . S
C491 C510 1.368 . S
C491 H515 0.949 . S
H492 C496 0.949 . S
C493 C494 1.349 . S
C493 C495 1.327 . S
C493 H516 0.950 . S
C494 C493 1.349 . S
C494 C506 1.349 . S
C495 C493 1.327 . S
C495 C511 1.429 . S
C495 H517 0.950 . S
C496 H492 0.949 . S
C496 C504 1.574 . S
C496 C512 1.368 . S
H497 C505 0.950 . S
H498 C503 0.950 . S
H499 C504 0.949 . S
H500 C506 0.950 . S
H501 C507 0.950 . S
H502 C508 0.949 . S
C503 H498 0.950 . S
C503 C505 1.327 . S
C503 C509 1.429 . S
C504 C496 1.574 . S
C504 H499 0.949 . S
C504 C510 1.368 . S
C505 C489 1.349 . S
C505 H497 0.950 . S
C505 C503 1.327 . S
C506 C494 1.349 . S
C506 H500 0.950 . S
C506 C507 1.327 . S
C507 H501 0.950 . S
C507 C506 1.327 . S
C507 C511 1.429 . S
C508 C491 1.574 . S
C508 H502 0.949 . S
C508 C512 1.368 . S
C509 C490 1.429 . S
C509 C503 1.429 . S
C509 C510 1.523 . S
C510 C491 1.368 . S
C510 C504 1.368 . S
C510 C509 1.523 . S
C511 C495 1.429 . S
C511 C507 1.429 . S
C511 C512 1.523 . S
C512 C496 1.368 . S
C512 C508 1.368 . S
C512 C511 1.523 . S
H513 C488 0.950 . S
H514 C490 0.950 . S
H515 C491 0.949 . S
H516 C493 0.950 . S
H517 C495 0.950 . S
C518 C519 1.349 . S
C518 C520 1.327 . S
C518 H543 0.950 . S
C519 C518 1.349 . S
C519 C535 1.349 . S
C520 C518 1.327 . S
C520 C539 1.429 . S
C520 H544 0.950 . S
C521 C538 1.574 . S
C521 C540 1.368 . S
C521 H545 0.949 . S
H522 C526 0.949 . S
C523 C524 1.349 . S
C523 C525 1.327 . S
C523 H546 0.950 . S
C524 C523 1.349 . S
C524 C536 1.349 . S
C525 C523 1.327 . S
C525 C541 1.429 . S
C525 H547 0.950 . S
C526 H522 0.949 . S
C526 C534 1.574 . S
C526 C542 1.368 . S
H527 C535 0.950 . S
H528 C533 0.950 . S
H529 C534 0.949 . S
H530 C536 0.950 . S
H531 C537 0.950 . S
H532 C538 0.949 . S
C533 H528 0.950 . S
C533 C535 1.327 . S
C533 C539 1.429 . S
C534 C526 1.574 . S
C534 H529 0.949 . S
C534 C540 1.368 . S
C535 C519 1.349 . S
C535 H527 0.950 . S
C535 C533 1.327 . S
C536 C524 1.349 . S
C536 H530 0.950 . S
C536 C537 1.327 . S
C537 H531 0.950 . S
C537 C536 1.327 . S
C537 C541 1.429 . S
C538 C521 1.574 . S
C538 H532 0.949 . S
C538 C542 1.368 . S
C539 C520 1.429 . S
C539 C533 1.429 . S
C539 C540 1.523 . S
C540 C521 1.368 . S
C540 C534 1.368 . S
C540 C539 1.523 . S
C541 C525 1.429 . S
C541 C537 1.429 . S
C541 C542 1.523 . S
C542 C526 1.368 . S
C542 C538 1.368 . S
C542 C541 1.523 . S
H543 C518 0.950 . S
H544 C520 0.950 . S
H545 C521 0.949 . S
H546 C523 0.950 . S
H547 C525 0.950 . S
C548 C549 1.349 . S
C548 C550 1.327 . S
C548 H573 0.950 . S
C549 C548 1.349 . S
C549 C565 1.349 . S
C550 C548 1.327 . S
C550 C569 1.429 . S
C550 H574 0.950 . S
C551 C568 1.574 . S
C551 C570 1.368 1_545 S
C551 H575 0.949 . S
H552 C556 0.956 . S
C553 C554 1.349 . S
C553 C555 1.327 . S
C553 H576 0.950 . S
C554 C553 1.349 . S
C554 C566 1.349 1_645 S
C555 C553 1.327 . S
C555 C571 1.429 . S
C555 H577 0.950 . S
C556 H552 0.956 . S
C556 C564 1.574 . S
C556 C572 1.368 . S
H557 C565 0.946 1_545 S
H558 C563 0.950 1_545 S
H559 C564 0.949 . S
H560 C566 0.950 . S
H561 C567 0.945 1_455 S
H562 C568 0.949 . S
C563 H558 0.950 1_565 S
C563 C565 1.327 . S
C563 C569 1.429 . S
C564 C556 1.574 . S
C564 H559 0.949 . S
C564 C570 1.368 . S
C565 C549 1.349 . S
C565 H557 0.946 1_565 S
C565 C563 1.327 . S
C566 C554 1.349 1_465 S
C566 H560 0.950 . S
C566 C567 1.326 1_455 S
C567 H561 0.945 1_655 S
C567 C566 1.326 1_655 S
C567 C571 1.435 1_565 S
C568 C551 1.574 . S
C568 H562 0.949 . S
C568 C572 1.368 1_545 S
C569 C550 1.429 . S
C569 C563 1.429 . S
C569 C570 1.523 . S
C570 C551 1.368 1_565 S
C570 C564 1.368 . S
C570 C569 1.523 . S
C571 C555 1.429 . S
C571 C567 1.435 1_545 S
C571 C572 1.523 1_545 S
C572 C556 1.368 . S
C572 C568 1.368 1_565 S
C572 C571 1.523 1_565 S
H573 C548 0.950 . S
H574 C550 0.950 . S
H575 C551 0.949 . S
H576 C553 0.950 . S
H577 C555 0.950 . S
C578 C579 1.349 . S
C578 C580 1.327 . S
C578 H603 0.950 . S
C579 C578 1.349 . S
C579 C595 1.349 . S
C580 C578 1.327 . S
C580 C599 1.429 . S
C580 H604 0.950 . S
C581 C598 1.574 . S
C581 C600 1.368 . S
C581 H605 0.949 . S
H582 C586 0.949 . S
C583 C584 1.349 . S
C583 C585 1.327 . S
C583 H606 0.950 1_545 S
C584 C583 1.349 . S
C584 C596 1.349 . S
C585 C583 1.327 . S
C585 C601 1.429 . S
C585 H607 0.950 . S
C586 H582 0.949 . S
C586 C594 1.574 . S
C586 C602 1.368 . S
H587 C595 0.950 . S
H588 C593 0.950 . S
H589 C594 0.949 . S
H590 C596 0.950 . S
H591 C597 0.950 . S
H592 C598 0.949 . S
C593 H588 0.950 . S
C593 C595 1.327 . S
C593 C599 1.429 . S
C594 C586 1.574 . S
C594 H589 0.949 . S
C594 C600 1.368 . S
C595 C579 1.349 . S
C595 H587 0.950 . S
C595 C593 1.327 . S
C596 C584 1.349 . S
C596 H590 0.950 . S
C596 C597 1.327 . S
C597 H591 0.950 . S
C597 C596 1.327 . S
C597 C601 1.429 . S
C598 C581 1.574 . S
C598 H592 0.949 . S
C598 C602 1.368 . S
C599 C580 1.429 . S
C599 C593 1.429 . S
C599 C600 1.523 . S
C600 C581 1.368 . S
C600 C594 1.368 . S
C600 C599 1.523 . S
C601 C585 1.429 . S
C601 C597 1.429 . S
C601 C602 1.523 . S
C602 C586 1.368 . S
C602 C598 1.368 . S
C602 C601 1.523 . S
H603 C578 0.950 . S
H604 C580 0.950 . S
H605 C581 0.949 . S
H606 C583 0.950 1_565 S
H607 C585 0.950 . S
C608 C609 1.349 . S
C608 C610 1.327 . S
C608 H633 0.950 . S
C609 C608 1.349 . S
C609 C625 1.349 . S
C610 C608 1.327 . S
C610 C629 1.429 . S
C610 H634 0.950 . S
C611 C628 1.574 . S
C611 C630 1.368 . S
C611 H635 0.949 . S
H612 C616 0.949 . S
C613 C614 1.349 . S
C613 C615 1.327 . S
C613 H636 0.950 . S
C614 C613 1.349 . S
C614 C626 1.349 . S
C615 C613 1.327 . S
C615 C631 1.429 . S
C615 H637 0.950 . S
C616 H612 0.949 . S
C616 C624 1.574 . S
C616 C632 1.368 . S
H617 C625 0.950 . S
H618 C623 0.950 . S
H619 C624 0.949 . S
H620 C626 0.950 . S
H621 C627 0.950 . S
H622 C628 0.949 . S
C623 H618 0.950 . S
C623 C625 1.327 . S
C623 C629 1.429 . S
C624 C616 1.574 . S
C624 H619 0.949 . S
C624 C630 1.368 . S
C625 C609 1.349 . S
C625 H617 0.950 . S
C625 C623 1.327 . S
C626 C614 1.349 . S
C626 H620 0.950 . S
C626 C627 1.327 . S
C627 H621 0.950 . S
C627 C626 1.327 . S
C627 C631 1.429 . S
C628 C611 1.574 . S
C628 H622 0.949 . S
C628 C632 1.368 . S
C629 C610 1.429 . S
C629 C623 1.429 . S
C629 C630 1.523 . S
C630 C611 1.368 . S
C630 C624 1.368 . S
C630 C629 1.523 . S
C631 C615 1.429 . S
C631 C627 1.429 . S
C631 C632 1.523 . S
C632 C616 1.368 . S
C632 C628 1.368 . S
C632 C631 1.523 . S
H633 C608 0.950 . S
H634 C610 0.950 . S
H635 C611 0.949 . S
H636 C613 0.950 . S
H637 C615 0.950 . S
C638 C639 1.349 . S
C638 C640 1.327 . S
C638 H663 0.950 . S
C639 C638 1.349 . S
C639 C655 1.349 . S
C640 C638 1.327 . S
C640 C659 1.429 . S
C640 H664 0.950 . S
C641 C658 1.574 . S
C641 C660 1.368 . S
C641 H665 0.949 . S
H642 C646 0.949 . S
C643 C644 1.349 . S
C643 C645 1.327 . S
C643 H666 0.950 . S
C644 C643 1.349 . S
C644 C656 1.349 . S
C645 C643 1.327 . S
C645 C661 1.429 . S
C645 H667 0.950 . S
C646 H642 0.949 . S
C646 C654 1.574 . S
C646 C662 1.368 . S
H647 C655 0.950 . S
H648 C653 0.950 . S
H649 C654 0.949 . S
H650 C656 0.950 . S
H651 C657 0.950 . S
H652 C658 0.949 . S
C653 H648 0.950 . S
C653 C655 1.327 . S
C653 C659 1.429 . S
C654 C646 1.574 . S
C654 H649 0.949 . S
C654 C660 1.368 . S
C655 C639 1.349 . S
C655 H647 0.950 . S
C655 C653 1.327 . S
C656 C644 1.349 . S
C656 H650 0.950 . S
C656 C657 1.327 . S
C657 H651 0.950 . S
C657 C656 1.327 . S
C657 C661 1.429 . S
C658 C641 1.574 . S
C658 H652 0.949 . S
C658 C662 1.368 . S
C659 C640 1.429 . S
C659 C653 1.429 . S
C659 C660 1.523 . S
C660 C641 1.368 . S
C660 C654 1.368 . S
C660 C659 1.523 . S
C661 C645 1.429 . S
C661 C657 1.429 . S
C661 C662 1.523 . S
C662 C646 1.368 . S
C662 C658 1.368 . S
C662 C661 1.523 . S
H663 C638 0.950 . S
H664 C640 0.950 . S
H665 C641 0.949 . S
H666 C643 0.950 . S
H667 C645 0.950 . S
C668 C669 1.349 . S
C668 C670 1.327 . S
C668 H693 0.950 . S
C669 C668 1.349 . S
C669 C685 1.349 . S
C670 C668 1.327 . S
C670 C689 1.429 . S
C670 H694 0.950 1_556 S
C671 C688 1.574 . S
C671 C690 1.368 . S
C671 H695 0.949 . S
H672 C676 0.949 . S
C673 C674 1.349 1_546 S
C673 C675 1.338 . S
C673 H696 0.950 . S
C674 C673 1.349 1_564 S
C674 C686 1.349 . S
C675 C673 1.338 . S
C675 C691 1.407 1_545 S
C675 H697 0.962 . S
C676 H672 0.949 . S
C676 C684 1.574 . S
C676 C692 1.368 1_554 S
H677 C685 0.950 . S
H678 C683 0.950 . S
H679 C684 0.949 . S
H680 C686 0.950 . S
H681 C687 0.950 . S
H682 C688 0.931 1_545 S
C683 H678 0.950 . S
C683 C685 1.327 . S
C683 C689 1.429 . S
C684 C676 1.574 . S
C684 H679 0.949 . S
C684 C690 1.368 1_554 S
C685 C669 1.349 . S
C685 H677 0.950 . S
C685 C683 1.327 . S
C686 C674 1.349 . S
C686 H680 0.950 . S
C686 C687 1.327 . S
C687 H681 0.950 . S
C687 C686 1.327 . S
C687 C691 1.429 1_554 S
C688 C671 1.574 . S
C688 H682 0.931 1_565 S
C688 C692 1.368 . S
C689 C670 1.429 . S
C689 C683 1.429 . S
C689 C690 1.523 . S
C690 C671 1.368 . S
C690 C684 1.368 1_556 S
C690 C689 1.523 . S
C691 C675 1.407 1_565 S
C691 C687 1.429 1_556 S
C691 C692 1.523 . S
C692 C676 1.368 1_556 S
C692 C688 1.368 . S
C692 C691 1.523 . S
H693 C668 0.950 . S
H694 C670 0.950 1_554 S
H695 C671 0.949 . S
H696 C673 0.950 . S
H697 C675 0.962 . S
C698 C699 1.349 . S
C698 C700 1.327 . S
C698 H723 0.950 . S
C699 C698 1.349 . S
C699 C715 1.349 . S
C700 C698 1.327 . S
C700 C719 1.429 . S
C700 H724 0.950 . S
C701 C718 1.574 . S
C701 C720 1.368 . S
C701 H725 0.949 . S
H702 C706 0.949 . S
C703 C704 1.349 . S
C703 C705 1.327 . S
C703 H726 0.950 . S
C704 C703 1.349 . S
C704 C716 1.349 . S
C705 C703 1.327 . S
C705 C721 1.429 . S
C705 H727 0.950 . S
C706 H702 0.949 . S
C706 C714 1.574 . S
C706 C722 1.368 . S
H707 C715 0.950 . S
H708 C713 0.950 . S
H709 C714 0.949 . S
H710 C716 0.950 . S
H711 C717 0.950 . S
H712 C718 0.949 . S
C713 H708 0.950 . S
C713 C715 1.327 . S
C713 C719 1.429 . S
C714 C706 1.574 . S
C714 H709 0.949 . S
C714 C720 1.368 . S
C715 C699 1.349 . S
C715 H707 0.950 . S
C715 C713 1.327 . S
C716 C704 1.349 . S
C716 H710 0.950 . S
C716 C717 1.327 . S
C717 H711 0.950 . S
C717 C716 1.327 . S
C717 C721 1.429 . S
C718 C701 1.574 . S
C718 H712 0.949 . S
C718 C722 1.368 . S
C719 C700 1.429 . S
C719 C713 1.429 . S
C719 C720 1.523 . S
C720 C701 1.368 . S
C720 C714 1.368 . S
C720 C719 1.523 . S
C721 C705 1.429 . S
C721 C717 1.429 . S
C721 C722 1.523 . S
C722 C706 1.368 . S
C722 C718 1.368 . S
C722 C721 1.523 . S
H723 C698 0.950 . S
H724 C700 0.950 . S
H725 C701 0.949 . S
H726 C703 0.950 . S
H727 C705 0.950 . S
C728 C729 1.349 . S
C728 C730 1.327 . S
C728 H753 0.950 . S
C729 C728 1.349 . S
C729 C745 1.349 . S
C730 C728 1.327 . S
C730 C749 1.429 . S
C730 H754 0.950 . S
C731 C748 1.574 . S
C731 C750 1.368 . S
C731 H755 0.949 . S
H732 C736 0.949 . S
C733 C734 1.349 . S
C733 C735 1.327 . S
C733 H756 0.950 . S
C734 C733 1.349 . S
C734 C746 1.349 . S
C735 C733 1.327 . S
C735 C751 1.429 . S
C735 H757 0.950 . S
C736 H732 0.949 . S
C736 C744 1.574 . S
C736 C752 1.368 . S
H737 C745 0.950 . S
H738 C743 0.950 . S
H739 C744 0.949 . S
H740 C746 0.950 1_556 S
H741 C747 0.950 1_556 S
H742 C748 0.949 . S
C743 H738 0.950 . S
C743 C745 1.327 . S
C743 C749 1.429 . S
C744 C736 1.574 . S
C744 H739 0.949 . S
C744 C750 1.368 . S
C745 C729 1.349 . S
C745 H737 0.950 . S
C745 C743 1.327 . S
C746 C734 1.349 . S
C746 H740 0.950 1_554 S
C746 C747 1.327 . S
C747 H741 0.950 1_554 S
C747 C746 1.327 . S
C747 C751 1.429 . S
C748 C731 1.574 . S
C748 H742 0.949 . S
C748 C752 1.368 . S
C749 C730 1.429 . S
C749 C743 1.429 . S
C749 C750 1.523 . S
C750 C731 1.368 . S
C750 C744 1.368 . S
C750 C749 1.523 . S
C751 C735 1.429 . S
C751 C747 1.429 . S
C751 C752 1.523 . S
C752 C736 1.368 . S
C752 C748 1.368 . S
C752 C751 1.523 . S
H753 C728 0.950 . S
H754 C730 0.950 . S
H755 C731 0.949 . S
H756 C733 0.950 . S
H757 C735 0.950 . S
C758 C759 1.349 . S
C758 C760 1.327 . S
C758 H783 0.950 . S
C759 C758 1.349 . S
C759 C775 1.349 . S
C760 C758 1.327 . S
C760 C779 1.429 . S
C760 H784 0.950 . S
C761 C778 1.574 . S
C761 C780 1.368 . S
C761 H785 0.949 . S
H762 C766 0.949 . S
C763 C764 1.349 . S
C763 C765 1.327 . S
C763 H786 0.950 . S
C764 C763 1.349 . S
C764 C776 1.349 . S
C765 C763 1.327 . S
C765 C781 1.429 . S
C765 H787 0.950 . S
C766 H762 0.949 . S
C766 C774 1.574 . S
C766 C782 1.368 . S
H767 C775 0.950 . S
H768 C773 0.950 . S
H769 C774 0.949 . S
H770 C776 0.950 . S
H771 C777 0.950 . S
H772 C778 0.949 . S
C773 H768 0.950 . S
C773 C775 1.327 . S
C773 C779 1.429 . S
C774 C766 1.574 . S
C774 H769 0.949 . S
C774 C780 1.368 . S
C775 C759 1.349 . S
C775 H767 0.950 . S
C775 C773 1.327 . S
C776 C764 1.349 . S
C776 H770 0.950 . S
C776 C777 1.327 . S
C777 H771 0.950 . S
C777 C776 1.327 . S
C777 C781 1.429 . S
C778 C761 1.574 . S
C778 H772 0.949 . S
C778 C782 1.368 . S
C779 C760 1.429 . S
C779 C773 1.429 . S
C779 C780 1.523 . S
C780 C761 1.368 . S
C780 C774 1.368 . S
C780 C779 1.523 . S
C781 C765 1.429 . S
C781 C777 1.429 . S
C781 C782 1.523 . S
C782 C766 1.368 . S
C782 C778 1.368 . S
C782 C781 1.523 . S
H783 C758 0.950 . S
H784 C760 0.950 . S
H785 C761 0.949 . S
H786 C763 0.950 . S
H787 C765 0.950 . S
C788 C789 1.338 1_554 S
C788 C790 1.321 1_655 S
C788 H813 0.967 . S
C789 C788 1.338 1_556 S
C789 C805 1.342 1_655 S
C790 C788 1.321 1_455 S
C790 C809 1.429 1_554 S
C790 H814 0.950 . S
C791 C808 1.574 . S
C791 C810 1.368 . S
C791 H815 0.949 . S
H792 C796 0.949 . S
C793 C794 1.349 . S
C793 C795 1.327 . S
C793 H816 0.950 . S
C794 C793 1.349 . S
C794 C806 1.349 1_556 S
C795 C793 1.327 . S
C795 C811 1.429 . S
C795 H817 0.950 . S
C796 H792 0.949 . S
C796 C804 1.574 . S
C796 C812 1.368 1_554 S
H797 C805 0.950 . S
H798 C803 0.950 . S
H799 C804 0.949 . S
H800 C806 0.950 . S
H801 C807 0.950 . S
H802 C808 0.949 . S
C803 H798 0.950 . S
C803 C805 1.327 . S
C803 C809 1.429 . S
C804 C796 1.574 . S
C804 H799 0.949 . S
C804 C810 1.368 1_554 S
C805 C789 1.342 1_455 S
C805 H797 0.950 . S
C805 C803 1.327 . S
C806 C794 1.349 1_554 S
C806 H800 0.950 . S
C806 C807 1.327 . S
C807 H801 0.950 . S
C807 C806 1.327 . S
C807 C811 1.429 1_554 S
C808 C791 1.574 . S
C808 H802 0.949 . S
C808 C812 1.368 . S
C809 C790 1.429 1_556 S
C809 C803 1.429 . S
C809 C810 1.523 . S
C810 C791 1.368 . S
C810 C804 1.368 1_556 S
C810 C809 1.523 . S
C811 C795 1.429 . S
C811 C807 1.429 1_556 S
C811 C812 1.523 . S
C812 C796 1.368 1_556 S
C812 C808 1.368 . S
C812 C811 1.523 . S
H813 C788 0.967 . S
H814 C790 0.950 . S
H815 C791 0.949 . S
H816 C793 0.950 . S
H817 C795 0.950 . S
C818 C819 1.349 . S
C818 C820 1.327 . S
C818 H843 0.950 . S
C819 C818 1.349 . S
C819 C835 1.349 . S
C820 C818 1.327 . S
C820 C839 1.429 . S
C820 H844 0.950 . S
C821 C838 1.574 . S
C821 C840 1.368 . S
C821 H845 0.949 . S
H822 C826 0.949 . S
C823 C824 1.349 . S
C823 C825 1.327 . S
C823 H846 0.931 1_554 S
C824 C823 1.349 . S
C824 C836 1.349 . S
C825 C823 1.327 . S
C825 C841 1.429 . S
C825 H847 0.950 . S
C826 H822 0.949 . S
C826 C834 1.574 . S
C826 C842 1.368 . S
H827 C835 0.950 . S
H828 C833 0.950 . S
H829 C834 0.949 . S
H830 C836 0.950 . S
H831 C837 0.950 . S
H832 C838 0.949 . S
C833 H828 0.950 . S
C833 C835 1.327 . S
C833 C839 1.429 . S
C834 C826 1.574 . S
C834 H829 0.949 . S
C834 C840 1.368 . S
C835 C819 1.349 . S
C835 H827 0.950 . S
C835 C833 1.327 . S
C836 C824 1.349 . S
C836 H830 0.950 . S
C836 C837 1.327 . S
C837 H831 0.950 . S
C837 C836 1.327 . S
C837 C841 1.429 . S
C838 C821 1.574 . S
C838 H832 0.949 . S
C838 C842 1.368 . S
C839 C820 1.429 . S
C839 C833 1.429 . S
C839 C840 1.523 . S
C840 C821 1.368 . S
C840 C834 1.368 . S
C840 C839 1.523 . S
C841 C825 1.429 . S
C841 C837 1.429 . S
C841 C842 1.523 . S
C842 C826 1.368 . S
C842 C838 1.368 . S
C842 C841 1.523 . S
H843 C818 0.950 . S
H844 C820 0.950 . S
H845 C821 0.949 . S
H846 C823 0.931 1_556 S
H847 C825 0.950 . S
C848 C849 1.349 . S
C848 C850 1.327 . S
C848 H873 0.950 . S
C849 C848 1.349 . S
C849 C865 1.349 . S
C850 C848 1.327 . S
C850 C869 1.429 . S
C850 H874 0.950 . S
C851 C868 1.574 . S
C851 C870 1.368 . S
C851 H875 0.949 . S
H852 C856 0.949 . S
C853 C854 1.349 . S
C853 C855 1.327 . S
C853 H876 0.950 . S
C854 C853 1.349 . S
C854 C866 1.349 . S
C855 C853 1.327 . S
C855 C871 1.429 . S
C855 H877 0.950 . S
C856 H852 0.949 . S
C856 C864 1.574 . S
C856 C872 1.368 . S
H857 C865 0.950 . S
H858 C863 0.950 . S
H859 C864 0.949 . S
H860 C866 0.950 . S
H861 C867 0.950 . S
H862 C868 0.949 . S
C863 H858 0.950 . S
C863 C865 1.327 . S
C863 C869 1.429 . S
C864 C856 1.574 . S
C864 H859 0.949 . S
C864 C870 1.368 . S
C865 C849 1.349 . S
C865 H857 0.950 . S
C865 C863 1.327 . S
C866 C854 1.349 . S
C866 H860 0.950 . S
C866 C867 1.327 . S
C867 H861 0.950 . S
C867 C866 1.327 . S
C867 C871 1.429 . S
C868 C851 1.574 . S
C868 H862 0.949 . S
C868 C872 1.368 . S
C869 C850 1.429 . S
C869 C863 1.429 . S
C869 C870 1.523 . S
C870 C851 1.368 . S
C870 C864 1.368 . S
C870 C869 1.523 . S
C871 C855 1.429 . S
C871 C867 1.429 . S
C871 C872 1.523 . S
C872 C856 1.368 . S
C872 C868 1.368 . S
C872 C871 1.523 . S
H873 C848 0.950 . S
H874 C850 0.950 . S
H875 C851 0.949 . S
H876 C853 0.950 . S
H877 C855 0.950 . S
C878 C879 1.349 . S
C878 C880 1.327 . S
C878 H903 0.950 . S
C879 C878 1.349 . S
C879 C895 1.349 . S
C880 C878 1.327 . S
C880 C899 1.429 . S
C880 H904 0.950 . S
C881 C898 1.574 . S
C881 C900 1.368 . S
C881 H905 0.949 . S
H882 C886 0.949 . S
C883 C884 1.349 . S
C883 C885 1.327 . S
C883 H906 0.950 . S
C884 C883 1.349 . S
C884 C896 1.349 . S
C885 C883 1.327 . S
C885 C901 1.429 . S
C885 H907 0.950 . S
C886 H882 0.949 . S
C886 C894 1.574 . S
C886 C902 1.368 . S
H887 C895 0.950 . S
H888 C893 0.950 . S
H889 C894 0.949 . S
H890 C896 0.950 . S
H891 C897 0.950 . S
H892 C898 0.949 . S
C893 H888 0.950 . S
C893 C895 1.327 . S
C893 C899 1.429 . S
C894 C886 1.574 . S
C894 H889 0.949 . S
C894 C900 1.368 . S
C895 C879 1.349 . S
C895 H887 0.950 . S
C895 C893 1.327 . S
C896 C884 1.349 . S
C896 H890 0.950 . S
C896 C897 1.327 . S
C897 H891 0.950 . S
C897 C896 1.327 . S
C897 C901 1.429 . S
C898 C881 1.574 . S
C898 H892 0.949 . S
C898 C902 1.368 . S
C899 C880 1.429 . S
C899 C893 1.429 . S
C899 C900 1.523 . S
C900 C881 1.368 . S
C900 C894 1.368 . S
C900 C899 1.523 . S
C901 C885 1.429 . S
C901 C897 1.429 . S
C901 C902 1.523 . S
C902 C886 1.368 . S
C902 C898 1.368 . S
C902 C901 1.523 . S
H903 C878 0.950 . S
H904 C880 0.950 . S
H905 C881 0.949 . S
H906 C883 0.950 . S
H907 C885 0.950 . S
C189 C9 2.041 . S
C194 C107 1.878 . S
C219 C21 1.547 . S
C224 C141 1.416 . S
C254 C153 1.124 . S
C249 C30 1.153 . S
C279 C43 1.218 . S
C284 C187 1.202 . S
C314 C144 1.371 . S
C309 C4 1.423 . S
C344 C124 1.939 1_565 S
C339 C22 2.099 . S
C374 C171 1.080 . S
C369 C34 1.147 . S
C404 C162 1.250 . S
C399 C48 1.331 . S
C429 C8 1.650 . S
C434 C170 1.541 . S
C464 C132 1.396 . S
C459 C35 1.521 . S
C489 C47 1.614 . S
C494 C108 1.449 . S
C519 C17 1.330 . S
C524 C165 1.288 . S
C554 C123 1.589 . S
C549 C60 1.670 . S
C579 C74 1.893 . S
C584 C145 1.791 . S
C609 C82 1.078 . S
C614 C150 1.020 . S
C639 C100 1.913 . S
C644 C183 1.806 . S
C669 C61 1.951 . S
C674 C128 1.822 . S
C704 C120 1.603 . S
C699 C73 1.695 . S
C734 C174 1.506 . S
C729 C87 1.650 . S
C764 C166 1.044 . S
C759 C95 1.042 . S
C789 C56 1.616 . S
C794 C186 1.594 . S
C824 C129 1.612 . S
C819 C86 1.718 . S
C854 C111 1.430 . S
C849 C99 1.533 . S
C879 C69 1.492 . S
C884 C149 1.410 . S
