# Generated by pormake.
# Topology pyr, (3,6)-cn, num edge types: 1
# Building blocks:
#     Node 0, Type 0, BuildingBlock: BETDIP_clean_linker_0, # of connection points: 3
#     Node 1, Type 0, BuildingBlock: BETDIP_clean_linker_0, # of connection points: 3
#     Node 2, Type 0, BuildingBlock: BETDIP_clean_linker_0, # of connection points: 3
#     Node 3, Type 0, BuildingBlock: BETDIP_clean_linker_0, # of connection points: 3
#     Node 4, Type 0, BuildingBlock: BETDIP_clean_linker_0, # of connection points: 3
#     Node 5, Type 0, BuildingBlock: BETDIP_clean_linker_0, # of connection points: 3
#     Node 6, Type 0, BuildingBlock: BETDIP_clean_linker_0, # of connection points: 3
#     Node 7, Type 0, BuildingBlock: BETDIP_clean_linker_0, # of connection points: 3
#     Node 8, Type 1, BuildingBlock: BETDEL_clean_sbu_0, # of connection points: 6
#     Node 9, Type 1, BuildingBlock: BETDEL_clean_sbu_0, # of connection points: 6
#     Node 10, Type 1, BuildingBlock: BETDEL_clean_sbu_0, # of connection points: 6
#     Node 11, Type 1, BuildingBlock: BETDEL_clean_sbu_0, # of connection points: 6
#     Edge 12, Type (0, 1), BuildingBlock: UVAHIK_clean_linker_0, # of connection points: 2
#     Edge 13, Type (0, 1), BuildingBlock: UVAHIK_clean_linker_0, # of connection points: 2
#     Edge 14, Type (0, 1), BuildingBlock: UVAHIK_clean_linker_0, # of connection points: 2
#     Edge 15, Type (0, 1), BuildingBlock: UVAHIK_clean_linker_0, # of connection points: 2
#     Edge 16, Type (0, 1), BuildingBlock: UVAHIK_clean_linker_0, # of connection points: 2
#     Edge 17, Type (0, 1), BuildingBlock: UVAHIK_clean_linker_0, # of connection points: 2
#     Edge 18, Type (0, 1), BuildingBlock: UVAHIK_clean_linker_0, # of connection points: 2
#     Edge 19, Type (0, 1), BuildingBlock: UVAHIK_clean_linker_0, # of connection points: 2
#     Edge 20, Type (0, 1), BuildingBlock: UVAHIK_clean_linker_0, # of connection points: 2
#     Edge 21, Type (0, 1), BuildingBlock: UVAHIK_clean_linker_0, # of connection points: 2
#     Edge 22, Type (0, 1), BuildingBlock: UVAHIK_clean_linker_0, # of connection points: 2
#     Edge 23, Type (0, 1), BuildingBlock: UVAHIK_clean_linker_0, # of connection points: 2
#     Edge 24, Type (0, 1), BuildingBlock: UVAHIK_clean_linker_0, # of connection points: 2
#     Edge 25, Type (0, 1), BuildingBlock: UVAHIK_clean_linker_0, # of connection points: 2
#     Edge 26, Type (0, 1), BuildingBlock: UVAHIK_clean_linker_0, # of connection points: 2
#     Edge 27, Type (0, 1), BuildingBlock: UVAHIK_clean_linker_0, # of connection points: 2
#     Edge 28, Type (0, 1), BuildingBlock: UVAHIK_clean_linker_0, # of connection points: 2
#     Edge 29, Type (0, 1), BuildingBlock: UVAHIK_clean_linker_0, # of connection points: 2
#     Edge 30, Type (0, 1), BuildingBlock: UVAHIK_clean_linker_0, # of connection points: 2
#     Edge 31, Type (0, 1), BuildingBlock: UVAHIK_clean_linker_0, # of connection points: 2
#     Edge 32, Type (0, 1), BuildingBlock: UVAHIK_clean_linker_0, # of connection points: 2
#     Edge 33, Type (0, 1), BuildingBlock: UVAHIK_clean_linker_0, # of connection points: 2
#     Edge 34, Type (0, 1), BuildingBlock: UVAHIK_clean_linker_0, # of connection points: 2
#     Edge 35, Type (0, 1), BuildingBlock: UVAHIK_clean_linker_0, # of connection points: 2
# Relax obj value: 0.063
# Max RMSD: 0.183
# Mean RMSD: 0.132
data_MOF--net-pyr--node1-BETDEL_clean_sbu_0--node2-BETDIP_clean_linker_0--edge1-UVAHIK_clean_linker_0
_symmetry_space_group_name_H-M    P1
_symmetry_Int_Tables_number       1
_symmetry_cell_setting            triclinic
loop_
_symmetry_equiv_pos_as_xyz
'x, y, z'
_cell_length_a     46.959742
_cell_length_b     48.090847
_cell_length_c     46.869276
_cell_angle_alpha  94.70367
_cell_angle_beta   85.952759
_cell_angle_gamma 100.83567
loop_
_atom_site_label
_atom_site_type_symbol
_atom_site_fract_x
_atom_site_fract_y
_atom_site_fract_z
_atom_type_partial_charge
H0 H 0.16468 0.20455 0.18197 0.0
H1 H 0.23645 0.20403 0.12005 0.0
H2 H 0.22343 0.14749 0.18859 0.0
H3 H 0.17123 0.25044 0.17186 0.0
C4 C 0.17492 0.24865 0.14869 0.0
C5 C 0.18404 0.19658 0.17408 0.0
C6 C 0.19217 0.17481 0.18795 0.0
C7 C 0.20058 0.20774 0.15009 0.0
C8 C 0.22464 0.1961 0.13931 0.0
C9 C 0.23318 0.17425 0.15296 0.0
C10 C 0.21701 0.1641 0.17761 0.0
N11 N 0.1927 0.22977 0.13567 0.0
H12 H 0.26831 0.84843 0.70487 0.0
H13 H 0.27913 0.79345 0.62921 0.0
H14 H 0.33294 0.79535 0.69981 0.0
H15 H 0.24809 0.81432 0.61041 0.0
C16 C 0.23908 0.82889 0.62578 0.0
C17 C 0.27946 0.83285 0.69322 0.0
C18 C 0.30167 0.82315 0.70591 0.0
C19 C 0.2712 0.82266 0.66557 0.0
C20 C 0.28514 0.80184 0.65046 0.0
C21 C 0.30754 0.79194 0.66279 0.0
C22 C 0.3156 0.80281 0.69039 0.0
N23 N 0.24901 0.83424 0.65405 0.0
H24 H 0.67453 0.39442 0.84225 0.0
H25 H 0.60893 0.31912 0.83737 0.0
H26 H 0.67996 0.32403 0.89158 0.0
H27 H 0.60858 0.33215 0.79088 0.0
C28 C 0.61062 0.35507 0.79375 0.0
C29 C 0.66617 0.37316 0.84868 0.0
C30 C 0.68047 0.36136 0.86881 0.0
C31 C 0.64108 0.35772 0.83643 0.0
C32 C 0.62915 0.33054 0.84554 0.0
C33 C 0.64268 0.31855 0.86615 0.0
C34 C 0.66865 0.33387 0.87699 0.0
N35 N 0.62807 0.37046 0.81552 0.0
H36 H 0.85907 0.58004 0.39476 0.0
H37 H 0.92458 0.65339 0.37886 0.0
H38 H 0.84855 0.66243 0.43238 0.0
H39 H 0.95193 0.62185 0.36128 0.0
C40 C 0.93588 0.6051 0.3517 0.0
C41 C 0.86724 0.60259 0.39846 0.0
C42 C 0.85058 0.61978 0.41535 0.0
C43 C 0.8941 0.61432 0.38554 0.0
C44 C 0.9045 0.64369 0.38966 0.0
C45 C 0.88821 0.66113 0.40666 0.0
C46 C 0.86139 0.64897 0.41957 0.0
N47 N 0.90853 0.59644 0.36633 0.0
H48 H 0.76466 0.79998 0.88268 0.0
H49 H 0.83869 0.80272 0.82282 0.0
H50 H 0.78543 0.86631 0.82428 0.0
H51 H 0.82996 0.75544 0.82794 0.0
C52 C 0.82562 0.75535 0.85101 0.0
C53 C 0.7782 0.80981 0.86521 0.0
C54 C 0.77201 0.83425 0.85444 0.0
C55 C 0.80165 0.79779 0.8534 0.0
C56 C 0.81979 0.81111 0.83139 0.0
C57 C 0.81405 0.83578 0.82068 0.0
C58 C 0.78977 0.84695 0.83198 0.0
N59 N 0.80758 0.77337 0.86521 0.0
H60 H 0.7483 0.17159 0.31206 0.0
H61 H 0.73659 0.22676 0.38715 0.0
H62 H 0.68338 0.22438 0.31581 0.0
H63 H 0.75335 0.19269 0.40885 0.0
C64 C 0.76885 0.18469 0.39354 0.0
C65 C 0.73693 0.18719 0.32336 0.0
C66 C 0.71471 0.19657 0.31031 0.0
C67 C 0.74446 0.19727 0.35122 0.0
C68 C 0.73051 0.21823 0.3659 0.0
C69 C 0.70849 0.22824 0.35307 0.0
C70 C 0.70066 0.21707 0.32547 0.0
N71 N 0.76605 0.18564 0.36363 0.0
H72 H 0.33772 0.63311 0.18215 0.0
H73 H 0.41068 0.70206 0.18039 0.0
H74 H 0.34169 0.69823 0.12362 0.0
H75 H 0.43298 0.66691 0.19684 0.0
C76 C 0.41638 0.65721 0.21216 0.0
C77 C 0.34879 0.65263 0.17326 0.0
C78 C 0.33672 0.66366 0.15104 0.0
C79 C 0.37558 0.66601 0.18366 0.0
C80 C 0.39024 0.69133 0.17214 0.0
C81 C 0.37823 0.70307 0.1502 0.0
C82 C 0.35153 0.68897 0.13987 0.0
N83 N 0.38655 0.65382 0.20632 0.0
H84 H 0.08988 0.36573 0.6426 0.0
H85 H 0.15923 0.43669 0.62919 0.0
H86 H 0.16737 0.35267 0.59401 0.0
H87 H 0.06442 0.39843 0.6604 0.0
C88 C 0.08074 0.41466 0.67031 0.0
C89 C 0.11096 0.37463 0.63315 0.0
C90 C 0.12703 0.35637 0.61722 0.0
C91 C 0.12271 0.40369 0.63771 0.0
C92 C 0.15038 0.41427 0.62566 0.0
C93 C 0.16674 0.39614 0.60966 0.0
C94 C 0.15489 0.36712 0.60578 0.0
N95 N 0.10859 0.42235 0.65629 0.0
Dy96 Dy 0.01846 0.01628 0.47954 0.0
C97 C 0.98438 0.97883 0.59417 0.0
C98 C 0.04064 0.04155 0.43107 0.0
Dy99 Dy 0.99297 1.00098 0.5421 0.0
O100 O 0.0552 0.03979 0.45317 0.0
O101 O 0.01363 0.02927 0.43523 0.0
O102 O 0.04586 0.98289 0.47987 0.0
O103 O 0.03523 0.00463 0.51868 0.0
C104 C 0.04717 0.98459 0.50755 0.0
C105 C 0.95502 0.02345 0.51421 0.0
O106 O 0.02172 0.04281 0.5514 0.0
O107 O 0.0234 0.05805 0.5053 0.0
O108 O 0.98233 0.00464 0.58949 0.0
O109 O 0.99152 0.96524 0.57041 0.0
O110 O 0.94977 0.01555 0.54023 0.0
O111 O 0.97944 0.01813 0.50564 0.0
O112 O 0.98701 0.97668 0.46858 0.0
O113 O 0.98093 0.96055 0.51473 0.0
C114 C 0.02715 0.06305 0.53316 0.0
C115 C 0.97778 0.95658 0.48663 0.0
Dy116 Dy 0.5313 0.02725 0.03059 0.0
C117 C 0.44381 0.95896 0.95337 0.0
C118 C 0.57334 0.06199 0.06057 0.0
Dy119 Dy 0.48569 0.99409 0.98316 0.0
O120 O 0.57306 0.03539 0.05278 0.0
O121 O 0.55079 0.06997 0.05136 0.0
O122 O 0.51767 0.99541 0.06441 0.0
O123 O 0.4985 0.98948 0.02571 0.0
C124 C 0.49879 0.97851 0.04907 0.0
C125 C 0.51848 0.04266 0.96463 0.0
O126 O 0.45786 0.01539 0.01551 0.0
O127 O 0.49294 0.04839 0.03993 0.0
O128 O 0.44465 0.9859 0.95974 0.0
O129 O 0.4657 0.95093 0.96384 0.0
O130 O 0.49958 0.02582 0.94924 0.0
O131 O 0.51852 0.0318 0.98806 0.0
O132 O 0.55921 0.00622 0.99797 0.0
O133 O 0.52418 0.97333 0.97337 0.0
C134 C 0.4657 0.03812 0.03337 0.0
C135 C 0.5514 0.98367 0.97987 0.0
Dy136 Dy 0.52032 0.48473 0.49079 0.0
C137 C 0.46212 0.56914 0.55688 0.0
C138 C 0.5537 0.45071 0.45988 0.0
Dy139 Dy 0.49462 0.53378 0.52675 0.0
O140 O 0.52559 0.44744 0.45978 0.0
O141 O 0.56361 0.47304 0.47628 0.0
O142 O 0.48205 0.45226 0.50471 0.0
O143 O 0.47757 0.49467 0.50241 0.0
C144 C 0.46547 0.47094 0.51097 0.0
C145 C 0.54996 0.54639 0.50689 0.0
O146 O 0.50079 0.50593 0.56159 0.0
O147 O 0.52941 0.47677 0.53531 0.0
O148 O 0.49007 0.57131 0.55783 0.0
O149 O 0.45194 0.54727 0.54005 0.0
O150 O 0.53302 0.56504 0.51038 0.0
O151 O 0.53723 0.52326 0.51618 0.0
O152 O 0.51396 0.51286 0.45621 0.0
O153 O 0.48324 0.5397 0.48244 0.0
C154 C 0.51715 0.48594 0.55985 0.0
C155 C 0.49594 0.53135 0.45786 0.0
Dy156 Dy 0.01033 0.48495 0.01764 0.0
C157 C 0.9886 0.59256 0.99376 0.0
C158 C 0.02713 0.43484 0.02472 0.0
Dy159 Dy 0.00578 0.5429 0.00206 0.0
O160 O 0.00937 0.44658 0.04204 0.0
O161 O 0.03565 0.45036 0.00323 0.0
O162 O 0.97444 0.4865 0.05125 0.0
O163 O 0.00385 0.52387 0.04281 0.0
C164 C 0.9811 0.5137 0.05717 0.0
C165 C 0.0343 0.51348 0.96232 0.0
O166 O 0.04394 0.55563 0.029 0.0
O167 O 0.05454 0.51046 0.02784 0.0
O168 O 0.0102 0.58322 0.97995 0.0
O169 O 0.97661 0.57497 0.01261 0.0
O170 O 0.04121 0.54072 0.96773 0.0
O171 O 0.01171 0.50389 0.97707 0.0
O172 O 0.97054 0.472 0.9929 0.0
O173 O 0.96183 0.51768 0.99093 0.0
C174 C 0.06177 0.53833 0.03349 0.0
C175 C 0.95365 0.48972 0.98709 0.0
C176 C 0.18766 0.15851 0.23769 0.0
C177 C 0.17438 0.1629 0.21294 0.0
C178 C 0.1709 0.14707 0.26116 0.0
C179 C 0.1011 0.1029 0.28093 0.0
H180 H 0.1187 0.1344 0.35787 0.0
C181 C 0.03632 0.0589 0.38286 0.0
C182 C 0.05336 0.0561 0.4055 0.0
C183 C 0.04892 0.07336 0.35903 0.0
C184 C 0.11363 0.12525 0.33652 0.0
H185 H 0.13326 0.15856 0.19315 0.0
H186 H 0.10389 0.13858 0.23432 0.0
H187 H 0.14509 0.15712 0.31679 0.0
H188 H 0.09677 0.06575 0.42106 0.0
H189 H 0.11875 0.09044 0.37955 0.0
H190 H 0.07009 0.07061 0.30072 0.0
C191 C 0.12725 0.14399 0.2355 0.0
C192 C 0.12873 0.13827 0.31303 0.0
C193 C 0.14402 0.15562 0.21209 0.0
C194 C 0.0831 0.06774 0.40394 0.0
C195 C 0.09564 0.08209 0.38025 0.0
C196 C 0.08603 0.08977 0.30448 0.0
C197 C 0.14054 0.13963 0.26027 0.0
C198 C 0.12297 0.12696 0.28503 0.0
C199 C 0.07872 0.08523 0.3576 0.0
C200 C 0.09255 0.10052 0.33253 0.0
H201 H 0.21101 0.16411 0.23896 0.0
H202 H 0.18175 0.14364 0.27986 0.0
H203 H 0.09635 0.09363 0.25955 0.0
H204 H 0.0133 0.05013 0.38367 0.0
H205 H 0.03531 0.07558 0.34195 0.0
C206 C 0.31932 0.81675 0.75405 0.0
C207 C 0.31093 0.83455 0.73504 0.0
C208 C 0.33016 0.82779 0.78046 0.0
C209 C 0.33273 0.88779 0.83452 0.0
H210 H 0.40703 0.87055 0.85103 0.0
C211 C 0.40479 0.95428 0.91907 0.0
C212 C 0.4235 0.94145 0.93355 0.0
C213 C 0.38798 0.93887 0.89766 0.0
C214 C 0.38598 0.87516 0.8472 0.0
H215 H 0.30675 0.87796 0.72951 0.0
H216 H 0.32492 0.89701 0.77599 0.0
H217 H 0.38297 0.84806 0.8085 0.0
H218 H 0.4383 0.90214 0.93812 0.0
H219 H 0.40813 0.87476 0.90137 0.0
H220 H 0.33548 0.91472 0.87324 0.0
C221 C 0.32312 0.87449 0.77028 0.0
C222 C 0.37228 0.86234 0.82269 0.0
C223 C 0.31262 0.86352 0.74367 0.0
C224 C 0.42413 0.91256 0.92716 0.0
C225 C 0.40702 0.89699 0.90592 0.0
C226 C 0.34622 0.90034 0.85927 0.0
C227 C 0.33244 0.85681 0.78871 0.0
C228 C 0.34576 0.86888 0.81585 0.0
C229 C 0.38919 0.91012 0.89042 0.0
C230 C 0.37332 0.8946 0.86569 0.0
H231 H 0.31769 0.79423 0.74847 0.0
H232 H 0.33683 0.81363 0.79443 0.0
H233 H 0.3121 0.89293 0.82993 0.0
H234 H 0.40397 0.97659 0.92347 0.0
H235 H 0.37495 0.94993 0.88602 0.0
C236 C 0.58826 0.35458 0.74698 0.0
C237 C 0.59864 0.36986 0.77208 0.0
C238 C 0.57735 0.36806 0.72594 0.0
C239 C 0.57636 0.43978 0.70108 0.0
H240 H 0.51583 0.39695 0.65444 0.0
C241 C 0.52216 0.48843 0.61327 0.0
C242 C 0.5227 0.47331 0.58631 0.0
C243 C 0.52938 0.47679 0.63772 0.0
C244 C 0.53273 0.40918 0.66731 0.0
H245 H 0.60519 0.41126 0.7952 0.0
H246 H 0.58523 0.4347 0.75899 0.0
H247 H 0.53186 0.3751 0.69405 0.0
H248 H 0.53032 0.43379 0.56406 0.0
H249 H 0.5421 0.41334 0.60666 0.0
H250 H 0.57664 0.47403 0.67432 0.0
C251 C 0.58623 0.4124 0.75504 0.0
C252 C 0.54215 0.3966 0.68994 0.0
C253 C 0.59754 0.39894 0.77594 0.0
C254 C 0.52982 0.44606 0.58447 0.0
C255 C 0.53643 0.43426 0.6089 0.0
C256 C 0.56657 0.45251 0.67868 0.0
C257 C 0.57605 0.39718 0.72963 0.0
C258 C 0.56453 0.41148 0.70684 0.0
C259 C 0.5366 0.44957 0.63574 0.0
C260 C 0.54503 0.43715 0.66124 0.0
H261 H 0.589 0.33217 0.74338 0.0
H262 H 0.57041 0.35561 0.70652 0.0
H263 H 0.59385 0.4519 0.71324 0.0
H264 H 0.51689 0.50951 0.61536 0.0
H265 H 0.52925 0.48901 0.65818 0.0
C266 C 0.92087 0.57262 0.30874 0.0
C267 C 0.94071 0.59488 0.32154 0.0
C268 C 0.92425 0.5647 0.27958 0.0
C269 C 0.95653 0.5922 0.21172 0.0
H270 H 0.94655 0.51269 0.18505 0.0
C271 C 0.98788 0.55262 0.09605 0.0
C272 C 0.97148 0.52726 0.0845 0.0
C273 C 0.98179 0.5627 0.12419 0.0
C274 C 0.94888 0.53499 0.19206 0.0
H275 H 0.97985 0.62592 0.31429 0.0
H276 H 0.98588 0.61198 0.26308 0.0
H277 H 0.94194 0.52583 0.23616 0.0
H278 H 0.93441 0.49387 0.09213 0.0
H279 H 0.92319 0.51187 0.14099 0.0
H280 H 0.96341 0.60135 0.16756 0.0
C281 C 0.9676 0.60087 0.27559 0.0
C282 C 0.9464 0.54248 0.22137 0.0
C283 C 0.96432 0.60867 0.30485 0.0
C284 C 0.9476 0.51329 0.10071 0.0
C285 C 0.94135 0.52348 0.12874 0.0
C286 C 0.95886 0.58469 0.18233 0.0
C287 C 0.94743 0.57897 0.26264 0.0
C288 C 0.95029 0.57115 0.23151 0.0
C289 C 0.95901 0.54772 0.14114 0.0
C290 C 0.95512 0.55598 0.17217 0.0
H291 H 0.90244 0.56157 0.32109 0.0
H292 H 0.90828 0.54787 0.27013 0.0
H293 H 0.95923 0.61447 0.21896 0.0
H294 H 0.0064 0.56383 0.08393 0.0
H295 H 0.99589 0.58136 0.1331 0.0
C296 C 0.25797 0.13231 0.14224 0.0
C297 C 0.25851 0.16159 0.14127 0.0
C298 C 0.28173 0.12035 0.1315 0.0
C299 C 0.34186 0.12821 0.07879 0.0
H300 H 0.37507 0.08052 0.12522 0.0
C301 C 0.41647 0.05062 0.0331 0.0
C302 C 0.44275 0.05297 0.04649 0.0
C303 C 0.39503 0.06529 0.04502 0.0
C304 C 0.36605 0.0939 0.11212 0.0
H305 H 0.28476 0.20118 0.12823 0.0
H306 H 0.32584 0.17986 0.10839 0.0
H307 H 0.33545 0.10389 0.14575 0.0
H308 H 0.46705 0.07215 0.08304 0.0
H309 H 0.42906 0.09723 0.10429 0.0
H310 H 0.37191 0.11756 0.04492 0.0
C311 C 0.30695 0.16641 0.11775 0.0
C312 C 0.34339 0.1071 0.12377 0.0
C313 C 0.28336 0.17851 0.12895 0.0
C314 C 0.44704 0.07001 0.07221 0.0
C315 C 0.42534 0.08426 0.08441 0.0
C316 C 0.36416 0.11458 0.06698 0.0
C317 C 0.30634 0.13727 0.11909 0.0
C318 C 0.33108 0.12428 0.10716 0.0
C319 C 0.39927 0.08215 0.07079 0.0
C320 C 0.37635 0.09726 0.08354 0.0
H321 H 0.239 0.11846 0.15089 0.0
H322 H 0.28066 0.09773 0.13238 0.0
H323 H 0.33255 0.14125 0.06557 0.0
H324 H 0.41263 0.03778 0.01317 0.0
H325 H 0.37497 0.06321 0.03429 0.0
C326 C 0.20499 0.86382 0.63493 0.0
C327 C 0.21701 0.84407 0.61632 0.0
C328 C 0.18453 0.87824 0.62544 0.0
C329 C 0.1327 0.87485 0.56836 0.0
H330 H 0.13831 0.95537 0.58898 0.0
C331 C 0.07525 0.94554 0.50754 0.0
C332 C 0.06322 0.96728 0.52288 0.0
C333 C 0.09168 0.92972 0.52113 0.0
C334 C 0.13613 0.9328 0.58338 0.0
H335 H 0.21705 0.82393 0.57331 0.0
H336 H 0.1816 0.8492 0.5566 0.0
H337 H 0.17169 0.92941 0.60833 0.0
H338 H 0.05842 0.9892 0.56469 0.0
H339 H 0.08726 0.96139 0.58868 0.0
H340 H 0.09745 0.87829 0.54311 0.0
C341 C 0.1876 0.85333 0.57865 0.0
C342 C 0.15531 0.9179 0.59446 0.0
C343 C 0.20806 0.83896 0.58814 0.0
C344 C 0.06754 0.9726 0.55233 0.0
C345 C 0.08416 0.95678 0.56599 0.0
C346 C 0.11357 0.88973 0.5573 0.0
C347 C 0.17558 0.8732 0.59715 0.0
C348 C 0.15411 0.8888 0.58676 0.0
C349 C 0.09657 0.93523 0.55048 0.0
C350 C 0.1153 0.91899 0.56431 0.0
H351 H 0.21137 0.86823 0.65684 0.0
H352 H 0.17552 0.89315 0.64036 0.0
H353 H 0.13071 0.85235 0.56245 0.0
H354 H 0.07229 0.94093 0.48481 0.0
H355 H 0.10119 0.91361 0.50839 0.0
C356 C 0.72841 0.39549 0.86471 0.0
C357 C 0.7078 0.37739 0.88121 0.0
C358 C 0.75442 0.40961 0.87616 0.0
C359 C 0.79099 0.42766 0.9458 0.0
H360 H 0.86084 0.43999 0.89566 0.0
C361 C 0.91071 0.45057 0.98048 0.0
C362 C 0.92528 0.47807 0.97492 0.0
C363 C 0.88379 0.43962 0.96914 0.0
C364 C 0.84141 0.43673 0.9098 0.0
H365 H 0.6984 0.36091 0.92332 0.0
H366 H 0.74413 0.3837 0.94243 0.0
H367 H 0.81458 0.41819 0.87571 0.0
H368 H 0.92333 0.51547 0.95274 0.0
H369 H 0.8766 0.49575 0.93206 0.0
H370 H 0.81856 0.44497 0.98003 0.0
C371 C 0.74006 0.38776 0.92085 0.0
C372 C 0.8148 0.42447 0.89841 0.0
C373 C 0.71386 0.37413 0.90961 0.0
C374 C 0.91254 0.49427 0.95752 0.0
C375 C 0.88593 0.48303 0.94562 0.0
C376 C 0.81771 0.43933 0.95721 0.0
C377 C 0.76082 0.40568 0.90432 0.0
C378 C 0.78915 0.41965 0.91626 0.0
C379 C 0.87132 0.45571 0.9515 0.0
C380 C 0.84307 0.44392 0.9393 0.0
H381 H 0.7248 0.39842 0.84268 0.0
H382 H 0.76948 0.4236 0.86283 0.0
H383 H 0.7718 0.42503 0.96024 0.0
H384 H 0.91994 0.43766 0.99391 0.0
H385 H 0.87281 0.41846 0.97387 0.0
C386 C 0.80153 0.58949 0.40933 0.0
C387 C 0.82099 0.60788 0.42686 0.0
C388 C 0.77266 0.58079 0.41898 0.0
C389 C 0.71725 0.60434 0.46931 0.0
H390 H 0.67402 0.52835 0.45287 0.0
C391 C 0.59889 0.5331 0.50131 0.0
C392 C 0.58079 0.55238 0.49713 0.0
C393 C 0.6283 0.53892 0.49264 0.0
C394 C 0.68586 0.54962 0.45776 0.0
H395 H 0.82592 0.63031 0.46878 0.0
H396 H 0.77546 0.61505 0.48568 0.0
H397 H 0.72591 0.53914 0.43943 0.0
H398 H 0.57895 0.59277 0.48074 0.0
H399 H 0.63051 0.60302 0.46545 0.0
H400 H 0.67735 0.61479 0.48789 0.0
C401 C 0.78242 0.6078 0.46429 0.0
C402 C 0.71549 0.55584 0.44987 0.0
C403 C 0.81128 0.61649 0.45464 0.0
C404 C 0.59253 0.5776 0.4842 0.0
C405 C 0.622 0.58349 0.47558 0.0
C406 C 0.68764 0.59815 0.47712 0.0
C407 C 0.76268 0.59033 0.44634 0.0
C408 C 0.73147 0.58328 0.45554 0.0
C409 C 0.64021 0.56423 0.47981 0.0
C410 C 0.67162 0.57075 0.47137 0.0
H411 H 0.80828 0.5828 0.38767 0.0
H412 H 0.75789 0.56755 0.40456 0.0
H413 H 0.72889 0.62579 0.47363 0.0
H414 H 0.59045 0.51377 0.5118 0.0
H415 H 0.64186 0.52389 0.4966 0.0
C416 C 0.13748 0.27791 0.14447 0.0
C417 C 0.15957 0.26459 0.13126 0.0
C418 C 0.12184 0.29226 0.12834 0.0
C419 C 0.12651 0.33063 0.06449 0.0
H420 H 0.04254 0.31834 0.07538 0.0
C421 C 0.0596 0.3995 0.01207 0.0
C422 C 0.0385 0.40958 0.0307 0.0
C423 C 0.0726 0.37747 0.01964 0.0
C424 C 0.06597 0.32209 0.07216 0.0
H425 H 0.18317 0.25614 0.09095 0.0
H426 H 0.15608 0.28195 0.06274 0.0
H427 H 0.06964 0.28864 0.09835 0.0
H428 H 0.01356 0.4041 0.07119 0.0
H429 H 0.03649 0.36628 0.0847 0.0
H430 H 0.12311 0.36503 0.03957 0.0
C431 C 0.15073 0.28094 0.08554 0.0
C432 C 0.08143 0.30505 0.08524 0.0
C433 C 0.16615 0.26619 0.10165 0.0
C434 C 0.02975 0.39665 0.05641 0.0
C435 C 0.04278 0.3748 0.06404 0.0
C436 C 0.11107 0.34793 0.05164 0.0
C437 C 0.12828 0.29386 0.09874 0.0
C438 C 0.11186 0.30961 0.08208 0.0
C439 C 0.06473 0.36527 0.046 0.0
C440 C 0.08067 0.34431 0.05595 0.0
H441 H 0.13208 0.27695 0.16728 0.0
H442 H 0.10491 0.30242 0.13909 0.0
H443 H 0.15 0.33462 0.06187 0.0
H444 H 0.06661 0.40913 0.99205 0.0
H445 H 0.08916 0.37036 0.00512 0.0
C446 C 0.63059 0.28547 0.906 0.0
C447 C 0.62983 0.29022 0.87683 0.0
C448 C 0.61942 0.2588 0.9161 0.0
C449 C 0.56863 0.1921 0.89884 0.0
H450 H 0.61113 0.16062 0.95246 0.0
C451 C 0.5345 0.07643 0.92697 0.0
C452 C 0.53499 0.07012 0.95562 0.0
C453 C 0.54734 0.1031 0.91807 0.0
C454 C 0.59881 0.16923 0.93778 0.0
H455 H 0.61653 0.27039 0.83547 0.0
H456 H 0.59674 0.22389 0.85316 0.0
H457 H 0.63053 0.20751 0.93537 0.0
H458 H 0.55002 0.08648 0.99736 0.0
H459 H 0.57235 0.13365 0.98193 0.0
H460 H 0.53681 0.15414 0.90133 0.0
C461 C 0.60588 0.24095 0.86825 0.0
C462 C 0.60995 0.1961 0.92793 0.0
C463 C 0.61718 0.26763 0.8581 0.0
C464 C 0.54944 0.0908 0.97513 0.0
C465 C 0.56223 0.11776 0.96623 0.0
C466 C 0.55746 0.16536 0.90874 0.0
C467 C 0.60699 0.23617 0.89736 0.0
C468 C 0.59508 0.20777 0.90818 0.0
C469 C 0.56082 0.12438 0.93765 0.0
C470 C 0.57251 0.15341 0.92812 0.0
H471 H 0.63961 0.30249 0.92119 0.0
H472 H 0.62017 0.25602 0.93872 0.0
H473 H 0.55632 0.20066 0.8841 0.0
H474 H 0.52372 0.06081 0.91137 0.0
H475 H 0.54647 0.10708 0.89577 0.0
C476 C 0.92775 0.70313 0.41606 0.0
C477 C 0.89869 0.69219 0.41023 0.0
C478 C 0.93723 0.73236 0.42075 0.0
C479 C 0.91833 0.80233 0.41153 0.0
H480 H 0.96388 0.82621 0.47801 0.0
C481 C 0.9538 0.90666 0.49405 0.0
C482 C 0.96549 0.92761 0.47509 0.0
C483 C 0.94533 0.87851 0.48385 0.0
C484 C 0.95107 0.81987 0.45944 0.0
H485 H 0.85713 0.70328 0.40338 0.0
H486 H 0.87353 0.75426 0.41217 0.0
H487 H 0.95076 0.77592 0.4636 0.0
H488 H 0.97616 0.93557 0.43032 0.0
H489 H 0.96127 0.88609 0.41248 0.0
H490 H 0.91811 0.84647 0.40795 0.0
C491 C 0.88902 0.74029 0.41295 0.0
C492 C 0.94388 0.79108 0.45097 0.0
C493 C 0.87954 0.71109 0.40831 0.0
C494 C 0.96725 0.91995 0.4455 0.0
C495 C 0.95871 0.89164 0.43526 0.0
C496 C 0.92564 0.83123 0.41999 0.0
C497 C 0.91786 0.75121 0.41962 0.0
C498 C 0.92716 0.78196 0.42713 0.0
C499 C 0.94834 0.87058 0.45446 0.0
C500 C 0.9417 0.84021 0.4443 0.0
H501 H 0.94297 0.68906 0.41772 0.0
H502 H 0.95967 0.74019 0.42555 0.0
H503 H 0.90563 0.79591 0.39291 0.0
H504 H 0.95178 0.91181 0.51695 0.0
H505 H 0.93678 0.86282 0.49908 0.0
C506 C 0.30707 0.74526 0.63396 0.0
C507 C 0.32273 0.7701 0.64738 0.0
C508 C 0.32134 0.72342 0.62237 0.0
C509 C 0.39463 0.70755 0.59962 0.0
H510 H 0.35895 0.63032 0.61482 0.0
C511 C 0.45898 0.61592 0.58333 0.0
C512 C 0.44509 0.59046 0.56955 0.0
C513 C 0.44334 0.63737 0.59261 0.0
C514 C 0.3691 0.65173 0.61016 0.0
H515 H 0.36582 0.79212 0.65776 0.0
H516 H 0.39053 0.7541 0.6381 0.0
H517 H 0.33287 0.669 0.62937 0.0
H518 H 0.40386 0.56707 0.5554 0.0
H519 H 0.37648 0.60446 0.57171 0.0
H520 H 0.43099 0.69033 0.58074 0.0
C521 C 0.36728 0.75136 0.63634 0.0
C522 C 0.35409 0.67392 0.6184 0.0
C523 C 0.35306 0.77309 0.64789 0.0
C524 C 0.4151 0.58648 0.56604 0.0
C525 C 0.39942 0.60787 0.57544 0.0
C526 C 0.40965 0.6854 0.59149 0.0
C527 C 0.35159 0.72602 0.62383 0.0
C528 C 0.36676 0.70217 0.61344 0.0
C529 C 0.41344 0.63377 0.58841 0.0
C530 C 0.39718 0.65724 0.59685 0.0
H531 H 0.28367 0.74227 0.63332 0.0
H532 H 0.30862 0.70437 0.61253 0.0
H533 H 0.40487 0.72894 0.59498 0.0
H534 H 0.48209 0.61955 0.58631 0.0
H535 H 0.45472 0.65687 0.60294 0.0
C536 C 0.86432 0.85463 0.80092 0.0
C537 C 0.83411 0.85054 0.79858 0.0
C538 C 0.88327 0.8691 0.78049 0.0
C539 C 0.88584 0.91996 0.72529 0.0
H540 H 0.95601 0.89285 0.69682 0.0
C541 C 0.96587 0.9819 0.64519 0.0
C542 C 0.97491 0.96559 0.62126 0.0
C543 C 0.95244 0.96875 0.66936 0.0
C544 C 0.93649 0.90065 0.70456 0.0
H545 H 0.80007 0.85791 0.77281 0.0
H546 H 0.83315 0.88304 0.73698 0.0
H547 H 0.92373 0.86734 0.73303 0.0
H548 H 0.9787 0.92309 0.60423 0.0
H549 H 0.95484 0.9 0.64627 0.0
H550 H 0.89792 0.95263 0.69619 0.0
C551 C 0.84218 0.87549 0.75488 0.0
C552 C 0.91813 0.8862 0.72546 0.0
C553 C 0.82324 0.86106 0.77533 0.0
C554 C 0.97189 0.93612 0.62246 0.0
C555 C 0.95833 0.92294 0.64659 0.0
C556 C 0.90414 0.93437 0.70443 0.0
C557 C 0.8724 0.87979 0.75731 0.0
C558 C 0.89246 0.89556 0.73583 0.0
C559 C 0.94767 0.93904 0.66995 0.0
C560 C 0.92956 0.92477 0.69365 0.0
H561 H 0.87332 0.84715 0.81887 0.0
H562 H 0.90641 0.87241 0.78318 0.0
H563 H 0.86644 0.92794 0.73314 0.0
H564 H 0.96815 0.00471 0.64483 0.0
H565 H 0.94501 0.98178 0.68726 0.0
C566 C 0.7044 0.15528 0.27348 0.0
C567 C 0.70524 0.18425 0.28146 0.0
C568 C 0.69362 0.14328 0.24732 0.0
C569 C 0.67151 0.16126 0.17678 0.0
H570 H 0.62672 0.08484 0.17705 0.0
C571 C 0.59154 0.10695 0.09005 0.0
C572 C 0.59352 0.07878 0.08098 0.0
C573 C 0.60821 0.12129 0.11225 0.0
C574 C 0.63939 0.10611 0.17658 0.0
H575 H 0.69653 0.22351 0.26719 0.0
H576 H 0.67626 0.20234 0.22253 0.0
H577 H 0.64965 0.10673 0.22025 0.0
H578 H 0.61531 0.04391 0.08702 0.0
H579 H 0.64401 0.06876 0.12591 0.0
H580 H 0.6599 0.16069 0.13318 0.0
C581 C 0.68446 0.18891 0.2362 0.0
C582 C 0.65274 0.11867 0.20132 0.0
C583 C 0.69568 0.20101 0.26216 0.0
C584 C 0.61328 0.0656 0.09362 0.0
C585 C 0.6296 0.07975 0.11596 0.0
C586 C 0.65771 0.14879 0.15211 0.0
C587 C 0.68289 0.15977 0.22856 0.0
C588 C 0.66912 0.14639 0.2018 0.0
C589 C 0.62679 0.1075 0.12591 0.0
C590 C 0.64165 0.12104 0.15177 0.0
H591 H 0.71128 0.14155 0.28777 0.0
H592 H 0.69344 0.12092 0.24201 0.0
H593 H 0.68424 0.18247 0.17611 0.0
H594 H 0.57644 0.11757 0.08066 0.0
H595 H 0.60559 0.14266 0.1196 0.0
C596 C 0.45411 0.64028 0.23794 0.0
C597 C 0.42529 0.64418 0.23696 0.0
C598 C 0.46274 0.62774 0.26107 0.0
C599 C 0.44472 0.6165 0.337 0.0
H600 H 0.48675 0.55404 0.32463 0.0
C601 C 0.46293 0.55364 0.4311 0.0
C602 C 0.48876 0.54293 0.43137 0.0
C603 C 0.45607 0.56552 0.40685 0.0
C604 C 0.47546 0.57176 0.32857 0.0
H605 H 0.38297 0.63839 0.25967 0.0
H606 H 0.39819 0.61709 0.30034 0.0
H607 H 0.47356 0.57614 0.28353 0.0
H608 H 0.52762 0.53616 0.40615 0.0
H609 H 0.51619 0.55787 0.36394 0.0
H610 H 0.44717 0.61298 0.38182 0.0
C611 C 0.41405 0.6235 0.28308 0.0
C612 C 0.46778 0.58433 0.30495 0.0
C613 C 0.40531 0.63558 0.25973 0.0
C614 C 0.50749 0.54412 0.40657 0.0
C615 C 0.50082 0.55649 0.38232 0.0
C616 C 0.45275 0.60429 0.36057 0.0
C617 C 0.44283 0.61935 0.28398 0.0
C618 C 0.45201 0.6066 0.30893 0.0
C619 C 0.47507 0.56759 0.3822 0.0
C620 C 0.46787 0.58143 0.35678 0.0
H621 H 0.46994 0.64675 0.22068 0.0
H622 H 0.4851 0.62501 0.26128 0.0
H623 H 0.433 0.63395 0.34075 0.0
H624 H 0.44776 0.55269 0.44966 0.0
H625 H 0.43563 0.57294 0.40749 0.0
C626 C 0.09521 0.44704 0.71352 0.0
C627 C 0.07568 0.42467 0.7005 0.0
C628 C 0.09151 0.4548 0.7427 0.0
C629 C 0.03732 0.4478 0.80428 0.0
H630 H 0.1057 0.47026 0.84858 0.0
C631 C 0.02807 0.47218 0.92611 0.0
C632 C 0.04361 0.49887 0.93544 0.0
C633 C 0.03378 0.46032 0.8986 0.0
C634 C 0.08645 0.46404 0.83643 0.0
H635 H 0.0369 0.39312 0.7074 0.0
H636 H 0.03067 0.40622 0.75859 0.0
H637 H 0.11118 0.45556 0.7977 0.0
H638 H 0.0786 0.53319 0.92434 0.0
H639 H 0.08881 0.51231 0.87626 0.0
H640 H 0.01264 0.45619 0.84311 0.0
C641 C 0.04855 0.41814 0.74625 0.0
C642 C 0.08955 0.4558 0.80728 0.0
C643 C 0.05211 0.41057 0.71698 0.0
C644 C 0.06623 0.51264 0.91757 0.0
C645 C 0.07213 0.50065 0.89013 0.0
C646 C 0.03423 0.45577 0.83347 0.0
C647 C 0.06838 0.44019 0.75952 0.0
C648 C 0.06503 0.44791 0.79077 0.0
C649 C 0.05535 0.47481 0.8801 0.0
C650 C 0.05877 0.46424 0.84975 0.0
H651 H 0.11349 0.45844 0.70126 0.0
H652 H 0.10679 0.4723 0.75206 0.0
H653 H 0.01801 0.44228 0.79218 0.0
H654 H 0.01063 0.46102 0.93958 0.0
H655 H 0.02082 0.44018 0.8915 0.0
C656 C 0.74648 0.85526 0.89693 0.0
C657 C 0.74784 0.84745 0.86746 0.0
C658 C 0.72477 0.86953 0.90899 0.0
C659 C 0.67128 0.91147 0.88867 0.0
H660 H 0.64015 0.90022 0.9666 0.0
C661 C 0.57005 0.953 0.94002 0.0
C662 C 0.5743 0.96902 0.96633 0.0
C663 C 0.59137 0.93842 0.92759 0.0
C664 C 0.64882 0.9036 0.94486 0.0
H665 H 0.72738 0.84738 0.82751 0.0
H666 H 0.68853 0.8711 0.84866 0.0
H667 H 0.67595 0.87269 0.94546 0.0
H668 H 0.604 0.98229 0.00034 0.0
H669 H 0.64102 0.9561 0.97881 0.0
H670 H 0.64315 0.94171 0.888 0.0
C671 C 0.70473 0.86722 0.86242 0.0
C672 C 0.66942 0.88798 0.93275 0.0
C673 C 0.72678 0.85343 0.8503 0.0
C674 C 0.60024 0.97023 0.97997 0.0
C675 C 0.6213 0.95517 0.9678 0.0
C676 C 0.65027 0.92667 0.90062 0.0
C677 C 0.70367 0.87583 0.89187 0.0
C678 C 0.68108 0.89184 0.90454 0.0
C679 C 0.61699 0.93917 0.94154 0.0
C680 C 0.63905 0.92297 0.92885 0.0
H681 H 0.76277 0.85111 0.91047 0.0
H682 H 0.72505 0.87625 0.9316 0.0
H683 H 0.68015 0.91551 0.86714 0.0
H684 H 0.5503 0.95179 0.92899 0.0
H685 H 0.58761 0.92611 0.90735 0.0
C686 C 0.78712 0.16222 0.43302 0.0
C687 C 0.78952 0.16859 0.40416 0.0
C688 C 0.80549 0.14597 0.44322 0.0
C689 C 0.87605 0.1232 0.42931 0.0
H690 H 0.84139 0.06245 0.47734 0.0
C691 C 0.94364 0.0466 0.47114 0.0
C692 C 0.93649 0.03862 0.49927 0.0
C693 C 0.92595 0.06156 0.45777 0.0
C694 C 0.85157 0.07953 0.46426 0.0
H695 H 0.81361 0.16354 0.36343 0.0
H696 H 0.84599 0.13539 0.38138 0.0
H697 H 0.81065 0.09097 0.458 0.0
H698 H 0.90548 0.04016 0.53558 0.0
H699 H 0.8752 0.06662 0.51281 0.0
H700 H 0.91709 0.11223 0.43614 0.0
C701 C 0.82978 0.14289 0.39608 0.0
C702 C 0.83387 0.09585 0.45311 0.0
C703 C 0.81114 0.1589 0.38579 0.0
C704 C 0.91143 0.04584 0.51377 0.0
C705 C 0.89392 0.06087 0.50058 0.0
C706 C 0.89386 0.10702 0.44072 0.0
C707 C 0.82694 0.13597 0.42485 0.0
C708 C 0.84589 0.11806 0.43574 0.0
C709 C 0.90081 0.06891 0.47236 0.0
C710 C 0.88189 0.08515 0.45865 0.0
H711 H 0.77071 0.16949 0.44766 0.0
H712 H 0.80299 0.14132 0.46559 0.0
H713 H 0.88599 0.14028 0.41611 0.0
H714 H 0.96284 0.04129 0.45949 0.0
H715 H 0.93184 0.06711 0.43593 0.0
C716 C 0.28521 0.63727 0.15763 0.0
C717 C 0.30869 0.64897 0.13935 0.0
C718 C 0.25863 0.62437 0.1465 0.0
C719 C 0.21566 0.62299 0.08313 0.0
H720 H 0.17062 0.55408 0.11237 0.0
C721 C 0.10911 0.53268 0.05222 0.0
C722 C 0.08997 0.55037 0.04607 0.0
C723 C 0.1357 0.54421 0.06406 0.0
C724 C 0.18303 0.57322 0.10384 0.0
H725 H 0.32289 0.65527 0.09492 0.0
H726 H 0.27667 0.63289 0.07559 0.0
H727 H 0.21749 0.57458 0.13187 0.0
H728 H 0.08381 0.59412 0.04784 0.0
H729 H 0.12994 0.61408 0.06855 0.0
H730 H 0.18152 0.62149 0.05484 0.0
C731 C 0.27858 0.63415 0.09858 0.0
C732 C 0.20975 0.58514 0.11524 0.0
C733 C 0.3051 0.647 0.10967 0.0
C734 C 0.09802 0.57982 0.05215 0.0
C735 C 0.12458 0.59132 0.06391 0.0
C736 C 0.18897 0.61115 0.07182 0.0
C737 C 0.25493 0.62289 0.11685 0.0
C738 C 0.22642 0.61015 0.10496 0.0
C739 C 0.14381 0.57369 0.06994 0.0
C740 C 0.1723 0.58612 0.08202 0.0
H741 H 0.28713 0.63868 0.18061 0.0
H742 H 0.24077 0.61617 0.16121 0.0
H743 H 0.22776 0.64244 0.07494 0.0
H744 H 0.10364 0.5099 0.04781 0.0
H745 H 0.15012 0.53004 0.06817 0.0
C746 C 0.20638 0.3963 0.57087 0.0
C747 C 0.19656 0.40704 0.59785 0.0
C748 C 0.23514 0.40458 0.56079 0.0
C749 C 0.29993 0.45953 0.56773 0.0
H750 H 0.34154 0.3986 0.54276 0.0
C751 C 0.42396 0.48015 0.54387 0.0
C752 C 0.43491 0.46401 0.52094 0.0
C753 C 0.39471 0.47374 0.55314 0.0
C754 C 0.33019 0.41592 0.54919 0.0
H755 H 0.20917 0.4356 0.63499 0.0
H756 H 0.25931 0.45061 0.6169 0.0
H757 H 0.29032 0.38739 0.55809 0.0
H758 H 0.42469 0.42839 0.48979 0.0
H759 H 0.37328 0.41755 0.5052 0.0
H760 H 0.33954 0.48816 0.55831 0.0
C761 C 0.24462 0.4357 0.60371 0.0
C762 C 0.30087 0.40946 0.55807 0.0
C763 C 0.2159 0.42717 0.61398 0.0
C764 C 0.41651 0.4411 0.50756 0.0
C765 C 0.38717 0.43486 0.51652 0.0
C766 C 0.3292 0.46605 0.55848 0.0
C767 C 0.25459 0.42405 0.57728 0.0
C768 C 0.28551 0.43118 0.56745 0.0
C769 C 0.37588 0.45111 0.53944 0.0
C770 C 0.34471 0.4443 0.54916 0.0
H771 H 0.1919 0.38125 0.55762 0.0
H772 H 0.24224 0.39563 0.54013 0.0
H773 H 0.28844 0.47665 0.5747 0.0
H774 H 0.43818 0.49717 0.55514 0.0
H775 H 0.387 0.48623 0.57132 0.0
C776 C 0.86498 0.72803 0.85392 0.0
C777 C 0.84154 0.73905 0.86746 0.0
C778 C 0.88148 0.71395 0.86941 0.0
C779 C 0.89829 0.704 0.94378 0.0
H780 H 0.92968 0.64064 0.90596 0.0
C781 C 0.95022 0.62247 0.99869 0.0
C782 C 0.97585 0.61589 0.9848 0.0
C783 C 0.93519 0.64076 0.98673 0.0
C784 C 0.92125 0.65848 0.91669 0.0
H785 H 0.8163 0.74352 0.90758 0.0
H786 H 0.84442 0.71791 0.9345 0.0
H787 H 0.89906 0.66417 0.88006 0.0
H788 H 0.00701 0.62457 0.94879 0.0
H789 H 0.98057 0.65621 0.92778 0.0
H790 H 0.91992 0.69728 0.98082 0.0
C791 C 0.85069 0.72086 0.91212 0.0
C792 C 0.90377 0.67204 0.90185 0.0
C793 C 0.83442 0.73532 0.89666 0.0
C794 C 0.98723 0.62922 0.95986 0.0
C795 C 0.97208 0.64719 0.94777 0.0
C796 C 0.91547 0.69007 0.9588 0.0
C797 C 0.87456 0.71016 0.89871 0.0
C798 C 0.8923 0.69517 0.91507 0.0
C799 C 0.9455 0.65237 0.96061 0.0
C800 C 0.92733 0.66741 0.94522 0.0
H801 H 0.87098 0.73089 0.83145 0.0
H802 H 0.90002 0.70652 0.85846 0.0
H803 H 0.89015 0.72197 0.95453 0.0
H804 H 0.94104 0.61242 0.01796 0.0
H805 H 0.91468 0.64446 0.99695 0.0
C806 C 0.3926 0.73422 0.10895 0.0
C807 C 0.39276 0.73043 0.13841 0.0
C808 C 0.40406 0.76051 0.0981 0.0
C809 C 0.45357 0.82849 0.11446 0.0
H810 H 0.41004 0.85784 0.06015 0.0
C811 C 0.48335 0.94448 0.08657 0.0
C812 C 0.48291 0.95073 0.0579 0.0
C813 C 0.47146 0.91751 0.0953 0.0
C814 C 0.42266 0.84982 0.07501 0.0
H815 H 0.40561 0.75145 0.17944 0.0
H816 H 0.42596 0.79722 0.16048 0.0
H817 H 0.39211 0.81076 0.07741 0.0
H818 H 0.46894 0.93388 0.01594 0.0
H819 H 0.44821 0.88621 0.03107 0.0
H820 H 0.48417 0.86731 0.11207 0.0
C821 C 0.41705 0.77974 0.14573 0.0
C822 C 0.41237 0.82283 0.08493 0.0
C823 C 0.40545 0.75345 0.15661 0.0
C824 C 0.46941 0.92964 0.03819 0.0
C825 C 0.45757 0.90238 0.04692 0.0
C826 C 0.46389 0.85536 0.10448 0.0
C827 C 0.41619 0.78369 0.11639 0.0
C828 C 0.42757 0.81196 0.105 0.0
C829 C 0.45901 0.89585 0.07552 0.0
C830 C 0.44841 0.86657 0.0849 0.0
H831 H 0.3835 0.71684 0.09419 0.0
H832 H 0.40353 0.76265 0.07533 0.0
H833 H 0.46611 0.82058 0.12946 0.0
H834 H 0.49341 0.96039 0.10232 0.0
H835 H 0.47228 0.91358 0.11763 0.0
C836 C 0.12979 0.30546 0.62082 0.0
C837 C 0.11486 0.32592 0.61252 0.0
C838 C 0.11911 0.27661 0.6148 0.0
C839 C 0.08146 0.22927 0.56186 0.0
H840 H 0.06238 0.17365 0.61891 0.0
C841 C 0.02929 0.11467 0.52986 0.0
C842 C 0.03657 0.09268 0.54412 0.0
C843 C 0.03811 0.14287 0.53976 0.0
C844 C 0.06807 0.18879 0.60265 0.0
H845 H 0.07717 0.33271 0.59188 0.0
H846 H 0.05891 0.28205 0.58045 0.0
H847 H 0.07935 0.22359 0.634 0.0
H848 H 0.05869 0.08271 0.57992 0.0
H849 H 0.0755 0.1322 0.59654 0.0
H850 H 0.07172 0.1949 0.53032 0.0
C851 C 0.07857 0.28839 0.59196 0.0
C852 C 0.07754 0.21735 0.61136 0.0
C853 C 0.08891 0.3172 0.59853 0.0
C854 C 0.05275 0.09935 0.56861 0.0
C855 C 0.06218 0.1277 0.5782 0.0
C856 C 0.07263 0.20074 0.55309 0.0
C857 C 0.09372 0.26795 0.59987 0.0
C858 C 0.08398 0.23776 0.59101 0.0
C859 C 0.05507 0.14984 0.56379 0.0
C860 C 0.06545 0.18012 0.57336 0.0
H861 H 0.14983 0.31185 0.63171 0.0
H862 H 0.13116 0.26112 0.62091 0.0
H863 H 0.08679 0.2447 0.54581 0.0
H864 H 0.01636 0.11008 0.51121 0.0
H865 H 0.0314 0.15917 0.52858 0.0
C866 C 0.70919 0.2751 0.38163 0.0
C867 C 0.69343 0.25039 0.36806 0.0
C868 C 0.69509 0.29708 0.39316 0.0
C869 C 0.622 0.31318 0.416 0.0
H870 H 0.65789 0.39057 0.40162 0.0
C871 C 0.5575 0.4044 0.43294 0.0
C872 C 0.57114 0.42982 0.44696 0.0
C873 C 0.57334 0.38318 0.42348 0.0
C874 C 0.6477 0.36911 0.40606 0.0
H875 H 0.65032 0.22883 0.35722 0.0
H876 H 0.6259 0.26709 0.3768 0.0
H877 H 0.68388 0.35187 0.38664 0.0
H878 H 0.61219 0.45342 0.46133 0.0
H879 H 0.63998 0.41636 0.44473 0.0
H880 H 0.58571 0.33033 0.4351 0.0
C881 C 0.6491 0.2696 0.37873 0.0
C882 C 0.66264 0.34691 0.39756 0.0
C883 C 0.66316 0.24773 0.36721 0.0
C884 C 0.60114 0.43404 0.45049 0.0
C885 C 0.61705 0.41283 0.44094 0.0
C886 C 0.60706 0.33532 0.42439 0.0
C887 C 0.66489 0.29474 0.39152 0.0
C888 C 0.64986 0.31861 0.40218 0.0
C889 C 0.60322 0.38692 0.42778 0.0
C890 C 0.61958 0.36354 0.41929 0.0
H891 H 0.73255 0.27785 0.38251 0.0
H892 H 0.70788 0.31598 0.4032 0.0
H893 H 0.61169 0.29174 0.42041 0.0
H894 H 0.5344 0.40058 0.42989 0.0
H895 H 0.56212 0.3637 0.41297 0.0
loop_
_geom_bond_atom_site_label_1
_geom_bond_atom_site_label_2
_geom_bond_distance
_geom_bond_site_symmetry_2
_ccdc_geom_bond_type
H0 C5 0.930 . S
H1 C8 0.930 . S
H2 C10 0.930 . S
H3 C4 1.016 . S
C4 H3 1.016 . S
C4 N11 1.286 . S
C5 H0 0.930 . S
C5 C6 1.397 . S
C5 C7 1.361 . S
C6 C5 1.397 . S
C6 C10 1.390 . S
C7 C5 1.361 . S
C7 C8 1.393 . S
C7 N11 1.413 . S
C8 H1 0.930 . S
C8 C7 1.393 . S
C8 C9 1.399 . S
C9 C8 1.399 . S
C9 C10 1.381 . S
C10 H2 0.930 . S
C10 C6 1.390 . S
C10 C9 1.381 . S
N11 C4 1.286 . S
N11 C7 1.413 . S
H12 C17 0.930 . S
H13 C20 0.930 . S
H14 C22 0.930 . S
H15 C16 1.016 . S
C16 H15 1.016 . S
C16 N23 1.286 . S
C17 H12 0.930 . S
C17 C18 1.397 . S
C17 C19 1.361 . S
C18 C17 1.397 . S
C18 C22 1.390 . S
C19 C17 1.361 . S
C19 C20 1.393 . S
C19 N23 1.413 . S
C20 H13 0.930 . S
C20 C19 1.393 . S
C20 C21 1.399 . S
C21 C20 1.399 . S
C21 C22 1.381 . S
C22 H14 0.930 . S
C22 C18 1.390 . S
C22 C21 1.381 . S
N23 C16 1.286 . S
N23 C19 1.413 . S
H24 C29 0.930 . S
H25 C32 0.930 . S
H26 C34 0.930 . S
H27 C28 1.016 . S
C28 H27 1.016 . S
C28 N35 1.286 . S
C29 H24 0.930 . S
C29 C30 1.397 . S
C29 C31 1.361 . S
C30 C29 1.397 . S
C30 C34 1.390 . S
C31 C29 1.361 . S
C31 C32 1.393 . S
C31 N35 1.413 . S
C32 H25 0.930 . S
C32 C31 1.393 . S
C32 C33 1.399 . S
C33 C32 1.399 . S
C33 C34 1.381 . S
C34 H26 0.930 . S
C34 C30 1.390 . S
C34 C33 1.381 . S
N35 C28 1.286 . S
N35 C31 1.413 . S
H36 C41 0.930 . S
H37 C44 0.930 . S
H38 C46 0.930 . S
H39 C40 1.016 . S
C40 H39 1.016 . S
C40 N47 1.286 . S
C41 H36 0.930 . S
C41 C42 1.397 . S
C41 C43 1.361 . S
C42 C41 1.397 . S
C42 C46 1.390 . S
C43 C41 1.361 . S
C43 C44 1.393 . S
C43 N47 1.413 . S
C44 H37 0.930 . S
C44 C43 1.393 . S
C44 C45 1.399 . S
C45 C44 1.399 . S
C45 C46 1.381 . S
C46 H38 0.930 . S
C46 C42 1.390 . S
C46 C45 1.381 . S
N47 C40 1.286 . S
N47 C43 1.413 . S
H48 C53 0.930 . S
H49 C56 0.930 . S
H50 C58 0.930 . S
H51 C52 1.016 . S
C52 H51 1.016 . S
C52 N59 1.286 . S
C53 H48 0.930 . S
C53 C54 1.397 . S
C53 C55 1.361 . S
C54 C53 1.397 . S
C54 C58 1.390 . S
C55 C53 1.361 . S
C55 C56 1.393 . S
C55 N59 1.413 . S
C56 H49 0.930 . S
C56 C55 1.393 . S
C56 C57 1.399 . S
C57 C56 1.399 . S
C57 C58 1.381 . S
C58 H50 0.930 . S
C58 C54 1.390 . S
C58 C57 1.381 . S
N59 C52 1.286 . S
N59 C55 1.413 . S
H60 C65 0.930 . S
H61 C68 0.930 . S
H62 C70 0.930 . S
H63 C64 1.016 . S
C64 H63 1.016 . S
C64 N71 1.286 . S
C65 H60 0.930 . S
C65 C66 1.397 . S
C65 C67 1.361 . S
C66 C65 1.397 . S
C66 C70 1.390 . S
C67 C65 1.361 . S
C67 C68 1.393 . S
C67 N71 1.413 . S
C68 H61 0.930 . S
C68 C67 1.393 . S
C68 C69 1.399 . S
C69 C68 1.399 . S
C69 C70 1.381 . S
C70 H62 0.930 . S
C70 C66 1.390 . S
C70 C69 1.381 . S
N71 C64 1.286 . S
N71 C67 1.413 . S
H72 C77 0.930 . S
H73 C80 0.930 . S
H74 C82 0.930 . S
H75 C76 1.016 . S
C76 H75 1.016 . S
C76 N83 1.286 . S
C77 H72 0.930 . S
C77 C78 1.397 . S
C77 C79 1.361 . S
C78 C77 1.397 . S
C78 C82 1.390 . S
C79 C77 1.361 . S
C79 C80 1.393 . S
C79 N83 1.413 . S
C80 H73 0.930 . S
C80 C79 1.393 . S
C80 C81 1.399 . S
C81 C80 1.399 . S
C81 C82 1.381 . S
C82 H74 0.930 . S
C82 C78 1.390 . S
C82 C81 1.381 . S
N83 C76 1.286 . S
N83 C79 1.413 . S
H84 C89 0.930 . S
H85 C92 0.930 . S
H86 C94 0.930 . S
H87 C88 1.016 . S
C88 H87 1.016 . S
C88 N95 1.286 . S
C89 H84 0.930 . S
C89 C90 1.397 . S
C89 C91 1.361 . S
C90 C89 1.397 . S
C90 C94 1.390 . S
C91 C89 1.361 . S
C91 C92 1.393 . S
C91 N95 1.413 . S
C92 H85 0.930 . S
C92 C91 1.393 . S
C92 C93 1.399 . S
C93 C92 1.399 . S
C93 C94 1.381 . S
C94 H86 0.930 . S
C94 C90 1.390 . S
C94 C93 1.381 . S
N95 C88 1.286 . S
N95 C91 1.413 . S
Dy96 O100 2.398 . S
Dy96 O101 2.491 . S
Dy96 O102 2.403 1_545 S
Dy96 O103 2.664 1_545 S
Dy96 O107 2.326 . S
Dy96 O111 2.310 1_455 S
Dy96 O112 2.351 1_445 S
C97 O108 1.185 . S
C97 O109 1.355 . S
C98 O100 1.185 . S
C98 O101 1.355 . S
Dy99 O103 2.310 1_655 S
Dy99 O106 2.351 1_665 S
Dy99 O108 2.398 . S
Dy99 O109 2.491 . S
Dy99 O110 2.403 1_565 S
Dy99 O111 2.664 1_565 S
Dy99 O113 2.326 . S
O100 Dy96 2.398 . S
O100 C98 1.185 . S
O101 Dy96 2.491 . S
O101 C98 1.355 . S
O102 Dy96 2.403 1_565 S
O102 C104 1.254 . S
O103 Dy96 2.664 1_565 S
O103 Dy99 2.310 1_455 S
O103 C104 1.268 . S
C104 O102 1.254 . S
C104 O103 1.268 . S
C105 O110 1.254 . S
C105 O111 1.268 . S
O106 Dy99 2.351 1_445 S
O106 C114 1.249 . S
O107 Dy96 2.326 . S
O107 C114 1.267 . S
O108 C97 1.185 . S
O108 Dy99 2.398 . S
O109 C97 1.355 . S
O109 Dy99 2.491 . S
O110 Dy99 2.403 1_545 S
O110 C105 1.254 . S
O111 Dy96 2.310 1_655 S
O111 Dy99 2.664 1_545 S
O111 C105 1.268 . S
O112 Dy96 2.351 1_665 S
O112 C115 1.249 . S
O113 Dy99 2.326 . S
O113 C115 1.267 . S
C114 O106 1.249 . S
C114 O107 1.267 . S
C115 O112 1.249 . S
C115 O113 1.267 . S
Dy116 O120 2.398 . S
Dy116 O121 2.491 . S
Dy116 O122 2.403 1_545 S
Dy116 O123 2.664 1_545 S
Dy116 O127 2.326 . S
Dy116 O131 2.310 . S
Dy116 O132 2.353 1_544 S
C117 O128 1.185 . S
C117 O129 1.355 . S
C118 O120 1.185 . S
C118 O121 1.355 . S
Dy119 O123 2.310 1_546 S
Dy119 O126 2.351 1_556 S
Dy119 O128 2.398 1_545 S
Dy119 O129 2.491 1_545 S
Dy119 O130 2.403 . S
Dy119 O131 2.664 1_556 S
Dy119 O133 2.326 1_545 S
O120 Dy116 2.398 . S
O120 C118 1.185 . S
O121 Dy116 2.491 . S
O121 C118 1.355 . S
O122 Dy116 2.403 1_565 S
O122 C124 1.254 . S
O123 Dy116 2.664 1_565 S
O123 Dy119 2.310 1_564 S
O123 C124 1.268 . S
C124 O122 1.254 . S
C124 O123 1.268 . S
C125 O130 1.254 . S
C125 O131 1.268 1_556 S
O126 Dy119 2.351 1_554 S
O126 C134 1.249 . S
O127 Dy116 2.326 . S
O127 C134 1.267 . S
O128 C117 1.185 . S
O128 Dy119 2.398 1_565 S
O129 C117 1.355 . S
O129 Dy119 2.491 1_565 S
O130 Dy119 2.403 . S
O130 C125 1.254 . S
O131 Dy116 2.310 . S
O131 Dy119 2.664 1_554 S
O131 C125 1.268 1_554 S
O132 Dy116 2.353 1_566 S
O132 C135 1.247 . S
O133 Dy119 2.326 1_565 S
O133 C135 1.267 . S
C134 O126 1.249 . S
C134 O127 1.267 . S
C135 O132 1.247 . S
C135 O133 1.267 . S
Dy136 O140 2.398 . S
Dy136 O141 2.491 . S
Dy136 O142 2.403 . S
Dy136 O143 2.664 . S
Dy136 O147 2.326 . S
Dy136 O151 2.310 . S
Dy136 O152 2.351 . S
C137 O148 1.185 . S
C137 O149 1.355 . S
C138 O140 1.185 . S
C138 O141 1.355 . S
Dy139 O143 2.310 . S
Dy139 O146 2.351 . S
Dy139 O148 2.398 . S
Dy139 O149 2.491 . S
Dy139 O150 2.403 . S
Dy139 O151 2.664 . S
Dy139 O153 2.326 . S
O140 Dy136 2.398 . S
O140 C138 1.185 . S
O141 Dy136 2.491 . S
O141 C138 1.355 . S
O142 Dy136 2.403 . S
O142 C144 1.254 . S
O143 Dy136 2.664 . S
O143 Dy139 2.310 . S
O143 C144 1.268 . S
C144 O142 1.254 . S
C144 O143 1.268 . S
C145 O150 1.254 . S
C145 O151 1.268 . S
O146 Dy139 2.351 . S
O146 C154 1.249 . S
O147 Dy136 2.326 . S
O147 C154 1.267 . S
O148 C137 1.185 . S
O148 Dy139 2.398 . S
O149 C137 1.355 . S
O149 Dy139 2.491 . S
O150 Dy139 2.403 . S
O150 C145 1.254 . S
O151 Dy136 2.310 . S
O151 Dy139 2.664 . S
O151 C145 1.268 . S
O152 Dy136 2.351 . S
O152 C155 1.249 . S
O153 Dy139 2.326 . S
O153 C155 1.267 . S
C154 O146 1.249 . S
C154 O147 1.267 . S
C155 O152 1.249 . S
C155 O153 1.267 . S
Dy156 O160 2.398 . S
Dy156 O161 2.491 . S
Dy156 O162 2.403 1_455 S
Dy156 O163 2.664 1_455 S
Dy156 O167 2.326 . S
Dy156 O171 2.310 1_554 S
Dy156 O172 2.352 1_455 S
C157 O168 1.185 . S
C157 O169 1.355 . S
C158 O160 1.185 . S
C158 O161 1.355 . S
Dy159 O163 2.310 1_456 S
Dy159 O166 2.351 1_556 S
Dy159 O168 2.398 1_455 S
Dy159 O169 2.491 1_455 S
Dy159 O170 2.403 . S
Dy159 O171 2.664 . S
Dy159 O173 2.326 1_455 S
O160 Dy156 2.398 . S
O160 C158 1.185 . S
O161 Dy156 2.491 . S
O161 C158 1.355 . S
O162 Dy156 2.403 1_655 S
O162 C164 1.254 . S
O163 Dy156 2.664 1_655 S
O163 Dy159 2.310 1_654 S
O163 C164 1.268 . S
C164 O162 1.254 . S
C164 O163 1.268 . S
C165 O170 1.254 . S
C165 O171 1.268 . S
O166 Dy159 2.351 1_554 S
O166 C174 1.249 . S
O167 Dy156 2.326 . S
O167 C174 1.267 . S
O168 C157 1.185 . S
O168 Dy159 2.398 1_655 S
O169 C157 1.355 . S
O169 Dy159 2.491 1_655 S
O170 Dy159 2.403 . S
O170 C165 1.254 . S
O171 Dy156 2.310 1_556 S
O171 Dy159 2.664 . S
O171 C165 1.268 . S
O172 Dy156 2.352 1_655 S
O172 C175 1.248 1_554 S
O173 Dy159 2.326 1_655 S
O173 C175 1.267 . S
C174 O166 1.249 . S
C174 O167 1.267 . S
C175 O172 1.248 1_556 S
C175 O173 1.267 . S
C176 C177 1.349 . S
C176 C178 1.327 . S
C176 H201 0.950 . S
C177 C176 1.349 . S
C177 C193 1.349 . S
C178 C176 1.327 . S
C178 C197 1.429 . S
C178 H202 0.950 . S
C179 C196 1.574 . S
C179 C198 1.368 . S
C179 H203 0.949 . S
H180 C184 0.949 . S
C181 C182 1.349 . S
C181 C183 1.327 . S
C181 H204 0.950 . S
C182 C181 1.349 . S
C182 C194 1.349 . S
C183 C181 1.327 . S
C183 C199 1.429 . S
C183 H205 0.950 . S
C184 H180 0.949 . S
C184 C192 1.574 . S
C184 C200 1.368 . S
H185 C193 0.950 . S
H186 C191 0.950 . S
H187 C192 0.949 . S
H188 C194 0.950 . S
H189 C195 0.950 . S
H190 C196 0.949 . S
C191 H186 0.950 . S
C191 C193 1.327 . S
C191 C197 1.429 . S
C192 C184 1.574 . S
C192 H187 0.949 . S
C192 C198 1.368 . S
C193 C177 1.349 . S
C193 H185 0.950 . S
C193 C191 1.327 . S
C194 C182 1.349 . S
C194 H188 0.950 . S
C194 C195 1.327 . S
C195 H189 0.950 . S
C195 C194 1.327 . S
C195 C199 1.429 . S
C196 C179 1.574 . S
C196 H190 0.949 . S
C196 C200 1.368 . S
C197 C178 1.429 . S
C197 C191 1.429 . S
C197 C198 1.523 . S
C198 C179 1.368 . S
C198 C192 1.368 . S
C198 C197 1.523 . S
C199 C183 1.429 . S
C199 C195 1.429 . S
C199 C200 1.523 . S
C200 C184 1.368 . S
C200 C196 1.368 . S
C200 C199 1.523 . S
H201 C176 0.950 . S
H202 C178 0.950 . S
H203 C179 0.949 . S
H204 C181 0.950 . S
H205 C183 0.950 . S
C206 C207 1.349 . S
C206 C208 1.327 . S
C206 H231 0.950 . S
C207 C206 1.349 . S
C207 C223 1.349 . S
C208 C206 1.327 . S
C208 C227 1.429 . S
C208 H232 0.950 . S
C209 C226 1.574 . S
C209 C228 1.368 . S
C209 H233 0.949 . S
H210 C214 0.949 . S
C211 C212 1.349 . S
C211 C213 1.327 . S
C211 H234 0.950 . S
C212 C211 1.349 . S
C212 C224 1.349 . S
C213 C211 1.327 . S
C213 C229 1.429 . S
C213 H235 0.950 . S
C214 H210 0.949 . S
C214 C222 1.574 . S
C214 C230 1.368 . S
H215 C223 0.950 . S
H216 C221 0.950 . S
H217 C222 0.949 . S
H218 C224 0.950 . S
H219 C225 0.950 . S
H220 C226 0.949 . S
C221 H216 0.950 . S
C221 C223 1.327 . S
C221 C227 1.429 . S
C222 C214 1.574 . S
C222 H217 0.949 . S
C222 C228 1.368 . S
C223 C207 1.349 . S
C223 H215 0.950 . S
C223 C221 1.327 . S
C224 C212 1.349 . S
C224 H218 0.950 . S
C224 C225 1.327 . S
C225 H219 0.950 . S
C225 C224 1.327 . S
C225 C229 1.429 . S
C226 C209 1.574 . S
C226 H220 0.949 . S
C226 C230 1.368 . S
C227 C208 1.429 . S
C227 C221 1.429 . S
C227 C228 1.523 . S
C228 C209 1.368 . S
C228 C222 1.368 . S
C228 C227 1.523 . S
C229 C213 1.429 . S
C229 C225 1.429 . S
C229 C230 1.523 . S
C230 C214 1.368 . S
C230 C226 1.368 . S
C230 C229 1.523 . S
H231 C206 0.950 . S
H232 C208 0.950 . S
H233 C209 0.949 . S
H234 C211 0.950 . S
H235 C213 0.950 . S
C236 C237 1.349 . S
C236 C238 1.327 . S
C236 H261 0.950 . S
C237 C236 1.349 . S
C237 C253 1.349 . S
C238 C236 1.327 . S
C238 C257 1.429 . S
C238 H262 0.950 . S
C239 C256 1.574 . S
C239 C258 1.368 . S
C239 H263 0.949 . S
H240 C244 0.949 . S
C241 C242 1.349 . S
C241 C243 1.327 . S
C241 H264 0.950 . S
C242 C241 1.349 . S
C242 C254 1.349 . S
C243 C241 1.327 . S
C243 C259 1.429 . S
C243 H265 0.950 . S
C244 H240 0.949 . S
C244 C252 1.574 . S
C244 C260 1.368 . S
H245 C253 0.950 . S
H246 C251 0.950 . S
H247 C252 0.949 . S
H248 C254 0.950 . S
H249 C255 0.950 . S
H250 C256 0.949 . S
C251 H246 0.950 . S
C251 C253 1.327 . S
C251 C257 1.429 . S
C252 C244 1.574 . S
C252 H247 0.949 . S
C252 C258 1.368 . S
C253 C237 1.349 . S
C253 H245 0.950 . S
C253 C251 1.327 . S
C254 C242 1.349 . S
C254 H248 0.950 . S
C254 C255 1.327 . S
C255 H249 0.950 . S
C255 C254 1.327 . S
C255 C259 1.429 . S
C256 C239 1.574 . S
C256 H250 0.949 . S
C256 C260 1.368 . S
C257 C238 1.429 . S
C257 C251 1.429 . S
C257 C258 1.523 . S
C258 C239 1.368 . S
C258 C252 1.368 . S
C258 C257 1.523 . S
C259 C243 1.429 . S
C259 C255 1.429 . S
C259 C260 1.523 . S
C260 C244 1.368 . S
C260 C256 1.368 . S
C260 C259 1.523 . S
H261 C236 0.950 . S
H262 C238 0.950 . S
H263 C239 0.949 . S
H264 C241 0.950 . S
H265 C243 0.950 . S
C266 C267 1.349 . S
C266 C268 1.327 . S
C266 H291 0.950 . S
C267 C266 1.349 . S
C267 C283 1.349 . S
C268 C266 1.327 . S
C268 C287 1.429 . S
C268 H292 0.950 . S
C269 C286 1.574 . S
C269 C288 1.368 . S
C269 H293 0.949 . S
H270 C274 0.949 . S
C271 C272 1.349 . S
C271 C273 1.327 . S
C271 H294 0.950 1_655 S
C272 C271 1.349 . S
C272 C284 1.349 . S
C273 C271 1.327 . S
C273 C289 1.429 . S
C273 H295 0.950 . S
C274 H270 0.949 . S
C274 C282 1.574 . S
C274 C290 1.368 . S
H275 C283 0.950 . S
H276 C281 0.950 . S
H277 C282 0.949 . S
H278 C284 0.950 . S
H279 C285 0.950 . S
H280 C286 0.949 . S
C281 H276 0.950 . S
C281 C283 1.327 . S
C281 C287 1.429 . S
C282 C274 1.574 . S
C282 H277 0.949 . S
C282 C288 1.368 . S
C283 C267 1.349 . S
C283 H275 0.950 . S
C283 C281 1.327 . S
C284 C272 1.349 . S
C284 H278 0.950 . S
C284 C285 1.327 . S
C285 H279 0.950 . S
C285 C284 1.327 . S
C285 C289 1.429 . S
C286 C269 1.574 . S
C286 H280 0.949 . S
C286 C290 1.368 . S
C287 C268 1.429 . S
C287 C281 1.429 . S
C287 C288 1.523 . S
C288 C269 1.368 . S
C288 C282 1.368 . S
C288 C287 1.523 . S
C289 C273 1.429 . S
C289 C285 1.429 . S
C289 C290 1.523 . S
C290 C274 1.368 . S
C290 C286 1.368 . S
C290 C289 1.523 . S
H291 C266 0.950 . S
H292 C268 0.950 . S
H293 C269 0.949 . S
H294 C271 0.950 1_455 S
H295 C273 0.950 . S
C296 C297 1.349 . S
C296 C298 1.327 . S
C296 H321 0.950 . S
C297 C296 1.349 . S
C297 C313 1.349 . S
C298 C296 1.327 . S
C298 C317 1.429 . S
C298 H322 0.950 . S
C299 C316 1.574 . S
C299 C318 1.368 . S
C299 H323 0.949 . S
H300 C304 0.949 . S
C301 C302 1.349 . S
C301 C303 1.327 . S
C301 H324 0.950 . S
C302 C301 1.349 . S
C302 C314 1.349 . S
C303 C301 1.327 . S
C303 C319 1.429 . S
C303 H325 0.950 . S
C304 H300 0.949 . S
C304 C312 1.574 . S
C304 C320 1.368 . S
H305 C313 0.950 . S
H306 C311 0.950 . S
H307 C312 0.949 . S
H308 C314 0.950 . S
H309 C315 0.950 . S
H310 C316 0.949 . S
C311 H306 0.950 . S
C311 C313 1.327 . S
C311 C317 1.429 . S
C312 C304 1.574 . S
C312 H307 0.949 . S
C312 C318 1.368 . S
C313 C297 1.349 . S
C313 H305 0.950 . S
C313 C311 1.327 . S
C314 C302 1.349 . S
C314 H308 0.950 . S
C314 C315 1.327 . S
C315 H309 0.950 . S
C315 C314 1.327 . S
C315 C319 1.429 . S
C316 C299 1.574 . S
C316 H310 0.949 . S
C316 C320 1.368 . S
C317 C298 1.429 . S
C317 C311 1.429 . S
C317 C318 1.523 . S
C318 C299 1.368 . S
C318 C312 1.368 . S
C318 C317 1.523 . S
C319 C303 1.429 . S
C319 C315 1.429 . S
C319 C320 1.523 . S
C320 C304 1.368 . S
C320 C316 1.368 . S
C320 C319 1.523 . S
H321 C296 0.950 . S
H322 C298 0.950 . S
H323 C299 0.949 . S
H324 C301 0.950 . S
H325 C303 0.950 . S
C326 C327 1.349 . S
C326 C328 1.327 . S
C326 H351 0.950 . S
C327 C326 1.349 . S
C327 C343 1.349 . S
C328 C326 1.327 . S
C328 C347 1.429 . S
C328 H352 0.950 . S
C329 C346 1.574 . S
C329 C348 1.368 . S
C329 H353 0.949 . S
H330 C334 0.949 . S
C331 C332 1.349 . S
C331 C333 1.327 . S
C331 H354 0.950 . S
C332 C331 1.349 . S
C332 C344 1.349 . S
C333 C331 1.327 . S
C333 C349 1.429 . S
C333 H355 0.950 . S
C334 H330 0.949 . S
C334 C342 1.574 . S
C334 C350 1.368 . S
H335 C343 0.950 . S
H336 C341 0.950 . S
H337 C342 0.949 . S
H338 C344 0.950 1_545 S
H339 C345 0.950 . S
H340 C346 0.949 . S
C341 H336 0.950 . S
C341 C343 1.327 . S
C341 C347 1.429 . S
C342 C334 1.574 . S
C342 H337 0.949 . S
C342 C348 1.368 . S
C343 C327 1.349 . S
C343 H335 0.950 . S
C343 C341 1.327 . S
C344 C332 1.349 . S
C344 H338 0.950 1_565 S
C344 C345 1.327 . S
C345 H339 0.950 . S
C345 C344 1.327 . S
C345 C349 1.429 . S
C346 C329 1.574 . S
C346 H340 0.949 . S
C346 C350 1.368 . S
C347 C328 1.429 . S
C347 C341 1.429 . S
C347 C348 1.523 . S
C348 C329 1.368 . S
C348 C342 1.368 . S
C348 C347 1.523 . S
C349 C333 1.429 . S
C349 C345 1.429 . S
C349 C350 1.523 . S
C350 C334 1.368 . S
C350 C346 1.368 . S
C350 C349 1.523 . S
H351 C326 0.950 . S
H352 C328 0.950 . S
H353 C329 0.949 . S
H354 C331 0.950 . S
H355 C333 0.950 . S
C356 C357 1.349 . S
C356 C358 1.327 . S
C356 H381 0.950 . S
C357 C356 1.349 . S
C357 C373 1.349 . S
C358 C356 1.327 . S
C358 C377 1.429 . S
C358 H382 0.950 . S
C359 C376 1.574 . S
C359 C378 1.368 . S
C359 H383 0.949 . S
H360 C364 0.949 . S
C361 C362 1.349 . S
C361 C363 1.327 . S
C361 H384 0.950 1_556 S
C362 C361 1.349 . S
C362 C374 1.349 . S
C363 C361 1.327 . S
C363 C379 1.429 . S
C363 H385 0.950 . S
C364 H360 0.949 . S
C364 C372 1.574 . S
C364 C380 1.368 . S
H365 C373 0.950 . S
H366 C371 0.950 . S
H367 C372 0.949 . S
H368 C374 0.950 . S
H369 C375 0.950 . S
H370 C376 0.949 . S
C371 H366 0.950 . S
C371 C373 1.327 . S
C371 C377 1.429 . S
C372 C364 1.574 . S
C372 H367 0.949 . S
C372 C378 1.368 . S
C373 C357 1.349 . S
C373 H365 0.950 . S
C373 C371 1.327 . S
C374 C362 1.349 . S
C374 H368 0.950 . S
C374 C375 1.327 . S
C375 H369 0.950 . S
C375 C374 1.327 . S
C375 C379 1.429 . S
C376 C359 1.574 . S
C376 H370 0.949 . S
C376 C380 1.368 . S
C377 C358 1.429 . S
C377 C371 1.429 . S
C377 C378 1.523 . S
C378 C359 1.368 . S
C378 C372 1.368 . S
C378 C377 1.523 . S
C379 C363 1.429 . S
C379 C375 1.429 . S
C379 C380 1.523 . S
C380 C364 1.368 . S
C380 C376 1.368 . S
C380 C379 1.523 . S
H381 C356 0.950 . S
H382 C358 0.950 . S
H383 C359 0.949 . S
H384 C361 0.950 1_554 S
H385 C363 0.950 . S
C386 C387 1.349 . S
C386 C388 1.327 . S
C386 H411 0.950 . S
C387 C386 1.349 . S
C387 C403 1.349 . S
C388 C386 1.327 . S
C388 C407 1.429 . S
C388 H412 0.950 . S
C389 C406 1.574 . S
C389 C408 1.368 . S
C389 H413 0.949 . S
H390 C394 0.949 . S
C391 C392 1.349 . S
C391 C393 1.327 . S
C391 H414 0.950 . S
C392 C391 1.349 . S
C392 C404 1.349 . S
C393 C391 1.327 . S
C393 C409 1.429 . S
C393 H415 0.950 . S
C394 H390 0.949 . S
C394 C402 1.574 . S
C394 C410 1.368 . S
H395 C403 0.950 . S
H396 C401 0.950 . S
H397 C402 0.949 . S
H398 C404 0.950 . S
H399 C405 0.950 . S
H400 C406 0.949 . S
C401 H396 0.950 . S
C401 C403 1.327 . S
C401 C407 1.429 . S
C402 C394 1.574 . S
C402 H397 0.949 . S
C402 C408 1.368 . S
C403 C387 1.349 . S
C403 H395 0.950 . S
C403 C401 1.327 . S
C404 C392 1.349 . S
C404 H398 0.950 . S
C404 C405 1.327 . S
C405 H399 0.950 . S
C405 C404 1.327 . S
C405 C409 1.429 . S
C406 C389 1.574 . S
C406 H400 0.949 . S
C406 C410 1.368 . S
C407 C388 1.429 . S
C407 C401 1.429 . S
C407 C408 1.523 . S
C408 C389 1.368 . S
C408 C402 1.368 . S
C408 C407 1.523 . S
C409 C393 1.429 . S
C409 C405 1.429 . S
C409 C410 1.523 . S
C410 C394 1.368 . S
C410 C406 1.368 . S
C410 C409 1.523 . S
H411 C386 0.950 . S
H412 C388 0.950 . S
H413 C389 0.949 . S
H414 C391 0.950 . S
H415 C393 0.950 . S
C416 C417 1.349 . S
C416 C418 1.327 . S
C416 H441 0.950 . S
C417 C416 1.349 . S
C417 C433 1.349 . S
C418 C416 1.327 . S
C418 C437 1.429 . S
C418 H442 0.950 . S
C419 C436 1.574 . S
C419 C438 1.368 . S
C419 H443 0.949 . S
H420 C424 0.949 . S
C421 C422 1.349 . S
C421 C423 1.327 . S
C421 H444 0.950 . S
C422 C421 1.349 . S
C422 C434 1.349 . S
C423 C421 1.327 . S
C423 C439 1.429 . S
C423 H445 0.950 . S
C424 H420 0.949 . S
C424 C432 1.574 . S
C424 C440 1.368 . S
H425 C433 0.950 . S
H426 C431 0.950 . S
H427 C432 0.949 . S
H428 C434 0.950 . S
H429 C435 0.950 . S
H430 C436 0.949 . S
C431 H426 0.950 . S
C431 C433 1.327 . S
C431 C437 1.429 . S
C432 C424 1.574 . S
C432 H427 0.949 . S
C432 C438 1.368 . S
C433 C417 1.349 . S
C433 H425 0.950 . S
C433 C431 1.327 . S
C434 C422 1.349 . S
C434 H428 0.950 . S
C434 C435 1.327 . S
C435 H429 0.950 . S
C435 C434 1.327 . S
C435 C439 1.429 . S
C436 C419 1.574 . S
C436 H430 0.949 . S
C436 C440 1.368 . S
C437 C418 1.429 . S
C437 C431 1.429 . S
C437 C438 1.523 . S
C438 C419 1.368 . S
C438 C432 1.368 . S
C438 C437 1.523 . S
C439 C423 1.429 . S
C439 C435 1.429 . S
C439 C440 1.523 . S
C440 C424 1.368 . S
C440 C436 1.368 . S
C440 C439 1.523 . S
H441 C416 0.950 . S
H442 C418 0.950 . S
H443 C419 0.949 . S
H444 C421 0.950 . S
H445 C423 0.950 . S
C446 C447 1.349 . S
C446 C448 1.327 . S
C446 H471 0.950 . S
C447 C446 1.349 . S
C447 C463 1.349 . S
C448 C446 1.327 . S
C448 C467 1.429 . S
C448 H472 0.950 . S
C449 C466 1.574 . S
C449 C468 1.368 . S
C449 H473 0.949 . S
H450 C454 0.949 . S
C451 C452 1.349 . S
C451 C453 1.327 . S
C451 H474 0.950 . S
C452 C451 1.349 . S
C452 C464 1.349 . S
C453 C451 1.327 . S
C453 C469 1.429 . S
C453 H475 0.950 . S
C454 H450 0.949 . S
C454 C462 1.574 . S
C454 C470 1.368 . S
H455 C463 0.950 . S
H456 C461 0.950 . S
H457 C462 0.949 . S
H458 C464 0.950 1_554 S
H459 C465 0.950 . S
H460 C466 0.949 . S
C461 H456 0.950 . S
C461 C463 1.327 . S
C461 C467 1.429 . S
C462 C454 1.574 . S
C462 H457 0.949 . S
C462 C468 1.368 . S
C463 C447 1.349 . S
C463 H455 0.950 . S
C463 C461 1.327 . S
C464 C452 1.349 . S
C464 H458 0.950 1_556 S
C464 C465 1.327 . S
C465 H459 0.950 . S
C465 C464 1.327 . S
C465 C469 1.429 . S
C466 C449 1.574 . S
C466 H460 0.949 . S
C466 C470 1.368 . S
C467 C448 1.429 . S
C467 C461 1.429 . S
C467 C468 1.523 . S
C468 C449 1.368 . S
C468 C462 1.368 . S
C468 C467 1.523 . S
C469 C453 1.429 . S
C469 C465 1.429 . S
C469 C470 1.523 . S
C470 C454 1.368 . S
C470 C466 1.368 . S
C470 C469 1.523 . S
H471 C446 0.950 . S
H472 C448 0.950 . S
H473 C449 0.949 . S
H474 C451 0.950 . S
H475 C453 0.950 . S
C476 C477 1.349 . S
C476 C478 1.327 . S
C476 H501 0.950 . S
C477 C476 1.349 . S
C477 C493 1.349 . S
C478 C476 1.327 . S
C478 C497 1.429 . S
C478 H502 0.950 . S
C479 C496 1.574 . S
C479 C498 1.368 . S
C479 H503 0.949 . S
H480 C484 0.949 . S
C481 C482 1.349 . S
C481 C483 1.327 . S
C481 H504 0.950 . S
C482 C481 1.349 . S
C482 C494 1.349 . S
C483 C481 1.327 . S
C483 C499 1.429 . S
C483 H505 0.950 . S
C484 H480 0.949 . S
C484 C492 1.574 . S
C484 C500 1.368 . S
H485 C493 0.950 . S
H486 C491 0.950 . S
H487 C492 0.949 . S
H488 C494 0.975 . S
H489 C495 0.950 . S
H490 C496 0.949 . S
C491 H486 0.950 . S
C491 C493 1.327 . S
C491 C497 1.429 . S
C492 C484 1.574 . S
C492 H487 0.949 . S
C492 C498 1.368 . S
C493 C477 1.349 . S
C493 H485 0.950 . S
C493 C491 1.327 . S
C494 C482 1.349 . S
C494 H488 0.975 . S
C494 C495 1.327 . S
C495 H489 0.950 . S
C495 C494 1.327 . S
C495 C499 1.429 . S
C496 C479 1.574 . S
C496 H490 0.949 . S
C496 C500 1.368 . S
C497 C478 1.429 . S
C497 C491 1.429 . S
C497 C498 1.523 . S
C498 C479 1.368 . S
C498 C492 1.368 . S
C498 C497 1.523 . S
C499 C483 1.429 . S
C499 C495 1.429 . S
C499 C500 1.523 . S
C500 C484 1.368 . S
C500 C496 1.368 . S
C500 C499 1.523 . S
H501 C476 0.950 . S
H502 C478 0.950 . S
H503 C479 0.949 . S
H504 C481 0.950 . S
H505 C483 0.950 . S
C506 C507 1.349 . S
C506 C508 1.327 . S
C506 H531 0.950 . S
C507 C506 1.349 . S
C507 C523 1.349 . S
C508 C506 1.327 . S
C508 C527 1.429 . S
C508 H532 0.950 . S
C509 C526 1.574 . S
C509 C528 1.368 . S
C509 H533 0.949 . S
H510 C514 0.949 . S
C511 C512 1.349 . S
C511 C513 1.327 . S
C511 H534 0.950 . S
C512 C511 1.349 . S
C512 C524 1.349 . S
C513 C511 1.327 . S
C513 C529 1.429 . S
C513 H535 0.950 . S
C514 H510 0.949 . S
C514 C522 1.574 . S
C514 C530 1.368 . S
H515 C523 0.950 . S
H516 C521 0.950 . S
H517 C522 0.949 . S
H518 C524 0.950 . S
H519 C525 0.950 . S
H520 C526 0.949 . S
C521 H516 0.950 . S
C521 C523 1.327 . S
C521 C527 1.429 . S
C522 C514 1.574 . S
C522 H517 0.949 . S
C522 C528 1.368 . S
C523 C507 1.349 . S
C523 H515 0.950 . S
C523 C521 1.327 . S
C524 C512 1.349 . S
C524 H518 0.950 . S
C524 C525 1.327 . S
C525 H519 0.950 . S
C525 C524 1.327 . S
C525 C529 1.429 . S
C526 C509 1.574 . S
C526 H520 0.949 . S
C526 C530 1.368 . S
C527 C508 1.429 . S
C527 C521 1.429 . S
C527 C528 1.523 . S
C528 C509 1.368 . S
C528 C522 1.368 . S
C528 C527 1.523 . S
C529 C513 1.429 . S
C529 C525 1.429 . S
C529 C530 1.523 . S
C530 C514 1.368 . S
C530 C526 1.368 . S
C530 C529 1.523 . S
H531 C506 0.950 . S
H532 C508 0.950 . S
H533 C509 0.949 . S
H534 C511 0.950 . S
H535 C513 0.950 . S
C536 C537 1.349 . S
C536 C538 1.327 . S
C536 H561 0.950 . S
C537 C536 1.349 . S
C537 C553 1.349 . S
C538 C536 1.327 . S
C538 C557 1.429 . S
C538 H562 0.950 . S
C539 C556 1.574 . S
C539 C558 1.368 . S
C539 H563 0.949 . S
H540 C544 0.949 . S
C541 C542 1.349 . S
C541 C543 1.327 . S
C541 H564 0.950 . S
C542 C541 1.349 . S
C542 C554 1.349 . S
C543 C541 1.327 . S
C543 C559 1.429 . S
C543 H565 0.950 . S
C544 H540 0.949 . S
C544 C552 1.574 . S
C544 C560 1.368 . S
H545 C553 0.950 . S
H546 C551 0.950 . S
H547 C552 0.949 . S
H548 C554 0.950 . S
H549 C555 0.950 . S
H550 C556 0.949 . S
C551 H546 0.950 . S
C551 C553 1.327 . S
C551 C557 1.429 . S
C552 C544 1.574 . S
C552 H547 0.949 . S
C552 C558 1.368 . S
C553 C537 1.349 . S
C553 H545 0.950 . S
C553 C551 1.327 . S
C554 C542 1.349 . S
C554 H548 0.950 . S
C554 C555 1.327 . S
C555 H549 0.950 . S
C555 C554 1.327 . S
C555 C559 1.429 . S
C556 C539 1.574 . S
C556 H550 0.949 . S
C556 C560 1.368 . S
C557 C538 1.429 . S
C557 C551 1.429 . S
C557 C558 1.523 . S
C558 C539 1.368 . S
C558 C552 1.368 . S
C558 C557 1.523 . S
C559 C543 1.429 . S
C559 C555 1.429 . S
C559 C560 1.523 . S
C560 C544 1.368 . S
C560 C556 1.368 . S
C560 C559 1.523 . S
H561 C536 0.950 . S
H562 C538 0.950 . S
H563 C539 0.949 . S
H564 C541 0.950 . S
H565 C543 0.950 . S
C566 C567 1.349 . S
C566 C568 1.327 . S
C566 H591 0.950 . S
C567 C566 1.349 . S
C567 C583 1.349 . S
C568 C566 1.327 . S
C568 C587 1.429 . S
C568 H592 0.950 . S
C569 C586 1.574 . S
C569 C588 1.368 . S
C569 H593 0.949 . S
H570 C574 0.949 . S
C571 C572 1.349 . S
C571 C573 1.327 . S
C571 H594 0.950 . S
C572 C571 1.349 . S
C572 C584 1.349 . S
C573 C571 1.327 . S
C573 C589 1.429 . S
C573 H595 0.950 . S
C574 H570 0.949 . S
C574 C582 1.574 . S
C574 C590 1.368 . S
H575 C583 0.950 . S
H576 C581 0.950 . S
H577 C582 0.949 . S
H578 C584 0.950 . S
H579 C585 0.950 . S
H580 C586 0.949 . S
C581 H576 0.950 . S
C581 C583 1.327 . S
C581 C587 1.429 . S
C582 C574 1.574 . S
C582 H577 0.949 . S
C582 C588 1.368 . S
C583 C567 1.349 . S
C583 H575 0.950 . S
C583 C581 1.327 . S
C584 C572 1.349 . S
C584 H578 0.950 . S
C584 C585 1.327 . S
C585 H579 0.950 . S
C585 C584 1.327 . S
C585 C589 1.429 . S
C586 C569 1.574 . S
C586 H580 0.949 . S
C586 C590 1.368 . S
C587 C568 1.429 . S
C587 C581 1.429 . S
C587 C588 1.523 . S
C588 C569 1.368 . S
C588 C582 1.368 . S
C588 C587 1.523 . S
C589 C573 1.429 . S
C589 C585 1.429 . S
C589 C590 1.523 . S
C590 C574 1.368 . S
C590 C586 1.368 . S
C590 C589 1.523 . S
H591 C566 0.950 . S
H592 C568 0.950 . S
H593 C569 0.949 . S
H594 C571 0.950 . S
H595 C573 0.950 . S
C596 C597 1.349 . S
C596 C598 1.327 . S
C596 H621 0.950 . S
C597 C596 1.349 . S
C597 C613 1.349 . S
C598 C596 1.327 . S
C598 C617 1.429 . S
C598 H622 0.950 . S
C599 C616 1.574 . S
C599 C618 1.368 . S
C599 H623 0.949 . S
H600 C604 0.949 . S
C601 C602 1.349 . S
C601 C603 1.327 . S
C601 H624 0.950 . S
C602 C601 1.349 . S
C602 C614 1.349 . S
C603 C601 1.327 . S
C603 C619 1.429 . S
C603 H625 0.950 . S
C604 H600 0.949 . S
C604 C612 1.574 . S
C604 C620 1.368 . S
H605 C613 0.950 . S
H606 C611 0.950 . S
H607 C612 0.949 . S
H608 C614 0.950 . S
H609 C615 0.950 . S
H610 C616 0.949 . S
C611 H606 0.950 . S
C611 C613 1.327 . S
C611 C617 1.429 . S
C612 C604 1.574 . S
C612 H607 0.949 . S
C612 C618 1.368 . S
C613 C597 1.349 . S
C613 H605 0.950 . S
C613 C611 1.327 . S
C614 C602 1.349 . S
C614 H608 0.950 . S
C614 C615 1.327 . S
C615 H609 0.950 . S
C615 C614 1.327 . S
C615 C619 1.429 . S
C616 C599 1.574 . S
C616 H610 0.949 . S
C616 C620 1.368 . S
C617 C598 1.429 . S
C617 C611 1.429 . S
C617 C618 1.523 . S
C618 C599 1.368 . S
C618 C612 1.368 . S
C618 C617 1.523 . S
C619 C603 1.429 . S
C619 C615 1.429 . S
C619 C620 1.523 . S
C620 C604 1.368 . S
C620 C616 1.368 . S
C620 C619 1.523 . S
H621 C596 0.950 . S
H622 C598 0.950 . S
H623 C599 0.949 . S
H624 C601 0.950 . S
H625 C603 0.950 . S
C626 C627 1.349 . S
C626 C628 1.327 . S
C626 H651 0.950 . S
C627 C626 1.349 . S
C627 C643 1.349 . S
C628 C626 1.327 . S
C628 C647 1.429 . S
C628 H652 0.950 . S
C629 C646 1.574 . S
C629 C648 1.368 . S
C629 H653 0.949 . S
H630 C634 0.949 . S
C631 C632 1.349 . S
C631 C633 1.327 . S
C631 H654 0.950 . S
C632 C631 1.349 . S
C632 C644 1.349 . S
C633 C631 1.327 . S
C633 C649 1.429 . S
C633 H655 0.950 . S
C634 H630 0.949 . S
C634 C642 1.574 . S
C634 C650 1.368 . S
H635 C643 0.950 . S
H636 C641 0.950 . S
H637 C642 0.949 . S
H638 C644 0.950 . S
H639 C645 0.950 . S
H640 C646 0.949 . S
C641 H636 0.950 . S
C641 C643 1.327 . S
C641 C647 1.429 . S
C642 C634 1.574 . S
C642 H637 0.949 . S
C642 C648 1.368 . S
C643 C627 1.349 . S
C643 H635 0.950 . S
C643 C641 1.327 . S
C644 C632 1.349 . S
C644 H638 0.950 . S
C644 C645 1.327 . S
C645 H639 0.950 . S
C645 C644 1.327 . S
C645 C649 1.429 . S
C646 C629 1.574 . S
C646 H640 0.949 . S
C646 C650 1.368 . S
C647 C628 1.429 . S
C647 C641 1.429 . S
C647 C648 1.523 . S
C648 C629 1.368 . S
C648 C642 1.368 . S
C648 C647 1.523 . S
C649 C633 1.429 . S
C649 C645 1.429 . S
C649 C650 1.523 . S
C650 C634 1.368 . S
C650 C646 1.368 . S
C650 C649 1.523 . S
H651 C626 0.950 . S
H652 C628 0.950 . S
H653 C629 0.949 . S
H654 C631 0.950 . S
H655 C633 0.950 . S
C656 C657 1.349 . S
C656 C658 1.327 . S
C656 H681 0.950 . S
C657 C656 1.349 . S
C657 C673 1.349 . S
C658 C656 1.327 . S
C658 C677 1.429 . S
C658 H682 0.950 . S
C659 C676 1.574 . S
C659 C678 1.368 . S
C659 H683 0.949 . S
H660 C664 0.949 . S
C661 C662 1.349 . S
C661 C663 1.327 . S
C661 H684 0.950 . S
C662 C661 1.349 . S
C662 C674 1.349 . S
C663 C661 1.327 . S
C663 C679 1.429 . S
C663 H685 0.950 . S
C664 H660 0.949 . S
C664 C672 1.574 . S
C664 C680 1.368 . S
H665 C673 0.950 . S
H666 C671 0.950 . S
H667 C672 0.949 . S
H668 C674 0.950 . S
H669 C675 0.950 . S
H670 C676 0.949 . S
C671 H666 0.950 . S
C671 C673 1.327 . S
C671 C677 1.429 . S
C672 C664 1.574 . S
C672 H667 0.949 . S
C672 C678 1.368 . S
C673 C657 1.349 . S
C673 H665 0.950 . S
C673 C671 1.327 . S
C674 C662 1.349 . S
C674 H668 0.950 . S
C674 C675 1.327 . S
C675 H669 0.950 . S
C675 C674 1.327 . S
C675 C679 1.429 . S
C676 C659 1.574 . S
C676 H670 0.949 . S
C676 C680 1.368 . S
C677 C658 1.429 . S
C677 C671 1.429 . S
C677 C678 1.523 . S
C678 C659 1.368 . S
C678 C672 1.368 . S
C678 C677 1.523 . S
C679 C663 1.429 . S
C679 C675 1.429 . S
C679 C680 1.523 . S
C680 C664 1.368 . S
C680 C676 1.368 . S
C680 C679 1.523 . S
H681 C656 0.950 . S
H682 C658 0.950 . S
H683 C659 0.949 . S
H684 C661 0.950 . S
H685 C663 0.950 . S
C686 C687 1.349 . S
C686 C688 1.327 . S
C686 H711 0.950 . S
C687 C686 1.349 . S
C687 C703 1.349 . S
C688 C686 1.327 . S
C688 C707 1.429 . S
C688 H712 0.950 . S
C689 C706 1.574 . S
C689 C708 1.368 . S
C689 H713 0.949 . S
H690 C694 0.949 . S
C691 C692 1.349 . S
C691 C693 1.327 . S
C691 H714 0.950 . S
C692 C691 1.349 . S
C692 C704 1.349 . S
C693 C691 1.327 . S
C693 C709 1.429 . S
C693 H715 0.950 . S
C694 H690 0.949 . S
C694 C702 1.574 . S
C694 C710 1.368 . S
H695 C703 0.950 . S
H696 C701 0.950 . S
H697 C702 0.949 . S
H698 C704 0.950 . S
H699 C705 0.950 . S
H700 C706 0.949 . S
C701 H696 0.950 . S
C701 C703 1.327 . S
C701 C707 1.429 . S
C702 C694 1.574 . S
C702 H697 0.949 . S
C702 C708 1.368 . S
C703 C687 1.349 . S
C703 H695 0.950 . S
C703 C701 1.327 . S
C704 C692 1.349 . S
C704 H698 0.950 . S
C704 C705 1.327 . S
C705 H699 0.950 . S
C705 C704 1.327 . S
C705 C709 1.429 . S
C706 C689 1.574 . S
C706 H700 0.949 . S
C706 C710 1.368 . S
C707 C688 1.429 . S
C707 C701 1.429 . S
C707 C708 1.523 . S
C708 C689 1.368 . S
C708 C702 1.368 . S
C708 C707 1.523 . S
C709 C693 1.429 . S
C709 C705 1.429 . S
C709 C710 1.523 . S
C710 C694 1.368 . S
C710 C706 1.368 . S
C710 C709 1.523 . S
H711 C686 0.950 . S
H712 C688 0.950 . S
H713 C689 0.949 . S
H714 C691 0.950 . S
H715 C693 0.950 . S
C716 C717 1.349 . S
C716 C718 1.327 . S
C716 H741 0.950 . S
C717 C716 1.349 . S
C717 C733 1.349 . S
C718 C716 1.327 . S
C718 C737 1.429 . S
C718 H742 0.950 . S
C719 C736 1.574 . S
C719 C738 1.368 . S
C719 H743 0.949 . S
H720 C724 0.949 . S
C721 C722 1.349 . S
C721 C723 1.327 . S
C721 H744 0.953 1_554 S
C722 C721 1.349 . S
C722 C734 1.349 . S
C723 C721 1.327 . S
C723 C739 1.429 . S
C723 H745 0.950 . S
C724 H720 0.949 . S
C724 C732 1.574 . S
C724 C740 1.368 . S
H725 C733 0.950 . S
H726 C731 0.950 . S
H727 C732 0.949 . S
H728 C734 0.950 . S
H729 C735 0.950 . S
H730 C736 0.949 . S
C731 H726 0.950 . S
C731 C733 1.327 . S
C731 C737 1.429 . S
C732 C724 1.574 . S
C732 H727 0.949 . S
C732 C738 1.368 . S
C733 C717 1.349 . S
C733 H725 0.950 . S
C733 C731 1.327 . S
C734 C722 1.349 . S
C734 H728 0.950 . S
C734 C735 1.327 . S
C735 H729 0.950 . S
C735 C734 1.327 . S
C735 C739 1.429 . S
C736 C719 1.574 . S
C736 H730 0.949 . S
C736 C740 1.368 . S
C737 C718 1.429 . S
C737 C731 1.429 . S
C737 C738 1.523 . S
C738 C719 1.368 . S
C738 C732 1.368 . S
C738 C737 1.523 . S
C739 C723 1.429 . S
C739 C735 1.429 . S
C739 C740 1.523 . S
C740 C724 1.368 . S
C740 C736 1.368 . S
C740 C739 1.523 . S
H741 C716 0.950 . S
H742 C718 0.950 . S
H743 C719 0.949 . S
H744 C721 0.953 1_556 S
H745 C723 0.950 . S
C746 C747 1.349 . S
C746 C748 1.327 . S
C746 H771 0.950 . S
C747 C746 1.349 . S
C747 C763 1.349 . S
C748 C746 1.327 . S
C748 C767 1.429 . S
C748 H772 0.950 . S
C749 C766 1.574 . S
C749 C768 1.368 . S
C749 H773 0.949 . S
H750 C754 0.949 . S
C751 C752 1.349 . S
C751 C753 1.327 . S
C751 H774 0.950 . S
C752 C751 1.349 . S
C752 C764 1.349 . S
C753 C751 1.327 . S
C753 C769 1.429 . S
C753 H775 0.950 . S
C754 H750 0.949 . S
C754 C762 1.574 . S
C754 C770 1.368 . S
H755 C763 0.950 . S
H756 C761 0.950 . S
H757 C762 0.949 . S
H758 C764 0.950 . S
H759 C765 0.950 . S
H760 C766 0.949 . S
C761 H756 0.950 . S
C761 C763 1.327 . S
C761 C767 1.429 . S
C762 C754 1.574 . S
C762 H757 0.949 . S
C762 C768 1.368 . S
C763 C747 1.349 . S
C763 H755 0.950 . S
C763 C761 1.327 . S
C764 C752 1.349 . S
C764 H758 0.950 . S
C764 C765 1.327 . S
C765 H759 0.950 . S
C765 C764 1.327 . S
C765 C769 1.429 . S
C766 C749 1.574 . S
C766 H760 0.949 . S
C766 C770 1.368 . S
C767 C748 1.429 . S
C767 C761 1.429 . S
C767 C768 1.523 . S
C768 C749 1.368 . S
C768 C762 1.368 . S
C768 C767 1.523 . S
C769 C753 1.429 . S
C769 C765 1.429 . S
C769 C770 1.523 . S
C770 C754 1.368 . S
C770 C766 1.368 . S
C770 C769 1.523 . S
H771 C746 0.950 . S
H772 C748 0.950 . S
H773 C749 0.949 . S
H774 C751 0.950 . S
H775 C753 0.950 . S
C776 C777 1.349 . S
C776 C778 1.327 . S
C776 H801 0.950 . S
C777 C776 1.349 . S
C777 C793 1.349 . S
C778 C776 1.327 . S
C778 C797 1.429 . S
C778 H802 0.950 . S
C779 C796 1.574 . S
C779 C798 1.368 . S
C779 H803 0.949 . S
H780 C784 0.949 . S
C781 C782 1.349 . S
C781 C783 1.327 . S
C781 H804 0.950 . S
C782 C781 1.349 . S
C782 C794 1.349 . S
C783 C781 1.327 . S
C783 C799 1.429 . S
C783 H805 0.950 . S
C784 H780 0.949 . S
C784 C792 1.574 . S
C784 C800 1.368 . S
H785 C793 0.950 . S
H786 C791 0.950 . S
H787 C792 0.949 . S
H788 C794 0.950 . S
H789 C795 0.950 . S
H790 C796 0.949 . S
C791 H786 0.950 . S
C791 C793 1.327 . S
C791 C797 1.429 . S
C792 C784 1.574 . S
C792 H787 0.949 . S
C792 C798 1.368 . S
C793 C777 1.349 . S
C793 H785 0.950 . S
C793 C791 1.327 . S
C794 C782 1.349 . S
C794 H788 0.950 . S
C794 C795 1.327 . S
C795 H789 0.950 . S
C795 C794 1.327 . S
C795 C799 1.429 . S
C796 C779 1.574 . S
C796 H790 0.949 . S
C796 C800 1.368 . S
C797 C778 1.429 . S
C797 C791 1.429 . S
C797 C798 1.523 . S
C798 C779 1.368 . S
C798 C792 1.368 . S
C798 C797 1.523 . S
C799 C783 1.429 . S
C799 C795 1.429 . S
C799 C800 1.523 . S
C800 C784 1.368 . S
C800 C796 1.368 . S
C800 C799 1.523 . S
H801 C776 0.950 . S
H802 C778 0.950 . S
H803 C779 0.949 . S
H804 C781 0.950 . S
H805 C783 0.950 . S
C806 C807 1.349 . S
C806 C808 1.327 . S
C806 H831 0.950 . S
C807 C806 1.349 . S
C807 C823 1.349 . S
C808 C806 1.327 . S
C808 C827 1.429 . S
C808 H832 0.950 . S
C809 C826 1.574 . S
C809 C828 1.368 . S
C809 H833 0.949 . S
H810 C814 0.949 . S
C811 C812 1.349 . S
C811 C813 1.327 . S
C811 H834 0.950 . S
C812 C811 1.349 . S
C812 C824 1.349 . S
C813 C811 1.327 . S
C813 C829 1.429 . S
C813 H835 0.950 . S
C814 H810 0.949 . S
C814 C822 1.574 . S
C814 C830 1.368 . S
H815 C823 0.950 . S
H816 C821 0.950 . S
H817 C822 0.949 . S
H818 C824 0.950 . S
H819 C825 0.950 . S
H820 C826 0.949 . S
C821 H816 0.950 . S
C821 C823 1.327 . S
C821 C827 1.429 . S
C822 C814 1.574 . S
C822 H817 0.949 . S
C822 C828 1.368 . S
C823 C807 1.349 . S
C823 H815 0.950 . S
C823 C821 1.327 . S
C824 C812 1.349 . S
C824 H818 0.950 . S
C824 C825 1.327 . S
C825 H819 0.950 . S
C825 C824 1.327 . S
C825 C829 1.429 . S
C826 C809 1.574 . S
C826 H820 0.949 . S
C826 C830 1.368 . S
C827 C808 1.429 . S
C827 C821 1.429 . S
C827 C828 1.523 . S
C828 C809 1.368 . S
C828 C822 1.368 . S
C828 C827 1.523 . S
C829 C813 1.429 . S
C829 C825 1.429 . S
C829 C830 1.523 . S
C830 C814 1.368 . S
C830 C826 1.368 . S
C830 C829 1.523 . S
H831 C806 0.950 . S
H832 C808 0.950 . S
H833 C809 0.949 . S
H834 C811 0.950 . S
H835 C813 0.950 . S
C836 C837 1.349 . S
C836 C838 1.327 . S
C836 H861 0.950 . S
C837 C836 1.349 . S
C837 C853 1.349 . S
C838 C836 1.327 . S
C838 C857 1.429 . S
C838 H862 0.950 . S
C839 C856 1.574 . S
C839 C858 1.368 . S
C839 H863 0.949 . S
H840 C844 0.949 . S
C841 C842 1.349 . S
C841 C843 1.327 . S
C841 H864 0.950 . S
C842 C841 1.349 . S
C842 C854 1.349 . S
C843 C841 1.327 . S
C843 C859 1.429 . S
C843 H865 0.950 . S
C844 H840 0.949 . S
C844 C852 1.574 . S
C844 C860 1.368 . S
H845 C853 0.950 . S
H846 C851 0.950 . S
H847 C852 0.949 . S
H848 C854 0.950 . S
H849 C855 0.950 . S
H850 C856 0.949 . S
C851 H846 0.950 . S
C851 C853 1.327 . S
C851 C857 1.429 . S
C852 C844 1.574 . S
C852 H847 0.949 . S
C852 C858 1.368 . S
C853 C837 1.349 . S
C853 H845 0.950 . S
C853 C851 1.327 . S
C854 C842 1.349 . S
C854 H848 0.950 . S
C854 C855 1.327 . S
C855 H849 0.950 . S
C855 C854 1.327 . S
C855 C859 1.429 . S
C856 C839 1.574 . S
C856 H850 0.949 . S
C856 C860 1.368 . S
C857 C838 1.429 . S
C857 C851 1.429 . S
C857 C858 1.523 . S
C858 C839 1.368 . S
C858 C852 1.368 . S
C858 C857 1.523 . S
C859 C843 1.429 . S
C859 C855 1.429 . S
C859 C860 1.523 . S
C860 C844 1.368 . S
C860 C856 1.368 . S
C860 C859 1.523 . S
H861 C836 0.950 . S
H862 C838 0.950 . S
H863 C839 0.949 . S
H864 C841 0.950 . S
H865 C843 0.950 . S
C866 C867 1.349 . S
C866 C868 1.327 . S
C866 H891 0.950 . S
C867 C866 1.349 . S
C867 C883 1.349 . S
C868 C866 1.327 . S
C868 C887 1.429 . S
C868 H892 0.950 . S
C869 C886 1.574 . S
C869 C888 1.368 . S
C869 H893 0.949 . S
H870 C874 0.949 . S
C871 C872 1.349 . S
C871 C873 1.327 . S
C871 H894 0.950 . S
C872 C871 1.349 . S
C872 C884 1.349 . S
C873 C871 1.327 . S
C873 C889 1.429 . S
C873 H895 0.950 . S
C874 H870 0.949 . S
C874 C882 1.574 . S
C874 C890 1.368 . S
H875 C883 0.950 . S
H876 C881 0.950 . S
H877 C882 0.949 . S
H878 C884 0.950 . S
H879 C885 0.950 . S
H880 C886 0.949 . S
C881 H876 0.950 . S
C881 C883 1.327 . S
C881 C887 1.429 . S
C882 C874 1.574 . S
C882 H877 0.949 . S
C882 C888 1.368 . S
C883 C867 1.349 . S
C883 H875 0.950 . S
C883 C881 1.327 . S
C884 C872 1.349 . S
C884 H878 0.950 . S
C884 C885 1.327 . S
C885 H879 0.950 . S
C885 C884 1.327 . S
C885 C889 1.429 . S
C886 C869 1.574 . S
C886 H880 0.949 . S
C886 C890 1.368 . S
C887 C868 1.429 . S
C887 C881 1.429 . S
C887 C888 1.523 . S
C888 C869 1.368 . S
C888 C882 1.368 . S
C888 C887 1.523 . S
C889 C873 1.429 . S
C889 C885 1.429 . S
C889 C890 1.523 . S
C890 C874 1.368 . S
C890 C886 1.368 . S
C890 C889 1.523 . S
H891 C866 0.950 . S
H892 C868 0.950 . S
H893 C869 0.949 . S
H894 C871 0.950 . S
H895 C873 0.950 . S
C177 C6 1.532 . S
C182 C98 1.533 . S
C207 C18 1.685 . S
C212 C117 1.653 . S
C242 C154 1.793 . S
C237 C28 1.811 . S
C267 C40 1.030 . S
C272 C164 1.010 . S
C302 C134 2.187 . S
C297 C9 2.157 . S
C332 C104 1.473 . S
C327 C16 1.524 . S
C362 C175 1.455 . S
C357 C30 1.473 . S
C392 C145 0.981 . S
C387 C42 0.996 . S
C417 C4 1.664 . S
C422 C158 1.668 . S
C452 C125 1.833 . S
C447 C33 1.893 . S
C477 C45 1.511 . S
C482 C115 1.501 . S
C507 C21 1.450 . S
C512 C137 1.446 . S
C542 C97 1.555 . S
C537 C57 1.563 . S
C567 C66 1.686 . S
C572 C118 1.641 . S
C597 C76 1.856 . S
C602 C155 1.832 . S
C627 C88 0.961 . S
C632 C165 0.946 . S
C657 C54 2.128 . S
C662 C135 2.155 . S
C692 C105 1.539 . S
C687 C64 1.588 . S
C722 C174 1.343 . S
C717 C78 1.363 . S
C752 C144 1.003 . S
C747 C93 1.020 . S
C777 C52 1.611 . S
C782 C157 1.633 . S
C812 C124 1.825 . S
C807 C81 1.886 . S
C842 C114 1.481 . S
C837 C90 1.490 . S
C867 C69 1.479 . S
C872 C138 1.473 . S
