# Generated by pormake.
# Topology nom, (4,4)-cn, num edge types: 1
# Building blocks:
#     Node 0, Type 0, BuildingBlock: NAWXER_clean_linker_0, # of connection points: 4
#     Node 1, Type 0, BuildingBlock: NAWXER_clean_linker_0, # of connection points: 4
#     Node 2, Type 0, BuildingBlock: NAWXER_clean_linker_0, # of connection points: 4
#     Node 3, Type 0, BuildingBlock: NAWXER_clean_linker_0, # of connection points: 4
#     Node 4, Type 0, BuildingBlock: NAWXER_clean_linker_0, # of connection points: 4
#     Node 5, Type 0, BuildingBlock: NAWXER_clean_linker_0, # of connection points: 4
#     Node 6, Type 1, BuildingBlock: GALJAG_clean_sbu_0, # of connection points: 4
#     Node 7, Type 1, BuildingBlock: GALJAG_clean_sbu_0, # of connection points: 4
#     Node 8, Type 1, BuildingBlock: GALJAG_clean_sbu_0, # of connection points: 4
#     Node 9, Type 1, BuildingBlock: GALJAG_clean_sbu_0, # of connection points: 4
#     Node 10, Type 1, BuildingBlock: GALJAG_clean_sbu_0, # of connection points: 4
#     Node 11, Type 1, BuildingBlock: GALJAG_clean_sbu_0, # of connection points: 4
#     Edge 12, Type (0, 1), BuildingBlock: XUDNAN_clean_linker_2, # of connection points: 2
#     Edge 13, Type (0, 1), BuildingBlock: XUDNAN_clean_linker_2, # of connection points: 2
#     Edge 14, Type (0, 1), BuildingBlock: XUDNAN_clean_linker_2, # of connection points: 2
#     Edge 15, Type (0, 1), BuildingBlock: XUDNAN_clean_linker_2, # of connection points: 2
#     Edge 16, Type (0, 1), BuildingBlock: XUDNAN_clean_linker_2, # of connection points: 2
#     Edge 17, Type (0, 1), BuildingBlock: XUDNAN_clean_linker_2, # of connection points: 2
#     Edge 18, Type (0, 1), BuildingBlock: XUDNAN_clean_linker_2, # of connection points: 2
#     Edge 19, Type (0, 1), BuildingBlock: XUDNAN_clean_linker_2, # of connection points: 2
#     Edge 20, Type (0, 1), BuildingBlock: XUDNAN_clean_linker_2, # of connection points: 2
#     Edge 21, Type (0, 1), BuildingBlock: XUDNAN_clean_linker_2, # of connection points: 2
#     Edge 22, Type (0, 1), BuildingBlock: XUDNAN_clean_linker_2, # of connection points: 2
#     Edge 23, Type (0, 1), BuildingBlock: XUDNAN_clean_linker_2, # of connection points: 2
#     Edge 24, Type (0, 1), BuildingBlock: XUDNAN_clean_linker_2, # of connection points: 2
#     Edge 25, Type (0, 1), BuildingBlock: XUDNAN_clean_linker_2, # of connection points: 2
#     Edge 26, Type (0, 1), BuildingBlock: XUDNAN_clean_linker_2, # of connection points: 2
#     Edge 27, Type (0, 1), BuildingBlock: XUDNAN_clean_linker_2, # of connection points: 2
#     Edge 28, Type (0, 1), BuildingBlock: XUDNAN_clean_linker_2, # of connection points: 2
#     Edge 29, Type (0, 1), BuildingBlock: XUDNAN_clean_linker_2, # of connection points: 2
#     Edge 30, Type (0, 1), BuildingBlock: XUDNAN_clean_linker_2, # of connection points: 2
#     Edge 31, Type (0, 1), BuildingBlock: XUDNAN_clean_linker_2, # of connection points: 2
#     Edge 32, Type (0, 1), BuildingBlock: XUDNAN_clean_linker_2, # of connection points: 2
#     Edge 33, Type (0, 1), BuildingBlock: XUDNAN_clean_linker_2, # of connection points: 2
#     Edge 34, Type (0, 1), BuildingBlock: XUDNAN_clean_linker_2, # of connection points: 2
#     Edge 35, Type (0, 1), BuildingBlock: XUDNAN_clean_linker_2, # of connection points: 2
# Relax obj value: 0.004
# Max RMSD: 0.115
# Mean RMSD: 0.086
data_MOF--net-nom--node1-GALJAG_clean_sbu_0--node2-NAWXER_clean_linker_0--edge1-XUDNAN_clean_linker_2
_symmetry_space_group_name_H-M    P1
_symmetry_Int_Tables_number       1
_symmetry_cell_setting            triclinic
loop_
_symmetry_equiv_pos_as_xyz
'x, y, z'
_cell_length_a     51.782348
_cell_length_b     51.767466
_cell_length_c     59.014694
_cell_angle_alpha  90.070218
_cell_angle_beta   89.909365
_cell_angle_gamma 119.89297
loop_
_atom_site_label
_atom_site_type_symbol
_atom_site_fract_x
_atom_site_fract_y
_atom_site_fract_z
_atom_type_partial_charge
C0 C 0.91349 0.52048 0.33447 0.0
C1 C 0.90152 0.50326 0.3541 0.0
C2 C 0.944 0.5342 0.33003 0.0
C3 C 0.963 0.53008 0.34473 0.0
C4 C 0.92065 0.50041 0.36944 0.0
C5 C 0.95113 0.51367 0.36476 0.0
C6 C 0.99533 0.54381 0.33983 0.0
C7 C 0.94894 0.48169 0.28162 0.0
C8 C 0.95387 0.49557 0.26031 0.0
C9 C 0.96609 0.49737 0.30037 0.0
C10 C 0.98823 0.52745 0.29834 0.0
C11 C 0.97633 0.52557 0.25827 0.0
C12 C 0.9934 0.54128 0.27706 0.0
C13 C 0.00693 0.54425 0.31801 0.0
C14 C 0.13141 0.60457 0.30412 0.0
C15 C 0.14493 0.63521 0.30868 0.0
C16 C 0.10289 0.58497 0.31239 0.0
C17 C 0.08777 0.59556 0.32585 0.0
C18 C 0.13001 0.64574 0.32248 0.0
C19 C 0.10172 0.62604 0.33112 0.0
C20 C 0.05625 0.57547 0.33198 0.0
C21 C 0.07042 0.6052 0.41288 0.0
C22 C 0.09654 0.60356 0.41577 0.0
C23 C 0.0544 0.5961 0.39261 0.0
C24 C 0.06395 0.58502 0.37468 0.0
C25 C 0.10623 0.59267 0.39774 0.0
C26 C 0.08997 0.58321 0.37754 0.0
C27 C 0.04491 0.57279 0.3542 0.0
H28 H 0.89922 0.52342 0.3226 0.0
H29 H 0.95265 0.54794 0.31504 0.0
H30 H 0.91188 0.48725 0.3847 0.0
H31 H 0.96536 0.51062 0.37659 0.0
H32 H 0.93169 0.4587 0.28388 0.0
H33 H 0.96214 0.4859 0.31643 0.0
H34 H 0.9811 0.53682 0.24206 0.0
H35 H 0.0106 0.56434 0.27498 0.0
H36 H 0.1424 0.59597 0.29338 0.0
H37 H 0.09237 0.56158 0.30793 0.0
H38 H 0.14003 0.66929 0.32624 0.0
H39 H 0.09024 0.63479 0.34113 0.0
H40 H 0.0618 0.6128 0.42648 0.0
H41 H 0.0342 0.59734 0.39109 0.0
H42 H 0.12632 0.59124 0.39921 0.0
H43 H 0.09739 0.57369 0.36449 0.0
N44 N 0.01484 0.55749 0.35711 0.0
N45 N 0.03688 0.56062 0.31489 0.0
C46 C 0.41929 0.90683 0.50886 0.0
C47 C 0.4316 0.8975 0.526 0.0
C48 C 0.43544 0.93567 0.5 0.0
C49 C 0.46444 0.95541 0.50777 0.0
C50 C 0.46092 0.91679 0.53313 0.0
C51 C 0.47717 0.9454 0.52408 0.0
C52 C 0.47997 0.98749 0.50172 0.0
C53 C 0.47334 0.94462 0.43373 0.0
C54 C 0.4548 0.94788 0.41794 0.0
C55 C 0.48054 0.96012 0.45429 0.0
C56 C 0.46945 0.97927 0.45946 0.0
C57 C 0.44294 0.96633 0.42362 0.0
C58 C 0.45051 0.98214 0.44402 0.0
C59 C 0.47982 0.99843 0.47983 0.0
C60 C 0.56312 0.13015 0.48935 0.0
C61 C 0.54632 0.14196 0.47982 0.0
C62 C 0.5501 0.09967 0.49368 0.0
C63 C 0.51993 0.0804 0.48873 0.0
C64 C 0.5164 0.1224 0.47406 0.0
C65 C 0.50338 0.09186 0.47838 0.0
C66 C 0.50566 0.04828 0.49404 0.0
C67 C 0.5306 0.09729 0.56111 0.0
C68 C 0.55046 0.09211 0.57395 0.0
C69 C 0.51627 0.07965 0.54214 0.0
C70 C 0.52175 0.05671 0.53557 0.0
C71 C 0.55531 0.06869 0.56758 0.0
C72 C 0.54105 0.05117 0.54867 0.0
C73 C 0.50679 0.03739 0.51574 0.0
H74 H 0.39656 0.89248 0.50332 0.0
H75 H 0.42453 0.94296 0.48806 0.0
H76 H 0.47094 0.91002 0.54624 0.0
H77 H 0.4994 0.96015 0.53046 0.0
H78 H 0.4833 0.93105 0.42987 0.0
H79 H 0.49573 0.95805 0.46575 0.0
H80 H 0.42807 0.96892 0.41218 0.0
H81 H 0.44175 0.99683 0.44767 0.0
H82 H 0.58642 0.14447 0.49348 0.0
H83 H 0.56356 0.09118 0.50101 0.0
H84 H 0.50281 0.13078 0.46679 0.0
H85 H 0.48014 0.07727 0.47419 0.0
H86 H 0.5264 0.11517 0.56556 0.0
H87 H 0.50083 0.08386 0.5327 0.0
H88 H 0.56995 0.06367 0.57735 0.0
H89 H 0.54532 0.03334 0.54415 0.0
N90 N 0.49376 0.00747 0.51868 0.0
N91 N 0.49229 0.02838 0.47692 0.0
C92 C 0.54451 0.4689 0.6035 0.0
C93 C 0.52372 0.4503 0.58719 0.0
C94 C 0.53491 0.47478 0.62405 0.0
C95 C 0.50436 0.46225 0.62866 0.0
C96 C 0.49316 0.43655 0.59246 0.0
C97 C 0.48361 0.44276 0.61284 0.0
C98 C 0.49408 0.47258 0.64828 0.0
C99 C 0.52566 0.41545 0.68085 0.0
C100 C 0.54944 0.42961 0.6962 0.0
C101 C 0.51217 0.4307 0.67178 0.0
C102 C 0.52227 0.46054 0.6777 0.0
C103 C 0.55994 0.45967 0.70175 0.0
C104 C 0.54635 0.4749 0.69271 0.0
C105 C 0.50562 0.47548 0.67035 0.0
C106 C 0.44216 0.52556 0.72514 0.0
C107 C 0.46686 0.5494 0.73575 0.0
C108 C 0.44621 0.50989 0.70742 0.0
C109 C 0.47505 0.51778 0.70009 0.0
C110 C 0.49565 0.55701 0.72846 0.0
C111 C 0.49968 0.54121 0.71094 0.0
C112 C 0.48016 0.50118 0.68185 0.0
C113 C 0.43356 0.54457 0.64531 0.0
C114 C 0.4062 0.5235 0.63559 0.0
C115 C 0.45294 0.53567 0.65426 0.0
C116 C 0.44529 0.50559 0.65364 0.0
C117 C 0.39836 0.49328 0.63569 0.0
C118 C 0.41783 0.48451 0.64441 0.0
C119 C 0.46673 0.49605 0.66027 0.0
H120 H 0.56818 0.48016 0.59998 0.0
H121 H 0.55138 0.49042 0.63577 0.0
H122 H 0.4765 0.42151 0.58059 0.0
H123 H 0.45994 0.43287 0.61603 0.0
H124 H 0.51656 0.39217 0.67656 0.0
H125 H 0.49296 0.41867 0.6609 0.0
H126 H 0.57844 0.47136 0.71331 0.0
H127 H 0.55439 0.49781 0.69769 0.0
H128 H 0.41972 0.51922 0.7304 0.0
H129 H 0.42687 0.49144 0.69965 0.0
H130 H 0.51512 0.57495 0.73654 0.0
H131 H 0.52213 0.54746 0.70574 0.0
H132 H 0.44052 0.56806 0.64528 0.0
H133 H 0.47432 0.5524 0.66089 0.0
H134 H 0.37725 0.47634 0.62885 0.0
H135 H 0.41157 0.46118 0.64371 0.0
N136 N 0.47457 0.48236 0.64426 0.0
N137 N 0.49876 0.49029 0.68616 0.0
C138 C 0.90646 0.40962 0.82071 0.0
C139 C 0.8984 0.42098 0.80204 0.0
C140 C 0.93485 0.42586 0.83027 0.0
C141 C 0.95565 0.45377 0.82138 0.0
C142 C 0.91904 0.44935 0.79368 0.0
C143 C 0.94742 0.46543 0.80313 0.0
C144 C 0.98683 0.46963 0.82943 0.0
C145 C 0.93411 0.47677 0.88673 0.0
C146 C 0.93344 0.46136 0.90655 0.0
C147 C 0.95371 0.4806 0.86909 0.0
C148 C 0.9731 0.46908 0.8708 0.0
C149 C 0.95309 0.45003 0.90827 0.0
C150 C 0.97289 0.45408 0.89064 0.0
C151 C 0.99488 0.47451 0.85253 0.0
C152 C 0.12722 0.55623 0.84895 0.0
C153 C 0.13715 0.54325 0.8652 0.0
C154 C 0.09765 0.54148 0.8417 0.0
C155 C 0.07749 0.51302 0.85003 0.0
C156 C 0.11668 0.51503 0.87393 0.0
C157 C 0.0871 0.50013 0.86647 0.0
C158 C 0.04621 0.49701 0.84215 0.0
C159 C 0.10555 0.51144 0.78207 0.0
C160 C 0.10141 0.52685 0.76413 0.0
C161 C 0.08466 0.49947 0.79963 0.0
C162 C 0.05981 0.50364 0.79994 0.0
C163 C 0.07577 0.52956 0.76382 0.0
C164 C 0.05523 0.51812 0.78156 0.0
C165 C 0.03812 0.49293 0.81895 0.0
H166 H 0.89129 0.38768 0.82737 0.0
H167 H 0.94091 0.41608 0.84402 0.0
H168 H 0.9134 0.45904 0.77962 0.0
H169 H 0.96313 0.48691 0.79599 0.0
H170 H 0.91992 0.48648 0.88498 0.0
H171 H 0.95413 0.49315 0.85429 0.0
H172 H 0.95302 0.43778 0.92315 0.0
H173 H 0.98789 0.4453 0.89242 0.0
H174 H 0.14236 0.57776 0.84163 0.0
H175 H 0.09059 0.55226 0.82945 0.0
H176 H 0.12339 0.50459 0.88674 0.0
H177 H 0.07177 0.47838 0.87339 0.0
H178 H 0.12496 0.50871 0.7825 0.0
H179 H 0.08815 0.48732 0.81307 0.0
H180 H 0.07212 0.54143 0.75024 0.0
H181 H 0.03609 0.52133 0.78121 0.0
N182 N 0.00874 0.47931 0.81361 0.0
N183 N 0.02425 0.48764 0.85803 0.0
C184 C 0.51577 0.9085 0.98924 0.0
C185 C 0.48709 0.89591 0.97992 0.0
C186 C 0.53151 0.93868 0.99482 0.0
C187 C 0.51894 0.95688 0.99107 0.0
C188 C 0.47442 0.91407 0.97624 0.0
C189 C 0.49042 0.94446 0.98151 0.0
C190 C 0.53639 0.98907 0.9961 0.0
C191 C 0.50667 0.94705 0.06458 0.0
C192 C 0.52939 0.94789 0.07818 0.0
C193 C 0.51354 0.96325 0.04441 0.0
C194 C 0.54327 0.98084 0.03743 0.0
C195 C 0.55915 0.96509 0.07082 0.0
C196 C 0.56601 0.98168 0.0508 0.0
C197 C 0.5506 0.99993 0.0171 0.0
C198 C 0.61516 0.13366 0.00763 0.0
C199 C 0.64272 0.13983 0.01687 0.0
C200 C 0.59332 0.10431 1.00256 0.0
C201 C 0.59886 0.08072 0.00636 0.0
C202 C 0.64784 0.11602 0.02097 0.0
C203 C 0.62618 0.08686 0.01579 0.0
C204 C 0.57608 0.04928 1.0021 0.0
C205 C 0.59294 0.09618 0.93426 0.0
C206 C 0.56693 0.09289 0.92399 0.0
C207 C 0.59109 0.07869 0.95296 0.0
C208 C 0.5632 0.05793 0.96197 0.0
C209 C 0.5391 0.07152 0.93276 0.0
C210 C 0.5373 0.05426 0.95148 0.0
C211 C 0.56025 0.03863 0.98147 0.0
H212 H 0.52595 0.89493 0.99233 0.0
H213 H 0.55374 0.94793 1.00177 0.0
H214 H 0.4524 0.90485 0.96892 0.0
H215 H 0.4805 0.95822 0.97827 0.0
H216 H 0.48358 0.93467 0.06982 0.0
H217 H 0.49563 0.9628 0.03463 0.0
H218 H 0.57724 0.9659 0.08055 0.0
H219 H 0.58911 0.99516 0.04574 0.0
H220 H 0.61049 0.15148 1.00424 0.0
H221 H 0.57208 0.10007 0.9959 0.0
H222 H 0.66846 0.11978 0.02857 0.0
H223 H 0.63079 0.06899 0.01923 0.0
H224 H 0.61474 0.11244 0.92799 0.0
H225 H 0.61142 0.0813 0.96026 0.0
H226 H 0.5186 0.0678 0.92499 0.0
H227 H 0.51551 0.03803 0.95786 0.0
N228 N 0.54124 0.00883 0.97924 0.0
N229 N 0.57033 0.02949 0.01916 0.0
C230 C 0.5106 0.61437 0.17534 0.0
C231 C 0.49014 0.60413 0.19339 0.0
C232 C 0.52094 0.59621 0.16619 0.0
C233 C 0.51037 0.56719 0.17452 0.0
C234 C 0.47912 0.57494 0.20134 0.0
C235 C 0.48909 0.55668 0.19199 0.0
C236 C 0.52435 0.5493 0.1678 0.0
C237 C 0.48811 0.56432 0.10257 0.0
C238 C 0.50907 0.57759 0.08498 0.0
C239 C 0.49534 0.55415 0.12226 0.0
C240 C 0.52389 0.55759 0.12494 0.0
C241 C 0.53724 0.58008 0.08751 0.0
C242 C 0.54455 0.57032 0.10722 0.0
C243 C 0.53221 0.54644 0.14528 0.0
C244 C 0.5835 0.4649 0.15719 0.0
C245 C 0.6114 0.4813 0.14647 0.0
C246 C 0.56547 0.47752 0.16087 0.0
C247 C 0.57481 0.5067 0.15373 0.0
C248 C 0.62019 0.51024 0.13869 0.0
C249 C 0.60193 0.5227 0.14213 0.0
C250 C 0.55693 0.52101 0.15909 0.0
C251 C 0.59922 0.51784 0.22487 0.0
C252 C 0.5788 0.4998 0.24157 0.0
C253 C 0.58933 0.52487 0.20507 0.0
C254 C 0.5588 0.51383 0.20149 0.0
C255 C 0.5482 0.48833 0.23781 0.0
C256 C 0.53832 0.49556 0.21801 0.0
C257 C 0.54849 0.52324 0.1814 0.0
H258 H 0.51972 0.63694 0.1691 0.0
H259 H 0.53817 0.60542 0.15336 0.0
H260 H 0.46319 0.56644 0.21514 0.0
H261 H 0.48081 0.53455 0.19892 0.0
H262 H 0.4662 0.56202 0.10126 0.0
H263 H 0.47851 0.54341 0.13524 0.0
H264 H 0.55372 0.58934 0.07414 0.0
H265 H 0.56654 0.5728 0.10859 0.0
H266 H 0.57554 0.44229 0.16286 0.0
H267 H 0.54434 0.46458 0.16949 0.0
H268 H 0.64159 0.52369 0.13058 0.0
H269 H 0.60951 0.54527 0.13648 0.0
H270 H 0.62293 0.52688 0.22727 0.0
H271 H 0.60564 0.5396 0.19284 0.0
H272 H 0.53201 0.47465 0.2505 0.0
H273 H 0.51469 0.48711 0.21569 0.0
N274 N 0.53258 0.53725 0.18486 0.0
N275 N 0.54847 0.53263 0.14193 0.0
In276 In 0.63844 0.40468 0.41709 0.0
O277 O 0.68948 0.43199 0.41934 0.0
O278 O 0.66933 0.39878 0.3936 0.0
C279 C 0.61343 0.42171 0.44933 0.0
C280 C 0.62727 0.43021 0.38179 0.0
C281 C 0.62087 0.3501 0.43374 0.0
O282 O 0.64085 0.42952 0.44997 0.0
O283 O 0.59927 0.40587 0.43253 0.0
O284 O 0.60982 0.35353 0.41559 0.0
O285 O 0.64043 0.37391 0.44287 0.0
C286 C 0.69308 0.41901 0.40239 0.0
O287 O 0.61341 0.40211 0.38433 0.0
O288 O 0.64598 0.44474 0.39713 0.0
In289 In 0.25095 0.63816 0.58802 0.0
O290 O 0.26027 0.60094 0.57683 0.0
O291 O 0.28938 0.63276 0.60067 0.0
C292 C 0.21129 0.63173 0.55568 0.0
C293 C 0.22213 0.61947 0.62817 0.0
C294 C 0.29115 0.69582 0.58 0.0
O295 O 0.22533 0.61757 0.55521 0.0
O296 O 0.21661 0.64832 0.57278 0.0
O297 O 0.27509 0.68722 0.59753 0.0
O298 O 0.28693 0.67534 0.5663 0.0
C299 C 0.2828 0.60965 0.58941 0.0
O300 O 0.24654 0.64327 0.62581 0.0
O301 O 0.21136 0.60517 0.61004 0.0
In302 In 0.63282 0.24889 0.74916 0.0
O303 O 0.67885 0.28158 0.73513 0.0
O304 O 0.67503 0.27338 0.77054 0.0
C305 C 0.62054 0.21172 0.71348 0.0
C306 C 0.60787 0.21101 0.78446 0.0
C307 C 0.6147 0.28942 0.74429 0.0
O308 O 0.64573 0.22512 0.72288 0.0
O309 O 0.60112 0.21647 0.7224 0.0
O310 O 0.62353 0.28473 0.76291 0.0
O311 O 0.61456 0.27337 0.72816 0.0
C312 C 0.69178 0.28716 0.75407 0.0
O313 O 0.59625 0.22499 0.77569 0.0
O314 O 0.63162 0.21547 0.77505 0.0
In315 In 0.40449 0.63712 0.91433 0.0
O316 O 0.35426 0.60253 0.91552 0.0
O317 O 0.36892 0.64367 0.8982 0.0
C318 C 0.43196 0.62314 0.94704 0.0
C319 C 0.42288 0.62598 0.87449 0.0
C320 C 0.41658 0.68992 0.9319 0.0
O321 O 0.40392 0.60876 0.94483 0.0
O322 O 0.44544 0.64317 0.93242 0.0
O323 O 0.4307 0.688 0.91507 0.0
O324 O 0.39684 0.66531 0.93992 0.0
C325 C 0.34727 0.61916 0.90453 0.0
O326 O 0.4313 0.652 0.88157 0.0
O327 O 0.40527 0.60542 0.88759 0.0
In328 In 0.79372 0.40158 0.08743 0.0
O329 O 0.81506 0.38942 0.11609 0.0
O330 O 0.82871 0.43522 0.11193 0.0
C331 C 0.76772 0.34412 0.07364 0.0
C332 C 0.75384 0.41536 0.10494 0.0
C333 C 0.82038 0.42744 0.04777 0.0
O334 O 0.79544 0.36028 0.07625 0.0
O335 O 0.75289 0.35664 0.07852 0.0
O336 O 0.79287 0.41664 0.05122 0.0
O337 O 0.83477 0.42661 0.06471 0.0
C338 C 0.83112 0.41575 0.12312 0.0
O339 O 0.77067 0.42964 0.08856 0.0
O340 O 0.75716 0.39433 0.11229 0.0
In341 In 0.40924 0.78633 0.24731 0.0
O342 O 0.43228 0.76154 0.26083 0.0
O343 O 0.41448 0.75155 0.22743 0.0
C344 C 0.42031 0.82581 0.28105 0.0
C345 C 0.44207 0.82333 0.21364 0.0
C346 C 0.34924 0.75394 0.25125 0.0
O347 O 0.42529 0.80439 0.28332 0.0
O348 O 0.40997 0.82706 0.26203 0.0
O349 O 0.362 0.77491 0.23715 0.0
O350 O 0.36664 0.7488 0.26276 0.0
C351 C 0.42824 0.74659 0.2429 0.0
O352 O 0.41488 0.80407 0.21106 0.0
O353 O 0.4525 0.82362 0.23302 0.0
H354 H 0.19705 0.63364 0.30945 0.0
H355 H 0.1573 0.68414 0.28353 0.0
H356 H 0.2046 0.71859 0.26419 0.0
H357 H 0.26887 0.69723 0.32093 0.0
H358 H 0.2892 0.67866 0.31314 0.0
H359 H 0.25186 0.6574 0.32406 0.0
H360 H 0.23625 0.62401 0.28823 0.0
H361 H 0.27351 0.64532 0.27712 0.0
H362 H 0.24232 0.64097 0.26062 0.0
H363 H 0.25595 0.74694 0.24716 0.0
H364 H 0.30926 0.77027 0.23689 0.0
H365 H 0.3162 0.70272 0.27551 0.0
C366 C 0.19838 0.65192 0.29962 0.0
C367 C 0.17364 0.6563 0.29787 0.0
C368 C 0.17615 0.68061 0.28514 0.0
C369 C 0.20281 0.70012 0.27399 0.0
C370 C 0.2268 0.69515 0.27596 0.0
C371 C 0.22497 0.67188 0.2887 0.0
C372 C 0.25444 0.67234 0.28897 0.0
C373 C 0.26682 0.67668 0.31322 0.0
C374 C 0.25144 0.64397 0.27808 0.0
C375 C 0.27312 0.69949 0.27441 0.0
C376 C 0.25666 0.71209 0.26682 0.0
C377 C 0.2691 0.73731 0.25304 0.0
C378 C 0.29932 0.75033 0.24722 0.0
C379 C 0.3168 0.73831 0.25542 0.0
C380 C 0.30337 0.7124 0.269 0.0
H381 H 0.53972 0.17207 0.44367 0.0
H382 H 0.58314 0.18586 0.50904 0.0
H383 H 0.60635 0.24014 0.50408 0.0
H384 H 0.5998 0.23417 0.41529 0.0
H385 H 0.57612 0.24374 0.39931 0.0
H386 H 0.56255 0.20572 0.40786 0.0
H387 H 0.5175 0.20487 0.42776 0.0
H388 H 0.5309 0.24288 0.41923 0.0
H389 H 0.52393 0.23278 0.44875 0.0
H390 H 0.62535 0.29234 0.49224 0.0
H391 H 0.639 0.3403 0.4743 0.0
H392 H 0.58271 0.29381 0.41668 0.0
C393 C 0.55392 0.18651 0.45701 0.0
C394 C 0.5598 0.17466 0.47668 0.0
C395 C 0.57874 0.19436 0.49365 0.0
C396 C 0.59187 0.22524 0.49107 0.0
C397 C 0.58577 0.23615 0.47147 0.0
C398 C 0.56722 0.2175 0.45473 0.0
C399 C 0.56461 0.23525 0.4353 0.0
C400 C 0.57648 0.22937 0.41313 0.0
C401 C 0.53232 0.22854 0.43261 0.0
C402 C 0.58473 0.26678 0.44373 0.0
C403 C 0.59663 0.26663 0.46465 0.0
C404 C 0.61613 0.2928 0.4759 0.0
C405 C 0.62377 0.31994 0.46552 0.0
C406 C 0.61191 0.32082 0.44408 0.0
C407 C 0.59204 0.29382 0.43309 0.0
H408 H 0.39438 0.56745 0.64951 0.0
H409 H 0.37307 0.50119 0.5968 0.0
H410 H 0.33927 0.51593 0.57914 0.0
H411 H 0.32217 0.55945 0.65456 0.0
H412 H 0.3358 0.59867 0.65861 0.0
H413 H 0.35816 0.58271 0.66726 0.0
H414 H 0.40177 0.62093 0.64234 0.0
H415 H 0.37954 0.63705 0.63364 0.0
H416 H 0.39556 0.62387 0.61264 0.0
H417 H 0.3066 0.53708 0.56766 0.0
H418 H 0.27904 0.56442 0.56278 0.0
H419 H 0.32397 0.61842 0.62168 0.0
C420 C 0.38289 0.55621 0.63412 0.0
C421 C 0.38626 0.53292 0.62473 0.0
C422 C 0.37044 0.51863 0.60468 0.0
C423 C 0.35133 0.527 0.59438 0.0
C424 C 0.34845 0.54991 0.60416 0.0
C425 C 0.36394 0.56444 0.62349 0.0
C426 C 0.35701 0.58846 0.63055 0.0
C427 C 0.34241 0.58191 0.65414 0.0
C428 C 0.38515 0.61941 0.62973 0.0
C429 C 0.33512 0.58506 0.61221 0.0
C430 C 0.33034 0.56263 0.59719 0.0
C431 C 0.31033 0.55485 0.57922 0.0
C432 C 0.29477 0.57044 0.57658 0.0
C433 C 0.29956 0.59363 0.59172 0.0
C434 C 0.32009 0.601 0.60967 0.0
H435 H 0.84368 0.38437 0.82167 0.0
H436 H 0.88706 0.41597 0.75643 0.0
H437 H 0.83891 0.38576 0.73721 0.0
H438 H 0.7939 0.30897 0.80369 0.0
H439 H 0.76335 0.30483 0.82099 0.0
H440 H 0.80114 0.32966 0.82975 0.0
H441 H 0.78999 0.37315 0.83216 0.0
H442 H 0.75216 0.34845 0.8234 0.0
H443 H 0.77514 0.38219 0.80775 0.0
H444 H 0.78625 0.35204 0.72496 0.0
H445 H 0.73246 0.31652 0.72058 0.0
H446 H 0.7236 0.30554 0.7936 0.0
C447 C 0.84312 0.38484 0.80334 0.0
C448 C 0.86919 0.40282 0.7906 0.0
C449 C 0.86735 0.40292 0.76663 0.0
C450 C 0.84013 0.38564 0.75552 0.0
C451 C 0.81492 0.36823 0.76858 0.0
C452 C 0.81614 0.36761 0.79195 0.0
C453 C 0.78579 0.34667 0.80195 0.0
C454 C 0.78608 0.32101 0.81485 0.0
C455 C 0.77515 0.36364 0.81721 0.0
C456 C 0.76735 0.33565 0.78054 0.0
C457 C 0.78458 0.34842 0.76148 0.0
C458 C 0.77252 0.34185 0.73975 0.0
C459 C 0.74197 0.32168 0.73743 0.0
C460 C 0.72393 0.30828 0.75673 0.0
C461 C 0.73687 0.31539 0.77853 0.0
H462 H 0.50706 0.86513 0.95468 0.0
H463 H 0.43024 0.85472 0.99199 0.0
H464 H 0.40363 0.80061 0.98366 0.0
H465 H 0.46535 0.81202 0.91036 0.0
H466 H 0.49141 0.79865 0.90805 0.0
H467 H 0.50413 0.83643 0.91689 0.0
H468 H 0.52633 0.82744 0.95339 0.0
H469 H 0.51357 0.78962 0.9447 0.0
H470 H 0.50266 0.79701 0.97188 0.0
H471 H 0.38675 0.74748 0.97307 0.0
H472 H 0.37892 0.69943 0.95826 0.0
H473 H 0.46591 0.74501 0.92621 0.0
C474 C 0.48462 0.8514 0.96106 0.0
C475 C 0.47063 0.86389 0.97404 0.0
C476 C 0.44117 0.84545 0.98191 0.0
C477 C 0.426 0.81477 0.97735 0.0
C478 C 0.44054 0.80308 0.96468 0.0
C479 C 0.46905 0.82087 0.9564 0.0
C480 C 0.4795 0.80286 0.94294 0.0
C481 C 0.48544 0.8131 0.91809 0.0
C482 C 0.50715 0.80432 0.95389 0.0
C483 C 0.45252 0.77207 0.94512 0.0
C484 C 0.4304 0.77265 0.95788 0.0
C485 C 0.40379 0.74678 0.96289 0.0
C486 C 0.39961 0.71962 0.95449 0.0
C487 C 0.42176 0.71863 0.94103 0.0
C488 C 0.44851 0.74521 0.93628 0.0
H489 H 0.64955 0.48844 0.11106 0.0
H490 H 0.61948 0.44566 0.17668 0.0
H491 H 0.65215 0.42404 0.17285 0.0
H492 H 0.65632 0.43039 0.0838 0.0
H493 H 0.68983 0.45536 0.06859 0.0
H494 H 0.66353 0.46711 0.07612 0.0
H495 H 0.70523 0.51319 0.09683 0.0
H496 H 0.73168 0.50162 0.08932 0.0
H497 H 0.7266 0.508 0.11861 0.0
H498 H 0.68722 0.40622 0.16181 0.0
H499 H 0.7241 0.39498 0.14485 0.0
H500 H 0.73399 0.45163 0.0875 0.0
C501 C 0.64996 0.47477 0.12476 0.0
C502 C 0.63152 0.46854 0.14407 0.0
C503 C 0.63271 0.45023 0.16144 0.0
C504 C 0.65143 0.43801 0.15953 0.0
C505 C 0.66915 0.44452 0.14027 0.0
C506 C 0.66879 0.46263 0.12326 0.0
C507 C 0.69046 0.46644 0.10449 0.0
C508 C 0.67405 0.45408 0.08192 0.0
C509 C 0.71495 0.49926 0.10219 0.0
C510 C 0.70291 0.4475 0.11359 0.0
C511 C 0.69017 0.43497 0.13421 0.0
C512 C 0.69749 0.41604 0.14574 0.0
C513 C 0.71841 0.40974 0.13595 0.0
C514 C 0.73197 0.42253 0.11493 0.0
C515 C 0.72415 0.44173 0.10368 0.0
H516 H 0.39711 0.8416 0.50772 0.0
H517 H 0.42379 0.88964 0.57148 0.0
H518 H 0.39113 0.8431 0.59216 0.0
H519 H 0.32084 0.79234 0.52215 0.0
H520 H 0.31854 0.76043 0.50791 0.0
H521 H 0.34429 0.79743 0.498 0.0
H522 H 0.38785 0.78663 0.50197 0.0
H523 H 0.36221 0.74955 0.51184 0.0
H524 H 0.3941 0.77402 0.52879 0.0
H525 H 0.35366 0.7925 0.60573 0.0
H526 H 0.3163 0.73954 0.61174 0.0
H527 H 0.31576 0.72321 0.53955 0.0
C528 C 0.39609 0.84218 0.52604 0.0
C529 C 0.41298 0.86908 0.53807 0.0
C530 C 0.41125 0.86912 0.56202 0.0
C531 C 0.39268 0.84288 0.57388 0.0
C532 C 0.37623 0.81673 0.56156 0.0
C533 C 0.37797 0.81603 0.53821 0.0
C534 C 0.35815 0.78478 0.52918 0.0
C535 C 0.33403 0.78369 0.51338 0.0
C536 C 0.37669 0.77306 0.51725 0.0
C537 C 0.34477 0.76818 0.55109 0.0
C538 C 0.35536 0.78713 0.56953 0.0
C539 C 0.34542 0.77734 0.59147 0.0
C540 C 0.32416 0.74729 0.59471 0.0
C541 C 0.3134 0.72737 0.57614 0.0
C542 C 0.32393 0.73795 0.55407 0.0
H543 H 0.56031 0.38737 0.6771 0.0
H544 H 0.56627 0.4325 0.7406 0.0
H545 H 0.58447 0.40223 0.7596 0.0
H546 H 0.53283 0.31501 0.70099 0.0
H547 H 0.55334 0.30458 0.68194 0.0
H548 H 0.54234 0.33094 0.67298 0.0
H549 H 0.59729 0.3694 0.66361 0.0
H550 H 0.60845 0.34311 0.67245 0.0
H551 H 0.62538 0.37961 0.68516 0.0
H552 H 0.60026 0.36579 0.77206 0.0
H553 H 0.61372 0.32653 0.77681 0.0
H554 H 0.59629 0.30438 0.70543 0.0
C555 C 0.56543 0.39092 0.69501 0.0
C556 C 0.56199 0.41249 0.7073 0.0
C557 C 0.56923 0.41656 0.73068 0.0
C558 C 0.57937 0.39929 0.74169 0.0
C559 C 0.58214 0.37802 0.72911 0.0
C560 C 0.57547 0.37382 0.70627 0.0
C561 C 0.57982 0.34907 0.69675 0.0
C562 C 0.55032 0.32338 0.68763 0.0
C563 C 0.60419 0.36102 0.67841 0.0
C564 C 0.58981 0.33988 0.71784 0.0
C565 C 0.59103 0.35687 0.73632 0.0
C566 C 0.59947 0.35238 0.7577 0.0
C567 C 0.60701 0.33002 0.76024 0.0
C568 C 0.60602 0.31243 0.7415 0.0
C569 C 0.59723 0.31746 0.72007 0.0
H570 H 0.17373 0.52006 0.87528 0.0
H571 H 0.17195 0.60308 0.87317 0.0
H572 H 0.22482 0.63059 0.88397 0.0
H573 H 0.2231 0.54015 0.92476 0.0
H574 H 0.24229 0.52164 0.91407 0.0
H575 H 0.2039 0.50803 0.90662 0.0
H576 H 0.21775 0.51251 0.86405 0.0
H577 H 0.25618 0.52625 0.87135 0.0
H578 H 0.24628 0.54779 0.85303 0.0
H579 H 0.27799 0.64959 0.89225 0.0
H580 H 0.32868 0.65912 0.90002 0.0
H581 H 0.2965 0.56401 0.89969 0.0
C582 C 0.18429 0.54397 0.87745 0.0
C583 C 0.16863 0.5594 0.87309 0.0
C584 C 0.18352 0.59076 0.87588 0.0
C585 C 0.21352 0.6066 0.8822 0.0
C586 C 0.22833 0.59079 0.88602 0.0
C587 C 0.21426 0.56018 0.88402 0.0
C588 C 0.23567 0.54883 0.8889 0.0
C589 C 0.22564 0.52846 0.90983 0.0
C590 C 0.23917 0.53291 0.86809 0.0
C591 C 0.26405 0.57796 0.89361 0.0
C592 C 0.25917 0.60181 0.89174 0.0
C593 C 0.28205 0.63112 0.89405 0.0
C594 C 0.31077 0.63628 0.89835 0.0
C595 C 0.31638 0.61229 0.90056 0.0
C596 C 0.29266 0.5827 0.89839 0.0
H597 H 0.63524 0.18432 0.036 0.0
H598 H 0.70306 0.16545 0.01097 0.0
H599 H 0.74214 0.21526 0.02325 0.0
H600 H 0.67347 0.26241 0.0186 0.0
H601 H 0.66133 0.27426 0.04315 0.0
H602 H 0.6386 0.23715 0.03211 0.0
H603 H 0.6389 0.21527 0.07151 0.0
H604 H 0.66187 0.25228 0.08262 0.0
H605 H 0.67399 0.22523 0.08479 0.0
H606 H 0.77393 0.26607 0.03959 0.0
H607 H 0.79642 0.31621 0.05664 0.0
H608 H 0.70817 0.30318 0.06966 0.0
C609 C 0.65827 0.1908 0.03275 0.0
C610 C 0.66602 0.17077 0.02269 0.0
C611 C 0.69652 0.18011 0.01904 0.0
C612 C 0.71891 0.20844 0.02584 0.0
C613 C 0.7105 0.22736 0.03608 0.0
C614 C 0.68095 0.21912 0.0393 0.0
C615 C 0.67803 0.24379 0.05072 0.0
C616 C 0.66191 0.25507 0.03521 0.0
C617 C 0.66227 0.23352 0.07378 0.0
C618 C 0.71057 0.26704 0.05358 0.0
C619 C 0.72891 0.25703 0.04509 0.0
C620 C 0.75983 0.27425 0.04617 0.0
C621 C 0.77238 0.30264 0.05596 0.0
C622 C 0.75404 0.31357 0.06443 0.0
C623 C 0.72273 0.29543 0.06327 0.0
H624 H 0.47052 0.63963 0.1742 0.0
H625 H 0.4913 0.61439 0.23876 0.0
H626 H 0.47829 0.64849 0.25852 0.0
H627 H 0.49836 0.71713 0.18731 0.0
H628 H 0.46893 0.71903 0.17252 0.0
H629 H 0.4804 0.69305 0.16342 0.0
H630 H 0.42611 0.64959 0.16746 0.0
H631 H 0.41448 0.67545 0.17656 0.0
H632 H 0.40695 0.64398 0.19411 0.0
H633 H 0.46426 0.68629 0.27116 0.0
H634 H 0.4472 0.72292 0.27596 0.0
H635 H 0.43339 0.72185 0.20339 0.0
C636 C 0.4724 0.64141 0.19248 0.0
C637 C 0.48187 0.6244 0.20499 0.0
C638 C 0.48381 0.62705 0.22891 0.0
C639 C 0.47663 0.64645 0.24025 0.0
C640 C 0.46729 0.66287 0.22745 0.0
C641 C 0.46492 0.66039 0.20411 0.0
C642 C 0.45355 0.67997 0.19445 0.0
C643 C 0.4767 0.7037 0.17849 0.0
C644 C 0.42348 0.66111 0.18244 0.0
C645 C 0.45 0.69388 0.21599 0.0
C646 C 0.4583 0.68393 0.23482 0.0
C647 C 0.45754 0.69412 0.25656 0.0
C648 C 0.44788 0.71494 0.25912 0.0
C649 C 0.43882 0.72503 0.24008 0.0
C650 C 0.43994 0.71432 0.21828 0.0
H651 H 0.87127 0.50501 0.39187 0.0
H652 H 0.85863 0.46589 0.32492 0.0
H653 H 0.80412 0.43901 0.33075 0.0
H654 H 0.81069 0.44117 0.41991 0.0
H655 H 0.79999 0.4632 0.43701 0.0
H656 H 0.83814 0.47853 0.42805 0.0
H657 H 0.8368 0.52338 0.40989 0.0
H658 H 0.79867 0.50821 0.41881 0.0
H659 H 0.8084 0.51669 0.38934 0.0
H660 H 0.7517 0.4162 0.34369 0.0
H661 H 0.70344 0.40099 0.3619 0.0
H662 H 0.74901 0.45652 0.42008 0.0
C663 C 0.85692 0.49059 0.37857 0.0
C664 C 0.86897 0.48733 0.35797 0.0
C665 C 0.84969 0.46869 0.34075 0.0
C666 C 0.81879 0.45328 0.34396 0.0
C667 C 0.80755 0.457 0.3644 0.0
C668 C 0.82591 0.47537 0.38136 0.0
C669 C 0.80783 0.4763 0.40129 0.0
C670 C 0.81457 0.46406 0.42284 0.0
C671 C 0.81325 0.50803 0.40504 0.0
C672 C 0.77647 0.45556 0.39286 0.0
C673 C 0.77697 0.4445 0.37162 0.0
C674 C 0.75098 0.42474 0.36029 0.0
C675 C 0.72367 0.41619 0.37082 0.0
C676 C 0.72246 0.42759 0.39239 0.0
C677 C 0.74927 0.4475 0.40357 0.0
H678 H 0.12556 0.57796 0.43744 0.0
H679 H 0.10519 0.64954 0.44399 0.0
H680 H 0.13034 0.66287 0.48105 0.0
H681 H 0.1169 0.55654 0.49571 0.0
H682 H 0.1479 0.54988 0.49597 0.0
H683 H 0.12761 0.54527 0.47011 0.0
H684 H 0.17653 0.58255 0.44971 0.0
H685 H 0.19701 0.58709 0.47545 0.0
H686 H 0.19946 0.61921 0.46152 0.0
H687 H 0.15704 0.66811 0.51769 0.0
H688 H 0.1867 0.66722 0.55008 0.0
H689 H 0.19227 0.5942 0.51883 0.0
C690 C 0.12665 0.59669 0.44646 0.0
C691 C 0.11303 0.61247 0.43772 0.0
C692 C 0.11478 0.6366 0.45041 0.0
C693 C 0.1292 0.64449 0.47147 0.0
C694 C 0.14206 0.62828 0.47961 0.0
C695 C 0.14124 0.6051 0.46741 0.0
C696 C 0.15752 0.59178 0.47975 0.0
C697 C 0.1362 0.55892 0.48574 0.0
C698 C 0.18421 0.59538 0.46578 0.0
C699 C 0.16762 0.61111 0.50081 0.0
C700 C 0.15823 0.63186 0.50046 0.0
C701 C 0.1646 0.65204 0.51812 0.0
C702 C 0.18137 0.65128 0.53648 0.0
C703 C 0.1918 0.63066 0.53697 0.0
C704 C 0.18462 0.61022 0.51893 0.0
H705 H 0.52803 0.1131 0.60714 0.0
H706 H 0.60871 0.11384 0.58588 0.0
H707 H 0.63473 0.14326 0.61971 0.0
H708 H 0.56465 0.18862 0.62882 0.0
H709 H 0.53916 0.17972 0.65222 0.0
H710 H 0.52676 0.15853 0.62634 0.0
H711 H 0.50996 0.10985 0.649 0.0
H712 H 0.52251 0.13091 0.67492 0.0
H713 H 0.53644 0.10653 0.66678 0.0
H714 H 0.65199 0.17211 0.65579 0.0
H715 H 0.66002 0.20039 0.69126 0.0
H716 H 0.56857 0.18195 0.68904 0.0
C717 C 0.55125 0.11971 0.60948 0.0
C718 C 0.56626 0.11095 0.59391 0.0
C719 C 0.59658 0.11982 0.59775 0.0
C720 C 0.61161 0.13665 0.61686 0.0
C721 C 0.59608 0.14458 0.63199 0.0
C722 C 0.56664 0.13657 0.6285 0.0
C723 C 0.55523 0.14815 0.64739 0.0
C724 C 0.54591 0.17006 0.63814 0.0
C725 C 0.52951 0.12231 0.66028 0.0
C726 C 0.5829 0.16394 0.662 0.0
C727 C 0.60614 0.16149 0.65281 0.0
C728 C 0.63398 0.17422 0.66315 0.0
C729 C 0.6383 0.19018 0.68331 0.0
C730 C 0.61493 0.19333 0.69292 0.0
C731 C 0.58683 0.17984 0.68214 0.0
H732 H 0.42963 0.52727 0.77266 0.0
H733 H 0.49546 0.60984 0.74113 0.0
H734 H 0.49087 0.63831 0.77296 0.0
H735 H 0.38268 0.55514 0.79527 0.0
H736 H 0.37455 0.53395 0.82112 0.0
H737 H 0.38228 0.52012 0.79546 0.0
H738 H 0.42453 0.51638 0.81593 0.0
H739 H 0.41704 0.53033 0.8416 0.0
H740 H 0.45396 0.54892 0.82957 0.0
H741 H 0.47983 0.65779 0.80834 0.0
H742 H 0.46319 0.66704 0.84516 0.0
H743 H 0.40486 0.57186 0.85409 0.0
C744 C 0.44276 0.55136 0.77234 0.0
C745 C 0.46291 0.56637 0.75443 0.0
C746 C 0.48009 0.59789 0.75478 0.0
C747 C 0.47755 0.61425 0.77272 0.0
C748 C 0.45775 0.59878 0.79023 0.0
C749 C 0.44063 0.56805 0.79021 0.0
C750 C 0.42165 0.55689 0.81142 0.0
C751 C 0.38831 0.54056 0.80545 0.0
C752 C 0.4298 0.53696 0.82546 0.0
C753 C 0.43086 0.58614 0.82338 0.0
C754 C 0.45162 0.61002 0.81081 0.0
C755 C 0.46355 0.63928 0.81833 0.0
C756 C 0.45398 0.64431 0.83927 0.0
C757 C 0.43278 0.62019 0.85249 0.0
C758 C 0.42113 0.59075 0.84438 0.0
H759 H 0.94313 0.46306 0.95267 0.0
H760 H 0.87588 0.45019 0.903 0.0
H761 H 0.84133 0.44451 0.93386 0.0
H762 H 0.8927 0.40778 0.99141 0.0
H763 H 0.91216 0.42845 0.01633 0.0
H764 H 0.93225 0.43344 0.99028 0.0
H765 H 0.95168 0.49023 0.99208 0.0
H766 H 0.93139 0.48536 0.01804 0.0
H767 H 0.92543 0.50341 0.99414 0.0
H768 H 0.81338 0.43853 0.97 0.0
H769 H 0.79302 0.42963 0.00888 0.0
H770 H 0.87778 0.44488 0.03506 0.0
C771 C 0.92111 0.4589 0.94821 0.0
C772 C 0.91243 0.45738 0.92529 0.0
C773 C 0.8834 0.45212 0.92035 0.0
C774 C 0.86351 0.44873 0.93778 0.0
C775 C 0.87287 0.45053 0.96013 0.0
C776 C 0.90089 0.45528 0.9654 0.0
C777 C 0.90492 0.45491 0.99081 0.0
C778 C 0.91084 0.42964 0.9976 0.0
C779 C 0.92983 0.48529 0.99926 0.0
C780 C 0.87465 0.44887 0.99898 0.0
C781 C 0.8566 0.44671 0.981 0.0
C782 C 0.82734 0.44033 0.98423 0.0
C783 C 0.81601 0.43539 0.00637 0.0
C784 C 0.83385 0.43672 0.025 0.0
C785 C 0.8637 0.44405 0.0212 0.0
H786 H 0.48 0.89398 0.08944 0.0
H787 H 0.56189 0.96602 0.11763 0.0
H788 H 0.54939 0.94068 0.15458 0.0
H789 H 0.43514 0.8855 0.13802 0.0
H790 H 0.41272 0.84559 0.1354 0.0
H791 H 0.42912 0.86813 0.11057 0.0
H792 H 0.45467 0.83737 0.10077 0.0
H793 H 0.43835 0.81473 0.12559 0.0
H794 H 0.47814 0.83369 0.12153 0.0
H795 H 0.52772 0.90834 0.18874 0.0
H796 H 0.49735 0.87194 0.21818 0.0
H797 H 0.42799 0.82257 0.16864 0.0
C798 C 0.49534 0.90459 0.10334 0.0
C799 C 0.52216 0.93198 0.10037 0.0
C800 C 0.5416 0.94474 0.11913 0.0
C801 C 0.53459 0.93063 0.14031 0.0
C802 C 0.50793 0.90386 0.14261 0.0
C803 C 0.48852 0.89102 0.12469 0.0
C804 C 0.46069 0.86276 0.13197 0.0
C805 C 0.43277 0.86569 0.1288 0.0
C806 C 0.45781 0.83553 0.11921 0.0
C807 C 0.46744 0.86185 0.15683 0.0
C808 C 0.49494 0.88564 0.16254 0.0
C809 C 0.50615 0.88963 0.18448 0.0
C810 C 0.48875 0.86882 0.20107 0.0
C811 C 0.46032 0.84449 0.19569 0.0
C812 C 0.44961 0.841 0.17325 0.0
H813 H 0.55832 0.44682 0.26467 0.0
H814 H 0.62368 0.54109 0.26776 0.0
H815 H 0.64226 0.53325 0.30406 0.0
H816 H 0.54192 0.43658 0.32478 0.0
H817 H 0.53846 0.40018 0.3257 0.0
H818 H 0.52981 0.41305 0.30001 0.0
H819 H 0.56767 0.40371 0.27793 0.0
H820 H 0.57643 0.39079 0.30355 0.0
H821 H 0.60569 0.42084 0.28762 0.0
H822 H 0.65362 0.5158 0.33972 0.0
H823 H 0.65865 0.48939 0.37251 0.0
H824 H 0.58666 0.40576 0.34674 0.0
C825 C 0.57642 0.46578 0.2731 0.0
C826 C 0.58967 0.49457 0.26338 0.0
C827 C 0.61349 0.51881 0.27476 0.0
C828 C 0.62407 0.51461 0.29544 0.0
C829 C 0.61066 0.48601 0.30452 0.0
C830 C 0.58746 0.46194 0.29374 0.0
C831 C 0.57754 0.43345 0.30708 0.0
C832 C 0.545 0.42003 0.31485 0.0
C833 C 0.58212 0.41087 0.29321 0.0
C834 C 0.59882 0.44534 0.327 0.0
C835 C 0.61757 0.47576 0.32516 0.0
C836 C 0.63911 0.49198 0.34137 0.0
C837 C 0.64175 0.47673 0.35996 0.0
C838 C 0.62307 0.4455 0.36219 0.0
C839 C 0.60126 0.42963 0.34548 0.0
H840 H 0.4474 0.89259 0.40676 0.0
H841 H 0.45024 0.97088 0.37727 0.0
H842 H 0.44137 0.9478 0.33957 0.0
H843 H 0.4871 0.88107 0.36104 0.0
H844 H 0.46553 0.841 0.36256 0.0
H845 H 0.47097 0.86305 0.38762 0.0
H846 H 0.41383 0.83749 0.39325 0.0
H847 H 0.4082 0.81535 0.36822 0.0
H848 H 0.39087 0.83801 0.37052 0.0
H849 H 0.43179 0.91658 0.30519 0.0
H850 H 0.42339 0.87935 0.27579 0.0
H851 H 0.4298 0.82229 0.32665 0.0
C852 C 0.44636 0.90502 0.3924 0.0
C853 C 0.44916 0.9335 0.39519 0.0
C854 C 0.44739 0.94876 0.37583 0.0
C855 C 0.44264 0.93595 0.35424 0.0
C856 C 0.44 0.90797 0.35214 0.0
C857 C 0.44195 0.8927 0.37062 0.0
C858 C 0.43885 0.8631 0.36351 0.0
C859 C 0.46731 0.86201 0.36901 0.0
C860 C 0.41129 0.83694 0.37453 0.0
C861 C 0.43478 0.86415 0.33815 0.0
C862 C 0.43538 0.89021 0.33204 0.0
C863 C 0.43142 0.89614 0.30972 0.0
C864 C 0.42663 0.87484 0.29316 0.0
C865 C 0.42608 0.84802 0.29894 0.0
C866 C 0.43038 0.84272 0.32173 0.0
H867 H 0.57355 0.44647 0.57543 0.0
H868 H 0.49676 0.44729 0.54661 0.0
H869 H 0.51263 0.44192 0.50847 0.0
H870 H 0.62511 0.49005 0.53038 0.0
H871 H 0.6447 0.46943 0.5311 0.0
H872 H 0.62739 0.47318 0.55645 0.0
H873 H 0.59735 0.41575 0.5607 0.0
H874 H 0.61462 0.41182 0.53543 0.0
H875 H 0.57459 0.39333 0.53748 0.0
H876 H 0.53515 0.43448 0.47375 0.0
H877 H 0.56381 0.42608 0.44412 0.0
H878 H 0.62811 0.4334 0.49446 0.0
C879 C 0.56019 0.44579 0.56111 0.0
C880 C 0.53362 0.44691 0.5642 0.0
C881 C 0.51674 0.44568 0.5449 0.0
C882 C 0.52573 0.44297 0.52308 0.0
C883 C 0.5519 0.44188 0.52069 0.0
C884 C 0.56901 0.44338 0.53911 0.0
C885 C 0.59612 0.44153 0.5317 0.0
C886 C 0.62504 0.47026 0.53777 0.0
C887 C 0.59562 0.41397 0.54193 0.0
C888 C 0.59132 0.43841 0.50626 0.0
C889 C 0.56561 0.43864 0.50036 0.0
C890 C 0.5555 0.43459 0.47809 0.0
C891 C 0.5719 0.42981 0.46141 0.0
C892 C 0.59827 0.42942 0.46701 0.0
C893 C 0.60832 0.43419 0.48969 0.0
H894 H 0.0937 0.5232 0.71799 0.0
H895 H 0.16084 0.56404 0.77039 0.0
H896 H 0.19897 0.59195 0.74115 0.0
H897 H 0.14194 0.51528 0.6766 0.0
H898 H 0.12526 0.52317 0.65276 0.0
H899 H 0.10345 0.50594 0.67779 0.0
H900 H 0.09055 0.54817 0.68082 0.0
H901 H 0.11249 0.56565 0.65592 0.0
H902 H 0.12023 0.58639 0.68199 0.0
H903 H 0.22873 0.618 0.70678 0.0
H904 H 0.24983 0.637 0.66891 0.0
H905 H 0.16419 0.57733 0.63827 0.0
C906 C 0.1165 0.53788 0.72322 0.0
C907 C 0.12445 0.54153 0.74639 0.0
C908 C 0.15445 0.56077 0.75269 0.0
C909 C 0.17616 0.57681 0.73624 0.0
C910 C 0.16754 0.57303 0.71357 0.0
C911 C 0.13855 0.55372 0.70698 0.0
C912 C 0.13531 0.5536 0.68144 0.0
C913 C 0.12594 0.52266 0.67157 0.0
C914 C 0.11334 0.56408 0.67465 0.0
C915 C 0.16694 0.5762 0.67473 0.0
C916 C 0.18506 0.58728 0.69357 0.0
C917 C 0.21486 0.60927 0.69187 0.0
C918 C 0.22659 0.62002 0.6703 0.0
C919 C 0.20866 0.60853 0.6507 0.0
C920 C 0.17844 0.58632 0.65297 0.0
H921 H 0.60601 0.11069 0.88787 0.0
H922 H 0.5316 0.11732 0.91523 0.0
H923 H 0.53268 0.14628 0.88178 0.0
H924 H 0.64552 0.18551 0.86544 0.0
H925 H 0.65871 0.17502 0.84075 0.0
H926 H 0.65157 0.15412 0.86662 0.0
H927 H 0.61575 0.10564 0.84507 0.0
H928 H 0.62259 0.12644 0.81916 0.0
H929 H 0.58502 0.10377 0.82937 0.0
H930 H 0.5416 0.1744 0.84537 0.0
H931 H 0.55966 0.20216 0.80942 0.0
H932 H 0.62926 0.17876 0.80629 0.0
C933 C 0.59011 0.11845 0.88697 0.0
C934 C 0.56853 0.11141 0.90416 0.0
C935 C 0.54796 0.12183 0.90212 0.0
C936 C 0.54848 0.13845 0.88322 0.0
C937 C 0.5698 0.14468 0.86652 0.0
C938 C 0.5904 0.13523 0.86827 0.0
C939 C 0.61137 0.14548 0.84812 0.0
C940 C 0.64371 0.16627 0.85569 0.0
C941 C 0.60849 0.11874 0.83463 0.0
C942 C 0.59935 0.16223 0.83482 0.0
C943 C 0.57526 0.16133 0.84567 0.0
C944 C 0.56046 0.17528 0.83671 0.0
C945 C 0.57082 0.19092 0.81626 0.0
C946 C 0.59581 0.19258 0.80507 0.0
C947 C 0.61005 0.17781 0.81443 0.0
H948 H 0.4555 0.55385 0.06164 0.0
H949 H 0.54658 0.62777 0.06099 0.0
H950 H 0.5367 0.64551 0.02525 0.0
H951 H 0.44741 0.54056 1.00189 0.0
H952 H 0.40954 0.53317 1.0007 0.0
H953 H 0.42345 0.52547 0.02627 0.0
H954 H 0.40892 0.55905 0.04917 0.0
H955 H 0.39471 0.56664 0.02371 0.0
H956 H 0.42262 0.59699 0.04027 0.0
H957 H 0.51821 0.65468 0.98936 0.0
H958 H 0.49065 0.65773 0.9566 0.0
H959 H 0.4101 0.58009 0.98079 0.0
C960 C 0.4733 0.57395 0.05415 0.0
C961 C 0.50205 0.58905 0.06406 0.0
C962 C 0.52464 0.61523 0.05352 0.0
C963 C 0.51921 0.62566 0.03324 0.0
C964 C 0.49092 0.60998 0.02376 0.0
C965 C 0.46816 0.58496 0.03394 0.0
C966 C 0.43959 0.57287 0.02029 0.0
C967 C 0.4294 0.54113 0.01178 0.0
C968 C 0.41501 0.57396 0.03419 0.0
C969 C 0.45 0.59498 1.00083 0.0
C970 C 0.47979 0.61599 1.00319 0.0
C971 C 0.49483 0.63849 0.98736 0.0
C972 C 0.47894 0.63994 0.96875 0.0
C973 C 0.44819 0.61918 0.96612 0.0
C974 C 0.43357 0.59627 0.98235 0.0
H975 H 0.93159 0.51522 0.22617 0.0
H976 H 0.93578 0.43762 0.24888 0.0
H977 H 0.90562 0.40924 0.21599 0.0
H978 H 0.85685 0.47631 0.20569 0.0
H979 H 0.86417 0.50026 0.18153 0.0
H980 H 0.8863 0.51463 0.20679 0.0
H981 H 0.93434 0.53121 0.18328 0.0
H982 H 0.91235 0.51687 0.15793 0.0
H983 H 0.93774 0.50423 0.1661 0.0
H984 H 0.87426 0.38892 0.18113 0.0
H985 H 0.8439 0.37809 0.14649 0.0
H986 H 0.86134 0.46925 0.14561 0.0
C987 C 0.92647 0.49236 0.22412 0.0
C988 C 0.936 0.47865 0.24024 0.0
C989 C 0.92836 0.44852 0.23703 0.0
C990 C 0.91142 0.43225 0.21829 0.0
C991 C 0.90236 0.44643 0.20281 0.0
C992 C 0.90965 0.47581 0.20546 0.0
C993 C 0.89686 0.48565 0.18644 0.0
C994 C 0.87473 0.49474 0.19567 0.0
C995 C 0.92181 0.51099 0.17262 0.0
C996 C 0.88111 0.45714 0.17273 0.0
C997 C 0.88458 0.43481 0.18249 0.0
C998 C 0.87151 0.40627 0.17326 0.0
C999 C 0.8543 0.40033 0.1536 0.0
C1000 C 0.85038 0.42285 0.14331 0.0
C1001 C 0.86415 0.45166 0.15298 0.0
loop_
_geom_bond_atom_site_label_1
_geom_bond_atom_site_label_2
_geom_bond_distance
_geom_bond_site_symmetry_2
_ccdc_geom_bond_type
C0 C1 1.384 . S
C0 C2 1.384 . S
C0 H28 0.931 . S
C1 C0 1.384 . S
C1 C4 1.382 . S
C2 C0 1.384 . S
C2 C3 1.381 . S
C2 H29 0.930 . S
C3 C2 1.381 . S
C3 C5 1.381 . S
C3 C6 1.487 . S
C4 C1 1.382 . S
C4 C5 1.387 . S
C4 H30 0.930 . S
C5 C3 1.381 . S
C5 C4 1.387 . S
C5 H31 0.931 . S
C6 C3 1.487 . S
C6 C13 1.411 . S
C6 N44 1.343 1_655 S
C7 C8 1.384 . S
C7 C9 1.384 . S
C7 H32 0.931 . S
C8 C7 1.384 . S
C8 C11 1.382 . S
C9 C7 1.384 . S
C9 C10 1.381 . S
C9 H33 0.930 . S
C10 C9 1.381 . S
C10 C12 1.381 . S
C10 C13 1.511 . S
C11 C8 1.382 . S
C11 C12 1.387 . S
C11 H34 0.930 . S
C12 C10 1.381 . S
C12 C11 1.387 . S
C12 H35 0.931 1_655 S
C13 C6 1.411 . S
C13 C10 1.511 . S
C13 N45 1.305 1_655 S
C14 C15 1.384 . S
C14 C16 1.384 . S
C14 H36 0.931 . S
C15 C14 1.384 . S
C15 C18 1.382 . S
C16 C14 1.384 . S
C16 C17 1.381 . S
C16 H37 0.930 . S
C17 C16 1.381 . S
C17 C19 1.381 . S
C17 C20 1.487 . S
C18 C15 1.382 . S
C18 C19 1.387 . S
C18 H38 0.930 . S
C19 C17 1.381 . S
C19 C18 1.387 . S
C19 H39 0.931 . S
C20 C17 1.487 . S
C20 C27 1.399 . S
C20 N45 1.343 . S
C21 C22 1.384 . S
C21 C23 1.384 . S
C21 H40 0.931 . S
C22 C21 1.384 . S
C22 C25 1.382 . S
C23 C21 1.384 . S
C23 C24 1.381 . S
C23 H41 0.930 . S
C24 C23 1.381 . S
C24 C26 1.381 . S
C24 C27 1.487 . S
C25 C22 1.382 . S
C25 C26 1.387 . S
C25 H42 0.930 . S
C26 C24 1.381 . S
C26 C25 1.387 . S
C26 H43 0.931 . S
C27 C20 1.399 . S
C27 C24 1.487 . S
C27 N44 1.343 . S
H28 C0 0.931 . S
H29 C2 0.930 . S
H30 C4 0.930 . S
H31 C5 0.931 . S
H32 C7 0.931 . S
H33 C9 0.930 . S
H34 C11 0.930 . S
H35 C12 0.931 1_455 S
H36 C14 0.931 . S
H37 C16 0.930 . S
H38 C18 0.930 . S
H39 C19 0.931 . S
H40 C21 0.931 . S
H41 C23 0.930 . S
H42 C25 0.930 . S
H43 C26 0.931 . S
N44 C6 1.343 1_455 S
N44 C27 1.343 . S
N45 C13 1.305 1_455 S
N45 C20 1.343 . S
C46 C47 1.384 . S
C46 C48 1.384 . S
C46 H74 0.931 . S
C47 C46 1.384 . S
C47 C50 1.382 . S
C48 C46 1.384 . S
C48 C49 1.381 . S
C48 H75 0.930 . S
C49 C48 1.381 . S
C49 C51 1.381 . S
C49 C52 1.487 . S
C50 C47 1.382 . S
C50 C51 1.387 . S
C50 H76 0.930 . S
C51 C49 1.381 . S
C51 C50 1.387 . S
C51 H77 0.931 . S
C52 C49 1.487 . S
C52 C59 1.405 . S
C52 N90 1.343 1_565 S
C53 C54 1.384 . S
C53 C55 1.384 . S
C53 H78 0.931 . S
C54 C53 1.384 . S
C54 C57 1.382 . S
C55 C53 1.384 . S
C55 C56 1.381 . S
C55 H79 0.930 . S
C56 C55 1.381 . S
C56 C58 1.381 . S
C56 C59 1.496 . S
C57 C54 1.382 . S
C57 C58 1.387 . S
C57 H80 0.930 . S
C58 C56 1.381 . S
C58 C57 1.387 . S
C58 H81 0.931 1_565 S
C59 C52 1.405 . S
C59 C56 1.496 . S
C59 N91 1.327 1_565 S
C60 C61 1.384 . S
C60 C62 1.384 . S
C60 H82 0.931 . S
C61 C60 1.384 . S
C61 C64 1.382 . S
C62 C60 1.384 . S
C62 C63 1.381 . S
C62 H83 0.930 . S
C63 C62 1.381 . S
C63 C65 1.381 . S
C63 C66 1.487 . S
C64 C61 1.382 . S
C64 C65 1.387 . S
C64 H84 0.930 . S
C65 C63 1.381 . S
C65 C64 1.387 . S
C65 H85 0.931 . S
C66 C63 1.487 . S
C66 C73 1.399 . S
C66 N91 1.343 . S
C67 C68 1.384 . S
C67 C69 1.384 . S
C67 H86 0.931 . S
C68 C67 1.384 . S
C68 C71 1.382 . S
C69 C67 1.384 . S
C69 C70 1.381 . S
C69 H87 0.930 . S
C70 C69 1.381 . S
C70 C72 1.381 . S
C70 C73 1.487 . S
C71 C68 1.382 . S
C71 C72 1.387 . S
C71 H88 0.930 . S
C72 C70 1.381 . S
C72 C71 1.387 . S
C72 H89 0.931 . S
C73 C66 1.399 . S
C73 C70 1.487 . S
C73 N90 1.343 . S
H74 C46 0.931 . S
H75 C48 0.930 . S
H76 C50 0.930 . S
H77 C51 0.931 . S
H78 C53 0.931 . S
H79 C55 0.930 . S
H80 C57 0.930 . S
H81 C58 0.931 1_545 S
H82 C60 0.931 . S
H83 C62 0.930 . S
H84 C64 0.930 . S
H85 C65 0.931 . S
H86 C67 0.931 . S
H87 C69 0.930 . S
H88 C71 0.930 . S
H89 C72 0.931 . S
N90 C52 1.343 1_545 S
N90 C73 1.343 . S
N91 C59 1.327 1_545 S
N91 C66 1.343 . S
C92 C93 1.384 . S
C92 C94 1.384 . S
C92 H120 0.931 . S
C93 C92 1.384 . S
C93 C96 1.382 . S
C94 C92 1.384 . S
C94 C95 1.381 . S
C94 H121 0.930 . S
C95 C94 1.381 . S
C95 C97 1.381 . S
C95 C98 1.487 . S
C96 C93 1.382 . S
C96 C97 1.387 . S
C96 H122 0.930 . S
C97 C95 1.381 . S
C97 C96 1.387 . S
C97 H123 0.931 . S
C98 C95 1.487 . S
C98 C105 1.399 . S
C98 N136 1.343 . S
C99 C100 1.384 . S
C99 C101 1.384 . S
C99 H124 0.931 . S
C100 C99 1.384 . S
C100 C103 1.382 . S
C101 C99 1.384 . S
C101 C102 1.381 . S
C101 H125 0.930 . S
C102 C101 1.381 . S
C102 C104 1.381 . S
C102 C105 1.487 . S
C103 C100 1.382 . S
C103 C104 1.387 . S
C103 H126 0.930 . S
C104 C102 1.381 . S
C104 C103 1.387 . S
C104 H127 0.931 . S
C105 C98 1.399 . S
C105 C102 1.487 . S
C105 N137 1.343 . S
C106 C107 1.384 . S
C106 C108 1.384 . S
C106 H128 0.931 . S
C107 C106 1.384 . S
C107 C110 1.382 . S
C108 C106 1.384 . S
C108 C109 1.381 . S
C108 H129 0.930 . S
C109 C108 1.381 . S
C109 C111 1.381 . S
C109 C112 1.487 . S
C110 C107 1.382 . S
C110 C111 1.387 . S
C110 H130 0.930 . S
C111 C109 1.381 . S
C111 C110 1.387 . S
C111 H131 0.931 . S
C112 C109 1.487 . S
C112 C119 1.399 . S
C112 N137 1.343 . S
C113 C114 1.384 . S
C113 C115 1.384 . S
C113 H132 0.931 . S
C114 C113 1.384 . S
C114 C117 1.382 . S
C115 C113 1.384 . S
C115 C116 1.381 . S
C115 H133 0.930 . S
C116 C115 1.381 . S
C116 C118 1.381 . S
C116 C119 1.487 . S
C117 C114 1.382 . S
C117 C118 1.387 . S
C117 H134 0.930 . S
C118 C116 1.381 . S
C118 C117 1.387 . S
C118 H135 0.931 . S
C119 C112 1.399 . S
C119 C116 1.487 . S
C119 N136 1.343 . S
H120 C92 0.931 . S
H121 C94 0.930 . S
H122 C96 0.930 . S
H123 C97 0.931 . S
H124 C99 0.931 . S
H125 C101 0.930 . S
H126 C103 0.930 . S
H127 C104 0.931 . S
H128 C106 0.931 . S
H129 C108 0.930 . S
H130 C110 0.930 . S
H131 C111 0.931 . S
H132 C113 0.931 . S
H133 C115 0.930 . S
H134 C117 0.930 . S
H135 C118 0.931 . S
N136 C98 1.343 . S
N136 C119 1.343 . S
N137 C105 1.343 . S
N137 C112 1.343 . S
C138 C139 1.384 . S
C138 C140 1.384 . S
C138 H166 0.931 . S
C139 C138 1.384 . S
C139 C142 1.382 . S
C140 C138 1.384 . S
C140 C141 1.381 . S
C140 H167 0.930 . S
C141 C140 1.381 . S
C141 C143 1.381 . S
C141 C144 1.487 . S
C142 C139 1.382 . S
C142 C143 1.387 . S
C142 H168 0.930 . S
C143 C141 1.381 . S
C143 C142 1.387 . S
C143 H169 0.931 . S
C144 C141 1.487 . S
C144 C151 1.399 . S
C144 N182 1.343 1_655 S
C145 C146 1.384 . S
C145 C147 1.384 . S
C145 H170 0.931 . S
C146 C145 1.384 . S
C146 C149 1.382 . S
C147 C145 1.384 . S
C147 C148 1.381 . S
C147 H171 0.930 . S
C148 C147 1.381 . S
C148 C150 1.381 . S
C148 C151 1.487 . S
C149 C146 1.382 . S
C149 C150 1.387 . S
C149 H172 0.930 . S
C150 C148 1.381 . S
C150 C149 1.387 . S
C150 H173 0.917 1_655 S
C151 C144 1.399 . S
C151 C148 1.487 . S
C151 N183 1.343 1_655 S
C152 C153 1.384 . S
C152 C154 1.384 . S
C152 H174 0.931 . S
C153 C152 1.384 . S
C153 C156 1.382 . S
C154 C152 1.384 . S
C154 C155 1.381 . S
C154 H175 0.930 . S
C155 C154 1.381 . S
C155 C157 1.381 . S
C155 C158 1.487 . S
C156 C153 1.382 . S
C156 C157 1.387 . S
C156 H176 0.930 . S
C157 C155 1.381 . S
C157 C156 1.387 . S
C157 H177 0.931 . S
C158 C155 1.487 . S
C158 C165 1.399 . S
C158 N183 1.343 . S
C159 C160 1.384 . S
C159 C161 1.384 . S
C159 H178 0.931 . S
C160 C159 1.384 . S
C160 C163 1.382 . S
C161 C159 1.384 . S
C161 C162 1.381 . S
C161 H179 0.930 . S
C162 C161 1.381 . S
C162 C164 1.381 . S
C162 C165 1.487 . S
C163 C160 1.382 . S
C163 C164 1.387 . S
C163 H180 0.930 . S
C164 C162 1.381 . S
C164 C163 1.387 . S
C164 H181 0.931 . S
C165 C158 1.399 . S
C165 C162 1.487 . S
C165 N182 1.343 . S
H166 C138 0.931 . S
H167 C140 0.930 . S
H168 C142 0.930 . S
H169 C143 0.931 . S
H170 C145 0.931 . S
H171 C147 0.930 . S
H172 C149 0.930 . S
H173 C150 0.917 1_455 S
H174 C152 0.931 . S
H175 C154 0.930 . S
H176 C156 0.930 . S
H177 C157 0.931 . S
H178 C159 0.931 . S
H179 C161 0.930 . S
H180 C163 0.930 . S
H181 C164 0.931 . S
N182 C144 1.343 1_455 S
N182 C165 1.343 . S
N183 C151 1.343 1_455 S
N183 C158 1.343 . S
C184 C185 1.384 . S
C184 C186 1.384 . S
C184 H212 0.931 . S
C185 C184 1.384 . S
C185 C188 1.382 . S
C186 C184 1.384 . S
C186 C187 1.381 . S
C186 H213 0.930 1_556 S
C187 C186 1.381 . S
C187 C189 1.381 . S
C187 C190 1.487 . S
C188 C185 1.382 . S
C188 C189 1.387 . S
C188 H214 0.930 . S
C189 C187 1.381 . S
C189 C188 1.387 . S
C189 H215 0.931 . S
C190 C187 1.487 . S
C190 C197 1.403 1_556 S
C190 N228 1.343 1_565 S
C191 C192 1.384 . S
C191 C193 1.384 . S
C191 H216 0.931 . S
C192 C191 1.384 . S
C192 C195 1.382 . S
C193 C191 1.384 . S
C193 C194 1.381 . S
C193 H217 0.930 . S
C194 C193 1.381 . S
C194 C196 1.381 . S
C194 C197 1.496 . S
C195 C192 1.382 . S
C195 C196 1.387 . S
C195 H218 0.930 . S
C196 C194 1.381 . S
C196 C195 1.387 . S
C196 H219 0.931 1_565 S
C197 C190 1.403 1_554 S
C197 C194 1.496 . S
C197 N229 1.329 1_565 S
C198 C199 1.384 . S
C198 C200 1.384 1_554 S
C198 H220 0.931 1_554 S
C199 C198 1.384 . S
C199 C202 1.382 . S
C200 C198 1.384 1_556 S
C200 C201 1.381 1_556 S
C200 H221 0.930 . S
C201 C200 1.381 1_554 S
C201 C203 1.381 . S
C201 C204 1.487 1_554 S
C202 C199 1.382 . S
C202 C203 1.387 . S
C202 H222 0.930 . S
C203 C201 1.381 . S
C203 C202 1.387 . S
C203 H223 0.931 . S
C204 C201 1.487 1_556 S
C204 C211 1.399 . S
C204 N229 1.343 1_556 S
C205 C206 1.384 . S
C205 C207 1.384 . S
C205 H224 0.931 . S
C206 C205 1.384 . S
C206 C209 1.382 . S
C207 C205 1.384 . S
C207 C208 1.381 . S
C207 H225 0.930 . S
C208 C207 1.381 . S
C208 C210 1.381 . S
C208 C211 1.487 . S
C209 C206 1.382 . S
C209 C210 1.387 . S
C209 H226 0.930 . S
C210 C208 1.381 . S
C210 C209 1.387 . S
C210 H227 0.931 . S
C211 C204 1.399 . S
C211 C208 1.487 . S
C211 N228 1.343 . S
H212 C184 0.931 . S
H213 C186 0.930 1_554 S
H214 C188 0.930 . S
H215 C189 0.931 . S
H216 C191 0.931 . S
H217 C193 0.930 . S
H218 C195 0.930 . S
H219 C196 0.931 1_545 S
H220 C198 0.931 1_556 S
H221 C200 0.930 . S
H222 C202 0.930 . S
H223 C203 0.931 . S
H224 C205 0.931 . S
H225 C207 0.930 . S
H226 C209 0.930 . S
H227 C210 0.931 . S
N228 C190 1.343 1_545 S
N228 C211 1.343 . S
N229 C197 1.329 1_545 S
N229 C204 1.343 1_554 S
C230 C231 1.384 . S
C230 C232 1.384 . S
C230 H258 0.931 . S
C231 C230 1.384 . S
C231 C234 1.382 . S
C232 C230 1.384 . S
C232 C233 1.381 . S
C232 H259 0.930 . S
C233 C232 1.381 . S
C233 C235 1.381 . S
C233 C236 1.487 . S
C234 C231 1.382 . S
C234 C235 1.387 . S
C234 H260 0.930 . S
C235 C233 1.381 . S
C235 C234 1.387 . S
C235 H261 0.931 . S
C236 C233 1.487 . S
C236 C243 1.399 . S
C236 N274 1.343 . S
C237 C238 1.384 . S
C237 C239 1.384 . S
C237 H262 0.931 . S
C238 C237 1.384 . S
C238 C241 1.382 . S
C239 C237 1.384 . S
C239 C240 1.381 . S
C239 H263 0.930 . S
C240 C239 1.381 . S
C240 C242 1.381 . S
C240 C243 1.487 . S
C241 C238 1.382 . S
C241 C242 1.387 . S
C241 H264 0.930 . S
C242 C240 1.381 . S
C242 C241 1.387 . S
C242 H265 0.931 . S
C243 C236 1.399 . S
C243 C240 1.487 . S
C243 N275 1.343 . S
C244 C245 1.384 . S
C244 C246 1.384 . S
C244 H266 0.931 . S
C245 C244 1.384 . S
C245 C248 1.382 . S
C246 C244 1.384 . S
C246 C247 1.381 . S
C246 H267 0.930 . S
C247 C246 1.381 . S
C247 C249 1.381 . S
C247 C250 1.487 . S
C248 C245 1.382 . S
C248 C249 1.387 . S
C248 H268 0.930 . S
C249 C247 1.381 . S
C249 C248 1.387 . S
C249 H269 0.931 . S
C250 C247 1.487 . S
C250 C257 1.399 . S
C250 N275 1.343 . S
C251 C252 1.384 . S
C251 C253 1.384 . S
C251 H270 0.931 . S
C252 C251 1.384 . S
C252 C255 1.382 . S
C253 C251 1.384 . S
C253 C254 1.381 . S
C253 H271 0.930 . S
C254 C253 1.381 . S
C254 C256 1.381 . S
C254 C257 1.487 . S
C255 C252 1.382 . S
C255 C256 1.387 . S
C255 H272 0.930 . S
C256 C254 1.381 . S
C256 C255 1.387 . S
C256 H273 0.931 . S
C257 C250 1.399 . S
C257 C254 1.487 . S
C257 N274 1.343 . S
H258 C230 0.931 . S
H259 C232 0.930 . S
H260 C234 0.930 . S
H261 C235 0.931 . S
H262 C237 0.931 . S
H263 C239 0.930 . S
H264 C241 0.930 . S
H265 C242 0.931 . S
H266 C244 0.931 . S
H267 C246 0.930 . S
H268 C248 0.930 . S
H269 C249 0.931 . S
H270 C251 0.931 . S
H271 C253 0.930 . S
H272 C255 0.930 . S
H273 C256 0.931 . S
N274 C236 1.343 . S
N274 C257 1.343 . S
N275 C243 1.343 . S
N275 C250 1.343 . S
In276 O277 2.294 . S
In276 O278 2.326 . S
In276 O282 2.266 . S
In276 O283 2.326 . S
In276 O284 2.266 . S
In276 O285 2.326 . S
In276 O287 2.294 . S
In276 O288 2.326 . S
O277 In276 2.294 . S
O277 C286 1.240 . S
O278 In276 2.326 . S
O278 C286 1.252 . S
C279 O282 1.252 . S
C279 O283 1.260 . S
C280 O287 1.240 . S
C280 O288 1.252 . S
C281 O284 1.252 . S
C281 O285 1.260 . S
O282 In276 2.266 . S
O282 C279 1.252 . S
O283 In276 2.326 . S
O283 C279 1.260 . S
O284 In276 2.266 . S
O284 C281 1.252 . S
O285 In276 2.326 . S
O285 C281 1.260 . S
C286 O277 1.240 . S
C286 O278 1.252 . S
O287 In276 2.294 . S
O287 C280 1.240 . S
O288 In276 2.326 . S
O288 C280 1.252 . S
In289 O290 2.294 . S
In289 O291 2.326 . S
In289 O295 2.266 . S
In289 O296 2.326 . S
In289 O297 2.266 . S
In289 O298 2.326 . S
In289 O300 2.294 . S
In289 O301 2.326 . S
O290 In289 2.294 . S
O290 C299 1.240 . S
O291 In289 2.326 . S
O291 C299 1.252 . S
C292 O295 1.252 . S
C292 O296 1.260 . S
C293 O300 1.240 . S
C293 O301 1.252 . S
C294 O297 1.252 . S
C294 O298 1.260 . S
O295 In289 2.266 . S
O295 C292 1.252 . S
O296 In289 2.326 . S
O296 C292 1.260 . S
O297 In289 2.266 . S
O297 C294 1.252 . S
O298 In289 2.326 . S
O298 C294 1.260 . S
C299 O290 1.240 . S
C299 O291 1.252 . S
O300 In289 2.294 . S
O300 C293 1.240 . S
O301 In289 2.326 . S
O301 C293 1.252 . S
In302 O303 2.294 . S
In302 O304 2.326 . S
In302 O308 2.266 . S
In302 O309 2.326 . S
In302 O310 2.266 . S
In302 O311 2.326 . S
In302 O313 2.294 . S
In302 O314 2.326 . S
O303 In302 2.294 . S
O303 C312 1.240 . S
O304 In302 2.326 . S
O304 C312 1.252 . S
C305 O308 1.252 . S
C305 O309 1.260 . S
C306 O313 1.240 . S
C306 O314 1.252 . S
C307 O310 1.252 . S
C307 O311 1.260 . S
O308 In302 2.266 . S
O308 C305 1.252 . S
O309 In302 2.326 . S
O309 C305 1.260 . S
O310 In302 2.266 . S
O310 C307 1.252 . S
O311 In302 2.326 . S
O311 C307 1.260 . S
C312 O303 1.240 . S
C312 O304 1.252 . S
O313 In302 2.294 . S
O313 C306 1.240 . S
O314 In302 2.326 . S
O314 C306 1.252 . S
In315 O316 2.294 . S
In315 O317 2.326 . S
In315 O321 2.266 . S
In315 O322 2.326 . S
In315 O323 2.266 . S
In315 O324 2.326 . S
In315 O326 2.294 . S
In315 O327 2.326 . S
O316 In315 2.294 . S
O316 C325 1.240 . S
O317 In315 2.326 . S
O317 C325 1.252 . S
C318 O321 1.252 . S
C318 O322 1.260 . S
C319 O326 1.240 . S
C319 O327 1.252 . S
C320 O323 1.252 . S
C320 O324 1.260 . S
O321 In315 2.266 . S
O321 C318 1.252 . S
O322 In315 2.326 . S
O322 C318 1.260 . S
O323 In315 2.266 . S
O323 C320 1.252 . S
O324 In315 2.326 . S
O324 C320 1.260 . S
C325 O316 1.240 . S
C325 O317 1.252 . S
O326 In315 2.294 . S
O326 C319 1.240 . S
O327 In315 2.326 . S
O327 C319 1.252 . S
In328 O329 2.294 . S
In328 O330 2.326 . S
In328 O334 2.266 . S
In328 O335 2.326 . S
In328 O336 2.266 . S
In328 O337 2.326 . S
In328 O339 2.294 . S
In328 O340 2.326 . S
O329 In328 2.294 . S
O329 C338 1.240 . S
O330 In328 2.326 . S
O330 C338 1.252 . S
C331 O334 1.252 . S
C331 O335 1.260 . S
C332 O339 1.240 . S
C332 O340 1.252 . S
C333 O336 1.252 . S
C333 O337 1.260 . S
O334 In328 2.266 . S
O334 C331 1.252 . S
O335 In328 2.326 . S
O335 C331 1.260 . S
O336 In328 2.266 . S
O336 C333 1.252 . S
O337 In328 2.326 . S
O337 C333 1.260 . S
C338 O329 1.240 . S
C338 O330 1.252 . S
O339 In328 2.294 . S
O339 C332 1.240 . S
O340 In328 2.326 . S
O340 C332 1.252 . S
In341 O342 2.294 . S
In341 O343 2.326 . S
In341 O347 2.266 . S
In341 O348 2.326 . S
In341 O349 2.266 . S
In341 O350 2.326 . S
In341 O352 2.294 . S
In341 O353 2.326 . S
O342 In341 2.294 . S
O342 C351 1.240 . S
O343 In341 2.326 . S
O343 C351 1.252 . S
C344 O347 1.252 . S
C344 O348 1.260 . S
C345 O352 1.240 . S
C345 O353 1.252 . S
C346 O349 1.252 . S
C346 O350 1.260 . S
O347 In341 2.266 . S
O347 C344 1.252 . S
O348 In341 2.326 . S
O348 C344 1.260 . S
O349 In341 2.266 . S
O349 C346 1.252 . S
O350 In341 2.326 . S
O350 C346 1.260 . S
C351 O342 1.240 . S
C351 O343 1.252 . S
O352 In341 2.294 . S
O352 C345 1.240 . S
O353 In341 2.326 . S
O353 C345 1.252 . S
H354 C366 0.930 . S
H355 C368 0.930 . S
H356 C369 0.930 . S
H357 C373 0.959 . S
H358 C373 0.959 . S
H359 C373 0.961 . S
H360 C374 0.960 . S
H361 C374 0.961 . S
H362 C374 0.959 . S
H363 C377 0.929 . S
H364 C378 0.931 . S
H365 C380 0.930 . S
C366 H354 0.930 . S
C366 C367 1.399 . S
C366 C371 1.399 . S
C367 C366 1.399 . S
C367 C368 1.376 . S
C368 H355 0.930 . S
C368 C367 1.376 . S
C368 C369 1.388 . S
C369 H356 0.930 . S
C369 C368 1.388 . S
C369 C370 1.390 . S
C370 C369 1.390 . S
C370 C371 1.394 . S
C370 C376 1.465 . S
C371 C366 1.399 . S
C371 C370 1.394 . S
C371 C372 1.516 . S
C372 C371 1.516 . S
C372 C373 1.502 . S
C372 C374 1.561 . S
C372 C375 1.526 . S
C373 H357 0.959 . S
C373 H358 0.959 . S
C373 H359 0.961 . S
C373 C372 1.502 . S
C374 H360 0.960 . S
C374 H361 0.961 . S
C374 H362 0.959 . S
C374 C372 1.561 . S
C375 C372 1.526 . S
C375 C376 1.396 . S
C375 C380 1.390 . S
C376 C370 1.465 . S
C376 C375 1.396 . S
C376 C377 1.399 . S
C377 H363 0.929 . S
C377 C376 1.399 . S
C377 C378 1.385 . S
C378 H364 0.931 . S
C378 C377 1.385 . S
C378 C379 1.389 . S
C379 C378 1.389 . S
C379 C380 1.387 . S
C380 H365 0.930 . S
C380 C375 1.390 . S
C380 C379 1.387 . S
H381 C393 0.930 . S
H382 C395 0.930 . S
H383 C396 0.930 . S
H384 C400 0.959 . S
H385 C400 0.959 . S
H386 C400 0.961 . S
H387 C401 0.960 . S
H388 C401 0.961 . S
H389 C401 0.959 . S
H390 C404 0.929 . S
H391 C405 0.931 . S
H392 C407 0.930 . S
C393 H381 0.930 . S
C393 C394 1.399 . S
C393 C398 1.399 . S
C394 C393 1.399 . S
C394 C395 1.376 . S
C395 H382 0.930 . S
C395 C394 1.376 . S
C395 C396 1.388 . S
C396 H383 0.930 . S
C396 C395 1.388 . S
C396 C397 1.390 . S
C397 C396 1.390 . S
C397 C398 1.394 . S
C397 C403 1.465 . S
C398 C393 1.399 . S
C398 C397 1.394 . S
C398 C399 1.516 . S
C399 C398 1.516 . S
C399 C400 1.502 . S
C399 C401 1.561 . S
C399 C402 1.526 . S
C400 H384 0.959 . S
C400 H385 0.959 . S
C400 H386 0.961 . S
C400 C399 1.502 . S
C401 H387 0.960 . S
C401 H388 0.961 . S
C401 H389 0.959 . S
C401 C399 1.561 . S
C402 C399 1.526 . S
C402 C403 1.396 . S
C402 C407 1.390 . S
C403 C397 1.465 . S
C403 C402 1.396 . S
C403 C404 1.399 . S
C404 H390 0.929 . S
C404 C403 1.399 . S
C404 C405 1.385 . S
C405 H391 0.931 . S
C405 C404 1.385 . S
C405 C406 1.389 . S
C406 C405 1.389 . S
C406 C407 1.387 . S
C407 H392 0.930 . S
C407 C402 1.390 . S
C407 C406 1.387 . S
H408 C420 0.930 . S
H409 C422 0.930 . S
H410 C423 0.930 . S
H411 C427 0.959 . S
H412 C427 0.959 . S
H413 C427 0.961 . S
H414 C428 0.960 . S
H415 C428 0.961 . S
H416 C428 0.959 . S
H417 C431 0.929 . S
H418 C432 0.931 . S
H419 C434 0.930 . S
C420 H408 0.930 . S
C420 C421 1.399 . S
C420 C425 1.399 . S
C421 C420 1.399 . S
C421 C422 1.376 . S
C422 H409 0.930 . S
C422 C421 1.376 . S
C422 C423 1.388 . S
C423 H410 0.930 . S
C423 C422 1.388 . S
C423 C424 1.390 . S
C424 C423 1.390 . S
C424 C425 1.394 . S
C424 C430 1.465 . S
C425 C420 1.399 . S
C425 C424 1.394 . S
C425 C426 1.516 . S
C426 C425 1.516 . S
C426 C427 1.502 . S
C426 C428 1.561 . S
C426 C429 1.526 . S
C427 H411 0.959 . S
C427 H412 0.959 . S
C427 H413 0.961 . S
C427 C426 1.502 . S
C428 H414 0.960 . S
C428 H415 0.961 . S
C428 H416 0.959 . S
C428 C426 1.561 . S
C429 C426 1.526 . S
C429 C430 1.396 . S
C429 C434 1.390 . S
C430 C424 1.465 . S
C430 C429 1.396 . S
C430 C431 1.399 . S
C431 H417 0.929 . S
C431 C430 1.399 . S
C431 C432 1.385 . S
C432 H418 0.931 . S
C432 C431 1.385 . S
C432 C433 1.389 . S
C433 C432 1.389 . S
C433 C434 1.387 . S
C434 H419 0.930 . S
C434 C429 1.390 . S
C434 C433 1.387 . S
H435 C447 0.930 . S
H436 C449 0.930 . S
H437 C450 0.930 . S
H438 C454 0.959 . S
H439 C454 0.959 . S
H440 C454 0.961 . S
H441 C455 0.960 . S
H442 C455 0.961 . S
H443 C455 0.959 . S
H444 C458 0.929 . S
H445 C459 0.931 . S
H446 C461 0.930 . S
C447 H435 0.930 . S
C447 C448 1.399 . S
C447 C452 1.399 . S
C448 C447 1.399 . S
C448 C449 1.376 . S
C449 H436 0.930 . S
C449 C448 1.376 . S
C449 C450 1.388 . S
C450 H437 0.930 . S
C450 C449 1.388 . S
C450 C451 1.390 . S
C451 C450 1.390 . S
C451 C452 1.394 . S
C451 C457 1.465 . S
C452 C447 1.399 . S
C452 C451 1.394 . S
C452 C453 1.516 . S
C453 C452 1.516 . S
C453 C454 1.502 . S
C453 C455 1.561 . S
C453 C456 1.526 . S
C454 H438 0.959 . S
C454 H439 0.959 . S
C454 H440 0.961 . S
C454 C453 1.502 . S
C455 H441 0.960 . S
C455 H442 0.961 . S
C455 H443 0.959 . S
C455 C453 1.561 . S
C456 C453 1.526 . S
C456 C457 1.396 . S
C456 C461 1.390 . S
C457 C451 1.465 . S
C457 C456 1.396 . S
C457 C458 1.399 . S
C458 H444 0.929 . S
C458 C457 1.399 . S
C458 C459 1.385 . S
C459 H445 0.931 . S
C459 C458 1.385 . S
C459 C460 1.389 . S
C460 C459 1.389 . S
C460 C461 1.387 . S
C461 H446 0.930 . S
C461 C456 1.390 . S
C461 C460 1.387 . S
H462 C474 0.930 . S
H463 C476 0.930 . S
H464 C477 0.930 . S
H465 C481 0.959 . S
H466 C481 0.959 . S
H467 C481 0.961 . S
H468 C482 0.960 . S
H469 C482 0.961 . S
H470 C482 0.959 . S
H471 C485 0.929 . S
H472 C486 0.931 . S
H473 C488 0.930 . S
C474 H462 0.930 . S
C474 C475 1.399 . S
C474 C479 1.399 . S
C475 C474 1.399 . S
C475 C476 1.376 . S
C476 H463 0.930 . S
C476 C475 1.376 . S
C476 C477 1.388 . S
C477 H464 0.930 . S
C477 C476 1.388 . S
C477 C478 1.390 . S
C478 C477 1.390 . S
C478 C479 1.394 . S
C478 C484 1.465 . S
C479 C474 1.399 . S
C479 C478 1.394 . S
C479 C480 1.516 . S
C480 C479 1.516 . S
C480 C481 1.502 . S
C480 C482 1.561 . S
C480 C483 1.526 . S
C481 H465 0.959 . S
C481 H466 0.959 . S
C481 H467 0.961 . S
C481 C480 1.502 . S
C482 H468 0.960 . S
C482 H469 0.961 . S
C482 H470 0.959 . S
C482 C480 1.561 . S
C483 C480 1.526 . S
C483 C484 1.396 . S
C483 C488 1.390 . S
C484 C478 1.465 . S
C484 C483 1.396 . S
C484 C485 1.399 . S
C485 H471 0.929 . S
C485 C484 1.399 . S
C485 C486 1.385 . S
C486 H472 0.931 . S
C486 C485 1.385 . S
C486 C487 1.389 . S
C487 C486 1.389 . S
C487 C488 1.387 . S
C488 H473 0.930 . S
C488 C483 1.390 . S
C488 C487 1.387 . S
H489 C501 0.930 . S
H490 C503 0.930 . S
H491 C504 0.930 . S
H492 C508 0.959 . S
H493 C508 0.959 . S
H494 C508 0.961 . S
H495 C509 0.960 . S
H496 C509 0.961 . S
H497 C509 0.959 . S
H498 C512 0.929 . S
H499 C513 0.931 . S
H500 C515 0.930 . S
C501 H489 0.930 . S
C501 C502 1.399 . S
C501 C506 1.399 . S
C502 C501 1.399 . S
C502 C503 1.376 . S
C503 H490 0.930 . S
C503 C502 1.376 . S
C503 C504 1.388 . S
C504 H491 0.930 . S
C504 C503 1.388 . S
C504 C505 1.390 . S
C505 C504 1.390 . S
C505 C506 1.394 . S
C505 C511 1.465 . S
C506 C501 1.399 . S
C506 C505 1.394 . S
C506 C507 1.516 . S
C507 C506 1.516 . S
C507 C508 1.502 . S
C507 C509 1.561 . S
C507 C510 1.526 . S
C508 H492 0.959 . S
C508 H493 0.959 . S
C508 H494 0.961 . S
C508 C507 1.502 . S
C509 H495 0.960 . S
C509 H496 0.961 . S
C509 H497 0.959 . S
C509 C507 1.561 . S
C510 C507 1.526 . S
C510 C511 1.396 . S
C510 C515 1.390 . S
C511 C505 1.465 . S
C511 C510 1.396 . S
C511 C512 1.399 . S
C512 H498 0.929 . S
C512 C511 1.399 . S
C512 C513 1.385 . S
C513 H499 0.931 . S
C513 C512 1.385 . S
C513 C514 1.389 . S
C514 C513 1.389 . S
C514 C515 1.387 . S
C515 H500 0.930 . S
C515 C510 1.390 . S
C515 C514 1.387 . S
H516 C528 0.930 . S
H517 C530 0.930 . S
H518 C531 0.930 . S
H519 C535 0.959 . S
H520 C535 0.959 . S
H521 C535 0.961 . S
H522 C536 0.960 . S
H523 C536 0.961 . S
H524 C536 0.959 . S
H525 C539 0.929 . S
H526 C540 0.931 . S
H527 C542 0.930 . S
C528 H516 0.930 . S
C528 C529 1.399 . S
C528 C533 1.399 . S
C529 C528 1.399 . S
C529 C530 1.376 . S
C530 H517 0.930 . S
C530 C529 1.376 . S
C530 C531 1.388 . S
C531 H518 0.930 . S
C531 C530 1.388 . S
C531 C532 1.390 . S
C532 C531 1.390 . S
C532 C533 1.394 . S
C532 C538 1.465 . S
C533 C528 1.399 . S
C533 C532 1.394 . S
C533 C534 1.516 . S
C534 C533 1.516 . S
C534 C535 1.502 . S
C534 C536 1.561 . S
C534 C537 1.526 . S
C535 H519 0.959 . S
C535 H520 0.959 . S
C535 H521 0.961 . S
C535 C534 1.502 . S
C536 H522 0.960 . S
C536 H523 0.961 . S
C536 H524 0.959 . S
C536 C534 1.561 . S
C537 C534 1.526 . S
C537 C538 1.396 . S
C537 C542 1.390 . S
C538 C532 1.465 . S
C538 C537 1.396 . S
C538 C539 1.399 . S
C539 H525 0.929 . S
C539 C538 1.399 . S
C539 C540 1.385 . S
C540 H526 0.931 . S
C540 C539 1.385 . S
C540 C541 1.389 . S
C541 C540 1.389 . S
C541 C542 1.387 . S
C542 H527 0.930 . S
C542 C537 1.390 . S
C542 C541 1.387 . S
H543 C555 0.930 . S
H544 C557 0.930 . S
H545 C558 0.930 . S
H546 C562 0.959 . S
H547 C562 0.959 . S
H548 C562 0.961 . S
H549 C563 0.960 . S
H550 C563 0.961 . S
H551 C563 0.959 . S
H552 C566 0.929 . S
H553 C567 0.931 . S
H554 C569 0.930 . S
C555 H543 0.930 . S
C555 C556 1.399 . S
C555 C560 1.399 . S
C556 C555 1.399 . S
C556 C557 1.376 . S
C557 H544 0.930 . S
C557 C556 1.376 . S
C557 C558 1.388 . S
C558 H545 0.930 . S
C558 C557 1.388 . S
C558 C559 1.390 . S
C559 C558 1.390 . S
C559 C560 1.394 . S
C559 C565 1.465 . S
C560 C555 1.399 . S
C560 C559 1.394 . S
C560 C561 1.516 . S
C561 C560 1.516 . S
C561 C562 1.502 . S
C561 C563 1.561 . S
C561 C564 1.526 . S
C562 H546 0.959 . S
C562 H547 0.959 . S
C562 H548 0.961 . S
C562 C561 1.502 . S
C563 H549 0.960 . S
C563 H550 0.961 . S
C563 H551 0.959 . S
C563 C561 1.561 . S
C564 C561 1.526 . S
C564 C565 1.396 . S
C564 C569 1.390 . S
C565 C559 1.465 . S
C565 C564 1.396 . S
C565 C566 1.399 . S
C566 H552 0.929 . S
C566 C565 1.399 . S
C566 C567 1.385 . S
C567 H553 0.931 . S
C567 C566 1.385 . S
C567 C568 1.389 . S
C568 C567 1.389 . S
C568 C569 1.387 . S
C569 H554 0.930 . S
C569 C564 1.390 . S
C569 C568 1.387 . S
H570 C582 0.930 . S
H571 C584 0.930 . S
H572 C585 0.930 . S
H573 C589 0.959 . S
H574 C589 0.959 . S
H575 C589 0.961 . S
H576 C590 0.960 . S
H577 C590 0.961 . S
H578 C590 0.959 . S
H579 C593 0.929 . S
H580 C594 0.931 . S
H581 C596 0.930 . S
C582 H570 0.930 . S
C582 C583 1.399 . S
C582 C587 1.399 . S
C583 C582 1.399 . S
C583 C584 1.376 . S
C584 H571 0.930 . S
C584 C583 1.376 . S
C584 C585 1.388 . S
C585 H572 0.930 . S
C585 C584 1.388 . S
C585 C586 1.390 . S
C586 C585 1.390 . S
C586 C587 1.394 . S
C586 C592 1.465 . S
C587 C582 1.399 . S
C587 C586 1.394 . S
C587 C588 1.516 . S
C588 C587 1.516 . S
C588 C589 1.502 . S
C588 C590 1.561 . S
C588 C591 1.526 . S
C589 H573 0.959 . S
C589 H574 0.959 . S
C589 H575 0.961 . S
C589 C588 1.502 . S
C590 H576 0.960 . S
C590 H577 0.961 . S
C590 H578 0.959 . S
C590 C588 1.561 . S
C591 C588 1.526 . S
C591 C592 1.396 . S
C591 C596 1.390 . S
C592 C586 1.465 . S
C592 C591 1.396 . S
C592 C593 1.399 . S
C593 H579 0.929 . S
C593 C592 1.399 . S
C593 C594 1.385 . S
C594 H580 0.931 . S
C594 C593 1.385 . S
C594 C595 1.389 . S
C595 C594 1.389 . S
C595 C596 1.387 . S
C596 H581 0.930 . S
C596 C591 1.390 . S
C596 C595 1.387 . S
H597 C609 0.930 . S
H598 C611 0.930 . S
H599 C612 0.930 . S
H600 C616 0.959 . S
H601 C616 0.959 . S
H602 C616 0.961 . S
H603 C617 0.960 . S
H604 C617 0.961 . S
H605 C617 0.959 . S
H606 C620 0.929 . S
H607 C621 0.931 . S
H608 C623 0.930 . S
C609 H597 0.930 . S
C609 C610 1.399 . S
C609 C614 1.399 . S
C610 C609 1.399 . S
C610 C611 1.376 . S
C611 H598 0.930 . S
C611 C610 1.376 . S
C611 C612 1.388 . S
C612 H599 0.930 . S
C612 C611 1.388 . S
C612 C613 1.390 . S
C613 C612 1.390 . S
C613 C614 1.394 . S
C613 C619 1.465 . S
C614 C609 1.399 . S
C614 C613 1.394 . S
C614 C615 1.516 . S
C615 C614 1.516 . S
C615 C616 1.502 . S
C615 C617 1.561 . S
C615 C618 1.526 . S
C616 H600 0.959 . S
C616 H601 0.959 . S
C616 H602 0.961 . S
C616 C615 1.502 . S
C617 H603 0.960 . S
C617 H604 0.961 . S
C617 H605 0.959 . S
C617 C615 1.561 . S
C618 C615 1.526 . S
C618 C619 1.396 . S
C618 C623 1.390 . S
C619 C613 1.465 . S
C619 C618 1.396 . S
C619 C620 1.399 . S
C620 H606 0.929 . S
C620 C619 1.399 . S
C620 C621 1.385 . S
C621 H607 0.931 . S
C621 C620 1.385 . S
C621 C622 1.389 . S
C622 C621 1.389 . S
C622 C623 1.387 . S
C623 H608 0.930 . S
C623 C618 1.390 . S
C623 C622 1.387 . S
H624 C636 0.930 . S
H625 C638 0.930 . S
H626 C639 0.930 . S
H627 C643 0.959 . S
H628 C643 0.959 . S
H629 C643 0.961 . S
H630 C644 0.960 . S
H631 C644 0.961 . S
H632 C644 0.959 . S
H633 C647 0.929 . S
H634 C648 0.931 . S
H635 C650 0.930 . S
C636 H624 0.930 . S
C636 C637 1.399 . S
C636 C641 1.399 . S
C637 C636 1.399 . S
C637 C638 1.376 . S
C638 H625 0.930 . S
C638 C637 1.376 . S
C638 C639 1.388 . S
C639 H626 0.930 . S
C639 C638 1.388 . S
C639 C640 1.390 . S
C640 C639 1.390 . S
C640 C641 1.394 . S
C640 C646 1.465 . S
C641 C636 1.399 . S
C641 C640 1.394 . S
C641 C642 1.516 . S
C642 C641 1.516 . S
C642 C643 1.502 . S
C642 C644 1.561 . S
C642 C645 1.526 . S
C643 H627 0.959 . S
C643 H628 0.959 . S
C643 H629 0.961 . S
C643 C642 1.502 . S
C644 H630 0.960 . S
C644 H631 0.961 . S
C644 H632 0.959 . S
C644 C642 1.561 . S
C645 C642 1.526 . S
C645 C646 1.396 . S
C645 C650 1.390 . S
C646 C640 1.465 . S
C646 C645 1.396 . S
C646 C647 1.399 . S
C647 H633 0.929 . S
C647 C646 1.399 . S
C647 C648 1.385 . S
C648 H634 0.931 . S
C648 C647 1.385 . S
C648 C649 1.389 . S
C649 C648 1.389 . S
C649 C650 1.387 . S
C650 H635 0.930 . S
C650 C645 1.390 . S
C650 C649 1.387 . S
H651 C663 0.930 . S
H652 C665 0.930 . S
H653 C666 0.930 . S
H654 C670 0.959 . S
H655 C670 0.959 . S
H656 C670 0.961 . S
H657 C671 0.960 . S
H658 C671 0.961 . S
H659 C671 0.959 . S
H660 C674 0.929 . S
H661 C675 0.931 . S
H662 C677 0.930 . S
C663 H651 0.930 . S
C663 C664 1.399 . S
C663 C668 1.399 . S
C664 C663 1.399 . S
C664 C665 1.376 . S
C665 H652 0.930 . S
C665 C664 1.376 . S
C665 C666 1.388 . S
C666 H653 0.930 . S
C666 C665 1.388 . S
C666 C667 1.390 . S
C667 C666 1.390 . S
C667 C668 1.394 . S
C667 C673 1.465 . S
C668 C663 1.399 . S
C668 C667 1.394 . S
C668 C669 1.516 . S
C669 C668 1.516 . S
C669 C670 1.502 . S
C669 C671 1.561 . S
C669 C672 1.526 . S
C670 H654 0.959 . S
C670 H655 0.959 . S
C670 H656 0.961 . S
C670 C669 1.502 . S
C671 H657 0.960 . S
C671 H658 0.961 . S
C671 H659 0.959 . S
C671 C669 1.561 . S
C672 C669 1.526 . S
C672 C673 1.396 . S
C672 C677 1.390 . S
C673 C667 1.465 . S
C673 C672 1.396 . S
C673 C674 1.399 . S
C674 H660 0.929 . S
C674 C673 1.399 . S
C674 C675 1.385 . S
C675 H661 0.931 . S
C675 C674 1.385 . S
C675 C676 1.389 . S
C676 C675 1.389 . S
C676 C677 1.387 . S
C677 H662 0.930 . S
C677 C672 1.390 . S
C677 C676 1.387 . S
H678 C690 0.930 . S
H679 C692 0.930 . S
H680 C693 0.930 . S
H681 C697 0.959 . S
H682 C697 0.959 . S
H683 C697 0.961 . S
H684 C698 0.960 . S
H685 C698 0.961 . S
H686 C698 0.959 . S
H687 C701 0.929 . S
H688 C702 0.931 . S
H689 C704 0.930 . S
C690 H678 0.930 . S
C690 C691 1.399 . S
C690 C695 1.399 . S
C691 C690 1.399 . S
C691 C692 1.376 . S
C692 H679 0.930 . S
C692 C691 1.376 . S
C692 C693 1.388 . S
C693 H680 0.930 . S
C693 C692 1.388 . S
C693 C694 1.390 . S
C694 C693 1.390 . S
C694 C695 1.394 . S
C694 C700 1.465 . S
C695 C690 1.399 . S
C695 C694 1.394 . S
C695 C696 1.516 . S
C696 C695 1.516 . S
C696 C697 1.502 . S
C696 C698 1.561 . S
C696 C699 1.526 . S
C697 H681 0.959 . S
C697 H682 0.959 . S
C697 H683 0.961 . S
C697 C696 1.502 . S
C698 H684 0.960 . S
C698 H685 0.961 . S
C698 H686 0.959 . S
C698 C696 1.561 . S
C699 C696 1.526 . S
C699 C700 1.396 . S
C699 C704 1.390 . S
C700 C694 1.465 . S
C700 C699 1.396 . S
C700 C701 1.399 . S
C701 H687 0.929 . S
C701 C700 1.399 . S
C701 C702 1.385 . S
C702 H688 0.931 . S
C702 C701 1.385 . S
C702 C703 1.389 . S
C703 C702 1.389 . S
C703 C704 1.387 . S
C704 H689 0.930 . S
C704 C699 1.390 . S
C704 C703 1.387 . S
H705 C717 0.930 . S
H706 C719 0.930 . S
H707 C720 0.930 . S
H708 C724 0.959 . S
H709 C724 0.959 . S
H710 C724 0.961 . S
H711 C725 0.960 . S
H712 C725 0.961 . S
H713 C725 0.959 . S
H714 C728 0.929 . S
H715 C729 0.931 . S
H716 C731 0.930 . S
C717 H705 0.930 . S
C717 C718 1.399 . S
C717 C722 1.399 . S
C718 C717 1.399 . S
C718 C719 1.376 . S
C719 H706 0.930 . S
C719 C718 1.376 . S
C719 C720 1.388 . S
C720 H707 0.930 . S
C720 C719 1.388 . S
C720 C721 1.390 . S
C721 C720 1.390 . S
C721 C722 1.394 . S
C721 C727 1.465 . S
C722 C717 1.399 . S
C722 C721 1.394 . S
C722 C723 1.516 . S
C723 C722 1.516 . S
C723 C724 1.502 . S
C723 C725 1.561 . S
C723 C726 1.526 . S
C724 H708 0.959 . S
C724 H709 0.959 . S
C724 H710 0.961 . S
C724 C723 1.502 . S
C725 H711 0.960 . S
C725 H712 0.961 . S
C725 H713 0.959 . S
C725 C723 1.561 . S
C726 C723 1.526 . S
C726 C727 1.396 . S
C726 C731 1.390 . S
C727 C721 1.465 . S
C727 C726 1.396 . S
C727 C728 1.399 . S
C728 H714 0.929 . S
C728 C727 1.399 . S
C728 C729 1.385 . S
C729 H715 0.931 . S
C729 C728 1.385 . S
C729 C730 1.389 . S
C730 C729 1.389 . S
C730 C731 1.387 . S
C731 H716 0.930 . S
C731 C726 1.390 . S
C731 C730 1.387 . S
H732 C744 0.930 . S
H733 C746 0.930 . S
H734 C747 0.930 . S
H735 C751 0.959 . S
H736 C751 0.959 . S
H737 C751 0.961 . S
H738 C752 0.960 . S
H739 C752 0.961 . S
H740 C752 0.959 . S
H741 C755 0.929 . S
H742 C756 0.931 . S
H743 C758 0.930 . S
C744 H732 0.930 . S
C744 C745 1.399 . S
C744 C749 1.399 . S
C745 C744 1.399 . S
C745 C746 1.376 . S
C746 H733 0.930 . S
C746 C745 1.376 . S
C746 C747 1.388 . S
C747 H734 0.930 . S
C747 C746 1.388 . S
C747 C748 1.390 . S
C748 C747 1.390 . S
C748 C749 1.394 . S
C748 C754 1.465 . S
C749 C744 1.399 . S
C749 C748 1.394 . S
C749 C750 1.516 . S
C750 C749 1.516 . S
C750 C751 1.502 . S
C750 C752 1.561 . S
C750 C753 1.526 . S
C751 H735 0.959 . S
C751 H736 0.959 . S
C751 H737 0.961 . S
C751 C750 1.502 . S
C752 H738 0.960 . S
C752 H739 0.961 . S
C752 H740 0.959 . S
C752 C750 1.561 . S
C753 C750 1.526 . S
C753 C754 1.396 . S
C753 C758 1.390 . S
C754 C748 1.465 . S
C754 C753 1.396 . S
C754 C755 1.399 . S
C755 H741 0.929 . S
C755 C754 1.399 . S
C755 C756 1.385 . S
C756 H742 0.931 . S
C756 C755 1.385 . S
C756 C757 1.389 . S
C757 C756 1.389 . S
C757 C758 1.387 . S
C758 H743 0.930 . S
C758 C753 1.390 . S
C758 C757 1.387 . S
H759 C771 0.930 . S
H760 C773 0.930 . S
H761 C774 0.930 . S
H762 C778 0.959 . S
H763 C778 0.959 . S
H764 C778 0.961 1_556 S
H765 C779 0.960 . S
H766 C779 0.961 1_554 S
H767 C779 0.959 . S
H768 C782 0.929 . S
H769 C783 0.931 . S
H770 C785 0.930 . S
C771 H759 0.930 . S
C771 C772 1.399 . S
C771 C776 1.399 . S
C772 C771 1.399 . S
C772 C773 1.376 . S
C773 H760 0.930 . S
C773 C772 1.376 . S
C773 C774 1.388 . S
C774 H761 0.930 . S
C774 C773 1.388 . S
C774 C775 1.390 . S
C775 C774 1.390 . S
C775 C776 1.394 . S
C775 C781 1.465 . S
C776 C771 1.399 . S
C776 C775 1.394 . S
C776 C777 1.516 . S
C777 C776 1.516 . S
C777 C778 1.502 1_556 S
C777 C779 1.561 . S
C777 C780 1.526 . S
C778 H762 0.959 . S
C778 H763 0.959 . S
C778 H764 0.961 1_554 S
C778 C777 1.502 1_554 S
C779 H765 0.960 . S
C779 H766 0.961 1_556 S
C779 H767 0.959 . S
C779 C777 1.561 . S
C780 C777 1.526 . S
C780 C781 1.396 . S
C780 C785 1.390 1_556 S
C781 C775 1.465 . S
C781 C780 1.396 . S
C781 C782 1.399 . S
C782 H768 0.929 . S
C782 C781 1.399 . S
C782 C783 1.385 1_556 S
C783 H769 0.931 . S
C783 C782 1.385 1_554 S
C783 C784 1.389 . S
C784 C783 1.389 . S
C784 C785 1.387 . S
C785 H770 0.930 . S
C785 C780 1.390 1_554 S
C785 C784 1.387 . S
H786 C798 0.930 . S
H787 C800 0.930 . S
H788 C801 0.930 . S
H789 C805 0.959 . S
H790 C805 0.959 . S
H791 C805 0.961 . S
H792 C806 0.960 . S
H793 C806 0.961 . S
H794 C806 0.959 . S
H795 C809 0.929 . S
H796 C810 0.931 . S
H797 C812 0.930 . S
C798 H786 0.930 . S
C798 C799 1.399 . S
C798 C803 1.399 . S
C799 C798 1.399 . S
C799 C800 1.376 . S
C800 H787 0.930 . S
C800 C799 1.376 . S
C800 C801 1.388 . S
C801 H788 0.930 . S
C801 C800 1.388 . S
C801 C802 1.390 . S
C802 C801 1.390 . S
C802 C803 1.394 . S
C802 C808 1.465 . S
C803 C798 1.399 . S
C803 C802 1.394 . S
C803 C804 1.516 . S
C804 C803 1.516 . S
C804 C805 1.502 . S
C804 C806 1.561 . S
C804 C807 1.526 . S
C805 H789 0.959 . S
C805 H790 0.959 . S
C805 H791 0.961 . S
C805 C804 1.502 . S
C806 H792 0.960 . S
C806 H793 0.961 . S
C806 H794 0.959 . S
C806 C804 1.561 . S
C807 C804 1.526 . S
C807 C808 1.396 . S
C807 C812 1.390 . S
C808 C802 1.465 . S
C808 C807 1.396 . S
C808 C809 1.399 . S
C809 H795 0.929 . S
C809 C808 1.399 . S
C809 C810 1.385 . S
C810 H796 0.931 . S
C810 C809 1.385 . S
C810 C811 1.389 . S
C811 C810 1.389 . S
C811 C812 1.387 . S
C812 H797 0.930 . S
C812 C807 1.390 . S
C812 C811 1.387 . S
H813 C825 0.930 . S
H814 C827 0.930 . S
H815 C828 0.930 . S
H816 C832 0.959 . S
H817 C832 0.959 . S
H818 C832 0.961 . S
H819 C833 0.960 . S
H820 C833 0.961 . S
H821 C833 0.959 . S
H822 C836 0.929 . S
H823 C837 0.931 . S
H824 C839 0.930 . S
C825 H813 0.930 . S
C825 C826 1.399 . S
C825 C830 1.399 . S
C826 C825 1.399 . S
C826 C827 1.376 . S
C827 H814 0.930 . S
C827 C826 1.376 . S
C827 C828 1.388 . S
C828 H815 0.930 . S
C828 C827 1.388 . S
C828 C829 1.390 . S
C829 C828 1.390 . S
C829 C830 1.394 . S
C829 C835 1.465 . S
C830 C825 1.399 . S
C830 C829 1.394 . S
C830 C831 1.516 . S
C831 C830 1.516 . S
C831 C832 1.502 . S
C831 C833 1.561 . S
C831 C834 1.526 . S
C832 H816 0.959 . S
C832 H817 0.959 . S
C832 H818 0.961 . S
C832 C831 1.502 . S
C833 H819 0.960 . S
C833 H820 0.961 . S
C833 H821 0.959 . S
C833 C831 1.561 . S
C834 C831 1.526 . S
C834 C835 1.396 . S
C834 C839 1.390 . S
C835 C829 1.465 . S
C835 C834 1.396 . S
C835 C836 1.399 . S
C836 H822 0.929 . S
C836 C835 1.399 . S
C836 C837 1.385 . S
C837 H823 0.931 . S
C837 C836 1.385 . S
C837 C838 1.389 . S
C838 C837 1.389 . S
C838 C839 1.387 . S
C839 H824 0.930 . S
C839 C834 1.390 . S
C839 C838 1.387 . S
H840 C852 0.930 . S
H841 C854 0.930 . S
H842 C855 0.930 . S
H843 C859 0.959 . S
H844 C859 0.959 . S
H845 C859 0.961 . S
H846 C860 0.960 . S
H847 C860 0.961 . S
H848 C860 0.959 . S
H849 C863 0.929 . S
H850 C864 0.931 . S
H851 C866 0.930 . S
C852 H840 0.930 . S
C852 C853 1.399 . S
C852 C857 1.399 . S
C853 C852 1.399 . S
C853 C854 1.376 . S
C854 H841 0.930 . S
C854 C853 1.376 . S
C854 C855 1.388 . S
C855 H842 0.930 . S
C855 C854 1.388 . S
C855 C856 1.390 . S
C856 C855 1.390 . S
C856 C857 1.394 . S
C856 C862 1.465 . S
C857 C852 1.399 . S
C857 C856 1.394 . S
C857 C858 1.516 . S
C858 C857 1.516 . S
C858 C859 1.502 . S
C858 C860 1.561 . S
C858 C861 1.526 . S
C859 H843 0.959 . S
C859 H844 0.959 . S
C859 H845 0.961 . S
C859 C858 1.502 . S
C860 H846 0.960 . S
C860 H847 0.961 . S
C860 H848 0.959 . S
C860 C858 1.561 . S
C861 C858 1.526 . S
C861 C862 1.396 . S
C861 C866 1.390 . S
C862 C856 1.465 . S
C862 C861 1.396 . S
C862 C863 1.399 . S
C863 H849 0.929 . S
C863 C862 1.399 . S
C863 C864 1.385 . S
C864 H850 0.931 . S
C864 C863 1.385 . S
C864 C865 1.389 . S
C865 C864 1.389 . S
C865 C866 1.387 . S
C866 H851 0.930 . S
C866 C861 1.390 . S
C866 C865 1.387 . S
H867 C879 0.930 . S
H868 C881 0.930 . S
H869 C882 0.930 . S
H870 C886 0.959 . S
H871 C886 0.959 . S
H872 C886 0.961 . S
H873 C887 0.960 . S
H874 C887 0.961 . S
H875 C887 0.959 . S
H876 C890 0.929 . S
H877 C891 0.931 . S
H878 C893 0.930 . S
C879 H867 0.930 . S
C879 C880 1.399 . S
C879 C884 1.399 . S
C880 C879 1.399 . S
C880 C881 1.376 . S
C881 H868 0.930 . S
C881 C880 1.376 . S
C881 C882 1.388 . S
C882 H869 0.930 . S
C882 C881 1.388 . S
C882 C883 1.390 . S
C883 C882 1.390 . S
C883 C884 1.394 . S
C883 C889 1.465 . S
C884 C879 1.399 . S
C884 C883 1.394 . S
C884 C885 1.516 . S
C885 C884 1.516 . S
C885 C886 1.502 . S
C885 C887 1.561 . S
C885 C888 1.526 . S
C886 H870 0.959 . S
C886 H871 0.959 . S
C886 H872 0.961 . S
C886 C885 1.502 . S
C887 H873 0.960 . S
C887 H874 0.961 . S
C887 H875 0.959 . S
C887 C885 1.561 . S
C888 C885 1.526 . S
C888 C889 1.396 . S
C888 C893 1.390 . S
C889 C883 1.465 . S
C889 C888 1.396 . S
C889 C890 1.399 . S
C890 H876 0.929 . S
C890 C889 1.399 . S
C890 C891 1.385 . S
C891 H877 0.931 . S
C891 C890 1.385 . S
C891 C892 1.389 . S
C892 C891 1.389 . S
C892 C893 1.387 . S
C893 H878 0.930 . S
C893 C888 1.390 . S
C893 C892 1.387 . S
H894 C906 0.930 . S
H895 C908 0.930 . S
H896 C909 0.930 . S
H897 C913 0.959 . S
H898 C913 0.959 . S
H899 C913 0.961 . S
H900 C914 0.960 . S
H901 C914 0.961 . S
H902 C914 0.959 . S
H903 C917 0.929 . S
H904 C918 0.931 . S
H905 C920 0.930 . S
C906 H894 0.930 . S
C906 C907 1.399 . S
C906 C911 1.399 . S
C907 C906 1.399 . S
C907 C908 1.376 . S
C908 H895 0.930 . S
C908 C907 1.376 . S
C908 C909 1.388 . S
C909 H896 0.930 . S
C909 C908 1.388 . S
C909 C910 1.390 . S
C910 C909 1.390 . S
C910 C911 1.394 . S
C910 C916 1.465 . S
C911 C906 1.399 . S
C911 C910 1.394 . S
C911 C912 1.516 . S
C912 C911 1.516 . S
C912 C913 1.502 . S
C912 C914 1.561 . S
C912 C915 1.526 . S
C913 H897 0.959 . S
C913 H898 0.959 . S
C913 H899 0.961 . S
C913 C912 1.502 . S
C914 H900 0.960 . S
C914 H901 0.961 . S
C914 H902 0.959 . S
C914 C912 1.561 . S
C915 C912 1.526 . S
C915 C916 1.396 . S
C915 C920 1.390 . S
C916 C910 1.465 . S
C916 C915 1.396 . S
C916 C917 1.399 . S
C917 H903 0.929 . S
C917 C916 1.399 . S
C917 C918 1.385 . S
C918 H904 0.931 . S
C918 C917 1.385 . S
C918 C919 1.389 . S
C919 C918 1.389 . S
C919 C920 1.387 . S
C920 H905 0.930 . S
C920 C915 1.390 . S
C920 C919 1.387 . S
H921 C933 0.930 . S
H922 C935 0.930 . S
H923 C936 0.930 . S
H924 C940 0.959 . S
H925 C940 0.959 . S
H926 C940 0.961 . S
H927 C941 0.960 . S
H928 C941 0.961 . S
H929 C941 0.959 . S
H930 C944 0.929 . S
H931 C945 0.931 . S
H932 C947 0.930 . S
C933 H921 0.930 . S
C933 C934 1.399 . S
C933 C938 1.399 . S
C934 C933 1.399 . S
C934 C935 1.376 . S
C935 H922 0.930 . S
C935 C934 1.376 . S
C935 C936 1.388 . S
C936 H923 0.930 . S
C936 C935 1.388 . S
C936 C937 1.390 . S
C937 C936 1.390 . S
C937 C938 1.394 . S
C937 C943 1.465 . S
C938 C933 1.399 . S
C938 C937 1.394 . S
C938 C939 1.516 . S
C939 C938 1.516 . S
C939 C940 1.502 . S
C939 C941 1.561 . S
C939 C942 1.526 . S
C940 H924 0.959 . S
C940 H925 0.959 . S
C940 H926 0.961 . S
C940 C939 1.502 . S
C941 H927 0.960 . S
C941 H928 0.961 . S
C941 H929 0.959 . S
C941 C939 1.561 . S
C942 C939 1.526 . S
C942 C943 1.396 . S
C942 C947 1.390 . S
C943 C937 1.465 . S
C943 C942 1.396 . S
C943 C944 1.399 . S
C944 H930 0.929 . S
C944 C943 1.399 . S
C944 C945 1.385 . S
C945 H931 0.931 . S
C945 C944 1.385 . S
C945 C946 1.389 . S
C946 C945 1.389 . S
C946 C947 1.387 . S
C947 H932 0.930 . S
C947 C942 1.390 . S
C947 C946 1.387 . S
H948 C960 0.930 . S
H949 C962 0.930 . S
H950 C963 0.930 . S
H951 C967 0.959 . S
H952 C967 0.959 . S
H953 C967 0.941 1_554 S
H954 C968 0.960 . S
H955 C968 0.961 . S
H956 C968 0.959 . S
H957 C971 0.929 . S
H958 C972 0.931 . S
H959 C974 0.930 . S
C960 H948 0.930 . S
C960 C961 1.399 . S
C960 C965 1.399 . S
C961 C960 1.399 . S
C961 C962 1.376 . S
C962 H949 0.930 . S
C962 C961 1.376 . S
C962 C963 1.388 . S
C963 H950 0.930 . S
C963 C962 1.388 . S
C963 C964 1.390 . S
C964 C963 1.390 . S
C964 C965 1.394 . S
C964 C970 1.465 . S
C965 C960 1.399 . S
C965 C964 1.394 . S
C965 C966 1.516 . S
C966 C965 1.516 . S
C966 C967 1.502 1_554 S
C966 C968 1.561 . S
C966 C969 1.526 1_554 S
C967 H951 0.959 . S
C967 H952 0.959 . S
C967 H953 0.941 1_556 S
C967 C966 1.502 1_556 S
C968 H954 0.960 . S
C968 H955 0.961 . S
C968 H956 0.959 . S
C968 C966 1.561 . S
C969 C966 1.526 1_556 S
C969 C970 1.396 1_556 S
C969 C974 1.390 . S
C970 C964 1.465 . S
C970 C969 1.396 1_554 S
C970 C971 1.399 . S
C971 H957 0.929 . S
C971 C970 1.399 . S
C971 C972 1.385 1_554 S
C972 H958 0.931 . S
C972 C971 1.385 1_556 S
C972 C973 1.389 . S
C973 C972 1.389 . S
C973 C974 1.387 . S
C974 H959 0.930 . S
C974 C969 1.390 . S
C974 C973 1.387 . S
H975 C987 0.930 . S
H976 C989 0.930 . S
H977 C990 0.930 . S
H978 C994 0.959 . S
H979 C994 0.959 . S
H980 C994 0.961 . S
H981 C995 0.960 . S
H982 C995 0.961 . S
H983 C995 0.959 . S
H984 C998 0.929 . S
H985 C999 0.931 . S
H986 C1001 0.930 . S
C987 H975 0.930 . S
C987 C988 1.399 . S
C987 C992 1.399 . S
C988 C987 1.399 . S
C988 C989 1.376 . S
C989 H976 0.930 . S
C989 C988 1.376 . S
C989 C990 1.388 . S
C990 H977 0.930 . S
C990 C989 1.388 . S
C990 C991 1.390 . S
C991 C990 1.390 . S
C991 C992 1.394 . S
C991 C997 1.465 . S
C992 C987 1.399 . S
C992 C991 1.394 . S
C992 C993 1.516 . S
C993 C992 1.516 . S
C993 C994 1.502 . S
C993 C995 1.561 . S
C993 C996 1.526 . S
C994 H978 0.959 . S
C994 H979 0.959 . S
C994 H980 0.961 . S
C994 C993 1.502 . S
C995 H981 0.960 . S
C995 H982 0.961 . S
C995 H983 0.959 . S
C995 C993 1.561 . S
C996 C993 1.526 . S
C996 C997 1.396 . S
C996 C1001 1.390 . S
C997 C991 1.465 . S
C997 C996 1.396 . S
C997 C998 1.399 . S
C998 H984 0.929 . S
C998 C997 1.399 . S
C998 C999 1.385 . S
C999 H985 0.931 . S
C999 C998 1.385 . S
C999 C1000 1.389 . S
C1000 C999 1.389 . S
C1000 C1001 1.387 . S
C1001 H986 0.930 . S
C1001 C996 1.390 . S
C1001 C1000 1.387 . S
C379 C346 1.557 . S
C367 C15 1.564 . S
C394 C61 1.535 . S
C406 C281 1.562 . S
C421 C114 1.562 . S
C433 C299 1.558 . S
C448 C139 1.556 . S
C460 C312 1.550 . S
C487 C320 1.560 . S
C475 C185 1.566 . S
C502 C245 1.540 . S
C514 C332 1.559 . S
C529 C47 1.561 . S
C541 C294 1.560 . S
C556 C100 1.565 . S
C568 C307 1.557 . S
C583 C153 1.555 . S
C595 C325 1.558 . S
C622 C331 1.565 . S
C610 C199 1.537 . S
C649 C351 1.550 . S
C637 C231 1.555 . S
C676 C286 1.559 . S
C664 C1 1.544 . S
C691 C22 1.567 . S
C703 C292 1.572 . S
C718 C68 1.555 . S
C730 C305 1.581 . S
C757 C319 1.582 . S
C745 C107 1.550 . S
C772 C146 1.570 . S
C784 C333 1.581 . S
C811 C345 1.572 . S
C799 C192 1.580 . S
C838 C280 1.570 . S
C826 C252 1.579 . S
C865 C344 1.582 . S
C853 C54 1.588 . S
C880 C93 1.585 . S
C892 C279 1.576 . S
C919 C293 1.574 . S
C907 C160 1.546 . S
C934 C206 1.544 . S
C946 C306 1.568 . S
C961 C238 1.577 . S
C973 C318 1.578 . S
C988 C8 1.574 . S
C1000 C338 1.584 . S
