# Generated by pormake.
# Topology eea, (3,6)-cn, num edge types: 1
# Building blocks:
#     Node 0, Type 0, BuildingBlock: QEWDON_clean_linker_0, # of connection points: 3
#     Node 1, Type 0, BuildingBlock: QEWDON_clean_linker_0, # of connection points: 3
#     Node 2, Type 0, BuildingBlock: QEWDON_clean_linker_0, # of connection points: 3
#     Node 3, Type 0, BuildingBlock: QEWDON_clean_linker_0, # of connection points: 3
#     Node 4, Type 0, BuildingBlock: QEWDON_clean_linker_0, # of connection points: 3
#     Node 5, Type 0, BuildingBlock: QEWDON_clean_linker_0, # of connection points: 3
#     Node 6, Type 0, BuildingBlock: QEWDON_clean_linker_0, # of connection points: 3
#     Node 7, Type 0, BuildingBlock: QEWDON_clean_linker_0, # of connection points: 3
#     Node 8, Type 0, BuildingBlock: QEWDON_clean_linker_0, # of connection points: 3
#     Node 9, Type 0, BuildingBlock: QEWDON_clean_linker_0, # of connection points: 3
#     Node 10, Type 0, BuildingBlock: QEWDON_clean_linker_0, # of connection points: 3
#     Node 11, Type 0, BuildingBlock: QEWDON_clean_linker_0, # of connection points: 3
#     Node 12, Type 0, BuildingBlock: QEWDON_clean_linker_0, # of connection points: 3
#     Node 13, Type 0, BuildingBlock: QEWDON_clean_linker_0, # of connection points: 3
#     Node 14, Type 0, BuildingBlock: QEWDON_clean_linker_0, # of connection points: 3
#     Node 15, Type 0, BuildingBlock: QEWDON_clean_linker_0, # of connection points: 3
#     Node 16, Type 0, BuildingBlock: QEWDON_clean_linker_0, # of connection points: 3
#     Node 17, Type 0, BuildingBlock: QEWDON_clean_linker_0, # of connection points: 3
#     Node 18, Type 1, BuildingBlock: KUMBOL_clean_sbu_0, # of connection points: 6
#     Node 19, Type 1, BuildingBlock: KUMBOL_clean_sbu_0, # of connection points: 6
#     Node 20, Type 1, BuildingBlock: KUMBOL_clean_sbu_0, # of connection points: 6
#     Node 21, Type 1, BuildingBlock: KUMBOL_clean_sbu_0, # of connection points: 6
#     Node 22, Type 1, BuildingBlock: KUMBOL_clean_sbu_0, # of connection points: 6
#     Node 23, Type 1, BuildingBlock: KUMBOL_clean_sbu_0, # of connection points: 6
#     Node 24, Type 1, BuildingBlock: KUMBOL_clean_sbu_0, # of connection points: 6
#     Node 25, Type 1, BuildingBlock: KUMBOL_clean_sbu_0, # of connection points: 6
#     Node 26, Type 1, BuildingBlock: KUMBOL_clean_sbu_0, # of connection points: 6
#     Edge 27, Type (0, 1), BuildingBlock: EZIPEK_clean_linker_0, # of connection points: 2
#     Edge 28, Type (0, 1), BuildingBlock: EZIPEK_clean_linker_0, # of connection points: 2
#     Edge 29, Type (0, 1), BuildingBlock: EZIPEK_clean_linker_0, # of connection points: 2
#     Edge 30, Type (0, 1), BuildingBlock: EZIPEK_clean_linker_0, # of connection points: 2
#     Edge 31, Type (0, 1), BuildingBlock: EZIPEK_clean_linker_0, # of connection points: 2
#     Edge 32, Type (0, 1), BuildingBlock: EZIPEK_clean_linker_0, # of connection points: 2
#     Edge 33, Type (0, 1), BuildingBlock: EZIPEK_clean_linker_0, # of connection points: 2
#     Edge 34, Type (0, 1), BuildingBlock: EZIPEK_clean_linker_0, # of connection points: 2
#     Edge 35, Type (0, 1), BuildingBlock: EZIPEK_clean_linker_0, # of connection points: 2
#     Edge 36, Type (0, 1), BuildingBlock: EZIPEK_clean_linker_0, # of connection points: 2
#     Edge 37, Type (0, 1), BuildingBlock: EZIPEK_clean_linker_0, # of connection points: 2
#     Edge 38, Type (0, 1), BuildingBlock: EZIPEK_clean_linker_0, # of connection points: 2
#     Edge 39, Type (0, 1), BuildingBlock: EZIPEK_clean_linker_0, # of connection points: 2
#     Edge 40, Type (0, 1), BuildingBlock: EZIPEK_clean_linker_0, # of connection points: 2
#     Edge 41, Type (0, 1), BuildingBlock: EZIPEK_clean_linker_0, # of connection points: 2
#     Edge 42, Type (0, 1), BuildingBlock: EZIPEK_clean_linker_0, # of connection points: 2
#     Edge 43, Type (0, 1), BuildingBlock: EZIPEK_clean_linker_0, # of connection points: 2
#     Edge 44, Type (0, 1), BuildingBlock: EZIPEK_clean_linker_0, # of connection points: 2
#     Edge 45, Type (0, 1), BuildingBlock: EZIPEK_clean_linker_0, # of connection points: 2
#     Edge 46, Type (0, 1), BuildingBlock: EZIPEK_clean_linker_0, # of connection points: 2
#     Edge 47, Type (0, 1), BuildingBlock: EZIPEK_clean_linker_0, # of connection points: 2
#     Edge 48, Type (0, 1), BuildingBlock: EZIPEK_clean_linker_0, # of connection points: 2
#     Edge 49, Type (0, 1), BuildingBlock: EZIPEK_clean_linker_0, # of connection points: 2
#     Edge 50, Type (0, 1), BuildingBlock: EZIPEK_clean_linker_0, # of connection points: 2
#     Edge 51, Type (0, 1), BuildingBlock: EZIPEK_clean_linker_0, # of connection points: 2
#     Edge 52, Type (0, 1), BuildingBlock: EZIPEK_clean_linker_0, # of connection points: 2
#     Edge 53, Type (0, 1), BuildingBlock: EZIPEK_clean_linker_0, # of connection points: 2
#     Edge 54, Type (0, 1), BuildingBlock: EZIPEK_clean_linker_0, # of connection points: 2
#     Edge 55, Type (0, 1), BuildingBlock: EZIPEK_clean_linker_0, # of connection points: 2
#     Edge 56, Type (0, 1), BuildingBlock: EZIPEK_clean_linker_0, # of connection points: 2
#     Edge 57, Type (0, 1), BuildingBlock: EZIPEK_clean_linker_0, # of connection points: 2
#     Edge 58, Type (0, 1), BuildingBlock: EZIPEK_clean_linker_0, # of connection points: 2
#     Edge 59, Type (0, 1), BuildingBlock: EZIPEK_clean_linker_0, # of connection points: 2
#     Edge 60, Type (0, 1), BuildingBlock: EZIPEK_clean_linker_0, # of connection points: 2
#     Edge 61, Type (0, 1), BuildingBlock: EZIPEK_clean_linker_0, # of connection points: 2
#     Edge 62, Type (0, 1), BuildingBlock: EZIPEK_clean_linker_0, # of connection points: 2
#     Edge 63, Type (0, 1), BuildingBlock: EZIPEK_clean_linker_0, # of connection points: 2
#     Edge 64, Type (0, 1), BuildingBlock: EZIPEK_clean_linker_0, # of connection points: 2
#     Edge 65, Type (0, 1), BuildingBlock: EZIPEK_clean_linker_0, # of connection points: 2
#     Edge 66, Type (0, 1), BuildingBlock: EZIPEK_clean_linker_0, # of connection points: 2
#     Edge 67, Type (0, 1), BuildingBlock: EZIPEK_clean_linker_0, # of connection points: 2
#     Edge 68, Type (0, 1), BuildingBlock: EZIPEK_clean_linker_0, # of connection points: 2
#     Edge 69, Type (0, 1), BuildingBlock: EZIPEK_clean_linker_0, # of connection points: 2
#     Edge 70, Type (0, 1), BuildingBlock: EZIPEK_clean_linker_0, # of connection points: 2
#     Edge 71, Type (0, 1), BuildingBlock: EZIPEK_clean_linker_0, # of connection points: 2
#     Edge 72, Type (0, 1), BuildingBlock: EZIPEK_clean_linker_0, # of connection points: 2
#     Edge 73, Type (0, 1), BuildingBlock: EZIPEK_clean_linker_0, # of connection points: 2
#     Edge 74, Type (0, 1), BuildingBlock: EZIPEK_clean_linker_0, # of connection points: 2
#     Edge 75, Type (0, 1), BuildingBlock: EZIPEK_clean_linker_0, # of connection points: 2
#     Edge 76, Type (0, 1), BuildingBlock: EZIPEK_clean_linker_0, # of connection points: 2
#     Edge 77, Type (0, 1), BuildingBlock: EZIPEK_clean_linker_0, # of connection points: 2
#     Edge 78, Type (0, 1), BuildingBlock: EZIPEK_clean_linker_0, # of connection points: 2
#     Edge 79, Type (0, 1), BuildingBlock: EZIPEK_clean_linker_0, # of connection points: 2
#     Edge 80, Type (0, 1), BuildingBlock: EZIPEK_clean_linker_0, # of connection points: 2
# Relax obj value: 0.047
# Max RMSD: 0.224
# Mean RMSD: 0.160
data_MOF--net-eea--node1-KUMBOL_clean_sbu_0--node2-QEWDON_clean_linker_0--edge1-EZIPEK_clean_linker_0
_symmetry_space_group_name_H-M    P1
_symmetry_Int_Tables_number       1
_symmetry_cell_setting            triclinic
loop_
_symmetry_equiv_pos_as_xyz
'x, y, z'
_cell_length_a     42.584864
_cell_length_b     43.841996
_cell_length_c     50.40934
_cell_angle_alpha  89.930662
_cell_angle_beta   89.96687
_cell_angle_gamma 119.91244
loop_
_atom_site_label
_atom_site_type_symbol
_atom_site_fract_x
_atom_site_fract_y
_atom_site_fract_z
_atom_type_partial_charge
H0 H 0.23106 0.12923 0.43187 0.0
C1 C 0.2322 0.10868 0.42073 0.0
C2 C 0.25084 0.09249 0.43127 0.0
C3 C 0.21462 0.09786 0.39611 0.0
H4 H 0.26294 0.0505 0.42654 0.0
C5 C 0.25007 0.0641 0.41779 0.0
C6 C 0.2331 0.05344 0.39301 0.0
C7 C 0.21703 0.07166 0.38182 0.0
C8 C 0.19123 0.11143 0.38597 0.0
H9 H 0.20457 0.06401 0.3624 0.0
C10 C 0.20276 0.14762 0.38613 0.0
C11 C 0.18003 0.15955 0.37598 0.0
C12 C 0.15662 0.08755 0.37598 0.0
H13 H 0.14677 0.0595 0.37604 0.0
C14 C 0.13411 0.09949 0.36609 0.0
H15 H 0.2293 0.16643 0.3937 0.0
C16 C 0.14574 0.13532 0.36604 0.0
H17 H 0.12797 0.14425 0.35825 0.0
H18 H 0.10757 0.0809 0.35849 0.0
H19 H 0.88754 0.09989 0.43018 0.0
C20 C 0.90896 0.1221 0.41964 0.0
C21 C 0.92318 0.15609 0.43029 0.0
C22 C 0.92282 0.11667 0.39588 0.0
H23 H 0.9639 0.21081 0.42586 0.0
C24 C 0.95217 0.18469 0.41733 0.0
C25 C 0.96684 0.17963 0.39391 0.0
C26 C 0.95132 0.1458 0.38289 0.0
C27 C 0.90941 0.08047 0.38554 0.0
H28 H 0.96243 0.14212 0.3646 0.0
C29 C 0.87211 0.05525 0.38536 0.0
C30 C 0.86024 0.02105 0.37579 0.0
C31 C 0.93436 0.07077 0.37616 0.0
H32 H 0.9632 0.08926 0.37651 0.0
C33 C 0.92248 0.03687 0.3667 0.0
H34 H 0.85238 0.06213 0.39234 0.0
C35 C 0.88565 0.01212 0.3665 0.0
H36 H 0.87687 0.98589 0.35906 0.0
H37 H 0.94193 0.02972 0.35959 0.0
H38 H 0.91117 0.76834 0.42594 0.0
C39 C 0.89035 0.77201 0.41659 0.0
C40 C 0.85559 0.75642 0.4281 0.0
C41 C 0.89974 0.79573 0.3953 0.0
H42 H 0.80269 0.75157 0.42582 0.0
C43 C 0.82933 0.76302 0.4168 0.0
C44 C 0.83711 0.78454 0.39421 0.0
C45 C 0.87264 0.80113 0.3837 0.0
C46 C 0.93886 0.82168 0.39119 0.0
H47 H 0.87969 0.81972 0.3675 0.0
C48 C 0.96452 0.81229 0.38209 0.0
C49 C 1.00234 0.83658 0.38414 0.0
C50 C 0.95125 0.85572 0.401 0.0
H51 H 0.93226 0.86342 0.4083 0.0
C52 C 0.98811 0.87942 0.40327 0.0
H53 H 0.95516 0.78624 0.37409 0.0
C54 C 0.0133 0.86974 0.39559 0.0
H55 H 0.04178 0.88865 0.3983 0.0
H56 H 0.99725 0.90524 0.41162 0.0
H57 H 0.14037 0.22742 0.60854 0.0
C58 C 0.1166 0.22631 0.61722 0.0
C59 C 0.09905 0.2414 0.60297 0.0
C60 C 0.10313 0.20951 0.64201 0.0
H61 H 0.05279 0.24924 0.60217 0.0
C62 C 0.06697 0.23864 0.6133 0.0
C63 C 0.05357 0.22313 0.63814 0.0
C64 C 0.07231 0.20977 0.65257 0.0
C65 C 0.11983 0.19077 0.65674 0.0
H66 H 0.06215 0.1994 0.67213 0.0
C67 C 0.15609 0.19806 0.6525 0.0
C68 C 0.17042 0.18003 0.66717 0.0
C69 C 0.09856 0.16407 0.67526 0.0
H70 H 0.07017 0.15523 0.67824 0.0
C71 C 0.11302 0.14727 0.69016 0.0
H72 H 0.17336 0.21754 0.6381 0.0
C73 C 0.14865 0.15539 0.6864 0.0
H74 H 0.15893 0.14135 0.69785 0.0
H75 H 0.09619 0.12725 0.70443 0.0
H76 H 0.79338 0.91824 0.59989 0.0
C77 C 0.79348 0.89604 0.60927 0.0
C78 C 0.77382 0.86261 0.59761 0.0
C79 C 0.81354 0.90086 0.6326 0.0
H80 H 0.76163 0.80863 0.59909 0.0
C81 C 0.77567 0.83416 0.60864 0.0
C82 C 0.7961 0.83855 0.63155 0.0
C83 C 0.8138 0.87161 0.64398 0.0
C84 C 0.83597 0.93663 0.64415 0.0
H85 H 0.8289 0.87468 0.66204 0.0
C86 C 0.82352 0.96105 0.64466 0.0
C87 C 0.84561 0.99504 0.65493 0.0
C88 C 0.87076 0.94694 0.6541 0.0
H89 H 0.88157 0.92923 0.65346 0.0
C90 C 0.8925 0.9806 0.66443 0.0
H91 H 0.79682 0.95379 0.63723 0.0
C92 C 0.88006 0.00458 0.66482 0.0
H93 H 0.89738 0.0307 0.67276 0.0
H94 H 0.91922 0.98823 0.67194 0.0
H95 H 0.09392 0.87211 0.5972 0.0
C96 C 0.11614 0.89408 0.60726 0.0
C97 C 0.15157 0.90783 0.59731 0.0
C98 C 0.10945 0.90975 0.62937 0.0
H99 H 0.20792 0.94448 0.60368 0.0
C100 C 0.18062 0.93572 0.61061 0.0
C101 C 0.17461 0.95449 0.63066 0.0
C102 C 0.13868 0.94122 0.63958 0.0
C103 C 0.07239 0.8941 0.64184 0.0
H104 H 0.13372 0.95538 0.65496 0.0
C105 C 0.04802 0.85721 0.64246 0.0
C106 C 0.0148 0.84313 0.65644 0.0
C107 C 0.06166 0.91617 0.65449 0.0
H108 H 0.078 0.94451 0.6534 0.0
C109 C 0.02942 0.90219 0.66882 0.0
H110 H 0.05474 0.83939 0.63242 0.0
C111 C 1.00641 0.866 0.67013 0.0
H112 H 0.9811 0.85578 0.68091 0.0
H113 H 0.022 0.9196 0.6787 0.0
H114 H 0.90431 0.47004 0.77538 0.0
C115 C 0.90281 0.44797 0.76461 0.0
C116 C 0.92737 0.43642 0.77051 0.0
C117 C 0.87496 0.42965 0.74611 0.0
H118 H 0.94647 0.40108 0.75998 0.0
C119 C 0.92603 0.40838 0.75618 0.0
C120 C 0.89667 0.38767 0.7393 0.0
C121 C 0.8709 0.39841 0.73489 0.0
C122 C 0.84925 0.44217 0.73912 0.0
H123 H 0.84781 0.38265 0.7223 0.0
C124 C 0.86163 0.47823 0.73446 0.0
C125 C 0.83723 0.48936 0.72642 0.0
C126 C 0.81208 0.4178 0.73626 0.0
H127 H 0.80149 0.39009 0.74026 0.0
C128 C 0.78797 0.42886 0.72839 0.0
H129 H 0.8901 0.49752 0.73663 0.0
C130 C 0.80042 0.46434 0.72338 0.0
H131 H 0.78122 0.47242 0.71737 0.0
H132 H 0.75946 0.40984 0.72621 0.0
H133 H 0.55504 0.43527 0.75599 0.0
C134 C 0.57558 0.45915 0.7466 0.0
C135 C 0.58937 0.49099 0.76073 0.0
C136 C 0.58815 0.4584 0.72078 0.0
H137 H 0.6299 0.54618 0.76118 0.0
C138 C 0.6179 0.52193 0.74987 0.0
C139 C 0.63205 0.52145 0.72497 0.0
C140 C 0.61601 0.49037 0.71007 0.0
C141 C 0.57336 0.4247 0.70518 0.0
H142 H 0.62643 0.49159 0.6903 0.0
C143 C 0.53841 0.39538 0.71007 0.0
C144 C 0.5251 0.36457 0.69459 0.0
C145 C 0.59463 0.42149 0.68502 0.0
H146 H 0.62231 0.44176 0.68139 0.0
C147 C 0.58091 0.3916 0.66918 0.0
H148 H 0.52133 0.39607 0.72566 0.0
C149 C 0.54633 0.36351 0.6737 0.0
H150 H 0.53657 0.3402 0.66147 0.0
H151 H 0.59751 0.38993 0.65361 0.0
H152 H 0.58759 0.12557 0.75491 0.0
C153 C 0.56378 0.12416 0.74606 0.0
C154 C 0.53067 0.10652 0.76013 0.0
C155 C 0.56595 0.13998 0.72106 0.0
H156 H 0.47473 0.09373 0.76092 0.0
C157 C 0.49989 0.10618 0.74977 0.0
C158 C 0.50134 0.12235 0.7255 0.0
C159 C 0.53378 0.13788 0.71086 0.0
C160 C 0.60139 0.1595 0.70584 0.0
H161 H 0.53344 0.14864 0.69163 0.0
C162 C 0.63068 0.15284 0.70939 0.0
C163 C 0.66288 0.17102 0.69405 0.0
C164 C 0.6063 0.18574 0.68729 0.0
H165 H 0.58636 0.19388 0.68473 0.0
C166 C 0.63742 0.2027 0.6717 0.0
H167 H 0.62865 0.13343 0.7236 0.0
C168 C 0.66522 0.19508 0.67473 0.0
H169 H 0.68928 0.20891 0.66254 0.0
H170 H 0.64019 0.22227 0.65734 0.0
H171 H 0.80394 0.55128 0.93884 0.0
C172 C 0.78182 0.55226 0.94861 0.0
C173 C 0.76214 0.56479 0.93416 0.0
C174 C 0.77163 0.53924 0.97472 0.0
H175 H 0.71631 0.57322 0.93476 0.0
C176 C 0.73212 0.56457 0.94604 0.0
C177 C 0.72184 0.55255 0.97211 0.0
C178 C 0.74214 0.54081 0.98647 0.0
C179 C 0.78952 0.52161 0.98908 0.0
H180 H 0.7341 0.5322 0.00671 0.0
C181 C 0.826 0.53017 0.98424 0.0
C182 C 0.84143 0.51264 0.99815 0.0
C183 C 0.76911 0.49454 0.0075 0.0
H184 H 0.74075 0.48549 0.01104 0.0
C185 C 0.78447 0.47771 0.02134 0.0
H186 H 0.84258 0.55044 0.97007 0.0
C187 C 0.82026 0.48673 0.01682 0.0
H188 H 0.83131 0.47276 0.02747 0.0
H189 H 0.76828 0.4571 0.03542 0.0
H190 H 0.46969 0.25421 0.92868 0.0
C191 C 0.46983 0.23212 0.93826 0.0
C192 C 0.44915 0.19828 0.92742 0.0
C193 C 0.49053 0.23742 0.96129 0.0
H194 H 0.43566 0.14394 0.93025 0.0
C195 C 0.45074 0.16994 0.93897 0.0
C196 C 0.47189 0.17498 0.96159 0.0
C197 C 0.49065 0.20847 0.97315 0.0
C198 C 0.51305 0.2732 0.97253 0.0
H199 H 0.50616 0.21202 0.99108 0.0
C200 C 0.49973 0.29679 0.97422 0.0
C201 C 0.52142 0.33053 0.9849 0.0
C202 C 0.54836 0.28402 0.98158 0.0
H203 H 0.55962 0.26672 0.98011 0.0
C204 C 0.56982 0.31755 0.9922 0.0
H205 H 0.47259 0.289 0.96749 0.0
C206 C 0.55647 0.34075 0.99386 0.0
H207 H 0.57351 0.36679 1.00203 0.0
H208 H 0.59695 0.32564 0.99903 0.0
H209 H 0.76256 0.20511 0.94075 0.0
C210 C 0.78471 0.22799 0.95001 0.0
C211 C 0.81807 0.24625 0.93636 0.0
C212 C 0.78019 0.23931 0.97526 0.0
H213 H 0.87166 0.29205 0.93662 0.0
C214 C 0.84635 0.27726 0.94736 0.0
C215 C 0.84217 0.2895 0.972 0.0
C216 C 0.80985 0.26973 0.98623 0.0
C217 C 0.74464 0.22077 0.98997 0.0
H218 H 0.80806 0.27883 0.00581 0.0
C219 C 0.71964 0.1843 0.9868 0.0
C220 C 0.6865 0.16809 1.00093 0.0
C221 C 0.73508 0.24017 0.00729 0.0
H222 H 0.75202 0.26833 0.00949 0.0
C223 C 0.70287 0.22386 0.0217 0.0
H224 H 0.72544 0.1685 0.97338 0.0
C225 C 0.67878 0.18813 0.01859 0.0
H226 H 0.65323 0.17629 0.02916 0.0
H227 H 0.69614 0.23924 0.03488 0.0
H228 H 0.56751 0.8016 0.10275 0.0
C229 C 0.56634 0.77928 0.09257 0.0
C230 C 0.59153 0.76869 0.09888 0.0
C231 C 0.53834 0.75974 0.07445 0.0
H232 H 0.61149 0.73371 0.08944 0.0
C233 C 0.59063 0.74035 0.08533 0.0
C234 C 0.56112 0.71846 0.06899 0.0
C235 C 0.53474 0.72826 0.06415 0.0
C236 C 0.51216 0.7714 0.0668 0.0
H237 H 0.51158 0.71161 0.05189 0.0
C238 C 0.52409 0.80715 0.06126 0.0
C239 C 0.49931 0.81755 0.05279 0.0
C240 C 0.47507 0.74657 0.06421 0.0
H241 H 0.46485 0.71908 0.06884 0.0
C242 C 0.45059 0.75693 0.05582 0.0
H243 H 0.55248 0.82678 0.06319 0.0
C244 C 0.46258 0.79214 0.05007 0.0
H245 H 0.44311 0.79973 0.04377 0.0
H246 H 0.42215 0.73758 0.05389 0.0
H247 H 0.22405 0.76532 0.0934 0.0
C248 C 0.24504 0.78853 0.08351 0.0
C249 C 0.2574 0.82165 0.0953 0.0
C250 C 0.25903 0.78531 0.05905 0.0
H251 H 0.29631 0.87721 0.09257 0.0
C252 C 0.28594 0.85168 0.08328 0.0
C253 C 0.30167 0.84876 0.05962 0.0
C254 C 0.28721 0.81583 0.04715 0.0
C255 C 0.24476 0.75013 0.04624 0.0
H256 H 0.29859 0.81416 0.02835 0.0
C257 C 0.2077 0.72426 0.04801 0.0
C258 C 0.19472 0.69117 0.03601 0.0
C259 C 0.26832 0.74201 0.03226 0.0
H260 H 0.29705 0.7607 0.031 0.0
C261 C 0.25527 0.70929 0.02011 0.0
H262 H 0.18879 0.7297 0.05845 0.0
C263 C 0.21868 0.68398 0.02193 0.0
H264 H 0.20905 0.65859 0.01261 0.0
H265 H 0.27368 0.70342 0.00945 0.0
H266 H 0.25389 0.44991 0.08583 0.0
C267 C 0.23146 0.45239 0.07841 0.0
C268 C 0.19967 0.43875 0.09407 0.0
C269 C 0.23395 0.46901 0.05366 0.0
H270 H 0.14704 0.43419 0.09788 0.0
C271 C 0.17102 0.44358 0.08558 0.0
C272 C 0.17195 0.45845 0.06078 0.0
C273 C 0.2025 0.46929 0.04452 0.0
C274 C 0.26877 0.48679 0.03746 0.0
H275 H 0.2013 0.47844 0.02484 0.0
C276 C 0.29807 0.4802 0.04129 0.0
C277 C 0.32993 0.49753 0.02551 0.0
C278 C 0.27348 0.51209 0.01802 0.0
H279 H 0.2539 0.5206 0.01514 0.0
C280 C 0.30417 0.52799 1.00194 0.0
H281 H 0.29658 0.46179 0.05619 0.0
C282 C 0.33194 0.52049 1.00538 0.0
H283 H 0.35582 0.53368 0.99293 0.0
H284 H 0.30671 0.54683 0.98698 0.0
H285 H 0.46867 0.8771 0.26948 0.0
C286 C 0.44582 0.87771 0.27829 0.0
C287 C 0.42636 0.88918 0.26256 0.0
C288 C 0.43479 0.86563 0.30454 0.0
H289 H 0.38022 0.8969 0.26078 0.0
C290 C 0.39558 0.88865 0.27306 0.0
C291 C 0.38419 0.87745 0.29909 0.0
C292 C 0.40423 0.86671 0.31491 0.0
C293 C 0.45339 0.84986 0.32043 0.0
H294 H 0.39544 0.85893 0.33516 0.0
C295 C 0.49013 0.85887 0.316 0.0
C296 C 0.50604 0.84244 0.3307 0.0
C297 C 0.43351 0.82391 0.33973 0.0
H298 H 0.40511 0.81469 0.34322 0.0
C299 C 0.44943 0.8083 0.35447 0.0
H300 H 0.50652 0.87851 0.30138 0.0
C301 C 0.4853 0.81743 0.35003 0.0
H302 H 0.49676 0.80431 0.36133 0.0
H303 H 0.4336 0.78846 0.36915 0.0
H304 H 0.11111 0.57815 0.28066 0.0
C305 C 0.10642 0.55349 0.28861 0.0
C306 C 0.08395 0.52153 0.27487 0.0
C307 C 0.12472 0.55404 0.3122 0.0
H308 H 0.07966 0.47043 0.26798 0.0
C309 C 0.08969 0.49308 0.28089 0.0
C310 C 0.10819 0.49323 0.30388 0.0
C311 C 0.12211 0.52231 0.32061 0.0
C312 C 0.14714 0.58708 0.32802 0.0
H313 H 0.1331 0.52028 0.33942 0.0
C314 C 0.1424 0.61677 0.32603 0.0
C315 C 0.16268 0.64653 0.34214 0.0
C316 C 0.17401 0.58914 0.34566 0.0
H317 H 0.18136 0.56889 0.34667 0.0
C318 C 0.19261 0.61779 0.36245 0.0
H319 H 0.12328 0.61724 0.31216 0.0
C320 C 0.18657 0.64603 0.36108 0.0
H321 H 0.20209 0.6685 0.37385 0.0
H322 H 0.21245 0.61843 0.37621 0.0
H323 H 0.42153 0.54084 0.27126 0.0
C324 C 0.44469 0.5631 0.28023 0.0
C325 C 0.47799 0.57914 0.26645 0.0
C326 C 0.44155 0.57589 0.30527 0.0
H327 H 0.53285 0.62279 0.26591 0.0
C328 C 0.50761 0.60952 0.27692 0.0
C329 C 0.50492 0.6231 0.30135 0.0
C330 C 0.47258 0.60532 0.31589 0.0
C331 C 0.40619 0.55981 0.32017 0.0
H332 H 0.47181 0.61536 0.33534 0.0
C333 C 0.37949 0.5238 0.31762 0.0
C334 C 0.34703 0.50948 0.33248 0.0
C335 C 0.39879 0.58094 0.33731 0.0
H336 H 0.41717 0.60895 0.339 0.0
C337 C 0.36717 0.56652 0.35242 0.0
H338 H 0.38373 0.50671 0.30444 0.0
C339 C 0.3416 0.53101 0.35023 0.0
H340 H 0.31686 0.52047 0.36174 0.0
H341 H 0.36222 0.58313 0.36562 0.0
Gd342 Gd 0.50466 0.01849 0.04782 0.0
Gd343 Gd 0.48916 0.98749 0.97811 0.0
C344 C 0.38103 0.88959 0.95736 0.0
C345 C 0.40009 0.84804 0.94402 0.0
C346 C 0.44472 0.90764 0.95686 0.0
C347 C 0.41755 0.91516 0.96183 0.0
C348 C 0.43649 0.87428 0.94725 0.0
C349 C 0.37237 0.85569 0.94908 0.0
C350 C 0.35451 0.89925 0.96048 0.0
C351 C 0.365 0.93407 0.96662 0.0
N352 N 0.42707 0.94816 0.96981 0.0
C353 C 0.40166 0.95841 0.97072 0.0
H354 H 0.40944 0.98518 0.97505 0.0
C355 C 0.50738 0.92916 0.95174 0.0
N356 N 0.47942 0.93372 0.96007 0.0
C357 C 0.50071 0.89645 0.94235 0.0
C358 C 0.46509 0.86868 0.94047 0.0
H359 H 0.53497 0.95059 0.95313 0.0
H360 H 0.34445 0.83556 0.94581 0.0
H361 H 0.58013 0.01442 0.06029 0.0
H362 H 0.32613 0.88042 0.95729 0.0
H363 H 0.3449 0.94222 0.96824 0.0
H364 H 0.39316 0.82211 0.93693 0.0
H365 H 0.46071 0.06235 0.06229 0.0
H366 H 0.66472 0.11711 0.08153 0.0
H367 H 0.64299 0.05397 0.07401 0.0
H368 H 0.60476 0.18468 0.08517 0.0
H369 H 0.52303 0.8927 0.93656 0.0
H370 H 0.45994 0.84341 0.93306 0.0
H371 H 0.6504 0.16593 0.08497 0.0
H372 H 0.47556 0.12262 0.07488 0.0
N373 N 0.56591 0.05462 0.05946 0.0
C374 C 0.63691 0.09981 0.07555 0.0
C375 C 0.62473 0.0642 0.07136 0.0
C376 C 0.61262 0.11234 0.07312 0.0
C377 C 0.5766 0.08863 0.06549 0.0
C378 C 0.58894 0.04183 0.06337 0.0
N379 N 0.51581 0.07466 0.06118 0.0
C380 C 0.55079 0.09899 0.06631 0.0
C381 C 0.49698 0.11637 0.07243 0.0
C382 C 0.53308 0.14227 0.07626 0.0
C383 C 0.48866 0.0823 0.06547 0.0
C384 C 0.56043 0.13356 0.07383 0.0
H385 H 0.53943 0.16858 0.08188 0.0
O386 O 0.47509 0.01317 0.08408 0.0
O387 O 0.46581 0.97732 0.01946 0.0
O388 O 0.47283 0.02935 0.98557 0.0
O389 O 0.506 0.06091 0.0222 0.0
O390 O 0.44436 0.99714 0.0458 0.0
O391 O 0.5116 0.99237 0.0826 0.0
O392 O 0.51932 0.00221 0.94079 0.0
O393 O 0.52782 0.02631 0.00704 0.0
O394 O 0.5212 0.97689 0.04282 0.0
O395 O 0.50248 0.95088 1.00081 0.0
O396 O 0.54996 0.00978 0.97854 0.0
O397 O 0.47704 0.01482 0.94728 0.0
C398 C 0.43593 0.97382 0.02754 0.0
C399 C 0.59675 0.15791 0.07961 0.0
C400 C 0.62274 0.14724 0.07945 0.0
C401 C 0.48745 0.99533 0.0966 0.0
C402 C 0.46014 0.96401 0.11141 0.0
C403 C 0.42562 0.94239 0.10054 0.0
C404 C 0.46725 0.95716 0.13743 0.0
C405 C 0.4397 0.92945 0.15244 0.0
C406 C 0.3988 0.91435 0.11497 0.0
C407 C 0.40568 0.90798 0.14078 0.0
C408 C 0.48751 0.05811 1.00056 0.0
C409 C 0.5578 0.0305 0.99862 0.0
C410 C 0.50063 0.0154 0.93053 0.0
C411 C 0.48825 0.00576 0.9029 0.0
C412 C 0.45897 0.97237 0.89707 0.0
C413 C 0.50483 0.03056 0.88225 0.0
C414 C 0.49164 0.02213 0.85602 0.0
C415 C 0.44611 0.96382 0.87113 0.0
C416 C 0.46216 0.9885 0.85077 0.0
C417 C 0.51465 0.95196 0.02518 0.0
H418 H 0.41917 0.94749 0.08103 0.0
H419 H 0.49351 0.974 0.14633 0.0
H420 H 0.37232 0.89794 0.10631 0.0
H421 H 0.38419 0.88656 0.1519 0.0
H422 H 0.44586 0.95304 0.91261 0.0
H423 H 0.52747 0.05645 0.88659 0.0
H424 H 0.42341 0.93801 0.86682 0.0
H425 H 0.45154 0.98139 0.83081 0.0
Gd426 Gd 0.99134 0.48811 0.05488 0.0
Gd427 Gd 0.0304 0.49918 0.98723 0.0
C428 C 0.13152 0.48807 0.98159 0.0
C429 C 0.17894 0.54844 0.9738 0.0
C430 C 0.11597 0.5338 0.97699 0.0
C431 C 0.10566 0.49922 0.98204 0.0
C432 C 0.15253 0.55862 0.97175 0.0
C433 C 0.16841 0.51311 0.97864 0.0
C434 C 0.11932 0.45199 0.98274 0.0
C435 C 0.08213 0.42814 0.98301 0.0
N436 N 0.06979 0.4759 0.98458 0.0
C437 C 0.05766 0.44066 0.98367 0.0
H438 H 0.02917 0.4221 0.98322 0.0
C439 C 0.09721 0.57355 0.96309 0.0
N440 N 0.08955 0.54219 0.97433 0.0
C441 C 0.13312 0.59947 0.95814 0.0
C442 C 0.16106 0.59227 0.96314 0.0
H443 H 0.07555 0.57886 0.95882 0.0
H444 H 0.18879 0.50519 0.97888 0.0
H445 H 0.97787 0.55649 0.05918 0.0
H446 H 0.13825 0.44227 0.98238 0.0
H447 H 0.07228 0.40011 0.98288 0.0
H448 H 0.20728 0.56725 0.97033 0.0
H449 H 0.96079 0.4054 0.07682 0.0
H450 H 0.86549 0.51872 0.07429 0.0
H451 H 0.92774 0.56824 0.06742 0.0
H452 H 0.81774 0.39526 0.08805 0.0
H453 H 0.1392 0.62485 0.95035 0.0
H454 H 0.18882 0.61219 0.959 0.0
H455 H 0.82435 0.4538 0.0813 0.0
H456 H 0.903 0.35391 0.0905 0.0
N457 N 0.94438 0.50097 0.06088 0.0
C458 C 0.88742 0.51343 0.07073 0.0
C459 C 0.92248 0.54143 0.06682 0.0
C460 C 0.8815 0.47906 0.07153 0.0
C461 C 0.91111 0.47373 0.06707 0.0
C462 C 0.95079 0.53467 0.06195 0.0
N463 N 0.93772 0.43806 0.06985 0.0
C464 C 0.90766 0.44118 0.07179 0.0
C465 C 0.9039 0.37827 0.08519 0.0
C466 C 0.87239 0.3806 0.08598 0.0
C467 C 0.93666 0.40757 0.07755 0.0
C468 C 0.87414 0.41253 0.07979 0.0
H469 H 0.84711 0.35793 0.09212 0.0
O470 O 0.00962 0.47948 0.09308 0.0
O471 O 0.03508 0.48899 0.02989 0.0
O472 O 0.98592 0.44189 0.99456 0.0
O473 O 0.95161 0.44137 0.03092 0.0
O474 O 0.01875 0.45596 0.06183 0.0
O475 O 0.00718 0.52696 0.08609 0.0
O476 O 0.02033 0.51535 0.9489 0.0
O477 O 0.9869 0.49871 0.01217 0.0
O478 O 0.02993 0.54673 0.04524 0.0
O479 O 0.06723 0.5479 0.0106 0.0
O480 O 1.00552 0.53414 0.98169 0.0
O481 O 0.00981 0.46209 0.95453 0.0
C482 C 0.04074 0.46677 0.04205 0.0
C483 C 0.84382 0.41702 0.08218 0.0
C484 C 0.84755 0.45031 0.07823 0.0
C485 C 0.01302 0.50821 0.10338 0.0
C486 C 0.99734 0.50515 0.12994 0.0
C487 C 0.96144 0.49779 0.13284 0.0
C488 C 0.01852 0.51003 0.15268 0.0
C489 C 1.00376 0.50766 0.17808 0.0
C490 C 0.94682 0.49544 0.15802 0.0
C491 C 0.96783 0.50037 0.18055 0.0
C492 C 0.9562 0.42655 0.00959 0.0
C493 C 0.98249 0.52222 1.00093 0.0
C494 C 0.01092 0.48525 0.93774 0.0
C495 C 0.02693 0.48667 0.91163 0.0
C496 C 0.06284 0.494 0.9092 0.0
C497 C 1.00561 0.47991 0.88881 0.0
C498 C 0.01964 0.47942 0.86365 0.0
C499 C 0.07711 0.49412 0.88419 0.0
C500 C 0.05558 0.4866 0.86151 0.0
C501 C 0.05989 0.56303 0.0305 0.0
H502 H 0.94475 0.49404 0.11569 0.0
H503 H 0.04623 0.51559 0.15068 0.0
H504 H 0.91912 0.48978 0.16008 0.0
H505 H 0.95603 0.49832 0.19998 0.0
H506 H 0.07968 0.49932 0.92658 0.0
H507 H 0.97777 0.47409 0.89065 0.0
H508 H 0.10478 0.49961 0.88241 0.0
H509 H 0.0668 0.48607 0.84233 0.0
Gd510 Gd 0.51809 0.52598 0.98153 0.0
Gd511 Gd 0.52981 0.50769 0.05126 0.0
C512 C 0.62636 0.49475 0.07498 0.0
C513 C 0.59692 0.43348 0.08874 0.0
C514 C 0.56102 0.45955 0.07434 0.0
C515 C 0.59211 0.49097 0.0695 0.0
C516 C 0.56291 0.43058 0.0846 0.0
C517 C 0.62864 0.46558 0.08396 0.0
C518 C 0.6571 0.52802 0.07215 0.0
C519 C 0.65297 0.55661 0.06512 0.0
N520 N 0.58873 0.51849 0.06092 0.0
C521 C 0.61832 0.55135 0.05999 0.0
H522 H 0.61543 0.57331 0.05417 0.0
C523 C 0.49735 0.42906 0.07843 0.0
N524 N 0.5288 0.45801 0.07043 0.0
C525 C 0.49771 0.39945 0.08843 0.0
C526 C 0.53061 0.4 0.09115 0.0
H527 H 0.47178 0.42838 0.07641 0.0
H528 H 0.6547 0.46783 0.088 0.0
H529 H 0.43546 0.45677 0.97207 0.0
H530 H 0.68392 0.53209 0.07611 0.0
H531 H 0.67643 0.58266 0.06342 0.0
H532 H 0.59897 0.41143 0.09637 0.0
H533 H 0.57454 0.60954 0.96317 0.0
H534 H 0.36367 0.49404 0.94941 0.0
H535 H 0.37443 0.44473 0.95928 0.0
H536 H 0.44347 0.61778 0.93775 0.0
H537 H 0.47261 0.37625 0.09401 0.0
H538 H 0.53085 0.37711 0.09902 0.0
H539 H 0.38962 0.55892 0.94198 0.0
H540 H 0.57103 0.66083 0.9467 0.0
N541 N 0.45894 0.51234 0.97012 0.0
C542 C 0.39054 0.49949 0.95499 0.0
C543 C 0.39652 0.47159 0.9605 0.0
C544 C 0.41974 0.53395 0.95539 0.0
C545 C 0.45418 0.53953 0.96272 0.0
C546 C 0.43114 0.47854 0.9679 0.0
N547 N 0.51734 0.57621 0.96554 0.0
C548 C 0.48439 0.57252 0.96015 0.0
C549 C 0.54645 0.63619 0.95052 0.0
C550 C 0.51268 0.63326 0.9461 0.0
C551 C 0.54834 0.60709 0.95983 0.0
C552 C 0.48112 0.60099 0.95045 0.0
H553 H 0.51131 0.65581 0.93876 0.0
O554 O 0.55409 0.53775 0.94775 0.0
O555 O 0.55437 0.51887 0.0103 0.0
O556 O 0.55261 0.56637 0.0435 0.0
O557 O 0.52433 0.57164 0.00589 0.0
O558 O 0.57877 0.55926 0.98335 0.0
O559 O 0.50041 0.49219 0.94665 0.0
O560 O 0.49797 0.49899 0.08722 0.0
O561 O 0.4938 0.51283 0.02192 0.0
O562 O 0.49485 0.46698 0.98809 0.0
O563 O 0.51669 0.45889 0.02867 0.0
O564 O 0.46852 0.47567 0.05081 0.0
O565 O 0.54869 0.54755 0.0819 0.0
C566 C 0.58514 0.54312 1.00211 0.0
C567 C 0.44661 0.5961 0.94483 0.0
C568 C 0.41595 0.56262 0.94731 0.0
C569 C 0.53016 0.51184 0.93347 0.0
C570 C 0.52629 0.52053 0.90588 0.0
C571 C 0.51203 0.54258 0.9004 0.0
C572 C 0.53836 0.50794 0.88482 0.0
C573 C 0.53726 0.51842 0.85855 0.0
C574 C 0.51068 0.55283 0.87444 0.0
C575 C 0.52349 0.54109 0.85363 0.0
C576 C 0.54168 0.58426 0.0285 0.0
C577 C 0.46281 0.48972 0.03031 0.0
C578 C 0.52178 0.52865 0.09789 0.0
C579 C 0.53131 0.52746 0.12576 0.0
C580 C 0.55936 0.52079 0.13224 0.0
C581 C 0.51327 0.53465 0.14608 0.0
C582 C 0.52411 0.53642 0.1727 0.0
C583 C 0.56978 0.52194 0.15863 0.0
C584 C 0.55251 0.52997 0.17873 0.0
C585 C 0.50233 0.44814 1.00492 0.0
H586 H 0.50217 0.55212 0.91612 0.0
H587 H 0.54911 0.49059 0.88882 0.0
H588 H 0.49986 0.57007 0.87046 0.0
H589 H 0.52243 0.54951 0.83359 0.0
H590 H 0.57351 0.51517 0.11691 0.0
H591 H 0.49151 0.53974 0.14119 0.0
H592 H 0.59159 0.51698 0.16349 0.0
H593 H 0.56132 0.53121 0.19906 0.0
Gd594 Gd 0.16929 0.35181 0.38255 0.0
Gd595 Gd 0.15439 0.32027 0.31239 0.0
C596 C 0.05815 0.21122 0.29462 0.0
C597 C 0.0879 0.17818 0.28251 0.0
C598 C 0.12358 0.24032 0.29342 0.0
C599 C 0.09236 0.24147 0.29824 0.0
C600 C 0.12178 0.20897 0.28468 0.0
C601 C 0.05609 0.1793 0.2875 0.0
C602 C 0.02716 0.21432 0.29732 0.0
C603 C 0.03097 0.24735 0.30214 0.0
N604 N 0.09549 0.2728 0.30495 0.0
C605 C 0.06561 0.27653 0.30541 0.0
H606 H 0.06843 0.30187 0.30884 0.0
C607 C 0.18679 0.27234 0.28636 0.0
N608 N 0.1557 0.27064 0.29554 0.0
C609 C 0.18652 0.24189 0.27775 0.0
C610 C 0.15397 0.20988 0.27742 0.0
H611 H 0.21198 0.29705 0.28641 0.0
H612 H 0.03007 0.15565 0.28494 0.0
H613 H 0.25122 0.36125 0.39309 0.0
H614 H 1.00034 0.19174 0.29476 0.0
H615 H 0.00729 0.25037 0.30341 0.0
H616 H 0.08594 0.15369 0.27615 0.0
H617 H 0.11505 0.38241 0.40276 0.0
H618 H 0.32557 0.46911 0.41103 0.0
H619 H 0.31281 0.40804 0.40461 0.0
H620 H 0.24852 0.51917 0.41895 0.0
H621 H 0.2114 0.24314 0.27135 0.0
H622 H 0.15379 0.18636 0.27063 0.0
H623 H 0.30141 0.51079 0.41549 0.0
H624 H 0.12025 0.43896 0.41623 0.0
N625 N 0.22911 0.39534 0.39259 0.0
C626 C 0.29838 0.44861 0.40609 0.0
C627 C 0.29127 0.41417 0.40252 0.0
C628 C 0.26984 0.45569 0.40475 0.0
C629 C 0.23491 0.4279 0.39854 0.0
C630 C 0.25627 0.38771 0.3958 0.0
N631 N 0.17191 0.40386 0.39804 0.0
C632 C 0.20525 0.43235 0.40128 0.0
C633 C 0.14439 0.43752 0.41198 0.0
C634 C 0.17855 0.46757 0.41393 0.0
C635 C 0.14155 0.40552 0.40452 0.0
C636 C 0.20957 0.46506 0.4092 0.0
H637 H 0.18071 0.49227 0.41995 0.0
O638 O 0.13864 0.33576 0.41975 0.0
O639 O 0.13184 0.31017 0.35409 0.0
O640 O 0.13091 0.35644 0.31976 0.0
O641 O 0.15815 0.38844 0.35821 0.0
O642 O 0.10873 0.32463 0.38362 0.0
O643 O 0.18432 0.32787 0.41403 0.0
O644 O 0.18834 0.34708 0.27831 0.0
O645 O 0.19051 0.36167 0.3411 0.0
O646 O 0.1933 0.31624 0.37512 0.0
O647 O 0.17071 0.28629 0.33486 0.0
O648 O 0.2156 0.34844 0.31227 0.0
O649 O 0.13199 0.33219 0.27736 0.0
C650 C 0.10146 0.30372 0.3638 0.0
C651 C 0.24457 0.4937 0.41317 0.0
C652 C 0.27469 0.48896 0.41111 0.0
C653 C 0.15945 0.32524 0.43048 0.0
C654 C 0.17117 0.33572 0.45824 0.0
C655 C 0.20357 0.36697 0.46352 0.0
C656 C 0.15129 0.31337 0.47957 0.0
C657 C 0.16445 0.32179 0.50588 0.0
C658 C 0.21659 0.37542 0.48941 0.0
C659 C 0.19747 0.35291 0.51037 0.0
C660 C 0.14016 0.38368 0.33581 0.0
C661 C 0.22138 0.36889 0.33225 0.0
C662 C 0.16239 0.34621 0.26418 0.0
C663 C 0.16132 0.33583 0.23611 0.0
C664 C 0.15509 0.30209 0.22995 0.0
C665 C 0.16941 0.36048 0.21539 0.0
C666 C 0.17254 0.35167 0.18887 0.0
C667 C 0.15849 0.29339 0.20393 0.0
C668 C 0.16764 0.31806 0.18362 0.0
C669 C 0.18636 0.29043 0.35822 0.0
H670 H 0.21917 0.38459 0.44758 0.0
H671 H 0.12608 0.28929 0.47571 0.0
H672 H 0.24181 0.39943 0.49324 0.0
H673 H 0.20828 0.35998 0.53028 0.0
H674 H 0.14811 0.28256 0.24527 0.0
H675 H 0.17368 0.38645 0.21987 0.0
H676 H 0.15412 0.26741 0.19948 0.0
H677 H 0.17012 0.31063 0.16357 0.0
Gd678 Gd 0.66081 0.8183 0.38288 0.0
Gd679 Gd 0.69698 0.83312 0.31447 0.0
C680 C 0.80174 0.8291 0.30552 0.0
C681 C 0.84609 0.89035 0.29691 0.0
C682 C 0.78238 0.87224 0.30207 0.0
C683 C 0.77435 0.83821 0.3069 0.0
C684 C 0.81812 0.89852 0.29601 0.0
C685 C 0.83789 0.85561 0.30163 0.0
C686 C 0.79166 0.79348 0.30657 0.0
C687 C 0.75494 0.76806 0.30746 0.0
N688 N 0.73911 0.81339 0.31025 0.0
C689 C 0.72891 0.7786 0.30902 0.0
H690 H 0.70077 0.75897 0.30926 0.0
C691 C 0.75983 0.90979 0.29022 0.0
N692 N 0.75449 0.87871 0.30064 0.0
C693 C 0.79485 0.93699 0.28439 0.0
C694 C 0.82427 0.9316 0.28788 0.0
H695 H 0.73711 0.914 0.28752 0.0
H696 H 0.85942 0.84926 0.30102 0.0
H697 H 0.6446 0.88479 0.39023 0.0
H698 H 0.8118 0.78531 0.3055 0.0
H699 H 0.74667 0.74038 0.30717 0.0
H700 H 0.87384 0.9103 0.29275 0.0
H701 H 0.63355 0.73542 0.40333 0.0
H702 H 0.53202 0.84298 0.40729 0.0
H703 H 0.59324 0.89409 0.4002 0.0
H704 H 0.48853 0.71974 0.41807 0.0
H705 H 0.79911 0.96203 0.27717 0.0
H706 H 0.85134 0.95256 0.28311 0.0
H707 H 0.49283 0.77757 0.41314 0.0
H708 H 0.57705 0.68242 0.41695 0.0
N709 N 0.61282 0.82907 0.39126 0.0
C710 C 0.5545 0.83875 0.40299 0.0
C711 C 0.58898 0.86765 0.39897 0.0
C712 C 0.54987 0.80485 0.40283 0.0
C713 C 0.58016 0.80092 0.39744 0.0
C714 C 0.61799 0.86229 0.39314 0.0
N715 N 0.6086 0.76673 0.3979 0.0
C716 C 0.57792 0.76864 0.40089 0.0
C717 C 0.57689 0.70646 0.41235 0.0
C718 C 0.54472 0.70752 0.41404 0.0
C719 C 0.60891 0.73662 0.40473 0.0
C720 C 0.5451 0.73906 0.40885 0.0
H721 H 0.52001 0.68417 0.42013 0.0
O722 O 0.68361 0.81013 0.41883 0.0
O723 O 0.70557 0.82274 0.35661 0.0
O724 O 0.65318 0.7751 0.32064 0.0
O725 O 0.62105 0.77186 0.35906 0.0
O726 O 0.68922 0.78679 0.38678 0.0
O727 O 0.67412 0.85416 0.41622 0.0
O728 O 0.68454 0.84883 0.27682 0.0
O729 O 0.65353 0.82997 0.3409 0.0
O730 O 0.69719 0.87726 0.375 0.0
O731 O 0.7318 0.88255 0.33732 0.0
O732 O 0.67062 0.867 0.31144 0.0
O733 O 0.67733 0.79663 0.28139 0.0
C734 C 0.71186 0.80003 0.36748 0.0
C735 C 0.51412 0.74225 0.41224 0.0
C736 C 0.51654 0.77515 0.40936 0.0
C737 C 0.68386 0.83621 0.43133 0.0
C738 C 0.66929 0.82851 0.4584 0.0
C739 C 0.632 0.80746 0.46305 0.0
C740 C 0.69336 0.84023 0.47987 0.0
C741 C 0.68047 0.82959 0.50585 0.0
C742 C 0.61898 0.79731 0.48884 0.0
C743 C 0.64308 0.8079 0.51015 0.0
C744 C 0.6245 0.7585 0.33658 0.0
C745 C 0.64813 0.85362 0.33091 0.0
C746 C 0.67673 0.81946 0.26511 0.0
C747 C 0.69299 0.8225 0.23886 0.0
C748 C 0.72967 0.83255 0.2361 0.0
C749 C 0.67116 0.81444 0.21622 0.0
C750 C 0.68546 0.81517 0.19091 0.0
C751 C 0.74425 0.83419 0.21095 0.0
C752 C 0.72227 0.82536 0.18844 0.0
C753 C 0.72564 0.89525 0.35922 0.0
H754 H 0.61305 0.79846 0.44681 0.0
H755 H 0.72222 0.85659 0.47635 0.0
H756 H 0.59019 0.78076 0.49229 0.0
H757 H 0.63262 0.79923 0.53 0.0
H758 H 0.74689 0.8388 0.25333 0.0
H759 H 0.64276 0.80658 0.21832 0.0
H760 H 0.77254 0.84183 0.20893 0.0
H761 H 0.73379 0.8259 0.16916 0.0
Gd762 Gd 0.17851 0.85298 0.31068 0.0
Gd763 Gd 0.20651 0.85435 0.37989 0.0
C764 C 0.30699 0.84582 0.39852 0.0
C765 C 0.28098 0.78824 0.41933 0.0
C766 C 0.2422 0.8112 0.40511 0.0
C767 C 0.2719 0.84105 0.39541 0.0
C768 C 0.24638 0.78466 0.41762 0.0
C769 C 0.31127 0.81882 0.40984 0.0
C770 C 0.33675 0.87816 0.39128 0.0
C771 C 0.33105 0.90518 0.38242 0.0
N772 N 0.26672 0.8666 0.38472 0.0
C773 C 0.29565 0.89892 0.37947 0.0
H774 H 0.29142 0.91979 0.37274 0.0
C775 C 0.1797 0.78167 0.41533 0.0
N776 N 0.20924 0.80877 0.40317 0.0
C777 C 0.18243 0.75457 0.42779 0.0
C778 C 0.21582 0.75581 0.42862 0.0
H779 H 0.15369 0.78027 0.41473 0.0
H780 H 0.33797 0.82181 0.41208 0.0
H781 H 0.09718 0.78221 0.31983 0.0
H782 H 0.36417 0.88299 0.39345 0.0
H783 H 0.35387 0.93077 0.37772 0.0
H784 H 0.28472 0.76799 0.42864 0.0
H785 H 0.22486 0.92689 0.27552 0.0
H786 H 0.01565 0.80645 0.29633 0.0
H787 H 0.03263 0.76431 0.31472 0.0
H788 H 0.0848 0.92095 0.2574 0.0
H789 H 0.15877 0.73274 0.43674 0.0
H790 H 0.21787 0.73483 0.43837 0.0
H791 H 0.03545 0.86526 0.27521 0.0
H792 H 0.2134 0.96883 0.25052 0.0
N793 N 0.11645 0.83431 0.3065 0.0
C794 C 0.04398 0.81447 0.29893 0.0
C795 C 0.05345 0.79061 0.30925 0.0
C796 C 0.07127 0.84789 0.29098 0.0
C797 C 0.10774 0.85709 0.29502 0.0
C798 C 0.09004 0.80083 0.31233 0.0
N799 N 0.16989 0.89472 0.28737 0.0
C800 C 0.13537 0.88827 0.28497 0.0
C801 C 0.19124 0.94641 0.26026 0.0
C802 C 0.15608 0.941 0.25864 0.0
C803 C 0.19763 0.92261 0.27446 0.0
C804 C 0.1275 0.91133 0.27068 0.0
H805 H 0.15116 0.95933 0.24746 0.0
O806 O 0.20751 0.85608 0.27441 0.0
O807 O 0.22218 0.85567 0.337 0.0
O808 O 0.22735 0.91024 0.36421 0.0
O809 O 0.19142 0.90583 0.32791 0.0
O810 O 0.23839 0.88835 0.30448 0.0
O811 O 0.1543 0.81127 0.28114 0.0
O812 O 0.17946 0.85492 0.41637 0.0
O813 O 0.16321 0.85146 0.35319 0.0
O814 O 0.16279 0.79709 0.32484 0.0
O815 O 0.19435 0.80228 0.36408 0.0
O816 O 0.14617 0.82196 0.38711 0.0
O817 O 0.23347 0.89754 0.40783 0.0
C818 C 0.25013 0.87822 0.32422 0.0
C819 C 0.09137 0.90336 0.26802 0.0
C820 C 0.06327 0.87166 0.27816 0.0
C821 C 0.18093 0.82762 0.26433 0.0
C822 C 0.17164 0.83112 0.23674 0.0
C823 C 0.14601 0.84149 0.23139 0.0
C824 C 0.19079 0.82705 0.21555 0.0
C825 C 0.18568 0.83511 0.18937 0.0
C826 C 0.14114 0.8499 0.20562 0.0
C827 C 0.16126 0.84735 0.18479 0.0
C828 C 0.21457 0.92444 0.34702 0.0
C829 C 0.13492 0.83045 0.36626 0.0
C830 C 0.20754 0.88308 0.42539 0.0
C831 C 0.21802 0.88107 0.453 0.0
C832 C 0.24822 0.87723 0.45838 0.0
C833 C 0.19753 0.88287 0.47428 0.0
C834 C 0.20789 0.88207 0.50074 0.0
C835 C 0.2582 0.87585 0.48453 0.0
C836 C 0.23838 0.8785 0.5056 0.0
C837 C 0.17526 0.78422 0.34346 0.0
H838 H 0.13002 0.84346 0.24712 0.0
H839 H 0.21009 0.8183 0.21945 0.0
H840 H 0.12179 0.85855 0.2018 0.0
H841 H 0.15716 0.85412 0.16491 0.0
H842 H 0.26425 0.8755 0.44241 0.0
H843 H 0.17405 0.88565 0.47032 0.0
H844 H 0.2816 0.87303 0.4885 0.0
H845 H 0.24693 0.87796 0.52574 0.0
Gd846 Gd 0.84008 0.69007 0.71718 0.0
Gd847 Gd 0.82362 0.65332 0.64878 0.0
C848 C 0.7215 0.5473 0.63363 0.0
C849 C 0.74641 0.50916 0.62449 0.0
C850 C 0.78644 0.57138 0.6333 0.0
C851 C 0.75694 0.57588 0.63687 0.0
C852 C 0.78162 0.53822 0.62622 0.0
C853 C 0.71636 0.51369 0.62822 0.0
C854 C 0.69245 0.55367 0.63496 0.0
C855 C 0.69938 0.58812 0.63806 0.0
N856 N 0.76302 0.60871 0.64209 0.0
C857 C 0.73511 0.61551 0.6411 0.0
H858 H 0.7403 0.64194 0.64336 0.0
C859 C 0.84964 0.59827 0.6268 0.0
N860 N 0.81994 0.60011 0.63495 0.0
C861 C 0.84635 0.56592 0.6199 0.0
C862 C 0.81225 0.5356 0.62012 0.0
H863 H 0.87605 0.62167 0.62656 0.0
H864 H 0.68933 0.4913 0.62601 0.0
H865 H 0.91615 0.68639 0.72929 0.0
H866 H 0.66478 0.53246 0.63266 0.0
H867 H 0.67726 0.59361 0.63825 0.0
H868 H 0.74212 0.48334 0.61942 0.0
H869 H 0.79878 0.73609 0.73332 0.0
H870 H 1.00339 0.79083 0.7418 0.0
H871 H 0.98012 0.72678 0.7394 0.0
H872 H 0.94547 0.86028 0.7415 0.0
H873 H 0.87011 0.5644 0.6144 0.0
H874 H 0.80973 0.51059 0.61462 0.0
H875 H 0.99054 0.84078 0.74093 0.0
H876 H 0.81549 0.79789 0.74194 0.0
N877 N 0.90242 0.72683 0.72588 0.0
C878 C 0.97502 0.77315 0.7375 0.0
C879 C 0.96195 0.73702 0.73624 0.0
C880 C 0.95101 0.78588 0.73432 0.0
C881 C 0.91419 0.76162 0.72925 0.0
C882 C 0.92545 0.71413 0.73031 0.0
N883 N 0.85335 0.74773 0.72834 0.0
C884 C 0.88884 0.77246 0.73032 0.0
C885 C 0.8364 0.79115 0.73859 0.0
C886 C 0.87285 0.81729 0.73885 0.0
C887 C 0.82708 0.7562 0.73394 0.0
C888 C 0.89962 0.80799 0.73541 0.0
H889 H 0.88004 0.84432 0.74267 0.0
O890 O 0.81186 0.68724 0.75374 0.0
O891 O 0.80114 0.64713 0.69012 0.0
O892 O 0.80473 0.69403 0.65297 0.0
O893 O 0.83301 0.72717 0.69064 0.0
O894 O 0.77972 0.66763 0.7161 0.0
O895 O 0.84725 0.66535 0.75276 0.0
O896 O 0.85585 0.67142 0.61275 0.0
O897 O 0.86149 0.69635 0.67574 0.0
O898 O 0.8567 0.64823 0.71445 0.0
O899 O 0.83825 0.61933 0.67347 0.0
O900 O 0.88465 0.67884 0.64868 0.0
O901 O 0.80316 0.66715 0.61366 0.0
C902 C 0.77135 0.64385 0.69822 0.0
C903 C 0.9366 0.83277 0.738 0.0
C904 C 0.96226 0.82169 0.73762 0.0
C905 C 0.82375 0.66937 0.7667 0.0
C906 C 0.79617 0.63864 0.78205 0.0
C907 C 0.76191 0.61643 0.771 0.0
C908 C 0.80284 0.6326 0.80847 0.0
C909 C 0.77512 0.60508 0.82358 0.0
C910 C 0.73489 0.58879 0.7856 0.0
C911 C 0.74132 0.58323 0.81173 0.0
C912 C 0.81578 0.72256 0.66801 0.0
C913 C 0.8919 0.70168 0.66717 0.0
C914 C 0.83137 0.67421 0.59922 0.0
C915 C 0.82508 0.66038 0.57184 0.0
C916 C 0.81768 0.62596 0.56689 0.0
C917 C 0.82941 0.68266 0.55023 0.0
C918 C 0.82834 0.6712 0.52385 0.0
C919 C 0.81621 0.61436 0.54093 0.0
C920 C 0.8221 0.63692 0.51959 0.0
C921 C 0.85089 0.62246 0.69788 0.0
H922 H 0.75577 0.62064 0.75117 0.0
H923 H 0.82896 0.64969 0.81746 0.0
H924 H 0.70863 0.57195 0.77674 0.0
H925 H 0.71972 0.56198 0.82289 0.0
H926 H 0.81374 0.60823 0.58304 0.0
H927 H 0.83477 0.7092 0.5539 0.0
H928 H 0.81101 0.5879 0.53734 0.0
H929 H 0.82152 0.62751 0.49963 0.0
Gd930 Gd 0.32537 0.15301 0.71567 0.0
Gd931 Gd 0.36043 0.16728 0.64736 0.0
C932 C 0.47324 0.18307 0.63079 0.0
C933 C 0.50738 0.24492 0.61861 0.0
C934 C 0.44307 0.21735 0.62858 0.0
C935 C 0.44202 0.18609 0.63423 0.0
C936 C 0.47563 0.24708 0.62042 0.0
C937 C 0.50616 0.21289 0.62367 0.0
C938 C 0.47001 0.14987 0.63345 0.0
C939 C 0.43596 0.12062 0.63814 0.0
N940 N 0.40977 0.1579 0.64111 0.0
C941 C 0.40595 0.12519 0.64165 0.0
H942 H 0.37979 0.10265 0.64525 0.0
C943 C 0.41077 0.24778 0.62274 0.0
N944 N 0.41178 0.21834 0.63053 0.0
C945 C 0.44246 0.27805 0.61473 0.0
C946 C 0.47513 0.27786 0.61388 0.0
H947 H 0.38583 0.24847 0.62356 0.0
H948 H 0.53054 0.21122 0.62131 0.0
H949 H 0.31791 0.22482 0.71841 0.0
H950 H 0.49326 0.14633 0.63087 0.0
H951 H 0.4328 0.09458 0.63923 0.0
H952 H 0.53276 0.26756 0.6126 0.0
H953 H 0.29161 0.07113 0.73947 0.0
H954 H 0.2095 0.19594 0.74005 0.0
H955 H 0.27209 0.24178 0.72875 0.0
H956 H 0.15607 0.07321 0.75985 0.0
H957 H 0.44168 0.30155 0.60929 0.0
H958 H 0.49962 0.30134 0.60765 0.0
H959 H 0.16604 0.13262 0.75105 0.0
H960 H 0.23448 0.0239 0.7583 0.0
N961 N 0.28189 0.17025 0.72314 0.0
C962 C 0.2296 0.18844 0.7355 0.0
C963 C 0.26486 0.21437 0.72915 0.0
C964 C 0.2213 0.15338 0.7374 0.0
C965 C 0.2486 0.14512 0.73144 0.0
C966 C 0.29079 0.20472 0.7231 0.0
N967 N 0.27125 0.10612 0.73301 0.0
C968 C 0.24312 0.11195 0.73666 0.0
C969 C 0.23647 0.04847 0.75218 0.0
C970 C 0.20681 0.05358 0.75505 0.0
C971 C 0.2688 0.07531 0.74144 0.0
C972 C 0.21004 0.08579 0.74763 0.0
H973 H 0.18187 0.03283 0.76355 0.0
O974 O 0.34581 0.14138 0.75138 0.0
O975 O 0.36894 0.15554 0.68931 0.0
O976 O 0.32102 0.10912 0.65547 0.0
O977 O 0.28595 0.1052 0.69199 0.0
O978 O 0.34728 0.11577 0.71695 0.0
O979 O 0.34326 0.18938 0.749 0.0
O980 O 0.34114 0.17446 0.60919 0.0
O981 O 0.31757 0.16465 0.67407 0.0
O982 O 0.3683 0.21157 0.70854 0.0
O983 O 0.39995 0.21412 0.67001 0.0
O984 O 0.33236 0.19947 0.64347 0.0
O985 O 0.34353 0.12707 0.61727 0.0
C986 C 0.37159 0.12992 0.69875 0.0
C987 C 0.18184 0.09309 0.75177 0.0
C988 C 0.18748 0.12688 0.7467 0.0
C989 C 0.35042 0.16927 0.76386 0.0
C990 C 0.33744 0.16363 0.79137 0.0
C991 C 0.30031 0.1452 0.79725 0.0
C992 C 0.36272 0.17449 0.81207 0.0
C993 C 0.35105 0.16548 0.83847 0.0
C994 C 0.28855 0.13654 0.82345 0.0
C995 C 0.31374 0.14616 0.84397 0.0
C996 C 0.29137 0.0915 0.67019 0.0
C997 C 0.31113 0.18732 0.66363 0.0
C998 C 0.33705 0.14505 0.59971 0.0
C999 C 0.35121 0.14631 0.57297 0.0
C1000 C 0.3873 0.15482 0.56897 0.0
C1001 C 0.32776 0.13736 0.55121 0.0
C1002 C 0.33997 0.13593 0.52561 0.0
C1003 C 0.39965 0.15386 0.54349 0.0
C1004 C 0.37608 0.14424 0.52189 0.0
C1005 C 0.39656 0.22799 0.69212 0.0
H1006 H 0.28046 0.13707 0.78168 0.0
H1007 H 0.39147 0.18894 0.80761 0.0
H1008 H 0.25984 0.12194 0.82783 0.0
H1009 H 0.30418 0.13873 0.86415 0.0
H1010 H 0.40575 0.16176 0.58549 0.0
H1011 H 0.29985 0.13079 0.55421 0.0
H1012 H 0.42746 0.16028 0.54051 0.0
H1013 H 0.38594 0.14327 0.50227 0.0
Gd1014 Gd 0.84872 0.19521 0.64836 0.0
Gd1015 Gd 0.86146 0.17659 0.71784 0.0
C1016 C 0.95676 0.16018 0.73837 0.0
C1017 C 0.92625 0.09866 0.75158 0.0
C1018 C 0.89134 0.12651 0.73905 0.0
C1019 C 0.92278 0.15748 0.73385 0.0
C1020 C 0.89259 0.0969 0.7486 0.0
C1021 C 0.95834 0.13031 0.7465 0.0
C1022 C 0.98797 0.19312 0.73563 0.0
C1023 C 0.98458 0.22246 0.72978 0.0
N1024 N 0.92007 0.18572 0.72622 0.0
C1025 C 0.95015 0.21826 0.72559 0.0
H1026 H 0.94778 0.2408 0.72069 0.0
C1027 C 0.82797 0.09779 0.74497 0.0
N1028 N 0.8595 0.12611 0.73631 0.0
C1029 C 0.82768 0.0676 0.75434 0.0
C1030 C 0.86007 0.06691 0.75573 0.0
H1031 H 0.80279 0.09807 0.74391 0.0
H1032 H 0.98418 0.13172 0.74974 0.0
H1033 H 0.76615 0.12578 0.6391 0.0
H1034 H 0.01463 0.19637 0.73887 0.0
H1035 H 0.00843 0.24827 0.72828 0.0
H1036 H 0.9278 0.07608 0.75862 0.0
H1037 H 0.90458 0.27869 0.62962 0.0
H1038 H 0.69366 0.1627 0.61765 0.0
H1039 H 0.70491 0.11352 0.62676 0.0
H1040 H 0.77279 0.28661 0.60639 0.0
H1041 H 0.80247 0.04488 0.76043 0.0
H1042 H 0.85982 0.04356 0.7631 0.0
H1043 H 0.71918 0.22761 0.61071 0.0
H1044 H 0.90058 0.32993 0.61368 0.0
N1045 N 0.78933 0.18135 0.63751 0.0
C1046 C 0.72064 0.16824 0.62299 0.0
C1047 C 0.7269 0.14043 0.62807 0.0
C1048 C 0.7497 0.20278 0.62348 0.0
C1049 C 0.7843 0.20848 0.63045 0.0
C1050 C 0.76164 0.1475 0.63522 0.0
N1051 N 0.84746 0.2453 0.63268 0.0
C1052 C 0.81438 0.24152 0.62779 0.0
C1053 C 0.87612 0.30527 0.61769 0.0
C1054 C 0.84223 0.30229 0.61383 0.0
C1055 C 0.87829 0.27619 0.6267 0.0
C1056 C 0.8108 0.26997 0.61841 0.0
H1057 H 0.84063 0.3248 0.60672 0.0
O1058 O 0.88456 0.20718 0.61443 0.0
O1059 O 0.88534 0.18787 0.67661 0.0
O1060 O 0.88504 0.23533 0.71021 0.0
O1061 O 0.85637 0.2413 0.6731 0.0
O1062 O 0.90933 0.22848 0.64969 0.0
O1063 O 0.83085 0.16173 0.61329 0.0
O1064 O 0.83122 0.16864 0.7546 0.0
O1065 O 0.8253 0.18234 0.68899 0.0
O1066 O 0.82555 0.13603 0.65474 0.0
O1067 O 0.84736 0.12757 0.6952 0.0
O1068 O 0.79999 0.14592 0.71825 0.0
O1069 O 0.8823 0.21646 0.74854 0.0
C1070 C 0.91596 0.2122 0.66819 0.0
C1071 C 0.77615 0.26497 0.61323 0.0
C1072 C 0.74562 0.2314 0.61576 0.0
C1073 C 0.86059 0.1814 0.6001 0.0
C1074 C 0.85673 0.19026 0.57253 0.0
C1075 C 0.84175 0.21173 0.56713 0.0
C1076 C 0.86957 0.17848 0.55141 0.0
C1077 C 0.86846 0.1891 0.52516 0.0
C1078 C 0.84045 0.22218 0.5412 0.0
C1079 C 0.854 0.21123 0.52035 0.0
C1080 C 0.87432 0.25368 0.69557 0.0
C1081 C 0.79425 0.15995 0.69774 0.0
C1082 C 0.85597 0.198 0.76507 0.0
C1083 C 0.8667 0.19636 0.79259 0.0
C1084 C 0.89408 0.18825 0.79774 0.0
C1085 C 0.85064 0.20447 0.81388 0.0
C1086 C 0.86277 0.20555 0.8401 0.0
C1087 C 0.90581 0.18881 0.82365 0.0
C1088 C 0.8905 0.19763 0.84467 0.0
C1089 C 0.83255 0.1168 0.67159 0.0
H1090 H 0.8313 0.22067 0.5829 0.0
H1091 H 0.88095 0.16164 0.55536 0.0
H1092 H 0.82909 0.23899 0.53728 0.0
H1093 H 0.85299 0.21981 0.50036 0.0
H1094 H 0.90673 0.18194 0.78171 0.0
H1095 H 0.82935 0.2106 0.81005 0.0
H1096 H 0.92712 0.18274 0.82744 0.0
H1097 H 0.90041 0.19838 0.86459 0.0
C1098 C 0.33406 0.91027 0.0403 0.0
C1099 C 0.33479 0.87982 0.04862 0.0
C1100 C 0.39736 0.90652 0.03307 0.0
C1101 C 0.39956 0.9399 0.02976 0.0
N1102 N 0.36813 0.97311 0.03475 0.0
N1103 N 0.37075 0.85267 0.05846 0.0
C1104 C 0.36728 0.9416 0.03457 0.0
C1105 C 0.36745 0.87898 0.04659 0.0
N1106 N 0.30167 0.90928 0.03747 0.0
N1107 N 0.4229 0.90013 0.02275 0.0
H1108 H 0.3501 0.83266 0.06961 0.0
H1109 H 0.39537 0.85301 0.05969 0.0
H1110 H 0.44267 0.91795 0.01042 0.0
H1111 H 0.42083 0.87541 0.0229 0.0
H1112 H 0.29937 0.9297 0.02884 0.0
H1113 H 0.27686 0.88668 0.0412 0.0
H1114 H 0.3464 0.97589 0.0411 0.0
H1115 H 0.39128 0.99689 0.03087 0.0
C1116 C 0.14204 0.49466 0.0497 0.0
C1117 C 0.13981 0.46134 0.05193 0.0
C1118 C 0.07363 0.43206 0.04658 0.0
C1119 C 0.07544 0.4653 0.04374 0.0
N1120 N 0.11068 0.52772 0.05155 0.0
N1121 N 0.10528 0.39898 0.04459 0.0
C1122 C 0.10964 0.49658 0.04711 0.0
C1123 C 0.10608 0.43027 0.0481 0.0
N1124 N 0.17512 0.52468 0.05044 0.0
N1125 N 0.04088 0.40206 0.04952 0.0
H1126 H 0.12869 0.397 0.04453 0.0
H1127 H 0.08224 0.37596 0.03864 0.0
H1128 H 0.01637 0.40179 0.0499 0.0
H1129 H 0.03813 0.37781 0.0546 0.0
H1130 H 0.17929 0.54925 0.04471 0.0
H1131 H 0.1991 0.52492 0.05495 0.0
H1132 H 0.13399 0.55119 0.05623 0.0
H1133 H 0.08731 0.52898 0.05442 0.0
C1134 C 0.54197 0.67189 0.03267 0.0
C1135 C 0.55694 0.68454 0.05819 0.0
C1136 C 0.57049 0.63672 0.06031 0.0
C1137 C 0.54781 0.6195 0.03814 0.0
N1138 N 0.49856 0.61807 0.01233 0.0
N1139 N 0.57152 0.66695 0.10017 0.0
C1140 C 0.52963 0.63619 0.02659 0.0
C1141 C 0.56702 0.66339 0.07338 0.0
N1142 N 0.53993 0.69332 0.01398 0.0
N1143 N 0.59695 0.62995 0.06811 0.0
H1144 H 0.56441 0.68265 0.11121 0.0
H1145 H 0.57742 0.65043 0.11143 0.0
H1146 H 0.60598 0.61707 0.05569 0.0
H1147 H 0.61402 0.64296 0.08408 0.0
H1148 H 0.52997 0.68421 0.99497 0.0
H1149 H 0.5522 0.72049 0.01646 0.0
H1150 H 0.48464 0.63026 1.00496 0.0
H1151 H 0.48362 0.59074 0.01197 0.0
C1152 C 0.8645 0.35258 0.98476 0.0
C1153 C 0.87115 0.32405 0.98259 0.0
C1154 C 0.93324 0.36214 0.99873 0.0
C1155 C 0.92614 0.39045 1.00203 0.0
N1156 N 0.88031 0.4079 1.00543 0.0
N1157 N 0.90915 0.29936 0.99247 0.0
C1158 C 0.89035 0.38423 0.99742 0.0
C1159 C 0.90485 0.32821 0.99089 0.0
N1160 N 0.83416 0.35024 0.97349 0.0
N1161 N 0.96703 0.36741 1.00372 0.0
H1162 H 0.88883 0.27414 0.98723 0.0
H1163 H 0.93155 0.29967 1.00102 0.0
H1164 H 0.98686 0.39016 0.01269 0.0
H1165 H 0.97572 0.34994 0.99822 0.0
H1166 H 0.83 0.37165 0.97174 0.0
H1167 H 0.81482 0.32794 0.96347 0.0
H1168 H 0.8534 0.40205 0.00585 0.0
H1169 H 0.89783 0.4322 0.01374 0.0
C1170 C 0.65597 0.51644 0.98542 0.0
C1171 C 0.68792 0.54973 0.98364 0.0
C1172 C 0.6536 0.57786 0.99935 0.0
C1173 C 0.62145 0.54427 1.00158 0.0
N1174 N 0.59751 0.48161 1.00564 0.0
N1175 N 0.71922 0.61133 0.99435 0.0
C1176 C 0.62427 0.51357 0.99734 0.0
C1177 C 0.68734 0.58021 0.99234 0.0
N1178 N 0.65528 0.48745 0.97474 0.0
N1179 N 0.65178 0.60772 1.00366 0.0
H1180 H 0.74416 0.61389 0.98916 0.0
H1181 H 0.72147 0.6338 1.00315 0.0
H1182 H 0.62873 0.60726 0.01121 0.0
H1183 H 0.67258 0.63288 0.99892 0.0
H1184 H 0.6315 0.46339 0.97245 0.0
H1185 H 0.6778 0.48814 0.96595 0.0
H1186 H 0.59954 0.45889 1.00543 0.0
H1187 H 0.57574 0.47902 0.0163 0.0
C1188 C 0.44461 0.114 0.98114 0.0
C1189 C 0.47558 0.14541 0.97268 0.0
C1190 C 0.51421 0.12294 0.98914 0.0
C1191 C 0.48327 0.08888 0.99271 0.0
N1192 N 0.41812 0.05228 0.99109 0.0
N1193 N 0.53972 0.1762 0.96311 0.0
C1194 C 0.44821 0.08447 0.98817 0.0
C1195 C 0.51036 0.14893 0.97517 0.0
N1196 N 0.41208 0.11286 0.98379 0.0
N1197 N 0.54725 0.13138 0.99935 0.0
H1198 H 0.53796 0.19478 0.95124 0.0
H1199 H 0.56507 0.17804 0.96248 0.0
H1200 H 0.55262 0.11407 0.00973 0.0
H1201 H 0.56889 0.15715 0.99968 0.0
H1202 H 0.40874 0.13445 0.97994 0.0
H1203 H 0.38938 0.09181 0.99244 0.0
H1204 H 0.39244 0.04643 0.98473 0.0
H1205 H 0.41938 0.03106 0.99878 0.0
C1206 C 0.6572 0.10218 0.00752 0.0
C1207 C 0.65708 0.13133 0.99542 0.0
C1208 C 0.59395 0.09304 0.98159 0.0
C1209 C 0.59232 0.06522 0.99731 0.0
N1210 N 0.62656 0.03874 0.0132 0.0
N1211 N 0.62779 0.15432 0.96772 0.0
C1212 C 0.62532 0.06832 0.0065 0.0
C1213 C 0.62627 0.12644 0.98111 0.0
N1214 N 0.68718 0.10716 0.02104 0.0
N1215 N 0.56536 0.08683 0.96576 0.0
H1216 H 0.65175 0.17827 0.96536 0.0
H1217 H 0.60553 0.15434 0.95932 0.0
H1218 H 0.54095 0.06339 0.96619 0.0
H1219 H 0.56606 0.10393 0.95117 0.0
H1220 H 0.6877 0.08788 0.0328 0.0
H1221 H 0.71112 0.13137 0.02162 0.0
H1222 H 0.65053 0.03875 0.01728 0.0
H1223 H 0.60372 0.01367 0.0129 0.0
C1224 C 0.88369 0.49179 0.98231 0.0
C1225 C 0.87917 0.5193 0.99315 0.0
C1226 C 0.94414 0.55175 1.00433 0.0
C1227 C 0.94698 0.52158 0.99794 0.0
N1228 N 0.92438 0.47049 0.96981 0.0
N1229 N 0.90518 0.57626 0.0138 0.0
C1230 C 0.91811 0.4937 0.98371 0.0
C1231 C 0.90968 0.54996 1.00327 0.0
N1232 N 0.85453 0.46328 0.97124 0.0
N1233 N 0.97448 0.5822 0.0115 0.0
H1234 H 0.8806 0.57603 0.01334 0.0
H1235 H 0.92512 0.59749 0.02432 0.0
H1236 H 0.99913 0.58345 0.01508 0.0
H1237 H 0.97562 0.60641 0.01298 0.0
H1238 H 0.85416 0.44011 0.96617 0.0
H1239 H 0.82994 0.46243 0.9678 0.0
H1240 H 0.90614 0.45222 0.95641 0.0
H1241 H 0.94909 0.47107 0.97004 0.0
C1242 C 0.52181 0.38395 0.96764 0.0
C1243 C 0.50841 0.35615 0.98629 0.0
C1244 C 0.47998 0.38386 0.01122 0.0
C1245 C 0.49932 0.4147 0.9956 0.0
N1246 N 0.54312 0.44561 0.96069 0.0
N1247 N 0.47565 0.32949 0.02661 0.0
C1248 C 0.52086 0.41501 0.97387 0.0
C1249 C 0.48725 0.35576 0.00813 0.0
N1250 N 0.53612 0.38087 0.9442 0.0
N1251 N 0.45452 0.38144 0.02886 0.0
H1252 H 0.47965 0.30799 0.0246 0.0
H1253 H 0.46408 0.33013 0.04466 0.0
H1254 H 0.44886 0.40176 0.03154 0.0
H1255 H 0.43709 0.35846 0.03909 0.0
H1256 H 0.54316 0.39888 0.9287 0.0
H1257 H 0.53749 0.35844 0.93926 0.0
H1258 H 0.56228 0.44796 0.94675 0.0
H1259 H 0.5456 0.46971 0.96564 0.0
C1260 C 0.14595 0.63789 0.05926 0.0
C1261 C 0.15617 0.66302 0.03861 0.0
C1262 C 0.0976 0.62677 0.01679 0.0
C1263 C 0.08828 0.60027 0.03646 0.0
N1264 N 0.09831 0.58624 0.08084 0.0
N1265 N 0.13946 0.68635 1.00154 0.0
C1266 C 0.11066 0.60777 0.05921 0.0
C1267 C 0.13101 0.65914 0.0187 0.0
N1268 N 0.17069 0.64193 0.07822 0.0
N1269 N 0.07483 0.62049 0.9959 0.0
H1270 H 0.16396 0.71004 1.0024 0.0
H1271 H 0.12153 0.68682 0.98777 0.0
H1272 H 0.04997 0.59751 0.99435 0.0
H1273 H 0.08102 0.63679 0.97942 0.0
H1274 H 0.16682 0.62226 0.09163 0.0
H1275 H 0.19619 0.66441 0.07962 0.0
H1276 H 0.11163 0.59222 0.09902 0.0
H1277 H 0.0731 0.56369 0.08131 0.0
C1278 C 0.3954 0.5231 0.0389 0.0
C1279 C 0.36257 0.49354 0.03006 0.0
C1280 C 0.39506 0.46081 0.02325 0.0
C1281 C 0.42855 0.49158 0.02933 0.0
N1282 N 0.45722 0.54616 0.05368 0.0
N1283 N 0.33147 0.43511 0.01168 0.0
C1284 C 0.42791 0.52132 0.03995 0.0
C1285 C 0.36234 0.46236 0.02216 0.0
N1286 N 0.39558 0.55325 0.04611 0.0
N1287 N 0.39448 0.42981 0.01871 0.0
H1288 H 0.30703 0.4351 0.01057 0.0
H1289 H 0.33052 0.41351 1.00233 0.0
H1290 H 0.41798 0.42817 0.01727 0.0
H1291 H 0.37083 0.40549 0.0177 0.0
H1292 H 0.41919 0.57738 0.04852 0.0
H1293 H 0.37195 0.55457 0.04851 0.0
H1294 H 0.45738 0.56655 0.06433 0.0
H1295 H 0.48034 0.54438 0.05701 0.0
C1296 C 0.52868 0.87262 0.0244 0.0
C1297 C 0.51055 0.85518 0.0481 0.0
C1298 C 0.49673 0.90187 0.05747 0.0
C1299 C 0.51644 0.92054 0.03447 0.0
N1300 N 0.55895 0.92777 1.00011 0.0
N1301 N 0.48725 0.8584 0.09088 0.0
C1302 C 0.53489 0.90717 0.01917 0.0
C1303 C 0.49818 0.87177 0.06593 0.0
N1304 N 0.53855 0.85571 0.00637 0.0
N1305 N 0.47394 0.91069 0.07 0.0
H1306 H 0.48799 0.83626 0.09767 0.0
H1307 H 0.4812 0.8714 0.10556 0.0
H1308 H 0.46905 0.93032 0.06321 0.0
H1309 H 0.45637 0.89562 0.08517 0.0
H1310 H 0.54797 0.86552 0.98741 0.0
H1311 H 0.53495 0.83068 0.00971 0.0
H1312 H 0.57552 0.92063 0.98982 0.0
H1313 H 0.56481 0.9535 0.99645 0.0
C1314 C 0.03282 0.20856 0.38096 0.0
C1315 C 1.00009 0.20952 0.38196 0.0
C1316 C 0.0331 0.27126 0.36808 0.0
C1317 C 0.06562 0.26965 0.36456 0.0
N1318 N 0.09103 0.23123 0.36051 0.0
N1319 N 0.96745 0.23882 0.36898 0.0
C1320 C 0.06374 0.23656 0.36856 0.0
C1321 C 0.9997 0.23987 0.37293 0.0
N1322 N 0.03534 0.18201 0.3932 0.0
N1323 N 0.03403 0.30284 0.36833 0.0
H1324 H 0.94251 0.21612 0.37214 0.0
H1325 H 0.96558 0.25927 0.35996 0.0
H1326 H 0.05763 0.32688 0.36594 0.0
H1327 H 0.01177 0.30539 0.37358 0.0
H1328 H 0.05984 0.18233 0.39552 0.0
H1329 H 0.01397 0.16161 0.40353 0.0
H1330 H 0.08929 0.20665 0.36064 0.0
H1331 H 0.11313 0.25024 0.35047 0.0
C1332 C 0.81035 0.82387 0.38346 0.0
C1333 C 0.80777 0.79034 0.38275 0.0
C1334 C 0.74351 0.76397 0.37066 0.0
C1335 C 0.74649 0.79787 0.36866 0.0
N1336 N 0.78699 0.86096 0.3688 0.0
N1337 N 0.77441 0.73024 0.36803 0.0
C1338 C 0.78129 0.82806 0.37341 0.0
C1339 C 0.77517 0.76104 0.37381 0.0
N1340 N 0.83942 0.85146 0.39543 0.0
N1341 N 0.71031 0.73414 0.37059 0.0
H1342 H 0.79724 0.72738 0.36963 0.0
H1343 H 0.75238 0.70906 0.35891 0.0
H1344 H 0.68613 0.73436 0.36895 0.0
H1345 H 0.70665 0.70929 0.3748 0.0
H1346 H 0.84071 0.87536 0.39947 0.0
H1347 H 0.86075 0.84952 0.40374 0.0
H1348 H 0.81257 0.88341 0.36875 0.0
H1349 H 0.7667 0.86539 0.36239 0.0
C1350 C 0.19655 0.99587 0.36917 0.0
C1351 C 0.23042 0.02216 0.37911 0.0
C1352 C 0.25724 0.9872 0.3636 0.0
C1353 C 0.2234 0.96195 0.35227 0.0
N1354 N 0.16994 0.95809 0.33194 0.0
N1355 N 0.29544 0.04772 0.37757 0.0
C1356 C 0.19567 0.97092 0.35117 0.0
C1357 C 0.26164 0.01934 0.37398 0.0
N1358 N 0.16495 0.9939 0.3772 0.0
N1359 N 0.28558 0.98115 0.36388 0.0
H1360 H 0.29975 0.07228 0.3835 0.0
H1361 H 0.31909 0.04798 0.37185 0.0
H1362 H 0.28502 0.9608 0.35315 0.0
H1363 H 0.30899 0.99594 0.37502 0.0
H1364 H 0.13967 0.97396 0.37087 0.0
H1365 H 0.16382 0.00954 0.39232 0.0
H1366 H 0.1507 0.96606 0.3299 0.0
H1367 H 0.1715 0.94423 0.31598 0.0
C1368 C 0.53025 0.68652 0.31431 0.0
C1369 C 0.53545 0.65724 0.31113 0.0
C1370 C 0.59938 0.6943 0.32355 0.0
C1371 C 0.59358 0.7231 0.32864 0.0
N1372 N 0.54918 0.7418 0.33598 0.0
N1373 N 0.57284 0.63113 0.31826 0.0
C1374 C 0.55773 0.71772 0.32638 0.0
C1375 C 0.56949 0.66055 0.31722 0.0
N1376 N 0.49972 0.68539 0.30454 0.0
N1377 N 0.63335 0.69884 0.32529 0.0
H1378 H 0.55134 0.60593 0.31443 0.0
H1379 H 0.59581 0.63112 0.32533 0.0
H1380 H 0.6549 0.72167 0.33274 0.0
H1381 H 0.64036 0.68065 0.31836 0.0
H1382 H 0.49633 0.70732 0.30384 0.0
H1383 H 0.47943 0.66368 0.29455 0.0
H1384 H 0.52253 0.73638 0.3381 0.0
H1385 H 0.56784 0.76605 0.34377 0.0
C1386 C 0.31637 0.8451 0.30635 0.0
C1387 C 0.35034 0.8764 0.30891 0.0
C1388 C 0.31867 0.90897 0.31923 0.0
C1389 C 0.28468 0.87705 0.31976 0.0
N1390 N 0.25173 0.81924 0.30034 0.0
N1391 N 0.38425 0.93732 0.32141 0.0
C1392 C 0.28357 0.84609 0.30985 0.0
C1393 C 0.35154 0.90805 0.3165 0.0
N1394 N 0.31537 0.81418 0.3006 0.0
N1395 N 0.31949 0.94048 0.31866 0.0
H1396 H 0.40879 0.93761 0.3194 0.0
H1397 H 0.38684 0.96013 0.32987 0.0
H1398 H 0.29609 0.94221 0.31695 0.0
H1399 H 0.34309 0.96458 0.31605 0.0
H1400 H 0.29172 0.78982 0.30115 0.0
H1401 H 0.33863 0.8125 0.29724 0.0
H1402 H 0.24997 0.79848 0.28916 0.0
H1403 H 0.22721 0.81883 0.30187 0.0
C1404 C 0.15182 0.47196 0.31304 0.0
C1405 C 0.11547 0.46414 0.31029 0.0
C1406 C 0.09503 0.40266 0.32136 0.0
C1407 C 0.1313 0.4115 0.32768 0.0
N1408 N 0.19298 0.45891 0.33606 0.0
N1409 N 0.05216 0.42355 0.31803 0.0
C1410 C 0.15931 0.44741 0.32566 0.0
C1411 C 0.0869 0.42985 0.31605 0.0
N1412 N 0.17943 0.50256 0.30285 0.0
N1413 N 0.06799 0.36849 0.32077 0.0
H1414 H 0.0454 0.44317 0.31551 0.0
H1415 H 0.03074 0.39987 0.32494 0.0
H1416 H 0.07194 0.34796 0.32626 0.0
H1417 H 0.04228 0.36052 0.31317 0.0
H1418 H 0.20617 0.50791 0.30214 0.0
H1419 H 0.17505 0.52069 0.29244 0.0
H1420 H 0.21208 0.48557 0.33784 0.0
H1421 H 0.20139 0.44283 0.34486 0.0
C1422 C 0.28415 0.46671 0.31699 0.0
C1423 C 0.317 0.47253 0.3287 0.0
C1424 C 0.28857 0.40947 0.33899 0.0
C1425 C 0.25425 0.4048 0.33147 0.0
N1426 N 0.22347 0.42526 0.30246 0.0
N1427 N 0.3509 0.44995 0.35141 0.0
C1428 C 0.25312 0.43243 0.31742 0.0
C1429 C 0.31956 0.44391 0.33936 0.0
N1430 N 0.28243 0.49437 0.30595 0.0
N1431 N 0.29174 0.3808 0.34525 0.0
H1432 H 0.37414 0.47468 0.35209 0.0
H1433 H 0.35327 0.43101 0.36231 0.0
H1434 H 0.26945 0.35558 0.34681 0.0
H1435 H 0.31647 0.38168 0.34755 0.0
H1436 H 0.25833 0.49337 0.30062 0.0
H1437 H 0.30525 0.51904 0.30294 0.0
H1438 H 0.22295 0.44254 0.28853 0.0
H1439 H 0.19967 0.40115 0.30275 0.0
C1440 C 0.54862 0.82242 0.3139 0.0
C1441 C 0.54383 0.84926 0.32568 0.0
C1442 C 0.6089 0.8819 0.3366 0.0
C1443 C 0.61218 0.85232 0.32901 0.0
N1444 N 0.58995 0.80288 0.2992 0.0
N1445 N 0.56935 0.9053 0.34763 0.0
C1446 C 0.58337 0.82495 0.31436 0.0
C1447 C 0.57419 0.87965 0.33625 0.0
N1448 N 0.51948 0.79394 0.30279 0.0
N1449 N 0.63913 0.91234 0.34397 0.0
H1450 H 0.54463 0.90481 0.34739 0.0
H1451 H 0.58915 0.92615 0.35855 0.0
H1452 H 0.6642 0.91403 0.34645 0.0
H1453 H 0.63982 0.93622 0.34651 0.0
H1454 H 0.5196 0.77128 0.29686 0.0
H1455 H 0.49444 0.79248 0.30028 0.0
H1456 H 0.57167 0.78521 0.28551 0.0
H1457 H 0.61488 0.80391 0.29874 0.0
C1458 C 0.19652 0.71053 0.33243 0.0
C1459 C 0.16286 0.68024 0.33786 0.0
C1460 C 0.13524 0.71762 0.34133 0.0
C1461 C 0.17031 0.74818 0.34049 0.0
N1462 N 0.23542 0.77104 0.34344 0.0
N1463 N 0.10035 0.65509 0.35105 0.0
C1464 C 0.2013 0.74398 0.33841 0.0
C1465 C 0.13201 0.68365 0.34298 0.0
N1466 N 0.22417 0.7074 0.32153 0.0
N1467 N 0.10509 0.72091 0.34149 0.0
H1468 H 0.09716 0.63002 0.35295 0.0
H1469 H 0.07818 0.65676 0.35792 0.0
H1470 H 0.10657 0.7452 0.34233 0.0
H1471 H 0.07894 0.69974 0.33915 0.0
H1472 H 0.24843 0.72909 0.31536 0.0
H1473 H 0.2212 0.68317 0.31598 0.0
H1474 H 0.25765 0.76728 0.34528 0.0
H1475 H 0.24151 0.79647 0.34801 0.0
C1476 C 0.80053 0.98991 0.35206 0.0
C1477 C 0.82123 0.99382 0.3751 0.0
C1478 C 0.7755 0.93526 0.39053 0.0
C1479 C 0.75473 0.93096 0.36726 0.0
N1480 N 0.74289 0.95741 0.3295 0.0
N1481 N 0.82424 0.97534 0.41947 0.0
C1482 C 0.76576 0.95947 0.34926 0.0
C1483 C 0.80704 0.96825 0.3955 0.0
N1484 N 0.81493 0.01441 0.33224 0.0
N1485 N 0.76714 0.90716 0.40668 0.0
H1486 H 0.84769 0.99918 0.42344 0.0
H1487 H 0.81341 0.9592 0.43605 0.0
H1488 H 0.74536 0.88211 0.40329 0.0
H1489 H 0.78375 0.90776 0.42206 0.0
H1490 H 0.80336 0.01089 0.3135 0.0
H1491 H 0.8397 0.03768 0.33409 0.0
H1492 H 0.7476 0.97854 0.3174 0.0
H1493 H 0.71777 0.93507 0.32645 0.0
C1494 C 0.03555 0.80074 0.3842 0.0
C1495 C 0.03185 0.82941 0.37465 0.0
C1496 C 0.0958 0.85934 0.36208 0.0
C1497 C 0.09869 0.82916 0.3673 0.0
N1498 N 0.06754 0.76803 0.38078 0.0
N1499 N 0.05694 0.88044 0.34597 0.0
C1500 C 0.0672 0.79871 0.37728 0.0
C1501 C 0.06124 0.85632 0.36023 0.0
N1502 N 0.01082 0.77702 0.40159 0.0
N1503 N 0.12542 0.89191 0.36325 0.0
H1504 H 0.03162 0.87835 0.34331 0.0
H1505 H 0.07803 0.90007 0.33481 0.0
H1506 H 0.15035 0.89596 0.36977 0.0
H1507 H 0.12276 0.91426 0.36326 0.0
H1508 H 0.01443 0.75796 0.41124 0.0
H1509 H 0.98857 0.77846 0.40851 0.0
H1510 H 0.04429 0.74426 0.38523 0.0
H1511 H 0.09037 0.7658 0.37724 0.0
C1512 C 0.21077 0.21871 0.35381 0.0
C1513 C 0.19111 0.19737 0.37567 0.0
C1514 C 0.173 0.23996 0.38879 0.0
C1515 C 0.19276 0.26164 0.3669 0.0
N1516 N 0.23803 0.27619 0.33308 0.0
N1517 N 0.16311 0.19209 0.41813 0.0
C1518 C 0.21424 0.2525 0.35092 0.0
C1519 C 0.17581 0.20979 0.39471 0.0
N1520 N 0.22442 0.20595 0.33509 0.0
N1521 N 0.14892 0.24605 0.40241 0.0
H1522 H 0.16455 0.1696 0.42275 0.0
H1523 H 0.15466 0.20167 0.43386 0.0
H1524 H 0.14367 0.26613 0.39759 0.0
H1525 H 0.13108 0.22884 0.4166 0.0
H1526 H 0.2349 0.21838 0.31698 0.0
H1527 H 0.22338 0.18177 0.33704 0.0
H1528 H 0.25696 0.27246 0.32264 0.0
H1529 H 0.24064 0.30088 0.33028 0.0
C1530 C 0.69862 0.54979 0.7165 0.0
C1531 C 0.66677 0.55214 0.71594 0.0
C1532 C 0.70274 0.61398 0.70245 0.0
C1533 C 0.73448 0.61071 0.70003 0.0
N1534 N 0.75728 0.56982 0.69808 0.0
N1535 N 0.63696 0.58418 0.70324 0.0
C1536 C 0.73079 0.57692 0.70492 0.0
C1537 C 0.66833 0.58351 0.70723 0.0
N1538 N 0.69879 0.52219 0.72908 0.0
N1539 N 0.70527 0.64624 0.70111 0.0
H1540 H 0.61145 0.56244 0.70688 0.0
H1541 H 0.63617 0.60512 0.69409 0.0
H1542 H 0.72933 0.66942 0.69743 0.0
H1543 H 0.68387 0.6504 0.70582 0.0
H1544 H 0.72251 0.52154 0.7329 0.0
H1545 H 0.67598 0.50178 0.73821 0.0
H1546 H 0.75423 0.54472 0.69882 0.0
H1547 H 0.77997 0.58767 0.68807 0.0
C1548 C 0.43977 0.09665 0.7035 0.0
C1549 C 0.46922 0.12515 0.71665 0.0
C1550 C 0.43456 0.15621 0.71877 0.0
C1551 C 0.40626 0.12937 0.70334 0.0
N1552 N 0.37677 0.06853 0.68972 0.0
N1553 N 0.49665 0.18407 0.73407 0.0
C1554 C 0.40739 0.09791 0.69826 0.0
C1555 C 0.46716 0.15548 0.7234 0.0
N1556 N 0.44331 0.06886 0.69516 0.0
N1557 N 0.42889 0.18041 0.7317 0.0
H1558 H 0.52061 0.18434 0.73885 0.0
H1559 H 0.49833 0.20847 0.7363 0.0
H1560 H 0.40617 0.18292 0.72872 0.0
H1561 H 0.44586 0.19684 0.74656 0.0
H1562 H 0.42482 0.04908 0.68277 0.0
H1563 H 0.4664 0.06701 0.69893 0.0
H1564 H 0.37423 0.0437 0.68862 0.0
H1565 H 0.35274 0.06837 0.68537 0.0
C1566 C 0.90134 0.33174 0.74187 0.0
C1567 C 0.89189 0.35394 0.72748 0.0
C1568 C 0.86405 0.30693 0.69471 0.0
C1569 C 0.88146 0.28913 0.70566 0.0
N1570 N 0.93054 0.2979 0.73511 0.0
N1571 N 0.87569 0.36501 0.68369 0.0
C1572 C 0.90432 0.30534 0.72796 0.0
C1573 C 0.87701 0.34252 0.70173 0.0
N1574 N 0.90568 0.33403 0.76871 0.0
N1575 N 0.83317 0.28995 0.68009 0.0
H1576 H 0.88841 0.39209 0.68685 0.0
H1577 H 0.86589 0.35687 0.66449 0.0
H1578 H 0.81768 0.26269 0.67917 0.0
H1579 H 0.81987 0.30291 0.67306 0.0
H1580 H 0.91117 0.31676 0.77934 0.0
H1581 H 0.89878 0.34942 0.78035 0.0
H1582 H 0.94771 0.31015 0.75119 0.0
H1583 H 0.93928 0.28528 0.72216 0.0
C1584 C 0.20584 0.99965 0.66789 0.0
C1585 C 0.20543 0.98879 0.64127 0.0
C1586 C 0.26619 0.03982 0.63705 0.0
C1587 C 0.26217 0.05529 0.66083 0.0
N1588 N 0.21435 0.05123 0.68994 0.0
N1589 N 0.23265 0.01106 0.59786 0.0
C1590 C 0.2282 0.03568 0.67417 0.0
C1591 C 0.23479 0.01253 0.62484 0.0
N1592 N 0.18585 0.97645 0.68734 0.0
N1593 N 0.29916 0.04882 0.62663 0.0
H1594 H 0.20844 0.99531 0.58787 0.0
H1595 H 0.25374 0.02933 0.58592 0.0
H1596 H 0.32277 0.06199 0.63766 0.0
H1597 H 0.3018 0.03718 0.60934 0.0
H1598 H 0.18685 0.98458 0.70695 0.0
H1599 H 0.17233 0.94928 0.6844 0.0
H1600 H 0.18889 0.03665 0.69879 0.0
H1601 H 0.22425 0.07821 0.68964 0.0
C1602 C 0.01825 0.24988 0.65851 0.0
C1603 C 0.01905 0.21987 0.64891 0.0
C1604 C 0.95514 0.183 0.66189 0.0
C1605 C 0.95227 0.21348 0.66713 0.0
N1606 N 0.9824 0.27686 0.67031 0.0
N1607 N 0.98658 0.1581 0.63822 0.0
C1608 C 0.98436 0.24718 0.66546 0.0
C1609 C 0.98707 0.1865 0.64984 0.0
N1610 N 0.05005 0.28081 0.66167 0.0
N1611 N 0.92815 0.15062 0.66924 0.0
H1612 H 0.00921 0.15937 0.62913 0.0
H1613 H 0.96289 0.13411 0.63541 0.0
H1614 H 0.90592 0.1473 0.67972 0.0
H1615 H 0.93025 0.12795 0.66835 0.0
H1616 H 0.05193 0.30271 0.67122 0.0
H1617 H 0.07519 0.28364 0.6568 0.0
H1618 H 1.00326 0.30216 0.66595 0.0
H1619 H 0.9592 0.27616 0.67778 0.0
C1620 C 0.77037 0.77609 0.64805 0.0
C1621 C 0.80086 0.80899 0.64146 0.0
C1622 C 0.84072 0.78709 0.65631 0.0
C1623 C 0.81044 0.75226 0.65874 0.0
N1624 N 0.74591 0.71363 0.65306 0.0
N1625 N 0.86516 0.84222 0.63271 0.0
C1626 C 0.77514 0.74672 0.65323 0.0
C1627 C 0.83607 0.81351 0.64374 0.0
N1628 N 0.73702 0.77315 0.65059 0.0
N1629 N 0.87402 0.79573 0.66611 0.0
H1630 H 0.86291 0.86122 0.62176 0.0
H1631 H 0.89093 0.84503 0.63185 0.0
H1632 H 0.88029 0.77798 0.67474 0.0
H1633 H 0.8951 0.82169 0.66753 0.0
H1634 H 0.71449 0.7507 0.65799 0.0
H1635 H 0.73272 0.79441 0.64806 0.0
H1636 H 0.72045 0.70788 0.64623 0.0
H1637 H 0.74776 0.69164 0.65783 0.0
C1638 C 0.95329 0.79607 0.64181 0.0
C1639 C 0.98623 0.80508 0.65498 0.0
C1640 C 0.95942 0.74408 0.67091 0.0
C1641 C 0.92455 0.73743 0.66296 0.0
N1642 N 0.89194 0.75187 0.63079 0.0
N1643 N 0.02131 0.78768 0.68199 0.0
C1644 C 0.92253 0.76197 0.64543 0.0
C1645 C 0.98971 0.77893 0.66913 0.0
N1646 N 0.9513 0.82074 0.62634 0.0
N1647 N 0.96403 0.71674 0.67877 0.0
H1648 H 0.04403 0.81277 0.68108 0.0
H1649 H 0.02423 0.7707 0.69491 0.0
H1650 H 0.94258 0.69096 0.68029 0.0
H1651 H 0.98937 0.7192 0.68188 0.0
H1652 H 0.92732 0.81827 0.61906 0.0
H1653 H 0.97406 0.84458 0.62115 0.0
H1654 H 0.89 0.76613 0.615 0.0
H1655 H 0.86842 0.72803 0.63352 0.0
C1656 C 0.20944 0.15441 0.65332 0.0
C1657 C 0.20719 0.18417 0.66199 0.0
C1658 C 0.27365 0.21768 0.66558 0.0
C1659 C 0.27516 0.18615 0.66254 0.0
N1660 N 0.24604 0.12685 0.64589 0.0
N1661 N 0.23732 0.24399 0.67782 0.0
C1662 C 0.24333 0.15501 0.6544 0.0
C1663 C 0.23939 0.21597 0.66809 0.0
N1664 N 0.17926 0.12626 0.64284 0.0
N1665 N 0.30498 0.24943 0.66575 0.0
H1666 H 0.21291 0.24374 0.68035 0.0
H1667 H 0.25952 0.26646 0.68545 0.0
H1668 H 0.33042 0.25181 0.66349 0.0
H1669 H 0.30557 0.27346 0.66539 0.0
H1670 H 0.17848 0.10401 0.63496 0.0
H1671 H 0.15487 0.12609 0.64024 0.0
H1672 H 0.22415 0.10175 0.6429 0.0
H1673 H 0.27077 0.12897 0.64097 0.0
C1674 C 0.8131 0.023 0.67675 0.0
C1675 C 0.83367 0.02161 0.65518 0.0
C1676 C 0.84805 0.08062 0.64106 0.0
C1677 C 0.82752 0.08226 0.66277 0.0
N1678 N 0.78264 0.05153 0.69656 0.0
N1679 N 0.86161 0.04393 0.61274 0.0
C1680 C 0.8074 0.05219 0.67904 0.0
C1681 C 0.84781 0.04866 0.63586 0.0
N1682 N 0.80062 0.99736 0.69579 0.0
N1683 N 0.87033 0.11021 0.62681 0.0
H1684 H 0.86209 0.02085 0.6086 0.0
H1685 H 0.86915 0.06126 0.59675 0.0
H1686 H 0.87305 0.13471 0.63059 0.0
H1687 H 0.88901 0.11136 0.61291 0.0
H1688 H 0.78952 0.99922 0.71371 0.0
H1689 H 0.80334 0.97506 0.69433 0.0
H1690 H 0.76453 0.02917 0.70715 0.0
H1691 H 0.77837 0.07276 0.69888 0.0
C1692 C 0.45619 0.3281 0.69686 0.0
C1693 C 0.49072 0.33146 0.70105 0.0
C1694 C 0.46341 0.26763 0.70092 0.0
C1695 C 0.42807 0.26346 0.69866 0.0
N1696 N 0.39098 0.29083 0.69946 0.0
N1697 N 0.52447 0.30448 0.71679 0.0
C1698 C 0.42448 0.29408 0.69866 0.0
C1699 C 0.49318 0.30117 0.70664 0.0
N1700 N 0.45369 0.3568 0.68949 0.0
N1701 N 0.46961 0.24053 0.69572 0.0
H1702 H 0.54674 0.32891 0.7215 0.0
H1703 H 0.52659 0.28294 0.72315 0.0
H1704 H 0.44961 0.21558 0.69005 0.0
H1705 H 0.49561 0.24396 0.69426 0.0
H1706 H 0.42968 0.35524 0.68311 0.0
H1707 H 0.47619 0.38195 0.68791 0.0
H1708 H 0.38671 0.31206 0.70205 0.0
H1709 H 0.36747 0.26651 0.69972 0.0
C1710 C 0.69427 0.13489 0.68987 0.0
C1711 C 0.69528 0.16635 0.69804 0.0
C1712 C 0.76066 0.19285 0.70762 0.0
C1713 C 0.76043 0.16272 0.69692 0.0
N1714 N 0.72501 0.10106 0.68628 0.0
N1715 N 0.72947 0.22577 0.71451 0.0
C1716 C 0.7265 0.13245 0.69089 0.0
C1717 C 0.72853 0.19541 0.70689 0.0
N1718 N 0.66318 0.10823 0.67913 0.0
N1719 N 0.79044 0.21732 0.72115 0.0
H1720 H 0.70616 0.22754 0.71733 0.0
H1721 H 0.75336 0.24966 0.71691 0.0
H1722 H 0.81321 0.21488 0.72434 0.0
H1723 H 0.79137 0.23807 0.73179 0.0
H1724 H 0.66176 0.08649 0.66967 0.0
H1725 H 0.63914 0.10894 0.67777 0.0
H1726 H 0.70098 0.07704 0.6854 0.0
H1727 H 0.74813 0.09885 0.68457 0.0
C1728 C 0.86808 0.54533 0.69899 0.0
C1729 C 0.84887 0.52723 0.72219 0.0
C1730 C 0.83399 0.57338 0.73113 0.0
C1731 C 0.85417 0.59231 0.70836 0.0
N1732 N 0.89904 0.60112 0.67557 0.0
N1733 N 0.82385 0.52954 0.76445 0.0
C1734 C 0.87402 0.57979 0.69386 0.0
C1735 C 0.83557 0.54335 0.73971 0.0
N1736 N 0.87905 0.52908 0.68119 0.0
N1737 N 0.81077 0.58191 0.74332 0.0
H1738 H 0.82476 0.50751 0.77129 0.0
H1739 H 0.81696 0.54209 0.77897 0.0
H1740 H 0.80626 0.60182 0.73664 0.0
H1741 H 0.79272 0.56656 0.75817 0.0
H1742 H 0.88936 0.53947 0.66251 0.0
H1743 H 0.87549 0.50404 0.68435 0.0
H1744 H 0.91655 0.59461 0.66593 0.0
H1745 H 0.90456 0.62678 0.67202 0.0
C1746 C 0.44761 0.93689 0.22806 0.0
C1747 C 0.43738 0.90164 0.23465 0.0
C1748 C 0.44173 0.88985 0.18758 0.0
C1749 C 0.44495 0.92271 0.18072 0.0
N1750 N 0.44727 0.9765 0.19474 0.0
N1751 N 0.421 0.84306 0.22011 0.0
C1752 C 0.44744 0.94625 0.20104 0.0
C1753 C 0.43393 0.87776 0.2143 0.0
N1754 N 0.45762 0.96146 0.24771 0.0
N1755 N 0.44607 0.87022 0.16845 0.0
H1756 H 0.41423 0.83283 0.23926 0.0
H1757 H 0.4141 0.82381 0.20563 0.0
H1758 H 0.45211 0.87864 0.14878 0.0
H1759 H 0.44734 0.84757 0.17258 0.0
H1760 H 0.46858 0.98825 0.24397 0.0
H1761 H 0.45841 0.95549 0.26766 0.0
H1762 H 0.44469 0.99244 0.20886 0.0
H1763 H 0.44674 0.98432 0.1753 0.0
C1764 C 0.05622 0.54704 0.24163 0.0
C1765 C 0.05753 0.51787 0.25281 0.0
C1766 C 0.01931 0.48109 0.21622 0.0
C1767 C 0.02485 0.51164 0.2026 0.0
N1768 N 0.05019 0.57462 0.20187 0.0
N1769 N 0.01605 0.45598 0.25933 0.0
C1770 C 0.04405 0.54495 0.21508 0.0
C1771 C 0.03222 0.48416 0.24257 0.0
N1772 N 0.05872 0.57317 0.25766 0.0
N1773 N 1.0018 0.44904 0.20403 0.0
H1774 H 0.02001 0.4589 0.27979 0.0
H1775 H 0.99501 0.43138 0.2536 0.0
H1776 H 0.99161 0.44564 0.18478 0.0
H1777 H 1.00031 0.42652 0.21226 0.0
H1778 H 0.05528 0.59377 0.25084 0.0
H1779 H 0.05727 0.57046 0.27827 0.0
H1780 H 0.06693 0.5998 0.2094 0.0
H1781 H 0.04105 0.57407 0.18257 0.0
C1782 C 0.48113 0.53184 0.2397 0.0
C1783 C 0.48272 0.56497 0.24072 0.0
C1784 C 0.50932 0.5789 0.19607 0.0
C1785 C 0.50627 0.54515 0.19461 0.0
N1786 N 0.47937 0.48604 0.21181 0.0
N1787 N 0.48822 0.61517 0.21699 0.0
C1788 C 0.48884 0.52047 0.2154 0.0
C1789 C 0.49342 0.58685 0.21787 0.0
N1790 N 0.47455 0.51213 0.2622 0.0
N1791 N 0.52924 0.60417 0.17765 0.0
H1792 H 0.47599 0.62124 0.23247 0.0
H1793 H 0.49252 0.63026 0.19996 0.0
H1794 H 0.54234 0.60001 0.16179 0.0
H1795 H 0.53552 0.63029 0.17947 0.0
H1796 H 0.47715 0.48974 0.26305 0.0
H1797 H 0.46964 0.51965 0.28063 0.0
H1798 H 0.46362 0.46626 0.22535 0.0
H1799 H 0.484 0.47672 0.19404 0.0
C1800 C 0.94036 0.4267 0.81714 0.0
C1801 C 0.95037 0.44922 0.79469 0.0
C1802 C 1.00341 0.49386 0.81887 0.0
C1803 C 0.99591 0.4693 0.83976 0.0
N1804 N 0.96108 0.40957 0.85595 0.0
N1805 N 0.99327 0.50288 0.7728 0.0
C1806 C 0.96541 0.43493 0.83813 0.0
C1807 C 0.98244 0.48252 0.79515 0.0
N1808 N 0.90639 0.39796 0.81883 0.0
N1809 N 0.02966 0.52823 0.82205 0.0
H1810 H 0.97817 0.49554 0.75532 0.0
H1811 H 0.01837 0.5257 0.77098 0.0
H1812 H 0.04508 0.53759 0.8393 0.0
H1813 H 0.03394 0.54804 0.80865 0.0
H1814 H 0.89654 0.3826 0.83589 0.0
H1815 H 0.88673 0.39159 0.80423 0.0
H1816 H 0.94132 0.38318 0.85394 0.0
H1817 H 0.97944 0.41404 0.87118 0.0
C1818 C 0.59807 0.50518 0.80951 0.0
C1819 C 0.57454 0.49241 0.78726 0.0
C1820 C 0.52473 0.48639 0.81528 0.0
C1821 C 0.54977 0.50566 0.83566 0.0
N1822 N 0.61186 0.5373 0.85084 0.0
N1823 N 0.516 0.47571 0.76817 0.0
C1824 C 0.58689 0.51583 0.8326 0.0
C1825 C 0.53783 0.4839 0.78995 0.0
N1826 N 0.63094 0.50678 0.80867 0.0
N1827 N 0.48836 0.47036 0.82018 0.0
H1828 H 0.52468 0.47505 0.74896 0.0
H1829 H 0.49026 0.47296 0.76883 0.0
H1830 H 0.47789 0.47111 0.83874 0.0
H1831 H 0.46891 0.45333 0.80676 0.0
H1832 H 0.64782 0.51295 0.82513 0.0
H1833 H 0.63956 0.49833 0.7923 0.0
H1834 H 0.6397 0.54854 0.84797 0.0
H1835 H 0.6051 0.54644 0.86775 0.0
C1836 C 0.51746 0.10041 0.80927 0.0
C1837 C 0.52749 0.08863 0.78621 0.0
C1838 C 0.52446 0.03972 0.81218 0.0
C1839 C 0.50813 0.04784 0.83356 0.0
N1840 N 0.48557 0.08442 0.85132 0.0
N1841 N 0.53664 0.04428 0.76499 0.0
C1842 C 0.50405 0.07806 0.83196 0.0
C1843 C 0.5304 0.05774 0.78753 0.0
N1844 N 0.5211 0.13319 0.80953 0.0
N1845 N 0.53458 0.0149 0.81557 0.0
H1846 H 0.54057 0.05616 0.74643 0.0
H1847 H 0.53486 0.01973 0.76427 0.0
H1848 H 0.53107 0.00161 0.83349 0.0
H1849 H 0.54971 0.01016 0.80163 0.0
H1850 H 0.51742 0.14459 0.8265 0.0
H1851 H 0.5314 0.15038 0.7934 0.0
H1852 H 0.47817 0.10369 0.84969 0.0
H1853 H 0.47498 0.06863 0.86811 0.0
C1854 C 0.12399 0.29698 0.57532 0.0
C1855 C 0.11457 0.26106 0.57741 0.0
C1856 C 0.13808 0.26434 0.53214 0.0
C1857 C 0.14408 0.29915 0.52928 0.0
N1858 N 0.13301 0.34446 0.54603 0.0
N1859 N 0.10493 0.20839 0.5551 0.0
C1860 C 0.13392 0.31412 0.55023 0.0
C1861 C 0.11931 0.24406 0.55499 0.0
N1862 N 0.12527 0.31545 0.59751 0.0
N1863 N 0.15167 0.25109 0.51378 0.0
H1864 H 0.09019 0.19255 0.57107 0.0
H1865 H 0.1045 0.19424 0.53837 0.0
H1866 H 0.16617 0.26517 0.49712 0.0
H1867 H 0.15138 0.22737 0.51637 0.0
H1868 H 0.13535 0.34253 0.59738 0.0
H1869 H 0.12012 0.3046 0.61652 0.0
H1870 H 0.12258 0.35474 0.55985 0.0
H1871 H 0.13892 0.35716 0.52767 0.0
C1872 C 0.72223 0.86357 0.57372 0.0
C1873 C 0.75181 0.85718 0.57331 0.0
C1874 C 0.73339 0.83075 0.52928 0.0
C1875 C 0.7061 0.84035 0.52858 0.0
N1876 N 0.68128 0.87444 0.54747 0.0
N1877 N 0.79122 0.84374 0.54757 0.0
C1878 C 0.7026 0.85946 0.54999 0.0
C1879 C 0.75921 0.84362 0.55007 0.0
N1880 N 0.71161 0.87183 0.59692 0.0
N1881 N 0.73371 0.80793 0.51097 0.0
H1882 H 0.81142 0.85418 0.56202 0.0
H1883 H 0.79922 0.83703 0.53 0.0
H1884 H 0.71425 0.79638 0.49612 0.0
H1885 H 0.75103 0.79761 0.51229 0.0
H1886 H 0.68798 0.87325 0.5986 0.0
H1887 H 0.72422 0.87376 0.61505 0.0
H1888 H 0.68054 0.89137 0.56163 0.0
H1889 H 0.6674 0.873 0.53005 0.0
C1890 C 0.16921 0.92162 0.54961 0.0
C1891 C 0.15879 0.89721 0.57088 0.0
C1892 C 0.17115 0.85867 0.54283 0.0
C1893 C 0.18788 0.88608 0.52367 0.0
N1894 N 0.20729 0.94614 0.51095 0.0
N1895 N 0.1513 0.84293 0.58851 0.0
C1896 C 0.18777 0.91813 0.52745 0.0
C1897 C 0.1598 0.86561 0.56764 0.0
N1898 N 0.16111 0.94809 0.55057 0.0
N1899 N 0.16551 0.82587 0.53708 0.0
H1900 H 0.14216 0.8469 0.60668 0.0
H1901 H 0.15548 0.82146 0.58836 0.0
H1902 H 0.17278 0.81979 0.51891 0.0
H1903 H 0.15058 0.80404 0.54919 0.0
H1904 H 0.16505 0.96473 0.53459 0.0
H1905 H 0.14702 0.95106 0.56637 0.0
H1906 H 0.21127 0.97121 0.51463 0.0
H1907 H 0.22245 0.94541 0.49499 0.0
C1908 C 0.60503 0.76077 0.14571 0.0
C1909 C 0.61468 0.78259 0.12286 0.0
C1910 C 0.66875 0.82731 0.1459 0.0
C1911 C 0.66134 0.80361 0.16719 0.0
N1912 N 0.62668 0.7445 0.18447 0.0
N1913 N 0.65728 0.83531 0.09978 0.0
C1914 C 0.6306 0.76939 0.16635 0.0
C1915 C 0.647 0.81571 0.12252 0.0
N1916 N 0.571 0.73224 0.14801 0.0
N1917 N 0.69613 0.86104 0.14912 0.0
H1918 H 0.64138 0.82768 0.08268 0.0
H1919 H 0.68251 0.85771 0.09718 0.0
H1920 H 0.70245 0.88139 0.13567 0.0
H1921 H 0.70245 0.88139 0.13567 0.0
H1922 H 0.5615 0.71743 0.16535 0.0
H1923 H 0.55104 0.72556 0.13361 0.0
H1924 H 0.60655 0.71816 0.18311 0.0
H1925 H 0.64579 0.74923 0.19917 0.0
C1926 C 0.26014 0.84093 0.14313 0.0
C1927 C 0.23955 0.82468 0.11994 0.0
C1928 C 0.18402 0.80876 0.14477 0.0
C1929 C 0.20477 0.83003 0.16634 0.0
N1930 N 0.26374 0.87243 0.18342 0.0
N1931 N 0.18194 0.80109 0.09734 0.0
C1932 C 0.24323 0.84781 0.16488 0.0
C1933 C 0.20146 0.81081 0.12035 0.0
N1934 N 0.29539 0.84872 0.14486 0.0
N1935 N 0.14778 0.78584 0.14771 0.0
H1936 H 0.19382 0.80429 0.07869 0.0
H1937 H 0.1546 0.79372 0.09658 0.0
H1938 H 0.13425 0.78222 0.16571 0.0
H1939 H 0.13225 0.76767 0.13315 0.0
H1940 H 0.31046 0.85771 0.16227 0.0
H1941 H 0.30829 0.84263 0.12991 0.0
H1942 H 0.29174 0.88839 0.18171 0.0
H1943 H 0.25256 0.87948 0.19901 0.0
C1944 C 0.21708 0.43135 0.14127 0.0
C1945 C 0.19442 0.41711 0.11863 0.0
C1946 C 0.15415 0.36445 0.14462 0.0
C1947 C 0.17929 0.3762 0.16591 0.0
N1948 N 0.23853 0.41888 0.18221 0.0
N1949 N 0.14659 0.36554 0.09726 0.0
C1950 C 0.21187 0.4092 0.16367 0.0
C1951 C 0.16445 0.3823 0.1199 0.0
N1952 N 0.24273 0.4662 0.14186 0.0
N1953 N 0.11995 0.33666 0.14816 0.0
H1954 H 0.15477 0.37675 0.07848 0.0
H1955 H 0.12654 0.33909 0.09688 0.0
H1956 H 0.11078 0.32381 0.16634 0.0
H1957 H 0.09964 0.32909 0.13394 0.0
H1958 H 0.2575 0.47869 0.15883 0.0
H1959 H 0.24683 0.48333 0.12617 0.0
H1960 H 0.26418 0.44092 0.18008 0.0
H1961 H 0.23621 0.40321 0.19849 0.0
C1962 C 0.78196 0.61236 0.89938 0.0
C1963 C 0.77174 0.57709 0.90602 0.0
C1964 C 0.77651 0.56542 0.85896 0.0
C1965 C 0.78002 0.59836 0.852 0.0
N1966 N 0.78215 0.65208 0.86586 0.0
N1967 N 0.75443 0.51833 0.89127 0.0
C1968 C 0.78214 0.62179 0.87229 0.0
C1969 C 0.76812 0.5532 0.88561 0.0
N1970 N 0.79188 0.63696 0.91899 0.0
N1971 N 0.78115 0.54579 0.83998 0.0
H1972 H 0.74667 0.50785 0.91028 0.0
H1973 H 0.74758 0.4992 0.8767 0.0
H1974 H 0.78769 0.5543 0.82036 0.0
H1975 H 0.78222 0.52307 0.84425 0.0
H1976 H 0.80286 0.66374 0.9152 0.0
H1977 H 0.79256 0.63106 0.93897 0.0
H1978 H 0.77932 0.66798 0.87989 0.0
H1979 H 0.78207 0.65998 0.84638 0.0
C1980 C 0.43059 0.17678 0.88063 0.0
C1981 C 0.42566 0.19221 0.90386 0.0
C1982 C 0.37683 0.19647 0.88173 0.0
C1983 C 0.3778 0.17578 0.86046 0.0
N1984 N 0.40138 0.13996 0.84262 0.0
N1985 N 0.38847 0.2099 0.92834 0.0
C1986 C 0.40359 0.16422 0.86064 0.0
C1987 C 0.39727 0.2003 0.90494 0.0
N1988 N 0.46142 0.17487 0.87733 0.0
N1989 N 0.35719 0.21326 0.87957 0.0
H1990 H 0.40147 0.21141 0.94621 0.0
H1991 H 0.3657 0.21272 0.93053 0.0
H1992 H 0.34291 0.21219 0.86246 0.0
H1993 H 0.35836 0.23123 0.89361 0.0
H1994 H 0.46766 0.16666 0.85969 0.0
H1995 H 0.4825 0.18505 0.89109 0.0
H1996 H 0.41754 0.12832 0.84364 0.0
H1997 H 0.38098 0.12867 0.8284 0.0
C1998 C 0.83368 0.25546 0.88763 0.0
C1999 C 0.82409 0.23338 0.91039 0.0
C2000 C 0.83148 0.19025 0.88416 0.0
C2001 C 0.84688 0.21475 0.86318 0.0
N2002 N 0.86782 0.27351 0.84657 0.0
N2003 N 0.81931 0.18157 0.93136 0.0
C2004 C 0.84913 0.24809 0.86518 0.0
C2005 C 0.82395 0.20092 0.90891 0.0
N2006 N 0.82758 0.28324 0.88735 0.0
N2007 N 0.82413 0.15671 0.87962 0.0
H2008 H 0.81485 0.18887 0.95003 0.0
H2009 H 0.82342 0.16008 0.93199 0.0
H2010 H 0.81044 0.13588 0.89289 0.0
H2011 H 0.81044 0.13588 0.89289 0.0
H2012 H 0.83098 0.29834 0.87047 0.0
H2013 H 0.81551 0.28885 0.9032 0.0
H2014 H 0.8735 0.29942 0.84857 0.0
H2015 H 0.88068 0.2697 0.83037 0.0
C2016 C 0.30286 0.13886 0.45774 0.0
C2017 C 0.27143 0.10502 0.45651 0.0
C2018 C 0.28511 0.09093 0.50054 0.0
C2019 C 0.31502 0.12567 0.50253 0.0
N2020 N 0.34662 0.18525 0.48593 0.0
N2021 N 0.22783 0.05219 0.47917 0.0
C2022 C 0.32209 0.15046 0.48202 0.0
C2023 C 0.26102 0.08208 0.47872 0.0
N2024 N 0.31554 0.15927 0.43546 0.0
N2025 N 0.28061 0.0659 0.51873 0.0
H2026 H 0.20921 0.04529 0.46372 0.0
H2027 H 0.21739 0.0362 0.49588 0.0
H2028 H 0.29807 0.071 0.53471 0.0
H2029 H 0.2615 0.03934 0.51664 0.0
H2030 H 0.34049 0.18245 0.43469 0.0
H2031 H 0.30291 0.15157 0.41703 0.0
H2032 H 0.35018 0.20495 0.47265 0.0
H2033 H 0.36077 0.19484 0.50367 0.0
C2034 C 0.87181 0.15382 0.45701 0.0
C2035 C 0.90843 0.16178 0.45555 0.0
C2036 C 0.91932 0.1877 0.50009 0.0
C2037 C 0.88202 0.17721 0.50232 0.0
N2038 N 0.82122 0.14183 0.4856 0.0
N2039 N 0.96423 0.17768 0.47856 0.0
C2040 C 0.85776 0.15755 0.4816 0.0
C2041 C 0.93134 0.17606 0.478 0.0
N2042 N 0.85084 0.14443 0.43469 0.0
N2043 N 0.94365 0.21017 0.51824 0.0
H2044 H 0.97351 0.16843 0.4631 0.0
H2045 H 0.98049 0.18474 0.49542 0.0
H2046 H 0.93628 0.22013 0.53435 0.0
H2047 H 0.97159 0.22152 0.51591 0.0
H2048 H 0.82518 0.1419 0.43422 0.0
H2049 H 0.86032 0.14257 0.41603 0.0
H2050 H 0.80227 0.12445 0.47206 0.0
H2051 H 0.80992 0.1432 0.50362 0.0
C2052 C 0.86996 0.74997 0.47594 0.0
C2053 C 0.84756 0.7353 0.45323 0.0
C2054 C 0.80818 0.68266 0.47955 0.0
C2055 C 0.83411 0.69465 0.50039 0.0
N2056 N 0.89429 0.7376 0.51516 0.0
N2057 N 0.79884 0.68381 0.43234 0.0
C2058 C 0.8663 0.7278 0.49776 0.0
C2059 C 0.81754 0.70054 0.45473 0.0
N2060 N 0.89387 0.78528 0.47722 0.0
N2061 N 0.77419 0.65479 0.48362 0.0
H2062 H 0.80588 0.69515 0.41352 0.0
H2063 H 0.77887 0.65733 0.43214 0.0
H2064 H 0.76572 0.64207 0.50191 0.0
H2065 H 0.75339 0.64701 0.46979 0.0
H2066 H 0.90846 0.79752 0.49434 0.0
H2067 H 0.89598 0.80283 0.46241 0.0
H2068 H 0.91948 0.7601 0.51245 0.0
H2069 H 0.89381 0.72151 0.53056 0.0
loop_
_geom_bond_atom_site_label_1
_geom_bond_atom_site_label_2
_geom_bond_distance
_geom_bond_site_symmetry_2
_ccdc_geom_bond_type
H0 C1 0.949 . S
C1 H0 0.949 . S
C1 C2 1.395 . S
C1 C3 1.391 . S
C2 C1 1.395 . S
C2 C5 1.390 . S
C3 C1 1.391 . S
C3 C7 1.387 . S
C3 C8 1.491 . S
H4 C5 0.950 . S
C5 C2 1.390 . S
C5 H4 0.950 . S
C5 C6 1.378 . S
C6 C5 1.378 . S
C6 C7 1.409 . S
C7 C3 1.387 . S
C7 C6 1.409 . S
C7 H9 0.951 . S
C8 C3 1.491 . S
C8 C10 1.382 . S
C8 C12 1.404 . S
H9 C7 0.951 . S
C10 C8 1.382 . S
C10 C11 1.390 . S
C10 H15 0.949 . S
C11 C10 1.390 . S
C11 C16 1.399 . S
C12 C8 1.404 . S
C12 H13 0.950 . S
C12 C14 1.375 . S
H13 C12 0.950 . S
C14 C12 1.375 . S
C14 C16 1.382 . S
C14 H18 0.950 . S
H15 C10 0.949 . S
C16 C11 1.399 . S
C16 C14 1.382 . S
C16 H17 0.952 . S
H17 C16 0.952 . S
H18 C14 0.950 . S
H19 C20 0.949 . S
C20 H19 0.949 . S
C20 C21 1.395 . S
C20 C22 1.391 . S
C21 C20 1.395 . S
C21 C24 1.390 . S
C22 C20 1.391 . S
C22 C26 1.387 . S
C22 C27 1.491 . S
H23 C24 0.950 . S
C24 C21 1.390 . S
C24 H23 0.950 . S
C24 C25 1.378 . S
C25 C24 1.378 . S
C25 C26 1.409 . S
C26 C22 1.387 . S
C26 C25 1.409 . S
C26 H28 0.951 . S
C27 C22 1.491 . S
C27 C29 1.382 . S
C27 C31 1.404 . S
H28 C26 0.951 . S
C29 C27 1.382 . S
C29 C30 1.390 1_545 S
C29 H34 0.949 . S
C30 C29 1.390 1_565 S
C30 C35 1.399 . S
C31 C27 1.404 . S
C31 H32 0.950 . S
C31 C33 1.375 . S
H32 C31 0.950 . S
C33 C31 1.375 . S
C33 C35 1.382 1_545 S
C33 H37 0.950 . S
H34 C29 0.949 . S
C35 C30 1.399 . S
C35 C33 1.382 1_565 S
C35 H36 0.952 . S
H36 C35 0.952 . S
H37 C33 0.950 . S
H38 C39 0.949 . S
C39 H38 0.949 . S
C39 C40 1.395 . S
C39 C41 1.391 . S
C40 C39 1.395 . S
C40 C43 1.390 . S
C41 C39 1.391 . S
C41 C45 1.387 . S
C41 C46 1.491 . S
H42 C43 0.950 . S
C43 C40 1.390 . S
C43 H42 0.950 . S
C43 C44 1.378 . S
C44 C43 1.378 . S
C44 C45 1.409 . S
C45 C41 1.387 . S
C45 C44 1.409 . S
C45 H47 0.951 . S
C46 C41 1.491 . S
C46 C48 1.382 . S
C46 C50 1.404 . S
H47 C45 0.951 . S
C48 C46 1.382 . S
C48 C49 1.390 1_655 S
C48 H53 0.949 . S
C49 C48 1.390 1_455 S
C49 C54 1.399 . S
C50 C46 1.404 . S
C50 H51 0.950 . S
C50 C52 1.375 1_655 S
H51 C50 0.950 . S
C52 C50 1.375 1_455 S
C52 C54 1.382 . S
C52 H56 0.950 . S
H53 C48 0.949 . S
C54 C49 1.399 . S
C54 C52 1.382 . S
C54 H55 0.952 . S
H55 C54 0.952 . S
H56 C52 0.950 . S
H57 C58 0.949 . S
C58 H57 0.949 . S
C58 C59 1.395 . S
C58 C60 1.391 . S
C59 C58 1.395 . S
C59 C62 1.390 . S
C60 C58 1.391 . S
C60 C64 1.387 . S
C60 C65 1.491 . S
H61 C62 0.950 . S
C62 C59 1.390 . S
C62 H61 0.950 . S
C62 C63 1.378 . S
C63 C62 1.378 . S
C63 C64 1.409 . S
C64 C60 1.387 . S
C64 C63 1.409 . S
C64 H66 0.951 . S
C65 C60 1.491 . S
C65 C67 1.382 . S
C65 C69 1.404 . S
H66 C64 0.951 . S
C67 C65 1.382 . S
C67 C68 1.390 . S
C67 H72 0.949 . S
C68 C67 1.390 . S
C68 C73 1.399 . S
C69 C65 1.404 . S
C69 H70 0.950 . S
C69 C71 1.375 . S
H70 C69 0.950 . S
C71 C69 1.375 . S
C71 C73 1.382 . S
C71 H75 0.950 . S
H72 C67 0.949 . S
C73 C68 1.399 . S
C73 C71 1.382 . S
C73 H74 0.952 . S
H74 C73 0.952 . S
H75 C71 0.950 . S
H76 C77 0.949 . S
C77 H76 0.949 . S
C77 C78 1.395 . S
C77 C79 1.391 . S
C78 C77 1.395 . S
C78 C81 1.390 . S
C79 C77 1.391 . S
C79 C83 1.387 . S
C79 C84 1.491 . S
H80 C81 0.950 . S
C81 C78 1.390 . S
C81 H80 0.950 . S
C81 C82 1.378 . S
C82 C81 1.378 . S
C82 C83 1.409 . S
C83 C79 1.387 . S
C83 C82 1.409 . S
C83 H85 0.951 . S
C84 C79 1.491 . S
C84 C86 1.382 . S
C84 C88 1.404 . S
H85 C83 0.951 . S
C86 C84 1.382 . S
C86 C87 1.390 1_565 S
C86 H91 0.949 . S
C87 C86 1.390 1_545 S
C87 C92 1.399 . S
C88 C84 1.404 . S
C88 H89 0.950 . S
C88 C90 1.375 . S
H89 C88 0.950 . S
C90 C88 1.375 . S
C90 C92 1.382 1_565 S
C90 H94 0.950 1_565 S
H91 C86 0.949 . S
C92 C87 1.399 . S
C92 C90 1.382 1_545 S
C92 H93 0.952 . S
H93 C92 0.952 . S
H94 C90 0.950 1_545 S
H95 C96 0.949 . S
C96 H95 0.949 . S
C96 C97 1.395 . S
C96 C98 1.391 . S
C97 C96 1.395 . S
C97 C100 1.390 . S
C98 C96 1.391 . S
C98 C102 1.387 . S
C98 C103 1.491 . S
H99 C100 0.950 . S
C100 C97 1.390 . S
C100 H99 0.950 . S
C100 C101 1.378 . S
C101 C100 1.378 . S
C101 C102 1.409 . S
C102 C98 1.387 . S
C102 C101 1.409 . S
C102 H104 0.951 . S
C103 C98 1.491 . S
C103 C105 1.382 . S
C103 C107 1.404 . S
H104 C102 0.951 . S
C105 C103 1.382 . S
C105 C106 1.390 1_455 S
C105 H110 0.949 . S
C106 C105 1.390 1_655 S
C106 C111 1.399 . S
C107 C103 1.404 . S
C107 H108 0.950 . S
C107 C109 1.383 . S
H108 C107 0.950 . S
C109 C107 1.383 . S
C109 C111 1.381 1_455 S
C109 H113 0.943 1_455 S
H110 C105 0.949 . S
C111 C106 1.399 . S
C111 C109 1.381 1_655 S
C111 H112 0.952 . S
H112 C111 0.952 . S
H113 C109 0.943 1_655 S
H114 C115 0.949 . S
C115 H114 0.949 . S
C115 C116 1.395 . S
C115 C117 1.391 . S
C116 C115 1.395 . S
C116 C119 1.390 . S
C117 C115 1.391 . S
C117 C121 1.387 . S
C117 C122 1.491 . S
H118 C119 0.950 . S
C119 C116 1.390 . S
C119 H118 0.950 . S
C119 C120 1.378 . S
C120 C119 1.378 . S
C120 C121 1.409 . S
C121 C117 1.387 . S
C121 C120 1.409 . S
C121 H123 0.951 . S
C122 C117 1.491 . S
C122 C124 1.382 . S
C122 C126 1.404 . S
H123 C121 0.951 . S
C124 C122 1.382 . S
C124 C125 1.390 . S
C124 H129 0.949 . S
C125 C124 1.390 . S
C125 C130 1.399 . S
C126 C122 1.404 . S
C126 H127 0.950 . S
C126 C128 1.375 . S
H127 C126 0.950 . S
C128 C126 1.375 . S
C128 C130 1.382 . S
C128 H132 0.950 . S
H129 C124 0.949 . S
C130 C125 1.399 . S
C130 C128 1.382 . S
C130 H131 0.952 . S
H131 C130 0.952 . S
H132 C128 0.950 . S
H133 C134 0.949 . S
C134 H133 0.949 . S
C134 C135 1.395 . S
C134 C136 1.391 . S
C135 C134 1.395 . S
C135 C138 1.390 . S
C136 C134 1.391 . S
C136 C140 1.387 . S
C136 C141 1.491 . S
H137 C138 0.950 . S
C138 C135 1.390 . S
C138 H137 0.950 . S
C138 C139 1.378 . S
C139 C138 1.378 . S
C139 C140 1.409 . S
C140 C136 1.387 . S
C140 C139 1.409 . S
C140 H142 0.951 . S
C141 C136 1.491 . S
C141 C143 1.382 . S
C141 C145 1.404 . S
H142 C140 0.951 . S
C143 C141 1.382 . S
C143 C144 1.390 . S
C143 H148 0.949 . S
C144 C143 1.390 . S
C144 C149 1.399 . S
C145 C141 1.404 . S
C145 H146 0.950 . S
C145 C147 1.375 . S
H146 C145 0.950 . S
C147 C145 1.375 . S
C147 C149 1.382 . S
C147 H151 0.950 . S
H148 C143 0.949 . S
C149 C144 1.399 . S
C149 C147 1.382 . S
C149 H150 0.952 . S
H150 C149 0.952 . S
H151 C147 0.950 . S
H152 C153 0.949 . S
C153 H152 0.949 . S
C153 C154 1.395 . S
C153 C155 1.391 . S
C154 C153 1.395 . S
C154 C157 1.390 . S
C155 C153 1.391 . S
C155 C159 1.387 . S
C155 C160 1.491 . S
H156 C157 0.950 . S
C157 C154 1.390 . S
C157 H156 0.950 . S
C157 C158 1.378 . S
C158 C157 1.378 . S
C158 C159 1.409 . S
C159 C155 1.387 . S
C159 C158 1.409 . S
C159 H161 0.951 . S
C160 C155 1.491 . S
C160 C162 1.382 . S
C160 C164 1.404 . S
H161 C159 0.951 . S
C162 C160 1.382 . S
C162 C163 1.390 . S
C162 H167 0.949 . S
C163 C162 1.390 . S
C163 C168 1.399 . S
C164 C160 1.404 . S
C164 H165 0.950 . S
C164 C166 1.375 . S
H165 C164 0.950 . S
C166 C164 1.375 . S
C166 C168 1.382 . S
C166 H170 0.950 . S
H167 C162 0.949 . S
C168 C163 1.399 . S
C168 C166 1.382 . S
C168 H169 0.952 . S
H169 C168 0.952 . S
H170 C166 0.950 . S
H171 C172 0.949 . S
C172 H171 0.949 . S
C172 C173 1.395 . S
C172 C174 1.391 . S
C173 C172 1.395 . S
C173 C176 1.390 . S
C174 C172 1.391 . S
C174 C178 1.387 . S
C174 C179 1.491 . S
H175 C176 0.950 . S
C176 C173 1.390 . S
C176 H175 0.950 . S
C176 C177 1.378 . S
C177 C176 1.378 . S
C177 C178 1.409 . S
C178 C174 1.387 . S
C178 C177 1.409 . S
C178 H180 0.951 . S
C179 C174 1.491 . S
C179 C181 1.382 . S
C179 C183 1.404 . S
H180 C178 0.951 . S
C181 C179 1.382 . S
C181 C182 1.390 . S
C181 H186 0.949 . S
C182 C181 1.390 . S
C182 C187 1.399 . S
C183 C179 1.404 . S
C183 H184 0.950 . S
C183 C185 1.375 . S
H184 C183 0.950 . S
C185 C183 1.375 . S
C185 C187 1.382 . S
C185 H189 0.950 1_556 S
H186 C181 0.949 . S
C187 C182 1.399 . S
C187 C185 1.382 . S
C187 H188 0.952 1_556 S
H188 C187 0.952 1_554 S
H189 C185 0.950 1_554 S
H190 C191 0.949 . S
C191 H190 0.949 . S
C191 C192 1.395 . S
C191 C193 1.391 . S
C192 C191 1.395 . S
C192 C195 1.390 . S
C193 C191 1.391 . S
C193 C197 1.387 . S
C193 C198 1.491 . S
H194 C195 0.950 . S
C195 C192 1.390 . S
C195 H194 0.950 . S
C195 C196 1.378 . S
C196 C195 1.378 . S
C196 C197 1.409 . S
C197 C193 1.387 . S
C197 C196 1.409 . S
C197 H199 0.951 . S
C198 C193 1.491 . S
C198 C200 1.382 . S
C198 C202 1.404 . S
H199 C197 0.951 . S
C200 C198 1.382 . S
C200 C201 1.390 . S
C200 H205 0.949 . S
C201 C200 1.390 . S
C201 C206 1.399 1_556 S
C202 C198 1.404 . S
C202 H203 0.950 . S
C202 C204 1.375 1_556 S
H203 C202 0.950 . S
C204 C202 1.375 1_554 S
C204 C206 1.382 . S
C204 H208 0.950 . S
H205 C200 0.949 . S
C206 C201 1.399 1_554 S
C206 C204 1.382 . S
C206 H207 0.952 . S
H207 C206 0.952 . S
H208 C204 0.950 . S
H209 C210 0.949 . S
C210 H209 0.949 . S
C210 C211 1.395 . S
C210 C212 1.391 . S
C211 C210 1.395 . S
C211 C214 1.390 . S
C212 C210 1.391 . S
C212 C216 1.387 . S
C212 C217 1.491 . S
H213 C214 0.950 . S
C214 C211 1.390 . S
C214 H213 0.950 . S
C214 C215 1.378 . S
C215 C214 1.378 . S
C215 C216 1.409 . S
C216 C212 1.387 . S
C216 C215 1.409 . S
C216 H218 0.951 . S
C217 C212 1.491 . S
C217 C219 1.382 . S
C217 C221 1.404 . S
H218 C216 0.951 . S
C219 C217 1.382 . S
C219 C220 1.390 . S
C219 H224 0.949 . S
C220 C219 1.390 . S
C220 C225 1.393 1_556 S
C221 C217 1.404 . S
C221 H222 0.950 . S
C221 C223 1.375 1_556 S
H222 C221 0.950 . S
C223 C221 1.375 1_554 S
C223 C225 1.383 . S
C223 H227 0.950 . S
H224 C219 0.949 . S
C225 C220 1.393 1_554 S
C225 C223 1.383 . S
C225 H226 0.957 . S
H226 C225 0.957 . S
H227 C223 0.950 . S
H228 C229 0.949 . S
C229 H228 0.949 . S
C229 C230 1.395 . S
C229 C231 1.391 . S
C230 C229 1.395 . S
C230 C233 1.390 . S
C231 C229 1.391 . S
C231 C235 1.387 . S
C231 C236 1.491 . S
H232 C233 0.950 . S
C233 C230 1.390 . S
C233 H232 0.950 . S
C233 C234 1.378 . S
C234 C233 1.378 . S
C234 C235 1.409 . S
C235 C231 1.387 . S
C235 C234 1.409 . S
C235 H237 0.951 . S
C236 C231 1.491 . S
C236 C238 1.382 . S
C236 C240 1.404 . S
H237 C235 0.951 . S
C238 C236 1.382 . S
C238 C239 1.390 . S
C238 H243 0.949 . S
C239 C238 1.390 . S
C239 C244 1.399 . S
C240 C236 1.404 . S
C240 H241 0.950 . S
C240 C242 1.375 . S
H241 C240 0.950 . S
C242 C240 1.375 . S
C242 C244 1.382 . S
C242 H246 0.950 . S
H243 C238 0.949 . S
C244 C239 1.399 . S
C244 C242 1.382 . S
C244 H245 0.952 . S
H245 C244 0.952 . S
H246 C242 0.950 . S
H247 C248 0.949 . S
C248 H247 0.949 . S
C248 C249 1.395 . S
C248 C250 1.391 . S
C249 C248 1.395 . S
C249 C252 1.390 . S
C250 C248 1.391 . S
C250 C254 1.387 . S
C250 C255 1.491 . S
H251 C252 0.950 . S
C252 C249 1.390 . S
C252 H251 0.950 . S
C252 C253 1.378 . S
C253 C252 1.378 . S
C253 C254 1.409 . S
C254 C250 1.387 . S
C254 C253 1.409 . S
C254 H256 0.951 . S
C255 C250 1.491 . S
C255 C257 1.382 . S
C255 C259 1.404 . S
H256 C254 0.951 . S
C257 C255 1.382 . S
C257 C258 1.390 . S
C257 H262 0.949 . S
C258 C257 1.390 . S
C258 C263 1.399 . S
C259 C255 1.404 . S
C259 H260 0.950 . S
C259 C261 1.375 . S
H260 C259 0.950 . S
C261 C259 1.375 . S
C261 C263 1.382 . S
C261 H265 0.950 . S
H262 C257 0.949 . S
C263 C258 1.399 . S
C263 C261 1.382 . S
C263 H264 0.952 . S
H264 C263 0.952 . S
H265 C261 0.950 . S
H266 C267 0.949 . S
C267 H266 0.949 . S
C267 C268 1.395 . S
C267 C269 1.391 . S
C268 C267 1.395 . S
C268 C271 1.390 . S
C269 C267 1.391 . S
C269 C273 1.387 . S
C269 C274 1.491 . S
H270 C271 0.950 . S
C271 C268 1.390 . S
C271 H270 0.950 . S
C271 C272 1.378 . S
C272 C271 1.378 . S
C272 C273 1.409 . S
C273 C269 1.387 . S
C273 C272 1.409 . S
C273 H275 0.951 . S
C274 C269 1.491 . S
C274 C276 1.382 . S
C274 C278 1.404 . S
H275 C273 0.951 . S
C276 C274 1.382 . S
C276 C277 1.390 . S
C276 H281 0.949 . S
C277 C276 1.390 . S
C277 C282 1.399 . S
C278 C274 1.404 . S
C278 H279 0.950 . S
C278 C280 1.375 . S
H279 C278 0.950 . S
C280 C278 1.375 . S
C280 C282 1.382 . S
C280 H284 0.950 . S
H281 C276 0.949 . S
C282 C277 1.399 . S
C282 C280 1.382 . S
C282 H283 0.952 . S
H283 C282 0.952 . S
H284 C280 0.950 . S
H285 C286 0.949 . S
C286 H285 0.949 . S
C286 C287 1.395 . S
C286 C288 1.391 . S
C287 C286 1.395 . S
C287 C290 1.390 . S
C288 C286 1.391 . S
C288 C292 1.387 . S
C288 C293 1.491 . S
H289 C290 0.950 . S
C290 C287 1.390 . S
C290 H289 0.950 . S
C290 C291 1.378 . S
C291 C290 1.378 . S
C291 C292 1.409 . S
C292 C288 1.387 . S
C292 C291 1.409 . S
C292 H294 0.951 . S
C293 C288 1.491 . S
C293 C295 1.382 . S
C293 C297 1.404 . S
H294 C292 0.951 . S
C295 C293 1.382 . S
C295 C296 1.390 . S
C295 H300 0.949 . S
C296 C295 1.390 . S
C296 C301 1.399 . S
C297 C293 1.404 . S
C297 H298 0.950 . S
C297 C299 1.375 . S
H298 C297 0.950 . S
C299 C297 1.375 . S
C299 C301 1.382 . S
C299 H303 0.950 . S
H300 C295 0.949 . S
C301 C296 1.399 . S
C301 C299 1.382 . S
C301 H302 0.952 . S
H302 C301 0.952 . S
H303 C299 0.950 . S
H304 C305 0.949 . S
C305 H304 0.949 . S
C305 C306 1.395 . S
C305 C307 1.391 . S
C306 C305 1.395 . S
C306 C309 1.390 . S
C307 C305 1.391 . S
C307 C311 1.387 . S
C307 C312 1.491 . S
H308 C309 0.950 . S
C309 C306 1.390 . S
C309 H308 0.950 . S
C309 C310 1.378 . S
C310 C309 1.378 . S
C310 C311 1.409 . S
C311 C307 1.387 . S
C311 C310 1.409 . S
C311 H313 0.951 . S
C312 C307 1.491 . S
C312 C314 1.382 . S
C312 C316 1.404 . S
H313 C311 0.951 . S
C314 C312 1.382 . S
C314 C315 1.390 . S
C314 H319 0.949 . S
C315 C314 1.390 . S
C315 C320 1.399 . S
C316 C312 1.404 . S
C316 H317 0.950 . S
C316 C318 1.375 . S
H317 C316 0.950 . S
C318 C316 1.375 . S
C318 C320 1.382 . S
C318 H322 0.950 . S
H319 C314 0.949 . S
C320 C315 1.399 . S
C320 C318 1.382 . S
C320 H321 0.952 . S
H321 C320 0.952 . S
H322 C318 0.950 . S
H323 C324 0.949 . S
C324 H323 0.949 . S
C324 C325 1.395 . S
C324 C326 1.391 . S
C325 C324 1.395 . S
C325 C328 1.390 . S
C326 C324 1.391 . S
C326 C330 1.387 . S
C326 C331 1.491 . S
H327 C328 0.950 . S
C328 C325 1.390 . S
C328 H327 0.950 . S
C328 C329 1.378 . S
C329 C328 1.378 . S
C329 C330 1.409 . S
C330 C326 1.387 . S
C330 C329 1.409 . S
C330 H332 0.951 . S
C331 C326 1.491 . S
C331 C333 1.382 . S
C331 C335 1.404 . S
H332 C330 0.951 . S
C333 C331 1.382 . S
C333 C334 1.390 . S
C333 H338 0.949 . S
C334 C333 1.390 . S
C334 C339 1.399 . S
C335 C331 1.404 . S
C335 H336 0.950 . S
C335 C337 1.375 . S
H336 C335 0.950 . S
C337 C335 1.375 . S
C337 C339 1.382 . S
C337 H341 0.950 . S
H338 C333 0.949 . S
C339 C334 1.399 . S
C339 C337 1.382 . S
C339 H340 0.952 . S
H340 C339 0.952 . S
H341 C337 0.950 . S
Gd342 N373 2.661 . S
Gd342 N379 2.601 . S
Gd342 O386 2.545 . S
Gd342 O387 2.606 1_545 S
Gd342 O389 2.429 . S
Gd342 O390 2.545 1_545 S
Gd342 O391 2.412 1_545 S
Gd342 O393 2.362 . S
Gd342 O394 2.324 1_545 S
Gd342 C401 2.828 1_545 S
Gd343 N352 2.661 . S
Gd343 N356 2.601 . S
Gd343 O387 2.362 1_556 S
Gd343 O388 2.324 1_565 S
Gd343 O392 2.545 . S
Gd343 O393 2.606 1_566 S
Gd343 O395 2.429 . S
Gd343 O396 2.545 1_565 S
Gd343 O397 2.412 1_565 S
Gd343 C410 2.828 1_565 S
C344 C347 1.417 . S
C344 C349 1.431 . S
C344 C350 1.412 . S
C345 C348 1.437 . S
C345 C349 1.317 . S
C345 H364 0.929 . S
C346 C347 1.426 . S
C346 C348 1.413 . S
C346 N356 1.359 . S
C347 C344 1.417 . S
C347 C346 1.426 . S
C347 N352 1.350 . S
C348 C345 1.437 . S
C348 C346 1.413 . S
C348 C358 1.391 . S
C349 C344 1.431 . S
C349 C345 1.317 . S
C349 H360 0.930 . S
C350 C344 1.412 . S
C350 C351 1.355 . S
C350 H362 0.930 . S
C351 C350 1.355 . S
C351 C353 1.402 . S
C351 H363 0.930 . S
N352 Gd343 2.661 . S
N352 C347 1.350 . S
N352 C353 1.307 . S
C353 C351 1.402 . S
C353 N352 1.307 . S
C353 H354 0.930 . S
H354 C353 0.930 . S
C355 N356 1.334 . S
C355 C357 1.394 . S
C355 H359 0.930 . S
N356 Gd343 2.601 . S
N356 C346 1.359 . S
N356 C355 1.334 . S
C357 C355 1.394 . S
C357 C358 1.359 . S
C357 H369 0.930 . S
C358 C348 1.391 . S
C358 C357 1.359 . S
C358 H370 0.929 . S
H359 C355 0.930 . S
H360 C349 0.930 . S
H361 C378 0.930 . S
H362 C350 0.930 . S
H363 C351 0.930 . S
H364 C345 0.929 . S
H365 C383 0.930 . S
H366 C374 0.930 . S
H367 C375 0.930 . S
H368 C399 0.929 . S
H369 C357 0.930 . S
H370 C358 0.929 . S
H371 C400 0.930 . S
H372 C381 0.930 . S
N373 Gd342 2.661 . S
N373 C377 1.350 . S
N373 C378 1.307 . S
C374 H366 0.930 . S
C374 C375 1.355 . S
C374 C376 1.412 . S
C375 H367 0.930 . S
C375 C374 1.355 . S
C375 C378 1.402 . S
C376 C374 1.412 . S
C376 C377 1.417 . S
C376 C400 1.431 . S
C377 N373 1.350 . S
C377 C376 1.417 . S
C377 C380 1.426 . S
C378 H361 0.930 . S
C378 N373 1.307 . S
C378 C375 1.402 . S
N379 Gd342 2.601 . S
N379 C380 1.359 . S
N379 C383 1.334 . S
C380 C377 1.426 . S
C380 N379 1.359 . S
C380 C384 1.413 . S
C381 H372 0.930 . S
C381 C382 1.359 . S
C381 C383 1.394 . S
C382 C381 1.359 . S
C382 C384 1.391 . S
C382 H385 0.929 . S
C383 H365 0.930 . S
C383 N379 1.334 . S
C383 C381 1.394 . S
C384 C380 1.413 . S
C384 C382 1.391 . S
C384 C399 1.437 . S
H385 C382 0.929 . S
O386 Gd342 2.545 . S
O386 C401 1.256 1_545 S
O387 Gd342 2.606 1_565 S
O387 Gd343 2.362 1_554 S
O387 C398 1.284 . S
O388 Gd343 2.324 1_545 S
O388 C408 1.254 1_556 S
O389 Gd342 2.429 . S
O389 C408 1.268 . S
O390 Gd342 2.545 1_565 S
O390 C398 1.250 . S
O391 Gd342 2.412 1_565 S
O391 C401 1.253 . S
O392 Gd343 2.545 . S
O392 C410 1.258 1_565 S
O393 Gd342 2.362 . S
O393 Gd343 2.606 1_544 S
O393 C409 1.284 1_554 S
O394 Gd342 2.324 1_565 S
O394 C417 1.254 . S
O395 Gd343 2.429 . S
O395 C417 1.268 1_556 S
O396 Gd343 2.545 1_545 S
O396 C409 1.250 . S
O397 Gd343 2.412 1_545 S
O397 C410 1.252 . S
C398 O387 1.284 . S
C398 O390 1.250 . S
C399 H368 0.929 . S
C399 C384 1.437 . S
C399 C400 1.317 . S
C400 H371 0.930 . S
C400 C376 1.431 . S
C400 C399 1.317 . S
C401 Gd342 2.828 1_565 S
C401 O386 1.256 1_565 S
C401 O391 1.253 . S
C401 C402 1.497 . S
C402 C401 1.497 . S
C402 C403 1.395 1_565 S
C402 C404 1.380 . S
C403 C402 1.395 1_545 S
C403 C406 1.398 1_545 S
C403 H418 0.930 . S
C404 C402 1.380 . S
C404 C405 1.391 . S
C404 H419 0.930 . S
C405 C404 1.391 . S
C405 C407 1.387 . S
C406 C403 1.398 1_565 S
C406 C407 1.380 . S
C406 H420 0.930 1_565 S
C407 C405 1.387 . S
C407 C406 1.380 . S
C407 H421 0.930 . S
C408 O388 1.254 1_554 S
C408 O389 1.268 . S
C409 O393 1.284 1_556 S
C409 O396 1.250 . S
C410 Gd343 2.828 1_545 S
C410 O392 1.258 1_545 S
C410 O397 1.252 . S
C410 C411 1.497 . S
C411 C410 1.497 . S
C411 C412 1.395 1_545 S
C411 C413 1.380 . S
C412 C411 1.395 1_565 S
C412 C415 1.398 1_565 S
C412 H422 0.930 . S
C413 C411 1.380 . S
C413 C414 1.391 . S
C413 H423 0.930 . S
C414 C413 1.391 . S
C414 C416 1.387 . S
C415 C412 1.398 1_545 S
C415 C416 1.380 . S
C415 H424 0.930 1_545 S
C416 C414 1.387 . S
C416 C415 1.380 . S
C416 H425 0.930 . S
C417 O394 1.254 . S
C417 O395 1.268 1_554 S
H418 C403 0.930 . S
H419 C404 0.930 . S
H420 C406 0.930 1_545 S
H421 C407 0.930 . S
H422 C412 0.930 . S
H423 C413 0.930 . S
H424 C415 0.930 1_565 S
H425 C416 0.930 . S
Gd426 N457 2.661 . S
Gd426 N463 2.601 . S
Gd426 O470 2.545 . S
Gd426 O471 2.606 1_655 S
Gd426 O473 2.429 . S
Gd426 O474 2.545 1_655 S
Gd426 O475 2.412 1_655 S
Gd426 O477 2.362 . S
Gd426 O478 2.324 1_655 S
Gd426 C485 2.828 1_655 S
Gd427 N436 2.661 . S
Gd427 N440 2.601 . S
Gd427 O471 2.362 1_556 S
Gd427 O472 2.324 1_455 S
Gd427 O476 2.545 . S
Gd427 O477 2.606 1_456 S
Gd427 O479 2.429 . S
Gd427 O480 2.545 1_455 S
Gd427 O481 2.412 1_455 S
Gd427 C494 2.828 . S
C428 C431 1.417 . S
C428 C433 1.431 . S
C428 C434 1.412 . S
C429 C432 1.437 . S
C429 C433 1.317 . S
C429 H448 0.929 . S
C430 C431 1.426 . S
C430 C432 1.413 . S
C430 N440 1.359 . S
C431 C428 1.417 . S
C431 C430 1.426 . S
C431 N436 1.350 . S
C432 C429 1.437 . S
C432 C430 1.413 . S
C432 C442 1.391 . S
C433 C428 1.431 . S
C433 C429 1.317 . S
C433 H444 0.930 . S
C434 C428 1.412 . S
C434 C435 1.355 . S
C434 H446 0.930 . S
C435 C434 1.355 . S
C435 C437 1.402 . S
C435 H447 0.930 . S
N436 Gd427 2.661 . S
N436 C431 1.350 . S
N436 C437 1.307 . S
C437 C435 1.402 . S
C437 N436 1.307 . S
C437 H438 0.930 . S
H438 C437 0.930 . S
C439 N440 1.334 . S
C439 C441 1.394 . S
C439 H443 0.930 . S
N440 Gd427 2.601 . S
N440 C430 1.359 . S
N440 C439 1.334 . S
C441 C439 1.394 . S
C441 C442 1.359 . S
C441 H453 0.930 . S
C442 C432 1.391 . S
C442 C441 1.359 . S
C442 H454 0.929 . S
H443 C439 0.930 . S
H444 C433 0.930 . S
H445 C462 0.930 . S
H446 C434 0.930 . S
H447 C435 0.930 . S
H448 C429 0.929 . S
H449 C467 0.930 . S
H450 C458 0.930 . S
H451 C459 0.930 . S
H452 C483 0.929 . S
H453 C441 0.930 . S
H454 C442 0.929 . S
H455 C484 0.930 . S
H456 C465 0.930 . S
N457 Gd426 2.661 . S
N457 C461 1.350 . S
N457 C462 1.307 . S
C458 H450 0.930 . S
C458 C459 1.355 . S
C458 C460 1.412 . S
C459 H451 0.930 . S
C459 C458 1.355 . S
C459 C462 1.402 . S
C460 C458 1.412 . S
C460 C461 1.417 . S
C460 C484 1.431 . S
C461 N457 1.350 . S
C461 C460 1.417 . S
C461 C464 1.426 . S
C462 H445 0.930 . S
C462 N457 1.307 . S
C462 C459 1.402 . S
N463 Gd426 2.601 . S
N463 C464 1.359 . S
N463 C467 1.334 . S
C464 C461 1.426 . S
C464 N463 1.359 . S
C464 C468 1.413 . S
C465 H456 0.930 . S
C465 C466 1.359 . S
C465 C467 1.394 . S
C466 C465 1.359 . S
C466 C468 1.391 . S
C466 H469 0.929 . S
C467 H449 0.930 . S
C467 N463 1.334 . S
C467 C465 1.394 . S
C468 C464 1.413 . S
C468 C466 1.391 . S
C468 C483 1.437 . S
H469 C466 0.929 . S
O470 Gd426 2.545 . S
O470 C485 1.258 1_655 S
O471 Gd426 2.606 1_455 S
O471 Gd427 2.362 1_554 S
O471 C482 1.284 . S
O472 Gd427 2.324 1_655 S
O472 C492 1.258 . S
O473 Gd426 2.429 . S
O473 C492 1.262 1_554 S
O474 Gd426 2.545 1_455 S
O474 C482 1.250 . S
O475 Gd426 2.412 1_455 S
O475 C485 1.252 . S
O476 Gd427 2.545 . S
O476 C494 1.258 . S
O477 Gd426 2.362 . S
O477 Gd427 2.606 1_654 S
O477 C493 1.284 1_554 S
O478 Gd426 2.324 1_455 S
O478 C501 1.254 . S
O479 Gd427 2.429 . S
O479 C501 1.268 1_556 S
O480 Gd427 2.545 1_655 S
O480 C493 1.250 . S
O481 Gd427 2.412 1_655 S
O481 C494 1.252 1_655 S
C482 O471 1.284 . S
C482 O474 1.250 . S
C483 H452 0.929 . S
C483 C468 1.437 . S
C483 C484 1.317 . S
C484 H455 0.930 . S
C484 C460 1.431 . S
C484 C483 1.317 . S
C485 Gd426 2.828 1_455 S
C485 O470 1.258 1_455 S
C485 O475 1.252 . S
C485 C486 1.497 . S
C486 C485 1.497 . S
C486 C487 1.395 1_455 S
C486 C488 1.380 . S
C487 C486 1.395 1_655 S
C487 C490 1.398 1_655 S
C487 H502 0.930 . S
C488 C486 1.380 . S
C488 C489 1.391 . S
C488 H503 0.930 . S
C489 C488 1.391 . S
C489 C491 1.387 . S
C490 C487 1.398 1_455 S
C490 C491 1.380 . S
C490 H504 0.930 1_455 S
C491 C489 1.387 . S
C491 C490 1.380 . S
C491 H505 0.930 . S
C492 O472 1.258 . S
C492 O473 1.262 1_556 S
C493 O477 1.284 1_556 S
C493 O480 1.250 . S
C494 Gd427 2.828 . S
C494 O476 1.258 . S
C494 O481 1.252 1_455 S
C494 C495 1.497 1_455 S
C495 C494 1.497 1_655 S
C495 C496 1.395 1_655 S
C495 C497 1.380 . S
C496 C495 1.395 1_455 S
C496 C499 1.398 . S
C496 H506 0.930 . S
C497 C495 1.380 . S
C497 C498 1.391 . S
C497 H507 0.930 . S
C498 C497 1.391 . S
C498 C500 1.387 . S
C499 C496 1.398 . S
C499 C500 1.380 1_455 S
C499 H508 0.930 . S
C500 C498 1.387 . S
C500 C499 1.380 1_655 S
C500 H509 0.930 . S
C501 O478 1.254 . S
C501 O479 1.268 1_554 S
H502 C487 0.930 . S
H503 C488 0.930 . S
H504 C490 0.930 1_655 S
H505 C491 0.930 . S
H506 C496 0.930 . S
H507 C497 0.930 . S
H508 C499 0.930 . S
H509 C500 0.930 . S
Gd510 N541 2.661 . S
Gd510 N547 2.601 . S
Gd510 O554 2.545 . S
Gd510 O555 2.606 1_556 S
Gd510 O557 2.429 . S
Gd510 O558 2.545 . S
Gd510 O559 2.412 . S
Gd510 O561 2.362 1_556 S
Gd510 O562 2.324 . S
Gd510 C569 2.828 . S
Gd511 N520 2.661 . S
Gd511 N524 2.601 . S
Gd511 O555 2.362 . S
Gd511 O556 2.324 . S
Gd511 O560 2.545 . S
Gd511 O561 2.606 . S
Gd511 O563 2.429 . S
Gd511 O564 2.545 . S
Gd511 O565 2.412 . S
Gd511 C578 2.828 . S
C512 C515 1.417 . S
C512 C517 1.431 . S
C512 C518 1.412 . S
C513 C516 1.437 . S
C513 C517 1.317 . S
C513 H532 0.929 . S
C514 C515 1.426 . S
C514 C516 1.413 . S
C514 N524 1.359 . S
C515 C512 1.417 . S
C515 C514 1.426 . S
C515 N520 1.350 . S
C516 C513 1.437 . S
C516 C514 1.413 . S
C516 C526 1.391 . S
C517 C512 1.431 . S
C517 C513 1.317 . S
C517 H528 0.930 . S
C518 C512 1.412 . S
C518 C519 1.355 . S
C518 H530 0.930 . S
C519 C518 1.355 . S
C519 C521 1.402 . S
C519 H531 0.930 . S
N520 Gd511 2.661 . S
N520 C515 1.350 . S
N520 C521 1.307 . S
C521 C519 1.402 . S
C521 N520 1.307 . S
C521 H522 0.930 . S
H522 C521 0.930 . S
C523 N524 1.334 . S
C523 C525 1.394 . S
C523 H527 0.930 . S
N524 Gd511 2.601 . S
N524 C514 1.359 . S
N524 C523 1.334 . S
C525 C523 1.394 . S
C525 C526 1.359 . S
C525 H537 0.930 . S
C526 C516 1.391 . S
C526 C525 1.359 . S
C526 H538 0.929 . S
H527 C523 0.930 . S
H528 C517 0.930 . S
H529 C546 0.930 . S
H530 C518 0.930 . S
H531 C519 0.930 . S
H532 C513 0.929 . S
H533 C551 0.930 . S
H534 C542 0.930 . S
H535 C543 0.930 . S
H536 C567 0.929 . S
H537 C525 0.930 . S
H538 C526 0.929 . S
H539 C568 0.930 . S
H540 C549 0.930 . S
N541 Gd510 2.661 . S
N541 C545 1.350 . S
N541 C546 1.307 . S
C542 H534 0.930 . S
C542 C543 1.355 . S
C542 C544 1.412 . S
C543 H535 0.930 . S
C543 C542 1.355 . S
C543 C546 1.402 . S
C544 C542 1.412 . S
C544 C545 1.417 . S
C544 C568 1.431 . S
C545 N541 1.350 . S
C545 C544 1.417 . S
C545 C548 1.426 . S
C546 H529 0.930 . S
C546 N541 1.307 . S
C546 C543 1.402 . S
N547 Gd510 2.601 . S
N547 C548 1.359 . S
N547 C551 1.334 . S
C548 C545 1.426 . S
C548 N547 1.359 . S
C548 C552 1.413 . S
C549 H540 0.930 . S
C549 C550 1.359 . S
C549 C551 1.394 . S
C550 C549 1.359 . S
C550 C552 1.391 . S
C550 H553 0.929 . S
C551 H533 0.930 . S
C551 N547 1.334 . S
C551 C549 1.394 . S
C552 C548 1.413 . S
C552 C550 1.391 . S
C552 C567 1.437 . S
H553 C550 0.929 . S
O554 Gd510 2.545 . S
O554 C569 1.258 . S
O555 Gd510 2.606 1_554 S
O555 Gd511 2.362 . S
O555 C566 1.284 1_554 S
O556 Gd511 2.324 . S
O556 C576 1.254 . S
O557 Gd510 2.429 . S
O557 C576 1.268 1_556 S
O558 Gd510 2.545 . S
O558 C566 1.250 . S
O559 Gd510 2.412 . S
O559 C569 1.252 . S
O560 Gd511 2.545 . S
O560 C578 1.258 . S
O561 Gd510 2.362 1_554 S
O561 Gd511 2.606 . S
O561 C577 1.284 . S
O562 Gd510 2.324 . S
O562 C585 1.254 1_556 S
O563 Gd511 2.429 . S
O563 C585 1.268 . S
O564 Gd511 2.545 . S
O564 C577 1.250 . S
O565 Gd511 2.412 . S
O565 C578 1.252 . S
C566 O555 1.284 1_556 S
C566 O558 1.250 . S
C567 H536 0.929 . S
C567 C552 1.437 . S
C567 C568 1.317 . S
C568 H539 0.930 . S
C568 C544 1.431 . S
C568 C567 1.317 . S
C569 Gd510 2.828 . S
C569 O554 1.258 . S
C569 O559 1.252 . S
C569 C570 1.497 . S
C570 C569 1.497 . S
C570 C571 1.395 . S
C570 C572 1.380 . S
C571 C570 1.395 . S
C571 C574 1.398 . S
C571 H586 0.930 . S
C572 C570 1.380 . S
C572 C573 1.391 . S
C572 H587 0.930 . S
C573 C572 1.391 . S
C573 C575 1.387 . S
C574 C571 1.398 . S
C574 C575 1.380 . S
C574 H588 0.930 . S
C575 C573 1.387 . S
C575 C574 1.380 . S
C575 H589 0.930 . S
C576 O556 1.254 . S
C576 O557 1.268 1_554 S
C577 O561 1.284 . S
C577 O564 1.250 . S
C578 Gd511 2.828 . S
C578 O560 1.258 . S
C578 O565 1.252 . S
C578 C579 1.497 . S
C579 C578 1.497 . S
C579 C580 1.395 . S
C579 C581 1.380 . S
C580 C579 1.395 . S
C580 C583 1.398 . S
C580 H590 0.930 . S
C581 C579 1.380 . S
C581 C582 1.391 . S
C581 H591 0.930 . S
C582 C581 1.391 . S
C582 C584 1.387 . S
C583 C580 1.398 . S
C583 C584 1.380 . S
C583 H592 0.930 . S
C584 C582 1.387 . S
C584 C583 1.380 . S
C584 H593 0.930 . S
C585 O562 1.254 1_554 S
C585 O563 1.268 . S
H586 C571 0.930 . S
H587 C572 0.930 . S
H588 C574 0.930 . S
H589 C575 0.930 . S
H590 C580 0.930 . S
H591 C581 0.930 . S
H592 C583 0.930 . S
H593 C584 0.930 . S
Gd594 N625 2.661 . S
Gd594 N631 2.601 . S
Gd594 O638 2.545 . S
Gd594 O639 2.606 . S
Gd594 O641 2.429 . S
Gd594 O642 2.545 . S
Gd594 O643 2.412 . S
Gd594 O645 2.362 . S
Gd594 O646 2.324 . S
Gd594 C653 2.828 . S
Gd595 N604 2.661 . S
Gd595 N608 2.601 . S
Gd595 O639 2.362 . S
Gd595 O640 2.324 . S
Gd595 O644 2.545 . S
Gd595 O645 2.606 . S
Gd595 O647 2.429 . S
Gd595 O648 2.545 . S
Gd595 O649 2.412 . S
Gd595 C662 2.828 . S
C596 C599 1.417 1_655 S
C596 C601 1.431 . S
C596 C602 1.412 . S
C597 C600 1.437 1_655 S
C597 C601 1.317 . S
C597 H616 0.929 . S
C598 C599 1.426 . S
C598 C600 1.413 . S
C598 N608 1.359 . S
C599 C596 1.417 1_455 S
C599 C598 1.426 . S
C599 N604 1.350 . S
C600 C597 1.437 1_455 S
C600 C598 1.413 . S
C600 C610 1.391 . S
C601 C596 1.431 . S
C601 C597 1.317 . S
C601 H612 0.930 . S
C602 C596 1.412 . S
C602 C603 1.355 . S
C602 H614 0.930 . S
C603 C602 1.355 . S
C603 C605 1.402 1_655 S
C603 H615 0.930 . S
N604 Gd595 2.661 . S
N604 C599 1.350 . S
N604 C605 1.307 . S
C605 C603 1.402 1_455 S
C605 N604 1.307 . S
C605 H606 0.930 . S
H606 C605 0.930 . S
C607 N608 1.334 . S
C607 C609 1.394 . S
C607 H611 0.930 . S
N608 Gd595 2.601 . S
N608 C598 1.359 . S
N608 C607 1.334 . S
C609 C607 1.394 . S
C609 C610 1.359 . S
C609 H621 0.930 . S
C610 C600 1.391 . S
C610 C609 1.359 . S
C610 H622 0.929 . S
H611 C607 0.930 . S
H612 C601 0.930 . S
H613 C630 0.930 . S
H614 C602 0.930 . S
H615 C603 0.930 . S
H616 C597 0.929 . S
H617 C635 0.930 . S
H618 C626 0.930 . S
H619 C627 0.930 . S
H620 C651 0.929 . S
H621 C609 0.930 . S
H622 C610 0.929 . S
H623 C652 0.930 . S
H624 C633 0.930 . S
N625 Gd594 2.661 . S
N625 C629 1.350 . S
N625 C630 1.307 . S
C626 H618 0.930 . S
C626 C627 1.355 . S
C626 C628 1.412 . S
C627 H619 0.930 . S
C627 C626 1.355 . S
C627 C630 1.402 . S
C628 C626 1.412 . S
C628 C629 1.417 . S
C628 C652 1.431 . S
C629 N625 1.350 . S
C629 C628 1.417 . S
C629 C632 1.426 . S
C630 H613 0.930 . S
C630 N625 1.307 . S
C630 C627 1.402 . S
N631 Gd594 2.601 . S
N631 C632 1.359 . S
N631 C635 1.334 . S
C632 C629 1.426 . S
C632 N631 1.359 . S
C632 C636 1.413 . S
C633 H624 0.930 . S
C633 C634 1.359 . S
C633 C635 1.394 . S
C634 C633 1.359 . S
C634 C636 1.391 . S
C634 H637 0.929 . S
C635 H617 0.930 . S
C635 N631 1.334 . S
C635 C633 1.394 . S
C636 C632 1.413 . S
C636 C634 1.391 . S
C636 C651 1.437 . S
H637 C634 0.929 . S
O638 Gd594 2.545 . S
O638 C653 1.258 . S
O639 Gd594 2.606 . S
O639 Gd595 2.362 . S
O639 C650 1.284 . S
O640 Gd595 2.324 . S
O640 C660 1.254 . S
O641 Gd594 2.429 . S
O641 C660 1.268 . S
O642 Gd594 2.545 . S
O642 C650 1.250 . S
O643 Gd594 2.412 . S
O643 C653 1.252 . S
O644 Gd595 2.545 . S
O644 C662 1.258 . S
O645 Gd594 2.362 . S
O645 Gd595 2.606 . S
O645 C661 1.284 . S
O646 Gd594 2.324 . S
O646 C669 1.254 . S
O647 Gd595 2.429 . S
O647 C669 1.268 . S
O648 Gd595 2.545 . S
O648 C661 1.250 . S
O649 Gd595 2.412 . S
O649 C662 1.252 . S
C650 O639 1.284 . S
C650 O642 1.250 . S
C651 H620 0.929 . S
C651 C636 1.437 . S
C651 C652 1.317 . S
C652 H623 0.930 . S
C652 C628 1.431 . S
C652 C651 1.317 . S
C653 Gd594 2.828 . S
C653 O638 1.258 . S
C653 O643 1.252 . S
C653 C654 1.497 . S
C654 C653 1.497 . S
C654 C655 1.395 . S
C654 C656 1.380 . S
C655 C654 1.395 . S
C655 C658 1.398 . S
C655 H670 0.930 . S
C656 C654 1.380 . S
C656 C657 1.391 . S
C656 H671 0.930 . S
C657 C656 1.391 . S
C657 C659 1.387 . S
C658 C655 1.398 . S
C658 C659 1.380 . S
C658 H672 0.930 . S
C659 C657 1.387 . S
C659 C658 1.380 . S
C659 H673 0.930 . S
C660 O640 1.254 . S
C660 O641 1.268 . S
C661 O645 1.284 . S
C661 O648 1.250 . S
C662 Gd595 2.828 . S
C662 O644 1.258 . S
C662 O649 1.252 . S
C662 C663 1.497 . S
C663 C662 1.497 . S
C663 C664 1.395 . S
C663 C665 1.380 . S
C664 C663 1.395 . S
C664 C667 1.398 . S
C664 H674 0.930 . S
C665 C663 1.380 . S
C665 C666 1.391 . S
C665 H675 0.930 . S
C666 C665 1.391 . S
C666 C668 1.387 . S
C667 C664 1.398 . S
C667 C668 1.380 . S
C667 H676 0.930 . S
C668 C666 1.387 . S
C668 C667 1.380 . S
C668 H677 0.930 . S
C669 O646 1.254 . S
C669 O647 1.268 . S
H670 C655 0.930 . S
H671 C656 0.930 . S
H672 C658 0.930 . S
H673 C659 0.930 . S
H674 C664 0.930 . S
H675 C665 0.930 . S
H676 C667 0.930 . S
H677 C668 0.930 . S
Gd678 N709 2.661 . S
Gd678 N715 2.601 . S
Gd678 O722 2.545 . S
Gd678 O723 2.606 . S
Gd678 O725 2.429 . S
Gd678 O726 2.545 . S
Gd678 O727 2.412 . S
Gd678 O729 2.362 . S
Gd678 O730 2.324 . S
Gd678 C737 2.828 . S
Gd679 N688 2.661 . S
Gd679 N692 2.601 . S
Gd679 O723 2.362 . S
Gd679 O724 2.324 . S
Gd679 O728 2.545 . S
Gd679 O729 2.606 . S
Gd679 O731 2.429 . S
Gd679 O732 2.545 . S
Gd679 O733 2.412 . S
Gd679 C746 2.828 . S
C680 C683 1.417 . S
C680 C685 1.431 . S
C680 C686 1.412 . S
C681 C684 1.437 . S
C681 C685 1.317 . S
C681 H700 0.929 . S
C682 C683 1.426 . S
C682 C684 1.413 . S
C682 N692 1.359 . S
C683 C680 1.417 . S
C683 C682 1.426 . S
C683 N688 1.350 . S
C684 C681 1.437 . S
C684 C682 1.413 . S
C684 C694 1.391 . S
C685 C680 1.431 . S
C685 C681 1.317 . S
C685 H696 0.930 . S
C686 C680 1.412 . S
C686 C687 1.355 . S
C686 H698 0.930 . S
C687 C686 1.355 . S
C687 C689 1.402 . S
C687 H699 0.930 . S
N688 Gd679 2.661 . S
N688 C683 1.350 . S
N688 C689 1.307 . S
C689 C687 1.402 . S
C689 N688 1.307 . S
C689 H690 0.930 . S
H690 C689 0.930 . S
C691 N692 1.334 . S
C691 C693 1.394 . S
C691 H695 0.930 . S
N692 Gd679 2.601 . S
N692 C682 1.359 . S
N692 C691 1.334 . S
C693 C691 1.394 . S
C693 C694 1.359 . S
C693 H705 0.930 . S
C694 C684 1.391 . S
C694 C693 1.359 . S
C694 H706 0.929 . S
H695 C691 0.930 . S
H696 C685 0.930 . S
H697 C714 0.930 . S
H698 C686 0.930 . S
H699 C687 0.930 . S
H700 C681 0.929 . S
H701 C719 0.930 . S
H702 C710 0.930 . S
H703 C711 0.930 . S
H704 C735 0.929 . S
H705 C693 0.930 . S
H706 C694 0.929 . S
H707 C736 0.930 . S
H708 C717 0.930 . S
N709 Gd678 2.661 . S
N709 C713 1.350 . S
N709 C714 1.307 . S
C710 H702 0.930 . S
C710 C711 1.355 . S
C710 C712 1.412 . S
C711 H703 0.930 . S
C711 C710 1.355 . S
C711 C714 1.402 . S
C712 C710 1.412 . S
C712 C713 1.417 . S
C712 C736 1.431 . S
C713 N709 1.350 . S
C713 C712 1.417 . S
C713 C716 1.426 . S
C714 H697 0.930 . S
C714 N709 1.307 . S
C714 C711 1.402 . S
N715 Gd678 2.601 . S
N715 C716 1.359 . S
N715 C719 1.334 . S
C716 C713 1.426 . S
C716 N715 1.359 . S
C716 C720 1.413 . S
C717 H708 0.930 . S
C717 C718 1.359 . S
C717 C719 1.394 . S
C718 C717 1.359 . S
C718 C720 1.391 . S
C718 H721 0.929 . S
C719 H701 0.930 . S
C719 N715 1.334 . S
C719 C717 1.394 . S
C720 C716 1.413 . S
C720 C718 1.391 . S
C720 C735 1.437 . S
H721 C718 0.929 . S
O722 Gd678 2.545 . S
O722 C737 1.258 . S
O723 Gd678 2.606 . S
O723 Gd679 2.362 . S
O723 C734 1.284 . S
O724 Gd679 2.324 . S
O724 C744 1.254 . S
O725 Gd678 2.429 . S
O725 C744 1.268 . S
O726 Gd678 2.545 . S
O726 C734 1.250 . S
O727 Gd678 2.412 . S
O727 C737 1.252 . S
O728 Gd679 2.545 . S
O728 C746 1.258 . S
O729 Gd678 2.362 . S
O729 Gd679 2.606 . S
O729 C745 1.284 . S
O730 Gd678 2.324 . S
O730 C753 1.254 . S
O731 Gd679 2.429 . S
O731 C753 1.268 . S
O732 Gd679 2.545 . S
O732 C745 1.250 . S
O733 Gd679 2.412 . S
O733 C746 1.252 . S
C734 O723 1.284 . S
C734 O726 1.250 . S
C735 H704 0.929 . S
C735 C720 1.437 . S
C735 C736 1.317 . S
C736 H707 0.930 . S
C736 C712 1.431 . S
C736 C735 1.317 . S
C737 Gd678 2.828 . S
C737 O722 1.258 . S
C737 O727 1.252 . S
C737 C738 1.497 . S
C738 C737 1.497 . S
C738 C739 1.395 . S
C738 C740 1.380 . S
C739 C738 1.395 . S
C739 C742 1.398 . S
C739 H754 0.930 . S
C740 C738 1.380 . S
C740 C741 1.391 . S
C740 H755 0.930 . S
C741 C740 1.391 . S
C741 C743 1.387 . S
C742 C739 1.398 . S
C742 C743 1.380 . S
C742 H756 0.930 . S
C743 C741 1.387 . S
C743 C742 1.380 . S
C743 H757 0.930 . S
C744 O724 1.254 . S
C744 O725 1.268 . S
C745 O729 1.284 . S
C745 O732 1.250 . S
C746 Gd679 2.828 . S
C746 O728 1.258 . S
C746 O733 1.252 . S
C746 C747 1.497 . S
C747 C746 1.497 . S
C747 C748 1.395 . S
C747 C749 1.380 . S
C748 C747 1.395 . S
C748 C751 1.398 . S
C748 H758 0.930 . S
C749 C747 1.380 . S
C749 C750 1.391 . S
C749 H759 0.930 . S
C750 C749 1.391 . S
C750 C752 1.387 . S
C751 C748 1.398 . S
C751 C752 1.380 . S
C751 H760 0.930 . S
C752 C750 1.387 . S
C752 C751 1.380 . S
C752 H761 0.930 . S
C753 O730 1.254 . S
C753 O731 1.268 . S
H754 C739 0.930 . S
H755 C740 0.930 . S
H756 C742 0.930 . S
H757 C743 0.930 . S
H758 C748 0.930 . S
H759 C749 0.930 . S
H760 C751 0.930 . S
H761 C752 0.930 . S
Gd762 N793 2.661 . S
Gd762 N799 2.601 . S
Gd762 O806 2.545 . S
Gd762 O807 2.606 . S
Gd762 O809 2.429 . S
Gd762 O810 2.545 . S
Gd762 O811 2.412 . S
Gd762 O813 2.362 . S
Gd762 O814 2.324 . S
Gd762 C821 2.828 . S
Gd763 N772 2.661 . S
Gd763 N776 2.601 . S
Gd763 O807 2.362 . S
Gd763 O808 2.324 . S
Gd763 O812 2.545 . S
Gd763 O813 2.606 . S
Gd763 O815 2.429 . S
Gd763 O816 2.545 . S
Gd763 O817 2.412 . S
Gd763 C830 2.828 . S
C764 C767 1.417 . S
C764 C769 1.431 . S
C764 C770 1.412 . S
C765 C768 1.437 . S
C765 C769 1.317 . S
C765 H784 0.929 . S
C766 C767 1.426 . S
C766 C768 1.413 . S
C766 N776 1.359 . S
C767 C764 1.417 . S
C767 C766 1.426 . S
C767 N772 1.350 . S
C768 C765 1.437 . S
C768 C766 1.413 . S
C768 C778 1.391 . S
C769 C764 1.431 . S
C769 C765 1.317 . S
C769 H780 0.930 . S
C770 C764 1.412 . S
C770 C771 1.355 . S
C770 H782 0.930 . S
C771 C770 1.355 . S
C771 C773 1.402 . S
C771 H783 0.930 . S
N772 Gd763 2.661 . S
N772 C767 1.350 . S
N772 C773 1.307 . S
C773 C771 1.402 . S
C773 N772 1.307 . S
C773 H774 0.930 . S
H774 C773 0.930 . S
C775 N776 1.334 . S
C775 C777 1.394 . S
C775 H779 0.930 . S
N776 Gd763 2.601 . S
N776 C766 1.359 . S
N776 C775 1.334 . S
C777 C775 1.394 . S
C777 C778 1.359 . S
C777 H789 0.930 . S
C778 C768 1.391 . S
C778 C777 1.359 . S
C778 H790 0.929 . S
H779 C775 0.930 . S
H780 C769 0.930 . S
H781 C798 0.930 . S
H782 C770 0.930 . S
H783 C771 0.930 . S
H784 C765 0.929 . S
H785 C803 0.930 . S
H786 C794 0.930 . S
H787 C795 0.930 . S
H788 C819 0.929 . S
H789 C777 0.930 . S
H790 C778 0.929 . S
H791 C820 0.930 . S
H792 C801 0.930 . S
N793 Gd762 2.661 . S
N793 C797 1.350 . S
N793 C798 1.307 . S
C794 H786 0.930 . S
C794 C795 1.355 . S
C794 C796 1.412 . S
C795 H787 0.930 . S
C795 C794 1.355 . S
C795 C798 1.402 . S
C796 C794 1.412 . S
C796 C797 1.417 . S
C796 C820 1.431 . S
C797 N793 1.350 . S
C797 C796 1.417 . S
C797 C800 1.426 . S
C798 H781 0.930 . S
C798 N793 1.307 . S
C798 C795 1.402 . S
N799 Gd762 2.601 . S
N799 C800 1.359 . S
N799 C803 1.334 . S
C800 C797 1.426 . S
C800 N799 1.359 . S
C800 C804 1.413 . S
C801 H792 0.930 . S
C801 C802 1.359 . S
C801 C803 1.394 . S
C802 C801 1.359 . S
C802 C804 1.391 . S
C802 H805 0.929 . S
C803 H785 0.930 . S
C803 N799 1.334 . S
C803 C801 1.394 . S
C804 C800 1.413 . S
C804 C802 1.391 . S
C804 C819 1.437 . S
H805 C802 0.929 . S
O806 Gd762 2.545 . S
O806 C821 1.258 . S
O807 Gd762 2.606 . S
O807 Gd763 2.362 . S
O807 C818 1.284 . S
O808 Gd763 2.324 . S
O808 C828 1.254 . S
O809 Gd762 2.429 . S
O809 C828 1.268 . S
O810 Gd762 2.545 . S
O810 C818 1.250 . S
O811 Gd762 2.412 . S
O811 C821 1.252 . S
O812 Gd763 2.545 . S
O812 C830 1.258 . S
O813 Gd762 2.362 . S
O813 Gd763 2.606 . S
O813 C829 1.284 . S
O814 Gd762 2.324 . S
O814 C837 1.254 . S
O815 Gd763 2.429 . S
O815 C837 1.268 . S
O816 Gd763 2.545 . S
O816 C829 1.250 . S
O817 Gd763 2.412 . S
O817 C830 1.252 . S
C818 O807 1.284 . S
C818 O810 1.250 . S
C819 H788 0.929 . S
C819 C804 1.437 . S
C819 C820 1.317 . S
C820 H791 0.930 . S
C820 C796 1.431 . S
C820 C819 1.317 . S
C821 Gd762 2.828 . S
C821 O806 1.258 . S
C821 O811 1.252 . S
C821 C822 1.497 . S
C822 C821 1.497 . S
C822 C823 1.395 . S
C822 C824 1.380 . S
C823 C822 1.395 . S
C823 C826 1.398 . S
C823 H838 0.930 . S
C824 C822 1.380 . S
C824 C825 1.391 . S
C824 H839 0.930 . S
C825 C824 1.391 . S
C825 C827 1.387 . S
C826 C823 1.398 . S
C826 C827 1.380 . S
C826 H840 0.930 . S
C827 C825 1.387 . S
C827 C826 1.380 . S
C827 H841 0.930 . S
C828 O808 1.254 . S
C828 O809 1.268 . S
C829 O813 1.284 . S
C829 O816 1.250 . S
C830 Gd763 2.828 . S
C830 O812 1.258 . S
C830 O817 1.252 . S
C830 C831 1.497 . S
C831 C830 1.497 . S
C831 C832 1.395 . S
C831 C833 1.380 . S
C832 C831 1.395 . S
C832 C835 1.398 . S
C832 H842 0.930 . S
C833 C831 1.380 . S
C833 C834 1.391 . S
C833 H843 0.930 . S
C834 C833 1.391 . S
C834 C836 1.387 . S
C835 C832 1.398 . S
C835 C836 1.380 . S
C835 H844 0.930 . S
C836 C834 1.387 . S
C836 C835 1.380 . S
C836 H845 0.930 . S
C837 O814 1.254 . S
C837 O815 1.268 . S
H838 C823 0.930 . S
H839 C824 0.930 . S
H840 C826 0.930 . S
H841 C827 0.930 . S
H842 C832 0.930 . S
H843 C833 0.930 . S
H844 C835 0.930 . S
H845 C836 0.930 . S
Gd846 N877 2.661 . S
Gd846 N883 2.601 . S
Gd846 O890 2.545 . S
Gd846 O891 2.606 . S
Gd846 O893 2.429 . S
Gd846 O894 2.545 . S
Gd846 O895 2.412 . S
Gd846 O897 2.362 . S
Gd846 O898 2.324 . S
Gd846 C905 2.828 . S
Gd847 N856 2.661 . S
Gd847 N860 2.601 . S
Gd847 O891 2.362 . S
Gd847 O892 2.324 . S
Gd847 O896 2.545 . S
Gd847 O897 2.606 . S
Gd847 O899 2.429 . S
Gd847 O900 2.545 . S
Gd847 O901 2.412 . S
Gd847 C914 2.828 . S
C848 C851 1.417 . S
C848 C853 1.431 . S
C848 C854 1.412 . S
C849 C852 1.437 . S
C849 C853 1.317 . S
C849 H868 0.929 . S
C850 C851 1.426 . S
C850 C852 1.413 . S
C850 N860 1.359 . S
C851 C848 1.417 . S
C851 C850 1.426 . S
C851 N856 1.350 . S
C852 C849 1.437 . S
C852 C850 1.413 . S
C852 C862 1.391 . S
C853 C848 1.431 . S
C853 C849 1.317 . S
C853 H864 0.930 . S
C854 C848 1.412 . S
C854 C855 1.355 . S
C854 H866 0.930 . S
C855 C854 1.355 . S
C855 C857 1.402 . S
C855 H867 0.930 . S
N856 Gd847 2.661 . S
N856 C851 1.350 . S
N856 C857 1.307 . S
C857 C855 1.402 . S
C857 N856 1.307 . S
C857 H858 0.930 . S
H858 C857 0.930 . S
C859 N860 1.334 . S
C859 C861 1.394 . S
C859 H863 0.930 . S
N860 Gd847 2.601 . S
N860 C850 1.359 . S
N860 C859 1.334 . S
C861 C859 1.394 . S
C861 C862 1.359 . S
C861 H873 0.930 . S
C862 C852 1.391 . S
C862 C861 1.359 . S
C862 H874 0.929 . S
H863 C859 0.930 . S
H864 C853 0.930 . S
H865 C882 0.930 . S
H866 C854 0.930 . S
H867 C855 0.930 . S
H868 C849 0.929 . S
H869 C887 0.930 . S
H870 C878 0.930 . S
H871 C879 0.930 . S
H872 C903 0.929 . S
H873 C861 0.930 . S
H874 C862 0.929 . S
H875 C904 0.930 . S
H876 C885 0.930 . S
N877 Gd846 2.661 . S
N877 C881 1.350 . S
N877 C882 1.307 . S
C878 H870 0.930 . S
C878 C879 1.355 . S
C878 C880 1.412 . S
C879 H871 0.930 . S
C879 C878 1.355 . S
C879 C882 1.402 . S
C880 C878 1.412 . S
C880 C881 1.417 . S
C880 C904 1.431 . S
C881 N877 1.350 . S
C881 C880 1.417 . S
C881 C884 1.426 . S
C882 H865 0.930 . S
C882 N877 1.307 . S
C882 C879 1.402 . S
N883 Gd846 2.601 . S
N883 C884 1.359 . S
N883 C887 1.334 . S
C884 C881 1.426 . S
C884 N883 1.359 . S
C884 C888 1.413 . S
C885 H876 0.930 . S
C885 C886 1.359 . S
C885 C887 1.394 . S
C886 C885 1.359 . S
C886 C888 1.391 . S
C886 H889 0.929 . S
C887 H869 0.930 . S
C887 N883 1.334 . S
C887 C885 1.394 . S
C888 C884 1.413 . S
C888 C886 1.391 . S
C888 C903 1.437 . S
H889 C886 0.929 . S
O890 Gd846 2.545 . S
O890 C905 1.258 . S
O891 Gd846 2.606 . S
O891 Gd847 2.362 . S
O891 C902 1.284 . S
O892 Gd847 2.324 . S
O892 C912 1.254 . S
O893 Gd846 2.429 . S
O893 C912 1.268 . S
O894 Gd846 2.545 . S
O894 C902 1.250 . S
O895 Gd846 2.412 . S
O895 C905 1.252 . S
O896 Gd847 2.545 . S
O896 C914 1.258 . S
O897 Gd846 2.362 . S
O897 Gd847 2.606 . S
O897 C913 1.284 . S
O898 Gd846 2.324 . S
O898 C921 1.254 . S
O899 Gd847 2.429 . S
O899 C921 1.268 . S
O900 Gd847 2.545 . S
O900 C913 1.250 . S
O901 Gd847 2.412 . S
O901 C914 1.252 . S
C902 O891 1.284 . S
C902 O894 1.250 . S
C903 H872 0.929 . S
C903 C888 1.437 . S
C903 C904 1.317 . S
C904 H875 0.930 . S
C904 C880 1.431 . S
C904 C903 1.317 . S
C905 Gd846 2.828 . S
C905 O890 1.258 . S
C905 O895 1.252 . S
C905 C906 1.497 . S
C906 C905 1.497 . S
C906 C907 1.395 . S
C906 C908 1.380 . S
C907 C906 1.395 . S
C907 C910 1.398 . S
C907 H922 0.930 . S
C908 C906 1.380 . S
C908 C909 1.391 . S
C908 H923 0.930 . S
C909 C908 1.391 . S
C909 C911 1.387 . S
C910 C907 1.398 . S
C910 C911 1.380 . S
C910 H924 0.930 . S
C911 C909 1.387 . S
C911 C910 1.380 . S
C911 H925 0.930 . S
C912 O892 1.254 . S
C912 O893 1.268 . S
C913 O897 1.284 . S
C913 O900 1.250 . S
C914 Gd847 2.828 . S
C914 O896 1.258 . S
C914 O901 1.252 . S
C914 C915 1.497 . S
C915 C914 1.497 . S
C915 C916 1.395 . S
C915 C917 1.380 . S
C916 C915 1.395 . S
C916 C919 1.398 . S
C916 H926 0.930 . S
C917 C915 1.380 . S
C917 C918 1.391 . S
C917 H927 0.930 . S
C918 C917 1.391 . S
C918 C920 1.387 . S
C919 C916 1.398 . S
C919 C920 1.380 . S
C919 H928 0.930 . S
C920 C918 1.387 . S
C920 C919 1.380 . S
C920 H929 0.930 . S
C921 O898 1.254 . S
C921 O899 1.268 . S
H922 C907 0.930 . S
H923 C908 0.930 . S
H924 C910 0.930 . S
H925 C911 0.930 . S
H926 C916 0.930 . S
H927 C917 0.930 . S
H928 C919 0.930 . S
H929 C920 0.930 . S
Gd930 N961 2.661 . S
Gd930 N967 2.601 . S
Gd930 O974 2.545 . S
Gd930 O975 2.606 . S
Gd930 O977 2.429 . S
Gd930 O978 2.545 . S
Gd930 O979 2.412 . S
Gd930 O981 2.362 . S
Gd930 O982 2.324 . S
Gd930 C989 2.828 . S
Gd931 N940 2.661 . S
Gd931 N944 2.601 . S
Gd931 O975 2.362 . S
Gd931 O976 2.324 . S
Gd931 O980 2.545 . S
Gd931 O981 2.606 . S
Gd931 O983 2.429 . S
Gd931 O984 2.545 . S
Gd931 O985 2.412 . S
Gd931 C998 2.828 . S
C932 C935 1.417 . S
C932 C937 1.431 . S
C932 C938 1.412 . S
C933 C936 1.437 . S
C933 C937 1.317 . S
C933 H952 0.929 . S
C934 C935 1.426 . S
C934 C936 1.413 . S
C934 N944 1.359 . S
C935 C932 1.417 . S
C935 C934 1.426 . S
C935 N940 1.350 . S
C936 C933 1.437 . S
C936 C934 1.413 . S
C936 C946 1.391 . S
C937 C932 1.431 . S
C937 C933 1.317 . S
C937 H948 0.930 . S
C938 C932 1.412 . S
C938 C939 1.355 . S
C938 H950 0.930 . S
C939 C938 1.355 . S
C939 C941 1.402 . S
C939 H951 0.930 . S
N940 Gd931 2.661 . S
N940 C935 1.350 . S
N940 C941 1.307 . S
C941 C939 1.402 . S
C941 N940 1.307 . S
C941 H942 0.930 . S
H942 C941 0.930 . S
C943 N944 1.334 . S
C943 C945 1.394 . S
C943 H947 0.930 . S
N944 Gd931 2.601 . S
N944 C934 1.359 . S
N944 C943 1.334 . S
C945 C943 1.394 . S
C945 C946 1.359 . S
C945 H957 0.930 . S
C946 C936 1.391 . S
C946 C945 1.359 . S
C946 H958 0.929 . S
H947 C943 0.930 . S
H948 C937 0.930 . S
H949 C966 0.930 . S
H950 C938 0.930 . S
H951 C939 0.930 . S
H952 C933 0.929 . S
H953 C971 0.930 . S
H954 C962 0.930 . S
H955 C963 0.930 . S
H956 C987 0.929 . S
H957 C945 0.930 . S
H958 C946 0.929 . S
H959 C988 0.930 . S
H960 C969 0.930 . S
N961 Gd930 2.661 . S
N961 C965 1.350 . S
N961 C966 1.307 . S
C962 H954 0.930 . S
C962 C963 1.355 . S
C962 C964 1.412 . S
C963 H955 0.930 . S
C963 C962 1.355 . S
C963 C966 1.402 . S
C964 C962 1.412 . S
C964 C965 1.417 . S
C964 C988 1.431 . S
C965 N961 1.350 . S
C965 C964 1.417 . S
C965 C968 1.426 . S
C966 H949 0.930 . S
C966 N961 1.307 . S
C966 C963 1.402 . S
N967 Gd930 2.601 . S
N967 C968 1.359 . S
N967 C971 1.334 . S
C968 C965 1.426 . S
C968 N967 1.359 . S
C968 C972 1.413 . S
C969 H960 0.930 . S
C969 C970 1.359 . S
C969 C971 1.394 . S
C970 C969 1.359 . S
C970 C972 1.391 . S
C970 H973 0.929 . S
C971 H953 0.930 . S
C971 N967 1.334 . S
C971 C969 1.394 . S
C972 C968 1.413 . S
C972 C970 1.391 . S
C972 C987 1.437 . S
H973 C970 0.929 . S
O974 Gd930 2.545 . S
O974 C989 1.258 . S
O975 Gd930 2.606 . S
O975 Gd931 2.362 . S
O975 C986 1.284 . S
O976 Gd931 2.324 . S
O976 C996 1.254 . S
O977 Gd930 2.429 . S
O977 C996 1.268 . S
O978 Gd930 2.545 . S
O978 C986 1.250 . S
O979 Gd930 2.412 . S
O979 C989 1.252 . S
O980 Gd931 2.545 . S
O980 C998 1.258 . S
O981 Gd930 2.362 . S
O981 Gd931 2.606 . S
O981 C997 1.284 . S
O982 Gd930 2.324 . S
O982 C1005 1.254 . S
O983 Gd931 2.429 . S
O983 C1005 1.268 . S
O984 Gd931 2.545 . S
O984 C997 1.250 . S
O985 Gd931 2.412 . S
O985 C998 1.252 . S
C986 O975 1.284 . S
C986 O978 1.250 . S
C987 H956 0.929 . S
C987 C972 1.437 . S
C987 C988 1.317 . S
C988 H959 0.930 . S
C988 C964 1.431 . S
C988 C987 1.317 . S
C989 Gd930 2.828 . S
C989 O974 1.258 . S
C989 O979 1.252 . S
C989 C990 1.497 . S
C990 C989 1.497 . S
C990 C991 1.395 . S
C990 C992 1.380 . S
C991 C990 1.395 . S
C991 C994 1.398 . S
C991 H1006 0.930 . S
C992 C990 1.380 . S
C992 C993 1.391 . S
C992 H1007 0.930 . S
C993 C992 1.391 . S
C993 C995 1.387 . S
C994 C991 1.398 . S
C994 C995 1.380 . S
C994 H1008 0.930 . S
C995 C993 1.387 . S
C995 C994 1.380 . S
C995 H1009 0.930 . S
C996 O976 1.254 . S
C996 O977 1.268 . S
C997 O981 1.284 . S
C997 O984 1.250 . S
C998 Gd931 2.828 . S
C998 O980 1.258 . S
C998 O985 1.252 . S
C998 C999 1.497 . S
C999 C998 1.497 . S
C999 C1000 1.395 . S
C999 C1001 1.380 . S
C1000 C999 1.395 . S
C1000 C1003 1.398 . S
C1000 H1010 0.930 . S
C1001 C999 1.380 . S
C1001 C1002 1.391 . S
C1001 H1011 0.930 . S
C1002 C1001 1.391 . S
C1002 C1004 1.387 . S
C1003 C1000 1.398 . S
C1003 C1004 1.380 . S
C1003 H1012 0.930 . S
C1004 C1002 1.387 . S
C1004 C1003 1.380 . S
C1004 H1013 0.930 . S
C1005 O982 1.254 . S
C1005 O983 1.268 . S
H1006 C991 0.930 . S
H1007 C992 0.930 . S
H1008 C994 0.930 . S
H1009 C995 0.930 . S
H1010 C1000 0.930 . S
H1011 C1001 0.930 . S
H1012 C1003 0.930 . S
H1013 C1004 0.930 . S
Gd1014 N1045 2.661 . S
Gd1014 N1051 2.601 . S
Gd1014 O1058 2.545 . S
Gd1014 O1059 2.606 . S
Gd1014 O1061 2.429 . S
Gd1014 O1062 2.545 . S
Gd1014 O1063 2.412 . S
Gd1014 O1065 2.362 . S
Gd1014 O1066 2.324 . S
Gd1014 C1073 2.828 . S
Gd1015 N1024 2.661 . S
Gd1015 N1028 2.601 . S
Gd1015 O1059 2.362 . S
Gd1015 O1060 2.324 . S
Gd1015 O1064 2.545 . S
Gd1015 O1065 2.606 . S
Gd1015 O1067 2.429 . S
Gd1015 O1068 2.545 . S
Gd1015 O1069 2.412 . S
Gd1015 C1082 2.828 . S
C1016 C1019 1.417 1_455 S
C1016 C1021 1.431 . S
C1016 C1022 1.412 . S
C1017 C1020 1.437 1_455 S
C1017 C1021 1.317 . S
C1017 H1036 0.929 . S
C1018 C1019 1.426 . S
C1018 C1020 1.413 . S
C1018 N1028 1.359 . S
C1019 C1016 1.417 1_655 S
C1019 C1018 1.426 . S
C1019 N1024 1.350 . S
C1020 C1017 1.437 1_655 S
C1020 C1018 1.413 . S
C1020 C1030 1.391 . S
C1021 C1016 1.431 . S
C1021 C1017 1.317 . S
C1021 H1032 0.930 . S
C1022 C1016 1.412 . S
C1022 C1023 1.355 . S
C1022 H1034 0.930 . S
C1023 C1022 1.355 . S
C1023 C1025 1.402 1_455 S
C1023 H1035 0.930 . S
N1024 Gd1015 2.661 . S
N1024 C1019 1.350 . S
N1024 C1025 1.307 . S
C1025 C1023 1.402 1_655 S
C1025 N1024 1.307 . S
C1025 H1026 0.930 . S
H1026 C1025 0.930 . S
C1027 N1028 1.334 . S
C1027 C1029 1.394 . S
C1027 H1031 0.930 . S
N1028 Gd1015 2.601 . S
N1028 C1018 1.359 . S
N1028 C1027 1.334 . S
C1029 C1027 1.394 . S
C1029 C1030 1.359 . S
C1029 H1041 0.930 . S
C1030 C1020 1.391 . S
C1030 C1029 1.359 . S
C1030 H1042 0.929 . S
H1031 C1027 0.930 . S
H1032 C1021 0.930 . S
H1033 C1050 0.930 . S
H1034 C1022 0.930 . S
H1035 C1023 0.930 . S
H1036 C1017 0.929 . S
H1037 C1055 0.930 . S
H1038 C1046 0.930 . S
H1039 C1047 0.930 . S
H1040 C1071 0.929 . S
H1041 C1029 0.930 . S
H1042 C1030 0.929 . S
H1043 C1072 0.930 . S
H1044 C1053 0.930 . S
N1045 Gd1014 2.661 . S
N1045 C1049 1.350 . S
N1045 C1050 1.307 . S
C1046 H1038 0.930 . S
C1046 C1047 1.355 . S
C1046 C1048 1.412 . S
C1047 H1039 0.930 . S
C1047 C1046 1.355 . S
C1047 C1050 1.402 . S
C1048 C1046 1.412 . S
C1048 C1049 1.417 . S
C1048 C1072 1.431 . S
C1049 N1045 1.350 . S
C1049 C1048 1.417 . S
C1049 C1052 1.426 . S
C1050 H1033 0.930 . S
C1050 N1045 1.307 . S
C1050 C1047 1.402 . S
N1051 Gd1014 2.601 . S
N1051 C1052 1.359 . S
N1051 C1055 1.334 . S
C1052 C1049 1.426 . S
C1052 N1051 1.359 . S
C1052 C1056 1.413 . S
C1053 H1044 0.930 . S
C1053 C1054 1.359 . S
C1053 C1055 1.394 . S
C1054 C1053 1.359 . S
C1054 C1056 1.391 . S
C1054 H1057 0.929 . S
C1055 H1037 0.930 . S
C1055 N1051 1.334 . S
C1055 C1053 1.394 . S
C1056 C1052 1.413 . S
C1056 C1054 1.391 . S
C1056 C1071 1.437 . S
H1057 C1054 0.929 . S
O1058 Gd1014 2.545 . S
O1058 C1073 1.258 . S
O1059 Gd1014 2.606 . S
O1059 Gd1015 2.362 . S
O1059 C1070 1.284 . S
O1060 Gd1015 2.324 . S
O1060 C1080 1.254 . S
O1061 Gd1014 2.429 . S
O1061 C1080 1.268 . S
O1062 Gd1014 2.545 . S
O1062 C1070 1.250 . S
O1063 Gd1014 2.412 . S
O1063 C1073 1.252 . S
O1064 Gd1015 2.545 . S
O1064 C1082 1.258 . S
O1065 Gd1014 2.362 . S
O1065 Gd1015 2.606 . S
O1065 C1081 1.284 . S
O1066 Gd1014 2.324 . S
O1066 C1089 1.254 . S
O1067 Gd1015 2.429 . S
O1067 C1089 1.268 . S
O1068 Gd1015 2.545 . S
O1068 C1081 1.250 . S
O1069 Gd1015 2.412 . S
O1069 C1082 1.252 . S
C1070 O1059 1.284 . S
C1070 O1062 1.250 . S
C1071 H1040 0.929 . S
C1071 C1056 1.437 . S
C1071 C1072 1.317 . S
C1072 H1043 0.930 . S
C1072 C1048 1.431 . S
C1072 C1071 1.317 . S
C1073 Gd1014 2.828 . S
C1073 O1058 1.258 . S
C1073 O1063 1.252 . S
C1073 C1074 1.497 . S
C1074 C1073 1.497 . S
C1074 C1075 1.395 . S
C1074 C1076 1.380 . S
C1075 C1074 1.395 . S
C1075 C1078 1.398 . S
C1075 H1090 0.930 . S
C1076 C1074 1.380 . S
C1076 C1077 1.391 . S
C1076 H1091 0.930 . S
C1077 C1076 1.391 . S
C1077 C1079 1.387 . S
C1078 C1075 1.398 . S
C1078 C1079 1.380 . S
C1078 H1092 0.930 . S
C1079 C1077 1.387 . S
C1079 C1078 1.380 . S
C1079 H1093 0.930 . S
C1080 O1060 1.254 . S
C1080 O1061 1.268 . S
C1081 O1065 1.284 . S
C1081 O1068 1.250 . S
C1082 Gd1015 2.828 . S
C1082 O1064 1.258 . S
C1082 O1069 1.252 . S
C1082 C1083 1.497 . S
C1083 C1082 1.497 . S
C1083 C1084 1.395 . S
C1083 C1085 1.380 . S
C1084 C1083 1.395 . S
C1084 C1087 1.398 . S
C1084 H1094 0.930 . S
C1085 C1083 1.380 . S
C1085 C1086 1.391 . S
C1085 H1095 0.930 . S
C1086 C1085 1.391 . S
C1086 C1088 1.387 . S
C1087 C1084 1.398 . S
C1087 C1088 1.380 . S
C1087 H1096 0.930 . S
C1088 C1086 1.387 . S
C1088 C1087 1.380 . S
C1088 H1097 0.930 . S
C1089 O1066 1.254 . S
C1089 O1067 1.268 . S
H1090 C1075 0.930 . S
H1091 C1076 0.930 . S
H1092 C1078 0.930 . S
H1093 C1079 0.930 . S
H1094 C1084 0.930 . S
H1095 C1085 0.930 . S
H1096 C1087 0.930 . S
H1097 C1088 0.930 . S
C1098 C1099 1.363 . S
C1098 C1104 1.379 . S
C1098 N1106 1.356 . S
C1099 C1098 1.363 . S
C1099 C1105 1.363 . S
C1100 C1101 1.363 . S
C1100 C1105 1.379 . S
C1100 N1107 1.356 1_554 S
C1101 C1100 1.363 . S
C1101 C1104 1.363 . S
N1102 C1104 1.356 . S
N1102 H1114 0.984 . S
N1102 H1115 0.985 . S
N1103 C1105 1.356 . S
N1103 H1108 0.984 . S
N1103 H1109 0.979 1_554 S
C1104 C1098 1.379 . S
C1104 C1101 1.363 . S
C1104 N1102 1.356 . S
C1105 C1099 1.363 . S
C1105 C1100 1.379 . S
C1105 N1103 1.356 . S
N1106 C1098 1.356 . S
N1106 H1112 0.984 . S
N1106 H1113 0.984 . S
N1107 C1100 1.356 1_556 S
N1107 H1110 0.984 . S
N1107 H1111 0.985 . S
H1108 N1103 0.984 . S
H1109 N1103 0.979 1_556 S
H1110 N1107 0.984 . S
H1111 N1107 0.985 . S
H1112 N1106 0.984 . S
H1113 N1106 0.984 . S
H1114 N1102 0.984 . S
H1115 N1102 0.985 . S
C1116 C1117 1.363 . S
C1116 C1122 1.379 . S
C1116 N1124 1.356 . S
C1117 C1116 1.363 . S
C1117 C1123 1.363 . S
C1118 C1119 1.363 . S
C1118 C1123 1.379 . S
C1118 N1125 1.356 1_554 S
C1119 C1118 1.363 . S
C1119 C1122 1.363 . S
N1120 C1122 1.356 . S
N1120 H1132 0.984 . S
N1120 H1133 0.985 . S
N1121 C1123 1.356 . S
N1121 H1126 0.984 . S
N1121 H1127 0.985 . S
C1122 C1116 1.379 . S
C1122 C1119 1.363 . S
C1122 N1120 1.356 . S
C1123 C1117 1.363 . S
C1123 C1118 1.379 . S
C1123 N1121 1.356 . S
N1124 C1116 1.356 . S
N1124 H1130 0.984 . S
N1124 H1131 0.984 . S
N1125 C1118 1.356 1_556 S
N1125 H1128 0.984 . S
N1125 H1129 0.985 . S
H1126 N1121 0.984 . S
H1127 N1121 0.985 . S
H1128 N1125 0.984 . S
H1129 N1125 0.985 . S
H1130 N1124 0.984 . S
H1131 N1124 0.984 . S
H1132 N1120 0.984 . S
H1133 N1120 0.985 . S
C1134 C1135 1.363 . S
C1134 C1140 1.379 . S
C1134 N1142 1.356 . S
C1135 C1134 1.363 . S
C1135 C1141 1.363 . S
C1136 C1137 1.363 . S
C1136 C1141 1.379 . S
C1136 N1143 1.356 . S
C1137 C1136 1.363 . S
C1137 C1140 1.363 . S
N1138 C1140 1.356 1_556 S
N1138 H1150 0.984 . S
N1138 H1151 0.985 . S
N1139 C1141 1.356 . S
N1139 H1144 0.984 . S
N1139 H1145 0.985 . S
C1140 C1134 1.379 . S
C1140 C1137 1.363 . S
C1140 N1138 1.356 1_554 S
C1141 C1135 1.363 . S
C1141 C1136 1.379 . S
C1141 N1139 1.356 . S
N1142 C1134 1.356 . S
N1142 H1148 0.984 1_554 S
N1142 H1149 0.984 . S
N1143 C1136 1.356 . S
N1143 H1146 0.984 . S
N1143 H1147 0.985 . S
H1144 N1139 0.984 . S
H1145 N1139 0.985 . S
H1146 N1143 0.984 . S
H1147 N1143 0.985 . S
H1148 N1142 0.984 1_556 S
H1149 N1142 0.984 . S
H1150 N1138 0.984 . S
H1151 N1138 0.985 . S
C1152 C1153 1.363 . S
C1152 C1158 1.379 . S
C1152 N1160 1.356 . S
C1153 C1152 1.363 . S
C1153 C1159 1.363 . S
C1154 C1155 1.363 . S
C1154 C1159 1.379 . S
C1154 N1161 1.356 1_556 S
C1155 C1154 1.363 . S
C1155 C1158 1.363 . S
N1156 C1158 1.356 . S
N1156 H1168 0.984 . S
N1156 H1169 0.985 . S
N1157 C1159 1.356 . S
N1157 H1162 0.984 . S
N1157 H1163 0.985 . S
C1158 C1152 1.379 . S
C1158 C1155 1.363 . S
C1158 N1156 1.356 . S
C1159 C1153 1.363 . S
C1159 C1154 1.379 . S
C1159 N1157 1.356 . S
N1160 C1152 1.356 . S
N1160 H1166 0.984 . S
N1160 H1167 0.984 . S
N1161 C1154 1.356 1_554 S
N1161 H1164 0.984 . S
N1161 H1165 0.985 . S
H1162 N1157 0.984 . S
H1163 N1157 0.985 . S
H1164 N1161 0.984 . S
H1165 N1161 0.985 . S
H1166 N1160 0.984 . S
H1167 N1160 0.984 . S
H1168 N1156 0.984 . S
H1169 N1156 0.985 . S
C1170 C1171 1.363 . S
C1170 C1176 1.379 . S
C1170 N1178 1.356 . S
C1171 C1170 1.363 . S
C1171 C1177 1.363 . S
C1172 C1173 1.363 . S
C1172 C1177 1.379 . S
C1172 N1179 1.356 . S
C1173 C1172 1.363 . S
C1173 C1176 1.363 . S
N1174 C1176 1.356 . S
N1174 H1186 0.985 . S
N1174 H1187 0.985 1_556 S
N1175 C1177 1.356 . S
N1175 H1180 0.984 . S
N1175 H1181 0.985 . S
C1176 C1170 1.379 . S
C1176 C1173 1.363 . S
C1176 N1174 1.356 . S
C1177 C1171 1.363 . S
C1177 C1172 1.379 . S
C1177 N1175 1.356 . S
N1178 C1170 1.356 . S
N1178 H1184 0.984 . S
N1178 H1185 0.984 . S
N1179 C1172 1.356 . S
N1179 H1182 0.984 . S
N1179 H1183 0.985 . S
H1180 N1175 0.984 . S
H1181 N1175 0.985 . S
H1182 N1179 0.984 . S
H1183 N1179 0.985 . S
H1184 N1178 0.984 . S
H1185 N1178 0.984 . S
H1186 N1174 0.985 . S
H1187 N1174 0.985 1_554 S
C1188 C1189 1.363 . S
C1188 C1194 1.379 . S
C1188 N1196 1.356 . S
C1189 C1188 1.363 . S
C1189 C1195 1.363 1_556 S
C1190 C1191 1.363 1_554 S
C1190 C1195 1.379 . S
C1190 N1197 1.356 . S
C1191 C1190 1.363 1_556 S
C1191 C1194 1.363 . S
N1192 C1194 1.356 . S
N1192 H1204 0.984 . S
N1192 H1205 0.985 . S
N1193 C1195 1.356 . S
N1193 H1198 0.984 . S
N1193 H1199 0.985 . S
C1194 C1188 1.379 . S
C1194 C1191 1.363 . S
C1194 N1192 1.356 . S
C1195 C1189 1.363 1_554 S
C1195 C1190 1.379 . S
C1195 N1193 1.356 . S
N1196 C1188 1.356 . S
N1196 H1202 0.984 . S
N1196 H1203 0.984 . S
N1197 C1190 1.356 . S
N1197 H1200 0.984 . S
N1197 H1201 0.985 . S
H1198 N1193 0.984 . S
H1199 N1193 0.985 . S
H1200 N1197 0.984 . S
H1201 N1197 0.985 . S
H1202 N1196 0.984 . S
H1203 N1196 0.984 . S
H1204 N1192 0.984 . S
H1205 N1192 0.985 . S
C1206 C1207 1.363 1_554 S
C1206 C1212 1.379 . S
C1206 N1214 1.356 . S
C1207 C1206 1.363 1_556 S
C1207 C1213 1.363 . S
C1208 C1209 1.363 . S
C1208 C1213 1.379 . S
C1208 N1215 1.356 . S
C1209 C1208 1.363 . S
C1209 C1212 1.363 1_556 S
N1210 C1212 1.356 . S
N1210 H1222 0.984 . S
N1210 H1223 0.985 . S
N1211 C1213 1.356 . S
N1211 H1216 0.984 . S
N1211 H1217 0.985 . S
C1212 C1206 1.379 . S
C1212 C1209 1.363 1_554 S
C1212 N1210 1.356 . S
C1213 C1207 1.363 . S
C1213 C1208 1.379 . S
C1213 N1211 1.356 . S
N1214 C1206 1.356 . S
N1214 H1220 0.984 . S
N1214 H1221 0.984 . S
N1215 C1208 1.356 . S
N1215 H1218 0.984 . S
N1215 H1219 0.985 . S
H1216 N1211 0.984 . S
H1217 N1211 0.985 . S
H1218 N1215 0.984 . S
H1219 N1215 0.985 . S
H1220 N1214 0.984 . S
H1221 N1214 0.984 . S
H1222 N1210 0.984 . S
H1223 N1210 0.985 . S
C1224 C1225 1.363 . S
C1224 C1230 1.379 . S
C1224 N1232 1.356 . S
C1225 C1224 1.363 . S
C1225 C1231 1.352 1_556 S
C1226 C1227 1.363 1_554 S
C1226 C1231 1.381 . S
C1226 N1233 1.356 . S
C1227 C1226 1.363 1_556 S
C1227 C1230 1.363 . S
N1228 C1230 1.356 . S
N1228 H1240 0.984 . S
N1228 H1241 0.985 . S
N1229 C1231 1.362 . S
N1229 H1234 0.984 . S
N1229 H1235 0.985 . S
C1230 C1224 1.379 . S
C1230 C1227 1.363 . S
C1230 N1228 1.356 . S
C1231 C1225 1.352 1_554 S
C1231 C1226 1.381 . S
C1231 N1229 1.362 . S
N1232 C1224 1.356 . S
N1232 H1238 0.984 . S
N1232 H1239 0.984 . S
N1233 C1226 1.356 . S
N1233 H1236 0.984 . S
N1233 H1237 0.985 . S
H1234 N1229 0.984 . S
H1235 N1229 0.985 . S
H1236 N1233 0.984 . S
H1237 N1233 0.985 . S
H1238 N1232 0.984 . S
H1239 N1232 0.984 . S
H1240 N1228 0.984 . S
H1241 N1228 0.985 . S
C1242 C1243 1.363 . S
C1242 C1248 1.379 . S
C1242 N1250 1.356 . S
C1243 C1242 1.363 . S
C1243 C1249 1.363 1_556 S
C1244 C1245 1.363 1_554 S
C1244 C1249 1.379 . S
C1244 N1251 1.356 . S
C1245 C1244 1.363 1_556 S
C1245 C1248 1.363 . S
N1246 C1248 1.356 . S
N1246 H1258 0.984 . S
N1246 H1259 0.985 . S
N1247 C1249 1.356 . S
N1247 H1252 0.984 . S
N1247 H1253 0.985 . S
C1248 C1242 1.379 . S
C1248 C1245 1.363 . S
C1248 N1246 1.356 . S
C1249 C1243 1.363 1_554 S
C1249 C1244 1.379 . S
C1249 N1247 1.356 . S
N1250 C1242 1.356 . S
N1250 H1256 0.984 . S
N1250 H1257 0.984 . S
N1251 C1244 1.356 . S
N1251 H1254 0.984 . S
N1251 H1255 0.985 . S
H1252 N1247 0.984 . S
H1253 N1247 0.985 . S
H1254 N1251 0.984 . S
H1255 N1251 0.985 . S
H1256 N1250 0.984 . S
H1257 N1250 0.984 . S
H1258 N1246 0.984 . S
H1259 N1246 0.985 . S
C1260 C1261 1.363 . S
C1260 C1266 1.379 . S
C1260 N1268 1.356 . S
C1261 C1260 1.363 . S
C1261 C1267 1.363 . S
C1262 C1263 1.363 . S
C1262 C1267 1.379 . S
C1262 N1269 1.356 1_554 S
C1263 C1262 1.363 . S
C1263 C1266 1.363 . S
N1264 C1266 1.356 . S
N1264 H1276 0.984 . S
N1264 H1277 0.985 . S
N1265 C1267 1.356 1_556 S
N1265 H1270 0.984 1_556 S
N1265 H1271 0.985 . S
C1266 C1260 1.379 . S
C1266 C1263 1.363 . S
C1266 N1264 1.356 . S
C1267 C1261 1.363 . S
C1267 C1262 1.379 . S
C1267 N1265 1.356 1_554 S
N1268 C1260 1.356 . S
N1268 H1274 0.984 . S
N1268 H1275 0.984 . S
N1269 C1262 1.356 1_556 S
N1269 H1272 0.984 . S
N1269 H1273 0.985 . S
H1270 N1265 0.984 1_554 S
H1271 N1265 0.985 . S
H1272 N1269 0.984 . S
H1273 N1269 0.985 . S
H1274 N1268 0.984 . S
H1275 N1268 0.984 . S
H1276 N1264 0.984 . S
H1277 N1264 0.985 . S
C1278 C1279 1.363 . S
C1278 C1284 1.379 . S
C1278 N1286 1.356 . S
C1279 C1278 1.363 . S
C1279 C1285 1.363 . S
C1280 C1281 1.363 . S
C1280 C1285 1.379 . S
C1280 N1287 1.356 . S
C1281 C1280 1.363 . S
C1281 C1284 1.363 . S
N1282 C1284 1.356 . S
N1282 H1294 0.984 . S
N1282 H1295 0.985 . S
N1283 C1285 1.356 . S
N1283 H1288 0.984 . S
N1283 H1289 0.985 . S
C1284 C1278 1.379 . S
C1284 C1281 1.363 . S
C1284 N1282 1.356 . S
C1285 C1279 1.363 . S
C1285 C1280 1.379 . S
C1285 N1283 1.356 . S
N1286 C1278 1.356 . S
N1286 H1292 0.984 . S
N1286 H1293 0.984 . S
N1287 C1280 1.356 . S
N1287 H1290 0.984 . S
N1287 H1291 0.985 . S
H1288 N1283 0.984 . S
H1289 N1283 0.985 . S
H1290 N1287 0.984 . S
H1291 N1287 0.985 . S
H1292 N1286 0.984 . S
H1293 N1286 0.984 . S
H1294 N1282 0.984 . S
H1295 N1282 0.985 . S
C1296 C1297 1.363 . S
C1296 C1302 1.379 . S
C1296 N1304 1.356 1_554 S
C1297 C1296 1.363 . S
C1297 C1303 1.363 . S
C1298 C1299 1.363 . S
C1298 C1303 1.379 . S
C1298 N1305 1.356 . S
C1299 C1298 1.363 . S
C1299 C1302 1.363 . S
N1300 C1302 1.356 1_556 S
N1300 H1312 0.984 . S
N1300 H1313 0.985 . S
N1301 C1303 1.356 . S
N1301 H1306 0.984 . S
N1301 H1307 0.985 . S
C1302 C1296 1.379 . S
C1302 C1299 1.363 . S
C1302 N1300 1.356 1_554 S
C1303 C1297 1.363 . S
C1303 C1298 1.379 . S
C1303 N1301 1.356 . S
N1304 C1296 1.356 1_556 S
N1304 H1310 0.984 . S
N1304 H1311 0.984 1_556 S
N1305 C1298 1.356 . S
N1305 H1308 0.984 . S
N1305 H1309 0.985 . S
H1306 N1301 0.984 . S
H1307 N1301 0.985 . S
H1308 N1305 0.984 . S
H1309 N1305 0.985 . S
H1310 N1304 0.984 . S
H1311 N1304 0.984 1_554 S
H1312 N1300 0.984 . S
H1313 N1300 0.985 . S
C1314 C1315 1.363 . S
C1314 C1320 1.379 1_655 S
C1314 N1322 1.356 . S
C1315 C1314 1.363 . S
C1315 C1321 1.363 . S
C1316 C1317 1.363 . S
C1316 C1321 1.379 1_455 S
C1316 N1323 1.356 . S
C1317 C1316 1.363 . S
C1317 C1320 1.363 . S
N1318 C1320 1.356 . S
N1318 H1330 0.984 . S
N1318 H1331 0.985 . S
N1319 C1321 1.356 . S
N1319 H1324 0.984 . S
N1319 H1325 0.985 . S
C1320 C1314 1.379 1_455 S
C1320 C1317 1.363 . S
C1320 N1318 1.356 . S
C1321 C1315 1.363 . S
C1321 C1316 1.379 1_655 S
C1321 N1319 1.356 . S
N1322 C1314 1.356 . S
N1322 H1328 1.000 . S
N1322 H1329 0.984 . S
N1323 C1316 1.356 . S
N1323 H1326 0.984 . S
N1323 H1327 0.982 . S
H1324 N1319 0.984 . S
H1325 N1319 0.985 . S
H1326 N1323 0.984 . S
H1327 N1323 0.982 . S
H1328 N1322 1.000 . S
H1329 N1322 0.984 . S
H1330 N1318 0.984 . S
H1331 N1318 0.985 . S
C1332 C1333 1.363 . S
C1332 C1338 1.379 . S
C1332 N1340 1.356 . S
C1333 C1332 1.363 . S
C1333 C1339 1.363 . S
C1334 C1335 1.363 . S
C1334 C1339 1.379 . S
C1334 N1341 1.356 . S
C1335 C1334 1.363 . S
C1335 C1338 1.363 . S
N1336 C1338 1.356 . S
N1336 H1348 0.984 . S
N1336 H1349 0.985 . S
N1337 C1339 1.356 . S
N1337 H1342 0.984 . S
N1337 H1343 0.985 . S
C1338 C1332 1.379 . S
C1338 C1335 1.363 . S
C1338 N1336 1.356 . S
C1339 C1333 1.363 . S
C1339 C1334 1.379 . S
C1339 N1337 1.356 . S
N1340 C1332 1.356 . S
N1340 H1346 0.984 . S
N1340 H1347 0.984 . S
N1341 C1334 1.356 . S
N1341 H1344 0.984 . S
N1341 H1345 0.985 . S
H1342 N1337 0.984 . S
H1343 N1337 0.985 . S
H1344 N1341 0.984 . S
H1345 N1341 0.985 . S
H1346 N1340 0.984 . S
H1347 N1340 0.984 . S
H1348 N1336 0.984 . S
H1349 N1336 0.985 . S
C1350 C1351 1.363 . S
C1350 C1356 1.379 1_545 S
C1350 N1358 1.356 . S
C1351 C1350 1.363 . S
C1351 C1357 1.363 . S
C1352 C1353 1.363 1_545 S
C1352 C1357 1.379 . S
C1352 N1359 1.356 1_545 S
C1353 C1352 1.363 1_565 S
C1353 C1356 1.363 . S
N1354 C1356 1.356 . S
N1354 H1366 0.984 . S
N1354 H1367 0.985 . S
N1355 C1357 1.356 . S
N1355 H1360 0.984 . S
N1355 H1361 0.985 . S
C1356 C1350 1.379 1_565 S
C1356 C1353 1.363 . S
C1356 N1354 1.356 . S
C1357 C1351 1.363 . S
C1357 C1352 1.379 . S
C1357 N1355 1.356 . S
N1358 C1350 1.356 . S
N1358 H1364 0.984 . S
N1358 H1365 0.984 . S
N1359 C1352 1.356 1_565 S
N1359 H1362 0.984 . S
N1359 H1363 0.985 . S
H1360 N1355 0.984 . S
H1361 N1355 0.985 . S
H1362 N1359 0.984 . S
H1363 N1359 0.985 . S
H1364 N1358 0.984 . S
H1365 N1358 0.984 . S
H1366 N1354 0.984 . S
H1367 N1354 0.985 . S
C1368 C1369 1.363 . S
C1368 C1374 1.379 . S
C1368 N1376 1.356 . S
C1369 C1368 1.363 . S
C1369 C1375 1.363 . S
C1370 C1371 1.363 . S
C1370 C1375 1.379 . S
C1370 N1377 1.356 . S
C1371 C1370 1.363 . S
C1371 C1374 1.363 . S
N1372 C1374 1.356 . S
N1372 H1384 0.984 . S
N1372 H1385 0.985 . S
N1373 C1375 1.356 . S
N1373 H1378 0.984 . S
N1373 H1379 0.985 . S
C1374 C1368 1.379 . S
C1374 C1371 1.363 . S
C1374 N1372 1.356 . S
C1375 C1369 1.363 . S
C1375 C1370 1.379 . S
C1375 N1373 1.356 . S
N1376 C1368 1.356 . S
N1376 H1382 0.984 . S
N1376 H1383 0.984 . S
N1377 C1370 1.356 . S
N1377 H1380 0.984 . S
N1377 H1381 0.985 . S
H1378 N1373 0.984 . S
H1379 N1373 0.985 . S
H1380 N1377 0.984 . S
H1381 N1377 0.985 . S
H1382 N1376 0.984 . S
H1383 N1376 0.984 . S
H1384 N1372 0.984 . S
H1385 N1372 0.985 . S
C1386 C1387 1.363 . S
C1386 C1392 1.379 . S
C1386 N1394 1.356 . S
C1387 C1386 1.363 . S
C1387 C1393 1.363 . S
C1388 C1389 1.363 . S
C1388 C1393 1.379 . S
C1388 N1395 1.356 . S
C1389 C1388 1.363 . S
C1389 C1392 1.363 . S
N1390 C1392 1.356 . S
N1390 H1402 0.984 . S
N1390 H1403 0.985 . S
N1391 C1393 1.356 . S
N1391 H1396 0.984 . S
N1391 H1397 0.985 . S
C1392 C1386 1.379 . S
C1392 C1389 1.363 . S
C1392 N1390 1.356 . S
C1393 C1387 1.363 . S
C1393 C1388 1.379 . S
C1393 N1391 1.356 . S
N1394 C1386 1.356 . S
N1394 H1400 0.984 . S
N1394 H1401 0.984 . S
N1395 C1388 1.356 . S
N1395 H1398 0.984 . S
N1395 H1399 0.985 . S
H1396 N1391 0.984 . S
H1397 N1391 0.985 . S
H1398 N1395 0.984 . S
H1399 N1395 0.985 . S
H1400 N1394 0.984 . S
H1401 N1394 0.984 . S
H1402 N1390 0.984 . S
H1403 N1390 0.985 . S
C1404 C1405 1.363 . S
C1404 C1410 1.379 . S
C1404 N1412 1.356 . S
C1405 C1404 1.363 . S
C1405 C1411 1.363 . S
C1406 C1407 1.363 . S
C1406 C1411 1.379 . S
C1406 N1413 1.356 . S
C1407 C1406 1.363 . S
C1407 C1410 1.363 . S
N1408 C1410 1.356 . S
N1408 H1420 0.984 . S
N1408 H1421 0.985 . S
N1409 C1411 1.356 . S
N1409 H1414 0.984 . S
N1409 H1415 0.985 . S
C1410 C1404 1.379 . S
C1410 C1407 1.363 . S
C1410 N1408 1.356 . S
C1411 C1405 1.363 . S
C1411 C1406 1.379 . S
C1411 N1409 1.356 . S
N1412 C1404 1.356 . S
N1412 H1418 0.984 . S
N1412 H1419 0.984 . S
N1413 C1406 1.356 . S
N1413 H1416 0.984 . S
N1413 H1417 0.985 . S
H1414 N1409 0.984 . S
H1415 N1409 0.985 . S
H1416 N1413 0.984 . S
H1417 N1413 0.985 . S
H1418 N1412 0.984 . S
H1419 N1412 0.984 . S
H1420 N1408 0.984 . S
H1421 N1408 0.985 . S
C1422 C1423 1.363 . S
C1422 C1428 1.379 . S
C1422 N1430 1.356 . S
C1423 C1422 1.363 . S
C1423 C1429 1.363 . S
C1424 C1425 1.363 . S
C1424 C1429 1.379 . S
C1424 N1431 1.356 . S
C1425 C1424 1.363 . S
C1425 C1428 1.363 . S
N1426 C1428 1.356 . S
N1426 H1438 0.984 . S
N1426 H1439 0.985 . S
N1427 C1429 1.356 . S
N1427 H1432 0.984 . S
N1427 H1433 0.985 . S
C1428 C1422 1.379 . S
C1428 C1425 1.363 . S
C1428 N1426 1.356 . S
C1429 C1423 1.363 . S
C1429 C1424 1.379 . S
C1429 N1427 1.356 . S
N1430 C1422 1.356 . S
N1430 H1436 0.984 . S
N1430 H1437 0.984 . S
N1431 C1424 1.356 . S
N1431 H1434 0.984 . S
N1431 H1435 0.985 . S
H1432 N1427 0.984 . S
H1433 N1427 0.985 . S
H1434 N1431 0.984 . S
H1435 N1431 0.985 . S
H1436 N1430 0.984 . S
H1437 N1430 0.984 . S
H1438 N1426 0.984 . S
H1439 N1426 0.985 . S
C1440 C1441 1.363 . S
C1440 C1446 1.379 . S
C1440 N1448 1.356 . S
C1441 C1440 1.363 . S
C1441 C1447 1.363 . S
C1442 C1443 1.363 . S
C1442 C1447 1.379 . S
C1442 N1449 1.356 . S
C1443 C1442 1.363 . S
C1443 C1446 1.363 . S
N1444 C1446 1.356 . S
N1444 H1456 0.984 . S
N1444 H1457 0.985 . S
N1445 C1447 1.356 . S
N1445 H1450 0.984 . S
N1445 H1451 0.985 . S
C1446 C1440 1.379 . S
C1446 C1443 1.363 . S
C1446 N1444 1.356 . S
C1447 C1441 1.363 . S
C1447 C1442 1.379 . S
C1447 N1445 1.356 . S
N1448 C1440 1.356 . S
N1448 H1454 0.984 . S
N1448 H1455 0.984 . S
N1449 C1442 1.356 . S
N1449 H1452 0.984 . S
N1449 H1453 0.985 . S
H1450 N1445 0.984 . S
H1451 N1445 0.985 . S
H1452 N1449 0.984 . S
H1453 N1449 0.985 . S
H1454 N1448 0.984 . S
H1455 N1448 0.984 . S
H1456 N1444 0.984 . S
H1457 N1444 0.985 . S
C1458 C1459 1.363 . S
C1458 C1464 1.379 . S
C1458 N1466 1.356 . S
C1459 C1458 1.363 . S
C1459 C1465 1.363 . S
C1460 C1461 1.363 . S
C1460 C1465 1.379 . S
C1460 N1467 1.356 . S
C1461 C1460 1.363 . S
C1461 C1464 1.363 . S
N1462 C1464 1.356 . S
N1462 H1474 0.984 . S
N1462 H1475 0.985 . S
N1463 C1465 1.356 . S
N1463 H1468 0.984 . S
N1463 H1469 0.985 . S
C1464 C1458 1.379 . S
C1464 C1461 1.363 . S
C1464 N1462 1.356 . S
C1465 C1459 1.363 . S
C1465 C1460 1.379 . S
C1465 N1463 1.356 . S
N1466 C1458 1.356 . S
N1466 H1472 0.984 . S
N1466 H1473 0.984 . S
N1467 C1460 1.356 . S
N1467 H1470 0.984 . S
N1467 H1471 0.985 . S
H1468 N1463 0.984 . S
H1469 N1463 0.985 . S
H1470 N1467 0.984 . S
H1471 N1467 0.985 . S
H1472 N1466 0.984 . S
H1473 N1466 0.984 . S
H1474 N1462 0.984 . S
H1475 N1462 0.985 . S
C1476 C1477 1.363 . S
C1476 C1482 1.379 . S
C1476 N1484 1.356 . S
C1477 C1476 1.363 . S
C1477 C1483 1.363 . S
C1478 C1479 1.363 . S
C1478 C1483 1.379 . S
C1478 N1485 1.356 . S
C1479 C1478 1.363 . S
C1479 C1482 1.363 . S
N1480 C1482 1.356 . S
N1480 H1492 0.984 . S
N1480 H1493 0.985 . S
N1481 C1483 1.356 . S
N1481 H1486 0.984 . S
N1481 H1487 0.985 . S
C1482 C1476 1.379 . S
C1482 C1479 1.363 . S
C1482 N1480 1.356 . S
C1483 C1477 1.363 . S
C1483 C1478 1.379 . S
C1483 N1481 1.356 . S
N1484 C1476 1.356 . S
N1484 H1490 0.984 . S
N1484 H1491 0.983 . S
N1485 C1478 1.356 . S
N1485 H1488 0.984 . S
N1485 H1489 0.985 . S
H1486 N1481 0.984 . S
H1487 N1481 0.985 . S
H1488 N1485 0.984 . S
H1489 N1485 0.985 . S
H1490 N1484 0.984 . S
H1491 N1484 0.983 . S
H1492 N1480 0.984 . S
H1493 N1480 0.985 . S
C1494 C1495 1.363 . S
C1494 C1500 1.379 . S
C1494 N1502 1.356 . S
C1495 C1494 1.363 . S
C1495 C1501 1.363 . S
C1496 C1497 1.363 . S
C1496 C1501 1.379 . S
C1496 N1503 1.356 . S
C1497 C1496 1.363 . S
C1497 C1500 1.363 . S
N1498 C1500 1.356 . S
N1498 H1510 0.984 . S
N1498 H1511 0.985 . S
N1499 C1501 1.356 . S
N1499 H1504 0.984 . S
N1499 H1505 0.985 . S
C1500 C1494 1.379 . S
C1500 C1497 1.363 . S
C1500 N1498 1.356 . S
C1501 C1495 1.363 . S
C1501 C1496 1.379 . S
C1501 N1499 1.356 . S
N1502 C1494 1.356 . S
N1502 H1508 0.984 . S
N1502 H1509 0.984 . S
N1503 C1496 1.356 . S
N1503 H1506 0.984 . S
N1503 H1507 0.985 . S
H1504 N1499 0.984 . S
H1505 N1499 0.985 . S
H1506 N1503 0.984 . S
H1507 N1503 0.985 . S
H1508 N1502 0.984 . S
H1509 N1502 0.984 . S
H1510 N1498 0.984 . S
H1511 N1498 0.985 . S
C1512 C1513 1.363 . S
C1512 C1518 1.379 . S
C1512 N1520 1.356 . S
C1513 C1512 1.363 . S
C1513 C1519 1.363 . S
C1514 C1515 1.363 . S
C1514 C1519 1.379 . S
C1514 N1521 1.356 . S
C1515 C1514 1.363 . S
C1515 C1518 1.363 . S
N1516 C1518 1.356 . S
N1516 H1528 0.984 . S
N1516 H1529 0.985 . S
N1517 C1519 1.356 . S
N1517 H1522 0.984 . S
N1517 H1523 0.985 . S
C1518 C1512 1.379 . S
C1518 C1515 1.363 . S
C1518 N1516 1.356 . S
C1519 C1513 1.363 . S
C1519 C1514 1.379 . S
C1519 N1517 1.356 . S
N1520 C1512 1.356 . S
N1520 H1526 0.984 . S
N1520 H1527 0.984 . S
N1521 C1514 1.356 . S
N1521 H1524 0.984 . S
N1521 H1525 0.985 . S
H1522 N1517 0.984 . S
H1523 N1517 0.985 . S
H1524 N1521 0.984 . S
H1525 N1521 0.985 . S
H1526 N1520 0.984 . S
H1527 N1520 0.984 . S
H1528 N1516 0.984 . S
H1529 N1516 0.985 . S
C1530 C1531 1.363 . S
C1530 C1536 1.379 . S
C1530 N1538 1.356 . S
C1531 C1530 1.363 . S
C1531 C1537 1.363 . S
C1532 C1533 1.363 . S
C1532 C1537 1.379 . S
C1532 N1539 1.356 . S
C1533 C1532 1.363 . S
C1533 C1536 1.363 . S
N1534 C1536 1.356 . S
N1534 H1546 0.984 . S
N1534 H1547 0.985 . S
N1535 C1537 1.356 . S
N1535 H1540 0.984 . S
N1535 H1541 0.985 . S
C1536 C1530 1.379 . S
C1536 C1533 1.363 . S
C1536 N1534 1.356 . S
C1537 C1531 1.363 . S
C1537 C1532 1.379 . S
C1537 N1535 1.356 . S
N1538 C1530 1.356 . S
N1538 H1544 0.984 . S
N1538 H1545 0.984 . S
N1539 C1532 1.356 . S
N1539 H1542 0.984 . S
N1539 H1543 0.985 . S
H1540 N1535 0.984 . S
H1541 N1535 0.985 . S
H1542 N1539 0.984 . S
H1543 N1539 0.985 . S
H1544 N1538 0.984 . S
H1545 N1538 0.984 . S
H1546 N1534 0.984 . S
H1547 N1534 0.985 . S
C1548 C1549 1.363 . S
C1548 C1554 1.379 . S
C1548 N1556 1.356 . S
C1549 C1548 1.363 . S
C1549 C1555 1.363 . S
C1550 C1551 1.363 . S
C1550 C1555 1.379 . S
C1550 N1557 1.356 . S
C1551 C1550 1.363 . S
C1551 C1554 1.363 . S
N1552 C1554 1.356 . S
N1552 H1564 0.984 . S
N1552 H1565 0.985 . S
N1553 C1555 1.356 . S
N1553 H1558 0.984 . S
N1553 H1559 0.985 . S
C1554 C1548 1.379 . S
C1554 C1551 1.363 . S
C1554 N1552 1.356 . S
C1555 C1549 1.363 . S
C1555 C1550 1.379 . S
C1555 N1553 1.356 . S
N1556 C1548 1.356 . S
N1556 H1562 0.984 . S
N1556 H1563 0.984 . S
N1557 C1550 1.356 . S
N1557 H1560 0.984 . S
N1557 H1561 0.985 . S
H1558 N1553 0.984 . S
H1559 N1553 0.985 . S
H1560 N1557 0.984 . S
H1561 N1557 0.985 . S
H1562 N1556 0.984 . S
H1563 N1556 0.984 . S
H1564 N1552 0.984 . S
H1565 N1552 0.985 . S
C1566 C1567 1.363 . S
C1566 C1572 1.379 . S
C1566 N1574 1.356 . S
C1567 C1566 1.363 . S
C1567 C1573 1.363 . S
C1568 C1569 1.363 . S
C1568 C1573 1.379 . S
C1568 N1575 1.356 . S
C1569 C1568 1.363 . S
C1569 C1572 1.363 . S
N1570 C1572 1.356 . S
N1570 H1582 0.984 . S
N1570 H1583 0.985 . S
N1571 C1573 1.356 . S
N1571 H1576 0.984 . S
N1571 H1577 0.985 . S
C1572 C1566 1.379 . S
C1572 C1569 1.363 . S
C1572 N1570 1.356 . S
C1573 C1567 1.363 . S
C1573 C1568 1.379 . S
C1573 N1571 1.356 . S
N1574 C1566 1.356 . S
N1574 H1580 0.984 . S
N1574 H1581 0.984 . S
N1575 C1568 1.356 . S
N1575 H1578 0.984 . S
N1575 H1579 0.985 . S
H1576 N1571 0.984 . S
H1577 N1571 0.985 . S
H1578 N1575 0.984 . S
H1579 N1575 0.985 . S
H1580 N1574 0.984 . S
H1581 N1574 0.984 . S
H1582 N1570 0.984 . S
H1583 N1570 0.985 . S
C1584 C1585 1.363 . S
C1584 C1590 1.379 1_565 S
C1584 N1592 1.356 . S
C1585 C1584 1.363 . S
C1585 C1591 1.363 . S
C1586 C1587 1.363 . S
C1586 C1591 1.379 1_545 S
C1586 N1593 1.356 . S
C1587 C1586 1.363 . S
C1587 C1590 1.363 . S
N1588 C1590 1.356 . S
N1588 H1600 0.984 . S
N1588 H1601 0.985 . S
N1589 C1591 1.356 . S
N1589 H1594 0.984 . S
N1589 H1595 0.985 . S
C1590 C1584 1.379 1_545 S
C1590 C1587 1.363 . S
C1590 N1588 1.356 . S
C1591 C1585 1.363 . S
C1591 C1586 1.379 1_565 S
C1591 N1589 1.356 . S
N1592 C1584 1.356 . S
N1592 H1598 0.984 . S
N1592 H1599 0.984 . S
N1593 C1586 1.356 . S
N1593 H1596 0.984 . S
N1593 H1597 0.985 . S
H1594 N1589 0.984 . S
H1595 N1589 0.985 . S
H1596 N1593 0.984 . S
H1597 N1593 0.985 . S
H1598 N1592 0.984 . S
H1599 N1592 0.984 . S
H1600 N1588 0.984 . S
H1601 N1588 0.985 . S
C1602 C1603 1.363 . S
C1602 C1608 1.379 . S
C1602 N1610 1.356 . S
C1603 C1602 1.363 . S
C1603 C1609 1.363 1_455 S
C1604 C1605 1.363 . S
C1604 C1609 1.379 . S
C1604 N1611 1.356 . S
C1605 C1604 1.363 . S
C1605 C1608 1.363 1_655 S
N1606 C1608 1.356 . S
N1606 H1618 0.984 . S
N1606 H1619 0.985 1_455 S
N1607 C1609 1.356 1_455 S
N1607 H1612 0.984 . S
N1607 H1613 0.985 1_455 S
C1608 C1602 1.379 . S
C1608 C1605 1.363 1_455 S
C1608 N1606 1.356 . S
C1609 C1603 1.363 1_655 S
C1609 C1604 1.379 . S
C1609 N1607 1.356 1_655 S
N1610 C1602 1.356 . S
N1610 H1616 0.984 . S
N1610 H1617 0.984 . S
N1611 C1604 1.356 . S
N1611 H1614 0.984 . S
N1611 H1615 0.985 . S
H1612 N1607 0.984 . S
H1613 N1607 0.985 1_655 S
H1614 N1611 0.984 . S
H1615 N1611 0.985 . S
H1616 N1610 0.984 . S
H1617 N1610 0.984 . S
H1618 N1606 0.984 . S
H1619 N1606 0.985 1_655 S
C1620 C1621 1.363 . S
C1620 C1626 1.379 . S
C1620 N1628 1.356 . S
C1621 C1620 1.363 . S
C1621 C1627 1.363 . S
C1622 C1623 1.363 . S
C1622 C1627 1.379 . S
C1622 N1629 1.356 . S
C1623 C1622 1.363 . S
C1623 C1626 1.363 . S
N1624 C1626 1.356 . S
N1624 H1636 0.984 . S
N1624 H1637 0.985 . S
N1625 C1627 1.356 . S
N1625 H1630 0.984 . S
N1625 H1631 0.985 . S
C1626 C1620 1.379 . S
C1626 C1623 1.363 . S
C1626 N1624 1.356 . S
C1627 C1621 1.363 . S
C1627 C1622 1.379 . S
C1627 N1625 1.356 . S
N1628 C1620 1.356 . S
N1628 H1634 0.984 . S
N1628 H1635 0.984 . S
N1629 C1622 1.356 . S
N1629 H1632 0.984 . S
N1629 H1633 0.985 . S
H1630 N1625 0.984 . S
H1631 N1625 0.985 . S
H1632 N1629 0.984 . S
H1633 N1629 0.985 . S
H1634 N1628 0.984 . S
H1635 N1628 0.984 . S
H1636 N1624 0.984 . S
H1637 N1624 0.985 . S
C1638 C1639 1.363 . S
C1638 C1644 1.379 . S
C1638 N1646 1.356 . S
C1639 C1638 1.363 . S
C1639 C1645 1.363 . S
C1640 C1641 1.363 . S
C1640 C1645 1.379 . S
C1640 N1647 1.356 . S
C1641 C1640 1.363 . S
C1641 C1644 1.363 . S
N1642 C1644 1.356 . S
N1642 H1654 0.984 . S
N1642 H1655 0.985 . S
N1643 C1645 1.356 . S
N1643 H1648 0.984 . S
N1643 H1649 0.985 . S
C1644 C1638 1.379 . S
C1644 C1641 1.363 . S
C1644 N1642 1.356 . S
C1645 C1639 1.363 . S
C1645 C1640 1.379 . S
C1645 N1643 1.356 . S
N1646 C1638 1.356 . S
N1646 H1652 0.984 . S
N1646 H1653 0.984 . S
N1647 C1640 1.356 . S
N1647 H1650 0.984 . S
N1647 H1651 0.985 . S
H1648 N1643 0.984 . S
H1649 N1643 0.985 . S
H1650 N1647 0.984 . S
H1651 N1647 0.985 . S
H1652 N1646 0.984 . S
H1653 N1646 0.984 . S
H1654 N1642 0.984 . S
H1655 N1642 0.985 . S
C1656 C1657 1.363 . S
C1656 C1662 1.379 . S
C1656 N1664 1.356 . S
C1657 C1656 1.363 . S
C1657 C1663 1.363 . S
C1658 C1659 1.363 . S
C1658 C1663 1.379 . S
C1658 N1665 1.356 . S
C1659 C1658 1.363 . S
C1659 C1662 1.363 . S
N1660 C1662 1.356 . S
N1660 H1672 0.984 . S
N1660 H1673 0.985 . S
N1661 C1663 1.356 . S
N1661 H1666 0.984 . S
N1661 H1667 0.985 . S
C1662 C1656 1.379 . S
C1662 C1659 1.363 . S
C1662 N1660 1.356 . S
C1663 C1657 1.363 . S
C1663 C1658 1.379 . S
C1663 N1661 1.356 . S
N1664 C1656 1.356 . S
N1664 H1670 0.984 . S
N1664 H1671 0.984 . S
N1665 C1658 1.356 . S
N1665 H1668 0.984 . S
N1665 H1669 0.985 . S
H1666 N1661 0.984 . S
H1667 N1661 0.985 . S
H1668 N1665 0.984 . S
H1669 N1665 0.985 . S
H1670 N1664 0.984 . S
H1671 N1664 0.984 . S
H1672 N1660 0.984 . S
H1673 N1660 0.985 . S
C1674 C1675 1.363 . S
C1674 C1680 1.379 . S
C1674 N1682 1.356 . S
C1675 C1674 1.363 . S
C1675 C1681 1.363 . S
C1676 C1677 1.363 . S
C1676 C1681 1.379 . S
C1676 N1683 1.356 . S
C1677 C1676 1.363 . S
C1677 C1680 1.363 . S
N1678 C1680 1.356 . S
N1678 H1690 0.984 . S
N1678 H1691 0.985 . S
N1679 C1681 1.356 . S
N1679 H1684 0.984 . S
N1679 H1685 0.985 . S
C1680 C1674 1.379 . S
C1680 C1677 1.363 . S
C1680 N1678 1.356 . S
C1681 C1675 1.363 . S
C1681 C1676 1.379 . S
C1681 N1679 1.356 . S
N1682 C1674 1.356 . S
N1682 H1688 0.984 . S
N1682 H1689 0.984 . S
N1683 C1676 1.356 . S
N1683 H1686 0.984 . S
N1683 H1687 0.985 . S
H1684 N1679 0.984 . S
H1685 N1679 0.985 . S
H1686 N1683 0.984 . S
H1687 N1683 0.985 . S
H1688 N1682 0.984 . S
H1689 N1682 0.984 . S
H1690 N1678 0.984 . S
H1691 N1678 0.985 . S
C1692 C1693 1.363 . S
C1692 C1698 1.379 . S
C1692 N1700 1.356 . S
C1693 C1692 1.363 . S
C1693 C1699 1.363 . S
C1694 C1695 1.363 . S
C1694 C1699 1.379 . S
C1694 N1701 1.356 . S
C1695 C1694 1.363 . S
C1695 C1698 1.363 . S
N1696 C1698 1.356 . S
N1696 H1708 0.984 . S
N1696 H1709 0.985 . S
N1697 C1699 1.356 . S
N1697 H1702 0.984 . S
N1697 H1703 0.985 . S
C1698 C1692 1.379 . S
C1698 C1695 1.363 . S
C1698 N1696 1.356 . S
C1699 C1693 1.363 . S
C1699 C1694 1.379 . S
C1699 N1697 1.356 . S
N1700 C1692 1.356 . S
N1700 H1706 0.984 . S
N1700 H1707 0.984 . S
N1701 C1694 1.356 . S
N1701 H1704 0.984 . S
N1701 H1705 0.985 . S
H1702 N1697 0.984 . S
H1703 N1697 0.985 . S
H1704 N1701 0.984 . S
H1705 N1701 0.985 . S
H1706 N1700 0.984 . S
H1707 N1700 0.984 . S
H1708 N1696 0.984 . S
H1709 N1696 0.985 . S
C1710 C1711 1.363 . S
C1710 C1716 1.379 . S
C1710 N1718 1.356 . S
C1711 C1710 1.363 . S
C1711 C1717 1.363 . S
C1712 C1713 1.363 . S
C1712 C1717 1.379 . S
C1712 N1719 1.356 . S
C1713 C1712 1.363 . S
C1713 C1716 1.363 . S
N1714 C1716 1.356 . S
N1714 H1726 0.984 . S
N1714 H1727 0.985 . S
N1715 C1717 1.356 . S
N1715 H1720 0.984 . S
N1715 H1721 0.985 . S
C1716 C1710 1.379 . S
C1716 C1713 1.363 . S
C1716 N1714 1.356 . S
C1717 C1711 1.363 . S
C1717 C1712 1.379 . S
C1717 N1715 1.356 . S
N1718 C1710 1.356 . S
N1718 H1724 0.984 . S
N1718 H1725 0.984 . S
N1719 C1712 1.356 . S
N1719 H1722 0.984 . S
N1719 H1723 0.985 . S
H1720 N1715 0.984 . S
H1721 N1715 0.985 . S
H1722 N1719 0.984 . S
H1723 N1719 0.985 . S
H1724 N1718 0.984 . S
H1725 N1718 0.984 . S
H1726 N1714 0.984 . S
H1727 N1714 0.985 . S
C1728 C1729 1.363 . S
C1728 C1734 1.379 . S
C1728 N1736 1.356 . S
C1729 C1728 1.363 . S
C1729 C1735 1.363 . S
C1730 C1731 1.363 . S
C1730 C1735 1.379 . S
C1730 N1737 1.356 . S
C1731 C1730 1.363 . S
C1731 C1734 1.363 . S
N1732 C1734 1.356 . S
N1732 H1744 0.984 . S
N1732 H1745 0.985 . S
N1733 C1735 1.356 . S
N1733 H1738 0.984 . S
N1733 H1739 0.985 . S
C1734 C1728 1.379 . S
C1734 C1731 1.363 . S
C1734 N1732 1.356 . S
C1735 C1729 1.363 . S
C1735 C1730 1.379 . S
C1735 N1733 1.356 . S
N1736 C1728 1.356 . S
N1736 H1742 0.984 . S
N1736 H1743 0.984 . S
N1737 C1730 1.356 . S
N1737 H1740 0.984 . S
N1737 H1741 0.985 . S
H1738 N1733 0.984 . S
H1739 N1733 0.985 . S
H1740 N1737 0.984 . S
H1741 N1737 0.985 . S
H1742 N1736 0.984 . S
H1743 N1736 0.984 . S
H1744 N1732 0.984 . S
H1745 N1732 0.985 . S
C1746 C1747 1.363 . S
C1746 C1752 1.379 . S
C1746 N1754 1.356 . S
C1747 C1746 1.363 . S
C1747 C1753 1.363 . S
C1748 C1749 1.363 . S
C1748 C1753 1.379 . S
C1748 N1755 1.356 . S
C1749 C1748 1.363 . S
C1749 C1752 1.363 . S
N1750 C1752 1.356 . S
N1750 H1762 0.984 . S
N1750 H1763 0.985 . S
N1751 C1753 1.356 . S
N1751 H1756 0.984 . S
N1751 H1757 0.985 . S
C1752 C1746 1.379 . S
C1752 C1749 1.363 . S
C1752 N1750 1.356 . S
C1753 C1747 1.363 . S
C1753 C1748 1.379 . S
C1753 N1751 1.356 . S
N1754 C1746 1.356 . S
N1754 H1760 0.984 . S
N1754 H1761 0.984 . S
N1755 C1748 1.356 . S
N1755 H1758 0.984 . S
N1755 H1759 0.985 . S
H1756 N1751 0.984 . S
H1757 N1751 0.985 . S
H1758 N1755 0.984 . S
H1759 N1755 0.985 . S
H1760 N1754 0.984 . S
H1761 N1754 0.984 . S
H1762 N1750 0.984 . S
H1763 N1750 0.985 . S
C1764 C1765 1.363 . S
C1764 C1770 1.379 . S
C1764 N1772 1.356 . S
C1765 C1764 1.363 . S
C1765 C1771 1.363 . S
C1766 C1767 1.363 . S
C1766 C1771 1.379 . S
C1766 N1773 1.356 . S
C1767 C1766 1.363 . S
C1767 C1770 1.363 . S
N1768 C1770 1.356 . S
N1768 H1780 0.984 . S
N1768 H1781 0.985 . S
N1769 C1771 1.356 . S
N1769 H1774 0.984 . S
N1769 H1775 0.985 . S
C1770 C1764 1.379 . S
C1770 C1767 1.363 . S
C1770 N1768 1.356 . S
C1771 C1765 1.363 . S
C1771 C1766 1.379 . S
C1771 N1769 1.356 . S
N1772 C1764 1.356 . S
N1772 H1778 0.984 . S
N1772 H1779 0.984 . S
N1773 C1766 1.356 . S
N1773 H1776 0.984 . S
N1773 H1777 0.985 . S
H1774 N1769 0.984 . S
H1775 N1769 0.985 . S
H1776 N1773 0.984 . S
H1777 N1773 0.985 . S
H1778 N1772 0.984 . S
H1779 N1772 0.984 . S
H1780 N1768 0.984 . S
H1781 N1768 0.985 . S
C1782 C1783 1.363 . S
C1782 C1788 1.379 . S
C1782 N1790 1.356 . S
C1783 C1782 1.363 . S
C1783 C1789 1.363 . S
C1784 C1785 1.363 . S
C1784 C1789 1.379 . S
C1784 N1791 1.356 . S
C1785 C1784 1.363 . S
C1785 C1788 1.363 . S
N1786 C1788 1.356 . S
N1786 H1798 0.984 . S
N1786 H1799 0.985 . S
N1787 C1789 1.356 . S
N1787 H1792 0.984 . S
N1787 H1793 0.985 . S
C1788 C1782 1.379 . S
C1788 C1785 1.363 . S
C1788 N1786 1.356 . S
C1789 C1783 1.363 . S
C1789 C1784 1.379 . S
C1789 N1787 1.356 . S
N1790 C1782 1.356 . S
N1790 H1796 0.984 . S
N1790 H1797 0.984 . S
N1791 C1784 1.356 . S
N1791 H1794 0.984 . S
N1791 H1795 0.985 . S
H1792 N1787 0.984 . S
H1793 N1787 0.985 . S
H1794 N1791 0.984 . S
H1795 N1791 0.985 . S
H1796 N1790 0.984 . S
H1797 N1790 0.984 . S
H1798 N1786 0.984 . S
H1799 N1786 0.985 . S
C1800 C1801 1.363 . S
C1800 C1806 1.379 . S
C1800 N1808 1.356 . S
C1801 C1800 1.363 . S
C1801 C1807 1.363 . S
C1802 C1803 1.363 . S
C1802 C1807 1.379 . S
C1802 N1809 1.356 . S
C1803 C1802 1.363 . S
C1803 C1806 1.363 . S
N1804 C1806 1.356 . S
N1804 H1816 0.984 . S
N1804 H1817 0.985 . S
N1805 C1807 1.356 . S
N1805 H1810 0.984 . S
N1805 H1811 0.985 . S
C1806 C1800 1.379 . S
C1806 C1803 1.363 . S
C1806 N1804 1.356 . S
C1807 C1801 1.363 . S
C1807 C1802 1.379 . S
C1807 N1805 1.356 . S
N1808 C1800 1.356 . S
N1808 H1814 0.984 . S
N1808 H1815 0.984 . S
N1809 C1802 1.356 . S
N1809 H1812 0.984 . S
N1809 H1813 0.985 . S
H1810 N1805 0.984 . S
H1811 N1805 0.985 . S
H1812 N1809 0.984 . S
H1813 N1809 0.985 . S
H1814 N1808 0.984 . S
H1815 N1808 0.984 . S
H1816 N1804 0.984 . S
H1817 N1804 0.985 . S
C1818 C1819 1.363 . S
C1818 C1824 1.379 . S
C1818 N1826 1.356 . S
C1819 C1818 1.363 . S
C1819 C1825 1.363 . S
C1820 C1821 1.363 . S
C1820 C1825 1.379 . S
C1820 N1827 1.356 . S
C1821 C1820 1.363 . S
C1821 C1824 1.363 . S
N1822 C1824 1.356 . S
N1822 H1834 0.984 . S
N1822 H1835 0.985 . S
N1823 C1825 1.356 . S
N1823 H1828 0.984 . S
N1823 H1829 0.985 . S
C1824 C1818 1.379 . S
C1824 C1821 1.363 . S
C1824 N1822 1.356 . S
C1825 C1819 1.363 . S
C1825 C1820 1.379 . S
C1825 N1823 1.356 . S
N1826 C1818 1.356 . S
N1826 H1832 0.984 . S
N1826 H1833 0.984 . S
N1827 C1820 1.356 . S
N1827 H1830 0.984 . S
N1827 H1831 0.985 . S
H1828 N1823 0.984 . S
H1829 N1823 0.985 . S
H1830 N1827 0.984 . S
H1831 N1827 0.985 . S
H1832 N1826 0.984 . S
H1833 N1826 0.984 . S
H1834 N1822 0.984 . S
H1835 N1822 0.985 . S
C1836 C1837 1.363 . S
C1836 C1842 1.379 . S
C1836 N1844 1.356 . S
C1837 C1836 1.363 . S
C1837 C1843 1.363 . S
C1838 C1839 1.363 . S
C1838 C1843 1.379 . S
C1838 N1845 1.356 . S
C1839 C1838 1.363 . S
C1839 C1842 1.363 . S
N1840 C1842 1.356 . S
N1840 H1852 0.984 . S
N1840 H1853 0.985 . S
N1841 C1843 1.356 . S
N1841 H1846 0.984 . S
N1841 H1847 0.985 . S
C1842 C1836 1.379 . S
C1842 C1839 1.363 . S
C1842 N1840 1.356 . S
C1843 C1837 1.363 . S
C1843 C1838 1.379 . S
C1843 N1841 1.356 . S
N1844 C1836 1.356 . S
N1844 H1850 0.984 . S
N1844 H1851 0.984 . S
N1845 C1838 1.356 . S
N1845 H1848 0.984 . S
N1845 H1849 0.985 . S
H1846 N1841 0.984 . S
H1847 N1841 0.985 . S
H1848 N1845 0.984 . S
H1849 N1845 0.985 . S
H1850 N1844 0.984 . S
H1851 N1844 0.984 . S
H1852 N1840 0.984 . S
H1853 N1840 0.985 . S
C1854 C1855 1.363 . S
C1854 C1860 1.379 . S
C1854 N1862 1.356 . S
C1855 C1854 1.363 . S
C1855 C1861 1.363 . S
C1856 C1857 1.363 . S
C1856 C1861 1.379 . S
C1856 N1863 1.356 . S
C1857 C1856 1.363 . S
C1857 C1860 1.363 . S
N1858 C1860 1.356 . S
N1858 H1870 0.984 . S
N1858 H1871 0.985 . S
N1859 C1861 1.356 . S
N1859 H1864 0.984 . S
N1859 H1865 0.985 . S
C1860 C1854 1.379 . S
C1860 C1857 1.363 . S
C1860 N1858 1.356 . S
C1861 C1855 1.363 . S
C1861 C1856 1.379 . S
C1861 N1859 1.356 . S
N1862 C1854 1.356 . S
N1862 H1868 0.984 . S
N1862 H1869 0.984 . S
N1863 C1856 1.356 . S
N1863 H1866 0.984 . S
N1863 H1867 0.985 . S
H1864 N1859 0.984 . S
H1865 N1859 0.985 . S
H1866 N1863 0.984 . S
H1867 N1863 0.985 . S
H1868 N1862 0.984 . S
H1869 N1862 0.984 . S
H1870 N1858 0.984 . S
H1871 N1858 0.985 . S
C1872 C1873 1.363 . S
C1872 C1878 1.379 . S
C1872 N1880 1.356 . S
C1873 C1872 1.363 . S
C1873 C1879 1.363 . S
C1874 C1875 1.363 . S
C1874 C1879 1.379 . S
C1874 N1881 1.356 . S
C1875 C1874 1.363 . S
C1875 C1878 1.363 . S
N1876 C1878 1.356 . S
N1876 H1888 0.984 . S
N1876 H1889 0.985 . S
N1877 C1879 1.356 . S
N1877 H1882 0.984 . S
N1877 H1883 0.985 . S
C1878 C1872 1.379 . S
C1878 C1875 1.363 . S
C1878 N1876 1.356 . S
C1879 C1873 1.363 . S
C1879 C1874 1.379 . S
C1879 N1877 1.356 . S
N1880 C1872 1.356 . S
N1880 H1886 0.984 . S
N1880 H1887 0.984 . S
N1881 C1874 1.356 . S
N1881 H1884 0.984 . S
N1881 H1885 0.985 . S
H1882 N1877 0.984 . S
H1883 N1877 0.985 . S
H1884 N1881 0.984 . S
H1885 N1881 0.985 . S
H1886 N1880 0.984 . S
H1887 N1880 0.984 . S
H1888 N1876 0.984 . S
H1889 N1876 0.985 . S
C1890 C1891 1.363 . S
C1890 C1896 1.379 . S
C1890 N1898 1.356 . S
C1891 C1890 1.363 . S
C1891 C1897 1.363 . S
C1892 C1893 1.363 . S
C1892 C1897 1.379 . S
C1892 N1899 1.356 . S
C1893 C1892 1.363 . S
C1893 C1896 1.363 . S
N1894 C1896 1.356 . S
N1894 H1906 0.984 . S
N1894 H1907 0.985 . S
N1895 C1897 1.356 . S
N1895 H1900 0.984 . S
N1895 H1901 0.985 . S
C1896 C1890 1.379 . S
C1896 C1893 1.363 . S
C1896 N1894 1.356 . S
C1897 C1891 1.363 . S
C1897 C1892 1.379 . S
C1897 N1895 1.356 . S
N1898 C1890 1.356 . S
N1898 H1904 0.984 . S
N1898 H1905 0.984 . S
N1899 C1892 1.356 . S
N1899 H1902 0.984 . S
N1899 H1903 0.985 . S
H1900 N1895 0.984 . S
H1901 N1895 0.985 . S
H1902 N1899 0.984 . S
H1903 N1899 0.985 . S
H1904 N1898 0.984 . S
H1905 N1898 0.984 . S
H1906 N1894 0.984 . S
H1907 N1894 0.985 . S
C1908 C1909 1.363 . S
C1908 C1914 1.379 . S
C1908 N1916 1.356 . S
C1909 C1908 1.363 . S
C1909 C1915 1.363 . S
C1910 C1911 1.363 . S
C1910 C1915 1.379 . S
C1910 N1917 1.356 . S
C1911 C1910 1.363 . S
C1911 C1914 1.363 . S
N1912 C1914 1.356 . S
N1912 H1924 0.984 . S
N1912 H1925 0.985 . S
N1913 C1915 1.356 . S
N1913 H1918 0.984 . S
N1913 H1919 0.985 . S
C1914 C1908 1.379 . S
C1914 C1911 1.363 . S
C1914 N1912 1.356 . S
C1915 C1909 1.363 . S
C1915 C1910 1.379 . S
C1915 N1913 1.356 . S
N1916 C1908 1.356 . S
N1916 H1922 0.984 . S
N1916 H1923 0.984 . S
N1917 C1910 1.356 . S
N1917 H1920 0.984 . S
N1917 H1921 0.985 . S
H1918 N1913 0.984 . S
H1919 N1913 0.985 . S
H1920 N1917 0.984 . S
H1921 N1917 0.985 . S
H1922 N1916 0.984 . S
H1923 N1916 0.984 . S
H1924 N1912 0.984 . S
H1925 N1912 0.985 . S
C1926 C1927 1.363 . S
C1926 C1932 1.379 . S
C1926 N1934 1.356 . S
C1927 C1926 1.363 . S
C1927 C1933 1.363 . S
C1928 C1929 1.363 . S
C1928 C1933 1.379 . S
C1928 N1935 1.356 . S
C1929 C1928 1.363 . S
C1929 C1932 1.363 . S
N1930 C1932 1.356 . S
N1930 H1942 0.984 . S
N1930 H1943 0.985 . S
N1931 C1933 1.356 . S
N1931 H1936 0.984 . S
N1931 H1937 0.985 . S
C1932 C1926 1.379 . S
C1932 C1929 1.363 . S
C1932 N1930 1.356 . S
C1933 C1927 1.363 . S
C1933 C1928 1.379 . S
C1933 N1931 1.356 . S
N1934 C1926 1.356 . S
N1934 H1940 0.984 . S
N1934 H1941 0.984 . S
N1935 C1928 1.356 . S
N1935 H1938 0.984 . S
N1935 H1939 0.985 . S
H1936 N1931 0.984 . S
H1937 N1931 0.985 . S
H1938 N1935 0.984 . S
H1939 N1935 0.985 . S
H1940 N1934 0.984 . S
H1941 N1934 0.984 . S
H1942 N1930 0.984 . S
H1943 N1930 0.985 . S
C1944 C1945 1.363 . S
C1944 C1950 1.379 . S
C1944 N1952 1.356 . S
C1945 C1944 1.363 . S
C1945 C1951 1.363 . S
C1946 C1947 1.363 . S
C1946 C1951 1.379 . S
C1946 N1953 1.356 . S
C1947 C1946 1.363 . S
C1947 C1950 1.363 . S
N1948 C1950 1.356 . S
N1948 H1960 0.984 . S
N1948 H1961 0.985 . S
N1949 C1951 1.356 . S
N1949 H1954 0.984 . S
N1949 H1955 0.985 . S
C1950 C1944 1.379 . S
C1950 C1947 1.363 . S
C1950 N1948 1.356 . S
C1951 C1945 1.363 . S
C1951 C1946 1.379 . S
C1951 N1949 1.356 . S
N1952 C1944 1.356 . S
N1952 H1958 0.984 . S
N1952 H1959 0.984 . S
N1953 C1946 1.356 . S
N1953 H1956 0.984 . S
N1953 H1957 0.985 . S
H1954 N1949 0.984 . S
H1955 N1949 0.985 . S
H1956 N1953 0.984 . S
H1957 N1953 0.985 . S
H1958 N1952 0.984 . S
H1959 N1952 0.984 . S
H1960 N1948 0.984 . S
H1961 N1948 0.985 . S
C1962 C1963 1.363 . S
C1962 C1968 1.379 . S
C1962 N1970 1.356 . S
C1963 C1962 1.363 . S
C1963 C1969 1.363 . S
C1964 C1965 1.363 . S
C1964 C1969 1.379 . S
C1964 N1971 1.356 . S
C1965 C1964 1.363 . S
C1965 C1968 1.363 . S
N1966 C1968 1.356 . S
N1966 H1978 0.984 . S
N1966 H1979 0.985 . S
N1967 C1969 1.356 . S
N1967 H1972 0.984 . S
N1967 H1973 0.985 . S
C1968 C1962 1.379 . S
C1968 C1965 1.363 . S
C1968 N1966 1.356 . S
C1969 C1963 1.363 . S
C1969 C1964 1.379 . S
C1969 N1967 1.356 . S
N1970 C1962 1.356 . S
N1970 H1976 0.984 . S
N1970 H1977 0.984 . S
N1971 C1964 1.356 . S
N1971 H1974 0.984 . S
N1971 H1975 0.985 . S
H1972 N1967 0.984 . S
H1973 N1967 0.985 . S
H1974 N1971 0.984 . S
H1975 N1971 0.985 . S
H1976 N1970 0.984 . S
H1977 N1970 0.984 . S
H1978 N1966 0.984 . S
H1979 N1966 0.985 . S
C1980 C1981 1.363 . S
C1980 C1986 1.379 . S
C1980 N1988 1.356 . S
C1981 C1980 1.363 . S
C1981 C1987 1.363 . S
C1982 C1983 1.363 . S
C1982 C1987 1.379 . S
C1982 N1989 1.356 . S
C1983 C1982 1.363 . S
C1983 C1986 1.363 . S
N1984 C1986 1.356 . S
N1984 H1996 0.984 . S
N1984 H1997 0.985 . S
N1985 C1987 1.356 . S
N1985 H1990 0.984 . S
N1985 H1991 0.985 . S
C1986 C1980 1.379 . S
C1986 C1983 1.363 . S
C1986 N1984 1.356 . S
C1987 C1981 1.363 . S
C1987 C1982 1.379 . S
C1987 N1985 1.356 . S
N1988 C1980 1.356 . S
N1988 H1994 0.984 . S
N1988 H1995 0.984 . S
N1989 C1982 1.356 . S
N1989 H1992 0.984 . S
N1989 H1993 0.985 . S
H1990 N1985 0.984 . S
H1991 N1985 0.985 . S
H1992 N1989 0.984 . S
H1993 N1989 0.985 . S
H1994 N1988 0.984 . S
H1995 N1988 0.984 . S
H1996 N1984 0.984 . S
H1997 N1984 0.985 . S
C1998 C1999 1.363 . S
C1998 C2004 1.379 . S
C1998 N2006 1.356 . S
C1999 C1998 1.363 . S
C1999 C2005 1.363 . S
C2000 C2001 1.363 . S
C2000 C2005 1.379 . S
C2000 N2007 1.356 . S
C2001 C2000 1.363 . S
C2001 C2004 1.363 . S
N2002 C2004 1.356 . S
N2002 H2014 0.984 . S
N2002 H2015 0.985 . S
N2003 C2005 1.356 . S
N2003 H2008 0.984 . S
N2003 H2009 0.985 . S
C2004 C1998 1.379 . S
C2004 C2001 1.363 . S
C2004 N2002 1.356 . S
C2005 C1999 1.363 . S
C2005 C2000 1.379 . S
C2005 N2003 1.356 . S
N2006 C1998 1.356 . S
N2006 H2012 0.984 . S
N2006 H2013 0.984 . S
N2007 C2000 1.356 . S
N2007 H2010 0.984 . S
N2007 H2011 0.985 . S
H2008 N2003 0.984 . S
H2009 N2003 0.985 . S
H2010 N2007 0.984 . S
H2011 N2007 0.985 . S
H2012 N2006 0.984 . S
H2013 N2006 0.984 . S
H2014 N2002 0.984 . S
H2015 N2002 0.985 . S
C2016 C2017 1.363 . S
C2016 C2022 1.379 . S
C2016 N2024 1.356 . S
C2017 C2016 1.363 . S
C2017 C2023 1.363 . S
C2018 C2019 1.363 . S
C2018 C2023 1.379 . S
C2018 N2025 1.356 . S
C2019 C2018 1.363 . S
C2019 C2022 1.363 . S
N2020 C2022 1.356 . S
N2020 H2032 0.984 . S
N2020 H2033 0.985 . S
N2021 C2023 1.356 . S
N2021 H2026 0.984 . S
N2021 H2027 0.985 . S
C2022 C2016 1.379 . S
C2022 C2019 1.363 . S
C2022 N2020 1.356 . S
C2023 C2017 1.363 . S
C2023 C2018 1.379 . S
C2023 N2021 1.356 . S
N2024 C2016 1.356 . S
N2024 H2030 0.984 . S
N2024 H2031 0.984 . S
N2025 C2018 1.356 . S
N2025 H2028 0.984 . S
N2025 H2029 0.985 . S
H2026 N2021 0.984 . S
H2027 N2021 0.985 . S
H2028 N2025 0.984 . S
H2029 N2025 0.985 . S
H2030 N2024 0.984 . S
H2031 N2024 0.984 . S
H2032 N2020 0.984 . S
H2033 N2020 0.985 . S
C2034 C2035 1.363 . S
C2034 C2040 1.379 . S
C2034 N2042 1.356 . S
C2035 C2034 1.363 . S
C2035 C2041 1.363 . S
C2036 C2037 1.363 . S
C2036 C2041 1.379 . S
C2036 N2043 1.356 . S
C2037 C2036 1.363 . S
C2037 C2040 1.363 . S
N2038 C2040 1.356 . S
N2038 H2050 0.984 . S
N2038 H2051 0.985 . S
N2039 C2041 1.356 . S
N2039 H2044 0.984 . S
N2039 H2045 0.985 . S
C2040 C2034 1.379 . S
C2040 C2037 1.363 . S
C2040 N2038 1.356 . S
C2041 C2035 1.363 . S
C2041 C2036 1.379 . S
C2041 N2039 1.356 . S
N2042 C2034 1.356 . S
N2042 H2048 0.984 . S
N2042 H2049 0.984 . S
N2043 C2036 1.356 . S
N2043 H2046 0.984 . S
N2043 H2047 0.985 1_655 S
H2044 N2039 0.984 . S
H2045 N2039 0.985 . S
H2046 N2043 0.984 . S
H2047 N2043 0.985 1_455 S
H2048 N2042 0.984 . S
H2049 N2042 0.984 . S
H2050 N2038 0.984 . S
H2051 N2038 0.985 . S
C2052 C2053 1.363 . S
C2052 C2058 1.379 . S
C2052 N2060 1.356 . S
C2053 C2052 1.363 . S
C2053 C2059 1.363 . S
C2054 C2055 1.363 . S
C2054 C2059 1.379 . S
C2054 N2061 1.356 . S
C2055 C2054 1.363 . S
C2055 C2058 1.363 . S
N2056 C2058 1.356 . S
N2056 H2068 0.984 . S
N2056 H2069 0.985 . S
N2057 C2059 1.356 . S
N2057 H2062 0.984 . S
N2057 H2063 0.985 . S
C2058 C2052 1.379 . S
C2058 C2055 1.363 . S
C2058 N2056 1.356 . S
C2059 C2053 1.363 . S
C2059 C2054 1.379 . S
C2059 N2057 1.356 . S
N2060 C2052 1.356 . S
N2060 H2066 0.984 . S
N2060 H2067 0.984 . S
N2061 C2054 1.356 . S
N2061 H2064 0.984 . S
N2061 H2065 0.985 . S
H2062 N2057 0.984 . S
H2063 N2057 0.985 . S
H2064 N2061 0.984 . S
H2065 N2061 0.985 . S
H2066 N2060 0.984 . S
H2067 N2060 0.984 . S
H2068 N2056 0.984 . S
H2069 N2056 0.985 . S
C1099 C253 1.503 . S
C1101 C398 1.440 . S
C1117 C272 1.538 . S
C1119 C482 1.477 . S
C1135 C234 1.494 . S
C1137 C576 1.507 . S
C1153 C215 1.497 . S
C1155 C492 1.513 . S
C1173 C566 1.440 . S
C1171 C177 1.510 . S
C1189 C196 1.467 . S
C1191 C408 1.478 1_556 S
C1209 C409 1.501 . S
C1207 C220 1.468 . S
C1227 C493 1.524 . S
C1225 C182 1.495 . S
C1243 C201 1.475 . S
C1245 C585 1.507 1_556 S
C1261 C258 1.457 . S
C1263 C501 1.487 . S
C1279 C277 1.454 . S
C1281 C577 1.480 . S
C1299 C417 1.468 . S
C1297 C239 1.435 . S
C1317 C650 1.440 . S
C1315 C25 1.503 . S
C1333 C44 1.538 . S
C1335 C734 1.477 . S
C1351 C6 1.494 . S
C1353 C828 1.507 . S
C1369 C329 1.497 . S
C1371 C744 1.511 . S
C1387 C291 1.510 . S
C1389 C818 1.440 . S
C1405 C310 1.466 . S
C1407 C660 1.478 . S
C1423 C334 1.468 . S
C1425 C661 1.501 . S
C1441 C296 1.495 . S
C1443 C745 1.524 . S
C1461 C837 1.507 . S
C1459 C315 1.476 . S
C1477 C30 1.457 . S
C1479 C753 1.487 . S
C1497 C829 1.480 . S
C1495 C49 1.453 . S
C1513 C11 1.435 . S
C1515 C669 1.468 . S
C1533 C902 1.440 . S
C1531 C139 1.503 . S
C1549 C158 1.538 . S
C1551 C986 1.477 . S
C1569 C1080 1.507 . S
C1567 C120 1.494 . S
C1587 C996 1.511 . S
C1585 C101 1.497 . S
C1605 C1070 1.440 . S
C1603 C63 1.510 . S
C1621 C82 1.466 . S
C1623 C912 1.478 . S
C1639 C106 1.468 . S
C1641 C913 1.501 . S
C1657 C68 1.495 . S
C1659 C997 1.524 . S
C1677 C1089 1.507 . S
C1675 C87 1.475 . S
C1693 C144 1.457 . S
C1695 C1005 1.487 . S
C1711 C163 1.453 . S
C1713 C1081 1.480 . S
C1729 C125 1.435 . S
C1731 C921 1.468 . S
C1747 C287 1.658 . S
C1749 C405 1.565 . S
C1767 C489 1.580 . S
C1765 C306 1.705 . S
C1783 C325 1.653 . S
C1785 C582 1.446 . S
C1801 C116 1.664 . S
C1803 C498 1.438 . S
C1819 C135 1.665 . S
C1821 C573 1.548 . S
C1839 C414 1.428 . S
C1837 C154 1.617 . S
C1855 C59 1.658 . S
C1857 C657 1.565 . S
C1873 C78 1.705 . S
C1875 C741 1.580 . S
C1891 C97 1.653 . S
C1893 C834 1.445 . S
C1909 C230 1.663 . S
C1911 C750 1.438 . S
C1929 C825 1.549 . S
C1927 C249 1.666 . S
C1945 C268 1.617 . S
C1947 C666 1.428 . S
C1963 C173 1.657 . S
C1965 C909 1.565 . S
C1981 C192 1.705 . S
C1983 C993 1.580 . S
C2001 C1086 1.445 . S
C1999 C211 1.653 . S
C2017 C2 1.664 . S
C2019 C1002 1.438 . S
C2035 C21 1.666 . S
C2037 C1077 1.549 . S
C2053 C40 1.617 . S
C2055 C918 1.428 . S
