# Generated by pormake.
# Topology anh, (6,3)-cn, num edge types: 1
# Building blocks:
#     Node 0, Type 0, BuildingBlock: GEDQOX_clean_sbu_0, # of connection points: 6
#     Node 1, Type 0, BuildingBlock: GEDQOX_clean_sbu_0, # of connection points: 6
#     Node 2, Type 0, BuildingBlock: GEDQOX_clean_sbu_0, # of connection points: 6
#     Node 3, Type 1, BuildingBlock: KAKCAD_clean_linker_0, # of connection points: 3
#     Node 4, Type 1, BuildingBlock: KAKCAD_clean_linker_0, # of connection points: 3
#     Node 5, Type 1, BuildingBlock: KAKCAD_clean_linker_0, # of connection points: 3
#     Node 6, Type 1, BuildingBlock: KAKCAD_clean_linker_0, # of connection points: 3
#     Node 7, Type 1, BuildingBlock: KAKCAD_clean_linker_0, # of connection points: 3
#     Node 8, Type 1, BuildingBlock: KAKCAD_clean_linker_0, # of connection points: 3
#     Edge 9, Type (0, 1), BuildingBlock: ZUJKAS_clean_linker_0, # of connection points: 2
#     Edge 10, Type (0, 1), BuildingBlock: ZUJKAS_clean_linker_0, # of connection points: 2
#     Edge 11, Type (0, 1), BuildingBlock: ZUJKAS_clean_linker_0, # of connection points: 2
#     Edge 12, Type (0, 1), BuildingBlock: ZUJKAS_clean_linker_0, # of connection points: 2
#     Edge 13, Type (0, 1), BuildingBlock: ZUJKAS_clean_linker_0, # of connection points: 2
#     Edge 14, Type (0, 1), BuildingBlock: ZUJKAS_clean_linker_0, # of connection points: 2
#     Edge 15, Type (0, 1), BuildingBlock: ZUJKAS_clean_linker_0, # of connection points: 2
#     Edge 16, Type (0, 1), BuildingBlock: ZUJKAS_clean_linker_0, # of connection points: 2
#     Edge 17, Type (0, 1), BuildingBlock: ZUJKAS_clean_linker_0, # of connection points: 2
#     Edge 18, Type (0, 1), BuildingBlock: ZUJKAS_clean_linker_0, # of connection points: 2
#     Edge 19, Type (0, 1), BuildingBlock: ZUJKAS_clean_linker_0, # of connection points: 2
#     Edge 20, Type (0, 1), BuildingBlock: ZUJKAS_clean_linker_0, # of connection points: 2
#     Edge 21, Type (0, 1), BuildingBlock: ZUJKAS_clean_linker_0, # of connection points: 2
#     Edge 22, Type (0, 1), BuildingBlock: ZUJKAS_clean_linker_0, # of connection points: 2
#     Edge 23, Type (0, 1), BuildingBlock: ZUJKAS_clean_linker_0, # of connection points: 2
#     Edge 24, Type (0, 1), BuildingBlock: ZUJKAS_clean_linker_0, # of connection points: 2
#     Edge 25, Type (0, 1), BuildingBlock: ZUJKAS_clean_linker_0, # of connection points: 2
#     Edge 26, Type (0, 1), BuildingBlock: ZUJKAS_clean_linker_0, # of connection points: 2
# Relax obj value: 0.161
# Max RMSD: 0.200
# Mean RMSD: 0.151
data_MOF--net-anh--node1-GEDQOX_clean_sbu_0--node2-KAKCAD_clean_linker_0--edge1-ZUJKAS_clean_linker_0
_symmetry_space_group_name_H-M    P1
_symmetry_Int_Tables_number       1
_symmetry_cell_setting            triclinic
loop_
_symmetry_equiv_pos_as_xyz
'x, y, z'
_cell_length_a     45.252223
_cell_length_b     44.212922
_cell_length_c     82.388954
_cell_angle_alpha  93.025267
_cell_angle_beta   91.821304
_cell_angle_gamma 107.68422
loop_
_atom_site_label
_atom_site_type_symbol
_atom_site_fract_x
_atom_site_fract_y
_atom_site_fract_z
_atom_type_partial_charge
Nd0 Nd 0.07814 0.54204 0.15049 0.0
Nd1 Nd 0.05829 0.47032 0.15268 0.0
C2 C 0.10423 0.60161 0.14332 0.0
C3 C 0.1346 0.62636 0.14628 0.0
C4 C 0.16255 0.62031 0.14274 0.0
C5 C 0.19103 0.644 0.14599 0.0
C6 C 0.19219 0.67419 0.15288 0.0
C7 C 0.1641 0.68009 0.15634 0.0
C8 C 0.13566 0.65646 0.15303 0.0
C9 C 0.06877 0.52263 0.18146 0.0
C10 C 0.1322 0.50465 0.15274 0.0
C11 C 1.03282 0.41059 0.15986 0.0
C12 C 1.00211 0.38898 0.16324 0.0
C13 C 0.97995 0.40018 0.17105 0.0
C14 C 0.95107 0.37903 0.17429 0.0
C15 C 0.94379 0.34637 0.16969 0.0
C16 C 0.96599 0.33542 0.16172 0.0
C17 C 0.99487 0.35653 0.15856 0.0
C18 C 0.06914 0.491 0.12202 0.0
C19 C 1.00467 0.50709 0.14977 0.0
O20 O 0.10311 0.57702 0.13346 0.0
O21 O 0.08766 0.59387 0.15605 0.0
O22 O 0.06125 0.54655 0.17617 0.0
O23 O 0.08218 0.5108 0.17081 0.0
O24 O 0.12503 0.53061 0.14924 0.0
O25 O 0.11061 0.47845 0.15627 0.0
O26 O 1.04574 0.43385 0.1708 0.0
O27 O 1.03652 0.41928 0.14494 0.0
O28 O 0.07739 0.46739 0.12723 0.0
O29 O 0.05476 0.50169 0.13257 0.0
O30 O 1.0124 0.48308 0.15569 0.0
O31 O 1.02602 0.53144 0.14424 0.0
H32 H 0.16245 0.59729 0.13751 0.0
H33 H 0.21213 0.63871 0.14297 0.0
H34 H 0.16405 0.70282 0.16191 0.0
H35 H 0.11442 0.66162 0.15592 0.0
H36 H 0.98499 0.42522 0.17466 0.0
H37 H 0.93434 0.38825 0.18028 0.0
H38 H 0.96126 0.31039 0.15819 0.0
H39 H 1.01167 0.34746 0.15252 0.0
Nd40 Nd 0.51141 0.99623 0.51682 0.0
Nd41 Nd 0.58281 0.02007 0.50596 0.0
C42 C 0.4584 0.96812 0.52998 0.0
C43 C 0.43387 0.93793 0.52593 0.0
C44 C 0.40995 0.92657 0.53653 0.0
C45 C 0.38628 0.89809 0.53242 0.0
C46 C 0.38615 0.88072 0.51759 0.0
C47 C 0.41049 0.89208 0.50713 0.0
C48 C 0.43418 0.92038 0.51129 0.0
C49 C 0.52045 1.0024 0.48426 0.0
C50 C 0.55034 0.94396 0.51006 0.0
C51 C 0.63084 0.04227 0.48801 0.0
C52 C 0.65764 0.07126 0.48752 0.0
C53 C 0.66162 0.08834 0.47346 0.0
C54 C 0.68656 0.11605 0.47269 0.0
C55 C 0.70819 0.12713 0.48596 0.0
C56 C 0.70429 0.10994 0.50002 0.0
C57 C 0.67917 0.08233 0.50084 0.0
C58 C 0.57964 0.02526 0.53944 0.0
C59 C 0.54557 0.07154 0.51611 0.0
O60 O 0.4851 0.96567 0.53531 0.0
O61 O 0.46136 0.9896 0.51928 0.0
O62 O 0.49685 0.00731 0.49124 0.0
O63 O 0.53644 0.99226 0.49409 0.0
O64 O 0.52508 0.95003 0.51517 0.0
O65 O 0.57452 0.96615 0.50495 0.0
O66 O 0.60346 0.0455 0.48465 0.0
O67 O 0.63092 0.02355 0.49987 0.0
O68 O 0.60588 0.03254 0.53228 0.0
O69 O 0.55805 0.01647 0.52872 0.0
O70 O 0.56641 0.06472 0.50681 0.0
O71 O 0.5251 0.0496 0.52379 0.0
H72 H 0.40946 0.93984 0.54791 0.0
H73 H 0.36775 0.88999 0.54067 0.0
H74 H 0.41129 0.87899 0.49574 0.0
H75 H 0.45267 0.92871 0.50303 0.0
H76 H 0.64538 0.08021 0.46303 0.0
H77 H 0.68917 0.12856 0.46162 0.0
H78 H 0.72045 0.11807 0.51047 0.0
H79 H 0.67659 0.06977 0.5119 0.0
Nd80 Nd 0.51366 0.47089 0.83021 0.0
Nd81 Nd 0.57677 0.49806 0.84812 0.0
C82 C 0.46625 0.46255 0.80918 0.0
C83 C 0.45425 0.48588 0.80138 0.0
C84 C 0.42214 0.48034 0.79944 0.0
C85 C 0.41047 0.50517 0.79572 0.0
C86 C 0.43086 0.53584 0.79413 0.0
C87 C 0.46297 0.54069 0.79475 0.0
C88 C 0.47461 0.51582 0.79827 0.0
C89 C 0.51323 0.46708 0.86335 0.0
C90 C 0.54045 0.54735 0.84157 0.0
C91 C 0.62829 0.51035 0.86653 0.0
C92 C 0.65798 0.50513 0.8632 0.0
C93 C 0.68406 0.51933 0.87363 0.0
C94 C 0.71341 0.51905 0.869 0.0
C95 C 0.71701 0.50477 0.85381 0.0
C96 C 0.6905 0.48911 0.84379 0.0
C97 C 0.66117 0.48928 0.84846 0.0
C98 C 0.57759 0.50163 0.81501 0.0
C99 C 0.54879 0.42018 0.83783 0.0
O100 O 0.49358 0.46164 0.8049 0.0
O101 O 0.46325 0.46178 0.82491 0.0
O102 O 0.49551 0.4449 0.85323 0.0
O103 O 0.5286 0.49055 0.85601 0.0
O104 O 0.52475 0.52562 0.83024 0.0
O105 O 0.55834 0.54026 0.85275 0.0
O106 O 0.60463 0.4848 0.86758 0.0
O107 O 0.6217 0.53132 0.85768 0.0
O108 O 0.5953 0.52352 0.82511 0.0
O109 O 0.56219 0.47832 0.8224 0.0
O110 O 0.56847 0.44349 0.84713 0.0
O111 O 0.52666 0.42514 0.82855 0.0
H112 H 0.40611 0.45745 0.80185 0.0
H113 H 0.38559 0.50104 0.79545 0.0
H114 H 0.47904 0.5642 0.79359 0.0
H115 H 0.49954 0.52065 0.79962 0.0
H116 H 0.68195 0.53191 0.88497 0.0
H117 H 0.73345 0.53169 0.87689 0.0
H118 H 0.69258 0.47775 0.83209 0.0
H119 H 0.64115 0.47834 0.84023 0.0
C120 C 0.56686 0.0504 0.30449 0.0
C121 C 0.56313 0.02254 0.31273 0.0
C122 C 0.56825 0.04972 0.28755 0.0
C123 C 0.56565 0.02111 0.27849 0.0
C124 C 0.56196 0.99327 0.28674 0.0
C125 C 0.5608 0.994 0.30367 0.0
C126 C 0.56664 0.02016 0.26047 0.0
C127 C 0.58897 0.04369 0.25286 0.0
C128 C 0.59038 0.04264 0.23583 0.0
C129 C 0.56896 0.01762 0.22636 0.0
C130 C 0.54617 0.99397 0.23379 0.0
C131 C 0.54528 0.99555 0.25085 0.0
C132 C 0.52267 0.96793 0.22393 0.0
C133 C 0.5081 0.97418 0.20972 0.0
C134 C 0.5133 0.93687 0.22923 0.0
C135 C 0.48911 0.913 0.22096 0.0
C136 C 0.47375 0.91945 0.20708 0.0
C137 C 0.61473 0.06755 0.22815 0.0
C138 C 0.62107 0.09974 0.23341 0.0
C139 C 0.63282 0.05931 0.21616 0.0
C140 C 0.65745 0.08267 0.20998 0.0
C141 C 0.66438 0.11483 0.21558 0.0
C142 C 0.6455 0.12308 0.22717 0.0
C143 C 0.48393 0.95022 0.20139 0.0
H144 H 0.56895 0.07279 0.31116 0.0
H145 H 0.5709 0.0715 0.28151 0.0
H146 H 0.56017 0.97093 0.28009 0.0
H147 H 0.55761 0.97207 0.30966 0.0
H148 H 0.60591 0.06241 0.26026 0.0
H149 H 0.52735 0.97801 0.2567 0.0
H150 H 0.57 0.01664 0.21322 0.0
H151 H 0.51462 0.99786 0.20533 0.0
H152 H 0.52434 0.93108 0.23998 0.0
H153 H 0.4818 0.88975 0.22583 0.0
H154 H 0.6072 0.10686 0.24246 0.0
H155 H 0.62864 0.03465 0.21198 0.0
H156 H 0.47297 0.95593 0.19059 0.0
H157 H 0.64967 0.14765 0.2315 0.0
H158 H 0.67166 0.07536 0.2012 0.0
C159 C 0.54865 0.54045 0.63303 0.0
C160 C 0.5643 0.52239 0.64138 0.0
C161 C 0.5471 0.53942 0.61603 0.0
C162 C 0.56179 0.5209 0.60685 0.0
C163 C 0.57809 0.50349 0.61521 0.0
C164 C 0.57895 0.50387 0.63218 0.0
C165 C 0.5596 0.51921 0.58868 0.0
C166 C 0.55813 0.54555 0.58022 0.0
C167 C 0.55492 0.54374 0.56311 0.0
C168 C 0.55422 0.5153 0.55434 0.0
C169 C 0.55651 0.48903 0.56259 0.0
C170 C 0.55865 0.49104 0.57966 0.0
C171 C 0.55657 0.45903 0.55371 0.0
C172 C 0.53222 0.44264 0.5425 0.0
C173 C 0.57981 0.44521 0.5576 0.0
C174 C 0.57819 0.41507 0.5509 0.0
C175 C 0.55311 0.3979 0.54028 0.0
C176 C 0.55251 0.57189 0.55466 0.0
C177 C 0.53426 0.59002 0.56093 0.0
C178 C 0.56938 0.58177 0.54084 0.0
C179 C 0.56881 0.60977 0.53379 0.0
C180 C 0.55124 0.62838 0.54038 0.0
C181 C 0.53369 0.6179 0.55392 0.0
C182 C 0.53037 0.41219 0.53593 0.0
H183 H 0.53756 0.55555 0.63958 0.0
H184 H 0.53392 0.55285 0.61013 0.0
H185 H 0.59029 0.48943 0.6087 0.0
H186 H 0.59082 0.48915 0.63801 0.0
H187 H 0.56006 0.56785 0.58693 0.0
H188 H 0.55888 0.47013 0.58589 0.0
H189 H 0.55195 0.51358 0.54116 0.0
H190 H 0.51395 0.45277 0.53939 0.0
H191 H 0.59887 0.45745 0.56619 0.0
H192 H 0.5959 0.40463 0.55463 0.0
H193 H 0.52065 0.58284 0.57144 0.0
H194 H 0.58377 0.56841 0.53576 0.0
H195 H 0.51089 0.39957 0.52768 0.0
H196 H 0.52017 0.63174 0.55946 0.0
H197 H 0.58232 0.61696 0.52326 0.0
C198 C 0.16497 0.65377 0.96473 0.0
C199 C 0.14075 0.62675 0.96839 0.0
C200 C 0.16569 0.66589 0.94931 0.0
C201 C 0.14198 0.65142 0.93738 0.0
C202 C 0.11801 0.62429 0.94106 0.0
C203 C 0.11737 0.61219 0.95635 0.0
C204 C 0.14179 0.6639 0.921 0.0
C205 C 0.16846 0.67108 0.91185 0.0
C206 C 0.16656 0.67768 0.8954 0.0
C207 C 0.13789 0.67755 0.88829 0.0
C208 C 0.11107 0.67053 0.89724 0.0
C209 C 0.1136 0.66493 0.91377 0.0
C210 C 0.08003 0.66491 0.88885 0.0
C211 C 0.07623 0.68193 0.87534 0.0
C212 C 0.05435 0.6403 0.89346 0.0
C213 C 1.02594 0.63261 0.88472 0.0
C214 C 1.02265 0.64882 0.87096 0.0
C215 C 0.19334 0.68107 0.88497 0.0
C216 C 0.22328 0.70071 0.89004 0.0
C217 C 0.18878 0.6643 0.86968 0.0
C218 C 0.2134 0.66733 0.85956 0.0
C219 C 0.24334 0.68717 0.86445 0.0
C220 C 0.2481 0.70376 0.87984 0.0
C221 C 1.04786 0.67364 0.86633 0.0
H222 H 0.18342 0.66539 0.97375 0.0
H223 H 0.18446 0.68678 0.94678 0.0
H224 H 0.09969 0.61223 0.93204 0.0
H225 H 0.09815 0.59163 0.95881 0.0
H226 H 0.19007 0.66935 0.91715 0.0
H227 H 0.09324 0.66007 0.92095 0.0
H228 H 0.13628 0.68136 0.87545 0.0
H229 H 0.09526 0.70134 0.87155 0.0
H230 H 0.05635 0.62595 0.90344 0.0
H231 H 1.00675 0.61313 0.88836 0.0
H232 H 0.22739 0.71392 0.90177 0.0
H233 H 0.16617 0.6483 0.8656 0.0
H234 H 1.04559 0.68648 0.85576 0.0
H235 H 0.27094 0.71916 0.88396 0.0
H236 H 0.20906 0.65337 0.84804 0.0
C237 C 1.0355 0.48212 0.361 0.0
C238 C 0.0637 0.4866 0.35336 0.0
C239 C 1.03467 0.48245 0.37794 0.0
C240 C 0.06204 0.48737 0.38764 0.0
C241 C 0.09022 0.49147 0.38 0.0
C242 C 0.09102 0.49097 0.36304 0.0
C243 C 0.06117 0.48892 0.40567 0.0
C244 C 1.03731 0.46715 0.41336 0.0
C245 C 1.0353 0.46927 0.43035 0.0
C246 C 0.05778 0.49355 0.4397 0.0
C247 C 0.08207 0.5153 0.43221 0.0
C248 C 0.08359 0.51276 0.4152 0.0
C249 C 0.10548 0.54133 0.44199 0.0
C250 C 0.09624 0.56007 0.45391 0.0
C251 C 0.13718 0.54841 0.439 0.0
C252 C 0.15913 0.57405 0.44751 0.0
C253 C 0.14985 0.59333 0.45912 0.0
C254 C 1.0097 0.44596 0.4382 0.0
C255 C 0.97955 0.43577 0.43085 0.0
C256 C 1.01533 0.43289 0.45274 0.0
C257 C 0.99154 0.40957 0.45952 0.0
C258 C 0.96159 0.39874 0.4519 0.0
C259 C 0.95586 0.4124 0.43757 0.0
C260 C 0.1182 0.58591 0.46233 0.0
H261 H 1.01401 0.47839 0.35388 0.0
H262 H 1.01264 0.47951 0.38346 0.0
H263 H 0.11165 0.49504 0.38715 0.0
H264 H 0.11314 0.49473 0.35751 0.0
H265 H 1.02054 0.44814 0.40606 0.0
H266 H 0.10167 0.53011 0.40933 0.0
H267 H 0.05638 0.49561 0.45279 0.0
H268 H 0.07194 0.55529 0.45639 0.0
H269 H 0.14498 0.53422 0.42997 0.0
H270 H 0.1833 0.57932 0.44466 0.0
H271 H 0.97425 0.44569 0.41979 0.0
H272 H 1.03832 0.44005 0.45867 0.0
H273 H 0.11039 0.60021 0.4713 0.0
H274 H 0.93322 0.40445 0.43124 0.0
H275 H 0.9967 0.39989 0.47069 0.0
C276 C 0.54538 0.96513 0.71857 0.0
C277 C 0.56738 0.99023 0.71166 0.0
C278 C 0.54503 0.96316 0.73546 0.0
C279 C 0.56662 0.98631 0.74581 0.0
C280 C 0.58901 0.01102 0.73888 0.0
C281 C 0.58937 0.01297 0.72202 0.0
C282 C 0.56499 0.98555 0.76379 0.0
C283 C 0.55957 0.95688 0.77143 0.0
C284 C 0.55699 0.95594 0.78843 0.0
C285 C 0.56023 0.98457 0.79779 0.0
C286 C 0.56633 0.01357 0.79029 0.0
C287 C 0.56841 0.01369 0.77334 0.0
C288 C 0.57015 0.04418 0.79974 0.0
C289 C 0.54759 0.04768 0.81039 0.0
C290 C 0.59493 0.0711 0.79672 0.0
C291 C 0.59618 0.10116 0.80338 0.0
C292 C 0.57259 0.10514 0.81318 0.0
C293 C 0.55161 0.92503 0.79618 0.0
C294 C 0.53257 0.89658 0.78814 0.0
C295 C 0.5666 0.92334 0.81117 0.0
C296 C 0.56345 0.8939 0.81766 0.0
C297 C 0.54542 0.86533 0.80926 0.0
C298 C 0.52974 0.86721 0.7945 0.0
C299 C 0.54877 0.07793 0.81704 0.0
H300 H 0.52835 0.94701 0.71093 0.0
H301 H 0.52735 0.94396 0.74043 0.0
H302 H 0.60618 0.02903 0.74651 0.0
H303 H 0.60647 0.03277 0.71713 0.0
H304 H 0.55811 0.93536 0.7641 0.0
H305 H 0.57192 0.03583 0.76749 0.0
H306 H 0.55815 0.9844 0.81085 0.0
H307 H 0.52816 0.02734 0.81285 0.0
H308 H 0.61289 0.069 0.78875 0.0
H309 H 0.61526 0.12147 0.80049 0.0
H310 H 0.52011 0.89687 0.77674 0.0
H311 H 0.58157 0.94467 0.8177 0.0
H312 H 0.53019 0.08018 0.82451 0.0
H313 H 0.51593 0.84592 0.7875 0.0
H314 H 0.57544 0.8936 0.8292 0.0
C315 C 0.55909 0.46089 0.04645 0.0
C316 C 0.54441 0.47956 0.03796 0.0
C317 C 0.56334 0.46473 0.06341 0.0
C318 C 0.55316 0.48746 0.07227 0.0
C319 C 0.53883 0.50638 0.06373 0.0
C320 C 0.53444 0.50242 0.04679 0.0
C321 C 0.55706 0.49118 0.09037 0.0
C322 C 0.58431 0.48964 0.09837 0.0
C323 C 0.58825 0.49289 0.11547 0.0
C324 C 0.56416 0.49823 0.12469 0.0
C325 C 0.53656 0.50005 0.11674 0.0
C326 C 0.53341 0.49625 0.09967 0.0
C327 C 0.51006 0.50543 0.12559 0.0
C328 C 0.49456 0.4845 0.13702 0.0
C329 C 0.49696 0.52864 0.1205 0.0
C330 C 0.46831 0.52981 0.12592 0.0
C331 C 0.45172 0.50781 0.13666 0.0
C332 C 0.61812 0.49094 0.12301 0.0
C333 C 0.6301 0.46662 0.11739 0.0
C334 C 0.63683 0.51519 0.13398 0.0
C335 C 0.66745 0.51605 0.13839 0.0
C336 C 0.68001 0.4927 0.13189 0.0
C337 C 0.66049 0.46749 0.12174 0.0
C338 C 0.46568 0.48563 0.14247 0.0
H339 H 0.56675 0.44286 0.04 0.0
H340 H 0.57407 0.44945 0.06961 0.0
H341 H 0.53124 0.52453 0.07011 0.0
H342 H 0.52354 0.51755 0.04058 0.0
H343 H 0.603 0.48658 0.0912 0.0
H344 H 0.51193 0.49659 0.09358 0.0
H345 H 0.56683 0.50092 0.13785 0.0
H346 H 0.50388 0.46617 0.14106 0.0
H347 H 0.50828 0.54505 0.11165 0.0
H348 H 0.45848 0.54703 0.12096 0.0
H349 H 0.6162 0.44736 0.10909 0.0
H350 H 0.62842 0.5344 0.13843 0.0
H351 H 0.45396 0.46859 0.15094 0.0
H352 H 0.66895 0.44863 0.11684 0.0
H353 H 0.68175 0.53583 0.14624 0.0
H354 H 0.15555 0.45441 0.15541 0.0
H355 H 0.20966 0.45474 0.15424 0.0
H356 H 0.23821 0.55554 0.1481 0.0
H357 H 0.18422 0.5555 0.14931 0.0
H358 H 0.25044 0.47372 0.12849 0.0
H359 H 0.29721 0.54725 0.18566 0.0
H360 H 0.25614 0.52845 0.18129 0.0
H361 H 0.27602 0.56436 0.17195 0.0
C362 C 0.17331 0.47675 0.15393 0.0
C363 C 0.16533 0.50496 0.15251 0.0
C364 C 0.20431 0.47686 0.15322 0.0
C365 C 0.2282 0.50522 0.15128 0.0
C366 C 0.22036 0.53343 0.14989 0.0
H367 H 0.42833 0.55818 0.14181 0.0
H368 H 0.37448 0.55643 0.14541 0.0
C369 C 0.18934 0.53332 0.15049 0.0
C370 C 0.26112 0.50507 0.15018 0.0
H371 H 0.33395 0.5357 0.16846 0.0
C372 C 0.26867 0.48711 0.13729 0.0
C373 C 0.28502 0.52266 0.16159 0.0
C374 C 0.27829 0.54159 0.176 0.0
C375 C 0.29942 0.48685 0.13527 0.0
C376 C 0.3234 0.50435 0.14673 0.0
C377 C 0.31576 0.52219 0.15967 0.0
C378 C 0.35658 0.50513 0.14525 0.0
C379 C 0.30602 0.46868 0.12052 0.0
C380 C 0.365 0.47698 0.1444 0.0
C381 C 0.39588 0.47786 0.14211 0.0
C382 C 0.41934 0.50698 0.14079 0.0
C383 C 0.411 0.53522 0.1424 0.0
C384 C 0.38011 0.53429 0.14459 0.0
H385 H 0.28747 0.46447 0.11074 0.0
H386 H 0.32856 0.48157 0.11552 0.0
H387 H 0.3071 0.44514 0.12403 0.0
H388 H 0.34759 0.45418 0.14531 0.0
H389 H 0.40111 0.45555 0.14086 0.0
H390 H 0.76907 0.13623 0.49505 0.0
H391 H 0.81343 0.18373 0.49221 0.0
H392 H 0.75207 0.23107 0.47158 0.0
H393 H 0.70761 0.18384 0.47449 0.0
H394 H 0.83013 0.21215 0.4612 0.0
H395 H 0.80632 0.29596 0.50791 0.0
H396 H 0.78994 0.25328 0.5082 0.0
H397 H 0.77405 0.27477 0.49423 0.0
C398 C 0.765 0.15694 0.49013 0.0
C399 C 0.73488 0.15634 0.48498 0.0
C400 C 0.79033 0.18396 0.48847 0.0
C401 C 0.78592 0.21095 0.48185 0.0
C402 C 0.75587 0.21061 0.47692 0.0
H403 H 0.89948 0.39245 0.45313 0.0
H404 H 0.85807 0.34664 0.46119 0.0
C405 C 0.73056 0.18353 0.47845 0.0
C406 C 0.81291 0.23878 0.47915 0.0
H407 H 0.84598 0.31784 0.48986 0.0
C408 C 0.83384 0.23522 0.46756 0.0
C409 C 0.81741 0.26879 0.4874 0.0
C410 C 0.79592 0.27356 0.50023 0.0
C411 C 0.85874 0.26118 0.46362 0.0
C412 C 0.86329 0.29131 0.47185 0.0
C413 C 0.84252 0.29473 0.48361 0.0
C414 C 0.88879 0.31976 0.46797 0.0
C415 C 0.87919 0.2563 0.45024 0.0
C416 C 0.9199 0.32023 0.46951 0.0
C417 C 0.94362 0.34617 0.46466 0.0
C418 C 0.93671 0.37238 0.45837 0.0
C419 C 0.9056 0.37241 0.45758 0.0
C420 C 0.8819 0.34636 0.46232 0.0
H421 H 0.86778 0.2344 0.44235 0.0
H422 H 0.88538 0.27689 0.44249 0.0
H423 H 0.90097 0.25381 0.45573 0.0
H424 H 0.92582 0.30027 0.4742 0.0
H425 H 0.96724 0.34519 0.46537 0.0
H426 H 0.58008 0.60169 0.85699 0.0
H427 H 0.58005 0.65663 0.8541 0.0
H428 H 0.49833 0.62278 0.82187 0.0
H429 H 0.49794 0.56786 0.82483 0.0
H430 H 0.58155 0.6848 0.82173 0.0
H431 H 0.47893 0.68684 0.85666 0.0
H432 H 0.4999 0.65861 0.85991 0.0
H433 H 0.47399 0.65334 0.84231 0.0
C434 C 0.56181 0.60589 0.84949 0.0
C435 C 0.53906 0.58038 0.84107 0.0
C436 C 0.5619 0.63729 0.84781 0.0
C437 C 0.539 0.64368 0.83789 0.0
C438 C 0.51591 0.61827 0.82976 0.0
H439 H 0.49608 0.81008 0.80691 0.0
H440 H 0.49568 0.75727 0.81424 0.0
C441 C 0.5159 0.58694 0.83136 0.0
C442 C 0.54025 0.67694 0.83519 0.0
H443 H 0.50153 0.73149 0.84159 0.0
C444 C 0.56425 0.6952 0.82617 0.0
C445 C 0.51734 0.69011 0.84079 0.0
C446 C 0.49112 0.67139 0.85056 0.0
C447 C 0.5656 0.72612 0.82225 0.0
C448 C 0.54294 0.73965 0.82806 0.0
C449 C 0.51903 0.72132 0.83721 0.0
C450 C 0.54302 0.7723 0.82432 0.0
C451 C 0.59056 0.74333 0.81132 0.0
C452 C 0.56947 0.79869 0.82791 0.0
C453 C 0.57008 0.82891 0.82332 0.0
C454 C 0.54397 0.83364 0.81536 0.0
C455 C 0.51695 0.80739 0.81259 0.0
C456 C 0.51655 0.77711 0.81695 0.0
H457 H 0.59959 0.72649 0.80404 0.0
H458 H 0.58177 0.75768 0.80283 0.0
H459 H 0.61032 0.75952 0.81891 0.0
H460 H 0.58989 0.79588 0.83405 0.0
H461 H 0.59141 0.84831 0.82562 0.0
H462 H 0.97847 0.5478 0.135 0.0
H463 H 0.92386 0.54578 0.13343 0.0
H464 H 0.90054 0.46297 0.16155 0.0
H465 H 0.95501 0.4643 0.16278 0.0
H466 H 0.85971 0.45434 0.13693 0.0
H467 H 0.87337 0.573 0.16687 0.0
H468 H 0.89677 0.57537 0.14955 0.0
H469 H 0.90442 0.55531 0.16693 0.0
C470 C 0.9618 0.52924 0.14095 0.0
C471 C 0.97137 0.5063 0.14908 0.0
C472 C 0.93047 0.52826 0.14015 0.0
C473 C 0.90787 0.50463 0.14767 0.0
C474 C 0.91737 0.48161 0.15572 0.0
H475 H 0.7165 0.51015 0.16048 0.0
H476 H 0.7711 0.51245 0.16499 0.0
C477 C 0.94866 0.48242 0.15642 0.0
C478 C 0.87425 0.5031 0.14658 0.0
H479 H 0.82446 0.54709 0.15272 0.0
C480 C 0.85207 0.47462 0.1405 0.0
C481 C 0.86385 0.52925 0.15148 0.0
C482 C 0.8858 0.55983 0.15924 0.0
C483 C 0.82024 0.47182 0.13878 0.0
C484 C 0.81008 0.4985 0.14283 0.0
C485 C 0.83209 0.52671 0.14937 0.0
C486 C 0.77689 0.4977 0.14013 0.0
C487 C 0.79778 0.44 0.13285 0.0
C488 C 0.76191 0.48939 0.1246 0.0
C489 C 0.73073 0.48793 0.12203 0.0
C490 C 0.71359 0.49511 0.13486 0.0
C491 C 0.72887 0.50444 0.15032 0.0
C492 C 0.76013 0.50569 0.15291 0.0
H493 H 0.80727 0.42021 0.13536 0.0
H494 H 0.77519 0.43563 0.13868 0.0
H495 H 0.79357 0.43955 0.11949 0.0
H496 H 0.7744 0.48417 0.11437 0.0
H497 H 0.72012 0.48149 0.10986 0.0
H498 H 0.35494 0.86331 0.48804 0.0
H499 H 0.31372 0.81405 0.47989 0.0
H500 H 0.31868 0.78164 0.52808 0.0
H501 H 0.35976 0.83117 0.53638 0.0
H502 H 0.3162 0.75376 0.47902 0.0
H503 H 0.2262 0.76662 0.52069 0.0
H504 H 0.26044 0.79911 0.51737 0.0
H505 H 0.26262 0.76912 0.53087 0.0
C506 C 0.34724 0.8457 0.4969 0.0
C507 C 0.36058 0.85109 0.51285 0.0
C508 C 0.32362 0.81761 0.49225 0.0
C509 C 0.31283 0.79432 0.50342 0.0
C510 C 0.32611 0.79959 0.51936 0.0
H511 H 0.20733 0.598 0.47249 0.0
H512 H 0.24683 0.64596 0.48422 0.0
C513 C 0.34964 0.82784 0.52407 0.0
C514 C 0.28856 0.76407 0.49809 0.0
H515 H 0.21569 0.71702 0.50551 0.0
C516 C 0.29422 0.74572 0.48481 0.0
C517 C 0.25976 0.75382 0.50555 0.0
C518 C 0.25168 0.77331 0.51931 0.0
C519 C 0.27191 0.71742 0.47877 0.0
C520 C 0.24342 0.70672 0.48648 0.0
C521 C 0.23769 0.72509 0.49974 0.0
C522 C 0.21881 0.67717 0.48053 0.0
C523 C 0.27875 0.69977 0.46388 0.0
C524 C 0.18951 0.67854 0.47519 0.0
C525 C 0.16682 0.65113 0.46864 0.0
C526 C 0.17304 0.62184 0.46729 0.0
C527 C 0.20206 0.62034 0.47313 0.0
C528 C 0.22466 0.64772 0.4798 0.0
H529 H 0.29763 0.71525 0.45701 0.0
H530 H 0.28634 0.67949 0.4677 0.0
H531 H 0.25777 0.69022 0.45557 0.0
H532 H 0.18448 0.701 0.47569 0.0
H533 H 0.14477 0.65309 0.46413 0.0
H534 H 0.51516 0.36734 0.81902 0.0
H535 H 0.52055 0.31408 0.81844 0.0
H536 H 0.59421 0.34555 0.85579 0.0
H537 H 0.58943 0.39928 0.85625 0.0
H538 H 0.60917 0.31096 0.83111 0.0
H539 H 0.49224 0.2464 0.85062 0.0
H540 H 0.49043 0.26914 0.83343 0.0
H541 H 0.50776 0.28924 0.85257 0.0
C542 C 0.53241 0.36299 0.82721 0.0
C543 C 0.55178 0.38765 0.83773 0.0
C544 C 0.53529 0.33238 0.82695 0.0
C545 C 0.55733 0.32559 0.83732 0.0
C546 C 0.57685 0.35016 0.84778 0.0
H547 H 0.55793 0.12719 0.84281 0.0
H548 H 0.55615 0.181 0.85057 0.0
C549 C 0.57407 0.38088 0.84802 0.0
C550 C 0.56094 0.29324 0.83658 0.0
H551 H 0.5203 0.21443 0.83755 0.0
C552 C 0.58983 0.28988 0.83273 0.0
C553 C 0.53592 0.26571 0.839 0.0
C554 C 0.50494 0.26778 0.84431 0.0
C555 C 0.59394 0.25974 0.83044 0.0
C556 C 0.5683 0.23216 0.8317 0.0
C557 C 0.53984 0.23554 0.83636 0.0
C558 C 0.57007 0.19974 0.82731 0.0
C559 C 0.62572 0.25776 0.82661 0.0
C560 C 0.57796 0.19226 0.8116 0.0
C561 C 0.57898 0.16171 0.80716 0.0
C562 C 0.57188 0.13773 0.81828 0.0
C563 C 0.5635 0.14509 0.83396 0.0
C564 C 0.56258 0.17583 0.83842 0.0
H565 H 0.64428 0.27961 0.8313 0.0
H566 H 0.63016 0.23687 0.83189 0.0
H567 H 0.62728 0.25543 0.81321 0.0
H568 H 0.58287 0.20997 0.80264 0.0
H569 H 0.58471 0.15669 0.79485 0.0
H570 H 0.59994 0.92192 0.50462 0.0
H571 H 0.60191 0.86742 0.50632 0.0
H572 H 0.50537 0.83648 0.51761 0.0
H573 H 0.50302 0.89063 0.51588 0.0
H574 H 0.58863 0.83145 0.53428 0.0
H575 H 0.51085 0.77103 0.48113 0.0
H576 H 0.52827 0.81369 0.48347 0.0
H577 H 0.49472 0.79464 0.49449 0.0
C578 C 0.57901 0.90348 0.50728 0.0
C579 C 0.55133 0.91072 0.51011 0.0
C580 C 0.58021 0.87236 0.50826 0.0
C581 C 0.55369 0.84786 0.51188 0.0
C582 C 0.52595 0.85491 0.5145 0.0
H583 H 0.50302 0.65312 0.53613 0.0
H584 H 0.50565 0.70629 0.52817 0.0
C585 C 0.52475 0.88599 0.51361 0.0
C586 C 0.55539 0.81532 0.51399 0.0
H587 H 0.52336 0.73755 0.50025 0.0
C588 C 0.57469 0.81092 0.52673 0.0
C589 C 0.53704 0.78864 0.50415 0.0
C590 C 0.51674 0.79214 0.48994 0.0
C591 C 0.57524 0.78039 0.53031 0.0
C592 C 0.55652 0.75359 0.52062 0.0
C593 C 0.53771 0.75809 0.50765 0.0
C594 C 0.55491 0.72064 0.52431 0.0
C595 C 0.59485 0.77704 0.54487 0.0
C596 C 0.58157 0.71069 0.52436 0.0
C597 C 0.58023 0.68039 0.5291 0.0
C598 C 0.55212 0.65934 0.53376 0.0
C599 C 0.52518 0.66892 0.53295 0.0
C600 C 0.52658 0.69923 0.52827 0.0
H601 H 0.60173 0.79886 0.55322 0.0
H602 H 0.58225 0.75658 0.55181 0.0
H603 H 0.61638 0.77279 0.54065 0.0
H604 H 0.60356 0.72658 0.52101 0.0
H605 H 0.60146 0.67391 0.52965 0.0
H606 H 0.73692 0.52221 0.82381 0.0
H607 H 0.79065 0.54058 0.81571 0.0
H608 H 0.82192 0.51852 0.86235 0.0
H609 H 0.76829 0.49946 0.87037 0.0
H610 H 0.83088 0.59184 0.83218 0.0
H611 H 0.88039 0.49233 0.8323 0.0
H612 H 0.839 0.48612 0.83056 0.0
H613 H 0.8593 0.4935 0.85026 0.0
C614 C 0.75516 0.52012 0.83209 0.0
C615 C 0.74848 0.5096 0.84778 0.0
C616 C 0.78584 0.53072 0.82745 0.0
C617 C 0.81025 0.53065 0.83835 0.0
C618 C 0.80343 0.51816 0.8536 0.0
H619 H 0.96663 0.65002 0.88079 0.0
H620 H 0.91607 0.62399 0.8668 0.0
C621 C 0.77281 0.50766 0.85826 0.0
C622 C 0.84266 0.54865 0.83526 0.0
H623 H 0.91647 0.54519 0.8408 0.0
C624 C 0.84962 0.58146 0.83351 0.0
C625 C 0.8671 0.53511 0.83669 0.0
C626 C 0.86101 0.49974 0.83737 0.0
C627 C 0.88032 0.60153 0.83502 0.0
C628 C 0.90442 0.5884 0.83847 0.0
C629 C 0.89781 0.55525 0.83837 0.0
C630 C 0.93508 0.60851 0.84523 0.0
C631 C 0.88656 0.63685 0.83399 0.0
C632 C 0.96243 0.60871 0.83762 0.0
C633 C 0.99135 0.62396 0.84556 0.0
C634 C 0.99304 0.63849 0.86128 0.0
C635 C 0.96572 0.63919 0.8686 0.0
C636 C 0.93696 0.62445 0.8606 0.0
H637 H 0.86833 0.64201 0.82626 0.0
H638 H 0.88643 0.64796 0.84638 0.0
H639 H 0.90958 0.648 0.82901 0.0
H640 H 0.96133 0.59617 0.82585 0.0
H641 H 1.01226 0.62283 0.83985 0.0
H642 H 0.20639 0.73835 0.14937 0.0
H643 H 0.25532 0.77981 0.15696 0.0
H644 H 0.29574 0.70877 0.17231 0.0
H645 H 0.24668 0.66712 0.16516 0.0
H646 H 0.28605 0.79125 0.18936 0.0
H647 H 0.35961 0.76365 0.14148 0.0
H648 H 0.31767 0.75026 0.13949 0.0
H649 H 0.33772 0.73064 0.1524 0.0
C650 C 0.2256 0.73147 0.15443 0.0
C651 C 0.22248 0.69932 0.15669 0.0
C652 C 0.25361 0.75521 0.15865 0.0
C653 C 0.27919 0.7473 0.16503 0.0
C654 C 0.2764 0.71529 0.16713 0.0
H655 H 0.46497 0.8553 0.20197 0.0
H656 H 0.41776 0.8141 0.19154 0.0
C657 C 0.24833 0.69152 0.163 0.0
C658 C 0.30828 0.77272 0.17025 0.0
H659 H 0.3849 0.80288 0.16226 0.0
C660 C 0.30766 0.79395 0.1834 0.0
C661 C 0.3364 0.77593 0.16251 0.0
C662 C 0.33806 0.7541 0.1481 0.0
C663 C 0.33458 0.81805 0.18923 0.0
C664 C 0.36272 0.82156 0.18138 0.0
C665 C 0.36331 0.80026 0.16821 0.0
C666 C 0.39186 0.84686 0.18687 0.0
C667 C 0.33278 0.83889 0.20405 0.0
C668 C 0.39331 0.87906 0.18731 0.0
C669 C 0.42011 0.90266 0.19349 0.0
C670 C 0.44623 0.89459 0.19917 0.0
C671 C 0.44513 0.86237 0.19802 0.0
C672 C 0.41822 0.83877 0.19194 0.0
H673 H 0.31237 0.82758 0.21119 0.0
H674 H 0.35409 0.84427 0.21213 0.0
H675 H 0.33039 0.86169 0.20011 0.0
H676 H 0.3735 0.88593 0.18311 0.0
H677 H 0.41996 0.92713 0.19428 0.0
H678 H 0.50149 0.09424 0.52988 0.0
H679 H 0.50028 0.14922 0.53202 0.0
H680 H 0.58757 0.17954 0.50878 0.0
H681 H 0.58861 0.12462 0.50621 0.0
H682 H 0.53987 0.20115 0.54788 0.0
H683 H 0.53624 0.22071 0.48208 0.0
H684 H 0.52983 0.1817 0.48955 0.0
H685 H 0.56871 0.20802 0.48827 0.0
C686 C 0.52039 0.11257 0.52517 0.0
C687 C 0.54505 0.10494 0.51778 0.0
C688 C 0.51964 0.144 0.52638 0.0
C689 C 0.5435 0.16845 0.52026 0.0
C690 C 0.56843 0.16099 0.51316 0.0
H691 H 0.5979 0.37365 0.52876 0.0
H692 H 0.59385 0.31749 0.52306 0.0
C693 C 0.5691 0.12955 0.51182 0.0
C694 C 0.5429 0.20189 0.52186 0.0
H695 H 0.54694 0.267 0.50036 0.0
C696 C 0.54111 0.21542 0.53747 0.0
C697 C 0.54446 0.22053 0.50825 0.0
C698 C 0.5446 0.20692 0.49108 0.0
C699 C 0.54162 0.24724 0.53988 0.0
C700 C 0.54382 0.26597 0.52633 0.0
C701 C 0.54534 0.2525 0.51071 0.0
C702 C 0.5453 0.29988 0.5283 0.0
C703 C 0.54052 0.26093 0.55694 0.0
C704 C 0.51911 0.30847 0.5327 0.0
C705 C 0.5213 0.34049 0.53589 0.0
C706 C 0.54981 0.36442 0.53482 0.0
C707 C 0.57571 0.35572 0.52982 0.0
C708 C 0.57342 0.32372 0.52652 0.0
H709 H 0.54353 0.24478 0.5663 0.0
H710 H 0.55889 0.2842 0.55917 0.0
H711 H 0.51774 0.2651 0.5584 0.0
H712 H 0.49716 0.29034 0.53405 0.0
H713 H 0.50103 0.3464 0.53986 0.0
H714 H 0.44603 0.5838 0.81736 0.0
H715 H 0.41888 0.62281 0.823 0.0
H716 H 0.36139 0.58901 0.77894 0.0
H717 H 0.38781 0.54867 0.77372 0.0
H718 H 0.40505 0.67085 0.81013 0.0
H719 H 0.29767 0.56811 0.81226 0.0
H720 H 0.33523 0.5629 0.80982 0.0
H721 H 0.31442 0.5722 0.79276 0.0
C722 C 0.42822 0.58536 0.80864 0.0
C723 C 0.41885 0.56332 0.79515 0.0
C724 C 0.41265 0.6076 0.81188 0.0
C725 C 0.38755 0.6083 0.80162 0.0
C726 C 0.38009 0.58824 0.78728 0.0
H727 H 0.24377 0.69032 0.83138 0.0
H728 H 0.28182 0.67915 0.81351 0.0
C729 C 0.39526 0.56542 0.78422 0.0
C730 C 0.36719 0.62705 0.80719 0.0
H731 H 0.29408 0.61838 0.81975 0.0
C732 C 0.38066 0.65949 0.81202 0.0
C733 C 0.3354 0.6121 0.80984 0.0
C734 C 0.31983 0.57689 0.80606 0.0
C735 C 0.36346 0.67702 0.8199 0.0
C736 C 0.33207 0.66178 0.82282 0.0
C737 C 0.31819 0.62993 0.8173 0.0
C738 C 0.31371 0.67681 0.83315 0.0
C739 C 0.37904 0.71137 0.82549 0.0
C740 C 0.31958 0.68005 0.85007 0.0
C741 C 0.29762 0.68582 0.86035 0.0
C742 C 0.26946 0.68835 0.8538 0.0
C743 C 0.26497 0.68782 0.83679 0.0
C744 C 0.28679 0.68179 0.82655 0.0
H745 H 0.40122 0.72145 0.81948 0.0
H746 H 0.36343 0.72589 0.82299 0.0
H747 H 0.38414 0.71318 0.83884 0.0
H748 H 0.34002 0.67571 0.85537 0.0
H749 H 0.3017 0.68588 0.87338 0.0
H750 H 0.91308 0.34379 0.19793 0.0
H751 H 0.86431 0.30474 0.20442 0.0
H752 H 0.85693 0.25875 0.15633 0.0
H753 H 0.90577 0.29756 0.1498 0.0
H754 H 0.80528 0.28956 0.19024 0.0
H755 H 0.84911 0.18517 0.18506 0.0
H756 H 0.87457 0.22556 0.18575 0.0
H757 H 0.85333 0.20721 0.16714 0.0
C758 C 0.90095 0.3255 0.1887 0.0
C759 C 0.91343 0.32362 0.17339 0.0
C760 C 0.87315 0.30313 0.19244 0.0
C761 C 0.85728 0.27845 0.18097 0.0
C762 C 0.86919 0.27706 0.16552 0.0
H763 H 0.68631 0.1203 0.18475 0.0
H764 H 0.73224 0.16035 0.17577 0.0
C765 C 0.89707 0.2993 0.1618 0.0
C766 C 0.82826 0.25424 0.1852 0.0
H767 H 0.79532 0.17454 0.1889 0.0
C768 C 0.80312 0.26442 0.18997 0.0
C769 C 0.82547 0.22142 0.18483 0.0
C770 C 0.85212 0.20914 0.18057 0.0
C771 C 0.77521 0.24266 0.19428 0.0
C772 C 0.7725 0.20991 0.19397 0.0
C773 C 0.79747 0.19966 0.18904 0.0
C774 C 0.74437 0.18603 0.19932 0.0
C775 C 0.74871 0.25481 0.199 0.0
C776 C 0.73624 0.18701 0.21557 0.0
C777 C 0.71025 0.16403 0.22079 0.0
C778 C 0.69178 0.13953 0.20984 0.0
C779 C 0.70011 0.13861 0.19354 0.0
C780 C 0.72624 0.16157 0.18836 0.0
H781 H 0.75164 0.27899 0.19482 0.0
H782 H 0.72619 0.2385 0.19384 0.0
H783 H 0.74776 0.25609 0.21245 0.0
H784 H 0.75031 0.20529 0.2243 0.0
H785 H 0.70503 0.16513 0.2335 0.0
H786 H 0.1067 0.47594 0.09981 0.0
H787 H 0.12216 0.50097 0.07426 0.0
H788 H 0.06734 0.56392 0.0838 0.0
H789 H 0.05164 0.53887 0.10928 0.0
H790 H 0.05779 0.53372 0.05204 0.0
H791 H 0.18302 0.59092 0.06895 0.0
H792 H 0.1686 0.5492 0.07218 0.0
H793 H 0.1544 0.57686 0.08385 0.0
C794 C 0.09797 0.49511 0.09644 0.0
C795 C 0.07801 0.50551 0.10649 0.0
C796 C 0.107 0.50954 0.08193 0.0
C797 C 0.09624 0.53459 0.07729 0.0
C798 C 0.07604 0.54476 0.08724 0.0
H799 H 0.15161 0.65999 0.99817 0.0
H800 H 0.14259 0.63818 0.02498 0.0
C801 C 0.06708 0.53042 0.10175 0.0
C802 C 0.10508 0.54943 0.06176 0.0
H803 H 0.167 0.59203 0.04127 0.0
C804 C 0.08164 0.54654 0.0497 0.0
C805 C 0.13618 0.56644 0.05884 0.0
C806 C 0.16203 0.57137 0.07167 0.0
C807 C 0.08853 0.55968 0.03463 0.0
C808 C 0.11974 0.57583 0.03151 0.0
C809 C 0.14315 0.57935 0.04368 0.0
C810 C 0.12829 0.58902 0.01558 0.0
C811 C 0.06235 0.55638 0.02219 0.0
C812 C 0.12422 0.56855 0.00156 0.0
C813 C 0.12951 0.58087 0.9863 0.0
C814 C 0.13897 0.61395 0.98477 0.0
C815 C 0.1445 0.63443 0.99895 0.0
C816 C 0.13922 0.62203 0.01425 0.0
H817 H 1.03937 0.5497 0.02773 0.0
H818 H 0.06558 0.57893 0.01613 0.0
H819 H 0.06216 0.53753 0.01271 0.0
H820 H 0.1163 0.54299 0.00239 0.0
H821 H 0.12566 0.56447 0.97564 0.0
H822 H 0.49064 0.02805 0.46213 0.0
H823 H 0.50031 0.03331 0.43313 0.0
H824 H 0.57412 0.99115 0.43837 0.0
H825 H 0.56455 0.98575 0.46735 0.0
H826 H 0.55966 0.06566 0.41827 0.0
H827 H 0.51289 0.93595 0.40099 0.0
H828 H 0.50382 0.95356 0.41971 0.0
H829 H 0.54107 0.94752 0.41786 0.0
C830 C 0.50893 0.01995 0.45709 0.0
C831 C 0.52676 0.00637 0.46693 0.0
C832 C 0.51447 0.02303 0.44056 0.0
C833 C 0.53769 0.01232 0.43363 0.0
C834 C 0.55585 0.99921 0.44349 0.0
H835 H 0.59178 0.9942 0.33428 0.0
H836 H 0.58717 0.99348 0.36379 0.0
C837 C 0.55042 0.99624 0.46002 0.0
C838 C 0.54268 0.01452 0.41602 0.0
H839 H 0.53528 0.96936 0.38037 0.0
C840 C 0.55433 0.04467 0.40994 0.0
C841 C 0.53578 0.98703 0.40528 0.0
C842 C 0.52248 0.95413 0.41119 0.0
C843 C 0.55966 0.04807 0.39333 0.0
C844 C 0.5524 0.02056 0.38252 0.0
C845 C 0.54085 0.99041 0.38867 0.0
C846 C 0.55623 0.02239 0.36474 0.0
C847 C 0.57362 0.08102 0.3876 0.0
C848 C 0.54024 0.03875 0.35547 0.0
C849 C 0.5429 0.03926 0.33862 0.0
C850 C 0.56127 0.02305 0.3307 0.0
C851 C 0.57724 0.00668 0.34002 0.0
C852 C 0.57472 0.00635 0.35688 0.0
H853 H 0.58611 0.09815 0.39775 0.0
H854 H 0.59003 0.08099 0.37787 0.0
H855 H 0.55477 0.08962 0.38262 0.0
H856 H 0.52518 0.05058 0.36121 0.0
H857 H 0.52993 0.05164 0.33173 0.0
H858 H 0.58892 0.55627 0.79951 0.0
H859 H 0.58304 0.56186 0.77031 0.0
H860 H 0.55488 0.45964 0.76174 0.0
H861 H 0.55875 0.45408 0.79107 0.0
H862 H 0.61204 0.54871 0.74664 0.0
H863 H 0.48945 0.47698 0.73462 0.0
H864 H 0.5065 0.48763 0.75499 0.0
H865 H 0.51097 0.45354 0.7435 0.0
C866 C 0.58123 0.53504 0.79136 0.0
C867 C 0.57426 0.50476 0.79743 0.0
C868 C 0.57785 0.53822 0.77469 0.0
C869 C 0.56798 0.51118 0.76376 0.0
C870 C 0.56148 0.48087 0.76989 0.0
H871 H 0.61065 0.51596 0.66217 0.0
H872 H 0.61049 0.51334 0.69152 0.0
C873 C 0.56404 0.47767 0.78662 0.0
C874 C 0.56617 0.51484 0.74595 0.0
H875 H 0.5206 0.48731 0.71124 0.0
C876 C 0.59184 0.53555 0.73894 0.0
C877 C 0.53962 0.49829 0.73588 0.0
C878 C 0.50999 0.47819 0.74268 0.0
C879 C 0.59204 0.53961 0.72217 0.0
C880 C 0.56648 0.52117 0.71193 0.0
C881 C 0.54047 0.50107 0.71899 0.0
C882 C 0.56625 0.52216 0.69391 0.0
C883 C 0.61942 0.56421 0.71577 0.0
C884 C 0.54072 0.52637 0.68525 0.0
C885 C 0.54001 0.52632 0.66827 0.0
C886 C 0.56507 0.52258 0.65953 0.0
C887 C 0.59066 0.51848 0.66831 0.0
C888 C 0.59095 0.51768 0.68523 0.0
H889 H 0.63048 0.58353 0.72525 0.0
H890 H 0.63719 0.5528 0.71225 0.0
H891 H 0.61252 0.57505 0.70501 0.0
H892 H 0.5212 0.52957 0.69161 0.0
H893 H 0.5195 0.52873 0.66205 0.0
H894 H 0.62579 0.03697 0.56296 0.0
H895 H 0.62056 0.03146 0.59222 0.0
H896 H 0.52087 0.0049 0.58516 0.0
H897 H 0.52603 0.01017 0.55579 0.0
H898 H 0.59249 0.06231 0.61474 0.0
H899 H 0.53458 0.93157 0.60986 0.0
H900 H 0.55396 0.9528 0.59316 0.0
H901 H 0.51606 0.9544 0.59809 0.0
C902 C 0.60277 0.03001 0.56766 0.0
C903 C 0.57628 0.02362 0.55714 0.0
C904 C 0.59981 0.02689 0.58436 0.0
C905 C 0.57033 0.01724 0.59081 0.0
C906 C 0.54382 0.01169 0.58037 0.0
H907 H 0.51684 0.98025 0.69051 0.0
H908 H 0.51652 0.98717 0.66122 0.0
C909 C 0.54677 0.01481 0.56364 0.0
C910 C 0.56759 0.01303 0.60849 0.0
H911 H 0.5412 0.95735 0.63617 0.0
C912 C 0.58124 0.03938 0.61944 0.0
C913 C 0.55283 0.98309 0.61456 0.0
C914 C 0.53871 0.95374 0.60335 0.0
C915 C 0.58055 0.03661 0.63632 0.0
C916 C 0.56631 0.00656 0.64239 0.0
C917 C 0.55215 0.98033 0.63146 0.0
C918 C 0.56652 1.00175 0.66005 0.0
C919 C 0.59485 0.06593 0.64753 0.0
C920 C 0.59471 0.00699 0.66901 0.0
C921 C 0.59499 1.00287 0.6857 0.0
C922 C 0.56703 0.99326 0.69377 0.0
C923 C 0.53877 0.98736 0.68466 0.0
C924 C 0.53853 0.99148 0.66795 0.0
H925 H 0.59722 0.08809 0.64122 0.0
H926 H 0.58074 0.06601 0.65831 0.0
H927 H 0.61839 0.0662 0.65188 0.0
H928 H 0.61654 0.0142 0.66306 0.0
H929 H 0.61711 0.00703 0.69228 0.0
H930 H 0.47827 0.4211 0.88192 0.0
H931 H 0.48076 0.42057 0.91174 0.0
H932 H 0.55502 0.50941 0.91468 0.0
H933 H 0.55226 0.51035 0.88507 0.0
H934 H 0.52921 0.42091 0.93327 0.0
H935 H 0.49317 0.52878 0.94512 0.0
H936 H 0.48892 0.50841 0.92522 0.0
H937 H 0.52589 0.53549 0.93253 0.0
C938 C 0.49501 0.44053 0.88897 0.0
C939 C 0.5148 0.46594 0.88122 0.0
C940 C 0.49645 0.44019 0.90597 0.0
C941 C 0.51765 0.46528 0.91544 0.0
C942 C 0.53794 0.49023 0.90765 0.0
H943 H 0.58543 0.47223 0.01549 0.0
H944 H 0.57752 0.46663 0.98583 0.0
C945 C 0.53642 0.49065 0.89072 0.0
C946 C 0.51895 0.4654 0.93346 0.0
H947 H 0.51493 0.51021 0.96787 0.0
C948 C 0.52584 0.44029 0.94085 0.0
C949 C 0.51412 0.49047 0.94334 0.0
C950 C 0.5048 0.51715 0.93617 0.0
C951 C 0.52893 0.44005 0.95787 0.0
C952 C 0.52559 0.46592 0.96772 0.0
C953 C 0.51783 0.49056 0.96032 0.0
C954 C 0.53012 0.4681 0.98573 0.0
C955 C 0.5354 0.41194 0.96512 0.0
C956 C 0.50639 0.47152 0.99554 0.0
C957 C 0.51097 0.47503 0.01248 0.0
C958 C 0.53941 0.47522 0.01996 0.0
C959 C 0.56311 0.47168 0.01011 0.0
C960 C 0.55858 0.46837 0.99315 0.0
H961 H 0.52818 0.3905 0.95651 0.0
H962 H 0.56073 0.41772 0.96794 0.0
H963 H 0.52321 0.40614 0.97657 0.0
H964 H 0.48428 0.4715 0.99008 0.0
H965 H 0.49215 0.47739 0.01974 0.0
H966 H 0.09283 0.4806 0.19618 0.0
H967 H 0.09297 0.47065 0.22521 0.0
H968 H 1.04101 0.53652 0.23428 0.0
H969 H 1.04127 0.54693 0.20545 0.0
H970 H 0.09291 0.54805 0.25499 0.0
H971 H 1.02308 0.42032 0.25253 0.0
H972 H 0.05575 0.42966 0.2398 0.0
H973 H 1.02389 0.44481 0.23559 0.0
C974 C 0.08119 0.49267 0.20437 0.0
C975 C 0.06713 0.51462 0.19862 0.0
C976 C 0.08113 0.48685 0.22092 0.0
C977 C 0.06675 0.50264 0.23187 0.0
C978 C 0.05221 0.52407 0.22603 0.0
H979 H 1.03439 0.51724 0.33355 0.0
H980 H 1.03651 0.51987 0.30403 0.0
C981 C 0.05237 0.52998 0.20956 0.0
C982 C 0.06817 0.49842 0.24958 0.0
H983 H 1.04507 0.44421 0.27831 0.0
C984 C 0.08248 0.52533 0.26008 0.0
C985 C 0.05472 0.4687 0.25617 0.0
C986 C 1.03825 0.43923 0.24549 0.0
C987 C 0.08341 0.52344 0.27701 0.0
C988 C 0.06938 0.49392 0.28361 0.0
C989 C 0.05576 0.4668 0.27315 0.0
C990 C 0.06746 0.49124 0.30139 0.0
C991 C 0.09939 0.55304 0.28772 0.0
C992 C 0.0837 0.47372 0.30961 0.0
C993 C 0.08248 0.4721 0.3265 0.0
C994 C 0.06469 0.48768 0.3354 0.0
C995 C 1.04806 0.50474 0.32703 0.0
C996 C 1.04943 0.50648 0.3102 0.0
H997 H 0.11524 0.57169 0.28081 0.0
H998 H 0.08162 0.56288 0.29288 0.0
H999 H 0.11293 0.54749 0.298 0.0
H1000 H 0.09761 0.46167 0.30297 0.0
H1001 H 0.09526 0.45849 0.33259 0.0
loop_
_geom_bond_atom_site_label_1
_geom_bond_atom_site_label_2
_geom_bond_distance
_geom_bond_site_symmetry_2
_ccdc_geom_bond_type
Nd0 C2 2.836 . S
Nd0 O20 2.500 . S
Nd0 O21 2.492 . S
Nd0 O22 2.487 . S
Nd0 O23 2.682 . S
Nd0 O24 2.410 . S
Nd0 O29 2.414 . S
Nd0 O31 2.424 1_455 S
Nd1 C11 2.836 1_455 S
Nd1 O23 2.414 . S
Nd1 O25 2.424 . S
Nd1 O26 2.500 1_455 S
Nd1 O27 2.492 1_455 S
Nd1 O28 2.487 . S
Nd1 O29 2.682 . S
Nd1 O30 2.410 1_455 S
C2 Nd0 2.836 . S
C2 C3 1.498 . S
C2 O20 1.258 . S
C2 O21 1.239 . S
C3 C2 1.498 . S
C3 C4 1.366 . S
C3 C8 1.407 . S
C4 C3 1.366 . S
C4 C5 1.392 . S
C4 H32 0.930 . S
C5 C4 1.392 . S
C5 C6 1.398 . S
C5 H33 0.929 . S
C6 C5 1.398 . S
C6 C7 1.352 . S
C7 C6 1.352 . S
C7 C8 1.384 . S
C7 H34 0.930 . S
C8 C3 1.407 . S
C8 C7 1.384 . S
C8 H35 0.929 . S
C9 O22 1.241 . S
C9 O23 1.273 . S
C10 O24 1.251 . S
C10 O25 1.268 . S
C11 Nd1 2.836 1_655 S
C11 C12 1.498 . S
C11 O26 1.258 . S
C11 O27 1.239 . S
C12 C11 1.498 . S
C12 C13 1.366 . S
C12 C17 1.407 . S
C13 C12 1.366 . S
C13 C14 1.392 . S
C13 H36 0.930 . S
C14 C13 1.392 . S
C14 C15 1.398 . S
C14 H37 0.929 . S
C15 C14 1.398 . S
C15 C16 1.352 . S
C16 C15 1.352 . S
C16 C17 1.384 . S
C16 H38 0.930 . S
C17 C12 1.407 . S
C17 C16 1.384 . S
C17 H39 0.929 . S
C18 O28 1.241 . S
C18 O29 1.273 . S
C19 O30 1.251 . S
C19 O31 1.268 . S
O20 Nd0 2.500 . S
O20 C2 1.258 . S
O21 Nd0 2.492 . S
O21 C2 1.239 . S
O22 Nd0 2.487 . S
O22 C9 1.241 . S
O23 Nd0 2.682 . S
O23 Nd1 2.414 . S
O23 C9 1.273 . S
O24 Nd0 2.410 . S
O24 C10 1.251 . S
O25 Nd1 2.424 . S
O25 C10 1.268 . S
O26 Nd1 2.500 1_655 S
O26 C11 1.258 . S
O27 Nd1 2.492 1_655 S
O27 C11 1.239 . S
O28 Nd1 2.487 . S
O28 C18 1.241 . S
O29 Nd0 2.414 . S
O29 Nd1 2.682 . S
O29 C18 1.273 . S
O30 Nd1 2.410 1_655 S
O30 C19 1.251 . S
O31 Nd0 2.424 1_655 S
O31 C19 1.268 . S
H32 C4 0.930 . S
H33 C5 0.929 . S
H34 C7 0.930 . S
H35 C8 0.929 . S
H36 C13 0.930 . S
H37 C14 0.929 . S
H38 C16 0.930 . S
H39 C17 0.929 . S
Nd40 C42 2.836 1_545 S
Nd40 O60 2.500 1_545 S
Nd40 O61 2.492 1_545 S
Nd40 O62 2.487 . S
Nd40 O63 2.682 . S
Nd40 O64 2.410 1_545 S
Nd40 O69 2.414 . S
Nd40 O71 2.424 . S
Nd41 C51 2.836 . S
Nd41 O63 2.414 . S
Nd41 O65 2.424 1_545 S
Nd41 O66 2.500 . S
Nd41 O67 2.492 . S
Nd41 O68 2.487 . S
Nd41 O69 2.682 . S
Nd41 O70 2.410 . S
C42 Nd40 2.836 1_565 S
C42 C43 1.498 . S
C42 O60 1.258 . S
C42 O61 1.239 . S
C43 C42 1.498 . S
C43 C44 1.366 . S
C43 C48 1.407 . S
C44 C43 1.366 . S
C44 C45 1.392 . S
C44 H72 0.930 . S
C45 C44 1.392 . S
C45 C46 1.398 . S
C45 H73 0.929 . S
C46 C45 1.398 . S
C46 C47 1.352 . S
C47 C46 1.352 . S
C47 C48 1.384 . S
C47 H74 0.930 . S
C48 C43 1.407 . S
C48 C47 1.384 . S
C48 H75 0.929 . S
C49 O62 1.241 . S
C49 O63 1.273 . S
C50 O64 1.251 . S
C50 O65 1.268 . S
C51 Nd41 2.836 . S
C51 C52 1.498 . S
C51 O66 1.258 . S
C51 O67 1.239 . S
C52 C51 1.498 . S
C52 C53 1.366 . S
C52 C57 1.407 . S
C53 C52 1.366 . S
C53 C54 1.392 . S
C53 H76 0.930 . S
C54 C53 1.392 . S
C54 C55 1.398 . S
C54 H77 0.929 . S
C55 C54 1.398 . S
C55 C56 1.352 . S
C56 C55 1.352 . S
C56 C57 1.384 . S
C56 H78 0.930 . S
C57 C52 1.407 . S
C57 C56 1.384 . S
C57 H79 0.929 . S
C58 O68 1.241 . S
C58 O69 1.273 . S
C59 O70 1.251 . S
C59 O71 1.268 . S
O60 Nd40 2.500 1_565 S
O60 C42 1.258 . S
O61 Nd40 2.492 1_565 S
O61 C42 1.239 . S
O62 Nd40 2.487 . S
O62 C49 1.241 . S
O63 Nd40 2.682 . S
O63 Nd41 2.414 . S
O63 C49 1.273 . S
O64 Nd40 2.410 1_565 S
O64 C50 1.251 . S
O65 Nd41 2.424 1_565 S
O65 C50 1.268 . S
O66 Nd41 2.500 . S
O66 C51 1.258 . S
O67 Nd41 2.492 . S
O67 C51 1.239 . S
O68 Nd41 2.487 . S
O68 C58 1.241 . S
O69 Nd40 2.414 . S
O69 Nd41 2.682 . S
O69 C58 1.273 . S
O70 Nd41 2.410 . S
O70 C59 1.251 . S
O71 Nd40 2.424 . S
O71 C59 1.268 . S
H72 C44 0.930 . S
H73 C45 0.929 . S
H74 C47 0.930 . S
H75 C48 0.929 . S
H76 C53 0.930 . S
H77 C54 0.929 . S
H78 C56 0.930 . S
H79 C57 0.929 . S
Nd80 C82 2.836 . S
Nd80 O100 2.500 . S
Nd80 O101 2.492 . S
Nd80 O102 2.487 . S
Nd80 O103 2.682 . S
Nd80 O104 2.410 . S
Nd80 O109 2.414 . S
Nd80 O111 2.424 . S
Nd81 C91 2.836 . S
Nd81 O103 2.414 . S
Nd81 O105 2.424 . S
Nd81 O106 2.500 . S
Nd81 O107 2.492 . S
Nd81 O108 2.487 . S
Nd81 O109 2.682 . S
Nd81 O110 2.410 . S
C82 Nd80 2.836 . S
C82 C83 1.498 . S
C82 O100 1.258 . S
C82 O101 1.239 . S
C83 C82 1.498 . S
C83 C84 1.366 . S
C83 C88 1.407 . S
C84 C83 1.366 . S
C84 C85 1.392 . S
C84 H112 0.930 . S
C85 C84 1.392 . S
C85 C86 1.398 . S
C85 H113 0.929 . S
C86 C85 1.398 . S
C86 C87 1.352 . S
C87 C86 1.352 . S
C87 C88 1.384 . S
C87 H114 0.930 . S
C88 C83 1.407 . S
C88 C87 1.384 . S
C88 H115 0.929 . S
C89 O102 1.241 . S
C89 O103 1.273 . S
C90 O104 1.251 . S
C90 O105 1.268 . S
C91 Nd81 2.836 . S
C91 C92 1.498 . S
C91 O106 1.258 . S
C91 O107 1.239 . S
C92 C91 1.498 . S
C92 C93 1.366 . S
C92 C97 1.407 . S
C93 C92 1.366 . S
C93 C94 1.392 . S
C93 H116 0.930 . S
C94 C93 1.392 . S
C94 C95 1.398 . S
C94 H117 0.929 . S
C95 C94 1.398 . S
C95 C96 1.352 . S
C96 C95 1.352 . S
C96 C97 1.384 . S
C96 H118 0.930 . S
C97 C92 1.407 . S
C97 C96 1.384 . S
C97 H119 0.929 . S
C98 O108 1.241 . S
C98 O109 1.273 . S
C99 O110 1.251 . S
C99 O111 1.268 . S
O100 Nd80 2.500 . S
O100 C82 1.258 . S
O101 Nd80 2.492 . S
O101 C82 1.239 . S
O102 Nd80 2.487 . S
O102 C89 1.241 . S
O103 Nd80 2.682 . S
O103 Nd81 2.414 . S
O103 C89 1.273 . S
O104 Nd80 2.410 . S
O104 C90 1.251 . S
O105 Nd81 2.424 . S
O105 C90 1.268 . S
O106 Nd81 2.500 . S
O106 C91 1.258 . S
O107 Nd81 2.492 . S
O107 C91 1.239 . S
O108 Nd81 2.487 . S
O108 C98 1.241 . S
O109 Nd80 2.414 . S
O109 Nd81 2.682 . S
O109 C98 1.273 . S
O110 Nd81 2.410 . S
O110 C99 1.251 . S
O111 Nd80 2.424 . S
O111 C99 1.268 . S
H112 C84 0.930 . S
H113 C85 0.929 . S
H114 C87 0.930 . S
H115 C88 0.929 . S
H116 C93 0.930 . S
H117 C94 0.929 . S
H118 C96 0.930 . S
H119 C97 0.929 . S
C120 C121 1.386 . S
C120 C122 1.397 . S
C120 H144 0.931 . S
C121 C120 1.386 . S
C121 C125 1.397 . S
C122 C120 1.397 . S
C122 C123 1.384 . S
C122 H145 0.930 . S
C123 C122 1.384 . S
C123 C124 1.377 . S
C123 C126 1.481 . S
C124 C123 1.377 . S
C124 C125 1.389 . S
C124 H146 0.929 1_545 S
C125 C121 1.397 . S
C125 C124 1.389 . S
C125 H147 0.931 1_545 S
C126 C123 1.481 . S
C126 C127 1.387 . S
C126 C131 1.390 . S
C127 C126 1.387 . S
C127 C128 1.401 . S
C127 H148 0.930 . S
C128 C127 1.401 . S
C128 C129 1.376 . S
C128 C137 1.511 . S
C129 C128 1.376 . S
C129 C130 1.392 . S
C129 H150 0.931 . S
C130 C129 1.392 . S
C130 C131 1.361 . S
C130 C132 1.500 1_545 S
C131 C126 1.390 . S
C131 C130 1.361 . S
C131 H149 0.931 1_545 S
C132 C130 1.500 1_565 S
C132 C133 1.371 . S
C132 C134 1.365 . S
C133 C132 1.371 . S
C133 C143 1.386 . S
C133 H151 0.923 1_565 S
C134 C132 1.365 . S
C134 C135 1.409 . S
C134 H152 0.929 . S
C135 C134 1.409 . S
C135 C136 1.380 . S
C135 H153 0.930 . S
C136 C135 1.380 . S
C136 C143 1.357 . S
C137 C128 1.511 . S
C137 C138 1.341 . S
C137 C139 1.371 . S
C138 C137 1.341 . S
C138 C142 1.394 . S
C138 H154 0.930 . S
C139 C137 1.371 . S
C139 C140 1.392 . S
C139 H155 0.931 . S
C140 C139 1.392 . S
C140 C141 1.331 . S
C140 H158 0.932 . S
C141 C140 1.331 . S
C141 C142 1.336 . S
C142 C138 1.394 . S
C142 C141 1.336 . S
C142 H157 0.929 . S
C143 C133 1.386 . S
C143 C136 1.357 . S
C143 H156 0.928 . S
H144 C120 0.931 . S
H145 C122 0.930 . S
H146 C124 0.929 1_565 S
H147 C125 0.931 1_565 S
H148 C127 0.930 . S
H149 C131 0.931 1_565 S
H150 C129 0.931 . S
H151 C133 0.923 1_545 S
H152 C134 0.929 . S
H153 C135 0.930 . S
H154 C138 0.930 . S
H155 C139 0.931 . S
H156 C143 0.928 . S
H157 C142 0.929 . S
H158 C140 0.932 . S
C159 C160 1.386 . S
C159 C161 1.397 . S
C159 H183 0.931 . S
C160 C159 1.386 . S
C160 C164 1.397 . S
C161 C159 1.397 . S
C161 C162 1.384 . S
C161 H184 0.930 . S
C162 C161 1.384 . S
C162 C163 1.377 . S
C162 C165 1.481 . S
C163 C162 1.377 . S
C163 C164 1.389 . S
C163 H185 0.929 . S
C164 C160 1.397 . S
C164 C163 1.389 . S
C164 H186 0.931 . S
C165 C162 1.481 . S
C165 C166 1.387 . S
C165 C170 1.390 . S
C166 C165 1.387 . S
C166 C167 1.401 . S
C166 H187 0.930 . S
C167 C166 1.401 . S
C167 C168 1.376 . S
C167 C176 1.511 . S
C168 C167 1.376 . S
C168 C169 1.392 . S
C168 H189 0.931 . S
C169 C168 1.392 . S
C169 C170 1.361 . S
C169 C171 1.500 . S
C170 C165 1.390 . S
C170 C169 1.361 . S
C170 H188 0.931 . S
C171 C169 1.500 . S
C171 C172 1.371 . S
C171 C173 1.365 . S
C172 C171 1.371 . S
C172 C182 1.386 . S
C172 H190 0.931 . S
C173 C171 1.365 . S
C173 C174 1.409 . S
C173 H191 0.929 . S
C174 C173 1.409 . S
C174 C175 1.380 . S
C174 H192 0.930 . S
C175 C174 1.380 . S
C175 C182 1.357 . S
C176 C167 1.511 . S
C176 C177 1.341 . S
C176 C178 1.371 . S
C177 C176 1.341 . S
C177 C181 1.394 . S
C177 H193 0.930 . S
C178 C176 1.371 . S
C178 C179 1.392 . S
C178 H194 0.931 . S
C179 C178 1.392 . S
C179 C180 1.331 . S
C179 H197 0.932 . S
C180 C179 1.331 . S
C180 C181 1.336 . S
C181 C177 1.394 . S
C181 C180 1.336 . S
C181 H196 0.929 . S
C182 C172 1.386 . S
C182 C175 1.357 . S
C182 H195 0.928 . S
H183 C159 0.931 . S
H184 C161 0.930 . S
H185 C163 0.929 . S
H186 C164 0.931 . S
H187 C166 0.930 . S
H188 C170 0.931 . S
H189 C168 0.931 . S
H190 C172 0.931 . S
H191 C173 0.929 . S
H192 C174 0.930 . S
H193 C177 0.930 . S
H194 C178 0.931 . S
H195 C182 0.928 . S
H196 C181 0.929 . S
H197 C179 0.932 . S
C198 C199 1.386 . S
C198 C200 1.397 . S
C198 H222 0.931 . S
C199 C198 1.386 . S
C199 C203 1.397 . S
C200 C198 1.397 . S
C200 C201 1.384 . S
C200 H223 0.930 . S
C201 C200 1.384 . S
C201 C202 1.377 . S
C201 C204 1.481 . S
C202 C201 1.377 . S
C202 C203 1.389 . S
C202 H224 0.929 1_455 S
C203 C199 1.397 . S
C203 C202 1.389 . S
C203 H225 0.931 1_455 S
C204 C201 1.481 . S
C204 C205 1.387 . S
C204 C209 1.390 . S
C205 C204 1.387 . S
C205 C206 1.401 . S
C205 H226 0.930 . S
C206 C205 1.401 . S
C206 C207 1.376 . S
C206 C215 1.511 . S
C207 C206 1.376 . S
C207 C208 1.392 . S
C207 H228 0.931 . S
C208 C207 1.392 . S
C208 C209 1.361 . S
C208 C210 1.500 1_455 S
C209 C204 1.390 . S
C209 C208 1.361 . S
C209 H227 0.931 1_455 S
C210 C208 1.500 1_655 S
C210 C211 1.371 . S
C210 C212 1.365 . S
C211 C210 1.371 . S
C211 C221 1.386 . S
C211 H229 0.931 1_655 S
C212 C210 1.365 . S
C212 C213 1.409 . S
C212 H230 0.929 . S
C213 C212 1.409 . S
C213 C214 1.380 . S
C213 H231 0.930 . S
C214 C213 1.380 . S
C214 C221 1.357 . S
C215 C206 1.511 . S
C215 C216 1.341 . S
C215 C217 1.371 . S
C216 C215 1.341 . S
C216 C220 1.394 . S
C216 H232 0.930 . S
C217 C215 1.371 . S
C217 C218 1.392 . S
C217 H233 0.931 . S
C218 C217 1.392 . S
C218 C219 1.331 . S
C218 H236 0.932 . S
C219 C218 1.331 . S
C219 C220 1.336 . S
C220 C216 1.394 . S
C220 C219 1.336 . S
C220 H235 0.929 . S
C221 C211 1.386 . S
C221 C214 1.357 . S
C221 H234 0.928 . S
H222 C198 0.931 . S
H223 C200 0.930 . S
H224 C202 0.929 1_655 S
H225 C203 0.931 1_655 S
H226 C205 0.930 . S
H227 C209 0.931 1_655 S
H228 C207 0.931 . S
H229 C211 0.931 1_455 S
H230 C212 0.929 . S
H231 C213 0.930 . S
H232 C216 0.930 . S
H233 C217 0.931 . S
H234 C221 0.928 . S
H235 C220 0.929 . S
H236 C218 0.932 . S
C237 C238 1.376 1_655 S
C237 C239 1.397 . S
C237 H261 0.931 . S
C238 C237 1.376 1_455 S
C238 C242 1.407 . S
C239 C237 1.397 . S
C239 C240 1.415 . S
C239 H262 0.930 . S
C240 C239 1.415 . S
C240 C241 1.345 1_655 S
C240 C243 1.483 . S
C241 C240 1.345 1_455 S
C241 C242 1.389 . S
C241 H263 0.929 . S
C242 C238 1.407 . S
C242 C241 1.389 . S
C242 H264 0.931 . S
C243 C240 1.483 . S
C243 C244 1.387 . S
C243 C248 1.390 1_655 S
C244 C243 1.387 . S
C244 C245 1.401 . S
C244 H265 0.930 . S
C245 C244 1.401 . S
C245 C246 1.396 . S
C245 C254 1.511 . S
C246 C245 1.396 . S
C246 C247 1.372 1_655 S
C246 H267 0.931 . S
C247 C246 1.372 1_455 S
C247 C248 1.361 . S
C247 C249 1.500 . S
C248 C243 1.390 1_455 S
C248 C247 1.361 . S
C248 H266 0.931 . S
C249 C247 1.500 . S
C249 C250 1.371 . S
C249 C251 1.365 . S
C250 C249 1.371 . S
C250 C260 1.386 . S
C250 H268 0.931 . S
C251 C249 1.365 . S
C251 C252 1.409 . S
C251 H269 0.929 . S
C252 C251 1.409 . S
C252 C253 1.380 . S
C252 H270 0.930 . S
C253 C252 1.380 . S
C253 C260 1.357 . S
C254 C245 1.511 . S
C254 C255 1.341 . S
C254 C256 1.371 . S
C255 C254 1.341 . S
C255 C259 1.394 . S
C255 H271 0.930 . S
C256 C254 1.371 . S
C256 C257 1.392 . S
C256 H272 0.931 . S
C257 C256 1.392 . S
C257 C258 1.331 . S
C257 H275 0.932 . S
C258 C257 1.331 . S
C258 C259 1.336 . S
C259 C255 1.394 . S
C259 C258 1.336 . S
C259 H274 0.929 . S
C260 C250 1.386 . S
C260 C253 1.357 . S
C260 H273 0.928 . S
H261 C237 0.931 . S
H262 C239 0.930 . S
H263 C241 0.929 . S
H264 C242 0.931 . S
H265 C244 0.930 . S
H266 C248 0.931 . S
H267 C246 0.931 . S
H268 C250 0.931 . S
H269 C251 0.929 . S
H270 C252 0.930 . S
H271 C255 0.930 . S
H272 C256 0.931 . S
H273 C260 0.928 . S
H274 C259 0.929 . S
H275 C257 0.932 . S
C276 C277 1.386 1_565 S
C276 C278 1.397 . S
C276 H300 0.931 . S
C277 C276 1.386 1_545 S
C277 C281 1.397 . S
C278 C276 1.397 . S
C278 C279 1.384 1_565 S
C278 H301 0.930 . S
C279 C278 1.384 1_545 S
C279 C280 1.377 . S
C279 C282 1.481 . S
C280 C279 1.377 . S
C280 C281 1.389 . S
C280 H302 0.929 . S
C281 C277 1.397 . S
C281 C280 1.389 . S
C281 H303 0.931 . S
C282 C279 1.481 . S
C282 C283 1.387 1_545 S
C282 C287 1.390 . S
C283 C282 1.387 1_565 S
C283 C284 1.401 . S
C283 H304 0.930 . S
C284 C283 1.401 . S
C284 C285 1.376 1_565 S
C284 C293 1.511 . S
C285 C284 1.376 1_545 S
C285 C286 1.392 . S
C285 H306 0.931 . S
C286 C285 1.392 . S
C286 C287 1.361 . S
C286 C288 1.500 . S
C287 C282 1.390 . S
C287 C286 1.361 . S
C287 H305 0.931 . S
C288 C286 1.500 . S
C288 C289 1.371 . S
C288 C290 1.365 . S
C289 C288 1.371 . S
C289 C299 1.386 . S
C289 H307 0.931 . S
C290 C288 1.365 . S
C290 C291 1.409 . S
C290 H308 0.929 . S
C291 C290 1.409 . S
C291 C292 1.380 . S
C291 H309 0.930 . S
C292 C291 1.380 . S
C292 C299 1.357 . S
C293 C284 1.511 . S
C293 C294 1.341 . S
C293 C295 1.371 . S
C294 C293 1.341 . S
C294 C298 1.394 . S
C294 H310 0.930 . S
C295 C293 1.371 . S
C295 C296 1.392 . S
C295 H311 0.931 . S
C296 C295 1.392 . S
C296 C297 1.331 . S
C296 H314 0.932 . S
C297 C296 1.331 . S
C297 C298 1.336 . S
C298 C294 1.394 . S
C298 C297 1.336 . S
C298 H313 0.929 . S
C299 C289 1.386 . S
C299 C292 1.357 . S
C299 H312 0.928 . S
H300 C276 0.931 . S
H301 C278 0.930 . S
H302 C280 0.929 . S
H303 C281 0.931 . S
H304 C283 0.930 . S
H305 C287 0.931 . S
H306 C285 0.931 . S
H307 C289 0.931 . S
H308 C290 0.929 . S
H309 C291 0.930 . S
H310 C294 0.930 . S
H311 C295 0.931 . S
H312 C299 0.928 . S
H313 C298 0.929 . S
H314 C296 0.932 . S
C315 C316 1.386 . S
C315 C317 1.397 . S
C315 H339 0.931 . S
C316 C315 1.386 . S
C316 C320 1.397 . S
C317 C315 1.397 . S
C317 C318 1.384 . S
C317 H340 0.930 . S
C318 C317 1.384 . S
C318 C319 1.377 . S
C318 C321 1.481 . S
C319 C318 1.377 . S
C319 C320 1.389 . S
C319 H341 0.929 . S
C320 C316 1.397 . S
C320 C319 1.389 . S
C320 H342 0.931 . S
C321 C318 1.481 . S
C321 C322 1.387 . S
C321 C326 1.390 . S
C322 C321 1.387 . S
C322 C323 1.401 . S
C322 H343 0.930 . S
C323 C322 1.401 . S
C323 C324 1.376 . S
C323 C332 1.511 . S
C324 C323 1.376 . S
C324 C325 1.392 . S
C324 H345 0.931 . S
C325 C324 1.392 . S
C325 C326 1.361 . S
C325 C327 1.500 . S
C326 C321 1.390 . S
C326 C325 1.361 . S
C326 H344 0.931 . S
C327 C325 1.500 . S
C327 C328 1.371 . S
C327 C329 1.365 . S
C328 C327 1.371 . S
C328 C338 1.386 . S
C328 H346 0.931 . S
C329 C327 1.365 . S
C329 C330 1.409 . S
C329 H347 0.929 . S
C330 C329 1.409 . S
C330 C331 1.380 . S
C330 H348 0.930 . S
C331 C330 1.380 . S
C331 C338 1.357 . S
C332 C323 1.511 . S
C332 C333 1.341 . S
C332 C334 1.371 . S
C333 C332 1.341 . S
C333 C337 1.394 . S
C333 H349 0.930 . S
C334 C332 1.371 . S
C334 C335 1.392 . S
C334 H350 0.931 . S
C335 C334 1.392 . S
C335 C336 1.331 . S
C335 H353 0.932 . S
C336 C335 1.331 . S
C336 C337 1.336 . S
C337 C333 1.394 . S
C337 C336 1.336 . S
C337 H352 0.929 . S
C338 C328 1.386 . S
C338 C331 1.357 . S
C338 H351 0.928 . S
H339 C315 0.931 . S
H340 C317 0.930 . S
H341 C319 0.929 . S
H342 C320 0.931 . S
H343 C322 0.930 . S
H344 C326 0.931 . S
H345 C324 0.931 . S
H346 C328 0.931 . S
H347 C329 0.929 . S
H348 C330 0.930 . S
H349 C333 0.930 . S
H350 C334 0.931 . S
H351 C338 0.928 . S
H352 C337 0.929 . S
H353 C335 0.932 . S
H354 C362 0.929 . S
H355 C364 0.930 . S
H356 C366 0.930 . S
H357 C369 0.929 . S
H358 C372 0.930 . S
H359 C374 0.960 . S
H360 C374 0.960 . S
H361 C374 0.960 . S
C362 H354 0.929 . S
C362 C363 1.377 . S
C362 C364 1.384 . S
C363 C362 1.377 . S
C363 C369 1.390 . S
C364 H355 0.930 . S
C364 C362 1.384 . S
C364 C365 1.372 . S
C365 C364 1.372 . S
C365 C366 1.400 . S
C365 C370 1.490 . S
C366 H356 0.930 . S
C366 C365 1.400 . S
C366 C369 1.386 . S
H367 C383 0.930 . S
H368 C384 0.931 . S
C369 H357 0.929 . S
C369 C363 1.390 . S
C369 C366 1.386 . S
C370 C365 1.490 . S
C370 C372 1.395 . S
C370 C373 1.403 . S
H371 C377 0.930 . S
C372 H358 0.930 . S
C372 C370 1.395 . S
C372 C375 1.403 . S
C373 C370 1.403 . S
C373 C374 1.524 . S
C373 C377 1.400 . S
C374 H359 0.960 . S
C374 H360 0.960 . S
C374 H361 0.960 . S
C374 C373 1.524 . S
C375 C372 1.403 . S
C375 C376 1.392 . S
C375 C379 1.495 . S
C376 C375 1.392 . S
C376 C377 1.385 . S
C376 C378 1.478 . S
C377 H371 0.930 . S
C377 C373 1.400 . S
C377 C376 1.385 . S
C378 C376 1.478 . S
C378 C380 1.381 . S
C378 C384 1.383 . S
C379 C375 1.495 . S
C379 H385 0.959 . S
C379 H386 0.961 . S
C379 H387 0.960 . S
C380 C378 1.381 . S
C380 C381 1.394 . S
C380 H388 0.930 . S
C381 C380 1.394 . S
C381 C382 1.383 . S
C381 H389 0.929 . S
C382 C381 1.383 . S
C382 C383 1.377 . S
C383 H367 0.930 . S
C383 C382 1.377 . S
C383 C384 1.379 . S
C384 H368 0.931 . S
C384 C378 1.383 . S
C384 C383 1.379 . S
H385 C379 0.959 . S
H386 C379 0.961 . S
H387 C379 0.960 . S
H388 C380 0.930 . S
H389 C381 0.929 . S
H390 C398 0.929 . S
H391 C400 0.930 . S
H392 C402 0.930 . S
H393 C405 0.929 . S
H394 C408 0.930 . S
H395 C410 0.960 . S
H396 C410 0.960 . S
H397 C410 0.960 . S
C398 H390 0.929 . S
C398 C399 1.377 . S
C398 C400 1.384 . S
C399 C398 1.377 . S
C399 C405 1.390 . S
C400 H391 0.930 . S
C400 C398 1.384 . S
C400 C401 1.372 . S
C401 C400 1.372 . S
C401 C402 1.400 . S
C401 C406 1.490 . S
C402 H392 0.930 . S
C402 C401 1.400 . S
C402 C405 1.386 . S
H403 C419 0.930 . S
H404 C420 0.931 . S
C405 H393 0.929 . S
C405 C399 1.390 . S
C405 C402 1.386 . S
C406 C401 1.490 . S
C406 C408 1.395 . S
C406 C409 1.403 . S
H407 C413 0.930 . S
C408 H394 0.930 . S
C408 C406 1.395 . S
C408 C411 1.403 . S
C409 C406 1.403 . S
C409 C410 1.524 . S
C409 C413 1.400 . S
C410 H395 0.960 . S
C410 H396 0.960 . S
C410 H397 0.960 . S
C410 C409 1.524 . S
C411 C408 1.403 . S
C411 C412 1.392 . S
C411 C415 1.495 . S
C412 C411 1.392 . S
C412 C413 1.385 . S
C412 C414 1.478 . S
C413 H407 0.930 . S
C413 C409 1.400 . S
C413 C412 1.385 . S
C414 C412 1.478 . S
C414 C416 1.381 . S
C414 C420 1.383 . S
C415 C411 1.495 . S
C415 H421 0.959 . S
C415 H422 0.961 . S
C415 H423 0.960 . S
C416 C414 1.381 . S
C416 C417 1.394 . S
C416 H424 0.930 . S
C417 C416 1.394 . S
C417 C418 1.383 . S
C417 H425 0.929 . S
C418 C417 1.383 . S
C418 C419 1.377 . S
C419 H403 0.930 . S
C419 C418 1.377 . S
C419 C420 1.379 . S
C420 H404 0.931 . S
C420 C414 1.383 . S
C420 C419 1.379 . S
H421 C415 0.959 . S
H422 C415 0.961 . S
H423 C415 0.960 . S
H424 C416 0.930 . S
H425 C417 0.929 . S
H426 C434 0.929 . S
H427 C436 0.930 . S
H428 C438 0.930 . S
H429 C441 0.929 . S
H430 C444 0.930 . S
H431 C446 0.960 . S
H432 C446 0.960 . S
H433 C446 0.960 . S
C434 H426 0.929 . S
C434 C435 1.377 . S
C434 C436 1.384 . S
C435 C434 1.377 . S
C435 C441 1.390 . S
C436 H427 0.930 . S
C436 C434 1.384 . S
C436 C437 1.372 . S
C437 C436 1.372 . S
C437 C438 1.400 . S
C437 C442 1.490 . S
C438 H428 0.930 . S
C438 C437 1.400 . S
C438 C441 1.386 . S
H439 C455 0.930 . S
H440 C456 0.931 . S
C441 H429 0.929 . S
C441 C435 1.390 . S
C441 C438 1.386 . S
C442 C437 1.490 . S
C442 C444 1.395 . S
C442 C445 1.403 . S
H443 C449 0.930 . S
C444 H430 0.930 . S
C444 C442 1.395 . S
C444 C447 1.403 . S
C445 C442 1.403 . S
C445 C446 1.524 . S
C445 C449 1.400 . S
C446 H431 0.960 . S
C446 H432 0.960 . S
C446 H433 0.960 . S
C446 C445 1.524 . S
C447 C444 1.403 . S
C447 C448 1.392 . S
C447 C451 1.495 . S
C448 C447 1.392 . S
C448 C449 1.385 . S
C448 C450 1.478 . S
C449 H443 0.930 . S
C449 C445 1.400 . S
C449 C448 1.385 . S
C450 C448 1.478 . S
C450 C452 1.381 . S
C450 C456 1.383 . S
C451 C447 1.495 . S
C451 H457 0.959 . S
C451 H458 0.961 . S
C451 H459 0.960 . S
C452 C450 1.381 . S
C452 C453 1.394 . S
C452 H460 0.930 . S
C453 C452 1.394 . S
C453 C454 1.383 . S
C453 H461 0.929 . S
C454 C453 1.383 . S
C454 C455 1.377 . S
C455 H439 0.930 . S
C455 C454 1.377 . S
C455 C456 1.379 . S
C456 H440 0.931 . S
C456 C450 1.383 . S
C456 C455 1.379 . S
H457 C451 0.959 . S
H458 C451 0.961 . S
H459 C451 0.960 . S
H460 C452 0.930 . S
H461 C453 0.929 . S
H462 C470 0.929 . S
H463 C472 0.930 . S
H464 C474 0.930 . S
H465 C477 0.929 . S
H466 C480 0.930 . S
H467 C482 0.960 . S
H468 C482 0.960 . S
H469 C482 0.960 . S
C470 H462 0.929 . S
C470 C471 1.377 . S
C470 C472 1.384 . S
C471 C470 1.377 . S
C471 C477 1.390 . S
C472 H463 0.930 . S
C472 C470 1.384 . S
C472 C473 1.372 . S
C473 C472 1.372 . S
C473 C474 1.400 . S
C473 C478 1.490 . S
C474 H464 0.930 . S
C474 C473 1.400 . S
C474 C477 1.386 . S
H475 C491 0.930 . S
H476 C492 0.931 . S
C477 H465 0.929 . S
C477 C471 1.390 . S
C477 C474 1.386 . S
C478 C473 1.490 . S
C478 C480 1.395 . S
C478 C481 1.403 . S
H479 C485 0.930 . S
C480 H466 0.930 . S
C480 C478 1.395 . S
C480 C483 1.403 . S
C481 C478 1.403 . S
C481 C482 1.524 . S
C481 C485 1.400 . S
C482 H467 0.960 . S
C482 H468 0.960 . S
C482 H469 0.960 . S
C482 C481 1.524 . S
C483 C480 1.403 . S
C483 C484 1.392 . S
C483 C487 1.495 . S
C484 C483 1.392 . S
C484 C485 1.385 . S
C484 C486 1.478 . S
C485 H479 0.930 . S
C485 C481 1.400 . S
C485 C484 1.385 . S
C486 C484 1.478 . S
C486 C488 1.381 . S
C486 C492 1.383 . S
C487 C483 1.495 . S
C487 H493 0.959 . S
C487 H494 0.961 . S
C487 H495 0.960 . S
C488 C486 1.381 . S
C488 C489 1.394 . S
C488 H496 0.930 . S
C489 C488 1.394 . S
C489 C490 1.383 . S
C489 H497 0.929 . S
C490 C489 1.383 . S
C490 C491 1.377 . S
C491 H475 0.930 . S
C491 C490 1.377 . S
C491 C492 1.379 . S
C492 H476 0.931 . S
C492 C486 1.383 . S
C492 C491 1.379 . S
H493 C487 0.959 . S
H494 C487 0.961 . S
H495 C487 0.960 . S
H496 C488 0.930 . S
H497 C489 0.929 . S
H498 C506 0.929 . S
H499 C508 0.930 . S
H500 C510 0.930 . S
H501 C513 0.929 . S
H502 C516 0.930 . S
H503 C518 0.960 . S
H504 C518 0.960 . S
H505 C518 0.960 . S
C506 H498 0.929 . S
C506 C507 1.377 . S
C506 C508 1.384 . S
C507 C506 1.377 . S
C507 C513 1.390 . S
C508 H499 0.930 . S
C508 C506 1.384 . S
C508 C509 1.372 . S
C509 C508 1.372 . S
C509 C510 1.400 . S
C509 C514 1.490 . S
C510 H500 0.930 . S
C510 C509 1.400 . S
C510 C513 1.386 . S
H511 C527 0.930 . S
H512 C528 0.931 . S
C513 H501 0.929 . S
C513 C507 1.390 . S
C513 C510 1.386 . S
C514 C509 1.490 . S
C514 C516 1.395 . S
C514 C517 1.403 . S
H515 C521 0.930 . S
C516 H502 0.930 . S
C516 C514 1.395 . S
C516 C519 1.403 . S
C517 C514 1.403 . S
C517 C518 1.524 . S
C517 C521 1.400 . S
C518 H503 0.960 . S
C518 H504 0.960 . S
C518 H505 0.960 . S
C518 C517 1.524 . S
C519 C516 1.403 . S
C519 C520 1.392 . S
C519 C523 1.495 . S
C520 C519 1.392 . S
C520 C521 1.385 . S
C520 C522 1.478 . S
C521 H515 0.930 . S
C521 C517 1.400 . S
C521 C520 1.385 . S
C522 C520 1.478 . S
C522 C524 1.381 . S
C522 C528 1.383 . S
C523 C519 1.495 . S
C523 H529 0.959 . S
C523 H530 0.961 . S
C523 H531 0.960 . S
C524 C522 1.381 . S
C524 C525 1.394 . S
C524 H532 0.930 . S
C525 C524 1.394 . S
C525 C526 1.383 . S
C525 H533 0.929 . S
C526 C525 1.383 . S
C526 C527 1.377 . S
C527 H511 0.930 . S
C527 C526 1.377 . S
C527 C528 1.379 . S
C528 H512 0.931 . S
C528 C522 1.383 . S
C528 C527 1.379 . S
H529 C523 0.959 . S
H530 C523 0.961 . S
H531 C523 0.960 . S
H532 C524 0.930 . S
H533 C525 0.929 . S
H534 C542 0.929 . S
H535 C544 0.930 . S
H536 C546 0.930 . S
H537 C549 0.929 . S
H538 C552 0.930 . S
H539 C554 0.960 . S
H540 C554 0.960 . S
H541 C554 0.960 . S
C542 H534 0.929 . S
C542 C543 1.377 . S
C542 C544 1.384 . S
C543 C542 1.377 . S
C543 C549 1.390 . S
C544 H535 0.930 . S
C544 C542 1.384 . S
C544 C545 1.372 . S
C545 C544 1.372 . S
C545 C546 1.400 . S
C545 C550 1.490 . S
C546 H536 0.930 . S
C546 C545 1.400 . S
C546 C549 1.386 . S
H547 C563 0.930 . S
H548 C564 0.931 . S
C549 H537 0.929 . S
C549 C543 1.390 . S
C549 C546 1.386 . S
C550 C545 1.490 . S
C550 C552 1.395 . S
C550 C553 1.403 . S
H551 C557 0.930 . S
C552 H538 0.930 . S
C552 C550 1.395 . S
C552 C555 1.403 . S
C553 C550 1.403 . S
C553 C554 1.524 . S
C553 C557 1.400 . S
C554 H539 0.960 . S
C554 H540 0.960 . S
C554 H541 0.960 . S
C554 C553 1.524 . S
C555 C552 1.403 . S
C555 C556 1.392 . S
C555 C559 1.495 . S
C556 C555 1.392 . S
C556 C557 1.385 . S
C556 C558 1.478 . S
C557 H551 0.930 . S
C557 C553 1.400 . S
C557 C556 1.385 . S
C558 C556 1.478 . S
C558 C560 1.381 . S
C558 C564 1.383 . S
C559 C555 1.495 . S
C559 H565 0.959 . S
C559 H566 0.961 . S
C559 H567 0.960 . S
C560 C558 1.381 . S
C560 C561 1.394 . S
C560 H568 0.930 . S
C561 C560 1.394 . S
C561 C562 1.383 . S
C561 H569 0.929 . S
C562 C561 1.383 . S
C562 C563 1.377 . S
C563 H547 0.930 . S
C563 C562 1.377 . S
C563 C564 1.379 . S
C564 H548 0.931 . S
C564 C558 1.383 . S
C564 C563 1.379 . S
H565 C559 0.959 . S
H566 C559 0.961 . S
H567 C559 0.960 . S
H568 C560 0.930 . S
H569 C561 0.929 . S
H570 C578 0.929 . S
H571 C580 0.930 . S
H572 C582 0.930 . S
H573 C585 0.929 . S
H574 C588 0.930 . S
H575 C590 0.960 . S
H576 C590 0.960 . S
H577 C590 0.960 . S
C578 H570 0.929 . S
C578 C579 1.377 . S
C578 C580 1.384 . S
C579 C578 1.377 . S
C579 C585 1.390 . S
C580 H571 0.930 . S
C580 C578 1.384 . S
C580 C581 1.372 . S
C581 C580 1.372 . S
C581 C582 1.400 . S
C581 C586 1.490 . S
C582 H572 0.930 . S
C582 C581 1.400 . S
C582 C585 1.386 . S
H583 C599 0.930 . S
H584 C600 0.931 . S
C585 H573 0.929 . S
C585 C579 1.390 . S
C585 C582 1.386 . S
C586 C581 1.490 . S
C586 C588 1.395 . S
C586 C589 1.403 . S
H587 C593 0.930 . S
C588 H574 0.930 . S
C588 C586 1.395 . S
C588 C591 1.403 . S
C589 C586 1.403 . S
C589 C590 1.524 . S
C589 C593 1.400 . S
C590 H575 0.960 . S
C590 H576 0.960 . S
C590 H577 0.960 . S
C590 C589 1.524 . S
C591 C588 1.403 . S
C591 C592 1.392 . S
C591 C595 1.495 . S
C592 C591 1.392 . S
C592 C593 1.385 . S
C592 C594 1.478 . S
C593 H587 0.930 . S
C593 C589 1.400 . S
C593 C592 1.385 . S
C594 C592 1.478 . S
C594 C596 1.381 . S
C594 C600 1.383 . S
C595 C591 1.495 . S
C595 H601 0.959 . S
C595 H602 0.961 . S
C595 H603 0.960 . S
C596 C594 1.381 . S
C596 C597 1.394 . S
C596 H604 0.930 . S
C597 C596 1.394 . S
C597 C598 1.383 . S
C597 H605 0.929 . S
C598 C597 1.383 . S
C598 C599 1.377 . S
C599 H583 0.930 . S
C599 C598 1.377 . S
C599 C600 1.379 . S
C600 H584 0.931 . S
C600 C594 1.383 . S
C600 C599 1.379 . S
H601 C595 0.959 . S
H602 C595 0.961 . S
H603 C595 0.960 . S
H604 C596 0.930 . S
H605 C597 0.929 . S
H606 C614 0.929 . S
H607 C616 0.930 . S
H608 C618 0.930 . S
H609 C621 0.929 . S
H610 C624 0.930 . S
H611 C626 0.960 . S
H612 C626 0.960 . S
H613 C626 0.960 . S
C614 H606 0.929 . S
C614 C615 1.377 . S
C614 C616 1.384 . S
C615 C614 1.377 . S
C615 C621 1.390 . S
C616 H607 0.930 . S
C616 C614 1.384 . S
C616 C617 1.372 . S
C617 C616 1.372 . S
C617 C618 1.400 . S
C617 C622 1.490 . S
C618 H608 0.930 . S
C618 C617 1.400 . S
C618 C621 1.386 . S
H619 C635 0.930 . S
H620 C636 0.931 . S
C621 H609 0.929 . S
C621 C615 1.390 . S
C621 C618 1.386 . S
C622 C617 1.490 . S
C622 C624 1.395 . S
C622 C625 1.403 . S
H623 C629 0.930 . S
C624 H610 0.930 . S
C624 C622 1.395 . S
C624 C627 1.403 . S
C625 C622 1.403 . S
C625 C626 1.524 . S
C625 C629 1.400 . S
C626 H611 0.960 . S
C626 H612 0.960 . S
C626 H613 0.960 . S
C626 C625 1.524 . S
C627 C624 1.403 . S
C627 C628 1.392 . S
C627 C631 1.495 . S
C628 C627 1.392 . S
C628 C629 1.385 . S
C628 C630 1.478 . S
C629 H623 0.930 . S
C629 C625 1.400 . S
C629 C628 1.385 . S
C630 C628 1.478 . S
C630 C632 1.381 . S
C630 C636 1.383 . S
C631 C627 1.495 . S
C631 H637 0.959 . S
C631 H638 0.961 . S
C631 H639 0.960 . S
C632 C630 1.381 . S
C632 C633 1.394 . S
C632 H640 0.930 . S
C633 C632 1.394 . S
C633 C634 1.383 . S
C633 H641 0.929 . S
C634 C633 1.383 . S
C634 C635 1.377 . S
C635 H619 0.930 . S
C635 C634 1.377 . S
C635 C636 1.379 . S
C636 H620 0.931 . S
C636 C630 1.383 . S
C636 C635 1.379 . S
H637 C631 0.959 . S
H638 C631 0.961 . S
H639 C631 0.960 . S
H640 C632 0.930 . S
H641 C633 0.929 . S
H642 C650 0.929 . S
H643 C652 0.930 . S
H644 C654 0.930 . S
H645 C657 0.929 . S
H646 C660 0.930 . S
H647 C662 0.960 . S
H648 C662 0.960 . S
H649 C662 0.960 . S
C650 H642 0.929 . S
C650 C651 1.377 . S
C650 C652 1.384 . S
C651 C650 1.377 . S
C651 C657 1.390 . S
C652 H643 0.930 . S
C652 C650 1.384 . S
C652 C653 1.372 . S
C653 C652 1.372 . S
C653 C654 1.400 . S
C653 C658 1.490 . S
C654 H644 0.930 . S
C654 C653 1.400 . S
C654 C657 1.386 . S
H655 C671 0.930 . S
H656 C672 0.931 . S
C657 H645 0.929 . S
C657 C651 1.390 . S
C657 C654 1.386 . S
C658 C653 1.490 . S
C658 C660 1.395 . S
C658 C661 1.403 . S
H659 C665 0.930 . S
C660 H646 0.930 . S
C660 C658 1.395 . S
C660 C663 1.403 . S
C661 C658 1.403 . S
C661 C662 1.524 . S
C661 C665 1.400 . S
C662 H647 0.960 . S
C662 H648 0.960 . S
C662 H649 0.960 . S
C662 C661 1.524 . S
C663 C660 1.403 . S
C663 C664 1.392 . S
C663 C667 1.495 . S
C664 C663 1.392 . S
C664 C665 1.385 . S
C664 C666 1.478 . S
C665 H659 0.930 . S
C665 C661 1.400 . S
C665 C664 1.385 . S
C666 C664 1.478 . S
C666 C668 1.381 . S
C666 C672 1.383 . S
C667 C663 1.495 . S
C667 H673 0.959 . S
C667 H674 0.961 . S
C667 H675 0.960 . S
C668 C666 1.381 . S
C668 C669 1.394 . S
C668 H676 0.930 . S
C669 C668 1.394 . S
C669 C670 1.383 . S
C669 H677 0.929 . S
C670 C669 1.383 . S
C670 C671 1.377 . S
C671 H655 0.930 . S
C671 C670 1.377 . S
C671 C672 1.379 . S
C672 H656 0.931 . S
C672 C666 1.383 . S
C672 C671 1.379 . S
H673 C667 0.959 . S
H674 C667 0.961 . S
H675 C667 0.960 . S
H676 C668 0.930 . S
H677 C669 0.929 . S
H678 C686 0.929 . S
H679 C688 0.930 . S
H680 C690 0.930 . S
H681 C693 0.929 . S
H682 C696 0.930 . S
H683 C698 0.960 . S
H684 C698 0.960 . S
H685 C698 0.960 . S
C686 H678 0.929 . S
C686 C687 1.377 . S
C686 C688 1.384 . S
C687 C686 1.377 . S
C687 C693 1.390 . S
C688 H679 0.930 . S
C688 C686 1.384 . S
C688 C689 1.372 . S
C689 C688 1.372 . S
C689 C690 1.400 . S
C689 C694 1.490 . S
C690 H680 0.930 . S
C690 C689 1.400 . S
C690 C693 1.386 . S
H691 C707 0.930 . S
H692 C708 0.931 . S
C693 H681 0.929 . S
C693 C687 1.390 . S
C693 C690 1.386 . S
C694 C689 1.490 . S
C694 C696 1.395 . S
C694 C697 1.403 . S
H695 C701 0.930 . S
C696 H682 0.930 . S
C696 C694 1.395 . S
C696 C699 1.403 . S
C697 C694 1.403 . S
C697 C698 1.524 . S
C697 C701 1.400 . S
C698 H683 0.960 . S
C698 H684 0.960 . S
C698 H685 0.960 . S
C698 C697 1.524 . S
C699 C696 1.403 . S
C699 C700 1.392 . S
C699 C703 1.495 . S
C700 C699 1.392 . S
C700 C701 1.385 . S
C700 C702 1.478 . S
C701 H695 0.930 . S
C701 C697 1.400 . S
C701 C700 1.385 . S
C702 C700 1.478 . S
C702 C704 1.381 . S
C702 C708 1.383 . S
C703 C699 1.495 . S
C703 H709 0.959 . S
C703 H710 0.961 . S
C703 H711 0.960 . S
C704 C702 1.381 . S
C704 C705 1.394 . S
C704 H712 0.930 . S
C705 C704 1.394 . S
C705 C706 1.383 . S
C705 H713 0.929 . S
C706 C705 1.383 . S
C706 C707 1.377 . S
C707 H691 0.930 . S
C707 C706 1.377 . S
C707 C708 1.379 . S
C708 H692 0.931 . S
C708 C702 1.383 . S
C708 C707 1.379 . S
H709 C703 0.959 . S
H710 C703 0.961 . S
H711 C703 0.960 . S
H712 C704 0.930 . S
H713 C705 0.929 . S
H714 C722 0.929 . S
H715 C724 0.930 . S
H716 C726 0.930 . S
H717 C729 0.929 . S
H718 C732 0.930 . S
H719 C734 0.960 . S
H720 C734 0.960 . S
H721 C734 0.960 . S
C722 H714 0.929 . S
C722 C723 1.377 . S
C722 C724 1.384 . S
C723 C722 1.377 . S
C723 C729 1.390 . S
C724 H715 0.930 . S
C724 C722 1.384 . S
C724 C725 1.372 . S
C725 C724 1.372 . S
C725 C726 1.400 . S
C725 C730 1.490 . S
C726 H716 0.930 . S
C726 C725 1.400 . S
C726 C729 1.386 . S
H727 C743 0.930 . S
H728 C744 0.931 . S
C729 H717 0.929 . S
C729 C723 1.390 . S
C729 C726 1.386 . S
C730 C725 1.490 . S
C730 C732 1.395 . S
C730 C733 1.403 . S
H731 C737 0.930 . S
C732 H718 0.930 . S
C732 C730 1.395 . S
C732 C735 1.403 . S
C733 C730 1.403 . S
C733 C734 1.524 . S
C733 C737 1.400 . S
C734 H719 0.960 . S
C734 H720 0.960 . S
C734 H721 0.960 . S
C734 C733 1.524 . S
C735 C732 1.403 . S
C735 C736 1.392 . S
C735 C739 1.495 . S
C736 C735 1.392 . S
C736 C737 1.385 . S
C736 C738 1.478 . S
C737 H731 0.930 . S
C737 C733 1.400 . S
C737 C736 1.385 . S
C738 C736 1.478 . S
C738 C740 1.381 . S
C738 C744 1.383 . S
C739 C735 1.495 . S
C739 H745 0.959 . S
C739 H746 0.961 . S
C739 H747 0.960 . S
C740 C738 1.381 . S
C740 C741 1.394 . S
C740 H748 0.930 . S
C741 C740 1.394 . S
C741 C742 1.383 . S
C741 H749 0.929 . S
C742 C741 1.383 . S
C742 C743 1.377 . S
C743 H727 0.930 . S
C743 C742 1.377 . S
C743 C744 1.379 . S
C744 H728 0.931 . S
C744 C738 1.383 . S
C744 C743 1.379 . S
H745 C739 0.959 . S
H746 C739 0.961 . S
H747 C739 0.960 . S
H748 C740 0.930 . S
H749 C741 0.929 . S
H750 C758 0.929 . S
H751 C760 0.930 . S
H752 C762 0.930 . S
H753 C765 0.929 . S
H754 C768 0.930 . S
H755 C770 0.960 . S
H756 C770 0.960 . S
H757 C770 0.960 . S
C758 H750 0.929 . S
C758 C759 1.377 . S
C758 C760 1.384 . S
C759 C758 1.377 . S
C759 C765 1.390 . S
C760 H751 0.930 . S
C760 C758 1.384 . S
C760 C761 1.372 . S
C761 C760 1.372 . S
C761 C762 1.400 . S
C761 C766 1.490 . S
C762 H752 0.930 . S
C762 C761 1.400 . S
C762 C765 1.386 . S
H763 C779 0.930 . S
H764 C780 0.931 . S
C765 H753 0.929 . S
C765 C759 1.390 . S
C765 C762 1.386 . S
C766 C761 1.490 . S
C766 C768 1.395 . S
C766 C769 1.403 . S
H767 C773 0.930 . S
C768 H754 0.930 . S
C768 C766 1.395 . S
C768 C771 1.403 . S
C769 C766 1.403 . S
C769 C770 1.524 . S
C769 C773 1.400 . S
C770 H755 0.960 . S
C770 H756 0.960 . S
C770 H757 0.960 . S
C770 C769 1.524 . S
C771 C768 1.403 . S
C771 C772 1.392 . S
C771 C775 1.495 . S
C772 C771 1.392 . S
C772 C773 1.385 . S
C772 C774 1.478 . S
C773 H767 0.930 . S
C773 C769 1.400 . S
C773 C772 1.385 . S
C774 C772 1.478 . S
C774 C776 1.381 . S
C774 C780 1.383 . S
C775 C771 1.495 . S
C775 H781 0.959 . S
C775 H782 0.961 . S
C775 H783 0.960 . S
C776 C774 1.381 . S
C776 C777 1.394 . S
C776 H784 0.930 . S
C777 C776 1.394 . S
C777 C778 1.383 . S
C777 H785 0.929 . S
C778 C777 1.383 . S
C778 C779 1.377 . S
C779 H763 0.930 . S
C779 C778 1.377 . S
C779 C780 1.379 . S
C780 H764 0.931 . S
C780 C774 1.383 . S
C780 C779 1.379 . S
H781 C775 0.959 . S
H782 C775 0.961 . S
H783 C775 0.960 . S
H784 C776 0.930 . S
H785 C777 0.929 . S
H786 C794 0.929 1_655 S
H787 C796 0.930 1_655 S
H788 C798 0.930 . S
H789 C801 0.929 . S
H790 C804 0.930 1_655 S
H791 C806 0.960 . S
H792 C806 0.960 . S
H793 C806 0.960 . S
C794 H786 0.929 1_455 S
C794 C795 1.377 . S
C794 C796 1.384 . S
C795 C794 1.377 . S
C795 C801 1.390 . S
C796 H787 0.930 1_455 S
C796 C794 1.384 . S
C796 C797 1.372 . S
C797 C796 1.372 . S
C797 C798 1.400 . S
C797 C802 1.490 . S
C798 H788 0.930 . S
C798 C797 1.400 . S
C798 C801 1.386 . S
H799 C815 0.930 . S
H800 C816 0.931 . S
C801 H789 0.929 . S
C801 C795 1.390 . S
C801 C798 1.386 . S
C802 C797 1.490 . S
C802 C804 1.395 . S
C802 C805 1.403 . S
H803 C809 0.930 . S
C804 H790 0.930 1_455 S
C804 C802 1.395 . S
C804 C807 1.403 1_455 S
C805 C802 1.403 . S
C805 C806 1.524 . S
C805 C809 1.400 . S
C806 H791 0.960 . S
C806 H792 0.960 . S
C806 H793 0.960 . S
C806 C805 1.524 . S
C807 C804 1.403 1_655 S
C807 C808 1.386 1_655 S
C807 C811 1.502 . S
C808 C807 1.386 1_455 S
C808 C809 1.385 . S
C808 C810 1.478 . S
C809 H803 0.930 . S
C809 C805 1.400 . S
C809 C808 1.385 . S
C810 C808 1.478 . S
C810 C812 1.381 . S
C810 C816 1.383 . S
C811 C807 1.502 . S
C811 H817 0.959 . S
C811 H818 0.961 . S
C811 H819 0.960 . S
C812 C810 1.381 . S
C812 C813 1.394 1_554 S
C812 H820 0.930 . S
C813 C812 1.394 1_556 S
C813 C814 1.383 . S
C813 H821 0.929 . S
C814 C813 1.383 . S
C814 C815 1.377 . S
C815 H799 0.930 . S
C815 C814 1.377 . S
C815 C816 1.379 1_556 S
C816 H800 0.931 . S
C816 C810 1.383 . S
C816 C815 1.379 1_554 S
H817 C811 0.959 . S
H818 C811 0.961 . S
H819 C811 0.960 . S
H820 C812 0.930 . S
H821 C813 0.929 . S
H822 C830 0.929 . S
H823 C832 0.930 . S
H824 C834 0.930 1_565 S
H825 C837 0.929 1_565 S
H826 C840 0.930 . S
H827 C842 0.960 . S
H828 C842 0.960 . S
H829 C842 0.960 . S
C830 H822 0.929 . S
C830 C831 1.377 . S
C830 C832 1.384 . S
C831 C830 1.377 . S
C831 C837 1.390 . S
C832 H823 0.930 . S
C832 C830 1.384 . S
C832 C833 1.372 . S
C833 C832 1.372 . S
C833 C834 1.400 . S
C833 C838 1.490 . S
C834 H824 0.930 1_545 S
C834 C833 1.400 . S
C834 C837 1.386 . S
H835 C851 0.930 . S
H836 C852 0.931 . S
C837 H825 0.929 1_545 S
C837 C831 1.390 . S
C837 C834 1.386 . S
C838 C833 1.490 . S
C838 C840 1.395 . S
C838 C841 1.403 . S
H839 C845 0.930 1_565 S
C840 H826 0.930 . S
C840 C838 1.395 . S
C840 C843 1.403 . S
C841 C838 1.403 . S
C841 C842 1.524 1_545 S
C841 C845 1.400 . S
C842 H827 0.960 . S
C842 H828 0.960 . S
C842 H829 0.960 . S
C842 C841 1.524 1_565 S
C843 C840 1.403 . S
C843 C844 1.392 . S
C843 C847 1.495 . S
C844 C843 1.392 . S
C844 C845 1.385 . S
C844 C846 1.478 . S
C845 H839 0.930 1_545 S
C845 C841 1.400 . S
C845 C844 1.385 . S
C846 C844 1.478 . S
C846 C848 1.381 . S
C846 C852 1.383 . S
C847 C843 1.495 . S
C847 H853 0.959 . S
C847 H854 0.961 . S
C847 H855 0.960 . S
C848 C846 1.381 . S
C848 C849 1.394 . S
C848 H856 0.930 . S
C849 C848 1.394 . S
C849 C850 1.383 . S
C849 H857 0.929 . S
C850 C849 1.383 . S
C850 C851 1.377 . S
C851 H835 0.930 . S
C851 C850 1.377 . S
C851 C852 1.379 . S
C852 H836 0.931 . S
C852 C846 1.383 . S
C852 C851 1.379 . S
H853 C847 0.959 . S
H854 C847 0.961 . S
H855 C847 0.960 . S
H856 C848 0.930 . S
H857 C849 0.929 . S
H858 C866 0.929 . S
H859 C868 0.930 . S
H860 C870 0.930 . S
H861 C873 0.929 . S
H862 C876 0.930 . S
H863 C878 0.960 . S
H864 C878 0.960 . S
H865 C878 0.960 . S
C866 H858 0.929 . S
C866 C867 1.377 . S
C866 C868 1.384 . S
C867 C866 1.377 . S
C867 C873 1.390 . S
C868 H859 0.930 . S
C868 C866 1.384 . S
C868 C869 1.372 . S
C869 C868 1.372 . S
C869 C870 1.400 . S
C869 C874 1.490 . S
C870 H860 0.930 . S
C870 C869 1.400 . S
C870 C873 1.386 . S
H871 C887 0.930 . S
H872 C888 0.931 . S
C873 H861 0.929 . S
C873 C867 1.390 . S
C873 C870 1.386 . S
C874 C869 1.490 . S
C874 C876 1.395 . S
C874 C877 1.403 . S
H875 C881 0.930 . S
C876 H862 0.930 . S
C876 C874 1.395 . S
C876 C879 1.403 . S
C877 C874 1.403 . S
C877 C878 1.524 . S
C877 C881 1.400 . S
C878 H863 0.960 . S
C878 H864 0.960 . S
C878 H865 0.960 . S
C878 C877 1.524 . S
C879 C876 1.403 . S
C879 C880 1.392 . S
C879 C883 1.495 . S
C880 C879 1.392 . S
C880 C881 1.385 . S
C880 C882 1.478 . S
C881 H875 0.930 . S
C881 C877 1.400 . S
C881 C880 1.385 . S
C882 C880 1.478 . S
C882 C884 1.381 . S
C882 C888 1.383 . S
C883 C879 1.495 . S
C883 H889 0.959 . S
C883 H890 0.961 . S
C883 H891 0.960 . S
C884 C882 1.381 . S
C884 C885 1.394 . S
C884 H892 0.930 . S
C885 C884 1.394 . S
C885 C886 1.383 . S
C885 H893 0.929 . S
C886 C885 1.383 . S
C886 C887 1.377 . S
C887 H871 0.930 . S
C887 C886 1.377 . S
C887 C888 1.379 . S
C888 H872 0.931 . S
C888 C882 1.383 . S
C888 C887 1.379 . S
H889 C883 0.959 . S
H890 C883 0.961 . S
H891 C883 0.960 . S
H892 C884 0.930 . S
H893 C885 0.929 . S
H894 C902 0.929 . S
H895 C904 0.930 . S
H896 C906 0.930 1_565 S
H897 C909 0.929 1_565 S
H898 C912 0.930 . S
H899 C914 0.960 . S
H900 C914 0.960 . S
H901 C914 0.960 . S
C902 H894 0.929 . S
C902 C903 1.377 . S
C902 C904 1.384 . S
C903 C902 1.377 . S
C903 C909 1.390 . S
C904 H895 0.930 . S
C904 C902 1.384 . S
C904 C905 1.372 . S
C905 C904 1.372 . S
C905 C906 1.400 . S
C905 C910 1.490 . S
C906 H896 0.930 1_545 S
C906 C905 1.400 . S
C906 C909 1.386 . S
H907 C923 0.930 1_565 S
H908 C924 0.931 . S
C909 H897 0.929 1_545 S
C909 C903 1.390 . S
C909 C906 1.386 . S
C910 C905 1.490 . S
C910 C912 1.395 . S
C910 C913 1.403 1_545 S
H911 C917 0.930 . S
C912 H898 0.930 . S
C912 C910 1.395 . S
C912 C915 1.403 . S
C913 C910 1.403 1_565 S
C913 C914 1.524 . S
C913 C917 1.400 . S
C914 H899 0.960 . S
C914 H900 0.960 . S
C914 H901 0.960 . S
C914 C913 1.524 . S
C915 C912 1.403 . S
C915 C916 1.392 . S
C915 C919 1.495 . S
C916 C915 1.392 . S
C916 C917 1.385 1_545 S
C916 C918 1.478 . S
C917 H911 0.930 . S
C917 C913 1.400 . S
C917 C916 1.385 1_565 S
C918 C916 1.478 . S
C918 C920 1.381 . S
C918 C924 1.383 . S
C919 C915 1.495 . S
C919 H925 0.959 . S
C919 H926 0.961 . S
C919 H927 0.960 . S
C920 C918 1.381 . S
C920 C921 1.394 . S
C920 H928 0.930 . S
C921 C920 1.394 . S
C921 C922 1.383 . S
C921 H929 0.929 . S
C922 C921 1.383 . S
C922 C923 1.377 . S
C923 H907 0.930 1_545 S
C923 C922 1.377 . S
C923 C924 1.379 . S
C924 H908 0.931 . S
C924 C918 1.383 . S
C924 C923 1.379 . S
H925 C919 0.959 . S
H926 C919 0.961 . S
H927 C919 0.960 . S
H928 C920 0.930 . S
H929 C921 0.929 . S
H930 C938 0.929 . S
H931 C940 0.930 . S
H932 C942 0.930 . S
H933 C945 0.929 . S
H934 C948 0.930 . S
H935 C950 0.960 . S
H936 C950 0.960 . S
H937 C950 0.960 . S
C938 H930 0.929 . S
C938 C939 1.377 . S
C938 C940 1.384 . S
C939 C938 1.377 . S
C939 C945 1.390 . S
C940 H931 0.930 . S
C940 C938 1.384 . S
C940 C941 1.372 . S
C941 C940 1.372 . S
C941 C942 1.400 . S
C941 C946 1.490 . S
C942 H932 0.930 . S
C942 C941 1.400 . S
C942 C945 1.386 . S
H943 C959 0.930 . S
H944 C960 0.931 . S
C945 H933 0.929 . S
C945 C939 1.390 . S
C945 C942 1.386 . S
C946 C941 1.490 . S
C946 C948 1.395 . S
C946 C949 1.403 . S
H947 C953 0.930 . S
C948 H934 0.930 . S
C948 C946 1.395 . S
C948 C951 1.403 . S
C949 C946 1.403 . S
C949 C950 1.524 . S
C949 C953 1.400 . S
C950 H935 0.960 . S
C950 H936 0.960 . S
C950 H937 0.960 . S
C950 C949 1.524 . S
C951 C948 1.403 . S
C951 C952 1.392 . S
C951 C955 1.495 . S
C952 C951 1.392 . S
C952 C953 1.385 . S
C952 C954 1.478 . S
C953 H947 0.930 . S
C953 C949 1.400 . S
C953 C952 1.385 . S
C954 C952 1.478 . S
C954 C956 1.381 . S
C954 C960 1.383 . S
C955 C951 1.495 . S
C955 H961 0.959 . S
C955 H962 0.961 . S
C955 H963 0.960 . S
C956 C954 1.381 . S
C956 C957 1.394 1_556 S
C956 H964 0.930 . S
C957 C956 1.394 1_554 S
C957 C958 1.383 . S
C957 H965 0.929 . S
C958 C957 1.383 . S
C958 C959 1.377 . S
C959 H943 0.930 . S
C959 C958 1.377 . S
C959 C960 1.379 1_554 S
C960 H944 0.931 . S
C960 C954 1.383 . S
C960 C959 1.379 1_556 S
H961 C955 0.959 . S
H962 C955 0.961 . S
H963 C955 0.960 . S
H964 C956 0.930 . S
H965 C957 0.929 . S
H966 C974 0.929 . S
H967 C976 0.930 . S
H968 C978 0.930 . S
H969 C981 0.929 . S
H970 C984 0.930 . S
H971 C986 0.960 . S
H972 C986 0.960 . S
H973 C986 0.960 . S
C974 H966 0.929 . S
C974 C975 1.377 . S
C974 C976 1.384 . S
C975 C974 1.377 . S
C975 C981 1.390 1_455 S
C976 H967 0.930 . S
C976 C974 1.384 . S
C976 C977 1.372 . S
C977 C976 1.372 . S
C977 C978 1.400 1_455 S
C977 C982 1.490 . S
C978 H968 0.930 . S
C978 C977 1.400 1_655 S
C978 C981 1.386 . S
H979 C995 0.930 . S
H980 C996 0.931 . S
C981 H969 0.929 . S
C981 C975 1.390 1_655 S
C981 C978 1.386 . S
C982 C977 1.490 . S
C982 C984 1.395 . S
C982 C985 1.403 1_455 S
H983 C989 0.930 . S
C984 H970 0.930 . S
C984 C982 1.395 . S
C984 C987 1.403 . S
C985 C982 1.403 1_655 S
C985 C986 1.524 . S
C985 C989 1.400 . S
C986 H971 0.960 . S
C986 H972 0.960 . S
C986 H973 0.960 . S
C986 C985 1.524 . S
C987 C984 1.403 . S
C987 C988 1.392 . S
C987 C991 1.495 . S
C988 C987 1.392 . S
C988 C989 1.385 1_455 S
C988 C990 1.478 . S
C989 H983 0.930 . S
C989 C985 1.400 . S
C989 C988 1.385 1_655 S
C990 C988 1.478 . S
C990 C992 1.381 . S
C990 C996 1.383 1_455 S
C991 C987 1.495 . S
C991 H997 0.959 . S
C991 H998 0.961 . S
C991 H999 0.960 . S
C992 C990 1.381 . S
C992 C993 1.394 . S
C992 H1000 0.930 . S
C993 C992 1.394 . S
C993 C994 1.383 . S
C993 H1001 0.929 . S
C994 C993 1.383 . S
C994 C995 1.377 1_455 S
C995 H979 0.930 . S
C995 C994 1.377 1_655 S
C995 C996 1.379 . S
C996 H980 0.931 . S
C996 C990 1.383 1_655 S
C996 C995 1.379 . S
H997 C991 0.959 . S
H998 C991 0.961 . S
H999 C991 0.960 . S
H1000 C992 0.930 . S
H1001 C993 0.929 . S
C363 C10 3.086 . S
C382 C331 3.029 . S
C399 C55 1.156 . S
C418 C258 1.152 . S
C435 C90 1.847 . S
C454 C297 1.816 . S
C471 C19 2.902 . S
C490 C336 2.878 . S
C526 C253 1.239 . S
C507 C46 1.246 . S
C562 C292 1.972 . S
C543 C99 2.002 . S
C579 C50 1.859 . S
C598 C180 1.813 . S
C615 C95 0.496 . S
C634 C214 0.502 . S
C651 C6 1.288 . S
C670 C136 1.270 . S
C706 C175 1.937 . S
C687 C59 1.977 . S
C742 C219 0.169 . S
C723 C86 0.324 . S
C759 C15 1.173 . S
C778 C141 1.166 . S
C814 C199 1.129 . S
C795 C18 1.104 . S
C831 C49 1.446 . S
C850 C121 1.495 . S
C867 C98 1.345 . S
C886 C160 1.378 . S
C922 C277 1.380 . S
C903 C58 1.336 . S
C958 C316 1.762 . S
C939 C89 1.692 . S
C975 C9 1.458 . S
C994 C238 1.507 . S
