# Generated by pormake.
# Topology pyr, (3,6)-cn, num edge types: 1
# Building blocks:
#     Node 0, Type 0, BuildingBlock: MIDCAF_clean_linker_0, # of connection points: 3
#     Node 1, Type 0, BuildingBlock: MIDCAF_clean_linker_0, # of connection points: 3
#     Node 2, Type 0, BuildingBlock: MIDCAF_clean_linker_0, # of connection points: 3
#     Node 3, Type 0, BuildingBlock: MIDCAF_clean_linker_0, # of connection points: 3
#     Node 4, Type 0, BuildingBlock: MIDCAF_clean_linker_0, # of connection points: 3
#     Node 5, Type 0, BuildingBlock: MIDCAF_clean_linker_0, # of connection points: 3
#     Node 6, Type 0, BuildingBlock: MIDCAF_clean_linker_0, # of connection points: 3
#     Node 7, Type 0, BuildingBlock: MIDCAF_clean_linker_0, # of connection points: 3
#     Node 8, Type 1, BuildingBlock: BETFEN_clean_sbu_0, # of connection points: 6
#     Node 9, Type 1, BuildingBlock: BETFEN_clean_sbu_0, # of connection points: 6
#     Node 10, Type 1, BuildingBlock: BETFEN_clean_sbu_0, # of connection points: 6
#     Node 11, Type 1, BuildingBlock: BETFEN_clean_sbu_0, # of connection points: 6
#     Edge 12, Type (0, 1), BuildingBlock: EZIPEK_clean_linker_0, # of connection points: 2
#     Edge 13, Type (0, 1), BuildingBlock: EZIPEK_clean_linker_0, # of connection points: 2
#     Edge 14, Type (0, 1), BuildingBlock: EZIPEK_clean_linker_0, # of connection points: 2
#     Edge 15, Type (0, 1), BuildingBlock: EZIPEK_clean_linker_0, # of connection points: 2
#     Edge 16, Type (0, 1), BuildingBlock: EZIPEK_clean_linker_0, # of connection points: 2
#     Edge 17, Type (0, 1), BuildingBlock: EZIPEK_clean_linker_0, # of connection points: 2
#     Edge 18, Type (0, 1), BuildingBlock: EZIPEK_clean_linker_0, # of connection points: 2
#     Edge 19, Type (0, 1), BuildingBlock: EZIPEK_clean_linker_0, # of connection points: 2
#     Edge 20, Type (0, 1), BuildingBlock: EZIPEK_clean_linker_0, # of connection points: 2
#     Edge 21, Type (0, 1), BuildingBlock: EZIPEK_clean_linker_0, # of connection points: 2
#     Edge 22, Type (0, 1), BuildingBlock: EZIPEK_clean_linker_0, # of connection points: 2
#     Edge 23, Type (0, 1), BuildingBlock: EZIPEK_clean_linker_0, # of connection points: 2
#     Edge 24, Type (0, 1), BuildingBlock: EZIPEK_clean_linker_0, # of connection points: 2
#     Edge 25, Type (0, 1), BuildingBlock: EZIPEK_clean_linker_0, # of connection points: 2
#     Edge 26, Type (0, 1), BuildingBlock: EZIPEK_clean_linker_0, # of connection points: 2
#     Edge 27, Type (0, 1), BuildingBlock: EZIPEK_clean_linker_0, # of connection points: 2
#     Edge 28, Type (0, 1), BuildingBlock: EZIPEK_clean_linker_0, # of connection points: 2
#     Edge 29, Type (0, 1), BuildingBlock: EZIPEK_clean_linker_0, # of connection points: 2
#     Edge 30, Type (0, 1), BuildingBlock: EZIPEK_clean_linker_0, # of connection points: 2
#     Edge 31, Type (0, 1), BuildingBlock: EZIPEK_clean_linker_0, # of connection points: 2
#     Edge 32, Type (0, 1), BuildingBlock: EZIPEK_clean_linker_0, # of connection points: 2
#     Edge 33, Type (0, 1), BuildingBlock: EZIPEK_clean_linker_0, # of connection points: 2
#     Edge 34, Type (0, 1), BuildingBlock: EZIPEK_clean_linker_0, # of connection points: 2
#     Edge 35, Type (0, 1), BuildingBlock: EZIPEK_clean_linker_0, # of connection points: 2
# Relax obj value: 0.171
# Max RMSD: 0.259
# Mean RMSD: 0.125
data_MOF--net-pyr--node1-BETFEN_clean_sbu_0--node2-MIDCAF_clean_linker_0--edge1-EZIPEK_clean_linker_0
_symmetry_space_group_name_H-M    P1
_symmetry_Int_Tables_number       1
_symmetry_cell_setting            triclinic
loop_
_symmetry_equiv_pos_as_xyz
'x, y, z'
_cell_length_a     35.008012
_cell_length_b     38.867092
_cell_length_c     35.268754
_cell_angle_alpha  91.675718
_cell_angle_beta   98.100796
_cell_angle_gamma 110.58327
loop_
_atom_site_label
_atom_site_type_symbol
_atom_site_fract_x
_atom_site_fract_y
_atom_site_fract_z
_atom_type_partial_charge
C0 C 0.37026 0.34992 0.45394 0.0
C1 C 0.37177 0.31511 0.4614 0.0
C2 C 0.40259 0.30459 0.44878 0.0
C3 C 0.42738 0.326 0.42411 0.0
H4 H 0.48199 0.30302 0.34281 0.0
H5 H 0.49303 0.25602 0.30292 0.0
H6 H 0.48158 0.31517 0.2031 0.0
H7 H 0.47012 0.36232 0.24249 0.0
H8 H 0.37244 0.36915 0.2449 0.0
H9 H 0.31574 0.38478 0.2112 0.0
H10 H 0.33623 0.46985 0.30127 0.0
H11 H 0.39176 0.45263 0.33653 0.0
H12 H 0.38973 0.39599 0.42028 0.0
H13 H 0.34694 0.35865 0.4639 0.0
H14 H 0.40457 0.27803 0.45475 0.0
H15 H 0.44812 0.31529 0.41198 0.0
N16 N 0.45475 0.35498 0.35521 0.0
N17 N 0.43711 0.37906 0.29812 0.0
N18 N 0.41322 0.39099 0.35406 0.0
C19 C 0.45747 0.35928 0.31748 0.0
C20 C 0.41536 0.39535 0.31626 0.0
C21 C 0.43294 0.37088 0.37389 0.0
C22 C 0.47429 0.33615 0.29574 0.0
C23 C 0.48287 0.3067 0.31258 0.0
C24 C 0.48921 0.27974 0.28987 0.0
C25 C 0.48755 0.28202 0.25013 0.0
C26 C 0.48275 0.31299 0.23376 0.0
C27 C 0.47612 0.33983 0.25637 0.0
C28 C 0.38651 0.40975 0.29333 0.0
C29 C 0.3654 0.39163 0.25728 0.0
C30 C 0.33284 0.40041 0.23803 0.0
C31 C 0.3215 0.42826 0.25384 0.0
C32 C 0.34429 0.44806 0.28873 0.0
C33 C 0.37601 0.43834 0.30874 0.0
C34 C 0.42093 0.35777 0.41113 0.0
C35 C 0.39468 0.37114 0.42882 0.0
C36 C 0.20104 0.92017 0.67835 0.0
C37 C 0.17987 0.91134 0.64057 0.0
C38 C 0.18164 0.88133 0.61863 0.0
C39 C 0.20425 0.86028 0.6345 0.0
H40 H 0.28999 0.80532 0.6088 0.0
H41 H 0.33112 0.77786 0.57563 0.0
H42 H 0.36581 0.73473 0.68081 0.0
H43 H 0.32471 0.76092 0.71375 0.0
H44 H 0.33825 0.80773 0.78935 0.0
H45 H 0.38 0.83586 0.85132 0.0
H46 H 0.30643 0.90326 0.86122 0.0
H47 H 0.26442 0.87562 0.79907 0.0
H48 H 0.23892 0.90663 0.7237 0.0
H49 H 0.20018 0.94334 0.69561 0.0
H50 H 0.16544 0.87419 0.58933 0.0
H51 H 0.20504 0.83718 0.61712 0.0
N52 N 0.26187 0.82489 0.669 0.0
N53 N 0.29511 0.8102 0.72535 0.0
N54 N 0.25864 0.84974 0.72951 0.0
C55 C 0.28526 0.80643 0.68644 0.0
C56 C 0.2819 0.83161 0.74714 0.0
C57 C 0.24821 0.84646 0.69065 0.0
C58 C 0.30442 0.78579 0.6641 0.0
C59 C 0.30574 0.7894 0.62463 0.0
C60 C 0.32932 0.77391 0.60569 0.0
C61 C 0.35198 0.75489 0.62607 0.0
C62 C 0.34889 0.74967 0.66475 0.0
C63 C 0.32532 0.76479 0.68352 0.0
C64 C 0.29875 0.84025 0.78864 0.0
C65 C 0.32992 0.82764 0.80514 0.0
C66 C 0.35372 0.84346 0.84071 0.0
C67 C 0.34637 0.87174 0.86037 0.0
C68 C 0.31233 0.88135 0.84627 0.0
C69 C 0.2886 0.86568 0.81059 0.0
C70 C 0.22487 0.8687 0.67271 0.0
C71 C 0.22307 0.89899 0.69433 0.0
C72 C 0.61191 0.21069 0.87405 0.0
C73 C 0.57344 0.20016 0.88652 0.0
C74 C 0.54839 0.22131 0.8779 0.0
C75 C 0.56296 0.25392 0.85936 0.0
H76 H 0.55725 0.33515 0.75602 0.0
H77 H 0.53731 0.36954 0.70394 0.0
H78 H 0.6575 0.45543 0.72968 0.0
H79 H 0.67763 0.42206 0.7812 0.0
H80 H 0.72715 0.43367 0.8674 0.0
H81 H 0.79397 0.46584 0.90857 0.0
H82 H 0.79287 0.36289 0.95142 0.0
H83 H 0.72609 0.33055 0.91127 0.0
H84 H 0.65753 0.25192 0.84903 0.0
H85 H 0.63171 0.19485 0.88039 0.0
H86 H 0.51865 0.2137 0.88744 0.0
H87 H 0.54449 0.27119 0.85548 0.0
N88 N 0.60957 0.32101 0.81211 0.0
N89 N 0.66769 0.37543 0.83045 0.0
N90 N 0.66013 0.32381 0.86494 0.0
C91 C 0.63186 0.35674 0.80618 0.0
C92 C 0.68192 0.35927 0.85992 0.0
C93 C 0.62412 0.30451 0.84162 0.0
C94 C 0.61895 0.37578 0.77324 0.0
C95 C 0.57951 0.36121 0.75041 0.0
C96 C 0.5681 0.38076 0.72058 0.0
C97 C 0.59606 0.41498 0.71289 0.0
C98 C 0.63556 0.42905 0.73498 0.0
C99 C 0.64684 0.40983 0.76471 0.0
C100 C 0.72138 0.37946 0.88575 0.0
C101 C 0.74098 0.41789 0.88574 0.0
C102 C 0.779 0.43635 0.90928 0.0
C103 C 0.79822 0.41659 0.9327 0.0
C104 C 0.77836 0.37851 0.93351 0.0
C105 C 0.74023 0.36012 0.91042 0.0
C106 C 0.60283 0.26578 0.84949 0.0
C107 C 0.6265 0.2432 0.85593 0.0
C108 C 0.74459 0.62957 0.39567 0.0
C109 C 0.7494 0.60563 0.42354 0.0
C110 C 0.78508 0.59626 0.42722 0.0
C111 C 0.81578 0.61151 0.40433 0.0
H112 H 0.87494 0.5924 0.29367 0.0
H113 H 0.89972 0.56545 0.24308 0.0
H114 H 0.97821 0.67393 0.22151 0.0
H115 H 0.95398 0.70128 0.27233 0.0
H116 H 0.97612 0.76822 0.35813 0.0
H117 H 1.00468 0.83224 0.38762 0.0
H118 H 0.88375 0.82348 0.40953 0.0
H119 H 0.85534 0.75986 0.38105 0.0
H120 H 0.77199 0.66536 0.35389 0.0
H121 H 0.71756 0.63739 0.39229 0.0
H122 H 0.78982 0.57821 0.44872 0.0
H123 H 0.84372 0.60511 0.40882 0.0
N124 N 0.86365 0.64421 0.33422 0.0
N125 N 0.91243 0.70311 0.32841 0.0
N126 N 0.86341 0.69628 0.36943 0.0
C127 C 0.89604 0.66593 0.31776 0.0
C128 C 0.89613 0.71842 0.35435 0.0
C129 C 0.84725 0.6594 0.36 0.0
C130 C 0.9123 0.64925 0.28749 0.0
C131 C 0.89758 0.61072 0.27838 0.0
C132 C 0.91172 0.59512 0.24929 0.0
C133 C 0.94081 0.61752 0.22816 0.0
C134 C 0.95576 0.65595 0.23723 0.0
C135 C 0.94184 0.67157 0.2665 0.0
C136 C 0.91345 0.75867 0.36738 0.0
C137 C 0.95554 0.78013 0.36873 0.0
C138 C 0.97193 0.8167 0.38571 0.0
C139 C 0.94643 0.83271 0.4011 0.0
C140 C 0.90412 0.81182 0.39812 0.0
C141 C 0.88795 0.77531 0.3818 0.0
C142 C 0.81173 0.63696 0.37798 0.0
C143 C 0.77561 0.64544 0.37359 0.0
C144 C 0.59454 0.76539 0.78554 0.0
C145 C 0.59637 0.76526 0.82548 0.0
C146 C 0.60016 0.73474 0.84371 0.0
C147 C 0.60511 0.70595 0.82264 0.0
H148 H 0.65341 0.6242 0.84036 0.0
H149 H 0.70369 0.60501 0.88118 0.0
H150 H 0.75556 0.58723 0.78189 0.0
H151 H 0.70514 0.60525 0.74076 0.0
H152 H 0.69532 0.64214 0.66836 0.0
H153 H 0.74555 0.67947 0.63045 0.0
H154 H 0.69012 0.7624 0.63042 0.0
H155 H 0.63982 0.72563 0.66811 0.0
H156 H 0.5994 0.73839 0.73385 0.0
H157 H 0.59138 0.78864 0.77098 0.0
H158 H 0.60138 0.73414 0.87454 0.0
H159 H 0.61015 0.68374 0.83788 0.0
N160 N 0.63377 0.6568 0.78132 0.0
N161 N 0.65998 0.64358 0.7274 0.0
N162 N 0.62728 0.6867 0.72537 0.0
C163 C 0.65335 0.63754 0.76406 0.0
C164 C 0.64698 0.66795 0.70769 0.0
C165 C 0.62018 0.68118 0.762 0.0
C166 C 0.67578 0.61719 0.78731 0.0
C167 C 0.67467 0.61518 0.82698 0.0
C168 C 0.70337 0.60422 0.85041 0.0
C169 C 0.73383 0.59556 0.83456 0.0
C170 C 0.73256 0.59423 0.79466 0.0
C171 C 0.70362 0.60465 0.7712 0.0
C172 C 0.6646 0.68161 0.67275 0.0
C173 C 0.69259 0.66757 0.65897 0.0
C174 C 0.72129 0.68876 0.6371 0.0
C175 C 0.72198 0.72394 0.6286 0.0
C176 C 0.69017 0.73538 0.63713 0.0
C177 C 0.66144 0.71424 0.65883 0.0
C178 C 0.6062 0.70717 0.78292 0.0
C179 C 0.59916 0.73654 0.7644 0.0
C180 C 0.74587 0.18521 0.23073 0.0
C181 C 0.70295 0.17366 0.21899 0.0
C182 C 0.67815 0.18021 0.2442 0.0
C183 C 0.69563 0.19597 0.28149 0.0
H184 H 0.71853 0.28865 0.3723 0.0
H185 H 0.67922 0.31664 0.40597 0.0
H186 H 0.6981 0.2595 0.5057 0.0
H187 H 0.73806 0.231 0.47197 0.0
H188 H 0.82278 0.20155 0.46772 0.0
H189 H 0.86714 0.16831 0.49454 0.0
H190 H 0.86967 0.12762 0.38033 0.0
H191 H 0.82606 0.16044 0.3532 0.0
H192 H 0.79598 0.20648 0.27781 0.0
H193 H 0.76546 0.18069 0.21143 0.0
H194 H 0.64499 0.17169 0.23551 0.0
H195 H 0.67552 0.19913 0.30096 0.0
N196 N 0.7386 0.23245 0.3577 0.0
N197 N 0.77697 0.2217 0.41331 0.0
N198 N 0.7815 0.19881 0.3524 0.0
C199 C 0.75008 0.23715 0.39647 0.0
C200 C 0.793 0.20257 0.39113 0.0
C201 C 0.75436 0.21354 0.33556 0.0
C202 C 0.73109 0.25731 0.41936 0.0
C203 C 0.71476 0.28217 0.40153 0.0
C204 C 0.69236 0.29829 0.42071 0.0
C205 C 0.68561 0.28984 0.45804 0.0
C206 C 0.70308 0.26619 0.47677 0.0
C207 C 0.72595 0.25011 0.45756 0.0
C208 C 0.82076 0.18379 0.40829 0.0
C209 C 0.83285 0.18563 0.44831 0.0
C210 C 0.85804 0.16662 0.46368 0.0
C211 C 0.87128 0.14547 0.43927 0.0
C212 C 0.8595 0.1437 0.3995 0.0
C213 C 0.8346 0.16266 0.38415 0.0
C214 C 0.73797 0.20449 0.29436 0.0
C215 C 0.76319 0.19987 0.26849 0.0
C216 C 0.27327 0.65905 0.19923 0.0
C217 C 0.26977 0.64522 0.1611 0.0
C218 C 0.30576 0.64902 0.14572 0.0
C219 C 0.34462 0.66783 0.16752 0.0
H220 H 0.45961 0.75591 0.15522 0.0
H221 H 0.48532 0.8107 0.12046 0.0
H222 H 0.5237 0.87924 0.22729 0.0
H223 H 0.49798 0.82394 0.26265 0.0
H224 H 0.50904 0.70062 0.30419 0.0
H225 H 0.52164 0.66515 0.358 0.0
H226 H 0.41184 0.66733 0.39849 0.0
H227 H 0.39812 0.70111 0.34365 0.0
H228 H 0.31428 0.68756 0.25067 0.0
H229 H 0.24584 0.65635 0.21162 0.0
H230 H 0.3037 0.63829 0.1165 0.0
H231 H 0.37204 0.67153 0.15474 0.0
N232 N 0.4145 0.73201 0.21109 0.0
N233 N 0.46502 0.74519 0.26643 0.0
N234 N 0.40108 0.69617 0.26316 0.0
C235 C 0.45221 0.75329 0.23044 0.0
C236 C 0.43929 0.71625 0.28273 0.0
C237 C 0.38884 0.70376 0.22724 0.0
C238 C 0.47689 0.78559 0.21173 0.0
C239 C 0.47447 0.78254 0.17151 0.0
C240 C 0.48897 0.81383 0.15154 0.0
C241 C 0.50597 0.84902 0.1712 0.0
C242 C 0.51055 0.85226 0.2116 0.0
C243 C 0.49628 0.82068 0.23178 0.0
C244 C 0.45275 0.70377 0.3199 0.0
C245 C 0.48827 0.69438 0.32518 0.0
C246 C 0.49527 0.67385 0.35576 0.0
C247 C 0.46733 0.66298 0.38206 0.0
C248 C 0.43358 0.67495 0.37842 0.0
C249 C 0.42594 0.69448 0.34725 0.0
C250 C 0.34804 0.68179 0.2055 0.0
C251 C 0.31219 0.67669 0.2215 0.0
C252 C 0.14004 0.25935 0.6557 0.0
C253 C 0.11679 0.23144 0.67633 0.0
C254 C 0.11088 0.24099 0.71334 0.0
C255 C 0.12773 0.27795 0.7292 0.0
H256 H 0.12769 0.35746 0.81981 0.0
H257 H 0.10457 0.38268 0.87303 0.0
H258 H 0.17342 0.49303 0.84791 0.0
H259 H 0.19734 0.46818 0.79514 0.0
H260 H 0.29024 0.46431 0.74985 0.0
H261 H 0.34909 0.49564 0.71675 0.0
H262 H 0.28255 0.42998 0.61146 0.0
H263 H 0.22444 0.3983 0.64416 0.0
H264 H 0.17479 0.31656 0.65441 0.0
H265 H 0.14473 0.25278 0.62706 0.0
H266 H 0.09272 0.21989 0.72968 0.0
H267 H 0.12262 0.28446 0.75768 0.0
N268 N 0.1596 0.35889 0.75594 0.0
N269 N 0.20843 0.41815 0.75139 0.0
N270 N 0.20044 0.36897 0.70716 0.0
C271 C 0.17809 0.39538 0.76941 0.0
C272 C 0.21962 0.40499 0.72011 0.0
C273 C 0.17073 0.34553 0.72463 0.0
C274 C 0.16455 0.4106 0.8028 0.0
C275 C 0.13817 0.38712 0.82558 0.0
C276 C 0.12489 0.40154 0.8562 0.0
C277 C 0.13712 0.43989 0.86476 0.0
C278 C 0.16354 0.4634 0.84218 0.0
C279 C 0.17723 0.44901 0.81187 0.0
C280 C 0.25272 0.42861 0.69976 0.0
C281 C 0.28786 0.45714 0.71948 0.0
C282 C 0.32151 0.47501 0.70062 0.0
C283 C 0.32019 0.46512 0.6616 0.0
C284 C 0.28423 0.43813 0.64147 0.0
C285 C 0.25108 0.41996 0.66034 0.0
C286 C 0.15122 0.30603 0.70849 0.0
C287 C 0.15714 0.29599 0.67155 0.0
Pr288 Pr 0.99606 1.01108 0.56124 0.0
Pr289 Pr 0.06319 0.05044 0.52021 0.0
C290 C 0.93516 0.96216 0.59218 0.0
C291 C 0.9089 0.92298 0.59166 0.0
C292 C 0.86606 0.91283 0.58029 0.0
C293 C 0.83954 0.87685 0.58261 0.0
C294 C 0.85536 0.85033 0.59639 0.0
C295 C 0.89833 0.85979 0.60621 0.0
C296 C 0.925 0.89605 0.60417 0.0
C297 C 0.03885 0.08304 0.59646 0.0
C298 C 0.08381 0.99788 0.57943 0.0
C299 C 0.12299 0.10003 0.48877 0.0
C300 C 0.16374 0.13011 0.49652 0.0
C301 C 0.19425 0.12918 0.47509 0.0
C302 C 0.23029 0.16002 0.47641 0.0
C303 C 0.23634 0.19229 0.49915 0.0
C304 C 0.20714 0.19261 0.52249 0.0
C305 C 0.17101 0.16164 0.52126 0.0
C306 C 1.01837 0.97843 0.48562 0.0
C307 C 0.97559 0.06615 0.50025 0.0
O308 O 0.92865 0.97878 0.56166 0.0
O309 O 0.97414 0.97316 0.60785 0.0
O310 O 0.0561 0.0627 0.58291 0.0
O311 O 1.00002 0.06454 0.5958 0.0
O312 O 0.10024 0.03184 0.57017 0.0
O313 O 0.04347 0.98069 0.5721 0.0
O314 O 0.12135 0.06623 0.49271 0.0
O315 O 0.09157 0.1065 0.4991 0.0
O316 O 1.00215 1.00006 0.49809 0.0
O317 O 0.05804 0.9946 0.48871 0.0
O318 O 0.9596 0.04048 0.52287 0.0
O319 O 1.01377 0.07444 0.49402 0.0
H320 H 0.85291 0.93312 0.57074 0.0
H321 H 0.80646 0.87004 0.57518 0.0
H322 H 0.91094 0.83958 0.6171 0.0
H323 H 0.95794 0.90312 0.61304 0.0
H324 H 0.18923 0.10529 0.45572 0.0
H325 H 0.25238 0.15949 0.45796 0.0
H326 H 0.2112 0.21745 0.5399 0.0
H327 H 0.14798 0.16306 0.53816 0.0
Pr328 Pr 0.50713 0.03402 0.04733 0.0
Pr329 Pr 0.57097 1.01799 1.01628 0.0
C330 C 0.46149 0.05165 0.09473 0.0
C331 C 0.4645 0.08619 0.11506 0.0
C332 C 0.48774 0.12034 0.10306 0.0
C333 C 0.49285 0.15314 0.12407 0.0
C334 C 0.47507 0.15207 0.15747 0.0
C335 C 0.45185 0.11792 0.16943 0.0
C336 C 0.44663 0.08514 0.14834 0.0
C337 C 0.53255 0.07992 0.98795 0.0
C338 C 0.60428 0.07954 0.08609 0.0
C339 C 0.61879 1.00004 0.97178 0.0
C340 C 0.61481 0.96545 0.95074 0.0
C341 C 0.58718 0.93164 0.95955 0.0
C342 C 0.58327 0.8987 0.93954 0.0
C343 C 0.60645 0.89921 0.91004 0.0
C344 C 0.63359 0.9331 0.90083 0.0
C345 C 0.63782 0.96604 0.92116 0.0
C346 C 0.54472 0.97322 0.07574 0.0
C347 C 0.4731 0.9718 0.97667 0.0
O348 O 0.4912 0.03973 0.10661 0.0
O349 O 0.45214 0.04894 0.0573 0.0
O350 O 0.55654 0.07149 1.01317 0.0
O351 O 0.49496 0.06595 0.99463 0.0
O352 O 0.61465 0.07086 0.05383 0.0
O353 O 0.56622 0.06451 0.09276 0.0
O354 O 0.59179 1.0148 0.95873 0.0
O355 O 0.62496 1.00062 1.00926 0.0
O356 O 0.52082 0.97975 0.04882 0.0
O357 O 0.58304 0.99192 0.07356 0.0
O358 O 0.46181 0.9839 1.00681 0.0
O359 O 0.5123 0.98228 0.97291 0.0
H360 H 0.50219 0.12158 0.07765 0.0
H361 H 0.51074 0.17929 0.11444 0.0
H362 H 0.43783 0.11671 0.19509 0.0
H363 H 0.42905 0.059 0.15821 0.0
H364 H 0.56867 0.93075 0.98192 0.0
H365 H 0.56219 0.87283 0.947 0.0
H366 H 0.65169 0.93395 0.87813 0.0
H367 H 0.65899 0.99192 0.9138 0.0
Pr368 Pr 0.55572 0.57961 0.57419 0.0
Pr369 Pr 0.51844 0.50022 0.51818 0.0
C370 C 0.56735 0.64953 0.59633 0.0
C371 C 0.53874 0.66981 0.59328 0.0
C372 C 0.53881 0.69262 0.62484 0.0
C373 C 0.508 0.70781 0.6243 0.0
C374 C 0.47674 0.70032 0.59219 0.0
C375 C 0.47754 0.67871 0.55999 0.0
C376 C 0.50813 0.66328 0.56065 0.0
C377 C 0.57475 0.52324 0.61105 0.0
C378 C 0.46124 0.5173 0.57974 0.0
C379 C 0.5031 0.42978 0.49367 0.0
C380 C 0.52608 0.40439 0.4935 0.0
C381 C 0.53342 0.39208 0.45836 0.0
C382 C 0.55792 0.37053 0.45767 0.0
C383 C 0.57521 0.36077 0.49209 0.0
C384 C 0.56639 0.37145 0.52713 0.0
C385 C 0.54209 0.39325 0.5279 0.0
C386 C 0.49378 0.55509 0.48346 0.0
C387 C 0.61573 0.56148 0.51588 0.0
O388 O 0.57707 0.64009 0.56401 0.0
O389 O 0.55966 0.62331 0.61985 0.0
O390 O 0.55718 0.52224 0.57702 0.0
O391 O 0.58621 0.55673 0.62721 0.0
O392 O 0.46611 0.49307 0.5554 0.0
O393 O 0.48801 0.55165 0.58798 0.0
O394 O 0.49543 0.43943 0.5269 0.0
O395 O 0.51347 0.45701 0.47153 0.0
O396 O 0.51518 0.55728 0.51599 0.0
O397 O 0.48207 0.52148 0.4678 0.0
O398 O 0.61254 0.58363 0.54364 0.0
O399 O 0.58571 0.52939 0.50315 0.0
H400 H 0.56173 0.69754 0.65045 0.0
H401 H 0.50778 0.72447 0.64938 0.0
H402 H 0.45363 0.67267 0.53501 0.0
H403 H 0.50696 0.64522 0.53622 0.0
H404 H 0.52101 0.39988 0.43146 0.0
H405 H 0.5642 0.36216 0.43035 0.0
H406 H 0.5791 0.36356 0.5538 0.0
H407 H 0.53661 0.40192 0.55544 0.0
Pr408 Pr 0.03053 0.55547 1.0219 0.0
Pr409 Pr 0.03944 0.49581 0.06868 0.0
C410 C 1.00583 0.59254 0.96617 0.0
C411 C 0.96475 0.59191 0.94952 0.0
C412 C 0.96029 0.61256 0.91847 0.0
C413 C 0.92098 0.61097 0.90183 0.0
C414 C 0.88572 0.5887 0.91608 0.0
C415 C 0.8902 0.56796 0.94717 0.0
C416 C 0.92953 0.56944 0.96371 0.0
C417 C 0.10519 0.57953 0.07282 0.0
C418 C 0.99951 0.55395 0.10498 0.0
C419 C 0.05843 0.45215 0.12047 0.0
C420 C 0.09737 0.44856 0.13798 0.0
C421 C 0.09684 0.41766 0.15767 0.0
C422 C 0.13391 0.41489 0.17535 0.0
C423 C 0.17191 0.44342 0.17431 0.0
C424 C 0.17229 0.47409 0.15407 0.0
C425 C 0.13537 0.47627 0.13542 0.0
C426 C 0.96422 0.47517 1.01792 0.0
C427 C 0.07466 0.49943 0.98802 0.0
O428 O 1.01237 0.5621 0.95928 0.0
O429 O 1.0193 0.60648 1.00179 0.0
O430 O 0.08969 0.54828 0.05407 0.0
O431 O 0.08447 0.60048 0.06253 0.0
O432 O 1.02078 0.53215 0.11309 0.0
O433 O 0.99235 0.56242 0.06938 0.0
O434 O 0.05375 0.48295 0.13006 0.0
O435 O 0.0467 0.44186 0.08383 0.0
O436 O 0.98086 0.50494 1.0387 0.0
O437 O 0.98486 0.45358 1.02464 0.0
O438 O 0.05194 0.51982 0.97905 0.0
O439 O 0.0815 0.49146 1.02378 0.0
H440 H 0.98715 0.62977 0.90706 0.0
H441 H 0.91799 0.62723 0.87792 0.0
H442 H 0.86333 0.55072 0.95855 0.0
H443 H 0.9325 0.55302 0.98748 0.0
H444 H 0.0678 0.39582 0.15955 0.0
H445 H 0.13294 0.39084 0.19054 0.0
H446 H 0.20122 0.49623 0.15257 0.0
H447 H 0.13644 0.49968 0.11918 0.0
C448 C 0.33996 0.27265 0.51044 0.0
C449 C 0.33592 0.28653 0.47391 0.0
C450 C 0.26383 0.24438 0.4592 0.0
C451 C 0.26957 0.22703 0.49316 0.0
N452 N 0.31321 0.22263 0.55058 0.0
N453 N 0.29625 0.28078 0.41041 0.0
C454 C 0.30762 0.24077 0.51889 0.0
C455 C 0.29835 0.27132 0.44752 0.0
N456 N 0.37445 0.29022 0.53701 0.0
N457 N 0.22519 0.23522 0.43812 0.0
H458 H 0.32098 0.29956 0.3998 0.0
H459 H 0.27114 0.26728 0.38897 0.0
H460 H 0.199 0.2154 0.44564 0.0
H461 H 0.21847 0.2498 0.4154 0.0
H462 H 0.37779 0.28364 0.56538 0.0
H463 H 0.39855 0.31347 0.53139 0.0
H464 H 0.34157 0.22874 0.56829 0.0
H465 H 0.28974 0.19983 0.55793 0.0
C466 C 0.40933 0.92809 0.87898 0.0
C467 C 0.37922 0.89653 0.89035 0.0
C468 C 0.41258 0.91263 0.95758 0.0
C469 C 0.44152 0.94539 0.9467 0.0
N470 N 0.47159 0.98187 0.8964 0.0
N471 N 0.34828 0.86036 0.93968 0.0
C472 C 0.4411 0.95243 0.90721 0.0
C473 C 0.3798 0.88919 0.92944 0.0
N474 N 0.40628 0.93561 0.84117 0.0
N475 N 0.41826 0.90256 0.99421 0.0
H476 H 0.32449 0.84207 0.91959 0.0
H477 H 0.34396 0.85599 0.96799 0.0
H478 H 0.44314 0.9178 1.01518 0.0
H479 H 0.40085 0.87728 1.00301 0.0
H480 H 0.42303 0.96054 0.83132 0.0
H481 H 0.38506 0.9176 0.81911 0.0
H482 H 0.47689 0.98538 0.86825 0.0
H483 H 0.49358 1.00251 0.91547 0.0
C484 C 0.59524 0.43786 0.64654 0.0
C485 C 0.58388 0.43794 0.68367 0.0
C486 C 0.55737 0.48744 0.66829 0.0
C487 C 0.57371 0.49083 0.63328 0.0
N488 N 0.6085 0.46981 0.58865 0.0
N489 N 0.55686 0.46432 0.73139 0.0
C490 C 0.59219 0.46577 0.62196 0.0
C491 C 0.56533 0.46293 0.6948 0.0
N492 N 0.60919 0.41112 0.6351 0.0
N493 N 0.53288 0.50679 0.67563 0.0
H494 H 0.56065 0.44593 0.75123 0.0
H495 H 0.54868 0.48517 0.74302 0.0
H496 H 0.5248 0.52384 0.65631 0.0
H497 H 0.51656 0.50277 0.69862 0.0
H498 H 0.61598 0.40778 0.6078 0.0
H499 H 0.61165 0.3905 0.65251 0.0
H500 H 0.62606 0.45513 0.58017 0.0
H501 H 0.606 0.48938 0.56989 0.0
C502 C 0.92824 0.58341 0.16205 0.0
C503 C 0.95563 0.60079 0.1966 0.0
C504 C 1.01242 0.59076 0.1693 0.0
C505 C 0.98419 0.5699 0.13658 0.0
N506 N 0.91344 0.54118 0.10518 0.0
N507 N 1.02231 0.61454 0.23576 0.0
C508 C 0.94158 0.56484 0.13388 0.0
C509 C 0.9973 0.60255 0.20096 0.0
N510 N 0.88986 0.58575 0.15541 0.0
N511 N 0.05399 0.6012 0.16936 0.0
H512 H 1.01241 0.62305 0.25968 0.0
H513 H 0.0515 0.61271 0.24188 0.0
H514 H 0.06634 0.59496 0.14603 0.0
H515 H 0.07613 0.61943 0.19064 0.0
H516 H 0.87018 0.57722 0.12914 0.0
H517 H 0.8791 0.59933 0.17497 0.0
H518 H 0.88159 0.5332 0.10405 0.0
H519 H 0.92175 0.52676 0.08439 0.0
C520 C 0.52133 0.24124 0.22347 0.0
C521 C 0.48538 0.2498 0.22509 0.0
C522 C 0.4448 0.19771 0.1779 0.0
C523 C 0.47951 0.18673 0.1795 0.0
N524 N 0.54967 0.19511 0.2069 0.0
N525 N 0.41128 0.23272 0.20917 0.0
C526 C 0.5176 0.20778 0.20303 0.0
C527 C 0.44665 0.22714 0.20368 0.0
N528 N 0.55905 0.26547 0.24077 0.0
N529 N 0.41038 0.18058 0.15102 0.0
H530 H 0.41101 0.25375 0.22806 0.0
H531 H 0.38176 0.2145 0.19764 0.0
H532 H 0.40792 0.15895 0.13145 0.0
H533 H 0.38588 0.19001 0.14571 0.0
H534 H 0.58693 0.26274 0.23737 0.0
H535 H 0.56271 0.29007 0.25615 0.0
H536 H 0.57665 0.20707 0.22675 0.0
H537 H 0.54817 0.17087 0.19221 0.0
C538 C 0.16879 0.95694 0.59512 0.0
C539 C 0.15546 0.93358 0.6245 0.0
C540 C 0.10032 0.95792 0.62874 0.0
C541 C 0.11029 0.97768 0.59609 0.0
N542 N 0.14937 0.98986 0.54335 0.0
N543 N 0.10378 0.90658 0.66443 0.0
C544 C 0.14339 0.9757 0.57797 0.0
C545 C 0.1198 0.93254 0.63993 0.0
N546 N 0.20626 0.96207 0.58426 0.0
N547 N 0.07347 0.96447 0.65005 0.0
H548 H 0.11676 0.88705 0.67283 0.0
H549 H 0.07544 0.90215 0.67339 0.0
H550 H 0.06001 0.98414 0.64385 0.0
H551 H 0.06812 0.9534 0.67619 0.0
H552 H 0.21949 0.98192 0.56601 0.0
H553 H 0.22589 0.94895 0.59622 0.0
H554 H 0.17012 0.98545 0.52707 0.0
H555 H 0.13097 1.00286 0.52889 0.0
C556 C 0.87483 0.44503 0.9347 0.0
C557 C 0.84051 0.43503 0.95456 0.0
C558 C 0.8873 0.45127 1.01637 0.0
C559 C 0.92155 0.46283 0.99638 0.0
N560 N 0.94763 0.4794 0.93723 0.0
N561 N 0.81333 0.43536 1.01356 0.0
C562 C 0.91521 0.46235 0.95574 0.0
C563 C 0.84654 0.44024 0.99526 0.0
N564 N 0.8691 0.43649 0.89591 0.0
N565 N 0.89369 0.44966 0.05532 0.0
H566 H 0.78313 0.42738 0.99883 0.0
H567 H 0.81595 0.44229 0.0428 0.0
H568 H 0.92309 0.45801 0.07179 0.0
H569 H 0.87 0.43771 0.07102 0.0
H570 H 0.89333 0.43919 0.88074 0.0
H571 H 0.84005 0.42375 0.8792 0.0
H572 H 0.94429 0.48372 0.90813 0.0
H573 H 0.97753 0.49237 0.95185 0.0
C574 C 0.69499 0.55604 0.45312 0.0
C575 C 0.71886 0.59371 0.45099 0.0
C576 C 0.67659 0.61142 0.49217 0.0
C577 C 0.65411 0.57342 0.4968 0.0
N578 N 0.65505 0.51137 0.49214 0.0
N579 N 0.74132 0.65586 0.48015 0.0
C580 C 0.66723 0.54622 0.48039 0.0
C581 C 0.71256 0.62087 0.47436 0.0
N582 N 0.69765 0.52954 0.42847 0.0
N583 N 0.66301 0.63885 0.5021 0.0
H584 H 0.76861 0.66365 0.46848 0.0
H585 H 0.74029 0.67572 0.50009 0.0
H586 H 0.63641 0.63499 0.5137 0.0
H587 H 0.67621 0.66579 0.49473 0.0
H588 H 0.67779 0.50208 0.42638 0.0
H589 H 0.71704 0.53556 0.40776 0.0
H590 H 0.66631 0.49151 0.48314 0.0
H591 H 0.6384 0.50392 0.51472 0.0
C592 C 0.24992 0.42988 0.25358 0.0
C593 C 0.28439 0.43504 0.23444 0.0
C594 C 0.24383 0.4425 0.1748 0.0
C595 C 0.21119 0.44148 0.19506 0.0
N596 N 0.18866 0.44442 0.25638 0.0
N597 N 0.31726 0.45555 0.17922 0.0
C598 C 0.2159 0.43832 0.2353 0.0
C599 C 0.28232 0.44427 0.19575 0.0
N600 N 0.24843 0.41508 0.28826 0.0
N601 N 0.23766 0.44001 0.13554 0.0
H602 H 0.34628 0.45836 0.19411 0.0
H603 H 0.31807 0.46581 0.15225 0.0
H604 H 0.20938 0.43696 0.11895 0.0
H605 H 0.25931 0.43708 0.11948 0.0
H606 H 0.2221 0.40753 0.30136 0.0
H607 H 0.2716 0.40663 0.30199 0.0
H608 H 0.19309 0.44576 0.28632 0.0
H609 H 0.16422 0.45215 0.24436 0.0
C610 C 0.58338 0.17498 0.95048 0.0
C611 C 0.56207 0.16945 0.91227 0.0
C612 C 0.52084 0.10609 0.92384 0.0
C613 C 0.54521 0.11017 0.9611 0.0
N614 N 0.60684 0.14824 1.0054 0.0
N615 N 0.51538 0.12803 0.86017 0.0
C616 C 0.5787 0.14438 0.97305 0.0
C617 C 0.53215 0.13452 0.89829 0.0
N618 N 0.60723 0.20996 0.9659 0.0
N619 N 0.48648 0.07521 0.91253 0.0
H620 H 0.52235 0.14833 0.84087 0.0
H621 H 0.49732 0.10189 0.84703 0.0
H622 H 0.47789 0.05234 0.92828 0.0
H623 H 0.46475 0.07312 0.8883 0.0
H624 H 0.61936 0.21643 0.99503 0.0
H625 H 0.61137 0.23318 0.95051 0.0
H626 H 0.63415 0.17108 1.01221 0.0
H627 H 0.60595 0.12783 1.0237 0.0
C628 C 0.9793 0.90252 0.40197 0.0
C629 C 0.96388 0.87061 0.42209 0.0
C630 C 0.97496 0.9106 0.48122 0.0
C631 C 0.99526 0.94215 0.46248 0.0
N632 N 1.01849 0.96832 0.40499 0.0
N633 N 0.95362 0.84424 0.48262 0.0
C634 C 0.998 0.93809 0.42282 0.0
C635 C 0.96333 0.87468 0.46219 0.0
N636 N 0.97455 0.89899 0.36274 0.0
N637 N 0.96634 0.91486 0.51721 0.0
H638 H 0.94603 0.81756 0.4701 0.0
H639 H 0.95703 0.84567 0.51251 0.0
H640 H 0.97406 0.94062 0.53182 0.0
H641 H 0.94777 0.8932 0.53068 0.0
H642 H 0.98103 0.92131 0.34596 0.0
H643 H 0.9608 0.87358 0.34658 0.0
H644 H 1.02636 0.96675 0.37778 0.0
H645 H 1.02928 0.9951 0.41817 0.0
C646 C 0.41997 0.76611 0.60316 0.0
C647 C 0.38053 0.74117 0.60829 0.0
C648 C 0.40277 0.68884 0.59896 0.0
C649 C 0.44209 0.71374 0.59347 0.0
N650 N 0.48462 0.7745 0.58029 0.0
N651 N 0.33079 0.67922 0.60109 0.0
C652 C 0.44948 0.75192 0.5922 0.0
C653 C 0.37076 0.70259 0.60271 0.0
N654 N 0.43017 0.8032 0.61096 0.0
N655 N 0.39668 0.65246 0.60281 0.0
H656 H 0.30675 0.68872 0.6036 0.0
H657 H 0.32086 0.65098 0.59358 0.0
H658 H 0.41931 0.64118 0.60047 0.0
H659 H 0.37026 0.63395 0.61125 0.0
H660 H 0.46003 0.82229 0.61228 0.0
H661 H 0.40945 0.81484 0.61874 0.0
H662 H 0.48992 0.80191 0.57513 0.0
H663 H 0.50678 0.76482 0.57208 0.0
C664 C 0.76624 0.7581 0.58131 0.0
C665 C 0.76028 0.75208 0.6198 0.0
C666 C 0.81962 0.80831 0.64321 0.0
C667 C 0.8261 0.81426 0.60474 0.0
N668 N 0.81173 0.79171 0.53801 0.0
N669 N 0.7868 0.76573 0.68773 0.0
C670 C 0.80133 0.78802 0.57399 0.0
C671 C 0.78896 0.77526 0.65084 0.0
N672 N 0.73764 0.73599 0.5519 0.0
N673 N 0.8408 0.83527 0.67224 0.0
H674 H 0.76413 0.74222 0.69482 0.0
H675 H 0.80963 0.7793 0.71101 0.0
H676 H 0.86358 0.8601 0.66822 0.0
H677 H 0.83353 0.83442 0.69991 0.0
H678 H 0.73755 0.74124 0.52313 0.0
H679 H 0.71249 0.71317 0.55658 0.0
H680 H 0.79722 0.77194 0.51493 0.0
H681 H 0.83737 0.81333 0.53205 0.0
C682 C 0.65891 0.16546 0.15457 0.0
C683 C 0.68302 0.15198 0.18159 0.0
C684 C 0.66418 0.0955 0.1392 0.0
C685 C 0.63495 0.10645 0.11569 0.0
N686 N 0.60044 0.14998 0.10334 0.0
N687 N 0.70266 0.10098 0.20293 0.0
C688 C 0.63124 0.141 0.1239 0.0
C689 C 0.68459 0.11631 0.17465 0.0
N690 N 0.66286 0.20171 0.15803 0.0
N691 N 0.67166 0.06474 0.12831 0.0
H692 H 0.71622 0.11424 0.23018 0.0
H693 H 0.70054 0.07356 0.20075 0.0
H694 H 0.65637 0.04808 0.10308 0.0
H695 H 0.6957 0.0577 0.14252 0.0
H696 H 0.64878 0.21385 0.13723 0.0
H697 H 0.68353 0.22051 0.17988 0.0
H698 H 0.59333 0.17283 0.11111 0.0
H699 H 0.57988 0.13313 0.08018 0.0
C700 C 0.4413 0.60171 0.41149 0.0
C701 C 0.4722 0.63728 0.4118 0.0
C702 C 0.51767 0.6201 0.46101 0.0
C703 C 0.48558 0.58573 0.46304 0.0
N704 N 0.41286 0.54923 0.44771 0.0
N705 N 0.53505 0.68343 0.44509 0.0
C706 C 0.44609 0.57833 0.4407 0.0
C707 C 0.50881 0.6475 0.43932 0.0
N708 N 0.40855 0.58911 0.38214 0.0
N709 N 0.55736 0.62586 0.47712 0.0
H710 H 0.52916 0.70431 0.43019 0.0
H711 H 0.56013 0.69292 0.4674 0.0
H712 H 0.56581 0.60595 0.49127 0.0
H713 H 0.58234 0.64894 0.47281 0.0
H714 H 0.38758 0.56202 0.37869 0.0
H715 H 0.40467 0.60431 0.35903 0.0
H716 H 0.38268 0.54451 0.43452 0.0
H717 H 0.41489 0.53244 0.46988 0.0
C718 C 0.07859 0.44908 0.89402 0.0
C719 C 0.12147 0.45536 0.89666 0.0
C720 C 0.13438 0.49326 0.95806 0.0
C721 C 0.09114 0.48393 0.95701 0.0
N722 N 1.02214 0.44475 0.92851 0.0
N723 N 0.18935 0.47807 0.9352 0.0
C724 C 0.06326 0.4596 0.92618 0.0
C725 C 0.14917 0.47603 0.92984 0.0
N726 N 0.05246 0.43409 0.86033 0.0
N727 N 0.16149 0.51948 0.98529 0.0
H728 H 0.20114 0.46544 0.91569 0.0
H729 H 0.20994 0.48934 0.96055 0.0
H730 H 0.15191 0.53266 1.00622 0.0
H731 H 0.19322 0.53042 0.98512 0.0
H732 H 1.02178 0.43244 0.8555 0.0
H733 H 0.0624 0.4267 0.83588 0.0
H734 H 1.00078 0.42426 0.90863 0.0
H735 H 1.0103 0.44967 0.95274 0.0
C736 C 0.63599 0.82129 0.87124 0.0
C737 C 0.5981 0.79865 0.84844 0.0
C738 C 0.5663 0.84327 0.86386 0.0
C739 C 0.60307 0.86413 0.88931 0.0
N740 N 0.66972 0.86886 0.92348 0.0
N741 N 0.52517 0.78449 0.82815 0.0
C742 C 0.637 0.8519 0.89485 0.0
C743 C 0.5626 0.80858 0.84626 0.0
N744 N 0.67147 0.81457 0.86913 0.0
N745 N 0.53559 0.85723 0.85535 0.0
H746 H 0.52139 0.75882 0.81505 0.0
H747 H 0.4974 0.78848 0.82902 0.0
H748 H 0.53731 0.88268 0.86738 0.0
H749 H 0.51003 0.84514 0.83396 0.0
H750 H 0.70067 0.83259 0.88181 0.0
H751 H 0.67239 0.79277 0.85179 0.0
H752 H 0.69323 0.85865 0.93148 0.0
H753 H 0.67144 0.89114 0.94173 0.0
C754 C 0.94128 0.14482 0.46564 0.0
C755 C 0.89826 0.12546 0.45489 0.0
C756 C 0.90811 0.06706 0.46596 0.0
C757 C 0.9501 0.08674 0.48214 0.0
N758 N 1.00549 0.14588 0.50193 0.0
N759 N 0.83933 0.06882 0.44943 0.0
C760 C 0.96658 0.12604 0.48298 0.0
C761 C 0.88125 0.08675 0.45646 0.0
N762 N 0.95819 0.18104 0.45855 0.0
N763 N 0.89439 0.0297 0.45766 0.0
H764 H 0.81866 0.08232 0.44206 0.0
H765 H 0.82503 0.04123 0.45421 0.0
H766 H 0.91378 1.01453 0.46173 0.0
H767 H 0.86511 1.01443 0.44262 0.0
H768 H 0.98994 0.19532 0.46129 0.0
H769 H 0.94059 0.19603 0.44669 0.0
H770 H 1.01671 0.17448 0.50719 0.0
H771 H 1.02543 0.13423 0.51613 0.0
C772 C 0.19934 0.59536 0.14936 0.0
C773 C 0.22831 0.62714 0.13722 0.0
C774 C 0.17873 0.62299 0.07918 0.0
C775 C 0.14806 0.59457 0.09409 0.0
N776 N 0.12716 0.55938 0.14763 0.0
N777 N 0.24226 0.67588 0.09423 0.0
C778 C 0.1578 0.58223 0.13035 0.0
C779 C 0.21721 0.64225 0.10302 0.0
N780 N 0.21162 0.57711 0.17838 0.0
N781 N 0.17153 0.63109 0.04202 0.0
H782 H 0.26987 0.69178 0.11174 0.0
H783 H 0.23355 0.68969 0.07167 0.0
H784 H 0.14401 0.617 1.02342 0.0
H785 H 0.19436 0.64912 1.02861 0.0
H786 H 0.19229 0.55215 0.1863 0.0
H787 H 0.24223 0.58496 0.19198 0.0
H788 H 0.13186 0.5528 0.17591 0.0
H789 H 0.09642 0.54958 0.13459 0.0
C790 C 0.38341 0.45897 0.64033 0.0
C791 C 0.35759 0.47991 0.6424 0.0
C792 C 0.39764 0.52398 0.6009 0.0
C793 C 0.42518 0.50438 0.60094 0.0
N794 N 0.44842 0.4568 0.62673 0.0
N795 N 0.34312 0.53492 0.62941 0.0
C796 C 0.41909 0.47276 0.62219 0.0
C797 C 0.36576 0.5133 0.62421 0.0
N798 N 0.37347 0.42542 0.65526 0.0
N799 N 0.40054 0.55156 0.57699 0.0
H800 H 0.31887 0.52738 0.64528 0.0
H801 H 0.35028 0.56147 0.62058 0.0
H802 H 0.42248 0.55935 0.55865 0.0
H803 H 0.37904 0.56453 0.57263 0.0
H804 H 0.38746 0.40651 0.65005 0.0
H805 H 0.34925 0.41523 0.67089 0.0
H806 H 0.44838 0.4368 0.64574 0.0
H807 H 0.47518 0.46573 0.61435 0.0
C808 C 0.80003 0.62395 0.88126 0.0
C809 C 0.77004 0.59215 0.85957 0.0
C810 C 0.81557 0.55722 0.87558 0.0
C811 C 0.84432 0.58843 0.89902 0.0
N812 N 0.85913 0.648 0.93203 0.0
N813 N 0.74515 0.52664 0.84265 0.0
C814 C 0.83493 0.62066 0.90441 0.0
C815 C 0.77652 0.55811 0.85887 0.0
N816 N 0.79666 0.65779 0.87803 0.0
N817 N 0.82627 0.52746 0.86781 0.0
H818 H 0.71613 0.52644 0.83042 0.0
H819 H 0.74662 0.50042 0.84444 0.0
H820 H 0.8545 0.5257 0.87958 0.0
H821 H 0.80844 0.50569 0.84753 0.0
H822 H 0.82007 0.68232 0.88982 0.0
H823 H 0.77231 0.66196 0.86062 0.0
H824 H 0.85134 0.67042 0.93988 0.0
H825 H 0.88486 0.6464 0.94976 0.0
C826 C 0.55236 0.89218 0.13112 0.0
C827 C 0.51643 0.88213 0.1486 0.0
C828 C 0.49752 0.93128 0.11781 0.0
C829 C 0.53245 0.93999 0.09851 0.0
N830 N 0.58402 0.91911 0.07726 0.0
N831 N 0.45075 0.8875 0.15348 0.0
C832 C 0.5575 0.91786 0.10261 0.0
C833 C 0.48788 0.90044 0.14056 0.0
N834 N 0.58185 0.87729 0.14188 0.0
N835 N 0.47389 0.95279 0.1152 0.0
H836 H 0.44291 0.86563 0.17087 0.0
H837 H 0.42648 0.89655 0.14471 0.0
H838 H 0.47761 0.9736 0.09672 0.0
H839 H 0.45183 0.9512 0.13271 0.0
H840 H 0.61071 0.88651 0.13308 0.0
H841 H 0.57896 0.85816 0.16247 0.0
H842 H 0.60025 0.90123 0.07684 0.0
H843 H 0.58557 0.93432 0.05332 0.0
C844 C 0.05559 0.18083 0.63799 0.0
C845 C 0.09677 0.19275 0.65772 0.0
C846 C 0.09942 0.13162 0.64092 0.0
C847 C 0.05991 0.12107 0.61722 0.0
N848 N 1.00346 0.13941 0.58869 0.0
N849 N 0.16028 0.18149 0.67372 0.0
C850 C 0.03877 0.14667 0.61473 0.0
C851 C 0.11944 0.16877 0.65771 0.0
N852 N 0.03224 0.20218 0.64151 0.0
N853 N 0.11673 0.10579 0.64988 0.0
H854 H 0.17541 0.20775 0.68792 0.0
H855 H 0.17978 0.16699 0.67048 0.0
H856 H 0.10215 0.07786 0.64103 0.0
H857 H 0.14344 0.11123 0.66992 0.0
H858 H 1.00046 0.19292 0.63215 0.0
H859 H 0.04383 0.22814 0.65665 0.0
H860 H 0.98965 0.15877 0.58244 0.0
H861 H 0.99005 0.11566 0.57001 0.0
C862 C 0.67469 0.34166 0.49276 0.0
C863 C 0.65825 0.30487 0.4759 0.0
C864 C 0.588 0.30226 0.48019 0.0
C865 C 0.60407 0.34066 0.49109 0.0
N866 N 0.66223 0.39788 0.50693 0.0
N867 N 0.59975 0.24954 0.45285 0.0
C868 C 0.64738 0.36057 0.49778 0.0
C869 C 0.61501 0.28475 0.46998 0.0
N870 N 0.71646 0.35836 0.50377 0.0
N871 N 0.54695 0.28266 0.47981 0.0
H872 H 0.61871 0.23539 0.44635 0.0
H873 H 0.56846 0.23495 0.4433 0.0
H874 H 0.52643 0.29491 0.48691 0.0
H875 H 0.53386 0.25403 0.47564 0.0
H876 H 0.7304 0.38395 0.51943 0.0
H877 H 0.73705 0.34502 0.50015 0.0
H878 H 0.69299 0.41468 0.50772 0.0
H879 H 0.64329 0.41265 0.51152 0.0
loop_
_geom_bond_atom_site_label_1
_geom_bond_atom_site_label_2
_geom_bond_distance
_geom_bond_site_symmetry_2
_ccdc_geom_bond_type
C0 C1 1.384 . S
C0 H13 0.947 . S
C0 C35 1.382 . S
C1 C0 1.384 . S
C1 C2 1.378 . S
C2 C1 1.378 . S
C2 C3 1.378 . S
C2 H14 0.952 . S
C3 C2 1.378 . S
C3 H15 0.950 . S
C3 C34 1.383 . S
H4 C23 0.947 . S
H5 C24 0.946 . S
H6 C26 0.953 . S
H7 C27 0.945 . S
H8 C29 0.952 . S
H9 C30 0.949 . S
H10 C32 0.950 . S
H11 C33 0.948 . S
H12 C35 0.951 . S
H13 C0 0.947 . S
H14 C2 0.952 . S
H15 C3 0.950 . S
N16 C19 1.382 . S
N16 C21 1.363 . S
N17 C19 1.371 . S
N17 C20 1.372 . S
N18 C20 1.361 . S
N18 C21 1.377 . S
C19 N16 1.382 . S
C19 N17 1.371 . S
C19 C22 1.480 . S
C20 N17 1.372 . S
C20 N18 1.361 . S
C20 C28 1.457 . S
C21 N16 1.363 . S
C21 N18 1.377 . S
C21 C34 1.479 . S
C22 C19 1.480 . S
C22 C23 1.383 . S
C22 C27 1.385 . S
C23 H4 0.947 . S
C23 C22 1.383 . S
C23 C24 1.388 . S
C24 H5 0.946 . S
C24 C23 1.388 . S
C24 C25 1.384 . S
C25 C24 1.384 . S
C25 C26 1.377 . S
C26 H6 0.953 . S
C26 C25 1.377 . S
C26 C27 1.369 . S
C27 H7 0.945 . S
C27 C22 1.385 . S
C27 C26 1.369 . S
C28 C20 1.457 . S
C28 C29 1.372 . S
C28 C33 1.364 . S
C29 H8 0.952 . S
C29 C28 1.372 . S
C29 C30 1.389 . S
C30 H9 0.949 . S
C30 C29 1.389 . S
C30 C31 1.387 . S
C31 C30 1.387 . S
C31 C32 1.372 . S
C32 H10 0.950 . S
C32 C31 1.372 . S
C32 C33 1.379 . S
C33 H11 0.948 . S
C33 C28 1.364 . S
C33 C32 1.379 . S
C34 C3 1.383 . S
C34 C21 1.479 . S
C34 C35 1.398 . S
C35 C0 1.382 . S
C35 H12 0.951 . S
C35 C34 1.398 . S
C36 C37 1.384 . S
C36 H49 0.947 . S
C36 C71 1.382 . S
C37 C36 1.384 . S
C37 C38 1.378 . S
C38 C37 1.378 . S
C38 C39 1.378 . S
C38 H50 0.952 . S
C39 C38 1.378 . S
C39 H51 0.950 . S
C39 C70 1.383 . S
H40 C59 0.947 . S
H41 C60 0.946 . S
H42 C62 0.953 . S
H43 C63 0.945 . S
H44 C65 0.952 . S
H45 C66 0.949 . S
H46 C68 0.950 . S
H47 C69 0.948 . S
H48 C71 0.951 . S
H49 C36 0.947 . S
H50 C38 0.952 . S
H51 C39 0.950 . S
N52 C55 1.382 . S
N52 C57 1.363 . S
N53 C55 1.371 . S
N53 C56 1.372 . S
N54 C56 1.361 . S
N54 C57 1.377 . S
C55 N52 1.382 . S
C55 N53 1.371 . S
C55 C58 1.480 . S
C56 N53 1.372 . S
C56 N54 1.361 . S
C56 C64 1.457 . S
C57 N52 1.363 . S
C57 N54 1.377 . S
C57 C70 1.479 . S
C58 C55 1.480 . S
C58 C59 1.383 . S
C58 C63 1.385 . S
C59 H40 0.947 . S
C59 C58 1.383 . S
C59 C60 1.388 . S
C60 H41 0.946 . S
C60 C59 1.388 . S
C60 C61 1.384 . S
C61 C60 1.384 . S
C61 C62 1.377 . S
C62 H42 0.953 . S
C62 C61 1.377 . S
C62 C63 1.369 . S
C63 H43 0.945 . S
C63 C58 1.385 . S
C63 C62 1.369 . S
C64 C56 1.457 . S
C64 C65 1.372 . S
C64 C69 1.364 . S
C65 H44 0.952 . S
C65 C64 1.372 . S
C65 C66 1.389 . S
C66 H45 0.949 . S
C66 C65 1.389 . S
C66 C67 1.387 . S
C67 C66 1.387 . S
C67 C68 1.372 . S
C68 H46 0.950 . S
C68 C67 1.372 . S
C68 C69 1.379 . S
C69 H47 0.948 . S
C69 C64 1.364 . S
C69 C68 1.379 . S
C70 C39 1.383 . S
C70 C57 1.479 . S
C70 C71 1.398 . S
C71 C36 1.382 . S
C71 H48 0.951 . S
C71 C70 1.398 . S
C72 C73 1.384 . S
C72 H85 0.947 . S
C72 C107 1.382 . S
C73 C72 1.384 . S
C73 C74 1.378 . S
C74 C73 1.378 . S
C74 C75 1.378 . S
C74 H86 0.952 . S
C75 C74 1.378 . S
C75 H87 0.950 . S
C75 C106 1.383 . S
H76 C95 0.947 . S
H77 C96 0.946 . S
H78 C98 0.953 . S
H79 C99 0.945 . S
H80 C101 0.952 . S
H81 C102 0.949 . S
H82 C104 0.950 . S
H83 C105 0.948 . S
H84 C107 0.951 . S
H85 C72 0.947 . S
H86 C74 0.952 . S
H87 C75 0.950 . S
N88 C91 1.382 . S
N88 C93 1.363 . S
N89 C91 1.371 . S
N89 C92 1.372 . S
N90 C92 1.361 . S
N90 C93 1.377 . S
C91 N88 1.382 . S
C91 N89 1.371 . S
C91 C94 1.480 . S
C92 N89 1.372 . S
C92 N90 1.361 . S
C92 C100 1.457 . S
C93 N88 1.363 . S
C93 N90 1.377 . S
C93 C106 1.479 . S
C94 C91 1.480 . S
C94 C95 1.383 . S
C94 C99 1.385 . S
C95 H76 0.947 . S
C95 C94 1.383 . S
C95 C96 1.388 . S
C96 H77 0.946 . S
C96 C95 1.388 . S
C96 C97 1.384 . S
C97 C96 1.384 . S
C97 C98 1.377 . S
C98 H78 0.953 . S
C98 C97 1.377 . S
C98 C99 1.369 . S
C99 H79 0.945 . S
C99 C94 1.385 . S
C99 C98 1.369 . S
C100 C92 1.457 . S
C100 C101 1.372 . S
C100 C105 1.364 . S
C101 H80 0.952 . S
C101 C100 1.372 . S
C101 C102 1.389 . S
C102 H81 0.949 . S
C102 C101 1.389 . S
C102 C103 1.387 . S
C103 C102 1.387 . S
C103 C104 1.372 . S
C104 H82 0.950 . S
C104 C103 1.372 . S
C104 C105 1.379 . S
C105 H83 0.948 . S
C105 C100 1.364 . S
C105 C104 1.379 . S
C106 C75 1.383 . S
C106 C93 1.479 . S
C106 C107 1.398 . S
C107 C72 1.382 . S
C107 H84 0.951 . S
C107 C106 1.398 . S
C108 C109 1.384 . S
C108 H121 0.947 . S
C108 C143 1.382 . S
C109 C108 1.384 . S
C109 C110 1.378 . S
C110 C109 1.378 . S
C110 C111 1.378 . S
C110 H122 0.952 . S
C111 C110 1.378 . S
C111 H123 0.950 . S
C111 C142 1.383 . S
H112 C131 0.947 . S
H113 C132 0.946 . S
H114 C134 0.953 . S
H115 C135 0.945 . S
H116 C137 0.952 . S
H117 C138 0.949 . S
H118 C140 0.950 . S
H119 C141 0.948 . S
H120 C143 0.951 . S
H121 C108 0.947 . S
H122 C110 0.952 . S
H123 C111 0.950 . S
N124 C127 1.382 . S
N124 C129 1.363 . S
N125 C127 1.371 . S
N125 C128 1.372 . S
N126 C128 1.361 . S
N126 C129 1.377 . S
C127 N124 1.382 . S
C127 N125 1.371 . S
C127 C130 1.480 . S
C128 N125 1.372 . S
C128 N126 1.361 . S
C128 C136 1.457 . S
C129 N124 1.363 . S
C129 N126 1.377 . S
C129 C142 1.479 . S
C130 C127 1.480 . S
C130 C131 1.383 . S
C130 C135 1.385 . S
C131 H112 0.947 . S
C131 C130 1.383 . S
C131 C132 1.388 . S
C132 H113 0.946 . S
C132 C131 1.388 . S
C132 C133 1.384 . S
C133 C132 1.384 . S
C133 C134 1.377 . S
C134 H114 0.953 . S
C134 C133 1.377 . S
C134 C135 1.369 . S
C135 H115 0.945 . S
C135 C130 1.385 . S
C135 C134 1.369 . S
C136 C128 1.457 . S
C136 C137 1.372 . S
C136 C141 1.364 . S
C137 H116 0.952 . S
C137 C136 1.372 . S
C137 C138 1.389 . S
C138 H117 0.949 . S
C138 C137 1.389 . S
C138 C139 1.387 . S
C139 C138 1.387 . S
C139 C140 1.372 . S
C140 H118 0.950 . S
C140 C139 1.372 . S
C140 C141 1.379 . S
C141 H119 0.948 . S
C141 C136 1.364 . S
C141 C140 1.379 . S
C142 C111 1.383 . S
C142 C129 1.479 . S
C142 C143 1.398 . S
C143 C108 1.382 . S
C143 H120 0.951 . S
C143 C142 1.398 . S
C144 C145 1.384 . S
C144 H157 0.947 . S
C144 C179 1.382 . S
C145 C144 1.384 . S
C145 C146 1.378 . S
C146 C145 1.378 . S
C146 C147 1.378 . S
C146 H158 0.952 . S
C147 C146 1.378 . S
C147 H159 0.950 . S
C147 C178 1.383 . S
H148 C167 0.947 . S
H149 C168 0.946 . S
H150 C170 0.953 . S
H151 C171 0.945 . S
H152 C173 0.952 . S
H153 C174 0.949 . S
H154 C176 0.950 . S
H155 C177 0.948 . S
H156 C179 0.951 . S
H157 C144 0.947 . S
H158 C146 0.952 . S
H159 C147 0.950 . S
N160 C163 1.382 . S
N160 C165 1.363 . S
N161 C163 1.371 . S
N161 C164 1.372 . S
N162 C164 1.361 . S
N162 C165 1.377 . S
C163 N160 1.382 . S
C163 N161 1.371 . S
C163 C166 1.480 . S
C164 N161 1.372 . S
C164 N162 1.361 . S
C164 C172 1.457 . S
C165 N160 1.363 . S
C165 N162 1.377 . S
C165 C178 1.479 . S
C166 C163 1.480 . S
C166 C167 1.383 . S
C166 C171 1.385 . S
C167 H148 0.947 . S
C167 C166 1.383 . S
C167 C168 1.388 . S
C168 H149 0.946 . S
C168 C167 1.388 . S
C168 C169 1.384 . S
C169 C168 1.384 . S
C169 C170 1.377 . S
C170 H150 0.953 . S
C170 C169 1.377 . S
C170 C171 1.369 . S
C171 H151 0.945 . S
C171 C166 1.385 . S
C171 C170 1.369 . S
C172 C164 1.457 . S
C172 C173 1.372 . S
C172 C177 1.364 . S
C173 H152 0.952 . S
C173 C172 1.372 . S
C173 C174 1.389 . S
C174 H153 0.949 . S
C174 C173 1.389 . S
C174 C175 1.387 . S
C175 C174 1.387 . S
C175 C176 1.372 . S
C176 H154 0.950 . S
C176 C175 1.372 . S
C176 C177 1.379 . S
C177 H155 0.948 . S
C177 C172 1.364 . S
C177 C176 1.379 . S
C178 C147 1.383 . S
C178 C165 1.479 . S
C178 C179 1.398 . S
C179 C144 1.382 . S
C179 H156 0.951 . S
C179 C178 1.398 . S
C180 C181 1.384 . S
C180 H193 0.947 . S
C180 C215 1.382 . S
C181 C180 1.384 . S
C181 C182 1.378 . S
C182 C181 1.378 . S
C182 C183 1.378 . S
C182 H194 0.952 . S
C183 C182 1.378 . S
C183 H195 0.950 . S
C183 C214 1.383 . S
H184 C203 0.947 . S
H185 C204 0.946 . S
H186 C206 0.953 . S
H187 C207 0.945 . S
H188 C209 0.952 . S
H189 C210 0.949 . S
H190 C212 0.950 . S
H191 C213 0.948 . S
H192 C215 0.951 . S
H193 C180 0.947 . S
H194 C182 0.952 . S
H195 C183 0.950 . S
N196 C199 1.382 . S
N196 C201 1.363 . S
N197 C199 1.371 . S
N197 C200 1.372 . S
N198 C200 1.361 . S
N198 C201 1.377 . S
C199 N196 1.382 . S
C199 N197 1.371 . S
C199 C202 1.480 . S
C200 N197 1.372 . S
C200 N198 1.361 . S
C200 C208 1.457 . S
C201 N196 1.363 . S
C201 N198 1.377 . S
C201 C214 1.479 . S
C202 C199 1.480 . S
C202 C203 1.383 . S
C202 C207 1.385 . S
C203 H184 0.947 . S
C203 C202 1.383 . S
C203 C204 1.388 . S
C204 H185 0.946 . S
C204 C203 1.388 . S
C204 C205 1.384 . S
C205 C204 1.384 . S
C205 C206 1.377 . S
C206 H186 0.953 . S
C206 C205 1.377 . S
C206 C207 1.369 . S
C207 H187 0.945 . S
C207 C202 1.385 . S
C207 C206 1.369 . S
C208 C200 1.457 . S
C208 C209 1.372 . S
C208 C213 1.364 . S
C209 H188 0.952 . S
C209 C208 1.372 . S
C209 C210 1.389 . S
C210 H189 0.949 . S
C210 C209 1.389 . S
C210 C211 1.387 . S
C211 C210 1.387 . S
C211 C212 1.372 . S
C212 H190 0.950 . S
C212 C211 1.372 . S
C212 C213 1.379 . S
C213 H191 0.948 . S
C213 C208 1.364 . S
C213 C212 1.379 . S
C214 C183 1.383 . S
C214 C201 1.479 . S
C214 C215 1.398 . S
C215 C180 1.382 . S
C215 H192 0.951 . S
C215 C214 1.398 . S
C216 C217 1.384 . S
C216 H229 0.947 . S
C216 C251 1.382 . S
C217 C216 1.384 . S
C217 C218 1.378 . S
C218 C217 1.378 . S
C218 C219 1.378 . S
C218 H230 0.952 . S
C219 C218 1.378 . S
C219 H231 0.950 . S
C219 C250 1.383 . S
H220 C239 0.947 . S
H221 C240 0.946 . S
H222 C242 0.953 . S
H223 C243 0.945 . S
H224 C245 0.952 . S
H225 C246 0.949 . S
H226 C248 0.950 . S
H227 C249 0.948 . S
H228 C251 0.951 . S
H229 C216 0.947 . S
H230 C218 0.952 . S
H231 C219 0.950 . S
N232 C235 1.382 . S
N232 C237 1.363 . S
N233 C235 1.371 . S
N233 C236 1.372 . S
N234 C236 1.361 . S
N234 C237 1.377 . S
C235 N232 1.382 . S
C235 N233 1.371 . S
C235 C238 1.480 . S
C236 N233 1.372 . S
C236 N234 1.361 . S
C236 C244 1.457 . S
C237 N232 1.363 . S
C237 N234 1.377 . S
C237 C250 1.479 . S
C238 C235 1.480 . S
C238 C239 1.383 . S
C238 C243 1.385 . S
C239 H220 0.947 . S
C239 C238 1.383 . S
C239 C240 1.388 . S
C240 H221 0.946 . S
C240 C239 1.388 . S
C240 C241 1.384 . S
C241 C240 1.384 . S
C241 C242 1.377 . S
C242 H222 0.953 . S
C242 C241 1.377 . S
C242 C243 1.369 . S
C243 H223 0.945 . S
C243 C238 1.385 . S
C243 C242 1.369 . S
C244 C236 1.457 . S
C244 C245 1.372 . S
C244 C249 1.364 . S
C245 H224 0.952 . S
C245 C244 1.372 . S
C245 C246 1.389 . S
C246 H225 0.949 . S
C246 C245 1.389 . S
C246 C247 1.387 . S
C247 C246 1.387 . S
C247 C248 1.372 . S
C248 H226 0.950 . S
C248 C247 1.372 . S
C248 C249 1.379 . S
C249 H227 0.948 . S
C249 C244 1.364 . S
C249 C248 1.379 . S
C250 C219 1.383 . S
C250 C237 1.479 . S
C250 C251 1.398 . S
C251 C216 1.382 . S
C251 H228 0.951 . S
C251 C250 1.398 . S
C252 C253 1.384 . S
C252 H265 0.947 . S
C252 C287 1.382 . S
C253 C252 1.384 . S
C253 C254 1.378 . S
C254 C253 1.378 . S
C254 C255 1.378 . S
C254 H266 0.952 . S
C255 C254 1.378 . S
C255 H267 0.950 . S
C255 C286 1.383 . S
H256 C275 0.947 . S
H257 C276 0.946 . S
H258 C278 0.953 . S
H259 C279 0.945 . S
H260 C281 0.952 . S
H261 C282 0.949 . S
H262 C284 0.950 . S
H263 C285 0.948 . S
H264 C287 0.951 . S
H265 C252 0.947 . S
H266 C254 0.952 . S
H267 C255 0.950 . S
N268 C271 1.382 . S
N268 C273 1.363 . S
N269 C271 1.371 . S
N269 C272 1.372 . S
N270 C272 1.361 . S
N270 C273 1.377 . S
C271 N268 1.382 . S
C271 N269 1.371 . S
C271 C274 1.480 . S
C272 N269 1.372 . S
C272 N270 1.361 . S
C272 C280 1.457 . S
C273 N268 1.363 . S
C273 N270 1.377 . S
C273 C286 1.479 . S
C274 C271 1.480 . S
C274 C275 1.383 . S
C274 C279 1.385 . S
C275 H256 0.947 . S
C275 C274 1.383 . S
C275 C276 1.388 . S
C276 H257 0.946 . S
C276 C275 1.388 . S
C276 C277 1.384 . S
C277 C276 1.384 . S
C277 C278 1.377 . S
C278 H258 0.953 . S
C278 C277 1.377 . S
C278 C279 1.369 . S
C279 H259 0.945 . S
C279 C274 1.385 . S
C279 C278 1.369 . S
C280 C272 1.457 . S
C280 C281 1.372 . S
C280 C285 1.364 . S
C281 H260 0.952 . S
C281 C280 1.372 . S
C281 C282 1.389 . S
C282 H261 0.949 . S
C282 C281 1.389 . S
C282 C283 1.387 . S
C283 C282 1.387 . S
C283 C284 1.372 . S
C284 H262 0.950 . S
C284 C283 1.372 . S
C284 C285 1.379 . S
C285 H263 0.948 . S
C285 C280 1.364 . S
C285 C284 1.379 . S
C286 C255 1.383 . S
C286 C273 1.479 . S
C286 C287 1.398 . S
C287 C252 1.382 . S
C287 H264 0.951 . S
C287 C286 1.398 . S
Pr288 C290 2.880 . S
Pr288 O308 2.562 . S
Pr288 O309 2.490 . S
Pr288 O310 2.695 1_665 S
Pr288 O311 2.512 1_665 S
Pr288 O313 2.437 1_655 S
Pr288 O316 2.436 . S
Pr288 O318 2.438 1_565 S
Pr289 C299 2.880 . S
Pr289 O310 2.436 . S
Pr289 O312 2.438 1_545 S
Pr289 O314 2.562 . S
Pr289 O315 2.490 . S
Pr289 O316 2.695 1_445 S
Pr289 O317 2.512 1_545 S
Pr289 O319 2.437 1_455 S
C290 Pr288 2.880 . S
C290 C291 1.491 . S
C290 O308 1.254 . S
C290 O309 1.225 . S
C291 C290 1.491 . S
C291 C292 1.392 . S
C291 C296 1.356 . S
C292 C291 1.392 . S
C292 C293 1.368 . S
C292 H320 0.929 . S
C293 C292 1.368 . S
C293 C294 1.386 . S
C293 H321 0.929 . S
C294 C293 1.386 . S
C294 C295 1.373 . S
C295 C294 1.373 . S
C295 C296 1.409 . S
C295 H322 0.931 . S
C296 C291 1.356 . S
C296 C295 1.409 . S
C296 H323 0.930 . S
C297 O310 1.270 . S
C297 O311 1.248 . S
C298 O312 1.267 . S
C298 O313 1.278 . S
C299 Pr289 2.880 . S
C299 C300 1.491 . S
C299 O314 1.254 . S
C299 O315 1.225 . S
C300 C299 1.491 . S
C300 C301 1.392 . S
C300 C305 1.356 . S
C301 C300 1.392 . S
C301 C302 1.368 . S
C301 H324 0.929 . S
C302 C301 1.368 . S
C302 C303 1.386 . S
C302 H325 0.929 . S
C303 C302 1.386 . S
C303 C304 1.373 . S
C304 C303 1.373 . S
C304 C305 1.409 . S
C304 H326 0.931 . S
C305 C300 1.356 . S
C305 C304 1.409 . S
C305 H327 0.930 . S
C306 O316 1.270 . S
C306 O317 1.248 1_655 S
C307 O318 1.267 . S
C307 O319 1.278 . S
O308 Pr288 2.562 . S
O308 C290 1.254 . S
O309 Pr288 2.490 . S
O309 C290 1.225 . S
O310 Pr288 2.695 1_445 S
O310 Pr289 2.436 . S
O310 C297 1.270 . S
O311 Pr288 2.512 1_445 S
O311 C297 1.248 . S
O312 Pr289 2.438 1_565 S
O312 C298 1.267 . S
O313 Pr288 2.437 1_455 S
O313 C298 1.278 . S
O314 Pr289 2.562 . S
O314 C299 1.254 . S
O315 Pr289 2.490 . S
O315 C299 1.225 . S
O316 Pr288 2.436 . S
O316 Pr289 2.695 1_665 S
O316 C306 1.270 . S
O317 Pr289 2.512 1_565 S
O317 C306 1.248 1_455 S
O318 Pr288 2.438 1_545 S
O318 C307 1.267 . S
O319 Pr289 2.437 1_655 S
O319 C307 1.278 . S
H320 C292 0.929 . S
H321 C293 0.929 . S
H322 C295 0.931 . S
H323 C296 0.930 . S
H324 C301 0.929 . S
H325 C302 0.929 . S
H326 C304 0.931 . S
H327 C305 0.930 . S
Pr328 C330 2.880 . S
Pr328 O348 2.562 . S
Pr328 O349 2.490 . S
Pr328 O350 2.695 1_554 S
Pr328 O351 2.512 1_554 S
Pr328 O353 2.437 . S
Pr328 O356 2.436 1_545 S
Pr328 O358 2.438 1_544 S
Pr329 C339 2.875 1_554 S
Pr329 O350 2.433 1_564 S
Pr329 O352 2.443 1_565 S
Pr329 O354 2.556 1_554 S
Pr329 O355 2.487 1_554 S
Pr329 O356 2.700 . S
Pr329 O357 2.517 . S
Pr329 O359 2.434 1_554 S
C330 Pr328 2.880 . S
C330 C331 1.491 . S
C330 O348 1.254 . S
C330 O349 1.225 . S
C331 C330 1.491 . S
C331 C332 1.392 . S
C331 C336 1.356 . S
C332 C331 1.392 . S
C332 C333 1.368 . S
C332 H360 0.929 . S
C333 C332 1.368 . S
C333 C334 1.386 . S
C333 H361 0.929 . S
C334 C333 1.386 . S
C334 C335 1.373 . S
C335 C334 1.373 . S
C335 C336 1.409 . S
C335 H362 0.931 . S
C336 C331 1.356 . S
C336 C335 1.409 . S
C336 H363 0.930 . S
C337 O350 1.270 . S
C337 O351 1.248 . S
C338 O352 1.267 . S
C338 O353 1.278 . S
C339 Pr329 2.875 1_556 S
C339 C340 1.491 . S
C339 O354 1.254 . S
C339 O355 1.225 . S
C340 C339 1.491 . S
C340 C341 1.392 . S
C340 C345 1.356 . S
C341 C340 1.392 . S
C341 C342 1.368 . S
C341 H364 0.929 . S
C342 C341 1.368 . S
C342 C343 1.386 . S
C342 H365 0.929 . S
C343 C342 1.386 . S
C343 C344 1.373 . S
C344 C343 1.373 . S
C344 C345 1.409 . S
C344 H366 0.931 . S
C345 C340 1.356 . S
C345 C344 1.409 . S
C345 H367 0.930 . S
C346 O356 1.270 . S
C346 O357 1.248 . S
C347 O358 1.267 . S
C347 O359 1.278 . S
O348 Pr328 2.562 . S
O348 C330 1.254 . S
O349 Pr328 2.490 . S
O349 C330 1.225 . S
O350 Pr328 2.695 1_556 S
O350 Pr329 2.433 1_546 S
O350 C337 1.270 . S
O351 Pr328 2.512 1_556 S
O351 C337 1.248 . S
O352 Pr329 2.443 1_545 S
O352 C338 1.267 . S
O353 Pr328 2.437 . S
O353 C338 1.278 . S
O354 Pr329 2.556 1_556 S
O354 C339 1.254 . S
O355 Pr329 2.487 1_556 S
O355 C339 1.225 . S
O356 Pr328 2.436 1_565 S
O356 Pr329 2.700 . S
O356 C346 1.270 . S
O357 Pr329 2.517 . S
O357 C346 1.248 . S
O358 Pr328 2.438 1_566 S
O358 C347 1.267 . S
O359 Pr329 2.434 1_556 S
O359 C347 1.278 . S
H360 C332 0.929 . S
H361 C333 0.929 . S
H362 C335 0.931 . S
H363 C336 0.930 . S
H364 C341 0.929 . S
H365 C342 0.929 . S
H366 C344 0.931 . S
H367 C345 0.930 . S
Pr368 C370 2.880 . S
Pr368 O388 2.562 . S
Pr368 O389 2.490 . S
Pr368 O390 2.695 . S
Pr368 O391 2.512 . S
Pr368 O393 2.437 . S
Pr368 O396 2.436 . S
Pr368 O398 2.438 . S
Pr369 C379 2.880 . S
Pr369 O390 2.436 . S
Pr369 O392 2.438 . S
Pr369 O394 2.562 . S
Pr369 O395 2.490 . S
Pr369 O396 2.695 . S
Pr369 O397 2.512 . S
Pr369 O399 2.437 . S
C370 Pr368 2.880 . S
C370 C371 1.491 . S
C370 O388 1.254 . S
C370 O389 1.225 . S
C371 C370 1.491 . S
C371 C372 1.392 . S
C371 C376 1.356 . S
C372 C371 1.392 . S
C372 C373 1.368 . S
C372 H400 0.929 . S
C373 C372 1.368 . S
C373 C374 1.386 . S
C373 H401 0.929 . S
C374 C373 1.386 . S
C374 C375 1.373 . S
C375 C374 1.373 . S
C375 C376 1.409 . S
C375 H402 0.931 . S
C376 C371 1.356 . S
C376 C375 1.409 . S
C376 H403 0.930 . S
C377 O390 1.270 . S
C377 O391 1.248 . S
C378 O392 1.267 . S
C378 O393 1.278 . S
C379 Pr369 2.880 . S
C379 C380 1.491 . S
C379 O394 1.254 . S
C379 O395 1.225 . S
C380 C379 1.491 . S
C380 C381 1.392 . S
C380 C385 1.356 . S
C381 C380 1.392 . S
C381 C382 1.368 . S
C381 H404 0.929 . S
C382 C381 1.368 . S
C382 C383 1.386 . S
C382 H405 0.929 . S
C383 C382 1.386 . S
C383 C384 1.373 . S
C384 C383 1.373 . S
C384 C385 1.409 . S
C384 H406 0.931 . S
C385 C380 1.356 . S
C385 C384 1.409 . S
C385 H407 0.930 . S
C386 O396 1.270 . S
C386 O397 1.248 . S
C387 O398 1.267 . S
C387 O399 1.278 . S
O388 Pr368 2.562 . S
O388 C370 1.254 . S
O389 Pr368 2.490 . S
O389 C370 1.225 . S
O390 Pr368 2.695 . S
O390 Pr369 2.436 . S
O390 C377 1.270 . S
O391 Pr368 2.512 . S
O391 C377 1.248 . S
O392 Pr369 2.438 . S
O392 C378 1.267 . S
O393 Pr368 2.437 . S
O393 C378 1.278 . S
O394 Pr369 2.562 . S
O394 C379 1.254 . S
O395 Pr369 2.490 . S
O395 C379 1.225 . S
O396 Pr368 2.436 . S
O396 Pr369 2.695 . S
O396 C386 1.270 . S
O397 Pr369 2.512 . S
O397 C386 1.248 . S
O398 Pr368 2.438 . S
O398 C387 1.267 . S
O399 Pr369 2.437 . S
O399 C387 1.278 . S
H400 C372 0.929 . S
H401 C373 0.929 . S
H402 C375 0.931 . S
H403 C376 0.930 . S
H404 C381 0.929 . S
H405 C382 0.929 . S
H406 C384 0.931 . S
H407 C385 0.930 . S
Pr408 C410 2.880 . S
Pr408 O428 2.562 . S
Pr408 O429 2.490 . S
Pr408 O430 2.695 1_656 S
Pr408 O431 2.512 1_656 S
Pr408 O433 2.437 1_556 S
Pr408 O436 2.436 . S
Pr408 O438 2.438 1_655 S
Pr409 C419 2.880 . S
Pr409 O430 2.436 . S
Pr409 O432 2.438 1_455 S
Pr409 O434 2.562 . S
Pr409 O435 2.490 . S
Pr409 O436 2.695 1_454 S
Pr409 O437 2.512 1_454 S
Pr409 O439 2.437 1_554 S
C410 Pr408 2.880 . S
C410 C411 1.491 . S
C410 O428 1.254 . S
C410 O429 1.225 . S
C411 C410 1.491 . S
C411 C412 1.392 . S
C411 C416 1.356 . S
C412 C411 1.392 . S
C412 C413 1.368 . S
C412 H440 0.929 . S
C413 C412 1.368 . S
C413 C414 1.386 . S
C413 H441 0.929 . S
C414 C413 1.386 . S
C414 C415 1.373 . S
C415 C414 1.373 . S
C415 C416 1.409 . S
C415 H442 0.931 . S
C416 C411 1.356 . S
C416 C415 1.409 . S
C416 H443 0.930 . S
C417 O430 1.270 . S
C417 O431 1.248 . S
C418 O432 1.267 . S
C418 O433 1.278 . S
C419 Pr409 2.880 . S
C419 C420 1.491 . S
C419 O434 1.254 . S
C419 O435 1.225 . S
C420 C419 1.491 . S
C420 C421 1.392 . S
C420 C425 1.356 . S
C421 C420 1.392 . S
C421 C422 1.368 . S
C421 H444 0.929 . S
C422 C421 1.368 . S
C422 C423 1.386 . S
C422 H445 0.929 . S
C423 C422 1.386 . S
C423 C424 1.373 . S
C424 C423 1.373 . S
C424 C425 1.409 . S
C424 H446 0.931 . S
C425 C420 1.356 . S
C425 C424 1.409 . S
C425 H447 0.930 . S
C426 O436 1.270 . S
C426 O437 1.248 . S
C427 O438 1.267 . S
C427 O439 1.278 . S
O428 Pr408 2.562 . S
O428 C410 1.254 . S
O429 Pr408 2.490 . S
O429 C410 1.225 . S
O430 Pr408 2.695 1_454 S
O430 Pr409 2.436 . S
O430 C417 1.270 . S
O431 Pr408 2.512 1_454 S
O431 C417 1.248 . S
O432 Pr409 2.438 1_655 S
O432 C418 1.267 . S
O433 Pr408 2.437 1_554 S
O433 C418 1.278 . S
O434 Pr409 2.562 . S
O434 C419 1.254 . S
O435 Pr409 2.490 . S
O435 C419 1.225 . S
O436 Pr408 2.436 . S
O436 Pr409 2.695 1_656 S
O436 C426 1.270 . S
O437 Pr409 2.512 1_656 S
O437 C426 1.248 . S
O438 Pr408 2.438 1_455 S
O438 C427 1.267 . S
O439 Pr409 2.437 1_556 S
O439 C427 1.278 . S
H440 C412 0.929 . S
H441 C413 0.929 . S
H442 C415 0.931 . S
H443 C416 0.930 . S
H444 C421 0.929 . S
H445 C422 0.929 . S
H446 C424 0.931 . S
H447 C425 0.930 . S
C448 C449 1.363 . S
C448 C454 1.379 . S
C448 N456 1.356 . S
C449 C448 1.363 . S
C449 C455 1.363 . S
C450 C451 1.363 . S
C450 C455 1.379 . S
C450 N457 1.356 . S
C451 C450 1.363 . S
C451 C454 1.363 . S
N452 C454 1.356 . S
N452 H464 0.984 . S
N452 H465 0.985 . S
N453 C455 1.356 . S
N453 H458 0.984 . S
N453 H459 0.985 . S
C454 C448 1.379 . S
C454 C451 1.363 . S
C454 N452 1.356 . S
C455 C449 1.363 . S
C455 C450 1.379 . S
C455 N453 1.356 . S
N456 C448 1.356 . S
N456 H462 0.984 . S
N456 H463 0.984 . S
N457 C450 1.356 . S
N457 H460 0.984 . S
N457 H461 0.985 . S
H458 N453 0.984 . S
H459 N453 0.985 . S
H460 N457 0.984 . S
H461 N457 0.985 . S
H462 N456 0.984 . S
H463 N456 0.984 . S
H464 N452 0.984 . S
H465 N452 0.985 . S
C466 C467 1.363 . S
C466 C472 1.379 . S
C466 N474 1.356 . S
C467 C466 1.363 . S
C467 C473 1.363 . S
C468 C469 1.363 . S
C468 C473 1.379 . S
C468 N475 1.356 . S
C469 C468 1.363 . S
C469 C472 1.363 . S
N470 C472 1.356 . S
N470 H482 0.984 . S
N470 H483 0.985 . S
N471 C473 1.356 . S
N471 H476 0.984 . S
N471 H477 0.985 . S
C472 C466 1.379 . S
C472 C469 1.363 . S
C472 N470 1.356 . S
C473 C467 1.363 . S
C473 C468 1.379 . S
C473 N471 1.356 . S
N474 C466 1.356 . S
N474 H480 0.984 . S
N474 H481 0.984 . S
N475 C468 1.356 . S
N475 H478 0.984 . S
N475 H479 0.985 . S
H476 N471 0.984 . S
H477 N471 0.985 . S
H478 N475 0.984 . S
H479 N475 0.985 . S
H480 N474 0.984 . S
H481 N474 0.984 . S
H482 N470 0.984 . S
H483 N470 0.985 . S
C484 C485 1.363 . S
C484 C490 1.379 . S
C484 N492 1.356 . S
C485 C484 1.363 . S
C485 C491 1.363 . S
C486 C487 1.363 . S
C486 C491 1.379 . S
C486 N493 1.356 . S
C487 C486 1.363 . S
C487 C490 1.363 . S
N488 C490 1.356 . S
N488 H500 0.984 . S
N488 H501 0.985 . S
N489 C491 1.356 . S
N489 H494 0.984 . S
N489 H495 0.985 . S
C490 C484 1.379 . S
C490 C487 1.363 . S
C490 N488 1.356 . S
C491 C485 1.363 . S
C491 C486 1.379 . S
C491 N489 1.356 . S
N492 C484 1.356 . S
N492 H498 0.984 . S
N492 H499 0.984 . S
N493 C486 1.356 . S
N493 H496 0.984 . S
N493 H497 0.985 . S
H494 N489 0.984 . S
H495 N489 0.985 . S
H496 N493 0.984 . S
H497 N493 0.985 . S
H498 N492 0.984 . S
H499 N492 0.984 . S
H500 N488 0.984 . S
H501 N488 0.985 . S
C502 C503 1.363 . S
C502 C508 1.379 . S
C502 N510 1.356 . S
C503 C502 1.363 . S
C503 C509 1.363 . S
C504 C505 1.363 . S
C504 C509 1.379 . S
C504 N511 1.356 . S
C505 C504 1.363 . S
C505 C508 1.363 . S
N506 C508 1.356 . S
N506 H518 0.984 . S
N506 H519 0.985 . S
N507 C509 1.356 . S
N507 H512 0.984 . S
N507 H513 0.985 . S
C508 C502 1.379 . S
C508 C505 1.363 . S
C508 N506 1.356 . S
C509 C503 1.363 . S
C509 C504 1.379 . S
C509 N507 1.356 . S
N510 C502 1.356 . S
N510 H516 0.984 . S
N510 H517 0.984 . S
N511 C504 1.356 . S
N511 H514 0.984 . S
N511 H515 0.985 . S
H512 N507 0.984 . S
H513 N507 0.985 . S
H514 N511 0.984 . S
H515 N511 0.985 . S
H516 N510 0.984 . S
H517 N510 0.984 . S
H518 N506 0.984 . S
H519 N506 0.985 . S
C520 C521 1.363 . S
C520 C526 1.379 . S
C520 N528 1.356 . S
C521 C520 1.363 . S
C521 C527 1.363 . S
C522 C523 1.363 . S
C522 C527 1.379 . S
C522 N529 1.356 . S
C523 C522 1.363 . S
C523 C526 1.363 . S
N524 C526 1.356 . S
N524 H536 0.984 . S
N524 H537 0.985 . S
N525 C527 1.356 . S
N525 H530 0.984 . S
N525 H531 0.985 . S
C526 C520 1.379 . S
C526 C523 1.363 . S
C526 N524 1.356 . S
C527 C521 1.363 . S
C527 C522 1.379 . S
C527 N525 1.356 . S
N528 C520 1.356 . S
N528 H534 0.984 . S
N528 H535 0.984 . S
N529 C522 1.356 . S
N529 H532 0.984 . S
N529 H533 0.985 . S
H530 N525 0.984 . S
H531 N525 0.985 . S
H532 N529 0.984 . S
H533 N529 0.985 . S
H534 N528 0.984 . S
H535 N528 0.984 . S
H536 N524 0.984 . S
H537 N524 0.985 . S
C538 C539 1.363 . S
C538 C544 1.379 . S
C538 N546 1.356 . S
C539 C538 1.363 . S
C539 C545 1.363 . S
C540 C541 1.363 . S
C540 C545 1.379 . S
C540 N547 1.356 . S
C541 C540 1.363 . S
C541 C544 1.363 . S
N542 C544 1.356 . S
N542 H554 0.984 . S
N542 H555 0.985 . S
N543 C545 1.356 . S
N543 H548 0.984 . S
N543 H549 0.985 . S
C544 C538 1.379 . S
C544 C541 1.363 . S
C544 N542 1.356 . S
C545 C539 1.363 . S
C545 C540 1.379 . S
C545 N543 1.356 . S
N546 C538 1.356 . S
N546 H552 0.984 . S
N546 H553 0.984 . S
N547 C540 1.356 . S
N547 H550 0.984 . S
N547 H551 0.985 . S
H548 N543 0.984 . S
H549 N543 0.985 . S
H550 N547 0.984 . S
H551 N547 0.985 . S
H552 N546 0.984 . S
H553 N546 0.984 . S
H554 N542 0.984 . S
H555 N542 0.985 . S
C556 C557 1.363 . S
C556 C562 1.379 . S
C556 N564 1.356 . S
C557 C556 1.363 . S
C557 C563 1.363 . S
C558 C559 1.363 . S
C558 C563 1.379 . S
C558 N565 1.356 . S
C559 C558 1.363 . S
C559 C562 1.363 . S
N560 C562 1.356 . S
N560 H572 0.984 . S
N560 H573 0.985 . S
N561 C563 1.356 . S
N561 H566 0.984 . S
N561 H567 0.985 . S
C562 C556 1.379 . S
C562 C559 1.363 . S
C562 N560 1.356 . S
C563 C557 1.363 . S
C563 C558 1.379 . S
C563 N561 1.356 . S
N564 C556 1.356 . S
N564 H570 0.984 . S
N564 H571 0.984 . S
N565 C558 1.356 . S
N565 H568 0.984 . S
N565 H569 0.985 . S
H566 N561 0.984 . S
H567 N561 0.985 . S
H568 N565 0.984 . S
H569 N565 0.985 . S
H570 N564 0.984 . S
H571 N564 0.984 . S
H572 N560 0.984 . S
H573 N560 0.985 . S
C574 C575 1.363 . S
C574 C580 1.379 . S
C574 N582 1.356 . S
C575 C574 1.363 . S
C575 C581 1.363 . S
C576 C577 1.363 . S
C576 C581 1.379 . S
C576 N583 1.356 . S
C577 C576 1.363 . S
C577 C580 1.363 . S
N578 C580 1.356 . S
N578 H590 0.984 . S
N578 H591 0.985 . S
N579 C581 1.356 . S
N579 H584 0.984 . S
N579 H585 0.985 . S
C580 C574 1.379 . S
C580 C577 1.363 . S
C580 N578 1.356 . S
C581 C575 1.363 . S
C581 C576 1.379 . S
C581 N579 1.356 . S
N582 C574 1.356 . S
N582 H588 0.984 . S
N582 H589 0.984 . S
N583 C576 1.356 . S
N583 H586 0.984 . S
N583 H587 0.985 . S
H584 N579 0.984 . S
H585 N579 0.985 . S
H586 N583 0.984 . S
H587 N583 0.985 . S
H588 N582 0.984 . S
H589 N582 0.984 . S
H590 N578 0.984 . S
H591 N578 0.985 . S
C592 C593 1.363 . S
C592 C598 1.379 . S
C592 N600 1.356 . S
C593 C592 1.363 . S
C593 C599 1.363 . S
C594 C595 1.363 . S
C594 C599 1.379 . S
C594 N601 1.356 . S
C595 C594 1.363 . S
C595 C598 1.363 . S
N596 C598 1.356 . S
N596 H608 0.984 . S
N596 H609 0.985 . S
N597 C599 1.356 . S
N597 H602 0.984 . S
N597 H603 0.985 . S
C598 C592 1.379 . S
C598 C595 1.363 . S
C598 N596 1.356 . S
C599 C593 1.363 . S
C599 C594 1.379 . S
C599 N597 1.356 . S
N600 C592 1.356 . S
N600 H606 0.984 . S
N600 H607 0.984 . S
N601 C594 1.356 . S
N601 H604 0.984 . S
N601 H605 0.985 . S
H602 N597 0.984 . S
H603 N597 0.985 . S
H604 N601 0.984 . S
H605 N601 0.985 . S
H606 N600 0.984 . S
H607 N600 0.984 . S
H608 N596 0.984 . S
H609 N596 0.985 . S
C610 C611 1.363 . S
C610 C616 1.379 . S
C610 N618 1.356 . S
C611 C610 1.363 . S
C611 C617 1.363 . S
C612 C613 1.363 . S
C612 C617 1.379 . S
C612 N619 1.356 . S
C613 C612 1.363 . S
C613 C616 1.363 . S
N614 C616 1.356 . S
N614 H626 0.984 . S
N614 H627 0.985 . S
N615 C617 1.356 . S
N615 H620 0.984 . S
N615 H621 0.985 . S
C616 C610 1.379 . S
C616 C613 1.363 . S
C616 N614 1.356 . S
C617 C611 1.363 . S
C617 C612 1.379 . S
C617 N615 1.356 . S
N618 C610 1.356 . S
N618 H624 0.984 . S
N618 H625 0.984 . S
N619 C612 1.356 . S
N619 H622 0.984 . S
N619 H623 0.985 . S
H620 N615 0.984 . S
H621 N615 0.985 . S
H622 N619 0.984 . S
H623 N619 0.985 . S
H624 N618 0.984 . S
H625 N618 0.984 . S
H626 N614 0.984 . S
H627 N614 0.985 . S
C628 C629 1.363 . S
C628 C634 1.379 . S
C628 N636 1.356 . S
C629 C628 1.363 . S
C629 C635 1.363 . S
C630 C631 1.363 . S
C630 C635 1.379 . S
C630 N637 1.356 . S
C631 C630 1.363 . S
C631 C634 1.363 . S
N632 C634 1.356 . S
N632 H644 0.984 . S
N632 H645 0.985 . S
N633 C635 1.356 . S
N633 H638 0.984 . S
N633 H639 0.985 . S
C634 C628 1.379 . S
C634 C631 1.363 . S
C634 N632 1.356 . S
C635 C629 1.363 . S
C635 C630 1.379 . S
C635 N633 1.356 . S
N636 C628 1.356 . S
N636 H642 0.984 . S
N636 H643 0.984 . S
N637 C630 1.356 . S
N637 H640 0.984 . S
N637 H641 0.985 . S
H638 N633 0.984 . S
H639 N633 0.985 . S
H640 N637 0.984 . S
H641 N637 0.985 . S
H642 N636 0.984 . S
H643 N636 0.984 . S
H644 N632 0.984 . S
H645 N632 0.985 . S
C646 C647 1.363 . S
C646 C652 1.379 . S
C646 N654 1.356 . S
C647 C646 1.363 . S
C647 C653 1.363 . S
C648 C649 1.363 . S
C648 C653 1.379 . S
C648 N655 1.356 . S
C649 C648 1.363 . S
C649 C652 1.363 . S
N650 C652 1.356 . S
N650 H662 0.984 . S
N650 H663 0.985 . S
N651 C653 1.356 . S
N651 H656 0.984 . S
N651 H657 0.985 . S
C652 C646 1.379 . S
C652 C649 1.363 . S
C652 N650 1.356 . S
C653 C647 1.363 . S
C653 C648 1.379 . S
C653 N651 1.356 . S
N654 C646 1.356 . S
N654 H660 0.984 . S
N654 H661 0.984 . S
N655 C648 1.356 . S
N655 H658 0.984 . S
N655 H659 0.985 . S
H656 N651 0.984 . S
H657 N651 0.985 . S
H658 N655 0.984 . S
H659 N655 0.985 . S
H660 N654 0.984 . S
H661 N654 0.984 . S
H662 N650 0.984 . S
H663 N650 0.985 . S
C664 C665 1.363 . S
C664 C670 1.379 . S
C664 N672 1.356 . S
C665 C664 1.363 . S
C665 C671 1.363 . S
C666 C667 1.363 . S
C666 C671 1.379 . S
C666 N673 1.356 . S
C667 C666 1.363 . S
C667 C670 1.363 . S
N668 C670 1.356 . S
N668 H680 0.984 . S
N668 H681 0.985 . S
N669 C671 1.356 . S
N669 H674 0.984 . S
N669 H675 0.985 . S
C670 C664 1.379 . S
C670 C667 1.363 . S
C670 N668 1.356 . S
C671 C665 1.363 . S
C671 C666 1.379 . S
C671 N669 1.356 . S
N672 C664 1.356 . S
N672 H678 0.984 . S
N672 H679 0.984 . S
N673 C666 1.356 . S
N673 H676 0.984 . S
N673 H677 0.985 . S
H674 N669 0.984 . S
H675 N669 0.985 . S
H676 N673 0.984 . S
H677 N673 0.985 . S
H678 N672 0.984 . S
H679 N672 0.984 . S
H680 N668 0.984 . S
H681 N668 0.985 . S
C682 C683 1.363 . S
C682 C688 1.379 . S
C682 N690 1.356 . S
C683 C682 1.363 . S
C683 C689 1.363 . S
C684 C685 1.363 . S
C684 C689 1.379 . S
C684 N691 1.356 . S
C685 C684 1.363 . S
C685 C688 1.363 . S
N686 C688 1.356 . S
N686 H698 0.984 . S
N686 H699 0.985 . S
N687 C689 1.356 . S
N687 H692 0.984 . S
N687 H693 0.985 . S
C688 C682 1.379 . S
C688 C685 1.363 . S
C688 N686 1.356 . S
C689 C683 1.363 . S
C689 C684 1.379 . S
C689 N687 1.356 . S
N690 C682 1.356 . S
N690 H696 0.984 . S
N690 H697 0.984 . S
N691 C684 1.356 . S
N691 H694 0.984 . S
N691 H695 0.985 . S
H692 N687 0.984 . S
H693 N687 0.985 . S
H694 N691 0.984 . S
H695 N691 0.985 . S
H696 N690 0.984 . S
H697 N690 0.984 . S
H698 N686 0.984 . S
H699 N686 0.985 . S
C700 C701 1.363 . S
C700 C706 1.379 . S
C700 N708 1.356 . S
C701 C700 1.363 . S
C701 C707 1.363 . S
C702 C703 1.363 . S
C702 C707 1.379 . S
C702 N709 1.356 . S
C703 C702 1.363 . S
C703 C706 1.363 . S
N704 C706 1.356 . S
N704 H716 0.984 . S
N704 H717 0.985 . S
N705 C707 1.356 . S
N705 H710 0.984 . S
N705 H711 0.985 . S
C706 C700 1.379 . S
C706 C703 1.363 . S
C706 N704 1.356 . S
C707 C701 1.363 . S
C707 C702 1.379 . S
C707 N705 1.356 . S
N708 C700 1.356 . S
N708 H714 0.984 . S
N708 H715 0.984 . S
N709 C702 1.356 . S
N709 H712 0.984 . S
N709 H713 0.985 . S
H710 N705 0.984 . S
H711 N705 0.985 . S
H712 N709 0.984 . S
H713 N709 0.985 . S
H714 N708 0.984 . S
H715 N708 0.984 . S
H716 N704 0.984 . S
H717 N704 0.985 . S
C718 C719 1.363 . S
C718 C724 1.379 . S
C718 N726 1.356 . S
C719 C718 1.363 . S
C719 C725 1.363 . S
C720 C721 1.363 . S
C720 C725 1.379 . S
C720 N727 1.356 . S
C721 C720 1.363 . S
C721 C724 1.363 . S
N722 C724 1.356 . S
N722 H734 0.984 . S
N722 H735 0.985 . S
N723 C725 1.356 . S
N723 H728 0.984 . S
N723 H729 0.985 . S
C724 C718 1.379 . S
C724 C721 1.363 . S
C724 N722 1.356 . S
C725 C719 1.363 . S
C725 C720 1.379 . S
C725 N723 1.356 . S
N726 C718 1.356 . S
N726 H732 0.984 . S
N726 H733 0.984 . S
N727 C720 1.356 . S
N727 H730 0.984 . S
N727 H731 0.985 . S
H728 N723 0.984 . S
H729 N723 0.985 . S
H730 N727 0.984 . S
H731 N727 0.985 . S
H732 N726 0.984 . S
H733 N726 0.984 . S
H734 N722 0.984 . S
H735 N722 0.985 . S
C736 C737 1.363 . S
C736 C742 1.379 . S
C736 N744 1.356 . S
C737 C736 1.363 . S
C737 C743 1.363 . S
C738 C739 1.363 . S
C738 C743 1.379 . S
C738 N745 1.356 . S
C739 C738 1.363 . S
C739 C742 1.363 . S
N740 C742 1.356 . S
N740 H752 0.984 . S
N740 H753 0.985 . S
N741 C743 1.356 . S
N741 H746 0.984 . S
N741 H747 0.985 . S
C742 C736 1.379 . S
C742 C739 1.363 . S
C742 N740 1.356 . S
C743 C737 1.363 . S
C743 C738 1.379 . S
C743 N741 1.356 . S
N744 C736 1.356 . S
N744 H750 0.984 . S
N744 H751 0.984 . S
N745 C738 1.356 . S
N745 H748 0.984 . S
N745 H749 0.985 . S
H746 N741 0.984 . S
H747 N741 0.985 . S
H748 N745 0.984 . S
H749 N745 0.985 . S
H750 N744 0.984 . S
H751 N744 0.984 . S
H752 N740 0.984 . S
H753 N740 0.985 . S
C754 C755 1.363 . S
C754 C760 1.379 . S
C754 N762 1.356 . S
C755 C754 1.363 . S
C755 C761 1.363 . S
C756 C757 1.363 . S
C756 C761 1.379 . S
C756 N763 1.356 . S
C757 C756 1.363 . S
C757 C760 1.363 . S
N758 C760 1.356 1_455 S
N758 H770 0.984 . S
N758 H771 0.985 . S
N759 C761 1.356 . S
N759 H764 0.984 . S
N759 H765 0.985 . S
C760 C754 1.379 . S
C760 C757 1.363 . S
C760 N758 1.356 1_655 S
C761 C755 1.363 . S
C761 C756 1.379 . S
C761 N759 1.356 . S
N762 C754 1.356 . S
N762 H768 0.984 1_655 S
N762 H769 0.984 . S
N763 C756 1.356 . S
N763 H766 0.984 . S
N763 H767 0.985 . S
H764 N759 0.984 . S
H765 N759 0.985 . S
H766 N763 0.984 . S
H767 N763 0.985 . S
H768 N762 0.984 1_455 S
H769 N762 0.984 . S
H770 N758 0.984 . S
H771 N758 0.985 . S
C772 C773 1.363 . S
C772 C778 1.379 . S
C772 N780 1.356 . S
C773 C772 1.363 . S
C773 C779 1.363 . S
C774 C775 1.363 . S
C774 C779 1.379 . S
C774 N781 1.356 . S
C775 C774 1.363 . S
C775 C778 1.363 . S
N776 C778 1.356 . S
N776 H788 0.984 . S
N776 H789 0.985 . S
N777 C779 1.356 . S
N777 H782 0.984 . S
N777 H783 0.985 . S
C778 C772 1.379 . S
C778 C775 1.363 . S
C778 N776 1.356 . S
C779 C773 1.363 . S
C779 C774 1.379 . S
C779 N777 1.356 . S
N780 C772 1.356 . S
N780 H786 0.984 . S
N780 H787 0.984 . S
N781 C774 1.356 . S
N781 H784 0.984 . S
N781 H785 0.985 . S
H782 N777 0.984 . S
H783 N777 0.985 . S
H784 N781 0.984 . S
H785 N781 0.985 . S
H786 N780 0.984 . S
H787 N780 0.984 . S
H788 N776 0.984 . S
H789 N776 0.985 . S
C790 C791 1.363 . S
C790 C796 1.379 . S
C790 N798 1.356 . S
C791 C790 1.363 . S
C791 C797 1.363 . S
C792 C793 1.363 . S
C792 C797 1.379 . S
C792 N799 1.356 . S
C793 C792 1.363 . S
C793 C796 1.363 . S
N794 C796 1.356 . S
N794 H806 0.984 . S
N794 H807 0.985 . S
N795 C797 1.356 . S
N795 H800 0.984 . S
N795 H801 0.985 . S
C796 C790 1.379 . S
C796 C793 1.363 . S
C796 N794 1.356 . S
C797 C791 1.363 . S
C797 C792 1.379 . S
C797 N795 1.356 . S
N798 C790 1.356 . S
N798 H804 0.984 . S
N798 H805 0.984 . S
N799 C792 1.356 . S
N799 H802 0.984 . S
N799 H803 0.985 . S
H800 N795 0.984 . S
H801 N795 0.985 . S
H802 N799 0.984 . S
H803 N799 0.985 . S
H804 N798 0.984 . S
H805 N798 0.984 . S
H806 N794 0.984 . S
H807 N794 0.985 . S
C808 C809 1.363 . S
C808 C814 1.379 . S
C808 N816 1.356 . S
C809 C808 1.363 . S
C809 C815 1.363 . S
C810 C811 1.363 . S
C810 C815 1.379 . S
C810 N817 1.356 . S
C811 C810 1.363 . S
C811 C814 1.363 . S
N812 C814 1.356 . S
N812 H824 0.984 . S
N812 H825 0.985 . S
N813 C815 1.356 . S
N813 H818 0.984 . S
N813 H819 0.985 . S
C814 C808 1.379 . S
C814 C811 1.363 . S
C814 N812 1.356 . S
C815 C809 1.363 . S
C815 C810 1.379 . S
C815 N813 1.356 . S
N816 C808 1.356 . S
N816 H822 0.984 . S
N816 H823 0.984 . S
N817 C810 1.356 . S
N817 H820 0.984 . S
N817 H821 0.985 . S
H818 N813 0.984 . S
H819 N813 0.985 . S
H820 N817 0.984 . S
H821 N817 0.985 . S
H822 N816 0.984 . S
H823 N816 0.984 . S
H824 N812 0.984 . S
H825 N812 0.985 . S
C826 C827 1.363 . S
C826 C832 1.379 . S
C826 N834 1.356 . S
C827 C826 1.363 . S
C827 C833 1.363 . S
C828 C829 1.363 . S
C828 C833 1.379 . S
C828 N835 1.356 . S
C829 C828 1.363 . S
C829 C832 1.363 . S
N830 C832 1.356 . S
N830 H842 0.984 . S
N830 H843 0.985 . S
N831 C833 1.356 . S
N831 H836 0.984 . S
N831 H837 0.985 . S
C832 C826 1.379 . S
C832 C829 1.363 . S
C832 N830 1.356 . S
C833 C827 1.363 . S
C833 C828 1.379 . S
C833 N831 1.356 . S
N834 C826 1.356 . S
N834 H840 0.984 . S
N834 H841 0.984 . S
N835 C828 1.356 . S
N835 H838 0.984 . S
N835 H839 0.985 . S
H836 N831 0.984 . S
H837 N831 0.985 . S
H838 N835 0.984 . S
H839 N835 0.985 . S
H840 N834 0.984 . S
H841 N834 0.984 . S
H842 N830 0.984 . S
H843 N830 0.985 . S
C844 C845 1.363 . S
C844 C850 1.379 . S
C844 N852 1.356 . S
C845 C844 1.363 . S
C845 C851 1.363 . S
C846 C847 1.363 . S
C846 C851 1.379 . S
C846 N853 1.356 . S
C847 C846 1.363 . S
C847 C850 1.363 . S
N848 C850 1.356 . S
N848 H860 0.984 . S
N848 H861 0.985 . S
N849 C851 1.356 . S
N849 H854 0.984 . S
N849 H855 0.985 . S
C850 C844 1.379 . S
C850 C847 1.363 . S
C850 N848 1.356 . S
C851 C845 1.363 . S
C851 C846 1.379 . S
C851 N849 1.356 . S
N852 C844 1.356 . S
N852 H858 0.984 . S
N852 H859 0.984 . S
N853 C846 1.356 . S
N853 H856 0.984 . S
N853 H857 0.985 . S
H854 N849 0.984 . S
H855 N849 0.985 . S
H856 N853 0.984 . S
H857 N853 0.985 . S
H858 N852 0.984 . S
H859 N852 0.984 . S
H860 N848 0.984 . S
H861 N848 0.985 . S
C862 C863 1.363 . S
C862 C868 1.379 . S
C862 N870 1.356 . S
C863 C862 1.363 . S
C863 C869 1.363 . S
C864 C865 1.363 . S
C864 C869 1.379 . S
C864 N871 1.356 . S
C865 C864 1.363 . S
C865 C868 1.363 . S
N866 C868 1.356 . S
N866 H878 0.984 . S
N866 H879 0.985 . S
N867 C869 1.356 . S
N867 H872 0.984 . S
N867 H873 0.985 . S
C868 C862 1.379 . S
C868 C865 1.363 . S
C868 N866 1.356 . S
C869 C863 1.363 . S
C869 C864 1.379 . S
C869 N867 1.356 . S
N870 C862 1.356 . S
N870 H876 0.984 . S
N870 H877 0.984 . S
N871 C864 1.356 . S
N871 H874 0.984 . S
N871 H875 0.985 . S
H872 N867 0.984 . S
H873 N867 0.985 . S
H874 N871 0.984 . S
H875 N871 0.985 . S
H876 N870 0.984 . S
H877 N870 0.984 . S
H878 N866 0.984 . S
H879 N866 0.985 . S
C449 C1 1.435 . S
C451 C303 1.447 . S
C467 C67 1.729 . S
C469 C347 1.696 . S
C487 C377 2.373 . S
C485 C97 2.309 . S
C503 C133 2.770 . S
C505 C418 2.758 . S
C523 C334 1.052 . S
C521 C25 1.020 . S
C541 C298 2.517 . S
C539 C37 2.458 . S
C559 C426 1.261 . S
C557 C103 1.247 . S
C577 C387 2.414 . S
C575 C109 2.460 . S
C593 C31 1.669 . S
C595 C423 1.671 . S
C613 C337 2.137 . S
C611 C73 2.175 . S
C629 C139 2.072 . S
C631 C306 2.051 . S
C647 C61 2.077 . S
C649 C374 2.086 . S
C667 C294 1.443 . S
C665 C175 1.326 . S
C683 C181 1.702 . S
C685 C338 1.680 . S
C701 C247 2.296 . S
C703 C386 2.395 . S
C719 C277 2.767 . S
C721 C427 2.752 . S
C737 C145 0.973 . S
C739 C343 1.047 . S
C757 C307 2.524 . S
C755 C211 2.454 . S
C775 C417 1.254 . S
C773 C217 1.206 . S
C793 C378 2.434 . S
C791 C283 2.439 . S
C809 C169 1.514 . S
C811 C414 1.669 . S
C829 C346 2.160 . S
C827 C241 2.163 . S
C847 C297 2.031 . S
C845 C253 2.075 . S
C863 C205 2.118 . S
C865 C383 2.092 . S
